drugbank_target|P07195 L-lactate dehydrogenase B chain (DB00157; DB02401; DB03940; DB09118; DB11638)
 OpenBabel12092119233D

  0  0  0     0  0            999 V3000
M  V30 BEGIN CTAB
M  V30 COUNTS 5211 5252 0 0 0
M  V30 BEGIN ATOM
M  V30 1 H -0.908 1.98254 -0.117106 0
M  V30 2 N 0 1.576 0 0
M  V30 3 C 0.933 2.03868 1.02534 0
M  V30 4 C 1.911 0.928543 1.3348 0
M  V30 5 O 3.095 1.19667 1.45644 0
M  V30 6 C 0.222 2.43627 2.35294 0
M  V30 7 C -0.732 3.65373 2.2001 0
M  V30 8 S 0.101 5.13292 1.52614 0
M  V30 9 C 1.257 5.56322 2.86805 0
M  V30 10 H 1.49 2.90518 0.631377 0
M  V30 11 H -0.977 1.52953 0.210867 0
M  V30 12 H 0.981 2.67203 3.11629 0
M  V30 13 H -0.358 1.57376 2.7183 0
M  V30 14 H -1.165 3.90944 3.18086 0
M  V30 15 H -1.563 3.418 1.51819 0
M  V30 16 H 0.729 5.58782 3.83104 0
M  V30 17 H 1.672 6.56266 2.65933 0
M  V30 18 H 2.08 4.83886 2.90714 0
M  V30 19 N 1.4781 -0.272755 1.55222 0
M  V30 20 C 2.4411 -1.32041 1.87344 0
M  V30 21 C 3.4411 -1.42342 0.74803 0
M  V30 22 O 4.6311 -1.41488 1.0162 0
M  V30 23 C 1.7631 -2.70173 2.07893 0
M  V30 24 H 2.9561 -1.04789 2.80997 0
M  V30 25 H 0.5091 -0.51083 1.47717 0
M  V30 26 H 1.2441 -3.02605 1.16622 0
M  V30 27 H 1.0291 -2.64082 2.89833 0
M  V30 28 H 2.5191 -3.45869 2.34017 0
M  V30 29 N 2.9562 -1.48159 -0.537278 0
M  V30 30 C 4.1842 -1.59454 -1.31841 0
M  V30 31 C 4.5992 -0.252065 -1.8711 0
M  V30 32 O 3.9562 0.757621 -1.66031 0
M  V30 33 C 4.0072 -2.63546 -2.47439 0
M  V30 34 O 3.7282 -3.92583 -1.94449 0
M  V30 35 C 5.2292 -2.85212 -3.39366 0
M  V30 36 H 2.4492 -0.53785 -0.401196 0
M  V30 37 H 4.9932 -1.93932 -0.648891 0
M  V30 38 H 3.1482 -2.31946 -3.1029 0
M  V30 39 H 3.5622 -4.49629 -2.70063 0
M  V30 40 H 5.0362 -3.61863 -4.16844 0
M  V30 41 H 5.5132 -1.93765 -3.94147 0
M  V30 42 H 6.1192 -3.18086 -2.82314 0
M  V30 43 N 4.4343 0.785586 -1.36625 0
M  V30 44 C 5.3643 1.91259 -1.33949 0
M  V30 45 C 6.3453 1.68795 -0.210325 0
M  V30 46 O 7.5303 1.89854 -0.408561 0
M  V30 47 C 4.6603 3.28339 -1.13186 0
M  V30 48 C 3.6143 3.65335 -2.22967 0
M  V30 49 C 2.9403 5.00806 -1.87342 0
M  V30 50 C 4.2403 3.7352 -3.65075 0
M  V30 51 H 5.9343 1.93755 -2.28253 0
M  V30 52 H 3.4803 0.930788 -1.09874 0
M  V30 53 H 5.4333 4.06804 -1.09948 0
M  V30 54 H 4.1573 3.2624 -0.153332 0
M  V30 55 H 2.8163 2.89169 -2.25337 0
M  V30 56 H 2.4643 4.95233 -0.880545 0
M  V30 57 H 2.1643 5.26529 -2.60846 0
M  V30 58 H 3.6883 5.81687 -1.85667 0
M  V30 59 H 5.1023 4.42168 -3.64911 0
M  V30 60 H 3.4993 4.10731 -4.37516 0
M  V30 61 H 4.5693 2.74527 -3.99703 0
M  V30 62 N 5.9124 1.20967 1.01018 0
M  V30 63 C 6.8594 0.964281 2.09691 0
M  V30 64 C 7.8294 -0.107853 1.65749 0
M  V30 65 O 9.0144 0.0381987 1.90762 0
M  V30 66 C 6.1544 0.52943 3.41015 0
M  V30 67 C 5.2674 1.67043 3.98398 0
M  V30 68 C 4.4024 1.18525 5.17808 0
M  V30 69 C 3.4414 2.29892 5.67288 0
M  V30 70 N 2.5784 1.82546 6.77954 0
M  V30 71 H 7.4184 1.89463 2.30017 0
M  V30 72 H 4.9554 0.944289 1.1279 0
M  V30 73 H 6.9134 0.258588 4.16398 0
M  V30 74 H 5.5434 -0.363919 3.20742 0
M  V30 75 H 4.5954 2.05603 3.20049 0
M  V30 76 H 5.9074 2.50877 4.31117 0
M  V30 77 H 5.0614 0.870762 6.00419 0
M  V30 78 H 3.8004 0.316887 4.86669 0
M  V30 79 H 2.8054 2.6215 4.83278 0
M  V30 80 H 4.0304 3.17216 6.00459 0
M  V30 81 H 1.9764 0.980454 6.48632 0
M  V30 82 H 1.8934 2.59956 7.09901 0
M  V30 83 H 3.1614 1.54115 7.64113 0
M  V30 84 N 7.3905 -1.2043 1.01659 0
M  V30 85 C 8.3005 -2.2689 0.596484 0
M  V30 86 C 9.3165 -1.70107 -0.36599 0
M  V30 87 O 10.4925 -2.00117 -0.226942 0
M  V30 88 C 7.5575 -3.4665 -0.0586659 0
M  V30 89 C 6.6185 -4.18662 0.949751 0
M  V30 90 C 5.8515 -5.32705 0.32577 0
M  V30 91 O 6.0745 -5.63656 -0.874509 0
M  V30 92 O 5.0085 -5.92803 1.04249 0
M  V30 93 H 8.8345 -2.65041 1.4828 0
M  V30 94 H 6.4195 -1.27048 0.786082 0
M  V30 95 H 8.3015 -4.19256 -0.424564 0
M  V30 96 H 6.9765 -3.10375 -0.91918 0
M  V30 97 H 5.8835 -3.48229 1.36702 0
M  V30 98 H 7.2165 -4.58878 1.78023 0
M  V30 99 N 8.8686 -0.792821 -1.36206 0
M  V30 100 C 9.8156 -0.191653 -2.30003 0
M  V30 101 C 10.7856 0.666453 -1.52143 0
M  V30 102 O 11.9706 0.61442 -1.80636 0
M  V30 103 C 9.1106 0.664848 -3.38635 0
M  V30 104 C 8.2236 -0.212175 -4.31479 0
M  V30 105 C 7.3586 0.651022 -5.27196 0
M  V30 106 C 6.3976 -0.227247 -6.11678 0
M  V30 107 N 5.5346 0.595127 -6.99573 0
M  V30 108 H 10.3746 -0.996978 -2.80828 0
M  V30 109 H 7.9116 -0.503206 -1.38225 0
M  V30 110 H 9.8696 1.17645 -4.00269 0
M  V30 111 H 8.4996 1.43557 -2.89122 0
M  V30 112 H 7.5516 -0.841777 -3.70969 0
M  V30 113 H 8.8636 -0.888751 -4.90818 0
M  V30 114 H 8.0176 1.2283 -5.94136 0
M  V30 115 H 6.7566 1.36121 -4.68319 0
M  V30 116 H 5.7616 -0.816904 -5.43697 0
M  V30 117 H 6.9866 -0.93509 -6.72631 0
M  V30 118 H 4.9326 1.28955 -6.432 0
M  V30 119 H 4.8496 -0.0236952 -7.55996 0
M  V30 120 H 6.1176 1.15613 -7.70879 0
M  V30 121 N 10.3467 1.47872 -0.545128 0
M  V30 122 C 11.2767 2.32661 0.197793 0
M  V30 123 C 12.2577 1.43041 0.920504 0
M  V30 124 O 13.4427 1.71912 0.90333 0
M  V30 125 C 10.5727 3.24569 1.23582 0
M  V30 126 C 9.5267 4.23333 0.630323 0
M  V30 127 C 8.8527 5.0448 1.77211 0
M  V30 128 C 10.1527 5.20704 -0.407974 0
M  V30 129 H 11.8467 2.95024 -0.510045 0
M  V30 130 H 9.3927 1.4187 -0.246731 0
M  V30 131 H 11.3457 3.8272 1.76362 0
M  V30 132 H 10.0697 2.60236 1.97344 0
M  V30 133 H 8.7287 3.6639 0.123922 0
M  V30 134 H 8.3767 4.36561 2.49847 0
M  V30 135 H 8.0767 5.71339 1.37281 0
M  V30 136 H 9.6007 5.65487 2.3034 0
M  V30 137 H 11.0147 5.7329 0.033305 0
M  V30 138 H 9.4117 5.95699 -0.725486 0
M  V30 139 H 10.4817 4.66917 -1.30828 0
M  V30 140 N 11.8248 0.280983 1.55075 0
M  V30 141 C 13.0738 -0.334784 1.98902 0
M  V30 142 C 13.3868 -1.56534 1.17288 0
M  V30 143 O 14.5928 -2.25443 1.51287 0
M  V30 144 C 13.0488 -0.646994 3.54037 0
M  V30 145 C 12.6568 0.564085 4.44435 0
M  V30 146 C 14.4008 -1.22506 4.06439 0
M  V30 147 C 12.3078 0.226137 5.90967 0
M  V30 148 H 11.2378 -0.128866 0.742906 0
M  V30 149 H 13.8888 0.386556 1.79382 0
M  V30 150 H 12.2708 -1.42739 3.6938 0
M  V30 151 H 13.4448 1.34082 4.40861 0
M  V30 152 H 11.7598 1.0594 4.02698 0
M  V30 153 H 14.3568 -1.49182 5.13468 0
M  V30 154 H 14.6998 -2.16085 3.55827 0
M  V30 155 H 15.2328 -0.50682 3.94558 0
M  V30 156 H 11.9718 1.12996 6.45687 0
M  V30 157 H 11.4918 -0.513717 5.97596 0
M  V30 158 H 13.1708 -0.179539 6.46751 0
M  V30 159 N 13.3029 -1.57598 0.00835791 0
M  V30 160 C 14.2659 -2.07884 -0.965242 0
M  V30 161 C 15.2659 -0.989825 -1.26725 0
M  V30 162 O 16.4559 -1.25218 -1.21104 0
M  V30 163 C 13.5879 -2.52731 -2.28779 0
M  V30 164 H 14.7809 -2.95178 -0.530112 0
M  V30 165 H 12.3339 -1.54458 -0.239283 0
M  V30 166 H 13.0689 -1.68705 -2.76964 0
M  V30 167 H 12.8539 -3.32272 -2.08177 0
M  V30 168 H 14.3439 -2.91933 -2.98605 0
M  V30 169 N 14.781 0.264519 -1.55364 0
M  V30 170 C 16.192 0.834936 -1.6699 0
M  V30 171 C 16.543 1.86718 -0.602552 0
M  V30 172 O 15.668 2.14899 0.254425 0
M  V30 173 C 16.263 1.5212 -3.02729 0
M  V30 174 C 14.822 2.03954 -3.16354 0
M  V30 175 C 13.969 0.884498 -2.62815 0
M  V30 176 H 16.92 0.0406869 -1.58648 0
M  V30 177 H 16.941 2.38853 -2.96191 0
M  V30 178 H 16.453 0.769668 -3.80392 0
M  V30 179 H 14.554 2.82041 -2.43482 0
M  V30 180 H 14.667 2.24902 -4.23032 0
M  V30 181 H 13.031 1.2802 -2.20188 0
M  V30 182 H 13.814 0.14634 -3.42988 0
M  V30 183 N 16.2591 1.48442 0.529413 0
M  V30 184 C 17.5051 1.5672 1.28711 0
M  V30 185 C 17.8381 0.2406 1.92704 0
M  V30 186 O 17.1131 -0.753454 1.79313 0
M  V30 187 C 17.3961 2.70587 2.37603 0
M  V30 188 C 17.2491 4.12953 1.78297 0
M  V30 189 C 18.5681 2.80212 3.39366 0
M  V30 190 H 15.6871 0.570474 0.466613 0
M  V30 191 H 18.3291 1.80617 0.589706 0
M  V30 192 H 16.4791 2.50342 2.97088 0
M  V30 193 H 18.1511 4.44639 1.22858 0
M  V30 194 H 16.3941 4.19927 1.0883 0
M  V30 195 H 17.0651 4.88448 2.57144 0
M  V30 196 H 19.5411 2.98553 2.89836 0
M  V30 197 H 18.4171 3.61611 4.12951 0
M  V30 198 H 18.6781 1.88393 3.99951 0
M  V30 199 N 17.7372 -0.778329 1.37039 0
M  V30 200 C 18.7002 -1.87301 1.32102 0
M  V30 201 C 19.7002 -1.59198 0.226405 0
M  V30 202 O 20.8902 -1.67403 0.481861 0
M  V30 203 C 18.0222 -3.24309 1.05055 0
M  V30 204 H 19.2152 -1.93093 2.29467 0
M  V30 205 H 16.7682 -0.977358 1.21973 0
M  V30 206 H 17.5032 -3.24196 0.0819373 0
M  V30 207 H 17.2882 -3.46098 1.84279 0
M  V30 208 H 18.7782 -4.04382 1.04234 0
M  V30 209 N 19.2153 -1.21501 -1.00376 0
M  V30 210 C 20.1253 -0.991447 -2.12621 0
M  V30 211 C 21.1413 0.0568446 -1.73907 0
M  V30 212 O 22.3173 -0.13348 -2.00957 0
M  V30 213 C 19.3823 -0.560312 -3.42142 0
M  V30 214 C 18.4433 -1.68096 -3.95022 0
M  V30 215 C 17.6763 -1.2703 -5.18362 0
M  V30 216 O 17.8993 -0.144438 -5.70217 0
M  V30 217 O 16.8333 -2.08269 -5.64719 0
M  V30 218 H 20.6593 -1.93158 -2.34358 0
M  V30 219 H 18.2443 -0.999999 -1.10997 0
M  V30 220 H 20.1263 -0.329724 -4.20108 0
M  V30 221 H 18.8013 0.351089 -3.2179 0
M  V30 222 H 17.7083 -1.96597 -3.18278 0
M  V30 223 H 19.0413 -2.56983 -4.19786 0
M  V30 224 N 20.6934 1.19889 -1.02296 0
M  V30 225 C 21.6034 2.26571 -0.608508 0
M  V30 226 C 22.6194 1.70299 0.356964 0
M  V30 227 O 23.7954 2.00235 0.216326 0
M  V30 228 C 20.8604 3.46677 0.0402814 0
M  V30 229 C 19.9214 4.18153 -0.97194 0
M  V30 230 C 19.1544 5.32525 -0.354016 0
M  V30 231 O 19.3774 5.64112 0.844604 0
M  V30 232 O 18.3114 5.92242 -1.07391 0
M  V30 233 H 22.1374 2.64251 -1.49684 0
M  V30 234 H 19.7224 1.26629 -0.792809 0
M  V30 235 H 21.6044 4.19475 0.402324 0
M  V30 236 H 20.2794 3.10858 0.902707 0
M  V30 237 H 19.1864 3.47499 -1.38546 0
M  V30 238 H 20.5194 4.57927 -1.80454 0
M  V30 239 N 22.1715 0.800033 1.35784 0
M  V30 240 C 23.0815 0.207204 2.33683 0
M  V30 241 C 24.0975 -0.64631 1.61551 0
M  V30 242 O 25.2735 -0.559604 1.93469 0
M  V30 243 C 22.3385 -0.639659 3.40748 0
M  V30 244 C 21.3995 0.233585 4.28664 0
M  V30 245 C 20.6325 -0.572954 5.30616 0
M  V30 246 O 20.8555 -1.80816 5.40982 0
M  V30 247 O 19.7895 0.0327285 6.01891 0
M  V30 248 H 23.6155 1.01692 2.86169 0
M  V30 249 H 21.2005 0.561691 1.38439 0
M  V30 250 H 23.0825 -1.12223 4.06182 0
M  V30 251 H 21.7575 -1.42708 2.90544 0
M  V30 252 H 20.6645 0.763147 3.66233 0
M  V30 253 H 21.9975 0.984784 4.82248 0
M  V30 254 N 23.6496 -1.47581 0.552962 0
M  V30 255 C 24.6126 -2.28439 -0.186605 0
M  V30 256 C 25.6126 -1.36706 -0.84665 0
M  V30 257 O 26.8026 -1.59378 -0.703164 0
M  V30 258 C 23.9346 -3.16264 -1.2724 0
M  V30 259 H 25.1276 -2.95294 0.523609 0
M  V30 260 H 22.6806 -1.532 0.309745 0
M  V30 261 H 23.4156 -2.54091 -2.01514 0
M  V30 262 H 23.2006 -3.83769 -0.803968 0
M  V30 263 H 24.6906 -3.77198 -1.79196 0
M  V30 264 N 25.1277 -0.289203 -1.54924 0
M  V30 265 C 26.3557 0.326463 -2.04308 0
M  V30 266 C 26.7707 1.48413 -1.16701 0
M  V30 267 O 26.1277 1.81507 -0.190087 0
M  V30 268 C 26.1787 0.794014 -3.52672 0
M  V30 269 O 25.8997 -0.317564 -4.36948 0
M  V30 270 C 27.4007 1.47605 -4.18004 0
M  V30 271 H 24.6207 0.0726272 -0.667058 0
M  V30 272 H 27.1647 -0.425401 -2.00026 0
M  V30 273 H 25.3197 1.49593 -3.57352 0
M  V30 274 H 25.7337 0.0443186 -5.24481 0
M  V30 275 H 27.2077 1.75447 -5.23376 0
M  V30 276 H 27.6847 2.41224 -3.67025 0
M  V30 277 H 28.2907 0.81762 -4.17367 0
M  V30 278 N 26.6058 1.57591 -0.0167156 0
M  V30 279 C 27.8518 1.91567 0.665582 0
M  V30 280 C 28.1848 0.892298 1.72487 0
M  V30 281 O 27.4598 -0.0867127 1.94307 0
M  V30 282 C 27.7428 3.36069 1.29342 0
M  V30 283 C 27.5958 4.49135 0.244541 0
M  V30 284 C 28.9148 3.803 2.21495 0
M  V30 285 H 26.0338 0.69666 0.240488 0
M  V30 286 H 28.6758 1.89866 -0.0714356 0
M  V30 287 H 26.8258 3.3765 1.92158 0
M  V30 288 H 28.4978 4.59689 -0.385228 0
M  V30 289 H 26.7408 4.3165 -0.431379 0
M  V30 290 H 27.4118 5.47242 0.723207 0
M  V30 291 H 29.8878 3.80377 1.68678 0
M  V30 292 H 28.7638 4.82127 2.62382 0
M  V30 293 H 29.0248 3.15104 3.101 0
M  V30 294 N 28.0839 -0.256276 1.55502 0
M  V30 295 C 29.4949 -0.826068 1.67431 0
M  V30 296 C 29.8459 -1.86396 0.612446 0
M  V30 297 O 28.9709 -2.15031 -0.243025 0
M  V30 298 C 29.5659 -1.50512 3.03532 0
M  V30 299 C 28.1249 -2.02273 3.17431 0
M  V30 300 C 27.2719 -0.870548 2.63281 0
M  V30 301 H 30.2229 -0.0322728 1.58667 0
M  V30 302 H 30.2439 -2.37279 2.97454 0
M  V30 303 H 29.7559 -0.749484 3.80794 0
M  V30 304 H 27.8569 -2.80746 2.44974 0
M  V30 305 H 27.9699 -2.22655 4.24219 0
M  V30 306 H 26.3339 -1.26851 2.20864 0
M  V30 307 H 27.1169 -0.128149 3.43061 0
M  V30 308 N 29.562 -1.4872 -0.521534 0
M  V30 309 C 30.51 -1.64328 -1.64618 0
M  V30 310 C 31.504 -0.50953 -1.61555 0
M  V30 311 O 32.71 -0.688525 -1.66311 0
M  V30 312 H 29.085 -0.517805 -0.545328 0
M  V30 313 H 31.056 -2.58767 -1.48601 0
M  V30 314 C 29.805 -1.70805 -3.02855 0
M  V30 315 H 29.128 -2.5741 -3.05909 0
M  V30 316 H 30.568 -1.85766 -3.81139 0
M  V30 317 C 29.027 -0.448479 -3.33902 0
M  V30 318 O 29.557 0.434928 -3.99339 0
M  V30 319 N 27.763 -0.317616 -2.88859 0
M  V30 320 H 27.31 -1.03748 -2.35784 0
M  V30 321 H 27.268 0.524113 -3.10001 0
M  V30 322 N 31.0401 0.771051 -1.3745 0
M  V30 323 C 31.9881 1.90574 -1.33358 0
M  V30 324 C 32.9821 1.67936 -0.22224 0
M  V30 325 O 34.1881 1.75717 -0.390304 0
M  V30 326 H 30.5631 0.626714 -0.415612 0
M  V30 327 H 32.5341 1.91142 -2.29144 0
M  V30 328 C 31.2831 3.27845 -1.15813 0
M  V30 329 H 30.6061 3.45842 -2.00583 0
M  V30 330 H 32.0461 4.07538 -1.17 0
M  V30 331 C 30.5051 3.36625 0.136165 0
M  V30 332 O 31.0351 3.85785 1.11949 0
M  V30 333 N 29.2411 2.89997 0.187099 0
M  V30 334 H 28.7881 2.50182 -0.613753 0
M  V30 335 H 28.7461 2.96252 1.05272 0
M  V30 336 N 32.5182 1.22032 0.997298 0
M  V30 337 C 33.4652 0.986467 2.08656 0
M  V30 338 C 34.4352 -0.0902671 1.65855 0
M  V30 339 O 35.6202 0.0584294 1.90711 0
M  V30 340 C 32.7602 0.565569 3.40434 0
M  V30 341 C 31.8732 1.71259 3.96604 0
M  V30 342 C 31.0082 1.24011 5.16522 0
M  V30 343 C 30.0472 2.35896 5.64818 0
M  V30 344 N 29.1842 1.89726 6.7598 0
M  V30 345 H 34.0242 1.91892 2.27994 0
M  V30 346 H 31.5612 0.956199 1.11782 0
M  V30 347 H 33.5192 0.302738 4.161 0
M  V30 348 H 32.1492 -0.329879 3.2111 0
M  V30 349 H 31.2012 2.08986 3.17851 0
M  V30 350 H 32.5132 2.55436 4.28432 0
M  V30 351 H 31.6672 0.934395 5.99461 0
M  V30 352 H 30.4062 0.368487 4.86306 0
M  V30 353 H 29.4112 2.67261 4.8047 0
M  V30 354 H 30.6362 3.23567 5.97061 0
M  V30 355 H 28.5822 1.0492 6.47555 0
M  V30 356 H 28.4992 2.67471 7.07103 0
M  V30 357 H 29.7672 1.62211 7.62435 0
M  V30 358 N 33.9963 -1.19345 1.0293 0
M  V30 359 C 35.2453 -1.88363 0.721256 0
M  V30 360 C 35.5583 -1.80514 -0.753254 0
M  V30 361 O 36.7643 -2.44788 -1.17436 0
M  V30 362 C 35.2203 -3.37872 1.23978 0
M  V30 363 C 34.8283 -3.54278 2.74211 0
M  V30 364 C 36.5723 -4.12365 1.00775 0
M  V30 365 C 34.4793 -4.97682 3.19479 0
M  V30 366 H 33.4093 -0.705484 0.266098 0
M  V30 367 H 36.0603 -1.34928 1.24365 0
M  V30 368 H 34.4423 -3.90707 0.6453 0
M  V30 369 H 35.6163 -3.11769 3.39318 0
M  V30 370 H 33.9313 -2.93174 2.95699 0
M  V30 371 H 36.5283 -5.18119 1.32123 0
M  V30 372 H 36.8713 -4.16263 -0.0554308 0
M  V30 373 H 37.4043 -3.65668 1.56625 0
M  V30 374 H 34.1433 -4.98945 4.25128 0
M  V30 375 H 33.6633 -5.4095 2.591 0
M  V30 376 H 35.3423 -5.66337 3.12845 0
M  V30 377 N 35.4744 -0.807222 -1.35358 0
M  V30 378 C 36.7024 -0.400377 -2.02989 0
M  V30 379 C 37.1174 0.988859 -1.60832 0
M  V30 380 O 36.4744 1.63729 -0.806175 0
M  V30 381 C 36.5254 -0.474867 -3.58368 0
M  V30 382 O 36.2464 -1.80933 -3.98992 0
M  V30 383 C 37.7474 -0.0609112 -4.43258 0
M  V30 384 H 34.9674 -0.162587 -0.651004 0
M  V30 385 H 37.5114 -1.09102 -1.72965 0
M  V30 386 H 35.6664 0.167534 -3.87038 0
M  V30 387 H 36.0804 -1.77256 -4.9364 0
M  V30 388 H 37.5544 -0.164145 -5.51756 0
M  V30 389 H 38.0314 0.993831 -4.27808 0
M  V30 390 H 38.6374 -0.676492 -4.19885 0
M  V30 391 N 36.9525 1.47285 -0.560781 0
M  V30 392 C 38.1985 2.02764 -0.0381184 0
M  V30 393 C 38.5315 1.43384 1.30976 0
M  V30 394 O 37.8065 0.590733 1.85312 0
M  V30 395 C 38.0895 3.60064 0.0511427 0
M  V30 396 C 37.9425 4.2987 -1.32408 0
M  V30 397 C 39.2615 4.33439 0.762795 0
M  V30 398 H 36.3805 0.736841 -0.0153264 0
M  V30 399 H 39.0225 1.75675 -0.723759 0
M  V30 400 H 37.1725 3.83274 0.635065 0
M  V30 401 H 38.8445 4.17989 -1.95148 0
M  V30 402 H 37.0875 3.90085 -1.8978 0
M  V30 403 H 37.7585 5.38478 -1.21431 0
M  V30 404 H 40.2345 4.15243 0.266965 0
M  V30 405 H 39.1105 5.43124 0.794221 0
M  V30 406 H 39.3715 4.02915 1.81966 0
M  V30 407 N 38.4306 0.297415 1.54768 0
M  V30 408 C 39.6766 -0.313376 2.00364 0
M  V30 409 C 40.0096 -1.53815 1.18553 0
M  V30 410 O 39.2846 -1.92739 0.261103 0
M  V30 411 C 39.5676 -0.673525 3.53745 0
M  V30 412 C 39.4206 0.560133 4.46299 0
M  V30 413 C 40.7396 -1.50143 4.13697 0
M  V30 414 H 37.8586 -0.112428 0.728374 0
M  V30 415 H 40.5006 0.4088 1.8555 0
M  V30 416 H 38.6506 -1.28881 3.665 0
M  V30 417 H 40.3226 1.19863 4.45455 0
M  V30 418 H 38.5656 1.19405 4.17043 0
M  V30 419 H 39.2366 0.26405 5.51368 0
M  V30 420 H 41.7126 -0.981588 4.04356 0
M  V30 421 H 40.5886 -1.72221 5.21182 0
M  V30 422 H 40.8496 -2.48952 3.65343 0
M  V30 423 N 39.9087 -1.5758 0.0250728 0
M  V30 424 C 41.1567 -1.91255 -0.653151 0
M  V30 425 C 41.4777 -0.901691 -1.729 0
M  V30 426 O 40.7477 0.0573785 -1.95816 0
M  V30 427 H 39.3277 -0.705942 -0.244243 0
M  V30 428 H 41.9897 -1.94767 0.0719209 0
M  V30 429 H 41.0857 -2.91752 -1.10847 0
M  V30 430 N 41.3868 0.248026 -1.55636 0
M  V30 431 C 42.6328 0.97767 -1.77678 0
M  V30 432 C 42.9658 1.85016 -0.590135 0
M  V30 433 O 42.2408 1.90095 0.411611 0
M  V30 434 C 42.5238 1.83914 -3.09593 0
M  V30 435 C 42.3768 0.99491 -4.38659 0
M  V30 436 C 43.6958 2.82183 -3.37729 0
M  V30 437 H 40.8148 0.354005 -0.646413 0
M  V30 438 H 43.4568 0.248253 -1.88371 0
M  V30 439 H 41.6068 2.46104 -3.00608 0
M  V30 440 H 43.2788 0.391789 -4.59633 0
M  V30 441 H 41.5218 0.299231 -4.32767 0
M  V30 442 H 42.1928 1.63145 -5.2734 0
M  V30 443 H 44.6688 2.30129 -3.4667 0
M  V30 444 H 43.5448 3.39582 -4.31249 0
M  V30 445 H 43.8058 3.58588 -2.58586 0
M  V30 446 N 42.8649 1.48995 0.513639 0
M  V30 447 C 44.1129 1.57531 1.26604 0
M  V30 448 C 44.4339 0.258236 1.93283 0
M  V30 449 O 43.7039 -0.721502 1.8213 0
M  V30 450 H 42.2839 0.580387 0.470276 0
M  V30 451 H 44.9459 1.85552 0.596373 0
M  V30 452 H 44.0419 2.36486 2.03669 0
M  V30 453 N 44.343 -0.763751 1.37857 0
M  V30 454 C 45.275 -1.88664 1.30148 0
M  V30 455 C 46.288 -1.61365 0.215685 0
M  V30 456 O 47.477 -1.72134 0.472459 0
M  V30 457 C 44.577 -3.24075 0.991396 0
M  V30 458 C 43.75 -3.78958 2.18426 0
M  V30 459 C 42.809 -4.92862 1.8432 0
M  V30 460 O 41.835 -5.08027 2.56704 0
M  V30 461 N 43.037 -5.75071 0.792081 0
M  V30 462 H 45.802 -1.95791 2.26905 0
M  V30 463 H 43.363 -0.943226 1.31586 0
M  V30 464 H 45.355 -3.97804 0.743935 0
M  V30 465 H 43.925 -3.12399 0.112122 0
M  V30 466 H 43.145 -2.96913 2.59299 0
M  V30 467 H 44.433 -4.12357 2.98058 0
M  V30 468 H 43.831 -5.65375 0.191595 0
M  V30 469 H 42.388 -6.48991 0.60449 0
M  V30 470 N 45.8211 -1.22559 -0.990812 0
M  V30 471 C 47.0671 -1.05297 -1.73322 0
M  V30 472 C 47.4001 0.410655 -1.89808 0
M  V30 473 O 46.6751 1.30439 -1.44277 0
M  V30 474 C 46.9581 -1.76713 -3.13759 0
M  V30 475 C 46.8111 -3.30684 -3.04907 0
M  V30 476 C 48.1301 -1.52121 -4.12974 0
M  V30 477 H 45.2491 -0.38392 -0.629106 0
M  V30 478 H 47.8911 -1.50926 -1.15418 0
M  V30 479 H 46.0411 -1.37924 -3.63193 0
M  V30 480 H 47.7131 -3.7893 -2.63077 0
M  V30 481 H 45.9561 -3.60253 -2.41661 0
M  V30 482 H 46.6271 -3.75833 -4.04294 0
M  V30 483 H 49.1031 -1.85819 -3.72304 0
M  V30 484 H 47.9791 -2.04582 -5.0935 0
M  V30 485 H 48.2401 -0.454257 -4.3976 0
M  V30 486 N 47.2992 1.18797 -1.03562 0
M  V30 487 C 48.5472 1.88278 -0.734569 0
M  V30 488 C 48.8682 1.8043 0.739586 0
M  V30 489 O 48.1382 1.21925 1.53333 0
M  V30 490 H 46.7182 0.696991 -0.268725 0
M  V30 491 H 49.3802 1.44192 -1.31129 0
M  V30 492 H 48.4762 2.94443 -1.03489 0
M  V30 493 N 48.7773 0.814389 1.34928 0
M  V30 494 C 49.7103 0.175641 2.27523 0
M  V30 495 C 50.6883 -0.662953 1.48471 0
M  V30 496 O 51.8723 -0.628545 1.77712 0
M  V30 497 C 48.9993 -0.755516 3.30166 0
M  V30 498 C 48.0453 0.00445305 4.265 0
M  V30 499 S 48.8783 1.34582 5.18313 0
M  V30 500 C 50.0343 0.419315 6.24494 0
M  V30 501 H 50.2673 0.960691 2.8135 0
M  V30 502 H 47.8003 0.609846 1.41846 0
M  V30 503 H 49.7583 -1.28723 3.89796 0
M  V30 504 H 48.4193 -1.51402 2.75202 0
M  V30 505 H 47.6123 -0.703077 4.99072 0
M  V30 506 H 47.2143 0.466447 3.7108 0
M  V30 507 H 49.5063 -0.392432 6.76362 0
M  V30 508 H 50.4493 1.11446 6.99275 0
M  V30 509 H 50.8573 0.0115389 5.64499 0
M  V30 510 N 50.2554 -1.46986 0.568584 0
M  V30 511 C 51.2184 -2.28624 -0.162366 0
M  V30 512 C 52.2184 -1.37596 -0.832103 0
M  V30 513 O 53.4084 -1.60115 -0.68622 0
M  V30 514 C 50.5404 -3.17596 -1.23878 0
M  V30 515 H 51.7334 -2.94722 0.554899 0
M  V30 516 H 49.2864 -1.52863 0.325976 0
M  V30 517 H 50.0214 -2.56214 -1.98808 0
M  V30 518 H 49.8064 -3.846 -0.763219 0
M  V30 519 H 51.2964 -3.79078 -1.75185 0
M  V30 520 N 51.7335 -0.305618 -1.54608 0
M  V30 521 C 52.9735 0.303114 -2.0214 0
M  V30 522 C 53.3375 1.50737 -1.18921 0
M  V30 523 O 54.5385 2.18778 -1.56172 0
M  V30 524 C 52.8095 0.646332 -3.51507 0
M  V30 525 S 54.3685 1.23727 -4.20995 0
M  V30 526 H 51.1865 0.0927643 -0.704923 0
M  V30 527 H 53.7885 -0.434566 -1.90609 0
M  V30 528 H 52.4925 -0.238541 -4.09706 0
M  V30 529 H 52.0235 1.41468 -3.67084 0
M  V30 530 H 54.0385 2.52489 -4.27158 0
M  V30 531 N 53.2116 1.57565 -0.0334293 0
M  V30 532 C 54.1746 2.09393 0.932048 0
M  V30 533 C 55.1746 1.00986 1.25134 0
M  V30 534 O 56.3646 1.27129 1.19096 0
M  V30 535 C 53.4966 2.56338 2.2473 0
M  V30 536 H 54.6896 2.95984 0.483085 0
M  V30 537 H 52.2426 1.54819 0.21468 0
M  V30 538 H 52.9776 1.7309 2.74245 0
M  V30 539 H 52.7626 3.35542 2.02865 0
M  V30 540 H 54.2526 2.96646 2.93923 0
M  V30 541 N 54.6897 -0.239769 1.55765 0
M  V30 542 C 55.9387 -0.964754 1.77131 0
M  V30 543 C 56.2517 -1.86213 0.59868 0
M  V30 544 O 57.4577 -2.6244 0.695522 0
M  V30 545 C 55.9137 -1.76552 3.1362 0
M  V30 546 C 55.5217 -0.915185 4.38553 0
M  V30 547 C 57.2657 -2.48281 3.44321 0
M  V30 548 C 55.1727 -1.71225 5.66071 0
M  V30 549 H 54.1027 -0.363953 0.660344 0
M  V30 550 H 56.7537 -0.219181 1.82186 0
M  V30 551 H 55.1357 -2.55331 3.02691 0
M  V30 552 H 56.3097 -0.169217 4.60489 0
M  V30 553 H 54.6247 -0.310889 4.15238 0
M  V30 554 H 57.2217 -3.08382 4.36812 0
M  V30 555 H 57.5647 -3.20256 2.65973 0
M  V30 556 H 58.0977 -1.76507 3.56497 0
M  V30 557 H 54.8367 -1.03612 6.4726 0
M  V30 558 H 54.3567 -2.43331 5.48224 0
M  V30 559 H 56.0357 -2.27758 6.05587 0
M  V30 560 N 56.1678 -1.49265 -0.50573 0
M  V30 561 C 57.3928 -1.62478 -1.28902 0
M  V30 562 C 57.8178 -0.294332 -1.85783 0
M  V30 563 O 57.1758 0.737412 -1.65626 0
M  V30 564 C 57.2238 -2.69268 -2.39848 0
M  V30 565 O 56.3278 -2.28113 -3.43567 0
M  V30 566 H 55.6688 -0.54399 -0.380751 0
M  V30 567 H 58.1988 -1.95421 -0.605952 0
M  V30 568 H 58.2088 -2.91291 -2.85681 0
M  V30 569 H 56.8838 -3.65846 -1.97812 0
M  V30 570 H 55.4608 -2.16401 -3.03685 0
M  V30 571 N 57.6459 0.756429 -1.3826 0
M  V30 572 C 58.8949 1.51082 -1.3363 0
M  V30 573 C 59.2079 1.95467 0.0720068 0
M  V30 574 O 60.4139 2.7043 0.240834 0
M  V30 575 C 58.8699 2.72893 -2.34644 0
M  V30 576 C 58.4779 2.35544 -3.81081 0
M  V30 577 C 60.2219 3.50791 -2.39052 0
M  V30 578 C 58.1289 3.53948 -4.73787 0
M  V30 579 H 57.0589 0.56727 -0.49671 0
M  V30 580 H 59.7099 0.827147 -1.638 0
M  V30 581 H 58.0919 3.43227 -1.97513 0
M  V30 582 H 59.2659 1.72894 -4.27135 0
M  V30 583 H 57.5809 1.70786 -3.79764 0
M  V30 584 H 60.1779 4.38823 -3.05513 0
M  V30 585 H 60.5209 3.91745 -1.40861 0
M  V30 586 H 61.0539 2.87467 -2.74968 0
M  V30 587 H 57.7929 3.18064 -5.73163 0
M  V30 588 H 57.3129 4.15651 -4.32428 0
M  V30 589 H 58.9919 4.20566 -4.91663 0
M  V30 590 N 59.124 1.23083 0.984299 0
M  V30 591 C 60.054 1.03292 2.09411 0
M  V30 592 C 61.035 -0.048923 1.7003 0
M  V30 593 O 62.22 0.114967 1.93859 0
M  V30 594 C 59.35 0.619155 3.41736 0
M  V30 595 C 58.304 1.64791 3.95004 0
M  V30 596 C 57.63 1.0897 5.23478 0
M  V30 597 C 58.93 3.03999 4.24714 0
M  V30 598 H 60.624 1.96119 2.26225 0
M  V30 599 H 58.17 0.944344 1.08711 0
M  V30 600 H 60.123 0.467777 4.18796 0
M  V30 601 H 58.847 -0.344786 3.24775 0
M  V30 602 H 57.506 1.78721 3.20085 0
M  V30 603 H 57.154 0.11686 5.02864 0
M  V30 604 H 56.854 1.77704 5.60085 0
M  V30 605 H 58.378 0.950093 6.03163 0
M  V30 606 H 59.792 2.93393 4.92538 0
M  V30 607 H 58.189 3.69936 4.72512 0
M  V30 608 H 59.259 3.53285 3.32142 0
M  V30 609 N 60.6021 -1.18246 1.0419 0
M  V30 610 C 61.8501 -1.87886 0.744543 0
M  V30 611 C 62.1711 -1.8082 -0.730006 0
M  V30 612 O 61.4411 -1.22736 -1.52685 0
M  V30 613 H 60.0211 -0.695556 0.272417 0
M  V30 614 H 62.6831 -1.43494 1.31892 0
M  V30 615 H 61.7791 -2.9389 1.05049 0
M  V30 616 N 62.0802 -0.821533 -1.34494 0
M  V30 617 C 63.0272 -0.240397 -2.29545 0
M  V30 618 C 63.9972 0.634031 -1.53523 0
M  V30 619 O 65.1822 0.575966 -1.81899 0
M  V30 620 C 62.3222 0.592869 -3.39969 0
M  V30 621 C 61.4352 -0.30365 -4.30932 0
M  V30 622 C 60.5702 0.539049 -5.28458 0
M  V30 623 C 59.6092 -0.356942 -6.11058 0
M  V30 624 N 58.7462 0.446603 -7.00678 0
M  V30 625 H 63.5862 -1.05632 -2.7865 0
M  V30 626 H 61.1232 -0.532413 -1.37127 0
M  V30 627 H 63.0812 1.09129 -4.02675 0
M  V30 628 H 61.7112 1.37392 -2.92102 0
M  V30 629 H 60.7632 -0.920276 -3.691 0
M  V30 630 H 62.0752 -0.992661 -4.88823 0
M  V30 631 H 61.2292 1.102 -5.96608 0
M  V30 632 H 59.9682 1.26157 -4.71101 0
M  V30 633 H 58.9732 -0.932047 -5.41842 0
M  V30 634 H 60.1982 -1.07755 -6.70497 0
M  V30 635 H 58.1442 1.15282 -6.45791 0
M  V30 636 H 58.0612 -0.184048 -7.55776 0
M  V30 637 H 59.3292 0.992352 -7.73158 0
M  V30 638 N 63.5583 1.46682 -0.576371 0
M  V30 639 C 64.7833 2.07304 -0.0630475 0
M  V30 640 C 65.2083 1.42329 1.2298 0
M  V30 641 O 64.5663 0.504865 1.74129 0
M  V30 642 C 64.6143 3.60472 0.095895 0
M  V30 643 O 63.7183 3.95927 1.15394 0
M  V30 644 H 63.0593 0.661288 -0.0599463 0
M  V30 645 H 65.5893 1.88417 -0.797511 0
M  V30 646 H 65.5993 4.06865 0.304071 0
M  V30 647 H 64.2743 4.07157 -0.84828 0
M  V30 648 H 62.8513 3.61252 0.924724 0
M  V30 649 N 65.0364 0.313813 1.54444 0
M  V30 650 C 65.9664 -0.549454 2.26943 0
M  V30 651 C 66.9474 -1.12741 1.27372 0
M  V30 652 O 68.1324 -1.15436 1.56167 0
M  V30 653 C 65.2624 -1.71523 3.01989 0
M  V30 654 C 64.2164 -1.26703 4.08816 0
M  V30 655 C 63.5424 -2.51898 4.71647 0
M  V30 656 C 64.8424 -0.388962 5.2085 0
M  V30 657 H 66.5364 0.0552661 2.99349 0
M  V30 658 H 64.0824 0.0280207 1.43973 0
M  V30 659 H 66.0354 -2.32535 3.51433 0
M  V30 660 H 64.7594 -2.34639 2.27183 0
M  V30 661 H 63.4184 -0.679896 3.6024 0
M  V30 662 H 63.0664 -3.13356 3.93468 0
M  V30 663 H 62.7664 -2.22605 5.43802 0
M  V30 664 H 64.2904 -3.1369 5.23861 0
M  V30 665 H 65.7044 -0.905107 5.6611 0
M  V30 666 H 64.1014 -0.18924 5.99802 0
M  V30 667 H 65.1714 0.582699 4.81386 0
M  V30 668 N 66.5145 -1.57545 0.0417849 0
M  V30 669 C 67.4775 -2.09885 -0.92093 0
M  V30 670 C 68.4775 -1.01648 -1.24596 0
M  V30 671 O 69.6675 -1.27759 -1.1842 0
M  V30 672 C 66.7995 -2.57527 -2.23367 0
M  V30 673 H 67.9925 -2.96236 -0.467382 0
M  V30 674 H 65.5455 -1.5493 -0.206467 0
M  V30 675 H 66.2805 -1.74542 -2.73323 0
M  V30 676 H 66.0655 -3.36613 -2.01083 0
M  V30 677 H 67.5555 -2.98201 -2.92346 0
M  V30 678 N 67.9926 0.231505 -1.5589 0
M  V30 679 C 69.2696 0.981096 -1.69215 0
M  V30 680 C 69.6496 2.02799 -0.586164 0
M  V30 681 O 68.9976 2.24823 0.408253 0
M  V30 682 C 69.2076 1.60054 -3.10135 0
M  V30 683 C 70.5556 2.09658 -3.69227 0
M  V30 684 O 71.5796 1.69967 -3.13033 0
M  V30 685 O 70.4386 2.8258 -4.67772 0
M  V30 686 H 67.5326 0.457653 -0.688827 0
M  V30 687 H 70.0786 0.224073 -1.68214 0
M  V30 688 H 68.8506 0.844105 -3.82087 0
M  V30 689 H 68.4736 2.42336 -3.15212 0
M  V30 690 N 69.4707 1.49531 0.497807 0
M  V30 691 C 70.3807 1.69176 1.62532 0
M  V30 692 C 71.3967 0.5744 1.64246 0
M  V30 693 O 72.5727 0.849497 1.82608 0
M  V30 694 C 69.6377 1.75695 2.98885 0
M  V30 695 C 68.6987 2.9929 3.07773 0
M  V30 696 C 67.9317 3.05488 4.37622 0
M  V30 697 O 68.1547 2.19192 5.26603 0
M  V30 698 O 67.0887 3.9798 4.51548 0
M  V30 699 H 70.9147 2.647 1.48887 0
M  V30 700 H 68.4997 1.3331 0.674441 0
M  V30 701 H 70.3817 1.82317 3.79919 0
M  V30 702 H 69.0567 0.8335 3.12785 0
M  V30 703 H 67.9637 2.98183 2.25915 0
M  V30 704 H 69.2967 3.91125 2.98801 0
M  V30 705 N 70.9488 -0.749086 1.3866 0
M  V30 706 C 71.8788 -1.8764 1.38973 0
M  V30 707 C 72.8598 -1.68178 0.255004 0
M  V30 708 O 74.0448 -1.88704 0.458754 0
M  V30 709 C 71.1748 -3.25222 1.21851 0
M  V30 710 C 70.1288 -3.59295 2.32575 0
M  V30 711 C 69.4548 -4.95663 2.00555 0
M  V30 712 C 70.7548 -3.63709 3.7485 0
M  V30 713 H 72.4488 -1.87635 2.3331 0
M  V30 714 H 69.9948 -0.901329 1.12303 0
M  V30 715 H 71.9478 -4.03746 1.20695 0
M  V30 716 H 70.6718 -3.25719 0.239775 0
M  V30 717 H 69.3308 -2.83093 2.32925 0
M  V30 718 H 68.9788 -4.92724 1.01154 0
M  V30 719 H 68.6788 -5.19429 2.74714 0
M  V30 720 H 70.2028 -5.7656 2.01024 0
M  V30 721 H 71.6168 -4.32338 3.76506 0
M  V30 722 H 70.0138 -3.98986 4.48252 0
M  V30 723 H 71.0838 -2.63834 4.06841 0
M  V30 724 N 72.4269 -1.23603 -0.977757 0
M  V30 725 C 73.3899 -1.02069 -2.05218 0
M  V30 726 C 74.3899 0.0184305 -1.60789 0
M  V30 727 O 75.5799 -0.221569 -1.72785 0
M  V30 728 C 72.7119 -0.544926 -3.36517 0
M  V30 729 H 73.9049 -1.9742 -2.25755 0
M  V30 730 H 71.4579 -1.05684 -1.15155 0
M  V30 731 H 72.1929 0.412241 -3.21669 0
M  V30 732 H 71.9779 -1.2948 -3.70105 0
M  V30 733 H 73.4679 -0.414985 -4.15533 0
M  V30 734 N 73.905 1.17692 -1.04816 0
M  V30 735 C 74.835 2.23777 -0.666791 0
M  V30 736 C 75.816 1.66796 0.33361 0
M  V30 737 O 77.001 1.93039 0.212042 0
M  V30 738 C 74.131 3.47281 -0.0367933 0
M  V30 739 C 73.085 4.17059 -0.961546 0
M  V30 740 C 72.411 5.34342 -0.195626 0
M  V30 741 C 73.711 4.69713 -2.28402 0
M  V30 742 H 75.405 2.55933 -1.55367 0
M  V30 743 H 72.951 1.23019 -0.748484 0
M  V30 744 H 74.904 4.20706 0.241775 0
M  V30 745 H 73.628 3.14381 0.885004 0
M  V30 746 H 72.287 3.45541 -1.22462 0
M  V30 747 H 71.935 4.97692 0.728816 0
M  V30 748 H 71.635 5.81966 -0.811775 0
M  V30 749 H 73.159 6.10553 0.0757473 0
M  V30 750 H 74.573 5.34794 -2.06563 0
M  V30 751 H 72.97 5.279 -2.8538 0
M  V30 752 H 74.04 3.86726 -2.92525 0
M  V30 753 N 75.3831 0.828654 1.34056 0
M  V30 754 C 76.6291 0.42008 1.98402 0
M  V30 755 C 76.9621 -1.01564 1.65525 0
M  V30 756 O 76.2371 -1.70834 0.929831 0
M  V30 757 C 76.5201 0.62927 3.54559 0
M  V30 758 C 76.3731 2.11152 3.97159 0
M  V30 759 C 77.6921 0.0688756 4.40046 0
M  V30 760 H 74.8111 0.154104 0.720709 0
M  V30 761 H 77.4531 1.04228 1.5886 0
M  V30 762 H 75.6031 0.0996418 3.88372 0
M  V30 763 H 77.2751 2.70522 3.73651 0
M  V30 764 H 75.5181 2.59985 3.47261 0
M  V30 765 H 76.1891 2.20868 5.05887 0
M  V30 766 H 78.6651 0.521458 4.1282 0
M  V30 767 H 77.5411 0.245006 5.48353 0
M  V30 768 H 77.8021 -1.0266 4.30015 0
M  V30 769 N 76.8612 -1.46375 0.584142 0
M  V30 770 C 78.1382 -1.956 0.0033388 0
M  V30 771 C 78.5182 -1.52679 -1.45782 0
M  V30 772 O 77.8662 -0.77816 -2.14842 0
M  V30 773 C 78.0762 -3.48551 0.176891 0
M  V30 774 C 79.4242 -4.24576 0.0454609 0
M  V30 775 O 80.4482 -3.56043 0.105801 0
M  V30 776 O 79.3072 -5.46427 -0.0890376 0
M  V30 777 H 76.4012 -0.825547 -0.0490066 0
M  V30 778 H 78.9472 -1.56652 0.65256 0
M  V30 779 H 77.7192 -3.72683 1.1926 0
M  V30 780 H 77.3422 -3.94332 -0.508695 0
M  V30 781 N 78.3393 -0.321999 -1.54275 0
M  V30 782 C 79.5853 0.281461 -2.00837 0
M  V30 783 C 79.9183 1.51909 -1.20985 0
M  V30 784 O 79.1933 1.923 -0.291733 0
M  V30 785 C 79.4763 0.617162 -3.54772 0
M  V30 786 C 79.3293 -0.631064 -4.45351 0
M  V30 787 C 80.6483 1.43542 -4.16033 0
M  V30 788 H 77.7673 0.100826 -0.730071 0
M  V30 789 H 80.4093 -0.438268 -1.84876 0
M  V30 790 H 78.5593 1.23034 -3.68504 0
M  V30 791 H 80.2313 -1.26934 -4.43492 0
M  V30 792 H 78.4743 -1.26025 -4.15091 0
M  V30 793 H 79.1453 -0.351735 -5.50878 0
M  V30 794 H 81.6213 0.917134 -4.05867 0
M  V30 795 H 80.4973 1.63907 -5.23856 0
M  V30 796 H 80.7583 2.43108 -3.69257 0
M  V30 797 N 79.8174 1.5752 -0.0501392 0
M  V30 798 C 80.7474 2.14502 0.922566 0
M  V30 799 C 81.7284 1.06642 1.3252 0
M  V30 800 O 82.9134 1.34577 1.4001 0
M  V30 801 C 80.0434 2.68916 2.19776 0
M  V30 802 C 78.9974 3.8175 1.93523 0
M  V30 803 C 78.3234 4.22677 3.27487 0
M  V30 804 C 79.6234 5.06932 1.25765 0
M  V30 805 H 81.3174 2.9603 0.447952 0
M  V30 806 H 78.8634 1.42401 0.214024 0
M  V30 807 H 80.8164 3.07419 2.88222 0
M  V30 808 H 79.5404 1.84578 2.69441 0
M  V30 809 H 78.1994 3.43718 1.27489 0
M  V30 810 H 77.8474 3.35291 3.74952 0
M  V30 811 H 77.5474 4.98725 3.1072 0
M  V30 812 H 79.0714 4.63779 3.97166 0
M  V30 813 H 80.4854 5.42888 1.84244 0
M  V30 814 H 78.8824 5.88116 1.19328 0
M  V30 815 H 79.9524 4.84337 0.233536 0
M  V30 816 N 81.2955 -0.223234 1.56011 0
M  V30 817 C 82.2055 -1.29766 1.95443 0
M  V30 818 C 83.2215 -1.51373 0.858028 0
M  V30 819 O 84.3975 -1.64536 1.16146 0
M  V30 820 C 81.4625 -2.62772 2.26167 0
M  V30 821 C 80.5235 -2.49482 3.49367 0
M  V30 822 C 79.7565 -3.76145 3.78616 0
M  V30 823 O 79.9795 -4.79087 3.09568 0
M  V30 824 O 78.9135 -3.73358 4.72109 0
M  V30 825 H 82.7395 -0.99309 2.87004 0
M  V30 826 H 80.3245 -0.425958 1.43199 0
M  V30 827 H 82.2065 -3.41327 2.47131 0
M  V30 828 H 80.8815 -2.92913 1.37781 0
M  V30 829 H 79.7885 -1.69133 3.33684 0
M  V30 830 H 81.1215 -2.2428 4.38131 0
M  V30 831 N 82.7736 -1.49793 -0.48987 0
M  V30 832 C 84.0506 -1.50348 -1.25119 0
M  V30 833 C 84.4306 -0.237466 -2.0976 0
M  V30 834 O 83.7786 0.77981 -2.14782 0
M  V30 835 C 83.9886 -2.78872 -2.09837 0
M  V30 836 C 85.3366 -3.288 -2.68655 0
M  V30 837 O 86.3606 -2.80065 -2.20096 0
M  V30 838 O 85.2196 -4.13707 -3.57083 0
M  V30 839 H 82.3136 -0.602242 -0.566775 0
M  V30 840 H 84.8596 -1.62067 -0.503229 0
M  V30 841 H 83.6316 -3.62499 -1.47343 0
M  V30 842 H 83.2546 -2.70066 -2.91805 0
M  V30 843 N 84.2517 0.741722 -1.39055 0
M  V30 844 C 85.1987 1.85566 -1.37237 0
M  V30 845 C 86.1687 1.64457 -0.233072 0
M  V30 846 O 87.3537 1.85957 -0.427147 0
M  V30 847 C 84.4937 3.23004 -1.215 0
M  V30 848 C 83.6067 3.55864 -2.44918 0
M  V30 849 C 82.7417 4.82669 -2.21821 0
M  V30 850 C 81.7807 5.08351 -3.40948 0
M  V30 851 N 80.9177 6.26356 -3.17211 0
M  V30 852 H 85.7577 1.86455 -2.32462 0
M  V30 853 H 83.2947 0.911176 -1.15482 0
M  V30 854 H 85.2527 4.02331 -1.10389 0
M  V30 855 H 83.8827 3.21411 -0.29908 0
M  V30 856 H 82.9347 2.7129 -2.66657 0
M  V30 857 H 84.2467 3.70765 -3.33668 0
M  V30 858 H 83.4007 5.69962 -2.07914 0
M  V30 859 H 82.1397 4.69929 -1.30454 0
M  V30 860 H 81.1447 4.19522 -3.55361 0
M  V30 861 H 82.3697 5.22981 -4.33207 0
M  V30 862 H 80.3157 6.14917 -2.28502 0
M  V30 863 H 80.2327 6.41813 -3.99515 0
M  V30 864 H 81.5007 7.16506 -3.06984 0
M  V30 865 N 85.7298 1.2412 0.971189 0
M  V30 866 C 86.6598 1.05508 2.08304 0
M  V30 867 C 87.6408 -0.0308864 1.70072 0
M  V30 868 O 88.8258 0.135521 1.93727 0
M  V30 869 C 85.9558 0.655365 3.4106 0
M  V30 870 C 84.9098 1.68971 3.93234 0
M  V30 871 C 84.2358 1.14516 5.22293 0
M  V30 872 C 85.5358 3.08487 4.21465 0
M  V30 873 H 87.2298 1.98507 2.24132 0
M  V30 874 H 84.7758 0.955821 1.07704 0
M  V30 875 H 86.7288 0.51217 4.18276 0
M  V30 876 H 85.4528 -0.31032 3.25122 0
M  V30 877 H 84.1118 1.82106 3.18171 0
M  V30 878 H 83.7598 0.170189 5.02712 0
M  V30 879 H 83.4598 1.83635 5.58168 0
M  V30 880 H 84.9838 1.01401 6.02121 0
M  V30 881 H 86.3978 2.98601 4.89398 0
M  V30 882 H 84.7948 3.74926 4.68562 0
M  V30 883 H 85.8648 3.56787 3.28376 0
M  V30 884 N 87.2079 -1.17134 1.05439 0
M  V30 885 C 88.1549 -2.21235 0.657539 0
M  V30 886 C 89.1249 -1.62551 -0.341543 0
M  V30 887 O 90.3099 -1.89379 -0.232393 0
M  V30 888 C 87.4499 -3.45076 0.0410575 0
M  V30 889 C 86.5629 -4.18042 1.08927 0
M  V30 890 C 85.6979 -5.29376 0.439848 0
M  V30 891 C 84.7369 -5.94132 1.4722 0
M  V30 892 N 83.8739 -6.96975 0.846756 0
M  V30 893 H 88.7139 -2.54534 1.54972 0
M  V30 894 H 86.2509 -1.25028 0.775006 0
M  V30 895 H 88.2089 -4.15862 -0.33383 0
M  V30 896 H 86.8389 -3.12353 -0.814568 0
M  V30 897 H 85.8909 -3.45945 1.58196 0
M  V30 898 H 87.2029 -4.62306 1.87282 0
M  V30 899 H 86.3569 -6.06699 0.0115125 0
M  V30 900 H 85.0959 -4.86251 -0.375656 0
M  V30 901 H 84.1009 -5.15538 1.91052 0
M  V30 902 H 85.3259 -6.39337 2.28965 0
M  V30 903 H 83.2719 -6.5598 0.0518075 0
M  V30 904 H 83.1889 -7.39565 1.5678 0
M  V30 905 H 84.4569 -7.78239 0.443277 0
M  V30 906 N 88.686 -0.835752 -1.33615 0
M  V30 907 C 89.934 -0.429109 -1.97492 0
M  V30 908 C 90.255 1.01433 -1.66543 0
M  V30 909 O 89.525 1.70611 -0.962744 0
M  V30 910 H 88.105 -0.155686 -0.730596 0
M  V30 911 H 90.767 -1.06802 -1.63031 0
M  V30 912 H 89.863 -0.55861 -3.0706 0
M  V30 913 N 90.1641 1.46063 -0.591896 0
M  V30 914 C 91.0741 2.34192 0.13831 0
M  V30 915 C 92.0901 1.50305 0.876608 0
M  V30 916 O 93.2661 1.8315 0.837728 0
M  V30 917 C 90.3311 3.27656 1.13326 0
M  V30 918 C 89.3921 4.27445 0.39863 0
M  V30 919 C 88.6251 5.16443 1.34618 0
M  V30 920 O 88.8481 5.08553 2.58321 0
M  V30 921 O 87.7821 5.95843 0.851768 0
M  V30 922 H 91.6081 2.98002 -0.58552 0
M  V30 923 H 89.1931 1.45188 -0.352239 0
M  V30 924 H 91.0751 3.85291 1.70671 0
M  V30 925 H 89.7501 2.6643 1.83839 0
M  V30 926 H 88.6571 3.73471 -0.216895 0
M  V30 927 H 89.9901 4.91482 -0.265709 0
M  V30 928 N 91.6422 0.330177 1.54103 0
M  V30 929 C 92.5752 -0.575477 2.20825 0
M  V30 930 C 93.5532 -1.11064 1.18758 0
M  V30 931 O 94.7372 -1.17341 1.47524 0
M  V30 932 C 91.8642 -1.79032 2.87516 0
M  V30 933 C 90.9102 -1.38581 4.03358 0
M  V30 934 S 91.7432 -0.416911 5.33875 0
M  V30 935 C 92.8992 -1.63889 6.04062 0
M  V30 936 H 93.1322 -0.00872114 2.97299 0
M  V30 937 H 90.6652 0.114254 1.53977 0
M  V30 938 H 92.6232 -2.48734 3.2656 0
M  V30 939 H 91.2842 -2.32827 2.10832 0
M  V30 940 H 90.4772 -2.29123 4.48908 0
M  V30 941 H 90.0792 -0.768419 3.66021 0
M  V30 942 H 92.3712 -2.57536 6.26643 0
M  V30 943 H 93.3142 -1.22542 6.97416 0
M  V30 944 H 93.7222 -1.82887 5.34053 0
M  V30 945 N 93.1203 -1.57491 0.0584922 0
M  V30 946 C 94.0533 -2.07533 -0.948969 0
M  V30 947 C 95.0313 -0.977444 -1.29942 0
M  V30 948 O 96.2153 -1.2499 -1.41102 0
M  V30 949 C 93.3423 -2.52192 -2.2609 0
M  V30 950 C 92.3883 -3.73287 -2.06298 0
M  V30 951 S 93.2213 -5.18603 -1.33459 0
M  V30 952 C 94.3773 -5.66583 -2.65959 0
M  V30 953 H 94.6103 -2.92662 -0.523118 0
M  V30 954 H 92.1433 -1.53631 -0.153954 0
M  V30 955 H 94.1013 -2.78585 -3.01498 0
M  V30 956 H 92.7623 -1.67356 -2.65802 0
M  V30 957 H 91.9553 -4.0248 -3.03357 0
M  V30 958 H 91.5573 -3.47199 -1.39029 0
M  V30 959 H 93.8493 -5.72616 -3.62101 0
M  V30 960 H 94.7923 -6.65684 -2.41393 0
M  V30 961 H 95.2003 -4.94342 -2.72554 0
M  V30 962 N 94.5984 0.214957 -1.56127 0
M  V30 963 C 95.8754 0.963093 -1.70247 0
M  V30 964 C 96.2554 2.02166 -0.60764 0
M  V30 965 O 95.6034 2.25244 0.384385 0
M  V30 966 C 95.8134 1.56756 -3.11815 0
M  V30 967 C 97.1614 2.0573 -3.7143 0
M  V30 968 O 98.1854 1.66637 -3.14818 0
M  V30 969 O 97.0444 2.77603 -4.70743 0
M  V30 970 H 94.1384 0.450321 -0.693643 0
M  V30 971 H 96.6844 0.206219 -1.68442 0
M  V30 972 H 95.4564 0.803533 -3.82961 0
M  V30 973 H 95.0794 2.3898 -3.17765 0
M  V30 974 N 96.0765 1.50051 0.48192 0
M  V30 975 C 97.0065 1.71046 1.58951 0
M  V30 976 C 97.9875 0.559288 1.60642 0
M  V30 977 O 99.1725 0.797243 1.77081 0
M  V30 978 C 96.3025 1.79462 2.97339 0
M  V30 979 C 95.2565 2.94558 3.10515 0
M  V30 980 C 94.5825 2.88105 4.50444 0
M  V30 981 C 95.8825 4.35227 2.88747 0
M  V30 982 H 97.5765 2.6378 1.41635 0
M  V30 983 H 95.1225 1.26936 0.679942 0
M  V30 984 H 97.0755 1.92734 3.74742 0
M  V30 985 H 95.7995 0.833412 3.15788 0
M  V30 986 H 94.4585 2.80918 2.35543 0
M  V30 987 H 94.1065 1.89853 4.65795 0
M  V30 988 H 93.8065 3.65366 4.60197 0
M  V30 989 H 95.3305 3.03412 5.29881 0
M  V30 990 H 96.7445 4.49449 3.55905 0
M  V30 991 H 95.1415 5.13856 3.09955 0
M  V30 992 H 96.2115 4.48347 1.84696 0
M  V30 993 N 97.5546 -0.734337 1.39446 0
M  V30 994 C 98.4866 -1.85861 1.34121 0
M  V30 995 C 99.4996 -1.60871 0.249864 0
M  V30 996 O 100.689 -1.71093 0.508865 0
M  V30 997 C 97.7886 -3.21899 1.05991 0
M  V30 998 C 96.9616 -3.74239 2.26415 0
M  V30 999 C 96.0206 -4.88841 1.94733 0
M  V30 1000 O 95.0466 -5.02468 2.67422 0
M  V30 1001 N 96.2486 -5.73261 0.913884 0
M  V30 1002 H 99.0136 -1.90934 2.31007 0
M  V30 1003 H 96.5746 -0.915102 1.33557 0
M  V30 1004 H 98.5666 -3.96136 0.828147 0
M  V30 1005 H 97.1366 -3.12091 0.178361 0
M  V30 1006 H 96.3566 -2.91347 2.65539 0
M  V30 1007 H 97.6446 -4.05942 3.06738 0
M  V30 1008 H 97.0426 -5.64842 0.311476 0
M  V30 1009 H 95.5996 -6.47563 0.742015 0
M  V30 1010 N 99.0327 -1.24633 -0.964593 0
M  V30 1011 C 99.9827 -1.00841 -2.04487 0
M  V30 1012 C 100.967 0.0512468 -1.60818 0
M  V30 1013 O 102.159 -0.162865 -1.76249 0
M  V30 1014 C 99.2877 -0.618474 -3.37683 0
M  V30 1015 C 98.3737 -1.71437 -3.87905 0
M  V30 1016 N 98.7647 -2.9477 -4.11029 0
M  V30 1017 C 97.0627 -1.5926 -4.16596 0
M  V30 1018 C 97.7637 -3.65834 -4.52261 0
M  V30 1019 N 96.7397 -2.9341 -4.57615 0
M  V30 1020 H 100.542 -1.94487 -2.20345 0
M  V30 1021 H 98.0557 -1.14805 -1.14863 0
M  V30 1022 H 100.053 -0.429247 -4.14684 0
M  V30 1023 H 98.7127 0.310766 -3.23209 0
M  V30 1024 H 99.7237 -3.30917 -3.9839 0
M  V30 1025 H 96.4007 -0.731606 -4.1104 0
M  V30 1026 H 97.7907 -4.71646 -4.78539 0
M  V30 1027 N 100.511 1.16574 -1.06058 0
M  V30 1028 C 101.759 1.86677 -0.77434 0
M  V30 1029 C 102.08 1.81959 0.701147 0
M  V30 1030 O 101.35 1.2515 1.50713 0
M  V30 1031 H 99.9298 0.691134 -0.283449 0
M  V30 1032 H 102.592 1.41378 -1.34158 0
M  V30 1033 H 101.688 2.92181 -1.09711 0
M  V30 1034 N 101.989 0.842826 1.3317 0
M  V30 1035 C 103.214 0.453129 2.02389 0
M  V30 1036 C 103.639 -0.939105 1.6298 0
M  V30 1037 O 102.997 -1.61472 0.8244 0
M  V30 1038 C 103.045 0.586094 3.55805 0
M  V30 1039 O 102.149 -0.386029 4.10589 0
M  V30 1040 H 101.49 0.183664 0.638094 0
M  V30 1041 H 104.02 1.13875 1.69981 0
M  V30 1042 H 104.03 0.469209 4.05293 0
M  V30 1043 H 102.705 1.6014 3.83833 0
M  V30 1044 H 101.282 -0.226371 3.72212 0
M  V30 1045 N 103.467 -1.45747 0.599634 0
M  V30 1046 C 104.397 -2.33235 -0.111306 0
M  V30 1047 C 105.378 -1.46359 -0.866781 0
M  V30 1048 O 106.563 -1.75146 -0.838904 0
M  V30 1049 C 103.693 -3.28932 -1.11451 0
M  V30 1050 C 102.647 -4.25381 -0.472772 0
M  V30 1051 C 101.973 -5.1071 -1.58365 0
M  V30 1052 C 103.273 -5.18831 0.600948 0
M  V30 1053 H 104.967 -2.92927 0.61919 0
M  V30 1054 H 102.513 -1.40857 0.299215 0
M  V30 1055 H 104.466 -3.89002 -1.62036 0
M  V30 1056 H 103.19 -2.67381 -1.8755 0
M  V30 1057 H 101.849 -3.66598 0.0121472 0
M  V30 1058 H 101.497 -4.45533 -2.33473 0
M  V30 1059 H 101.197 -5.7604 -1.15982 0
M  V30 1060 H 102.721 -5.73647 -2.09194 0
M  V30 1061 H 104.135 -5.73019 0.179491 0
M  V30 1062 H 102.532 -5.92595 0.946076 0
M  V30 1063 H 103.602 -4.6174 1.48068 0
M  V30 1064 N 104.945 -0.338344 -1.53925 0
M  V30 1065 C 106.192 0.259758 -2.00827 0
M  V30 1066 C 106.52 1.50973 -1.22628 0
M  V30 1067 O 105.775 1.93379 -0.300509 0
M  V30 1068 C 106.074 0.62448 -3.51902 0
M  V30 1069 C 105.74 -0.528006 -4.47798 0
M  V30 1070 C 104.402 -0.844298 -4.73735 0
M  V30 1071 C 106.754 -1.30143 -5.0469 0
M  V30 1072 C 104.082 -1.93648 -5.53821 0
M  V30 1073 C 106.434 -2.38382 -5.85967 0
M  V30 1074 C 105.098 -2.70576 -6.10201 0
M  V30 1075 H 104.368 0.0950523 -0.734878 0
M  V30 1076 H 107.015 -0.465182 -1.85764 0
M  V30 1077 H 105.32 1.43006 -3.64769 0
M  V30 1078 H 107.017 1.09905 -3.85645 0
M  V30 1079 H 103.607 -0.271421 -4.2774 0
M  V30 1080 H 107.791 -1.07033 -4.84621 0
M  V30 1081 H 103.047 -2.19021 -5.70824 0
M  V30 1082 H 107.221 -2.98746 -6.29066 0
M  V30 1083 H 104.848 -3.55333 -6.72044 0
M  V30 1084 N 106.423 1.57458 -0.0668435 0
M  V30 1085 C 107.353 2.15468 0.899764 0
M  V30 1086 C 108.334 1.08042 1.31381 0
M  V30 1087 O 109.519 1.36054 1.38574 0
M  V30 1088 C 106.649 2.71232 2.16911 0
M  V30 1089 C 105.603 3.83781 1.89463 0
M  V30 1090 C 104.929 4.26127 3.22986 0
M  V30 1091 C 106.229 5.08238 1.20381 0
M  V30 1092 H 107.923 2.96488 0.416529 0
M  V30 1093 H 105.469 1.4262 0.198908 0
M  V30 1094 H 107.422 3.10458 2.84945 0
M  V30 1095 H 106.146 1.87426 2.67468 0
M  V30 1096 H 104.805 3.45051 1.23836 0
M  V30 1097 H 104.453 3.39249 3.71374 0
M  V30 1098 H 104.153 5.01993 3.05413 0
M  V30 1099 H 105.677 4.67966 3.92225 0
M  V30 1100 H 107.091 5.44811 1.78475 0
M  V30 1101 H 105.488 5.89349 1.13083 0
M  V30 1102 H 106.558 4.84558 0.182153 0
M  V30 1103 N 107.901 -0.206675 1.56239 0
M  V30 1104 C 108.833 -1.27997 1.9013 0
M  V30 1105 C 109.846 -1.42299 0.790883 0
M  V30 1106 O 111.035 -1.42931 1.06925 0
M  V30 1107 C 108.135 -2.65368 2.10792 0
M  V30 1108 C 107.308 -2.72824 3.41886 0
M  V30 1109 C 106.367 -3.9131 3.51799 0
M  V30 1110 O 105.393 -3.78953 4.24716 0
M  V30 1111 N 106.595 -5.06265 2.84035 0
M  V30 1112 H 109.36 -0.992444 2.82791 0
M  V30 1113 H 106.921 -0.396652 1.56966 0
M  V30 1114 H 108.913 -3.43039 2.14724 0
M  V30 1115 H 107.483 -2.86657 1.24685 0
M  V30 1116 H 106.703 -1.81515 3.49923 0
M  V30 1117 H 107.991 -2.74786 4.28217 0
M  V30 1118 H 107.389 -5.19203 2.246 0
M  V30 1119 H 105.946 -5.81925 2.93609 0
M  V30 1120 N 109.379 -1.50304 -0.473955 0
M  V30 1121 C 110.607 -1.64902 -1.24959 0
M  V30 1122 C 111.022 -0.331198 -1.85872 0
M  V30 1123 O 110.379 0.68652 -1.69095 0
M  V30 1124 C 110.43 -2.73803 -2.36038 0
M  V30 1125 O 110.151 -4.00477 -1.77624 0
M  V30 1126 C 111.652 -2.99349 -3.26964 0
M  V30 1127 H 108.872 -0.554383 -0.378022 0
M  V30 1128 H 111.416 -1.9651 -0.566054 0
M  V30 1129 H 109.571 -2.44898 -3.00173 0
M  V30 1130 H 109.985 -4.60678 -2.5075 0
M  V30 1131 H 111.459 -3.79217 -4.01121 0
M  V30 1132 H 111.936 -2.10307 -3.85574 0
M  V30 1133 H 112.542 -3.29774 -2.68569 0
M  V30 1134 N 110.857 0.726932 -1.39834 0
M  V30 1135 C 112.268 1.30558 -1.3346 0
M  V30 1136 C 112.619 1.962 -0.00273003 0
M  V30 1137 O 111.744 1.96826 0.899371 0
M  V30 1138 C 112.339 2.37404 -2.41713 0
M  V30 1139 C 110.898 2.90921 -2.38835 0
M  V30 1140 C 110.045 1.64578 -2.2318 0
M  V30 1141 H 112.996 0.523862 -1.49804 0
M  V30 1142 H 113.017 3.17984 -2.08966 0
M  V30 1143 H 112.529 1.89599 -3.38635 0
M  V30 1144 H 110.63 3.42985 -1.45575 0
M  V30 1145 H 110.743 3.43487 -3.33997 0
M  V30 1146 H 109.107 1.89219 -1.70494 0
M  V30 1147 H 109.89 1.18814 -3.22084 0
M  V30 1148 N 112.336 1.25143 0.95797 0
M  V30 1149 C 113.283 1.05235 2.05412 0
M  V30 1150 C 114.253 -0.0374561 1.66058 0
M  V30 1151 O 115.438 0.119073 1.90428 0
M  V30 1152 C 112.578 0.673589 3.38462 0
M  V30 1153 C 111.691 1.8379 3.90954 0
M  V30 1154 C 110.826 1.40381 5.12315 0
M  V30 1155 C 109.865 2.53746 5.57027 0
M  V30 1156 N 109.002 2.11136 6.69601 0
M  V30 1157 H 113.842 1.99048 2.21774 0
M  V30 1158 H 111.379 0.991277 1.08683 0
M  V30 1159 H 113.337 0.434964 4.14926 0
M  V30 1160 H 111.967 -0.227554 3.21997 0
M  V30 1161 H 111.019 2.18992 3.11041 0
M  V30 1162 H 112.331 2.68937 4.20089 0
M  V30 1163 H 111.485 1.12464 5.96185 0
M  V30 1164 H 110.224 0.523015 4.84887 0
M  V30 1165 H 109.229 2.82412 4.71724 0
M  V30 1166 H 110.454 3.42398 5.86464 0
M  V30 1167 H 108.4 1.25468 6.4389 0
M  V30 1168 H 108.317 2.89832 6.98236 0
M  V30 1169 H 109.585 1.86385 7.56889 0
M  V30 1170 N 113.814 -1.1601 1.06675 0
M  V30 1171 C 115.063 -1.85973 0.780818 0
M  V30 1172 C 115.376 -1.82819 -0.695444 0
M  V30 1173 O 116.582 -2.484 -1.09589 0
M  V30 1174 C 115.038 -3.33757 1.34665 0
M  V30 1175 C 114.646 -3.45374 2.85343 0
M  V30 1176 C 116.39 -4.0895 1.13843 0
M  V30 1177 C 114.297 -4.87266 3.35151 0
M  V30 1178 H 113.227 -0.696661 0.288407 0
M  V30 1179 H 115.878 -1.30903 1.28595 0
M  V30 1180 H 114.26 -3.88456 0.769274 0
M  V30 1181 H 115.434 -3.00816 3.49065 0
M  V30 1182 H 113.749 -2.83619 3.04876 0
M  V30 1183 H 116.346 -5.13654 1.4854 0
M  V30 1184 H 116.689 -4.16229 0.0770282 0
M  V30 1185 H 117.222 -3.605 1.68179 0
M  V30 1186 H 113.961 -4.85168 4.40786 0
M  V30 1187 H 113.481 -5.32433 2.76179 0
M  V30 1188 H 115.16 -5.56097 3.30704 0
M  V30 1189 N 115.292 -0.849877 -1.32721 0
M  V30 1190 C 116.538 -0.451591 -1.97708 0
M  V30 1191 C 116.871 0.989175 -1.6712 0
M  V30 1192 O 116.146 1.69334 -0.956891 0
M  V30 1193 C 116.429 -0.685598 -3.53513 0
M  V30 1194 C 116.282 -2.17444 -3.93749 0
M  V30 1195 C 117.601 -0.138874 -4.39881 0
M  V30 1196 H 114.72 -0.16555 -0.718166 0
M  V30 1197 H 117.362 -1.06742 -1.57182 0
M  V30 1198 H 115.512 -0.161416 -3.88165 0
M  V30 1199 H 117.184 -2.76433 -3.693 0
M  V30 1200 H 115.427 -2.65476 -3.43081 0
M  V30 1201 H 116.098 -2.28888 -5.02309 0
M  V30 1202 H 118.574 -0.587068 -4.11938 0
M  V30 1203 H 117.45 -0.332213 -5.47894 0
M  V30 1204 H 117.711 0.95806 -4.31594 0
M  V30 1205 N 116.77 1.45427 -0.607355 0
M  V30 1206 C 117.733 2.28974 0.101693 0
M  V30 1207 C 118.733 1.39754 0.795329 0
M  V30 1208 O 119.923 1.61878 0.643527 0
M  V30 1209 C 117.055 3.20768 1.15414 0
M  V30 1210 H 118.248 2.93147 -0.632844 0
M  V30 1211 H 115.801 1.51945 -0.366391 0
M  V30 1212 H 116.536 2.61395 1.91945 0
M  V30 1213 H 116.321 3.86489 0.66098 0
M  V30 1214 H 117.811 3.83589 1.65073 0
M  V30 1215 N 118.248 0.346503 1.53744 0
M  V30 1216 C 119.525 -0.304532 1.93215 0
M  V30 1217 C 119.905 -1.67993 1.27834 0
M  V30 1218 O 119.253 -2.24411 0.430352 0
M  V30 1219 C 119.463 -0.373852 3.46992 0
M  V30 1220 C 120.811 -0.62329 4.2 0
M  V30 1221 O 121.835 -0.455847 3.53271 0
M  V30 1222 O 120.694 -0.947879 5.38217 0
M  V30 1223 H 117.788 -0.178318 0.807547 0
M  V30 1224 H 120.334 0.397895 1.64969 0
M  V30 1225 H 119.106 0.591224 3.86808 0
M  V30 1226 H 118.729 -1.12294 3.81413 0
M  V30 1227 N 119.726 -1.57421 0.075193 0
M  V30 1228 C 120.673 -2.12915 -0.890843 0
M  V30 1229 C 121.643 -1.04252 -1.29309 0
M  V30 1230 O 122.828 -1.31933 -1.37834 0
M  V30 1231 C 119.968 -2.69795 -2.15186 0
M  V30 1232 C 119.081 -3.92624 -1.80194 0
M  V30 1233 C 118.216 -4.37736 -3.00933 0
M  V30 1234 C 117.255 -5.53205 -2.61974 0
M  V30 1235 N 116.392 -5.9326 -3.75483 0
M  V30 1236 H 121.232 -2.95156 -0.410735 0
M  V30 1237 H 118.769 -1.45854 -0.191086 0
M  V30 1238 H 120.727 -3.00883 -2.89008 0
M  V30 1239 H 119.357 -1.90313 -2.60731 0
M  V30 1240 H 118.409 -3.67977 -0.964218 0
M  V30 1241 H 119.721 -4.76482 -1.47534 0
M  V30 1242 H 118.875 -4.70503 -3.8303 0
M  V30 1243 H 117.614 -3.52739 -3.36789 0
M  V30 1244 H 116.619 -5.20086 -1.783 0
M  V30 1245 H 117.844 -6.39936 -2.27284 0
M  V30 1246 H 115.79 -5.11212 -4.11094 0
M  V30 1247 H 115.707 -6.71865 -3.46602 0
M  V30 1248 H 116.975 -6.30651 -4.58148 0
M  V30 1249 N 121.204 0.198386 -1.56346 0
M  V30 1250 C 122.481 0.944982 -1.71258 0
M  V30 1251 C 122.861 2.0151 -0.629048 0
M  V30 1252 O 122.209 2.25639 0.360473 0
M  V30 1253 C 122.419 1.5344 -3.1346 0
M  V30 1254 C 123.767 2.01778 -3.73591 0
M  V30 1255 O 124.791 1.63288 -3.16568 0
M  V30 1256 O 123.65 2.72594 -4.73661 0
M  V30 1257 H 120.744 0.442939 -0.69838 0
M  V30 1258 H 123.29 0.188342 -1.68652 0
M  V30 1259 H 122.062 0.762869 -3.83792 0
M  V30 1260 H 121.685 2.35596 -3.20282 0
M  V30 1261 N 122.682 1.50554 0.465978 0
M  V30 1262 C 123.912 1.65323 1.23903 0
M  V30 1263 C 124.32 0.338051 1.86155 0
M  V30 1264 O 123.663 -0.690518 1.70228 0
M  V30 1265 C 123.725 2.69048 2.3844 0
M  V30 1266 C 123.389 4.12462 1.96784 0
M  V30 1267 C 124.386 4.98168 1.48745 0
M  V30 1268 C 122.071 4.58407 2.05349 0
M  V30 1269 C 124.065 6.27868 1.0982 0
M  V30 1270 C 121.752 5.88112 1.66035 0
M  V30 1271 C 122.75 6.72668 1.18349 0
M  V30 1272 O 122.438 7.99951 0.795825 0
M  V30 1273 H 122.17 0.558629 0.38067 0
M  V30 1274 H 124.724 1.97561 0.562022 0
M  V30 1275 H 122.954 2.32062 3.09328 0
M  V30 1276 H 124.643 2.72985 3.0039 0
M  V30 1277 H 125.409 4.63885 1.41546 0
M  V30 1278 H 121.288 3.92735 2.41414 0
M  V30 1279 H 124.832 6.93819 0.725293 0
M  V30 1280 H 120.729 6.21914 1.72895 0
M  V30 1281 H 121.497 8.13265 0.924222 0
M  V30 1282 N 124.16 -0.719506 1.40217 0
M  V30 1283 C 125.385 -1.51371 1.4178 0
M  V30 1284 C 125.81 -1.88091 0.0182355 0
M  V30 1285 O 125.168 -1.52997 -0.972707 0
M  V30 1286 C 125.216 -2.768 2.31115 0
M  V30 1287 O 124.32 -3.73349 1.7517 0
M  V30 1288 H 123.661 -0.456529 0.482159 0
M  V30 1289 H 126.191 -0.88644 1.844 0
M  V30 1290 H 126.201 -3.25371 2.46167 0
M  V30 1291 H 124.876 -2.49407 3.3282 0
M  V30 1292 H 123.453 -3.32179 1.69444 0
M  V30 1293 N 125.638 -1.25649 -0.95132 0
M  V30 1294 C 126.884 -1.10757 -1.69884 0
M  V30 1295 C 127.217 0.350061 -1.91019 0
M  V30 1296 O 126.492 1.25783 -1.48354 0
M  V30 1297 C 126.775 -1.86606 -3.07978 0
M  V30 1298 C 126.628 -3.40217 -2.94232 0
M  V30 1299 C 127.947 -1.65182 -4.07925 0
M  V30 1300 H 125.066 -0.40374 -0.616574 0
M  V30 1301 H 127.708 -1.54521 -1.10558 0
M  V30 1302 H 125.858 -1.49409 -3.58621 0
M  V30 1303 H 127.53 -3.87108 -2.50889 0
M  V30 1304 H 125.773 -3.67759 -2.30078 0
M  V30 1305 H 126.444 -3.88505 -3.92133 0
M  V30 1306 H 128.92 -1.9757 -3.66204 0
M  V30 1307 H 127.796 -2.20683 -5.02583 0
M  V30 1308 H 128.057 -0.593933 -4.38092 0
M  V30 1309 N 127.117 1.15442 -1.07289 0
M  V30 1310 C 128.345 1.90096 -0.81676 0
M  V30 1311 C 128.76 1.7798 0.629966 0
M  V30 1312 O 128.117 1.1313 1.43206 0
M  V30 1313 C 128.168 3.40466 -1.21512 0
M  V30 1314 O 127.889 3.52232 -2.60508 0
M  V30 1315 C 129.39 4.32145 -0.988198 0
M  V30 1316 H 126.61 0.602495 -0.295366 0
M  V30 1317 H 129.154 1.4627 -1.42918 0
M  V30 1318 H 127.309 3.81958 -0.647039 0
M  V30 1319 H 127.723 4.45549 -2.76742 0
M  V30 1320 H 129.197 5.36072 -1.31645 0
M  V30 1321 H 129.674 4.39135 0.0755063 0
M  V30 1322 H 130.28 3.96395 -1.54115 0
M  V30 1323 N 128.595 0.856903 1.32268 0
M  V30 1324 C 129.558 0.308171 2.27119 0
M  V30 1325 C 130.558 -0.533421 1.51695 0
M  V30 1326 O 131.748 -0.344607 1.70757 0
M  V30 1327 C 128.88 -0.563757 3.36206 0
M  V30 1328 H 130.073 1.14535 2.77167 0
M  V30 1329 H 127.626 0.631421 1.42978 0
M  V30 1330 H 128.361 -1.42266 2.91429 0
M  V30 1331 H 128.146 0.0386749 3.92081 0
M  V30 1332 H 129.636 -0.940386 4.06874 0
M  V30 1333 N 130.073 -1.45103 0.615059 0
M  V30 1334 C 131.021 -2.32331 -0.111791 0
M  V30 1335 C 132.015 -1.46409 -0.852102 0
M  V30 1336 O 133.221 -1.62849 -0.766821 0
M  V30 1337 H 129.596 -0.749993 -0.0549072 0
M  V30 1338 H 131.567 -2.91407 0.642225 0
M  V30 1339 C 130.316 -3.3015 -1.09071 0
M  V30 1340 H 129.639 -3.96265 -0.530485 0
M  V30 1341 H 131.079 -3.93898 -1.56908 0
M  V30 1342 C 129.538 -2.57875 -2.168 0
M  V30 1343 O 130.068 -2.36567 -3.24652 0
M  V30 1344 N 128.274 -2.17884 -1.92289 0
M  V30 1345 H 127.821 -2.35413 -1.04587 0
M  V30 1346 H 127.779 -1.6985 -2.64572 0
M  V30 1347 N 131.551 -0.354651 -1.53558 0
M  V30 1348 C 132.776 0.242153 -2.05981 0
M  V30 1349 C 133.201 1.42553 -1.2272 0
M  V30 1350 O 132.559 1.79656 -0.243604 0
M  V30 1351 C 132.607 0.624367 -3.55154 0
M  V30 1352 O 131.711 1.72301 -3.74681 0
M  V30 1353 H 131.052 0.0378432 -0.662921 0
M  V30 1354 H 133.582 -0.512087 -1.98088 0
M  V30 1355 H 133.592 0.898433 -3.97985 0
M  V30 1356 H 132.267 -0.240989 -4.15201 0
M  V30 1357 H 130.844 1.44535 -3.4375 0
M  V30 1358 N 133.029 1.57378 -0.0835403 0
M  V30 1359 C 133.976 2.13384 0.879539 0
M  V30 1360 C 134.946 1.04936 1.28754 0
M  V30 1361 O 136.131 1.32662 1.37133 0
M  V30 1362 C 133.271 2.70932 2.13752 0
M  V30 1363 C 132.384 3.93575 1.7811 0
M  V30 1364 C 131.519 4.39326 2.98607 0
M  V30 1365 C 130.558 5.54587 2.59037 0
M  V30 1366 N 129.695 5.95243 3.72331 0
M  V30 1367 H 134.535 2.9537 0.395076 0
M  V30 1368 H 132.072 1.45953 0.183349 0
M  V30 1369 H 134.03 3.02411 2.87408 0
M  V30 1370 H 132.66 1.91693 2.59718 0
M  V30 1371 H 131.712 3.68483 0.94469 0
M  V30 1372 H 133.024 4.77258 1.45005 0
M  V30 1373 H 132.178 4.72528 3.80529 0
M  V30 1374 H 130.917 3.5452 3.34913 0
M  V30 1375 H 129.922 5.21024 1.75539 0
M  V30 1376 H 131.147 6.41133 2.23887 0
M  V30 1377 H 129.093 5.13385 4.08378 0
M  V30 1378 H 129.01 6.73694 3.43034 0
M  V30 1379 H 130.278 6.33072 4.54797 0
M  V30 1380 N 134.507 -0.190092 1.56449 0
M  V30 1381 C 135.756 -0.907912 1.80111 0
M  V30 1382 C 136.069 -1.84214 0.657619 0
M  V30 1383 O 137.275 -2.60094 0.778663 0
M  V30 1384 C 135.731 -1.66485 3.19078 0
M  V30 1385 C 135.339 -0.7752 4.41242 0
M  V30 1386 C 137.083 -2.37201 3.52045 0
M  V30 1387 C 134.99 -1.53129 5.71231 0
M  V30 1388 H 133.92 -0.34276 0.671589 0
M  V30 1389 H 136.571 -0.161109 1.82791 0
M  V30 1390 H 134.953 -2.45572 3.10661 0
M  V30 1391 H 136.127 -0.0226298 4.60794 0
M  V30 1392 H 134.442 -0.178627 4.16017 0
M  V30 1393 H 137.039 -2.94329 4.46402 0
M  V30 1394 H 137.382 -3.11632 2.76028 0
M  V30 1395 H 137.915 -1.65075 3.61932 0
M  V30 1396 H 134.654 -0.82967 6.50228 0
M  V30 1397 H 134.174 -2.25767 5.55688 0
M  V30 1398 H 135.853 -2.08377 6.12526 0
M  V30 1399 N 135.985 -1.50799 -0.457987 0
M  V30 1400 C 137.231 -1.62683 -1.21088 0
M  V30 1401 C 137.564 -0.332268 -1.91336 0
M  V30 1402 O 136.839 0.667043 -1.82704 0
M  V30 1403 C 137.122 -2.81615 -2.24422 0
M  V30 1404 C 136.975 -4.20989 -1.58392 0
M  V30 1405 C 138.294 -2.96085 -3.2561 0
M  V30 1406 H 135.413 -0.592087 -0.438864 0
M  V30 1407 H 138.055 -1.83225 -0.50286 0
M  V30 1408 H 136.205 -2.64231 -2.84806 0
M  V30 1409 H 137.877 -4.49994 -1.01504 0
M  V30 1410 H 136.12 -4.24641 -0.886704 0
M  V30 1411 H 136.791 -5.0016 -2.33547 0
M  V30 1412 H 139.267 -3.12042 -2.75262 0
M  V30 1413 H 138.143 -3.80902 -3.95228 0
M  V30 1414 H 138.404 -2.0726 -3.90507 0
M  V30 1415 N 137.463 0.71206 -1.40597 0
M  V30 1416 C 138.709 1.47416 -1.39271 0
M  V30 1417 C 139.042 1.942 0.00388791 0
M  V30 1418 O 138.317 1.68403 0.973179 0
M  V30 1419 C 138.6 2.69774 -2.38525 0
M  V30 1420 C 138.453 2.28861 -3.87224 0
M  V30 1421 C 139.772 3.71939 -2.35264 0
M  V30 1422 H 136.891 0.534713 -0.5072 0
M  V30 1423 H 139.533 0.812375 -1.71757 0
M  V30 1424 H 137.683 3.26238 -2.10953 0
M  V30 1425 H 139.355 1.77852 -4.25636 0
M  V30 1426 H 137.598 1.60824 -4.02887 0
M  V30 1427 H 138.269 3.16584 -4.52193 0
M  V30 1428 H 140.745 3.25113 -2.59694 0
M  V30 1429 H 139.621 4.55186 -3.06753 0
M  V30 1430 H 139.882 4.20484 -1.36549 0
M  V30 1431 N 138.941 1.26152 0.944643 0
M  V30 1432 C 140.187 1.11657 1.69294 0
M  V30 1433 C 140.52 -0.339926 1.91202 0
M  V30 1434 O 139.795 -1.24994 1.49019 0
M  V30 1435 C 140.078 1.88236 3.06984 0
M  V30 1436 C 139.931 3.41772 2.92424 0
M  V30 1437 C 141.25 1.67343 4.07043 0
M  V30 1438 H 138.369 0.407004 0.614424 0
M  V30 1439 H 141.011 1.55106 1.09737 0
M  V30 1440 H 139.161 1.51308 3.57824 0
M  V30 1441 H 140.833 3.88433 2.48832 0
M  V30 1442 H 139.076 3.68974 2.28124 0
M  V30 1443 H 139.747 3.90579 3.90067 0
M  V30 1444 H 142.223 1.99509 3.65151 0
M  V30 1445 H 141.099 2.23346 5.01406 0
M  V30 1446 H 141.36 0.617158 4.37771 0
M  V30 1447 N 140.419 -1.14872 1.07899 0
M  V30 1448 C 141.647 -1.89661 0.82683 0
M  V30 1449 C 142.062 -1.78312 -0.620519 0
M  V30 1450 O 141.419 -1.13888 -1.42604 0
M  V30 1451 C 141.47 -3.39817 1.23316 0
M  V30 1452 O 141.191 -3.50845 2.62372 0
M  V30 1453 C 142.692 -4.31615 1.0111 0
M  V30 1454 H 139.912 -0.60092 0.298557 0
M  V30 1455 H 142.456 -1.4551 1.43691 0
M  V30 1456 H 140.611 -3.8161 0.667286 0
M  V30 1457 H 141.025 -4.44076 2.79101 0
M  V30 1458 H 142.499 -5.35367 1.34486 0
M  V30 1459 H 142.976 -4.39169 -0.0522168 0
M  V30 1460 H 143.582 -3.95572 1.56215 0
M  V30 1461 N 141.898 -0.863906 -1.31812 0
M  V30 1462 C 142.861 -0.320212 -2.26952 0
M  V30 1463 C 143.861 0.525369 -1.51975 0
M  V30 1464 O 145.051 0.335547 -1.70938 0
M  V30 1465 C 142.183 0.545919 -3.365 0
M  V30 1466 H 143.376 -1.16004 -2.76556 0
M  V30 1467 H 140.929 -0.638995 -1.42641 0
M  V30 1468 H 141.664 1.40718 -2.92179 0
M  V30 1469 H 141.449 -0.0594674 -3.92055 0
M  V30 1470 H 142.939 0.918796 -4.07367 0
M  V30 1471 N 143.376 1.44774 -0.622745 0
M  V30 1472 C 144.624 2.01721 -0.123655 0
M  V30 1473 C 144.945 1.49172 1.25589 0
M  V30 1474 O 144.215 0.691974 1.83272 0
M  V30 1475 H 142.795 0.745777 -0.0427225 0
M  V30 1476 H 145.457 1.77382 -0.807559 0
M  V30 1477 H 144.553 3.11984 -0.0849534 0
M  V30 1478 N 144.854 0.36279 1.53368 0
M  V30 1479 C 146.1 -0.228113 2.01513 0
M  V30 1480 C 146.433 -1.48648 1.2497 0
M  V30 1481 O 145.708 -1.91459 0.342616 0
M  V30 1482 C 145.991 -0.522884 3.56284 0
M  V30 1483 C 145.844 0.74892 4.43521 0
M  V30 1484 C 147.163 -1.32461 4.19693 0
M  V30 1485 H 144.282 -0.0814343 0.732487 0
M  V30 1486 H 146.924 0.48713 1.83649 0
M  V30 1487 H 145.074 -1.1322 3.71636 0
M  V30 1488 H 146.746 1.38648 4.39971 0
M  V30 1489 H 144.989 1.36986 4.11603 0
M  V30 1490 H 145.66 0.497667 5.49752 0
M  V30 1491 H 148.136 -0.809203 4.08156 0
M  V30 1492 H 147.012 -1.49961 5.28018 0
M  V30 1493 H 147.273 -2.33232 3.75573 0
M  V30 1494 N 146.332 -1.57332 0.0918853 0
M  V30 1495 C 147.748 -1.57389 -0.264766 0
M  V30 1496 C 147.948 -1.10281 -1.68643 0
M  V30 1497 O 147.004 -0.777801 -2.40222 0
M  V30 1498 C 148.317 -3.00648 -0.0561195 0
M  V30 1499 C 149.865 -3.12754 -0.124116 0
M  V30 1500 C 150.34 -4.57965 0.0564972 0
M  V30 1501 N 151.831 -4.632 0.00155611 0
M  V30 1502 C 152.566 -5.73281 0.116598 0
M  V30 1503 N 152.062 -6.92208 0.286294 0
M  V30 1504 N 153.855 -5.6207 0.0580973 0
M  V30 1505 H 146.006 -1.86262 1.02079 0
M  V30 1506 H 148.269 -0.859579 0.399786 0
M  V30 1507 H 147.975 -3.393 0.925669 0
M  V30 1508 H 147.849 -3.68623 -0.799823 0
M  V30 1509 H 150.236 -2.73976 -1.09641 0
M  V30 1510 H 150.317 -2.47377 0.651024 0
M  V30 1511 H 149.961 -4.97436 1.02564 0
M  V30 1512 H 149.891 -5.21399 -0.738297 0
M  V30 1513 H 152.382 -3.77686 -0.127192 0
M  V30 1514 H 152.695 -7.71934 0.365676 0
M  V30 1515 H 151.04 -6.94254 0.32192 0
M  V30 1516 H 154.231 -4.68043 -0.0733204 0
M  V30 1517 H 154.404 -6.47824 0.151203 0
M  V30 1518 N 147.81 0.181792 -1.56548 0
M  V30 1519 C 148.742 1.24956 -1.92142 0
M  V30 1520 C 149.755 1.41022 -0.813422 0
M  V30 1521 O 150.944 1.41212 -1.09186 0
M  V30 1522 C 148.044 2.61981 -2.14987 0
M  V30 1523 C 147.217 2.6735 -3.46183 0
M  V30 1524 C 146.276 3.85664 -3.5798 0
M  V30 1525 O 145.302 3.72148 -4.30691 0
M  V30 1526 N 146.504 5.01683 -2.92053 0
M  V30 1527 H 149.269 0.947329 -2.84334 0
M  V30 1528 H 146.83 0.371629 -1.57577 0
M  V30 1529 H 148.822 3.3958 -2.20154 0
M  V30 1530 H 147.392 2.84637 -1.2923 0
M  V30 1531 H 146.612 1.75925 -3.52766 0
M  V30 1532 H 147.9 2.67939 -4.32534 0
M  V30 1533 H 147.298 5.15564 -2.32832 0
M  V30 1534 H 145.855 5.77181 -3.0283 0
M  V30 1535 N 149.288 1.51039 0.449983 0
M  V30 1536 C 150.22 1.67617 1.56324 0
M  V30 1537 C 151.233 0.557083 1.52972 0
M  V30 1538 O 152.422 0.830989 1.57977 0
M  V30 1539 C 149.522 1.66402 2.95235 0
M  V30 1540 C 148.695 2.9469 3.23229 0
M  V30 1541 C 147.754 2.85832 4.41799 0
M  V30 1542 O 146.78 3.59785 4.41071 0
M  V30 1543 N 147.982 2.00821 5.44657 0
M  V30 1544 H 150.747 2.63648 1.42512 0
M  V30 1545 H 148.308 1.48767 0.638737 0
M  V30 1546 H 150.3 1.58062 3.72557 0
M  V30 1547 H 148.87 0.780182 3.02708 0
M  V30 1548 H 148.09 3.16996 2.34323 0
M  V30 1549 H 149.378 3.79636 3.38754 0
M  V30 1550 H 148.776 1.40091 5.48079 0
M  V30 1551 H 147.333 1.98368 6.20881 0
M  V30 1552 N 150.766 -0.704594 1.40972 0
M  V30 1553 C 151.676 -1.84856 1.44448 0
M  V30 1554 C 152.692 -1.70726 0.335961 0
M  V30 1555 O 153.868 -1.92799 0.582276 0
M  V30 1556 C 150.933 -3.20758 1.31587 0
M  V30 1557 C 149.994 -3.47063 2.52677 0
M  V30 1558 C 149.227 -4.76481 2.4042 0
M  V30 1559 O 149.45 -5.52341 1.42391 0
M  V30 1560 O 148.384 -5.03367 3.30007 0
M  V30 1561 H 152.21 -1.8488 2.40942 0
M  V30 1562 H 149.795 -0.85647 1.22413 0
M  V30 1563 H 151.677 -4.01913 1.26665 0
M  V30 1564 H 150.352 -3.21438 0.382049 0
M  V30 1565 H 149.259 -2.65873 2.63177 0
M  V30 1566 H 150.592 -3.5119 3.44858 0
M  V30 1567 N 152.244 -1.26651 -0.937939 0
M  V30 1568 C 153.492 -1.12165 -1.68118 0
M  V30 1569 C 153.813 0.334983 -1.92101 0
M  V30 1570 O 153.083 1.23583 -1.52 0
M  V30 1571 H 151.663 -0.412093 -0.623048 0
M  V30 1572 H 154.325 -1.59027 -1.12678 0
M  V30 1573 H 153.421 -1.64289 -2.6536 0
M  V30 1574 N 153.722 1.14298 -1.08507 0
M  V30 1575 C 154.632 2.23027 -0.727753 0
M  V30 1576 C 155.648 1.71952 0.26619 0
M  V30 1577 O 156.824 2.011 0.109882 0
M  V30 1578 C 153.889 3.46403 -0.143541 0
M  V30 1579 C 152.95 4.12413 -1.19223 0
M  V30 1580 C 152.183 5.29899 -0.635798 0
M  V30 1581 O 152.406 5.67796 0.544393 0
M  V30 1582 O 151.34 5.85717 -1.38634 0
M  V30 1583 H 155.166 2.55945 -1.63481 0
M  V30 1584 H 152.751 1.22248 -0.858817 0
M  V30 1585 H 154.633 4.21018 0.179404 0
M  V30 1586 H 153.308 3.15206 0.736659 0
M  V30 1587 H 152.215 3.39667 -1.56772 0
M  V30 1588 H 153.548 4.47718 -2.04474 0
M  V30 1589 N 155.201 0.870884 1.31352 0
M  V30 1590 C 156.426 0.495957 2.01383 0
M  V30 1591 C 156.851 -0.904324 1.64935 0
M  V30 1592 O 156.209 -1.59687 0.858466 0
M  V30 1593 C 156.257 0.661433 3.54482 0
M  V30 1594 O 155.361 -0.298851 4.11316 0
M  V30 1595 H 154.702 0.197158 0.634054 0
M  V30 1596 H 157.232 1.17455 1.67527 0
M  V30 1597 H 157.242 0.555072 4.04207 0
M  V30 1598 H 155.917 1.68246 3.8035 0
M  V30 1599 H 154.494 -0.147368 3.72609 0
M  V30 1600 N 156.679 -1.44442 0.630414 0
M  V30 1601 C 158.095 -1.56832 0.295973 0
M  V30 1602 C 158.295 -1.61806 -1.20088 0
M  V30 1603 O 157.351 -1.5607 -1.9849 0
M  V30 1604 C 158.664 -2.84031 0.987264 0
M  V30 1605 C 160.212 -2.97742 0.96534 0
M  V30 1606 C 160.687 -4.27743 1.63708 0
M  V30 1607 N 162.178 -4.34555 1.60364 0
M  V30 1608 C 162.913 -5.33862 2.09234 0
M  V30 1609 N 162.409 -6.39578 2.66292 0
M  V30 1610 N 164.202 -5.25366 1.99867 0
M  V30 1611 H 156.353 -1.39457 1.60205 0
M  V30 1612 H 158.616 -0.668237 0.672431 0
M  V30 1613 H 158.322 -2.86338 2.04215 0
M  V30 1614 H 158.196 -3.73534 0.524588 0
M  V30 1615 H 160.583 -2.94989 -0.0810639 0
M  V30 1616 H 160.664 -2.09589 1.4665 0
M  V30 1617 H 160.308 -4.31255 2.68293 0
M  V30 1618 H 160.238 -5.14752 1.11076 0
M  V30 1619 H 162.729 -3.58772 1.18705 0
M  V30 1620 H 163.042 -7.11637 3.01317 0
M  V30 1621 H 161.387 -6.40265 2.70343 0
M  V30 1622 H 164.578 -4.41688 1.55013 0
M  V30 1623 H 164.751 -6.02606 2.38265 0
M  V30 1624 N 158.157 -0.370918 -1.53173 0
M  V30 1625 C 159.087 0.464847 -2.28826 0
M  V30 1626 C 160.068 1.07936 -1.31468 0
M  V30 1627 O 161.253 1.0956 -1.60344 0
M  V30 1628 C 158.383 1.60196 -3.08147 0
M  V30 1629 C 157.337 1.11443 -4.13237 0
M  V30 1630 C 156.663 2.3422 -4.80672 0
M  V30 1631 C 157.963 0.195384 -5.21934 0
M  V30 1632 H 159.657 -0.166329 -2.98938 0
M  V30 1633 H 157.203 -0.0814359 -1.4377 0
M  V30 1634 H 159.156 2.19332 -3.59822 0
M  V30 1635 H 157.88 2.26045 -2.35735 0
M  V30 1636 H 156.539 0.545727 -3.62515 0
M  V30 1637 H 156.187 2.98537 -4.04827 0
M  V30 1638 H 155.887 2.02269 -5.51689 0
M  V30 1639 H 157.411 2.94032 -5.35143 0
M  V30 1640 H 158.825 0.694375 -5.69079 0
M  V30 1641 H 157.222 -0.0335027 -6.00091 0
M  V30 1642 H 158.292 -0.760961 -4.78892 0
M  V30 1643 N 159.635 1.57281 -0.100228 0
M  V30 1644 C 160.583 2.15542 0.874328 0
M  V30 1645 C 161.577 1.09962 1.28859 0
M  V30 1646 O 162.783 1.28298 1.26252 0
M  V30 1647 H 159.158 0.689567 0.300003 0
M  V30 1648 H 161.129 2.96241 0.35829 0
M  V30 1649 C 159.878 2.75454 2.1218 0
M  V30 1650 H 159.201 3.56384 1.81193 0
M  V30 1651 H 160.641 3.19781 2.78417 0
M  V30 1652 C 159.1 1.71602 2.89921 0
M  V30 1653 O 159.63 1.15804 3.84646 0
M  V30 1654 N 157.836 1.41975 2.53558 0
M  V30 1655 H 157.383 1.87539 1.76598 0
M  V30 1656 H 157.341 0.727274 3.05873 0
M  V30 1657 N 161.113 -0.173488 1.56642 0
M  V30 1658 C 162.043 -1.2171 1.99271 0
M  V30 1659 C 163.024 -1.46289 0.867959 0
M  V30 1660 O 164.209 -1.5766 1.13388 0
M  V30 1661 C 161.339 -2.55651 2.35074 0
M  V30 1662 C 160.293 -2.45645 3.50489 0
M  V30 1663 C 159.619 -3.84056 3.72028 0
M  V30 1664 C 160.919 -1.96302 4.84007 0
M  V30 1665 H 162.613 -0.86275 2.867 0
M  V30 1666 H 160.159 -0.413571 1.37933 0
M  V30 1667 H 162.112 -3.2886 2.63494 0
M  V30 1668 H 160.836 -2.92869 1.44552 0
M  V30 1669 H 159.495 -1.7489 3.22194 0
M  V30 1670 H 159.143 -4.18664 2.788 0
M  V30 1671 H 158.843 -3.7823 4.49684 0
M  V30 1672 H 160.367 -4.58854 4.02846 0
M  V30 1673 H 161.781 -2.59284 5.11317 0
M  V30 1674 H 160.178 -2.01429 5.65284 0
M  V30 1675 H 161.248 -0.917226 4.76146 0
M  V30 1676 N 162.591 -1.51276 -0.441967 0
M  V30 1677 C 163.837 -1.63958 -1.19355 0
M  V30 1678 C 164.17 -0.352543 -1.90973 0
M  V30 1679 O 163.445 0.647627 -1.83401 0
M  V30 1680 C 163.728 -2.83979 -2.21422 0
M  V30 1681 C 163.581 -4.22646 -1.53918 0
M  V30 1682 C 164.9 -2.99521 -3.22451 0
M  V30 1683 H 162.019 -0.596709 -0.432559 0
M  V30 1684 H 164.661 -1.83748 -0.483398 0
M  V30 1685 H 162.811 -2.67237 -2.81987 0
M  V30 1686 H 164.483 -4.51045 -0.967256 0
M  V30 1687 H 162.726 -4.25558 -0.841615 0
M  V30 1688 H 163.397 -5.02609 -2.28229 0
M  V30 1689 H 165.873 -3.14944 -2.71937 0
M  V30 1690 H 164.749 -3.85072 -3.91166 0
M  V30 1691 H 165.01 -2.11391 -3.88287 0
M  V30 1692 N 164.069 0.697108 -1.41344 0
M  V30 1693 C 165.001 1.8224 -1.39001 0
M  V30 1694 C 166.014 1.60152 -0.292428 0
M  V30 1695 O 167.203 1.69684 -0.554048 0
M  V30 1696 C 164.303 3.18976 -1.14489 0
M  V30 1697 C 163.476 3.68105 -2.36258 0
M  V30 1698 C 162.535 4.83506 -2.07625 0
M  V30 1699 O 161.561 4.95201 -2.8065 0
M  V30 1700 N 162.763 5.70637 -1.06555 0
M  V30 1701 H 165.528 1.84742 -2.35988 0
M  V30 1702 H 163.089 0.87937 -1.35936 0
M  V30 1703 H 165.081 3.93801 -0.932885 0
M  V30 1704 H 163.651 3.11508 -0.261043 0
M  V30 1705 H 162.871 2.84204 -2.7317 0
M  V30 1706 H 164.159 3.97667 -3.17393 0
M  V30 1707 H 163.557 5.63817 -0.461125 0
M  V30 1708 H 162.114 6.45368 -0.913444 0
M  V30 1709 N 165.547 1.27147 0.931209 0
M  V30 1710 C 166.963 1.04475 1.20653 0
M  V30 1711 C 167.163 -0.223885 2.00252 0
M  V30 1712 O 166.219 -0.930332 2.34736 0
M  V30 1713 C 167.532 2.28209 1.95809 0
M  V30 1714 C 169.08 2.33211 2.08762 0
M  V30 1715 C 169.555 3.56665 2.87323 0
M  V30 1716 N 171.046 3.57201 2.94892 0
M  V30 1717 C 171.781 4.49395 3.56134 0
M  V30 1718 N 171.277 5.51889 4.18796 0
M  V30 1719 N 173.07 4.37026 3.53504 0
M  V30 1720 H 165.221 2.08612 0.399333 0
M  V30 1721 H 167.484 0.917312 0.239253 0
M  V30 1722 H 167.19 3.20538 1.44736 0
M  V30 1723 H 167.064 2.33247 2.96438 0
M  V30 1724 H 169.451 1.41391 2.59023 0
M  V30 1725 H 169.532 2.32178 1.07364 0
M  V30 1726 H 169.176 4.4882 2.37746 0
M  V30 1727 H 169.106 3.54948 3.88998 0
M  V30 1728 H 171.597 2.83074 2.50354 0
M  V30 1729 H 171.91 6.18409 4.63454 0
M  V30 1730 H 170.255 5.55735 4.17353 0
M  V30 1731 H 173.446 3.56166 3.03749 0
M  V30 1732 H 173.619 5.09067 4.00942 0
M  V30 1733 N 167.025 -1.13721 1.09112 0
M  V30 1734 C 167.973 -2.21103 0.722219 0
M  V30 1735 C 168.967 -1.67147 -0.275374 0
M  V30 1736 O 170.173 -1.79477 -0.137176 0
M  V30 1737 H 166.548 -0.720445 0.215553 0
M  V30 1738 H 168.519 -2.49483 1.63709 0
M  V30 1739 C 167.268 -3.47352 0.15543 0
M  V30 1740 H 166.591 -3.89206 0.914246 0
M  V30 1741 H 168.031 -4.2395 -0.0647967 0
M  V30 1742 C 166.49 -3.1814 -1.10852 0
M  V30 1743 O 167.02 -3.36604 -2.19227 0
M  V30 1744 N 165.226 -2.72045 -1.02176 0
M  V30 1745 H 164.773 -2.57221 -0.139764 0
M  V30 1746 H 164.731 -2.52875 -1.8682 0
M  V30 1747 N 168.503 -0.877838 -1.30888 0
M  V30 1748 C 169.749 -0.493426 -1.96706 0
M  V30 1749 C 170.082 0.953504 -1.6918 0
M  V30 1750 O 169.357 1.67266 -0.992594 0
M  V30 1751 C 169.64 -0.760429 -3.51979 0
M  V30 1752 C 169.493 -2.25747 -3.89048 0
M  V30 1753 C 170.812 -0.232148 -4.39487 0
M  V30 1754 H 167.931 -0.180746 -0.714493 0
M  V30 1755 H 170.573 -1.10052 -1.54882 0
M  V30 1756 H 168.723 -0.243715 -3.87735 0
M  V30 1757 H 170.395 -2.84204 -3.63354 0
M  V30 1758 H 168.638 -2.72694 -3.37373 0
M  V30 1759 H 169.309 -2.39491 -4.97341 0
M  V30 1760 H 171.785 -0.674314 -4.106 0
M  V30 1761 H 170.661 -0.448355 -5.47066 0
M  V30 1762 H 170.922 0.866297 -4.33529 0
M  V30 1763 N 169.982 1.44106 -0.638065 0
M  V30 1764 C 170.93 2.3248 0.0748149 0
M  V30 1765 C 171.924 1.47746 0.828702 0
M  V30 1766 O 173.13 1.64049 0.740816 0
M  V30 1767 H 169.505 0.750771 0.0429686 0
M  V30 1768 H 171.476 2.90348 -0.688504 0
M  V30 1769 C 170.225 3.31843 1.03805 0
M  V30 1770 H 169.548 3.97059 0.467375 0
M  V30 1771 H 170.988 3.96345 1.50622 0
M  V30 1772 C 169.447 2.61291 2.1267 0
M  V30 1773 O 169.977 2.41702 3.20847 0
M  V30 1774 N 168.183 2.20915 1.88798 0
M  V30 1775 H 167.73 2.37047 1.00829 0
M  V30 1776 H 167.688 1.74038 2.61836 0
M  V30 1777 N 171.46 0.379036 1.52974 0
M  V30 1778 C 172.706 -0.206727 2.01744 0
M  V30 1779 C 173.039 -1.47314 1.26539 0
M  V30 1780 O 172.314 -1.91084 0.362903 0
M  V30 1781 C 172.597 -0.485066 3.56818 0
M  V30 1782 C 172.45 0.795919 4.42702 0
M  V30 1783 C 173.769 -1.28003 4.21074 0
M  V30 1784 H 170.888 -0.0736607 0.73331 0
M  V30 1785 H 173.53 0.506581 1.83122 0
M  V30 1786 H 171.68 -1.09272 3.72816 0
M  V30 1787 H 173.352 1.43307 4.38476 0
M  V30 1788 H 171.595 1.41344 4.10127 0
M  V30 1789 H 172.266 0.555947 5.49193 0
M  V30 1790 H 174.742 -0.765867 4.08991 0
M  V30 1791 H 173.618 -1.44352 5.29579 0
M  V30 1792 H 173.879 -2.29236 3.78026 0
M  V30 1793 N 172.938 -1.57226 0.108567 0
M  V30 1794 C 174.185 -1.94833 -0.551943 0
M  V30 1795 C 174.513 -0.991204 -1.67348 0
M  V30 1796 O 173.768 -0.0131878 -1.95696 0
M  V30 1797 C 174.067 -3.38911 -1.13463 0
M  V30 1798 C 173.733 -4.50696 -0.135509 0
M  V30 1799 C 172.395 -4.80998 0.139252 0
M  V30 1800 C 174.747 -5.18333 0.545957 0
M  V30 1801 C 172.075 -5.76259 1.10194 0
M  V30 1802 C 174.427 -6.14627 1.49721 0
M  V30 1803 C 173.091 -6.43327 1.78006 0
M  V30 1804 H 172.361 -0.712944 -0.20197 0
M  V30 1805 H 175.008 -1.90582 0.18726 0
M  V30 1806 H 173.313 -3.39805 -1.95037 0
M  V30 1807 H 175.01 -3.65317 -1.65362 0
M  V30 1808 H 171.6 -4.27087 -0.359846 0
M  V30 1809 H 175.784 -4.95087 0.346842 0
M  V30 1810 H 171.04 -5.96804 1.32795 0
M  V30 1811 H 175.214 -6.66126 2.03099 0
M  V30 1812 H 172.841 -7.1695 2.52759 0
M  V30 1813 N 174.416 0.165178 -1.56732 0
M  V30 1814 C 175.363 1.2044 -1.96883 0
M  V30 1815 C 176.333 1.43664 -0.833657 0
M  V30 1816 O 177.518 1.56302 -1.09427 0
M  V30 1817 C 174.658 2.53727 -2.33916 0
M  V30 1818 C 173.771 2.3783 -3.6064 0
M  V30 1819 C 172.906 3.64026 -3.86857 0
M  V30 1820 C 171.945 3.43088 -5.06909 0
M  V30 1821 N 171.082 4.61369 -5.29229 0
M  V30 1822 H 175.922 0.854996 -2.85471 0
M  V30 1823 H 173.459 0.41076 -1.41249 0
M  V30 1824 H 175.417 3.31419 -2.53411 0
M  V30 1825 H 174.047 2.8665 -1.48431 0
M  V30 1826 H 173.099 1.51282 -3.49024 0
M  V30 1827 H 174.411 2.18308 -4.4849 0
M  V30 1828 H 173.565 4.50152 -4.06753 0
M  V30 1829 H 172.304 3.86533 -2.97394 0
M  V30 1830 H 171.309 2.55349 -4.86906 0
M  V30 1831 H 172.534 3.21997 -5.97909 0
M  V30 1832 H 170.48 4.84084 -4.42718 0
M  V30 1833 H 170.397 4.44783 -6.11313 0
M  V30 1834 H 171.665 5.48761 -5.53608 0
M  V30 1835 N 175.894 1.51508 0.433938 0
M  V30 1836 C 177.141 1.64345 1.18309 0
M  V30 1837 C 177.469 0.361315 1.91115 0
M  V30 1838 O 176.724 -0.654753 1.84422 0
M  V30 1839 C 177.023 2.79928 2.22205 0
M  V30 1840 C 176.689 4.19078 1.66387 0
M  V30 1841 C 175.351 4.56932 1.50887 0
M  V30 1842 C 177.703 5.05894 1.25381 0
M  V30 1843 C 175.031 5.79305 0.928608 0
M  V30 1844 C 177.383 6.2885 0.687823 0
M  V30 1845 C 176.047 6.65473 0.519755 0
M  V30 1846 H 175.317 0.601381 0.432923 0
M  V30 1847 H 177.964 1.85549 0.473676 0
M  V30 1848 H 176.269 2.52959 2.99197 0
M  V30 1849 H 177.966 2.87059 2.79997 0
M  V30 1850 H 174.556 3.89234 1.79428 0
M  V30 1851 H 178.74 4.77253 1.36175 0
M  V30 1852 H 173.996 6.06324 0.786186 0
M  V30 1853 H 178.17 6.95461 0.361581 0
M  V30 1854 H 175.797 7.6017 0.0679979 0
M  V30 1855 N 177.372 -0.689602 1.41712 0
M  V30 1856 C 178.621 -1.44534 1.40686 0
M  V30 1857 C 178.934 -1.95588 0.0213352 0
M  V30 1858 O 180.14 -2.71271 -0.111534 0
M  V30 1859 C 178.596 -2.61387 2.47396 0
M  V30 1860 C 178.204 -2.17094 3.91885 0
M  V30 1861 C 179.948 -3.38986 2.55517 0
M  V30 1862 C 177.855 -3.3094 4.90135 0
M  V30 1863 H 176.785 -0.542925 0.52321 0
M  V30 1864 H 179.436 -0.748054 1.6756 0
M  V30 1865 H 177.818 -3.33412 2.13664 0
M  V30 1866 H 178.992 -1.52318 4.34897 0
M  V30 1867 H 177.307 -1.52473 3.8748 0
M  V30 1868 H 179.904 -4.23747 3.26102 0
M  V30 1869 H 180.247 -3.84578 1.59391 0
M  V30 1870 H 180.78 -2.74021 2.8837 0
M  V30 1871 H 177.519 -2.90355 5.87685 0
M  V30 1872 H 177.039 -3.94546 4.51767 0
M  V30 1873 H 178.718 -3.9663 5.11169 0
M  V30 1874 N 178.85 -1.27639 -0.924453 0
M  V30 1875 C 180.099 -1.13549 -1.66702 0
M  V30 1876 C 180.412 0.317487 -1.93006 0
M  V30 1877 O 181.618 0.579333 -2.65247 0
M  V30 1878 C 180.074 -1.98426 -3.00259 0
M  V30 1879 C 179.682 -3.484 -2.81641 0
M  V30 1880 C 181.426 -1.92993 -3.78092 0
M  V30 1881 C 179.333 -4.25464 -4.10773 0
M  V30 1882 H 178.263 -0.421351 -0.625283 0
M  V30 1883 H 180.914 -1.52085 -1.02676 0
M  V30 1884 H 179.296 -1.52736 -3.6536 0
M  V30 1885 H 180.47 -4.01973 -2.25287 0
M  V30 1886 H 178.785 -3.55245 -2.17232 0
M  V30 1887 H 181.382 -2.47844 -4.7379 0
M  V30 1888 H 181.725 -0.904281 -4.0636 0
M  V30 1889 H 182.258 -2.36595 -3.19793 0
M  V30 1890 H 178.997 -5.28566 -3.87683 0
M  V30 1891 H 178.517 -3.76667 -4.66779 0
M  V30 1892 H 180.196 -4.34812 -4.79111 0
M  V30 1893 N 180.328 1.1314 -1.09713 0
M  V30 1894 C 181.739 1.66029 -0.853885 0
M  V30 1895 C 182.09 1.86241 0.617142 0
M  V30 1896 O 181.215 1.5834 1.47503 0
M  V30 1897 C 181.81 3.01599 -1.5435 0
M  V30 1898 C 180.369 3.51467 -1.34714 0
M  V30 1899 C 179.516 2.26648 -1.59769 0
M  V30 1900 H 182.467 0.970226 -1.25588 0
M  V30 1901 H 182.488 3.67709 -0.978267 0
M  V30 1902 H 182 2.86856 -2.6141 0
M  V30 1903 H 180.101 3.71408 -0.297838 0
M  V30 1904 H 180.214 4.314 -2.08401 0
M  V30 1905 H 178.578 2.33385 -1.01998 0
M  V30 1906 H 179.361 2.14467 -2.68065 0
M  V30 1907 N 181.806 0.884767 1.30421 0
M  V30 1908 C 182.738 0.308655 2.27112 0
M  V30 1909 C 183.751 -0.536655 1.53701 0
M  V30 1910 O 184.94 -0.35624 1.74909 0
M  V30 1911 C 182.04 -0.579782 3.33904 0
M  V30 1912 C 181.213 0.236417 4.36761 0
M  V30 1913 C 180.272 -0.582482 5.22966 0
M  V30 1914 O 179.298 -0.00525502 5.692 0
M  V30 1915 N 180.5 -1.89163 5.48815 0
M  V30 1916 H 183.265 1.13964 2.77186 0
M  V30 1917 H 180.826 0.747731 1.43599 0
M  V30 1918 H 182.818 -1.13366 3.88497 0
M  V30 1919 H 181.388 -1.31144 2.83761 0
M  V30 1920 H 180.608 0.97174 3.82035 0
M  V30 1921 H 181.896 0.795924 5.02536 0
M  V30 1922 H 181.294 -2.38352 5.13035 0
M  V30 1923 H 179.851 -2.39296 6.06284 0
M  V30 1924 N 183.284 -1.43765 0.645699 0
M  V30 1925 C 184.533 -2.01116 0.153412 0
M  V30 1926 C 184.846 -1.51493 -1.23731 0
M  V30 1927 O 186.052 -2.01067 -1.8244 0
M  V30 1928 C 184.508 -3.59206 0.223473 0
M  V30 1929 C 184.116 -4.17823 1.61642 0
M  V30 1930 C 185.86 -4.23972 -0.211597 0
M  V30 1931 C 183.767 -5.68183 1.64081 0
M  V30 1932 H 182.697 -0.752093 0.0535891 0
M  V30 1933 H 185.348 -1.6482 0.806633 0
M  V30 1934 H 183.73 -3.92867 -0.497118 0
M  V30 1935 H 184.904 -3.95674 2.36176 0
M  V30 1936 H 183.219 -3.65399 1.99681 0
M  V30 1937 H 185.816 -5.34275 -0.213112 0
M  V30 1938 H 186.159 -3.97352 -1.24165 0
M  V30 1939 H 186.692 -3.95166 0.456988 0
M  V30 1940 H 183.431 -5.99559 2.64971 0
M  V30 1941 H 182.951 -5.9241 0.938611 0
M  V30 1942 H 184.63 -6.32085 1.3812 0
M  V30 1943 N 184.763 -0.387143 -1.52771 0
M  V30 1944 C 186.009 0.196025 -2.0185 0
M  V30 1945 C 186.342 1.46641 -1.27319 0
M  V30 1946 O 185.617 1.90889 -0.373032 0
M  V30 1947 C 185.9 0.466136 -3.5707 0
M  V30 1948 C 185.753 -0.819385 -4.42274 0
M  V30 1949 C 187.072 1.25768 -4.21747 0
M  V30 1950 H 184.191 0.0697708 -0.73369 0
M  V30 1951 H 186.833 -0.516286 -1.82851 0
M  V30 1952 H 184.983 1.07293 -3.7339 0
M  V30 1953 H 186.655 -1.4563 -4.37709 0
M  V30 1954 H 184.898 -1.43517 -4.09372 0
M  V30 1955 H 185.569 -0.585065 -5.48891 0
M  V30 1956 H 188.045 0.744167 -4.09391 0
M  V30 1957 H 186.921 1.41541 -5.30337 0
M  V30 1958 H 187.182 2.27228 -3.79236 0
M  V30 1959 N 186.241 1.57166 -0.116904 0
M  V30 1960 C 187.188 2.15202 0.83408 0
M  V30 1961 C 188.158 1.07644 1.26499 0
M  V30 1962 O 189.343 1.35541 1.34288 0
M  V30 1963 C 186.483 2.75405 2.07957 0
M  V30 1964 C 185.596 3.97264 1.69721 0
M  V30 1965 C 184.731 4.45561 2.89221 0
M  V30 1966 C 183.77 5.59956 2.47215 0
M  V30 1967 N 182.907 6.03006 3.59622 0
M  V30 1968 H 187.747 2.96141 0.332335 0
M  V30 1969 H 185.284 1.46309 0.152349 0
M  V30 1970 H 187.242 3.08439 2.80929 0
M  V30 1971 H 185.872 1.97159 2.55594 0
M  V30 1972 H 184.924 3.70404 0.866316 0
M  V30 1973 H 186.236 4.80226 1.34849 0
M  V30 1974 H 185.39 4.80493 3.7042 0
M  V30 1975 H 184.129 3.61544 3.27318 0
M  V30 1976 H 183.134 5.2463 1.64448 0
M  V30 1977 H 184.359 6.45738 2.10238 0
M  V30 1978 H 182.305 5.21931 3.97396 0
M  V30 1979 H 182.222 6.80819 3.28667 0
M  V30 1980 H 183.49 6.42576 4.41267 0
M  V30 1981 N 187.719 -0.156864 1.56817 0
M  V30 1982 C 188.949 -0.885031 1.86684 0
M  V30 1983 C 189.357 -1.75696 0.701954 0
M  V30 1984 O 188.7 -1.80569 -0.337732 0
M  V30 1985 C 188.762 -1.80092 3.11138 0
M  V30 1986 C 188.426 -1.10714 4.43386 0
M  V30 1987 C 189.423 -0.465714 5.1781 0
M  V30 1988 C 187.108 -1.09959 4.90117 0
M  V30 1989 C 189.102 0.174002 6.37162 0
M  V30 1990 C 186.789 -0.456055 6.09396 0
M  V30 1991 C 187.787 0.179622 6.82764 0
M  V30 1992 O 187.475 0.812975 7.99779 0
M  V30 1993 H 187.207 -0.261813 0.623242 0
M  V30 1994 H 189.761 -0.157383 2.04796 0
M  V30 1995 H 187.991 -2.56926 2.89009 0
M  V30 1996 H 189.68 -2.40018 3.27332 0
M  V30 1997 H 190.446 -0.463427 4.82781 0
M  V30 1998 H 186.325 -1.58378 4.3294 0
M  V30 1999 H 189.869 0.670765 6.94368 0
M  V30 2000 H 185.766 -0.455975 6.43888 0
M  V30 2001 H 186.534 0.71366 8.15383 0
M  V30 2002 N 189.197 -1.51736 -0.425897 0
M  V30 2003 C 190.422 -1.69082 -1.20108 0
M  V30 2004 C 190.847 -0.392398 -1.83962 0
M  V30 2005 O 190.205 0.64858 -1.69302 0
M  V30 2006 C 190.253 -2.81604 -2.25237 0
M  V30 2007 O 189.357 -2.46004 -3.30992 0
M  V30 2008 H 188.698 -0.563408 -0.35138 0
M  V30 2009 H 191.228 -1.98358 -0.501512 0
M  V30 2010 H 191.238 -3.06025 -2.69838 0
M  V30 2011 H 189.913 -3.75817 -1.78142 0
M  V30 2012 H 188.49 -2.32195 -2.91787 0
M  V30 2013 N 190.675 0.682077 -1.42076 0
M  V30 2014 C 192.086 1.26246 -1.37546 0
M  V30 2015 C 192.437 1.96092 -0.0651481 0
M  V30 2016 O 191.562 1.99587 0.836297 0
M  V30 2017 C 192.157 2.29594 -2.49143 0
M  V30 2018 C 190.716 2.83175 -2.47969 0
M  V30 2019 C 189.863 1.57395 -2.28303 0
M  V30 2020 H 192.814 0.475937 -1.51395 0
M  V30 2021 H 192.835 3.11175 -2.18976 0
M  V30 2022 H 192.347 1.78729 -3.44496 0
M  V30 2023 H 190.448 3.3818 -1.56413 0
M  V30 2024 H 190.561 3.32687 -3.44755 0
M  V30 2025 H 188.925 1.83699 -1.76428 0
M  V30 2026 H 189.708 1.08507 -3.25701 0
M  V30 2027 N 192.153 1.28127 0.917671 0
M  V30 2028 C 193.43 1.05761 1.64542 0
M  V30 2029 C 193.81 -0.404344 2.07191 0
M  V30 2030 O 193.158 -1.38963 1.81388 0
M  V30 2031 C 193.368 2.02857 2.83989 0
M  V30 2032 C 194.716 2.32786 3.551 0
M  V30 2033 O 195.74 2.0091 2.94132 0
M  V30 2034 O 194.599 2.87169 4.64969 0
M  V30 2035 H 191.693 0.403916 0.721652 0
M  V30 2036 H 194.239 1.39431 0.967322 0
M  V30 2037 H 193.011 3.01407 2.49538 0
M  V30 2038 H 192.634 1.69809 3.59514 0
M  V30 2039 N 193.631 -1.12557 1.10312 0
M  V30 2040 C 194.871 -1.8568 0.854543 0
M  V30 2041 C 195.235 -1.82091 -0.608843 0
M  V30 2042 O 196.436 -2.50544 -0.973717 0
M  V30 2043 C 194.707 -3.2942 1.38626 0
M  V30 2044 S 196.266 -4.19931 1.27293 0
M  V30 2045 H 193.084 -0.640427 0.308827 0
M  V30 2046 H 195.686 -1.35599 1.40831 0
M  V30 2047 H 194.39 -3.2959 2.44537 0
M  V30 2048 H 193.921 -3.84566 0.82902 0
M  V30 2049 H 195.936 -4.95668 0.229776 0
M  V30 2050 N 195.109 -0.891671 -1.2995 0
M  V30 2051 C 196.358 -0.509521 -1.95158 0
M  V30 2052 C 196.671 0.947388 -1.71125 0
M  V30 2053 O 197.877 1.43669 -2.30372 0
M  V30 2054 C 196.333 -0.860315 -3.49466 0
M  V30 2055 C 195.941 -2.33545 -3.8231 0
M  V30 2056 C 197.685 -0.547687 -4.20952 0
M  V30 2057 C 195.592 -2.62752 -5.29826 0
M  V30 2058 H 194.522 -0.18682 -0.730489 0
M  V30 2059 H 197.173 -1.08756 -1.47798 0
M  V30 2060 H 195.555 -0.211285 -3.95436 0
M  V30 2061 H 196.729 -3.02936 -3.47227 0
M  V30 2062 H 195.044 -2.61629 -3.23944 0
M  V30 2063 H 197.641 -0.742854 -5.29515 0
M  V30 2064 H 197.984 0.51332 -4.13123 0
M  V30 2065 H 198.517 -1.1542 -3.80688 0
M  V30 2066 H 195.256 -3.6762 -5.42712 0
M  V30 2067 H 194.776 -1.97977 -5.66185 0
M  V30 2068 H 196.455 -2.48601 -5.97333 0
M  V30 2069 N 196.587 1.43421 -0.653314 0
M  V30 2070 C 197.836 2.01032 -0.164076 0
M  V30 2071 C 198.149 1.52147 1.22926 0
M  V30 2072 O 199.355 2.02031 1.81371 0
M  V30 2073 C 197.811 3.59082 -0.24252 0
M  V30 2074 C 197.419 4.1696 -1.63855 0
M  V30 2075 C 199.163 4.24079 0.18911 0
M  V30 2076 C 197.07 5.67304 -1.67092 0
M  V30 2077 H 196 0.751798 -0.0575769 0
M  V30 2078 H 198.651 1.6439 -0.815362 0
M  V30 2079 H 197.033 3.93125 0.476276 0
M  V30 2080 H 198.207 3.94416 -2.38271 0
M  V30 2081 H 196.522 3.64335 -2.01616 0
M  V30 2082 H 199.119 5.34381 0.184775 0
M  V30 2083 H 199.462 3.98005 1.22056 0
M  V30 2084 H 199.995 3.94918 -0.477938 0
M  V30 2085 H 196.734 5.98145 -2.68146 0
M  V30 2086 H 196.254 5.91904 -0.970014 0
M  V30 2087 H 197.933 6.31344 -1.4147 0
M  V30 2088 N 198.065 0.39524 1.52563 0
M  V30 2089 C 199.314 -0.186321 2.00838 0
M  V30 2090 C 199.627 -1.47402 1.28577 0
M  V30 2091 O 200.833 -2.13599 1.67593 0
M  V30 2092 C 199.289 -0.382595 3.57861 0
M  V30 2093 C 198.897 0.892202 4.39026 0
M  V30 2094 C 200.641 -0.9202 4.14406 0
M  V30 2095 C 198.548 0.66388 5.87662 0
M  V30 2096 H 197.478 -0.0734041 0.750418 0
M  V30 2097 H 200.129 0.518552 1.76021 0
M  V30 2098 H 198.511 -1.14946 3.7895 0
M  V30 2099 H 199.685 1.66414 4.29701 0
M  V30 2100 H 198 1.35519 3.9373 0
M  V30 2101 H 200.597 -1.10683 5.23119 0
M  V30 2102 H 200.94 -1.89096 3.70875 0
M  V30 2103 H 201.473 -0.212751 3.97231 0
M  V30 2104 H 198.212 1.6058 6.35527 0
M  V30 2105 H 197.732 -0.0690193 5.9976 0
M  V30 2106 H 199.411 0.300699 6.46301 0
M  V30 2107 N 199.544 -1.57102 0.125237 0
M  V30 2108 C 200.79 -1.95697 -0.532035 0
M  V30 2109 C 201.123 -1.009 -1.6593 0
M  V30 2110 O 200.398 -0.047347 -1.94442 0
M  V30 2111 C 200.681 -3.44181 -1.05884 0
M  V30 2112 C 200.534 -4.49752 0.0654392 0
M  V30 2113 C 201.853 -3.94655 -1.9477 0
M  V30 2114 H 198.972 -0.711571 -0.191925 0
M  V30 2115 H 201.614 -1.88923 0.20206 0
M  V30 2116 H 199.764 -3.50085 -1.68442 0
M  V30 2117 H 201.436 -4.55943 0.700982 0
M  V30 2118 H 199.679 -4.27653 0.727709 0
M  V30 2119 H 200.35 -5.50924 -0.344505 0
M  V30 2120 H 202.826 -3.91094 -1.42074 0
M  V30 2121 H 201.702 -4.99057 -2.28546 0
M  V30 2122 H 201.963 -3.35718 -2.87656 0
M  V30 2123 N 201.022 0.148545 -1.56898 0
M  V30 2124 C 202.268 0.862694 -1.83536 0
M  V30 2125 C 202.601 1.80889 -0.706604 0
M  V30 2126 O 201.876 1.92328 0.289885 0
M  V30 2127 C 202.159 1.63853 -3.20662 0
M  V30 2128 C 202.012 0.713925 -4.44098 0
M  V30 2129 C 203.331 2.60133 -3.54991 0
M  V30 2130 H 200.45 0.312179 -0.667618 0
M  V30 2131 H 203.092 0.127953 -1.89569 0
M  V30 2132 H 201.242 2.26489 -3.1565 0
M  V30 2133 H 202.914 0.098686 -4.61194 0
M  V30 2134 H 201.157 0.0234019 -4.33794 0
M  V30 2135 H 201.828 1.29278 -5.36648 0
M  V30 2136 H 204.304 2.07616 -3.60603 0
M  V30 2137 H 203.18 3.11468 -4.51972 0
M  V30 2138 H 203.441 3.41417 -2.80868 0
M  V30 2139 N 202.5 1.5196 0.417844 0
M  V30 2140 C 203.725 1.69717 1.1921 0
M  V30 2141 C 204.15 0.402148 1.83751 0
M  V30 2142 O 203.508 -0.639593 1.69643 0
M  V30 2143 C 203.556 2.82794 2.2374 0
M  V30 2144 O 202.66 2.47756 3.29683 0
M  V30 2145 H 202.001 0.565263 0.348387 0
M  V30 2146 H 204.531 1.98621 0.490985 0
M  V30 2147 H 204.541 3.07452 2.68212 0
M  V30 2148 H 203.216 3.76756 1.76146 0
M  V30 2149 H 201.793 2.33739 2.90552 0
M  V30 2150 N 203.978 -0.674533 1.42435 0
M  V30 2151 C 204.926 -1.80934 1.46169 0
M  V30 2152 C 205.92 -1.66006 0.3374 0
M  V30 2153 O 207.126 -1.72611 0.510425 0
M  V30 2154 H 203.501 -0.596594 0.457798 0
M  V30 2155 H 205.472 -1.74903 2.41767 0
M  V30 2156 C 204.221 -3.19088 1.38123 0
M  V30 2157 H 203.544 -3.31203 2.23931 0
M  V30 2158 H 204.984 -3.9851 1.44797 0
M  V30 2159 C 203.443 -3.36763 0.0960517 0
M  V30 2160 O 203.973 -3.92581 -0.851073 0
M  V30 2161 N 202.179 -2.90597 0.0131186 0
M  V30 2162 H 201.726 -2.45359 0.784639 0
M  V30 2163 H 201.684 -3.028 -0.846133 0
M  V30 2164 N 205.456 -1.28612 -0.910864 0
M  V30 2165 C 206.867 -1.14406 -1.47541 0
M  V30 2166 C 207.218 0.264901 -1.94403 0
M  V30 2167 O 206.343 1.15942 -1.82719 0
M  V30 2168 C 206.938 -2.07073 -2.68153 0
M  V30 2169 C 205.497 -1.96923 -3.20778 0
M  V30 2170 C 204.644 -1.98646 -1.93481 0
M  V30 2171 H 207.595 -1.41259 -0.723291 0
M  V30 2172 H 207.616 -1.63642 -3.43514 0
M  V30 2173 H 207.128 -3.09611 -2.34015 0
M  V30 2174 H 205.229 -0.97433 -3.59635 0
M  V30 2175 H 205.342 -2.84026 -3.85832 0
M  V30 2176 H 203.706 -1.43093 -2.10705 0
M  V30 2177 H 204.489 -3.02868 -1.61634 0
M  V30 2178 N 206.934 1.1197 -1.10907 0
M  V30 2179 C 208.18 1.8386 -0.855773 0
M  V30 2180 C 208.513 1.84134 0.617103 0
M  V30 2181 O 207.788 1.29041 1.45529 0
M  V30 2182 C 208.071 3.31305 -1.411 0
M  V30 2183 C 207.924 3.39456 -2.9511 0
M  V30 2184 C 209.243 4.2721 -1.05736 0
M  V30 2185 H 206.362 0.667545 -0.312334 0
M  V30 2186 H 209.004 1.31331 -1.37303 0
M  V30 2187 H 207.154 3.76169 -0.97105 0
M  V30 2188 H 208.826 3.03191 -3.47668 0
M  V30 2189 H 207.069 2.79849 -3.31462 0
M  V30 2190 H 207.74 4.43209 -3.29044 0
M  V30 2191 H 210.216 3.90497 -1.43706 0
M  V30 2192 H 209.092 5.28775 -1.47269 0
M  V30 2193 H 209.353 4.42088 0.0325958 0
M  V30 2194 N 208.412 0.89855 1.29475 0
M  V30 2195 C 209.689 0.443416 1.90508 0
M  V30 2196 C 210.069 -1.07685 1.81569 0
M  V30 2197 O 209.417 -1.9182 1.24166 0
M  V30 2198 C 209.627 0.956708 3.35631 0
M  V30 2199 C 210.975 0.999728 4.12663 0
M  V30 2200 O 211.999 0.904299 3.4453 0
M  V30 2201 O 210.858 1.14289 5.34416 0
M  V30 2202 H 207.952 0.138025 0.815401 0
M  V30 2203 H 210.498 0.98834 1.37949 0
M  V30 2204 H 209.27 2.00067 3.36287 0
M  V30 2205 H 208.893 0.391728 3.95666 0
M  V30 2206 N 209.89 -1.43072 0.660911 0
M  V30 2207 C 211.139 -2.00942 0.174735 0
M  V30 2208 C 211.452 -1.52797 -1.22117 0
M  V30 2209 O 212.658 -2.02991 -1.80297 0
M  V30 2210 C 211.114 -3.58948 0.261559 0
M  V30 2211 C 210.722 -4.16085 1.66064 0
M  V30 2212 C 212.466 -4.24173 -0.166617 0
M  V30 2213 C 210.373 -5.6641 1.70098 0
M  V30 2214 H 209.303 -0.751483 0.0615631 0
M  V30 2215 H 211.954 -1.63955 0.824069 0
M  V30 2216 H 210.336 -3.93372 -0.455421 0
M  V30 2217 H 211.51 -3.93147 2.40359 0
M  V30 2218 H 209.825 -3.6326 2.03546 0
M  V30 2219 H 212.422 -5.34471 -0.156433 0
M  V30 2220 H 212.765 -3.98647 -1.19943 0
M  V30 2221 H 213.298 -3.94659 0.498875 0
M  V30 2222 H 210.037 -5.96715 2.71315 0
M  V30 2223 H 209.557 -5.91382 1.00139 0
M  V30 2224 H 211.236 -6.30585 1.44816 0
M  V30 2225 N 211.368 -0.403325 -1.52352 0
M  V30 2226 C 212.298 0.416205 -2.29761 0
M  V30 2227 C 213.279 1.05123 -1.33728 0
M  V30 2228 O 214.464 1.06134 -1.62632 0
M  V30 2229 C 211.594 1.53624 -3.11475 0
M  V30 2230 C 210.548 1.02653 -4.15507 0
M  V30 2231 C 209.874 2.23971 -4.85532 0
M  V30 2232 C 211.174 0.08463 -5.22231 0
M  V30 2233 H 212.868 -0.229701 -2.98518 0
M  V30 2234 H 210.414 -0.111913 -1.43564 0
M  V30 2235 H 212.367 2.1165 -3.64393 0
M  V30 2236 H 211.091 2.20994 -2.40477 0
M  V30 2237 H 209.75 0.46871 -3.63591 0
M  V30 2238 H 209.398 2.89883 -4.11068 0
M  V30 2239 H 209.098 1.90521 -5.55856 0
M  V30 2240 H 210.622 2.82614 -5.41259 0
M  V30 2241 H 212.036 0.573509 -5.70424 0
M  V30 2242 H 210.433 -0.160783 -5.99885 0
M  V30 2243 H 211.503 -0.86237 -4.7717 0
M  V30 2244 N 212.846 1.57033 -0.133567 0
M  V30 2245 C 214.074 2.00044 0.528195 0
M  V30 2246 C 214.489 1.01349 1.59291 0
M  V30 2247 O 213.846 0.00848369 1.82498 0
M  V30 2248 C 213.897 3.43018 1.1411 0
M  V30 2249 O 213.618 4.37939 0.11892 0
M  V30 2250 C 215.119 4.01237 1.88477 0
M  V30 2251 H 212.339 0.656517 0.138661 0
M  V30 2252 H 214.883 2.03267 -0.224196 0
M  V30 2253 H 213.038 3.40688 1.84418 0
M  V30 2254 H 213.452 5.21436 0.56613 0
M  V30 2255 H 214.926 5.03314 2.26669 0
M  V30 2256 H 215.403 3.41193 2.76558 0
M  V30 2257 H 216.009 4.07156 1.22898 0
M  V30 2258 N 214.325 -0.140222 1.56975 0
M  V30 2259 C 215.555 -0.865181 1.87612 0
M  V30 2260 C 215.963 -1.74942 0.72055 0
M  V30 2261 O 215.306 -1.80917 -0.318561 0
M  V30 2262 C 215.368 -1.76782 3.13031 0
M  V30 2263 C 215.032 -1.06005 4.44536 0
M  V30 2264 C 216.029 -0.410768 5.18275 0
M  V30 2265 C 213.714 -1.04754 4.91255 0
M  V30 2266 C 215.708 0.241572 6.36942 0
M  V30 2267 C 213.395 -0.391394 6.09845 0
M  V30 2268 C 214.393 0.252029 6.82535 0
M  V30 2269 O 214.081 0.897757 7.98871 0
M  V30 2270 H 213.813 -0.255188 0.625983 0
M  V30 2271 H 216.367 -0.135653 2.04952 0
M  V30 2272 H 214.597 -2.53846 2.91718 0
M  V30 2273 H 216.286 -2.36533 3.29859 0
M  V30 2274 H 217.052 -0.412195 4.83245 0
M  V30 2275 H 212.931 -1.53777 4.34596 0
M  V30 2276 H 216.475 0.744375 6.93617 0
M  V30 2277 H 212.372 -0.387656 6.44335 0
M  V30 2278 H 213.14 0.800102 8.1458 0
M  V30 2279 N 215.803 -1.52179 -0.40978 0
M  V30 2280 C 217.049 -1.66453 -1.15851 0
M  V30 2281 C 217.382 -0.392972 -1.90182 0
M  V30 2282 O 216.657 0.608579 -1.84734 0
M  V30 2283 C 216.94 -2.88612 -2.15349 0
M  V30 2284 C 216.793 -4.25815 -1.44918 0
M  V30 2285 C 218.112 -3.06294 -3.16026 0
M  V30 2286 H 215.231 -0.60575 -0.419805 0
M  V30 2287 H 217.873 -1.84732 -0.444314 0
M  V30 2288 H 216.023 -2.73158 -2.76255 0
M  V30 2289 H 217.695 -4.52995 -0.871365 0
M  V30 2290 H 215.938 -4.27247 -0.751159 0
M  V30 2291 H 216.609 -5.07337 -2.17516 0
M  V30 2292 H 219.085 -3.20641 -2.65195 0
M  V30 2293 H 217.961 -3.93283 -3.8291 0
M  V30 2294 H 218.222 -2.19579 -3.83715 0
M  V30 2295 N 217.281 0.66697 -1.42791 0
M  V30 2296 C 218.509 1.45505 -1.47091 0
M  V30 2297 C 218.924 1.8861 -0.0845873 0
M  V30 2298 O 218.281 1.58632 0.90234 0
M  V30 2299 C 218.332 2.69906 -2.40485 0
M  V30 2300 O 218.053 2.28608 -3.73725 0
M  V30 2301 C 219.554 3.63396 -2.53886 0
M  V30 2302 H 216.774 0.447459 -0.500022 0
M  V30 2303 H 219.318 0.818866 -1.8739 0
M  V30 2304 H 217.473 3.29696 -2.03419 0
M  V30 2305 H 217.887 3.08997 -4.23817 0
M  V30 2306 H 219.361 4.47387 -3.2334 0
M  V30 2307 H 219.838 4.09824 -1.57927 0
M  V30 2308 H 220.444 3.09495 -2.91706 0
M  V30 2309 N 218.759 1.29093 0.90403 0
M  V30 2310 C 220.005 1.17996 1.65676 0
M  V30 2311 C 220.36 -0.266816 1.90541 0
M  V30 2312 O 219.653 -1.19 1.50165 0
M  V30 2313 C 219.847 1.92224 3.01305 0
M  V30 2314 C 219.676 3.43972 2.89678 0
M  V30 2315 C 218.446 4.1332 2.90679 0
M  V30 2316 C 220.644 4.39546 2.67028 0
M  V30 2317 N 218.626 5.51463 2.69743 0
M  V30 2318 C 219.997 5.65119 2.5503 0
M  V30 2319 C 222.052 4.29359 2.52101 0
M  V30 2320 C 220.755 6.81663 2.29626 0
M  V30 2321 C 222.781 5.4565 2.28079 0
M  V30 2322 C 222.143 6.70193 2.16843 0
M  V30 2323 H 218.242 0.486759 0.612037 0
M  V30 2324 H 220.826 1.62868 1.06688 0
M  V30 2325 H 218.997 1.49773 3.58361 0
M  V30 2326 H 220.729 1.73429 3.65656 0
M  V30 2327 H 217.484 3.64984 3.01801 0
M  V30 2328 H 217.908 6.24105 2.6234 0
M  V30 2329 H 222.55 3.33769 2.59534 0
M  V30 2330 H 220.268 7.77313 2.20932 0
M  V30 2331 H 223.854 5.39664 2.1738 0
M  V30 2332 H 222.734 7.58659 1.98511 0
M  V30 2333 N 220.237 -1.11381 1.11499 0
M  V30 2334 C 221.184 -2.17439 0.773887 0
M  V30 2335 C 222.154 -1.64132 -0.254899 0
M  V30 2336 O 223.339 -1.90345 -0.13168 0
M  V30 2337 C 220.479 -3.44373 0.223917 0
M  V30 2338 C 219.592 -4.1168 1.30934 0
M  V30 2339 C 218.727 -5.263 0.71984 0
M  V30 2340 C 217.766 -5.85493 1.78507 0
M  V30 2341 N 216.903 -6.91507 1.21502 0
M  V30 2342 H 221.743 -2.45962 1.68246 0
M  V30 2343 H 219.28 -1.20744 0.840191 0
M  V30 2344 H 221.238 -4.17047 -0.112921 0
M  V30 2345 H 219.868 -3.16232 -0.647851 0
M  V30 2346 H 218.92 -3.37073 1.76312 0
M  V30 2347 H 220.232 -4.51729 2.11524 0
M  V30 2348 H 219.386 -6.05785 0.333094 0
M  V30 2349 H 218.125 -4.87559 -0.117377 0
M  V30 2350 H 217.13 -5.04686 2.18111 0
M  V30 2351 H 218.355 -6.26301 2.62533 0
M  V30 2352 H 216.301 -6.54783 0.399455 0
M  V30 2353 H 216.218 -7.30214 1.95763 0
M  V30 2354 H 217.486 -7.74795 0.855181 0
M  V30 2355 N 221.715 -0.905404 -1.28997 0
M  V30 2356 C 222.645 -0.404212 -2.29975 0
M  V30 2357 C 223.626 0.523784 -1.61835 0
M  V30 2358 O 224.811 0.433298 -1.89304 0
M  V30 2359 C 221.941 0.364042 -3.45387 0
M  V30 2360 C 220.895 -0.474048 -4.25367 0
M  V30 2361 C 220.221 0.422045 -5.33032 0
M  V30 2362 C 221.521 -1.72696 -4.92923 0
M  V30 2363 H 223.215 -1.24807 -2.72146 0
M  V30 2364 H 220.761 -0.601585 -1.30832 0
M  V30 2365 H 222.714 0.725447 -4.15109 0
M  V30 2366 H 221.438 1.24174 -3.02074 0
M  V30 2367 H 220.097 -0.81786 -3.57361 0
M  V30 2368 H 219.745 1.29804 -4.85963 0
M  V30 2369 H 219.445 -0.135057 -5.87445 0
M  V30 2370 H 220.969 0.779517 -6.05604 0
M  V30 2371 H 222.383 -1.43495 -5.55051 0
M  V30 2372 H 220.78 -2.22582 -5.57295 0
M  V30 2373 H 221.85 -2.45964 -4.17887 0
M  V30 2374 N 223.193 1.4272 -0.668489 0
M  V30 2375 C 224.418 2.06484 -0.194758 0
M  V30 2376 C 224.843 1.49862 1.13679 0
M  V30 2377 O 224.201 0.614582 1.70565 0
M  V30 2378 C 224.249 3.60353 -0.133546 0
M  V30 2379 O 223.353 4.02464 0.899806 0
M  V30 2380 H 222.694 0.656137 -0.10188 0
M  V30 2381 H 225.224 1.82964 -0.915722 0
M  V30 2382 H 225.234 4.07976 0.0447041 0
M  V30 2383 H 223.909 4.00938 -1.1055 0
M  V30 2384 H 222.486 3.66402 0.693109 0
M  V30 2385 N 224.671 0.411399 1.52136 0
M  V30 2386 C 225.919 -0.163322 2.01439 0
M  V30 2387 C 226.24 -1.45453 1.29879 0
M  V30 2388 O 225.51 -1.91225 0.4254 0
M  V30 2389 H 224.09 -0.0633447 0.744309 0
M  V30 2390 H 226.752 0.548161 1.87033 0
M  V30 2391 H 225.848 -0.357817 3.10042 0
M  V30 2392 N 226.149 -1.5696 0.141893 0
M  V30 2393 C 227.079 -2.19516 -0.795936 0
M  V30 2394 C 228.06 -1.14187 -1.26077 0
M  V30 2395 O 229.245 -1.42511 -1.31925 0
M  V30 2396 C 226.375 -2.81272 -2.03723 0
M  V30 2397 C 225.329 -3.92384 -1.70936 0
M  V30 2398 C 224.655 -4.41052 -3.02287 0
M  V30 2399 C 225.955 -5.13403 -0.959954 0
M  V30 2400 H 227.649 -2.98138 -0.274596 0
M  V30 2401 H 225.195 -1.43406 -0.130636 0
M  V30 2402 H 227.148 -3.237 -2.69808 0
M  V30 2403 H 225.872 -1.99973 -2.58221 0
M  V30 2404 H 224.531 -3.50566 -1.07232 0
M  V30 2405 H 224.179 -3.56582 -3.54765 0
M  V30 2406 H 223.879 -5.15993 -2.81114 0
M  V30 2407 H 225.403 -4.86146 -3.69451 0
M  V30 2408 H 226.817 -5.52706 -1.52279 0
M  V30 2409 H 225.214 -5.94073 -0.848357 0
M  V30 2410 H 226.284 -4.84875 0.0492434 0
M  V30 2411 N 227.627 0.131896 -1.57047 0
M  V30 2412 C 229.038 0.690407 -1.73465 0
M  V30 2413 C 229.389 1.8094 -0.758629 0
M  V30 2414 O 228.514 2.16282 0.0713813 0
M  V30 2415 C 229.109 1.25916 -3.14532 0
M  V30 2416 C 227.668 1.76409 -3.32501 0
M  V30 2417 C 226.815 0.658579 -2.69366 0
M  V30 2418 H 229.766 -0.0939144 -1.58422 0
M  V30 2419 H 229.787 2.12892 -3.15369 0
M  V30 2420 H 229.299 0.444515 -3.85546 0
M  V30 2421 H 227.4 2.60391 -2.66509 0
M  V30 2422 H 227.513 1.88241 -4.4057 0
M  V30 2423 H 225.877 1.08899 -2.30246 0
M  V30 2424 H 226.66 -0.14487 -3.42994 0
M  V30 2425 N 229.106 1.52395 0.401703 0
M  V30 2426 C 230.053 1.76268 1.48991 0
M  V30 2427 C 231.023 0.605386 1.54675 0
M  V30 2428 O 232.208 0.843742 1.7113 0
M  V30 2429 C 229.348 1.92592 2.86361 0
M  V30 2430 C 228.461 3.20259 2.89928 0
M  V30 2431 C 227.596 3.26972 4.18644 0
M  V30 2432 C 226.635 4.48812 4.16214 0
M  V30 2433 N 225.772 4.52877 5.36514 0
M  V30 2434 H 230.612 2.6914 1.27935 0
M  V30 2435 H 228.149 1.33355 0.620871 0
M  V30 2436 H 230.107 2.0004 3.66115 0
M  V30 2437 H 228.737 1.03093 3.05895 0
M  V30 2438 H 227.789 3.21945 2.02621 0
M  V30 2439 H 229.101 4.10056 2.83999 0
M  V30 2440 H 228.255 3.33533 5.06794 0
M  V30 2441 H 226.994 2.35126 4.27278 0
M  V30 2442 H 225.999 4.4239 3.26453 0
M  V30 2443 H 227.224 5.41961 4.09213 0
M  V30 2444 H 225.17 3.63917 5.45802 0
M  V30 2445 H 225.087 5.36529 5.32609 0
M  V30 2446 H 226.355 4.63676 6.26597 0
M  V30 2447 N 230.584 -0.659388 1.43143 0
M  V30 2448 C 231.534 -1.7655 1.44271 0
M  V30 2449 C 232.518 -1.57847 0.311961 0
M  V30 2450 O 233.71 -1.68064 0.555306 0
M  V30 2451 C 230.839 -3.15104 1.36251 0
M  V30 2452 C 229.925 -3.39377 2.54331 0
M  V30 2453 N 230.316 -3.34153 3.79704 0
M  V30 2454 C 228.614 -3.70072 2.48922 0
M  V30 2455 C 229.315 -3.58337 4.58225 0
M  V30 2456 N 228.291 -3.79851 3.88863 0
M  V30 2457 H 232.093 -1.70928 2.39083 0
M  V30 2458 H 229.607 -0.860823 1.37708 0
M  V30 2459 H 231.604 -3.94389 1.35141 0
M  V30 2460 H 230.264 -3.21913 0.424531 0
M  V30 2461 H 231.275 -3.13704 4.1208 0
M  V30 2462 H 227.952 -3.84034 1.63781 0
M  V30 2463 H 229.342 -3.60129 5.67236 0
M  V30 2464 N 232.062 -1.29571 -0.897171 0
M  V30 2465 C 233.478 -1.07637 -1.17841 0
M  V30 2466 C 233.678 0.170713 -2.00776 0
M  V30 2467 O 232.734 0.867768 -2.3712 0
M  V30 2468 C 234.047 -2.3332 -1.8969 0
M  V30 2469 C 235.595 -2.38664 -2.02505 0
M  V30 2470 C 236.07 -3.64157 -2.77765 0
M  V30 2471 N 237.561 -3.64894 -2.85318 0
M  V30 2472 C 238.296 -4.58679 -3.44094 0
M  V30 2473 N 237.792 -5.62799 -4.04017 0
M  V30 2474 N 239.585 -4.46245 -3.41793 0
M  V30 2475 H 231.736 -2.09598 -0.343883 0
M  V30 2476 H 233.999 -0.923333 -0.214848 0
M  V30 2477 H 233.705 -3.24262 -1.36187 0
M  V30 2478 H 233.579 -2.41025 -2.9015 0
M  V30 2479 H 235.966 -1.48208 -2.55183 0
M  V30 2480 H 236.047 -2.34943 -1.01171 0
M  V30 2481 H 235.691 -4.54965 -2.25763 0
M  V30 2482 H 235.621 -3.65137 -3.7945 0
M  V30 2483 H 238.112 -2.89613 -2.42761 0
M  V30 2484 H 238.425 -6.3048 -4.46895 0
M  V30 2485 H 236.77 -5.66605 -4.02472 0
M  V30 2486 H 239.961 -3.64094 -2.94199 0
M  V30 2487 H 240.134 -5.19518 -3.87304 0
M  V30 2488 N 233.54 1.10788 -1.12088 0
M  V30 2489 C 234.786 1.82942 -0.875226 0
M  V30 2490 C 235.119 1.84779 0.597538 0
M  V30 2491 O 234.394 1.30578 1.44152 0
M  V30 2492 C 234.677 3.29789 -1.44606 0
M  V30 2493 C 234.53 3.36307 -2.98693 0
M  V30 2494 C 235.849 4.26064 -1.10261 0
M  V30 2495 H 232.968 0.664195 -0.319397 0
M  V30 2496 H 235.61 1.29867 -1.38689 0
M  V30 2497 H 233.76 3.75118 -1.01089 0
M  V30 2498 H 235.432 2.99487 -3.50864 0
M  V30 2499 H 233.675 2.76318 -3.34411 0
M  V30 2500 H 234.346 4.39694 -3.33726 0
M  V30 2501 H 236.822 3.88951 -1.4784 0
M  V30 2502 H 235.698 5.27183 -1.52869 0
M  V30 2503 H 235.959 4.42098 -0.0142953 0
M  V30 2504 N 235.018 0.912232 1.28515 0
M  V30 2505 C 236.267 0.540504 1.94323 0
M  V30 2506 C 236.58 -0.920044 1.72611 0
M  V30 2507 O 237.786 -1.39986 2.32629 0
M  V30 2508 C 236.242 0.915803 3.48053 0
M  V30 2509 C 235.85 2.39598 3.78546 0
M  V30 2510 C 237.594 0.614588 4.20027 0
M  V30 2511 C 235.501 2.71148 5.25578 0
M  V30 2512 H 234.431 0.198418 0.727424 0
M  V30 2513 H 237.082 1.11094 1.46049 0
M  V30 2514 H 235.464 0.274168 3.9505 0
M  V30 2515 H 236.638 3.08422 3.42364 0
M  V30 2516 H 234.953 2.66749 3.1974 0
M  V30 2517 H 237.55 0.827002 5.28266 0
M  V30 2518 H 237.893 -0.447531 4.13887 0
M  V30 2519 H 238.426 1.21462 3.78803 0
M  V30 2520 H 235.165 3.76207 5.36794 0
M  V30 2521 H 234.685 2.0696 5.62963 0
M  V30 2522 H 236.364 2.58072 5.93302 0
M  V30 2523 N 236.496 -1.42363 0.676048 0
M  V30 2524 C 237.744 -2.01123 0.198437 0
M  V30 2525 C 238.065 -1.53731 -1.19966 0
M  V30 2526 O 237.335 -0.759518 -1.80577 0
M  V30 2527 H 235.915 -0.743678 0.0703721 0
M  V30 2528 H 238.577 -1.74263 0.872837 0
M  V30 2529 H 237.673 -3.11454 0.200686 0
M  V30 2530 N 237.974 -0.419461 -1.51915 0
M  V30 2531 C 239.199 0.154572 -2.06823 0
M  V30 2532 C 239.624 1.3722 -1.28656 0
M  V30 2533 O 238.982 1.78461 -0.319583 0
M  V30 2534 C 239.03 0.473172 -3.57482 0
M  V30 2535 O 238.134 1.56255 -3.81652 0
M  V30 2536 H 237.475 0.0096924 -0.663929 0
M  V30 2537 H 240.005 -0.595642 -1.95738 0
M  V30 2538 H 240.015 0.728825 -4.01438 0
M  V30 2539 H 238.69 -0.416873 -4.13805 0
M  V30 2540 H 237.267 1.29825 -3.49571 0
M  V30 2541 N 239.452 1.56882 -0.150215 0
M  V30 2542 C 240.7 1.9584 0.499105 0
M  V30 2543 C 241.021 1.03623 1.65188 0
M  V30 2544 O 240.291 0.0984084 1.95653 0
M  V30 2545 H 238.871 0.723119 0.187373 0
M  V30 2546 H 241.533 1.9358 -0.226466 0
M  V30 2547 H 240.629 2.99638 0.873122 0
M  V30 2548 N 240.93 -0.123565 1.57115 0
M  V30 2549 C 242.17 -0.838097 1.86428 0
M  V30 2550 C 242.534 -1.77266 0.737611 0
M  V30 2551 O 243.735 -2.52842 0.912389 0
M  V30 2552 C 242.006 -1.57219 3.20962 0
M  V30 2553 S 243.565 -2.32893 3.71896 0
M  V30 2554 H 240.383 -0.279811 0.653626 0
M  V30 2555 H 242.985 -0.0967034 1.95261 0
M  V30 2556 H 241.689 -0.877522 4.00909 0
M  V30 2557 H 241.22 -2.35405 3.15195 0
M  V30 2558 H 243.235 -3.5853 3.43032 0
M  V30 2559 N 242.408 -1.52605 -0.393616 0
M  V30 2560 C 243.356 -1.77688 -1.50099 0
M  V30 2561 C 244.35 -0.644615 -1.56656 0
M  V30 2562 O 245.556 -0.826997 -1.59877 0
M  V30 2563 H 241.931 -0.562159 -0.499481 0
M  V30 2564 H 243.902 -2.7043 -1.26135 0
M  V30 2565 C 242.651 -1.95858 -2.87289 0
M  V30 2566 H 241.974 -2.8241 -2.82992 0
M  V30 2567 H 243.414 -2.174 -3.64024 0
M  V30 2568 C 241.873 -0.729848 -3.28899 0
M  V30 2569 O 242.403 0.0949217 -4.01588 0
M  V30 2570 N 240.609 -0.561283 -2.85128 0
M  V30 2571 H 240.156 -1.23357 -2.26143 0
M  V30 2572 H 240.114 0.2595 -3.13327 0
M  V30 2573 N 243.887 0.651787 -1.4349 0
M  V30 2574 C 244.817 1.77621 -1.51569 0
M  V30 2575 C 245.798 1.66022 -0.370253 0
M  V30 2576 O 246.983 1.85095 -0.587658 0
M  V30 2577 C 244.113 3.16056 -1.43966 0
M  V30 2578 C 243.067 3.4242 -2.56774 0
M  V30 2579 C 242.393 4.8067 -2.34223 0
M  V30 2580 C 243.693 3.37023 -3.99015 0
M  V30 2581 H 245.387 1.71117 -2.45681 0
M  V30 2582 H 242.933 0.821825 -1.18246 0
M  V30 2583 H 244.886 3.94472 -1.48221 0
M  V30 2584 H 243.61 3.23293 -0.463586 0
M  V30 2585 H 242.269 2.66375 -2.51873 0
M  V30 2586 H 241.917 4.84585 -1.34856 0
M  V30 2587 H 241.617 4.9927 -3.09844 0
M  V30 2588 H 243.141 5.61342 -2.40265 0
M  V30 2589 H 244.555 4.05374 -4.05395 0
M  V30 2590 H 242.952 3.67159 -4.74673 0
M  V30 2591 H 244.022 2.3518 -4.2405 0
M  V30 2592 N 245.365 1.30045 0.890287 0
M  V30 2593 C 246.642 1.09227 1.62262 0
M  V30 2594 C 247.022 -0.360305 2.08002 0
M  V30 2595 O 246.37 -1.35084 1.84295 0
M  V30 2596 C 246.58 2.08835 2.79623 0
M  V30 2597 C 247.928 2.40266 3.50082 0
M  V30 2598 O 248.952 2.07104 2.89804 0
M  V30 2599 O 247.811 2.96967 4.58773 0
M  V30 2600 H 244.905 0.419132 0.712922 0
M  V30 2601 H 247.451 1.41451 0.937529 0
M  V30 2602 H 246.223 3.06633 2.43089 0
M  V30 2603 H 245.846 1.77397 3.55832 0
M  V30 2604 N 246.843 -1.10192 1.12674 0
M  V30 2605 C 248.068 -1.86523 0.906853 0
M  V30 2606 C 248.493 -1.80221 -0.538711 0
M  V30 2607 O 247.851 -1.17396 -1.38158 0
M  V30 2608 C 247.899 -3.32758 1.3894 0
M  V30 2609 O 247.003 -4.08449 0.5695 0
M  V30 2610 H 246.344 -0.578678 0.325619 0
M  V30 2611 H 248.874 -1.39203 1.49946 0
M  V30 2612 H 248.884 -3.83608 1.38958 0
M  V30 2613 H 247.559 -3.36661 2.44197 0
M  V30 2614 H 246.136 -3.67427 0.636528 0
M  V30 2615 N 248.321 -0.919034 -1.28029 0
M  V30 2616 C 249.284 -0.416182 -2.2539 0
M  V30 2617 C 250.284 0.460438 -1.54067 0
M  V30 2618 O 251.474 0.262744 -1.72207 0
M  V30 2619 C 248.606 0.402707 -3.38513 0
M  V30 2620 H 249.799 -1.27629 -2.71387 0
M  V30 2621 H 247.352 -0.698919 -1.39803 0
M  V30 2622 H 248.087 1.282 -2.97885 0
M  V30 2623 H 247.872 -0.225698 -3.9145 0
M  V30 2624 H 249.362 0.745191 -4.10897 0
M  V30 2625 N 249.799 1.42003 -0.683588 0
M  V30 2626 C 251.215 1.55625 -0.353976 0
M  V30 2627 C 251.415 1.66151 1.14 0
M  V30 2628 O 250.471 1.63329 1.92561 0
M  V30 2629 C 251.784 2.80171 -1.092 0
M  V30 2630 C 253.332 2.93954 -1.07518 0
M  V30 2631 C 253.807 4.21372 -1.79471 0
M  V30 2632 N 255.298 4.28303 -1.76381 0
M  V30 2633 C 256.033 5.25729 -2.28904 0
M  V30 2634 N 255.529 6.29254 -2.89846 0
M  V30 2635 N 257.322 5.17586 -2.19228 0
M  V30 2636 H 249.473 1.33415 -1.6527 0
M  V30 2637 H 251.736 0.64282 -0.696769 0
M  V30 2638 H 251.442 2.78561 -2.14701 0
M  V30 2639 H 251.316 3.7133 -0.662862 0
M  V30 2640 H 253.703 2.95086 -0.028475 0
M  V30 2641 H 253.784 2.04002 -1.54328 0
M  V30 2642 H 253.428 4.21001 -2.84114 0
M  V30 2643 H 253.358 5.10275 -1.30104 0
M  V30 2644 H 255.849 3.54119 -1.31939 0
M  V30 2645 H 256.162 6.99964 -3.27522 0
M  V30 2646 H 254.507 6.29791 -2.93919 0
M  V30 2647 H 257.698 4.35631 -1.71299 0
M  V30 2648 H 257.871 5.93348 -2.60466 0
M  V30 2649 N 251.277 0.427512 1.51691 0
M  V30 2650 C 252.524 -0.142229 2.02 0
M  V30 2651 C 252.852 -1.43566 1.31221 0
M  V30 2652 O 252.107 -1.91298 0.412744 0
M  V30 2653 C 252.406 -0.418249 3.54944 0
M  V30 2654 C 252.072 0.788187 4.43958 0
M  V30 2655 C 250.734 1.11906 4.68007 0
M  V30 2656 C 253.086 1.59347 4.96244 0
M  V30 2657 C 250.414 2.25608 5.41588 0
M  V30 2658 C 252.766 2.7214 5.71072 0
M  V30 2659 C 251.43 3.05692 5.93387 0
M  V30 2660 H 250.7 -0.0520451 0.73917 0
M  V30 2661 H 253.347 0.572697 1.82736 0
M  V30 2662 H 251.652 -1.21496 3.72486 0
M  V30 2663 H 253.349 -0.872339 3.91397 0
M  V30 2664 H 249.939 0.520344 4.2543 0
M  V30 2665 H 254.123 1.35106 4.77556 0
M  V30 2666 H 249.379 2.51929 5.57083 0
M  V30 2667 H 253.553 3.34914 6.10578 0
M  V30 2668 H 251.18 3.9391 6.50184 0
M  V30 2669 N 252.755 -1.56801 0.158532 0
M  V30 2670 C 254.171 -1.5837 -0.197774 0
M  V30 2671 C 254.371 -1.17334 -1.63814 0
M  V30 2672 O 253.427 -0.878988 -2.36707 0
M  V30 2673 C 254.74 -3.00615 0.0714459 0
M  V30 2674 C 256.288 -3.12999 0.00864533 0
M  V30 2675 C 256.763 -4.57313 0.250685 0
M  V30 2676 N 258.254 -4.62777 0.198014 0
M  V30 2677 C 258.989 -5.72271 0.359642 0
M  V30 2678 N 258.485 -6.90371 0.579625 0
M  V30 2679 N 260.278 -5.61318 0.296438 0
M  V30 2680 H 252.429 -1.81765 1.09887 0
M  V30 2681 H 254.692 -0.841849 0.435884 0
M  V30 2682 H 254.398 -3.35068 1.06874 0
M  V30 2683 H 254.272 -3.71683 -0.642757 0
M  V30 2684 H 256.659 -2.7838 -0.979217 0
M  V30 2685 H 256.74 -2.44393 0.755359 0
M  V30 2686 H 256.384 -4.92639 1.2357 0
M  V30 2687 H 256.314 -5.24061 -0.516489 0
M  V30 2688 H 258.805 -3.77885 0.0331115 0
M  V30 2689 H 259.118 -7.69689 0.69275 0
M  V30 2690 H 257.463 -6.92264 0.616087 0
M  V30 2691 H 260.654 -4.67932 0.125258 0
M  V30 2692 H 260.827 -6.46599 0.425831 0
M  V30 2693 N 254.233 0.115231 -1.57178 0
M  V30 2694 C 255.463 0.835224 -1.88964 0
M  V30 2695 C 255.871 1.73774 -0.74829 0
M  V30 2696 O 255.214 1.81401 0.289739 0
M  V30 2697 C 255.276 1.7178 -3.15804 0
M  V30 2698 C 254.94 0.989198 -4.46166 0
M  V30 2699 C 255.937 0.328263 -5.18863 0
M  V30 2700 C 253.622 0.969256 -4.9286 0
M  V30 2701 C 255.616 -0.342873 -6.36477 0
M  V30 2702 C 253.303 0.294324 -6.10391 0
M  V30 2703 C 254.301 -0.360582 -6.82048 0
M  V30 2704 O 253.989 -1.02474 -7.97342 0
M  V30 2705 H 253.721 0.245197 -0.629964 0
M  V30 2706 H 256.275 0.10303 -2.05141 0
M  V30 2707 H 254.505 2.49173 -2.95719 0
M  V30 2708 H 256.194 2.31255 -3.33581 0
M  V30 2709 H 256.96 0.335263 -4.8384 0
M  V30 2710 H 252.839 1.46844 -4.36987 0
M  V30 2711 H 256.383 -0.854629 -6.92345 0
M  V30 2712 H 252.28 0.285099 -6.4487 0
M  V30 2713 H 253.048 -0.929594 -8.13204 0
M  V30 2714 N 255.711 1.52812 0.385517 0
M  V30 2715 C 256.641 1.80808 1.47752 0
M  V30 2716 C 257.622 0.660318 1.5676 0
M  V30 2717 O 258.807 0.908246 1.71652 0
M  V30 2718 C 255.937 1.98008 2.85324 0
M  V30 2719 C 254.891 3.13709 2.91154 0
M  V30 2720 C 254.217 3.16169 4.31209 0
M  V30 2721 C 255.517 4.52709 2.60483 0
M  V30 2722 H 257.211 2.72253 1.24573 0
M  V30 2723 H 254.757 1.31003 0.597839 0
M  V30 2724 H 256.71 2.16176 3.61726 0
M  V30 2725 H 255.434 1.03255 3.09848 0
M  V30 2726 H 254.093 2.95329 2.17201 0
M  V30 2727 H 253.741 2.19092 4.52778 0
M  V30 2728 H 253.441 3.93894 4.36029 0
M  V30 2729 H 254.965 3.36496 5.09512 0
M  V30 2730 H 256.379 4.71173 3.26602 0
M  V30 2731 H 254.776 5.32528 2.76648 0
M  V30 2732 H 255.846 4.59186 1.55809 0
M  V30 2733 N 257.189 -0.644168 1.43834 0
M  V30 2734 C 258.122 -1.76906 1.44151 0
M  V30 2735 C 259.1 -1.59774 0.301857 0
M  V30 2736 O 260.284 -1.81834 0.496841 0
M  V30 2737 C 257.411 -3.14321 1.26174 0
M  V30 2738 C 256.457 -3.50134 2.43533 0
M  V30 2739 S 257.29 -3.49085 4.06079 0
M  V30 2740 C 258.446 -4.89142 3.90501 0
M  V30 2741 H 258.679 -1.76368 2.39336 0
M  V30 2742 H 256.212 -0.817624 1.30974 0
M  V30 2743 H 258.17 -3.93625 1.16489 0
M  V30 2744 H 256.831 -3.12412 0.325224 0
M  V30 2745 H 256.024 -4.50095 2.26783 0
M  V30 2746 H 255.626 -2.78264 2.4989 0
M  V30 2747 H 257.918 -5.78036 3.53385 0
M  V30 2748 H 258.861 -5.10945 4.90246 0
M  V30 2749 H 259.269 -4.63102 3.22795 0
M  V30 2750 N 258.668 -1.30515 -0.883378 0
M  V30 2751 C 259.631 -1.1701 -1.97082 0
M  V30 2752 C 260.631 -0.10089 -1.60483 0
M  V30 2753 O 261.821 -0.349127 -1.70666 0
M  V30 2754 C 258.953 -0.793045 -3.31547 0
M  V30 2755 H 260.146 -2.13622 -2.10489 0
M  V30 2756 H 257.699 -1.13935 -1.06998 0
M  V30 2757 H 258.434 0.172499 -3.23841 0
M  V30 2758 H 258.219 -1.56576 -3.5948 0
M  V30 2759 H 259.709 -0.722073 -4.1131 0
M  V30 2760 N 260.146 1.09593 -1.13257 0
M  V30 2761 C 261.056 2.19739 -0.821691 0
M  V30 2762 C 262.072 1.72926 0.19302 0
M  V30 2763 O 263.248 2.01385 0.0244895 0
M  V30 2764 C 260.313 3.45482 -0.290333 0
M  V30 2765 C 259.374 4.06985 -1.36607 0
M  V30 2766 C 258.607 5.26726 -0.859975 0
M  V30 2767 O 258.83 5.69594 0.303082 0
M  V30 2768 O 257.764 5.7931 -1.63351 0
M  V30 2769 H 261.59 2.48781 -1.74189 0
M  V30 2770 H 259.175 1.18496 -0.909894 0
M  V30 2771 H 261.057 4.214 0.000674022 0
M  V30 2772 H 259.732 3.18047 0.602306 0
M  V30 2773 H 258.639 3.32712 -1.71037 0
M  V30 2774 H 259.972 4.38643 -2.23279 0
M  V30 2775 N 261.624 0.925811 1.2754 0
M  V30 2776 C 262.571 0.422045 2.26908 0
M  V30 2777 C 263.541 -0.510029 1.58076 0
M  V30 2778 O 264.726 -0.429599 1.85901 0
M  V30 2779 C 261.866 -0.320837 3.43605 0
M  V30 2780 C 260.979 0.64513 4.27156 0
M  V30 2781 C 260.114 -0.117405 5.3107 0
M  V30 2782 C 259.153 0.841391 6.0629 0
M  V30 2783 N 258.29 0.111604 7.02011 0
M  V30 2784 H 263.13 1.27441 2.69375 0
M  V30 2785 H 260.667 0.639697 1.32462 0
M  V30 2786 H 262.625 -0.76785 4.10073 0
M  V30 2787 H 261.255 -1.13745 3.02096 0
M  V30 2788 H 260.307 1.21067 3.6062 0
M  V30 2789 H 261.619 1.37797 4.79389 0
M  V30 2790 H 260.773 -0.624422 6.03478 0
M  V30 2791 H 259.512 -0.883219 4.79636 0
M  V30 2792 H 258.517 1.35967 5.32722 0
M  V30 2793 H 259.742 1.60696 6.59813 0
M  V30 2794 H 257.688 -0.635999 6.5291 0
M  V30 2795 H 257.605 0.784044 7.51923 0
M  V30 2796 H 258.873 -0.374823 7.78598 0
M  V30 2797 N 263.102 -1.41638 0.69111 0
M  V30 2798 C 264.032 -2.3347 0.037248 0
M  V30 2799 C 265.013 -1.51575 -0.771947 0
M  V30 2800 O 266.198 -1.80126 -0.72582 0
M  V30 2801 C 263.328 -3.35354 -0.903064 0
M  V30 2802 C 262.282 -4.27526 -0.201288 0
M  V30 2803 C 261.608 -5.19747 -1.25565 0
M  V30 2804 C 262.908 -5.13959 0.929689 0
M  V30 2805 H 264.602 -2.88397 0.804227 0
M  V30 2806 H 262.148 -1.38669 0.388189 0
M  V30 2807 H 264.101 -3.98519 -1.36969 0
M  V30 2808 H 262.825 -2.78767 -1.70166 0
M  V30 2809 H 261.484 -3.65779 0.245265 0
M  V30 2810 H 261.132 -4.59479 -2.04666 0
M  V30 2811 H 260.832 -5.8225 -0.791128 0
M  V30 2812 H 262.356 -5.85789 -1.72288 0
M  V30 2813 H 263.77 -5.70718 0.543546 0
M  V30 2814 H 262.167 -5.85379 1.32103 0
M  V30 2815 H 263.237 -4.51389 1.77133 0
M  V30 2816 N 264.58 -0.43555 -1.51462 0
M  V30 2817 C 265.828 0.131254 -2.01673 0
M  V30 2818 C 266.149 1.43368 -1.32177 0
M  V30 2819 O 265.419 1.90524 -0.455769 0
M  V30 2820 H 263.999 0.0514954 -0.745223 0
M  V30 2821 H 266.661 -0.577847 -1.86137 0
M  V30 2822 H 265.757 0.308446 -3.10572 0
M  V30 2823 N 266.058 1.56714 -0.166846 0
M  V30 2824 C 267.307 1.95922 0.479318 0
M  V30 2825 C 267.62 1.05529 1.6469 0
M  V30 2826 O 268.826 1.34399 2.35901 0
M  V30 2827 C 267.282 3.48359 0.90412 0
M  V30 2828 C 266.89 4.47369 -0.237621 0
M  V30 2829 C 268.634 3.96394 1.51896 0
M  V30 2830 C 266.541 5.91039 0.206561 0
M  V30 2831 H 265.471 0.731495 0.18284 0
M  V30 2832 H 268.122 1.81728 -0.254363 0
M  V30 2833 H 266.504 3.57955 1.69365 0
M  V30 2834 H 267.678 4.49485 -1.01489 0
M  V30 2835 H 265.993 4.09366 -0.762128 0
M  V30 2836 H 268.59 5.01186 1.86325 0
M  V30 2837 H 268.933 3.39075 2.41524 0
M  V30 2838 H 269.466 3.89796 0.79395 0
M  V30 2839 H 266.205 6.52221 -0.654834 0
M  V30 2840 H 265.725 5.9224 0.949282 0
M  V30 2841 H 267.404 6.43707 0.651939 0
M  V30 2842 N 267.536 -0.106894 1.57237 0
M  V30 2843 C 268.486 -1.1366 1.9765 0
M  V30 2844 C 269.47 -1.36416 0.853203 0
M  V30 2845 O 270.662 -1.37305 1.11697 0
M  V30 2846 C 267.791 -2.46 2.39455 0
M  V30 2847 C 266.877 -2.26668 3.58445 0
M  V30 2848 N 267.268 -1.77176 4.73754 0
M  V30 2849 C 265.566 -2.57279 3.64312 0
M  V30 2850 C 266.267 -1.71836 5.5574 0
M  V30 2851 N 265.243 -2.16623 4.98573 0
M  V30 2852 H 269.045 -0.74669 2.84256 0
M  V30 2853 H 266.559 -0.314483 1.59326 0
M  V30 2854 H 268.556 -3.2049 2.6663 0
M  V30 2855 H 267.216 -2.85738 1.54219 0
M  V30 2856 H 268.227 -1.46545 4.96734 0
M  V30 2857 H 264.904 -3.00622 2.89711 0
M  V30 2858 H 266.294 -1.34723 6.58255 0
M  V30 2859 N 269.014 -1.53014 -0.377408 0
M  V30 2860 C 270.425 -1.60438 -0.954798 0
M  V30 2861 C 270.776 -0.464418 -1.90624 0
M  V30 2862 O 269.901 0.41087 -2.12464 0
M  V30 2863 C 270.496 -2.90797 -1.73847 0
M  V30 2864 C 269.055 -3.00595 -2.26538 0
M  V30 2865 C 268.202 -2.55645 -1.07429 0
M  V30 2866 H 271.153 -1.57926 -0.156575 0
M  V30 2867 H 271.174 -2.77935 -2.5987 0
M  V30 2868 H 270.686 -3.73746 -1.04574 0
M  V30 2869 H 268.787 -2.22208 -2.99089 0
M  V30 2870 H 268.9 -4.05456 -2.5523 0
M  V30 2871 H 267.264 -2.10239 -1.43777 0
M  V30 2872 H 268.047 -3.41 -0.396728 0
M  V30 2873 N 270.492 0.636531 -1.44174 0
M  V30 2874 C 271.717 1.42847 -1.50364 0
M  V30 2875 C 272.142 1.87665 -0.127867 0
M  V30 2876 O 271.5 1.58408 0.88185 0
M  V30 2877 C 271.548 2.62854 -2.4686 0
M  V30 2878 O 270.652 3.62501 -1.9664 0
M  V30 2879 H 269.993 0.427642 -0.507955 0
M  V30 2880 H 272.523 0.777422 -1.89255 0
M  V30 2881 H 272.533 3.10465 -2.64718 0
M  V30 2882 H 271.208 2.29578 -3.46795 0
M  V30 2883 H 269.785 3.21735 -1.88523 0
M  V30 2884 N 271.97 1.30982 0.876444 0
M  V30 2885 C 273.195 1.23373 1.66715 0
M  V30 2886 C 273.62 -0.19885 1.87046 0
M  V30 2887 O 272.978 -1.1427 1.40756 0
M  V30 2888 C 273.026 1.97644 3.01611 0
M  V30 2889 O 272.13 1.30935 3.91062 0
M  V30 2890 H 271.471 0.426279 0.509099 0
M  V30 2891 H 274.001 1.72944 1.09323 0
M  V30 2892 H 274.011 2.06992 3.51594 0
M  V30 2893 H 272.686 3.01829 2.86133 0
M  V30 2894 H 271.263 1.29996 3.49507 0
M  V30 2895 N 273.449 -1.08991 1.13837 0
M  V30 2896 C 274.689 -1.82867 0.913183 0
M  V30 2897 C 275.053 -1.83936 -0.550604 0
M  V30 2898 O 276.254 -2.53515 -0.893515 0
M  V30 2899 C 274.525 -3.24843 1.49036 0
M  V30 2900 S 276.084 -4.15669 1.40588 0
M  V30 2901 H 272.902 -0.630278 0.329046 0
M  V30 2902 H 275.504 -1.31049 1.45073 0
M  V30 2903 H 274.208 -3.21644 2.54899 0
M  V30 2904 H 273.739 -3.81734 0.950947 0
M  V30 2905 H 275.754 -4.94686 0.387353 0
M  V30 2906 N 274.927 -0.932562 -1.27047 0
M  V30 2907 C 275.877 -0.406392 -2.24349 0
M  V30 2908 C 276.861 0.492066 -1.53191 0
M  V30 2909 O 278.053 0.328717 -1.73921 0
M  V30 2910 C 275.182 0.335214 -3.41659 0
M  V30 2911 C 274.268 -0.58004 -4.20115 0
M  V30 2912 N 274.659 -1.70203 -4.76303 0
M  V30 2913 C 272.957 -0.383974 -4.44344 0
M  V30 2914 C 273.658 -2.27167 -5.35509 0
M  V30 2915 N 272.634 -1.56068 -5.20715 0
M  V30 2916 H 276.436 -1.26299 -2.65378 0
M  V30 2917 H 273.95 -0.787408 -1.42034 0
M  V30 2918 H 275.947 0.729142 -4.10474 0
M  V30 2919 H 274.607 1.18868 -3.0216 0
M  V30 2920 H 275.618 -2.08433 -4.74106 0
M  V30 2921 H 272.295 0.428436 -4.15296 0
M  V30 2922 H 273.685 -3.21654 -5.89905 0
M  V30 2923 N 276.405 1.4127 -0.698611 0
M  V30 2924 C 277.653 2.00782 -0.230409 0
M  V30 2925 C 277.974 1.5562 1.17505 0
M  V30 2926 O 277.244 0.78815 1.79346 0
M  V30 2927 H 275.824 0.742464 -0.0821944 0
M  V30 2928 H 278.486 1.72852 -0.90045 0
M  V30 2929 H 277.582 3.11095 -0.25021 0
M  V30 2930 N 277.883 0.443576 1.51229 0
M  V30 2931 C 279.129 -0.11321 2.03085 0
M  V30 2932 C 279.484 -1.39841 1.32145 0
M  V30 2933 O 278.777 -1.86723 0.429542 0
M  V30 2934 C 278.971 -0.380579 3.55368 0
M  V30 2935 C 278.8 0.877157 4.41062 0
M  V30 2936 C 277.57 1.4125 4.85156 0
M  V30 2937 C 279.768 1.76503 4.83064 0
M  V30 2938 N 277.75 2.62213 5.55083 0
M  V30 2939 C 279.121 2.82067 5.52122 0
M  V30 2940 C 281.176 1.7787 4.65045 0
M  V30 2941 C 279.879 3.88952 6.05069 0
M  V30 2942 C 281.905 2.83694 5.18914 0
M  V30 2943 C 281.267 3.87978 5.87922 0
M  V30 2944 H 277.366 -0.00210178 0.781997 0
M  V30 2945 H 279.95 0.605641 1.85041 0
M  V30 2946 H 278.121 -1.06847 3.73414 0
M  V30 2947 H 279.853 -0.929274 3.93887 0
M  V30 2948 H 276.608 0.965542 4.63653 0
M  V30 2949 H 277.032 3.23568 5.9467 0
M  V30 2950 H 281.674 0.985744 4.11148 0
M  V30 2951 H 279.392 4.69082 6.58018 0
M  V30 2952 H 282.978 2.85702 5.06819 0
M  V30 2953 H 281.858 4.68517 6.28857 0
M  V30 2954 N 279.361 -1.56624 0.175154 0
M  V30 2955 C 280.61 -1.96173 -0.468921 0
M  V30 2956 C 280.923 -1.06401 -1.64128 0
M  V30 2957 O 282.129 -1.35648 -2.35185 0
M  V30 2958 C 280.585 -3.48833 -0.885633 0
M  V30 2959 C 280.193 -4.47237 0.261343 0
M  V30 2960 C 281.937 -3.97194 -1.49791 0
M  V30 2961 C 279.844 -5.9114 -0.175214 0
M  V30 2962 H 278.774 -0.732455 -0.178958 0
M  V30 2963 H 281.425 -1.81591 0.263997 0
M  V30 2964 H 279.807 -3.58848 -1.67464 0
M  V30 2965 H 280.981 -4.4894 1.03871 0
M  V30 2966 H 279.296 -4.08956 0.783827 0
M  V30 2967 H 281.893 -5.02167 -1.83665 0
M  V30 2968 H 282.236 -3.40351 -2.39722 0
M  V30 2969 H 282.769 -3.90212 -0.773267 0
M  V30 2970 H 279.508 -6.51865 0.689414 0
M  V30 2971 H 279.028 -5.92735 -0.91786 0
M  V30 2972 H 280.707 -6.44044 -0.617792 0
M  V30 2973 N 280.839 0.0985539 -1.57292 0
M  V30 2974 C 281.769 1.12064 -2.04851 0
M  V30 2975 C 282.75 1.41981 -0.936767 0
M  V30 2976 O 283.935 1.52071 -1.20781 0
M  V30 2977 C 281.065 2.44144 -2.47004 0
M  V30 2978 C 280.019 2.28643 -3.6181 0
M  V30 2979 C 279.345 3.65869 -3.89929 0
M  V30 2980 C 280.645 1.72986 -4.92822 0
M  V30 2981 H 282.339 0.724979 -2.9049 0
M  V30 2982 H 279.885 0.34729 -1.39749 0
M  V30 2983 H 281.838 3.15914 -2.78884 0
M  V30 2984 H 280.562 2.85639 -1.5836 0
M  V30 2985 H 279.221 1.59318 -3.30172 0
M  V30 2986 H 278.869 4.04885 -2.98458 0
M  V30 2987 H 278.569 3.56344 -4.67218 0
M  V30 2988 H 280.093 4.39112 -4.2428 0
M  V30 2989 H 281.507 2.34593 -5.23105 0
M  V30 2990 H 279.904 1.74229 -5.74251 0
M  V30 2991 H 280.974 0.689007 -4.7998 0
M  V30 2992 N 282.317 1.53212 0.369288 0
M  V30 2993 C 283.565 1.68881 1.11012 0
M  V30 2994 C 283.886 0.441285 1.89941 0
M  V30 2995 O 283.156 -0.544623 1.88177 0
M  V30 2996 H 281.736 0.622569 0.412816 0
M  V30 2997 H 284.398 1.90391 0.416802 0
M  V30 2998 H 283.494 2.54822 1.80201 0
M  V30 2999 N 283.795 -0.628877 1.44509 0
M  V30 3000 C 284.705 -1.7694 1.54044 0
M  V30 3001 C 285.721 -1.68705 0.425987 0
M  V30 3002 O 286.897 -1.89442 0.683656 0
M  V30 3003 C 283.962 -3.13332 1.48405 0
M  V30 3004 C 283.023 -3.33181 2.70719 0
M  V30 3005 C 282.256 -4.63067 2.6534 0
M  V30 3006 O 282.479 -5.44017 1.71469 0
M  V30 3007 O 281.413 -4.85167 3.56226 0
M  V30 3008 H 285.239 -1.71848 2.50403 0
M  V30 3009 H 282.824 -0.790378 1.26781 0
M  V30 3010 H 284.706 -3.94634 1.47791 0
M  V30 3011 H 283.381 -3.1896 0.551898 0
M  V30 3012 H 282.288 -2.51549 2.769 0
M  V30 3013 H 283.621 -3.32416 3.62988 0
M  V30 3014 N 285.273 -1.31445 -0.869486 0
M  V30 3015 C 286.223 -1.15731 -1.96444 0
M  V30 3016 C 287.207 -0.0681855 -1.60755 0
M  V30 3017 O 288.399 -0.293154 -1.74555 0
M  V30 3018 C 285.528 -0.867255 -3.32165 0
M  V30 3019 C 284.614 -1.99738 -3.74119 0
M  V30 3020 N 285.005 -3.24447 -3.88031 0
M  V30 3021 C 283.303 -1.89723 -4.03635 0
M  V30 3022 C 284.004 -3.98374 -4.23879 0
M  V30 3023 N 282.98 -3.26547 -4.3459 0
M  V30 3024 H 286.782 -2.10296 -2.05312 0
M  V30 3025 H 284.296 -1.23009 -1.06031 0
M  V30 3026 H 286.293 -0.735668 -4.10358 0
M  V30 3027 H 284.953 0.0701614 -3.24624 0
M  V30 3028 H 285.964 -3.59557 -3.72746 0
M  V30 3029 H 282.641 -1.03449 -4.04481 0
M  V30 3030 H 284.031 -5.05844 -4.42235 0
M  V30 3031 N 286.751 1.08385 -1.14413 0
M  V30 3032 C 287.999 1.80419 -0.910679 0
M  V30 3033 C 288.32 1.86658 0.564243 0
M  V30 3034 O 287.59 1.35985 1.41014 0
M  V30 3035 H 286.17 0.668204 -0.333934 0
M  V30 3036 H 288.832 1.31037 -1.44275 0
M  V30 3037 H 287.928 2.83238 -1.31082 0
M  V30 3038 N 288.23 0.939286 1.26551 0
M  V30 3039 C 289.507 0.5038 1.89001 0
M  V30 3040 C 289.887 -1.01854 1.84903 0
M  V30 3041 O 289.235 -1.87773 1.30206 0
M  V30 3042 C 289.445 1.063 3.32417 0
M  V30 3043 C 290.793 1.13051 4.09273 0
M  V30 3044 O 291.817 1.01345 3.41479 0
M  V30 3045 O 290.676 1.31233 5.30509 0
M  V30 3046 H 287.77 0.163897 0.810597 0
M  V30 3047 H 290.316 1.03173 1.34735 0
M  V30 3048 H 289.088 2.10665 3.29752 0
M  V30 3049 H 288.711 0.517408 3.94219 0
M  V30 3050 N 289.708 -1.40897 0.706093 0
M  V30 3051 C 290.933 -2.05895 0.249435 0
M  V30 3052 C 291.358 -1.52823 -1.09666 0
M  V30 3053 O 290.716 -0.659589 -1.68876 0
M  V30 3054 C 290.764 -3.59872 0.22904 0
M  V30 3055 O 289.868 -4.04708 -0.792784 0
M  V30 3056 H 289.209 -0.653206 0.119241 0
M  V30 3057 H 291.739 -1.80471 0.96391 0
M  V30 3058 H 291.749 -4.07951 0.0634791 0
M  V30 3059 H 290.424 -3.97866 1.21141 0
M  V30 3060 H 289.001 -3.68111 -0.59572 0
M  V30 3061 N 291.186 -0.45159 -1.50991 0
M  V30 3062 C 292.411 0.110667 -2.07105 0
M  V30 3063 C 292.836 1.3446 -1.31538 0
M  V30 3064 O 292.194 1.77743 -0.357365 0
M  V30 3065 C 292.242 0.397238 -3.58405 0
M  V30 3066 O 291.346 1.48124 -3.84881 0
M  V30 3067 H 290.687 -0.00439271 -0.663985 0
M  V30 3068 H 293.217 -0.637026 -1.9443 0
M  V30 3069 H 293.227 0.64351 -4.02893 0
M  V30 3070 H 291.902 -0.504553 -4.12828 0
M  V30 3071 H 290.479 1.22381 -3.52246 0
M  V30 3072 N 292.664 1.56529 -0.183458 0
M  V30 3073 C 293.91 1.97537 0.459036 0
M  V30 3074 C 294.243 1.06989 1.62071 0
M  V30 3075 O 293.518 0.11948 1.94133 0
M  V30 3076 C 293.801 3.47874 0.930368 0
M  V30 3077 C 293.654 4.492 -0.232317 0
M  V30 3078 C 294.973 4.01612 1.79989 0
M  V30 3079 H 292.092 0.718204 0.165383 0
M  V30 3080 H 294.734 1.88042 -0.272038 0
M  V30 3081 H 292.884 3.56095 1.55333 0
M  V30 3082 H 294.556 4.53027 -0.86972 0
M  V30 3083 H 292.799 4.24657 -0.885928 0
M  V30 3084 H 293.47 5.51823 0.139796 0
M  V30 3085 H 295.946 3.96097 1.27461 0
M  V30 3086 H 294.822 5.07195 2.09867 0
M  V30 3087 H 295.083 3.46163 2.74998 0
M  V30 3088 N 294.142 -0.090211 1.57342 0
M  V30 3089 C 295.105 -1.09335 2.01441 0
M  V30 3090 C 296.105 -1.32666 0.908641 0
M  V30 3091 O 297.295 -1.28697 1.174 0
M  V30 3092 C 294.427 -2.44136 2.3793 0
M  V30 3093 H 295.62 -0.713662 2.91285 0
M  V30 3094 H 293.173 -0.335404 1.52659 0
M  V30 3095 H 293.908 -2.86972 1.51055 0
M  V30 3096 H 293.693 -2.28548 3.18603 0
M  V30 3097 H 295.183 -3.16277 2.72688 0
M  V30 3098 N 295.62 -1.53406 -0.361157 0
M  V30 3099 C 296.866 -1.70054 -1.10496 0
M  V30 3100 C 297.199 -0.453278 -1.88836 0
M  V30 3101 O 296.474 0.5495 -1.86576 0
M  V30 3102 C 296.757 -2.95317 -2.06058 0
M  V30 3103 C 296.61 -4.3021 -1.31298 0
M  V30 3104 C 297.929 -3.16193 -3.06121 0
M  V30 3105 H 295.048 -0.618799 -0.400321 0
M  V30 3106 H 297.69 -1.86052 -0.385318 0
M  V30 3107 H 295.84 -2.81809 -2.67425 0
M  V30 3108 H 297.512 -4.55538 -0.726807 0
M  V30 3109 H 295.755 -4.29421 -0.614853 0
M  V30 3110 H 296.426 -5.14 -2.01265 0
M  V30 3111 H 298.902 -3.28916 -2.5486 0
M  V30 3112 H 297.778 -4.05266 -3.70204 0
M  V30 3113 H 298.039 -2.31676 -3.76535 0
M  V30 3114 N 297.098 0.621204 -1.44841 0
M  V30 3115 C 298.344 1.38073 -1.49357 0
M  V30 3116 C 298.699 1.91973 -0.128115 0
M  V30 3117 O 297.992 1.71311 0.858087 0
M  V30 3118 C 298.186 2.55675 -2.4973 0
M  V30 3119 C 298.015 2.13289 -3.95901 0
M  V30 3120 C 296.785 2.001 -4.63991 0
M  V30 3121 C 298.983 1.7159 -4.84831 0
M  V30 3122 N 296.965 1.51381 -5.94943 0
M  V30 3123 C 298.336 1.34188 -6.05304 0
M  V30 3124 C 300.391 1.59059 -4.7181 0
M  V30 3125 C 299.094 0.855085 -7.14199 0
M  V30 3126 C 301.12 1.11784 -5.8074 0
M  V30 3127 C 300.482 0.753385 -7.0036 0
M  V30 3128 H 296.581 0.499675 -0.601539 0
M  V30 3129 H 299.165 0.711609 -1.8123 0
M  V30 3130 H 297.336 3.20201 -2.19832 0
M  V30 3131 H 299.068 3.22509 -2.4448 0
M  V30 3132 H 295.823 2.20863 -4.18947 0
M  V30 3133 H 296.247 1.29293 -6.64539 0
M  V30 3134 H 300.889 1.85865 -3.79755 0
M  V30 3135 H 298.607 0.574552 -8.06055 0
M  V30 3136 H 302.193 1.02533 -5.72694 0
M  V30 3137 H 301.073 0.393183 -7.83214 0
M  V30 3138 N 298.576 1.31904 0.862503 0
M  V30 3139 C 299.801 1.25135 1.65397 0
M  V30 3140 C 300.226 -0.179 1.87246 0
M  V30 3141 O 299.584 -1.1277 1.4196 0
M  V30 3142 C 299.632 2.00832 2.99498 0
M  V30 3143 O 298.736 1.35075 3.89652 0
M  V30 3144 H 298.077 0.431655 0.504549 0
M  V30 3145 H 300.607 1.74094 1.07483 0
M  V30 3146 H 300.617 2.10709 3.49379 0
M  V30 3147 H 299.292 3.04847 2.82916 0
M  V30 3148 H 297.869 1.33696 3.48109 0
M  V30 3149 N 300.054 -1.07777 1.14986 0
M  V30 3150 C 301.302 -1.79934 0.920235 0
M  V30 3151 C 301.623 -1.86955 -0.554336 0
M  V30 3152 O 300.893 -1.36731 -1.40291 0
M  V30 3153 H 299.473 -0.666424 0.337473 0
M  V30 3154 H 302.135 -1.3027 1.44968 0
M  V30 3155 H 301.231 -2.82539 1.32583 0
M  V30 3156 N 301.532 -0.945985 -1.26051 0
M  V30 3157 C 302.778 -0.597002 -1.93814 0
M  V30 3158 C 303.111 0.862484 -1.73997 0
M  V30 3159 O 302.386 1.61769 -1.07986 0
M  V30 3160 C 302.669 -0.945937 -3.47454 0
M  V30 3161 C 302.522 -2.46052 -3.76535 0
M  V30 3162 C 303.841 -0.464785 -4.37639 0
M  V30 3163 H 300.96 -0.218366 -0.703907 0
M  V30 3164 H 303.602 -1.18107 -1.48831 0
M  V30 3165 H 301.752 -0.448902 -3.85898 0
M  V30 3166 H 303.424 -3.03065 -3.47778 0
M  V30 3167 H 301.667 -2.90194 -3.22444 0
M  V30 3168 H 302.338 -2.65517 -4.83947 0
M  V30 3169 H 304.814 -0.891016 -4.06448 0
M  V30 3170 H 303.69 -0.737712 -5.4392 0
M  V30 3171 H 303.951 0.635274 -4.37512 0
M  V30 3172 N 303.011 1.40521 -0.713556 0
M  V30 3173 C 303.959 2.32549 -0.0485227 0
M  V30 3174 C 304.953 1.51931 0.74922 0
M  V30 3175 O 306.159 1.67745 0.652816 0
M  V30 3176 H 302.534 0.751994 0.00311138 0
M  V30 3177 H 304.505 2.86291 -0.841443 0
M  V30 3178 C 303.254 3.36879 0.860687 0
M  V30 3179 H 302.577 3.98978 0.256246 0
M  V30 3180 H 304.017 4.03772 1.294 0
M  V30 3181 C 302.476 2.72197 1.9852 0
M  V30 3182 O 303.006 2.5837 3.07584 0
M  V30 3183 N 301.212 2.30612 1.76823 0
M  V30 3184 H 300.759 2.42059 0.881217 0
M  V30 3185 H 300.717 1.87672 2.52243 0
M  V30 3186 N 304.489 0.459591 1.5075 0
M  V30 3187 C 305.735 -0.0994966 2.02556 0
M  V30 3188 C 306.068 -1.40399 1.3417 0
M  V30 3189 O 305.343 -1.88892 0.463683 0
M  V30 3190 C 305.626 -0.295242 3.58888 0
M  V30 3191 C 305.479 1.02947 4.37861 0
M  V30 3192 C 306.798 -1.05502 4.27267 0
M  V30 3193 H 303.917 -0.034686 0.736183 0
M  V30 3194 H 306.559 0.602938 1.8018 0
M  V30 3195 H 304.709 -0.893563 3.78084 0
M  V30 3196 H 306.381 1.66348 4.30263 0
M  V30 3197 H 304.624 1.62885 4.02058 0
M  V30 3198 H 305.295 0.846281 5.45474 0
M  V30 3199 H 307.771 -0.547993 4.12476 0
M  V30 3200 H 306.647 -1.16077 5.36486 0
M  V30 3201 H 306.908 -2.08875 3.89645 0
M  V30 3202 N 305.967 -1.56429 0.191757 0
M  V30 3203 C 306.93 -2.17707 -0.716688 0
M  V30 3204 C 307.93 -1.13061 -1.14341 0
M  V30 3205 O 309.12 -1.38464 -1.05704 0
M  V30 3206 C 306.252 -2.77644 -1.97804 0
M  V30 3207 H 307.445 -2.99342 -0.1829 0
M  V30 3208 H 304.998 -1.56193 -0.0578566 0
M  V30 3209 H 305.733 -1.99799 -2.55443 0
M  V30 3210 H 305.518 -3.54246 -1.68083 0
M  V30 3211 H 307.008 -3.24708 -2.62592 0
M  V30 3212 N 307.445 0.0818655 -1.57387 0
M  V30 3213 C 308.693 0.781368 -1.86384 0
M  V30 3214 C 309.014 1.78618 -0.782342 0
M  V30 3215 O 308.284 1.94976 0.190061 0
M  V30 3216 H 306.864 0.291562 -0.687751 0
M  V30 3217 H 309.526 0.060348 -1.94807 0
M  V30 3218 H 308.622 1.3038 -2.83562 0
M  V30 3219 N 308.923 1.53595 0.353017 0
M  V30 3220 C 310.169 1.70638 1.09593 0
M  V30 3221 C 310.502 0.463286 1.88593 0
M  V30 3222 O 309.777 -0.539597 1.86865 0
M  V30 3223 C 310.06 2.96406 2.04489 0
M  V30 3224 C 309.913 4.30901 1.29014 0
M  V30 3225 C 311.232 3.17812 3.0444 0
M  V30 3226 H 308.351 0.620913 0.397034 0
M  V30 3227 H 310.993 1.86254 0.375446 0
M  V30 3228 H 309.143 2.83223 2.65927 0
M  V30 3229 H 310.815 4.55917 0.702638 0
M  V30 3230 H 309.058 4.29741 0.592071 0
M  V30 3231 H 309.729 5.1506 1.98537 0
M  V30 3232 H 312.205 3.30263 2.53112 0
M  V30 3233 H 311.081 4.07223 3.6805 0
M  V30 3234 H 311.342 2.33669 3.75301 0
M  V30 3235 N 310.401 -0.613514 1.45168 0
M  V30 3236 C 311.626 -1.40437 1.52618 0
M  V30 3237 C 312.051 -1.87438 0.157707 0
M  V30 3238 O 311.409 -1.59791 -0.856537 0
M  V30 3239 C 311.457 -2.58894 2.51011 0
M  V30 3240 O 310.561 -3.59326 2.02382 0
M  V30 3241 H 309.902 -0.419506 0.514695 0
M  V30 3242 H 312.432 -0.747215 1.90467 0
M  V30 3243 H 312.442 -3.06214 2.69624 0
M  V30 3244 H 311.117 -2.24032 3.50403 0
M  V30 3245 H 309.694 -3.18695 1.93618 0
M  V30 3246 N 311.879 -1.3236 -0.855495 0
M  V30 3247 C 312.809 -1.23833 -1.97958 0
M  V30 3248 C 313.79 -0.122361 -1.69659 0
M  V30 3249 O 314.975 -0.30939 -1.9172 0
M  V30 3250 C 312.105 -0.959772 -3.33775 0
M  V30 3251 C 311.059 -2.03689 -3.76424 0
M  V30 3252 C 310.385 -1.61075 -5.09862 0
M  V30 3253 C 311.685 -3.4518 -3.9198 0
M  V30 3254 H 313.379 -2.1788 -2.0535 0
M  V30 3255 H 310.925 -1.04891 -0.986605 0
M  V30 3256 H 312.878 -0.886678 -4.11966 0
M  V30 3257 H 311.602 0.0163404 -3.26596 0
M  V30 3258 H 310.261 -2.10012 -3.00484 0
M  V30 3259 H 309.909 -0.622107 -4.99138 0
M  V30 3260 H 309.609 -2.33143 -5.39368 0
M  V30 3261 H 311.133 -1.55201 -5.90546 0
M  V30 3262 H 312.547 -3.4145 -4.60526 0
M  V30 3263 H 310.944 -4.1559 -4.32903 0
M  V30 3264 H 312.014 -3.84903 -2.94919 0
M  V30 3265 N 313.357 1.07166 -1.15556 0
M  V30 3266 C 314.289 2.14341 -0.811815 0
M  V30 3267 C 315.302 1.61835 0.177015 0
M  V30 3268 O 316.491 1.78439 -0.0464996 0
M  V30 3269 C 313.591 3.38387 -0.186481 0
M  V30 3270 C 312.764 4.20238 -1.21321 0
M  V30 3271 C 311.823 5.2266 -0.609302 0
M  V30 3272 O 310.849 5.54719 -1.27576 0
M  V30 3273 N 312.051 5.77306 0.608099 0
M  V30 3274 H 314.816 2.44431 -1.73417 0
M  V30 3275 H 312.377 1.23089 -1.0517 0
M  V30 3276 H 314.369 4.04044 0.230339 0
M  V30 3277 H 312.939 3.05994 0.639249 0
M  V30 3278 H 312.159 3.50369 -1.80652 0
M  V30 3279 H 313.447 4.71736 -1.90638 0
M  V30 3280 H 312.845 5.53513 1.1679 0
M  V30 3281 H 311.402 6.44583 0.96725 0
M  V30 3282 N 314.835 0.952656 1.25548 0
M  V30 3283 C 315.745 0.47782 2.29682 0
M  V30 3284 C 316.761 -0.453859 1.67977 0
M  V30 3285 O 317.937 -0.330587 1.98668 0
M  V30 3286 C 315.002 -0.238655 3.45878 0
M  V30 3287 C 314.063 0.730994 4.23031 0
M  V30 3288 C 313.296 0.0486165 5.33678 0
M  V30 3289 O 313.519 -1.16612 5.58353 0
M  V30 3290 O 312.453 0.733152 5.97418 0
M  V30 3291 H 316.279 1.34312 2.72386 0
M  V30 3292 H 313.864 0.719026 1.30959 0
M  V30 3293 H 315.746 -0.641774 4.16484 0
M  V30 3294 H 314.421 -1.07916 3.05181 0
M  V30 3295 H 313.328 1.18428 3.5486 0
M  V30 3296 H 314.661 1.53946 4.67506 0
M  V30 3297 N 316.313 -1.40141 0.720998 0
M  V30 3298 C 317.243 -2.33339 0.0867621 0
M  V30 3299 C 318.224 -1.53178 -0.739622 0
M  V30 3300 O 319.409 -1.81625 -0.687449 0
M  V30 3301 C 316.539 -3.37194 -0.831728 0
M  V30 3302 C 315.493 -4.27857 -0.110558 0
M  V30 3303 C 314.819 -5.22294 -1.14513 0
M  V30 3304 C 316.119 -5.11872 1.0385 0
M  V30 3305 H 317.813 -2.86626 0.865219 0
M  V30 3306 H 315.359 -1.37814 0.417516 0
M  V30 3307 H 317.312 -4.01335 -1.28485 0
M  V30 3308 H 316.036 -2.82314 -1.64214 0
M  V30 3309 H 314.695 -3.65176 0.322797 0
M  V30 3310 H 314.343 -4.63717 -1.94874 0
M  V30 3311 H 314.043 -5.83797 -0.667446 0
M  V30 3312 H 315.567 -5.89312 -1.59824 0
M  V30 3313 H 316.981 -5.69436 0.664482 0
M  V30 3314 H 315.378 -5.82445 1.4449 0
M  V30 3315 H 316.448 -4.4753 1.86668 0
M  V30 3316 N 317.792 -0.46758 -1.50504 0
M  V30 3317 C 318.74 0.342482 -2.30065 0
M  V30 3318 C 319.734 0.993596 -1.37201 0
M  V30 3319 O 320.94 0.925102 -1.54408 0
M  V30 3320 H 317.315 0.129283 -0.740803 0
M  V30 3321 H 319.286 -0.34899 -2.96352 0
M  V30 3322 C 318.035 1.4139 -3.17654 0
M  V30 3323 H 317.358 0.922264 -3.89017 0
M  V30 3324 H 318.798 1.95335 -3.76325 0
M  V30 3325 C 317.257 2.4139 -2.35016 0
M  V30 3326 O 317.787 3.46586 -2.03079 0
M  V30 3327 N 315.993 2.13021 -1.97662 0
M  V30 3328 H 315.54 1.27499 -2.23834 0
M  V30 3329 H 315.498 2.80164 -1.42673 0
M  V30 3330 N 319.27 1.56325 -0.20005 0
M  V30 3331 C 320.681 1.8408 0.31167 0
M  V30 3332 C 321.032 1.12087 1.61031 0
M  V30 3333 O 320.157 0.38332 2.12978 0
M  V30 3334 C 320.752 3.33932 0.57226 0
M  V30 3335 C 319.311 3.6208 1.02834 0
M  V30 3336 C 318.458 2.77186 0.079634 0
M  V30 3337 H 321.409 1.52939 -0.423729 0
M  V30 3338 H 321.43 3.52971 1.42096 0
M  V30 3339 H 320.942 3.86303 -0.37308 0
M  V30 3340 H 319.043 3.15147 1.98778 0
M  V30 3341 H 319.156 4.7023 0.917624 0
M  V30 3342 H 317.52 2.47951 0.582448 0
M  V30 3343 H 318.303 3.32347 -0.860238 0
M  V30 3344 N 320.748 -0.0735177 1.57428 0
M  V30 3345 C 321.658 -1.10547 2.06922 0
M  V30 3346 C 322.674 -1.42506 0.998402 0
M  V30 3347 O 323.85 -1.52717 1.31299 0
M  V30 3348 C 320.915 -2.40019 2.50184 0
M  V30 3349 C 319.976 -2.15046 3.71556 0
M  V30 3350 C 319.209 -3.38345 4.12745 0
M  V30 3351 O 319.432 -4.47399 3.53822 0
M  V30 3352 O 318.366 -3.2666 5.05546 0
M  V30 3353 H 322.192 -0.715013 2.95163 0
M  V30 3354 H 319.777 -0.287531 1.46607 0
M  V30 3355 H 321.659 -3.16218 2.78539 0
M  V30 3356 H 320.334 -2.78447 1.65072 0
M  V30 3357 H 319.241 -1.36558 3.48285 0
M  V30 3358 H 320.574 -1.81499 4.57514 0
M  V30 3359 N 322.226 -1.5378 -0.344866 0
M  V30 3360 C 323.159 -1.7649 -1.4466 0
M  V30 3361 C 324.137 -0.613954 -1.50563 0
M  V30 3362 O 325.321 -0.84896 -1.683 0
M  V30 3363 C 322.448 -1.86235 -2.82903 0
M  V30 3364 C 321.494 -3.08375 -2.94631 0
M  V30 3365 S 322.327 -4.67457 -2.61236 0
M  V30 3366 C 323.483 -4.80079 -4.0159 0
M  V30 3367 H 323.716 -2.69661 -1.2518 0
M  V30 3368 H 321.249 -1.44632 -0.540455 0
M  V30 3369 H 323.207 -1.92535 -3.62547 0
M  V30 3370 H 321.868 -0.940786 -2.9968 0
M  V30 3371 H 321.061 -3.11865 -3.95925 0
M  V30 3372 H 320.663 -3.00294 -2.22934 0
M  V30 3373 H 322.955 -4.61407 -4.96094 0
M  V30 3374 H 323.898 -5.82168 -4.03095 0
M  V30 3375 H 324.306 -4.08544 -3.89554 0
M  V30 3376 N 323.704 0.605807 -1.45491 0
M  V30 3377 C 324.952 1.36207 -1.49305 0
M  V30 3378 C 325.273 1.94519 -0.136863 0
M  V30 3379 O 324.543 1.77261 0.833983 0
M  V30 3380 H 323.123 0.50565 -0.549843 0
M  V30 3381 H 325.785 0.711239 -1.81459 0
M  V30 3382 H 324.881 2.18058 -2.23287 0
M  V30 3383 N 325.182 1.32811 0.848464 0
M  V30 3384 C 326.41 1.26739 1.63538 0
M  V30 3385 C 326.825 -0.163484 1.88091 0
M  V30 3386 O 326.182 -1.10258 1.45429 0
M  V30 3387 C 326.233 2.03013 2.99112 0
M  V30 3388 O 325.954 3.40518 2.75643 0
M  V30 3389 C 327.455 2.04038 3.93552 0
M  V30 3390 H 324.675 0.437024 0.509167 0
M  V30 3391 H 327.219 1.75033 1.05753 0
M  V30 3392 H 325.374 1.58426 3.53525 0
M  V30 3393 H 325.788 3.79635 3.61908 0
M  V30 3394 H 327.262 2.61877 4.85926 0
M  V30 3395 H 327.739 1.0282 4.26995 0
M  V30 3396 H 328.345 2.486 3.45077 0
M  V30 3397 N 326.66 -1.06551 1.16123 0
M  V30 3398 C 327.937 -1.76097 0.85142 0
M  V30 3399 C 328.317 -2.00802 -0.6513 0
M  V30 3400 O 327.665 -1.63302 -1.59827 0
M  V30 3401 C 327.875 -3.06384 1.67122 0
M  V30 3402 C 329.223 -3.80585 1.88255 0
M  V30 3403 O 330.247 -3.16218 1.63966 0
M  V30 3404 O 329.106 -4.96212 2.2899 0
M  V30 3405 H 326.2 -0.765102 0.313923 0
M  V30 3406 H 328.746 -1.12844 1.26745 0
M  V30 3407 H 327.518 -2.84071 2.69108 0
M  V30 3408 H 327.141 -3.77371 1.25206 0
M  V30 3409 N 328.138 -0.959301 -1.25041 0
M  V30 3410 C 329.086 -0.474437 -2.2771 0
M  V30 3411 C 330.08 0.457697 -1.631 0
M  V30 3412 O 331.286 0.333912 -1.76876 0
M  V30 3413 H 327.661 -0.134936 -0.739795 0
M  V30 3414 H 329.632 -1.35251 -2.65988 0
M  V30 3415 C 328.381 0.227884 -3.46952 0
M  V30 3416 H 327.704 -0.480248 -3.96905 0
M  V30 3417 H 329.144 0.531091 -4.20661 0
M  V30 3418 C 327.603 1.452 -3.04004 0
M  V30 3419 O 328.133 2.54949 -3.10426 0
M  V30 3420 N 326.339 1.31502 -2.59144 0
M  V30 3421 H 325.886 0.422065 -2.54119 0
M  V30 3422 H 325.844 2.13521 -2.30773 0
M  V30 3423 N 329.616 1.39756 -0.72842 0
M  V30 3424 C 330.893 1.94574 -0.200079 0
M  V30 3425 C 331.273 1.66569 1.29684 0
M  V30 3426 O 330.621 0.990326 2.05924 0
M  V30 3427 C 330.831 3.45004 -0.526608 0
M  V30 3428 C 332.179 4.21965 -0.472318 0
M  V30 3429 O 333.203 3.53173 -0.463413 0
M  V30 3430 O 332.062 5.44552 -0.461075 0
M  V30 3431 H 329.156 0.826289 -0.0342851 0
M  V30 3432 H 331.702 1.49293 -0.806829 0
M  V30 3433 H 330.474 3.58796 -1.56144 0
M  V30 3434 H 330.097 3.97449 0.109449 0
M  V30 3435 N 331.094 0.475555 1.50254 0
M  V30 3436 C 332.319 -0.0777042 2.07254 0
M  V30 3437 C 332.744 -1.3235 1.3366 0
M  V30 3438 O 332.102 -1.77152 0.385597 0
M  V30 3439 C 332.15 -0.340169 3.58992 0
M  V30 3440 O 331.254 -1.41982 3.87188 0
M  V30 3441 H 330.595 0.0149556 0.663832 0
M  V30 3442 H 333.125 0.667878 1.93392 0
M  V30 3443 H 333.135 -0.579332 4.03866 0
M  V30 3444 H 331.81 0.570167 4.11973 0
M  V30 3445 H 330.387 -1.16762 3.54148 0
M  V30 3446 N 332.573 -1.56217 0.208337 0
M  V30 3447 C 333.483 -2.23316 -0.718836 0
M  V30 3448 C 334.499 -1.23648 -1.22422 0
M  V30 3449 O 335.675 -1.56423 -1.26861 0
M  V30 3450 C 332.74 -2.88968 -1.91568 0
M  V30 3451 C 331.801 -4.03943 -1.45357 0
M  V30 3452 C 331.034 -4.66455 -2.59337 0
M  V30 3453 O 331.257 -4.27919 -3.77149 0
M  V30 3454 O 330.191 -5.55686 -2.31293 0
M  V30 3455 H 334.017 -3.03182 -0.177315 0
M  V30 3456 H 331.602 -1.49384 -0.0215402 0
M  V30 3457 H 333.484 -3.30455 -2.61491 0
M  V30 3458 H 332.159 -2.12071 -2.44556 0
M  V30 3459 H 331.066 -3.67052 -0.722746 0
M  V30 3460 H 332.399 -4.82543 -0.970219 0
M  V30 3461 N 334.051 0.0651679 -1.57465 0
M  V30 3462 C 334.999 1.09542 -2.05191 0
M  V30 3463 C 335.993 1.39675 -0.958509 0
M  V30 3464 O 337.199 1.39003 -1.14359 0
M  V30 3465 H 333.574 0.370623 -0.654326 0
M  V30 3466 H 335.545 0.666802 -2.90854 0
M  V30 3467 C 334.294 2.39881 -2.51699 0
M  V30 3468 H 333.617 2.17547 -3.3543 0
M  V30 3469 H 335.057 3.104 -2.88839 0
M  V30 3470 C 333.516 3.0631 -1.40271 0
M  V30 3471 O 334.046 3.94664 -0.748523 0
M  V30 3472 N 332.252 2.67041 -1.14618 0
M  V30 3473 H 331.799 1.95281 -1.67997 0
M  V30 3474 H 331.757 3.1181 -0.402688 0
M  V30 3475 N 335.529 1.53961 0.336706 0
M  V30 3476 C 336.775 1.7273 1.07406 0
M  V30 3477 C 337.13 0.488095 1.86106 0
M  V30 3478 O 336.423 -0.519379 1.84426 0
M  V30 3479 C 336.617 2.93493 2.03953 0
M  V30 3480 C 336.446 4.29039 1.34744 0
M  V30 3481 C 335.216 4.93416 1.08942 0
M  V30 3482 C 337.414 5.08501 0.770115 0
M  V30 3483 N 335.396 6.12821 0.363864 0
M  V30 3484 C 336.767 6.19752 0.175472 0
M  V30 3485 C 338.822 4.93349 0.671633 0
M  V30 3486 C 337.525 7.17503 -0.508081 0
M  V30 3487 C 339.551 5.914 0.0018076 0
M  V30 3488 C 338.913 7.01993 -0.581835 0
M  V30 3489 H 335.012 0.685026 0.377177 0
M  V30 3490 H 337.596 1.91403 0.356815 0
M  V30 3491 H 335.767 2.76308 2.72962 0
M  V30 3492 H 337.499 3.00949 2.70577 0
M  V30 3493 H 334.254 4.53099 1.37833 0
M  V30 3494 H 334.678 6.76998 0.0156092 0
M  V30 3495 H 339.32 4.08007 1.1086 0
M  V30 3496 H 337.038 8.02414 -0.956918 0
M  V30 3497 H 340.624 5.81753 -0.0738538 0
M  V30 3498 H 339.504 7.76561 -1.09192 0
M  V30 3499 N 337.007 -0.598083 1.45811 0
M  V30 3500 C 337.954 -1.7082 1.55207 0
M  V30 3501 C 338.924 -1.61278 0.39732 0
M  V30 3502 O 340.109 -1.80717 0.612038 0
M  V30 3503 C 337.249 -3.09144 1.53376 0
M  V30 3504 C 336.362 -3.29423 2.79472 0
M  V30 3505 C 335.497 -4.57907 2.69248 0
M  V30 3506 C 334.536 -4.71476 3.90354 0
M  V30 3507 N 333.673 -5.9127 3.78608 0
M  V30 3508 H 338.513 -1.62125 2.50039 0
M  V30 3509 H 336.05 -0.790389 1.24062 0
M  V30 3510 H 338.008 -3.89186 1.50301 0
M  V30 3511 H 336.638 -3.16773 0.620876 0
M  V30 3512 H 335.69 -2.43091 2.92594 0
M  V30 3513 H 337.002 -3.3532 3.69272 0
M  V30 3514 H 336.156 -5.46157 2.64192 0
M  V30 3515 H 334.895 -4.54423 1.77063 0
M  V30 3516 H 333.9 -3.81648 3.95759 0
M  V30 3517 H 335.125 -4.76751 4.83617 0
M  V30 3518 H 333.071 -5.88813 2.89199 0
M  V30 3519 H 332.988 -5.98369 4.6205 0
M  V30 3520 H 334.256 -6.81992 3.77501 0
M  V30 3521 N 338.485 -1.33259 -0.841409 0
M  V30 3522 C 339.395 -1.25332 -1.98316 0
M  V30 3523 C 340.411 -0.164364 -1.73222 0
M  V30 3524 O 341.587 -0.387486 -1.97637 0
M  V30 3525 C 338.652 -0.990078 -3.32262 0
M  V30 3526 C 337.713 -2.16879 -3.70489 0
M  V30 3527 C 336.946 -1.91801 -4.98044 0
M  V30 3528 O 337.169 -0.867075 -5.63771 0
M  V30 3529 O 336.103 -2.78267 -5.33714 0
M  V30 3530 H 339.929 -2.21344 -2.07944 0
M  V30 3531 H 337.514 -1.1328 -0.974058 0
M  V30 3532 H 339.396 -0.860321 -4.12524 0
M  V30 3533 H 338.071 -0.0602155 -3.23644 0
M  V30 3534 H 336.978 -2.35407 -2.90748 0
M  V30 3535 H 338.311 -3.0819 -3.8377 0
M  V30 3536 N 339.963 1.05934 -1.16686 0
M  V30 3537 C 341.209 1.79065 -0.95203 0
M  V30 3538 C 341.542 1.87147 0.518629 0
M  V30 3539 O 340.817 1.36574 1.38484 0
M  V30 3540 C 341.1 3.23359 -1.58464 0
M  V30 3541 C 340.953 3.23336 -3.12689 0
M  V30 3542 C 342.272 4.21004 -1.28232 0
M  V30 3543 H 339.391 0.65005 -0.34728 0
M  V30 3544 H 342.033 1.23868 -1.44072 0
M  V30 3545 H 340.183 3.70493 -1.16908 0
M  V30 3546 H 341.855 2.84336 -3.6325 0
M  V30 3547 H 340.098 2.61886 -3.4583 0
M  V30 3548 H 340.769 4.25144 -3.52075 0
M  V30 3549 H 343.245 3.8233 -1.64203 0
M  V30 3550 H 342.121 5.20225 -1.75092 0
M  V30 3551 H 342.382 4.41639 -0.201791 0
M  V30 3552 N 341.441 0.965919 1.2453 0
M  V30 3553 C 342.391 0.465731 2.23193 0
M  V30 3554 C 343.375 -0.451277 1.54442 0
M  V30 3555 O 344.567 -0.282489 1.74731 0
M  V30 3556 C 341.696 -0.244511 3.42428 0
M  V30 3557 C 340.782 0.691222 4.18429 0
M  V30 3558 N 341.173 1.82771 4.71623 0
M  V30 3559 C 339.471 0.501649 4.4317 0
M  V30 3560 C 340.172 2.41285 5.29298 0
M  V30 3561 N 339.148 1.69819 5.16394 0
M  V30 3562 H 342.95 1.33291 2.61937 0
M  V30 3563 H 340.464 0.824789 1.39896 0
M  V30 3564 H 342.461 -0.620056 4.12263 0
M  V30 3565 H 341.121 -1.10815 3.05205 0
M  V30 3566 H 342.132 2.20929 4.68413 0
M  V30 3567 H 338.809 -0.318177 4.16286 0
M  V30 3568 H 340.199 3.37181 5.8117 0
M  V30 3569 N 342.919 -1.39368 0.735821 0
M  V30 3570 C 343.866 -2.30599 0.0963825 0
M  V30 3571 C 344.836 -1.49257 -0.728794 0
M  V30 3572 O 346.021 -1.77941 -0.688588 0
M  V30 3573 C 343.161 -3.35596 -0.804305 0
M  V30 3574 C 342.274 -4.31987 0.0335761 0
M  V30 3575 C 341.409 -5.24053 -0.868461 0
M  V30 3576 C 340.448 -6.12095 -0.0258776 0
M  V30 3577 N 339.585 -6.96514 -0.883893 0
M  V30 3578 H 344.425 -2.8471 0.880002 0
M  V30 3579 H 341.962 -1.40188 0.445619 0
M  V30 3580 H 343.92 -3.95062 -1.34096 0
M  V30 3581 H 342.55 -2.82938 -1.55389 0
M  V30 3582 H 341.602 -3.74133 0.68766 0
M  V30 3583 H 342.914 -4.94074 0.685036 0
M  V30 3584 H 342.068 -5.88549 -1.47293 0
M  V30 3585 H 340.807 -4.62289 -1.5537 0
M  V30 3586 H 339.812 -5.4661 0.591386 0
M  V30 3587 H 341.037 -6.75923 0.656156 0
M  V30 3588 H 338.983 -6.37318 -1.55441 0
M  V30 3589 H 338.9 -7.55448 -0.288931 0
M  V30 3590 H 340.168 -7.65439 -1.4739 0
M  V30 3591 N 344.397 -0.483516 -1.5 0
M  V30 3592 C 345.33 0.350427 -2.25493 0
M  V30 3593 C 346.308 0.985549 -1.29328 0
M  V30 3594 O 347.492 1.01906 -1.58579 0
M  V30 3595 C 344.619 1.49202 -3.04066 0
M  V30 3596 C 343.665 0.973036 -4.15252 0
M  V30 3597 S 344.498 -0.122237 -5.3536 0
M  V30 3598 C 345.654 1.02294 -6.17484 0
M  V30 3599 H 345.887 -0.290381 -2.95878 0
M  V30 3600 H 343.42 -0.268562 -1.52046 0
M  V30 3601 H 345.378 2.14623 -3.49925 0
M  V30 3602 H 344.039 2.10438 -2.33183 0
M  V30 3603 H 343.232 1.82804 -4.69679 0
M  V30 3604 H 342.834 0.396335 -3.71894 0
M  V30 3605 H 345.126 1.93195 -6.49371 0
M  V30 3606 H 346.069 0.517664 -7.06205 0
M  V30 3607 H 346.477 1.28238 -5.49741 0
M  V30 3608 N 345.875 1.56104 -0.216619 0
M  V30 3609 C 347.121 1.98466 0.417033 0
M  V30 3610 C 347.454 1.10403 1.59765 0
M  V30 3611 O 346.729 0.160632 1.93836 0
M  V30 3612 C 347.012 3.49769 0.85637 0
M  V30 3613 C 346.865 4.48606 -0.327546 0
M  V30 3614 C 348.184 4.05339 1.7143 0
M  V30 3615 H 345.303 0.721551 0.150112 0
M  V30 3616 H 347.945 1.87423 -0.311864 0
M  V30 3617 H 346.095 3.5931 1.47745 0
M  V30 3618 H 347.767 4.5108 -0.965618 0
M  V30 3619 H 346.01 4.22682 -0.975805 0
M  V30 3620 H 346.681 5.51995 0.0227149 0
M  V30 3621 H 349.157 3.98712 1.19031 0
M  V30 3622 H 348.033 5.11533 1.99061 0
M  V30 3623 H 348.294 3.51918 2.67593 0
M  V30 3624 N 347.353 -0.0568162 1.57498 0
M  V30 3625 C 348.599 -0.75422 1.88253 0
M  V30 3626 C 348.932 -1.76461 0.810865 0
M  V30 3627 O 348.207 -1.93691 -0.177259 0
M  V30 3628 C 348.49 -1.44878 3.2967 0
M  V30 3629 C 348.343 -0.453789 4.47505 0
M  V30 3630 C 349.662 -2.38994 3.69554 0
M  V30 3631 H 346.781 -0.272724 0.684683 0
M  V30 3632 H 349.423 -0.0172113 1.89992 0
M  V30 3633 H 347.573 -2.077 3.28318 0
M  V30 3634 H 349.245 0.170371 4.60985 0
M  V30 3635 H 347.488 0.229552 4.33192 0
M  V30 3636 H 348.159 -0.977699 5.43273 0
M  V30 3637 H 350.635 -1.86239 3.72095 0
M  V30 3638 H 349.511 -2.84587 4.69363 0
M  V30 3639 H 349.772 -3.24461 3.00296 0
M  V30 3640 N 348.832 -1.54138 -0.328536 0
M  V30 3641 C 349.742 -1.86192 -1.42723 0
M  V30 3642 C 350.758 -0.753382 -1.56844 0
M  V30 3643 O 351.934 -1.04718 -1.72035 0
M  V30 3644 C 348.999 -2.07824 -2.77507 0
M  V30 3645 C 348.06 -3.31641 -2.72603 0
M  V30 3646 C 347.293 -3.52232 -4.00959 0
M  V30 3647 O 347.516 -2.7636 -4.9898 0
M  V30 3648 O 346.45 -4.45699 -4.0452 0
M  V30 3649 H 350.276 -2.79608 -1.18547 0
M  V30 3650 H 347.861 -1.3998 -0.522104 0
M  V30 3651 H 349.743 -2.23411 -3.57303 0
M  V30 3652 H 348.418 -1.17596 -3.01584 0
M  V30 3653 H 347.325 -3.21444 -1.91376 0
M  V30 3654 H 348.658 -4.2191 -2.53481 0
M  V30 3655 N 350.31 0.590341 -1.46126 0
M  V30 3656 C 351.535 1.37991 -1.54833 0
M  V30 3657 C 351.96 1.87163 -0.187506 0
M  V30 3658 O 351.318 1.61133 0.831008 0
M  V30 3659 C 351.366 2.54867 -2.55098 0
M  V30 3660 O 350.47 3.56061 -2.08073 0
M  V30 3661 H 349.811 0.411265 -0.521303 0
M  V30 3662 H 352.341 0.716819 -1.91632 0
M  V30 3663 H 352.351 3.01886 -2.74461 0
M  V30 3664 H 351.026 2.18429 -3.53923 0
M  V30 3665 H 349.603 3.15574 -1.98664 0
M  V30 3666 N 351.788 1.33704 0.83433 0
M  V30 3667 C 352.751 1.24244 1.92603 0
M  V30 3668 C 353.751 0.160383 1.59998 0
M  V30 3669 O 354.941 0.412228 1.69252 0
M  V30 3670 C 352.073 0.91555 3.28376 0
M  V30 3671 H 353.266 2.21287 2.02416 0
M  V30 3672 H 350.819 1.17827 1.02696 0
M  V30 3673 H 351.554 -0.0521886 3.24258 0
M  V30 3674 H 351.339 1.69811 3.53422 0
M  V30 3675 H 352.829 0.874231 4.08347 0
M  V30 3676 N 353.266 -1.05314 1.17247 0
M  V30 3677 C 354.496 -1.81707 0.983166 0
M  V30 3678 C 354.904 -1.83222 -0.471822 0
M  V30 3679 O 354.247 -1.25721 -1.3394 0
M  V30 3680 C 354.309 -3.29134 1.44606 0
M  V30 3681 C 353.973 -3.51304 2.92292 0
M  V30 3682 C 354.97 -3.4353 3.90235 0
M  V30 3683 C 352.655 -3.78306 3.30439 0
M  V30 3684 C 354.649 -3.62442 5.24323 0
M  V30 3685 C 352.336 -3.96866 4.64694 0
M  V30 3686 C 353.334 -3.88933 5.61445 0
M  V30 3687 O 353.022 -4.06976 6.93272 0
M  V30 3688 H 352.754 -0.579476 0.348114 0
M  V30 3689 H 355.308 -1.33705 1.55924 0
M  V30 3690 H 353.538 -3.78046 0.813537 0
M  V30 3691 H 355.227 -3.87049 1.22262 0
M  V30 3692 H 355.993 -3.22648 3.62109 0
M  V30 3693 H 351.872 -3.83585 2.55702 0
M  V30 3694 H 355.416 -3.56165 5.99827 0
M  V30 3695 H 351.313 -4.1724 4.92525 0
M  V30 3696 H 352.081 -4.24209 6.99992 0
M  V30 3697 N 354.744 -0.972509 -1.24016 0
M  V30 3698 C 355.654 -0.5143 -2.28893 0
M  V30 3699 C 356.67 0.427078 -1.68677 0
M  V30 3700 O 357.846 0.298939 -1.99169 0
M  V30 3701 C 354.911 0.183598 -3.46214 0
M  V30 3702 C 353.972 -0.798202 -4.21814 0
M  V30 3703 C 353.205 -0.133514 -5.33533 0
M  V30 3704 O 353.428 1.07714 -5.60137 0
M  V30 3705 O 352.362 -0.828103 -5.96176 0
M  V30 3706 H 356.188 -1.38629 -2.70214 0
M  V30 3707 H 353.773 -0.739769 -1.29799 0
M  V30 3708 H 355.655 0.575433 -4.17453 0
M  V30 3709 H 354.33 1.03048 -3.0686 0
M  V30 3710 H 353.237 -1.24059 -3.52931 0
M  V30 3711 H 354.57 -1.61364 -4.64997 0
M  V30 3712 N 356.222 1.38976 -0.743202 0
M  V30 3713 C 357.468 2.0064 -0.295189 0
M  V30 3714 C 357.801 1.5885 1.11716 0
M  V30 3715 O 357.076 0.821181 1.76315 0
M  V30 3716 C 357.359 3.578 -0.406318 0
M  V30 3717 C 357.212 4.09586 -1.85903 0
M  V30 3718 C 358.531 4.39616 0.206439 0
M  V30 3719 H 355.65 0.728935 -0.108733 0
M  V30 3720 H 358.292 1.65067 -0.940897 0
M  V30 3721 H 356.442 3.88235 0.143419 0
M  V30 3722 H 358.114 3.89837 -2.46627 0
M  V30 3723 H 356.357 3.6284 -2.3776 0
M  V30 3724 H 357.028 5.18708 -1.888 0
M  V30 3725 H 359.504 4.15273 -0.262283 0
M  V30 3726 H 358.38 5.48812 0.0983819 0
M  V30 3727 H 358.641 4.22754 1.2935 0
M  V30 3728 N 357.7 0.491464 1.49741 0
M  V30 3729 C 358.949 -0.0582189 2.01616 0
M  V30 3730 C 359.262 -1.38927 1.3769 0
M  V30 3731 O 360.468 -2.02509 1.80838 0
M  V30 3732 C 358.924 -0.154235 3.59569 0
M  V30 3733 C 358.532 1.1696 4.32463 0
M  V30 3734 C 360.276 -0.65479 4.1942 0
M  V30 3735 C 358.183 1.03627 5.8225 0
M  V30 3736 H 357.113 -0.0255317 0.753568 0
M  V30 3737 H 359.764 0.629445 1.72367 0
M  V30 3738 H 358.146 -0.906138 3.85493 0
M  V30 3739 H 359.32 1.93405 4.18248 0
M  V30 3740 H 357.635 1.60285 3.84315 0
M  V30 3741 H 360.232 -0.771903 5.29099 0
M  V30 3742 H 360.575 -1.65127 3.8215 0
M  V30 3743 H 361.108 0.040304 3.9778 0
M  V30 3744 H 357.847 2.00672 6.24028 0
M  V30 3745 H 357.367 0.312546 5.98985 0
M  V30 3746 H 359.046 0.711114 6.4308 0
M  V30 3747 N 359.178 -1.55987 0.224894 0
M  V30 3748 C 360.125 -2.20436 -0.68385 0
M  V30 3749 C 361.095 -1.16102 -1.18783 0
M  V30 3750 O 362.28 -1.4447 -1.24632 0
M  V30 3751 C 359.42 -2.89076 -1.88491 0
M  V30 3752 C 358.533 -4.08012 -1.41951 0
M  V30 3753 C 357.668 -4.64426 -2.5784 0
M  V30 3754 C 356.707 -5.75656 -2.08053 0
M  V30 3755 N 355.844 -6.26347 -3.17227 0
M  V30 3756 H 360.684 -2.97727 -0.12754 0
M  V30 3757 H 358.221 -1.47011 -0.0511978 0
M  V30 3758 H 360.179 -3.27059 -2.59014 0
M  V30 3759 H 358.809 -2.14298 -2.41405 0
M  V30 3760 H 357.861 -3.75492 -0.609095 0
M  V30 3761 H 359.173 -4.88375 -1.01447 0
M  V30 3762 H 358.327 -5.04869 -3.3644 0
M  V30 3763 H 357.066 -3.83233 -3.01635 0
M  V30 3764 H 356.071 -5.34712 -1.27916 0
M  V30 3765 H 357.296 -6.58686 -1.65255 0
M  V30 3766 H 355.242 -5.48067 -3.60497 0
M  V30 3767 H 355.159 -7.01843 -2.80986 0
M  V30 3768 H 356.427 -6.71447 -3.95953 0
M  V30 3769 N 360.656 0.0484629 -1.57525 0
M  V30 3770 C 361.586 1.0549 -2.08313 0
M  V30 3771 C 362.567 1.38929 -0.981463 0
M  V30 3772 O 363.752 1.48151 -1.25558 0
M  V30 3773 C 360.882 2.36162 -2.54646 0
M  V30 3774 C 359.836 2.17016 -3.68901 0
M  V30 3775 C 359.162 3.53278 -4.01371 0
M  V30 3776 C 360.462 1.57219 -4.98076 0
M  V30 3777 H 362.156 0.632195 -2.92649 0
M  V30 3778 H 359.702 0.302654 -1.40784 0
M  V30 3779 H 361.655 3.06882 -2.88793 0
M  V30 3780 H 360.379 2.80456 -1.67368 0
M  V30 3781 H 359.038 1.48733 -3.35073 0
M  V30 3782 H 358.686 3.95185 -3.11188 0
M  V30 3783 H 358.386 3.41299 -4.78318 0
M  V30 3784 H 359.91 4.25391 -4.38035 0
M  V30 3785 H 361.324 2.17832 -5.30304 0
M  V30 3786 H 359.721 1.55871 -5.79503 0
M  V30 3787 H 360.791 0.535956 -4.81929 0
M  V30 3788 N 362.134 1.5431 0.320358 0
M  V30 3789 C 363.081 1.83918 1.39438 0
M  V30 3790 C 364.051 0.686525 1.51248 0
M  V30 3791 O 365.236 0.933269 1.66417 0
M  V30 3792 C 362.376 2.075 2.75749 0
M  V30 3793 C 361.489 3.35177 2.72544 0
M  V30 3794 C 360.624 3.48704 4.00723 0
M  V30 3795 C 359.663 4.70244 3.91838 0
M  V30 3796 N 358.8 4.80679 5.11754 0
M  V30 3797 H 363.64 2.75544 1.13489 0
M  V30 3798 H 361.177 1.36459 0.549309 0
M  V30 3799 H 363.135 2.19166 3.54996 0
M  V30 3800 H 361.765 1.19163 3 0
M  V30 3801 H 360.817 3.32233 1.85271 0
M  V30 3802 H 362.129 4.24534 2.61863 0
M  V30 3803 H 361.283 3.59928 4.88402 0
M  V30 3804 H 360.022 2.57445 4.14214 0
M  V30 3805 H 359.027 4.59072 3.02544 0
M  V30 3806 H 360.252 5.6289 3.7991 0
M  V30 3807 H 358.198 3.92337 5.25745 0
M  V30 3808 H 358.115 5.64007 5.0342 0
M  V30 3809 H 359.383 4.96239 6.01138 0
M  V30 3810 N 363.613 -0.582584 1.46437 0
M  V30 3811 C 364.861 -1.33814 1.51453 0
M  V30 3812 C 365.182 -1.94277 0.167792 0
M  V30 3813 O 364.452 -1.78566 -0.805677 0
M  V30 3814 H 363.032 -0.496838 0.557818 0
M  V30 3815 H 365.694 -0.682281 1.82568 0
M  V30 3816 H 364.79 -2.14479 2.26728 0
M  V30 3817 N 365.091 -1.34144 -0.827227 0
M  V30 3818 C 366.321 -1.29138 -1.61267 0
M  V30 3819 C 366.729 0.137597 -1.88699 0
M  V30 3820 O 366.072 1.09379 -1.47587 0
M  V30 3821 C 366.134 -2.0097 -2.9808 0
M  V30 3822 C 365.798 -3.50242 -2.93563 0
M  V30 3823 C 366.795 -4.4523 -2.68452 0
M  V30 3824 C 364.48 -3.92592 -3.13331 0
M  V30 3825 C 366.474 -5.80542 -2.63154 0
M  V30 3826 C 364.161 -5.28005 -3.07658 0
M  V30 3827 C 365.159 -6.21792 -2.82602 0
M  V30 3828 O 364.847 -7.54723 -2.76853 0
M  V30 3829 H 364.579 -0.445851 -0.508127 0
M  V30 3830 H 367.133 -1.77263 -1.03763 0
M  V30 3831 H 365.363 -1.47451 -3.57484 0
M  V30 3832 H 367.052 -1.89309 -3.5905 0
M  V30 3833 H 367.818 -4.13832 -2.52919 0
M  V30 3834 H 363.697 -3.19994 -3.31851 0
M  V30 3835 H 367.241 -6.53717 -2.43516 0
M  V30 3836 H 363.138 -5.59023 -3.22743 0
M  V30 3837 H 363.906 -7.64409 -2.92611 0
M  V30 3838 N 366.569 1.04691 -1.17803 0
M  V30 3839 C 367.797 1.81446 -0.99423 0
M  V30 3840 C 368.212 1.83174 0.457459 0
M  V30 3841 O 367.569 1.26265 1.31771 0
M  V30 3842 C 367.62 3.27334 -1.5341 0
M  V30 3843 O 367.341 3.25798 -2.92895 0
M  V30 3844 C 368.842 4.20759 -1.39559 0
M  V30 3845 H 366.062 0.571599 -0.351447 0
M  V30 3846 H 368.606 1.31982 -1.56208 0
M  V30 3847 H 366.761 3.74052 -1.00815 0
M  V30 3848 H 367.175 4.17144 -3.17949 0
M  V30 3849 H 368.649 5.21084 -1.82141 0
M  V30 3850 H 369.126 4.37856 -0.343394 0
M  V30 3851 H 369.732 3.79901 -1.91195 0
M  V30 3852 N 368.047 0.979072 1.23499 0
M  V30 3853 C 368.995 0.510604 2.26926 0
M  V30 3854 C 369.989 -0.431691 1.63807 0
M  V30 3855 O 371.195 -0.30573 1.77385 0
M  V30 3856 H 367.57 0.146688 0.737554 0
M  V30 3857 H 369.541 1.39466 2.63803 0
M  V30 3858 C 368.29 -0.172658 3.47271 0
M  V30 3859 H 367.613 0.543331 3.96091 0
M  V30 3860 H 369.053 -0.464101 4.21452 0
M  V30 3861 C 367.512 -1.40345 3.06276 0
M  V30 3862 O 368.042 -2.49978 3.14442 0
M  V30 3863 N 366.248 -1.27362 2.61203 0
M  V30 3864 H 365.795 -0.381584 2.54758 0
M  V30 3865 H 365.753 -2.09822 2.34141 0
M  V30 3866 N 369.525 -1.3858 0.750561 0
M  V30 3867 C 370.771 -2.0095 0.31477 0
M  V30 3868 C 371.126 -1.58509 -1.09053 0
M  V30 3869 O 370.419 -0.8112 -1.7358 0
M  V30 3870 C 370.613 -3.55455 0.372373 0
M  V30 3871 C 370.442 -4.12898 1.78173 0
M  V30 3872 C 369.212 -4.44797 2.39757 0
M  V30 3873 C 371.41 -4.35366 2.7379 0
M  V30 3874 N 369.392 -4.87831 3.72685 0
M  V30 3875 C 370.763 -4.80775 3.91478 0
M  V30 3876 C 372.818 -4.1746 2.71351 0
M  V30 3877 C 371.521 -5.10155 5.07084 0
M  V30 3878 C 373.547 -4.47963 3.86113 0
M  V30 3879 C 372.909 -4.93593 5.02539 0
M  V30 3880 H 369.008 -0.765083 0.161776 0
M  V30 3881 H 371.592 -1.68246 0.979867 0
M  V30 3882 H 369.763 -3.87512 -0.26244 0
M  V30 3883 H 371.495 -4.04614 -0.0834479 0
M  V30 3884 H 368.25 -4.33135 1.91548 0
M  V30 3885 H 368.674 -5.13685 4.40972 0
M  V30 3886 H 373.316 -3.81372 1.82524 0
M  V30 3887 H 371.034 -5.45141 5.96529 0
M  V30 3888 H 374.62 -4.35717 3.85542 0
M  V30 3889 H 373.5 -5.16746 5.89867 0
M  V30 3890 N 371.003 -0.499398 -1.49478 0
M  V30 3891 C 371.966 0.268838 -2.27618 0
M  V30 3892 C 372.966 0.895383 -1.33565 0
M  V30 3893 O 374.156 0.760164 -1.56739 0
M  V30 3894 C 371.288 1.38559 -3.11471 0
M  V30 3895 H 372.481 -0.416812 -2.96989 0
M  V30 3896 H 370.034 -0.254313 -1.54217 0
M  V30 3897 H 370.769 2.10544 -2.46661 0
M  V30 3898 H 370.554 0.941797 -3.80621 0
M  V30 3899 H 372.044 1.92678 -3.70493 0
M  V30 3900 N 372.481 1.55866 -0.233164 0
M  V30 3901 C 373.73 1.97779 0.39579 0
M  V30 3902 C 374.043 1.12419 1.60066 0
M  V30 3903 O 375.249 1.44283 2.29988 0
M  V30 3904 C 373.705 3.5188 0.755556 0
M  V30 3905 C 373.313 4.45959 -0.427152 0
M  V30 3906 C 375.057 4.02479 1.34946 0
M  V30 3907 C 372.964 5.91383 -0.0443043 0
M  V30 3908 H 371.894 0.738592 0.15165 0
M  V30 3909 H 374.545 1.80486 -0.331212 0
M  V30 3910 H 372.927 3.64816 1.5403 0
M  V30 3911 H 374.101 4.44776 -1.20462 0
M  V30 3912 H 372.416 4.05765 -0.935068 0
M  V30 3913 H 375.013 5.08637 1.649 0
M  V30 3914 H 375.356 3.49014 2.26925 0
M  V30 3915 H 375.889 3.92813 0.62791 0
M  V30 3916 H 372.628 6.48857 -0.930874 0
M  V30 3917 H 372.148 5.95734 0.697238 0
M  V30 3918 H 373.827 6.45893 0.378334 0
M  V30 3919 N 373.959 -0.0401083 1.57549 0
M  V30 3920 C 375.207 -0.731677 1.8839 0
M  V30 3921 C 375.528 -1.76481 0.829425 0
M  V30 3922 O 374.798 -1.95411 -0.1383 0
M  V30 3923 H 373.378 -0.273225 0.695239 0
M  V30 3924 H 376.04 -0.00867725 1.94898 0
M  V30 3925 H 375.136 -1.22816 2.86919 0
M  V30 3926 N 375.437 -1.54477 -0.31217 0
M  V30 3927 C 376.367 -1.87652 -1.38957 0
M  V30 3928 C 377.348 -0.734358 -1.53431 0
M  V30 3929 O 378.533 -0.98911 -1.67123 0
M  V30 3930 C 375.663 -2.11396 -2.75552 0
M  V30 3931 C 374.617 -3.27243 -2.75855 0
M  V30 3932 C 373.943 -3.36382 -4.15633 0
M  V30 3933 C 375.243 -4.64622 -2.38587 0
M  V30 3934 H 376.937 -2.77887 -1.11442 0
M  V30 3935 H 374.483 -1.33707 -0.534655 0
M  V30 3936 H 376.436 -2.33189 -3.51 0
M  V30 3937 H 375.16 -1.17921 -3.04569 0
M  V30 3938 H 373.819 -3.05356 -2.02863 0
M  V30 3939 H 373.467 -2.40445 -4.41809 0
M  V30 3940 H 373.167 -4.14249 -4.1674 0
M  V30 3941 H 374.691 -3.60422 -4.92877 0
M  V30 3942 H 376.105 -4.86219 -3.03749 0
M  V30 3943 H 374.502 -5.45121 -2.50925 0
M  V30 3944 H 375.572 -4.66097 -1.33723 0
M  V30 3945 N 376.915 0.57481 -1.46744 0
M  V30 3946 C 378.14 1.36341 -1.56288 0
M  V30 3947 C 378.565 1.86954 -0.207347 0
M  V30 3948 O 377.923 1.62006 0.813871 0
M  V30 3949 C 377.971 2.52147 -2.57787 0
M  V30 3950 O 377.075 3.53834 -2.11838 0
M  V30 3951 H 376.416 0.405713 -0.525636 0
M  V30 3952 H 378.946 0.696453 -1.92382 0
M  V30 3953 H 378.956 2.98958 -2.77648 0
M  V30 3954 H 377.631 2.14663 -3.5622 0
M  V30 3955 H 376.208 3.1345 -2.01999 0
M  V30 3956 N 378.394 1.34581 0.820102 0
M  V30 3957 C 379.64 1.27285 1.57881 0
M  V30 3958 C 379.973 -0.156137 1.93571 0
M  V30 3959 O 379.248 -1.10222 1.60254 0
M  V30 3960 C 379.531 2.16639 2.87645 0
M  V30 3961 C 379.384 3.68088 2.58517 0
M  V30 3962 C 380.703 2.05378 3.8924 0
M  V30 3963 H 377.822 0.463714 0.572833 0
M  V30 3964 H 380.464 1.64859 0.944539 0
M  V30 3965 H 378.614 1.84725 3.41773 0
M  V30 3966 H 380.286 4.10382 2.10676 0
M  V30 3967 H 378.529 3.89038 1.91917 0
M  V30 3968 H 379.2 4.2598 3.51063 0
M  V30 3969 H 381.676 2.33404 3.44473 0
M  V30 3970 H 380.552 2.7012 4.77835 0
M  V30 3971 H 380.813 1.0316 4.29896 0
M  V30 3972 N 379.872 -1.04064 1.18357 0
M  V30 3973 C 380.835 -2.10243 0.912707 0
M  V30 3974 C 381.835 -1.60477 -0.101928 0
M  V30 3975 O 383.025 -1.73703 0.131517 0
M  V30 3976 C 380.157 -3.38893 0.369387 0
M  V30 3977 H 381.35 -2.35706 1.85426 0
M  V30 3978 H 378.903 -1.20489 0.995594 0
M  V30 3979 H 379.638 -3.19094 -0.578776 0
M  V30 3980 H 379.423 -3.76331 1.1008 0
M  V30 3981 H 380.913 -4.17128 0.198575 0
M  V30 3982 N 381.35 -0.985608 -1.22978 0
M  V30 3983 C 382.627 -0.573599 -1.87001 0
M  V30 3984 C 383.007 0.949213 -1.88555 0
M  V30 3985 O 382.355 1.82811 -1.37086 0
M  V30 3986 C 382.565 -1.18564 -3.28243 0
M  V30 3987 C 383.913 -1.28163 -4.04796 0
M  V30 3988 O 384.937 -1.13949 -3.37482 0
M  V30 3989 O 383.796 -1.50832 -5.25273 0
M  V30 3990 H 380.89 -0.193868 -0.803955 0
M  V30 3991 H 383.436 -1.08102 -1.30813 0
M  V30 3992 H 382.208 -2.22758 -3.21706 0
M  V30 3993 H 381.831 -0.663363 -3.92027 0
M  V30 3994 N 382.828 1.3818 -0.7579 0
M  V30 3995 C 383.758 2.33027 -0.148597 0
M  V30 3996 C 384.739 1.55085 0.69875 0
M  V30 3997 O 385.924 1.83384 0.639053 0
M  V30 3998 C 383.054 3.3928 0.742034 0
M  V30 3999 C 382.008 4.28 -0.00291946 0
M  V30 4000 C 381.334 5.25146 1.00625 0
M  V30 4001 C 382.634 5.08938 -1.17385 0
M  V30 4002 H 384.328 2.84231 -0.940909 0
M  V30 4003 H 381.874 1.36659 -0.453908 0
M  V30 4004 H 383.827 4.046 1.17799 0
M  V30 4005 H 382.551 2.86569 1.56671 0
M  V30 4006 H 381.21 3.64192 -0.419504 0
M  V30 4007 H 380.858 4.68721 1.8251 0
M  V30 4008 H 380.558 5.85361 0.512428 0
M  V30 4009 H 382.082 5.93342 1.44143 0
M  V30 4010 H 383.496 5.67474 -0.815224 0
M  V30 4011 H 381.893 5.7841 -1.59882 0
M  V30 4012 H 382.963 4.42424 -1.98468 0
M  V30 4013 N 384.306 0.507319 1.49211 0
M  V30 4014 C 385.555 -0.0368315 2.01666 0
M  V30 4015 C 385.868 -1.37459 1.39156 0
M  V30 4016 O 387.074 -2.00579 1.82976 0
M  V30 4017 C 385.53 -0.116089 3.59713 0
M  V30 4018 C 385.138 1.2154 4.31198 0
M  V30 4019 C 386.882 -0.610268 4.2009 0
M  V30 4020 C 384.789 1.09796 5.81119 0
M  V30 4021 H 383.719 -0.0175376 0.753796 0
M  V30 4022 H 386.37 0.647691 1.71689 0
M  V30 4023 H 384.752 -0.8652 3.86433 0
M  V30 4024 H 385.926 1.9783 4.16173 0
M  V30 4025 H 384.241 1.64352 3.82593 0
M  V30 4026 H 386.838 -0.715742 5.29888 0
M  V30 4027 H 387.181 -1.61064 3.8388 0
M  V30 4028 H 387.714 0.0824916 3.97714 0
M  V30 4029 H 384.453 2.0728 6.21864 0
M  V30 4030 H 383.973 0.376058 5.9862 0
M  V30 4031 H 385.652 0.779281 6.4229 0
M  V30 4032 N 385.784 -1.5574 0.241426 0
M  V30 4033 C 386.694 -2.2479 -0.671305 0
M  V30 4034 C 387.71 -1.26217 -1.19772 0
M  V30 4035 O 388.886 -1.59079 -1.23514 0
M  V30 4036 C 385.951 -2.92966 -1.85396 0
M  V30 4037 C 385.012 -4.06935 -1.36756 0
M  V30 4038 C 384.245 -4.71851 -2.49384 0
M  V30 4039 O 384.468 -4.35823 -3.67987 0
M  V30 4040 O 383.402 -5.60467 -2.19454 0
M  V30 4041 H 387.228 -3.0349 -0.112966 0
M  V30 4042 H 384.813 -1.49397 0.0101513 0
M  V30 4043 H 386.695 -3.35927 -2.54423 0
M  V30 4044 H 385.37 -2.17211 -2.40002 0
M  V30 4045 H 384.277 -3.68503 -0.644726 0
M  V30 4046 H 385.61 -4.84492 -0.867647 0
M  V30 4047 N 387.262 0.0317525 -1.57568 0
M  V30 4048 C 388.487 0.738664 -1.938 0
M  V30 4049 C 388.912 1.68242 -0.841208 0
M  V30 4050 O 388.27 1.80157 0.203267 0
M  V30 4051 C 388.318 1.47417 -3.29091 0
M  V30 4052 O 387.422 2.5872 -3.2115 0
M  V30 4053 H 386.763 0.198856 -0.633524 0
M  V30 4054 H 389.293 -0.0119713 -2.04596 0
M  V30 4055 H 389.303 1.84468 -3.63917 0
M  V30 4056 H 387.978 0.781988 -4.08482 0
M  V30 4057 H 386.555 2.24231 -2.97951 0
M  V30 4058 N 388.74 1.54641 0.303973 0
M  V30 4059 C 389.673 1.80263 1.3993 0
M  V30 4060 C 390.651 0.653657 1.48883 0
M  V30 4061 O 391.835 0.893284 1.6599 0
M  V30 4062 C 388.962 1.9367 2.77866 0
M  V30 4063 C 388.008 3.16078 2.86351 0
M  V30 4064 S 388.841 4.74219 2.4875 0
M  V30 4065 C 389.997 4.90558 3.88721 0
M  V30 4066 H 390.23 2.72886 1.17986 0
M  V30 4067 H 387.763 1.46014 0.501918 0
M  V30 4068 H 389.721 2.0208 3.57315 0
M  V30 4069 H 388.382 1.01991 2.9708 0
M  V30 4070 H 387.575 3.22252 3.87517 0
M  V30 4071 H 387.177 3.06099 2.14893 0
M  V30 4072 H 389.469 4.74398 4.83687 0
M  V30 4073 H 390.412 5.92651 3.87518 0
M  V30 4074 H 390.82 4.18728 3.78585 0
M  V30 4075 N 390.218 -0.567019 1.47046 0
M  V30 4076 C 391.148 -1.68482 1.61667 0
M  V30 4077 C 392.129 -1.6358 0.466418 0
M  V30 4078 O 393.314 -1.81354 0.694574 0
M  V30 4079 C 390.444 -3.07124 1.62148 0
M  V30 4080 C 389.398 -3.26867 2.76301 0
M  V30 4081 C 388.724 -4.66196 2.61849 0
M  V30 4082 C 390.024 -3.13186 4.17986 0
M  V30 4083 H 391.718 -1.56502 2.5524 0
M  V30 4084 H 389.264 -0.751486 1.22836 0
M  V30 4085 H 391.217 -3.8516 1.70968 0
M  V30 4086 H 389.941 -3.2004 0.651287 0
M  V30 4087 H 388.6 -2.51237 2.66975 0
M  V30 4088 H 388.248 -4.75898 1.62879 0
M  V30 4089 H 387.948 -4.80356 3.38425 0
M  V30 4090 H 389.472 -5.46379 2.72584 0
M  V30 4091 H 390.886 -3.81049 4.2834 0
M  V30 4092 H 389.283 -3.3886 4.95272 0
M  V30 4093 H 390.353 -2.10057 4.3704 0
M  V30 4094 N 391.696 -1.35014 -0.812953 0
M  V30 4095 C 392.643 -1.27412 -1.92444 0
M  V30 4096 C 393.613 -0.14733 -1.65445 0
M  V30 4097 O 394.798 -0.329974 -1.87925 0
M  V30 4098 C 391.938 -1.04558 -3.28879 0
M  V30 4099 C 391.051 -2.26101 -3.68106 0
M  V30 4100 C 390.186 -1.96449 -4.9354 0
M  V30 4101 C 389.225 -3.14081 -5.25376 0
M  V30 4102 N 388.362 -2.84246 -6.41988 0
M  V30 4103 H 393.202 -2.22463 -1.98278 0
M  V30 4104 H 390.739 -1.10593 -0.969933 0
M  V30 4105 H 392.697 -0.893413 -4.07522 0
M  V30 4106 H 391.327 -0.131719 -3.22531 0
M  V30 4107 H 390.379 -2.52204 -2.84775 0
M  V30 4108 H 391.691 -3.13959 -3.87597 0
M  V30 4109 H 390.845 -1.78026 -5.79993 0
M  V30 4110 H 389.584 -1.05867 -4.76071 0
M  V30 4111 H 388.589 -3.33089 -4.37415 0
M  V30 4112 H 389.814 -4.05455 -5.44778 0
M  V30 4113 H 387.76 -1.96252 -6.25956 0
M  V30 4114 H 387.677 -3.65637 -6.61699 0
M  V30 4115 H 388.945 -2.6935 -7.31485 0
M  V30 4116 N 393.175 1.03435 -1.18907 0
M  V30 4117 C 394.123 2.13703 -0.918353 0
M  V30 4118 C 395.117 1.68947 0.123767 0
M  V30 4119 O 396.323 1.79983 -0.0249701 0
M  V30 4120 H 392.698 0.698112 -0.279542 0
M  V30 4121 H 394.669 2.33731 -1.85506 0
M  V30 4122 C 393.418 3.44542 -0.467532 0
M  V30 4123 H 392.741 3.79394 -1.26095 0
M  V30 4124 H 394.181 4.22812 -0.317164 0
M  V30 4125 C 392.64 3.26829 0.817588 0
M  V30 4126 O 393.17 3.54975 1.88031 0
M  V30 4127 N 391.376 2.80139 0.772677 0
M  V30 4128 H 390.923 2.57434 -0.0923883 0
M  V30 4129 H 390.881 2.68668 1.63294 0
M  V30 4130 N 394.653 0.992116 1.22453 0
M  V30 4131 C 395.583 0.561677 2.26644 0
M  V30 4132 C 396.564 -0.411055 1.65059 0
M  V30 4133 O 397.749 -0.301861 1.9184 0
M  V30 4134 C 394.879 -0.125247 3.47074 0
M  V30 4135 C 393.833 0.765948 4.21091 0
M  V30 4136 C 393.159 -0.0538484 5.34673 0
M  V30 4137 C 394.459 2.06242 4.79856 0
M  V30 4138 H 396.153 1.43259 2.62902 0
M  V30 4139 H 393.699 0.690283 1.26377 0
M  V30 4140 H 395.652 -0.437764 4.1912 0
M  V30 4141 H 394.376 -1.03069 3.0991 0
M  V30 4142 H 393.035 1.0621 3.50878 0
M  V30 4143 H 392.683 -0.960188 4.9375 0
M  V30 4144 H 392.383 0.539415 5.85119 0
M  V30 4145 H 393.907 -0.360477 6.09535 0
M  V30 4146 H 395.321 1.8139 5.43848 0
M  V30 4147 H 393.718 2.60444 5.40638 0
M  V30 4148 H 394.788 2.74167 3.99951 0
M  V30 4149 N 396.131 -1.37776 0.765217 0
M  V30 4150 C 397.356 -2.04651 0.336537 0
M  V30 4151 C 397.781 -1.57337 -1.03086 0
M  V30 4152 O 397.139 -0.730621 -1.65927 0
M  V30 4153 C 397.187 -3.58577 0.381468 0
M  V30 4154 O 396.291 -4.07706 -0.62042 0
M  V30 4155 H 395.632 -0.64756 0.146838 0
M  V30 4156 H 398.162 -1.76221 1.03959 0
M  V30 4157 H 398.172 -4.07314 0.236448 0
M  V30 4158 H 396.847 -3.9237 1.37907 0
M  V30 4159 H 395.424 -3.70306 -0.439056 0
M  V30 4160 N 397.609 -0.515225 -1.4894 0
M  V30 4161 C 399.025 -0.172099 -1.58669 0
M  V30 4162 C 399.225 1.32405 -1.51892 0
M  V30 4163 O 398.281 2.10116 -1.40027 0
M  V30 4164 C 399.594 -0.761533 -2.90897 0
M  V30 4165 C 401.142 -0.728926 -3.04394 0
M  V30 4166 C 401.617 -1.29667 -4.39261 0
M  V30 4167 N 403.108 -1.25799 -4.4579 0
M  V30 4168 C 403.843 -1.66733 -5.48623 0
M  V30 4169 N 403.339 -2.15327 -6.58488 0
M  V30 4170 N 405.132 -1.58061 -5.39419 0
M  V30 4171 H 397.283 -1.48778 -1.51588 0
M  V30 4172 H 399.546 -0.617968 -0.718901 0
M  V30 4173 H 399.252 -1.81136 -3.01468 0
M  V30 4174 H 399.126 -0.230106 -3.76497 0
M  V30 4175 H 401.513 0.312098 -2.93445 0
M  V30 4176 H 401.594 -1.29766 -2.20442 0
M  V30 4177 H 401.238 -2.33655 -4.50963 0
M  V30 4178 H 401.168 -0.703752 -5.21876 0
M  V30 4179 H 403.659 -0.902102 -3.66975 0
M  V30 4180 H 403.972 -2.44594 -7.33071 0
M  V30 4181 H 402.317 -2.19311 -6.59491 0
M  V30 4182 H 405.508 -1.19906 -4.52482 0
M  V30 4183 H 405.681 -1.90284 -6.19432 0
M  V30 4184 N 399.087 1.5561 -0.249682 0
M  V30 4185 C 400.336 1.98187 0.37479 0
M  V30 4186 C 400.649 1.14111 1.58865 0
M  V30 4187 O 401.855 1.46714 2.28445 0
M  V30 4188 C 400.311 3.52661 0.718192 0
M  V30 4189 C 399.919 4.45481 -0.474428 0
M  V30 4190 C 401.663 4.03888 1.3067 0
M  V30 4191 C 399.57 5.91303 -0.107026 0
M  V30 4192 H 398.5 0.740159 0.143808 0
M  V30 4193 H 401.151 1.80125 -0.350336 0
M  V30 4194 H 399.533 3.66429 1.50152 0
M  V30 4195 H 400.707 4.43473 -1.25172 0
M  V30 4196 H 399.022 4.04751 -0.978052 0
M  V30 4197 H 401.619 5.10358 1.59496 0
M  V30 4198 H 401.962 3.51401 2.23211 0
M  V30 4199 H 402.495 3.93457 0.586211 0
M  V30 4200 H 399.234 6.47833 -0.999642 0
M  V30 4201 H 398.754 5.9644 0.634013 0
M  V30 4202 H 400.433 6.46258 0.309807 0
M  V30 4203 N 400.565 -0.0233959 1.57583 0
M  V30 4204 C 401.515 -1.03023 2.03397 0
M  V30 4205 C 402.499 -1.31701 0.924315 0
M  V30 4206 O 403.691 -1.31191 1.18819 0
M  V30 4207 C 400.82 -2.32961 2.52159 0
M  V30 4208 C 399.906 -2.07349 3.69956 0
M  V30 4209 N 400.297 -1.51814 4.82479 0
M  V30 4210 C 398.595 -2.37606 3.77438 0
M  V30 4211 C 399.296 -1.42136 5.64068 0
M  V30 4212 N 398.272 -1.89891 5.09355 0
M  V30 4213 H 402.074 -0.594962 2.87815 0
M  V30 4214 H 399.588 -0.229586 1.60769 0
M  V30 4215 H 401.585 -3.05906 2.83244 0
M  V30 4216 H 400.245 -2.77162 1.69149 0
M  V30 4217 H 401.256 -1.20008 5.03804 0
M  V30 4218 H 397.933 -2.84842 3.05239 0
M  V30 4219 H 399.323 -0.996405 6.64471 0
M  V30 4220 N 402.043 -1.548 -0.295768 0
M  V30 4221 C 403.454 -1.65274 -0.868411 0
M  V30 4222 C 403.805 -0.56481 -1.87894 0
M  V30 4223 O 402.93 0.29767 -2.14343 0
M  V30 4224 C 403.525 -2.99603 -1.58188 0
M  V30 4225 C 402.084 -3.12181 -2.10286 0
M  V30 4226 C 401.231 -2.6098 -0.93727 0
M  V30 4227 H 404.182 -1.58534 -0.0726422 0
M  V30 4228 H 404.203 -2.91319 -2.44772 0
M  V30 4229 H 403.715 -3.78764 -0.846151 0
M  V30 4230 H 401.816 -2.3775 -2.8689 0
M  V30 4231 H 401.929 -4.18415 -2.33379 0
M  V30 4232 H 400.293 -2.17564 -1.32431 0
M  V30 4233 H 401.076 -3.42623 -0.215414 0
M  V30 4234 N 403.521 0.559213 -1.47345 0
M  V30 4235 C 404.767 1.31843 -1.54095 0
M  V30 4236 C 405.1 1.93149 -0.201726 0
M  V30 4237 O 404.375 1.77759 0.789428 0
M  V30 4238 C 404.658 2.43006 -2.65744 0
M  V30 4239 C 404.511 1.86581 -4.09277 0
M  V30 4240 C 405.83 3.44943 -2.73318 0
M  V30 4241 H 402.949 0.478012 -0.560957 0
M  V30 4242 H 405.591 0.625977 -1.79392 0
M  V30 4243 H 403.741 3.02072 -2.44305 0
M  V30 4244 H 405.413 1.31792 -4.42073 0
M  V30 4245 H 403.656 1.17268 -4.17649 0
M  V30 4246 H 404.327 2.66933 -4.83168 0
M  V30 4247 H 406.803 2.95793 -2.92653 0
M  V30 4248 H 405.679 4.20153 -3.53218 0
M  V30 4249 H 405.94 4.03665 -1.80296 0
M  V30 4250 N 404.999 1.35443 0.805782 0
M  V30 4251 C 406.224 1.32037 1.59941 0
M  V30 4252 C 406.649 -0.0994215 1.87837 0
M  V30 4253 O 406.007 -1.06648 1.46615 0
M  V30 4254 C 406.055 2.13354 2.90711 0
M  V30 4255 O 405.159 1.5148 3.83572 0
M  V30 4256 H 404.5 0.452666 0.485787 0
M  V30 4257 H 407.03 1.78496 1.00002 0
M  V30 4258 H 407.04 2.25338 3.40128 0
M  V30 4259 H 405.715 3.16572 2.69732 0
M  V30 4260 H 404.292 1.4834 3.42125 0
M  V30 4261 N 406.477 -1.02803 1.19454 0
M  V30 4262 C 407.705 -1.79841 1.02297 0
M  V30 4263 C 408.12 -1.83879 -0.428259 0
M  V30 4264 O 407.477 -1.28345 -1.29745 0
M  V30 4265 C 407.528 -3.24852 1.58598 0
M  V30 4266 O 407.249 -3.21097 2.98041 0
M  V30 4267 C 408.75 -4.18485 1.46236 0
M  V30 4268 H 405.97 -0.565936 0.360496 0
M  V30 4269 H 408.514 -1.2948 1.58288 0
M  V30 4270 H 406.669 -3.72401 1.06753 0
M  V30 4271 H 407.083 -4.12033 3.24545 0
M  V30 4272 H 408.557 -5.18121 1.90407 0
M  V30 4273 H 409.034 -4.37254 0.41301 0
M  V30 4274 H 409.64 -3.76811 1.97215 0
M  V30 4275 N 407.956 -0.998596 -1.21925 0
M  V30 4276 C 408.889 -0.498517 -2.22688 0
M  V30 4277 C 409.867 0.444301 -1.56412 0
M  V30 4278 O 411.051 0.368518 -1.84863 0
M  V30 4279 C 408.178 0.276639 -3.37568 0
M  V30 4280 C 407.224 -0.61302 -4.22071 0
M  V30 4281 S 408.057 -2.07168 -4.93803 0
M  V30 4282 C 409.213 -1.30617 -6.12119 0
M  V30 4283 H 409.446 -1.35234 -2.64762 0
M  V30 4284 H 406.979 -0.806018 -1.31692 0
M  V30 4285 H 408.937 0.717817 -4.04175 0
M  V30 4286 H 407.598 1.10581 -2.93991 0
M  V30 4287 H 406.791 -0.0162909 -5.03997 0
M  V30 4288 H 406.393 -0.991202 -3.60626 0
M  V30 4289 H 408.685 -0.57675 -6.75041 0
M  V30 4290 H 409.628 -2.10091 -6.76215 0
M  V30 4291 H 410.036 -0.816957 -5.58557 0
M  V30 4292 N 409.434 1.37368 -0.772513 0
M  V30 4293 C 410.68 1.99969 -0.337681 0
M  V30 4294 C 411.013 1.61184 1.08321 0
M  V30 4295 O 410.288 0.858395 1.74533 0
M  V30 4296 C 410.571 3.56858 -0.482121 0
M  V30 4297 C 410.424 4.0555 -1.94549 0
M  V30 4298 C 411.743 4.39955 0.113143 0
M  V30 4299 H 408.862 0.726464 -0.124171 0
M  V30 4300 H 411.504 1.63034 -0.975699 0
M  V30 4301 H 409.654 3.88452 0.0610361 0
M  V30 4302 H 411.326 3.84518 -2.54841 0
M  V30 4303 H 409.569 3.57715 -2.45403 0
M  V30 4304 H 410.24 5.14587 -1.9976 0
M  V30 4305 H 412.716 4.14623 -0.35031 0
M  V30 4306 H 411.592 5.48897 -0.0180514 0
M  V30 4307 H 411.853 4.25403 1.20354 0
M  V30 4308 N 410.912 0.523116 1.48665 0
M  V30 4309 C 411.859 -0.243398 2.29513 0
M  V30 4310 C 412.829 -0.940139 1.36933 0
M  V30 4311 O 414.014 -0.942503 1.65896 0
M  V30 4312 C 411.154 -1.28855 3.20141 0
M  V30 4313 C 410.267 -0.60135 4.27794 0
M  V30 4314 C 409.402 -1.62884 5.05611 0
M  V30 4315 C 408.441 -0.924726 6.05075 0
M  V30 4316 N 407.578 -1.89744 6.75975 0
M  V30 4317 H 412.418 0.452234 2.94549 0
M  V30 4318 H 409.955 0.234858 1.45213 0
M  V30 4319 H 411.913 -1.90674 3.71079 0
M  V30 4320 H 410.543 -1.95266 2.57043 0
M  V30 4321 H 409.595 0.130623 3.80176 0
M  V30 4322 H 410.907 -0.0481585 4.98777 0
M  V30 4323 H 410.061 -2.32149 5.60528 0
M  V30 4324 H 408.8 -2.21592 4.34452 0
M  V30 4325 H 407.805 -0.217966 5.49368 0
M  V30 4326 H 409.03 -0.343851 6.78229 0
M  V30 4327 H 406.976 -2.47373 6.07571 0
M  V30 4328 H 406.893 -1.3955 7.43009 0
M  V30 4329 H 408.161 -2.58229 7.35485 0
M  V30 4330 N 412.39 -1.55475 0.257931 0
M  V30 4331 C 413.638 -1.98813 -0.363009 0
M  V30 4332 C 413.959 -1.14757 -1.57657 0
M  V30 4333 O 413.229 -0.232956 -1.9451 0
M  V30 4334 H 411.809 -0.734308 -0.137113 0
M  V30 4335 H 414.471 -1.9156 0.359281 0
M  V30 4336 H 413.567 -3.04941 -0.664634 0
M  V30 4337 N 413.868 0.0150385 -1.57593 0
M  V30 4338 C 414.801 1.04475 -2.0288 0
M  V30 4339 C 415.779 1.3436 -0.915764 0
M  V30 4340 O 416.963 1.46779 -1.18271 0
M  V30 4341 C 414.09 2.37608 -2.41371 0
M  V30 4342 C 413.136 2.23487 -3.63257 0
M  V30 4343 S 413.969 1.57505 -5.11813 0
M  V30 4344 C 415.125 2.921 -5.5356 0
M  V30 4345 H 415.358 0.65907 -2.89903 0
M  V30 4346 H 412.891 0.225452 -1.52745 0
M  V30 4347 H 414.849 3.14165 -2.64217 0
M  V30 4348 H 413.51 2.7332 -1.54775 0
M  V30 4349 H 412.703 3.21802 -3.87891 0
M  V30 4350 H 412.305 1.55074 -3.40335 0
M  V30 4351 H 414.597 3.88419 -5.55101 0
M  V30 4352 H 415.54 2.72184 -6.53698 0
M  V30 4353 H 415.948 2.95318 -4.8109 0
M  V30 4354 N 415.346 1.54954 0.287554 0
M  V30 4355 C 416.576 1.78622 1.03816 0
M  V30 4356 C 416.984 0.552451 1.80955 0
M  V30 4357 O 416.327 -0.487665 1.77109 0
M  V30 4358 C 416.389 2.94975 2.055 0
M  V30 4359 C 416.053 4.32565 1.47433 0
M  V30 4360 C 417.05 5.12096 0.897436 0
M  V30 4361 C 414.735 4.79195 1.50591 0
M  V30 4362 C 416.729 6.36383 0.359851 0
M  V30 4363 C 414.416 6.03441 0.964459 0
M  V30 4364 C 415.414 6.81872 0.392413 0
M  V30 4365 O 415.102 8.03777 -0.140788 0
M  V30 4366 H 414.834 0.599144 0.313053 0
M  V30 4367 H 417.388 2.02761 0.328225 0
M  V30 4368 H 415.618 2.66493 2.80211 0
M  V30 4369 H 417.307 3.06097 2.6657 0
M  V30 4370 H 418.073 4.77209 0.865841 0
M  V30 4371 H 413.952 4.18167 1.94055 0
M  V30 4372 H 417.496 6.97545 -0.0872951 0
M  V30 4373 H 413.393 6.37813 0.993246 0
M  V30 4374 H 414.161 8.18495 -0.0287617 0
M  V30 4375 N 416.824 -0.551391 1.4764 0
M  V30 4376 C 418.072 -1.30572 1.54258 0
M  V30 4377 C 418.393 -1.93877 0.208963 0
M  V30 4378 O 417.663 -1.80234 -0.767619 0
M  V30 4379 H 416.243 -0.484894 0.568231 0
M  V30 4380 H 418.905 -0.643402 1.83974 0
M  V30 4381 H 418.001 -2.09621 2.31226 0
M  V30 4382 N 418.302 -1.35869 -0.798587 0
M  V30 4383 C 419.551 -1.28921 -1.5512 0
M  V30 4384 C 419.864 0.13208 -1.95154 0
M  V30 4385 O 421.07 0.323879 -2.69561 0
M  V30 4386 C 419.526 -2.26141 -2.79979 0
M  V30 4387 C 419.134 -3.73658 -2.47151 0
M  V30 4388 C 420.878 -2.28152 -3.57976 0
M  V30 4389 C 418.785 -4.62679 -3.6835 0
M  V30 4390 H 417.715 -0.479031 -0.582276 0
M  V30 4391 H 420.366 -1.61179 -0.877125 0
M  V30 4392 H 418.748 -1.86865 -3.49138 0
M  V30 4393 H 419.922 -4.21616 -1.85947 0
M  V30 4394 H 418.237 -3.74333 -1.82383 0
M  V30 4395 H 420.834 -2.91875 -4.4801 0
M  V30 4396 H 421.177 -1.28748 -3.95891 0
M  V30 4397 H 421.71 -2.65998 -2.95787 0
M  V30 4398 H 418.449 -5.63111 -3.35538 0
M  V30 4399 H 417.969 -4.19442 -4.28752 0
M  V30 4400 H 419.648 -4.78498 -4.35487 0
M  V30 4401 N 419.78 1.02168 -1.19998 0
M  V30 4402 C 420.69 2.14069 -0.959774 0
M  V30 4403 C 421.706 1.73804 0.082655 0
M  V30 4404 O 422.882 2.01133 -0.103633 0
M  V30 4405 C 419.947 3.42936 -0.509459 0
M  V30 4406 C 419.008 3.97474 -1.62213 0
M  V30 4407 C 418.241 5.2019 -1.19321 0
M  V30 4408 O 418.464 5.70369 -0.0597726 0
M  V30 4409 O 417.398 5.67749 -1.99863 0
M  V30 4410 H 421.224 2.37199 -1.89658 0
M  V30 4411 H 418.809 1.12469 -0.983411 0
M  V30 4412 H 420.691 4.20551 -0.267322 0
M  V30 4413 H 419.366 3.21234 0.398821 0
M  V30 4414 H 418.273 3.21161 -1.9185 0
M  V30 4415 H 419.606 4.23555 -2.50723 0
M  V30 4416 N 421.258 1.00505 1.21394 0
M  V30 4417 C 422.206 0.558623 2.25792 0
M  V30 4418 C 423.2 -0.396848 1.64686 0
M  V30 4419 O 424.406 -0.268035 1.77993 0
M  V30 4420 H 420.781 0.1623 0.734277 0
M  V30 4421 H 422.752 1.4503 2.60785 0
M  V30 4422 C 421.501 -0.0989574 3.47559 0
M  V30 4423 H 420.824 0.627225 3.94849 0
M  V30 4424 H 422.264 -0.3746 4.22342 0
M  V30 4425 C 420.723 -1.33817 3.09184 0
M  V30 4426 O 421.253 -2.43252 3.19674 0
M  V30 4427 N 419.459 -1.21793 2.63846 0
M  V30 4428 H 419.006 -0.32746 2.5551 0
M  V30 4429 H 418.964 -2.04809 2.38539 0
M  V30 4430 N 422.737 -1.36956 0.779787 0
M  V30 4431 C 423.647 -2.33965 0.172491 0
M  V30 4432 C 424.663 -1.60574 -0.670222 0
M  V30 4433 O 425.839 -1.92617 -0.588263 0
M  V30 4434 C 422.904 -3.39761 -0.690173 0
M  V30 4435 C 421.965 -4.28964 0.169924 0
M  V30 4436 C 421.198 -5.29707 -0.651662 0
M  V30 4437 O 421.421 -5.38238 -1.88827 0
M  V30 4438 O 420.355 -6.01873 -0.0566264 0
M  V30 4439 H 424.181 -2.87647 0.974321 0
M  V30 4440 H 421.766 -1.39258 0.541078 0
M  V30 4441 H 423.648 -4.04471 -1.1824 0
M  V30 4442 H 422.323 -2.88394 -1.47006 0
M  V30 4443 H 421.23 -3.67326 0.708696 0
M  V30 4444 H 422.563 -4.83656 0.913085 0
M  V30 4445 N 424.215 -0.530993 -1.48385 0
M  V30 4446 C 425.461 0.00274135 -2.028 0
M  V30 4447 C 425.794 1.33838 -1.40716 0
M  V30 4448 O 425.069 1.86465 -0.553277 0
M  V30 4449 C 425.352 0.123676 -3.59888 0
M  V30 4450 C 425.205 -1.2372 -4.3245 0
M  V30 4451 C 426.524 0.849967 -4.31814 0
M  V30 4452 H 423.643 -0.000477758 -0.737 0
M  V30 4453 H 426.285 -0.688217 -1.77098 0
M  V30 4454 H 424.435 0.712157 -3.81917 0
M  V30 4455 H 426.107 -1.86687 -4.21836 0
M  V30 4456 H 424.35 -1.81882 -3.93829 0
M  V30 4457 H 425.021 -1.10557 -5.40815 0
M  V30 4458 H 427.497 0.350572 -4.14621 0
M  V30 4459 H 426.373 0.903486 -5.41413 0
M  V30 4460 H 426.634 1.90047 -3.99167 0
M  V30 4461 N 425.693 1.55336 -0.266172 0
M  V30 4462 C 426.94 1.99397 0.353158 0
M  V30 4463 C 427.268 1.15451 1.56529 0
M  V30 4464 O 426.523 0.209974 1.9457 0
M  V30 4465 C 426.822 3.48606 0.787957 0
M  V30 4466 C 426.488 4.49773 -0.318541 0
M  V30 4467 C 425.15 4.77158 -0.62239 0
M  V30 4468 C 427.502 5.10212 -1.06459 0
M  V30 4469 C 424.83 5.62251 -1.67602 0
M  V30 4470 C 427.182 5.96449 -2.10788 0
M  V30 4471 C 425.846 6.22158 -2.41817 0
M  V30 4472 H 425.116 0.729644 0.12923 0
M  V30 4473 H 427.763 1.87732 -0.37802 0
M  V30 4474 H 426.068 3.57701 1.59866 0
M  V30 4475 H 427.765 3.80098 1.27775 0
M  V30 4476 H 424.355 4.2854 -0.0715925 0
M  V30 4477 H 428.539 4.89086 -0.843098 0
M  V30 4478 H 423.795 5.80419 -1.92155 0
M  V30 4479 H 427.969 6.42317 -2.69076 0
M  V30 4480 H 425.596 6.87888 -3.23596 0
M  V30 4481 N 427.171 -0.0066808 1.57599 0
M  V30 4482 C 428.101 -0.999296 2.11036 0
M  V30 4483 C 429.082 -1.36278 1.01795 0
M  V30 4484 O 430.267 -1.4477 1.29442 0
M  V30 4485 C 427.397 -2.29328 2.60818 0
M  V30 4486 C 426.351 -2.07159 3.74525 0
M  V30 4487 C 425.677 -3.42512 4.10596 0
M  V30 4488 C 426.977 -1.43959 5.02069 0
M  V30 4489 H 428.671 -0.554382 2.94223 0
M  V30 4490 H 426.217 -0.265221 1.41536 0
M  V30 4491 H 428.17 -2.99117 2.96828 0
M  V30 4492 H 426.894 -2.7592 1.74745 0
M  V30 4493 H 425.553 -1.39797 3.38899 0
M  V30 4494 H 425.201 -3.86795 3.21556 0
M  V30 4495 H 424.901 -3.28498 4.87199 0
M  V30 4496 H 426.425 -4.13628 4.4916 0
M  V30 4497 H 427.839 -2.03696 5.35893 0
M  V30 4498 H 426.236 -1.40452 5.83432 0
M  V30 4499 H 427.306 -0.407992 4.83181 0
M  V30 4500 N 428.649 -1.55105 -0.279332 0
M  V30 4501 C 429.874 -1.7976 -1.03446 0
M  V30 4502 C 430.299 -0.565952 -1.79384 0
M  V30 4503 O 429.657 0.484259 -1.74713 0
M  V30 4504 C 429.705 -3.0179 -1.97371 0
M  V30 4505 O 428.809 -2.76432 -3.06038 0
M  V30 4506 H 428.15 -0.594334 -0.29608 0
M  V30 4507 H 430.68 -2.02235 -0.310165 0
M  V30 4508 H 430.69 -3.30351 -2.39441 0
M  V30 4509 H 429.365 -3.91085 -1.4151 0
M  V30 4510 H 427.942 -2.58949 -2.68328 0
M  V30 4511 N 430.127 0.543554 -1.4793 0
M  V30 4512 C 431.057 1.65888 -1.64327 0
M  V30 4513 C 432.038 1.62818 -0.492383 0
M  V30 4514 O 433.223 1.80226 -0.723338 0
M  V30 4515 C 430.353 3.04506 -1.67013 0
M  V30 4516 C 429.307 3.2243 -2.81466 0
M  V30 4517 C 428.633 4.61972 -2.69233 0
M  V30 4518 C 429.933 3.06496 -4.22915 0
M  V30 4519 H 431.627 1.52421 -2.57698 0
M  V30 4520 H 429.173 0.731849 -1.24016 0
M  V30 4521 H 431.126 3.82391 -1.77074 0
M  V30 4522 H 429.85 3.18964 -0.70212 0
M  V30 4523 H 428.509 2.46957 -2.70938 0
M  V30 4524 H 428.157 4.73247 -1.7043 0
M  V30 4525 H 427.857 4.74911 -3.46025 0
M  V30 4526 H 429.381 5.41974 -2.81242 0
M  V30 4527 H 430.795 3.74186 -4.34348 0
M  V30 4528 H 429.192 3.30938 -5.006 0
M  V30 4529 H 430.262 2.03077 -4.40327 0
M  V30 4530 N 431.605 1.3629 0.791371 0
M  V30 4531 C 433.016 1.27225 1.36641 0
M  V30 4532 C 433.367 -0.0887968 1.95999 0
M  V30 4533 O 432.492 -0.990207 1.92416 0
M  V30 4534 C 433.087 2.30375 2.48421 0
M  V30 4535 C 431.646 2.25004 3.01746 0
M  V30 4536 C 430.793 2.15259 1.7481 0
M  V30 4537 H 433.744 1.47198 0.593173 0
M  V30 4538 H 433.765 1.93905 3.27385 0
M  V30 4539 H 433.277 3.29422 2.05189 0
M  V30 4540 H 431.378 1.29417 3.49403 0
M  V30 4541 H 431.491 3.1761 3.58693 0
M  V30 4542 H 429.855 1.61482 1.96966 0
M  V30 4543 H 430.638 3.16191 1.33709 0
M  V30 4544 N 433.083 -1.0153 1.20538 0
M  V30 4545 C 434.323 -1.76689 1.02763 0
M  V30 4546 C 434.687 -1.87065 -0.432513 0
M  V30 4547 O 435.888 -2.58684 -0.730481 0
M  V30 4548 C 434.159 -3.14707 1.69393 0
M  V30 4549 S 435.718 -4.05886 1.66738 0
M  V30 4550 H 432.536 -0.608076 0.368463 0
M  V30 4551 H 435.138 -1.21558 1.53114 0
M  V30 4552 H 433.842 -3.04782 2.74838 0
M  V30 4553 H 433.373 -3.74913 1.19179 0
M  V30 4554 H 435.388 -4.91221 0.70117 0
M  V30 4555 N 434.561 -1.01147 -1.20859 0
M  V30 4556 C 435.81 -0.693214 -1.89413 0
M  V30 4557 C 436.123 0.779969 -1.79376 0
M  V30 4558 O 437.329 1.21057 -2.43017 0
M  V30 4559 C 435.785 -1.18949 -3.39675 0
M  V30 4560 C 435.393 -2.68921 -3.58309 0
M  V30 4561 C 437.137 -0.94642 -4.13815 0
M  V30 4562 C 435.044 -3.12056 -5.0237 0
M  V30 4563 H 433.974 -0.255595 -0.709357 0
M  V30 4564 H 436.625 -1.22349 -1.36759 0
M  V30 4565 H 435.007 -0.587228 -3.91622 0
M  V30 4566 H 436.181 -3.34652 -3.16772 0
M  V30 4567 H 434.496 -2.91314 -2.97532 0
M  V30 4568 H 437.093 -1.24417 -5.20023 0
M  V30 4569 H 437.436 0.117219 -4.16135 0
M  V30 4570 H 437.969 -1.5118 -3.67953 0
M  V30 4571 H 434.708 -4.17674 -5.05202 0
M  V30 4572 H 434.228 -2.51041 -5.44737 0
M  V30 4573 H 435.907 -3.04403 -5.70918 0
M  V30 4574 N 436.039 1.36541 -0.78704 0
M  V30 4575 C 436.969 2.32659 -0.197992 0
M  V30 4576 C 437.95 1.56533 0.665697 0
M  V30 4577 O 439.135 1.84698 0.60001 0
M  V30 4578 C 436.265 3.40778 0.669901 0
M  V30 4579 C 435.219 4.27897 -0.0937039 0
M  V30 4580 C 434.545 5.27163 0.894629 0
M  V30 4581 C 435.845 5.06334 -1.28154 0
M  V30 4582 H 437.539 2.82171 -1.00099 0
M  V30 4583 H 435.085 1.35665 -0.482793 0
M  V30 4584 H 437.038 4.07008 1.09191 0
M  V30 4585 H 435.762 2.89827 1.50558 0
M  V30 4586 H 434.421 3.6322 -0.49666 0
M  V30 4587 H 434.069 4.72486 1.72527 0
M  V30 4588 H 433.769 5.86317 0.388149 0
M  V30 4589 H 435.293 5.96266 1.31525 0
M  V30 4590 H 436.707 5.65617 -0.93541 0
M  V30 4591 H 435.104 5.74888 -1.72115 0
M  V30 4592 H 436.174 4.38114 -2.07807 0
M  V30 4593 N 437.518 0.538854 1.48102 0
M  V30 4594 C 438.466 -0.232325 2.31437 0
M  V30 4595 C 439.46 -0.927004 1.41785 0
M  V30 4596 O 440.666 -0.850378 1.58646 0
M  V30 4597 H 437.041 -0.0937916 0.746128 0
M  V30 4598 H 439.012 0.489986 2.9435 0
M  V30 4599 C 437.761 -1.26074 3.24038 0
M  V30 4600 H 437.084 -0.735609 3.92974 0
M  V30 4601 H 438.524 -1.77157 3.85216 0
M  V30 4602 C 436.983 -2.29902 2.46265 0
M  V30 4603 O 437.513 -3.36502 2.19384 0
M  V30 4604 N 435.719 -2.03348 2.07601 0
M  V30 4605 H 435.266 -1.16675 2.29662 0
M  V30 4606 H 435.224 -2.73038 1.55877 0
M  V30 4607 N 438.996 -1.55193 0.274407 0
M  V30 4608 C 439.959 -2.212 -0.600279 0
M  V30 4609 C 440.959 -1.18963 -1.08187 0
M  V30 4610 O 442.149 -1.43873 -0.982158 0
M  V30 4611 C 439.281 -2.87739 -1.82809 0
M  V30 4612 H 440.474 -2.9989 -0.0239682 0
M  V30 4613 H 438.027 -1.5628 0.0250192 0
M  V30 4614 H 438.762 -2.13058 -2.44493 0
M  V30 4615 H 438.547 -3.62658 -1.49069 0
M  V30 4616 H 440.037 -3.38171 -2.45011 0
M  V30 4617 N 440.474 -0.00167713 -1.576 0
M  V30 4618 C 441.89 0.354422 -1.55615 0
M  V30 4619 C 442.09 1.74679 -1.00447 0
M  V30 4620 O 441.146 2.4428 -0.639022 0
M  V30 4621 C 442.459 0.22812 -2.99833 0
M  V30 4622 C 444.007 0.302934 -3.11531 0
M  V30 4623 C 444.482 0.205737 -4.57538 0
M  V30 4624 N 445.973 0.263584 -4.62449 0
M  V30 4625 C 446.708 0.211742 -5.73009 0
M  V30 4626 N 446.204 0.110399 -6.92712 0
M  V30 4627 N 447.997 0.263729 -5.61481 0
M  V30 4628 H 440.148 -0.912498 -1.918 0
M  V30 4629 H 442.411 -0.349928 -0.881053 0
M  V30 4630 H 442.117 -0.729934 -3.44042 0
M  V30 4631 H 441.991 1.00951 -3.6344 0
M  V30 4632 H 444.378 1.25143 -2.67251 0
M  V30 4633 H 444.459 -0.508357 -2.50698 0
M  V30 4634 H 444.103 -0.739225 -5.02492 0
M  V30 4635 H 444.033 1.03554 -5.16318 0
M  V30 4636 H 446.524 0.343173 -3.76339 0
M  V30 4637 H 446.837 0.0767828 -7.72762 0
M  V30 4638 H 445.182 0.0760025 -6.94958 0
M  V30 4639 H 448.373 0.34111 -4.66855 0
M  V30 4640 H 448.546 0.219862 -6.47627 0
M  V30 4641 N 441.952 1.55251 0.271103 0
M  V30 4642 C 443.2 1.75599 1.00047 0
M  V30 4643 C 443.521 0.561188 1.8675 0
M  V30 4644 O 442.791 -0.423846 1.9126 0
M  V30 4645 H 441.371 0.647562 0.372387 0
M  V30 4646 H 444.033 1.92656 0.294876 0
M  V30 4647 H 443.129 2.65766 1.6363 0
M  V30 4648 N 443.43 -0.535701 1.48216 0
M  V30 4649 C 444.36 -1.65014 1.65204 0
M  V30 4650 C 445.341 -1.62554 0.501011 0
M  V30 4651 O 446.526 -1.7984 0.732886 0
M  V30 4652 C 443.656 -3.03616 1.68626 0
M  V30 4653 C 442.61 -3.20932 2.83172 0
M  V30 4654 C 441.936 -4.60537 2.71679 0
M  V30 4655 C 443.236 -3.04249 4.24535 0
M  V30 4656 H 444.93 -1.51053 2.58502 0
M  V30 4657 H 442.476 -0.725262 1.24402 0
M  V30 4658 H 444.429 -3.81446 1.79099 0
M  V30 4659 H 443.153 -3.18587 0.719026 0
M  V30 4660 H 441.812 -2.45517 2.72244 0
M  V30 4661 H 441.46 -4.72336 1.72937 0
M  V30 4662 H 441.16 -4.73069 3.48538 0
M  V30 4663 H 442.684 -5.40475 2.84112 0
M  V30 4664 H 444.098 -3.71877 4.36326 0
M  V30 4665 H 442.495 -3.28278 5.02348 0
M  V30 4666 H 443.565 -2.00739 4.41397 0
M  V30 4667 N 444.908 -1.36708 -0.784132 0
M  V30 4668 C 446.136 -1.34398 -1.57305 0
M  V30 4669 C 446.551 0.0735577 -1.88657 0
M  V30 4670 O 445.908 1.03193 -1.50524 0
M  V30 4671 C 445.959 -2.17053 -2.89085 0
M  V30 4672 O 445.68 -3.53281 -2.59083 0
M  V30 4673 C 447.181 -2.22583 -3.83369 0
M  V30 4674 H 444.401 -0.460819 -0.487736 0
M  V30 4675 H 446.945 -1.79879 -0.972819 0
M  V30 4676 H 445.1 -1.75113 -3.45564 0
M  V30 4677 H 445.514 -3.9647 -3.43383 0
M  V30 4678 H 446.988 -2.84763 -4.72878 0
M  V30 4679 H 447.465 -1.23075 -4.21603 0
M  V30 4680 H 448.071 -2.64781 -3.32823 0
M  V30 4681 N 446.386 1.0089 -1.21074 0
M  V30 4682 C 447.611 1.78727 -1.05221 0
M  V30 4683 C 448.036 1.83932 0.393795 0
M  V30 4684 O 447.394 1.28004 1.28393 0
M  V30 4685 C 447.442 3.20665 -1.64944 0
M  V30 4686 O 446.546 4.02632 -0.892273 0
M  V30 4687 H 445.887 0.550973 -0.370574 0
M  V30 4688 H 448.417 1.26847 -1.60534 0
M  V30 4689 H 448.427 3.71352 -1.69002 0
M  V30 4690 H 447.102 3.16191 -2.70177 0
M  V30 4691 H 445.679 3.61207 -0.926492 0
M  V30 4692 N 447.864 1.01787 1.20321 0
M  V30 4693 C 449.11 0.708985 1.90003 0
M  V30 4694 C 449.443 -0.759572 1.78729 0
M  V30 4695 O 448.718 -1.55198 1.17234 0
M  V30 4696 C 449.001 1.1469 3.41348 0
M  V30 4697 C 448.854 2.67586 3.61549 0
M  V30 4698 C 450.173 0.71915 4.34185 0
M  V30 4699 H 447.292 0.259034 0.689978 0
M  V30 4700 H 449.934 1.26584 1.41692 0
M  V30 4701 H 448.084 0.673128 3.82624 0
M  V30 4702 H 449.756 3.22826 3.29517 0
M  V30 4703 H 447.999 3.085 3.04976 0
M  V30 4704 H 448.67 2.93281 4.67643 0
M  V30 4705 H 451.146 1.12647 4.00562 0
M  V30 4706 H 450.022 1.05358 5.38694 0
M  V30 4707 H 450.283 -0.379111 4.40472 0
M  V30 4708 N 449.342 -1.36122 0.79427 0
M  V30 4709 C 450.591 -1.98361 0.365464 0
M  V30 4710 C 450.904 -1.6374 -1.06997 0
M  V30 4711 O 452.11 -2.19251 -1.60129 0
M  V30 4712 C 450.566 -3.54821 0.602496 0
M  V30 4713 C 450.174 -3.98362 2.04967 0
M  V30 4714 C 451.918 -4.2383 0.238437 0
M  V30 4715 C 449.825 -5.47619 2.2331 0
M  V30 4716 H 448.755 -0.742193 0.13291 0
M  V30 4717 H 451.406 -1.55354 0.976589 0
M  V30 4718 H 449.788 -3.95922 -0.078409 0
M  V30 4719 H 450.962 -3.68447 2.76737 0
M  V30 4720 H 449.277 -3.42206 2.37243 0
M  V30 4721 H 451.874 -5.33529 0.353705 0
M  V30 4722 H 452.217 -4.08264 -0.814006 0
M  V30 4723 H 452.75 -3.88108 0.872769 0
M  V30 4724 H 449.489 -5.68138 3.26955 0
M  V30 4725 H 449.009 -5.79145 1.5605 0
M  V30 4726 H 450.688 -6.13911 2.0426 0
M  V30 4727 N 450.82 -0.546701 -1.47814 0
M  V30 4728 C 451.768 0.220048 -2.31557 0
M  V30 4729 C 452.762 0.919472 -1.42275 0
M  V30 4730 O 453.968 0.841953 -1.59095 0
M  V30 4731 H 450.343 0.0898334 -0.746615 0
M  V30 4732 H 452.314 -0.505589 -2.94086 0
M  V30 4733 C 451.063 1.24353 -3.24702 0
M  V30 4734 H 450.386 0.714758 -3.93359 0
M  V30 4735 H 451.826 1.75112 -3.8615 0
M  V30 4736 C 450.285 2.28593 -2.47481 0
M  V30 4737 O 450.815 3.35334 -2.21165 0
M  V30 4738 N 449.021 2.02244 -2.08676 0
M  V30 4739 H 448.568 1.15455 -2.30278 0
M  V30 4740 H 448.526 2.72207 -1.57323 0
M  V30 4741 N 452.299 1.55045 -0.282633 0
M  V30 4742 C 453.231 2.2023 0.634924 0
M  V30 4743 C 454.244 1.18931 1.11172 0
M  V30 4744 O 455.433 1.4562 1.03233 0
M  V30 4745 C 452.533 2.82041 1.87899 0
M  V30 4746 C 451.706 4.091 1.54776 0
M  V30 4747 C 450.765 4.54887 2.64507 0
M  V30 4748 O 449.791 5.20496 2.30375 0
M  V30 4749 N 450.993 4.25659 3.94709 0
M  V30 4750 H 453.758 2.99601 0.0769811 0
M  V30 4751 H 451.319 1.61565 -0.104048 0
M  V30 4752 H 453.311 3.09613 2.60619 0
M  V30 4753 H 451.881 2.06618 2.3458 0
M  V30 4754 H 451.101 3.88736 0.654049 0
M  V30 4755 H 452.389 4.9187 1.30158 0
M  V30 4756 H 451.787 3.7306 4.25256 0
M  V30 4757 H 450.344 4.57984 4.63782 0
M  V30 4758 N 453.777 0.010035 1.57597 0
M  V30 4759 C 454.724 -0.978122 2.09049 0
M  V30 4760 C 455.694 -1.33509 0.988159 0
M  V30 4761 O 456.879 -1.43172 1.26121 0
M  V30 4762 C 454.019 -2.26158 2.60666 0
M  V30 4763 C 453.132 -1.96275 3.84838 0
M  V30 4764 C 452.267 -3.18776 4.24918 0
M  V30 4765 C 451.306 -2.84625 5.41899 0
M  V30 4766 N 450.443 -3.99693 5.77226 0
M  V30 4767 H 455.283 -0.532431 2.93205 0
M  V30 4768 H 452.82 -0.251234 1.44939 0
M  V30 4769 H 454.778 -3.01202 2.88675 0
M  V30 4770 H 453.408 -2.68378 1.79369 0
M  V30 4771 H 452.46 -1.11555 3.63675 0
M  V30 4772 H 453.772 -1.67111 4.69974 0
M  V30 4773 H 452.926 -4.02157 4.54262 0
M  V30 4774 H 451.665 -3.51087 3.38511 0
M  V30 4775 H 450.67 -1.99653 5.12268 0
M  V30 4776 H 451.895 -2.53551 6.29991 0
M  V30 4777 H 449.841 -4.31882 4.93776 0
M  V30 4778 H 449.758 -3.74087 6.56959 0
M  V30 4779 H 451.026 -4.83834 6.11167 0
M  V30 4780 N 455.255 -1.55392 -0.262866 0
M  V30 4781 C 456.185 -1.91978 -1.32917 0
M  V30 4782 C 457.166 -0.7828 -1.51017 0
M  V30 4783 O 458.351 -1.04178 -1.63892 0
M  V30 4784 C 455.481 -2.20055 -2.68687 0
M  V30 4785 C 454.435 -3.35854 -2.65304 0
M  V30 4786 C 453.761 -3.49435 -4.04721 0
M  V30 4787 C 455.061 -4.71977 -2.23685 0
M  V30 4788 H 456.755 -2.81292 -1.02544 0
M  V30 4789 H 454.301 -1.3534 -0.491846 0
M  V30 4790 H 456.254 -2.44237 -3.43404 0
M  V30 4791 H 454.978 -1.27551 -3.00663 0
M  V30 4792 H 453.637 -3.11655 -1.93045 0
M  V30 4793 H 453.285 -2.54379 -4.33936 0
M  V30 4794 H 452.985 -4.27297 -4.0335 0
M  V30 4795 H 454.509 -3.7592 -4.81161 0
M  V30 4796 H 455.923 -4.95637 -2.88127 0
M  V30 4797 H 454.32 -5.52828 -2.33456 0
M  V30 4798 H 455.39 -4.70115 -1.18827 0
M  V30 4799 N 456.733 0.527833 -1.48498 0
M  V30 4800 C 457.68 1.6322 -1.6318 0
M  V30 4801 C 458.65 1.59199 -0.473815 0
M  V30 4802 O 459.835 1.77591 -0.697563 0
M  V30 4803 C 456.975 3.01474 -1.67951 0
M  V30 4804 C 456.088 3.15713 -2.94871 0
M  V30 4805 C 455.223 4.44539 -2.90789 0
M  V30 4806 C 454.262 4.52315 -4.12404 0
M  V30 4807 N 453.399 5.72533 -4.06387 0
M  V30 4808 H 458.239 1.50011 -2.57489 0
M  V30 4809 H 455.776 0.730298 -1.27691 0
M  V30 4810 H 457.734 3.81572 -1.68698 0
M  V30 4811 H 456.364 3.1345 -0.771306 0
M  V30 4812 H 455.416 2.28854 -3.03859 0
M  V30 4813 H 456.728 3.1732 -3.8485 0
M  V30 4814 H 455.882 5.3293 -2.89949 0
M  V30 4815 H 454.621 4.45457 -1.98542 0
M  V30 4816 H 453.626 3.62331 -4.13517 0
M  V30 4817 H 454.851 4.53134 -5.05812 0
M  V30 4818 H 452.797 5.74344 -3.16962 0
M  V30 4819 H 452.714 5.75643 -4.90073 0
M  V30 4820 H 453.982 6.63204 -4.0961 0
M  V30 4821 N 458.211 1.37122 0.776871 0
M  V30 4822 C 459.488 1.22586 1.52421 0
M  V30 4823 C 459.868 -0.182726 2.10308 0
M  V30 4824 O 459.216 -1.18979 1.9508 0
M  V30 4825 C 459.426 2.31782 2.60918 0
M  V30 4826 C 460.774 2.69071 3.2846 0
M  V30 4827 O 461.798 2.3092 2.71209 0
M  V30 4828 O 460.657 3.3478 4.31954 0
M  V30 4829 H 457.751 0.478045 0.674835 0
M  V30 4830 H 460.297 1.48888 0.814275 0
M  V30 4831 H 459.069 3.26131 2.16227 0
M  V30 4832 H 458.692 2.06916 3.39517 0
M  V30 4833 N 459.689 -1.00246 1.21608 0
M  V30 4834 C 460.966 -1.71336 0.943568 0
M  V30 4835 C 461.346 -2.03972 -0.543943 0
M  V30 4836 O 460.694 -1.71545 -1.50946 0
M  V30 4837 C 460.904 -2.97094 1.83128 0
M  V30 4838 C 462.252 -3.70071 2.08165 0
M  V30 4839 O 463.276 -3.07081 1.80498 0
M  V30 4840 O 462.135 -4.83376 2.54971 0
M  V30 4841 H 459.229 -0.747386 0.354039 0
M  V30 4842 H 461.775 -1.05967 1.32549 0
M  V30 4843 H 460.547 -2.69407 2.83788 0
M  V30 4844 H 460.17 -3.70204 1.45034 0
M  V30 4845 N 461.167 -1.02423 -1.1978 0
M  V30 4846 C 462.077 -0.610919 -2.26506 0
M  V30 4847 C 463.093 0.355152 -1.70337 0
M  V30 4848 O 464.269 0.214195 -2.00258 0
M  V30 4849 C 461.334 0.0365921 -3.46681 0
M  V30 4850 C 460.395 -0.976389 -4.18049 0
M  V30 4851 C 459.628 -0.359683 -5.32487 0
M  V30 4852 O 459.851 0.838601 -5.64202 0
M  V30 4853 O 458.785 -1.08022 -5.92127 0
M  V30 4854 H 462.611 -1.49965 -2.64091 0
M  V30 4855 H 460.196 -0.794156 -1.26545 0
M  V30 4856 H 462.078 0.39786 -4.19518 0
M  V30 4857 H 460.753 0.899398 -3.10954 0
M  V30 4858 H 459.66 -1.38916 -3.47352 0
M  V30 4859 H 460.993 -1.80941 -4.57735 0
M  V30 4860 N 462.645 1.35699 -0.801477 0
M  V30 4861 C 463.891 1.99208 -0.380022 0
M  V30 4862 C 464.224 1.63445 1.04878 0
M  V30 4863 O 463.499 0.895223 1.72673 0
M  V30 4864 C 463.782 3.55755 -0.557708 0
M  V30 4865 C 463.635 4.01332 -2.03107 0
M  V30 4866 C 464.954 4.40096 0.0197968 0
M  V30 4867 H 462.073 0.723667 -0.139552 0
M  V30 4868 H 464.715 1.60928 -1.01006 0
M  V30 4869 H 462.865 3.88494 -0.0213741 0
M  V30 4870 H 464.537 3.79026 -2.62939 0
M  V30 4871 H 462.78 3.52429 -2.52936 0
M  V30 4872 H 463.451 5.10234 -2.1063 0
M  V30 4873 H 465.927 4.13786 -0.438179 0
M  V30 4874 H 464.803 5.48735 -0.134477 0
M  V30 4875 H 465.064 4.2786 1.11303 0
M  V30 4876 N 464.123 0.554532 1.47522 0
M  V30 4877 C 465.086 -0.184174 2.28459 0
M  V30 4878 C 466.086 -0.845195 1.36796 0
M  V30 4879 O 467.276 -0.701467 1.59452 0
M  V30 4880 C 464.408 -1.26903 3.16399 0
M  V30 4881 H 465.601 0.526751 2.95238 0
M  V30 4882 H 463.154 0.311375 1.53167 0
M  V30 4883 H 463.889 -2.01244 2.54306 0
M  V30 4884 H 463.674 -0.799883 3.83854 0
M  V30 4885 H 465.164 -1.78794 3.77389 0
M  V30 4886 N 465.601 -1.54893 0.290851 0
M  V30 4887 C 466.533 -2.20564 -0.623236 0
M  V30 4888 C 467.546 -1.19519 -1.1054 0
M  V30 4889 O 468.735 -1.46165 -1.02459 0
M  V30 4890 C 465.835 -2.83033 -1.86401 0
M  V30 4891 C 465.008 -4.09916 -1.52604 0
M  V30 4892 C 464.067 -4.56284 -2.62091 0
M  V30 4893 O 463.093 -5.2171 -2.27612 0
M  V30 4894 N 464.295 -4.27746 -3.92446 0
M  V30 4895 H 467.06 -2.99638 -0.0610915 0
M  V30 4896 H 464.621 -1.61508 0.112615 0
M  V30 4897 H 466.613 -3.1099 -2.58973 0
M  V30 4898 H 465.183 -2.0786 -2.33481 0
M  V30 4899 H 464.403 -3.89078 -0.633424 0
M  V30 4900 H 465.691 -4.92554 -1.27547 0
M  V30 4901 H 465.089 -3.7531 -4.23272 0
M  V30 4902 H 463.646 -4.60437 -4.61347 0
M  V30 4903 N 467.08 -0.0183926 -1.57589 0
M  V30 4904 C 468.01 0.965596 -2.12599 0
M  V30 4905 C 468.991 1.34641 -1.0395 0
M  V30 4906 O 470.176 1.42693 -1.31729 0
M  V30 4907 C 467.306 2.25149 -2.64434 0
M  V30 4908 C 466.26 2.01175 -3.77773 0
M  V30 4909 C 465.586 3.35937 -4.15994 0
M  V30 4910 C 466.886 1.35953 -5.04296 0
M  V30 4911 H 468.58 0.507504 -2.95067 0
M  V30 4912 H 466.126 0.242671 -1.41941 0
M  V30 4913 H 468.079 2.94357 -3.01549 0
M  V30 4914 H 466.803 2.73105 -1.79112 0
M  V30 4915 H 465.462 1.34388 -3.4108 0
M  V30 4916 H 465.11 3.81631 -3.27669 0
M  V30 4917 H 464.81 3.20705 -4.92364 0
M  V30 4918 H 466.334 4.0643 -4.55683 0
M  V30 4919 H 467.748 1.95144 -5.39065 0
M  V30 4920 H 466.145 1.31152 -5.85593 0
M  V30 4921 H 467.215 0.331071 -4.83768 0
M  V30 4922 N 468.558 1.5553 0.254621 0
M  V30 4923 C 469.505 1.89666 1.31512 0
M  V30 4924 C 470.475 0.750057 1.482 0
M  V30 4925 O 471.66 1.00301 1.62309 0
M  V30 4926 C 468.8 2.19009 2.667 0
M  V30 4927 C 467.913 3.46435 2.58083 0
M  V30 4928 C 467.048 3.65386 3.85573 0
M  V30 4929 C 466.087 4.8644 3.71541 0
M  V30 4930 N 465.224 5.01952 4.90906 0
M  V30 4931 H 470.064 2.80109 1.017 0
M  V30 4932 H 467.601 1.38666 0.490938 0
M  V30 4933 H 469.559 2.34025 3.45381 0
M  V30 4934 H 468.189 1.31779 2.94676 0
M  V30 4935 H 467.241 3.39792 1.71013 0
M  V30 4936 H 468.553 4.35258 2.43622 0
M  V30 4937 H 467.707 3.80319 4.72697 0
M  V30 4938 H 466.446 2.74781 4.02922 0
M  V30 4939 H 465.451 4.71491 2.82801 0
M  V30 4940 H 466.676 5.78497 3.55694 0
M  V30 4941 H 464.622 4.14283 5.08631 0
M  V30 4942 H 464.539 5.84851 4.79046 0
M  V30 4943 H 465.807 5.21289 5.7955 0
M  V30 4944 N 470.036 -0.519951 1.48776 0
M  V30 4945 C 470.983 -1.62352 1.64044 0
M  V30 4946 C 471.953 -1.58945 0.482251 0
M  V30 4947 O 473.138 -1.77219 0.706971 0
M  V30 4948 C 470.278 -3.00579 1.69547 0
M  V30 4949 C 469.391 -3.14145 2.96541 0
M  V30 4950 C 468.526 -4.42991 2.93142 0
M  V30 4951 C 467.565 -4.50122 4.14797 0
M  V30 4952 N 466.702 -5.7037 4.09418 0
M  V30 4953 H 471.542 -1.48643 2.58281 0
M  V30 4954 H 469.079 -0.723516 1.28077 0
M  V30 4955 H 471.037 -3.80671 1.70719 0
M  V30 4956 H 469.667 -3.13036 0.787918 0
M  V30 4957 H 468.719 -2.27239 3.05068 0
M  V30 4958 H 470.031 -3.15275 3.86527 0
M  V30 4959 H 469.185 -5.31385 2.92772 0
M  V30 4960 H 467.924 -4.44398 2.00902 0
M  V30 4961 H 466.929 -3.60133 4.15433 0
M  V30 4962 H 468.154 -4.50445 5.08208 0
M  V30 4963 H 466.1 -5.72655 3.20004 0
M  V30 4964 H 466.017 -5.73036 4.93119 0
M  V30 4965 H 467.285 -6.61023 4.13121 0
M  V30 4966 N 471.514 -1.37532 -0.769588 0
M  V30 4967 C 472.739 -1.36231 -1.56384 0
M  V30 4968 C 473.164 0.0495849 -1.88035 0
M  V30 4969 O 472.522 1.02723 -1.49391 0
M  V30 4970 C 472.57 -2.20986 -2.84952 0
M  V30 4971 O 471.674 -1.61597 -3.79421 0
M  V30 4972 H 471.015 -0.465387 -0.473615 0
M  V30 4973 H 473.545 -1.81085 -0.952342 0
M  V30 4974 H 473.555 -2.34277 -3.34034 0
M  V30 4975 H 472.23 -3.23612 -2.61243 0
M  V30 4976 H 470.807 -1.57359 -3.38072 0
M  V30 4977 N 472.992 0.995999 -1.22138 0
M  V30 4978 C 473.955 2.06711 -0.990109 0
M  V30 4979 C 474.955 1.60744 0.0422978 0
M  V30 4980 O 476.145 1.73095 -0.195895 0
M  V30 4981 C 473.277 3.37288 -0.49491 0
M  V30 4982 H 474.47 2.28661 -1.94047 0
M  V30 4983 H 472.023 1.16711 -1.03963 0
M  V30 4984 H 472.758 3.21022 0.459948 0
M  V30 4985 H 472.543 3.71986 -1.23971 0
M  V30 4986 H 474.033 4.16103 -0.353253 0
M  V30 4987 N 474.47 1.03057 1.19235 0
M  V30 4988 C 475.747 0.642608 1.84743 0
M  V30 4989 C 476.127 -0.878577 1.91948 0
M  V30 4990 O 475.475 -1.77597 1.43776 0
M  V30 4991 C 475.685 1.30665 3.23616 0
M  V30 4992 C 477.033 1.43098 3.9976 0
M  V30 4993 O 478.057 1.26396 3.3302 0
M  V30 4994 O 476.916 1.70223 5.19313 0
M  V30 4995 H 474.01 0.223573 0.796206 0
M  V30 4996 H 476.556 1.12883 1.26711 0
M  V30 4997 H 475.328 2.34544 3.13217 0
M  V30 4998 H 474.951 0.808405 3.89295 0
M  V30 4999 N 475.948 -1.35272 0.808662 0
M  V30 5000 C 477.176 -2.02946 0.402537 0
M  V30 5001 C 477.591 -1.60937 -0.987147 0
M  V30 5002 O 476.948 -0.807917 -1.63643 0
M  V30 5003 C 476.999 -3.58317 0.47868 0
M  V30 5004 O 476.72 -3.98799 1.81358 0
M  V30 5005 C 478.221 -4.43251 0.0656281 0
M  V30 5006 H 475.441 -0.650831 0.163279 0
M  V30 5007 H 477.985 -1.72849 1.09286 0
M  V30 5008 H 476.14 -3.87055 -0.163415 0
M  V30 5009 H 476.554 -4.93451 1.77781 0
M  V30 5010 H 478.028 -5.51738 0.170017 0
M  V30 5011 H 478.505 -4.27913 -0.989278 0
M  V30 5012 H 479.111 -4.19813 0.68096 0
M  V30 5013 N 477.426 -0.562348 -1.47226 0
M  V30 5014 C 478.356 0.170627 -2.32876 0
M  V30 5015 C 479.337 0.903748 -1.44106 0
M  V30 5016 O 480.522 0.883206 -1.72954 0
M  V30 5017 C 477.652 1.19786 -3.25989 0
M  V30 5018 C 476.606 0.580875 -4.2404 0
M  V30 5019 C 475.932 1.71311 -5.06514 0
M  V30 5020 C 477.232 -0.468714 -5.20193 0
M  V30 5021 H 478.926 -0.544441 -2.94408 0
M  V30 5022 H 476.472 -0.263271 -1.41573 0
M  V30 5023 H 478.425 1.71884 -3.84752 0
M  V30 5024 H 477.149 1.94294 -2.62521 0
M  V30 5025 H 475.808 0.0811538 -3.6651 0
M  V30 5026 H 475.456 2.44736 -4.39447 0
M  V30 5027 H 475.156 1.30604 -5.72902 0
M  V30 5028 H 476.68 2.23725 -5.68137 0
M  V30 5029 H 478.094 -0.0336028 -5.7329 0
M  V30 5030 H 476.491 -0.794957 -5.94811 0
M  V30 5031 H 477.561 -1.36269 -4.65359 0
M  V30 5032 N 478.904 1.54736 -0.299062 0
M  V30 5033 C 480.15 2.01114 0.304123 0
M  V30 5034 C 480.505 1.18376 1.51674 0
M  V30 5035 O 479.798 0.251635 1.8994 0
M  V30 5036 C 479.992 3.50199 0.713835 0
M  V30 5037 C 479.821 4.47366 -0.457531 0
M  V30 5038 C 478.591 4.9631 -0.948933 0
M  V30 5039 C 480.789 4.9755 -1.30186 0
M  V30 5040 N 478.771 5.77327 -2.08726 0
M  V30 5041 C 480.142 5.7625 -2.28771 0
M  V30 5042 C 482.197 4.79739 -1.33246 0
M  V30 5043 C 480.9 6.39036 -3.3019 0
M  V30 5044 C 482.926 5.43343 -2.33521 0
M  V30 5045 C 482.288 6.21874 -3.30836 0
M  V30 5046 H 478.387 0.778318 0.0757992 0
M  V30 5047 H 480.971 1.89925 -0.428536 0
M  V30 5048 H 479.142 3.61681 1.41567 0
M  V30 5049 H 480.874 3.83374 1.29639 0
M  V30 5050 H 477.629 4.7069 -0.52423 0
M  V30 5051 H 478.053 6.22521 -2.66077 0
M  V30 5052 H 482.695 4.18609 -0.59383 0
M  V30 5053 H 480.413 6.99302 -4.04973 0
M  V30 5054 H 483.999 5.31492 -2.3666 0
M  V30 5055 H 482.879 6.70217 -4.07159 0
M  V30 5056 N 480.382 0.0267497 1.57577 0
M  V30 5057 C 481.659 -0.690926 1.82991 0
M  V30 5058 C 482.039 -1.90471 0.910164 0
M  V30 5059 O 481.387 -2.28474 -0.0347985 0
M  V30 5060 C 481.597 -1.07139 3.32148 0
M  V30 5061 C 482.945 -1.46402 3.98562 0
M  V30 5062 O 483.969 -1.16443 3.36629 0
M  V30 5063 O 482.828 -2.02214 5.07712 0
M  V30 5064 H 479.922 -0.338747 0.75444 0
M  V30 5065 H 482.468 0.0542506 1.69613 0
M  V30 5066 H 481.24 -0.207394 3.9075 0
M  V30 5067 H 480.863 -1.87481 3.50623 0
M  V30 5068 N 481.861 -1.55662 -0.24637 0
M  V30 5069 C 483.11 -1.7672 -0.972254 0
M  V30 5070 C 483.423 -0.59078 -1.86465 0
M  V30 5071 O 484.629 -0.684391 -2.62732 0
M  V30 5072 C 483.085 -3.12869 -1.7788 0
M  V30 5073 C 482.693 -4.38161 -0.933768 0
M  V30 5074 C 484.437 -3.43265 -2.49738 0
M  V30 5075 C 482.344 -5.6534 -1.73623 0
M  V30 5076 H 481.274 -0.658795 -0.366749 0
M  V30 5077 H 483.925 -1.82092 -0.226902 0
M  V30 5078 H 482.307 -3.01606 -2.56612 0
M  V30 5079 H 483.481 -4.60413 -0.188736 0
M  V30 5080 H 481.796 -4.15102 -0.328488 0
M  V30 5081 H 484.393 -4.35501 -3.10231 0
M  V30 5082 H 484.736 -2.64614 -3.2138 0
M  V30 5083 H 485.269 -3.55746 -1.78016 0
M  V30 5084 H 482.008 -6.46814 -1.06354 0
M  V30 5085 H 481.528 -5.47188 -2.45653 0
M  V30 5086 H 483.207 -6.04616 -2.30323 0
M  V30 5087 N 483.339 0.512053 -1.4905 0
M  V30 5088 C 484.271 1.63121 -1.6101 0
M  V30 5089 C 485.284 1.55145 -0.493352 0
M  V30 5090 O 486.473 1.61278 -0.764955 0
M  V30 5091 C 483.573 3.01863 -1.54052 0
M  V30 5092 C 482.746 3.35138 -2.81072 0
M  V30 5093 C 481.805 4.5324 -2.67319 0
M  V30 5094 O 480.831 4.55571 -3.41238 0
M  V30 5095 N 482.033 5.52495 -1.78127 0
M  V30 5096 H 484.798 1.53292 -2.5753 0
M  V30 5097 H 482.359 0.699706 -1.45999 0
M  V30 5098 H 484.351 3.78774 -1.42521 0
M  V30 5099 H 482.921 3.05675 -0.654345 0
M  V30 5100 H 482.141 2.4723 -3.07036 0
M  V30 5101 H 483.429 3.54162 -3.65304 0
M  V30 5102 H 482.827 5.53403 -1.17308 0
M  V30 5103 H 481.384 6.28553 -1.72525 0
M  V30 5104 N 484.817 1.37938 0.762283 0
M  V30 5105 C 485.764 1.34467 1.87583 0
M  V30 5106 C 486.734 0.208633 1.64785 0
M  V30 5107 O 487.919 0.399494 1.86571 0
M  V30 5108 C 485.059 1.16692 3.24772 0
M  V30 5109 C 484.172 2.39608 3.59461 0
M  V30 5110 C 483.307 2.14631 4.85908 0
M  V30 5111 C 482.346 3.33364 5.13357 0
M  V30 5112 N 481.483 3.07877 6.30996 0
M  V30 5113 H 486.323 2.29669 1.89885 0
M  V30 5114 H 483.86 1.14116 0.928219 0
M  V30 5115 H 485.818 1.04405 4.03925 0
M  V30 5116 H 484.448 0.251333 3.2182 0
M  V30 5117 H 483.5 2.626 2.75219 0
M  V30 5118 H 484.812 3.28128 3.75678 0
M  V30 5119 H 483.966 1.99429 5.72986 0
M  V30 5120 H 482.705 1.23463 4.71814 0
M  V30 5121 H 481.71 3.49094 4.24751 0
M  V30 5122 H 482.935 4.25395 5.29354 0
M  V30 5123 H 480.881 2.19348 6.18241 0
M  V30 5124 H 480.798 3.89944 6.47673 0
M  V30 5125 H 482.066 2.96313 7.20985 0
M  V30 5126 N 486.295 -0.989507 1.22664 0
M  V30 5127 C 487.572 -1.70326 0.961688 0
M  V30 5128 C 487.952 -2.04537 -0.522279 0
M  V30 5129 O 487.3 -1.73136 -1.49118 0
M  V30 5130 C 487.51 -2.95135 1.86269 0
M  V30 5131 C 488.858 -3.67842 2.12078 0
M  V30 5132 O 489.882 -3.0515 1.83745 0
M  V30 5133 O 488.741 -4.80644 2.60083 0
M  V30 5134 H 485.835 -0.743589 0.361946 0
M  V30 5135 H 488.381 -1.04555 1.33665 0
M  V30 5136 H 487.153 -2.66382 2.8663 0
M  V30 5137 H 486.776 -3.68645 1.48952 0
M  V30 5138 N 487.773 -1.03688 -1.18687 0
M  V30 5139 C 488.703 -0.645407 -2.24403 0
M  V30 5140 C 489.684 0.349511 -1.66471 0
M  V30 5141 O 490.869 0.230453 -1.92828 0
M  V30 5142 C 487.999 -0.00365337 -3.473 0
M  V30 5143 C 486.953 -0.921705 -4.17958 0
M  V30 5144 C 486.279 -0.144629 -5.34504 0
M  V30 5145 C 487.579 -2.23909 -4.71871 0
M  V30 5146 H 489.273 -1.52917 -2.57404 0
M  V30 5147 H 486.819 -0.736711 -1.23728 0
M  V30 5148 H 488.772 0.281908 -4.20456 0
M  V30 5149 H 487.496 0.914963 -3.13522 0
M  V30 5150 H 486.155 -1.19159 -3.46694 0
M  V30 5151 H 485.803 0.776274 -4.96974 0
M  V30 5152 H 485.503 -0.756206 -5.82714 0
M  V30 5153 H 487.027 0.134004 -6.10453 0
M  V30 5154 H 488.441 -2.0145 -5.36741 0
M  V30 5155 H 486.838 -2.8033 -5.30599 0
M  V30 5156 H 487.908 -2.88822 -3.895 0
M  V30 5157 N 489.251 1.34841 -0.815825 0
M  V30 5158 C 490.198 2.29644 -0.230664 0
M  V30 5159 C 491.168 1.53253 0.640533 0
M  V30 5160 O 492.353 1.81653 0.583672 0
M  V30 5161 C 489.493 3.39715 0.607275 0
M  V30 5162 C 488.606 4.31056 -0.28538 0
M  V30 5163 C 487.741 5.28225 0.561446 0
M  V30 5164 C 486.78 6.11204 -0.331035 0
M  V30 5165 N 485.917 7.00483 0.476302 0
M  V30 5166 H 490.757 2.79095 -1.0445 0
M  V30 5167 H 488.294 1.37351 -0.526595 0
M  V30 5168 H 490.252 4.02208 1.10835 0
M  V30 5169 H 488.882 2.91517 1.38629 0
M  V30 5170 H 487.934 3.69487 -0.904621 0
M  V30 5171 H 489.246 4.89239 -0.97193 0
M  V30 5172 H 488.4 5.96135 1.12728 0
M  V30 5173 H 487.139 4.70562 1.28153 0
M  V30 5174 H 486.144 5.42232 -0.909069 0
M  V30 5175 H 487.369 6.70947 -1.04912 0
M  V30 5176 H 485.315 6.45296 1.18019 0
M  V30 5177 H 485.232 7.55847 -0.152008 0
M  V30 5178 H 486.5 7.7273 1.02512 0
M  V30 5179 N 490.729 0.570148 1.46925 0
M  V30 5180 C 492.006 -0.0153259 1.95594 0
M  V30 5181 C 492.386 -1.47232 1.51281 0
M  V30 5182 O 491.734 -2.15574 0.757624 0
M  V30 5183 C 491.944 0.143624 3.48704 0
M  V30 5184 C 493.292 0.00494484 4.246 0
M  V30 5185 O 494.316 0.0718214 3.56128 0
M  V30 5186 O 493.175 -0.141175 5.46318 0
M  V30 5187 H 490.269 -0.0568819 0.825041 0
M  V30 5188 H 492.815 0.637583 1.57267 0
M  V30 5189 H 491.587 1.15699 3.73804 0
M  V30 5190 H 491.21 -0.5463 3.93829 0
M  V30 5191 N 492.207 -1.54576 0.307264 0
M  V30 5192 C 493.137 -2.26708 -0.55907 0
M  V30 5193 C 494.118 -1.26893 -1.1328 0
M  V30 5194 O 495.303 -1.55677 -1.16097 0
M  V30 5195 C 492.433 -3.01259 -1.72801 0
M  V30 5196 C 491.387 -4.08275 -1.28435 0
M  V30 5197 C 490.713 -4.70575 -2.53895 0
M  V30 5198 C 492.013 -5.2068 -0.411038 0
M  V30 5199 H 493.707 -2.9937 0.042576 0
M  V30 5200 H 491.253 -1.43983 0.0219173 0
M  V30 5201 H 493.206 -3.50444 -2.34023 0
M  V30 5202 H 491.93 -2.26187 -2.356 0
M  V30 5203 H 490.589 -3.59949 -0.695161 0
M  V30 5204 H 490.237 -3.92136 -3.15021 0
M  V30 5205 H 489.937 -5.42854 -2.24908 0
M  V30 5206 H 491.461 -5.22527 -3.15908 0
M  V30 5207 H 492.875 -5.65721 -0.929097 0
M  V30 5208 H 491.272 -5.99716 -0.214664 0
M  V30 5209 H 492.342 -4.81629 0.562287 0
M  V30 5210 O 493.724 -0.174109 -1.60559 0
M  V30 5211 H 494.415 0.415114 -1.892 0
M  V30 END ATOM
M  V30 BEGIN BOND
M  V30 END BOND
M  V30 END CTAB
M  END
$$$$
