drugbank_target|P11488 Guanine nucleotide-binding protein G(t) subunit alpha-1 (DB02994; DB04315; DB04444)
 OpenBabel12092120443D

  0  0  0     0  0            999 V3000
M  V30 BEGIN CTAB
M  V30 COUNTS 5594 5642 0 0 0
M  V30 BEGIN ATOM
M  V30 1 H -0.908 1.98254 -0.117106 0
M  V30 2 N 0 1.576 0 0
M  V30 3 C 0.933 2.03868 1.02534 0
M  V30 4 C 1.911 0.928543 1.3348 0
M  V30 5 O 3.095 1.19667 1.45644 0
M  V30 6 C 0.222 2.43627 2.35294 0
M  V30 7 C -0.732 3.65373 2.2001 0
M  V30 8 S 0.101 5.13292 1.52614 0
M  V30 9 C 1.257 5.56322 2.86805 0
M  V30 10 H 1.49 2.90518 0.631377 0
M  V30 11 H -0.977 1.52953 0.210867 0
M  V30 12 H 0.981 2.67203 3.11629 0
M  V30 13 H -0.358 1.57376 2.7183 0
M  V30 14 H -1.165 3.90944 3.18086 0
M  V30 15 H -1.563 3.418 1.51819 0
M  V30 16 H 0.729 5.58782 3.83104 0
M  V30 17 H 1.672 6.56266 2.65933 0
M  V30 18 H 2.08 4.83886 2.90714 0
M  V30 19 N 1.4781 -0.272755 1.55222 0
M  V30 20 C 2.7261 -1.00234 1.75492 0
M  V30 21 C 3.0471 -1.8681 0.5592 0
M  V30 22 O 2.3171 -1.91215 -0.425882 0
M  V30 23 H 0.8971 -0.373076 0.647166 0
M  V30 24 H 3.5591 -0.296926 1.92625 0
M  V30 25 H 2.6551 -1.63913 2.65592 0
M  V30 26 N 2.9562 -1.48159 -0.537278 0
M  V30 27 C 3.9192 -1.61665 -1.62472 0
M  V30 28 C 4.9192 -0.490395 -1.5314 0
M  V30 29 O 6.1092 -0.755998 -1.5694 0
M  V30 30 C 3.2412 -1.57997 -3.02076 0
M  V30 31 H 4.4342 -2.58621 -1.51839 0
M  V30 32 H 1.9872 -1.36647 -0.758771 0
M  V30 33 H 2.7222 -0.624913 -3.18222 0
M  V30 34 H 2.5072 -2.39755 -3.10258 0
M  V30 35 H 3.9972 -1.70627 -3.81151 0
M  V30 36 N 4.4343 0.785586 -1.36625 0
M  V30 37 C 5.6823 1.54057 -1.30808 0
M  V30 38 C 6.0033 1.94683 0.111157 0
M  V30 39 O 5.2733 1.65241 1.05224 0
M  V30 40 H 3.8533 0.571354 -0.481211 0
M  V30 41 H 6.5153 0.935821 -1.70963 0
M  V30 42 H 5.6113 2.44637 -1.93801 0
M  V30 43 N 5.9124 1.20967 1.01018 0
M  V30 44 C 6.8754 0.965918 2.07853 0
M  V30 45 C 7.8754 -0.0610545 1.60684 0
M  V30 46 O 9.0654 0.175681 1.73312 0
M  V30 47 C 6.1974 0.455513 3.37843 0
M  V30 48 H 7.3904 1.91365 2.3091 0
M  V30 49 H 4.9434 1.02594 1.17916 0
M  V30 50 H 5.6784 -0.497381 3.20463 0
M  V30 51 H 5.4634 1.19622 3.73407 0
M  V30 52 H 6.9534 0.304667 4.16487 0
M  V30 53 N 7.3905 -1.2043 1.01659 0
M  V30 54 C 8.6155 -1.94318 0.724942 0
M  V30 55 C 9.0405 -1.74266 -0.708034 0
M  V30 56 O 8.3985 -1.03694 -1.48719 0
M  V30 57 C 8.4465 -3.44486 1.06591 0
M  V30 58 O 7.5505 -4.12017 0.177599 0
M  V30 59 H 6.8915 -0.60708 0.26898 0
M  V30 60 H 9.4215 -1.52861 1.35995 0
M  V30 61 H 9.4315 -3.95106 1.01762 0
M  V30 62 H 8.1065 -3.58404 2.10997 0
M  V30 63 H 6.6835 -3.71821 0.283421 0
M  V30 64 N 8.8686 -0.792821 -1.36206 0
M  V30 65 C 9.8316 -0.199459 -2.2833 0
M  V30 66 C 10.8316 0.605189 -1.48977 0
M  V30 67 O 12.0216 0.425685 -1.68919 0
M  V30 68 C 9.1536 0.723523 -3.33134 0
M  V30 69 H 10.3466 -1.01181 -2.82316 0
M  V30 70 H 7.8996 -0.562485 -1.45828 0
M  V30 71 H 8.6346 1.56008 -2.84309 0
M  V30 72 H 8.4196 0.148436 -3.91819 0
M  V30 73 H 9.9096 1.13344 -4.01924 0
M  V30 74 N 10.3467 1.47872 -0.545128 0
M  V30 75 C 11.2567 2.33633 0.212746 0
M  V30 76 C 12.2727 1.4744 0.923983 0
M  V30 77 O 13.4487 1.80393 0.895572 0
M  V30 78 C 10.5137 3.23884 1.23693 0
M  V30 79 C 9.5747 4.25961 0.534417 0
M  V30 80 C 8.8077 5.11899 1.5098 0
M  V30 81 O 9.0307 5.00077 2.7437 0
M  V30 82 O 7.9647 5.92831 1.0409 0
M  V30 83 H 11.7907 2.99714 -0.490416 0
M  V30 84 H 9.3757 1.46235 -0.305871 0
M  V30 85 H 11.2577 3.79666 1.82843 0
M  V30 86 H 9.9327 2.60446 1.92222 0
M  V30 87 H 8.8397 3.73972 -0.0979679 0
M  V30 88 H 10.1727 4.92079 -0.109213 0
M  V30 89 N 11.8248 0.280983 1.55075 0
M  V30 90 C 12.7348 -0.61388 2.26426 0
M  V30 91 C 13.7508 -1.16521 1.29224 0
M  V30 92 O 14.9268 -1.19426 1.62171 0
M  V30 93 C 11.9918 -1.7788 2.9759 0
M  V30 94 C 11.0528 -1.26355 4.10284 0
M  V30 95 C 10.2858 -2.37295 4.78045 0
M  V30 96 O 10.5088 -3.56777 4.45047 0
M  V30 97 O 9.4428 -2.05119 5.65871 0
M  V30 98 H 13.2688 -0.0356932 3.03679 0
M  V30 99 H 10.8538 0.0481686 1.49322 0
M  V30 100 H 12.7358 -2.45791 3.42293 0
M  V30 101 H 11.4108 -2.34397 2.23249 0
M  V30 102 H 10.3178 -0.550735 3.70024 0
M  V30 103 H 11.6508 -0.744065 4.86543 0
M  V30 104 N 13.3029 -1.57598 0.00835791 0
M  V30 105 C 14.2499 -2.08945 -0.980346 0
M  V30 106 C 15.2199 -0.986738 -1.33614 0
M  V30 107 O 16.4049 -1.25968 -1.43306 0
M  V30 108 C 13.5449 -2.60425 -2.26435 0
M  V30 109 C 12.6579 -3.84628 -1.96685 0
M  V30 110 C 11.7929 -4.24579 -3.19228 0
M  V30 111 C 10.8319 -5.41596 -2.85202 0
M  V30 112 N 9.9689 -5.768 -4.00307 0
M  V30 113 H 14.8089 -2.93148 -0.535551 0
M  V30 114 H 12.3459 -1.44912 -0.252776 0
M  V30 115 H 14.3039 -2.88354 -3.01509 0
M  V30 116 H 12.9339 -1.79083 -2.68568 0
M  V30 117 H 11.9859 -3.63556 -1.11942 0
M  V30 118 H 13.2979 -4.69796 -1.67611 0
M  V30 119 H 12.4519 -4.53834 -4.02641 0
M  V30 120 H 11.1909 -3.38137 -3.51447 0
M  V30 121 H 10.1959 -5.12056 -2.00198 0
M  V30 122 H 11.4209 -6.29721 -2.54222 0
M  V30 123 H 9.3669 -4.93316 -4.32407 0
M  V30 124 H 9.2839 -6.5656 -3.74786 0
M  V30 125 H 10.5519 -6.10652 -4.84484 0
M  V30 126 N 14.781 0.264519 -1.55364 0
M  V30 127 C 15.731 1.32966 -1.85214 0
M  V30 128 C 16.715 1.44306 -0.711653 0
M  V30 129 O 17.907 1.47844 -0.973192 0
M  V30 130 C 15.036 2.68839 -2.13495 0
M  V30 131 C 14.122 2.61575 -3.33825 0
M  V30 132 N 14.513 2.23933 -4.53528 0
M  V30 133 C 12.811 2.92621 -3.36584 0
M  V30 134 C 13.512 2.26868 -5.35636 0
M  V30 135 N 12.488 2.65677 -4.74254 0
M  V30 136 H 16.29 1.02884 -2.75304 0
M  V30 137 H 13.804 0.473157 -1.55354 0
M  V30 138 H 15.801 3.45685 -2.33039 0
M  V30 139 H 14.461 2.99802 -1.24694 0
M  V30 140 H 15.472 1.95769 -4.79474 0
M  V30 141 H 12.149 3.2824 -2.58002 0
M  V30 142 H 13.539 2.00254 -6.41364 0
M  V30 143 N 16.2591 1.48442 0.529413 0
M  V30 144 C 17.4841 1.60406 1.31471 0
M  V30 145 C 17.9091 0.264738 1.86228 0
M  V30 146 O 17.2671 -0.763668 1.64432 0
M  V30 147 C 17.3151 2.65419 2.44101 0
M  V30 148 O 16.4191 2.22618 3.47153 0
M  V30 149 H 15.7601 0.537863 0.389357 0
M  V30 150 H 18.2901 1.94432 0.636965 0
M  V30 151 H 18.3001 2.86709 2.90279 0
M  V30 152 H 16.9751 3.62652 2.03608 0
M  V30 153 H 15.5521 2.11543 3.0709 0
M  V30 154 N 17.7372 -0.778329 1.37039 0
M  V30 155 C 19.1532 -1.07796 1.17695 0
M  V30 156 C 19.3532 -2.01498 0.00860115 0
M  V30 157 O 18.4092 -2.43901 -0.653352 0
M  V30 158 C 19.7222 -1.68178 2.49272 0
M  V30 159 C 21.2702 -1.80467 2.55735 0
M  V30 160 C 21.7452 -2.44263 3.87427 0
M  V30 161 N 23.2362 -2.51721 3.88833 0
M  V30 162 C 23.9712 -3.01919 4.87476 0
M  V30 163 N 23.4672 -3.5234 5.96513 0
M  V30 164 N 25.2602 -3.00733 4.74885 0
M  V30 165 H 17.4112 -0.156032 2.11826 0
M  V30 166 H 19.6742 -0.131844 0.938787 0
M  V30 167 H 19.3802 -1.06796 3.35093 0
M  V30 168 H 19.2542 -2.67554 2.65885 0
M  V30 169 H 21.6412 -2.40984 1.70325 0
M  V30 170 H 21.7222 -0.798656 2.43013 0
M  V30 171 H 21.3662 -1.84388 4.73248 0
M  V30 172 H 21.2962 -3.45458 3.9745 0
M  V30 173 H 23.7872 -2.1603 3.10063 0
M  V30 174 H 24.1002 -3.89027 6.67741 0
M  V30 175 H 22.4452 -3.50462 6.00168 0
M  V30 176 H 25.6362 -2.60638 3.88826 0
M  V30 177 H 25.8092 -3.39545 5.51918 0
M  V30 178 N 19.2153 -1.21501 -1.00376 0
M  V30 179 C 20.1253 -0.991447 -2.12621 0
M  V30 180 C 21.1413 0.0568446 -1.73907 0
M  V30 181 O 22.3173 -0.13348 -2.00957 0
M  V30 182 C 19.3823 -0.560312 -3.42142 0
M  V30 183 C 18.4433 -1.68096 -3.95022 0
M  V30 184 C 17.6763 -1.2703 -5.18362 0
M  V30 185 O 17.8993 -0.144438 -5.70217 0
M  V30 186 O 16.8333 -2.08269 -5.64719 0
M  V30 187 H 20.6593 -1.93158 -2.34358 0
M  V30 188 H 18.2443 -0.999999 -1.10997 0
M  V30 189 H 20.1263 -0.329724 -4.20108 0
M  V30 190 H 18.8013 0.351089 -3.2179 0
M  V30 191 H 17.7083 -1.96597 -3.18278 0
M  V30 192 H 19.0413 -2.56983 -4.19786 0
M  V30 193 N 20.6934 1.19889 -1.02296 0
M  V30 194 C 21.6234 2.25141 -0.619174 0
M  V30 195 C 22.6044 1.66051 0.368915 0
M  V30 196 O 23.7894 1.92546 0.252941 0
M  V30 197 C 20.9194 3.4728 0.0368783 0
M  V30 198 C 19.8734 4.19005 -0.872865 0
M  V30 199 C 19.1994 5.34637 -0.0822402 0
M  V30 200 C 20.4994 4.74452 -2.18387 0
M  V30 201 H 22.1934 2.59171 -1.49903 0
M  V30 202 H 19.7394 1.24579 -0.722222 0
M  V30 203 H 21.6924 4.20098 0.330958 0
M  V30 204 H 20.4164 3.12433 0.95149 0
M  V30 205 H 19.0754 3.48061 -1.15105 0
M  V30 206 H 18.7234 4.96034 0.83422 0
M  V30 207 H 18.4234 5.83557 -0.688149 0
M  V30 208 H 19.9474 6.10255 0.205238 0
M  V30 209 H 21.3614 5.39055 -1.95172 0
M  V30 210 H 19.7584 5.33834 -2.74119 0
M  V30 211 H 20.8284 3.92844 -2.84257 0
M  V30 212 N 22.1715 0.800033 1.35784 0
M  V30 213 C 23.0815 0.207204 2.33683 0
M  V30 214 C 24.0975 -0.64631 1.61551 0
M  V30 215 O 25.2735 -0.559604 1.93469 0
M  V30 216 C 22.3385 -0.639659 3.40748 0
M  V30 217 C 21.3995 0.233585 4.28664 0
M  V30 218 C 20.6325 -0.572954 5.30616 0
M  V30 219 O 20.8555 -1.80816 5.40982 0
M  V30 220 O 19.7895 0.0327285 6.01891 0
M  V30 221 H 23.6155 1.01692 2.86169 0
M  V30 222 H 21.2005 0.561691 1.38439 0
M  V30 223 H 23.0825 -1.12223 4.06182 0
M  V30 224 H 21.7575 -1.42708 2.90544 0
M  V30 225 H 20.6645 0.763147 3.66233 0
M  V30 226 H 21.9975 0.984784 4.82248 0
M  V30 227 N 23.6496 -1.47581 0.552962 0
M  V30 228 C 24.5966 -2.29957 -0.197108 0
M  V30 229 C 25.5666 -1.38799 -0.912359 0
M  V30 230 O 26.7516 -1.67761 -0.908888 0
M  V30 231 C 23.8916 -3.22672 -1.22379 0
M  V30 232 C 23.0046 -4.28919 -0.515038 0
M  V30 233 C 22.1396 -5.0879 -1.52664 0
M  V30 234 C 21.1786 -6.06815 -0.802631 0
M  V30 235 N 20.3156 -6.7966 -1.76086 0
M  V30 236 H 25.1556 -2.93578 0.511486 0
M  V30 237 H 22.6926 -1.4471 0.264067 0
M  V30 238 H 24.6506 -3.74845 -1.83159 0
M  V30 239 H 23.2806 -2.60925 -1.90047 0
M  V30 240 H 22.3326 -3.79835 0.207192 0
M  V30 241 H 23.6446 -4.98773 0.0523425 0
M  V30 242 H 22.7986 -5.65091 -2.20809 0
M  V30 243 H 21.5376 -4.38828 -2.12794 0
M  V30 244 H 20.5426 -5.49695 -0.107238 0
M  V30 245 H 21.7676 -6.78784 -0.207135 0
M  V30 246 H 19.7136 -6.12432 -2.35081 0
M  V30 247 H 19.6306 -7.45669 -1.24552 0
M  V30 248 H 20.8986 -7.40538 -2.43359 0
M  V30 249 N 25.1277 -0.289203 -1.54924 0
M  V30 250 C 26.0747 0.592115 -2.23075 0
M  V30 251 C 27.0447 1.13881 -1.20915 0
M  V30 252 O 28.2297 1.18551 -1.495 0
M  V30 253 C 25.3697 1.76376 -2.96623 0
M  V30 254 C 24.4827 1.24959 -4.13533 0
M  V30 255 C 23.6177 2.38416 -4.74691 0
M  V30 256 C 22.6567 1.84072 -5.83767 0
M  V30 257 N 21.7937 2.91057 -6.38929 0
M  V30 258 H 26.6337 0.00432038 -2.98 0
M  V30 259 H 24.1707 -0.00963529 -1.47097 0
M  V30 260 H 26.1287 2.45268 -3.3749 0
M  V30 261 H 24.7587 2.32337 -2.24097 0
M  V30 262 H 23.8107 0.453307 -3.77689 0
M  V30 263 H 25.1227 0.811662 -4.92152 0
M  V30 264 H 24.2767 3.15276 -5.18349 0
M  V30 265 H 23.0157 2.8553 -3.95378 0
M  V30 266 H 22.0207 1.05697 -5.39545 0
M  V30 267 H 23.2457 1.37877 -6.64956 0
M  V30 268 H 21.1917 3.37526 -5.62505 0
M  V30 269 H 21.1087 2.51724 -7.12861 0
M  V30 270 H 22.3767 3.6785 -6.87246 0
M  V30 271 N 26.6058 1.57591 -0.0167156 0
M  V30 272 C 27.5358 2.12496 0.967858 0
M  V30 273 C 28.5168 1.03807 1.34752 0
M  V30 274 O 29.7018 1.31577 1.42833 0
M  V30 275 C 26.8318 2.64194 2.25431 0
M  V30 276 C 25.7858 3.77559 2.01576 0
M  V30 277 C 25.1118 4.15636 3.36379 0
M  V30 278 C 26.4118 5.04151 1.36489 0
M  V30 279 H 28.1058 2.95013 0.510643 0
M  V30 280 H 25.6518 1.41915 0.244181 0
M  V30 281 H 27.6048 3.01236 2.94678 0
M  V30 282 H 26.3288 1.78821 2.73296 0
M  V30 283 H 24.9878 3.40937 1.34751 0
M  V30 284 H 24.6358 3.27263 3.81979 0
M  V30 285 H 24.3358 4.92022 3.21229 0
M  V30 286 H 25.8598 4.5525 4.06915 0
M  V30 287 H 27.2738 5.38857 1.95718 0
M  V30 288 H 25.6708 5.85453 1.31776 0
M  V30 289 H 26.7408 4.83733 0.336219 0
M  V30 290 N 28.0839 -0.256276 1.55502 0
M  V30 291 C 29.0309 -1.31714 1.89526 0
M  V30 292 C 30.0009 -1.4828 0.748479 0
M  V30 293 O 31.1859 -1.62416 1.00128 0
M  V30 294 C 28.3259 -2.66933 2.18725 0
M  V30 295 C 27.4389 -2.58452 3.4616 0
M  V30 296 C 26.5739 -3.85961 3.64976 0
M  V30 297 C 25.6129 -3.72059 4.86044 0
M  V30 298 N 24.7499 -4.9144 5.01429 0
M  V30 299 H 29.5899 -1.01998 2.80001 0
M  V30 300 H 27.1269 -0.492413 1.38613 0
M  V30 301 H 29.0849 -3.4563 2.33657 0
M  V30 302 H 27.7149 -2.94816 1.31466 0
M  V30 303 H 26.7669 -1.71374 3.3961 0
M  V30 304 H 28.0789 -2.44085 4.34999 0
M  V30 305 H 27.2329 -4.73101 3.79816 0
M  V30 306 H 25.9719 -4.03215 2.74353 0
M  V30 307 H 24.9769 -2.83302 4.7119 0
M  V30 308 H 26.2019 -3.56309 5.78118 0
M  V30 309 H 24.1479 -5.09072 4.13741 0
M  V30 310 H 24.0649 -4.79668 5.84341 0
M  V30 311 H 25.3329 -5.80104 5.20672 0
M  V30 312 N 29.562 -1.4872 -0.521534 0
M  V30 313 C 30.472 -1.66569 -1.65203 0
M  V30 314 C 31.488 -0.548197 -1.65139 0
M  V30 315 O 32.664 -0.820339 -1.83936 0
M  V30 316 C 29.729 -1.70917 -3.01642 0
M  V30 317 C 28.79 -2.94356 -3.12495 0
M  V30 318 C 28.023 -2.98487 -4.42426 0
M  V30 319 O 28.246 -2.10786 -5.30024 0
M  V30 320 O 27.18 -3.90746 -4.57822 0
M  V30 321 H 31.006 -2.62298 -1.5308 0
M  V30 322 H 28.591 -1.3222 -0.695565 0
M  V30 323 H 30.473 -1.7625 -3.82771 0
M  V30 324 H 29.148 -0.783633 -3.14071 0
M  V30 325 H 28.055 -2.94552 -2.3063 0
M  V30 326 H 29.388 -3.86322 -3.04986 0
M  V30 327 N 31.0401 0.771051 -1.3745 0
M  V30 328 C 32.3171 1.519 -1.23231 0
M  V30 329 C 32.6971 2.10383 0.173809 0
M  V30 330 O 32.0451 1.95583 1.18151 0
M  V30 331 C 32.2551 2.59933 -2.32886 0
M  V30 332 C 33.6031 3.27316 -2.70461 0
M  V30 333 O 34.6271 2.70228 -2.32068 0
M  V30 334 O 33.4861 4.30531 -3.36608 0
M  V30 335 H 30.5801 0.672803 -0.480901 0
M  V30 336 H 33.1261 0.807957 -1.49232 0
M  V30 337 H 31.8981 2.14842 -3.27045 0
M  V30 338 H 31.5211 3.38637 -2.08353 0
M  V30 339 N 32.5182 1.22032 0.997298 0
M  V30 340 C 33.4812 0.987909 2.06816 0
M  V30 341 C 34.4812 -0.0440084 1.6074 0
M  V30 342 O 35.6712 0.194053 1.73116 0
M  V30 343 C 32.8032 0.49132 3.37341 0
M  V30 344 H 33.9962 1.93803 2.28868 0
M  V30 345 H 31.5492 1.03838 1.16822 0
M  V30 346 H 32.2842 -0.463364 3.20973 0
M  V30 347 H 32.0692 1.23575 3.72118 0
M  V30 348 H 33.5592 0.348824 4.16141 0
M  V30 349 N 33.9963 -1.19345 1.0293 0
M  V30 350 C 34.9063 -2.26245 0.620515 0
M  V30 351 C 35.9223 -1.70486 -0.347928 0
M  V30 352 O 37.0983 -2.00347 -0.205704 0
M  V30 353 C 34.1633 -3.46693 -0.0218957 0
M  V30 354 C 33.2243 -4.17632 0.994102 0
M  V30 355 C 32.4573 -5.32329 0.382253 0
M  V30 356 O 32.6803 -5.64552 -0.814676 0
M  V30 357 O 31.6143 -5.91664 1.10531 0
M  V30 358 H 35.4403 -2.63453 1.51083 0
M  V30 359 H 33.0253 -1.26207 0.799513 0
M  V30 360 H 34.9073 -4.19683 -0.380072 0
M  V30 361 H 33.5823 -3.11333 -0.886209 0
M  V30 362 H 32.4893 -3.4676 1.40387 0
M  V30 363 H 33.8223 -4.56964 1.8288 0
M  V30 364 N 35.4744 -0.807222 -1.35358 0
M  V30 365 C 36.4214 -0.216037 -2.29787 0
M  V30 366 C 37.3914 0.650278 -1.52842 0
M  V30 367 O 38.5764 0.595227 -1.81278 0
M  V30 368 C 35.7164 0.628893 -3.39321 0
M  V30 369 C 34.8294 -0.257927 -4.31229 0
M  V30 370 C 33.9644 0.595069 -5.27856 0
M  V30 371 C 33.0034 -0.292111 -6.11403 0
M  V30 372 N 32.1404 0.520895 -7.00165 0
M  V30 373 H 36.9804 -1.02671 -2.79755 0
M  V30 374 H 34.5174 -0.517839 -1.37684 0
M  V30 375 H 36.4754 1.13393 -4.01494 0
M  V30 376 H 35.1054 1.40482 -2.90628 0
M  V30 377 H 34.1574 -0.881076 -3.70056 0
M  V30 378 H 35.4694 -0.940759 -4.89848 0
M  V30 379 H 34.6234 1.16522 -5.95405 0
M  V30 380 H 33.3624 1.31146 -4.69736 0
M  V30 381 H 32.3674 -0.874525 -5.428 0
M  V30 382 H 33.5924 -1.00638 -6.71602 0
M  V30 383 H 31.5384 1.22125 -6.44532 0
M  V30 384 H 31.4554 -0.103877 -7.55929 0
M  V30 385 H 32.7234 1.0743 -7.72062 0
M  V30 386 N 36.9525 1.47285 -0.560781 0
M  V30 387 C 38.2295 1.9558 0.0277798 0
M  V30 388 C 38.6095 1.5034 1.48192 0
M  V30 389 O 37.9575 0.743882 2.16052 0
M  V30 390 C 38.1675 3.48789 -0.121418 0
M  V30 391 C 39.5155 4.24594 0.0220912 0
M  V30 392 O 40.5395 3.56166 -0.0491439 0
M  V30 393 O 39.3985 5.46217 0.175958 0
M  V30 394 H 36.4925 0.824663 0.0621342 0
M  V30 395 H 39.0385 1.5767 -0.627556 0
M  V30 396 H 37.8105 3.74533 -1.13316 0
M  V30 397 H 37.4335 3.93473 0.571366 0
M  V30 398 N 38.4306 0.297415 1.54768 0
M  V30 399 C 39.3936 -0.567375 2.22066 0
M  V30 400 C 40.3936 -1.06409 1.20556 0
M  V30 401 O 41.5836 -0.960691 1.45315 0
M  V30 402 C 38.7156 -1.78517 2.90421 0
M  V30 403 H 39.9086 0.0205534 2.99893 0
M  V30 404 H 37.4616 0.0482163 1.56226 0
M  V30 405 H 38.1966 -2.41303 2.16664 0
M  V30 406 H 37.9816 -1.43669 3.64831 0
M  V30 407 H 39.4716 -2.39964 3.41771 0
M  V30 408 N 39.9087 -1.5758 0.0250728 0
M  V30 409 C 41.3247 -1.56124 -0.331282 0
M  V30 410 C 41.5247 -1.03029 -1.73169 0
M  V30 411 O 40.5807 -0.675215 -2.43305 0
M  V30 412 C 41.8937 -3.00139 -0.183584 0
M  V30 413 C 43.4417 -3.11946 -0.256654 0
M  V30 414 C 43.9167 -4.57793 -0.137792 0
M  V30 415 N 45.4077 -4.6279 -0.194904 0
M  V30 416 C 46.1427 -5.7326 -0.126655 0
M  V30 417 N 45.6387 -6.928 -0.00755288 0
M  V30 418 N 47.4317 -5.61811 -0.180348 0
M  V30 419 H 39.5827 -1.90424 0.94087 0
M  V30 420 H 41.8457 -0.875761 0.362968 0
M  V30 421 H 41.5517 -3.4292 0.780927 0
M  V30 422 H 41.4257 -3.64899 -0.955448 0
M  V30 423 H 43.8127 -2.69079 -1.21162 0
M  V30 424 H 43.8937 -2.49915 0.545517 0
M  V30 425 H 43.5377 -5.01339 0.813739 0
M  V30 426 H 43.4677 -5.17798 -0.958775 0
M  V30 427 H 45.9587 -3.76807 -0.287267 0
M  V30 428 H 46.2717 -7.72791 0.0379428 0
M  V30 429 H 44.6167 -6.94995 0.0271731 0
M  V30 430 H 47.8077 -4.6731 -0.271767 0
M  V30 431 H 47.9807 -6.47882 -0.123697 0
M  V30 432 N 41.3868 0.248026 -1.55636 0
M  V30 433 C 42.6148 0.993808 -1.81469 0
M  V30 434 C 43.0298 1.78991 -0.60064 0
M  V30 435 O 42.3868 1.77345 0.430682 0
M  V30 436 C 42.4378 1.93258 -3.05506 0
M  V30 437 O 42.1588 1.16869 -4.22224 0
M  V30 438 C 43.6598 2.79444 -3.4413 0
M  V30 439 H 40.8798 0.292486 -0.603898 0
M  V30 440 H 43.4238 0.271253 -2.02693 0
M  V30 441 H 41.5788 2.60943 -2.86335 0
M  V30 442 H 41.9928 1.80359 -4.92515 0
M  V30 443 H 43.4668 3.41066 -4.34026 0
M  V30 444 H 43.9438 3.50499 -2.64665 0
M  V30 445 H 44.5498 2.17214 -3.65648 0
M  V30 446 N 42.8649 1.48995 0.513639 0
M  V30 447 C 44.1109 1.58076 1.27042 0
M  V30 448 C 44.4439 0.261026 1.92438 0
M  V30 449 O 43.7189 -0.734393 1.80103 0
M  V30 450 C 44.0019 2.73091 2.34719 0
M  V30 451 C 43.8549 4.14821 1.73907 0
M  V30 452 C 45.1739 2.83796 3.36375 0
M  V30 453 H 42.2929 0.575391 0.460536 0
M  V30 454 H 44.9349 1.81232 0.570516 0
M  V30 455 H 43.0849 2.53479 2.94416 0
M  V30 456 H 44.7569 4.45917 1.18135 0
M  V30 457 H 42.9999 4.21058 1.0437 0
M  V30 458 H 43.6709 4.91147 2.51949 0
M  V30 459 H 46.1469 3.01611 2.86653 0
M  V30 460 H 45.0229 3.65971 4.09093 0
M  V30 461 H 45.2839 1.92624 3.9793 0
M  V30 462 N 44.343 -0.763751 1.37857 0
M  V30 463 C 45.29 -1.87726 1.34267 0
M  V30 464 C 46.26 -1.64807 0.206879 0
M  V30 465 O 47.445 -1.86613 0.397508 0
M  V30 466 C 44.585 -3.24896 1.16346 0
M  V30 467 C 43.698 -3.59716 2.39225 0
M  V30 468 C 42.833 -4.86137 2.14114 0
M  V30 469 C 41.872 -5.13711 3.32817 0
M  V30 470 N 41.009 -6.31323 3.07206 0
M  V30 471 H 45.849 -1.90129 2.29466 0
M  V30 472 H 43.386 -0.929433 1.14017 0
M  V30 473 H 45.344 -4.04036 1.03975 0
M  V30 474 H 43.974 -3.21847 0.247909 0
M  V30 475 H 43.026 -2.75498 2.62307 0
M  V30 476 H 44.338 -3.76027 3.27728 0
M  V30 477 H 43.492 -5.73198 1.9882 0
M  V30 478 H 42.231 -4.71945 1.22961 0
M  V30 479 H 41.236 -4.25123 3.48641 0
M  V30 480 H 42.461 -5.29807 4.24832 0
M  V30 481 H 40.407 -6.18474 2.1869 0
M  V30 482 H 40.324 -6.48087 3.89254 0
M  V30 483 H 41.592 -7.213 2.95546 0
M  V30 484 N 45.8211 -1.22559 -0.990812 0
M  V30 485 C 46.7511 -1.0218 -2.09956 0
M  V30 486 C 47.7321 0.0579394 -1.70001 0
M  V30 487 O 48.9171 -0.104684 -1.93918 0
M  V30 488 C 46.0471 -0.601023 -3.4206 0
M  V30 489 C 45.0011 -1.62694 -3.95872 0
M  V30 490 C 44.3271 -1.06193 -5.24049 0
M  V30 491 C 45.6271 -3.01743 -4.2632 0
M  V30 492 H 47.3211 -1.94916 -2.27262 0
M  V30 493 H 44.8671 -0.938566 -1.09211 0
M  V30 494 H 46.8201 -0.445561 -4.19038 0
M  V30 495 H 45.5441 0.362005 -3.24588 0
M  V30 496 H 44.2031 -1.77021 -3.21028 0
M  V30 497 H 43.8511 -0.0901903 -5.02919 0
M  V30 498 H 43.5511 -1.74732 -5.61019 0
M  V30 499 H 45.0751 -0.918092 -6.03658 0
M  V30 500 H 46.4891 -2.90777 -4.94087 0
M  V30 501 H 44.8861 -3.67425 -4.74467 0
M  V30 502 H 45.9561 -3.51518 -3.34011 0
M  V30 503 N 47.2992 1.18797 -1.03562 0
M  V30 504 C 48.2292 2.24472 -0.643019 0
M  V30 505 C 49.2102 1.66433 0.351283 0
M  V30 506 O 50.3952 1.92803 0.232505 0
M  V30 507 C 47.5252 3.473 4.24935e-05 0
M  V30 508 C 46.4792 4.18055 -0.917257 0
M  V30 509 C 45.8052 5.34519 -0.138941 0
M  V30 510 C 47.1052 4.72109 -2.23407 0
M  V30 511 H 48.7992 2.57566 -1.52643 0
M  V30 512 H 46.3452 1.23806 -0.735394 0
M  V30 513 H 48.2982 4.20426 0.286383 0
M  V30 514 H 47.0222 3.13424 0.918299 0
M  V30 515 H 45.6812 3.46821 -1.1879 0
M  V30 516 H 45.3292 4.96891 0.781562 0
M  V30 517 H 45.0292 5.82794 -0.750005 0
M  V30 518 H 46.5532 6.10438 0.1405 0
M  V30 519 H 47.9672 5.36955 -2.00879 0
M  V30 520 H 46.3642 5.30897 -2.79765 0
M  V30 521 H 47.4342 3.89807 -2.88407 0
M  V30 522 N 48.7773 0.814389 1.34928 0
M  V30 523 C 49.7073 0.244827 2.32213 0
M  V30 524 C 50.6883 -0.634024 1.57842 0
M  V30 525 O 51.8733 -0.562676 1.8587 0
M  V30 526 C 49.0033 -0.601106 3.42058 0
M  V30 527 C 47.9573 0.179896 4.27622 0
M  V30 528 C 47.2833 -0.788237 5.28858 0
M  V30 529 C 48.5833 1.38329 5.03649 0
M  V30 530 H 50.2773 1.05763 2.80097 0
M  V30 531 H 47.8233 0.510029 1.34665 0
M  V30 532 H 49.7763 -1.00968 4.09125 0
M  V30 533 H 48.5003 -1.44688 2.92802 0
M  V30 534 H 47.1593 0.569739 3.62146 0
M  V30 535 H 46.8073 -1.62973 4.75866 0
M  V30 536 H 46.5073 -0.269942 5.8698 0
M  V30 537 H 48.0313 -1.19485 5.98795 0
M  V30 538 H 49.4453 1.04918 5.63618 0
M  V30 539 H 47.8423 1.83662 5.71304 0
M  V30 540 H 48.9123 2.16592 4.33839 0
M  V30 541 N 50.2554 -1.46986 0.568584 0
M  V30 542 C 51.1854 -2.32946 -0.160753 0
M  V30 543 C 52.1664 -1.44487 -0.897631 0
M  V30 544 O 53.3514 -1.73327 -0.875867 0
M  V30 545 C 50.4814 -3.26494 -1.18403 0
M  V30 546 C 49.4354 -4.24282 -0.562895 0
M  V30 547 C 48.7614 -5.07236 -1.69163 0
M  V30 548 C 50.0614 -5.19989 0.490761 0
M  V30 549 H 51.7554 -2.94175 0.556916 0
M  V30 550 H 49.3014 -1.4146 0.26927 0
M  V30 551 H 51.2544 -3.85477 -1.70251 0
M  V30 552 H 49.9784 -2.63343 -1.93179 0
M  V30 553 H 48.6374 -3.66541 -0.0656164 0
M  V30 554 H 48.2854 -4.4048 -2.42871 0
M  V30 555 H 47.9854 -5.7345 -1.28174 0
M  V30 556 H 49.5094 -5.6908 -2.21314 0
M  V30 557 H 50.9234 -5.73271 0.0579047 0
M  V30 558 H 49.3204 -5.94469 0.820165 0
M  V30 559 H 50.3904 -4.64777 1.3824 0
M  V30 560 N 51.7335 -0.305618 -1.54608 0
M  V30 561 C 52.9815 0.301701 -1.99835 0
M  V30 562 C 53.3025 1.54054 -1.19551 0
M  V30 563 O 52.5725 1.93702 -0.292658 0
M  V30 564 H 51.1525 0.114468 -0.738178 0
M  V30 565 H 53.8145 -0.418016 -1.90364 0
M  V30 566 H 52.9105 0.570548 -3.06841 0
M  V30 567 N 53.2116 1.57565 -0.0334293 0
M  V30 568 C 54.1746 2.09393 0.932048 0
M  V30 569 C 55.1746 1.00986 1.25134 0
M  V30 570 O 56.3646 1.27129 1.19096 0
M  V30 571 C 53.4966 2.56338 2.2473 0
M  V30 572 H 54.6896 2.95984 0.483085 0
M  V30 573 H 52.2426 1.54819 0.21468 0
M  V30 574 H 52.9776 1.7309 2.74245 0
M  V30 575 H 52.7626 3.35542 2.02865 0
M  V30 576 H 54.2526 2.96646 2.93923 0
M  V30 577 N 54.6897 -0.239769 1.55765 0
M  V30 578 C 55.9377 -0.964892 1.77579 0
M  V30 579 C 56.2587 -1.85582 0.598699 0
M  V30 580 O 55.5287 -1.92075 -0.385226 0
M  V30 581 H 54.1087 -0.359265 0.654933 0
M  V30 582 H 56.7707 -0.256001 1.93211 0
M  V30 583 H 55.8667 -1.58243 2.69009 0
M  V30 584 N 56.1678 -1.49265 -0.50573 0
M  V30 585 C 57.0778 -1.68312 -1.63427 0
M  V30 586 C 58.0938 -0.565682 -1.64548 0
M  V30 587 O 59.2698 -0.839801 -1.83055 0
M  V30 588 C 56.3348 -1.74107 -2.99813 0
M  V30 589 C 55.3958 -2.97653 -3.09356 0
M  V30 590 C 54.6288 -3.03163 -4.39236 0
M  V30 591 O 54.8518 -2.16396 -5.27758 0
M  V30 592 O 53.7858 -3.9558 -4.53652 0
M  V30 593 H 57.6118 -2.63907 -1.50289 0
M  V30 594 H 55.1968 -1.32951 -0.681502 0
M  V30 595 H 57.0788 -1.803 -3.80881 0
M  V30 596 H 55.7538 -0.816901 -3.13223 0
M  V30 597 H 54.6608 -2.96981 -2.27493 0
M  V30 598 H 55.9938 -3.89535 -3.00871 0
M  V30 599 N 57.6459 0.756429 -1.3826 0
M  V30 600 C 58.8709 1.55077 -1.37717 0
M  V30 601 C 59.2959 1.88073 0.03164 0
M  V30 602 O 58.6539 1.50364 1.01293 0
M  V30 603 C 58.7019 2.8283 -2.23695 0
M  V30 604 O 57.8059 3.77862 -1.6521 0
M  V30 605 H 57.1469 0.469152 -0.469885 0
M  V30 606 H 59.6769 0.935019 -1.81985 0
M  V30 607 H 59.6869 3.31783 -2.37453 0
M  V30 608 H 58.3619 2.58144 -3.2609 0
M  V30 609 H 56.9389 3.36555 -1.60578 0
M  V30 610 N 59.124 1.23083 0.984299 0
M  V30 611 C 60.372 1.05848 1.72165 0
M  V30 612 C 60.693 -0.406049 1.90726 0
M  V30 613 O 59.963 -1.29139 1.47309 0
M  V30 614 H 58.543 0.388685 0.637913 0
M  V30 615 H 61.205 1.54736 1.18503 0
M  V30 616 H 60.301 1.54327 2.71274 0
M  V30 617 N 60.6021 -1.18246 1.0419 0
M  V30 618 C 61.5491 -2.2192 0.634037 0
M  V30 619 C 62.5191 -1.62179 -0.358765 0
M  V30 620 O 63.7041 -1.89122 -0.252466 0
M  V30 621 C 60.8441 -3.451 0.00445535 0
M  V30 622 C 59.9571 -4.19174 1.04487 0
M  V30 623 C 59.0921 -5.29813 0.383676 0
M  V30 624 C 58.1311 -5.9566 1.4091 0
M  V30 625 N 57.2681 -6.97834 0.772784 0
M  V30 626 H 62.1081 -2.56164 1.52263 0
M  V30 627 H 59.6451 -1.25843 0.761701 0
M  V30 628 H 61.6031 -4.15485 -0.377919 0
M  V30 629 H 60.2331 -3.11472 -0.847652 0
M  V30 630 H 59.2851 -3.47604 1.54518 0
M  V30 631 H 60.5971 -4.64267 1.82368 0
M  V30 632 H 59.7511 -6.06677 -0.0528366 0
M  V30 633 H 58.4901 -4.85825 -0.427208 0
M  V30 634 H 57.4951 -5.17535 1.85574 0
M  V30 635 H 58.7201 -6.4173 2.22171 0
M  V30 636 H 56.6661 -6.55998 -0.0177708 0
M  V30 637 H 56.5831 -7.41186 1.48928 0
M  V30 638 H 57.8511 -7.78665 0.36071 0
M  V30 639 N 62.0802 -0.821533 -1.34494 0
M  V30 640 C 63.3052 -0.420873 -2.03085 0
M  V30 641 C 63.7302 0.964915 -1.61465 0
M  V30 642 O 63.0882 1.62763 -0.798607 0
M  V30 643 C 63.1362 -0.529414 -3.56693 0
M  V30 644 O 62.2402 0.451302 -4.09923 0
M  V30 645 H 61.5812 -0.173489 -0.640935 0
M  V30 646 H 64.1112 -1.11157 -1.71771 0
M  V30 647 H 64.1212 -0.404671 -4.05988 0
M  V30 648 H 62.7962 -1.54014 -3.86332 0
M  V30 649 H 61.3732 0.285558 -3.71805 0
M  V30 650 N 63.5583 1.46682 -0.576371 0
M  V30 651 C 64.7863 2.06798 -0.0649635 0
M  V30 652 C 65.2013 1.42612 1.23723 0
M  V30 653 O 64.5583 0.529203 1.74659 0
M  V30 654 C 64.6093 3.6132 0.114202 0
M  V30 655 O 64.3303 4.23104 -1.13644 0
M  V30 656 C 65.8313 4.38349 0.66069 0
M  V30 657 H 63.0513 0.668778 -0.0545616 0
M  V30 658 H 65.5953 1.88404 -0.795237 0
M  V30 659 H 63.7503 3.79162 0.794673 0
M  V30 660 H 64.1643 5.15894 -0.946253 0
M  V30 661 H 65.6383 5.47081 0.73526 0
M  V30 662 H 66.1153 4.05953 1.67627 0
M  V30 663 H 66.7213 4.25297 0.0152951 0
M  V30 664 N 65.0364 0.313813 1.54444 0
M  V30 665 C 66.2854 -0.292519 1.99568 0
M  V30 666 C 66.5984 -1.54011 1.20582 0
M  V30 667 O 67.8044 -2.22183 1.56035 0
M  V30 668 C 66.2604 -0.571752 3.55329 0
M  V30 669 C 65.8684 0.658229 4.43138 0
M  V30 670 C 67.6124 -1.13857 4.08946 0
M  V30 671 C 65.5194 0.351439 5.90355 0
M  V30 672 H 64.4494 -0.113079 0.745472 0
M  V30 673 H 67.1004 0.424518 1.78522 0
M  V30 674 H 65.4824 -1.34872 3.72325 0
M  V30 675 H 66.6564 1.43403 4.37918 0
M  V30 676 H 64.9714 1.14458 4.0036 0
M  V30 677 H 67.5684 -1.38257 5.16516 0
M  V30 678 H 67.9114 -2.08489 3.6033 0
M  V30 679 H 68.4444 -0.423015 3.95544 0
M  V30 680 H 65.1834 1.26667 6.43145 0
M  V30 681 H 64.7034 -0.386842 5.98551 0
M  V30 682 H 66.3824 -0.0423134 6.46986 0
M  V30 683 N 66.5145 -1.57545 0.0417849 0
M  V30 684 C 67.7605 -1.92601 -0.635021 0
M  V30 685 C 68.0935 -0.919627 -1.71045 0
M  V30 686 O 67.3685 0.0557892 -1.9442 0
M  V30 687 C 67.6515 -3.38085 -1.23979 0
M  V30 688 C 67.5045 -4.49467 -0.173057 0
M  V30 689 C 68.8235 -3.83776 -2.15416 0
M  V30 690 H 65.9425 -0.700397 -0.229374 0
M  V30 691 H 68.5845 -1.89728 0.101633 0
M  V30 692 H 66.7345 -3.40664 -1.86762 0
M  V30 693 H 68.4065 -4.59018 0.458312 0
M  V30 694 H 66.6495 -4.30909 0.499996 0
M  V30 695 H 67.3205 -5.48323 -0.636054 0
M  V30 696 H 69.7965 -3.83013 -1.62605 0
M  V30 697 H 68.6725 -4.8624 -2.54679 0
M  V30 698 H 68.9335 -3.19998 -3.05047 0
M  V30 699 N 67.9926 0.231505 -1.5589 0
M  V30 700 C 68.9396 1.28682 -1.91598 0
M  V30 701 C 69.9096 1.47071 -0.771974 0
M  V30 702 O 71.0946 1.60802 -1.027 0
M  V30 703 C 68.2346 2.6342 -2.22944 0
M  V30 704 C 67.3476 2.52912 -3.50228 0
M  V30 705 C 66.4826 3.80106 -3.7107 0
M  V30 706 C 65.5216 3.64279 -4.91902 0
M  V30 707 N 64.6586 4.834 -5.09184 0
M  V30 708 H 69.4986 0.975305 -2.81588 0
M  V30 709 H 67.0356 0.470299 -1.39379 0
M  V30 710 H 68.9936 3.41869 -2.39126 0
M  V30 711 H 67.6236 2.92687 -1.36139 0
M  V30 712 H 66.6756 1.6595 -3.42294 0
M  V30 713 H 67.9876 2.37133 -4.38827 0
M  V30 714 H 67.1416 4.66999 -3.87295 0
M  V30 715 H 65.8806 3.98799 -2.80733 0
M  V30 716 H 64.8856 2.7577 -4.75637 0
M  V30 717 H 66.1106 3.47067 -5.83714 0
M  V30 718 H 64.0566 5.02425 -4.21788 0
M  V30 719 H 63.9736 4.70311 -5.91898 0
M  V30 720 H 65.2416 5.71747 -5.29835 0
M  V30 721 N 69.4707 1.49531 0.497807 0
M  V30 722 C 70.4027 1.62559 1.61578 0
M  V30 723 C 71.4157 0.508134 1.54667 0
M  V30 724 O 72.6047 0.780309 1.60541 0
M  V30 725 C 69.7047 1.56925 3.00379 0
M  V30 726 C 68.8777 2.84257 3.3244 0
M  V30 727 C 67.9367 2.71632 4.50669 0
M  V30 728 O 66.9627 3.4557 4.52294 0
M  V30 729 N 68.1647 1.83391 5.5077 0
M  V30 730 H 70.9297 2.58981 1.50828 0
M  V30 731 H 68.4907 1.4666 0.685743 0
M  V30 732 H 70.4827 1.46129 3.77397 0
M  V30 733 H 69.0527 0.683483 3.05037 0
M  V30 734 H 68.2727 3.09381 2.44289 0
M  V30 735 H 69.5607 3.68666 3.5066 0
M  V30 736 H 68.9587 1.22583 5.52259 0
M  V30 737 H 67.5157 1.78515 6.26878 0
M  V30 738 N 70.9488 -0.749086 1.3866 0
M  V30 739 C 71.8818 -1.87111 1.30631 0
M  V30 740 C 72.8598 -1.61572 0.18251 0
M  V30 741 O 74.0438 -1.85019 0.360592 0
M  V30 742 C 71.1708 -3.22815 1.02511 0
M  V30 743 C 70.2168 -3.67234 2.1689 0
M  V30 744 S 71.0498 -3.78245 3.79066 0
M  V30 745 C 72.2058 -5.16761 3.53142 0
M  V30 746 H 72.4388 -1.93636 2.25594 0
M  V30 747 H 69.9718 -0.912525 1.24549 0
M  V30 748 H 71.9298 -4.01181 0.869701 0
M  V30 749 H 70.5908 -3.13964 0.0925884 0
M  V30 750 H 69.7838 -4.65677 1.92771 0
M  V30 751 H 69.3858 -2.96034 2.28561 0
M  V30 752 H 71.6778 -6.02656 3.09534 0
M  V30 753 H 72.6208 -5.45902 4.50995 0
M  V30 754 H 73.0288 -4.85771 2.87554 0
M  V30 755 N 72.4269 -1.23603 -0.977757 0
M  V30 756 C 73.3739 -1.01954 -2.07061 0
M  V30 757 C 74.3439 0.0638697 -1.65977 0
M  V30 758 O 75.5289 -0.0887624 -1.90593 0
M  V30 759 C 72.6689 -0.619658 -3.39491 0
M  V30 760 C 71.7819 -1.77547 -3.93829 0
M  V30 761 C 70.9169 -1.32212 -5.14484 0
M  V30 762 C 69.9559 -2.44852 -5.60994 0
M  V30 763 N 69.0929 -2.00456 -6.72876 0
M  V30 764 H 73.9329 -1.95495 -2.24913 0
M  V30 765 H 71.4699 -0.973861 -1.10247 0
M  V30 766 H 73.4279 -0.368898 -4.15566 0
M  V30 767 H 72.0579 0.278752 -3.21594 0
M  V30 768 H 71.1099 -2.14016 -3.14486 0
M  V30 769 H 72.4219 -2.62219 -4.24314 0
M  V30 770 H 71.5759 -1.02965 -5.97899 0
M  V30 771 H 70.3149 -0.445808 -4.85658 0
M  V30 772 H 69.3199 -2.74871 -4.76157 0
M  V30 773 H 70.5449 -3.33024 -5.91837 0
M  V30 774 H 68.4909 -1.15208 -6.45804 0
M  V30 775 H 68.4079 -2.78687 -7.02759 0
M  V30 776 H 69.6759 -1.7432 -7.59758 0
M  V30 777 N 73.905 1.17692 -1.04816 0
M  V30 778 C 75.154 1.87192 -0.751132 0
M  V30 779 C 75.467 1.8169 0.724441 0
M  V30 780 O 76.673 2.46625 1.13527 0
M  V30 781 C 75.129 3.35857 -1.29338 0
M  V30 782 C 74.737 3.4987 -2.79812 0
M  V30 783 C 76.481 4.10709 -1.07322 0
M  V30 784 C 74.388 4.92536 -3.27356 0
M  V30 785 H 73.318 0.701162 -0.277288 0
M  V30 786 H 75.969 1.32932 -1.26496 0
M  V30 787 H 74.351 3.89631 -0.707376 0
M  V30 788 H 75.525 3.06332 -3.44235 0
M  V30 789 H 73.84 2.88433 -3.00325 0
M  V30 790 H 76.437 5.15952 -1.4035 0
M  V30 791 H 76.78 4.16299 -0.0108001 0
M  V30 792 H 77.313 3.6313 -1.62423 0
M  V30 793 H 74.052 4.92119 -4.33012 0
M  V30 794 H 73.572 5.3676 -2.67673 0
M  V30 795 H 75.251 5.61288 -3.21815 0
M  V30 796 N 75.3831 0.828654 1.34056 0
M  V30 797 C 76.6321 0.415828 1.97367 0
M  V30 798 C 76.9451 -1.02796 1.6641 0
M  V30 799 O 78.1511 -1.54497 2.23255 0
M  V30 800 C 76.6071 0.692601 3.53173 0
M  V30 801 C 76.2151 2.15038 3.93017 0
M  V30 802 C 77.9591 0.346222 4.23086 0
M  V30 803 C 75.8661 2.37174 5.41758 0
M  V30 804 H 74.7961 0.151755 0.738571 0
M  V30 805 H 77.4471 1.01581 1.52819 0
M  V30 806 H 75.8291 0.0223764 3.95994 0
M  V30 807 H 77.0031 2.86024 3.61285 0
M  V30 808 H 75.3181 2.45875 3.36057 0
M  V30 809 H 77.9151 0.48937 5.32456 0
M  V30 810 H 78.2581 -0.709842 4.10204 0
M  V30 811 H 78.7911 0.971258 3.85761 0
M  V30 812 H 75.5301 3.41308 5.59633 0
M  V30 813 H 75.0501 1.70738 5.74986 0
M  V30 814 H 76.7291 2.19818 6.08514 0
M  V30 815 N 76.8612 -1.46375 0.584142 0
M  V30 816 C 77.8112 -2.27371 -0.169232 0
M  V30 817 C 78.7952 -1.35955 -0.860523 0
M  V30 818 O 79.9872 -1.60119 -0.754382 0
M  V30 819 C 77.1162 -3.22334 -1.18134 0
M  V30 820 C 76.2022 -4.21235 -0.492088 0
M  V30 821 N 76.5932 -5.03766 0.453129 0
M  V30 822 C 74.8912 -4.39773 -0.742652 0
M  V30 823 C 75.5922 -5.75366 0.85609 0
M  V30 824 N 74.5682 -5.43214 0.204926 0
M  V30 825 H 78.3702 -2.88572 0.557097 0
M  V30 826 H 75.8842 -1.57242 0.406042 0
M  V30 827 H 77.8812 -3.79071 -1.73525 0
M  V30 828 H 76.5412 -2.62693 -1.90847 0
M  V30 829 H 77.5522 -5.11227 0.828723 0
M  V30 830 H 74.2292 -3.91279 -1.45625 0
M  V30 831 H 75.6192 -6.5172 1.63434 0
M  V30 832 N 78.3393 -0.321999 -1.54275 0
M  V30 833 C 79.2713 0.578671 -2.21775 0
M  V30 834 C 80.2843 1.08109 -1.21722 0
M  V30 835 O 81.4733 0.994938 -1.482 0
M  V30 836 C 78.5733 1.80661 -2.86731 0
M  V30 837 C 77.7463 1.44314 -4.12907 0
M  V30 838 C 76.8053 2.52845 -4.61472 0
M  V30 839 O 75.8313 2.17054 -5.2619 0
M  V30 840 N 77.0333 3.83748 -4.35566 0
M  V30 841 H 79.7983 0.000709447 -2.997 0
M  V30 842 H 77.3593 -0.145132 -1.61248 0
M  V30 843 H 79.3513 2.52655 -3.16145 0
M  V30 844 H 77.9213 2.29245 -2.12521 0
M  V30 845 H 77.1413 0.554906 -3.90275 0
M  V30 846 H 78.4293 1.17598 -4.95023 0
M  V30 847 H 77.8273 4.15625 -3.83761 0
M  V30 848 H 76.3843 4.51977 -4.69638 0
M  V30 849 N 79.8174 1.5752 -0.0501392 0
M  V30 850 C 81.0944 1.83996 0.663685 0
M  V30 851 C 81.4744 0.938339 1.89099 0
M  V30 852 O 80.8224 -0.00087759 2.285 0
M  V30 853 C 81.0324 3.33702 1.02196 0
M  V30 854 C 82.3804 4.00691 1.40469 0
M  V30 855 O 83.4044 3.38321 1.11433 0
M  V30 856 O 82.2634 5.10658 1.94654 0
M  V30 857 H 79.3574 0.759385 0.32751 0
M  V30 858 H 81.9034 1.69514 -0.0794238 0
M  V30 859 H 80.6754 3.91015 0.149364 0
M  V30 860 H 80.2984 3.53368 1.82255 0
M  V30 861 N 81.2955 -0.223234 1.56011 0
M  V30 862 C 82.5435 -0.946003 1.78592 0
M  V30 863 C 82.8645 -1.84936 0.618349 0
M  V30 864 O 82.1345 -1.92473 -0.364833 0
M  V30 865 H 80.7145 -0.352298 0.658707 0
M  V30 866 H 83.3765 -0.235494 1.93472 0
M  V30 867 H 82.4725 -1.55381 2.70672 0
M  V30 868 N 82.7736 -1.49793 -0.48987 0
M  V30 869 C 84.0036 -1.6333 -1.26518 0
M  V30 870 C 84.4116 -0.308392 -1.8667 0
M  V30 871 O 83.7546 0.717512 -1.69108 0
M  V30 872 C 83.8166 -2.6522 -2.4269 0
M  V30 873 C 83.4806 -4.09279 -2.03321 0
M  V30 874 C 84.4776 -4.95738 -1.56652 0
M  V30 875 C 82.1626 -4.55082 -2.12616 0
M  V30 876 C 84.1566 -6.26041 -1.19795 0
M  V30 877 C 81.8436 -5.85396 -1.75371 0
M  V30 878 C 82.8416 -6.707 -1.29036 0
M  V30 879 O 82.5296 -7.98584 -0.92299 0
M  V30 880 H 82.2616 -0.552502 -0.389509 0
M  V30 881 H 84.8156 -1.96642 -0.593381 0
M  V30 882 H 83.0456 -2.27112 -3.12981 0
M  V30 883 H 84.7346 -2.68171 -3.04695 0
M  V30 884 H 85.5006 -4.61575 -1.48908 0
M  V30 885 H 81.3796 -3.88844 -2.47631 0
M  V30 886 H 84.9236 -6.92578 -0.835582 0
M  V30 887 H 80.8206 -6.19085 -1.82768 0
M  V30 888 H 81.5886 -8.11692 -1.05349 0
M  V30 889 N 84.2517 0.741722 -1.39055 0
M  V30 890 C 85.4767 1.53607 -1.39354 0
M  V30 891 C 85.9017 1.88096 0.0116905 0
M  V30 892 O 85.2597 1.5143 0.996924 0
M  V30 893 C 85.3077 2.80441 -2.26682 0
M  V30 894 O 84.4117 3.76088 -1.69208 0
M  V30 895 H 83.7527 0.464142 -0.474835 0
M  V30 896 H 86.2827 0.915665 -1.82967 0
M  V30 897 H 86.2927 3.29246 -2.40959 0
M  V30 898 H 84.9677 2.5467 -3.2881 0
M  V30 899 H 83.5447 3.34833 -1.64138 0
M  V30 900 N 85.7298 1.2412 0.971189 0
M  V30 901 C 86.6598 1.05508 2.08304 0
M  V30 902 C 87.6408 -0.0308864 1.70072 0
M  V30 903 O 88.8258 0.135521 1.93727 0
M  V30 904 C 85.9558 0.655365 3.4106 0
M  V30 905 C 84.9098 1.68971 3.93234 0
M  V30 906 C 84.2358 1.14516 5.22293 0
M  V30 907 C 85.5358 3.08487 4.21465 0
M  V30 908 H 87.2298 1.98507 2.24132 0
M  V30 909 H 84.7758 0.955821 1.07704 0
M  V30 910 H 86.7288 0.51217 4.18276 0
M  V30 911 H 85.4528 -0.31032 3.25122 0
M  V30 912 H 84.1118 1.82106 3.18171 0
M  V30 913 H 83.7598 0.170189 5.02712 0
M  V30 914 H 83.4598 1.83635 5.58168 0
M  V30 915 H 84.9838 1.01401 6.02121 0
M  V30 916 H 86.3978 2.98601 4.89398 0
M  V30 917 H 84.7948 3.74926 4.68562 0
M  V30 918 H 85.8648 3.56787 3.28376 0
M  V30 919 N 87.2079 -1.17134 1.05439 0
M  V30 920 C 88.1179 -2.24878 0.668365 0
M  V30 921 C 89.1339 -1.71186 -0.311687 0
M  V30 922 O 90.3099 -2.00738 -0.163161 0
M  V30 923 C 87.3749 -3.46662 0.051648 0
M  V30 924 C 86.4359 -4.15429 1.08246 0
M  V30 925 C 85.6689 -5.31399 0.495082 0
M  V30 926 O 85.8919 -5.66153 -0.694743 0
M  V30 927 O 84.8259 -5.89187 1.23056 0
M  V30 928 H 88.6519 -2.60189 1.56637 0
M  V30 929 H 86.2369 -1.24482 0.826104 0
M  V30 930 H 88.1189 -4.20394 -0.290966 0
M  V30 931 H 86.7939 -3.13142 -0.819971 0
M  V30 932 H 85.7009 -3.43704 1.47711 0
M  V30 933 H 87.0339 -4.52982 1.92532 0
M  V30 934 N 88.686 -0.835752 -1.33615 0
M  V30 935 C 89.596 -0.269088 -2.33052 0
M  V30 936 C 90.612 0.603251 -1.63208 0
M  V30 937 O 91.788 0.508112 -1.94885 0
M  V30 938 C 88.853 0.549091 -3.42324 0
M  V30 939 C 87.914 -0.347156 -4.27894 0
M  V30 940 C 87.147 0.43207 -5.31948 0
M  V30 941 O 87.37 1.66409 -5.45586 0
M  V30 942 O 86.304 -0.192298 -6.01593 0
M  V30 943 H 90.13 -1.09243 -2.83372 0
M  V30 944 H 87.715 -0.598198 -1.36901 0
M  V30 945 H 89.597 1.01414 -4.09015 0
M  V30 946 H 88.272 1.34955 -2.94226 0
M  V30 947 H 87.179 -0.859979 -3.64081 0
M  V30 948 H 88.512 -1.1123 -4.79467 0
M  V30 949 N 90.1641 1.46063 -0.591896 0
M  V30 950 C 91.4041 2.04228 -0.0838014 0
M  V30 951 C 91.7681 1.45231 1.25587 0
M  V30 952 O 92.9691 1.94653 1.85375 0
M  V30 953 C 91.2401 3.57389 -0.0286282 0
M  V30 954 S 92.7991 4.3678 0.420557 0
M  V30 955 H 89.6171 0.709762 -0.0419319 0
M  V30 956 H 92.2191 1.78983 -0.786465 0
M  V30 957 H 90.9231 3.97843 -1.00743 0
M  V30 958 H 90.4541 3.87185 0.69652 0
M  V30 959 H 92.4691 4.67131 1.67341 0
M  V30 960 N 91.6422 0.330177 1.54103 0
M  V30 961 C 92.5722 -0.525353 2.27513 0
M  V30 962 C 93.5532 -1.11383 1.2856 0
M  V30 963 O 94.7382 -1.13773 1.57383 0
M  V30 964 C 91.8682 -1.6831 3.03791 0
M  V30 965 C 90.8222 -1.2236 4.10137 0
M  V30 966 C 90.1482 -2.46882 4.74293 0
M  V30 967 C 91.4482 -0.333697 5.21233 0
M  V30 968 H 93.1422 0.087013 2.99274 0
M  V30 969 H 90.6882 0.0432893 1.43935 0
M  V30 970 H 92.6412 -2.28795 3.5388 0
M  V30 971 H 91.3652 -2.32216 2.29659 0
M  V30 972 H 90.0242 -0.64165 3.60941 0
M  V30 973 H 89.6722 -3.09165 3.96769 0
M  V30 974 H 89.3722 -2.16825 5.46133 0
M  V30 975 H 90.8962 -3.08117 5.27159 0
M  V30 976 H 92.3102 -0.845013 5.67038 0
M  V30 977 H 90.7072 -0.125612 5.99969 0
M  V30 978 H 91.7772 0.633724 4.80741 0
M  V30 979 N 93.1203 -1.57491 0.0584922 0
M  V30 980 C 94.0303 -2.15448 -0.928414 0
M  V30 981 C 95.0463 -1.11416 -1.3365 0
M  V30 982 O 96.2223 -1.4362 -1.41193 0
M  V30 983 C 93.2873 -2.69393 -2.18239 0
M  V30 984 C 92.3483 -3.88249 -1.83196 0
M  V30 985 C 91.5813 -4.39613 -3.02616 0
M  V30 986 O 91.8043 -3.90023 -4.16219 0
M  V30 987 O 90.7383 -5.31111 -2.83204 0
M  V30 988 H 94.5643 -3.00112 -0.465483 0
M  V30 989 H 92.1493 -1.48499 -0.163826 0
M  V30 990 H 94.0313 -3.04026 -2.91798 0
M  V30 991 H 92.7063 -1.87796 -2.63656 0
M  V30 992 H 91.6133 -3.58492 -1.06931 0
M  V30 993 H 92.9463 -4.71098 -1.42573 0
M  V30 994 N 94.5984 0.214957 -1.56127 0
M  V30 995 C 95.8454 0.938372 -1.79446 0
M  V30 996 C 96.1734 1.8407 -0.628378 0
M  V30 997 O 95.4284 1.91837 0.386925 0
M  V30 998 C 95.7274 1.80314 -3.0858 0
M  V30 999 C 95.3934 1.05349 -4.3842 0
M  V30 1000 C 94.0554 0.846435 -4.73697 0
M  V30 1001 C 96.4074 0.524588 -5.18553 0
M  V30 1002 C 93.7354 0.098683 -5.86617 0
M  V30 1003 C 96.0874 -0.209853 -6.32252 0
M  V30 1004 C 94.7514 -0.428102 -6.66126 0
M  V30 1005 H 94.0214 0.343375 -0.656639 0
M  V30 1006 H 96.6684 0.206077 -1.90388 0
M  V30 1007 H 94.9734 2.6035 -2.92789 0
M  V30 1008 H 96.6704 2.36513 -3.23825 0
M  V30 1009 H 93.2604 1.22486 -4.10725 0
M  V30 1010 H 97.4444 0.672008 -4.91729 0
M  V30 1011 H 92.7004 -0.0805753 -6.11347 0
M  V30 1012 H 96.8744 -0.627157 -6.9357 0
M  V30 1013 H 94.5014 -1.00944 -7.53468 0
M  V30 1014 N 96.0765 1.50051 0.48192 0
M  V30 1015 C 97.3255 1.59741 1.23149 0
M  V30 1016 C 97.6385 0.298163 1.93314 0
M  V30 1017 O 98.8445 0.273835 2.70116 0
M  V30 1018 C 97.3005 2.81926 2.23708 0
M  V30 1019 C 96.9085 4.18685 1.59396 0
M  V30 1020 C 98.6525 3.00956 2.99375 0
M  V30 1021 C 96.5595 5.3207 2.58178 0
M  V30 1022 H 95.4895 0.594838 0.46334 0
M  V30 1023 H 98.1405 1.76467 0.503169 0
M  V30 1024 H 96.5225 2.58736 2.99786 0
M  V30 1025 H 97.6965 4.52088 0.891811 0
M  V30 1026 H 96.0115 4.05171 0.960503 0
M  V30 1027 H 98.6085 3.82836 3.73283 0
M  V30 1028 H 98.9515 2.12258 3.58123 0
M  V30 1029 H 99.4845 3.24277 2.30411 0
M  V30 1030 H 96.2235 6.22888 2.04184 0
M  V30 1031 H 95.7435 5.03098 3.26577 0
M  V30 1032 H 97.4225 5.62196 3.20225 0
M  V30 1033 N 97.5546 -0.734337 1.39446 0
M  V30 1034 C 98.5176 -1.83004 1.37994 0
M  V30 1035 C 99.5176 -1.58397 0.276938 0
M  V30 1036 O 100.708 -1.65785 0.534875 0
M  V30 1037 C 97.8396 -3.20802 1.1532 0
M  V30 1038 H 99.0326 -1.85694 2.35494 0
M  V30 1039 H 96.5856 -0.938059 1.25021 0
M  V30 1040 H 97.3206 -3.23772 0.185036 0
M  V30 1041 H 97.1056 -3.4006 1.95197 0
M  V30 1042 H 98.5956 -4.00862 1.17046 0
M  V30 1043 N 99.0327 -1.24633 -0.964593 0
M  V30 1044 C 100.282 -1.08188 -1.7023 0
M  V30 1045 C 100.595 0.37873 -1.91898 0
M  V30 1046 O 101.801 0.663427 -2.6327 0
M  V30 1047 C 100.257 -1.88773 -3.06419 0
M  V30 1048 C 99.8647 -3.39263 -2.92582 0
M  V30 1049 C 101.609 -1.80867 -3.84041 0
M  V30 1050 C 99.5157 -4.1218 -4.24101 0
M  V30 1051 H 98.4457 -0.401245 -0.638372 0
M  V30 1052 H 101.097 -1.48742 -1.07462 0
M  V30 1053 H 99.4787 -1.41035 -3.70034 0
M  V30 1054 H 100.653 -3.94603 -2.37961 0
M  V30 1055 H 98.9677 -3.48154 -2.28424 0
M  V30 1056 H 101.565 -2.32646 -4.81435 0
M  V30 1057 H 101.908 -0.774543 -4.09031 0
M  V30 1058 H 102.441 -2.26301 -3.27159 0
M  V30 1059 H 99.1797 -5.15965 -4.04303 0
M  V30 1060 H 98.6997 -3.61626 -4.78526 0
M  V30 1061 H 100.379 -4.19349 -4.92702 0
M  V30 1062 N 100.511 1.16574 -1.06058 0
M  V30 1063 C 101.76 1.86385 -0.770944 0
M  V30 1064 C 102.073 1.82448 0.705129 0
M  V30 1065 O 103.279 2.47815 1.10905 0
M  V30 1066 C 101.735 3.34466 -1.32893 0
M  V30 1067 C 101.343 3.46883 -2.83507 0
M  V30 1068 C 103.087 4.09548 -1.11672 0
M  V30 1069 C 100.994 4.89036 -3.32562 0
M  V30 1070 H 99.9238 0.698181 -0.284709 0
M  V30 1071 H 102.575 1.31583 -1.27899 0
M  V30 1072 H 100.957 3.88859 -0.748662 0
M  V30 1073 H 102.131 3.02663 -3.47465 0
M  V30 1074 H 100.446 2.85232 -3.03368 0
M  V30 1075 H 103.043 5.14434 -1.45814 0
M  V30 1076 H 103.386 4.16264 -0.0549535 0
M  V30 1077 H 103.919 3.61387 -1.66265 0
M  V30 1078 H 100.658 4.87499 -4.38207 0
M  V30 1079 H 100.178 5.3389 -2.73351 0
M  V30 1080 H 101.857 5.57843 -3.2775 0
M  V30 1081 N 101.989 0.842826 1.3317 0
M  V30 1082 C 103.219 0.453397 2.01564 0
M  V30 1083 C 103.627 -0.951147 1.63554 0
M  V30 1084 O 102.97 -1.63021 0.846746 0
M  V30 1085 C 103.032 0.499013 3.5602 0
M  V30 1086 C 102.696 1.86037 4.1742 0
M  V30 1087 C 103.693 2.82416 4.36506 0
M  V30 1088 C 101.378 2.15428 4.53757 0
M  V30 1089 C 103.372 4.06346 4.91082 0
M  V30 1090 C 101.059 3.39615 5.0804 0
M  V30 1091 C 102.057 4.3489 5.26649 0
M  V30 1092 O 101.745 5.5688 5.79776 0
M  V30 1093 H 101.477 0.177871 0.652179 0
M  V30 1094 H 104.031 1.13808 1.70988 0
M  V30 1095 H 102.261 -0.242467 3.85939 0
M  V30 1096 H 103.95 0.126852 4.05702 0
M  V30 1097 H 104.716 2.6101 4.08777 0
M  V30 1098 H 100.595 1.42061 4.38565 0
M  V30 1099 H 104.139 4.80722 5.05522 0
M  V30 1100 H 100.036 3.60876 5.352 0
M  V30 1101 H 100.804 5.58674 5.98185 0
M  V30 1102 N 103.467 -1.45747 0.599634 0
M  V30 1103 C 104.715 -2.01893 0.0915472 0
M  V30 1104 C 105.036 -1.47155 -1.27946 0
M  V30 1105 O 104.306 -0.66273 -1.84349 0
M  V30 1106 H 102.886 -0.746363 0.0308524 0
M  V30 1107 H 105.548 -1.78645 0.779237 0
M  V30 1108 H 104.644 -3.1208 0.0353086 0
M  V30 1109 N 104.945 -0.338344 -1.53925 0
M  V30 1110 C 105.893 0.536231 -2.26335 0
M  V30 1111 C 106.887 1.1063 -1.28286 0
M  V30 1112 O 108.093 1.05264 -1.46012 0
M  V30 1113 H 104.468 0.191602 -0.727181 0
M  V30 1114 H 106.439 -0.0965747 -2.98244 0
M  V30 1115 C 105.188 1.67803 -3.04528 0
M  V30 1116 H 104.511 1.24864 -3.79801 0
M  V30 1117 H 105.951 2.26526 -3.58416 0
M  V30 1118 C 104.41 2.60439 -2.13712 0
M  V30 1119 O 104.94 3.6255 -1.72975 0
M  V30 1120 N 103.146 2.29006 -1.78898 0
M  V30 1121 H 102.693 1.46011 -2.12223 0
M  V30 1122 H 102.651 2.91248 -1.18416 0
M  V30 1123 N 106.423 1.57458 -0.0668435 0
M  V30 1124 C 107.651 1.97624 0.612565 0
M  V30 1125 C 108.066 0.94502 1.63447 0
M  V30 1126 O 107.423 -0.0689276 1.8237 0
M  V30 1127 C 107.474 3.37869 1.28555 0
M  V30 1128 O 107.195 4.3704 0.304557 0
M  V30 1129 C 108.696 3.92882 2.05325 0
M  V30 1130 H 105.916 0.650045 0.166381 0
M  V30 1131 H 108.46 2.04035 -0.137782 0
M  V30 1132 H 106.615 3.3256 1.98702 0
M  V30 1133 H 107.029 5.18565 0.786779 0
M  V30 1134 H 108.503 4.93247 2.47812 0
M  V30 1135 H 108.98 3.29156 2.9078 0
M  V30 1136 H 109.586 4.01577 1.40056 0
M  V30 1137 N 107.901 -0.206675 1.56239 0
M  V30 1138 C 108.831 -1.25909 1.96645 0
M  V30 1139 C 109.812 -1.48097 0.836734 0
M  V30 1140 O 110.997 -1.6003 1.10019 0
M  V30 1141 C 108.127 -2.6058 2.29599 0
M  V30 1142 C 107.081 -2.53024 3.452 0
M  V30 1143 C 106.407 -3.91861 3.63798 0
M  V30 1144 C 107.707 -2.06524 4.79734 0
M  V30 1145 H 109.401 -0.923369 2.84806 0
M  V30 1146 H 106.947 -0.442735 1.37025 0
M  V30 1147 H 108.9 -3.34375 2.56459 0
M  V30 1148 H 107.624 -2.95869 1.38307 0
M  V30 1149 H 106.283 -1.81684 3.18412 0
M  V30 1150 H 105.931 -4.24483 2.69857 0
M  V30 1151 H 105.631 -3.87683 4.4156 0
M  V30 1152 H 107.155 -4.67296 3.93022 0
M  V30 1153 H 108.569 -2.70072 5.05702 0
M  V30 1154 H 106.966 -2.13374 5.60885 0
M  V30 1155 H 108.036 -1.01802 4.74093 0
M  V30 1156 N 109.379 -1.50304 -0.473955 0
M  V30 1157 C 110.311 -1.65109 -1.58971 0
M  V30 1158 C 111.324 -0.532676 -1.53839 0
M  V30 1159 O 112.513 -0.805751 -1.59279 0
M  V30 1160 C 109.613 -1.61684 -2.97845 0
M  V30 1161 C 108.786 -2.8951 -3.27876 0
M  V30 1162 C 107.845 -2.78768 -4.4629 0
M  V30 1163 O 106.871 -3.52722 -4.46739 0
M  V30 1164 N 108.073 -1.9213 -5.47783 0
M  V30 1165 H 110.838 -2.61347 -1.46689 0
M  V30 1166 H 108.399 -1.47732 -0.662324 0
M  V30 1167 H 110.391 -1.52114 -3.75024 0
M  V30 1168 H 108.961 -0.731925 -3.03911 0
M  V30 1169 H 108.181 -3.13228 -2.39336 0
M  V30 1170 H 109.469 -3.74199 -3.4475 0
M  V30 1171 H 108.867 -1.31353 -5.50239 0
M  V30 1172 H 107.424 -1.88466 -6.23958 0
M  V30 1173 N 110.857 0.726932 -1.39834 0
M  V30 1174 C 112.082 1.52121 -1.40976 0
M  V30 1175 C 112.507 1.88098 -0.00826029 0
M  V30 1176 O 111.865 1.52479 0.980807 0
M  V30 1177 C 111.913 2.78021 -2.29644 0
M  V30 1178 O 111.017 3.74272 -1.73188 0
M  V30 1179 H 110.358 0.45908 -0.479731 0
M  V30 1180 H 112.888 0.896207 -1.83927 0
M  V30 1181 H 112.898 3.26671 -2.44438 0
M  V30 1182 H 111.573 2.51169 -3.31492 0
M  V30 1183 H 110.15 3.33073 -1.6768 0
M  V30 1184 N 112.336 1.25143 0.95797 0
M  V30 1185 C 113.585 1.0909 1.69654 0
M  V30 1186 C 113.898 -0.368548 1.92097 0
M  V30 1187 O 115.104 -0.649455 2.63618 0
M  V30 1188 C 113.56 1.90395 3.05414 0
M  V30 1189 C 113.168 3.4081 2.90779 0
M  V30 1190 C 114.912 1.82901 3.83076 0
M  V30 1191 C 112.819 4.14423 4.21909 0
M  V30 1192 H 111.749 0.404625 0.636235 0
M  V30 1193 H 114.4 1.4931 1.06672 0
M  V30 1194 H 112.782 1.42996 3.69281 0
M  V30 1195 H 113.956 3.95859 2.35865 0
M  V30 1196 H 112.271 3.49361 2.26575 0
M  V30 1197 H 114.868 2.35196 4.80195 0
M  V30 1198 H 115.211 0.796224 4.08615 0
M  V30 1199 H 115.744 2.28033 3.25954 0
M  V30 1200 H 112.483 5.18102 4.01561 0
M  V30 1201 H 112.003 3.64159 4.76601 0
M  V30 1202 H 113.682 4.21956 4.90471 0
M  V30 1203 N 113.814 -1.1601 1.06675 0
M  V30 1204 C 114.744 -2.22688 0.702307 0
M  V30 1205 C 115.725 -1.67306 -0.307032 0
M  V30 1206 O 116.91 -1.93352 -0.181305 0
M  V30 1207 C 114.04 -3.47178 0.092038 0
M  V30 1208 C 112.994 -4.15477 1.02777 0
M  V30 1209 C 112.32 -5.33963 0.28061 0
M  V30 1210 C 113.62 -4.66019 2.35846 0
M  V30 1211 H 115.314 -2.53429 1.59419 0
M  V30 1212 H 112.86 -1.21813 0.767961 0
M  V30 1213 H 114.813 -4.21037 -0.174814 0
M  V30 1214 H 113.537 -3.15749 -0.834877 0
M  V30 1215 H 112.196 -3.43549 1.27944 0
M  V30 1216 H 111.844 -4.98788 -0.649545 0
M  V30 1217 H 111.544 -5.806 0.904258 0
M  V30 1218 H 113.068 -6.10596 0.021396 0
M  V30 1219 H 114.482 -5.3144 2.15045 0
M  V30 1220 H 112.879 -5.23293 2.93743 0
M  V30 1221 H 113.949 -3.82023 2.98641 0
M  V30 1222 N 115.292 -0.849877 -1.32721 0
M  V30 1223 C 116.255 -0.296122 -2.27279 0
M  V30 1224 C 117.255 0.541458 -1.5141 0
M  V30 1225 O 118.445 0.353658 -1.70572 0
M  V30 1226 C 115.577 0.581579 -3.35902 0
M  V30 1227 H 116.77 -1.13064 -2.77771 0
M  V30 1228 H 114.323 -0.62383 -1.43311 0
M  V30 1229 H 115.058 1.43809 -2.9067 0
M  V30 1230 H 114.843 -0.0178814 -3.92096 0
M  V30 1231 H 116.333 0.961951 -4.0637 0
M  V30 1232 N 116.77 1.45427 -0.607355 0
M  V30 1233 C 118.019 2.01452 -0.100036 0
M  V30 1234 C 118.332 1.48159 1.27704 0
M  V30 1235 O 119.538 1.96159 1.87707 0
M  V30 1236 C 117.994 3.59672 -0.128158 0
M  V30 1237 C 117.602 4.21962 -1.50507 0
M  V30 1238 C 119.346 4.23262 0.323932 0
M  V30 1239 C 117.253 5.72333 -1.48959 0
M  V30 1240 H 116.183 0.75325 -0.0336299 0
M  V30 1241 H 118.834 1.66901 -0.76265 0
M  V30 1242 H 117.216 3.91411 0.601105 0
M  V30 1243 H 118.39 4.01796 -2.25602 0
M  V30 1244 H 116.705 3.70565 -1.89923 0
M  V30 1245 H 119.302 5.33522 0.354691 0
M  V30 1246 H 119.645 3.93921 1.34656 0
M  V30 1247 H 120.178 3.96239 -0.352056 0
M  V30 1248 H 116.917 6.06373 -2.48981 0
M  V30 1249 H 116.437 5.94691 -0.781214 0
M  V30 1250 H 118.116 6.35525 -1.21313 0
M  V30 1251 N 118.248 0.346503 1.53744 0
M  V30 1252 C 119.494 -0.249473 2.0126 0
M  V30 1253 C 119.827 -1.49965 1.23386 0
M  V30 1254 O 119.102 -1.91811 0.32229 0
M  V30 1255 C 119.385 -0.560643 3.55709 0
M  V30 1256 C 119.238 0.701836 4.44291 0
M  V30 1257 C 120.557 -1.36905 4.18264 0
M  V30 1258 H 117.676 -0.0891987 0.731582 0
M  V30 1259 H 120.318 0.467624 1.84156 0
M  V30 1260 H 118.468 -1.17156 3.70414 0
M  V30 1261 H 120.14 1.33974 4.41417 0
M  V30 1262 H 118.383 1.32612 4.13033 0
M  V30 1263 H 119.054 0.43933 5.50249 0
M  V30 1264 H 121.53 -0.852448 4.07275 0
M  V30 1265 H 120.406 -1.55553 5.26398 0
M  V30 1266 H 120.667 -2.37203 3.73078 0
M  V30 1267 N 119.726 -1.57421 0.075193 0
M  V30 1268 C 121.142 -1.57099 -0.281444 0
M  V30 1269 C 121.342 -1.08486 -1.69803 0
M  V30 1270 O 120.398 -0.752279 -2.41033 0
M  V30 1271 C 121.711 -3.00571 -0.0880041 0
M  V30 1272 C 123.259 -3.12605 -0.157281 0
M  V30 1273 C 123.734 -4.57999 0.0079207 0
M  V30 1274 N 125.225 -4.63176 -0.0475725 0
M  V30 1275 C 125.96 -5.73373 0.0557876 0
M  V30 1276 N 125.456 -6.92473 0.21286 0
M  V30 1277 N 127.249 -5.621 -0.00152098 0
M  V30 1278 H 119.4 -1.87335 1.00098 0
M  V30 1279 H 121.663 -0.86377 0.390646 0
M  V30 1280 H 121.369 -3.40262 0.889629 0
M  V30 1281 H 121.243 -3.67754 -0.838875 0
M  V30 1282 H 123.63 -2.72798 -1.1254 0
M  V30 1283 H 123.711 -2.48053 0.62475 0
M  V30 1284 H 123.355 -4.98496 0.972824 0
M  V30 1285 H 123.285 -5.20586 -0.793556 0
M  V30 1286 H 125.776 -3.7753 -0.167244 0
M  V30 1287 H 126.089 -7.72279 0.283781 0
M  V30 1288 H 124.434 -6.94556 0.248267 0
M  V30 1289 H 127.625 -4.67938 -0.122958 0
M  V30 1290 H 127.798 -6.47948 0.0824844 0
M  V30 1291 N 121.204 0.198386 -1.56346 0
M  V30 1292 C 122.167 1.22952 -1.93431 0
M  V30 1293 C 123.167 1.38611 -0.815092 0
M  V30 1294 O 124.357 1.36479 -1.08255 0
M  V30 1295 C 121.489 2.59946 -2.20546 0
M  V30 1296 H 122.682 0.912626 -2.85677 0
M  V30 1297 H 120.235 0.43977 -1.49986 0
M  V30 1298 H 120.97 2.96696 -1.30927 0
M  V30 1299 H 120.755 2.49953 -3.02102 0
M  V30 1300 H 122.245 3.3431 -2.50253 0
M  V30 1301 N 122.682 1.50554 0.465978 0
M  V30 1302 C 123.615 1.64436 1.58227 0
M  V30 1303 C 124.593 0.492367 1.54966 0
M  V30 1304 O 125.777 0.712536 1.74514 0
M  V30 1305 C 122.904 1.63165 2.96808 0
M  V30 1306 C 121.95 2.83987 3.18204 0
M  V30 1307 S 122.783 4.45219 2.97557 0
M  V30 1308 C 123.939 4.46649 4.3847 0
M  V30 1309 H 124.172 2.58861 1.46213 0
M  V30 1310 H 121.705 1.3988 0.653678 0
M  V30 1311 H 123.663 1.63116 3.76701 0
M  V30 1312 H 122.324 0.69967 3.06208 0
M  V30 1313 H 121.517 2.79416 4.19455 0
M  V30 1314 H 121.119 2.81629 2.46092 0
M  V30 1315 H 123.411 4.20526 5.31191 0
M  V30 1316 H 124.354 5.48295 4.48082 0
M  V30 1317 H 124.762 3.76296 4.20787 0
M  V30 1318 N 124.16 -0.719506 1.40217 0
M  V30 1319 C 125.388 -1.50864 1.41589 0
M  V30 1320 C 125.803 -1.88794 0.0145275 0
M  V30 1321 O 125.16 -1.55174 -0.960594 0
M  V30 1322 C 125.211 -2.78646 2.30302 0
M  V30 1323 O 124.932 -2.42321 3.64983 0
M  V30 1324 C 126.433 -3.72569 2.40224 0
M  V30 1325 H 123.653 -0.465709 0.48307 0
M  V30 1326 H 126.197 -0.88785 1.84221 0
M  V30 1327 H 124.352 -3.37019 1.91042 0
M  V30 1328 H 124.766 -3.24514 4.12057 0
M  V30 1329 H 126.24 -4.5908 3.06512 0
M  V30 1330 H 126.717 -4.15403 1.42608 0
M  V30 1331 H 127.323 -3.20109 2.80019 0
M  V30 1332 N 125.638 -1.25649 -0.95132 0
M  V30 1333 C 126.866 -1.13343 -1.73092 0
M  V30 1334 C 127.281 0.312434 -1.86197 0
M  V30 1335 O 126.638 1.21465 -1.36207 0
M  V30 1336 C 126.689 -1.78602 -3.14299 0
M  V30 1337 O 126.41 -3.17537 -3.01831 0
M  V30 1338 C 127.911 -1.72119 -4.08522 0
M  V30 1339 H 125.131 -0.395181 -0.542285 0
M  V30 1340 H 127.675 -1.66076 -1.19328 0
M  V30 1341 H 125.83 -1.29832 -3.64996 0
M  V30 1342 H 126.244 -3.49676 -3.90931 0
M  V30 1343 H 127.718 -2.22435 -5.052 0
M  V30 1344 H 128.195 -0.685635 -4.33815 0
M  V30 1345 H 128.801 -2.20393 -3.63741 0
M  V30 1346 N 127.117 1.15442 -1.07289 0
M  V30 1347 C 128.047 2.22312 -0.714107 0
M  V30 1348 C 129.028 1.67467 0.298155 0
M  V30 1349 O 130.213 1.93445 0.171048 0
M  V30 1350 C 127.343 3.47124 -0.110448 0
M  V30 1351 C 126.297 4.14926 -1.04979 0
M  V30 1352 C 125.623 5.33807 -0.308924 0
M  V30 1353 C 126.923 4.64762 -2.38314 0
M  V30 1354 H 128.617 2.5258 -1.6076 0
M  V30 1355 H 126.163 1.21404 -0.77441 0
M  V30 1356 H 128.116 4.21124 0.152482 0
M  V30 1357 H 126.84 3.16187 0.81812 0
M  V30 1358 H 125.499 3.42866 -1.29764 0
M  V30 1359 H 125.147 4.99126 0.623084 0
M  V30 1360 H 124.847 5.80113 -0.935036 0
M  V30 1361 H 126.371 6.10576 -0.0537771 0
M  V30 1362 H 127.785 5.30292 -2.1786 0
M  V30 1363 H 126.182 5.21728 -2.96514 0
M  V30 1364 H 127.252 3.80434 -3.00663 0
M  V30 1365 N 128.595 0.856903 1.32268 0
M  V30 1366 C 129.543 0.291987 2.3076 0
M  V30 1367 C 130.537 -0.585857 1.58947 0
M  V30 1368 O 131.743 -0.47341 1.73663 0
M  V30 1369 H 128.118 0.075721 0.748178 0
M  V30 1370 H 130.089 1.13687 2.75895 0
M  V30 1371 C 128.838 -0.502869 3.44044 0
M  V30 1372 H 128.161 0.163328 3.99466 0
M  V30 1373 H 129.601 -0.863691 4.1511 0
M  V30 1374 C 128.06 -1.68898 2.91505 0
M  V30 1375 O 128.59 -2.78811 2.89184 0
M  V30 1376 N 126.796 -1.51679 2.47875 0
M  V30 1377 H 126.343 -0.622666 2.49961 0
M  V30 1378 H 126.301 -2.31184 2.13076 0
M  V30 1379 N 130.073 -1.45103 0.615059 0
M  V30 1380 C 131.322 -2.01396 0.110718 0
M  V30 1381 C 131.635 -1.48834 -1.26916 0
M  V30 1382 O 132.841 -1.97152 -1.86664 0
M  V30 1383 C 131.297 -3.59599 0.14723 0
M  V30 1384 C 130.905 -4.21158 1.52743 0
M  V30 1385 C 132.649 -4.23428 -0.30148 0
M  V30 1386 C 130.556 -5.71535 1.51992 0
M  V30 1387 H 129.486 -0.753061 0.0376241 0
M  V30 1388 H 132.137 -1.66494 0.77149 0
M  V30 1389 H 130.519 -3.91724 -0.580339 0
M  V30 1390 H 131.693 -4.00594 2.2773 0
M  V30 1391 H 130.008 -3.69552 1.91886 0
M  V30 1392 H 132.605 -5.33703 -0.326392 0
M  V30 1393 H 132.948 -3.94629 -1.32565 0
M  V30 1394 H 133.481 -3.96047 0.373065 0
M  V30 1395 H 130.22 -6.05044 2.52193 0
M  V30 1396 H 129.74 -5.94268 0.81274 0
M  V30 1397 H 131.419 -6.34873 1.24681 0
M  V30 1398 N 131.551 -0.354651 -1.53558 0
M  V30 1399 C 132.483 0.5315 -2.22952 0
M  V30 1400 C 133.496 1.05503 -1.23988 0
M  V30 1401 O 134.685 0.963279 -1.50277 0
M  V30 1402 C 131.785 1.74538 -2.90499 0
M  V30 1403 C 130.958 1.35524 -4.15875 0
M  V30 1404 C 130.017 2.42999 -4.66731 0
M  V30 1405 O 129.043 2.05844 -5.30676 0
M  V30 1406 N 130.245 3.74423 -4.43608 0
M  V30 1407 H 133.01 -0.0628615 -2.99634 0
M  V30 1408 H 130.571 -0.179302 -1.60904 0
M  V30 1409 H 132.563 2.45892 -3.21433 0
M  V30 1410 H 131.133 2.24686 -2.17336 0
M  V30 1411 H 130.353 0.471998 -3.91364 0
M  V30 1412 H 131.641 1.07071 -4.97406 0
M  V30 1413 H 131.039 4.07391 -3.92491 0
M  V30 1414 H 129.596 4.41913 -4.7912 0
M  V30 1415 N 133.029 1.57378 -0.0835403 0
M  V30 1416 C 134.259 1.97975 0.590713 0
M  V30 1417 C 134.667 0.961083 1.62972 0
M  V30 1418 O 134.01 -0.0590879 1.83605 0
M  V30 1419 C 134.072 3.34915 1.3066 0
M  V30 1420 C 133.736 4.55069 0.419698 0
M  V30 1421 C 134.733 5.18868 -0.32749 0
M  V30 1422 C 132.418 5.0114 0.341137 0
M  V30 1423 C 134.412 6.27098 -1.14134 0
M  V30 1424 C 132.099 6.0924 -0.476374 0
M  V30 1425 C 133.097 6.72083 -1.21627 0
M  V30 1426 O 132.785 7.781 -2.02028 0
M  V30 1427 H 132.517 0.655818 0.163947 0
M  V30 1428 H 135.071 2.04807 -0.156021 0
M  V30 1429 H 133.301 3.24733 2.09966 0
M  V30 1430 H 134.99 3.60037 1.87424 0
M  V30 1431 H 135.756 4.84211 -0.276459 0
M  V30 1432 H 131.635 4.51996 0.90668 0
M  V30 1433 H 135.179 6.7608 -1.71935 0
M  V30 1434 H 131.076 6.43329 -0.528927 0
M  V30 1435 H 131.844 7.95034 -1.94586 0
M  V30 1436 N 134.507 -0.190092 1.56449 0
M  V30 1437 C 135.755 -0.907908 1.80559 0
M  V30 1438 C 136.076 -1.83583 0.657438 0
M  V30 1439 O 135.346 -1.93203 -0.323924 0
M  V30 1440 H 133.926 -0.338247 0.666032 0
M  V30 1441 H 136.588 -0.194403 1.93928 0
M  V30 1442 H 135.684 -1.49604 2.73907 0
M  V30 1443 N 135.985 -1.50799 -0.457987 0
M  V30 1444 C 137.262 -1.52968 -1.21902 0
M  V30 1445 C 137.642 -0.281906 -2.09209 0
M  V30 1446 O 136.99 0.734076 -2.16388 0
M  V30 1447 C 137.2 -2.8326 -2.03875 0
M  V30 1448 C 138.548 -3.34425 -2.6162 0
M  V30 1449 O 139.572 -2.8467 -2.14106 0
M  V30 1450 O 138.431 -4.21188 -3.48228 0
M  V30 1451 H 135.525 -0.614129 -0.553873 0
M  V30 1452 H 138.071 -1.63098 -0.468739 0
M  V30 1453 H 136.843 -3.65543 -1.39621 0
M  V30 1454 H 136.466 -2.76195 -2.8601 0
M  V30 1455 N 137.463 0.71206 -1.40597 0
M  V30 1456 C 138.688 1.50617 -1.42581 0
M  V30 1457 C 139.113 1.88079 -0.0282102 0
M  V30 1458 O 138.471 1.53511 0.964579 0
M  V30 1459 C 138.519 2.7557 -2.3258 0
M  V30 1460 O 137.623 3.72414 -1.77148 0
M  V30 1461 H 136.964 0.453966 -0.484573 0
M  V30 1462 H 139.494 0.876649 -1.84868 0
M  V30 1463 H 139.504 3.2406 -2.47889 0
M  V30 1464 H 138.179 2.47639 -3.34138 0
M  V30 1465 H 136.756 3.31276 -1.71204 0
M  V30 1466 N 138.941 1.26152 0.944643 0
M  V30 1467 C 139.904 1.07474 2.0244 0
M  V30 1468 C 140.904 0.0242064 1.60782 0
M  V30 1469 O 142.094 0.267302 1.72137 0
M  V30 1470 C 139.226 0.633956 3.34953 0
M  V30 1471 H 140.419 2.03336 2.20442 0
M  V30 1472 H 137.972 1.087 1.12312 0
M  V30 1473 H 138.707 -0.326811 3.22649 0
M  V30 1474 H 138.492 1.39247 3.66542 0
M  V30 1475 H 139.982 0.52501 4.14287 0
M  V30 1476 N 140.419 -1.14872 1.07899 0
M  V30 1477 C 141.835 -1.37776 0.805606 0
M  V30 1478 C 142.035 -1.92743 -0.587555 0
M  V30 1479 O 141.091 -2.13678 -1.34528 0
M  V30 1480 C 142.404 -2.34361 1.88402 0
M  V30 1481 C 143.952 -2.48012 1.90942 0
M  V30 1482 C 144.427 -3.47893 2.97883 0
M  V30 1483 N 145.918 -3.55433 2.97021 0
M  V30 1484 C 146.653 -4.32553 3.76412 0
M  V30 1485 N 146.149 -5.12959 4.65666 0
M  V30 1486 N 147.942 -4.27697 3.64735 0
M  V30 1487 H 140.093 -0.775365 1.97742 0
M  V30 1488 H 142.356 -0.403521 0.857831 0
M  V30 1489 H 142.062 -2.01098 2.88535 0
M  V30 1490 H 141.936 -3.34206 1.74889 0
M  V30 1491 H 144.323 -2.8057 0.914579 0
M  V30 1492 H 144.404 -1.48147 2.08534 0
M  V30 1493 H 144.048 -3.16069 3.97571 0
M  V30 1494 H 143.978 -4.47527 2.77538 0
M  V30 1495 H 146.469 -2.98048 2.32326 0
M  V30 1496 H 146.782 -5.69065 5.22862 0
M  V30 1497 H 145.127 -5.12245 4.69712 0
M  V30 1498 H 148.318 -3.63949 2.94378 0
M  V30 1499 H 148.491 -4.8755 4.26848 0
M  V30 1500 N 141.898 -0.863906 -1.31812 0
M  V30 1501 C 142.83 -0.272485 -2.27575 0
M  V30 1502 C 143.843 0.56104 -1.52827 0
M  V30 1503 O 145.032 0.384021 -1.7432 0
M  V30 1504 C 142.132 0.63283 -3.32939 0
M  V30 1505 C 141.305 -0.166902 -4.37081 0
M  V30 1506 C 140.364 0.665608 -5.21973 0
M  V30 1507 O 139.39 0.0958091 -5.69119 0
M  V30 1508 N 140.592 1.9787 -5.45736 0
M  V30 1509 H 143.357 -1.0954 -2.78964 0
M  V30 1510 H 140.918 -0.724791 -1.4477 0
M  V30 1511 H 142.91 1.19532 -3.86645 0
M  V30 1512 H 141.48 1.35642 -2.81638 0
M  V30 1513 H 140.7 -0.910838 -3.83533 0
M  V30 1514 H 141.988 -0.715874 -5.03739 0
M  V30 1515 H 141.386 2.46484 -5.09178 0
M  V30 1516 H 139.943 2.48911 -6.024 0
M  V30 1517 N 143.376 1.44774 -0.622745 0
M  V30 1518 C 144.653 1.95522 -0.0551974 0
M  V30 1519 C 145.033 1.5649 1.41683 0
M  V30 1520 O 144.381 0.834848 2.12703 0
M  V30 1521 C 144.591 3.4796 -0.269242 0
M  V30 1522 C 145.939 4.24306 -0.158014 0
M  V30 1523 O 146.963 3.55637 -0.200162 0
M  V30 1524 O 145.822 5.46471 -0.0558693 0
M  V30 1525 H 142.916 0.826556 0.0271015 0
M  V30 1526 H 145.462 1.54866 -0.693864 0
M  V30 1527 H 144.234 3.6939 -1.29099 0
M  V30 1528 H 143.857 3.95543 0.403966 0
M  V30 1529 N 144.854 0.36279 1.53368 0
M  V30 1530 C 146.131 -0.284021 1.93527 0
M  V30 1531 C 146.511 -1.66628 1.29608 0
M  V30 1532 O 145.859 -2.23942 0.45413 0
M  V30 1533 C 146.069 -0.337028 3.47369 0
M  V30 1534 C 147.417 -0.578708 4.20638 0
M  V30 1535 O 148.441 -0.418352 3.53735 0
M  V30 1536 O 147.3 -0.89074 5.39192 0
M  V30 1537 H 144.394 -0.169743 0.809393 0
M  V30 1538 H 146.94 0.41537 1.64538 0
M  V30 1539 H 145.712 0.632217 3.86159 0
M  V30 1540 H 145.335 -1.08243 3.82582 0
M  V30 1541 N 146.332 -1.57332 0.0918853 0
M  V30 1542 C 147.295 -2.12708 -0.85369 0
M  V30 1543 C 148.295 -1.05561 -1.213 0
M  V30 1544 O 149.485 -1.31461 -1.14296 0
M  V30 1545 C 146.617 -2.64503 -2.15061 0
M  V30 1546 H 147.81 -2.97573 -0.3729 0
M  V30 1547 H 145.363 -1.55509 -0.157072 0
M  V30 1548 H 146.098 -1.83149 -2.67632 0
M  V30 1549 H 145.883 -3.4284 -1.90272 0
M  V30 1550 H 147.373 -3.07351 -2.82711 0
M  V30 1551 N 147.81 0.181792 -1.56548 0
M  V30 1552 C 149.226 0.53316 -1.50431 0
M  V30 1553 C 149.426 1.85184 -0.794297 0
M  V30 1554 O 148.482 2.50058 -0.350318 0
M  V30 1555 C 149.795 0.575597 -2.9514 0
M  V30 1556 C 151.343 0.663519 -3.05886 0
M  V30 1557 C 151.818 0.736946 -4.52032 0
M  V30 1558 N 153.309 0.800118 -4.56237 0
M  V30 1559 C 154.044 0.877327 -5.66649 0
M  V30 1560 N 153.54 0.916016 -6.86718 0
M  V30 1561 N 155.333 0.915542 -5.54594 0
M  V30 1562 H 147.484 -0.683025 -2.01118 0
M  V30 1563 H 149.747 -0.244988 -0.915797 0
M  V30 1564 H 149.453 -0.324482 -3.502 0
M  V30 1565 H 149.327 1.42572 -3.49218 0
M  V30 1566 H 151.714 1.55403 -2.50867 0
M  V30 1567 H 151.795 -0.21307 -2.54911 0
M  V30 1568 H 151.439 -0.149262 -5.07681 0
M  V30 1569 H 151.369 1.62953 -5.00753 0
M  V30 1570 H 153.86 0.778926 -3.69785 0
M  V30 1571 H 154.173 0.975813 -7.66614 0
M  V30 1572 H 152.518 0.884469 -6.89349 0
M  V30 1573 H 155.709 0.882245 -4.59711 0
M  V30 1574 H 155.882 0.972253 -6.40665 0
M  V30 1575 N 149.288 1.51039 0.449983 0
M  V30 1576 C 150.235 1.71439 1.54523 0
M  V30 1577 C 151.205 0.555871 1.56522 0
M  V30 1578 O 152.39 0.788871 1.73728 0
M  V30 1579 C 149.53 1.83384 2.92343 0
M  V30 1580 C 148.643 3.10873 2.9997 0
M  V30 1581 C 147.778 3.13488 4.28834 0
M  V30 1582 C 146.817 4.35343 4.30282 0
M  V30 1583 N 145.954 4.35579 5.5065 0
M  V30 1584 H 150.794 2.64934 1.36433 0
M  V30 1585 H 148.331 1.31312 0.662982 0
M  V30 1586 H 150.289 1.88291 3.72293 0
M  V30 1587 H 148.919 0.933086 3.0902 0
M  V30 1588 H 147.971 3.15336 2.12761 0
M  V30 1589 H 149.283 4.00814 2.96901 0
M  V30 1590 H 148.437 3.17241 5.17149 0
M  V30 1591 H 147.176 2.21414 4.34543 0
M  V30 1592 H 146.181 4.3178 3.40362 0
M  V30 1593 H 147.406 5.28668 4.26248 0
M  V30 1594 H 145.352 3.46369 5.57104 0
M  V30 1595 H 145.269 5.19313 5.49409 0
M  V30 1596 H 146.537 4.43507 6.41032 0
M  V30 1597 N 150.766 -0.704594 1.40972 0
M  V30 1598 C 151.696 -1.83124 1.44872 0
M  V30 1599 C 152.677 -1.67281 0.30838 0
M  V30 1600 O 153.862 -1.87149 0.518556 0
M  V30 1601 C 150.992 -3.21181 1.32136 0
M  V30 1602 C 149.946 -3.51714 2.43888 0
M  V30 1603 C 149.272 -4.89032 2.16222 0
M  V30 1604 C 150.572 -3.516 3.86232 0
M  V30 1605 H 152.266 -1.80117 2.39161 0
M  V30 1606 H 149.812 -0.865145 1.15114 0
M  V30 1607 H 151.765 -3.99702 1.33479 0
M  V30 1608 H 150.489 -3.24791 0.343279 0
M  V30 1609 H 149.148 -2.75539 2.41813 0
M  V30 1610 H 148.796 -4.89256 1.16778 0
M  V30 1611 H 148.496 -5.10426 2.911 0
M  V30 1612 H 150.02 -5.69873 2.19265 0
M  V30 1613 H 151.434 -4.2014 3.9007 0
M  V30 1614 H 149.831 -3.84523 4.60719 0
M  V30 1615 H 150.901 -2.50757 4.15029 0
M  V30 1616 N 152.244 -1.26651 -0.937939 0
M  V30 1617 C 153.177 -1.02811 -2.03728 0
M  V30 1618 C 154.155 0.0481915 -1.62529 0
M  V30 1619 O 155.339 -0.0948839 -1.88261 0
M  V30 1620 C 152.466 -0.557517 -3.3408 0
M  V30 1621 C 151.512 -1.62686 -3.94253 0
M  V30 1622 S 152.345 -3.21667 -4.28125 0
M  V30 1623 C 153.501 -2.76384 -5.61572 0
M  V30 1624 H 153.734 -1.95891 -2.23638 0
M  V30 1625 H 151.267 -1.10367 -1.07974 0
M  V30 1626 H 153.225 -0.292674 -4.09455 0
M  V30 1627 H 151.886 0.353062 -3.12109 0
M  V30 1628 H 151.079 -1.24866 -4.88287 0
M  V30 1629 H 150.681 -1.84324 -3.25424 0
M  V30 1630 H 152.973 -2.2105 -6.40424 0
M  V30 1631 H 153.916 -3.69123 -6.0428 0
M  V30 1632 H 154.324 -2.15847 -5.21604 0
M  V30 1633 N 153.722 1.14298 -1.08507 0
M  V30 1634 C 154.672 2.17449 -0.685569 0
M  V30 1635 C 155.656 1.58167 0.295315 0
M  V30 1636 O 156.848 1.76675 0.107172 0
M  V30 1637 C 153.977 3.43161 -0.0975318 0
M  V30 1638 C 153.063 4.09471 -1.10426 0
M  V30 1639 N 153.454 4.51089 -2.28806 0
M  V30 1640 C 151.752 4.35976 -0.940258 0
M  V30 1641 C 152.453 5.02654 -2.9277 0
M  V30 1642 N 151.429 4.96927 -2.20374 0
M  V30 1643 H 155.231 2.47369 -1.587 0
M  V30 1644 H 152.745 1.30992 -0.959936 0
M  V30 1645 H 154.742 4.16388 0.20664 0
M  V30 1646 H 153.402 3.14719 0.798872 0
M  V30 1647 H 154.413 4.44097 -2.66455 0
M  V30 1648 H 151.09 4.17386 -0.0977441 0
M  V30 1649 H 152.48 5.44723 -3.93352 0
M  V30 1650 N 155.201 0.870884 1.31352 0
M  V30 1651 C 156.134 0.271983 2.26573 0
M  V30 1652 C 157.112 -0.599385 1.51149 0
M  V30 1653 O 158.296 -0.552605 1.80218 0
M  V30 1654 C 155.423 -0.614801 3.33073 0
M  V30 1655 C 154.469 0.185342 4.26097 0
M  V30 1656 S 155.302 1.56444 5.12138 0
M  V30 1657 C 156.458 0.683807 6.22153 0
M  V30 1658 H 156.691 1.07916 2.77023 0
M  V30 1659 H 154.224 0.669459 1.39132 0
M  V30 1660 H 156.182 -1.12074 3.94905 0
M  V30 1661 H 154.843 -1.39593 2.81376 0
M  V30 1662 H 154.036 -0.490771 5.01605 0
M  V30 1663 H 153.638 0.623415 3.68768 0
M  V30 1664 H 155.93 -0.10521 6.77418 0
M  V30 1665 H 156.873 1.41004 6.93919 0
M  V30 1666 H 157.281 0.250952 5.63942 0
M  V30 1667 N 156.679 -1.44442 0.630414 0
M  V30 1668 C 157.642 -2.29107 -0.0652523 0
M  V30 1669 C 158.642 -1.41002 -0.772995 0
M  V30 1670 O 159.832 -1.62881 -0.617692 0
M  V30 1671 C 156.964 -3.22564 -1.10296 0
M  V30 1672 H 158.157 -2.92103 0.679401 0
M  V30 1673 H 155.71 -1.51343 0.390517 0
M  V30 1674 H 156.445 -2.64416 -1.87762 0
M  V30 1675 H 156.23 -3.87491 -0.59941 0
M  V30 1676 H 157.72 -3.86167 -1.5895 0
M  V30 1677 N 158.157 -0.370918 -1.53173 0
M  V30 1678 C 159.434 0.273754 -1.93675 0
M  V30 1679 C 159.814 1.65938 -1.3049 0
M  V30 1680 O 159.162 2.23698 -0.465999 0
M  V30 1681 C 159.372 0.318602 -3.47543 0
M  V30 1682 C 160.72 0.556392 -4.20939 0
M  V30 1683 O 161.744 0.399587 -3.53952 0
M  V30 1684 O 160.603 0.862133 -5.39657 0
M  V30 1685 H 157.697 0.165448 -0.810281 0
M  V30 1686 H 160.243 -0.42409 -1.64315 0
M  V30 1687 H 159.015 -0.652687 -3.85818 0
M  V30 1688 H 158.638 1.06212 -3.83151 0
M  V30 1689 N 159.635 1.57281 -0.100228 0
M  V30 1690 C 160.863 1.98879 0.570509 0
M  V30 1691 C 161.278 0.979476 1.61405 0
M  V30 1692 O 160.635 -0.0302288 1.82475 0
M  V30 1693 C 160.686 3.4052 1.2136 0
M  V30 1694 O 160.407 4.37588 0.211786 0
M  V30 1695 C 161.908 3.97149 1.96945 0
M  V30 1696 H 159.128 0.653428 0.152555 0
M  V30 1697 H 161.672 2.03697 -0.18103 0
M  V30 1698 H 159.827 3.367 1.91603 0
M  V30 1699 H 160.241 5.20118 0.676607 0
M  V30 1700 H 161.715 4.98393 2.37294 0
M  V30 1701 H 162.192 3.3525 2.83733 0
M  V30 1702 H 162.798 4.04458 1.31506 0
M  V30 1703 N 161.113 -0.173488 1.56642 0
M  V30 1704 C 162.362 -0.888758 1.81063 0
M  V30 1705 C 162.675 -1.83506 0.67712 0
M  V30 1706 O 163.881 -2.59254 0.806206 0
M  V30 1707 C 162.337 -1.63091 3.20826 0
M  V30 1708 C 161.945 -0.728357 4.4204 0
M  V30 1709 C 163.689 -2.33454 3.54541 0
M  V30 1710 C 161.596 -1.47062 5.72823 0
M  V30 1711 H 160.526 -0.335618 0.675186 0
M  V30 1712 H 163.177 -0.141712 1.82952 0
M  V30 1713 H 161.559 -2.42263 3.13248 0
M  V30 1714 H 162.733 0.0262449 4.60793 0
M  V30 1715 H 161.048 -0.134492 4.16183 0
M  V30 1716 H 163.645 -2.89578 4.49498 0
M  V30 1717 H 163.988 -3.08687 2.79317 0
M  V30 1718 H 164.521 -1.61227 3.63663 0
M  V30 1719 H 161.26 -0.760658 6.51072 0
M  V30 1720 H 160.78 -2.1986 5.58052 0
M  V30 1721 H 162.459 -2.01868 6.14702 0
M  V30 1722 N 162.591 -1.51276 -0.441967 0
M  V30 1723 C 163.501 -1.75092 -1.56141 0
M  V30 1724 C 164.517 -0.634963 -1.62001 0
M  V30 1725 O 165.693 -0.916686 -1.79329 0
M  V30 1726 C 162.758 -1.86666 -2.92158 0
M  V30 1727 C 161.819 -3.10506 -2.96453 0
M  V30 1728 C 161.052 -3.21519 -4.25982 0
M  V30 1729 O 161.275 -2.38586 -5.18105 0
M  V30 1730 O 160.209 -4.14465 -4.36466 0
M  V30 1731 H 164.035 -2.70044 -1.38961 0
M  V30 1732 H 161.62 -1.35722 -0.624499 0
M  V30 1733 H 163.502 -1.96292 -3.72891 0
M  V30 1734 H 162.177 -0.949014 -3.09476 0
M  V30 1735 H 161.084 -3.06363 -2.14692 0
M  V30 1736 H 162.417 -4.01945 -2.84079 0
M  V30 1737 N 164.069 0.697108 -1.41344 0
M  V30 1738 C 164.979 1.84088 -1.45427 0
M  V30 1739 C 165.995 1.70545 -0.34501 0
M  V30 1740 O 167.171 1.92488 -0.592492 0
M  V30 1741 C 164.236 3.20056 -1.33286 0
M  V30 1742 C 163.297 3.45718 -2.54514 0
M  V30 1743 C 162.53 4.75199 -2.42944 0
M  V30 1744 O 162.753 5.51579 -1.45318 0
M  V30 1745 O 161.687 5.0161 -3.32672 0
M  V30 1746 H 165.513 1.836 -2.41919 0
M  V30 1747 H 163.098 0.849966 -1.22866 0
M  V30 1748 H 164.98 4.01236 -1.28794 0
M  V30 1749 H 163.655 3.2123 -0.39909 0
M  V30 1750 H 162.562 2.64474 -2.64583 0
M  V30 1751 H 163.895 3.49356 -3.46715 0
M  V30 1752 N 165.547 1.27147 0.931209 0
M  V30 1753 C 166.795 1.13055 1.6752 0
M  V30 1754 C 167.116 -0.324791 1.92276 0
M  V30 1755 O 166.386 -1.22775 1.52654 0
M  V30 1756 H 164.966 0.415391 0.620854 0
M  V30 1757 H 167.628 1.59623 1.11833 0
M  V30 1758 H 166.724 1.65694 2.64485 0
M  V30 1759 N 167.025 -1.13721 1.09112 0
M  V30 1760 C 168.253 -1.88773 0.846899 0
M  V30 1761 C 168.668 -1.7896 -0.601572 0
M  V30 1762 O 168.025 -1.15394 -1.41388 0
M  V30 1763 C 168.076 -3.3849 1.26913 0
M  V30 1764 O 167.797 -3.48043 2.66079 0
M  V30 1765 C 169.298 -4.30518 1.05682 0
M  V30 1766 H 166.518 -0.59772 0.304914 0
M  V30 1767 H 169.062 -1.43977 1.45227 0
M  V30 1768 H 167.217 -3.80881 0.707723 0
M  V30 1769 H 167.631 -4.4109 2.83795 0
M  V30 1770 H 169.105 -5.3391 1.40156 0
M  V30 1771 H 169.582 -4.392 -0.00563416 0
M  V30 1772 H 170.188 -3.93893 1.60402 0
M  V30 1773 N 168.503 -0.877838 -1.30888 0
M  V30 1774 C 169.436 -0.283995 -2.26426 0
M  V30 1775 C 170.414 0.591361 -1.51465 0
M  V30 1776 O 171.598 0.54304 -1.80509 0
M  V30 1777 C 168.725 0.597129 -3.33395 0
M  V30 1778 C 167.771 -0.207937 -4.25993 0
M  V30 1779 S 168.604 -1.59158 -5.11301 0
M  V30 1780 C 169.76 -0.716791 -6.21782 0
M  V30 1781 H 169.993 -1.09383 -2.76446 0
M  V30 1782 H 167.526 -0.676828 -1.38775 0
M  V30 1783 H 169.484 1.09978 -3.95493 0
M  V30 1784 H 168.145 1.38099 -2.82113 0
M  V30 1785 H 167.338 0.464163 -5.01858 0
M  V30 1786 H 166.94 -0.642963 -3.68432 0
M  V30 1787 H 169.232 0.0692833 -6.77465 0
M  V30 1788 H 170.175 -1.44682 -6.93161 0
M  V30 1789 H 170.583 -0.280855 -5.63801 0
M  V30 1790 N 169.982 1.44106 -0.638065 0
M  V30 1791 C 171.393 1.85316 -0.226894 0
M  V30 1792 C 171.744 1.53399 1.22324 0
M  V30 1793 O 170.869 0.975463 1.93167 0
M  V30 1794 C 171.464 3.3637 -0.405013 0
M  V30 1795 C 170.023 3.76369 -0.0482902 0
M  V30 1796 C 169.17 2.67921 -0.715108 0
M  V30 1797 H 172.121 1.34474 -0.842764 0
M  V30 1798 H 172.142 3.7885 0.354 0
M  V30 1799 H 171.654 3.59569 -1.46053 0
M  V30 1800 H 169.755 3.58784 1.00522 0
M  V30 1801 H 169.868 4.76856 -0.463187 0
M  V30 1802 H 168.232 2.54259 -0.149753 0
M  V30 1803 H 169.015 2.93951 -1.77335 0
M  V30 1804 N 171.46 0.379036 1.52974 0
M  V30 1805 C 172.407 -0.461048 2.26148 0
M  V30 1806 C 173.377 -1.06637 1.27349 0
M  V30 1807 O 174.562 -1.09633 1.56157 0
M  V30 1808 C 171.702 -1.58782 3.06402 0
M  V30 1809 C 170.815 -1.00636 4.20115 0
M  V30 1810 C 169.95 -2.10334 4.87784 0
M  V30 1811 C 168.989 -1.49724 5.93506 0
M  V30 1812 N 168.126 -2.5331 6.54812 0
M  V30 1813 H 172.966 0.169429 2.97518 0
M  V30 1814 H 170.503 0.0953806 1.4679 0
M  V30 1815 H 172.461 -2.25174 3.51215 0
M  V30 1816 H 171.091 -2.18876 2.37261 0
M  V30 1817 H 170.143 -0.232332 3.7969 0
M  V30 1818 H 171.455 -0.523343 4.96047 0
M  V30 1819 H 170.609 -2.84519 5.35849 0
M  V30 1820 H 169.348 -2.61992 4.11353 0
M  V30 1821 H 168.353 -0.740598 5.44789 0
M  V30 1822 H 169.578 -0.988732 6.71864 0
M  V30 1823 H 167.524 -3.04156 5.81227 0
M  V30 1824 H 167.441 -2.09734 7.26325 0
M  V30 1825 H 168.709 -3.27155 7.07524 0
M  V30 1826 N 172.938 -1.57226 0.108567 0
M  V30 1827 C 173.848 -2.18292 -0.859401 0
M  V30 1828 C 174.864 -1.15612 -1.30038 0
M  V30 1829 O 176.04 -1.48039 -1.36552 0
M  V30 1830 C 173.105 -2.762 -2.09558 0
M  V30 1831 C 172.166 -3.93881 -1.70752 0
M  V30 1832 C 171.399 -4.49018 -2.88477 0
M  V30 1833 O 171.622 -4.03068 -4.036 0
M  V30 1834 O 170.556 -5.39852 -2.66164 0
M  V30 1835 H 174.382 -3.01441 -0.369769 0
M  V30 1836 H 171.967 -1.48945 -0.1165 0
M  V30 1837 H 173.849 -3.13156 -2.81978 0
M  V30 1838 H 172.524 -1.96089 -2.57548 0
M  V30 1839 H 171.431 -3.61713 -0.954714 0
M  V30 1840 H 172.764 -4.75396 -1.27513 0
M  V30 1841 N 174.416 0.165178 -1.56732 0
M  V30 1842 C 175.349 1.23336 -1.91998 0
M  V30 1843 C 176.327 1.42476 -0.783531 0
M  V30 1844 O 177.511 1.57384 -1.03743 0
M  V30 1845 C 174.638 2.59533 -2.17625 0
M  V30 1846 C 173.684 2.57093 -3.40302 0
M  V30 1847 S 174.517 2.05571 -4.9447 0
M  V30 1848 C 175.673 3.43532 -5.23198 0
M  V30 1849 H 175.906 0.932387 -2.82301 0
M  V30 1850 H 173.439 0.370013 -1.49901 0
M  V30 1851 H 175.397 3.37918 -2.3307 0
M  V30 1852 H 174.058 2.86827 -1.28019 0
M  V30 1853 H 173.251 3.57308 -3.55453 0
M  V30 1854 H 172.853 1.86806 -3.24005 0
M  V30 1855 H 175.145 4.39559 -5.15552 0
M  V30 1856 H 176.088 3.33251 -6.2478 0
M  V30 1857 H 176.496 3.39828 -4.50752 0
M  V30 1858 N 175.894 1.51508 0.433938 0
M  V30 1859 C 177.119 1.68443 1.21003 0
M  V30 1860 C 177.544 0.382636 1.84167 0
M  V30 1861 O 176.902 -0.65755 1.68956 0
M  V30 1862 C 176.95 2.80405 2.26727 0
M  V30 1863 O 176.054 2.44245 3.32292 0
M  V30 1864 H 175.395 0.561536 0.354363 0
M  V30 1865 H 177.925 1.9809 0.512024 0
M  V30 1866 H 177.935 3.0459 2.71457 0
M  V30 1867 H 176.61 3.74867 1.80132 0
M  V30 1868 H 175.187 2.30644 2.93015 0
M  V30 1869 N 177.372 -0.689602 1.41712 0
M  V30 1870 C 178.649 -1.44457 1.31877 0
M  V30 1871 C 179.029 -2.11039 -0.0508537 0
M  V30 1872 O 178.377 -2.02138 -1.06547 0
M  V30 1873 C 178.587 -2.45913 2.47645 0
M  V30 1874 C 179.935 -3.10991 2.89084 0
M  V30 1875 O 180.959 -2.56238 2.47428 0
M  V30 1876 O 179.818 -4.10174 3.61137 0
M  V30 1877 H 176.912 -0.64362 0.519309 0
M  V30 1878 H 179.458 -0.719576 1.53689 0
M  V30 1879 H 178.23 -1.95409 3.39015 0
M  V30 1880 H 177.853 -3.25913 2.27742 0
M  V30 1881 N 178.85 -1.27639 -0.924453 0
M  V30 1882 C 180.099 -1.13549 -1.66702 0
M  V30 1883 C 180.412 0.317487 -1.93006 0
M  V30 1884 O 181.618 0.579333 -2.65247 0
M  V30 1885 C 180.074 -1.98426 -3.00259 0
M  V30 1886 C 179.682 -3.484 -2.81641 0
M  V30 1887 C 181.426 -1.92993 -3.78092 0
M  V30 1888 C 179.333 -4.25464 -4.10773 0
M  V30 1889 H 178.263 -0.421351 -0.625283 0
M  V30 1890 H 180.914 -1.52085 -1.02676 0
M  V30 1891 H 179.296 -1.52736 -3.6536 0
M  V30 1892 H 180.47 -4.01973 -2.25287 0
M  V30 1893 H 178.785 -3.55245 -2.17232 0
M  V30 1894 H 181.382 -2.47844 -4.7379 0
M  V30 1895 H 181.725 -0.904281 -4.0636 0
M  V30 1896 H 182.258 -2.36595 -3.19793 0
M  V30 1897 H 178.997 -5.28566 -3.87683 0
M  V30 1898 H 178.517 -3.76667 -4.66779 0
M  V30 1899 H 180.196 -4.34812 -4.79111 0
M  V30 1900 N 180.328 1.1314 -1.09713 0
M  V30 1901 C 181.577 1.83838 -0.829851 0
M  V30 1902 C 181.89 1.84599 0.646728 0
M  V30 1903 O 183.096 2.51218 1.02965 0
M  V30 1904 C 181.552 3.30069 -1.43466 0
M  V30 1905 C 181.16 3.37688 -2.94399 0
M  V30 1906 C 182.904 4.05788 -1.24645 0
M  V30 1907 C 180.811 4.78209 -3.47952 0
M  V30 1908 H 179.741 0.68877 -0.306777 0
M  V30 1909 H 182.392 1.27448 -1.3202 0
M  V30 1910 H 180.774 3.8628 -0.871996 0
M  V30 1911 H 181.948 2.91456 -3.56918 0
M  V30 1912 H 180.263 2.75436 -3.12289 0
M  V30 1913 H 182.86 5.09535 -1.62107 0
M  V30 1914 H 183.203 4.15878 -0.187357 0
M  V30 1915 H 183.736 3.55915 -1.77678 0
M  V30 1916 H 180.475 4.73311 -4.53495 0
M  V30 1917 H 179.995 5.24924 -2.90198 0
M  V30 1918 H 181.674 5.47133 -3.45332 0
M  V30 1919 N 181.806 0.884767 1.30421 0
M  V30 1920 C 182.738 0.308655 2.27112 0
M  V30 1921 C 183.751 -0.536655 1.53701 0
M  V30 1922 O 184.94 -0.35624 1.74909 0
M  V30 1923 C 182.04 -0.579782 3.33904 0
M  V30 1924 C 181.213 0.236417 4.36761 0
M  V30 1925 C 180.272 -0.582482 5.22966 0
M  V30 1926 O 179.298 -0.00525502 5.692 0
M  V30 1927 N 180.5 -1.89163 5.48815 0
M  V30 1928 H 183.265 1.13964 2.77186 0
M  V30 1929 H 180.826 0.747731 1.43599 0
M  V30 1930 H 182.818 -1.13366 3.88497 0
M  V30 1931 H 181.388 -1.31144 2.83761 0
M  V30 1932 H 180.608 0.97174 3.82035 0
M  V30 1933 H 181.896 0.795924 5.02536 0
M  V30 1934 H 181.294 -2.38352 5.13035 0
M  V30 1935 H 179.851 -2.39296 6.06284 0
M  V30 1936 N 183.284 -1.43765 0.645699 0
M  V30 1937 C 184.7 -1.56509 0.312591 0
M  V30 1938 C 184.9 -1.6307 -1.18365 0
M  V30 1939 O 183.956 -1.58167 -1.96824 0
M  V30 1940 C 185.269 -2.82968 1.01733 0
M  V30 1941 C 186.817 -2.96701 0.996865 0
M  V30 1942 C 187.292 -4.25982 1.68236 0
M  V30 1943 N 188.783 -4.32829 1.64964 0
M  V30 1944 C 189.518 -5.31613 2.14885 0
M  V30 1945 N 189.014 -6.36718 2.73061 0
M  V30 1946 N 190.807 -5.23217 2.05428 0
M  V30 1947 H 182.958 -1.3775 1.61675 0
M  V30 1948 H 185.221 -0.661067 0.679481 0
M  V30 1949 H 184.927 -2.84156 2.0724 0
M  V30 1950 H 184.801 -3.72957 0.564177 0
M  V30 1951 H 187.188 -2.95058 -0.0497719 0
M  V30 1952 H 187.269 -2.08022 1.48865 0
M  V30 1953 H 186.913 -4.28386 2.72852 0
M  V30 1954 H 186.843 -5.13545 1.16529 0
M  V30 1955 H 189.334 -3.57493 1.22503 0
M  V30 1956 H 189.647 -7.08401 3.08848 0
M  V30 1957 H 187.992 -6.37362 2.77118 0
M  V30 1958 H 191.183 -4.40019 1.59689 0
M  V30 1959 H 191.356 -6.00045 2.44643 0
M  V30 1960 N 184.763 -0.387143 -1.52771 0
M  V30 1961 C 185.693 0.440551 -2.29306 0
M  V30 1962 C 186.674 1.06535 -1.32606 0
M  V30 1963 O 187.859 1.07853 -1.61497 0
M  V30 1964 C 184.989 1.56919 -3.09829 0
M  V30 1965 C 183.943 1.07054 -4.14395 0
M  V30 1966 C 183.269 2.29109 -4.83129 0
M  V30 1967 C 184.569 0.140015 -5.22112 0
M  V30 1968 H 186.263 -0.198026 -2.98744 0
M  V30 1969 H 183.809 -0.09668 -1.43675 0
M  V30 1970 H 185.762 2.15503 -3.62128 0
M  V30 1971 H 184.486 2.23532 -2.3812 0
M  V30 1972 H 183.145 0.507247 -3.63074 0
M  V30 1973 H 182.793 2.94227 -4.0797 0
M  V30 1974 H 182.493 1.96406 -5.53804 0
M  V30 1975 H 184.017 2.88339 -5.38231 0
M  V30 1976 H 185.431 0.633978 -5.69784 0
M  V30 1977 H 183.828 -0.0971485 -6.00021 0
M  V30 1978 H 184.898 -0.811711 -4.78058 0
M  V30 1979 N 186.241 1.57166 -0.116904 0
M  V30 1980 C 187.487 1.96206 0.536166 0
M  V30 1981 C 187.842 0.99915 1.64422 0
M  V30 1982 O 187.135 0.0288195 1.91578 0
M  V30 1983 C 187.329 3.39508 1.11664 0
M  V30 1984 C 187.158 4.49651 0.0663474 0
M  V30 1985 C 185.928 5.03982 -0.36474 0
M  V30 1986 C 188.126 5.09322 -0.713829 0
M  V30 1987 N 186.108 5.97699 -1.40102 0
M  V30 1988 C 187.479 5.98963 -1.60136 0
M  V30 1989 C 189.534 4.91989 -0.764948 0
M  V30 1990 C 188.237 6.73128 -2.53556 0
M  V30 1991 C 190.263 5.66833 -1.68685 0
M  V30 1992 C 189.625 6.56158 -2.56196 0
M  V30 1993 H 185.724 0.764203 0.165886 0
M  V30 1994 H 188.308 1.93623 -0.204535 0
M  V30 1995 H 186.479 3.42743 1.82707 0
M  V30 1996 H 188.211 3.65677 1.73386 0
M  V30 1997 H 184.966 4.73592 0.027252 0
M  V30 1998 H 185.39 6.49262 -1.91802 0
M  V30 1999 H 190.032 4.22676 -0.102501 0
M  V30 2000 H 187.75 7.41689 -3.20816 0
M  V30 2001 H 191.336 5.55427 -1.73181 0
M  V30 2002 H 190.216 7.13057 -3.26372 0
M  V30 2003 N 187.719 -0.156864 1.56817 0
M  V30 2004 C 188.666 -1.19394 1.97519 0
M  V30 2005 C 189.636 -1.4322 0.841265 0
M  V30 2006 O 190.821 -1.55719 1.10255 0
M  V30 2007 C 187.961 -2.52483 2.35258 0
M  V30 2008 C 187.074 -2.35914 3.61896 0
M  V30 2009 C 186.209 -3.61969 3.88782 0
M  V30 2010 C 185.248 -3.40395 5.08722 0
M  V30 2011 N 184.385 -4.58556 5.31668 0
M  V30 2012 H 189.225 -0.839845 2.85921 0
M  V30 2013 H 186.762 -0.403264 1.41464 0
M  V30 2014 H 188.72 -3.30071 2.55165 0
M  V30 2015 H 187.35 -2.85859 1.49949 0
M  V30 2016 H 186.402 -1.49429 3.49821 0
M  V30 2017 H 187.714 -2.15926 4.49641 0
M  V30 2018 H 186.868 -4.47989 4.09135 0
M  V30 2019 H 185.607 -3.84951 2.9944 0
M  V30 2020 H 184.612 -2.52763 4.88253 0
M  V30 2021 H 185.837 -3.18822 5.99608 0
M  V30 2022 H 183.783 -4.81729 4.45279 0
M  V30 2023 H 183.7 -4.41535 6.13664 0
M  V30 2024 H 184.968 -5.45817 5.5651 0
M  V30 2025 N 189.197 -1.51736 -0.425897 0
M  V30 2026 C 190.474 -1.55519 -1.1863 0
M  V30 2027 C 190.854 -0.326219 -2.08564 0
M  V30 2028 O 190.202 0.688012 -2.17896 0
M  V30 2029 C 190.412 -2.87521 -1.9782 0
M  V30 2030 C 191.76 -3.39899 -2.54468 0
M  V30 2031 O 192.784 -2.89148 -2.08019 0
M  V30 2032 O 191.643 -4.2848 -3.39215 0
M  V30 2033 H 188.737 -0.625739 -0.540721 0
M  V30 2034 H 191.283 -1.64055 -0.434038 0
M  V30 2035 H 190.055 -3.68422 -1.31836 0
M  V30 2036 H 189.678 -2.822 -2.80088 0
M  V30 2037 N 190.675 0.682077 -1.42076 0
M  V30 2038 C 191.9 1.47558 -1.45744 0
M  V30 2039 C 192.325 1.87977 -0.0680981 0
M  V30 2040 O 191.683 1.55522 0.9318 0
M  V30 2041 C 191.731 2.70575 -2.38373 0
M  V30 2042 O 190.835 3.68573 -1.85007 0
M  V30 2043 H 190.176 0.443585 -0.494093 0
M  V30 2044 H 192.706 0.837238 -1.86686 0
M  V30 2045 H 192.716 3.18729 -2.54707 0
M  V30 2046 H 191.391 2.40495 -3.39315 0
M  V30 2047 H 189.968 3.2757 -1.78192 0
M  V30 2048 N 192.153 1.28127 0.917671 0
M  V30 2049 C 193.401 1.14825 1.66312 0
M  V30 2050 C 193.722 -0.304379 1.9261 0
M  V30 2051 O 192.992 -1.21149 1.53947 0
M  V30 2052 H 191.572 0.421953 0.616413 0
M  V30 2053 H 194.234 1.608 1.10134 0
M  V30 2054 H 193.33 1.68489 2.62712 0
M  V30 2055 N 193.631 -1.12557 1.10312 0
M  V30 2056 C 194.88 -1.83395 0.839588 0
M  V30 2057 C 195.193 -1.84939 -0.636929 0
M  V30 2058 O 196.399 -2.51761 -1.01631 0
M  V30 2059 C 194.855 -3.29303 1.45215 0
M  V30 2060 C 194.463 -3.36122 2.96186 0
M  V30 2061 C 196.207 -4.05121 1.26796 0
M  V30 2062 C 194.114 -4.76357 3.50483 0
M  V30 2063 H 193.044 -0.687133 0.310425 0
M  V30 2064 H 195.695 -1.26746 1.32694 0
M  V30 2065 H 194.077 -3.85812 0.892469 0
M  V30 2066 H 195.251 -2.89559 3.58458 0
M  V30 2067 H 193.566 -2.73776 3.13745 0
M  V30 2068 H 196.163 -5.08668 1.64806 0
M  V30 2069 H 196.506 -4.15773 0.209409 0
M  V30 2070 H 197.039 -3.54967 1.79563 0
M  V30 2071 H 193.778 -4.70899 4.55998 0
M  V30 2072 H 193.298 -5.23377 2.92978 0
M  V30 2073 H 194.977 -5.45294 3.48228 0
M  V30 2074 N 195.109 -0.891671 -1.2995 0
M  V30 2075 C 196.041 -0.320695 -2.26945 0
M  V30 2076 C 197.054 0.528497 -1.53983 0
M  V30 2077 O 198.243 0.346959 -1.75096 0
M  V30 2078 C 195.343 0.562066 -3.34207 0
M  V30 2079 C 194.516 -0.259576 -4.36629 0
M  V30 2080 C 193.575 0.554739 -5.23268 0
M  V30 2081 O 192.601 -0.0249311 -5.69195 0
M  V30 2082 N 193.803 1.8625 -5.4981 0
M  V30 2083 H 196.568 -1.15432 -2.76578 0
M  V30 2084 H 194.129 -0.755336 -1.432 0
M  V30 2085 H 196.121 1.11304 -3.89093 0
M  V30 2086 H 194.691 1.29637 -2.84452 0
M  V30 2087 H 193.911 -0.991986 -3.81514 0
M  V30 2088 H 195.199 -0.822564 -5.02107 0
M  V30 2089 H 194.597 2.35628 -5.14292 0
M  V30 2090 H 193.154 2.36078 -6.07545 0
M  V30 2091 N 196.587 1.43421 -0.653314 0
M  V30 2092 C 197.55 2.29182 0.0287951 0
M  V30 2093 C 198.55 1.42213 0.750465 0
M  V30 2094 O 199.74 1.63843 0.591701 0
M  V30 2095 C 196.872 3.24278 1.05151 0
M  V30 2096 H 198.065 2.90985 -0.725786 0
M  V30 2097 H 195.618 1.50702 -0.414545 0
M  V30 2098 H 196.353 2.6737 1.83532 0
M  V30 2099 H 196.138 3.88396 0.537687 0
M  V30 2100 H 197.628 3.88647 1.52786 0
M  V30 2101 N 198.065 0.39524 1.52563 0
M  V30 2102 C 199.305 -0.184744 2.03563 0
M  V30 2103 C 199.669 -1.43548 1.27507 0
M  V30 2104 O 200.87 -2.093 1.68662 0
M  V30 2105 C 199.141 -0.440294 3.54678 0
M  V30 2106 S 200.7 -0.989712 4.27493 0
M  V30 2107 H 197.518 -0.0515075 0.709132 0
M  V30 2108 H 200.12 0.544957 1.87751 0
M  V30 2109 H 198.824 0.477005 4.07618 0
M  V30 2110 H 198.355 -1.19825 3.74707 0
M  V30 2111 H 200.37 -2.27155 4.41152 0
M  V30 2112 N 199.544 -1.57102 0.125237 0
M  V30 2113 C 200.791 -1.95407 -0.531248 0
M  V30 2114 C 201.119 -1.0089 -1.66287 0
M  V30 2115 O 200.374 -0.0339431 -1.95671 0
M  V30 2116 C 200.673 -3.40096 -1.09862 0
M  V30 2117 C 200.339 -4.50815 -0.0876989 0
M  V30 2118 C 199.001 -4.80824 0.19026 0
M  V30 2119 C 201.353 -5.17724 0.600902 0
M  V30 2120 C 198.681 -5.75058 1.163 0
M  V30 2121 C 201.033 -6.13005 1.56231 0
M  V30 2122 C 199.697 -6.41403 1.8482 0
M  V30 2123 H 198.967 -0.715046 -0.194397 0
M  V30 2124 H 201.614 -1.90373 0.207463 0
M  V30 2125 H 199.919 -3.41855 -1.91422 0
M  V30 2126 H 201.616 -3.6705 -1.61478 0
M  V30 2127 H 198.206 -4.27444 -0.314528 0
M  V30 2128 H 202.39 -4.94691 0.399333 0
M  V30 2129 H 197.646 -5.95362 1.39117 0
M  V30 2130 H 201.82 -6.63934 2.10153 0
M  V30 2131 H 199.447 -7.14229 2.60349 0
M  V30 2132 N 201.022 0.148545 -1.56898 0
M  V30 2133 C 201.932 1.20293 -2.01412 0
M  V30 2134 C 202.948 1.47107 -0.929273 0
M  V30 2135 O 204.124 1.58807 -1.23863 0
M  V30 2136 C 201.189 2.51682 -2.38447 0
M  V30 2137 C 200.25 2.32529 -3.60872 0
M  V30 2138 C 199.483 3.57653 -3.96132 0
M  V30 2139 O 199.706 4.63771 -3.32073 0
M  V30 2140 O 198.64 3.50408 -4.89385 0
M  V30 2141 H 202.466 0.855025 -2.91416 0
M  V30 2142 H 200.051 0.357151 -1.45068 0
M  V30 2143 H 201.933 3.29147 -2.63135 0
M  V30 2144 H 200.608 2.86006 -1.51599 0
M  V30 2145 H 199.515 1.53019 -3.41373 0
M  V30 2146 H 200.848 2.03121 -4.48333 0
M  V30 2147 N 202.5 1.5196 0.417844 0
M  V30 2148 C 203.916 1.40569 0.755816 0
M  V30 2149 C 204.116 0.503316 1.95113 0
M  V30 2150 O 203.172 -0.0341925 2.52477 0
M  V30 2151 C 204.485 2.82947 1.01791 0
M  V30 2152 C 206.033 2.92231 1.12116 0
M  V30 2153 C 206.508 4.35559 1.41608 0
M  V30 2154 N 207.999 4.38753 1.48491 0
M  V30 2155 C 208.734 5.46705 1.7292 0
M  V30 2156 N 208.23 6.64788 1.95011 0
M  V30 2157 N 210.023 5.34209 1.74863 0
M  V30 2158 H 202.174 2.09168 -0.369098 0
M  V30 2159 H 204.437 0.942409 -0.102809 0
M  V30 2160 H 204.143 3.5106 0.212081 0
M  V30 2161 H 204.017 3.23462 1.94042 0
M  V30 2162 H 206.404 2.24304 1.9176 0
M  V30 2163 H 206.485 2.55185 0.177225 0
M  V30 2164 H 206.129 5.04042 0.624848 0
M  V30 2165 H 206.059 4.70133 2.37239 0
M  V30 2166 H 208.55 3.5363 1.33244 0
M  V30 2167 H 208.863 7.42845 2.13076 0
M  V30 2168 H 207.208 6.67869 1.92293 0
M  V30 2169 H 210.399 4.40937 1.57137 0
M  V30 2170 H 210.572 6.18415 1.93563 0
M  V30 2171 N 203.978 -0.674533 1.42435 0
M  V30 2172 C 204.941 -1.76986 1.45632 0
M  V30 2173 C 205.941 -1.5708 0.343871 0
M  V30 2174 O 207.131 -1.63367 0.604709 0
M  V30 2175 C 204.263 -3.15623 1.28822 0
M  V30 2176 H 205.456 -1.75539 2.43158 0
M  V30 2177 H 203.009 -0.884189 1.28887 0
M  V30 2178 H 203.744 -3.22696 0.322193 0
M  V30 2179 H 203.529 -3.31475 2.09444 0
M  V30 2180 H 205.019 -3.95537 1.33942 0
M  V30 2181 N 205.456 -1.28612 -0.910864 0
M  V30 2182 C 206.681 -1.1891 -1.69927 0
M  V30 2183 C 207.106 0.248372 -1.86453 0
M  V30 2184 O 206.464 1.17961 -1.37676 0
M  V30 2185 C 206.512 -1.89578 -3.06745 0
M  V30 2186 O 205.616 -1.20521 -3.94396 0
M  V30 2187 H 204.957 -0.412632 -0.520222 0
M  V30 2188 H 207.487 -1.69985 -1.1387 0
M  V30 2189 H 207.497 -1.97597 -3.56958 0
M  V30 2190 H 206.172 -2.94136 -2.94035 0
M  V30 2191 H 204.749 -1.20684 -3.52831 0
M  V30 2192 N 206.934 1.1197 -1.10907 0
M  V30 2193 C 207.844 2.21433 -0.774896 0
M  V30 2194 C 208.86 1.72478 0.229657 0
M  V30 2195 O 210.036 2.01288 0.0672008 0
M  V30 2196 C 207.101 3.4602 -0.216986 0
M  V30 2197 C 206.162 4.09791 -1.27944 0
M  V30 2198 C 205.395 5.28431 -0.748055 0
M  V30 2199 O 205.618 5.68823 0.423833 0
M  V30 2200 O 204.552 5.82644 -1.51027 0
M  V30 2201 H 208.378 2.5242 -1.68873 0
M  V30 2202 H 205.963 1.20399 -0.884555 0
M  V30 2203 H 207.845 4.21304 0.090059 0
M  V30 2204 H 206.52 3.16698 0.669633 0
M  V30 2205 H 205.427 3.36265 -1.63941 0
M  V30 2206 H 206.76 4.4328 -2.13925 0
M  V30 2207 N 208.412 0.89855 1.29475 0
M  V30 2208 C 209.642 0.538479 1.99459 0
M  V30 2209 C 210.05 -0.880922 1.67441 0
M  V30 2210 O 209.393 -1.59283 0.915127 0
M  V30 2211 C 209.455 0.649564 3.53583 0
M  V30 2212 C 209.119 2.03573 4.09154 0
M  V30 2213 C 210.116 3.00675 4.24135 0
M  V30 2214 C 207.801 2.3448 4.44212 0
M  V30 2215 C 209.795 4.26809 4.73405 0
M  V30 2216 C 207.482 3.60857 4.93179 0
M  V30 2217 C 208.48 4.56836 5.0773 0
M  V30 2218 O 208.168 5.80969 5.55635 0
M  V30 2219 H 207.9 0.205372 0.644048 0
M  V30 2220 H 210.454 1.20958 1.66007 0
M  V30 2221 H 208.684 -0.0785592 3.8662 0
M  V30 2222 H 210.373 0.29881 4.04799 0
M  V30 2223 H 211.139 2.78112 3.97339 0
M  V30 2224 H 207.018 1.60534 4.32145 0
M  V30 2225 H 210.562 5.0173 4.84678 0
M  V30 2226 H 206.459 3.83251 5.19412 0
M  V30 2227 H 207.227 5.83542 5.73952 0
M  V30 2228 N 209.89 -1.43072 0.660911 0
M  V30 2229 C 210.822 -2.29108 -0.0647641 0
M  V30 2230 C 211.835 -1.42928 -0.779448 0
M  V30 2231 O 213.024 -1.66788 -0.635921 0
M  V30 2232 C 210.124 -3.20032 -1.11503 0
M  V30 2233 C 209.297 -4.34792 -0.476955 0
M  V30 2234 C 208.356 -5.06534 -1.42513 0
M  V30 2235 O 207.382 -5.61538 -0.930771 0
M  V30 2236 N 208.584 -5.1075 -2.75889 0
M  V30 2237 H 211.349 -2.92029 0.673731 0
M  V30 2238 H 208.91 -1.53846 0.50427 0
M  V30 2239 H 210.902 -3.64892 -1.75032 0
M  V30 2240 H 209.472 -2.58658 -1.75541 0
M  V30 2241 H 208.692 -3.92752 0.337572 0
M  V30 2242 H 209.98 -5.0879 -0.0318525 0
M  V30 2243 H 209.378 -4.67447 -3.18606 0
M  V30 2244 H 207.935 -5.59302 -3.347 0
M  V30 2245 N 211.368 -0.403325 -1.52352 0
M  V30 2246 C 212.298 0.416205 -2.29761 0
M  V30 2247 C 213.279 1.05123 -1.33728 0
M  V30 2248 O 214.464 1.06134 -1.62632 0
M  V30 2249 C 211.594 1.53624 -3.11475 0
M  V30 2250 C 210.548 1.02653 -4.15507 0
M  V30 2251 C 209.874 2.23971 -4.85532 0
M  V30 2252 C 211.174 0.08463 -5.22231 0
M  V30 2253 H 212.868 -0.229701 -2.98518 0
M  V30 2254 H 210.414 -0.111913 -1.43564 0
M  V30 2255 H 212.367 2.1165 -3.64393 0
M  V30 2256 H 211.091 2.20994 -2.40477 0
M  V30 2257 H 209.75 0.46871 -3.63591 0
M  V30 2258 H 209.398 2.89883 -4.11068 0
M  V30 2259 H 209.098 1.90521 -5.55856 0
M  V30 2260 H 210.622 2.82614 -5.41259 0
M  V30 2261 H 212.036 0.573509 -5.70424 0
M  V30 2262 H 210.433 -0.160783 -5.99885 0
M  V30 2263 H 211.503 -0.86237 -4.7717 0
M  V30 2264 N 212.846 1.57033 -0.133567 0
M  V30 2265 C 213.794 2.17348 0.828412 0
M  V30 2266 C 214.788 1.12671 1.26498 0
M  V30 2267 O 215.994 1.30947 1.23502 0
M  V30 2268 H 212.369 0.695775 0.285309 0
M  V30 2269 H 214.34 2.96935 0.295372 0
M  V30 2270 C 213.089 2.79893 2.06289 0
M  V30 2271 H 212.412 3.60147 1.73592 0
M  V30 2272 H 213.852 3.25615 2.71572 0
M  V30 2273 C 212.311 1.77713 2.86216 0
M  V30 2274 O 212.841 1.23937 3.82103 0
M  V30 2275 N 211.047 1.47321 2.50489 0
M  V30 2276 H 210.594 1.91243 1.7258 0
M  V30 2277 H 210.552 0.79199 3.04261 0
M  V30 2278 N 214.325 -0.140222 1.56975 0
M  V30 2279 C 215.602 -0.880769 1.74648 0
M  V30 2280 C 215.982 -1.99036 0.703404 0
M  V30 2281 O 215.33 -2.26821 -0.27648 0
M  V30 2282 C 215.54 -1.417 3.18939 0
M  V30 2283 C 216.888 -1.87774 3.80823 0
M  V30 2284 O 217.912 -1.51427 3.2241 0
M  V30 2285 O 216.771 -2.54827 4.83452 0
M  V30 2286 H 213.865 -0.416713 0.714338 0
M  V30 2287 H 216.411 -0.125618 1.69234 0
M  V30 2288 H 215.183 -0.619902 3.86359 0
M  V30 2289 H 214.806 -2.23546 3.28805 0
M  V30 2290 N 215.803 -1.52179 -0.40978 0
M  V30 2291 C 217.028 -1.70347 -1.18308 0
M  V30 2292 C 217.453 -0.411887 -1.83535 0
M  V30 2293 O 216.811 0.630587 -1.6998 0
M  V30 2294 C 216.859 -2.83977 -2.22238 0
M  V30 2295 O 215.963 -2.495 -3.28365 0
M  V30 2296 H 215.304 -0.567103 -0.345384 0
M  V30 2297 H 217.834 -1.98879 -0.480445 0
M  V30 2298 H 217.844 -3.0887 -2.66577 0
M  V30 2299 H 216.519 -3.77685 -1.74146 0
M  V30 2300 H 215.096 -2.35277 -2.89308 0
M  V30 2301 N 217.281 0.66697 -1.42791 0
M  V30 2302 C 218.244 1.76211 -1.46568 0
M  V30 2303 C 219.244 1.56896 -0.352196 0
M  V30 2304 O 220.434 1.63044 -0.613364 0
M  V30 2305 C 217.566 3.14935 -1.30494 0
M  V30 2306 H 218.759 1.74247 -2.44086 0
M  V30 2307 H 216.312 0.877342 -1.29354 0
M  V30 2308 H 217.047 3.2252 -0.339301 0
M  V30 2309 H 216.832 3.30359 -2.11199 0
M  V30 2310 H 218.322 3.94821 -1.36038 0
M  V30 2311 N 218.759 1.29093 0.90403 0
M  V30 2312 C 220.007 1.16583 1.65085 0
M  V30 2313 C 220.328 -0.283933 1.92922 0
M  V30 2314 O 219.598 -1.19509 1.55224 0
M  V30 2315 H 218.178 0.428467 0.611903 0
M  V30 2316 H 220.84 1.61959 1.08422 0
M  V30 2317 H 219.936 1.71266 2.6091 0
M  V30 2318 N 220.237 -1.11381 1.11499 0
M  V30 2319 C 221.467 -1.86663 0.885464 0
M  V30 2320 C 221.875 -1.80464 -0.568281 0
M  V30 2321 O 221.218 -1.18445 -1.40415 0
M  V30 2322 C 221.28 -3.36337 1.26956 0
M  V30 2323 C 220.944 -3.66304 2.73259 0
M  V30 2324 C 221.941 -3.63733 3.71476 0
M  V30 2325 C 219.626 -3.9529 3.09921 0
M  V30 2326 C 221.62 -3.89725 5.04374 0
M  V30 2327 C 219.307 -4.20941 4.43004 0
M  V30 2328 C 220.305 -4.18147 5.40039 0
M  V30 2329 O 219.993 -4.43153 6.70724 0
M  V30 2330 H 219.725 -0.597114 0.316908 0
M  V30 2331 H 222.279 -1.41782 1.48617 0
M  V30 2332 H 220.509 -3.81826 0.611999 0
M  V30 2333 H 222.198 -3.92986 1.01573 0
M  V30 2334 H 222.964 -3.41389 3.44498 0
M  V30 2335 H 218.843 -3.966 2.35009 0
M  V30 2336 H 222.387 -3.8746 5.80104 0
M  V30 2337 H 218.284 -4.42761 4.69716 0
M  V30 2338 H 219.052 -4.60717 6.76522 0
M  V30 2339 N 221.715 -0.905404 -1.28997 0
M  V30 2340 C 222.945 -0.549049 -1.99171 0
M  V30 2341 C 223.353 0.87203 -1.67906 0
M  V30 2342 O 222.696 1.58796 -0.923561 0
M  V30 2343 C 222.758 -0.668306 -3.53234 0
M  V30 2344 C 222.422 -2.0574 -4.08069 0
M  V30 2345 C 223.419 -3.0292 -4.22534 0
M  V30 2346 C 221.104 -2.36833 -4.42962 0
M  V30 2347 C 223.098 -4.29314 -4.71135 0
M  V30 2348 C 220.785 -3.63467 -4.91258 0
M  V30 2349 C 221.783 -4.59522 -5.053 0
M  V30 2350 O 221.471 -5.83907 -5.52546 0
M  V30 2351 H 221.203 -0.208784 -0.64295 0
M  V30 2352 H 223.757 -1.21836 -1.65363 0
M  V30 2353 H 221.987 0.0580547 -3.86656 0
M  V30 2354 H 223.676 -0.320273 -4.04634 0
M  V30 2355 H 224.442 -2.80216 -3.95859 0
M  V30 2356 H 220.321 -1.62824 -4.31288 0
M  V30 2357 H 223.865 -5.04293 -4.8201 0
M  V30 2358 H 219.762 -3.86 -5.17372 0
M  V30 2359 H 220.53 -5.86578 -5.70849 0
M  V30 2360 N 223.193 1.4272 -0.668489 0
M  V30 2361 C 224.123 2.335 -0.000100175 0
M  V30 2362 C 225.104 1.50328 0.795964 0
M  V30 2363 O 226.289 1.78949 0.754385 0
M  V30 2364 C 223.419 3.33874 0.956302 0
M  V30 2365 C 222.373 4.27152 0.269278 0
M  V30 2366 C 221.699 5.17684 1.33818 0
M  V30 2367 C 222.999 5.15373 -0.847805 0
M  V30 2368 H 224.693 2.89639 -0.758244 0
M  V30 2369 H 222.239 1.39269 -0.366079 0
M  V30 2370 H 224.192 3.9629 1.43292 0
M  V30 2371 H 222.916 2.76025 1.74579 0
M  V30 2372 H 221.575 3.66123 -0.187042 0
M  V30 2373 H 221.223 4.56165 2.1195 0
M  V30 2374 H 220.923 5.80918 0.883659 0
M  V30 2375 H 222.447 5.82974 1.81586 0
M  V30 2376 H 223.861 5.7151 -0.452681 0
M  V30 2377 H 222.258 5.87407 -1.22773 0
M  V30 2378 H 223.328 4.5415 -1.69929 0
M  V30 2379 N 224.671 0.411399 1.52136 0
M  V30 2380 C 225.896 -0.165538 2.06738 0
M  V30 2381 C 226.321 -1.379 1.27926 0
M  V30 2382 O 225.679 -1.78628 0.310114 0
M  V30 2383 C 225.727 -0.492124 3.57226 0
M  V30 2384 O 224.831 -1.58276 3.80818 0
M  V30 2385 H 224.172 -0.0132132 0.663869 0
M  V30 2386 H 226.702 0.585253 1.96051 0
M  V30 2387 H 226.712 -0.750104 4.01045 0
M  V30 2388 H 225.387 0.394922 4.14021 0
M  V30 2389 H 223.964 -1.31677 3.48877 0
M  V30 2390 N 226.149 -1.5696 0.141893 0
M  V30 2391 C 227.426 -1.87553 -0.555281 0
M  V30 2392 C 227.806 -1.04699 -1.83306 0
M  V30 2393 O 227.154 -0.132346 -2.28116 0
M  V30 2394 C 227.364 -3.39093 -0.825664 0
M  V30 2395 C 228.712 -4.08199 -1.16869 0
M  V30 2396 O 229.736 -3.44242 -0.915185 0
M  V30 2397 O 228.595 -5.21139 -1.6455 0
M  V30 2398 H 225.689 -0.777188 -0.282679 0
M  V30 2399 H 228.235 -1.68763 0.17812 0
M  V30 2400 H 227.007 -3.91221 0.0788633 0
M  V30 2401 H 226.63 -3.63393 -1.61343 0
M  V30 2402 N 227.627 0.131896 -1.57047 0
M  V30 2403 C 228.557 1.16384 -2.02428 0
M  V30 2404 C 229.538 1.43936 -0.90644 0
M  V30 2405 O 230.723 1.54599 -1.17528 0
M  V30 2406 C 227.853 2.49328 -2.4177 0
M  V30 2407 C 226.807 2.36266 -3.56879 0
M  V30 2408 C 226.133 3.74057 -3.8208 0
M  V30 2409 C 227.433 1.834 -4.89042 0
M  V30 2410 H 229.127 0.786433 -2.88887 0
M  V30 2411 H 226.673 0.376855 -1.38981 0
M  V30 2412 H 228.626 3.21759 -2.7212 0
M  V30 2413 H 227.35 2.88934 -1.52266 0
M  V30 2414 H 226.009 1.66286 -3.26718 0
M  V30 2415 H 225.657 4.11125 -2.89803 0
M  V30 2416 H 225.357 3.66174 -4.59554 0
M  V30 2417 H 226.881 4.48012 -4.1487 0
M  V30 2418 H 228.295 2.45636 -5.18011 0
M  V30 2419 H 226.692 1.8637 -5.70426 0
M  V30 2420 H 227.762 0.790662 -4.7841 0
M  V30 2421 N 229.106 1.52395 0.401703 0
M  V30 2422 C 230.016 1.7917 1.51444 0
M  V30 2423 C 231.032 0.677691 1.6026 0
M  V30 2424 O 232.208 0.963909 1.76835 0
M  V30 2425 C 229.273 1.94347 2.87107 0
M  V30 2426 C 228.334 3.18257 2.88116 0
M  V30 2427 C 227.567 3.32701 4.17308 0
M  V30 2428 O 227.79 2.52238 5.11598 0
M  V30 2429 O 226.724 4.25891 4.25324 0
M  V30 2430 H 230.55 2.73633 1.31752 0
M  V30 2431 H 228.135 1.3733 0.588296 0
M  V30 2432 H 230.017 2.06109 3.67555 0
M  V30 2433 H 228.692 1.03073 3.06851 0
M  V30 2434 H 227.599 3.11947 2.06494 0
M  V30 2435 H 228.932 4.09336 2.73322 0
M  V30 2436 N 230.584 -0.659388 1.43143 0
M  V30 2437 C 232 -0.974337 1.26407 0
M  V30 2438 C 232.2 -2.007 0.179341 0
M  V30 2439 O 231.256 -2.4856 -0.444295 0
M  V30 2440 C 232.569 -1.46447 2.62628 0
M  V30 2441 C 234.117 -1.58144 2.7011 0
M  V30 2442 C 234.592 -2.1055 4.06734 0
M  V30 2443 N 236.083 -2.17861 4.08767 0
M  V30 2444 C 236.818 -2.59519 5.1131 0
M  V30 2445 N 236.314 -3.00518 6.24228 0
M  V30 2446 N 238.107 -2.59404 4.98664 0
M  V30 2447 H 230.258 0.0240528 2.12386 0
M  V30 2448 H 232.521 -0.0518065 0.946583 0
M  V30 2449 H 232.227 -0.780123 3.42939 0
M  V30 2450 H 232.101 -2.44058 2.87603 0
M  V30 2451 H 234.488 -2.25682 1.90136 0
M  V30 2452 H 234.569 -0.589828 2.48907 0
M  V30 2453 H 234.213 -1.43616 4.87172 0
M  V30 2454 H 234.143 -3.10531 4.25298 0
M  V30 2455 H 236.634 -1.88975 3.27257 0
M  V30 2456 H 236.947 -3.31036 6.98309 0
M  V30 2457 H 235.292 -2.98337 6.2771 0
M  V30 2458 H 238.483 -2.26747 4.09516 0
M  V30 2459 H 238.656 -2.91548 5.78709 0
M  V30 2460 N 232.062 -1.29571 -0.897171 0
M  V30 2461 C 232.992 -1.17473 -2.01798 0
M  V30 2462 C 233.973 -0.068323 -1.69963 0
M  V30 2463 O 235.158 -0.248239 -1.92607 0
M  V30 2464 C 232.288 -0.853099 -3.36659 0
M  V30 2465 C 231.242 -1.9161 -3.82713 0
M  V30 2466 C 230.568 -1.44773 -5.14728 0
M  V30 2467 C 231.868 -3.32535 -4.02763 0
M  V30 2468 H 233.562 -2.11237 -2.12177 0
M  V30 2469 H 231.108 -1.01699 -1.01948 0
M  V30 2470 H 233.061 -0.755165 -4.14578 0
M  V30 2471 H 231.785 0.120236 -3.26379 0
M  V30 2472 H 230.444 -2.00346 -3.07013 0
M  V30 2473 H 230.092 -0.462995 -5.00865 0
M  V30 2474 H 229.792 -2.15865 -5.46513 0
M  V30 2475 H 231.316 -1.36334 -5.95185 0
M  V30 2476 H 232.73 -3.26626 -4.71156 0
M  V30 2477 H 231.127 -4.01607 -4.45905 0
M  V30 2478 H 232.197 -3.75326 -3.07016 0
M  V30 2479 N 233.54 1.10788 -1.12088 0
M  V30 2480 C 234.786 1.82942 -0.875226 0
M  V30 2481 C 235.119 1.84779 0.597538 0
M  V30 2482 O 234.394 1.30578 1.44152 0
M  V30 2483 C 234.677 3.29789 -1.44606 0
M  V30 2484 C 234.53 3.36307 -2.98693 0
M  V30 2485 C 235.849 4.26064 -1.10261 0
M  V30 2486 H 232.968 0.664195 -0.319397 0
M  V30 2487 H 235.61 1.29867 -1.38689 0
M  V30 2488 H 233.76 3.75118 -1.01089 0
M  V30 2489 H 235.432 2.99487 -3.50864 0
M  V30 2490 H 233.675 2.76318 -3.34411 0
M  V30 2491 H 234.346 4.39694 -3.33726 0
M  V30 2492 H 236.822 3.88951 -1.4784 0
M  V30 2493 H 235.698 5.27183 -1.52869 0
M  V30 2494 H 235.959 4.42098 -0.0142953 0
M  V30 2495 N 235.018 0.912232 1.28515 0
M  V30 2496 C 236.246 0.560416 1.99166 0
M  V30 2497 C 236.661 -0.857927 1.68182 0
M  V30 2498 O 236.018 -1.56805 0.933733 0
M  V30 2499 C 236.069 0.758142 3.53461 0
M  V30 2500 O 235.79 2.12067 3.83352 0
M  V30 2501 C 237.291 0.412954 4.41372 0
M  V30 2502 H 234.511 0.213805 0.636026 0
M  V30 2503 H 237.055 1.22502 1.63749 0
M  V30 2504 H 235.21 0.140556 3.87145 0
M  V30 2505 H 235.624 2.15923 4.77993 0
M  V30 2506 H 237.098 0.60208 5.48707 0
M  V30 2507 H 237.575 -0.65073 4.34353 0
M  V30 2508 H 238.181 1.00802 4.13182 0
M  V30 2509 N 236.496 -1.42363 0.676048 0
M  V30 2510 C 237.907 -1.84649 0.275948 0
M  V30 2511 C 238.258 -1.56588 -1.18214 0
M  V30 2512 O 237.383 -1.02634 -1.90513 0
M  V30 2513 C 237.978 -3.35178 0.494053 0
M  V30 2514 C 236.537 -3.76109 0.148061 0
M  V30 2515 C 235.684 -2.65931 0.785891 0
M  V30 2516 H 238.635 -1.32192 0.878121 0
M  V30 2517 H 238.656 -3.79655 -0.25343 0
M  V30 2518 H 238.168 -3.55571 1.55535 0
M  V30 2519 H 236.269 -3.61323 -0.909742 0
M  V30 2520 H 236.382 -4.7546 0.589454 0
M  V30 2521 H 234.746 -2.53773 0.217113 0
M  V30 2522 H 235.529 -2.89146 1.85067 0
M  V30 2523 N 237.974 -0.419461 -1.51915 0
M  V30 2524 C 239.222 0.152637 -2.01523 0
M  V30 2525 C 239.543 1.44762 -1.30649 0
M  V30 2526 O 238.813 1.90997 -0.435535 0
M  V30 2527 H 237.393 0.0593966 -0.744635 0
M  V30 2528 H 240.055 -0.558073 -1.86739 0
M  V30 2529 H 239.151 0.341369 -3.10227 0
M  V30 2530 N 239.452 1.56882 -0.150215 0
M  V30 2531 C 240.682 2.00302 0.506213 0
M  V30 2532 C 241.09 1.02934 1.58749 0
M  V30 2533 O 240.433 0.0188384 1.8369 0
M  V30 2534 C 240.495 3.40156 1.16337 0
M  V30 2535 C 240.159 4.56439 0.226311 0
M  V30 2536 C 241.156 5.17012 -0.547265 0
M  V30 2537 C 238.841 5.02136 0.128279 0
M  V30 2538 C 240.835 6.21693 -1.40629 0
M  V30 2539 C 238.522 6.06672 -0.734345 0
M  V30 2540 C 239.52 6.6632 -1.50023 0
M  V30 2541 O 239.208 7.68831 -2.34848 0
M  V30 2542 H 238.94 0.662182 0.135984 0
M  V30 2543 H 241.494 2.03961 -0.242746 0
M  V30 2544 H 239.724 3.33346 1.96004 0
M  V30 2545 H 241.413 3.67663 1.71985 0
M  V30 2546 H 242.179 4.82603 -0.48158 0
M  V30 2547 H 238.058 4.55435 0.714157 0
M  V30 2548 H 241.602 6.68179 -2.00455 0
M  V30 2549 H 237.499 6.40507 -0.801309 0
M  V30 2550 H 238.267 7.86065 -2.28131 0
M  V30 2551 N 240.93 -0.123565 1.57115 0
M  V30 2552 C 242.176 -0.833386 1.84885 0
M  V30 2553 C 242.509 -1.79742 0.735292 0
M  V30 2554 O 241.784 -1.92764 -0.25925 0
M  V30 2555 C 242.067 -1.5873 3.23228 0
M  V30 2556 C 241.92 -0.643183 4.45178 0
M  V30 2557 C 243.239 -2.54453 3.59085 0
M  V30 2558 H 240.358 -0.301518 0.6725 0
M  V30 2559 H 243 -0.097778 1.89748 0
M  V30 2560 H 241.15 -2.21438 3.19214 0
M  V30 2561 H 242.822 -0.0253015 4.61293 0
M  V30 2562 H 241.065 0.0456139 4.33776 0
M  V30 2563 H 241.736 -1.20724 5.38637 0
M  V30 2564 H 244.212 -2.01853 3.63861 0
M  V30 2565 H 243.088 -3.04238 4.5687 0
M  V30 2566 H 243.349 -3.36906 2.86264 0
M  V30 2567 N 242.408 -1.52605 -0.393616 0
M  V30 2568 C 243.819 -1.59417 -0.971761 0
M  V30 2569 C 244.17 -0.444173 -1.91106 0
M  V30 2570 O 243.295 0.433382 -2.12016 0
M  V30 2571 C 243.89 -2.88936 -1.76921 0
M  V30 2572 C 242.449 -2.98175 -2.29714 0
M  V30 2573 C 241.596 -2.54491 -1.10135 0
M  V30 2574 H 244.547 -1.57751 -0.173317 0
M  V30 2575 H 244.568 -2.75163 -2.62804 0
M  V30 2576 H 244.08 -3.72616 -1.08532 0
M  V30 2577 H 242.181 -2.19024 -3.01429 0
M  V30 2578 H 242.294 -4.02726 -2.59517 0
M  V30 2579 H 240.658 -2.08702 -1.45999 0
M  V30 2580 H 241.441 -3.4056 -0.432874 0
M  V30 2581 N 243.887 0.651787 -1.4349 0
M  V30 2582 C 245.115 1.43937 -1.48626 0
M  V30 2583 C 245.53 1.8851 -0.104587 0
M  V30 2584 O 244.887 1.5958 0.885464 0
M  V30 2585 C 244.938 2.6734 -2.43334 0
M  V30 2586 O 244.659 2.24631 -3.76128 0
M  V30 2587 C 246.16 3.60683 -2.57726 0
M  V30 2588 H 243.38 0.44213 -0.504739 0
M  V30 2589 H 245.924 0.798944 -1.88248 0
M  V30 2590 H 244.079 3.2752 -2.06904 0
M  V30 2591 H 244.493 3.04485 -4.2707 0
M  V30 2592 H 245.967 4.43933 -3.28067 0
M  V30 2593 H 246.444 4.08126 -1.62265 0
M  V30 2594 H 247.05 3.06384 -2.94973 0
M  V30 2595 N 245.365 1.30045 0.890287 0
M  V30 2596 C 246.275 1.17885 2.02831 0
M  V30 2597 C 247.291 0.0999609 1.73713 0
M  V30 2598 O 248.467 0.313867 1.98939 0
M  V30 2599 C 245.532 0.866079 3.35708 0
M  V30 2600 C 244.593 2.02979 3.78283 0
M  V30 2601 C 243.826 1.73184 5.0482 0
M  V30 2602 O 244.049 0.657237 5.66601 0
M  V30 2603 O 242.983 2.58267 5.43674 0
M  V30 2604 H 246.809 2.13474 2.16015 0
M  V30 2605 H 244.394 1.09587 1.01543 0
M  V30 2606 H 246.276 0.706623 4.15433 0
M  V30 2607 H 244.951 -0.0599443 3.23644 0
M  V30 2608 H 243.858 2.24454 2.99285 0
M  V30 2609 H 245.191 2.93734 3.94944 0
M  V30 2610 N 246.843 -1.10192 1.12674 0
M  V30 2611 C 247.775 -2.16418 0.754701 0
M  V30 2612 C 248.788 -1.61309 -0.21986 0
M  V30 2613 O 249.977 -1.785 -0.000826841 0
M  V30 2614 C 247.077 -3.38762 0.096698 0
M  V30 2615 C 246.25 -4.23307 1.10136 0
M  V30 2616 C 245.309 -5.24092 0.470513 0
M  V30 2617 O 244.335 -5.57906 1.12824 0
M  V30 2618 N 245.537 -5.75491 -0.760948 0
M  V30 2619 H 248.302 -2.48943 1.66875 0
M  V30 2620 H 245.863 -1.25834 1.01869 0
M  V30 2621 H 247.855 -4.03291 -0.337384 0
M  V30 2622 H 246.425 -3.04192 -0.720153 0
M  V30 2623 H 245.645 -3.55036 1.71299 0
M  V30 2624 H 246.933 -4.76624 1.78064 0
M  V30 2625 H 246.331 -5.50222 -1.31424 0
M  V30 2626 H 244.888 -6.41792 -1.13781 0
M  V30 2627 N 248.321 -0.919034 -1.28029 0
M  V30 2628 C 249.598 -0.473668 -1.89778 0
M  V30 2629 C 249.978 1.04783 -1.83259 0
M  V30 2630 O 249.326 1.8982 -1.27202 0
M  V30 2631 C 249.536 -1.00998 -3.34066 0
M  V30 2632 C 250.884 -1.06525 -4.1102 0
M  V30 2633 O 251.908 -0.958996 -3.43048 0
M  V30 2634 O 250.767 -1.22776 -5.3253 0
M  V30 2635 H 247.861 -0.15098 -0.813101 0
M  V30 2636 H 250.407 -1.01016 -1.36359 0
M  V30 2637 H 249.179 -2.05392 -3.33061 0
M  V30 2638 H 248.802 -0.454626 -3.94992 0
M  V30 2639 N 249.799 1.42003 -0.683588 0
M  V30 2640 C 251.045 2.01712 -0.209825 0
M  V30 2641 C 251.378 1.53968 1.18353 0
M  V30 2642 O 250.653 0.745661 1.79639 0
M  V30 2643 C 250.936 3.59202 -0.254197 0
M  V30 2644 C 250.789 4.17102 -1.68363 0
M  V30 2645 C 252.108 4.38344 0.392709 0
M  V30 2646 H 249.227 0.732891 -0.0777189 0
M  V30 2647 H 251.869 1.68909 -0.87004 0
M  V30 2648 H 250.019 3.87278 0.307954 0
M  V30 2649 H 251.691 3.99946 -2.29871 0
M  V30 2650 H 249.934 3.72597 -2.22157 0
M  V30 2651 H 250.605 5.26249 -1.6663 0
M  V30 2652 H 253.081 4.16011 -0.0859162 0
M  V30 2653 H 251.957 5.47901 0.331063 0
M  V30 2654 H 252.218 4.16887 1.47164 0
M  V30 2655 N 251.277 0.427512 1.51691 0
M  V30 2656 C 252.207 -0.3796 2.30394 0
M  V30 2657 C 253.188 -1.02982 1.35384 0
M  V30 2658 O 254.373 -1.03534 1.643 0
M  V30 2659 C 251.503 -1.48649 3.1388 0
M  V30 2660 C 250.457 -0.960294 4.17088 0
M  V30 2661 C 249.783 -2.16219 4.89033 0
M  V30 2662 C 251.083 -0.00153679 5.223 0
M  V30 2663 H 252.777 0.277164 2.98114 0
M  V30 2664 H 250.323 0.134739 1.43368 0
M  V30 2665 H 252.276 -2.05826 3.67714 0
M  V30 2666 H 251 -2.1714 2.43962 0
M  V30 2667 H 249.659 -0.410806 3.64291 0
M  V30 2668 H 249.307 -2.83307 4.15628 0
M  V30 2669 H 249.007 -1.81654 5.58816 0
M  V30 2670 H 250.531 -2.73968 5.45687 0
M  V30 2671 H 251.945 -0.482687 5.71264 0
M  V30 2672 H 250.342 0.256199 5.99553 0
M  V30 2673 H 251.412 0.938174 4.75738 0
M  V30 2674 N 252.755 -1.56801 0.158532 0
M  V30 2675 C 254.171 -1.5837 -0.197774 0
M  V30 2676 C 254.371 -1.17334 -1.63814 0
M  V30 2677 O 253.427 -0.878988 -2.36707 0
M  V30 2678 C 254.74 -3.00615 0.0714459 0
M  V30 2679 C 256.288 -3.12999 0.00864533 0
M  V30 2680 C 256.763 -4.57313 0.250685 0
M  V30 2681 N 258.254 -4.62777 0.198014 0
M  V30 2682 C 258.989 -5.72271 0.359642 0
M  V30 2683 N 258.485 -6.90371 0.579625 0
M  V30 2684 N 260.278 -5.61318 0.296438 0
M  V30 2685 H 252.429 -1.81765 1.09887 0
M  V30 2686 H 254.692 -0.841849 0.435884 0
M  V30 2687 H 254.398 -3.35068 1.06874 0
M  V30 2688 H 254.272 -3.71683 -0.642757 0
M  V30 2689 H 256.659 -2.7838 -0.979217 0
M  V30 2690 H 256.74 -2.44393 0.755359 0
M  V30 2691 H 256.384 -4.92639 1.2357 0
M  V30 2692 H 256.314 -5.24061 -0.516489 0
M  V30 2693 H 258.805 -3.77885 0.0331115 0
M  V30 2694 H 259.118 -7.69689 0.69275 0
M  V30 2695 H 257.463 -6.92264 0.616087 0
M  V30 2696 H 260.654 -4.67932 0.125258 0
M  V30 2697 H 260.827 -6.46599 0.425831 0
M  V30 2698 N 254.233 0.115231 -1.57178 0
M  V30 2699 C 255.458 0.840354 -1.89612 0
M  V30 2700 C 255.883 1.72464 -0.750845 0
M  V30 2701 O 255.241 1.78826 0.298478 0
M  V30 2702 C 255.289 1.64654 -3.20814 0
M  V30 2703 O 254.393 2.7538 -3.06985 0
M  V30 2704 H 253.734 0.232158 -0.622092 0
M  V30 2705 H 256.264 0.0964977 -2.04372 0
M  V30 2706 H 256.274 2.03499 -3.53627 0
M  V30 2707 H 254.949 0.997416 -4.03763 0
M  V30 2708 H 253.526 2.3971 -2.85646 0
M  V30 2709 N 255.711 1.52812 0.385517 0
M  V30 2710 C 257.127 1.4214 0.725829 0
M  V30 2711 C 257.327 0.544589 1.94001 0
M  V30 2712 O 256.383 0.0193693 2.52493 0
M  V30 2713 C 257.696 2.85042 0.957668 0
M  V30 2714 C 259.244 2.94543 1.05892 0
M  V30 2715 C 259.719 4.38464 1.32337 0
M  V30 2716 N 261.21 4.41804 1.39151 0
M  V30 2717 C 261.945 5.5025 1.61285 0
M  V30 2718 N 261.441 6.68775 1.80866 0
M  V30 2719 N 263.234 5.37798 1.63492 0
M  V30 2720 H 255.385 2.08338 -0.413383 0
M  V30 2721 H 257.648 0.940016 -0.122775 0
M  V30 2722 H 257.354 3.51431 0.137568 0
M  V30 2723 H 257.228 3.27505 1.87137 0
M  V30 2724 H 259.615 2.28321 1.86959 0
M  V30 2725 H 259.696 2.55504 0.123057 0
M  V30 2726 H 259.34 5.05254 0.517793 0
M  V30 2727 H 259.27 4.75059 2.27214 0
M  V30 2728 H 261.761 3.56377 1.25713 0
M  V30 2729 H 262.074 7.47197 1.97271 0
M  V30 2730 H 260.419 6.71797 1.78083 0
M  V30 2731 H 263.61 4.44171 1.47749 0
M  V30 2732 H 263.783 6.22382 1.80402 0
M  V30 2733 N 257.189 -0.644168 1.43834 0
M  V30 2734 C 258.435 -1.40603 1.46146 0
M  V30 2735 C 258.768 -1.93997 0.0887717 0
M  V30 2736 O 258.043 -1.72854 -0.891724 0
M  V30 2737 C 258.326 -2.58086 2.51124 0
M  V30 2738 C 258.179 -2.10126 3.97702 0
M  V30 2739 C 259.498 -3.60291 2.52742 0
M  V30 2740 H 256.617 -0.509905 0.532134 0
M  V30 2741 H 259.259 -0.729502 1.75437 0
M  V30 2742 H 257.409 -3.15801 2.26278 0
M  V30 2743 H 259.081 -1.57342 4.33637 0
M  V30 2744 H 257.324 -1.41419 4.10101 0
M  V30 2745 H 257.995 -2.94649 4.66783 0
M  V30 2746 H 260.471 -3.12352 2.7491 0
M  V30 2747 H 259.347 -4.40032 3.28121 0
M  V30 2748 H 259.608 -4.1349 1.56455 0
M  V30 2749 N 258.668 -1.30515 -0.883378 0
M  V30 2750 C 259.615 -1.17032 -1.98927 0
M  V30 2751 C 260.585 -0.0594241 -1.65994 0
M  V30 2752 O 261.77 -0.229895 -1.8941 0
M  V30 2753 C 258.91 -0.869777 -3.33959 0
M  V30 2754 C 258.023 -2.06271 -3.79574 0
M  V30 2755 C 257.158 -1.70011 -5.03259 0
M  V30 2756 C 256.197 -2.8579 -5.41286 0
M  V30 2757 N 255.334 -2.49816 -6.56153 0
M  V30 2758 H 260.174 -2.1164 -2.09792 0
M  V30 2759 H 257.711 -1.05296 -1.02719 0
M  V30 2760 H 259.669 -0.676138 -4.11685 0
M  V30 2761 H 258.299 0.0394332 -3.22776 0
M  V30 2762 H 257.351 -2.36755 -2.97744 0
M  V30 2763 H 258.663 -2.92971 -4.03694 0
M  V30 2764 H 257.817 -1.47032 -5.88614 0
M  V30 2765 H 256.556 -0.804829 -4.81013 0
M  V30 2766 H 255.561 -3.09434 -4.54456 0
M  V30 2767 H 256.786 -3.76008 -5.65504 0
M  V30 2768 H 254.732 -1.62795 -6.35479 0
M  V30 2769 H 254.649 -3.30048 -6.8015 0
M  V30 2770 H 255.917 -2.30197 -7.44735 0
M  V30 2771 N 260.146 1.09593 -1.13257 0
M  V30 2772 C 261.374 1.855 -0.916378 0
M  V30 2773 C 261.789 1.81069 0.534738 0
M  V30 2774 O 261.146 1.20562 1.37007 0
M  V30 2775 C 261.197 3.33546 -1.39388 0
M  V30 2776 O 260.918 3.37927 -2.78813 0
M  V30 2777 C 262.419 4.26299 -1.21588 0
M  V30 2778 H 259.639 0.585991 -0.326887 0
M  V30 2779 H 262.183 1.38488 -1.5047 0
M  V30 2780 H 260.338 3.77992 -0.848597 0
M  V30 2781 H 260.752 4.30254 -2.9997 0
M  V30 2782 H 262.226 5.28341 -1.59876 0
M  V30 2783 H 262.703 4.38918 -0.157376 0
M  V30 2784 H 263.309 3.87668 -1.7491 0
M  V30 2785 N 261.624 0.925811 1.2754 0
M  V30 2786 C 262.852 0.581509 1.9856 0
M  V30 2787 C 263.267 -0.840041 1.69082 0
M  V30 2788 O 262.624 -1.55805 0.950312 0
M  V30 2789 C 262.675 0.795589 3.52637 0
M  V30 2790 O 262.396 2.16121 3.81082 0
M  V30 2791 C 263.897 0.459744 4.4091 0
M  V30 2792 H 261.117 0.220538 0.633722 0
M  V30 2793 H 263.661 1.24232 1.6244 0
M  V30 2794 H 261.816 0.18161 3.86974 0
M  V30 2795 H 262.23 2.2098 4.75676 0
M  V30 2796 H 263.704 0.660244 5.48037 0
M  V30 2797 H 264.181 -0.604625 4.35018 0
M  V30 2798 H 264.787 1.05178 4.12089 0
M  V30 2799 N 263.102 -1.41638 0.69111 0
M  V30 2800 C 264.35 -2.00902 0.219758 0
M  V30 2801 C 264.671 -1.54994 -1.18329 0
M  V30 2802 O 263.941 -0.778628 -1.79762 0
M  V30 2803 H 262.521 -0.74289 0.0782558 0
M  V30 2804 H 265.183 -1.73327 0.891271 0
M  V30 2805 H 264.279 -3.11224 0.233708 0
M  V30 2806 N 264.58 -0.43555 -1.51462 0
M  V30 2807 C 265.829 0.133007 -2.01261 0
M  V30 2808 C 266.142 1.43942 -1.32439 0
M  V30 2809 O 267.348 2.09081 -1.73198 0
M  V30 2810 C 265.804 0.287581 -3.58749 0
M  V30 2811 C 265.412 -1.00829 -4.36506 0
M  V30 2812 C 267.156 0.810004 -4.167 0
M  V30 2813 C 265.063 -0.819454 -5.85695 0
M  V30 2814 H 263.993 0.0534822 -0.752101 0
M  V30 2815 H 266.644 -0.565038 -1.74584 0
M  V30 2816 H 265.026 1.04859 -3.81865 0
M  V30 2817 H 266.2 -1.77749 -4.25138 0
M  V30 2818 H 264.515 -1.45911 -3.89999 0
M  V30 2819 H 267.112 0.967743 -5.2587 0
M  V30 2820 H 267.455 1.79196 -3.75758 0
M  V30 2821 H 267.988 0.107357 -3.97655 0
M  V30 2822 H 264.727 -1.77374 -6.31046 0
M  V30 2823 H 264.247 -0.0900208 -5.99732 0
M  V30 2824 H 265.926 -0.471949 -6.45276 0
M  V30 2825 N 266.058 1.56714 -0.166846 0
M  V30 2826 C 267.307 1.95922 0.479318 0
M  V30 2827 C 267.62 1.05529 1.6469 0
M  V30 2828 O 268.826 1.34399 2.35901 0
M  V30 2829 C 267.282 3.48359 0.90412 0
M  V30 2830 C 266.89 4.47369 -0.237621 0
M  V30 2831 C 268.634 3.96394 1.51896 0
M  V30 2832 C 266.541 5.91039 0.206561 0
M  V30 2833 H 265.471 0.731495 0.18284 0
M  V30 2834 H 268.122 1.81728 -0.254363 0
M  V30 2835 H 266.504 3.57955 1.69365 0
M  V30 2836 H 267.678 4.49485 -1.01489 0
M  V30 2837 H 265.993 4.09366 -0.762128 0
M  V30 2838 H 268.59 5.01186 1.86325 0
M  V30 2839 H 268.933 3.39075 2.41524 0
M  V30 2840 H 269.466 3.89796 0.79395 0
M  V30 2841 H 266.205 6.52221 -0.654834 0
M  V30 2842 H 265.725 5.9224 0.949282 0
M  V30 2843 H 267.404 6.43707 0.651939 0
M  V30 2844 N 267.536 -0.106894 1.57237 0
M  V30 2845 C 268.446 -1.14911 2.0453 0
M  V30 2846 C 269.462 -1.44592 0.96795 0
M  V30 2847 O 270.638 -1.55468 1.2803 0
M  V30 2848 C 267.703 -2.45272 2.45036 0
M  V30 2849 C 266.764 -2.22879 3.66911 0
M  V30 2850 C 265.997 -3.47024 4.05475 0
M  V30 2851 O 266.22 -4.54804 3.44252 0
M  V30 2852 O 265.154 -3.3731 4.98504 0
M  V30 2853 H 268.98 -0.777461 2.9358 0
M  V30 2854 H 266.565 -0.318563 1.45964 0
M  V30 2855 H 268.447 -3.22055 2.71769 0
M  V30 2856 H 267.122 -2.81886 1.59129 0
M  V30 2857 H 266.029 -1.43915 3.45311 0
M  V30 2858 H 267.362 -1.91163 4.53561 0
M  V30 2859 N 269.014 -1.53014 -0.377408 0
M  V30 2860 C 270.242 -1.72515 -1.14219 0
M  V30 2861 C 270.657 -0.448735 -1.8339 0
M  V30 2862 O 270.014 0.577592 -1.73119 0
M  V30 2863 C 270.065 -2.8826 -2.18148 0
M  V30 2864 O 269.786 -4.10962 -1.51795 0
M  V30 2865 C 271.287 -3.19536 -3.07264 0
M  V30 2866 H 268.507 -0.577301 -0.342001 0
M  V30 2867 H 271.051 -1.99712 -0.439935 0
M  V30 2868 H 269.206 -2.63492 -2.83991 0
M  V30 2869 H 269.62 -4.75693 -2.20945 0
M  V30 2870 H 271.094 -4.03959 -3.76193 0
M  V30 2871 H 271.571 -2.34403 -3.71419 0
M  V30 2872 H 272.177 -3.46186 -2.47053 0
M  V30 2873 N 270.492 0.636531 -1.44174 0
M  V30 2874 C 271.424 1.7618 -1.46606 0
M  V30 2875 C 272.437 1.58768 -0.360091 0
M  V30 2876 O 273.626 1.67181 -0.625518 0
M  V30 2877 C 270.726 3.13833 -1.27915 0
M  V30 2878 C 269.899 3.57753 -2.51658 0
M  V30 2879 C 268.958 4.74265 -2.27945 0
M  V30 2880 O 267.984 4.82852 -3.01401 0
M  V30 2881 N 269.186 5.65604 -1.30662 0
M  V30 2882 H 271.951 1.74567 -2.43612 0
M  V30 2883 H 269.512 0.820924 -1.39544 0
M  V30 2884 H 271.504 3.8949 -1.09907 0
M  V30 2885 H 270.074 3.10121 -0.39293 0
M  V30 2886 H 269.294 2.72362 -2.84978 0
M  V30 2887 H 270.582 3.83847 -3.33974 0
M  V30 2888 H 269.98 5.61354 -0.699844 0
M  V30 2889 H 268.537 6.40913 -1.18634 0
M  V30 2890 N 271.97 1.30982 0.876444 0
M  V30 2891 C 273.217 1.20296 1.62896 0
M  V30 2892 C 273.545 -0.240395 1.93009 0
M  V30 2893 O 272.8 -1.18733 1.55567 0
M  V30 2894 C 273.099 1.98572 2.9716 0
M  V30 2895 C 272.765 3.48125 2.86566 0
M  V30 2896 C 271.427 3.88905 2.83383 0
M  V30 2897 C 273.779 4.43322 2.74071 0
M  V30 2898 C 271.107 5.2316 2.65556 0
M  V30 2899 C 273.459 5.77695 2.57781 0
M  V30 2900 C 272.123 6.17704 2.52979 0
M  V30 2901 H 271.393 0.440193 0.59608 0
M  V30 2902 H 274.04 1.62177 1.01837 0
M  V30 2903 H 272.345 1.49352 3.62217 0
M  V30 2904 H 274.042 1.8769 3.54364 0
M  V30 2905 H 270.632 3.15723 2.89856 0
M  V30 2906 H 274.816 4.12752 2.75589 0
M  V30 2907 H 270.072 5.53241 2.60259 0
M  V30 2908 H 274.246 6.51091 2.47089 0
M  V30 2909 H 271.873 7.21678 2.38924 0
M  V30 2910 N 273.449 -1.08991 1.13837 0
M  V30 2911 C 274.674 -1.85551 0.926585 0
M  V30 2912 C 275.099 -1.80782 -0.519566 0
M  V30 2913 O 274.457 -1.18855 -1.36906 0
M  V30 2914 C 274.505 -3.31266 1.42462 0
M  V30 2915 O 273.609 -4.07822 0.612789 0
M  V30 2916 H 272.95 -0.575192 0.331738 0
M  V30 2917 H 275.48 -1.37604 1.51414 0
M  V30 2918 H 275.49 -3.82112 1.43019 0
M  V30 2919 H 274.165 -3.34052 2.47754 0
M  V30 2920 H 272.742 -3.66731 0.675463 0
M  V30 2921 N 274.927 -0.932562 -1.27047 0
M  V30 2922 C 276.174 -0.575559 -1.94148 0
M  V30 2923 C 276.502 0.883984 -1.73251 0
M  V30 2924 O 275.757 1.64655 -1.0577 0
M  V30 2925 C 276.056 -0.853713 -3.47054 0
M  V30 2926 C 275.722 -2.29577 -3.88079 0
M  V30 2927 C 274.384 -2.68999 -3.9899 0
M  V30 2928 C 276.736 -3.23331 -4.08787 0
M  V30 2929 C 274.064 -4.01289 -4.28 0
M  V30 2930 C 276.416 -4.55207 -4.39282 0
M  V30 2931 C 275.08 -4.94457 -4.48407 0
M  V30 2932 H 274.35 -0.210612 -0.710439 0
M  V30 2933 H 276.997 -1.17744 -1.51025 0
M  V30 2934 H 275.302 -0.169204 -3.91434 0
M  V30 2935 H 276.999 -0.55639 -3.97121 0
M  V30 2936 H 273.589 -1.97994 -3.80127 0
M  V30 2937 H 277.773 -2.94074 -3.99793 0
M  V30 2938 H 273.029 -4.31374 -4.33275 0
M  V30 2939 H 277.203 -5.27852 -4.54252 0
M  V30 2940 H 274.83 -5.96994 -4.7064 0
M  V30 2941 N 276.405 1.4127 -0.698611 0
M  V30 2942 C 277.352 2.30773 -0.0352094 0
M  V30 2943 C 278.322 1.47273 0.768111 0
M  V30 2944 O 279.507 1.76053 0.735524 0
M  V30 2945 C 276.647 3.33346 0.893 0
M  V30 2946 C 275.76 4.31924 0.0809695 0
M  V30 2947 C 274.895 5.21566 1.0071 0
M  V30 2948 C 273.934 6.11811 0.188155 0
M  V30 2949 N 273.071 6.93926 1.06825 0
M  V30 2950 H 277.911 2.86943 -0.804207 0
M  V30 2951 H 275.448 1.4132 -0.408294 0
M  V30 2952 H 277.406 3.91368 1.44523 0
M  V30 2953 H 276.036 2.78719 1.62836 0
M  V30 2954 H 275.088 3.75825 -0.588224 0
M  V30 2955 H 276.4 4.95716 -0.553801 0
M  V30 2956 H 275.554 5.84437 1.62845 0
M  V30 2957 H 274.293 4.58008 1.67572 0
M  V30 2958 H 273.298 5.47986 -0.446254 0
M  V30 2959 H 274.523 6.77425 -0.476716 0
M  V30 2960 H 272.469 6.32973 1.72283 0
M  V30 2961 H 272.386 7.54416 0.489123 0
M  V30 2962 H 273.654 7.61262 1.67632 0
M  V30 2963 N 277.883 0.443576 1.51229 0
M  V30 2964 C 279.16 -0.181038 1.9476 0
M  V30 2965 C 279.54 -1.59523 1.38259 0
M  V30 2966 O 278.888 -2.2122 0.572198 0
M  V30 2967 C 279.098 -0.152422 3.48667 0
M  V30 2968 C 280.446 -0.354923 4.23114 0
M  V30 2969 O 281.47 -0.230257 3.55455 0
M  V30 2970 O 280.329 -0.603674 5.43156 0
M  V30 2971 H 277.423 -0.1266 0.817252 0
M  V30 2972 H 279.969 0.502004 1.62105 0
M  V30 2973 H 278.741 0.836022 3.82265 0
M  V30 2974 H 278.364 -0.878107 3.87782 0
M  V30 2975 N 279.361 -1.56624 0.175154 0
M  V30 2976 C 280.291 -2.21155 -0.749195 0
M  V30 2977 C 281.272 -1.16836 -1.23626 0
M  V30 2978 O 282.457 -1.45277 -1.28873 0
M  V30 2979 C 279.587 -2.8553 -1.97711 0
M  V30 2980 C 278.541 -3.95921 -1.62575 0
M  V30 2981 C 277.867 -4.47365 -2.92864 0
M  V30 2982 C 279.167 -5.15323 -0.850838 0
M  V30 2983 H 280.861 -2.98653 -0.211295 0
M  V30 2984 H 278.407 -1.43651 -0.100188 0
M  V30 2985 H 280.36 -3.2935 -2.62881 0
M  V30 2986 H 279.084 -2.05406 -2.53921 0
M  V30 2987 H 277.743 -3.52762 -0.997719 0
M  V30 2988 H 277.391 -3.64027 -3.47122 0
M  V30 2989 H 277.091 -5.21839 -2.70106 0
M  V30 2990 H 278.615 -4.93873 -3.59056 0
M  V30 2991 H 280.029 -5.55812 -1.40521 0
M  V30 2992 H 278.426 -5.95739 -0.722154 0
M  V30 2993 H 279.496 -4.84661 0.152082 0
M  V30 2994 N 280.839 0.0985539 -1.57292 0
M  V30 2995 C 281.787 1.1387 -2.02821 0
M  V30 2996 C 282.781 1.41676 -0.928666 0
M  V30 2997 O 283.987 1.41398 -1.11385 0
M  V30 2998 H 280.362 0.384419 -0.646317 0
M  V30 2999 H 282.333 0.728347 -2.89375 0
M  V30 3000 C 281.082 2.45166 -2.46554 0
M  V30 3001 H 280.405 2.24613 -3.3074 0
M  V30 3002 H 281.845 3.16456 -2.8219 0
M  V30 3003 C 280.304 3.09216 -1.33742 0
M  V30 3004 O 280.834 3.96163 -0.66464 0
M  V30 3005 N 279.04 2.69413 -1.08928 0
M  V30 3006 H 278.587 1.98801 -1.63817 0
M  V30 3007 H 278.545 3.12594 -0.336458 0
M  V30 3008 N 282.317 1.53212 0.369288 0
M  V30 3009 C 283.564 1.69215 1.11232 0
M  V30 3010 C 283.892 0.442048 1.8941 0
M  V30 3011 O 283.147 -0.575944 1.87033 0
M  V30 3012 C 283.446 2.89101 2.10132 0
M  V30 3013 C 283.112 4.25758 1.48463 0
M  V30 3014 C 281.774 4.6292 1.31372 0
M  V30 3015 C 284.126 5.10757 1.03811 0
M  V30 3016 C 281.454 5.82722 0.68207 0
M  V30 3017 C 283.806 6.31201 0.420487 0
M  V30 3018 C 282.47 6.67079 0.237038 0
M  V30 3019 H 281.74 0.619201 0.407027 0
M  V30 3020 H 284.387 1.87391 0.394552 0
M  V30 3021 H 282.692 2.65421 2.88199 0
M  V30 3022 H 284.389 2.98676 2.6757 0
M  V30 3023 H 280.979 3.96494 1.62758 0
M  V30 3024 H 285.163 4.82599 1.1581 0
M  V30 3025 H 280.419 6.09113 0.528316 0
M  V30 3026 H 284.593 6.96368 0.0662874 0
M  V30 3027 H 282.22 7.59774 -0.254477 0
M  V30 3028 N 283.795 -0.628877 1.44509 0
M  V30 3029 C 285.211 -0.947305 1.28446 0
M  V30 3030 C 285.411 -2.00275 0.221872 0
M  V30 3031 O 284.467 -2.49447 -0.391471 0
M  V30 3032 C 285.78 -1.40843 2.65676 0
M  V30 3033 C 287.328 -1.52379 2.73404 0
M  V30 3034 C 287.803 -2.01875 4.11109 0
M  V30 3035 N 289.294 -2.09142 4.13296 0
M  V30 3036 C 290.029 -2.48615 5.16699 0
M  V30 3037 N 289.525 -2.87209 6.30462 0
M  V30 3038 N 291.318 -2.48768 5.04054 0
M  V30 3039 H 283.469 0.0690977 2.12288 0
M  V30 3040 H 285.732 -0.0317164 0.947469 0
M  V30 3041 H 285.438 -0.707206 3.44516 0
M  V30 3042 H 285.312 -2.37902 2.92716 0
M  V30 3043 H 287.699 -2.21598 1.9488 0
M  V30 3044 H 287.78 -0.536898 2.50102 0
M  V30 3045 H 287.424 -1.3325 4.90109 0
M  V30 3046 H 287.354 -3.0144 4.31789 0
M  V30 3047 H 289.845 -1.81991 3.31191 0
M  V30 3048 H 290.158 -3.16149 7.05174 0
M  V30 3049 H 288.503 -2.84955 6.33897 0
M  V30 3050 H 291.694 -2.18009 4.14234 0
M  V30 3051 H 291.867 -2.79207 5.84763 0
M  V30 3052 N 285.273 -1.31445 -0.869486 0
M  V30 3053 C 286.206 -1.13465 -1.97992 0
M  V30 3054 C 287.184 -0.0380291 -1.62556 0
M  V30 3055 O 288.368 -0.194544 -1.87493 0
M  V30 3056 C 285.495 -0.733822 -3.30655 0
M  V30 3057 C 284.541 -1.83356 -3.85075 0
M  V30 3058 S 285.374 -3.43909 -4.10472 0
M  V30 3059 C 286.53 -3.05763 -5.46132 0
M  V30 3060 H 286.763 -2.07471 -2.1294 0
M  V30 3061 H 284.296 -1.15936 -1.01972 0
M  V30 3062 H 286.254 -0.509306 -4.07328 0
M  V30 3063 H 284.915 0.187123 -3.13542 0
M  V30 3064 H 284.108 -1.50574 -4.80982 0
M  V30 3065 H 283.71 -2.01315 -3.15195 0
M  V30 3066 H 286.002 -2.54686 -6.27807 0
M  V30 3067 H 286.945 -4.00635 -5.83864 0
M  V30 3068 H 287.353 -2.43192 -5.09429 0
M  V30 3069 N 286.751 1.08385 -1.14413 0
M  V30 3070 C 287.998 1.80776 -0.912482 0
M  V30 3071 C 288.326 1.86236 0.560934 0
M  V30 3072 O 287.581 1.33431 1.43159 0
M  V30 3073 C 287.88 3.26273 -1.45879 0
M  V30 3074 C 287.546 3.4093 -2.95089 0
M  V30 3075 C 286.208 3.44638 -3.35824 0
M  V30 3076 C 288.56 3.44591 -3.91033 0
M  V30 3077 C 285.888 3.49597 -4.71167 0
M  V30 3078 C 288.24 3.51086 -5.26233 0
M  V30 3079 C 286.904 3.53067 -5.6648 0
M  V30 3080 H 286.174 0.661507 -0.333901 0
M  V30 3081 H 288.821 1.27613 -1.42784 0
M  V30 3082 H 287.126 3.82146 -0.864376 0
M  V30 3083 H 288.823 3.80839 -1.2555 0
M  V30 3084 H 285.413 3.38736 -2.62594 0
M  V30 3085 H 289.597 3.40957 -3.60641 0
M  V30 3086 H 284.853 3.49424 -5.0171 0
M  V30 3087 H 289.027 3.52864 -6.00383 0
M  V30 3088 H 286.654 3.56662 -6.71339 0
M  V30 3089 N 288.23 0.939286 1.26551 0
M  V30 3090 C 289.507 0.5038 1.89001 0
M  V30 3091 C 289.887 -1.01854 1.84903 0
M  V30 3092 O 289.235 -1.87773 1.30206 0
M  V30 3093 C 289.445 1.063 3.32417 0
M  V30 3094 C 290.793 1.13051 4.09273 0
M  V30 3095 O 291.817 1.01345 3.41479 0
M  V30 3096 O 290.676 1.31233 5.30509 0
M  V30 3097 H 287.77 0.163897 0.810597 0
M  V30 3098 H 290.316 1.03173 1.34735 0
M  V30 3099 H 289.088 2.10665 3.29752 0
M  V30 3100 H 288.711 0.517408 3.94219 0
M  V30 3101 N 289.708 -1.40897 0.706093 0
M  V30 3102 C 290.954 -2.01352 0.241889 0
M  V30 3103 C 291.287 -1.55832 -1.15888 0
M  V30 3104 O 290.562 -0.774145 -1.7843 0
M  V30 3105 C 290.845 -3.58752 0.311311 0
M  V30 3106 C 290.698 -4.1437 1.74978 0
M  V30 3107 C 292.017 -4.38914 -0.322922 0
M  V30 3108 H 289.136 -0.731562 0.0893687 0
M  V30 3109 H 291.778 -1.67504 0.896802 0
M  V30 3110 H 289.928 -3.87718 -0.246302 0
M  V30 3111 H 291.6 -3.96239 2.36205 0
M  V30 3112 H 289.843 -3.69016 2.28057 0
M  V30 3113 H 290.514 -5.23532 1.74981 0
M  V30 3114 H 292.99 -4.15822 0.152089 0
M  V30 3115 H 291.866 -5.48358 -0.243855 0
M  V30 3116 H 292.127 -4.19176 -1.40513 0
M  V30 3117 N 291.186 -0.45159 -1.50991 0
M  V30 3118 C 292.434 0.109857 -2.01801 0
M  V30 3119 C 292.755 1.41958 -1.3369 0
M  V30 3120 O 292.025 1.9003 -0.475951 0
M  V30 3121 H 290.605 0.0435884 -0.745727 0
M  V30 3122 H 293.267 -0.597557 -1.85514 0
M  V30 3123 H 292.363 0.275489 -3.10882 0
M  V30 3124 N 292.664 1.56529 -0.183458 0
M  V30 3125 C 293.912 1.96855 0.457452 0
M  V30 3126 C 294.233 1.07104 1.62953 0
M  V30 3127 O 293.503 0.139887 1.954 0
M  V30 3128 H 292.083 0.72693 0.171992 0
M  V30 3129 H 294.745 1.93056 -0.267476 0
M  V30 3130 H 293.841 3.01423 0.809368 0
M  V30 3131 N 294.142 -0.090211 1.57342 0
M  V30 3132 C 295.074 -1.13541 1.99101 0
M  V30 3133 C 296.087 -1.3604 0.894258 0
M  V30 3134 O 297.276 -1.34606 1.17233 0
M  V30 3135 C 294.376 -2.49001 2.29895 0
M  V30 3136 C 293.549 -2.46712 3.61182 0
M  V30 3137 C 292.608 -3.64136 3.79857 0
M  V30 3138 O 291.634 -3.46405 4.51655 0
M  V30 3139 N 292.836 -4.83802 3.20806 0
M  V30 3140 H 295.601 -0.779942 2.89373 0
M  V30 3141 H 293.162 -0.279125 1.59476 0
M  V30 3142 H 295.154 -3.26166 2.39578 0
M  V30 3143 H 293.724 -2.76619 1.45605 0
M  V30 3144 H 292.944 -1.55058 3.62423 0
M  V30 3145 H 294.232 -2.42265 4.4742 0
M  V30 3146 H 293.63 -5.01112 2.62494 0
M  V30 3147 H 292.187 -5.58543 3.35966 0
M  V30 3148 N 295.62 -1.53406 -0.361157 0
M  V30 3149 C 297.036 -1.43277 -0.703124 0
M  V30 3150 C 297.236 -0.575384 -1.9311 0
M  V30 3151 O 296.292 -0.0595362 -2.5243 0
M  V30 3152 C 297.605 -2.8653 -0.9122 0
M  V30 3153 C 299.153 -2.96191 -1.01193 0
M  V30 3154 C 299.628 -4.40514 -1.25345 0
M  V30 3155 N 301.119 -4.43962 -1.32105 0
M  V30 3156 C 301.854 -5.52746 -1.5251 0
M  V30 3157 N 301.35 -6.71567 -1.70203 0
M  V30 3158 N 303.143 -5.40331 -1.54916 0
M  V30 3159 H 295.294 -2.07654 0.446475 0
M  V30 3160 H 297.557 -0.937944 0.137715 0
M  V30 3161 H 297.263 -3.51605 -0.0816414 0
M  V30 3162 H 297.137 -3.30441 -1.81903 0
M  V30 3163 H 299.524 -2.31266 -1.83303 0
M  V30 3164 H 299.605 -2.55667 -0.0823929 0
M  V30 3165 H 299.249 -5.06014 -0.437346 0
M  V30 3166 H 299.179 -4.78614 -2.19627 0
M  V30 3167 H 301.67 -3.58332 -1.20028 0
M  V30 3168 H 301.983 -7.50241 -1.85359 0
M  V30 3169 H 300.328 -6.74545 -1.67373 0
M  V30 3170 H 303.519 -4.46465 -1.40663 0
M  V30 3171 H 303.692 -6.25173 -1.70477 0
M  V30 3172 N 297.098 0.621204 -1.44841 0
M  V30 3173 C 298.323 1.41244 -1.51871 0
M  V30 3174 C 298.748 1.87519 -0.147764 0
M  V30 3175 O 298.106 1.59334 0.865 0
M  V30 3176 C 298.154 2.60221 -2.49634 0
M  V30 3177 O 297.258 3.60395 -2.00473 0
M  V30 3178 H 296.599 0.42223 -0.512463 0
M  V30 3179 H 299.129 0.757305 -1.90069 0
M  V30 3180 H 299.139 3.0764 -2.67996 0
M  V30 3181 H 297.814 2.25887 -3.4921 0
M  V30 3182 H 296.391 3.19717 -1.91925 0
M  V30 3183 N 298.576 1.31904 0.862503 0
M  V30 3184 C 299.486 1.22161 2.00285 0
M  V30 3185 C 300.502 0.136785 1.73462 0
M  V30 3186 O 301.678 0.355994 1.98229 0
M  V30 3187 C 298.743 0.937093 3.33796 0
M  V30 3188 C 297.804 2.10957 3.73893 0
M  V30 3189 C 297.037 1.83853 5.01033 0
M  V30 3190 O 297.26 0.777274 5.65079 0
M  V30 3191 O 296.194 2.69741 5.38074 0
M  V30 3192 H 300.02 2.18008 2.11439 0
M  V30 3193 H 297.605 1.11716 0.991957 0
M  V30 3194 H 299.487 0.794583 4.13841 0
M  V30 3195 H 298.162 0.00871894 3.23699 0
M  V30 3196 H 297.069 2.30752 2.94456 0
M  V30 3197 H 298.402 3.02046 3.88625 0
M  V30 3198 N 300.054 -1.07777 1.14986 0
M  V30 3199 C 301.47 -1.32373 0.891596 0
M  V30 3200 C 301.67 -1.9609 -0.463788 0
M  V30 3201 O 300.726 -2.21801 -1.20667 0
M  V30 3202 C 302.039 -2.21905 2.02925 0
M  V30 3203 C 303.587 -2.35367 2.06329 0
M  V30 3204 C 304.062 -3.28245 3.19405 0
M  V30 3205 N 305.553 -3.35824 3.19024 0
M  V30 3206 C 306.288 -4.07739 4.03158 0
M  V30 3207 N 305.784 -4.82306 4.97346 0
M  V30 3208 N 307.577 -4.03635 3.91197 0
M  V30 3209 H 299.728 -0.648039 2.02273 0
M  V30 3210 H 301.991 -0.348149 0.881757 0
M  V30 3211 H 301.697 -1.82342 3.0074 0
M  V30 3212 H 301.571 -3.22407 1.95789 0
M  V30 3213 H 303.958 -2.74186 1.09116 0
M  V30 3214 H 304.039 -1.34585 2.17533 0
M  V30 3215 H 303.683 -2.90146 4.16867 0
M  V30 3216 H 303.613 -4.28971 3.05437 0
M  V30 3217 H 306.104 -2.8267 2.50811 0
M  V30 3218 H 306.417 -5.34661 5.57994 0
M  V30 3219 H 304.762 -4.81337 5.01338 0
M  V30 3220 H 307.953 -3.44491 3.16928 0
M  V30 3221 H 308.126 -4.59417 4.5699 0
M  V30 3222 N 301.532 -0.945985 -1.26051 0
M  V30 3223 C 302.479 -0.45809 -2.26208 0
M  V30 3224 C 303.449 0.484816 -1.58867 0
M  V30 3225 O 304.634 0.399969 -1.86561 0
M  V30 3226 C 301.774 0.266131 -3.44072 0
M  V30 3227 C 300.887 -0.713005 -4.26075 0
M  V30 3228 C 300.022 0.0329013 -5.3119 0
M  V30 3229 C 299.061 -0.93774 -6.04874 0
M  V30 3230 N 298.198 -0.223274 -7.01745 0
M  V30 3231 H 303.038 -1.3171 -2.67313 0
M  V30 3232 H 300.575 -0.66069 -1.31428 0
M  V30 3233 H 302.533 0.702514 -4.11243 0
M  V30 3234 H 301.163 1.08925 -3.03867 0
M  V30 3235 H 300.215 -1.26789 -3.58648 0
M  V30 3236 H 301.527 -1.45406 -4.77136 0
M  V30 3237 H 300.681 0.528335 -6.04395 0
M  V30 3238 H 299.42 0.806801 -4.8098 0
M  V30 3239 H 298.425 -1.44425 -5.30492 0
M  V30 3240 H 299.65 -1.71172 -6.57173 0
M  V30 3241 H 297.596 0.532046 -6.53839 0
M  V30 3242 H 297.513 -0.90357 -7.50581 0
M  V30 3243 H 298.781 0.250907 -7.79096 0
M  V30 3244 N 303.011 1.40521 -0.713556 0
M  V30 3245 C 303.958 2.30723 -0.059684 0
M  V30 3246 C 304.928 1.48079 0.752448 0
M  V30 3247 O 306.113 1.76823 0.71681 0
M  V30 3248 C 303.253 3.34274 0.857594 0
M  V30 3249 C 302.366 4.31986 0.0351536 0
M  V30 3250 C 301.501 5.22605 0.951724 0
M  V30 3251 C 300.54 6.11976 0.123253 0
M  V30 3252 N 299.677 6.9502 0.99459 0
M  V30 3253 H 304.517 2.86074 -0.834596 0
M  V30 3254 H 302.054 1.40879 -0.42326 0
M  V30 3255 H 304.012 3.92879 1.40364 0
M  V30 3256 H 302.642 2.8043 1.59871 0
M  V30 3257 H 301.694 3.7518 -0.628052 0
M  V30 3258 H 303.006 4.95101 -0.606347 0
M  V30 3259 H 302.16 5.86131 1.56638 0
M  V30 3260 H 300.899 4.59759 1.62705 0
M  V30 3261 H 299.904 5.47482 -0.50435 0
M  V30 3262 H 301.129 6.76881 -0.548539 0
M  V30 3263 H 299.075 6.34764 1.6556 0
M  V30 3264 H 298.992 7.54892 0.40908 0
M  V30 3265 H 300.26 7.62997 1.59549 0
M  V30 3266 N 304.489 0.459591 1.5075 0
M  V30 3267 C 305.735 -0.091664 2.03193 0
M  V30 3268 C 306.09 -1.38432 1.3362 0
M  V30 3269 O 305.383 -1.86257 0.449322 0
M  V30 3270 C 305.577 -0.342866 3.55752 0
M  V30 3271 C 305.406 0.923888 4.40107 0
M  V30 3272 C 304.176 1.46388 4.83631 0
M  V30 3273 C 306.374 1.81617 4.81165 0
M  V30 3274 N 304.356 2.68086 5.52271 0
M  V30 3275 C 305.727 2.87907 5.49099 0
M  V30 3276 C 307.782 1.82793 4.63132 0
M  V30 3277 C 306.485 3.95347 6.0091 0
M  V30 3278 C 308.511 2.89182 5.15876 0
M  V30 3279 C 307.873 3.94191 5.83774 0
M  V30 3280 H 303.972 0.00619247 0.781975 0
M  V30 3281 H 306.556 0.625233 1.84388 0
M  V30 3282 H 304.727 -1.0288 3.74527 0
M  V30 3283 H 306.459 -0.887445 3.9485 0
M  V30 3284 H 303.214 1.01466 4.62603 0
M  V30 3285 H 303.638 3.29857 5.91205 0
M  V30 3286 H 308.28 1.0293 4.1008 0
M  V30 3287 H 305.998 4.76035 6.53006 0
M  V30 3288 H 309.584 2.91061 5.0376 0
M  V30 3289 H 308.464 4.75161 6.23853 0
M  V30 3290 N 305.967 -1.56429 0.191757 0
M  V30 3291 C 307.216 -1.9666 -0.448088 0
M  V30 3292 C 307.529 -1.08136 -1.62991 0
M  V30 3293 O 308.735 -1.38135 -2.33733 0
M  V30 3294 C 307.191 -3.49753 -0.848585 0
M  V30 3295 C 306.799 -4.46935 0.308764 0
M  V30 3296 C 308.543 -3.9876 -1.4557 0
M  V30 3297 C 306.45 -5.91293 -0.112506 0
M  V30 3298 H 305.38 -0.734312 -0.171179 0
M  V30 3299 H 308.031 -1.81301 0.283242 0
M  V30 3300 H 306.413 -3.60604 -1.63649 0
M  V30 3301 H 307.587 -4.47813 1.08627 0
M  V30 3302 H 305.902 -4.08102 0.827158 0
M  V30 3303 H 308.499 -5.04086 -1.78328 0
M  V30 3304 H 308.842 -3.42875 -2.36099 0
M  V30 3305 H 309.375 -3.9101 -0.731836 0
M  V30 3306 H 306.114 -6.51097 0.758514 0
M  V30 3307 H 305.634 -5.93676 -0.854941 0
M  V30 3308 H 307.313 -6.44663 -0.549448 0
M  V30 3309 N 307.445 0.0818655 -1.57387 0
M  V30 3310 C 308.395 1.10501 -1.99433 0
M  V30 3311 C 309.379 1.35041 -0.874798 0
M  V30 3312 O 310.571 1.35511 -1.13868 0
M  V30 3313 C 307.7 2.42159 -2.43339 0
M  V30 3314 C 306.786 2.20937 -3.62005 0
M  V30 3315 N 307.177 1.69616 -4.76512 0
M  V30 3316 C 305.475 2.51451 -3.68359 0
M  V30 3317 C 306.176 1.62973 -5.58404 0
M  V30 3318 N 305.152 2.08664 -5.01956 0
M  V30 3319 H 308.954 0.701373 -2.85408 0
M  V30 3320 H 306.468 0.289096 -1.59806 0
M  V30 3321 H 308.465 3.16208 -2.71695 0
M  V30 3322 H 307.125 2.83249 -1.58746 0
M  V30 3323 H 308.136 1.38624 -4.99003 0
M  V30 3324 H 304.813 2.95975 -2.94457 0
M  V30 3325 H 306.203 1.24233 -6.60315 0
M  V30 3326 N 308.923 1.53595 0.353017 0
M  V30 3327 C 310.163 1.72094 1.10286 0
M  V30 3328 C 310.527 0.469217 1.86178 0
M  V30 3329 O 311.728 0.531083 2.63501 0
M  V30 3330 C 309.999 2.94386 2.02661 0
M  V30 3331 S 311.558 3.33651 2.84996 0
M  V30 3332 H 308.376 0.605433 0.372789 0
M  V30 3333 H 310.978 1.91722 0.38248 0
M  V30 3334 H 309.682 3.83669 1.45691 0
M  V30 3335 H 309.213 2.77197 2.79152 0
M  V30 3336 H 311.228 2.86645 4.0503 0
M  V30 3337 N 310.401 -0.613514 1.45168 0
M  V30 3338 C 311.648 -1.37268 1.48875 0
M  V30 3339 C 311.976 -1.94077 0.128161 0
M  V30 3340 O 311.231 -1.75178 -0.872416 0
M  V30 3341 C 311.53 -2.54347 2.51083 0
M  V30 3342 C 311.196 -2.1572 3.95949 0
M  V30 3343 C 309.858 -2.04899 4.35396 0
M  V30 3344 C 312.21 -1.85485 4.87078 0
M  V30 3345 C 309.538 -1.62057 5.63875 0
M  V30 3346 C 311.89 -1.4413 6.15962 0
M  V30 3347 C 310.554 -1.31863 6.54346 0
M  V30 3348 H 309.824 -0.502299 0.544773 0
M  V30 3349 H 312.471 -0.694021 1.78481 0
M  V30 3350 H 310.776 -3.27524 2.15024 0
M  V30 3351 H 312.473 -3.12577 2.51191 0
M  V30 3352 H 309.063 -2.25066 3.64751 0
M  V30 3353 H 313.247 -1.92745 4.57343 0
M  V30 3354 H 308.503 -1.51177 5.92415 0
M  V30 3355 H 312.677 -1.19778 6.86022 0
M  V30 3356 H 310.304 -0.984392 7.538 0
M  V30 3357 N 311.879 -1.3236 -0.855495 0
M  V30 3358 C 312.789 -1.23221 -1.99634 0
M  V30 3359 C 313.805 -0.145983 -1.73387 0
M  V30 3360 O 314.981 -0.366502 -1.98037 0
M  V30 3361 C 312.046 -0.954782 -3.33294 0
M  V30 3362 C 311.107 -2.12937 -3.72769 0
M  V30 3363 C 310.34 -1.86508 -5.00051 0
M  V30 3364 O 310.563 -0.807231 -5.64659 0
M  V30 3365 O 309.497 -2.72591 -5.36636 0
M  V30 3366 H 313.323 -2.19126 -2.1028 0
M  V30 3367 H 310.908 -1.12241 -0.986018 0
M  V30 3368 H 312.79 -0.816519 -4.13414 0
M  V30 3369 H 311.465 -0.0258854 -3.2369 0
M  V30 3370 H 310.372 -2.3231 -2.93228 0
M  V30 3371 H 311.705 -3.04102 -3.87018 0
M  V30 3372 N 313.357 1.07166 -1.15556 0
M  V30 3373 C 314.605 1.79443 -0.929764 0
M  V30 3374 C 314.926 1.87246 0.544414 0
M  V30 3375 O 314.196 1.37473 1.39564 0
M  V30 3376 H 312.776 0.664625 -0.341003 0
M  V30 3377 H 315.438 1.29499 -1.45657 0
M  V30 3378 H 314.534 2.81832 -1.34079 0
M  V30 3379 N 314.835 0.952656 1.25548 0
M  V30 3380 C 316.081 0.607272 1.93494 0
M  V30 3381 C 316.414 -0.853245 1.74452 0
M  V30 3382 O 315.689 -1.61194 1.08843 0
M  V30 3383 C 315.972 0.96435 3.46947 0
M  V30 3384 C 315.825 2.48045 3.75225 0
M  V30 3385 C 317.144 0.487987 4.37386 0
M  V30 3386 H 314.263 0.222096 0.702739 0
M  V30 3387 H 316.905 1.18895 1.48203 0
M  V30 3388 H 315.055 0.469361 3.85654 0
M  V30 3389 H 316.727 3.04905 3.46166 0
M  V30 3390 H 314.97 2.919 3.209 0
M  V30 3391 H 315.641 2.6808 4.82532 0
M  V30 3392 H 318.117 0.912558 4.0597 0
M  V30 3393 H 316.993 0.766547 5.43521 0
M  V30 3394 H 317.254 -0.612063 4.37843 0
M  V30 3395 N 316.313 -1.40141 0.720998 0
M  V30 3396 C 317.541 -2.05096 0.272656 0
M  V30 3397 C 317.956 -1.54334 -1.0875 0
M  V30 3398 O 317.313 -0.702211 -1.6845 0
M  V30 3399 C 317.364 -3.60636 0.249835 0
M  V30 3400 O 317.085 -4.09526 1.55629 0
M  V30 3401 C 318.586 -4.42772 -0.216396 0
M  V30 3402 H 315.806 -0.659897 0.121558 0
M  V30 3403 H 318.35 -1.79449 0.980723 0
M  V30 3404 H 316.505 -3.85232 -0.409237 0
M  V30 3405 H 316.919 -5.03758 1.4604 0
M  V30 3406 H 318.393 -5.51702 -0.181212 0
M  V30 3407 H 318.87 -4.20756 -1.25941 0
M  V30 3408 H 319.476 -4.23294 0.412596 0
M  V30 3409 N 317.792 -0.46758 -1.50504 0
M  V30 3410 C 319.032 0.0874114 -2.04213 0
M  V30 3411 C 319.396 1.37301 -1.34211 0
M  V30 3412 O 320.597 2.01015 -1.78456 0
M  V30 3413 C 318.868 0.270571 -3.56374 0
M  V30 3414 S 320.427 0.784623 -4.31728 0
M  V30 3415 H 317.245 0.0176153 -0.710782 0
M  V30 3416 H 319.847 -0.633915 -1.84937 0
M  V30 3417 H 318.551 -0.670942 -4.04878 0
M  V30 3418 H 318.082 1.01811 -3.79997 0
M  V30 3419 H 320.097 2.05849 -4.51487 0
M  V30 3420 N 319.27 1.56325 -0.20005 0
M  V30 3421 C 320.519 1.96895 0.437652 0
M  V30 3422 C 320.832 1.08999 1.62415 0
M  V30 3423 O 322.038 1.39372 2.32997 0
M  V30 3424 C 320.494 3.50198 0.830025 0
M  V30 3425 C 320.102 4.46765 -0.332461 0
M  V30 3426 C 321.846 3.99526 1.43453 0
M  V30 3427 C 319.753 5.91344 0.0811468 0
M  V30 3428 H 318.683 0.735209 0.167282 0
M  V30 3429 H 321.334 1.81148 -0.292853 0
M  V30 3430 H 319.716 3.61467 1.61734 0
M  V30 3431 H 320.89 4.47231 -1.11 0
M  V30 3432 H 319.205 4.07657 -0.848789 0
M  V30 3433 H 321.802 5.05025 1.75652 0
M  V30 3434 H 322.145 3.44122 2.34277 0
M  V30 3435 H 322.678 3.91393 0.71109 0
M  V30 3436 H 319.417 6.50685 -0.793033 0
M  V30 3437 H 318.937 5.94121 0.823445 0
M  V30 3438 H 320.616 6.44945 0.515252 0
M  V30 3439 N 320.748 -0.0735177 1.57428 0
M  V30 3440 C 321.997 -0.771809 1.86349 0
M  V30 3441 C 322.31 -1.78828 0.792452 0
M  V30 3442 O 323.516 -2.53602 0.96945 0
M  V30 3443 C 321.972 -1.42358 3.30548 0
M  V30 3444 C 321.58 -0.445761 4.45777 0
M  V30 3445 C 323.324 -2.10434 3.6867 0
M  V30 3446 C 321.231 -1.10335 5.81016 0
M  V30 3447 H 320.161 -0.291999 0.695164 0
M  V30 3448 H 322.812 -0.0250749 1.83483 0
M  V30 3449 H 321.194 -2.21852 3.28021 0
M  V30 3450 H 322.368 0.319239 4.59693 0
M  V30 3451 H 320.683 0.130457 4.16196 0
M  V30 3452 H 323.28 -2.60405 4.67004 0
M  V30 3453 H 323.623 -2.90298 2.98383 0
M  V30 3454 H 324.156 -1.37773 3.7318 0
M  V30 3455 H 320.895 -0.345061 6.54591 0
M  V30 3456 H 320.415 -1.83925 5.70904 0
M  V30 3457 H 322.094 -1.62367 6.26295 0
M  V30 3458 N 322.226 -1.5378 -0.344866 0
M  V30 3459 C 323.473 -1.70963 -1.08526 0
M  V30 3460 C 323.801 -0.472126 -1.88683 0
M  V30 3461 O 323.056 0.546116 -1.87926 0
M  V30 3462 C 323.355 -2.92407 -2.05506 0
M  V30 3463 C 323.021 -4.28066 -1.41671 0
M  V30 3464 C 321.683 -4.64951 -1.2399 0
M  V30 3465 C 324.035 -5.12344 -0.956726 0
M  V30 3466 C 321.363 -5.83733 -0.589277 0
M  V30 3467 C 323.715 -6.3179 -0.320015 0
M  V30 3468 C 322.379 -6.67372 -0.130881 0
M  V30 3469 H 321.649 -0.625598 -0.397124 0
M  V30 3470 H 324.296 -1.87995 -0.36469 0
M  V30 3471 H 322.601 -2.69973 -2.8394 0
M  V30 3472 H 324.298 -3.02895 -2.62784 0
M  V30 3473 H 320.888 -3.99034 -1.56429 0
M  V30 3474 H 325.072 -4.8438 -1.08118 0
M  V30 3475 H 320.328 -6.09877 -0.431344 0
M  V30 3476 H 324.502 -6.96386 0.0445072 0
M  V30 3477 H 322.129 -7.59273 0.375318 0
M  V30 3478 N 323.704 0.605807 -1.45491 0
M  V30 3479 C 324.953 1.36086 -1.48874 0
M  V30 3480 C 325.266 1.95131 -0.135333 0
M  V30 3481 O 326.472 2.7146 -0.0468144 0
M  V30 3482 C 324.928 2.46518 -2.62215 0
M  V30 3483 C 324.536 1.93877 -4.03876 0
M  V30 3484 C 326.28 3.23512 -2.74846 0
M  V30 3485 C 324.187 3.01801 -5.08596 0
M  V30 3486 H 323.117 0.511497 -0.553974 0
M  V30 3487 H 325.768 0.649089 -1.71636 0
M  V30 3488 H 324.15 3.20388 -2.32739 0
M  V30 3489 H 325.324 1.26704 -4.43038 0
M  V30 3490 H 323.639 1.29622 -3.95711 0
M  V30 3491 H 326.236 4.04013 -3.50253 0
M  V30 3492 H 326.579 3.74631 -1.81542 0
M  V30 3493 H 327.112 2.56742 -3.03856 0
M  V30 3494 H 323.851 2.55597 -6.03614 0
M  V30 3495 H 323.371 3.67535 -4.74002 0
M  V30 3496 H 325.05 3.66152 -5.33424 0
M  V30 3497 N 325.182 1.32811 0.848464 0
M  V30 3498 C 326.145 1.22194 1.9391 0
M  V30 3499 C 327.145 0.143404 1.60159 0
M  V30 3500 O 328.335 0.394253 1.6968 0
M  V30 3501 C 325.467 0.88067 3.29328 0
M  V30 3502 H 326.66 2.19127 2.04752 0
M  V30 3503 H 324.213 1.16731 1.0394 0
M  V30 3504 H 324.948 -0.0865776 3.24184 0
M  V30 3505 H 324.733 1.66052 3.55203 0
M  V30 3506 H 326.223 0.830871 4.09251 0
M  V30 3507 N 326.66 -1.06551 1.16123 0
M  V30 3508 C 327.623 -2.12132 0.867906 0
M  V30 3509 C 328.623 -1.60224 -0.135944 0
M  V30 3510 O 329.813 -1.73943 0.0946422 0
M  V30 3511 C 326.945 -3.396 0.297419 0
M  V30 3512 H 328.138 -2.39586 1.80385 0
M  V30 3513 H 325.691 -1.22574 0.969812 0
M  V30 3514 H 326.426 -3.17794 -0.64633 0
M  V30 3515 H 326.211 -3.78581 1.02073 0
M  V30 3516 H 327.701 -4.17455 0.110052 0
M  V30 3517 N 328.138 -0.959301 -1.25041 0
M  V30 3518 C 329.068 -0.501388 -2.28053 0
M  V30 3519 C 330.049 0.454673 -1.63911 0
M  V30 3520 O 331.234 0.352618 -1.90972 0
M  V30 3521 C 328.364 0.217224 -3.4662 0
M  V30 3522 C 327.318 -0.654034 -4.22973 0
M  V30 3523 C 326.644 0.195589 -5.34342 0
M  V30 3524 C 327.944 -1.93447 -4.85155 0
M  V30 3525 H 329.638 -1.36238 -2.66608 0
M  V30 3526 H 327.184 -0.656534 -1.28163 0
M  V30 3527 H 329.137 0.548732 -4.17812 0
M  V30 3528 H 327.861 1.1125 -3.07068 0
M  V30 3529 H 326.52 -0.968693 -3.5357 0
M  V30 3530 H 326.168 1.09076 -4.91031 0
M  V30 3531 H 325.868 -0.384091 -5.86343 0
M  V30 3532 H 327.392 0.521958 -6.08365 0
M  V30 3533 H 328.806 -1.66908 -5.48466 0
M  V30 3534 H 327.203 -2.46018 -5.47353 0
M  V30 3535 H 328.273 -2.63466 -4.07079 0
M  V30 3536 N 329.616 1.39756 -0.72842 0
M  V30 3537 C 330.841 2.05472 -0.282159 0
M  V30 3538 C 331.266 1.54549 1.07221 0
M  V30 3539 O 330.624 0.686372 1.67805 0
M  V30 3540 C 330.672 3.59462 -0.286264 0
M  V30 3541 O 329.776 4.05918 0.728298 0
M  V30 3542 H 329.117 0.651226 -0.129618 0
M  V30 3543 H 331.647 1.78915 -0.992499 0
M  V30 3544 H 331.657 4.07798 -0.128373 0
M  V30 3545 H 330.332 3.95889 -1.27456 0
M  V30 3546 H 328.909 3.69012 0.537081 0
M  V30 3547 N 331.094 0.475555 1.50254 0
M  V30 3548 C 332.057 -0.305016 2.27161 0
M  V30 3549 C 333.057 -0.916519 1.32123 0
M  V30 3550 O 334.247 -0.785003 1.5551 0
M  V30 3551 C 331.379 -1.43496 3.09227 0
M  V30 3552 H 332.572 0.369511 2.97615 0
M  V30 3553 H 330.125 0.229747 1.54602 0
M  V30 3554 H 330.86 -2.14441 2.43281 0
M  V30 3555 H 330.645 -1.00223 3.79075 0
M  V30 3556 H 332.135 -1.98548 3.67381 0
M  V30 3557 N 332.573 -1.56217 0.208337 0
M  V30 3558 C 333.803 -2.02043 -0.431523 0
M  V30 3559 C 334.211 -1.08755 -1.54819 0
M  V30 3560 O 333.554 -0.0870009 -1.83494 0
M  V30 3561 C 333.616 -3.44239 -1.03633 0
M  V30 3562 C 333.28 -4.56965 -0.0567502 0
M  V30 3563 C 334.277 -5.14624 0.738773 0
M  V30 3564 C 331.962 -5.02266 0.0581736 0
M  V30 3565 C 333.956 -6.16045 1.63605 0
M  V30 3566 C 331.643 -6.03528 0.959001 0
M  V30 3567 C 332.641 -6.60293 1.7465 0
M  V30 3568 O 332.329 -7.59586 2.6322 0
M  V30 3569 H 332.061 -0.666772 -0.111313 0
M  V30 3570 H 334.615 -2.02919 0.318277 0
M  V30 3571 H 332.845 -3.40391 -1.83497 0
M  V30 3572 H 334.534 -3.73793 -1.58221 0
M  V30 3573 H 335.3 -4.80483 0.660364 0
M  V30 3574 H 331.179 -4.57771 -0.544633 0
M  V30 3575 H 334.723 -6.60279 2.25116 0
M  V30 3576 H 330.62 -6.37092 1.03848 0
M  V30 3577 H 331.388 -7.77057 2.57148 0
M  V30 3578 N 334.051 0.0651679 -1.57465 0
M  V30 3579 C 335.328 0.79644 -1.78651 0
M  V30 3580 C 335.708 1.95454 -0.797566 0
M  V30 3581 O 335.056 2.27882 0.167946 0
M  V30 3582 C 335.266 1.26322 -3.25337 0
M  V30 3583 C 336.614 1.6939 -3.89348 0
M  V30 3584 O 337.638 1.35872 -3.29268 0
M  V30 3585 O 336.497 2.31471 -4.95059 0
M  V30 3586 H 333.591 0.382157 -0.733407 0
M  V30 3587 H 336.137 0.0447311 -1.69641 0
M  V30 3588 H 334.909 0.434859 -3.88876 0
M  V30 3589 H 334.532 2.07604 -3.39096 0
M  V30 3590 N 335.529 1.53961 0.336706 0
M  V30 3591 C 336.462 1.77255 1.43722 0
M  V30 3592 C 337.44 0.62193 1.50236 0
M  V30 3593 O 338.624 0.857874 1.67847 0
M  V30 3594 C 335.751 1.87733 2.81912 0
M  V30 3595 C 334.797 3.09933 2.92991 0
M  V30 3596 S 335.63 4.68836 2.58753 0
M  V30 3597 C 336.786 4.82202 3.99039 0
M  V30 3598 H 337.019 2.70322 1.23748 0
M  V30 3599 H 334.552 1.44917 0.532777 0
M  V30 3600 H 336.51 1.94455 3.61521 0
M  V30 3601 H 335.171 0.956666 2.99177 0
M  V30 3602 H 334.364 3.1396 3.94265 0
M  V30 3603 H 333.966 3.01472 2.21338 0
M  V30 3604 H 336.258 4.64032 4.9364 0
M  V30 3605 H 337.201 5.84298 4.00002 0
M  V30 3606 H 337.609 4.10604 3.87382 0
M  V30 3607 N 337.007 -0.598083 1.45811 0
M  V30 3608 C 338.253 -1.35882 1.50545 0
M  V30 3609 C 338.586 -1.93616 0.150445 0
M  V30 3610 O 337.861 -1.75604 -0.83628 0
M  V30 3611 C 338.144 -2.49966 2.59208 0
M  V30 3612 C 337.997 -1.97367 4.04186 0
M  V30 3613 C 339.316 -3.52068 2.64076 0
M  V30 3614 H 336.435 -0.492717 0.548087 0
M  V30 3615 H 339.077 -0.673319 1.77669 0
M  V30 3616 H 337.227 -3.08443 2.3621 0
M  V30 3617 H 338.899 -1.43466 4.38423 0
M  V30 3618 H 337.142 -1.283 4.14393 0
M  V30 3619 H 337.813 -2.79649 4.75921 0
M  V30 3620 H 340.289 -3.03448 2.84708 0
M  V30 3621 H 339.165 -4.2937 3.41954 0
M  V30 3622 H 339.426 -4.08304 1.69531 0
M  V30 3623 N 338.485 -1.33259 -0.841409 0
M  V30 3624 C 339.415 -1.25926 -1.96634 0
M  V30 3625 C 340.396 -0.140349 -1.6952 0
M  V30 3626 O 341.581 -0.329707 -1.91381 0
M  V30 3627 C 338.711 -0.99512 -3.32738 0
M  V30 3628 C 337.665 -2.0767 -3.74242 0
M  V30 3629 C 336.991 -1.66474 -5.08125 0
M  V30 3630 C 338.291 -3.49318 -3.88297 0
M  V30 3631 H 339.985 -2.20046 -2.03027 0
M  V30 3632 H 337.531 -1.05931 -0.975425 0
M  V30 3633 H 339.484 -0.930323 -4.11002 0
M  V30 3634 H 338.208 -0.0183004 -3.26595 0
M  V30 3635 H 336.867 -2.13187 -2.98239 0
M  V30 3636 H 336.515 -0.675012 -4.9845 0
M  V30 3637 H 336.215 -2.3885 -5.36865 0
M  V30 3638 H 337.739 -1.61455 -5.88867 0
M  V30 3639 H 339.153 -3.46316 -4.56879 0
M  V30 3640 H 337.55 -4.20158 -4.28471 0
M  V30 3641 H 338.62 -3.8801 -2.9082 0
M  V30 3642 N 339.963 1.05934 -1.16686 0
M  V30 3643 C 341.209 1.79065 -0.95203 0
M  V30 3644 C 341.542 1.87147 0.518629 0
M  V30 3645 O 340.817 1.36574 1.38484 0
M  V30 3646 C 341.1 3.23359 -1.58464 0
M  V30 3647 C 340.953 3.23336 -3.12689 0
M  V30 3648 C 342.272 4.21004 -1.28232 0
M  V30 3649 H 339.391 0.65005 -0.34728 0
M  V30 3650 H 342.033 1.23868 -1.44072 0
M  V30 3651 H 340.183 3.70493 -1.16908 0
M  V30 3652 H 341.855 2.84336 -3.6325 0
M  V30 3653 H 340.098 2.61886 -3.4583 0
M  V30 3654 H 340.769 4.25144 -3.52075 0
M  V30 3655 H 343.245 3.8233 -1.64203 0
M  V30 3656 H 342.121 5.20225 -1.75092 0
M  V30 3657 H 342.382 4.41639 -0.201791 0
M  V30 3658 N 341.441 0.965919 1.2453 0
M  V30 3659 C 342.351 0.502154 2.29163 0
M  V30 3660 C 343.367 -0.436017 1.68448 0
M  V30 3661 O 344.543 -0.309497 1.99008 0
M  V30 3662 C 341.608 -0.201956 3.46111 0
M  V30 3663 C 340.669 0.775821 4.22232 0
M  V30 3664 C 339.902 0.105217 5.33596 0
M  V30 3665 O 340.125 -1.10683 5.59558 0
M  V30 3666 O 339.059 0.796475 5.96607 0
M  V30 3667 H 342.885 1.37194 2.70946 0
M  V30 3668 H 340.47 0.732875 1.30189 0
M  V30 3669 H 342.352 -0.597564 4.17142 0
M  V30 3670 H 341.027 -1.04673 3.06309 0
M  V30 3671 H 339.934 1.22185 3.53584 0
M  V30 3672 H 341.267 1.58896 4.65846 0
M  V30 3673 N 342.919 -1.39368 0.735821 0
M  V30 3674 C 344.196 -1.94465 0.210395 0
M  V30 3675 C 344.576 -1.67254 -1.28799 0
M  V30 3676 O 343.924 -1.00123 -2.05396 0
M  V30 3677 C 344.134 -3.4472 0.544897 0
M  V30 3678 C 345.482 -4.21708 0.494689 0
M  V30 3679 O 346.506 -3.52922 0.482136 0
M  V30 3680 O 345.365 -5.44299 0.489947 0
M  V30 3681 H 342.459 -0.826096 0.0386666 0
M  V30 3682 H 345.005 -1.48863 0.814735 0
M  V30 3683 H 343.777 -3.57963 1.58045 0
M  V30 3684 H 343.4 -3.97502 -0.08837 0
M  V30 3685 N 344.397 -0.483516 -1.5 0
M  V30 3686 C 345.674 0.129337 -1.95172 0
M  V30 3687 C 346.054 1.55802 -1.4244 0
M  V30 3688 O 345.402 2.19625 -0.630649 0
M  V30 3689 C 345.612 0.0599251 -3.48949 0
M  V30 3690 C 346.96 0.242617 -4.23906 0
M  V30 3691 O 347.984 0.135933 -3.55941 0
M  V30 3692 O 346.843 0.459454 -5.44565 0
M  V30 3693 H 343.937 0.104887 -0.820322 0
M  V30 3694 H 346.483 -0.544807 -1.60717 0
M  V30 3695 H 345.255 -0.937079 -3.79914 0
M  V30 3696 H 344.878 0.774984 -3.89974 0
M  V30 3697 N 345.875 1.56104 -0.216619 0
M  V30 3698 C 346.785 2.23694 0.706982 0
M  V30 3699 C 347.801 1.24295 1.21765 0
M  V30 3700 O 348.977 1.57094 1.2603 0
M  V30 3701 C 346.042 2.8998 1.90033 0
M  V30 3702 C 345.103 4.04708 1.43213 0
M  V30 3703 C 344.336 4.67824 2.56859 0
M  V30 3704 O 344.559 4.29913 3.74874 0
M  V30 3705 O 343.493 5.56905 2.28343 0
M  V30 3706 H 347.319 3.03272 0.161235 0
M  V30 3707 H 344.904 1.49394 0.0136177 0
M  V30 3708 H 346.786 3.31837 2.59735 0
M  V30 3709 H 345.461 2.13365 2.43428 0
M  V30 3710 H 344.368 3.6743 0.70327 0
M  V30 3711 H 345.701 4.83051 0.944615 0
M  V30 3712 N 347.353 -0.0568162 1.57498 0
M  V30 3713 C 348.599 -0.75422 1.88253 0
M  V30 3714 C 348.932 -1.76461 0.810865 0
M  V30 3715 O 348.207 -1.93691 -0.177259 0
M  V30 3716 C 348.49 -1.44878 3.2967 0
M  V30 3717 C 348.343 -0.453789 4.47505 0
M  V30 3718 C 349.662 -2.38994 3.69554 0
M  V30 3719 H 346.781 -0.272724 0.684683 0
M  V30 3720 H 349.423 -0.0172113 1.89992 0
M  V30 3721 H 347.573 -2.077 3.28318 0
M  V30 3722 H 349.245 0.170371 4.60985 0
M  V30 3723 H 347.488 0.229552 4.33192 0
M  V30 3724 H 348.159 -0.977699 5.43273 0
M  V30 3725 H 350.635 -1.86239 3.72095 0
M  V30 3726 H 349.511 -2.84587 4.69363 0
M  V30 3727 H 349.772 -3.24461 3.00296 0
M  V30 3728 N 348.832 -1.54138 -0.328536 0
M  V30 3729 C 349.78 -1.83894 -1.42428 0
M  V30 3730 C 350.774 -0.710478 -1.53781 0
M  V30 3731 O 351.98 -0.894062 -1.56226 0
M  V30 3732 H 348.355 -0.582837 -0.475189 0
M  V30 3733 H 350.326 -2.75537 -1.14552 0
M  V30 3734 C 349.075 -2.07866 -2.78724 0
M  V30 3735 H 348.398 -2.94158 -2.7076 0
M  V30 3736 H 349.838 -2.32644 -3.54476 0
M  V30 3737 C 348.297 -0.868689 -3.25508 0
M  V30 3738 O 348.827 -0.0754908 -4.01629 0
M  V30 3739 N 347.033 -0.681711 -2.82491 0
M  V30 3740 H 346.58 -1.32838 -2.20708 0
M  V30 3741 H 346.538 0.126374 -3.14146 0
M  V30 3742 N 350.31 0.590341 -1.46126 0
M  V30 3743 C 351.726 0.912917 -1.30912 0
M  V30 3744 C 351.926 1.99616 -0.274893 0
M  V30 3745 O 350.982 2.50397 0.325197 0
M  V30 3746 C 352.295 1.3375 -2.69317 0
M  V30 3747 C 353.843 1.45077 -2.77348 0
M  V30 3748 C 354.318 1.90904 -4.16317 0
M  V30 3749 N 355.809 1.9811 -4.18696 0
M  V30 3750 C 356.544 2.34828 -5.23109 0
M  V30 3751 N 356.04 2.70393 -6.37856 0
M  V30 3752 N 357.833 2.35317 -5.10473 0
M  V30 3753 H 349.984 -0.125358 -2.1203 0
M  V30 3754 H 352.247 0.00658481 -0.947977 0
M  V30 3755 H 351.953 0.615614 -3.4627 0
M  V30 3756 H 351.827 2.30058 -2.9892 0
M  V30 3757 H 354.214 2.16353 -2.00687 0
M  V30 3758 H 354.295 0.4704 -2.51438 0
M  V30 3759 H 353.939 1.20209 -4.9347 0
M  V30 3760 H 353.869 2.89886 -4.39629 0
M  V30 3761 H 356.36 1.73146 -3.359 0
M  V30 3762 H 356.673 2.97341 -7.13308 0
M  V30 3763 H 355.018 2.68048 -6.41229 0
M  V30 3764 H 358.209 2.0695 -4.19868 0
M  V30 3765 H 358.382 2.63605 -5.9196 0
M  V30 3766 N 351.788 1.33704 0.83433 0
M  V30 3767 C 352.721 1.18675 1.94914 0
M  V30 3768 C 353.699 0.0811145 1.62398 0
M  V30 3769 O 354.883 0.244186 1.86912 0
M  V30 3770 C 352.01 0.821231 3.28593 0
M  V30 3771 C 351.056 1.93501 3.80079 0
M  V30 3772 S 351.889 3.54671 4.01209 0
M  V30 3773 C 353.045 3.20136 5.37833 0
M  V30 3774 H 353.278 2.13043 2.07364 0
M  V30 3775 H 350.811 1.18598 0.988624 0
M  V30 3776 H 352.769 0.617123 4.05835 0
M  V30 3777 H 351.43 -0.103927 3.13928 0
M  V30 3778 H 350.623 1.63273 4.76821 0
M  V30 3779 H 350.225 2.09601 3.09747 0
M  V30 3780 H 352.517 2.71242 6.20833 0
M  V30 3781 H 353.46 4.15975 5.73036 0
M  V30 3782 H 353.868 2.56613 5.02802 0
M  V30 3783 N 353.266 -1.05314 1.17247 0
M  V30 3784 C 354.216 -2.11313 0.856196 0
M  V30 3785 C 355.2 -1.60013 -0.168694 0
M  V30 3786 O 356.392 -1.76968 0.0335624 0
M  V30 3787 C 353.521 -3.41301 0.369917 0
M  V30 3788 C 352.607 -3.99401 1.42616 0
M  V30 3789 N 352.998 -4.31481 2.63928 0
M  V30 3790 C 351.296 -4.27126 1.28373 0
M  V30 3791 C 351.997 -4.77799 3.31787 0
M  V30 3792 N 350.973 -4.77843 2.59166 0
M  V30 3793 H 354.775 -2.33976 1.77856 0
M  V30 3794 H 352.289 -1.2295 1.06099 0
M  V30 3795 H 354.286 -4.16713 0.124897 0
M  V30 3796 H 352.946 -3.20072 -0.546253 0
M  V30 3797 H 353.957 -4.21519 3.00902 0
M  V30 3798 H 350.634 -4.15289 0.429111 0
M  V30 3799 H 352.024 -5.11743 4.35395 0
M  V30 3800 N 354.744 -0.972509 -1.24016 0
M  V30 3801 C 355.654 -0.5143 -2.28893 0
M  V30 3802 C 356.67 0.427078 -1.68677 0
M  V30 3803 O 357.846 0.298939 -1.99169 0
M  V30 3804 C 354.911 0.183598 -3.46214 0
M  V30 3805 C 353.972 -0.798202 -4.21814 0
M  V30 3806 C 353.205 -0.133514 -5.33533 0
M  V30 3807 O 353.428 1.07714 -5.60137 0
M  V30 3808 O 352.362 -0.828103 -5.96176 0
M  V30 3809 H 356.188 -1.38629 -2.70214 0
M  V30 3810 H 353.773 -0.739769 -1.29799 0
M  V30 3811 H 355.655 0.575433 -4.17453 0
M  V30 3812 H 354.33 1.03048 -3.0686 0
M  V30 3813 H 353.237 -1.24059 -3.52931 0
M  V30 3814 H 354.57 -1.61364 -4.64997 0
M  V30 3815 N 356.222 1.38976 -0.743202 0
M  V30 3816 C 357.447 2.05161 -0.303936 0
M  V30 3817 C 357.872 1.55677 1.05576 0
M  V30 3818 O 357.23 0.704131 1.67068 0
M  V30 3819 C 357.278 3.59138 -0.324373 0
M  V30 3820 O 356.382 4.06668 0.685204 0
M  V30 3821 H 355.723 0.649815 -0.136518 0
M  V30 3822 H 358.253 1.77852 -1.01142 0
M  V30 3823 H 358.263 4.07639 -0.171618 0
M  V30 3824 H 356.938 3.94515 -1.31647 0
M  V30 3825 H 355.515 3.69561 0.497913 0
M  V30 3826 N 357.7 0.491464 1.49741 0
M  V30 3827 C 358.63 -0.28154 2.31796 0
M  V30 3828 C 359.611 -0.971473 1.3963 0
M  V30 3829 O 360.796 -0.964719 1.68543 0
M  V30 3830 C 357.926 -1.35203 3.19902 0
M  V30 3831 C 356.88 -0.782529 4.20786 0
M  V30 3832 C 356.206 -1.95283 4.97764 0
M  V30 3833 C 357.506 0.21999 5.21837 0
M  V30 3834 H 359.2 0.403355 2.96671 0
M  V30 3835 H 356.746 0.195425 1.42668 0
M  V30 3836 H 358.699 -1.90045 3.76113 0
M  V30 3837 H 357.423 -2.06598 2.52953 0
M  V30 3838 H 356.082 -0.255928 3.65706 0
M  V30 3839 H 355.73 -2.65423 4.2727 0
M  V30 3840 H 355.43 -1.57789 5.66018 0
M  V30 3841 H 356.954 -2.50577 5.56816 0
M  V30 3842 H 358.368 -0.23996 5.72798 0
M  V30 3843 H 356.765 0.51026 5.97927 0
M  V30 3844 H 357.835 1.13911 4.7133 0
M  V30 3845 N 359.178 -1.55987 0.224894 0
M  V30 3846 C 360.128 -2.17076 -0.697296 0
M  V30 3847 C 361.112 -1.12006 -1.15514 0
M  V30 3848 O 362.304 -1.37985 -1.10857 0
M  V30 3849 C 359.433 -2.85679 -1.90374 0
M  V30 3850 C 358.519 -3.97977 -1.46543 0
M  V30 3851 N 358.91 -5.00359 -0.739909 0
M  V30 3852 C 357.208 -4.10128 -1.75245 0
M  V30 3853 C 357.909 -5.79407 -0.515939 0
M  V30 3854 N 356.885 -5.32892 -1.07364 0
M  V30 3855 H 360.687 -2.93592 -0.134594 0
M  V30 3856 H 358.201 -1.62379 0.0262885 0
M  V30 3857 H 360.198 -3.27857 -2.57518 0
M  V30 3858 H 358.858 -2.1066 -2.47088 0
M  V30 3859 H 359.869 -5.16412 -0.392253 0
M  V30 3860 H 356.546 -3.46263 -2.33255 0
M  V30 3861 H 357.936 -6.71872 0.0617349 0
M  V30 3862 N 360.656 0.0484629 -1.57525 0
M  V30 3863 C 361.586 1.0549 -2.08313 0
M  V30 3864 C 362.567 1.38929 -0.981463 0
M  V30 3865 O 363.752 1.48151 -1.25558 0
M  V30 3866 C 360.882 2.36162 -2.54646 0
M  V30 3867 C 359.836 2.17016 -3.68901 0
M  V30 3868 C 359.162 3.53278 -4.01371 0
M  V30 3869 C 360.462 1.57219 -4.98076 0
M  V30 3870 H 362.156 0.632195 -2.92649 0
M  V30 3871 H 359.702 0.302654 -1.40784 0
M  V30 3872 H 361.655 3.06882 -2.88793 0
M  V30 3873 H 360.379 2.80456 -1.67368 0
M  V30 3874 H 359.038 1.48733 -3.35073 0
M  V30 3875 H 358.686 3.95185 -3.11188 0
M  V30 3876 H 358.386 3.41299 -4.78318 0
M  V30 3877 H 359.91 4.25391 -4.38035 0
M  V30 3878 H 361.324 2.17832 -5.30304 0
M  V30 3879 H 359.721 1.55871 -5.79503 0
M  V30 3880 H 360.791 0.535956 -4.81929 0
M  V30 3881 N 362.134 1.5431 0.320358 0
M  V30 3882 C 363.381 1.72668 1.05792 0
M  V30 3883 C 363.709 0.502084 1.87908 0
M  V30 3884 O 362.964 -0.516149 1.88771 0
M  V30 3885 C 363.263 2.95639 2.00828 0
M  V30 3886 C 362.929 4.30265 1.34843 0
M  V30 3887 C 361.591 4.66865 1.16578 0
M  V30 3888 C 363.943 5.13801 0.875095 0
M  V30 3889 C 361.271 5.84597 0.496336 0
M  V30 3890 C 363.623 6.32219 0.219463 0
M  V30 3891 C 362.287 6.67495 0.0246915 0
M  V30 3892 H 361.557 0.631837 0.387121 0
M  V30 3893 H 364.204 1.88552 0.334735 0
M  V30 3894 H 362.509 2.74456 2.79609 0
M  V30 3895 H 364.206 3.07038 2.57932 0
M  V30 3896 H 360.796 4.01472 1.50061 0
M  V30 3897 H 364.98 4.86039 1.00398 0
M  V30 3898 H 360.236 6.10486 0.334264 0
M  V30 3899 H 364.41 6.96227 -0.155291 0
M  V30 3900 H 362.037 7.5858 -0.496065 0
M  V30 3901 N 363.613 -0.582584 1.46437 0
M  V30 3902 C 364.561 -1.71272 1.5738 0
M  V30 3903 C 365.555 -1.63524 0.44229 0
M  V30 3904 O 366.761 -1.69016 0.619166 0
M  V30 3905 H 363.136 -0.566273 0.494813 0
M  V30 3906 H 365.107 -1.59174 2.52401 0
M  V30 3907 C 363.856 -3.09658 1.58136 0
M  V30 3908 H 363.179 -3.16291 2.44541 0
M  V30 3909 H 364.619 -3.88494 1.69847 0
M  V30 3910 C 363.078 -3.3547 0.310026 0
M  V30 3911 O 363.608 -3.97199 -0.599683 0
M  V30 3912 N 361.814 -2.89925 0.197901 0
M  V30 3913 H 361.361 -2.39873 0.93909 0
M  V30 3914 H 361.319 -3.07568 -0.65185 0
M  V30 3915 N 365.091 -1.34144 -0.827227 0
M  V30 3916 C 366.316 -1.29476 -1.62021 0
M  V30 3917 C 366.741 0.129292 -1.87655 0
M  V30 3918 O 366.099 1.08967 -1.449 0
M  V30 3919 C 366.147 -2.08702 -2.94068 0
M  V30 3920 O 365.251 -1.45359 -3.85933 0
M  V30 3921 H 364.592 -0.444881 -0.492927 0
M  V30 3922 H 367.122 -1.76882 -1.02829 0
M  V30 3923 H 367.132 -2.19898 -3.43669 0
M  V30 3924 H 365.807 -3.12241 -2.74734 0
M  V30 3925 H 364.384 -1.42879 -3.44442 0
M  V30 3926 N 366.569 1.04691 -1.17803 0
M  V30 3927 C 367.818 1.77176 -0.963931 0
M  V30 3928 C 368.131 1.88888 0.508015 0
M  V30 3929 O 369.337 2.58164 0.840465 0
M  V30 3930 C 367.793 3.18518 -1.67555 0
M  V30 3931 C 367.401 3.14919 -3.18637 0
M  V30 3932 C 369.145 3.95424 -1.54402 0
M  V30 3933 C 367.052 4.51081 -3.82466 0
M  V30 3934 H 365.982 0.664116 -0.357023 0
M  V30 3935 H 368.633 1.17303 -1.4111 0
M  V30 3936 H 367.015 3.78748 -1.15613 0
M  V30 3937 H 368.189 2.64178 -3.77554 0
M  V30 3938 H 366.504 2.51512 -3.31859 0
M  V30 3939 H 369.101 4.96106 -1.99456 0
M  V30 3940 H 369.444 4.13343 -0.495329 0
M  V30 3941 H 369.977 3.41754 -2.0359 0
M  V30 3942 H 366.716 4.38368 -4.87354 0
M  V30 3943 H 366.236 5.01951 -3.28337 0
M  V30 3944 H 367.915 5.2001 -3.84965 0
M  V30 3945 N 368.047 0.979072 1.23499 0
M  V30 3946 C 369.287 0.655228 1.93613 0
M  V30 3947 C 369.651 -0.796336 1.74707 0
M  V30 3948 O 370.852 -1.23094 2.38959 0
M  V30 3949 C 369.123 1.03337 3.42135 0
M  V30 3950 S 370.682 0.825793 4.3096 0
M  V30 3951 H 367.5 0.240004 0.669267 0
M  V30 3952 H 370.102 1.25843 1.49612 0
M  V30 3953 H 368.806 2.08646 3.53405 0
M  V30 3954 H 368.337 0.421397 3.91137 0
M  V30 3955 H 370.352 -0.290991 4.95346 0
M  V30 3956 N 369.525 -1.3858 0.750561 0
M  V30 3957 C 370.473 -2.32339 0.110162 0
M  V30 3958 C 371.467 -1.53864 -0.708674 0
M  V30 3959 O 372.673 -1.69417 -0.608112 0
M  V30 3960 H 369.048 -0.751812 0.0168275 0
M  V30 3961 H 371.019 -2.83959 0.917053 0
M  V30 3962 C 369.768 -3.39043 -0.771067 0
M  V30 3963 H 369.091 -3.99517 -0.150374 0
M  V30 3964 H 370.531 -4.07061 -1.1865 0
M  V30 3965 C 368.99 -2.77365 -1.91234 0
M  V30 3966 O 369.52 -2.66434 -3.00626 0
M  V30 3967 N 367.726 -2.35219 -1.70646 0
M  V30 3968 H 367.273 -2.4431 -0.81673 0
M  V30 3969 H 367.231 -1.94294 -2.47178 0
M  V30 3970 N 371.003 -0.499398 -1.49478 0
M  V30 3971 C 371.953 0.299103 -2.2603 0
M  V30 3972 C 372.937 0.936934 -1.30807 0
M  V30 3973 O 374.129 0.844798 -1.55538 0
M  V30 3974 C 371.258 1.36391 -3.15044 0
M  V30 3975 C 370.344 0.732398 -4.17728 0
M  V30 3976 N 370.735 -0.164028 -5.05534 0
M  V30 3977 C 369.033 0.993162 -4.34801 0
M  V30 3978 C 369.734 -0.525345 -5.79323 0
M  V30 3979 N 368.71 0.106348 -5.43496 0
M  V30 3980 H 372.512 -0.391003 -2.91287 0
M  V30 3981 H 370.026 -0.31537 -1.59308 0
M  V30 3982 H 372.023 1.94939 -3.68516 0
M  V30 3983 H 370.683 2.05571 -2.51338 0
M  V30 3984 H 371.694 -0.534736 -5.15132 0
M  V30 3985 H 368.371 1.67783 -3.82302 0
M  V30 3986 H 369.761 -1.25862 -6.60006 0
M  V30 3987 N 372.481 1.55866 -0.233164 0
M  V30 3988 C 373.897 1.59133 0.121988 0
M  V30 3989 C 374.097 1.25016 1.58029 0
M  V30 3990 O 373.153 0.990922 2.32243 0
M  V30 3991 C 374.466 2.99932 -0.214792 0
M  V30 3992 C 376.014 3.12601 -0.157971 0
M  V30 3993 C 376.489 4.55597 -0.46859 0
M  V30 3994 N 377.98 4.61305 -0.418585 0
M  V30 3995 C 378.715 5.69903 -0.63227 0
M  V30 3996 N 378.211 6.86819 -0.90835 0
M  V30 3997 N 380.004 5.59264 -0.563913 0
M  V30 3998 H 372.155 1.76315 -1.18434 0
M  V30 3999 H 374.418 0.820093 -0.475553 0
M  V30 4000 H 374.124 3.29588 -1.22739 0
M  V30 4001 H 373.998 3.74327 0.464691 0
M  V30 4002 H 376.385 2.82735 0.845283 0
M  V30 4003 H 376.466 2.40511 -0.871102 0
M  V30 4004 H 376.11 4.86182 -1.46934 0
M  V30 4005 H 376.04 5.25928 0.265865 0
M  V30 4006 H 378.531 3.77297 -0.213368 0
M  V30 4007 H 378.844 7.65507 -1.05919 0
M  V30 4008 H 377.189 6.88536 -0.945673 0
M  V30 4009 H 380.38 4.66802 -0.348372 0
M  V30 4010 H 380.553 6.43831 -0.733847 0
M  V30 4011 N 373.959 -0.0401083 1.57549 0
M  V30 4012 C 375.189 -0.744115 1.92734 0
M  V30 4013 C 375.597 -1.70005 0.830348 0
M  V30 4014 O 374.94 -1.82576 -0.20286 0
M  V30 4015 C 375.002 -1.56516 3.2364 0
M  V30 4016 C 374.666 -0.7752 4.50377 0
M  V30 4017 C 375.663 -0.0803326 5.19838 0
M  V30 4018 C 373.348 -0.733002 4.96923 0
M  V30 4019 C 375.342 0.646154 6.34116 0
M  V30 4020 C 373.029 -0.00276321 6.111 0
M  V30 4021 C 374.027 0.685585 6.7955 0
M  V30 4022 O 373.715 1.40399 7.91545 0
M  V30 4023 H 373.447 -0.214861 0.640945 0
M  V30 4024 H 376.001 -0.00503675 2.05399 0
M  V30 4025 H 374.231 -2.3478 3.07271 0
M  V30 4026 H 375.92 -2.15076 3.44234 0
M  V30 4027 H 376.686 -0.104035 4.84888 0
M  V30 4028 H 372.565 -1.25827 4.43496 0
M  V30 4029 H 376.109 1.18398 6.87479 0
M  V30 4030 H 372.006 0.0229012 6.45496 0
M  V30 4031 H 372.774 1.31653 8.07843 0
M  V30 4032 N 375.437 -1.54477 -0.31217 0
M  V30 4033 C 376.684 -1.73227 -1.04875 0
M  V30 4034 C 377.012 -0.512042 -1.87639 0
M  V30 4035 O 376.267 0.506131 -1.89042 0
M  V30 4036 C 376.566 -2.967 -1.99258 0
M  V30 4037 C 376.232 -4.30974 -1.32559 0
M  V30 4038 C 374.894 -4.67477 -1.141 0
M  V30 4039 C 377.246 -5.14258 -0.847835 0
M  V30 4040 C 374.574 -5.84852 -0.465326 0
M  V30 4041 C 376.926 -6.32327 -0.185931 0
M  V30 4042 C 375.59 -6.67499 0.0107077 0
M  V30 4043 H 374.86 -0.633881 -0.383765 0
M  V30 4044 H 377.507 -1.88727 -0.324731 0
M  V30 4045 H 375.812 -2.75935 -2.7815 0
M  V30 4046 H 377.509 -3.08401 -2.563 0
M  V30 4047 H 374.099 -4.02262 -1.4793 0
M  V30 4048 H 378.283 -4.86565 -0.978192 0
M  V30 4049 H 373.539 -6.10654 -0.301883 0
M  V30 4050 H 377.713 -6.96135 0.192211 0
M  V30 4051 H 375.34 -7.58306 0.536287 0
M  V30 4052 N 376.915 0.57481 -1.46744 0
M  V30 4053 C 377.878 1.66533 -1.57478 0
M  V30 4054 C 378.878 1.54338 -0.451263 0
M  V30 4055 O 380.068 1.58814 -0.715813 0
M  V30 4056 C 377.2 3.05999 -1.50259 0
M  V30 4057 H 378.393 1.58372 -2.54673 0
M  V30 4058 H 375.946 0.793301 -1.34672 0
M  V30 4059 H 376.681 3.19709 -0.543725 0
M  V30 4060 H 376.466 3.16259 -2.31781 0
M  V30 4061 H 377.956 3.8537 -1.60872 0
M  V30 4062 N 378.394 1.34581 0.820102 0
M  V30 4063 C 379.622 1.3018 1.60813 0
M  V30 4064 C 380.037 -0.123551 1.88395 0
M  V30 4065 O 379.394 -1.07148 1.47735 0
M  V30 4066 C 379.445 2.09312 2.94739 0
M  V30 4067 O 379.166 3.46288 2.68358 0
M  V30 4068 C 380.667 2.1234 3.89136 0
M  V30 4069 H 377.887 0.447726 0.499782 0
M  V30 4070 H 380.431 1.77237 1.02017 0
M  V30 4071 H 378.586 1.65889 3.50085 0
M  V30 4072 H 379 3.87227 3.53774 0
M  V30 4073 H 380.474 2.72126 4.80262 0
M  V30 4074 H 380.951 1.11854 4.24718 0
M  V30 4075 H 381.557 2.55864 3.39726 0
M  V30 4076 N 379.872 -1.04064 1.18357 0
M  V30 4077 C 381.1 -1.80916 1.00384 0
M  V30 4078 C 381.515 -1.83414 -0.447738 0
M  V30 4079 O 380.872 -1.26962 -1.31099 0
M  V30 4080 C 380.923 -3.26516 1.55144 0
M  V30 4081 O 380.644 -3.2424 2.94618 0
M  V30 4082 C 382.145 -4.20013 1.41789 0
M  V30 4083 H 379.365 -0.569728 0.354474 0
M  V30 4084 H 381.909 -1.31151 1.56906 0
M  V30 4085 H 380.064 -3.73512 1.02798 0
M  V30 4086 H 380.478 -4.15452 3.20156 0
M  V30 4087 H 381.952 -5.20111 1.84901 0
M  V30 4088 H 382.429 -4.37667 0.36661 0
M  V30 4089 H 383.035 -3.78881 1.93207 0
M  V30 4090 N 381.35 -0.985608 -1.22978 0
M  V30 4091 C 382.575 -0.675254 -1.961 0
M  V30 4092 C 383 0.752154 -1.72407 0
M  V30 4093 O 382.358 1.5131 -0.998751 0
M  V30 4094 C 382.406 -0.977899 -3.47087 0
M  V30 4095 O 381.51 -0.072685 -4.12336 0
M  V30 4096 H 380.851 -0.253443 -0.613728 0
M  V30 4097 H 383.381 -1.32061 -1.56272 0
M  V30 4098 H 383.391 -0.916739 -3.97567 0
M  V30 4099 H 382.066 -2.01807 -3.63657 0
M  V30 4100 H 380.643 -0.188703 -3.72422 0
M  V30 4101 N 382.828 1.3818 -0.7579 0
M  V30 4102 C 384.077 1.99261 -0.312744 0
M  V30 4103 C 384.39 1.60846 1.11301 0
M  V30 4104 O 385.596 2.14929 1.65885 0
M  V30 4105 C 384.052 3.56294 -0.50821 0
M  V30 4106 C 383.66 4.03657 -1.94333 0
M  V30 4107 C 385.404 4.24313 -0.125982 0
M  V30 4108 C 383.311 5.53347 -2.08712 0
M  V30 4109 H 382.241 0.745456 -0.113185 0
M  V30 4110 H 384.892 1.57889 -0.935056 0
M  V30 4111 H 383.274 3.95575 0.183353 0
M  V30 4112 H 384.448 3.75655 -2.66871 0
M  V30 4113 H 382.763 3.48376 -2.28086 0
M  V30 4114 H 385.36 5.34279 -0.212125 0
M  V30 4115 H 385.703 4.05962 0.921964 0
M  V30 4116 H 386.236 3.90285 -0.769563 0
M  V30 4117 H 382.975 5.76607 -3.11777 0
M  V30 4118 H 382.495 5.83078 -1.4064 0
M  V30 4119 H 384.174 6.19111 -1.87912 0
M  V30 4120 N 384.306 0.507319 1.49211 0
M  V30 4121 C 385.552 -0.0350047 2.0277 0
M  V30 4122 C 385.885 -1.3606 1.38569 0
M  V30 4123 O 385.16 -1.87321 0.523542 0
M  V30 4124 C 385.443 -0.180916 3.59645 0
M  V30 4125 C 385.296 1.16825 4.34364 0
M  V30 4126 C 386.615 -0.918558 4.30407 0
M  V30 4127 H 383.734 -0.0112473 0.736914 0
M  V30 4128 H 386.376 0.659956 1.7817 0
M  V30 4129 H 384.526 -0.772826 3.80736 0
M  V30 4130 H 386.198 1.79952 4.24753 0
M  V30 4131 H 384.441 1.75594 3.96673 0
M  V30 4132 H 385.112 1.01939 5.42506 0
M  V30 4133 H 387.588 -0.41649 4.1401 0
M  V30 4134 H 386.464 -0.989505 5.39907 0
M  V30 4135 H 386.725 -1.96373 3.96093 0
M  V30 4136 N 385.784 -1.5574 0.241426 0
M  V30 4137 C 386.714 -2.24133 -0.654722 0
M  V30 4138 C 387.695 -1.21974 -1.1856 0
M  V30 4139 O 388.88 -1.50612 -1.22595 0
M  V30 4140 C 386.01 -2.93659 -1.85423 0
M  V30 4141 C 384.964 -4.0246 -1.45636 0
M  V30 4142 C 384.29 -4.59383 -2.73626 0
M  V30 4143 C 385.59 -5.18468 -0.631506 0
M  V30 4144 H 387.284 -2.99281 -0.0844353 0
M  V30 4145 H 384.83 -1.43947 -0.0391707 0
M  V30 4146 H 386.783 -3.40203 -2.48676 0
M  V30 4147 H 385.507 -2.15991 -2.44981 0
M  V30 4148 H 384.166 -3.56676 -0.847202 0
M  V30 4149 H 383.814 -3.78422 -3.3137 0
M  V30 4150 H 383.514 -5.32826 -2.4773 0
M  V30 4151 H 385.038 -5.08658 -3.37786 0
M  V30 4152 H 386.452 -5.61272 -1.1682 0
M  V30 4153 H 384.849 -5.98266 -0.468831 0
M  V30 4154 H 385.919 -4.8358 0.357506 0
M  V30 4155 N 387.262 0.0317525 -1.57568 0
M  V30 4156 C 388.509 0.723104 -1.89149 0
M  V30 4157 C 388.837 1.75504 -0.838377 0
M  V30 4158 O 388.092 1.95037 0.160982 0
M  V30 4159 C 388.391 1.43167 -3.27472 0
M  V30 4160 C 388.057 0.535972 -4.47703 0
M  V30 4161 C 386.719 0.289262 -4.8033 0
M  V30 4162 C 389.071 -0.0826125 -5.21135 0
M  V30 4163 C 386.399 -0.584853 -5.83778 0
M  V30 4164 C 388.751 -0.944414 -6.25511 0
M  V30 4165 C 387.415 -1.20061 -6.56614 0
M  V30 4166 H 386.685 0.264602 -0.692146 0
M  V30 4167 H 389.332 -0.0169496 -1.91492 0
M  V30 4168 H 387.637 2.24497 -3.21105 0
M  V30 4169 H 389.334 1.97209 -3.49155 0
M  V30 4170 H 385.924 0.738414 -4.22191 0
M  V30 4171 H 390.108 0.0950302 -4.96209 0
M  V30 4172 H 385.364 -0.79168 -6.06253 0
M  V30 4173 H 389.538 -1.43026 -6.81554 0
M  V30 4174 H 387.165 -1.87967 -7.36595 0
M  V30 4175 N 388.74 1.54641 0.303973 0
M  V30 4176 C 389.67 1.88386 1.3796 0
M  V30 4177 C 390.651 0.742485 1.5304 0
M  V30 4178 O 391.836 0.997959 1.66597 0
M  V30 4179 C 388.966 2.12854 2.74427 0
M  V30 4180 C 387.92 3.28702 2.74115 0
M  V30 4181 C 387.246 3.38582 4.13844 0
M  V30 4182 C 388.546 4.65881 2.3612 0
M  V30 4183 H 390.24 2.78474 1.09966 0
M  V30 4184 H 387.786 1.33988 0.527556 0
M  V30 4185 H 389.739 2.35047 3.49758 0
M  V30 4186 H 388.463 1.19535 3.03939 0
M  V30 4187 H 387.122 3.06428 2.0124 0
M  V30 4188 H 386.77 2.42784 4.40528 0
M  V30 4189 H 386.47 4.16453 4.14537 0
M  V30 4190 H 387.994 3.63031 4.90959 0
M  V30 4191 H 389.408 4.87823 3.01167 0
M  V30 4192 H 387.805 5.46444 2.48031 0
M  V30 4193 H 388.875 4.66799 1.3125 0
M  V30 4194 N 390.218 -0.567019 1.47046 0
M  V30 4195 C 391.166 -1.69593 1.59188 0
M  V30 4196 C 392.16 -1.63046 0.459609 0
M  V30 4197 O 393.366 -1.6835 0.637058 0
M  V30 4198 H 389.741 -0.560993 0.500791 0
M  V30 4199 H 391.712 -1.56488 2.54075 0
M  V30 4200 C 390.461 -3.07964 1.61411 0
M  V30 4201 H 389.784 -3.13679 2.47881 0
M  V30 4202 H 391.224 -3.86671 1.73958 0
M  V30 4203 C 389.683 -3.35123 0.34559 0
M  V30 4204 O 390.213 -3.97812 -0.557521 0
M  V30 4205 N 388.419 -2.89699 0.22864 0
M  V30 4206 H 387.966 -2.38863 0.964479 0
M  V30 4207 H 387.924 -3.08242 -0.619192 0
M  V30 4208 N 391.696 -1.35014 -0.812953 0
M  V30 4209 C 392.643 -1.27412 -1.92444 0
M  V30 4210 C 393.613 -0.14733 -1.65445 0
M  V30 4211 O 394.798 -0.329974 -1.87925 0
M  V30 4212 C 391.938 -1.04558 -3.28879 0
M  V30 4213 C 391.051 -2.26101 -3.68106 0
M  V30 4214 C 390.186 -1.96449 -4.9354 0
M  V30 4215 C 389.225 -3.14081 -5.25376 0
M  V30 4216 N 388.362 -2.84246 -6.41988 0
M  V30 4217 H 393.202 -2.22463 -1.98278 0
M  V30 4218 H 390.739 -1.10593 -0.969933 0
M  V30 4219 H 392.697 -0.893413 -4.07522 0
M  V30 4220 H 391.327 -0.131719 -3.22531 0
M  V30 4221 H 390.379 -2.52204 -2.84775 0
M  V30 4222 H 391.691 -3.13959 -3.87597 0
M  V30 4223 H 390.845 -1.78026 -5.79993 0
M  V30 4224 H 389.584 -1.05867 -4.76071 0
M  V30 4225 H 388.589 -3.33089 -4.37415 0
M  V30 4226 H 389.814 -4.05455 -5.44778 0
M  V30 4227 H 387.76 -1.96252 -6.25956 0
M  V30 4228 H 387.677 -3.65637 -6.61699 0
M  V30 4229 H 388.945 -2.6935 -7.31485 0
M  V30 4230 N 393.175 1.03435 -1.18907 0
M  V30 4231 C 394.122 2.11591 -0.921837 0
M  V30 4232 C 395.092 1.65499 0.141226 0
M  V30 4233 O 396.277 1.908 0.000242829 0
M  V30 4234 C 393.417 3.42012 -0.460616 0
M  V30 4235 C 392.53 4.01682 -1.58982 0
M  V30 4236 C 391.665 5.20091 -1.08069 0
M  V30 4237 C 390.704 5.71805 -2.18416 0
M  V30 4238 N 389.841 6.81494 -1.68849 0
M  V30 4239 H 394.681 2.33787 -1.8479 0
M  V30 4240 H 392.218 1.1467 -0.921373 0
M  V30 4241 H 394.176 4.16834 -0.174642 0
M  V30 4242 H 392.806 3.19944 0.428467 0
M  V30 4243 H 391.858 3.24127 -1.99113 0
M  V30 4244 H 393.17 4.36084 -2.4214 0
M  V30 4245 H 392.324 6.02051 -0.749615 0
M  V30 4246 H 391.063 4.87209 -0.218771 0
M  V30 4247 H 390.068 4.88461 -2.5236 0
M  V30 4248 H 391.293 6.06728 -3.05054 0
M  V30 4249 H 389.239 6.50475 -0.849572 0
M  V30 4250 H 389.156 7.14994 -2.45601 0
M  V30 4251 H 390.424 7.67063 -1.38689 0
M  V30 4252 N 394.653 0.992116 1.22453 0
M  V30 4253 C 395.93 0.583508 1.86694 0
M  V30 4254 C 396.31 -0.9392 1.89056 0
M  V30 4255 O 395.658 -1.82081 1.38053 0
M  V30 4256 C 395.868 1.20304 3.2761 0
M  V30 4257 C 397.216 1.30308 4.0411 0
M  V30 4258 O 398.24 1.15737 3.36873 0
M  V30 4259 O 397.099 1.53615 5.24466 0
M  V30 4260 H 394.193 0.198129 0.802916 0
M  V30 4261 H 396.739 1.08794 1.30238 0
M  V30 4262 H 395.511 2.24461 3.2052 0
M  V30 4263 H 395.134 0.684144 3.9167 0
M  V30 4264 N 396.131 -1.37776 0.765217 0
M  V30 4265 C 397.377 -2.00145 0.327072 0
M  V30 4266 C 397.71 -1.60607 -1.09175 0
M  V30 4267 O 396.985 -0.849127 -1.74986 0
M  V30 4268 C 397.268 -3.57109 0.46319 0
M  V30 4269 C 397.121 -4.06576 1.92395 0
M  V30 4270 C 398.44 -4.39888 -0.136473 0
M  V30 4271 H 395.559 -0.727113 0.120316 0
M  V30 4272 H 398.201 -1.63549 0.967039 0
M  V30 4273 H 396.351 -3.88414 -0.0816358 0
M  V30 4274 H 398.023 -3.85864 2.52798 0
M  V30 4275 H 396.266 -3.59011 2.43503 0
M  V30 4276 H 396.937 -5.15639 1.97028 0
M  V30 4277 H 399.413 -4.14803 0.328317 0
M  V30 4278 H 398.289 -5.48899 -0.0110582 0
M  V30 4279 H 398.55 -4.24758 -1.22608 0
M  V30 4280 N 397.609 -0.515225 -1.4894 0
M  V30 4281 C 398.856 0.024215 -2.02486 0
M  V30 4282 C 399.184 1.35671 -1.39368 0
M  V30 4283 O 398.439 1.88566 -0.523574 0
M  V30 4284 C 398.738 0.210595 -3.56779 0
M  V30 4285 C 398.404 -1.04569 -4.38607 0
M  V30 4286 C 397.066 -1.39002 -4.60686 0
M  V30 4287 C 399.418 -1.88008 -4.86109 0
M  V30 4288 C 396.746 -2.568 -5.27514 0
M  V30 4289 C 399.098 -3.04972 -5.54234 0
M  V30 4290 C 397.762 -3.39768 -5.74555 0
M  V30 4291 H 397.032 0.00886088 -0.740947 0
M  V30 4292 H 399.679 -0.678263 -1.79086 0
M  V30 4293 H 397.984 0.99572 -3.78936 0
M  V30 4294 H 399.681 0.642659 -3.95817 0
M  V30 4295 H 396.271 -0.767497 -4.21672 0
M  V30 4296 H 400.455 -1.62719 -4.68867 0
M  V30 4297 H 395.711 -2.8398 -5.41447 0
M  V30 4298 H 399.885 -3.69943 -5.90013 0
M  V30 4299 H 397.512 -4.31148 -6.26112 0
M  V30 4300 N 399.087 1.5561 -0.249682 0
M  V30 4301 C 400.334 1.99011 0.374287 0
M  V30 4302 C 400.662 1.13785 1.57744 0
M  V30 4303 O 399.917 0.189326 1.94782 0
M  V30 4304 C 400.216 3.4775 0.824887 0
M  V30 4305 C 399.882 4.50086 -0.270819 0
M  V30 4306 C 398.544 4.77791 -0.571746 0
M  V30 4307 C 400.896 5.11312 -1.01041 0
M  V30 4308 C 398.224 5.63997 -1.61629 0
M  V30 4309 C 400.576 5.98651 -2.0445 0
M  V30 4310 C 399.24 6.24688 -2.35204 0
M  V30 4311 H 398.51 0.728233 0.136961 0
M  V30 4312 H 401.157 1.88122 -0.358087 0
M  V30 4313 H 399.462 3.55985 1.63651 0
M  V30 4314 H 401.159 3.78721 1.31799 0
M  V30 4315 H 397.749 4.28592 -0.026136 0
M  V30 4316 H 401.933 4.89953 -0.791177 0
M  V30 4317 H 397.189 5.82425 -1.85988 0
M  V30 4318 H 401.363 6.45135 -2.62248 0
M  V30 4319 H 398.99 6.91281 -3.16282 0
M  V30 4320 N 400.565 -0.0233959 1.57583 0
M  V30 4321 C 401.475 -1.03907 2.10334 0
M  V30 4322 C 402.491 -1.39257 1.04323 0
M  V30 4323 O 403.667 -1.48462 1.36091 0
M  V30 4324 C 400.732 -2.31938 2.57693 0
M  V30 4325 C 399.793 -2.03117 3.78209 0
M  V30 4326 C 399.026 -3.25043 4.233 0
M  V30 4327 O 399.249 -4.35916 3.67876 0
M  V30 4328 O 398.183 -3.10411 5.15683 0
M  V30 4329 H 402.009 -0.620748 2.97288 0
M  V30 4330 H 399.594 -0.240743 1.47448 0
M  V30 4331 H 401.476 -3.07196 2.88458 0
M  V30 4332 H 400.151 -2.73055 1.73847 0
M  V30 4333 H 399.058 -1.25408 3.52454 0
M  V30 4334 H 400.391 -1.66852 4.63056 0
M  V30 4335 N 402.043 -1.548 -0.295768 0
M  V30 4336 C 402.99 -1.86113 -1.36494 0
M  V30 4337 C 403.96 -0.7105 -1.50137 0
M  V30 4338 O 405.145 -0.959626 -1.64912 0
M  V30 4339 C 402.285 -2.11861 -2.72413 0
M  V30 4340 C 401.398 -3.39471 -2.67177 0
M  V30 4341 C 400.533 -3.55035 -3.95125 0
M  V30 4342 C 399.572 -4.76418 -3.84308 0
M  V30 4343 N 398.709 -4.8876 -5.04042 0
M  V30 4344 H 403.549 -2.77314 -1.09091 0
M  V30 4345 H 401.086 -1.37315 -0.52753 0
M  V30 4346 H 403.044 -2.24786 -3.51464 0
M  V30 4347 H 401.674 -1.2392 -2.98066 0
M  V30 4348 H 400.726 -3.35139 -1.79962 0
M  V30 4349 H 402.038 -4.28646 -2.55076 0
M  V30 4350 H 401.192 -3.67653 -4.82614 0
M  V30 4351 H 399.931 -2.64002 -4.10066 0
M  V30 4352 H 398.936 -4.63827 -2.95202 0
M  V30 4353 H 400.161 -5.68863 -3.70906 0
M  V30 4354 H 398.107 -4.00652 -5.19436 0
M  V30 4355 H 398.024 -5.71945 -4.94384 0
M  V30 4356 H 399.292 -5.0574 -5.93167 0
M  V30 4357 N 403.521 0.559213 -1.47345 0
M  V30 4358 C 404.77 1.31281 -1.53128 0
M  V30 4359 C 405.083 1.94602 -0.197344 0
M  V30 4360 O 406.289 2.71173 -0.133154 0
M  V30 4361 C 404.745 2.38051 -2.69925 0
M  V30 4362 C 404.353 1.8093 -4.0984 0
M  V30 4363 C 406.097 3.14604 -2.84999 0
M  V30 4364 C 404.004 2.85468 -5.1794 0
M  V30 4365 H 402.934 0.493614 -0.569966 0
M  V30 4366 H 405.585 0.594155 -1.73615 0
M  V30 4367 H 403.967 3.12822 -2.42814 0
M  V30 4368 H 405.141 1.12544 -4.46845 0
M  V30 4369 H 403.456 1.16967 -3.99634 0
M  V30 4370 H 406.053 3.92666 -3.62929 0
M  V30 4371 H 406.396 3.68665 -1.93369 0
M  V30 4372 H 406.929 2.46945 -3.1187 0
M  V30 4373 H 403.668 2.36264 -6.1144 0
M  V30 4374 H 403.188 3.52269 -4.85455 0
M  V30 4375 H 404.867 3.48996 -5.44803 0
M  V30 4376 N 404.999 1.35443 0.805782 0
M  V30 4377 C 405.946 1.28431 1.91766 0
M  V30 4378 C 406.916 0.156102 1.65365 0
M  V30 4379 O 408.101 0.339936 1.87747 0
M  V30 4380 C 405.241 1.06301 3.2832 0
M  V30 4381 C 404.354 2.2805 3.66902 0
M  V30 4382 C 403.489 1.99064 4.92491 0
M  V30 4383 C 402.528 3.16863 5.23703 0
M  V30 4384 N 401.665 2.87647 6.40471 0
M  V30 4385 H 406.505 2.23511 1.97096 0
M  V30 4386 H 404.042 1.11105 0.964054 0
M  V30 4387 H 406 0.915012 4.07042 0
M  V30 4388 H 404.63 0.148822 3.22457 0
M  V30 4389 H 403.682 2.53711 2.83434 0
M  V30 4390 H 404.994 3.1601 3.85927 0
M  V30 4391 H 404.148 1.81099 5.7904 0
M  V30 4392 H 402.887 1.0839 4.75503 0
M  V30 4393 H 401.892 3.35404 4.35642 0
M  V30 4394 H 403.117 4.08339 5.4262 0
M  V30 4395 H 401.063 1.99568 6.24907 0
M  V30 4396 H 400.98 3.69141 6.59751 0
M  V30 4397 H 402.248 2.73226 7.30047 0
M  V30 4398 N 406.477 -1.02803 1.19454 0
M  V30 4399 C 407.424 -2.11099 0.933046 0
M  V30 4400 C 408.394 -1.65571 -0.132447 0
M  V30 4401 O 409.579 -1.90797 0.00987576 0
M  V30 4402 C 406.719 -3.41763 0.478747 0
M  V30 4403 C 405.832 -4.00833 1.6111 0
M  V30 4404 C 404.967 -5.19511 1.10825 0
M  V30 4405 C 404.006 -5.70639 2.21445 0
M  V30 4406 N 403.143 -6.80589 1.72461 0
M  V30 4407 H 407.983 -2.32804 1.86028 0
M  V30 4408 H 405.52 -1.14179 0.927441 0
M  V30 4409 H 407.478 -4.16736 0.196745 0
M  V30 4410 H 406.108 -3.20166 -0.411493 0
M  V30 4411 H 405.16 -3.23066 2.00829 0
M  V30 4412 H 406.472 -4.34794 2.4445 0
M  V30 4413 H 405.626 -6.01645 0.781533 0
M  V30 4414 H 404.365 -4.87086 0.244606 0
M  V30 4415 H 403.37 -4.87116 2.54947 0
M  V30 4416 H 404.595 -6.05102 3.08267 0
M  V30 4417 H 402.541 -6.50016 0.884056 0
M  V30 4418 H 402.458 -7.13681 2.49389 0
M  V30 4419 H 403.726 -7.66317 1.42755 0
M  V30 4420 N 407.956 -0.998596 -1.21925 0
M  V30 4421 C 408.919 -0.558679 -2.22287 0
M  V30 4422 C 409.919 0.361525 -1.56683 0
M  V30 4423 O 411.109 0.152695 -1.73529 0
M  V30 4424 C 408.241 0.18661 -3.40389 0
M  V30 4425 H 409.434 -1.4463 -2.62721 0
M  V30 4426 H 406.987 -0.786413 -1.35075 0
M  V30 4427 H 407.722 1.08996 -3.05435 0
M  V30 4428 H 407.507 -0.474188 -3.89222 0
M  V30 4429 H 408.997 0.482367 -4.14805 0
M  V30 4430 N 409.434 1.37368 -0.772513 0
M  V30 4431 C 410.384 2.27613 -0.132823 0
M  V30 4432 C 411.368 1.46138 0.673247 0
M  V30 4433 O 412.56 1.68686 0.536095 0
M  V30 4434 C 409.689 3.35122 0.744864 0
M  V30 4435 C 408.775 4.24044 -0.0690771 0
M  V30 4436 N 409.166 4.93355 -1.1151 0
M  V30 4437 C 407.464 4.45731 0.154782 0
M  V30 4438 C 408.165 5.59 -1.60917 0
M  V30 4439 N 407.141 5.35737 -0.921222 0
M  V30 4440 H 410.943 2.78675 -0.933681 0
M  V30 4441 H 408.457 1.50494 -0.610342 0
M  V30 4442 H 410.454 3.98683 1.21892 0
M  V30 4443 H 409.114 2.85616 1.54446 0
M  V30 4444 H 410.125 4.95785 -1.49726 0
M  V30 4445 H 406.802 4.07096 0.926224 0
M  V30 4446 H 408.192 6.24395 -2.48153 0
M  V30 4447 N 410.912 0.523116 1.48665 0
M  V30 4448 C 411.842 -0.23231 2.32342 0
M  V30 4449 C 412.823 -0.941637 1.41659 0
M  V30 4450 O 414.008 -0.928751 1.70552 0
M  V30 4451 C 411.138 -1.28387 3.22698 0
M  V30 4452 C 410.092 -0.693098 4.22351 0
M  V30 4453 C 409.418 -1.8468 5.01794 0
M  V30 4454 C 410.718 0.33063 5.21252 0
M  V30 4455 H 412.412 0.466192 2.95748 0
M  V30 4456 H 409.958 0.225643 1.42221 0
M  V30 4457 H 411.911 -1.82024 3.80059 0
M  V30 4458 H 410.635 -2.01186 2.57278 0
M  V30 4459 H 409.294 -0.178299 3.66166 0
M  V30 4460 H 408.942 -2.56301 4.32804 0
M  V30 4461 H 408.642 -1.45747 5.69238 0
M  V30 4462 H 410.166 -2.38709 5.62006 0
M  V30 4463 H 411.58 -0.118407 5.73178 0
M  V30 4464 H 409.977 0.636974 5.9671 0
M  V30 4465 H 411.047 1.23883 4.68808 0
M  V30 4466 N 412.39 -1.55475 0.257931 0
M  V30 4467 C 413.615 -2.04064 -0.370488 0
M  V30 4468 C 414.04 -1.13565 -1.49948 0
M  V30 4469 O 413.398 -0.130781 -1.80828 0
M  V30 4470 C 413.446 -3.50554 -0.845237 0
M  V30 4471 O 412.55 -3.63173 -1.95394 0
M  V30 4472 H 411.891 -0.659257 -0.0792243 0
M  V30 4473 H 414.421 -2.00903 0.387212 0
M  V30 4474 H 414.431 -3.91588 -1.14555 0
M  V30 4475 H 413.106 -4.15896 -0.0191259 0
M  V30 4476 H 411.683 -3.34039 -1.65748 0
M  V30 4477 N 413.868 0.0150385 -1.57593 0
M  V30 4478 C 415.117 0.702115 -1.89085 0
M  V30 4479 C 415.43 1.75764 -0.858277 0
M  V30 4480 O 416.636 2.49829 -1.0629 0
M  V30 4481 C 415.092 1.29992 -3.35604 0
M  V30 4482 C 414.7 0.280007 -4.47124 0
M  V30 4483 C 416.444 1.96606 -3.76227 0
M  V30 4484 C 414.351 0.886949 -5.84711 0
M  V30 4485 H 413.281 0.265997 -0.705522 0
M  V30 4486 H 415.932 -0.0430408 -1.8345 0
M  V30 4487 H 414.314 2.09525 -3.36029 0
M  V30 4488 H 415.488 -0.489631 -4.58191 0
M  V30 4489 H 413.803 -0.284835 -4.15425 0
M  V30 4490 H 416.4 2.42893 -4.76347 0
M  V30 4491 H 416.743 2.79024 -3.08952 0
M  V30 4492 H 417.276 1.23828 -3.78036 0
M  V30 4493 H 414.015 0.101876 -6.55421 0
M  V30 4494 H 413.535 1.6261 -5.77337 0
M  V30 4495 H 415.214 1.39011 -6.3189 0
M  V30 4496 N 415.346 1.54954 0.287554 0
M  V30 4497 C 416.586 1.76617 1.02887 0
M  V30 4498 C 416.95 0.547759 1.84021 0
M  V30 4499 O 418.151 0.642365 2.61012 0
M  V30 4500 C 416.422 3.02717 1.89993 0
M  V30 4501 S 417.981 3.45438 2.70588 0
M  V30 4502 H 414.799 0.6207 0.346775 0
M  V30 4503 H 417.401 1.93172 0.30082 0
M  V30 4504 H 416.105 3.89503 1.29287 0
M  V30 4505 H 415.636 2.88787 2.67144 0
M  V30 4506 H 417.651 3.03566 3.92508 0
M  V30 4507 N 416.824 -0.551391 1.4764 0
M  V30 4508 C 418.071 -1.3083 1.54563 0
M  V30 4509 C 418.399 -1.93359 0.210361 0
M  V30 4510 O 417.654 -1.78721 -0.797332 0
M  V30 4511 C 417.953 -2.43469 2.61644 0
M  V30 4512 C 417.619 -1.98732 4.04742 0
M  V30 4513 C 416.281 -1.86248 4.43695 0
M  V30 4514 C 418.633 -1.64659 4.94507 0
M  V30 4515 C 415.961 -1.37995 5.70241 0
M  V30 4516 C 418.313 -1.17875 6.21521 0
M  V30 4517 C 416.977 -1.03992 6.5935 0
M  V30 4518 H 416.247 -0.478741 0.565587 0
M  V30 4519 H 418.894 -0.617697 1.81264 0
M  V30 4520 H 417.199 -3.18109 2.28722 0
M  V30 4521 H 418.896 -3.01642 2.64222 0
M  V30 4522 H 415.486 -2.09393 3.73968 0
M  V30 4523 H 419.67 -1.73174 4.65107 0
M  V30 4524 H 414.926 -1.25915 5.98294 0
M  V30 4525 H 419.1 -0.905739 6.90485 0
M  V30 4526 H 416.727 -0.663794 7.57296 0
M  V30 4527 N 418.302 -1.35869 -0.798587 0
M  V30 4528 C 419.713 -1.26498 -1.37314 0
M  V30 4529 C 420.064 0.0991899 -1.95949 0
M  V30 4530 O 419.189 1.0004 -1.91888 0
M  V30 4531 C 419.784 -2.29054 -2.49639 0
M  V30 4532 C 418.343 -2.234 -3.02935 0
M  V30 4533 C 417.49 -2.14329 -1.75949 0
M  V30 4534 H 420.441 -1.46881 -0.600971 0
M  V30 4535 H 420.462 -1.92166 -3.28409 0
M  V30 4536 H 419.974 -3.2833 -2.06933 0
M  V30 4537 H 418.075 -1.27562 -3.50084 0
M  V30 4538 H 418.188 -3.15703 -3.60372 0
M  V30 4539 H 416.552 -1.60435 -1.9782 0
M  V30 4540 H 417.335 -3.15477 -1.35384 0
M  V30 4541 N 419.78 1.02168 -1.19998 0
M  V30 4542 C 421.057 1.72816 -0.916191 0
M  V30 4543 C 421.437 2.03081 0.576325 0
M  V30 4544 O 420.785 1.69122 1.53656 0
M  V30 4545 C 420.995 2.9997 -1.78378 0
M  V30 4546 C 422.343 3.73336 -2.02251 0
M  V30 4547 O 423.367 3.09914 -1.75589 0
M  V30 4548 O 422.226 4.87371 -2.47249 0
M  V30 4549 H 419.32 0.752924 -0.342103 0
M  V30 4550 H 421.866 1.08062 -1.30846 0
M  V30 4551 H 420.638 2.73888 -2.79466 0
M  V30 4552 H 420.261 3.72464 -1.39126 0
M  V30 4553 N 421.258 1.00505 1.21394 0
M  V30 4554 C 422.488 0.705584 1.94178 0
M  V30 4555 C 422.896 -0.735846 1.74304 0
M  V30 4556 O 422.239 -1.50954 1.04683 0
M  V30 4557 C 422.301 0.94689 3.46806 0
M  V30 4558 C 421.965 2.37517 3.90429 0
M  V30 4559 C 422.962 3.35539 3.97127 0
M  V30 4560 C 420.647 2.71284 4.22742 0
M  V30 4561 C 422.641 4.65395 4.3553 0
M  V30 4562 C 420.328 4.01356 4.60822 0
M  V30 4563 C 421.326 4.98223 4.67186 0
M  V30 4564 O 421.014 6.25969 5.04399 0
M  V30 4565 H 420.746 0.259216 0.624326 0
M  V30 4566 H 423.3 1.34592 1.55159 0
M  V30 4567 H 421.53 0.249386 3.85895 0
M  V30 4568 H 423.219 0.640804 4.0081 0
M  V30 4569 H 423.985 3.10786 3.7234 0
M  V30 4570 H 419.864 1.96581 4.16985 0
M  V30 4571 H 423.408 5.41002 4.40412 0
M  V30 4572 H 419.305 4.25893 4.85063 0
M  V30 4573 H 420.073 6.30085 5.22431 0
M  V30 4574 N 422.737 -1.36956 0.779787 0
M  V30 4575 C 424.014 -1.93697 0.272156 0
M  V30 4576 C 424.394 -1.71267 -1.23413 0
M  V30 4577 O 423.742 -1.06607 -2.02107 0
M  V30 4578 C 423.952 -3.42812 0.654291 0
M  V30 4579 C 425.3 -4.19921 0.628602 0
M  V30 4580 O 426.324 -3.51209 0.594172 0
M  V30 4581 O 425.183 -5.42465 0.662864 0
M  V30 4582 H 422.277 -0.824447 0.0649286 0
M  V30 4583 H 424.823 -1.46196 0.861682 0
M  V30 4584 H 423.595 -3.52754 1.69353 0
M  V30 4585 H 423.218 -3.97582 0.0381369 0
M  V30 4586 N 424.215 -0.530993 -1.48385 0
M  V30 4587 C 425.463 0.00273189 -2.021 0
M  V30 4588 C 425.784 1.34672 -1.41027 0
M  V30 4589 O 425.054 1.8724 -0.576012 0
M  V30 4590 H 423.634 0.00399774 -0.746989 0
M  V30 4591 H 426.296 -0.695054 -1.82085 0
M  V30 4592 H 425.392 0.11031 -3.11905 0
M  V30 4593 N 425.693 1.55336 -0.266172 0
M  V30 4594 C 427.104 1.85236 0.233315 0
M  V30 4595 C 427.455 1.18816 1.56132 0
M  V30 4596 O 426.58 0.473307 2.11161 0
M  V30 4597 C 427.175 3.36059 0.430113 0
M  V30 4598 C 425.734 3.66116 0.873842 0
M  V30 4599 C 424.881 2.77274 -0.0380016 0
M  V30 4600 H 427.832 1.51004 -0.488214 0
M  V30 4601 H 427.853 3.58681 1.26998 0
M  V30 4602 H 427.365 3.84373 -0.536588 0
M  V30 4603 H 425.466 3.23295 1.85233 0
M  V30 4604 H 425.579 4.73699 0.717358 0
M  V30 4605 H 423.943 2.50198 0.476759 0
M  V30 4606 H 424.726 3.284 -1.00042 0
M  V30 4607 N 427.171 -0.0066808 1.57599 0
M  V30 4608 C 428.119 -1.01851 2.09115 0
M  V30 4609 C 429.113 -1.36021 1.00969 0
M  V30 4610 O 430.319 -1.34663 1.19439 0
M  V30 4611 H 426.694 -0.346083 0.667631 0
M  V30 4612 H 428.665 -0.558394 2.93129 0
M  V30 4613 C 427.414 -2.30374 2.60429 0
M  V30 4614 H 426.737 -2.04947 3.43273 0
M  V30 4615 H 428.177 -2.99466 3.00161 0
M  V30 4616 C 426.636 -3.00893 1.51542 0
M  V30 4617 O 427.166 -3.91614 0.894484 0
M  V30 4618 N 425.372 -2.62603 1.2445 0
M  V30 4619 H 424.919 -1.88911 1.75129 0
M  V30 4620 H 424.877 -3.10101 0.518137 0
M  V30 4621 N 428.649 -1.55105 -0.279332 0
M  V30 4622 C 429.877 -1.7943 -1.03017 0
M  V30 4623 C 430.292 -0.564456 -1.80165 0
M  V30 4624 O 429.649 0.466326 -1.76442 0
M  V30 4625 C 429.7 -3.0155 -1.99374 0
M  V30 4626 O 429.421 -4.19784 -1.25352 0
M  V30 4627 C 430.922 -3.3843 -2.86321 0
M  V30 4628 H 428.142 -0.597882 -0.304594 0
M  V30 4629 H 430.686 -2.02105 -0.312035 0
M  V30 4630 H 428.841 -2.81019 -2.66659 0
M  V30 4631 H 429.255 -4.88781 -1.90246 0
M  V30 4632 H 430.729 -4.27066 -3.49741 0
M  V30 4633 H 431.206 -2.57549 -3.5576 0
M  V30 4634 H 431.812 -3.61197 -2.24536 0
M  V30 4635 N 430.127 0.543554 -1.4793 0
M  V30 4636 C 431.357 1.32324 -1.58663 0
M  V30 4637 C 431.765 1.8766 -0.240896 0
M  V30 4638 O 431.108 1.66411 0.778011 0
M  V30 4639 C 431.17 2.52094 -2.56299 0
M  V30 4640 C 430.834 2.17944 -4.01683 0
M  V30 4641 C 431.831 1.74422 -4.89768 0
M  V30 4642 C 429.516 2.28884 -4.47121 0
M  V30 4643 C 431.51 1.42287 -6.21316 0
M  V30 4644 C 429.197 1.96361 -5.78693 0
M  V30 4645 C 430.195 1.53132 -6.65612 0
M  V30 4646 O 429.883 1.21029 -7.94737 0
M  V30 4647 H 429.615 0.409174 -0.538101 0
M  V30 4648 H 432.169 0.663887 -1.94375 0
M  V30 4649 H 430.399 3.20965 -2.15681 0
M  V30 4650 H 432.088 3.14165 -2.57012 0
M  V30 4651 H 432.854 1.65452 -4.55907 0
M  V30 4652 H 428.733 2.61488 -3.79664 0
M  V30 4653 H 432.277 1.08472 -6.89115 0
M  V30 4654 H 428.174 2.04967 -6.12094 0
M  V30 4655 H 428.942 1.34543 -8.07366 0
M  V30 4656 N 431.605 1.3629 0.791371 0
M  V30 4657 C 432.515 1.32606 1.93527 0
M  V30 4658 C 433.531 0.228541 1.72493 0
M  V30 4659 O 434.707 0.460571 1.96063 0
M  V30 4660 C 431.772 1.11271 3.28359 0
M  V30 4661 C 430.833 2.3048 3.62185 0
M  V30 4662 C 430.066 2.10154 4.90583 0
M  V30 4663 O 430.289 1.07572 5.60165 0
M  V30 4664 O 429.223 2.97884 5.23019 0
M  V30 4665 H 433.049 2.28909 1.99585 0
M  V30 4666 H 430.634 1.16818 0.931344 0
M  V30 4667 H 432.516 1.01283 4.09047 0
M  V30 4668 H 431.191 0.180292 3.23198 0
M  V30 4669 H 430.098 2.46036 2.81811 0
M  V30 4670 H 431.431 3.22221 3.72068 0
M  V30 4671 N 433.083 -1.0153 1.20538 0
M  V30 4672 C 434.36 -1.72327 0.925343 0
M  V30 4673 C 434.74 -2.03383 -0.565547 0
M  V30 4674 O 434.088 -1.69934 -1.52757 0
M  V30 4675 C 434.298 -2.9902 1.79967 0
M  V30 4676 C 435.646 -3.72258 2.04228 0
M  V30 4677 O 436.67 -3.08979 1.77231 0
M  V30 4678 O 435.529 -4.86053 2.4983 0
M  V30 4679 H 432.623 -0.751099 0.346092 0
M  V30 4680 H 435.169 -1.07366 1.31417 0
M  V30 4681 H 433.941 -2.72402 2.80915 0
M  V30 4682 H 433.564 -3.71721 1.41099 0
M  V30 4683 N 434.561 -1.01147 -1.20859 0
M  V30 4684 C 435.524 -0.582224 -2.21682 0
M  V30 4685 C 436.524 0.344887 -1.57058 0
M  V30 4686 O 437.714 0.134281 -1.73682 0
M  V30 4687 C 434.846 0.150496 -3.40568 0
M  V30 4688 H 436.039 -1.47408 -2.61172 0
M  V30 4689 H 433.592 -0.800695 -1.34233 0
M  V30 4690 H 434.327 1.0575 -3.06574 0
M  V30 4691 H 434.112 -0.515444 -3.88697 0
M  V30 4692 H 435.602 0.438344 -4.15293 0
M  V30 4693 N 436.039 1.36541 -0.78704 0
M  V30 4694 C 437.287 1.98911 -0.357633 0
M  V30 4695 C 437.608 1.62778 1.07371 0
M  V30 4696 O 436.878 0.900612 1.73971 0
M  V30 4697 H 435.458 0.735734 -0.129246 0
M  V30 4698 H 438.12 1.66776 -1.00855 0
M  V30 4699 H 437.216 3.08874 -0.447549 0
M  V30 4700 N 437.518 0.538854 1.48102 0
M  V30 4701 C 438.466 -0.232325 2.31437 0
M  V30 4702 C 439.46 -0.927004 1.41785 0
M  V30 4703 O 440.666 -0.850378 1.58646 0
M  V30 4704 H 437.041 -0.0937916 0.746128 0
M  V30 4705 H 439.012 0.489986 2.9435 0
M  V30 4706 C 437.761 -1.26074 3.24038 0
M  V30 4707 H 437.084 -0.735609 3.92974 0
M  V30 4708 H 438.524 -1.77157 3.85216 0
M  V30 4709 C 436.983 -2.29902 2.46265 0
M  V30 4710 O 437.513 -3.36502 2.19384 0
M  V30 4711 N 435.719 -2.03348 2.07601 0
M  V30 4712 H 435.266 -1.16675 2.29662 0
M  V30 4713 H 435.224 -2.73038 1.55877 0
M  V30 4714 N 438.996 -1.55193 0.274407 0
M  V30 4715 C 440.226 -2.03692 -0.345442 0
M  V30 4716 C 440.634 -1.15224 -1.50067 0
M  V30 4717 O 439.977 -0.164749 -1.8296 0
M  V30 4718 C 440.039 -3.48325 -0.88939 0
M  V30 4719 C 439.703 -4.56794 0.137115 0
M  V30 4720 C 440.7 -5.11028 0.956378 0
M  V30 4721 C 438.385 -5.01568 0.27115 0
M  V30 4722 C 440.379 -6.08552 1.89587 0
M  V30 4723 C 438.066 -5.98918 1.21412 0
M  V30 4724 C 439.064 -6.52291 2.02498 0
M  V30 4725 O 438.752 -7.47738 2.952 0
M  V30 4726 H 438.484 -0.670893 -0.0829332 0
M  V30 4727 H 441.038 -2.01387 0.404056 0
M  V30 4728 H 439.268 -3.47867 -1.68895 0
M  V30 4729 H 440.957 -3.80167 -1.42225 0
M  V30 4730 H 441.723 -4.7725 0.863559 0
M  V30 4731 H 437.602 -4.5967 -0.349987 0
M  V30 4732 H 441.146 -6.50137 2.52918 0
M  V30 4733 H 437.043 -6.32114 1.30776 0
M  V30 4734 H 437.811 -7.65451 2.89874 0
M  V30 4735 N 440.474 -0.00167713 -1.576 0
M  V30 4736 C 441.723 0.682021 -1.89819 0
M  V30 4737 C 442.036 1.74844 -0.876871 0
M  V30 4738 O 443.242 2.48688 -1.08934 0
M  V30 4739 C 441.698 1.26425 -3.36964 0
M  V30 4740 C 441.306 0.232568 -4.47396 0
M  V30 4741 C 443.05 1.92604 -3.78291 0
M  V30 4742 C 440.957 0.824882 -5.85619 0
M  V30 4743 H 439.887 0.258499 -0.708304 0
M  V30 4744 H 442.538 -0.0624957 -1.83394 0
M  V30 4745 H 440.92 2.05949 -3.38232 0
M  V30 4746 H 442.094 -0.5382 -4.57646 0
M  V30 4747 H 440.409 -0.32888 -4.15099 0
M  V30 4748 H 443.006 2.37827 -4.78897 0
M  V30 4749 H 443.349 2.75732 -3.11894 0
M  V30 4750 H 443.882 1.19812 -3.79328 0
M  V30 4751 H 440.621 0.0323542 -6.55492 0
M  V30 4752 H 440.141 1.56477 -5.79029 0
M  V30 4753 H 441.82 1.32301 -6.33329 0
M  V30 4754 N 441.952 1.55251 0.271103 0
M  V30 4755 C 442.899 1.88261 1.33516 0
M  V30 4756 C 443.869 0.734296 1.48988 0
M  V30 4757 O 445.054 0.985741 1.63364 0
M  V30 4758 C 442.194 2.16168 2.69008 0
M  V30 4759 C 441.307 3.43678 2.61743 0
M  V30 4760 C 440.442 3.61276 3.89427 0
M  V30 4761 C 439.481 4.82472 3.7668 0
M  V30 4762 N 438.618 4.96717 4.96202 0
M  V30 4763 H 443.458 2.79015 1.04665 0
M  V30 4764 H 440.995 1.38137 0.505618 0
M  V30 4765 H 442.953 2.30349 3.47844 0
M  V30 4766 H 441.583 1.28646 2.96057 0
M  V30 4767 H 440.635 3.37959 1.74607 0
M  V30 4768 H 441.947 4.3265 2.48224 0
M  V30 4769 H 441.101 3.75284 4.76704 0
M  V30 4770 H 439.84 2.70492 4.05814 0
M  V30 4771 H 438.845 4.68465 2.87786 0
M  V30 4772 H 440.07 5.74692 3.61809 0
M  V30 4773 H 438.016 4.08865 5.12997 0
M  V30 4774 H 437.933 5.79738 4.85222 0
M  V30 4775 H 439.201 5.15113 5.85046 0
M  V30 4776 N 443.43 -0.535701 1.48216 0
M  V30 4777 C 444.676 -1.29375 1.56173 0
M  V30 4778 C 445.009 -1.92804 0.232429 0
M  V30 4779 O 444.284 -1.78992 -0.761048 0
M  V30 4780 C 444.567 -2.38747 2.69577 0
M  V30 4781 C 444.42 -1.80046 4.12193 0
M  V30 4782 C 445.739 -3.40551 2.78771 0
M  V30 4783 H 442.858 -0.469027 0.568491 0
M  V30 4784 H 445.5 -0.597358 1.80365 0
M  V30 4785 H 443.65 -2.98147 2.4908 0
M  V30 4786 H 445.322 -1.24742 4.44114 0
M  V30 4787 H 443.565 -1.10609 4.19462 0
M  V30 4788 H 444.236 -2.59212 4.87353 0
M  V30 4789 H 446.712 -2.91099 2.97322 0
M  V30 4790 H 445.588 -4.1448 3.59857 0
M  V30 4791 H 445.849 -4.00746 1.86696 0
M  V30 4792 N 444.908 -1.36708 -0.784132 0
M  V30 4793 C 445.84 -1.27333 -1.90575 0
M  V30 4794 C 446.853 -0.191706 -1.61667 0
M  V30 4795 O 448.042 -0.446854 -1.72816 0
M  V30 4796 C 445.142 -0.943177 -3.25511 0
M  V30 4797 C 444.315 -2.12776 -3.82158 0
M  V30 4798 C 443.374 -1.76983 -4.95544 0
M  V30 4799 O 442.4 -2.49134 -5.11782 0
M  V30 4800 N 443.602 -0.706624 -5.76183 0
M  V30 4801 H 446.367 -2.23974 -1.99138 0
M  V30 4802 H 443.928 -1.30171 -0.962656 0
M  V30 4803 H 445.92 -0.684799 -3.98864 0
M  V30 4804 H 444.49 -0.0657333 -3.12531 0
M  V30 4805 H 443.71 -2.54863 -3.0073 0
M  V30 4806 H 444.998 -2.91904 -4.16737 0
M  V30 4807 H 444.396 -0.107643 -5.65598 0
M  V30 4808 H 442.953 -0.50808 -6.49817 0
M  V30 4809 N 446.386 1.0089 -1.21074 0
M  V30 4810 C 447.633 1.74607 -1.0256 0
M  V30 4811 C 447.961 1.89426 0.44136 0
M  V30 4812 O 447.216 1.42266 1.34384 0
M  V30 4813 C 447.515 3.16335 -1.66334 0
M  V30 4814 C 447.181 3.21474 -3.16173 0
M  V30 4815 C 445.843 3.22583 -3.57062 0
M  V30 4816 C 448.195 3.19025 -4.12156 0
M  V30 4817 C 445.523 3.18925 -4.92446 0
M  V30 4818 C 447.875 3.16909 -5.47496 0
M  V30 4819 C 446.539 3.16326 -5.87787 0
M  V30 4820 H 445.809 0.638933 -0.375294 0
M  V30 4821 H 448.456 1.18274 -1.50611 0
M  V30 4822 H 446.761 3.75876 -1.10566 0
M  V30 4823 H 448.458 3.72083 -1.49516 0
M  V30 4824 H 445.048 3.2135 -2.83605 0
M  V30 4825 H 449.232 3.17332 -3.81595 0
M  V30 4826 H 444.488 3.16809 -5.22917 0
M  V30 4827 H 448.662 3.13968 -6.21609 0
M  V30 4828 H 446.289 3.13246 -6.92662 0
M  V30 4829 N 447.864 1.01787 1.20321 0
M  V30 4830 C 448.794 0.609625 2.25401 0
M  V30 4831 C 449.775 -0.375951 1.65893 0
M  V30 4832 O 450.96 -0.261101 1.92437 0
M  V30 4833 C 448.09 -0.0515995 3.47262 0
M  V30 4834 C 447.044 0.855095 4.19371 0
M  V30 4835 C 446.37 0.0595757 5.34667 0
M  V30 4836 C 447.67 2.16374 4.75373 0
M  V30 4837 H 449.364 1.48803 2.59804 0
M  V30 4838 H 446.91 0.716934 1.24884 0
M  V30 4839 H 448.863 -0.348764 4.19954 0
M  V30 4840 H 447.587 -0.964726 3.12027 0
M  V30 4841 H 446.246 1.13628 3.48546 0
M  V30 4842 H 445.894 -0.85524 4.95676 0
M  V30 4843 H 445.594 0.663406 5.83843 0
M  V30 4844 H 447.118 -0.231105 6.10162 0
M  V30 4845 H 448.532 1.92885 5.39878 0
M  V30 4846 H 446.929 2.71853 5.34991 0
M  V30 4847 H 447.999 2.82589 3.94045 0
M  V30 4848 N 449.342 -1.36122 0.79427 0
M  V30 4849 C 450.252 -2.33769 0.197296 0
M  V30 4850 C 451.268 -1.61276 -0.653153 0
M  V30 4851 O 452.444 -1.9323 -0.5678 0
M  V30 4852 C 449.509 -3.40474 -0.654098 0
M  V30 4853 C 448.57 -4.28759 0.215411 0
M  V30 4854 C 447.803 -5.30368 -0.595443 0
M  V30 4855 O 448.026 -5.40211 -1.83107 0
M  V30 4856 O 446.96 -6.019 0.00721351 0
M  V30 4857 H 450.786 -2.86597 1.00478 0
M  V30 4858 H 448.371 -1.38676 0.555818 0
M  V30 4859 H 450.253 -4.05703 -1.13944 0
M  V30 4860 H 448.928 -2.89937 -1.43938 0
M  V30 4861 H 447.835 -3.66554 0.747615 0
M  V30 4862 H 449.168 -4.82661 0.964332 0
M  V30 4863 N 450.82 -0.546701 -1.47814 0
M  V30 4864 C 451.75 0.195317 -2.32682 0
M  V30 4865 C 452.731 0.918981 -1.43139 0
M  V30 4866 O 453.916 0.901501 -1.72008 0
M  V30 4867 C 451.046 1.23237 -3.247 0
M  V30 4868 C 450 0.625818 -4.234 0
M  V30 4869 C 449.326 1.76674 -5.04669 0
M  V30 4870 C 450.626 -0.413515 -5.2066 0
M  V30 4871 H 452.32 -0.513184 -2.94969 0
M  V30 4872 H 449.866 -0.248241 -1.41844 0
M  V30 4873 H 451.819 1.75955 -3.82907 0
M  V30 4874 H 450.543 1.97067 -2.60446 0
M  V30 4875 H 449.202 0.120023 -3.66403 0
M  V30 4876 H 448.85 2.49383 -4.36826 0
M  V30 4877 H 448.55 1.36673 -5.71484 0
M  V30 4878 H 450.074 2.29738 -5.65732 0
M  V30 4879 H 451.488 0.0272042 -5.73294 0
M  V30 4880 H 449.885 -0.731825 -5.95621 0
M  V30 4881 H 450.955 -1.31325 -4.66778 0
M  V30 4882 N 452.299 1.55045 -0.282633 0
M  V30 4883 C 453.247 2.24254 0.617478 0
M  V30 4884 C 454.241 1.24215 1.15183 0
M  V30 4885 O 455.447 1.42123 1.10459 0
M  V30 4886 H 451.822 0.719801 0.217693 0
M  V30 4887 H 453.793 2.98398 0.0110076 0
M  V30 4888 C 452.542 2.98281 1.78672 0
M  V30 4889 H 451.865 3.75053 1.38475 0
M  V30 4890 H 453.305 3.50017 2.393 0
M  V30 4891 C 451.764 2.04184 2.67975 0
M  V30 4892 O 452.294 1.59792 3.6855 0
M  V30 4893 N 450.5 1.70526 2.35307 0
M  V30 4894 H 450.047 2.06821 1.53567 0
M  V30 4895 H 450.005 1.07839 2.95327 0
M  V30 4896 N 453.777 0.010035 1.57597 0
M  V30 4897 C 454.71 -1.01234 2.04516 0
M  V30 4898 C 455.688 -1.32886 0.937024 0
M  V30 4899 O 456.872 -1.44879 1.20592 0
M  V30 4900 C 453.999 -2.33738 2.45121 0
M  V30 4901 C 453.045 -2.17679 3.66767 0
M  V30 4902 S 453.878 -1.49343 5.14254 0
M  V30 4903 C 455.034 -2.83256 5.58137 0
M  V30 4904 H 455.267 -0.612866 2.90914 0
M  V30 4905 H 452.8 -0.201124 1.53084 0
M  V30 4906 H 454.758 -3.09922 2.69182 0
M  V30 4907 H 453.419 -2.70823 1.59103 0
M  V30 4908 H 452.612 -3.1559 3.92962 0
M  V30 4909 H 452.214 -1.4964 3.42759 0
M  V30 4910 H 454.506 -3.79538 5.6121 0
M  V30 4911 H 455.449 -2.61749 6.57946 0
M  V30 4912 H 455.857 -2.87627 4.85727 0
M  V30 4913 N 455.255 -1.55392 -0.262866 0
M  V30 4914 C 456.671 -1.47459 -0.610582 0
M  V30 4915 C 456.871 -0.697031 -1.8906 0
M  V30 4916 O 455.927 -0.219952 -2.5154 0
M  V30 4917 C 457.24 -2.91751 -0.728131 0
M  V30 4918 C 458.788 -3.02027 -0.821517 0
M  V30 4919 C 459.263 -4.47594 -0.97076 0
M  V30 4920 N 460.754 -4.51465 -1.03603 0
M  V30 4921 C 461.489 -5.61326 -1.17049 0
M  V30 4922 N 460.985 -6.81032 -1.2715 0
M  V30 4923 N 462.778 -5.49089 -1.20239 0
M  V30 4924 H 454.929 -2.04395 0.577632 0
M  V30 4925 H 457.192 -0.927287 0.197086 0
M  V30 4926 H 456.898 -3.51413 0.142132 0
M  V30 4927 H 456.772 -3.4134 -1.6052 0
M  V30 4928 H 459.159 -2.42456 -1.68224 0
M  V30 4929 H 459.24 -2.55674 0.0803688 0
M  V30 4930 H 458.884 -5.07771 -0.114655 0
M  V30 4931 H 458.814 -4.91613 -1.88745 0
M  V30 4932 H 461.305 -3.6524 -0.96996 0
M  V30 4933 H 461.618 -7.60511 -1.37271 0
M  V30 4934 H 459.963 -6.83824 -1.24136 0
M  V30 4935 H 463.154 -4.54507 -1.11985 0
M  V30 4936 H 463.327 -6.34749 -1.30373 0
M  V30 4937 N 456.733 0.527833 -1.48498 0
M  V30 4938 C 458.149 0.856571 -1.34666 0
M  V30 4939 C 458.349 1.98271 -0.35931 0
M  V30 4940 O 457.405 2.51551 0.218703 0
M  V30 4941 C 458.718 1.22207 -2.74747 0
M  V30 4942 C 460.266 1.33183 -2.83251 0
M  V30 4943 C 460.741 1.73075 -4.24039 0
M  V30 4944 N 462.232 1.80174 -4.26722 0
M  V30 4945 C 462.967 2.1243 -5.32598 0
M  V30 4946 N 462.463 2.43096 -6.4875 0
M  V30 4947 N 464.256 2.13454 -5.19994 0
M  V30 4948 H 456.407 -0.215174 -2.11307 0
M  V30 4949 H 458.67 -0.0336281 -0.947403 0
M  V30 4950 H 458.376 0.468195 -3.4857 0
M  V30 4951 H 458.25 2.17173 -3.08409 0
M  V30 4952 H 460.637 2.07647 -2.09683 0
M  V30 4953 H 460.718 0.363333 -2.53206 0
M  V30 4954 H 460.362 0.991712 -4.98124 0
M  V30 4955 H 460.292 2.70979 -4.51529 0
M  V30 4956 H 462.783 1.58744 -3.42942 0
M  V30 4957 H 463.096 2.6682 -7.25277 0
M  V30 4958 H 461.441 2.40611 -6.52021 0
M  V30 4959 H 464.632 1.88956 -4.28268 0
M  V30 4960 H 464.805 2.38261 -6.02608 0
M  V30 4961 N 458.211 1.37122 0.776871 0
M  V30 4962 C 459.488 1.22586 1.52421 0
M  V30 4963 C 459.868 -0.182726 2.10308 0
M  V30 4964 O 459.216 -1.18979 1.9508 0
M  V30 4965 C 459.426 2.31782 2.60918 0
M  V30 4966 C 460.774 2.69071 3.2846 0
M  V30 4967 O 461.798 2.3092 2.71209 0
M  V30 4968 O 460.657 3.3478 4.31954 0
M  V30 4969 H 457.751 0.478045 0.674835 0
M  V30 4970 H 460.297 1.48888 0.814275 0
M  V30 4971 H 459.069 3.26131 2.16227 0
M  V30 4972 H 458.692 2.06916 3.39517 0
M  V30 4973 N 459.689 -1.00246 1.21608 0
M  V30 4974 C 460.935 -1.74319 1.03638 0
M  V30 4975 C 461.268 -1.89408 -0.428749 0
M  V30 4976 O 460.543 -1.43026 -1.3181 0
M  V30 4977 C 460.826 -3.15431 1.73711 0
M  V30 4978 C 460.679 -3.08049 3.27759 0
M  V30 4979 C 461.998 -4.14407 1.48173 0
M  V30 4980 H 459.117 -0.632741 0.377899 0
M  V30 4981 H 461.759 -1.16853 1.49818 0
M  V30 4982 H 459.909 -3.64493 1.34452 0
M  V30 4983 H 461.581 -2.66681 3.76403 0
M  V30 4984 H 459.824 -2.45088 3.57931 0
M  V30 4985 H 460.495 -4.07862 3.71958 0
M  V30 4986 H 462.971 -3.74061 1.82258 0
M  V30 4987 H 461.847 -5.11279 1.99713 0
M  V30 4988 H 462.108 -4.40174 0.412273 0
M  V30 4989 N 461.167 -1.02423 -1.1978 0
M  V30 4990 C 462.114 -0.601023 -2.22837 0
M  V30 4991 C 463.084 0.382801 -1.61629 0
M  V30 4992 O 464.269 0.280514 -1.88727 0
M  V30 4993 C 461.409 0.0467755 -3.45068 0
M  V30 4994 C 460.522 -0.98253 -4.20678 0
M  V30 4995 C 459.657 -0.304982 -5.30324 0
M  V30 4996 C 458.696 -1.32052 -5.97686 0
M  V30 4997 N 457.833 -0.669105 -6.98904 0
M  V30 4998 H 462.673 -1.48444 -2.58396 0
M  V30 4999 H 460.21 -0.742936 -1.2696 0
M  V30 5000 H 462.168 0.439556 -4.14878 0
M  V30 5001 H 460.798 0.893796 -3.10179 0
M  V30 5002 H 459.85 -1.49341 -3.49859 0
M  V30 5003 H 461.162 -1.75455 -4.66923 0
M  V30 5004 H 460.316 0.142893 -6.06532 0
M  V30 5005 H 459.055 0.499283 -4.85138 0
M  V30 5006 H 458.06 -1.7787 -5.20233 0
M  V30 5007 H 459.285 -2.1262 -6.44957 0
M  V30 5008 H 457.231 0.115152 -6.55899 0
M  V30 5009 H 457.148 -1.37908 -7.43315 0
M  V30 5010 H 458.416 -0.245076 -7.79115 0
M  V30 5011 N 462.645 1.35699 -0.801477 0
M  V30 5012 C 463.555 2.33661 -0.209691 0
M  V30 5013 C 464.571 1.6162 0.644591 0
M  V30 5014 O 465.747 1.93529 0.557545 0
M  V30 5015 C 462.812 3.40816 0.636033 0
M  V30 5016 C 461.873 4.28639 -0.238147 0
M  V30 5017 C 461.106 5.30676 0.567307 0
M  V30 5018 O 461.329 5.41174 1.8024 0
M  V30 5019 O 460.263 6.01887 -0.0391336 0
M  V30 5020 H 464.089 2.8606 -1.01996 0
M  V30 5021 H 461.674 1.38379 -0.563164 0
M  V30 5022 H 463.556 4.06301 1.11791 0
M  V30 5023 H 462.231 2.90696 1.42399 0
M  V30 5024 H 461.138 3.66152 -0.767044 0
M  V30 5025 H 462.471 4.82143 -0.989915 0
M  V30 5026 N 464.123 0.554532 1.47522 0
M  V30 5027 C 465.372 0.0273458 2.01681 0
M  V30 5028 C 465.685 -1.32962 1.43459 0
M  V30 5029 O 466.891 -1.94657 1.89265 0
M  V30 5030 C 465.347 -0.00159057 3.599 0
M  V30 5031 C 464.955 1.35197 4.27113 0
M  V30 5032 C 466.699 -0.476311 4.21819 0
M  V30 5033 C 464.606 1.28229 5.77331 0
M  V30 5034 H 463.536 0.00645269 0.753972 0
M  V30 5035 H 466.187 0.701985 1.69542 0
M  V30 5036 H 464.569 -0.741821 3.8899 0
M  V30 5037 H 465.743 2.1097 4.09668 0
M  V30 5038 H 464.058 1.76441 3.77171 0
M  V30 5039 H 466.655 -0.5468 5.31897 0
M  V30 5040 H 466.998 -1.4877 3.8881 0
M  V30 5041 H 467.531 0.20898 3.97251 0
M  V30 5042 H 464.27 2.26959 6.14955 0
M  V30 5043 H 463.79 0.566314 5.97121 0
M  V30 5044 H 465.469 0.983226 6.39485 0
M  V30 5045 N 465.601 -1.54893 0.290851 0
M  V30 5046 C 466.831 -2.04047 -0.323818 0
M  V30 5047 C 467.239 -1.16809 -1.48837 0
M  V30 5048 O 466.582 -0.184145 -1.82775 0
M  V30 5049 C 466.644 -3.49248 -0.852395 0
M  V30 5050 C 466.308 -4.56623 0.185557 0
M  V30 5051 C 467.305 -5.09985 1.01053 0
M  V30 5052 C 464.99 -5.01252 0.324332 0
M  V30 5053 C 466.984 -6.06507 1.96031 0
M  V30 5054 C 464.671 -5.97596 1.27757 0
M  V30 5055 C 465.669 -6.50107 2.09405 0
M  V30 5056 O 465.357 -7.44565 3.03114 0
M  V30 5057 H 465.089 -0.671735 -0.0758129 0
M  V30 5058 H 467.643 -2.00947 0.425393 0
M  V30 5059 H 465.873 -3.49639 -1.65195 0
M  V30 5060 H 467.562 -3.81654 -1.38185 0
M  V30 5061 H 468.328 -4.76307 0.914129 0
M  V30 5062 H 464.207 -4.60015 -0.301213 0
M  V30 5063 H 467.751 -6.47418 2.598 0
M  V30 5064 H 463.648 -6.30691 1.37473 0
M  V30 5065 H 464.416 -7.62334 2.97976 0
M  V30 5066 N 467.08 -0.0183926 -1.57589 0
M  V30 5067 C 468.305 0.676634 -1.96052 0
M  V30 5068 C 468.73 1.6548 -0.894307 0
M  V30 5069 O 468.088 1.80712 0.145849 0
M  V30 5070 C 468.136 1.36872 -3.33614 0
M  V30 5071 O 467.24 2.48372 -3.29219 0
M  V30 5072 H 466.581 0.1786 -0.63953 0
M  V30 5073 H 469.111 -0.077056 -2.04455 0
M  V30 5074 H 469.121 1.72797 -3.69601 0
M  V30 5075 H 467.796 0.651636 -4.10763 0
M  V30 5076 H 466.373 2.14639 -3.04934 0
M  V30 5077 N 468.558 1.5553 0.254621 0
M  V30 5078 C 469.508 1.86057 1.31783 0
M  V30 5079 C 470.492 0.720827 1.4385 0
M  V30 5080 O 471.684 0.982586 1.47222 0
M  V30 5081 C 468.813 2.15203 2.67475 0
M  V30 5082 C 467.899 3.35484 2.59444 0
M  V30 5083 N 468.29 4.54945 2.2104 0
M  V30 5084 C 466.588 3.38441 2.90472 0
M  V30 5085 C 467.289 5.3707 2.23453 0
M  V30 5086 N 466.265 4.75936 2.62652 0
M  V30 5087 H 470.067 2.75953 1.01129 0
M  V30 5088 H 467.581 1.55653 0.463255 0
M  V30 5089 H 469.578 2.35235 3.44195 0
M  V30 5090 H 468.238 1.26601 2.99002 0
M  V30 5091 H 469.249 4.8071 1.92712 0
M  V30 5092 H 465.926 2.60087 3.2659 0
M  V30 5093 H 467.316 6.42626 1.96166 0
M  V30 5094 N 470.036 -0.519951 1.48776 0
M  V30 5095 C 470.969 -1.64053 1.58625 0
M  V30 5096 C 471.947 -1.5664 0.43618 0
M  V30 5097 O 473.131 -1.76969 0.649159 0
M  V30 5098 C 470.258 -3.02497 1.52359 0
M  V30 5099 C 469.304 -3.28235 2.72331 0
M  V30 5100 S 470.137 -3.13414 4.34203 0
M  V30 5101 C 471.293 -4.54287 4.30551 0
M  V30 5102 H 471.526 -1.5545 2.53422 0
M  V30 5103 H 469.059 -0.703681 1.37433 0
M  V30 5104 H 471.017 -3.82336 1.4943 0
M  V30 5105 H 469.678 -3.08531 0.588824 0
M  V30 5106 H 468.871 -4.29256 2.64113 0
M  V30 5107 H 468.473 -2.56085 2.72574 0
M  V30 5108 H 470.765 -5.46006 4.01103 0
M  V30 5109 H 471.708 -4.67558 5.31785 0
M  V30 5110 H 472.116 -4.34079 3.60881 0
M  V30 5111 N 471.514 -1.37532 -0.769588 0
M  V30 5112 C 472.742 -1.36059 -1.55871 0
M  V30 5113 C 473.157 0.053544 -1.88724 0
M  V30 5114 O 472.514 1.01591 -1.5161 0
M  V30 5115 C 472.565 -2.20107 -2.86767 0
M  V30 5116 O 472.286 -3.56009 -2.55321 0
M  V30 5117 C 473.787 -2.26636 -3.80987 0
M  V30 5118 H 471.007 -0.465967 -0.482821 0
M  V30 5119 H 473.551 -1.80901 -0.953686 0
M  V30 5120 H 471.706 -1.78768 -3.43687 0
M  V30 5121 H 472.12 -4.0009 -3.39158 0
M  V30 5122 H 473.594 -2.89763 -4.69831 0
M  V30 5123 H 474.071 -1.2754 -4.20274 0
M  V30 5124 H 474.677 -2.68296 -3.29996 0
M  V30 5125 N 472.992 0.995999 -1.22138 0
M  V30 5126 C 474.232 1.75032 -1.05561 0
M  V30 5127 C 474.596 1.87729 0.402698 0
M  V30 5128 O 475.797 2.59813 0.689234 0
M  V30 5129 C 474.068 3.11973 -1.74379 0
M  V30 5130 S 475.627 4.03182 -1.73175 0
M  V30 5131 H 472.445 0.602137 -0.37809 0
M  V30 5132 H 475.047 1.19107 -1.55028 0
M  V30 5133 H 473.751 3.00371 -2.79652 0
M  V30 5134 H 473.282 3.7297 -1.25128 0
M  V30 5135 H 475.297 4.90043 -0.77923 0
M  V30 5136 N 474.47 1.03057 1.19235 0
M  V30 5137 C 475.433 0.617418 2.20727 0
M  V30 5138 C 476.433 -0.319856 1.57587 0
M  V30 5139 O 477.623 -0.106633 1.73873 0
M  V30 5140 C 474.755 -0.096296 3.40764 0
M  V30 5141 H 475.948 1.51544 2.58794 0
M  V30 5142 H 473.501 0.821949 1.32942 0
M  V30 5143 H 474.236 -1.00859 3.08217 0
M  V30 5144 H 474.021 0.577217 3.87828 0
M  V30 5145 H 475.511 -0.372219 4.15938 0
M  V30 5146 N 475.948 -1.35272 0.808662 0
M  V30 5147 C 477.176 -2.02946 0.402537 0
M  V30 5148 C 477.591 -1.60937 -0.987147 0
M  V30 5149 O 476.948 -0.807917 -1.63643 0
M  V30 5150 C 476.999 -3.58317 0.47868 0
M  V30 5151 O 476.72 -3.98799 1.81358 0
M  V30 5152 C 478.221 -4.43251 0.0656281 0
M  V30 5153 H 475.441 -0.650831 0.163279 0
M  V30 5154 H 477.985 -1.72849 1.09286 0
M  V30 5155 H 476.14 -3.87055 -0.163415 0
M  V30 5156 H 476.554 -4.93451 1.77781 0
M  V30 5157 H 478.028 -5.51738 0.170017 0
M  V30 5158 H 478.505 -4.27913 -0.989278 0
M  V30 5159 H 479.111 -4.19813 0.68096 0
M  V30 5160 N 477.426 -0.562348 -1.47226 0
M  V30 5161 C 478.703 0.0256985 -1.95583 0
M  V30 5162 C 479.083 1.48032 -1.50498 0
M  V30 5163 O 478.431 2.15973 -0.746181 0
M  V30 5164 C 478.641 -0.125129 -3.48776 0
M  V30 5165 C 479.989 0.0175728 -4.24596 0
M  V30 5166 O 481.013 -0.0529341 -3.56161 0
M  V30 5167 O 479.872 0.170145 -5.46235 0
M  V30 5168 H 476.966 0.0612565 -0.824728 0
M  V30 5169 H 479.512 -0.629233 -1.57603 0
M  V30 5170 H 478.284 -1.13715 -3.74412 0
M  V30 5171 H 477.907 0.567178 -3.93534 0
M  V30 5172 N 478.904 1.54736 -0.299062 0
M  V30 5173 C 480.132 2.04512 0.313447 0
M  V30 5174 C 480.547 1.17643 1.47667 0
M  V30 5175 O 479.904 0.20164 1.81383 0
M  V30 5176 C 479.955 3.53171 0.771542 0
M  V30 5177 O 479.676 4.36736 -0.345379 0
M  V30 5178 C 481.177 4.18936 1.4494 0
M  V30 5179 H 478.397 0.667507 0.0683784 0
M  V30 5180 H 480.941 1.99752 -0.438129 0
M  V30 5181 H 479.096 3.58298 1.47314 0
M  V30 5182 H 479.51 5.24499 0.0109219 0
M  V30 5183 H 480.984 5.24482 1.72111 0
M  V30 5184 H 481.461 3.68554 2.38883 0
M  V30 5185 H 482.067 4.17879 0.791028 0
M  V30 5186 N 480.382 0.0267497 1.57577 0
M  V30 5187 C 481.314 -0.984594 2.06974 0
M  V30 5188 C 482.327 -1.29032 0.992705 0
M  V30 5189 O 483.516 -1.25539 1.26895 0
M  V30 5190 C 480.616 -2.31262 2.47732 0
M  V30 5191 C 479.789 -2.1924 3.78487 0
M  V30 5192 C 478.848 -3.34956 4.05821 0
M  V30 5193 O 477.874 -3.11948 4.76106 0
M  V30 5194 N 479.076 -4.58672 3.55809 0
M  V30 5195 H 481.841 -0.563143 2.94362 0
M  V30 5196 H 479.402 -0.160061 1.61107 0
M  V30 5197 H 481.394 -3.07496 2.63112 0
M  V30 5198 H 479.964 -2.65056 1.65723 0
M  V30 5199 H 479.184 -1.27747 3.72927 0
M  V30 5200 H 480.472 -2.08409 4.64158 0
M  V30 5201 H 479.87 -4.8026 2.98942 0
M  V30 5202 H 478.427 -5.32083 3.76472 0
M  V30 5203 N 481.861 -1.55662 -0.24637 0
M  V30 5204 C 482.809 -1.91186 -1.3248 0
M  V30 5205 C 483.803 -0.790996 -1.49799 0
M  V30 5206 O 485.009 -0.975617 -1.51267 0
M  V30 5207 H 481.384 -0.607207 -0.443626 0
M  V30 5208 H 483.355 -2.81221 -0.997853 0
M  V30 5209 C 482.104 -2.22349 -2.67313 0
M  V30 5210 H 481.427 -3.08097 -2.54786 0
M  V30 5211 H 482.867 -2.51107 -3.41645 0
M  V30 5212 C 481.326 -1.04001 -3.20446 0
M  V30 5213 O 481.856 -0.28828 -4.00664 0
M  V30 5214 N 480.062 -0.830494 -2.7848 0
M  V30 5215 H 479.609 -1.4435 -2.13356 0
M  V30 5216 H 479.567 -0.0403258 -3.14374 0
M  V30 5217 N 483.339 0.512053 -1.4905 0
M  V30 5218 C 484.585 1.26874 -1.58212 0
M  V30 5219 C 484.918 1.9241 -0.263073 0
M  V30 5220 O 484.193 1.80181 0.732476 0
M  V30 5221 C 484.476 2.34428 -2.73341 0
M  V30 5222 C 484.329 1.73466 -4.15006 0
M  V30 5223 C 485.648 3.36073 -2.84154 0
M  V30 5224 H 482.767 0.459924 -0.575881 0
M  V30 5225 H 485.409 0.568587 -1.81293 0
M  V30 5226 H 483.559 2.94146 -2.53792 0
M  V30 5227 H 485.231 1.17661 -4.46042 0
M  V30 5228 H 483.474 1.03921 -4.21168 0
M  V30 5229 H 484.145 2.51426 -4.91415 0
M  V30 5230 H 486.621 2.86332 -3.01916 0
M  V30 5231 H 485.497 4.08703 -3.66406 0
M  V30 5232 H 485.758 3.97725 -1.93048 0
M  V30 5233 N 484.817 1.37938 0.762283 0
M  V30 5234 C 485.764 1.34467 1.87583 0
M  V30 5235 C 486.734 0.208633 1.64785 0
M  V30 5236 O 487.919 0.399494 1.86571 0
M  V30 5237 C 485.059 1.16692 3.24772 0
M  V30 5238 C 484.172 2.39608 3.59461 0
M  V30 5239 C 483.307 2.14631 4.85908 0
M  V30 5240 C 482.346 3.33364 5.13357 0
M  V30 5241 N 481.483 3.07877 6.30996 0
M  V30 5242 H 486.323 2.29669 1.89885 0
M  V30 5243 H 483.86 1.14116 0.928219 0
M  V30 5244 H 485.818 1.04405 4.03925 0
M  V30 5245 H 484.448 0.251333 3.2182 0
M  V30 5246 H 483.5 2.626 2.75219 0
M  V30 5247 H 484.812 3.28128 3.75678 0
M  V30 5248 H 483.966 1.99429 5.72986 0
M  V30 5249 H 482.705 1.23463 4.71814 0
M  V30 5250 H 481.71 3.49094 4.24751 0
M  V30 5251 H 482.935 4.25395 5.29354 0
M  V30 5252 H 480.881 2.19348 6.18241 0
M  V30 5253 H 480.798 3.89944 6.47673 0
M  V30 5254 H 482.066 2.96313 7.20985 0
M  V30 5255 N 486.295 -0.989507 1.22664 0
M  V30 5256 C 487.542 -1.72953 1.05325 0
M  V30 5257 C 487.87 -1.90104 -0.411168 0
M  V30 5258 O 487.125 -1.44386 -1.32103 0
M  V30 5259 C 487.424 -3.13649 1.71345 0
M  V30 5260 C 487.09 -3.16403 3.21248 0
M  V30 5261 C 485.752 -3.16862 3.62149 0
M  V30 5262 C 488.104 -3.12428 4.17179 0
M  V30 5263 C 485.432 -3.11051 4.97458 0
M  V30 5264 C 487.784 -3.08159 5.52468 0
M  V30 5265 C 486.448 -3.06935 5.92746 0
M  V30 5266 H 485.718 -0.632881 0.385412 0
M  V30 5267 H 488.365 -1.15863 1.52473 0
M  V30 5268 H 486.67 -3.74069 1.16532 0
M  V30 5269 H 488.367 -3.69658 1.55416 0
M  V30 5270 H 484.957 -3.16798 2.88682 0
M  V30 5271 H 489.141 -3.11221 3.86595 0
M  V30 5272 H 484.397 -3.0845 5.27891 0
M  V30 5273 H 488.571 -3.04039 6.26525 0
M  V30 5274 H 486.198 -3.02186 6.97558 0
M  V30 5275 N 487.773 -1.03688 -1.18687 0
M  V30 5276 C 489.019 -0.739123 -1.88851 0
M  V30 5277 C 489.352 0.731042 -1.79915 0
M  V30 5278 O 488.627 1.53313 -1.19688 0
M  V30 5279 C 488.91 -1.20106 -3.3948 0
M  V30 5280 C 488.763 -2.73304 -3.57246 0
M  V30 5281 C 490.082 -0.788134 -4.32986 0
M  V30 5282 H 487.201 -0.269978 -0.68577 0
M  V30 5283 H 489.843 -1.28822 -1.3966 0
M  V30 5284 H 487.993 -0.733915 -3.81505 0
M  V30 5285 H 489.665 -3.28027 -3.24339 0
M  V30 5286 H 487.908 -3.13313 -3.00029 0
M  V30 5287 H 488.579 -3.00684 -4.62918 0
M  V30 5288 H 491.055 -1.19005 -3.98719 0
M  V30 5289 H 489.931 -1.13915 -5.36949 0
M  V30 5290 H 490.192 0.308988 -4.41019 0
M  V30 5291 N 489.251 1.34841 -0.815825 0
M  V30 5292 C 490.498 1.98499 -0.400535 0
M  V30 5293 C 490.826 1.64699 1.03463 0
M  V30 5294 O 490.081 0.907006 1.73412 0
M  V30 5295 C 490.38 3.53273 -0.541541 0
M  V30 5296 C 490.046 4.06966 -1.94138 0
M  V30 5297 C 488.708 4.21341 -2.32433 0
M  V30 5298 C 491.06 4.35933 -2.85677 0
M  V30 5299 C 488.388 4.62007 -3.61617 0
M  V30 5300 C 490.74 4.78042 -4.14317 0
M  V30 5301 C 489.404 4.90622 -4.52599 0
M  V30 5302 H 488.674 0.72636 -0.146566 0
M  V30 5303 H 491.321 1.60902 -1.0384 0
M  V30 5304 H 489.626 3.91387 0.179741 0
M  V30 5305 H 491.323 4.00497 -0.20085 0
M  V30 5306 H 487.913 3.96235 -1.63388 0
M  V30 5307 H 492.097 4.24372 -2.57337 0
M  V30 5308 H 487.353 4.69937 -3.91113 0
M  V30 5309 H 491.527 4.99415 -4.85342 0
M  V30 5310 H 489.154 5.2189 -5.52752 0
M  V30 5311 N 490.729 0.570148 1.46925 0
M  V30 5312 C 492.006 -0.0153259 1.95594 0
M  V30 5313 C 492.386 -1.47232 1.51281 0
M  V30 5314 O 491.734 -2.15574 0.757624 0
M  V30 5315 C 491.944 0.143624 3.48704 0
M  V30 5316 C 493.292 0.00494484 4.246 0
M  V30 5317 O 494.316 0.0718214 3.56128 0
M  V30 5318 O 493.175 -0.141175 5.46318 0
M  V30 5319 H 490.269 -0.0568819 0.825041 0
M  V30 5320 H 492.815 0.637583 1.57267 0
M  V30 5321 H 491.587 1.15699 3.73804 0
M  V30 5322 H 491.21 -0.5463 3.93829 0
M  V30 5323 N 492.207 -1.54576 0.307264 0
M  V30 5324 C 493.17 -2.22423 -0.553224 0
M  V30 5325 C 494.17 -1.21231 -1.05639 0
M  V30 5326 O 495.36 -1.45923 -0.951419 0
M  V30 5327 C 492.492 -2.91552 -1.76664 0
M  V30 5328 H 493.685 -2.99874 0.0396484 0
M  V30 5329 H 491.238 -1.56192 0.0581629 0
M  V30 5330 H 491.973 -2.18196 -2.39918 0
M  V30 5331 H 491.758 -3.65738 -1.41343 0
M  V30 5332 H 493.248 -3.43292 -2.37783 0
M  V30 5333 N 493.685 -0.035106 -1.57561 0
M  V30 5334 C 494.931 0.64318 -1.92331 0
M  V30 5335 C 495.264 1.71434 -0.912368 0
M  V30 5336 O 494.539 1.94395 0.0640303 0
M  V30 5337 C 494.822 1.25411 -3.37556 0
M  V30 5338 C 494.675 0.192109 -4.4939 0
M  V30 5339 C 495.994 2.17041 -3.82859 0
M  V30 5340 H 493.113 0.232341 -0.699419 0
M  V30 5341 H 495.755 -0.0935889 -1.89769 0
M  V30 5342 H 493.905 1.88205 -3.39869 0
M  V30 5343 H 495.577 -0.438849 -4.59208 0
M  V30 5344 H 493.82 -0.481725 -4.31117 0
M  V30 5345 H 494.491 0.659292 -5.48049 0
M  V30 5346 H 496.967 1.64228 -3.8232 0
M  V30 5347 H 495.843 2.56738 -4.85157 0
M  V30 5348 H 496.104 3.06401 -3.18702 0
M  V30 5349 N 495.163 1.55791 0.238111 0
M  V30 5350 C 496.391 1.82098 0.982233 0
M  V30 5351 C 496.806 0.612025 1.78605 0
M  V30 5352 O 496.163 -0.419381 1.77616 0
M  V30 5353 C 496.214 3.0673 1.91309 0
M  V30 5354 O 495.935 4.2296 1.14179 0
M  V30 5355 C 497.436 3.45903 2.77248 0
M  V30 5356 H 494.656 0.605748 0.288635 0
M  V30 5357 H 497.2 2.02862 0.258341 0
M  V30 5358 H 495.355 2.87991 2.59114 0
M  V30 5359 H 495.769 4.93653 1.7722 0
M  V30 5360 H 497.243 4.36189 3.38295 0
M  V30 5361 H 497.72 2.66891 3.48806 0
M  V30 5362 H 498.326 3.67024 2.14881 0
M  V30 5363 N 496.642 -0.504142 1.49319 0
M  V30 5364 C 497.919 -1.26548 1.49147 0
M  V30 5365 C 498.299 -2.09977 0.21744 0
M  V30 5366 O 497.647 -2.14028 -0.800269 0
M  V30 5367 C 497.857 -2.12489 2.76857 0
M  V30 5368 C 499.205 -2.7178 3.26222 0
M  V30 5369 O 500.229 -2.22758 2.77952 0
M  V30 5370 O 499.088 -3.61015 4.10281 0
M  V30 5371 H 496.182 -0.572495 0.596806 0
M  V30 5372 H 498.728 -0.51867 1.61579 0
M  V30 5373 H 497.5 -1.50796 3.61077 0
M  V30 5374 H 497.123 -2.94368 2.6727 0
M  V30 5375 N 498.12 -1.38341 -0.754957 0
M  V30 5376 C 499.369 -1.33791 -1.5094 0
M  V30 5377 C 499.682 0.0699267 -1.95475 0
M  V30 5378 O 500.888 0.237956 -2.70455 0
M  V30 5379 C 499.344 -2.34934 -2.72643 0
M  V30 5380 C 498.952 -3.81332 -2.35138 0
M  V30 5381 C 500.696 -2.39425 -3.50536 0
M  V30 5382 C 498.603 -4.74164 -3.53444 0
M  V30 5383 H 497.533 -0.497314 -0.566741 0
M  V30 5384 H 500.184 -1.63888 -0.825403 0
M  V30 5385 H 498.566 -1.97878 -3.43017 0
M  V30 5386 H 499.74 -4.27319 -1.7244 0
M  V30 5387 H 498.055 -3.79946 -1.70382 0
M  V30 5388 H 500.652 -3.0598 -4.38498 0
M  V30 5389 H 500.995 -1.41278 -3.91594 0
M  V30 5390 H 501.528 -2.75274 -2.87174 0
M  V30 5391 H 498.267 -5.73501 -3.17453 0
M  V30 5392 H 497.787 -4.3287 -4.15191 0
M  V30 5393 H 499.466 -4.92111 -4.20043 0
M  V30 5394 N 499.598 0.982988 -1.23187 0
M  V30 5395 C 500.847 1.71817 -1.05649 0
M  V30 5396 C 501.16 1.91315 0.407176 0
M  V30 5397 O 502.366 2.62256 0.702436 0
M  V30 5398 C 500.822 3.09188 -1.84203 0
M  V30 5399 C 500.43 2.97586 -3.34882 0
M  V30 5400 C 502.174 3.86684 -1.75146 0
M  V30 5401 C 500.081 4.30173 -4.05839 0
M  V30 5402 H 499.011 0.644258 -0.391724 0
M  V30 5403 H 501.662 1.09659 -1.4713 0
M  V30 5404 H 500.044 3.72087 -1.35527 0
M  V30 5405 H 501.218 2.43793 -3.91026 0
M  V30 5406 H 499.533 2.33567 -3.44725 0
M  V30 5407 H 502.13 4.84836 -2.25473 0
M  V30 5408 H 502.473 4.10136 -0.713737 0
M  V30 5409 H 503.006 3.30482 -2.21419 0
M  V30 5410 H 499.745 4.11918 -5.09906 0
M  V30 5411 H 499.265 4.83841 -3.54482 0
M  V30 5412 H 500.944 4.98873 -4.11989 0
M  V30 5413 N 501.076 1.04316 1.18135 0
M  V30 5414 C 502.325 0.74319 1.87509 0
M  V30 5415 C 502.638 -0.732136 1.81381 0
M  V30 5416 O 503.844 -1.14572 2.46141 0
M  V30 5417 C 502.3 1.27913 3.36402 0
M  V30 5418 C 501.908 2.78326 3.51053 0
M  V30 5419 C 503.652 1.0558 4.11161 0
M  V30 5420 C 501.559 3.25266 4.93919 0
M  V30 5421 H 500.489 0.274313 0.702331 0
M  V30 5422 H 503.14 1.25931 1.33467 0
M  V30 5423 H 501.522 0.690853 3.89927 0
M  V30 5424 H 502.696 3.42933 3.07788 0
M  V30 5425 H 501.011 2.991 2.89704 0
M  V30 5426 H 503.608 1.38161 5.16542 0
M  V30 5427 H 503.951 -0.00684729 4.16299 0
M  V30 5428 H 504.484 1.60882 3.63816 0
M  V30 5429 H 501.223 4.30922 4.9395 0
M  V30 5430 H 500.743 2.65396 5.3789 0
M  V30 5431 H 502.422 3.19433 5.62647 0
M  V30 5432 N 502.554 -1.34406 0.822964 0
M  V30 5433 C 503.501 -2.29519 0.24284 0
M  V30 5434 C 504.471 -1.5359 -0.632397 0
M  V30 5435 O 505.656 -1.8196 -0.57403 0
M  V30 5436 C 502.796 -3.40032 -0.58925 0
M  V30 5437 C 501.909 -4.30899 0.308236 0
M  V30 5438 C 501.044 -5.28515 -0.533425 0
M  V30 5439 C 500.083 -6.1102 0.363444 0
M  V30 5440 N 499.22 -7.00725 -0.439147 0
M  V30 5441 H 504.06 -2.78537 1.05929 0
M  V30 5442 H 501.597 -1.3707 0.533872 0
M  V30 5443 H 503.555 -4.0279 -1.087 0
M  V30 5444 H 502.185 -2.92248 -1.37081 0
M  V30 5445 H 501.237 -3.69002 0.924203 0
M  V30 5446 H 502.549 -4.88717 0.997862 0
M  V30 5447 H 501.703 -5.96725 -1.09565 0
M  V30 5448 H 500.442 -4.71235 -1.25656 0
M  V30 5449 H 499.447 -5.41743 0.937812 0
M  V30 5450 H 500.672 -6.70381 1.08469 0
M  V30 5451 H 498.618 -6.45913 -1.14595 0
M  V30 5452 H 498.535 -7.55756 0.19209 0
M  V30 5453 H 499.803 -7.73263 -0.984124 0
M  V30 5454 N 504.032 -0.577932 -1.46621 0
M  V30 5455 C 504.942 0.160651 -2.34049 0
M  V30 5456 C 505.958 0.890911 -1.49462 0
M  V30 5457 O 507.134 0.855166 -1.82343 0
M  V30 5458 C 504.199 1.16447 -3.26559 0
M  V30 5459 C 503.26 0.4394 -4.27045 0
M  V30 5460 C 502.493 1.3954 -5.15135 0
M  V30 5461 O 502.716 2.63162 -5.06065 0
M  V30 5462 O 501.65 0.908585 -5.95003 0
M  V30 5463 H 505.476 -0.557057 -2.98547 0
M  V30 5464 H 503.061 -0.338369 -1.45518 0
M  V30 5465 H 504.943 1.7434 -3.83645 0
M  V30 5466 H 503.618 1.86373 -2.64663 0
M  V30 5467 H 502.525 -0.181247 -3.73661 0
M  V30 5468 H 503.858 -0.218799 -4.91713 0
M  V30 5469 N 505.51 1.54411 -0.315457 0
M  V30 5470 C 506.458 2.25514 0.569771 0
M  V30 5471 C 507.452 1.2663 1.12522 0
M  V30 5472 O 508.658 1.44434 1.07419 0
M  V30 5473 H 505.033 0.724257 0.202376 0
M  V30 5474 H 507.004 2.98354 -0.0522895 0
M  V30 5475 C 505.753 3.02004 1.72305 0
M  V30 5476 H 505.076 3.77906 1.30488 0
M  V30 5477 H 506.516 3.55014 2.31821 0
M  V30 5478 C 504.975 2.09822 2.63583 0
M  V30 5479 O 505.505 1.67574 3.65078 0
M  V30 5480 N 503.711 1.75478 2.31637 0
M  V30 5481 H 503.258 2.10032 1.49145 0
M  V30 5482 H 503.216 1.14079 2.92973 0
M  V30 5483 N 506.988 0.0434614 1.5754 0
M  V30 5484 C 507.918 -0.931651 2.14109 0
M  V30 5485 C 508.899 -1.32971 1.06079 0
M  V30 5486 O 510.084 -1.40579 1.33982 0
M  V30 5487 C 507.214 -2.20914 2.67982 0
M  V30 5488 C 506.168 -1.95139 3.80926 0
M  V30 5489 C 505.494 -3.29276 4.21285 0
M  V30 5490 C 506.794 -1.27913 5.06395 0
M  V30 5491 H 508.488 -0.460497 2.95837 0
M  V30 5492 H 506.034 -0.220058 1.42309 0
M  V30 5493 H 507.987 -2.89522 3.06194 0
M  V30 5494 H 506.711 -2.70221 1.83434 0
M  V30 5495 H 505.37 -1.28945 3.43175 0
M  V30 5496 H 505.018 -3.76369 3.33699 0
M  V30 5497 H 504.718 -3.12831 4.97404 0
M  V30 5498 H 506.242 -3.99129 4.62091 0
M  V30 5499 H 507.656 -1.86544 5.42102 0
M  V30 5500 H 506.053 -1.2182 5.87605 0
M  V30 5501 H 507.123 -0.254066 4.84234 0
M  V30 5502 N 508.466 -1.55915 -0.229846 0
M  V30 5503 C 509.413 -1.91734 -1.28478 0
M  V30 5504 C 510.383 -0.773539 -1.46988 0
M  V30 5505 O 511.568 -1.02871 -1.60693 0
M  V30 5506 C 508.708 -2.23224 -2.63182 0
M  V30 5507 C 507.821 -3.50497 -2.52539 0
M  V30 5508 C 506.956 -3.71474 -3.79711 0
M  V30 5509 C 505.995 -4.92289 -3.63755 0
M  V30 5510 N 505.132 -5.09698 -4.82858 0
M  V30 5511 H 509.972 -2.81692 -0.972308 0
M  V30 5512 H 507.509 -1.39429 -0.468815 0
M  V30 5513 H 509.467 -2.3949 -3.41614 0
M  V30 5514 H 508.097 -1.36451 -2.92542 0
M  V30 5515 H 507.149 -3.4247 -1.65585 0
M  V30 5516 H 508.461 -4.39079 -2.36666 0
M  V30 5517 H 507.615 -3.87791 -4.66586 0
M  V30 5518 H 506.354 -2.81157 -3.985 0
M  V30 5519 H 505.359 -4.7593 -2.75264 0
M  V30 5520 H 506.584 -5.84083 -3.46445 0
M  V30 5521 H 504.53 -4.22322 -5.01976 0
M  V30 5522 H 504.447 -5.92399 -4.69681 0
M  V30 5523 H 505.715 -5.30443 -5.71183 0
M  V30 5524 N 509.944 0.496216 -1.49584 0
M  V30 5525 C 511.221 1.25755 -1.49816 0
M  V30 5526 C 511.601 2.09859 -0.228572 0
M  V30 5527 O 510.949 2.14449 0.788908 0
M  V30 5528 C 511.159 2.11017 -2.7798 0
M  V30 5529 C 512.507 2.70047 -3.27658 0
M  V30 5530 O 513.531 2.21281 -2.79129 0
M  V30 5531 O 512.39 3.58834 -4.1219 0
M  V30 5532 H 509.484 0.569322 -0.599834 0
M  V30 5533 H 512.03 0.510094 -1.61852 0
M  V30 5534 H 510.802 1.48879 -3.61871 0
M  V30 5535 H 510.425 2.92947 -2.68827 0
M  V30 5536 N 511.423 1.38739 0.74761 0
M  V30 5537 C 512.663 1.36695 1.51966 0
M  V30 5538 C 513.027 -0.0411889 1.91956 0
M  V30 5539 O 514.228 -0.186543 2.68152 0
M  V30 5540 C 512.499 2.30119 2.73459 0
M  V30 5541 S 514.058 2.4615 3.63257 0
M  V30 5542 H 510.876 0.484929 0.519966 0
M  V30 5543 H 513.478 1.7472 0.877104 0
M  V30 5544 H 512.182 3.31312 2.422 0
M  V30 5545 H 511.713 1.93265 3.42655 0
M  V30 5546 H 513.728 1.69001 4.66533 0
M  V30 5547 N 512.901 -0.976442 1.23707 0
M  V30 5548 C 514.149 -1.71487 1.06942 0
M  V30 5549 C 514.47 -1.9098 -0.393897 0
M  V30 5550 O 513.74 -1.48128 -1.28198 0
M  V30 5551 H 512.32 -0.635425 0.392739 0
M  V30 5552 H 514.982 -1.17515 1.55487 0
M  V30 5553 H 514.078 -2.70286 1.56051 0
M  V30 5554 N 514.379 -1.04941 -1.1758 0
M  V30 5555 C 515.309 -0.669172 -2.23706 0
M  V30 5556 C 516.29 0.331835 -1.66832 0
M  V30 5557 O 517.475 0.209988 -1.93061 0
M  V30 5558 C 514.605 -0.0404889 -3.47276 0
M  V30 5559 C 513.559 -0.965983 -4.16957 0
M  V30 5560 C 512.885 -0.201312 -5.34321 0
M  V30 5561 C 514.185 -2.28902 -4.69469 0
M  V30 5562 H 515.879 -1.55639 -2.55767 0
M  V30 5563 H 513.425 -0.749793 -1.22939 0
M  V30 5564 H 515.378 0.237298 -4.20731 0
M  V30 5565 H 514.102 0.881658 -3.14475 0
M  V30 5566 H 512.761 -1.22829 -3.45411 0
M  V30 5567 H 512.409 0.723519 -4.97769 0
M  V30 5568 H 512.109 -0.817968 -5.81879 0
M  V30 5569 H 513.633 0.0692499 -6.10561 0
M  V30 5570 H 515.047 -2.07132 -5.34574 0
M  V30 5571 H 513.444 -2.85942 -5.27596 0
M  V30 5572 H 514.514 -2.92937 -3.86414 0
M  V30 5573 N 515.857 1.33968 -0.830081 0
M  V30 5574 C 517.104 1.98063 -0.421566 0
M  V30 5575 C 517.432 1.65787 1.0171 0
M  V30 5576 O 516.687 0.925348 1.72441 0
M  V30 5577 C 516.986 3.52679 -0.57898 0
M  V30 5578 C 516.652 4.04884 -1.98443 0
M  V30 5579 C 515.314 4.18852 -2.36888 0
M  V30 5580 C 517.666 4.32879 -2.90285 0
M  V30 5581 C 514.994 4.58145 -3.66497 0
M  V30 5582 C 517.346 4.7362 -4.19364 0
M  V30 5583 C 516.01 4.85794 -4.57778 0
M  V30 5584 H 515.28 0.724765 -0.154262 0
M  V30 5585 H 517.927 1.59792 -1.05541 0
M  V30 5586 H 516.232 3.91556 0.138219 0
M  V30 5587 H 517.929 4.00261 -0.243317 0
M  V30 5588 H 514.519 3.9448 -1.67581 0
M  V30 5589 H 518.703 4.21619 -2.61823 0
M  V30 5590 H 513.959 4.65762 -3.96075 0
M  V30 5591 H 518.133 4.9424 -4.90612 0
M  V30 5592 H 515.76 5.15998 -5.58256 0
M  V30 5593 O 517.374 0.726383 1.44243 0
M  V30 5594 H 518.065 0.275111 1.91736 0
M  V30 END ATOM
M  V30 BEGIN BOND
M  V30 END BOND
M  V30 END CTAB
M  END
$$$$
