drugbank_target|P03960 Potassium-transporting ATPase ATP-binding subunit (DB04395)
 OpenBabel12092120293D

  0  0  0     0  0            999 V3000
M  V30 BEGIN CTAB
M  V30 COUNTS 10343 10418 0 0 0
M  V30 BEGIN ATOM
M  V30 1 H -0.908 1.98254 -0.117106 0
M  V30 2 N 0 1.576 0 0
M  V30 3 C 0.933 2.03868 1.02534 0
M  V30 4 C 1.911 0.928543 1.3348 0
M  V30 5 O 3.095 1.19667 1.45644 0
M  V30 6 C 0.222 2.43627 2.35294 0
M  V30 7 C -0.732 3.65373 2.2001 0
M  V30 8 S 0.101 5.13292 1.52614 0
M  V30 9 C 1.257 5.56322 2.86805 0
M  V30 10 H 1.49 2.90518 0.631377 0
M  V30 11 H -0.977 1.52953 0.210867 0
M  V30 12 H 0.981 2.67203 3.11629 0
M  V30 13 H -0.358 1.57376 2.7183 0
M  V30 14 H -1.165 3.90944 3.18086 0
M  V30 15 H -1.563 3.418 1.51819 0
M  V30 16 H 0.729 5.58782 3.83104 0
M  V30 17 H 1.672 6.56266 2.65933 0
M  V30 18 H 2.08 4.83886 2.90714 0
M  V30 19 N 1.4781 -0.272755 1.55222 0
M  V30 20 C 2.7031 -1.02683 1.80197 0
M  V30 21 C 3.1281 -1.79142 0.573551 0
M  V30 22 O 2.4861 -1.74917 -0.476849 0
M  V30 23 C 2.5341 -1.9609 3.02624 0
M  V30 24 O 1.6381 -3.04863 2.77727 0
M  V30 25 H 0.9791 -0.293557 0.595584 0
M  V30 26 H 3.5091 -0.30159 2.02365 0
M  V30 27 H 3.5191 -2.38039 3.31363 0
M  V30 28 H 2.1941 -1.39851 3.91682 0
M  V30 29 H 0.7711 -2.67228 2.60084 0
M  V30 30 N 2.9562 -1.48159 -0.537278 0
M  V30 31 C 4.3722 -1.34118 -0.865129 0
M  V30 32 C 4.5722 -0.346678 -1.98495 0
M  V30 33 O 3.6282 0.234715 -2.51407 0
M  V30 34 C 4.9412 -2.73963 -1.23954 0
M  V30 35 C 6.4892 -2.82397 -1.34984 0
M  V30 36 C 6.9642 -4.22928 -1.75772 0
M  V30 37 N 8.4552 -4.25566 -1.82887 0
M  V30 38 C 9.1902 -5.31235 -2.15817 0
M  V30 39 N 8.6862 -6.47189 -2.47222 0
M  V30 40 N 10.4792 -5.18624 -2.16761 0
M  V30 41 H 2.6302 -2.1144 0.201715 0
M  V30 42 H 4.8932 -0.947598 0.0275949 0
M  V30 43 H 4.5992 -3.48264 -0.490381 0
M  V30 44 H 4.4732 -3.0702 -2.19132 0
M  V30 45 H 6.8602 -2.08356 -2.08978 0
M  V30 46 H 6.9412 -2.5297 -0.379448 0
M  V30 47 H 6.5852 -4.97482 -1.02341 0
M  V30 48 H 6.5152 -4.49794 -2.73848 0
M  V30 49 H 9.0062 -3.41924 -1.60924 0
M  V30 50 H 9.3192 -7.23564 -2.71433 0
M  V30 51 H 7.6642 -6.50476 -2.44757 0
M  V30 52 H 10.8552 -4.27056 -1.91679 0
M  V30 53 H 11.0282 -6.01078 -2.42093 0
M  V30 54 N 4.4343 0.785586 -1.36625 0
M  V30 55 C 5.3813 1.89838 -1.31264 0
M  V30 56 C 6.3513 1.65115 -0.180633 0
M  V30 57 O 7.5363 1.87222 -0.36777 0
M  V30 58 C 4.6763 3.26706 -1.11163 0
M  V30 59 C 3.7893 3.63476 -2.33472 0
M  V30 60 C 2.9243 4.89481 -2.06353 0
M  V30 61 C 1.9633 5.18941 -3.24602 0
M  V30 62 N 1.1003 6.36131 -2.97123 0
M  V30 63 H 5.9403 1.93756 -2.26413 0
M  V30 64 H 3.4773 0.947454 -1.12524 0
M  V30 65 H 5.4353 4.05639 -0.975337 0
M  V30 66 H 4.0653 3.222 -0.196674 0
M  V30 67 H 3.1173 2.79636 -2.57891 0
M  V30 68 H 4.4293 3.81193 -3.21704 0
M  V30 69 H 3.5833 5.76288 -1.89675 0
M  V30 70 H 2.3223 4.73841 -1.15437 0
M  V30 71 H 1.3273 4.30615 -3.41834 0
M  V30 72 H 2.5523 5.36498 -4.16349 0
M  V30 73 H 0.4983 6.21875 -2.08823 0
M  V30 74 H 0.4153 6.54198 -3.78894 0
M  V30 75 H 1.6833 7.2591 -2.84033 0
M  V30 76 N 5.9124 1.20967 1.01018 0
M  V30 77 C 6.8444 0.922059 2.09835 0
M  V30 78 C 7.8574 -0.0927106 1.62536 0
M  V30 79 O 9.0464 0.139127 1.77957 0
M  V30 80 C 6.1464 0.362004 3.36961 0
M  V30 81 C 5.3194 1.42986 4.13369 0
M  V30 82 C 4.3784 0.879976 5.1879 0
M  V30 83 O 3.4044 1.56219 5.47343 0
M  V30 84 N 4.6064 -0.307396 5.79686 0
M  V30 85 H 7.3714 1.8588 2.35093 0
M  V30 86 H 4.9324 1.11422 1.1746 0
M  V30 87 H 6.9244 -0.0201474 4.04695 0
M  V30 88 H 5.4944 -0.479437 3.08902 0
M  V30 89 H 4.7144 1.98608 3.40512 0
M  V30 90 H 6.0024 2.14885 4.61196 0
M  V30 91 H 5.4004 -0.878796 5.58832 0
M  V30 92 H 3.9574 -0.631115 6.48737 0
M  V30 93 N 7.3905 -1.2043 1.01659 0
M  V30 94 C 8.3205 -2.25466 0.607226 0
M  V30 95 C 9.3015 -1.65853 -0.377716 0
M  V30 96 O 10.4865 -1.92409 -0.263149 0
M  V30 97 C 7.6165 -3.47256 -0.0552949 0
M  V30 98 C 6.5705 -4.19462 0.850632 0
M  V30 99 C 5.8965 -5.34673 0.0538859 0
M  V30 100 C 7.1965 -4.75603 2.15868 0
M  V30 101 H 8.8905 -2.59962 1.48526 0
M  V30 102 H 6.4365 -1.2496 0.715605 0
M  V30 103 H 8.3895 -4.19917 -0.353233 0
M  V30 104 H 7.1135 -3.11924 -0.968045 0
M  V30 105 H 5.7725 -3.48667 1.13257 0
M  V30 106 H 5.4205 -4.95585 -0.860514 0
M  V30 107 H 5.1205 -5.83913 0.657192 0
M  V30 108 H 6.6445 -6.10138 -0.237598 0
M  V30 109 H 8.0585 -5.40083 1.92311 0
M  V30 110 H 6.4555 -5.3528 2.71284 0
M  V30 111 H 7.5255 -3.94346 2.82169 0
M  V30 112 N 8.8686 -0.792821 -1.36206 0
M  V30 113 C 9.8316 -0.199459 -2.2833 0
M  V30 114 C 10.8316 0.605189 -1.48977 0
M  V30 115 O 12.0216 0.425685 -1.68919 0
M  V30 116 C 9.1536 0.723523 -3.33134 0
M  V30 117 H 10.3466 -1.01181 -2.82316 0
M  V30 118 H 7.8996 -0.562485 -1.45828 0
M  V30 119 H 8.6346 1.56008 -2.84309 0
M  V30 120 H 8.4196 0.148436 -3.91819 0
M  V30 121 H 9.9096 1.13344 -4.01924 0
M  V30 122 N 10.3467 1.47872 -0.545128 0
M  V30 123 C 11.2767 2.32661 0.197793 0
M  V30 124 C 12.2577 1.43041 0.920504 0
M  V30 125 O 13.4427 1.71912 0.90333 0
M  V30 126 C 10.5727 3.24569 1.23582 0
M  V30 127 C 9.5267 4.23333 0.630323 0
M  V30 128 C 8.8527 5.0448 1.77211 0
M  V30 129 C 10.1527 5.20704 -0.407974 0
M  V30 130 H 11.8467 2.95024 -0.510045 0
M  V30 131 H 9.3927 1.4187 -0.246731 0
M  V30 132 H 11.3457 3.8272 1.76362 0
M  V30 133 H 10.0697 2.60236 1.97344 0
M  V30 134 H 8.7287 3.6639 0.123922 0
M  V30 135 H 8.3767 4.36561 2.49847 0
M  V30 136 H 8.0767 5.71339 1.37281 0
M  V30 137 H 9.6007 5.65487 2.3034 0
M  V30 138 H 11.0147 5.7329 0.033305 0
M  V30 139 H 9.4117 5.95699 -0.725486 0
M  V30 140 H 10.4817 4.66917 -1.30828 0
M  V30 141 N 11.8248 0.280983 1.55075 0
M  V30 142 C 13.0718 -0.334115 1.99725 0
M  V30 143 C 13.3998 -1.5542 1.1694 0
M  V30 144 O 12.6548 -1.94361 0.228531 0
M  V30 145 C 12.9538 -0.754656 3.49342 0
M  V30 146 C 12.6198 0.361445 4.49449 0
M  V30 147 C 11.2818 0.667893 4.76542 0
M  V30 148 C 13.6338 1.11322 5.09173 0
M  V30 149 C 10.9618 1.7296 5.60626 0
M  V30 150 C 13.3138 2.1647 5.9441 0
M  V30 151 C 11.9778 2.47742 6.19822 0
M  V30 152 H 11.2478 -0.122261 0.730844 0
M  V30 153 H 13.8948 0.395917 1.87363 0
M  V30 154 H 12.1998 -1.56446 3.5921 0
M  V30 155 H 13.8968 -1.24142 3.813 0
M  V30 156 H 10.4868 0.112481 4.28452 0
M  V30 157 H 14.6708 0.88973 4.8826 0
M  V30 158 H 9.9268 1.97684 5.78559 0
M  V30 159 H 14.1008 2.75193 6.3972 0
M  V30 160 H 11.7278 3.30145 6.84769 0
M  V30 161 N 13.3029 -1.57598 0.00835791 0
M  V30 162 C 14.2129 -2.12385 -0.996487 0
M  V30 163 C 15.2289 -1.07108 -1.37127 0
M  V30 164 O 16.4049 -1.39055 -1.4569 0
M  V30 165 C 13.4699 -2.62314 -2.26699 0
M  V30 166 C 12.5309 -3.82225 -1.95456 0
M  V30 167 C 11.7639 -4.29763 -3.16449 0
M  V30 168 O 11.9869 -3.76584 -4.28416 0
M  V30 169 O 10.9209 -5.21832 -2.99958 0
M  V30 170 H 14.7469 -2.98479 -0.560725 0
M  V30 171 H 12.3319 -1.47903 -0.210987 0
M  V30 172 H 14.2139 -2.94589 -3.01322 0
M  V30 173 H 12.8889 -1.79313 -2.69497 0
M  V30 174 H 11.7959 -3.54909 -1.18282 0
M  V30 175 H 13.1289 -4.66324 -1.57489 0
M  V30 176 N 14.781 0.264519 -1.55364 0
M  V30 177 C 16.192 0.834936 -1.6699 0
M  V30 178 C 16.543 1.86718 -0.602552 0
M  V30 179 O 15.668 2.14899 0.254425 0
M  V30 180 C 16.263 1.5212 -3.02729 0
M  V30 181 C 14.822 2.03954 -3.16354 0
M  V30 182 C 13.969 0.884498 -2.62815 0
M  V30 183 H 16.92 0.0406869 -1.58648 0
M  V30 184 H 16.941 2.38853 -2.96191 0
M  V30 185 H 16.453 0.769668 -3.80392 0
M  V30 186 H 14.554 2.82041 -2.43482 0
M  V30 187 H 14.667 2.24902 -4.23032 0
M  V30 188 H 13.031 1.2802 -2.20188 0
M  V30 189 H 13.814 0.14634 -3.42988 0
M  V30 190 N 16.2591 1.48442 0.529413 0
M  V30 191 C 17.4871 1.60151 1.30994 0
M  V30 192 C 17.9021 0.261985 1.86973 0
M  V30 193 O 17.2591 -0.748805 1.66431 0
M  V30 194 C 17.3101 2.64854 2.46038 0
M  V30 195 O 17.0311 3.93608 1.92365 0
M  V30 196 C 18.5321 2.87007 3.37849 0
M  V30 197 H 15.7521 0.539971 0.398338 0
M  V30 198 H 18.2961 1.94273 0.638597 0
M  V30 199 H 16.4511 2.33589 3.09055 0
M  V30 200 H 16.8651 4.51055 2.67675 0
M  V30 201 H 18.3391 3.64068 4.14919 0
M  V30 202 H 18.8161 1.95852 3.93114 0
M  V30 203 H 19.4221 3.19579 2.80623 0
M  V30 204 N 17.7372 -0.778329 1.37039 0
M  V30 205 C 18.6672 -1.90546 1.34962 0
M  V30 206 C 19.6482 -1.68681 0.219274 0
M  V30 207 O 20.8332 -1.89634 0.418624 0
M  V30 208 C 17.9632 -3.27734 1.14925 0
M  V30 209 C 16.9172 -3.64147 2.24902 0
M  V30 210 C 16.2432 -4.99806 1.89996 0
M  V30 211 C 17.5432 -3.71579 3.67051 0
M  V30 212 H 19.2372 -1.92541 2.29277 0
M  V30 213 H 16.7832 -0.924948 1.10366 0
M  V30 214 H 18.7362 -4.06215 1.12104 0
M  V30 215 H 17.4602 -3.26154 0.170631 0
M  V30 216 H 16.1192 -2.8797 2.26868 0
M  V30 217 H 15.7672 -4.94759 0.906796 0
M  V30 218 H 15.4672 -5.25139 2.63634 0
M  V30 219 H 16.9912 -5.80694 1.88749 0
M  V30 220 H 18.4052 -4.40227 3.67251 0
M  V30 221 H 16.8022 -4.08405 4.39688 0
M  V30 222 H 17.8722 -2.72404 4.01154 0
M  V30 223 N 19.2153 -1.21501 -1.00376 0
M  V30 224 C 20.4613 -1.03452 -1.74429 0
M  V30 225 C 20.7943 0.430764 -1.89362 0
M  V30 226 O 20.0693 1.31962 -1.42886 0
M  V30 227 C 20.3523 -1.73375 -3.15615 0
M  V30 228 C 20.2053 -3.27431 -3.08397 0
M  V30 229 C 21.5243 -1.47732 -4.14564 0
M  V30 230 H 18.6433 -0.377226 -0.633143 0
M  V30 231 H 21.2853 -1.49693 -1.17013 0
M  V30 232 H 19.4353 -1.34064 -3.64636 0
M  V30 233 H 21.1073 -3.76119 -2.67081 0
M  V30 234 H 19.3503 -3.5767 -2.45468 0
M  V30 235 H 20.0213 -3.71524 -4.08258 0
M  V30 236 H 22.4973 -1.8186 -3.74254 0
M  V30 237 H 21.3733 -1.99169 -5.11491 0
M  V30 238 H 21.6343 -0.407589 -4.40217 0
M  V30 239 N 20.6934 1.19889 -1.02296 0
M  V30 240 C 21.9394 1.89701 -0.717033 0
M  V30 241 C 22.2724 1.7905 0.751989 0
M  V30 242 O 21.5474 1.17891 1.547 0
M  V30 243 C 21.8304 3.40858 -1.16136 0
M  V30 244 C 21.6834 3.60411 -2.69117 0
M  V30 245 C 23.0024 4.33876 -0.737549 0
M  V30 246 H 20.1214 0.688874 -0.261957 0
M  V30 247 H 22.7634 1.41154 -1.27183 0
M  V30 248 H 20.9134 3.82335 -0.689342 0
M  V30 249 H 22.5854 3.28145 -3.2422 0
M  V30 250 H 20.8284 3.03665 -3.0979 0
M  V30 251 H 21.4994 4.66396 -2.95261 0
M  V30 252 H 23.9754 4.00081 -1.14344 0
M  V30 253 H 22.8514 5.38242 -1.0764 0
M  V30 254 H 23.1124 4.40628 0.360436 0
M  V30 255 N 22.1715 0.800033 1.35784 0
M  V30 256 C 23.1035 0.163596 2.28615 0
M  V30 257 C 24.1165 -0.633317 1.49976 0
M  V30 258 O 25.3055 -0.466754 1.72289 0
M  V30 259 C 22.4055 -0.790958 3.29541 0
M  V30 260 C 21.5785 -0.0418255 4.3738 0
M  V30 261 C 20.6375 -0.91389 5.18203 0
M  V30 262 O 19.6635 -0.367234 5.68014 0
M  V30 263 N 20.8655 -2.23682 5.35674 0
M  V30 264 H 23.6305 0.96105 2.83873 0
M  V30 265 H 21.1915 0.654894 1.48063 0
M  V30 266 H 23.1835 -1.37844 3.80501 0
M  V30 267 H 21.7535 -1.48925 2.74846 0
M  V30 268 H 20.9735 0.726813 3.87442 0
M  V30 269 H 22.2615 0.474719 5.06581 0
M  V30 270 H 21.6595 -2.70497 4.96838 0
M  V30 271 H 20.2165 -2.77369 5.89839 0
M  V30 272 N 23.6496 -1.47581 0.552962 0
M  V30 273 C 24.6126 -2.28439 -0.186605 0
M  V30 274 C 25.6126 -1.36706 -0.84665 0
M  V30 275 O 26.8026 -1.59378 -0.703164 0
M  V30 276 C 23.9346 -3.16264 -1.2724 0
M  V30 277 H 25.1276 -2.95294 0.523609 0
M  V30 278 H 22.6806 -1.532 0.309745 0
M  V30 279 H 23.4156 -2.54091 -2.01514 0
M  V30 280 H 23.2006 -3.83769 -0.803968 0
M  V30 281 H 24.6906 -3.77198 -1.79196 0
M  V30 282 N 25.1277 -0.289203 -1.54924 0
M  V30 283 C 26.0577 0.58549 -2.2604 0
M  V30 284 C 27.0387 1.14753 -1.25562 0
M  V30 285 O 28.2237 1.17906 -1.54311 0
M  V30 286 C 25.3537 1.76305 -2.99222 0
M  V30 287 C 24.3077 1.33191 -4.06748 0
M  V30 288 C 23.6337 2.5937 -4.6758 0
M  V30 289 C 24.9337 0.471775 -5.20165 0
M  V30 290 H 26.6277 -0.00763532 -2.99399 0
M  V30 291 H 24.1737 -0.00511229 -1.43999 0
M  V30 292 H 26.1267 2.38097 -3.47689 0
M  V30 293 H 24.8507 2.38223 -2.23422 0
M  V30 294 H 23.5097 0.737121 -3.59113 0
M  V30 295 H 23.1577 3.19576 -3.88433 0
M  V30 296 H 22.8577 2.31228 -5.40192 0
M  V30 297 H 24.3817 3.21985 -5.18804 0
M  V30 298 H 25.7957 0.995056 -5.64599 0
M  V30 299 H 24.1927 0.284639 -5.99425 0
M  V30 300 H 25.2627 -0.506041 -4.82252 0
M  V30 301 N 26.6058 1.57591 -0.0167156 0
M  V30 302 C 27.5528 2.09462 0.969251 0
M  V30 303 C 28.5228 0.99381 1.33089 0
M  V30 304 O 29.7078 1.26726 1.42636 0
M  V30 305 C 26.8478 2.61622 2.25051 0
M  V30 306 C 25.9608 3.85666 1.94642 0
M  V30 307 C 25.0958 4.26266 3.16972 0
M  V30 308 C 24.1348 5.43101 2.82326 0
M  V30 309 N 23.2718 5.78915 3.97243 0
M  V30 310 H 28.1118 2.93428 0.519997 0
M  V30 311 H 25.6488 1.45044 0.245087 0
M  V30 312 H 27.6068 2.89949 2.99976 0
M  V30 313 H 26.2368 1.80505 2.67615 0
M  V30 314 H 25.2888 3.64145 1.10013 0
M  V30 315 H 26.6008 4.70678 1.65117 0
M  V30 316 H 25.7548 4.55963 4.00228 0
M  V30 317 H 24.4938 3.39996 3.49648 0
M  V30 318 H 23.4988 5.1311 1.97479 0
M  V30 319 H 24.7238 6.3106 2.50879 0
M  V30 320 H 22.6698 4.95602 4.29785 0
M  V30 321 H 22.5868 6.58539 3.71299 0
M  V30 322 H 23.8548 6.13212 4.81239 0
M  V30 323 N 28.0839 -0.256276 1.55502 0
M  V30 324 C 28.9939 -1.33882 1.92647 0
M  V30 325 C 30.0099 -1.53159 0.825727 0
M  V30 326 O 31.1859 -1.66963 1.12629 0
M  V30 327 C 28.2509 -2.6751 2.20543 0
M  V30 328 C 27.3119 -2.56836 3.43997 0
M  V30 329 C 26.5449 -3.84092 3.70553 0
M  V30 330 O 26.7679 -4.85545 2.99336 0
M  V30 331 O 25.7019 -3.83288 4.64084 0
M  V30 332 H 29.5279 -1.05374 2.84833 0
M  V30 333 H 27.1129 -0.456237 1.42263 0
M  V30 334 H 28.9949 -3.46492 2.39835 0
M  V30 335 H 27.6699 -2.9577 1.31536 0
M  V30 336 H 26.5769 -1.76172 3.30021 0
M  V30 337 H 27.9099 -2.33523 4.33275 0
M  V30 338 N 29.562 -1.4872 -0.521534 0
M  V30 339 C 30.525 -1.63379 -1.60748 0
M  V30 340 C 31.525 -0.50661 -1.52611 0
M  V30 341 O 32.715 -0.772601 -1.5613 0
M  V30 342 C 29.847 -1.61192 -3.00383 0
M  V30 343 H 31.04 -2.60217 -1.49087 0
M  V30 344 H 28.593 -1.37444 -0.744235 0
M  V30 345 H 29.328 -0.65863 -3.17541 0
M  V30 346 H 29.113 -2.43032 -3.07698 0
M  V30 347 H 30.603 -1.7466 -3.7932 0
M  V30 348 N 31.0401 0.771051 -1.3745 0
M  V30 349 C 32.2861 1.5319 -1.32894 0
M  V30 350 C 32.6191 1.94008 0.0862511 0
M  V30 351 O 31.8941 1.64124 1.04373 0
M  V30 352 C 32.1771 2.79648 -2.26868 0
M  V30 353 C 32.0301 2.45079 -3.77169 0
M  V30 354 C 33.3491 3.81583 -2.19277 0
M  V30 355 H 30.4681 0.555744 -0.484064 0
M  V30 356 H 33.1101 0.884492 -1.68157 0
M  V30 357 H 31.2601 3.34891 -1.96926 0
M  V30 358 H 32.9321 1.95745 -4.1771 0
M  V30 359 H 31.1751 1.77767 -3.95704 0
M  V30 360 H 31.8461 3.35478 -4.38359 0
M  V30 361 H 34.3221 3.35835 -2.45671 0
M  V30 362 H 33.1981 4.67787 -2.87171 0
M  V30 363 H 33.4591 4.25897 -1.18592 0
M  V30 364 N 32.5182 1.22032 0.997298 0
M  V30 365 C 33.4652 0.986467 2.08656 0
M  V30 366 C 34.4352 -0.0902671 1.65855 0
M  V30 367 O 35.6202 0.0584294 1.90711 0
M  V30 368 C 32.7602 0.565569 3.40434 0
M  V30 369 C 31.8732 1.71259 3.96604 0
M  V30 370 C 31.0082 1.24011 5.16522 0
M  V30 371 C 30.0472 2.35896 5.64818 0
M  V30 372 N 29.1842 1.89726 6.7598 0
M  V30 373 H 34.0242 1.91892 2.27994 0
M  V30 374 H 31.5612 0.956199 1.11782 0
M  V30 375 H 33.5192 0.302738 4.161 0
M  V30 376 H 32.1492 -0.329879 3.2111 0
M  V30 377 H 31.2012 2.08986 3.17851 0
M  V30 378 H 32.5132 2.55436 4.28432 0
M  V30 379 H 31.6672 0.934395 5.99461 0
M  V30 380 H 30.4062 0.368487 4.86306 0
M  V30 381 H 29.4112 2.67261 4.8047 0
M  V30 382 H 30.6362 3.23567 5.97061 0
M  V30 383 H 28.5822 1.0492 6.47555 0
M  V30 384 H 28.4992 2.67471 7.07103 0
M  V30 385 H 29.7672 1.62211 7.62435 0
M  V30 386 N 33.9963 -1.19345 1.0293 0
M  V30 387 C 34.9433 -2.2258 0.610464 0
M  V30 388 C 35.9133 -1.6179 -0.375946 0
M  V30 389 O 37.0983 -1.88844 -0.272511 0
M  V30 390 C 34.2383 -3.45085 -0.0321473 0
M  V30 391 C 33.3513 -4.20258 1.00035 0
M  V30 392 C 32.4863 -5.3019 0.32746 0
M  V30 393 C 31.5253 -5.97121 1.34584 0
M  V30 394 N 30.6623 -6.98615 0.698726 0
M  V30 395 H 35.5023 -2.57764 1.49538 0
M  V30 396 H 33.0393 -1.26644 0.748311 0
M  V30 397 H 34.9973 -4.15061 -0.421966 0
M  V30 398 H 33.6273 -3.10555 -0.88064 0
M  V30 399 H 32.6793 -3.49223 1.50823 0
M  V30 400 H 33.9913 -4.66175 1.77433 0
M  V30 401 H 33.1453 -6.06587 -0.11718 0
M  V30 402 H 31.8843 -4.85345 -0.478713 0
M  V30 403 H 30.8893 -5.19474 1.80074 0
M  V30 404 H 32.1143 -6.4405 2.15352 0
M  V30 405 H 30.0603 -6.55942 -0.0873471 0
M  V30 406 H 29.9773 -7.42724 1.41058 0
M  V30 407 H 31.2453 -7.79004 0.278102 0
M  V30 408 N 35.4744 -0.807222 -1.35358 0
M  V30 409 C 36.4044 -0.232509 -2.3234 0
M  V30 410 C 37.3854 0.642386 -1.57504 0
M  V30 411 O 38.5704 0.572526 -1.85569 0
M  V30 412 C 35.7004 0.619238 -3.41735 0
M  V30 413 C 34.6544 -0.157215 -4.27711 0
M  V30 414 C 33.9804 0.816273 -5.28433 0
M  V30 415 C 35.2804 -1.35656 -5.04376 0
M  V30 416 H 36.9744 -1.04276 -2.80654 0
M  V30 417 H 34.5204 -0.50288 -1.34934 0
M  V30 418 H 36.4734 1.03137 -4.08584 0
M  V30 419 H 35.1974 1.46239 -2.92031 0
M  V30 420 H 33.8564 -0.550525 -3.62443 0
M  V30 421 H 33.5044 1.65494 -4.74996 0
M  V30 422 H 33.2044 0.301067 -5.86828 0
M  V30 423 H 34.7284 1.22659 -5.98153 0
M  V30 424 H 36.1424 -1.01927 -5.64166 0
M  V30 425 H 34.5394 -1.8063 -5.7227 0
M  V30 426 H 35.6094 -2.14288 -4.34981 0
M  V30 427 N 36.9525 1.47285 -0.560781 0
M  V30 428 C 37.9005 2.31756 0.197942 0
M  V30 429 C 38.8945 1.43146 0.905854 0
M  V30 430 O 40.1005 1.59891 0.826733 0
M  V30 431 H 36.4755 0.747438 0.0827049 0
M  V30 432 H 38.4465 2.9359 -0.533629 0
M  V30 433 C 37.1955 3.25874 1.21249 0
M  V30 434 H 36.5185 3.94023 0.67719 0
M  V30 435 H 37.9585 3.87803 1.71419 0
M  V30 436 C 36.4175 2.49651 2.26221 0
M  V30 437 O 36.9475 2.24355 3.33208 0
M  V30 438 N 35.1535 2.10597 2.00243 0
M  V30 439 H 34.7005 2.31369 1.13252 0
M  V30 440 H 34.6585 1.59913 2.70694 0
M  V30 441 N 38.4306 0.297415 1.54768 0
M  V30 442 C 39.8416 -0.195947 1.85669 0
M  V30 443 C 40.1926 -1.53707 1.21937 0
M  V30 444 O 39.3176 -2.10164 0.515754 0
M  V30 445 C 39.9126 -0.362318 3.36857 0
M  V30 446 C 38.4716 -0.799901 3.67802 0
M  V30 447 C 37.6186 0.0938578 2.77141 0
M  V30 448 H 40.5696 0.518538 1.4999 0
M  V30 449 H 40.5906 -1.19745 3.61167 0
M  V30 450 H 40.1026 0.613921 3.83214 0
M  V30 451 H 38.2036 -1.78682 3.26961 0
M  V30 452 H 38.3166 -0.621773 4.75048 0
M  V30 453 H 36.6806 -0.426254 2.51108 0
M  V30 454 H 37.4636 1.06639 3.26318 0
M  V30 455 N 39.9087 -1.5758 0.0250728 0
M  V30 456 C 40.8407 -2.06869 -0.986796 0
M  V30 457 C 41.8537 -0.991332 -1.29137 0
M  V30 458 O 43.0427 -1.26761 -1.25674 0
M  V30 459 C 40.1427 -2.47486 -2.31525 0
M  V30 460 C 39.3157 -3.78253 -2.19643 0
M  V30 461 C 38.3747 -4.05464 -3.35388 0
M  V30 462 O 37.4007 -4.75774 -3.12454 0
M  V30 463 N 38.6027 -3.55321 -4.59051 0
M  V30 464 H 41.3677 -2.94302 -0.566276 0
M  V30 465 H 38.9287 -1.6109 -0.161776 0
M  V30 466 H 40.9207 -2.62785 -3.07776 0
M  V30 467 H 39.4907 -1.65441 -2.65232 0
M  V30 468 H 38.7107 -3.7279 -1.28144 0
M  V30 469 H 39.9987 -4.63936 -2.08903 0
M  V30 470 H 39.3967 -2.98431 -4.80578 0
M  V30 471 H 37.9537 -3.75905 -5.32483 0
M  V30 472 N 41.3868 0.248026 -1.55636 0
M  V30 473 C 42.3498 1.29044 -1.89421 0
M  V30 474 C 43.3498 1.41134 -0.770581 0
M  V30 475 O 44.5398 1.39854 -1.03858 0
M  V30 476 C 41.6718 2.66831 -2.12165 0
M  V30 477 H 42.8648 1.00305 -2.82629 0
M  V30 478 H 40.4178 0.487265 -1.48511 0
M  V30 479 H 41.1528 3.00711 -1.21422 0
M  V30 480 H 40.9378 2.59438 -2.93997 0
M  V30 481 H 42.4278 3.42103 -2.3949 0
M  V30 482 N 42.8649 1.48995 0.513639 0
M  V30 483 C 43.7969 1.60836 1.63293 0
M  V30 484 C 44.8099 0.491701 1.55197 0
M  V30 485 O 45.9989 0.763238 1.6136 0
M  V30 486 C 43.0989 1.53731 3.02027 0
M  V30 487 C 42.2719 2.80715 3.35437 0
M  V30 488 C 41.3309 2.66837 4.53525 0
M  V30 489 O 40.3569 3.40753 4.55934 0
M  V30 490 N 41.5589 1.77539 5.52684 0
M  V30 491 H 44.3239 2.57366 1.53566 0
M  V30 492 H 41.8849 1.45925 0.701259 0
M  V30 493 H 43.8769 1.42118 3.78926 0
M  V30 494 H 42.4469 0.651092 3.05744 0
M  V30 495 H 41.6669 3.06772 2.47557 0
M  V30 496 H 42.9549 3.64927 3.54551 0
M  V30 497 H 42.3529 1.16719 5.53528 0
M  V30 498 H 40.9099 1.71856 6.28736 0
M  V30 499 N 44.343 -0.763751 1.37857 0
M  V30 500 C 45.589 -1.52396 1.3471 0
M  V30 501 C 45.944 -1.92288 -0.0656435 0
M  V30 502 O 45.237 -1.6181 -1.02606 0
M  V30 503 C 45.431 -2.79499 2.22745 0
M  V30 504 C 45.26 -2.52031 3.72438 0
M  V30 505 C 44.03 -2.45759 4.4151 0
M  V30 506 C 46.228 -2.19489 4.65112 0
M  V30 507 N 44.21 -2.1046 5.76697 0
M  V30 508 C 45.581 -1.94396 5.88736 0
M  V30 509 C 47.636 -2.05712 4.53417 0
M  V30 510 C 46.339 -1.56917 7.01975 0
M  V30 511 C 48.365 -1.69634 5.66549 0
M  V30 512 C 47.727 -1.45407 6.89229 0
M  V30 513 H 43.826 -0.55765 0.548225 0
M  V30 514 H 46.41 -0.890302 1.73152 0
M  V30 515 H 44.581 -3.4069 1.86507 0
M  V30 516 H 46.313 -3.45465 2.10798 0
M  V30 517 H 43.068 -2.61885 3.94605 0
M  V30 518 H 43.492 -1.95484 6.48163 0
M  V30 519 H 48.134 -2.23123 3.59133 0
M  V30 520 H 45.852 -1.38246 7.96187 0
M  V30 521 H 49.438 -1.59621 5.59475 0
M  V30 522 H 48.318 -1.17904 7.75286 0
M  V30 523 N 45.8211 -1.22559 -0.990812 0
M  V30 524 C 47.2371 -0.985996 -1.255 0
M  V30 525 C 47.4371 0.319173 -1.98956 0
M  V30 526 O 46.4931 1.04127 -2.3003 0
M  V30 527 C 47.8061 -2.18607 -2.06474 0
M  V30 528 C 49.3541 -2.22985 -2.19651 0
M  V30 529 C 49.8291 -3.4255 -3.04012 0
M  V30 530 N 51.3201 -3.42725 -3.11599 0
M  V30 531 C 52.0551 -4.31892 -3.7717 0
M  V30 532 N 51.5511 -5.31279 -4.44651 0
M  V30 533 N 53.3441 -4.19662 -3.73952 0
M  V30 534 H 45.4951 -2.06469 -0.49841 0
M  V30 535 H 47.7581 -0.904853 -0.282747 0
M  V30 536 H 47.4641 -3.13267 -1.59865 0
M  V30 537 H 47.3381 -2.18838 -3.07229 0
M  V30 538 H 49.7251 -1.28871 -2.65474 0
M  V30 539 H 49.8061 -2.26791 -1.18319 0
M  V30 540 H 49.4501 -4.36965 -2.58889 0
M  V30 541 H 49.3801 -3.35984 -4.0549 0
M  V30 542 H 51.8711 -2.70807 -2.63575 0
M  V30 543 H 52.1841 -5.95593 -4.92431 0
M  V30 544 H 50.5291 -5.3519 -4.43392 0
M  V30 545 H 53.7201 -3.41268 -3.20396 0
M  V30 546 H 53.8931 -4.89358 -4.24774 0
M  V30 547 N 47.2992 1.18797 -1.03562 0
M  V30 548 C 48.2472 2.24297 -0.615905 0
M  V30 549 C 49.2412 1.65643 0.354808 0
M  V30 550 O 50.4472 1.78618 0.22265 0
M  V30 551 H 46.8222 0.729909 -0.180934 0
M  V30 552 H 48.7932 2.5701 -1.5162 0
M  V30 553 C 47.5422 3.47698 0.0104735 0
M  V30 554 H 46.8652 3.93125 -0.727509 0
M  V30 555 H 48.3052 4.23159 0.266995 0
M  V30 556 C 46.7642 3.12489 1.25905 0
M  V30 557 O 47.2942 3.25761 2.35038 0
M  V30 558 N 45.5002 2.6686 1.15039 0
M  V30 559 H 45.0472 2.56261 0.262328 0
M  V30 560 H 45.0052 2.43674 1.98672 0
M  V30 561 N 48.7773 0.814389 1.34928 0
M  V30 562 C 50.1883 0.458364 1.80986 0
M  V30 563 C 50.5393 -1.02042 1.67577 0
M  V30 564 O 49.6643 -1.79352 1.21086 0
M  V30 565 C 50.2593 0.825212 3.28597 0
M  V30 566 C 48.8183 0.521677 3.72767 0
M  V30 567 C 47.9653 1.04668 2.56788 0
M  V30 568 H 50.9163 1.00533 1.22795 0
M  V30 569 H 50.9373 0.12571 3.80292 0
M  V30 570 H 50.4493 1.90154 3.38324 0
M  V30 571 H 48.5503 -0.545589 3.68584 0
M  V30 572 H 48.6633 1.05977 4.67232 0
M  V30 573 H 47.0273 0.468622 2.50352 0
M  V30 574 H 47.8103 2.12927 2.6929 0
M  V30 575 N 50.2554 -1.46986 0.568584 0
M  V30 576 C 51.5014 -2.02741 0.0488709 0
M  V30 577 C 51.8344 -1.44077 -1.30214 0
M  V30 578 O 51.1094 -0.600552 -1.84996 0
M  V30 579 C 51.3924 -3.60086 -0.032047 0
M  V30 580 C 51.2454 -4.29162 1.34686 0
M  V30 581 C 52.5644 -4.33838 -0.739798 0
M  V30 582 H 49.6834 -0.736749 0.0192338 0
M  V30 583 H 52.3254 -1.75289 0.733065 0
M  V30 584 H 50.4754 -3.83606 -0.61473 0
M  V30 585 H 52.1474 -4.16948 1.97362 0
M  V30 586 H 50.3904 -3.89073 1.91846 0
M  V30 587 H 51.0614 -5.37826 1.24285 0
M  V30 588 H 53.5374 -4.15378 -0.244939 0
M  V30 589 H 52.4134 -5.43537 -0.765406 0
M  V30 590 H 52.6744 -4.03875 -1.79827 0
M  V30 591 N 51.7335 -0.305618 -1.54608 0
M  V30 592 C 52.6665 0.610536 -2.19881 0
M  V30 593 C 53.6445 1.1294 -1.16976 0
M  V30 594 O 54.8285 1.19673 -1.45638 0
M  V30 595 C 51.9555 1.83583 -2.84631 0
M  V30 596 C 51.0015 1.4498 -4.01102 0
M  V30 597 S 51.8345 0.501793 -5.33144 0
M  V30 598 C 52.9905 1.73478 -6.01379 0
M  V30 599 H 53.2235 0.0560177 -2.97247 0
M  V30 600 H 50.7565 -0.0897434 -1.54139 0
M  V30 601 H 52.7145 2.53898 -3.22562 0
M  V30 602 H 51.3755 2.36152 -2.07102 0
M  V30 603 H 50.5685 2.36236 -4.45206 0
M  V30 604 H 50.1705 0.826553 -3.64752 0
M  V30 605 H 52.4625 2.67473 -6.22467 0
M  V30 606 H 53.4055 1.33622 -6.95378 0
M  V30 607 H 53.8135 1.9136 -5.31076 0
M  V30 608 N 53.2116 1.57565 -0.0334293 0
M  V30 609 C 54.4586 1.91978 0.644272 0
M  V30 610 C 54.7866 0.910231 1.71887 0
M  V30 611 O 54.0416 -0.0801961 1.95536 0
M  V30 612 C 54.3406 3.33112 1.29504 0
M  V30 613 C 54.0066 4.49537 0.350388 0
M  V30 614 C 52.6686 4.81115 0.0903974 0
M  V30 615 C 55.0206 5.20347 -0.298032 0
M  V30 616 C 52.3486 5.8086 -0.825746 0
M  V30 617 C 54.7006 6.2107 -1.20226 0
M  V30 618 C 53.3646 6.51088 -1.4711 0
M  V30 619 H 52.6346 0.702496 0.235756 0
M  V30 620 H 55.2816 1.91259 -0.0961176 0
M  V30 621 H 53.5866 3.30113 2.11028 0
M  V30 622 H 55.2836 3.57011 1.82603 0
M  V30 623 H 51.8736 4.24883 0.563205 0
M  V30 624 H 56.0576 4.96178 -0.110234 0
M  V30 625 H 51.3136 6.02461 -1.04169 0
M  V30 626 H 55.4876 6.75057 -1.71086 0
M  V30 627 H 53.1146 7.28193 -2.18264 0
M  V30 628 N 54.6897 -0.239769 1.55765 0
M  V30 629 C 55.9387 -0.964754 1.77131 0
M  V30 630 C 56.2517 -1.86213 0.59868 0
M  V30 631 O 57.4577 -2.6244 0.695522 0
M  V30 632 C 55.9137 -1.76552 3.1362 0
M  V30 633 C 55.5217 -0.915185 4.38553 0
M  V30 634 C 57.2657 -2.48281 3.44321 0
M  V30 635 C 55.1727 -1.71225 5.66071 0
M  V30 636 H 54.1027 -0.363953 0.660344 0
M  V30 637 H 56.7537 -0.219181 1.82186 0
M  V30 638 H 55.1357 -2.55331 3.02691 0
M  V30 639 H 56.3097 -0.169217 4.60489 0
M  V30 640 H 54.6247 -0.310889 4.15238 0
M  V30 641 H 57.2217 -3.08382 4.36812 0
M  V30 642 H 57.5647 -3.20256 2.65973 0
M  V30 643 H 58.0977 -1.76507 3.56497 0
M  V30 644 H 54.8367 -1.03612 6.4726 0
M  V30 645 H 54.3567 -2.43331 5.48224 0
M  V30 646 H 56.0357 -2.27758 6.05587 0
M  V30 647 N 56.1678 -1.49265 -0.50573 0
M  V30 648 C 57.4138 -1.58748 -1.26202 0
M  V30 649 C 57.7468 -0.271227 -1.92297 0
M  V30 650 O 57.0218 0.724831 -1.80489 0
M  V30 651 C 57.3048 -2.74332 -2.33268 0
M  V30 652 C 57.1578 -4.15737 -1.71705 0
M  V30 653 C 58.4768 -2.85576 -3.34865 0
M  V30 654 H 55.5958 -0.577826 -0.457478 0
M  V30 655 H 58.2378 -1.81532 -0.560897 0
M  V30 656 H 56.3878 -2.55036 -2.93068 0
M  V30 657 H 58.0598 -4.46537 -1.15769 0
M  V30 658 H 56.3028 -4.21605 -1.02135 0
M  V30 659 H 56.9738 -4.92477 -2.49341 0
M  V30 660 H 59.4498 -3.03127 -2.8505 0
M  V30 661 H 58.3258 -3.68135 -4.07146 0
M  V30 662 H 58.5868 -1.94732 -3.96903 0
M  V30 663 N 57.6459 0.756429 -1.3826 0
M  V30 664 C 58.8919 1.5168 -1.35517 0
M  V30 665 C 59.2469 1.9232 0.0554451 0
M  V30 666 O 58.5399 1.62352 1.01746 0
M  V30 667 C 58.7339 2.78313 -2.24224 0
M  V30 668 C 58.5629 2.50053 -3.7377 0
M  V30 669 C 57.3329 2.43414 -4.42807 0
M  V30 670 C 59.5309 2.1702 -4.66269 0
M  V30 671 N 57.5129 2.07398 -5.77805 0
M  V30 672 C 58.8839 1.91271 -5.89759 0
M  V30 673 C 60.9389 2.03305 -4.54501 0
M  V30 674 C 59.6419 1.53192 -7.02798 0
M  V30 675 C 61.6679 1.66627 -5.67441 0
M  V30 676 C 61.0299 1.4175 -6.8999 0
M  V30 677 H 57.1289 0.554735 -0.551174 0
M  V30 678 H 59.7129 0.881106 -1.73622 0
M  V30 679 H 57.8839 3.39696 -1.88311 0
M  V30 680 H 59.6159 3.44343 -2.12627 0
M  V30 681 H 56.3709 2.59789 -3.95988 0
M  V30 682 H 56.7949 1.92044 -6.4919 0
M  V30 683 H 61.4369 2.21215 -3.60311 0
M  V30 684 H 59.1549 1.34022 -7.96909 0
M  V30 685 H 62.7409 1.56652 -5.60314 0
M  V30 686 H 61.6209 1.1379 -7.759 0
M  V30 687 N 59.124 1.23083 0.984299 0
M  V30 688 C 60.373 1.05466 1.71929 0
M  V30 689 C 60.686 -0.409211 1.91272 0
M  V30 690 O 61.892 -0.705226 2.62181 0
M  V30 691 C 60.348 1.83874 3.09384 0
M  V30 692 C 59.956 3.34566 2.97943 0
M  V30 693 C 61.7 1.74734 3.8687 0
M  V30 694 C 59.607 4.05381 4.30605 0
M  V30 695 H 58.537 0.391039 0.644674 0
M  V30 696 H 61.188 1.47013 1.09815 0
M  V30 697 H 59.57 1.35131 3.72231 0
M  V30 698 H 60.744 3.90767 2.44209 0
M  V30 699 H 59.059 3.44476 2.33934 0
M  V30 700 H 61.656 2.24957 4.85076 0
M  V30 701 H 61.999 0.709372 4.10212 0
M  V30 702 H 62.532 2.21067 3.30717 0
M  V30 703 H 59.271 5.09467 4.1246 0
M  V30 704 H 58.791 3.53967 4.84218 0
M  V30 705 H 60.47 4.11458 4.99311 0
M  V30 706 N 60.6021 -1.18246 1.0419 0
M  V30 707 C 61.8501 -1.87886 0.744543 0
M  V30 708 C 62.1711 -1.8082 -0.730006 0
M  V30 709 O 61.4411 -1.22736 -1.52685 0
M  V30 710 H 60.0211 -0.695556 0.272417 0
M  V30 711 H 62.6831 -1.43494 1.31892 0
M  V30 712 H 61.7791 -2.9389 1.05049 0
M  V30 713 N 62.0802 -0.821533 -1.34494 0
M  V30 714 C 63.3052 -0.420873 -2.03085 0
M  V30 715 C 63.7302 0.964915 -1.61465 0
M  V30 716 O 63.0882 1.62763 -0.798607 0
M  V30 717 C 63.1362 -0.529414 -3.56693 0
M  V30 718 O 62.2402 0.451302 -4.09923 0
M  V30 719 H 61.5812 -0.173489 -0.640935 0
M  V30 720 H 64.1112 -1.11157 -1.71771 0
M  V30 721 H 64.1212 -0.404671 -4.05988 0
M  V30 722 H 62.7962 -1.54014 -3.86332 0
M  V30 723 H 61.3732 0.285558 -3.71805 0
M  V30 724 N 63.5583 1.46682 -0.576371 0
M  V30 725 C 64.4883 2.33028 0.148397 0
M  V30 726 C 65.4693 1.44961 0.889956 0
M  V30 727 O 66.6543 1.73789 0.866662 0
M  V30 728 C 63.7843 3.27117 1.1667 0
M  V30 729 C 62.7383 4.24575 0.540386 0
M  V30 730 C 62.0643 5.08126 1.6647 0
M  V30 731 C 63.3643 5.19722 -0.518331 0
M  V30 732 H 65.0583 2.93875 -0.572509 0
M  V30 733 H 62.6043 1.41315 -0.276768 0
M  V30 734 H 64.5573 3.86374 1.68204 0
M  V30 735 H 63.2813 2.64364 1.9178 0
M  V30 736 H 61.9403 3.66571 0.0461769 0
M  V30 737 H 61.5883 4.41762 2.40531 0
M  V30 738 H 61.2883 5.74122 1.25131 0
M  V30 739 H 62.8123 5.70246 2.18293 0
M  V30 740 H 64.2263 5.73232 -0.0883058 0
M  V30 741 H 62.6233 5.94026 -0.851679 0
M  V30 742 H 63.6933 4.64037 -1.40703 0
M  V30 743 N 65.0364 0.313813 1.54444 0
M  V30 744 C 65.9664 -0.549454 2.26943 0
M  V30 745 C 66.9474 -1.12741 1.27372 0
M  V30 746 O 68.1324 -1.15436 1.56167 0
M  V30 747 C 65.2624 -1.71523 3.01989 0
M  V30 748 C 64.2164 -1.26703 4.08816 0
M  V30 749 C 63.5424 -2.51898 4.71647 0
M  V30 750 C 64.8424 -0.388962 5.2085 0
M  V30 751 H 66.5364 0.0552661 2.99349 0
M  V30 752 H 64.0824 0.0280207 1.43973 0
M  V30 753 H 66.0354 -2.32535 3.51433 0
M  V30 754 H 64.7594 -2.34639 2.27183 0
M  V30 755 H 63.4184 -0.679896 3.6024 0
M  V30 756 H 63.0664 -3.13356 3.93468 0
M  V30 757 H 62.7664 -2.22605 5.43802 0
M  V30 758 H 64.2904 -3.1369 5.23861 0
M  V30 759 H 65.7044 -0.905107 5.6611 0
M  V30 760 H 64.1014 -0.18924 5.99802 0
M  V30 761 H 65.1714 0.582699 4.81386 0
M  V30 762 N 66.5145 -1.57545 0.0417849 0
M  V30 763 C 67.7425 -1.96624 -0.643928 0
M  V30 764 C 68.1575 -0.918897 -1.64929 0
M  V30 765 O 67.5145 0.0979323 -1.82237 0
M  V30 766 C 67.5655 -3.35781 -1.33914 0
M  V30 767 O 67.2865 -4.365 -0.374048 0
M  V30 768 C 68.7875 -3.89566 -2.1155 0
M  V30 769 H 66.0075 -0.647316 -0.176702 0
M  V30 770 H 68.5515 -2.04229 0.105304 0
M  V30 771 H 66.7065 -3.29357 -2.03968 0
M  V30 772 H 67.1205 -5.17248 -0.869179 0
M  V30 773 H 68.5945 -4.89242 -2.55628 0
M  V30 774 H 69.0715 -3.24488 -2.9598 0
M  V30 775 H 69.6775 -3.99298 -1.46427 0
M  V30 776 N 67.9926 0.231505 -1.5589 0
M  V30 777 C 69.2206 0.974505 -1.82513 0
M  V30 778 C 69.6356 1.78344 -0.619591 0
M  V30 779 O 68.9926 1.77792 0.411848 0
M  V30 780 C 69.0436 1.90007 -3.07538 0
M  V30 781 O 68.7646 1.12385 -4.2344 0
M  V30 782 C 70.2656 2.75779 -3.47075 0
M  V30 783 H 67.4856 0.286065 -0.606966 0
M  V30 784 H 70.0296 0.249739 -2.02969 0
M  V30 785 H 68.1846 2.57891 -2.89086 0
M  V30 786 H 68.5986 1.75125 -4.944 0
M  V30 787 H 70.0726 3.36443 -4.37619 0
M  V30 788 H 70.5496 3.47672 -2.68367 0
M  V30 789 H 71.1556 2.13323 -3.67931 0
M  V30 790 N 69.4707 1.49531 0.497807 0
M  V30 791 C 70.7107 1.60799 1.26187 0
M  V30 792 C 71.0747 0.289627 1.89803 0
M  V30 793 O 72.2757 0.277512 2.67364 0
M  V30 794 C 70.5467 2.73729 2.29798 0
M  V30 795 S 72.1057 3.04968 3.155 0
M  V30 796 H 68.9237 0.567145 0.428798 0
M  V30 797 H 71.5257 1.87204 0.563477 0
M  V30 798 H 70.2297 3.68036 1.81597 0
M  V30 799 H 69.7607 2.49328 3.04301 0
M  V30 800 H 71.7757 2.46735 4.30507 0
M  V30 801 N 70.9488 -0.749086 1.3866 0
M  V30 802 C 72.1978 -1.50371 1.3443 0
M  V30 803 C 72.5108 -1.95503 -0.0616397 0
M  V30 804 O 73.7168 -2.70554 -0.226489 0
M  V30 805 C 72.1728 -2.71644 2.36088 0
M  V30 806 C 71.7808 -2.3352 3.82325 0
M  V30 807 C 73.5248 -3.49518 2.40909 0
M  V30 808 C 71.4318 -3.51431 4.75658 0
M  V30 809 H 70.3618 -0.564628 0.499712 0
M  V30 810 H 73.0128 -0.818449 1.64237 0
M  V30 811 H 71.3948 -3.42175 1.9933 0
M  V30 812 H 72.5688 -1.70627 4.28046 0
M  V30 813 H 70.8838 -1.6877 3.80665 0
M  V30 814 H 73.4808 -4.37197 3.07836 0
M  V30 815 H 73.8238 -3.90992 1.42937 0
M  V30 816 H 74.3568 -2.86005 2.76489 0
M  V30 817 H 71.0958 -3.15019 5.74842 0
M  V30 818 H 70.6158 -4.13352 4.34627 0
M  V30 819 H 72.2948 -4.17953 4.93887 0
M  V30 820 N 72.4269 -1.23603 -0.977757 0
M  V30 821 C 73.6519 -1.09735 -1.75991 0
M  V30 822 C 74.0769 0.346858 -1.84874 0
M  V30 823 O 73.4349 1.25093 -1.3123 0
M  V30 824 C 73.4829 -1.73051 -3.16363 0
M  V30 825 O 72.5869 -0.994452 -4.0023 0
M  V30 826 H 71.9279 -0.384476 -0.541364 0
M  V30 827 H 74.4579 -1.6371 -1.2272 0
M  V30 828 H 74.4679 -1.78398 -3.66931 0
M  V30 829 H 73.1429 -2.78137 -3.09213 0
M  V30 830 H 71.7199 -1.01812 -3.58732 0
M  V30 831 N 73.905 1.17692 -1.04816 0
M  V30 832 C 75.154 1.87192 -0.751132 0
M  V30 833 C 75.467 1.8169 0.724441 0
M  V30 834 O 76.673 2.46625 1.13527 0
M  V30 835 C 75.129 3.35857 -1.29338 0
M  V30 836 C 74.737 3.4987 -2.79812 0
M  V30 837 C 76.481 4.10709 -1.07322 0
M  V30 838 C 74.388 4.92536 -3.27356 0
M  V30 839 H 73.318 0.701162 -0.277288 0
M  V30 840 H 75.969 1.32932 -1.26496 0
M  V30 841 H 74.351 3.89631 -0.707376 0
M  V30 842 H 75.525 3.06332 -3.44235 0
M  V30 843 H 73.84 2.88433 -3.00325 0
M  V30 844 H 76.437 5.15952 -1.4035 0
M  V30 845 H 76.78 4.16299 -0.0108001 0
M  V30 846 H 77.313 3.6313 -1.62423 0
M  V30 847 H 74.052 4.92119 -4.33012 0
M  V30 848 H 73.572 5.3676 -2.67673 0
M  V30 849 H 75.251 5.61288 -3.21815 0
M  V30 850 N 75.3831 0.828654 1.34056 0
M  V30 851 C 76.3461 0.259927 2.27721 0
M  V30 852 C 77.3461 -0.565478 1.50529 0
M  V30 853 O 78.5361 -0.38075 1.69988 0
M  V30 854 C 75.6681 -0.634944 3.34935 0
M  V30 855 H 76.8611 1.0863 2.79534 0
M  V30 856 H 74.4141 0.600951 1.44285 0
M  V30 857 H 75.1491 -1.48416 2.88346 0
M  V30 858 H 74.9341 -0.0444999 3.92075 0
M  V30 859 H 76.4241 -1.02648 4.04788 0
M  V30 860 N 76.8612 -1.46375 0.584142 0
M  V30 861 C 77.7942 -2.27351 -0.196676 0
M  V30 862 C 78.7722 -1.35715 -0.895561 0
M  V30 863 O 79.9562 -1.65126 -0.90916 0
M  V30 864 C 77.0832 -3.13486 -1.28235 0
M  V30 865 C 76.1292 -4.20896 -0.689145 0
M  V30 866 S 76.9622 -5.33299 0.48507 0
M  V30 867 C 78.1182 -6.23 -0.601767 0
M  V30 868 H 78.3512 -2.93228 0.490395 0
M  V30 869 H 75.8842 -1.49875 0.371071 0
M  V30 870 H 77.8422 -3.63676 -1.90395 0
M  V30 871 H 76.5032 -2.4692 -1.94138 0
M  V30 872 H 75.6962 -4.80997 -1.50527 0
M  V30 873 H 75.2982 -3.73726 -0.143181 0
M  V30 874 H 77.5902 -6.60979 -1.48705 0
M  V30 875 H 78.5332 -7.0809 -0.0374799 0
M  V30 876 H 78.9412 -5.57173 -0.906557 0
M  V30 877 N 78.3393 -0.321999 -1.54275 0
M  V30 878 C 79.3023 0.531975 -2.22941 0
M  V30 879 C 80.3023 1.04478 -1.22234 0
M  V30 880 O 81.4923 0.937452 -1.46825 0
M  V30 881 C 78.6243 1.73874 -2.93224 0
M  V30 882 H 79.8173 -0.0682612 -2.99822 0
M  V30 883 H 77.3703 -0.0730644 -1.56129 0
M  V30 884 H 78.1053 2.37825 -2.20476 0
M  V30 885 H 77.8903 1.37847 -3.6707 0
M  V30 886 H 79.3803 2.34496 -3.45545 0
M  V30 887 N 79.8174 1.5752 -0.0501392 0
M  V30 888 C 81.0424 1.97376 0.636997 0
M  V30 889 C 81.4674 0.927466 1.63645 0
M  V30 890 O 80.8254 -0.10941 1.8097 0
M  V30 891 C 80.8734 3.36304 1.30123 0
M  V30 892 O 79.9774 3.34156 2.41689 0
M  V30 893 H 79.3184 0.642998 0.165679 0
M  V30 894 H 81.8484 2.04258 -0.118233 0
M  V30 895 H 81.8584 3.73008 1.65315 0
M  V30 896 H 80.5334 4.11993 0.568746 0
M  V30 897 H 79.1104 3.09196 2.08451 0
M  V30 898 N 81.2955 -0.223234 1.56011 0
M  V30 899 C 82.5435 -0.946003 1.78592 0
M  V30 900 C 82.8645 -1.84936 0.618349 0
M  V30 901 O 82.1345 -1.92473 -0.364833 0
M  V30 902 H 80.7145 -0.352298 0.658707 0
M  V30 903 H 83.3765 -0.235494 1.93472 0
M  V30 904 H 82.4725 -1.55381 2.70672 0
M  V30 905 N 82.7736 -1.49793 -0.48987 0
M  V30 906 C 83.7366 -1.66752 -1.57246 0
M  V30 907 C 84.7366 -0.538867 -1.51502 0
M  V30 908 O 85.9266 -0.805545 -1.54456 0
M  V30 909 C 83.0586 -1.67528 -2.96896 0
M  V30 910 H 84.2516 -2.63321 -1.43534 0
M  V30 911 H 81.8046 -1.38992 -0.714914 0
M  V30 912 H 82.5396 -0.725837 -3.16073 0
M  V30 913 H 82.3246 -2.49504 -3.02473 0
M  V30 914 H 83.8146 -1.82667 -3.7553 0
M  V30 915 N 84.2517 0.741722 -1.39055 0
M  V30 916 C 85.1847 1.86416 -1.31622 0
M  V30 917 C 86.1627 1.61473 -0.191076 0
M  V30 918 O 87.3467 1.84825 -0.370399 0
M  V30 919 C 84.4737 3.22266 -1.04221 0
M  V30 920 C 83.5197 3.66079 -2.18834 0
M  V30 921 S 84.3527 3.7623 -3.81066 0
M  V30 922 C 85.5087 5.14881 -3.55877 0
M  V30 923 H 85.7417 1.92437 -2.26617 0
M  V30 924 H 83.2747 0.905907 -1.25031 0
M  V30 925 H 85.2327 4.00714 -0.890964 0
M  V30 926 H 83.8937 3.1391 -0.109237 0
M  V30 927 H 83.0867 4.64648 -1.95238 0
M  V30 928 H 82.6887 2.94817 -2.30128 0
M  V30 929 H 84.9807 6.01006 -3.12726 0
M  V30 930 H 85.9237 5.43503 -4.53884 0
M  V30 931 H 86.3317 4.84239 -2.90126 0
M  V30 932 N 85.7298 1.2412 0.971189 0
M  V30 933 C 87.1408 1.07236 1.52831 0
M  V30 934 C 87.4918 -0.357352 1.92918 0
M  V30 935 O 86.6168 -1.24528 1.76979 0
M  V30 936 C 87.2118 1.94043 2.77728 0
M  V30 937 C 85.7708 1.81394 3.29808 0
M  V30 938 C 84.9178 1.89189 2.02738 0
M  V30 939 H 87.8688 1.37648 0.789864 0
M  V30 940 H 87.8898 1.47066 3.5093 0
M  V30 941 H 87.4018 2.98093 2.4852 0
M  V30 942 H 85.5028 0.801634 3.63874 0
M  V30 943 H 85.6158 2.65294 3.98944 0
M  V30 944 H 83.9798 1.32877 2.17292 0
M  V30 945 H 84.7628 2.94812 1.759 0
M  V30 946 N 87.2079 -1.17134 1.05439 0
M  V30 947 C 88.4559 -1.87085 0.764429 0
M  V30 948 C 88.7769 -1.81584 -0.710787 0
M  V30 949 O 88.0469 -1.24349 -1.51374 0
M  V30 950 H 86.6269 -0.692627 0.279779 0
M  V30 951 H 89.2889 -1.42087 1.33406 0
M  V30 952 H 88.3849 -2.92759 1.0816 0
M  V30 953 N 88.686 -0.835752 -1.33615 0
M  V30 954 C 89.634 -0.255238 -2.31195 0
M  V30 955 C 90.628 0.61107 -1.57995 0
M  V30 956 O 91.834 0.500979 -1.72888 0
M  V30 957 H 88.209 -0.0638085 -0.749288 0
M  V30 958 H 90.18 -1.09283 -2.77669 0
M  V30 959 C 88.929 0.55754 -3.43201 0
M  V30 960 H 88.252 -0.0997553 -3.99676 0
M  V30 961 H 89.692 0.929622 -4.13683 0
M  V30 962 C 88.151 1.73515 -2.88781 0
M  V30 963 O 88.681 2.83376 -2.84712 0
M  V30 964 N 86.887 1.55603 -2.4543 0
M  V30 965 H 86.434 0.662354 -2.48939 0
M  V30 966 H 86.392 2.34545 -2.09371 0
M  V30 967 N 90.1641 1.46063 -0.591896 0
M  V30 968 C 91.1271 2.28854 0.125973 0
M  V30 969 C 92.1271 1.38903 0.810107 0
M  V30 970 O 93.3171 1.61186 0.66066 0
M  V30 971 C 90.4491 3.19526 1.1881 0
M  V30 972 H 91.6421 2.93802 -0.601717 0
M  V30 973 H 89.1951 1.52325 -0.350254 0
M  V30 974 H 89.9301 2.59345 1.94707 0
M  V30 975 H 89.7151 3.85766 0.701936 0
M  V30 976 H 91.2051 3.81817 1.69132 0
M  V30 977 N 91.6422 0.330177 1.54103 0
M  V30 978 C 92.5722 -0.525353 2.27513 0
M  V30 979 C 93.5532 -1.11383 1.2856 0
M  V30 980 O 94.7382 -1.13773 1.57383 0
M  V30 981 C 91.8682 -1.6831 3.03791 0
M  V30 982 C 90.8222 -1.2236 4.10137 0
M  V30 983 C 90.1482 -2.46882 4.74293 0
M  V30 984 C 91.4482 -0.333697 5.21233 0
M  V30 985 H 93.1422 0.087013 2.99274 0
M  V30 986 H 90.6882 0.0432893 1.43935 0
M  V30 987 H 92.6412 -2.28795 3.5388 0
M  V30 988 H 91.3652 -2.32216 2.29659 0
M  V30 989 H 90.0242 -0.64165 3.60941 0
M  V30 990 H 89.6722 -3.09165 3.96769 0
M  V30 991 H 89.3722 -2.16825 5.46133 0
M  V30 992 H 90.8962 -3.08117 5.27159 0
M  V30 993 H 92.3102 -0.845013 5.67038 0
M  V30 994 H 90.7072 -0.125612 5.99969 0
M  V30 995 H 91.7772 0.633724 4.80741 0
M  V30 996 N 93.1203 -1.57491 0.0584922 0
M  V30 997 C 94.3673 -1.92978 -0.613648 0
M  V30 998 C 94.6953 -0.937461 -1.70417 0
M  V30 999 O 93.9503 0.049078 -1.95638 0
M  V30 1000 C 94.2493 -3.3513 -1.24188 0
M  V30 1001 C 93.9153 -4.50037 -0.278826 0
M  V30 1002 C 92.5773 -4.81198 -0.0138447 0
M  V30 1003 C 94.9293 -5.19807 0.380777 0
M  V30 1004 C 92.2573 -5.79473 0.918052 0
M  V30 1005 C 94.6093 -6.19079 1.30091 0
M  V30 1006 C 93.2733 -6.48665 1.57449 0
M  V30 1007 H 92.5433 -0.706157 -0.22455 0
M  V30 1008 H 95.1903 -1.91082 0.126533 0
M  V30 1009 H 93.4953 -3.33429 -2.05749 0
M  V30 1010 H 95.1923 -3.59871 -1.769 0
M  V30 1011 H 91.7823 -4.25726 -0.495539 0
M  V30 1012 H 95.9663 -4.95939 0.189158 0
M  V30 1013 H 91.2223 -6.00727 1.1374 0
M  V30 1014 H 95.3963 -6.7225 1.81804 0
M  V30 1015 H 93.0233 -7.24628 2.29822 0
M  V30 1016 N 94.5984 0.214957 -1.56127 0
M  V30 1017 C 95.8234 0.95924 -1.83884 0
M  V30 1018 C 96.2484 1.7689 -0.639644 0
M  V30 1019 O 95.6064 1.76566 0.411601 0
M  V30 1020 C 95.6544 1.84723 -3.09693 0
M  V30 1021 O 94.7584 2.94346 -2.8885 0
M  V30 1022 H 94.0994 0.27125 -0.606069 0
M  V30 1023 H 96.6294 0.226276 -2.03345 0
M  V30 1024 H 96.6394 2.25576 -3.39969 0
M  V30 1025 H 95.3144 1.25218 -3.96602 0
M  V30 1026 H 93.8914 2.57391 -2.69823 0
M  V30 1027 N 96.0765 1.50051 0.48192 0
M  V30 1028 C 97.0395 1.67584 1.5636 0
M  V30 1029 C 98.0395 0.546894 1.51214 0
M  V30 1030 O 99.2295 0.813725 1.54026 0
M  V30 1031 C 96.3615 1.691 2.96003 0
M  V30 1032 H 97.5545 2.64078 1.42136 0
M  V30 1033 H 95.1075 1.39369 0.707533 0
M  V30 1034 H 95.8425 0.742589 3.15684 0
M  V30 1035 H 95.6275 2.51105 3.01146 0
M  V30 1036 H 97.1175 1.84656 3.74556 0
M  V30 1037 N 97.5546 -0.734337 1.39446 0
M  V30 1038 C 98.5176 -1.83004 1.37994 0
M  V30 1039 C 99.5176 -1.58397 0.276938 0
M  V30 1040 O 100.708 -1.65785 0.534875 0
M  V30 1041 C 97.8396 -3.20802 1.1532 0
M  V30 1042 H 99.0326 -1.85694 2.35494 0
M  V30 1043 H 96.5856 -0.938059 1.25021 0
M  V30 1044 H 97.3206 -3.23772 0.185036 0
M  V30 1045 H 97.1056 -3.4006 1.95197 0
M  V30 1046 H 98.5956 -4.00862 1.17046 0
M  V30 1047 N 99.0327 -1.24633 -0.964593 0
M  V30 1048 C 100.282 -1.08188 -1.7023 0
M  V30 1049 C 100.595 0.37873 -1.91898 0
M  V30 1050 O 101.801 0.663427 -2.6327 0
M  V30 1051 C 100.257 -1.88773 -3.06419 0
M  V30 1052 C 99.8647 -3.39263 -2.92582 0
M  V30 1053 C 101.609 -1.80867 -3.84041 0
M  V30 1054 C 99.5157 -4.1218 -4.24101 0
M  V30 1055 H 98.4457 -0.401245 -0.638372 0
M  V30 1056 H 101.097 -1.48742 -1.07462 0
M  V30 1057 H 99.4787 -1.41035 -3.70034 0
M  V30 1058 H 100.653 -3.94603 -2.37961 0
M  V30 1059 H 98.9677 -3.48154 -2.28424 0
M  V30 1060 H 101.565 -2.32646 -4.81435 0
M  V30 1061 H 101.908 -0.774543 -4.09031 0
M  V30 1062 H 102.441 -2.26301 -3.27159 0
M  V30 1063 H 99.1797 -5.15965 -4.04303 0
M  V30 1064 H 98.6997 -3.61626 -4.78526 0
M  V30 1065 H 100.379 -4.19349 -4.92702 0
M  V30 1066 N 100.511 1.16574 -1.06058 0
M  V30 1067 C 101.736 1.91493 -0.796562 0
M  V30 1068 C 102.161 1.76773 0.642868 0
M  V30 1069 O 101.519 1.09142 1.44768 0
M  V30 1070 C 101.567 3.40293 -1.19303 0
M  V30 1071 O 100.671 4.11074 -0.330394 0
M  V30 1072 H 100.012 0.596678 -0.291326 0
M  V30 1073 H 102.542 1.47708 -1.41575 0
M  V30 1074 H 102.552 3.91057 -1.16356 0
M  V30 1075 H 101.227 3.50326 -2.24153 0
M  V30 1076 H 99.8038 3.70513 -0.421225 0
M  V30 1077 N 101.989 0.842826 1.3317 0
M  V30 1078 C 103.237 0.439577 1.97262 0
M  V30 1079 C 103.558 -1.00548 1.67078 0
M  V30 1080 O 102.828 -1.70098 0.971779 0
M  V30 1081 H 101.408 0.159558 0.72976 0
M  V30 1082 H 104.07 1.07665 1.62463 0
M  V30 1083 H 103.166 0.574886 3.0676 0
M  V30 1084 N 103.467 -1.45747 0.599634 0
M  V30 1085 C 104.713 -2.03153 0.100263 0
M  V30 1086 C 105.068 -1.46073 -1.25221 0
M  V30 1087 O 104.361 -0.622878 -1.81193 0
M  V30 1088 C 104.555 -3.57399 -0.00602758 0
M  V30 1089 C 104.384 -4.2944 1.3346 0
M  V30 1090 C 103.154 -4.6768 1.91321 0
M  V30 1091 C 105.352 -4.61905 2.2616 0
M  V30 1092 N 103.334 -5.24544 3.18946 0
M  V30 1093 C 104.705 -5.19518 3.3838 0
M  V30 1094 C 106.76 -4.43841 2.25631 0
M  V30 1095 C 105.463 -5.60972 4.50226 0
M  V30 1096 C 107.489 -4.86322 3.36518 0
M  V30 1097 C 106.851 -5.44021 4.4746 0
M  V30 1098 H 102.95 -0.777911 0.0798696 0
M  V30 1099 H 105.534 -1.77674 0.796244 0
M  V30 1100 H 103.705 -3.82556 -0.671212 0
M  V30 1101 H 105.437 -4.01457 -0.51133 0
M  V30 1102 H 102.192 -4.5098 1.44617 0
M  V30 1103 H 102.616 -5.57483 3.84112 0
M  V30 1104 H 107.258 -3.98552 1.41123 0
M  V30 1105 H 104.976 -6.0523 5.35464 0
M  V30 1106 H 108.562 -4.74084 3.37247 0
M  V30 1107 H 107.442 -5.76289 5.31846 0
M  V30 1108 N 104.945 -0.338344 -1.53925 0
M  V30 1109 C 105.875 0.51328 -2.27789 0
M  V30 1110 C 106.856 1.107 -1.29149 0
M  V30 1111 O 108.041 1.12937 -1.57984 0
M  V30 1112 C 105.171 1.66697 -3.04679 0
M  V30 1113 C 104.125 1.20183 -4.1078 0
M  V30 1114 C 103.451 2.44363 -4.75595 0
M  V30 1115 C 104.751 0.30605 -5.21403 0
M  V30 1116 H 106.445 -0.102883 -2.99223 0
M  V30 1117 H 103.991 -0.0509219 -1.4391 0
M  V30 1118 H 105.944 2.26915 -3.55088 0
M  V30 1119 H 104.668 2.30995 -2.30887 0
M  V30 1120 H 103.327 0.622499 -3.61276 0
M  V30 1121 H 102.975 3.07057 -3.98403 0
M  V30 1122 H 102.675 2.13925 -5.47275 0
M  V30 1123 H 104.199 3.05317 -5.28786 0
M  V30 1124 H 105.613 0.814929 -5.67478 0
M  V30 1125 H 104.01 0.0937929 -6.00027 0
M  V30 1126 H 105.08 -0.65921 -4.80398 0
M  V30 1127 N 106.423 1.57458 -0.0668435 0
M  V30 1128 C 107.669 1.94401 0.598316 0
M  V30 1129 C 108.024 0.946335 1.67518 0
M  V30 1130 O 107.317 -0.0321442 1.91573 0
M  V30 1131 C 107.511 3.35784 1.22409 0
M  V30 1132 C 107.34 4.49212 0.209367 0
M  V30 1133 C 106.11 5.04887 -0.204218 0
M  V30 1134 C 108.308 5.11335 -0.551431 0
M  V30 1135 N 106.29 6.01854 -1.21016 0
M  V30 1136 C 107.661 6.03754 -1.41 0
M  V30 1137 C 109.716 4.94173 -0.608038 0
M  V30 1138 C 108.419 6.80854 -2.32013 0
M  V30 1139 C 110.445 5.71912 -1.50566 0
M  V30 1140 C 109.807 6.63976 -2.35191 0
M  V30 1141 H 105.906 0.758538 0.190114 0
M  V30 1142 H 108.49 1.94175 -0.142832 0
M  V30 1143 H 106.661 3.36757 1.93518 0
M  V30 1144 H 108.393 3.59976 1.84931 0
M  V30 1145 H 105.148 4.73266 0.177908 0
M  V30 1146 H 105.572 6.55035 -1.71049 0
M  V30 1147 H 110.214 4.22788 0.032022 0
M  V30 1148 H 107.932 7.5152 -2.97057 0
M  V30 1149 H 111.518 5.60656 -1.55423 0
M  V30 1150 H 110.398 7.2308 -3.03522 0
M  V30 1151 N 107.901 -0.206675 1.56239 0
M  V30 1152 C 109.15 -0.926964 1.79138 0
M  V30 1153 C 109.463 -1.84901 0.638043 0
M  V30 1154 O 110.669 -2.60906 0.751033 0
M  V30 1155 C 109.125 -1.6986 3.17294 0
M  V30 1156 C 108.733 -0.821956 4.40395 0
M  V30 1157 C 110.477 -2.40922 3.4951 0
M  V30 1158 C 108.384 -1.59179 5.69575 0
M  V30 1159 H 107.314 -0.349864 0.667915 0
M  V30 1160 H 109.965 -0.180487 1.8261 0
M  V30 1161 H 108.347 -2.48853 3.08039 0
M  V30 1162 H 109.521 -0.0715019 4.60745 0
M  V30 1163 H 107.836 -0.222741 4.15804 0
M  V30 1164 H 110.433 -2.99047 4.43255 0
M  V30 1165 H 110.776 -3.14542 2.72707 0
M  V30 1166 H 111.309 -1.68905 3.60161 0
M  V30 1167 H 108.048 -0.898589 6.49312 0
M  V30 1168 H 107.568 -2.31648 5.53262 0
M  V30 1169 H 109.247 -2.14862 6.10281 0
M  V30 1170 N 109.379 -1.50304 -0.473955 0
M  V30 1171 C 110.607 -1.64902 -1.24959 0
M  V30 1172 C 111.022 -0.331198 -1.85872 0
M  V30 1173 O 110.379 0.68652 -1.69095 0
M  V30 1174 C 110.43 -2.73803 -2.36038 0
M  V30 1175 O 110.151 -4.00477 -1.77624 0
M  V30 1176 C 111.652 -2.99349 -3.26964 0
M  V30 1177 H 108.872 -0.554383 -0.378022 0
M  V30 1178 H 111.416 -1.9651 -0.566054 0
M  V30 1179 H 109.571 -2.44898 -3.00173 0
M  V30 1180 H 109.985 -4.60678 -2.5075 0
M  V30 1181 H 111.459 -3.79217 -4.01121 0
M  V30 1182 H 111.936 -2.10307 -3.85574 0
M  V30 1183 H 112.542 -3.29774 -2.68569 0
M  V30 1184 N 110.857 0.726932 -1.39834 0
M  V30 1185 C 112.103 1.48884 -1.377 0
M  V30 1186 C 112.436 1.94185 0.0244852 0
M  V30 1187 O 111.711 1.67361 0.990986 0
M  V30 1188 C 111.994 2.72288 -2.3565 0
M  V30 1189 C 111.847 2.32956 -3.84775 0
M  V30 1190 C 113.166 3.74414 -2.31306 0
M  V30 1191 H 110.285 0.540062 -0.5015 0
M  V30 1192 H 112.927 0.830547 -1.70886 0
M  V30 1193 H 111.077 3.28457 -2.07481 0
M  V30 1194 H 112.749 1.82356 -4.23726 0
M  V30 1195 H 110.992 1.65088 -4.01159 0
M  V30 1196 H 111.663 3.21362 -4.4881 0
M  V30 1197 H 114.139 3.27849 -2.56231 0
M  V30 1198 H 113.015 4.58414 -3.01907 0
M  V30 1199 H 113.276 4.21909 -1.32081 0
M  V30 1200 N 112.336 1.25143 0.95797 0
M  V30 1201 C 113.266 1.07711 2.07173 0
M  V30 1202 C 114.247 -0.0128462 1.70095 0
M  V30 1203 O 115.432 0.156061 1.93572 0
M  V30 1204 C 112.562 0.691503 3.40346 0
M  V30 1205 C 111.516 1.73132 3.9142 0
M  V30 1206 C 110.842 1.20049 5.21049 0
M  V30 1207 C 112.142 3.1294 4.1817 0
M  V30 1208 H 113.836 2.00873 2.22014 0
M  V30 1209 H 111.382 0.967191 1.06684 0
M  V30 1210 H 113.335 0.556505 4.17709 0
M  V30 1211 H 112.059 -0.275819 3.25433 0
M  V30 1212 H 110.718 1.8547 3.16222 0
M  V30 1213 H 110.366 0.223499 5.02503 0
M  V30 1214 H 110.066 1.89545 5.56189 0
M  V30 1215 H 111.59 1.07782 6.01012 0
M  V30 1216 H 113.004 3.03775 4.86203 0
M  V30 1217 H 111.401 3.79875 4.64559 0
M  V30 1218 H 112.471 3.6025 3.24573 0
M  V30 1219 N 113.814 -1.1601 1.06675 0
M  V30 1220 C 115.061 -1.86633 0.785781 0
M  V30 1221 C 115.389 -1.81929 -0.687896 0
M  V30 1222 O 114.644 -1.23253 -1.52011 0
M  V30 1223 C 114.943 -3.35547 1.23057 0
M  V30 1224 C 114.609 -3.60448 2.70902 0
M  V30 1225 C 113.271 -3.66954 3.11285 0
M  V30 1226 C 115.623 -3.7071 3.66365 0
M  V30 1227 C 112.951 -3.81225 4.45965 0
M  V30 1228 C 115.303 -3.86503 5.00797 0
M  V30 1229 C 113.967 -3.91252 5.40813 0
M  V30 1230 H 113.237 -0.682937 0.287538 0
M  V30 1231 H 115.884 -1.37146 1.33654 0
M  V30 1232 H 114.189 -3.87193 0.59907 0
M  V30 1233 H 115.886 -3.88583 0.990163 0
M  V30 1234 H 112.476 -3.56021 2.38636 0
M  V30 1235 H 116.66 -3.64991 3.36296 0
M  V30 1236 H 111.916 -3.83155 4.76447 0
M  V30 1237 H 116.09 -3.93385 5.74649 0
M  V30 1238 H 113.717 -4.02062 6.45174 0
M  V30 1239 N 115.292 -0.849877 -1.32721 0
M  V30 1240 C 116.255 -0.296122 -2.27279 0
M  V30 1241 C 117.255 0.541458 -1.5141 0
M  V30 1242 O 118.445 0.353658 -1.70572 0
M  V30 1243 C 115.577 0.581579 -3.35902 0
M  V30 1244 H 116.77 -1.13064 -2.77771 0
M  V30 1245 H 114.323 -0.62383 -1.43311 0
M  V30 1246 H 115.058 1.43809 -2.9067 0
M  V30 1247 H 114.843 -0.0178814 -3.92096 0
M  V30 1248 H 116.333 0.961951 -4.0637 0
M  V30 1249 N 116.77 1.45427 -0.607355 0
M  V30 1250 C 117.718 2.32269 0.12411 0
M  V30 1251 C 118.712 1.45955 0.859854 0
M  V30 1252 O 119.918 1.6244 0.775447 0
M  V30 1253 H 116.293 0.749691 0.0588839 0
M  V30 1254 H 118.264 2.91743 -0.626762 0
M  V30 1255 C 117.013 3.29567 1.1082 0
M  V30 1256 H 116.336 3.95978 0.551492 0
M  V30 1257 H 117.776 3.93061 1.58995 0
M  V30 1258 C 116.235 2.56722 2.18164 0
M  V30 1259 O 116.765 2.34842 3.25902 0
M  V30 1260 N 114.971 2.16861 1.93442 0
M  V30 1261 H 114.518 2.34855 1.05834 0
M  V30 1262 H 114.476 1.68444 2.65469 0
M  V30 1263 N 118.248 0.346503 1.53744 0
M  V30 1264 C 119.495 -0.249104 2.00962 0
M  V30 1265 C 119.823 -1.5032 1.23426 0
M  V30 1266 O 119.078 -1.93217 0.310761 0
M  V30 1267 C 119.377 -0.605809 3.52228 0
M  V30 1268 C 119.043 0.551747 4.47512 0
M  V30 1269 C 117.705 0.86941 4.73281 0
M  V30 1270 C 120.057 1.32818 5.03993 0
M  V30 1271 C 117.385 1.96582 5.52786 0
M  V30 1272 C 119.737 2.41486 5.84694 0
M  V30 1273 C 118.401 2.73808 6.08757 0
M  V30 1274 H 117.671 -0.0911538 0.735372 0
M  V30 1275 H 120.318 0.475027 1.85515 0
M  V30 1276 H 118.623 -1.4107 3.65522 0
M  V30 1277 H 120.32 -1.07858 3.86222 0
M  V30 1278 H 116.91 0.294102 4.2759 0
M  V30 1279 H 121.094 1.09602 4.84047 0
M  V30 1280 H 116.35 2.22045 5.69654 0
M  V30 1281 H 120.524 3.02078 6.27473 0
M  V30 1282 H 118.151 3.58892 6.7015 0
M  V30 1283 N 119.726 -1.57421 0.075193 0
M  V30 1284 C 120.689 -2.11791 -0.876203 0
M  V30 1285 C 121.689 -1.04268 -1.22412 0
M  V30 1286 O 122.879 -1.30242 -1.15684 0
M  V30 1287 C 120.011 -2.62207 -2.17854 0
M  V30 1288 H 121.204 -2.9716 -0.40444 0
M  V30 1289 H 118.757 -1.55333 -0.173557 0
M  V30 1290 H 119.492 -1.803 -2.6956 0
M  V30 1291 H 119.277 -3.40802 -1.93897 0
M  V30 1292 H 120.767 -3.04335 -2.85955 0
M  V30 1293 N 121.204 0.198386 -1.56346 0
M  V30 1294 C 122.114 1.2664 -1.97483 0
M  V30 1295 C 123.13 1.49989 -0.882002 0
M  V30 1296 O 124.306 1.62668 -1.18748 0
M  V30 1297 C 121.371 2.59141 -2.30319 0
M  V30 1298 C 120.432 2.43892 -3.53292 0
M  V30 1299 C 119.665 3.70074 -3.84553 0
M  V30 1300 O 119.888 4.74101 -3.1715 0
M  V30 1301 O 118.822 3.658 -4.7799 0
M  V30 1302 H 122.648 0.947304 -2.88548 0
M  V30 1303 H 120.233 0.403123 -1.43859 0
M  V30 1304 H 122.115 3.37352 -2.5253 0
M  V30 1305 H 120.79 2.90684 -1.42423 0
M  V30 1306 H 119.697 1.63803 -3.36332 0
M  V30 1307 H 121.03 2.17282 -4.41644 0
M  V30 1308 N 122.682 1.50554 0.465978 0
M  V30 1309 C 123.645 1.69233 1.54574 0
M  V30 1310 C 124.645 0.562901 1.50626 0
M  V30 1311 O 125.835 0.830016 1.53155 0
M  V30 1312 C 122.967 1.7223 2.94193 0
M  V30 1313 H 124.16 2.65571 1.39327 0
M  V30 1314 H 121.713 1.40111 0.692711 0
M  V30 1315 H 122.448 0.77603 3.14878 0
M  V30 1316 H 122.233 2.54285 2.98466 0
M  V30 1317 H 123.723 1.88618 3.72576 0
M  V30 1318 N 124.16 -0.719506 1.40217 0
M  V30 1319 C 125.09 -1.8465 1.42922 0
M  V30 1320 C 126.071 -1.67599 0.29062 0
M  V30 1321 O 127.256 -1.87688 0.498677 0
M  V30 1322 C 124.386 -3.22565 1.28722 0
M  V30 1323 C 123.34 -3.54281 2.40144 0
M  V30 1324 C 122.666 -4.91298 2.11023 0
M  V30 1325 C 123.966 -3.55676 3.82481 0
M  V30 1326 H 125.66 -1.82644 2.37237 0
M  V30 1327 H 123.206 -0.877305 1.1419 0
M  V30 1328 H 125.159 -4.01095 1.29232 0
M  V30 1329 H 123.883 -3.25137 0.308811 0
M  V30 1330 H 122.542 -2.78088 2.38877 0
M  V30 1331 H 122.19 -4.90468 1.11582 0
M  V30 1332 H 121.89 -5.13485 2.8567 0
M  V30 1333 H 123.414 -5.72166 2.13209 0
M  V30 1334 H 124.828 -4.24254 3.85592 0
M  V30 1335 H 123.225 -3.89388 4.56614 0
M  V30 1336 H 124.295 -2.55144 4.12346 0
M  V30 1337 N 125.638 -1.25649 -0.95132 0
M  V30 1338 C 126.601 -1.06399 -2.03007 0
M  V30 1339 C 127.601 -0.0156794 -1.60792 0
M  V30 1340 O 128.791 -0.25817 -1.72276 0
M  V30 1341 C 125.923 -0.616184 -3.35285 0
M  V30 1342 H 127.116 -2.02164 -2.21517 0
M  V30 1343 H 124.669 -1.08103 -1.12887 0
M  V30 1344 H 125.404 0.343917 -3.22471 0
M  V30 1345 H 125.189 -1.37301 -3.67275 0
M  V30 1346 H 126.679 -0.503032 -4.14559 0
M  V30 1347 N 127.117 1.15442 -1.07289 0
M  V30 1348 C 128.027 2.23786 -0.704057 0
M  V30 1349 C 129.043 1.7166 0.284413 0
M  V30 1350 O 130.219 2.00972 0.131205 0
M  V30 1351 C 127.284 3.46535 -0.106792 0
M  V30 1352 C 126.345 4.13654 -1.14842 0
M  V30 1353 C 125.578 5.30544 -0.57956 0
M  V30 1354 O 125.801 5.67187 0.604585 0
M  V30 1355 O 124.735 5.87154 -1.32414 0
M  V30 1356 H 128.561 2.57664 -1.60757 0
M  V30 1357 H 126.146 1.23152 -0.845803 0
M  V30 1358 H 128.028 4.20804 0.224048 0
M  V30 1359 H 126.703 3.14407 0.770049 0
M  V30 1360 H 125.61 3.4131 -1.5316 0
M  V30 1361 H 126.943 4.49861 -1.99714 0
M  V30 1362 N 128.595 0.856903 1.32268 0
M  V30 1363 C 129.843 0.460474 1.96784 0
M  V30 1364 C 130.164 -0.987701 1.68135 0
M  V30 1365 O 129.434 -1.69058 0.989765 0
M  V30 1366 H 128.014 0.167289 0.728027 0
M  V30 1367 H 130.676 1.09383 1.61312 0
M  V30 1368 H 129.772 0.60739 3.06133 0
M  V30 1369 N 130.073 -1.45103 0.615059 0
M  V30 1370 C 131.489 -1.57137 0.279322 0
M  V30 1371 C 131.689 -1.60523 -1.21797 0
M  V30 1372 O 130.745 -1.53956 -2.00134 0
M  V30 1373 C 132.058 -2.85062 0.957083 0
M  V30 1374 C 133.606 -2.98749 0.933706 0
M  V30 1375 C 134.081 -4.29455 1.59162 0
M  V30 1376 N 135.572 -4.36231 1.55746 0
M  V30 1377 C 136.307 -5.36051 2.0356 0
M  V30 1378 N 135.803 -6.42367 2.59494 0
M  V30 1379 N 137.596 -5.27456 1.94284 0
M  V30 1380 H 129.747 -1.41148 1.58717 0
M  V30 1381 H 132.01 -0.675331 0.665306 0
M  V30 1382 H 131.716 -2.88488 2.01166 0
M  V30 1383 H 131.59 -3.7407 0.48494 0
M  V30 1384 H 133.977 -2.94886 -0.112347 0
M  V30 1385 H 134.058 -2.11132 1.44419 0
M  V30 1386 H 133.702 -4.34077 2.63704 0
M  V30 1387 H 133.632 -5.15901 1.0561 0
M  V30 1388 H 136.123 -3.60011 1.14893 0
M  V30 1389 H 136.436 -7.14793 2.93752 0
M  V30 1390 H 134.781 -6.43097 2.63537 0
M  V30 1391 H 137.972 -4.43308 1.5032 0
M  V30 1392 H 138.145 -6.05099 2.3186 0
M  V30 1393 N 131.551 -0.354651 -1.53558 0
M  V30 1394 C 132.776 0.242153 -2.05981 0
M  V30 1395 C 133.201 1.42553 -1.2272 0
M  V30 1396 O 132.559 1.79656 -0.243604 0
M  V30 1397 C 132.607 0.624367 -3.55154 0
M  V30 1398 O 131.711 1.72301 -3.74681 0
M  V30 1399 H 131.052 0.0378432 -0.662921 0
M  V30 1400 H 133.582 -0.512087 -1.98088 0
M  V30 1401 H 133.592 0.898433 -3.97985 0
M  V30 1402 H 132.267 -0.240989 -4.15201 0
M  V30 1403 H 130.844 1.44535 -3.4375 0
M  V30 1404 N 133.029 1.57378 -0.0835403 0
M  V30 1405 C 133.976 2.13384 0.879539 0
M  V30 1406 C 134.946 1.04936 1.28754 0
M  V30 1407 O 136.131 1.32662 1.37133 0
M  V30 1408 C 133.271 2.70932 2.13752 0
M  V30 1409 C 132.384 3.93575 1.7811 0
M  V30 1410 C 131.519 4.39326 2.98607 0
M  V30 1411 C 130.558 5.54587 2.59037 0
M  V30 1412 N 129.695 5.95243 3.72331 0
M  V30 1413 H 134.535 2.9537 0.395076 0
M  V30 1414 H 132.072 1.45953 0.183349 0
M  V30 1415 H 134.03 3.02411 2.87408 0
M  V30 1416 H 132.66 1.91693 2.59718 0
M  V30 1417 H 131.712 3.68483 0.94469 0
M  V30 1418 H 133.024 4.77258 1.45005 0
M  V30 1419 H 132.178 4.72528 3.80529 0
M  V30 1420 H 130.917 3.5452 3.34913 0
M  V30 1421 H 129.922 5.21024 1.75539 0
M  V30 1422 H 131.147 6.41133 2.23887 0
M  V30 1423 H 129.093 5.13385 4.08378 0
M  V30 1424 H 129.01 6.73694 3.43034 0
M  V30 1425 H 130.278 6.33072 4.54797 0
M  V30 1426 N 134.507 -0.190092 1.56449 0
M  V30 1427 C 135.47 -1.21925 1.9408 0
M  V30 1428 C 136.47 -1.38176 0.822431 0
M  V30 1429 O 137.66 -1.35903 1.08977 0
M  V30 1430 C 134.792 -2.58773 2.21922 0
M  V30 1431 H 135.985 -0.897464 2.86157 0
M  V30 1432 H 133.538 -0.43181 1.50217 0
M  V30 1433 H 134.273 -2.95998 1.32499 0
M  V30 1434 H 134.058 -2.48348 3.03424 0
M  V30 1435 H 135.548 -3.32978 2.52022 0
M  V30 1436 N 135.985 -1.50799 -0.457987 0
M  V30 1437 C 136.917 -1.66786 -1.57211 0
M  V30 1438 C 137.93 -0.548962 -1.53265 0
M  V30 1439 O 139.119 -0.8226 -1.58416 0
M  V30 1440 C 136.219 -1.64834 -2.96113 0
M  V30 1441 C 135.392 -2.92971 -3.24787 0
M  V30 1442 C 134.451 -2.83485 -4.43309 0
M  V30 1443 O 133.477 -3.5744 -4.42973 0
M  V30 1444 N 134.679 -1.97929 -5.45714 0
M  V30 1445 H 137.444 -2.62889 -1.43909 0
M  V30 1446 H 135.005 -1.48427 -0.646617 0
M  V30 1447 H 136.997 -1.56084 -3.7339 0
M  V30 1448 H 135.567 -0.764118 -3.03117 0
M  V30 1449 H 134.787 -3.15749 -2.36 0
M  V30 1450 H 136.075 -3.77834 -3.40762 0
M  V30 1451 H 135.473 -1.37182 -5.48815 0
M  V30 1452 H 134.03 -1.95073 -6.21924 0
M  V30 1453 N 137.463 0.71206 -1.40597 0
M  V30 1454 C 138.426 1.80785 -1.40888 0
M  V30 1455 C 139.426 1.57937 -0.302103 0
M  V30 1456 O 140.616 1.64913 -0.561182 0
M  V30 1457 C 137.748 3.18927 -1.20409 0
M  V30 1458 H 138.941 1.81924 -2.38419 0
M  V30 1459 H 136.494 0.91805 -1.26497 0
M  V30 1460 H 137.229 3.23436 -0.236522 0
M  V30 1461 H 137.014 3.36911 -2.00582 0
M  V30 1462 H 138.504 3.98949 -1.23408 0
M  V30 1463 N 138.941 1.26152 0.944643 0
M  V30 1464 C 139.889 1.07215 2.06417 0
M  V30 1465 C 140.883 9.2007e-05 1.694 0
M  V30 1466 O 142.089 0.1565 1.79318 0
M  V30 1467 H 138.464 0.329837 0.675805 0
M  V30 1468 H 140.435 2.02099 2.19541 0
M  V30 1469 C 139.184 0.718197 3.40202 0
M  V30 1470 H 138.507 1.53497 3.69159 0
M  V30 1471 H 139.947 0.625459 4.19361 0
M  V30 1472 C 138.406 -0.576435 3.31932 0
M  V30 1473 O 138.936 -1.61574 3.67773 0
M  V30 1474 N 137.142 -0.565781 2.85039 0
M  V30 1475 H 136.689 0.280367 2.5607 0
M  V30 1476 H 136.647 -1.43213 2.79888 0
M  V30 1477 N 140.419 -1.14872 1.07899 0
M  V30 1478 C 141.644 -1.90202 0.826926 0
M  V30 1479 C 142.069 -1.77774 -0.614664 0
M  V30 1480 O 141.427 -1.11431 -1.43013 0
M  V30 1481 C 141.475 -3.38352 1.24702 0
M  V30 1482 O 140.579 -4.10497 0.39575 0
M  V30 1483 H 139.92 -0.591968 0.300782 0
M  V30 1484 H 142.45 -1.45437 1.43907 0
M  V30 1485 H 142.46 -3.89156 1.22563 0
M  V30 1486 H 141.135 -3.46715 2.29698 0
M  V30 1487 H 139.712 -3.69796 0.480117 0
M  V30 1488 N 141.898 -0.863906 -1.31812 0
M  V30 1489 C 142.828 -0.330843 -2.31144 0
M  V30 1490 C 143.809 0.575005 -1.60087 0
M  V30 1491 O 144.994 0.493304 -1.8783 0
M  V30 1492 C 142.124 0.47374 -3.44054 0
M  V30 1493 C 141.078 -0.338481 -4.26659 0
M  V30 1494 C 140.404 0.591412 -5.31419 0
M  V30 1495 C 141.704 -1.56926 -4.98168 0
M  V30 1496 H 143.398 -1.16086 -2.75979 0
M  V30 1497 H 140.944 -0.559657 -1.32679 0
M  V30 1498 H 142.897 0.857143 -4.12591 0
M  V30 1499 H 141.621 1.33721 -2.9797 0
M  V30 1500 H 140.28 -0.703754 -3.59782 0
M  V30 1501 H 139.928 1.45199 -4.81587 0
M  V30 1502 H 139.628 0.0519022 -5.87577 0
M  V30 1503 H 141.152 0.97179 -6.02817 0
M  V30 1504 H 142.566 -1.25764 -5.59336 0
M  V30 1505 H 140.963 -2.04739 -5.64094 0
M  V30 1506 H 142.033 -2.32544 -4.25501 0
M  V30 1507 N 143.376 1.44774 -0.622745 0
M  V30 1508 C 144.323 2.30635 0.0871679 0
M  V30 1509 C 145.293 1.42994 0.845097 0
M  V30 1510 O 146.478 1.71907 0.827812 0
M  V30 1511 C 143.618 3.28144 1.06844 0
M  V30 1512 C 142.731 4.30888 0.309809 0
M  V30 1513 C 141.866 5.15494 1.28215 0
M  V30 1514 C 140.905 6.09953 0.512198 0
M  V30 1515 N 140.042 6.87287 1.43458 0
M  V30 1516 H 144.882 2.90803 -0.650974 0
M  V30 1517 H 142.419 1.43286 -0.33281 0
M  V30 1518 H 144.377 3.83157 1.65066 0
M  V30 1519 H 143.007 2.69695 1.77382 0
M  V30 1520 H 142.059 3.78414 -0.388181 0
M  V30 1521 H 143.371 4.97955 -0.290254 0
M  V30 1522 H 142.525 5.74983 1.93596 0
M  V30 1523 H 141.264 4.48481 1.91614 0
M  V30 1524 H 140.269 5.49581 -0.155151 0
M  V30 1525 H 141.494 6.78999 -0.116958 0
M  V30 1526 H 139.44 6.2295 2.05594 0
M  V30 1527 H 139.357 7.50763 0.888335 0
M  V30 1528 H 140.625 7.51306 2.07749 0
M  V30 1529 N 144.854 0.36279 1.53368 0
M  V30 1530 C 146.102 -0.227326 2.00817 0
M  V30 1531 C 146.423 -1.49511 1.25186 0
M  V30 1532 O 145.693 -1.92482 0.364348 0
M  V30 1533 H 144.273 -0.0869923 0.741917 0
M  V30 1534 H 146.935 0.488381 1.88682 0
M  V30 1535 H 146.031 -0.456273 3.08747 0
M  V30 1536 N 146.332 -1.57332 0.0918853 0
M  V30 1537 C 147.578 -1.94524 -0.573425 0
M  V30 1538 C 147.911 -0.973578 -1.68033 0
M  V30 1539 O 147.186 -0.00609226 -1.94499 0
M  V30 1540 C 147.469 -3.41858 -1.13161 0
M  V30 1541 C 147.322 -4.4979 -0.0299747 0
M  V30 1542 C 148.641 -3.90435 -2.03098 0
M  V30 1543 H 145.76 -0.70734 -0.206975 0
M  V30 1544 H 148.402 -1.89309 0.161942 0
M  V30 1545 H 146.552 -3.46433 -1.7583 0
M  V30 1546 H 148.224 -4.57327 0.604112 0
M  V30 1547 H 146.467 -4.291 0.636833 0
M  V30 1548 H 147.138 -5.50069 -0.461287 0
M  V30 1549 H 149.614 -3.87992 -1.50338 0
M  V30 1550 H 148.49 -4.94097 -2.39081 0
M  V30 1551 H 148.751 -3.29541 -2.94712 0
M  V30 1552 N 147.81 0.181792 -1.56548 0
M  V30 1553 C 148.757 1.22521 -1.95595 0
M  V30 1554 C 149.727 1.4454 -0.818373 0
M  V30 1555 O 150.912 1.57454 -1.07763 0
M  V30 1556 C 148.052 2.56193 -2.31212 0
M  V30 1557 C 147.165 2.41641 -3.58097 0
M  V30 1558 C 146.3 3.68108 -3.82975 0
M  V30 1559 C 145.339 3.48445 -5.03242 0
M  V30 1560 N 144.476 4.66956 -5.24306 0
M  V30 1561 H 149.316 0.885226 -2.84548 0
M  V30 1562 H 146.853 0.425718 -1.40805 0
M  V30 1563 H 148.811 3.34088 -2.49882 0
M  V30 1564 H 147.441 2.88208 -1.45382 0
M  V30 1565 H 146.493 1.54976 -3.474 0
M  V30 1566 H 147.805 2.23052 -4.46149 0
M  V30 1567 H 146.959 4.54441 -4.01956 0
M  V30 1568 H 145.698 3.89666 -2.93278 0
M  V30 1569 H 144.703 2.60499 -4.8417 0
M  V30 1570 H 145.928 3.2832 -5.9446 0
M  V30 1571 H 143.874 4.88752 -4.37559 0
M  V30 1572 H 143.791 4.51242 -6.06561 0
M  V30 1573 H 145.059 5.54602 -5.47756 0
M  V30 1574 N 149.288 1.51039 0.449983 0
M  V30 1575 C 150.235 1.71439 1.54523 0
M  V30 1576 C 151.205 0.555871 1.56522 0
M  V30 1577 O 152.39 0.788871 1.73728 0
M  V30 1578 C 149.53 1.83384 2.92343 0
M  V30 1579 C 148.643 3.10873 2.9997 0
M  V30 1580 C 147.778 3.13488 4.28834 0
M  V30 1581 C 146.817 4.35343 4.30282 0
M  V30 1582 N 145.954 4.35579 5.5065 0
M  V30 1583 H 150.794 2.64934 1.36433 0
M  V30 1584 H 148.331 1.31312 0.662982 0
M  V30 1585 H 150.289 1.88291 3.72293 0
M  V30 1586 H 148.919 0.933086 3.0902 0
M  V30 1587 H 147.971 3.15336 2.12761 0
M  V30 1588 H 149.283 4.00814 2.96901 0
M  V30 1589 H 148.437 3.17241 5.17149 0
M  V30 1590 H 147.176 2.21414 4.34543 0
M  V30 1591 H 146.181 4.3178 3.40362 0
M  V30 1592 H 147.406 5.28668 4.26248 0
M  V30 1593 H 145.352 3.46369 5.57104 0
M  V30 1594 H 145.269 5.19313 5.49409 0
M  V30 1595 H 146.537 4.43507 6.41032 0
M  V30 1596 N 150.766 -0.704594 1.40972 0
M  V30 1597 C 151.994 -1.49354 1.43182 0
M  V30 1598 C 152.409 -1.88768 0.0345508 0
M  V30 1599 O 151.766 -1.56184 -0.944081 0
M  V30 1600 C 151.817 -2.76187 2.33244 0
M  V30 1601 O 151.538 -2.38436 3.67532 0
M  V30 1602 C 153.039 -3.7 2.44162 0
M  V30 1603 H 150.259 -0.460559 0.487982 0
M  V30 1604 H 152.803 -0.868261 1.85153 0
M  V30 1605 H 150.958 -3.34974 1.94606 0
M  V30 1606 H 151.372 -3.20126 4.15475 0
M  V30 1607 H 152.846 -4.55803 3.11364 0
M  V30 1608 H 153.323 -4.13867 1.47006 0
M  V30 1609 H 153.929 -3.17121 2.83398 0
M  V30 1610 N 152.244 -1.26651 -0.937939 0
M  V30 1611 C 153.207 -1.08546 -2.01867 0
M  V30 1612 C 154.207 -0.0327327 -1.60767 0
M  V30 1613 O 155.397 -0.276427 -1.71993 0
M  V30 1614 C 152.529 -0.651711 -3.34613 0
M  V30 1615 H 153.722 -2.04502 -2.1936 0
M  V30 1616 H 151.275 -1.09294 -1.11734 0
M  V30 1617 H 152.01 0.309696 -3.22818 0
M  V30 1618 H 151.795 -1.41189 -3.65798 0
M  V30 1619 H 153.285 -0.546973 -4.14002 0
M  V30 1620 N 153.722 1.14298 -1.08507 0
M  V30 1621 C 154.969 1.85359 -0.815373 0
M  V30 1622 C 155.297 1.83001 0.658865 0
M  V30 1623 O 154.552 1.25655 1.50031 0
M  V30 1624 C 154.851 3.33547 -1.28379 0
M  V30 1625 C 154.517 3.56093 -2.76602 0
M  V30 1626 C 153.179 3.61955 -3.17084 0
M  V30 1627 C 155.531 3.64834 -3.72217 0
M  V30 1628 C 152.859 3.74082 -4.51973 0
M  V30 1629 C 155.211 3.78487 -5.06883 0
M  V30 1630 C 153.875 3.82598 -5.46969 0
M  V30 1631 H 153.145 0.678276 -0.298366 0
M  V30 1632 H 155.792 1.35002 -1.35819 0
M  V30 1633 H 154.097 3.86191 -0.660593 0
M  V30 1634 H 155.794 3.86959 -1.05186 0
M  V30 1635 H 152.384 3.52179 -2.4427 0
M  V30 1636 H 156.568 3.59595 -3.42061 0
M  V30 1637 H 151.824 3.75527 -4.82483 0
M  V30 1638 H 155.998 3.84193 -5.80834 0
M  V30 1639 H 153.625 3.91747 -6.51489 0
M  V30 1640 N 155.201 0.870884 1.31352 0
M  V30 1641 C 156.164 0.332243 2.26779 0
M  V30 1642 C 157.164 -0.517302 1.52252 0
M  V30 1643 O 158.354 -0.326477 1.71113 0
M  V30 1644 C 155.486 -0.528066 3.36785 0
M  V30 1645 H 156.679 1.17469 2.75937 0
M  V30 1646 H 154.232 0.64655 1.423 0
M  V30 1647 H 154.967 -1.39167 2.92922 0
M  V30 1648 H 154.752 0.0802582 3.92018 0
M  V30 1649 H 156.242 -0.897179 4.07849 0
M  V30 1650 N 156.679 -1.44442 0.630414 0
M  V30 1651 C 158.095 -1.56832 0.295973 0
M  V30 1652 C 158.295 -1.61806 -1.20088 0
M  V30 1653 O 157.351 -1.5607 -1.9849 0
M  V30 1654 C 158.664 -2.84031 0.987264 0
M  V30 1655 C 160.212 -2.97742 0.96534 0
M  V30 1656 C 160.687 -4.27743 1.63708 0
M  V30 1657 N 162.178 -4.34555 1.60364 0
M  V30 1658 C 162.913 -5.33862 2.09234 0
M  V30 1659 N 162.409 -6.39578 2.66292 0
M  V30 1660 N 164.202 -5.25366 1.99867 0
M  V30 1661 H 156.353 -1.39457 1.60205 0
M  V30 1662 H 158.616 -0.668237 0.672431 0
M  V30 1663 H 158.322 -2.86338 2.04215 0
M  V30 1664 H 158.196 -3.73534 0.524588 0
M  V30 1665 H 160.583 -2.94989 -0.0810639 0
M  V30 1666 H 160.664 -2.09589 1.4665 0
M  V30 1667 H 160.308 -4.31255 2.68293 0
M  V30 1668 H 160.238 -5.14752 1.11076 0
M  V30 1669 H 162.729 -3.58772 1.18705 0
M  V30 1670 H 163.042 -7.11637 3.01317 0
M  V30 1671 H 161.387 -6.40265 2.70343 0
M  V30 1672 H 164.578 -4.41688 1.55013 0
M  V30 1673 H 164.751 -6.02606 2.38265 0
M  V30 1674 N 158.157 -0.370918 -1.53173 0
M  V30 1675 C 159.104 0.473035 -2.259 0
M  V30 1676 C 160.074 1.07311 -1.26781 0
M  V30 1677 O 161.259 1.1046 -1.55574 0
M  V30 1678 C 158.399 1.60405 -3.05556 0
M  V30 1679 C 157.512 1.02863 -4.19575 0
M  V30 1680 C 156.647 2.12918 -4.86661 0
M  V30 1681 C 155.686 1.52869 -5.92704 0
M  V30 1682 N 154.823 2.56779 -6.53459 0
M  V30 1683 H 159.663 -0.153649 -2.97604 0
M  V30 1684 H 157.2 -0.0875946 -1.46839 0
M  V30 1685 H 159.158 2.27034 -3.50016 0
M  V30 1686 H 157.788 2.20131 -2.36097 0
M  V30 1687 H 156.84 0.252465 -3.79561 0
M  V30 1688 H 158.152 0.549642 -4.95762 0
M  V30 1689 H 157.306 2.87356 -5.34333 0
M  V30 1690 H 156.045 2.6417 -4.09958 0
M  V30 1691 H 155.05 0.769479 -5.44389 0
M  V30 1692 H 156.275 1.02435 -6.7133 0
M  V30 1693 H 154.221 3.07235 -5.79606 0
M  V30 1694 H 154.138 2.13583 -7.25202 0
M  V30 1695 H 155.406 3.30903 -7.05779 0
M  V30 1696 N 159.635 1.57281 -0.100228 0
M  V30 1697 C 160.565 2.17328 0.853857 0
M  V30 1698 C 161.546 1.10804 1.2906 0
M  V30 1699 O 162.731 1.38963 1.35657 0
M  V30 1700 C 159.861 2.75772 2.11109 0
M  V30 1701 C 158.815 3.87713 1.81279 0
M  V30 1702 C 158.141 4.32882 3.13874 0
M  V30 1703 C 159.441 5.10677 1.09574 0
M  V30 1704 H 161.135 2.97305 0.353545 0
M  V30 1705 H 158.681 1.43009 0.168612 0
M  V30 1706 H 160.634 3.16433 2.78296 0
M  V30 1707 H 159.358 1.93057 2.63432 0
M  V30 1708 H 158.017 3.476 1.16489 0
M  V30 1709 H 157.665 3.47051 3.64095 0
M  V30 1710 H 157.365 5.08358 2.94696 0
M  V30 1711 H 158.889 4.7618 3.82211 0
M  V30 1712 H 160.303 5.48474 1.66879 0
M  V30 1713 H 158.7 5.91615 1.00557 0
M  V30 1714 H 159.77 4.84835 0.0793299 0
M  V30 1715 N 161.113 -0.173488 1.56642 0
M  V30 1716 C 162.529 -0.525174 1.50712 0
M  V30 1717 C 162.729 -1.8476 0.804107 0
M  V30 1718 O 161.785 -2.49869 0.363574 0
M  V30 1719 C 163.098 -0.559937 2.95441 0
M  V30 1720 C 164.646 -0.647288 3.06234 0
M  V30 1721 C 165.121 -0.712963 4.52417 0
M  V30 1722 N 166.612 -0.775911 4.56655 0
M  V30 1723 C 167.347 -0.847264 5.67106 0
M  V30 1724 N 166.843 -0.879585 6.87194 0
M  V30 1725 N 168.636 -0.886117 5.55071 0
M  V30 1726 H 160.787 0.693681 2.00753 0
M  V30 1727 H 163.05 0.249841 0.914485 0
M  V30 1728 H 162.756 0.343049 3.50023 0
M  V30 1729 H 162.63 -1.40718 3.49969 0
M  V30 1730 H 165.017 -1.5407 2.51687 0
M  V30 1731 H 165.098 0.226586 2.54794 0
M  V30 1732 H 164.742 0.176183 5.07594 0
M  V30 1733 H 164.672 -1.60295 5.0161 0
M  V30 1734 H 167.163 -0.759304 3.70193 0
M  V30 1735 H 167.476 -0.935144 7.67121 0
M  V30 1736 H 165.821 -0.847898 6.89808 0
M  V30 1737 H 169.012 -0.857853 4.60172 0
M  V30 1738 H 169.185 -0.938263 6.41171 0
M  V30 1739 N 162.591 -1.51276 -0.441967 0
M  V30 1740 C 163.501 -1.75092 -1.56141 0
M  V30 1741 C 164.517 -0.634963 -1.62001 0
M  V30 1742 O 165.693 -0.916686 -1.79329 0
M  V30 1743 C 162.758 -1.86666 -2.92158 0
M  V30 1744 C 161.819 -3.10506 -2.96453 0
M  V30 1745 C 161.052 -3.21519 -4.25982 0
M  V30 1746 O 161.275 -2.38586 -5.18105 0
M  V30 1747 O 160.209 -4.14465 -4.36466 0
M  V30 1748 H 164.035 -2.70044 -1.38961 0
M  V30 1749 H 161.62 -1.35722 -0.624499 0
M  V30 1750 H 163.502 -1.96292 -3.72891 0
M  V30 1751 H 162.177 -0.949014 -3.09476 0
M  V30 1752 H 161.084 -3.06363 -2.14692 0
M  V30 1753 H 162.417 -4.01945 -2.84079 0
M  V30 1754 N 164.069 0.697108 -1.41344 0
M  V30 1755 C 165.48 1.27697 -1.36199 0
M  V30 1756 C 165.831 1.9615 -0.0443463 0
M  V30 1757 O 164.956 1.98689 0.857419 0
M  V30 1758 C 165.551 2.32223 -2.46694 0
M  V30 1759 C 164.11 2.8579 -2.44952 0
M  V30 1760 C 163.257 1.59807 -2.26621 0
M  V30 1761 H 166.208 0.491968 -1.50882 0
M  V30 1762 H 166.229 3.1348 -2.15664 0
M  V30 1763 H 165.741 1.82373 -3.42581 0
M  V30 1764 H 163.842 3.3982 -1.52817 0
M  V30 1765 H 163.955 3.36325 -3.41207 0
M  V30 1766 H 162.319 1.8556 -1.7447 0
M  V30 1767 H 163.102 1.11956 -3.24532 0
M  V30 1768 N 165.547 1.27147 0.931209 0
M  V30 1769 C 166.494 1.09568 2.03134 0
M  V30 1770 C 167.464 -0.00222433 1.661 0
M  V30 1771 O 168.649 0.159439 1.90133 0
M  V30 1772 C 165.789 0.745231 3.36957 0
M  V30 1773 C 164.902 1.92041 3.86968 0
M  V30 1774 C 164.037 1.51216 5.09222 0
M  V30 1775 C 163.076 2.65504 5.5152 0
M  V30 1776 N 162.213 2.25291 6.64972 0
M  V30 1777 H 167.053 2.03708 2.17502 0
M  V30 1778 H 164.59 1.01411 1.06556 0
M  V30 1779 H 166.548 0.522878 4.1391 0
M  V30 1780 H 165.178 -0.159202 3.22407 0
M  V30 1781 H 164.23 2.25541 3.06326 0
M  V30 1782 H 165.542 2.77787 4.1429 0
M  V30 1783 H 164.696 1.25084 5.93666 0
M  V30 1784 H 163.435 0.625749 4.83669 0
M  V30 1785 H 162.44 2.92354 4.65628 0
M  V30 1786 H 163.665 3.54761 5.7907 0
M  V30 1787 H 161.611 1.39098 6.41083 0
M  V30 1788 H 161.528 3.04577 6.91931 0
M  V30 1789 H 162.796 2.02398 7.52765 0
M  V30 1790 N 167.025 -1.13721 1.09112 0
M  V30 1791 C 168.255 -1.88499 0.845671 0
M  V30 1792 C 168.663 -1.79218 -0.606432 0
M  V30 1793 O 168.006 -1.1544 -1.42896 0
M  V30 1794 C 168.068 -3.38954 1.19793 0
M  V30 1795 C 167.732 -3.72018 2.65428 0
M  V30 1796 C 168.729 -3.7153 3.63677 0
M  V30 1797 C 166.414 -4.01775 3.01467 0
M  V30 1798 C 168.408 -4.00336 4.95994 0
M  V30 1799 C 166.095 -4.30243 4.33975 0
M  V30 1800 C 167.093 -4.29508 5.31048 0
M  V30 1801 O 166.781 -4.5728 6.61173 0
M  V30 1802 H 166.513 -0.603702 0.304171 0
M  V30 1803 H 169.067 -1.44903 1.45576 0
M  V30 1804 H 167.297 -3.83039 0.530871 0
M  V30 1805 H 168.986 -3.95052 0.932146 0
M  V30 1806 H 169.752 -3.4862 3.37179 0
M  V30 1807 H 165.631 -4.01496 2.26544 0
M  V30 1808 H 169.175 -3.99678 5.71755 0
M  V30 1809 H 165.072 -4.52625 4.60219 0
M  V30 1810 H 165.84 -4.74964 6.66597 0
M  V30 1811 N 168.503 -0.877838 -1.30888 0
M  V30 1812 C 169.751 -0.491723 -1.96027 0
M  V30 1813 C 170.072 0.960827 -1.69685 0
M  V30 1814 O 169.342 1.67462 -1.01654 0
M  V30 1815 H 167.922 -0.17885 -0.725273 0
M  V30 1816 H 170.584 -1.11935 -1.59551 0
M  V30 1817 H 169.68 -0.656016 -3.05128 0
M  V30 1818 N 169.982 1.44106 -0.638065 0
M  V30 1819 C 170.945 2.29138 0.0531013 0
M  V30 1820 C 171.945 1.41409 0.765506 0
M  V30 1821 O 173.135 1.63206 0.609046 0
M  V30 1822 C 170.267 3.23144 1.08584 0
M  V30 1823 H 171.46 2.91739 -0.694883 0
M  V30 1824 H 169.013 1.51134 -0.398538 0
M  V30 1825 H 169.748 2.65408 1.86357 0
M  V30 1826 H 169.533 3.87804 0.578852 0
M  V30 1827 H 171.023 3.87004 1.56899 0
M  V30 1828 N 171.46 0.379036 1.52974 0
M  V30 1829 C 172.423 -0.448865 2.24762 0
M  V30 1830 C 173.423 -0.998689 1.26027 0
M  V30 1831 O 174.613 -0.882313 1.50203 0
M  V30 1832 C 171.745 -1.62872 2.99476 0
M  V30 1833 H 172.938 0.179491 2.99362 0
M  V30 1834 H 170.491 0.13096 1.5575 0
M  V30 1835 H 171.226 -2.29479 2.29151 0
M  V30 1836 H 171.011 -1.24128 3.71934 0
M  V30 1837 H 172.501 -2.2151 3.5401 0
M  V30 1838 N 172.938 -1.57226 0.108567 0
M  V30 1839 C 173.901 -2.13602 -0.831082 0
M  V30 1840 C 174.901 -1.06841 -1.20173 0
M  V30 1841 O 176.091 -1.32666 -1.12895 0
M  V30 1842 C 173.223 -2.66769 -2.12243 0
M  V30 1843 H 174.416 -2.97951 -0.341317 0
M  V30 1844 H 171.969 -1.55667 -0.14057 0
M  V30 1845 H 172.704 -1.85977 -2.65675 0
M  V30 1846 H 172.489 -3.44839 -1.86625 0
M  V30 1847 H 173.979 -3.10332 -2.79435 0
M  V30 1848 N 174.416 0.165178 -1.56732 0
M  V30 1849 C 175.693 0.908443 -1.73224 0
M  V30 1850 C 176.073 2.0013 -0.67165 0
M  V30 1851 O 175.421 2.26353 0.31253 0
M  V30 1852 C 175.631 1.46756 -3.16644 0
M  V30 1853 C 176.979 1.93809 -3.77787 0
M  V30 1854 O 178.003 1.56537 -3.1996 0
M  V30 1855 O 176.862 2.62486 -4.79336 0
M  V30 1856 H 173.956 0.428025 -0.707618 0
M  V30 1857 H 176.502 0.152526 -1.69013 0
M  V30 1858 H 175.274 0.68129 -3.85323 0
M  V30 1859 H 174.897 2.28749 -3.25207 0
M  V30 1860 N 175.894 1.51508 0.433938 0
M  V30 1861 C 176.841 1.73068 1.52696 0
M  V30 1862 C 177.811 0.572441 1.55924 0
M  V30 1863 O 178.996 0.807253 1.72882 0
M  V30 1864 C 176.136 1.86474 2.90381 0
M  V30 1865 C 175.249 3.14037 2.96656 0
M  V30 1866 C 174.384 3.18019 4.25485 0
M  V30 1867 C 173.423 4.39882 4.2564 0
M  V30 1868 N 172.56 4.41394 5.45999 0
M  V30 1869 H 177.4 2.66366 1.33615 0
M  V30 1870 H 174.937 1.32008 0.649018 0
M  V30 1871 H 176.895 1.92229 3.70275 0
M  V30 1872 H 175.525 0.965809 3.08013 0
M  V30 1873 H 174.577 3.17575 2.09404 0
M  V30 1874 H 175.889 4.0394 2.92633 0
M  V30 1875 H 175.043 3.22708 5.13755 0
M  V30 1876 H 173.782 2.2601 4.3217 0
M  V30 1877 H 172.787 4.35366 3.35763 0
M  V30 1878 H 174.012 5.33159 4.20617 0
M  V30 1879 H 171.958 3.52258 5.53399 0
M  V30 1880 H 171.875 5.25111 5.4387 0
M  V30 1881 H 173.143 4.50281 6.36292 0
M  V30 1882 N 177.372 -0.689602 1.41712 0
M  V30 1883 C 178.618 -1.45181 1.41599 0
M  V30 1884 C 178.951 -1.94181 0.0270081 0
M  V30 1885 O 178.226 -1.6993 -0.946265 0
M  V30 1886 C 178.509 -2.65945 2.42787 0
M  V30 1887 C 178.362 -2.22672 3.90816 0
M  V30 1888 C 179.681 -3.68149 2.41151 0
M  V30 1889 H 176.8 -0.526576 0.515642 0
M  V30 1890 H 179.442 -0.784947 1.73028 0
M  V30 1891 H 177.592 -3.2284 2.16116 0
M  V30 1892 H 179.264 -1.71058 4.28412 0
M  V30 1893 H 177.507 -1.54394 4.05395 0
M  V30 1894 H 178.178 -3.0935 4.57172 0
M  V30 1895 H 180.654 -3.2094 2.64834 0
M  V30 1896 H 179.53 -4.50248 3.13955 0
M  V30 1897 H 179.791 -4.18259 1.43221 0
M  V30 1898 N 178.85 -1.27639 -0.924453 0
M  V30 1899 C 180.261 -1.12834 -1.48746 0
M  V30 1900 C 180.612 0.285505 -1.94112 0
M  V30 1901 O 179.737 1.17874 -1.81479 0
M  V30 1902 C 180.332 -2.04217 -2.70334 0
M  V30 1903 C 178.891 -1.93509 -3.22848 0
M  V30 1904 C 178.038 -1.96583 -1.95577 0
M  V30 1905 H 180.989 -1.40484 -0.738233 0
M  V30 1906 H 181.01 -1.59989 -3.4523 0
M  V30 1907 H 180.522 -3.07111 -2.37285 0
M  V30 1908 H 178.623 -0.936131 -3.60649 0
M  V30 1909 H 178.736 -2.79917 -3.88823 0
M  V30 1910 H 177.1 -1.4085 -2.12211 0
M  V30 1911 H 177.883 -3.01137 -1.64837 0
M  V30 1912 N 180.328 1.1314 -1.09713 0
M  V30 1913 C 181.291 2.16831 -0.742751 0
M  V30 1914 C 182.291 1.59159 0.229129 0
M  V30 1915 O 183.481 1.74199 0.00693237 0
M  V30 1916 C 180.613 3.40756 -0.0989168 0
M  V30 1917 H 181.806 2.49695 -1.66109 0
M  V30 1918 H 179.359 1.2802 -0.896699 0
M  V30 1919 H 180.094 3.13485 0.830514 0
M  V30 1920 H 179.879 3.83888 -0.798265 0
M  V30 1921 H 181.369 4.17386 0.133524 0
M  V30 1922 N 181.806 0.884767 1.30421 0
M  V30 1923 C 183.083 0.423185 1.90967 0
M  V30 1924 C 183.463 -1.09605 1.80416 0
M  V30 1925 O 182.811 -1.93126 1.22125 0
M  V30 1926 C 183.021 0.921056 3.36627 0
M  V30 1927 C 184.369 0.955903 4.137 0
M  V30 1928 O 185.393 0.867706 3.4547 0
M  V30 1929 O 184.252 1.08614 5.35598 0
M  V30 1930 H 181.346 0.129369 0.816819 0
M  V30 1931 H 183.892 0.973653 1.3899 0
M  V30 1932 H 182.664 1.96489 3.3839 0
M  V30 1933 H 182.287 0.349741 3.96059 0
M  V30 1934 N 183.284 -1.43765 0.645699 0
M  V30 1935 C 184.216 -2.29027 -0.0890605 0
M  V30 1936 C 185.229 -1.42093 -0.794563 0
M  V30 1937 O 186.418 -1.66104 -0.653575 0
M  V30 1938 C 183.518 -3.18831 -1.14891 0
M  V30 1939 C 182.691 -4.34261 -0.523043 0
M  V30 1940 C 181.75 -5.04994 -1.47878 0
M  V30 1941 O 180.776 -5.6052 -0.990277 0
M  V30 1942 N 181.978 -5.07795 -2.81291 0
M  V30 1943 H 184.743 -2.92727 0.64272 0
M  V30 1944 H 182.304 -1.54373 0.487924 0
M  V30 1945 H 184.296 -3.63015 -1.78892 0
M  V30 1946 H 182.866 -2.56782 -1.78275 0
M  V30 1947 H 182.086 -3.93088 0.295896 0
M  V30 1948 H 183.374 -5.08728 -0.0858147 0
M  V30 1949 H 182.772 -4.64042 -3.23546 0
M  V30 1950 H 181.329 -5.55721 -3.40614 0
M  V30 1951 N 184.763 -0.387143 -1.52771 0
M  V30 1952 C 185.693 0.440551 -2.29306 0
M  V30 1953 C 186.674 1.06535 -1.32606 0
M  V30 1954 O 187.859 1.07853 -1.61497 0
M  V30 1955 C 184.989 1.56919 -3.09829 0
M  V30 1956 C 183.943 1.07054 -4.14395 0
M  V30 1957 C 183.269 2.29109 -4.83129 0
M  V30 1958 C 184.569 0.140015 -5.22112 0
M  V30 1959 H 186.263 -0.198026 -2.98744 0
M  V30 1960 H 183.809 -0.09668 -1.43675 0
M  V30 1961 H 185.762 2.15503 -3.62128 0
M  V30 1962 H 184.486 2.23532 -2.3812 0
M  V30 1963 H 183.145 0.507247 -3.63074 0
M  V30 1964 H 182.793 2.94227 -4.0797 0
M  V30 1965 H 182.493 1.96406 -5.53804 0
M  V30 1966 H 184.017 2.88339 -5.38231 0
M  V30 1967 H 185.431 0.633978 -5.69784 0
M  V30 1968 H 183.828 -0.0971485 -6.00021 0
M  V30 1969 H 184.898 -0.811711 -4.78058 0
M  V30 1970 N 186.241 1.57166 -0.116904 0
M  V30 1971 C 187.657 1.5779 0.239693 0
M  V30 1972 C 187.857 1.1295 1.66867 0
M  V30 1973 O 186.913 0.81592 2.38954 0
M  V30 1974 C 188.226 3.00699 0.00828202 0
M  V30 1975 C 189.774 3.12912 0.0743438 0
M  V30 1976 C 190.249 4.57817 -0.129348 0
M  V30 1977 N 191.74 4.63139 -0.075247 0
M  V30 1978 C 192.475 5.73023 -0.207788 0
M  V30 1979 N 191.971 6.91665 -0.396382 0
M  V30 1980 N 193.764 5.61906 -0.14751 0
M  V30 1981 H 185.915 1.84615 -1.05029 0
M  V30 1982 H 188.178 0.85311 -0.41341 0
M  V30 1983 H 187.884 3.37784 -0.979531 0
M  V30 1984 H 187.758 3.69848 0.741077 0
M  V30 1985 H 190.145 2.75686 1.05268 0
M  V30 1986 H 190.226 2.4631 -0.690297 0
M  V30 1987 H 189.87 4.95742 -1.10465 0
M  V30 1988 H 189.8 5.22507 0.655253 0
M  V30 1989 H 192.291 3.7784 0.0670898 0
M  V30 1990 H 192.604 7.71255 -0.488437 0
M  V30 1991 H 190.949 6.93654 -0.432329 0
M  V30 1992 H 194.14 4.681 -0.00115036 0
M  V30 1993 H 194.313 6.47501 -0.254247 0
M  V30 1994 N 187.719 -0.156864 1.56817 0
M  V30 1995 C 188.666 -1.19394 1.97519 0
M  V30 1996 C 189.636 -1.4322 0.841265 0
M  V30 1997 O 190.821 -1.55719 1.10255 0
M  V30 1998 C 187.961 -2.52483 2.35258 0
M  V30 1999 C 187.074 -2.35914 3.61896 0
M  V30 2000 C 186.209 -3.61969 3.88782 0
M  V30 2001 C 185.248 -3.40395 5.08722 0
M  V30 2002 N 184.385 -4.58556 5.31668 0
M  V30 2003 H 189.225 -0.839845 2.85921 0
M  V30 2004 H 186.762 -0.403264 1.41464 0
M  V30 2005 H 188.72 -3.30071 2.55165 0
M  V30 2006 H 187.35 -2.85859 1.49949 0
M  V30 2007 H 186.402 -1.49429 3.49821 0
M  V30 2008 H 187.714 -2.15926 4.49641 0
M  V30 2009 H 186.868 -4.47989 4.09135 0
M  V30 2010 H 185.607 -3.84951 2.9944 0
M  V30 2011 H 184.612 -2.52763 4.88253 0
M  V30 2012 H 185.837 -3.18822 5.99608 0
M  V30 2013 H 183.783 -4.81729 4.45279 0
M  V30 2014 H 183.7 -4.41535 6.13664 0
M  V30 2015 H 184.968 -5.45817 5.5651 0
M  V30 2016 N 189.197 -1.51736 -0.425897 0
M  V30 2017 C 190.445 -1.64644 -1.17204 0
M  V30 2018 C 190.766 -0.370486 -1.91448 0
M  V30 2019 O 190.036 0.614088 -1.86026 0
M  V30 2020 H 188.616 -0.606819 -0.435638 0
M  V30 2021 H 191.278 -1.88713 -0.487177 0
M  V30 2022 H 190.374 -2.47958 -1.89534 0
M  V30 2023 N 190.675 0.682077 -1.42076 0
M  V30 2024 C 191.952 1.43755 -1.32642 0
M  V30 2025 C 192.332 2.11063 0.0396611 0
M  V30 2026 O 191.68 2.02701 1.05474 0
M  V30 2027 C 191.89 2.44596 -2.48946 0
M  V30 2028 C 193.238 3.09454 -2.9073 0
M  V30 2029 O 194.262 2.54922 -2.48783 0
M  V30 2030 O 193.121 4.08253 -3.63307 0
M  V30 2031 H 190.215 0.640857 -0.522715 0
M  V30 2032 H 192.761 0.711415 -1.54068 0
M  V30 2033 H 191.533 1.93609 -3.40046 0
M  V30 2034 H 191.156 3.24701 -2.29467 0
M  V30 2035 N 192.153 1.28127 0.917671 0
M  V30 2036 C 193.402 1.14432 1.66097 0
M  V30 2037 C 193.715 -0.307247 1.93172 0
M  V30 2038 O 194.921 -0.565259 2.65551 0
M  V30 2039 C 193.377 2.00015 2.99202 0
M  V30 2040 C 192.985 3.49889 2.79789 0
M  V30 2041 C 194.729 1.94996 3.77064 0
M  V30 2042 C 192.636 4.27636 4.08511 0
M  V30 2043 H 191.566 0.424662 0.62304 0
M  V30 2044 H 194.217 1.52628 1.01868 0
M  V30 2045 H 192.599 1.54672 3.64544 0
M  V30 2046 H 193.773 4.03162 2.23152 0
M  V30 2047 H 192.088 3.56392 2.15345 0
M  V30 2048 H 194.685 2.50354 4.72469 0
M  V30 2049 H 195.028 0.925819 4.05875 0
M  V30 2050 H 195.561 2.38287 3.18534 0
M  V30 2051 H 192.3 5.30615 3.84874 0
M  V30 2052 H 191.82 3.79137 4.64774 0
M  V30 2053 H 193.499 4.37346 4.76799 0
M  V30 2054 N 193.631 -1.12557 1.10312 0
M  V30 2055 C 194.877 -1.84311 0.846011 0
M  V30 2056 C 195.21 -1.83805 -0.626859 0
M  V30 2057 O 194.485 -1.28268 -1.46211 0
M  V30 2058 C 194.768 -3.32048 1.39341 0
M  V30 2059 C 194.621 -3.41016 2.93305 0
M  V30 2060 C 195.94 -4.27764 1.03468 0
M  V30 2061 H 193.059 -0.669192 0.30879 0
M  V30 2062 H 195.701 -1.32057 1.36605 0
M  V30 2063 H 193.851 -3.76678 0.951087 0
M  V30 2064 H 195.523 -3.05031 3.46055 0
M  V30 2065 H 193.766 -2.81603 3.29973 0
M  V30 2066 H 194.437 -4.44948 3.26689 0
M  V30 2067 H 196.913 -3.91253 1.41633 0
M  V30 2068 H 195.789 -5.29549 1.44463 0
M  V30 2069 H 196.05 -4.42064 -0.0560404 0
M  V30 2070 N 195.109 -0.891671 -1.2995 0
M  V30 2071 C 196.039 -0.379797 -2.30391 0
M  V30 2072 C 197.02 0.540919 -1.6127 0
M  V30 2073 O 198.205 0.453352 -1.88834 0
M  V30 2074 C 195.335 0.400654 -3.44981 0
M  V30 2075 C 194.289 -0.428905 -4.25846 0
M  V30 2076 C 193.615 0.478557 -5.32554 0
M  V30 2077 C 194.915 -1.67458 -4.94727 0
M  V30 2078 H 196.609 -1.21914 -2.73454 0
M  V30 2079 H 194.155 -0.587675 -1.31462 0
M  V30 2080 H 196.108 0.769434 -4.14316 0
M  V30 2081 H 194.832 1.27371 -3.0074 0
M  V30 2082 H 193.491 -0.779911 -3.58208 0
M  V30 2083 H 193.139 1.34951 -4.84559 0
M  V30 2084 H 192.839 -0.0727433 -5.87555 0
M  V30 2085 H 194.363 0.843705 -6.04743 0
M  V30 2086 H 195.777 -1.376 -5.56542 0
M  V30 2087 H 194.174 -2.16659 -5.59624 0
M  V30 2088 H 195.244 -2.41518 -4.20473 0
M  V30 2089 N 196.587 1.43421 -0.653314 0
M  V30 2090 C 197.833 2.02111 -0.166992 0
M  V30 2091 C 198.166 1.51423 1.21592 0
M  V30 2092 O 197.441 0.707389 1.8118 0
M  V30 2093 C 197.724 3.5966 -0.177948 0
M  V30 2094 C 197.577 4.20579 -1.59478 0
M  V30 2095 C 198.896 4.37413 0.4856 0
M  V30 2096 H 196.015 0.734374 -0.0621557 0
M  V30 2097 H 198.657 1.70717 -0.834016 0
M  V30 2098 H 196.807 3.86537 0.390032 0
M  V30 2099 H 198.479 4.04732 -2.21336 0
M  V30 2100 H 196.722 3.77226 -2.14204 0
M  V30 2101 H 197.393 5.29665 -1.5543 0
M  V30 2102 H 199.869 4.161 0.00234528 0
M  V30 2103 H 198.745 5.47075 0.447207 0
M  V30 2104 H 199.006 4.13672 1.55974 0
M  V30 2105 N 198.065 0.39524 1.52563 0
M  V30 2106 C 198.975 -0.444232 2.30356 0
M  V30 2107 C 199.991 -1.06615 1.37511 0
M  V30 2108 O 201.167 -1.07067 1.70583 0
M  V30 2109 C 198.232 -1.55315 3.09964 0
M  V30 2110 C 197.293 -0.955734 4.18526 0
M  V30 2111 C 196.526 -2.01181 4.9433 0
M  V30 2112 O 196.749 -3.22781 4.70285 0
M  V30 2113 O 195.683 -1.62579 5.79527 0
M  V30 2114 H 199.509 0.189667 3.03107 0
M  V30 2115 H 197.094 0.1588 1.48554 0
M  V30 2116 H 198.976 -2.19724 3.59582 0
M  V30 2117 H 197.651 -2.17191 2.4002 0
M  V30 2118 H 196.558 -0.274743 3.7309 0
M  V30 2119 H 197.891 -0.381109 4.90722 0
M  V30 2120 N 199.544 -1.57102 0.125237 0
M  V30 2121 C 200.507 -2.14471 -0.80838 0
M  V30 2122 C 201.507 -1.0811 -1.19033 0
M  V30 2123 O 202.697 -1.33856 -1.11482 0
M  V30 2124 C 199.829 -2.69005 -2.09402 0
M  V30 2125 H 201.022 -2.98297 -0.309696 0
M  V30 2126 H 198.575 -1.55807 -0.124051 0
M  V30 2127 H 199.31 -1.88785 -2.63687 0
M  V30 2128 H 199.095 -3.46799 -1.82957 0
M  V30 2129 H 200.585 -3.13278 -2.76128 0
M  V30 2130 N 201.022 0.148545 -1.56898 0
M  V30 2131 C 202.27 0.859717 -1.82902 0
M  V30 2132 C 202.591 1.81775 -0.70588 0
M  V30 2133 O 201.861 1.93994 0.272586 0
M  V30 2134 H 200.441 0.320469 -0.674766 0
M  V30 2135 H 203.103 0.142918 -1.94375 0
M  V30 2136 H 202.199 1.4229 -2.77777 0
M  V30 2137 N 202.5 1.5196 0.417844 0
M  V30 2138 C 203.777 1.56146 1.17803 0
M  V30 2139 C 204.157 0.337275 2.08388 0
M  V30 2140 O 203.505 -0.676447 2.18258 0
M  V30 2141 C 203.715 2.88566 1.96293 0
M  V30 2142 C 205.063 3.41244 2.52662 0
M  V30 2143 O 206.087 2.90247 2.06483 0
M  V30 2144 O 204.946 4.30273 3.36938 0
M  V30 2145 H 202.04 0.628598 0.537395 0
M  V30 2146 H 204.586 1.64283 0.425331 0
M  V30 2147 H 203.358 3.69116 1.2988 0
M  V30 2148 H 202.981 2.83681 2.78587 0
M  V30 2149 N 203.978 -0.674533 1.42435 0
M  V30 2150 C 205.227 -1.43034 1.42212 0
M  V30 2151 C 205.54 -1.95555 0.0420788 0
M  V30 2152 O 206.746 -2.71374 -0.0827558 0
M  V30 2153 C 205.202 -2.58748 2.50155 0
M  V30 2154 C 204.81 -2.12925 3.94166 0
M  V30 2155 C 206.554 -3.36257 2.59098 0
M  V30 2156 C 204.461 -3.25723 4.93618 0
M  V30 2157 H 203.391 -0.537345 0.528939 0
M  V30 2158 H 206.042 -0.73024 1.68344 0
M  V30 2159 H 204.424 -3.31128 2.17188 0
M  V30 2160 H 205.598 -1.47697 4.36488 0
M  V30 2161 H 203.913 -1.48354 3.89076 0
M  V30 2162 H 206.51 -4.20264 3.30578 0
M  V30 2163 H 206.853 -3.82866 1.63461 0
M  V30 2164 H 207.386 -2.70947 2.9126 0
M  V30 2165 H 204.125 -2.84105 5.90732 0
M  V30 2166 H 203.645 -3.89732 4.55926 0
M  V30 2167 H 205.324 -3.91186 5.15347 0
M  V30 2168 N 205.456 -1.28612 -0.910864 0
M  V30 2169 C 206.705 -1.15311 -1.65488 0
M  V30 2170 C 207.018 0.296999 -1.93332 0
M  V30 2171 O 208.224 0.551168 -2.65847 0
M  V30 2172 C 206.68 -2.01599 -2.98137 0
M  V30 2173 C 206.288 -3.51367 -2.7793 0
M  V30 2174 C 208.032 -1.96993 -3.76024 0
M  V30 2175 C 205.939 -4.29797 -4.06237 0
M  V30 2176 H 204.869 -0.42796 -0.620779 0
M  V30 2177 H 207.52 -1.53166 -1.01057 0
M  V30 2178 H 205.902 -1.56603 -3.63719 0
M  V30 2179 H 207.076 -4.0434 -2.21011 0
M  V30 2180 H 205.391 -3.57529 -2.13452 0
M  V30 2181 H 207.988 -2.52856 -4.71135 0
M  V30 2182 H 208.331 -0.94733 -4.05378 0
M  V30 2183 H 208.864 -2.39973 -3.17266 0
M  V30 2184 H 205.603 -5.32648 -3.82055 0
M  V30 2185 H 205.123 -3.81596 -4.62757 0
M  V30 2186 H 206.802 -4.39869 -4.74473 0
M  V30 2187 N 206.934 1.1197 -1.10907 0
M  V30 2188 C 208.345 1.65114 -0.871446 0
M  V30 2189 C 208.696 1.86885 0.597353 0
M  V30 2190 O 207.821 1.59896 1.45816 0
M  V30 2191 C 208.416 2.99944 -1.5754 0
M  V30 2192 C 206.975 3.50018 -1.38435 0
M  V30 2193 C 206.122 2.24941 -1.62164 0
M  V30 2194 H 209.073 0.956851 -1.2661 0
M  V30 2195 H 209.094 3.66651 -1.01721 0
M  V30 2196 H 208.606 2.84067 -2.64438 0
M  V30 2197 H 206.707 3.71071 -0.337214 0
M  V30 2198 H 206.82 4.29165 -2.12965 0
M  V30 2199 H 205.184 2.3229 -1.04467 0
M  V30 2200 H 205.967 2.11612 -2.70324 0
M  V30 2201 N 208.412 0.89855 1.29475 0
M  V30 2202 C 209.652 0.530771 1.97388 0
M  V30 2203 C 210.016 -0.905832 1.69289 0
M  V30 2204 O 211.217 -1.38042 2.30646 0
M  V30 2205 C 209.488 0.81369 3.48014 0
M  V30 2206 S 211.047 0.550048 4.35339 0
M  V30 2207 H 207.865 0.196956 0.683176 0
M  V30 2208 H 210.467 1.16074 1.57312 0
M  V30 2209 H 209.171 1.85749 3.65958 0
M  V30 2210 H 208.702 0.171795 3.93025 0
M  V30 2211 H 210.717 -0.605423 4.92493 0
M  V30 2212 N 209.89 -1.43072 0.660911 0
M  V30 2213 C 211.167 -1.95307 0.107017 0
M  V30 2214 C 211.547 -1.60192 -1.37484 0
M  V30 2215 O 210.895 -0.890949 -2.10415 0
M  V30 2216 C 211.105 -3.47124 0.361402 0
M  V30 2217 C 212.453 -4.23738 0.270455 0
M  V30 2218 O 213.477 -3.54981 0.294382 0
M  V30 2219 O 212.336 -5.46131 0.200737 0
M  V30 2220 H 209.43 -0.826984 -0.00517729 0
M  V30 2221 H 211.976 -1.52972 0.734681 0
M  V30 2222 H 210.748 -3.65837 1.38848 0
M  V30 2223 H 210.371 -3.96475 -0.298953 0
M  V30 2224 N 211.368 -0.403325 -1.52352 0
M  V30 2225 C 212.616 0.174003 -2.0135 0
M  V30 2226 C 212.937 1.46139 -1.29106 0
M  V30 2227 O 212.207 1.91448 -0.415253 0
M  V30 2228 H 210.787 0.0672911 -0.743963 0
M  V30 2229 H 213.449 -0.538235 -1.87321 0
M  V30 2230 H 212.545 0.374254 -3.09848 0
M  V30 2231 N 212.846 1.57033 -0.133567 0
M  V30 2232 C 213.756 2.19632 0.824564 0
M  V30 2233 C 214.772 1.17666 1.28182 0
M  V30 2234 O 215.948 1.50193 1.3418 0
M  V30 2235 C 213.013 2.79499 2.05137 0
M  V30 2236 C 212.074 3.96548 1.64464 0
M  V30 2237 C 211.307 4.5355 2.81297 0
M  V30 2238 O 211.53 4.09438 3.97136 0
M  V30 2239 O 210.464 5.44018 2.57542 0
M  V30 2240 H 214.29 3.01991 0.321766 0
M  V30 2241 H 211.875 1.49112 0.0927889 0
M  V30 2242 H 213.757 3.17602 2.7696 0
M  V30 2243 H 212.432 2.00162 2.54395 0
M  V30 2244 H 211.339 3.63186 0.897048 0
M  V30 2245 H 212.672 4.77364 1.19934 0
M  V30 2246 N 214.325 -0.140222 1.56975 0
M  V30 2247 C 215.571 -0.852949 1.83991 0
M  V30 2248 C 215.904 -1.80512 0.716187 0
M  V30 2249 O 215.179 -1.92479 -0.279681 0
M  V30 2250 C 215.462 -1.6215 3.21527 0
M  V30 2251 C 215.315 -0.690363 4.4447 0
M  V30 2252 C 216.634 -2.58247 3.56366 0
M  V30 2253 H 213.753 -0.308634 0.669264 0
M  V30 2254 H 216.395 -0.117898 1.89634 0
M  V30 2255 H 214.545 -2.24812 3.16847 0
M  V30 2256 H 216.217 -0.0742264 4.6124 0
M  V30 2257 H 214.46 -0.000396433 4.338 0
M  V30 2258 H 215.131 -1.2643 5.37326 0
M  V30 2259 H 217.607 -2.05701 3.61699 0
M  V30 2260 H 216.483 -3.09067 4.53617 0
M  V30 2261 H 216.744 -3.39923 2.82674 0
M  V30 2262 N 215.803 -1.52179 -0.40978 0
M  V30 2263 C 217.052 -1.65434 -1.15388 0
M  V30 2264 C 217.365 -0.390056 -1.91671 0
M  V30 2265 O 218.571 -0.402399 -2.68501 0
M  V30 2266 C 217.027 -2.92279 -2.10003 0
M  V30 2267 C 216.635 -4.25813 -1.39239 0
M  V30 2268 C 218.379 -3.14897 -2.84675 0
M  V30 2269 C 216.286 -5.43782 -2.32498 0
M  V30 2270 H 215.216 -0.616267 -0.434432 0
M  V30 2271 H 217.867 -1.78666 -0.418401 0
M  V30 2272 H 216.249 -2.72744 -2.871 0
M  V30 2273 H 217.423 -4.55828 -0.675099 0
M  V30 2274 H 215.738 -4.09292 -0.766097 0
M  V30 2275 H 218.335 -4.0021 -3.54593 0
M  V30 2276 H 218.678 -2.29103 -3.47588 0
M  V30 2277 H 219.211 -3.34901 -2.14677 0
M  V30 2278 H 215.95 -6.3192 -1.74233 0
M  V30 2279 H 215.47 -5.18106 -3.02201 0
M  V30 2280 H 217.149 -5.76834 -2.93038 0
M  V30 2281 N 217.281 0.66697 -1.42791 0
M  V30 2282 C 218.191 1.80962 -1.49299 0
M  V30 2283 C 219.207 1.69775 -0.381108 0
M  V30 2284 O 220.383 1.91188 -0.633188 0
M  V30 2285 C 217.448 3.17156 -1.40045 0
M  V30 2286 C 216.509 3.40242 -2.6179 0
M  V30 2287 C 215.742 4.69939 -2.52969 0
M  V30 2288 O 215.965 5.48372 -1.56985 0
M  V30 2289 O 214.899 4.94441 -3.43237 0
M  V30 2290 H 218.725 1.78427 -2.45759 0
M  V30 2291 H 216.31 0.823713 -1.24641 0
M  V30 2292 H 218.192 3.98413 -1.37276 0
M  V30 2293 H 216.867 3.20312 -0.467138 0
M  V30 2294 H 215.774 2.58802 -2.70134 0
M  V30 2295 H 217.107 3.41923 -3.54047 0
M  V30 2296 N 218.759 1.29093 0.90403 0
M  V30 2297 C 220.007 1.16583 1.65085 0
M  V30 2298 C 220.328 -0.283933 1.92922 0
M  V30 2299 O 219.598 -1.19509 1.55224 0
M  V30 2300 H 218.178 0.428467 0.611903 0
M  V30 2301 H 220.84 1.61959 1.08422 0
M  V30 2302 H 219.936 1.71266 2.6091 0
M  V30 2303 N 220.237 -1.11381 1.11499 0
M  V30 2304 C 221.485 -1.8277 0.862524 0
M  V30 2305 C 221.806 -1.85097 -0.613534 0
M  V30 2306 O 221.076 -1.32198 -1.4457 0
M  V30 2307 H 219.656 -0.676823 0.316101 0
M  V30 2308 H 222.318 -1.34816 1.4075 0
M  V30 2309 H 221.414 -2.86614 1.23527 0
M  V30 2310 N 221.715 -0.905404 -1.28997 0
M  V30 2311 C 222.678 -0.392253 -2.25819 0
M  V30 2312 C 223.678 0.476753 -1.5357 0
M  V30 2313 O 224.868 0.280994 -1.71919 0
M  V30 2314 C 222 0.438588 -3.38067 0
M  V30 2315 H 223.193 -1.24743 -2.72725 0
M  V30 2316 H 220.746 -0.684051 -1.40536 0
M  V30 2317 H 221.481 1.31352 -2.96508 0
M  V30 2318 H 221.266 -0.184167 -3.91667 0
M  V30 2319 H 222.756 0.78873 -4.10084 0
M  V30 2320 N 223.193 1.4272 -0.668489 0
M  V30 2321 C 224.418 2.06484 -0.194758 0
M  V30 2322 C 224.843 1.49862 1.13679 0
M  V30 2323 O 224.201 0.614582 1.70565 0
M  V30 2324 C 224.249 3.60353 -0.133546 0
M  V30 2325 O 223.353 4.02464 0.899806 0
M  V30 2326 H 222.694 0.656137 -0.10188 0
M  V30 2327 H 225.224 1.82964 -0.915722 0
M  V30 2328 H 225.234 4.07976 0.0447041 0
M  V30 2329 H 223.909 4.00938 -1.1055 0
M  V30 2330 H 222.486 3.66402 0.693109 0
M  V30 2331 N 224.671 0.411399 1.52136 0
M  V30 2332 C 225.917 -0.163888 2.02137 0
M  V30 2333 C 226.25 -1.44597 1.29636 0
M  V30 2334 O 225.525 -1.90272 0.403353 0
M  V30 2335 C 225.808 -0.40927 3.57767 0
M  V30 2336 C 225.661 0.889643 4.40914 0
M  V30 2337 C 226.98 -1.19042 4.23694 0
M  V30 2338 H 224.099 -0.0580896 0.734707 0
M  V30 2339 H 226.741 0.54531 1.82007 0
M  V30 2340 H 224.891 -1.0134 3.7505 0
M  V30 2341 H 226.563 1.52575 4.35337 0
M  V30 2342 H 224.806 1.50011 4.07037 0
M  V30 2343 H 225.477 0.672314 5.4789 0
M  V30 2344 H 227.953 -0.678942 4.10524 0
M  V30 2345 H 226.829 -1.33086 5.32522 0
M  V30 2346 H 227.09 -2.21166 3.82803 0
M  V30 2347 N 226.149 -1.5696 0.141893 0
M  V30 2348 C 227.426 -1.87553 -0.555281 0
M  V30 2349 C 227.806 -1.04699 -1.83306 0
M  V30 2350 O 227.154 -0.132346 -2.28116 0
M  V30 2351 C 227.364 -3.39093 -0.825664 0
M  V30 2352 C 228.712 -4.08199 -1.16869 0
M  V30 2353 O 229.736 -3.44242 -0.915185 0
M  V30 2354 O 228.595 -5.21139 -1.6455 0
M  V30 2355 H 225.689 -0.777188 -0.282679 0
M  V30 2356 H 228.235 -1.68763 0.17812 0
M  V30 2357 H 227.007 -3.91221 0.0788633 0
M  V30 2358 H 226.63 -3.63393 -1.61343 0
M  V30 2359 N 227.627 0.131896 -1.57047 0
M  V30 2360 C 228.537 1.1815 -2.02676 0
M  V30 2361 C 229.553 1.46113 -0.944824 0
M  V30 2362 O 230.729 1.57485 -1.25541 0
M  V30 2363 C 227.794 2.49139 -2.41103 0
M  V30 2364 C 226.855 2.28688 -3.63318 0
M  V30 2365 C 226.088 3.53431 -3.99903 0
M  V30 2366 O 226.311 4.60223 -3.36973 0
M  V30 2367 O 225.245 3.45198 -4.93074 0
M  V30 2368 H 229.071 0.824069 -2.92306 0
M  V30 2369 H 226.656 0.341745 -1.45439 0
M  V30 2370 H 228.538 3.26338 -2.66611 0
M  V30 2371 H 227.213 2.84382 -1.54624 0
M  V30 2372 H 226.12 1.4939 -3.42977 0
M  V30 2373 H 227.453 1.98355 -4.50462 0
M  V30 2374 N 229.106 1.52395 0.401703 0
M  V30 2375 C 230.331 1.70972 1.17403 0
M  V30 2376 C 230.756 0.421615 1.83314 0
M  V30 2377 O 230.114 -0.621564 1.70312 0
M  V30 2378 C 230.162 2.85151 2.20728 0
M  V30 2379 O 229.266 2.51238 3.27037 0
M  V30 2380 H 228.607 0.568927 0.342372 0
M  V30 2381 H 231.137 1.99131 0.469891 0
M  V30 2382 H 231.147 3.10279 2.64936 0
M  V30 2383 H 229.822 3.78603 1.7214 0
M  V30 2384 H 228.399 2.36808 2.88057 0
M  V30 2385 N 230.584 -0.659388 1.43143 0
M  V30 2386 C 231.547 -1.75432 1.47501 0
M  V30 2387 C 232.547 -1.56707 0.360512 0
M  V30 2388 O 233.737 -1.62717 0.622002 0
M  V30 2389 C 230.869 -3.14239 1.32162 0
M  V30 2390 H 232.062 -1.7295 2.45006 0
M  V30 2391 H 229.615 -0.870469 1.29817 0
M  V30 2392 H 230.35 -3.22336 0.356401 0
M  V30 2393 H 230.135 -3.29235 2.12948 0
M  V30 2394 H 231.625 -3.94094 1.3813 0
M  V30 2395 N 232.062 -1.29571 -0.897171 0
M  V30 2396 C 233.311 -1.1706 -1.64256 0
M  V30 2397 C 233.624 0.276476 -1.93636 0
M  V30 2398 O 234.83 0.52294 -2.66416 0
M  V30 2399 C 233.286 -2.0475 -2.95982 0
M  V30 2400 C 232.894 -3.54295 -2.74187 0
M  V30 2401 C 234.638 -2.0097 -3.73914 0
M  V30 2402 C 232.545 -4.34081 -4.01656 0
M  V30 2403 H 231.475 -0.43452 -0.616205 0
M  V30 2404 H 234.126 -1.54229 -0.994268 0
M  V30 2405 H 232.508 -1.60452 -3.62038 0
M  V30 2406 H 233.682 -4.06662 -2.1671 0
M  V30 2407 H 231.997 -3.59773 -2.09648 0
M  V30 2408 H 234.594 -2.57838 -4.68427 0
M  V30 2409 H 234.937 -0.990273 -4.0435 0
M  V30 2410 H 235.47 -2.43325 -3.14703 0
M  V30 2411 H 232.209 -5.36671 -3.76384 0
M  V30 2412 H 231.729 -3.86483 -4.58684 0
M  V30 2413 H 233.408 -4.44877 -4.69781 0
M  V30 2414 N 233.54 1.10788 -1.12088 0
M  V30 2415 C 234.768 1.86461 -0.896651 0
M  V30 2416 C 235.183 1.80492 0.553912 0
M  V30 2417 O 234.54 1.19102 1.38278 0
M  V30 2418 C 234.591 3.35006 -1.35843 0
M  V30 2419 O 234.312 3.40866 -2.75213 0
M  V30 2420 C 235.813 4.27565 -1.1706 0
M  V30 2421 H 233.033 0.589425 -0.320654 0
M  V30 2422 H 235.577 1.40076 -1.48993 0
M  V30 2423 H 233.732 3.7887 -0.808458 0
M  V30 2424 H 234.146 4.33411 -2.9539 0
M  V30 2425 H 235.62 5.30007 -1.54263 0
M  V30 2426 H 236.097 4.3906 -0.110814 0
M  V30 2427 H 236.703 3.89501 -1.70789 0
M  V30 2428 N 235.018 0.912232 1.28515 0
M  V30 2429 C 236.266 0.543523 1.94654 0
M  V30 2430 C 236.587 -0.9155 1.72173 0
M  V30 2431 O 235.857 -1.64708 1.06058 0
M  V30 2432 H 234.437 0.198017 0.720277 0
M  V30 2433 H 237.099 1.16126 1.56527 0
M  V30 2434 H 236.195 0.736684 3.03281 0
M  V30 2435 N 236.496 -1.42363 0.676048 0
M  V30 2436 C 237.406 -2.346 -0.00153389 0
M  V30 2437 C 238.422 -1.5516 -0.787485 0
M  V30 2438 O 239.598 -1.87723 -0.729521 0
M  V30 2439 C 236.663 -3.33705 -0.940298 0
M  V30 2440 C 235.724 -4.29042 -0.148739 0
M  V30 2441 C 234.957 -5.23413 -1.04279 0
M  V30 2442 O 235.18 -5.22749 -2.28232 0
M  V30 2443 O 234.114 -5.99795 -0.502925 0
M  V30 2444 H 237.94 -2.94082 0.758268 0
M  V30 2445 H 235.525 -1.42888 0.436289 0
M  V30 2446 H 237.407 -3.94586 -1.47917 0
M  V30 2447 H 236.082 -2.76695 -1.67993 0
M  V30 2448 H 234.989 -3.71571 0.43427 0
M  V30 2449 H 236.322 -4.89097 0.551805 0
M  V30 2450 N 237.974 -0.419461 -1.51915 0
M  V30 2451 C 239.199 0.154572 -2.06823 0
M  V30 2452 C 239.624 1.3722 -1.28656 0
M  V30 2453 O 238.982 1.78461 -0.319583 0
M  V30 2454 C 239.03 0.473172 -3.57482 0
M  V30 2455 O 238.134 1.56255 -3.81652 0
M  V30 2456 H 237.475 0.0096924 -0.663929 0
M  V30 2457 H 240.005 -0.595642 -1.95738 0
M  V30 2458 H 240.015 0.728825 -4.01438 0
M  V30 2459 H 238.69 -0.416873 -4.13805 0
M  V30 2460 H 237.267 1.29825 -3.49571 0
M  V30 2461 N 239.452 1.56882 -0.150215 0
M  V30 2462 C 240.415 2.1573 0.774157 0
M  V30 2463 C 241.415 1.0999 1.17298 0
M  V30 2464 O 242.605 1.35613 1.09338 0
M  V30 2465 C 239.737 2.72302 2.05096 0
M  V30 2466 H 240.93 2.98752 0.262201 0
M  V30 2467 H 238.483 1.55985 0.099248 0
M  V30 2468 H 239.218 1.92956 2.6065 0
M  V30 2469 H 239.003 3.49665 1.77416 0
M  V30 2470 H 240.493 3.17632 2.71109 0
M  V30 2471 N 240.93 -0.123565 1.57115 0
M  V30 2472 C 242.341 -0.681198 1.73829 0
M  V30 2473 C 242.692 -1.80535 0.768214 0
M  V30 2474 O 241.817 -2.16317 -0.0599103 0
M  V30 2475 C 242.412 -1.24246 3.15196 0
M  V30 2476 C 240.971 -1.74643 3.33432 0
M  V30 2477 C 240.118 -0.644284 2.69711 0
M  V30 2478 H 243.069 0.102315 1.5837 0
M  V30 2479 H 243.09 -2.11216 3.16493 0
M  V30 2480 H 242.602 -0.424062 3.85776 0
M  V30 2481 H 240.703 -2.58974 2.67886 0
M  V30 2482 H 240.816 -1.85902 4.41562 0
M  V30 2483 H 239.18 -1.07676 2.3082 0
M  V30 2484 H 239.963 0.163058 3.42913 0
M  V30 2485 N 242.408 -1.52605 -0.393616 0
M  V30 2486 C 243.654 -1.67672 -1.14079 0
M  V30 2487 C 243.987 -0.413121 -1.89755 0
M  V30 2488 O 243.262 0.588952 -1.85369 0
M  V30 2489 C 243.545 -2.9088 -2.12276 0
M  V30 2490 C 243.398 -4.27329 -1.40394 0
M  V30 2491 C 244.717 -3.09628 -3.12759 0
M  V30 2492 H 241.836 -0.610168 -0.413356 0
M  V30 2493 H 244.478 -1.85193 -0.424696 0
M  V30 2494 H 242.628 -2.76073 -2.73342 0
M  V30 2495 H 244.3 -4.53894 -0.82327 0
M  V30 2496 H 242.543 -4.2802 -0.705801 0
M  V30 2497 H 243.214 -5.09615 -2.12123 0
M  V30 2498 H 245.69 -3.23436 -2.61779 0
M  V30 2499 H 244.566 -3.97322 -3.78717 0
M  V30 2500 H 244.827 -2.23637 -3.81365 0
M  V30 2501 N 243.887 0.651787 -1.4349 0
M  V30 2502 C 245.136 1.40754 -1.44469 0
M  V30 2503 C 245.449 1.95463 -0.0731845 0
M  V30 2504 O 246.655 2.71471 0.0395721 0
M  V30 2505 C 245.111 2.54735 -2.5424 0
M  V30 2506 C 244.719 2.06628 -3.97504 0
M  V30 2507 C 246.463 3.32092 -2.64414 0
M  V30 2508 C 244.37 3.17829 -4.98737 0
M  V30 2509 H 243.3 0.528862 -0.53742 0
M  V30 2510 H 245.951 0.703365 -1.69485 0
M  V30 2511 H 244.333 3.2763 -2.22428 0
M  V30 2512 H 245.507 1.40734 -4.38783 0
M  V30 2513 H 243.822 1.42146 -3.91387 0
M  V30 2514 H 246.419 4.14952 -3.37223 0
M  V30 2515 H 246.762 3.80217 -1.69532 0
M  V30 2516 H 247.295 2.66279 -2.95534 0
M  V30 2517 H 244.034 2.74671 -5.95177 0
M  V30 2518 H 243.554 3.82429 -4.62069 0
M  V30 2519 H 245.233 3.82937 -5.21505 0
M  V30 2520 N 245.365 1.30045 0.890287 0
M  V30 2521 C 246.781 1.08261 1.17268 0
M  V30 2522 C 246.981 -0.160063 2.00863 0
M  V30 2523 O 246.037 -0.855181 2.37577 0
M  V30 2524 C 247.35 2.34323 1.8845 0
M  V30 2525 C 248.898 2.39735 2.01237 0
M  V30 2526 C 249.373 3.65625 2.7583 0
M  V30 2527 N 250.864 3.66402 2.83379 0
M  V30 2528 C 251.599 4.60498 3.41657 0
M  V30 2529 N 251.095 5.64933 4.01026 0
M  V30 2530 N 252.888 4.48051 3.39421 0
M  V30 2531 H 245.039 2.09777 0.332762 0
M  V30 2532 H 247.302 0.92446 0.209948 0
M  V30 2533 H 247.008 3.2498 1.34465 0
M  V30 2534 H 246.882 2.4256 2.88867 0
M  V30 2535 H 249.269 1.4956 2.54393 0
M  V30 2536 H 249.35 2.35476 0.999232 0
M  V30 2537 H 248.994 4.56156 2.23347 0
M  V30 2538 H 248.924 3.67144 3.77509 0
M  V30 2539 H 251.415 2.90896 2.41222 0
M  V30 2540 H 251.728 6.32841 4.43545 0
M  V30 2541 H 250.073 5.68732 3.99461 0
M  V30 2542 H 253.264 3.65649 2.92264 0
M  V30 2543 H 253.437 5.21565 3.84544 0
M  V30 2544 N 246.843 -1.10192 1.12674 0
M  V30 2545 C 247.753 -2.20172 0.810026 0
M  V30 2546 C 248.769 -1.72821 -0.202188 0
M  V30 2547 O 249.945 -2.01369 -0.0351691 0
M  V30 2548 C 247.01 -3.45631 0.272007 0
M  V30 2549 C 246.071 -4.07704 1.34447 0
M  V30 2550 C 245.304 -5.27175 0.832029 0
M  V30 2551 O 245.527 -5.69425 -0.333284 0
M  V30 2552 O 244.461 -5.80168 1.60277 0
M  V30 2553 H 248.287 -2.49701 1.72867 0
M  V30 2554 H 245.872 -1.18977 0.903597 0
M  V30 2555 H 247.754 -4.21394 -0.0230219 0
M  V30 2556 H 246.429 -3.17723 -0.619164 0
M  V30 2557 H 245.336 -3.33614 1.6927 0
M  V30 2558 H 246.669 -4.3982 2.2095 0
M  V30 2559 N 248.321 -0.919034 -1.28029 0
M  V30 2560 C 249.546 -0.570357 -1.99403 0
M  V30 2561 C 249.971 0.842486 -1.68178 0
M  V30 2562 O 249.329 1.56391 -0.917141 0
M  V30 2563 C 249.377 -0.792541 -3.51783 0
M  V30 2564 O 248.481 0.145988 -4.12142 0
M  V30 2565 H 247.822 -0.220555 -0.6263 0
M  V30 2566 H 250.352 -1.23592 -1.63053 0
M  V30 2567 H 250.362 -0.704708 -4.01868 0
M  V30 2568 H 249.037 -1.82247 -3.73844 0
M  V30 2569 H 247.614 0.00897528 -3.72899 0
M  V30 2570 N 249.799 1.42003 -0.683588 0
M  V30 2571 C 251.047 2.01015 -0.209101 0
M  V30 2572 C 251.368 1.54365 1.19149 0
M  V30 2573 O 250.638 0.769083 1.80172 0
M  V30 2574 H 249.218 0.743294 -0.074315 0
M  V30 2575 H 251.88 1.73798 -0.882066 0
M  V30 2576 H 250.976 3.11343 -0.2172 0
M  V30 2577 N 251.277 0.427512 1.51691 0
M  V30 2578 C 252.525 -0.141948 2.01601 0
M  V30 2579 C 252.846 -1.44067 1.31414 0
M  V30 2580 O 252.116 -1.90763 0.445658 0
M  V30 2581 H 250.696 -0.0554468 0.744939 0
M  V30 2582 H 253.358 0.567968 1.86441 0
M  V30 2583 H 252.454 -0.324913 3.10404 0
M  V30 2584 N 252.755 -1.56801 0.158532 0
M  V30 2585 C 254.032 -1.88131 -0.535357 0
M  V30 2586 C 254.412 -1.06638 -1.82186 0
M  V30 2587 O 253.76 -0.156533 -2.27963 0
M  V30 2588 C 253.97 -3.39949 -0.789653 0
M  V30 2589 C 255.318 -4.09416 -1.12533 0
M  V30 2590 O 256.342 -3.45194 -0.878622 0
M  V30 2591 O 255.201 -5.22855 -1.59014 0
M  V30 2592 H 252.295 -0.780143 -0.27442 0
M  V30 2593 H 254.841 -1.68564 0.19601 0
M  V30 2594 H 253.613 -3.91115 0.120353 0
M  V30 2595 H 253.236 -3.65084 -1.57479 0
M  V30 2596 N 254.233 0.115231 -1.57178 0
M  V30 2597 C 255.48 0.822351 -1.8505 0
M  V30 2598 C 255.808 1.79701 -0.744168 0
M  V30 2599 O 255.063 1.93909 0.26414 0
M  V30 2600 C 255.362 1.60324 -3.19423 0
M  V30 2601 C 255.028 0.772536 -4.44233 0
M  V30 2602 C 253.69 0.543468 -4.78121 0
M  V30 2603 C 256.042 0.193746 -5.2084 0
M  V30 2604 C 253.37 -0.274583 -5.86057 0
M  V30 2605 C 255.722 -0.611517 -6.29637 0
M  V30 2606 C 254.386 -0.850867 -6.62055 0
M  V30 2607 H 253.656 0.30092 -0.677147 0
M  V30 2608 H 256.303 0.0845802 -1.91313 0
M  V30 2609 H 254.608 2.41203 -3.08753 0
M  V30 2610 H 256.305 2.1544 -3.38211 0
M  V30 2611 H 252.895 0.96117 -4.17683 0
M  V30 2612 H 257.079 0.357926 -4.95008 0
M  V30 2613 H 252.335 -0.469206 -6.09597 0
M  V30 2614 H 256.509 -1.06697 -6.88178 0
M  V30 2615 H 254.136 -1.48657 -7.45523 0
M  V30 2616 N 255.711 1.52812 0.385517 0
M  V30 2617 C 256.674 1.77188 1.45386 0
M  V30 2618 C 257.674 0.641953 1.4743 0
M  V30 2619 O 258.864 0.910033 1.4854 0
M  V30 2620 C 255.996 1.87582 2.8465 0
M  V30 2621 H 257.189 2.72583 1.25054 0
M  V30 2622 H 254.742 1.43586 0.617467 0
M  V30 2623 H 255.477 0.941849 3.10322 0
M  V30 2624 H 255.262 2.69748 2.84567 0
M  V30 2625 H 256.752 2.08102 3.62054 0
M  V30 2626 N 257.189 -0.644168 1.43834 0
M  V30 2627 C 258.414 -1.43642 1.49605 0
M  V30 2628 C 258.839 -1.8773 0.117913 0
M  V30 2629 O 258.197 -1.57938 -0.890239 0
M  V30 2630 C 258.245 -2.6416 2.45463 0
M  V30 2631 O 257.349 -3.63538 1.94714 0
M  V30 2632 H 256.69 -0.430329 0.50568 0
M  V30 2633 H 259.22 -0.787448 1.8884 0
M  V30 2634 H 259.23 -3.11864 2.63068 0
M  V30 2635 H 257.905 -2.31414 3.45572 0
M  V30 2636 H 256.482 -3.2273 1.86814 0
M  V30 2637 N 258.668 -1.30515 -0.883378 0
M  V30 2638 C 259.914 -1.19607 -1.63774 0
M  V30 2639 C 260.247 0.248314 -1.92606 0
M  V30 2640 O 259.522 1.17742 -1.54813 0
M  V30 2641 C 259.805 -2.02669 -2.97653 0
M  V30 2642 C 259.658 -3.55335 -2.75784 0
M  V30 2643 C 260.977 -1.86573 -3.98596 0
M  V30 2644 H 258.096 -0.435856 -0.594305 0
M  V30 2645 H 260.738 -1.60165 -1.02212 0
M  V30 2646 H 258.888 -1.68208 -3.50197 0
M  V30 2647 H 260.56 -3.99863 -2.30016 0
M  V30 2648 H 258.803 -3.79438 -2.1026 0
M  V30 2649 H 259.474 -4.08745 -3.70988 0
M  V30 2650 H 261.95 -2.16703 -3.55217 0
M  V30 2651 H 260.826 -2.47014 -4.90179 0
M  V30 2652 H 261.087 -0.825321 -4.34328 0
M  V30 2653 N 260.146 1.09593 -1.13257 0
M  V30 2654 C 261.374 1.855 -0.916378 0
M  V30 2655 C 261.789 1.81069 0.534738 0
M  V30 2656 O 261.146 1.20562 1.37007 0
M  V30 2657 C 261.197 3.33546 -1.39388 0
M  V30 2658 O 260.918 3.37927 -2.78813 0
M  V30 2659 C 262.419 4.26299 -1.21588 0
M  V30 2660 H 259.639 0.585991 -0.326887 0
M  V30 2661 H 262.183 1.38488 -1.5047 0
M  V30 2662 H 260.338 3.77992 -0.848597 0
M  V30 2663 H 260.752 4.30254 -2.9997 0
M  V30 2664 H 262.226 5.28341 -1.59876 0
M  V30 2665 H 262.703 4.38918 -0.157376 0
M  V30 2666 H 263.309 3.87668 -1.7491 0
M  V30 2667 N 261.624 0.925811 1.2754 0
M  V30 2668 C 262.872 0.564138 1.94067 0
M  V30 2669 C 263.193 -0.897188 1.73134 0
M  V30 2670 O 262.463 -1.63573 1.07799 0
M  V30 2671 H 261.043 0.205645 0.718136 0
M  V30 2672 H 263.705 1.1778 1.55287 0
M  V30 2673 H 262.801 0.76881 3.02483 0
M  V30 2674 N 263.102 -1.41638 0.69111 0
M  V30 2675 C 264.35 -2.00902 0.219758 0
M  V30 2676 C 264.671 -1.54994 -1.18329 0
M  V30 2677 O 263.941 -0.778628 -1.79762 0
M  V30 2678 H 262.521 -0.74289 0.0782558 0
M  V30 2679 H 265.183 -1.73327 0.891271 0
M  V30 2680 H 264.279 -3.11224 0.233708 0
M  V30 2681 N 264.58 -0.43555 -1.51462 0
M  V30 2682 C 265.808 0.130242 -2.0649 0
M  V30 2683 C 266.223 1.36614 -1.30315 0
M  V30 2684 O 265.58 1.78869 -0.362223 0
M  V30 2685 C 265.631 0.454253 -3.58635 0
M  V30 2686 O 265.352 -0.73259 -4.31931 0
M  V30 2687 C 266.853 1.07091 -4.3017 0
M  V30 2688 H 264.073 0.00871669 -0.670943 0
M  V30 2689 H 266.617 -0.614117 -1.95061 0
M  V30 2690 H 264.772 1.14851 -3.69984 0
M  V30 2691 H 265.186 -0.455787 -5.22516 0
M  V30 2692 H 266.66 1.24764 -5.37716 0
M  V30 2693 H 267.137 2.05144 -3.88346 0
M  V30 2694 H 267.743 0.416089 -4.2326 0
M  V30 2695 N 266.058 1.56714 -0.166846 0
M  V30 2696 C 267.474 1.58473 0.189372 0
M  V30 2697 C 267.674 1.18201 1.63189 0
M  V30 2698 O 266.73 0.891528 2.36237 0
M  V30 2699 C 268.043 3.00573 -0.0873872 0
M  V30 2700 C 269.591 3.1299 -0.0252443 0
M  V30 2701 C 270.066 4.57174 -0.274934 0
M  V30 2702 N 271.557 4.62665 -0.222553 0
M  V30 2703 C 272.292 5.72072 -0.389985 0
M  V30 2704 N 271.788 6.90054 -0.616229 0
M  V30 2705 N 273.581 5.61153 -0.326202 0
M  V30 2706 H 265.732 1.8118 -1.10849 0
M  V30 2707 H 267.995 0.839525 -0.440342 0
M  V30 2708 H 267.701 3.34497 -1.0865 0
M  V30 2709 H 267.575 3.72019 0.623037 0
M  V30 2710 H 269.962 2.78895 0.96444 0
M  V30 2711 H 270.043 2.43989 -0.768309 0
M  V30 2712 H 269.687 4.91976 -1.26181 0
M  V30 2713 H 269.617 5.24328 0.48869 0
M  V30 2714 H 272.108 3.77863 -0.0531512 0
M  V30 2715 H 272.421 7.69311 -0.733559 0
M  V30 2716 H 270.766 6.91927 -0.652791 0
M  V30 2717 H 273.957 4.67859 -0.150072 0
M  V30 2718 H 274.13 6.46364 -0.460116 0
M  V30 2719 N 267.536 -0.106894 1.57237 0
M  V30 2720 C 268.785 -0.811163 1.8467 0
M  V30 2721 C 269.098 -1.80469 0.754342 0
M  V30 2722 O 270.304 -2.55601 0.915439 0
M  V30 2723 C 268.76 -1.49337 3.27454 0
M  V30 2724 C 268.368 -0.540217 4.44731 0
M  V30 2725 C 270.112 -2.18206 3.64124 0
M  V30 2726 C 268.019 -1.22634 5.78545 0
M  V30 2727 H 266.949 -0.306679 0.688813 0
M  V30 2728 H 269.6 -0.0639887 1.83388 0
M  V30 2729 H 267.982 -2.2876 3.23241 0
M  V30 2730 H 269.156 0.221659 4.60267 0
M  V30 2731 H 267.471 0.042146 4.16379 0
M  V30 2732 H 270.068 -2.70253 4.61376 0
M  V30 2733 H 270.411 -2.96562 2.92158 0
M  V30 2734 H 270.944 -1.45658 3.70174 0
M  V30 2735 H 267.683 -0.483832 6.53712 0
M  V30 2736 H 267.203 -1.95993 5.66874 0
M  V30 2737 H 268.882 -1.75615 6.2271 0
M  V30 2738 N 269.014 -1.53014 -0.377408 0
M  V30 2739 C 269.944 -1.81589 -1.46791 0
M  V30 2740 C 270.925 -0.668622 -1.56408 0
M  V30 2741 O 272.11 -0.917337 -1.71168 0
M  V30 2742 C 269.24 -1.99519 -2.8427 0
M  V30 2743 C 268.194 -3.15249 -2.89486 0
M  V30 2744 C 267.52 -3.18451 -4.29527 0
M  V30 2745 C 268.82 -4.54084 -2.58079 0
M  V30 2746 H 270.514 -2.7291 -1.23127 0
M  V30 2747 H 268.06 -1.31319 -0.590883 0
M  V30 2748 H 270.013 -2.18092 -3.60575 0
M  V30 2749 H 268.737 -1.04897 -3.09296 0
M  V30 2750 H 267.396 -2.96477 -2.15631 0
M  V30 2751 H 267.044 -2.2149 -4.5161 0
M  V30 2752 H 266.744 -3.962 -4.33934 0
M  V30 2753 H 268.268 -3.39193 -5.07721 0
M  V30 2754 H 269.682 -4.72899 -3.24098 0
M  V30 2755 H 268.079 -5.33987 -2.7382 0
M  V30 2756 H 269.149 -4.60006 -1.53372 0
M  V30 2757 N 270.492 0.636531 -1.44174 0
M  V30 2758 C 271.717 1.42847 -1.50364 0
M  V30 2759 C 272.142 1.87665 -0.127867 0
M  V30 2760 O 271.5 1.58408 0.88185 0
M  V30 2761 C 271.548 2.62854 -2.4686 0
M  V30 2762 O 270.652 3.62501 -1.9664 0
M  V30 2763 H 269.993 0.427642 -0.507955 0
M  V30 2764 H 272.523 0.777422 -1.89255 0
M  V30 2765 H 272.533 3.10465 -2.64718 0
M  V30 2766 H 271.208 2.29578 -3.46795 0
M  V30 2767 H 269.785 3.21735 -1.88523 0
M  V30 2768 N 271.97 1.30982 0.876444 0
M  V30 2769 C 273.247 1.10942 1.61094 0
M  V30 2770 C 273.627 -0.338223 2.08373 0
M  V30 2771 O 272.975 -1.33122 1.85717 0
M  V30 2772 C 273.185 2.11789 2.77392 0
M  V30 2773 C 274.533 2.43965 3.47514 0
M  V30 2774 O 275.557 2.10166 2.87591 0
M  V30 2775 O 274.416 3.01817 4.55597 0
M  V30 2776 H 271.51 0.42667 0.708436 0
M  V30 2777 H 274.056 1.42438 0.922474 0
M  V30 2778 H 272.828 3.09194 2.39823 0
M  V30 2779 H 272.451 1.81161 3.5393 0
M  V30 2780 N 273.449 -1.08991 1.13837 0
M  V30 2781 C 274.695 -1.81699 0.91417 0
M  V30 2782 C 275.05 -1.84264 -0.553594 0
M  V30 2783 O 274.343 -1.30313 -1.4046 0
M  V30 2784 C 274.537 -3.27042 1.44147 0
M  V30 2785 C 274.366 -3.38637 2.95897 0
M  V30 2786 C 273.136 -3.50177 3.64286 0
M  V30 2787 C 275.334 -3.30791 3.93804 0
M  V30 2788 N 273.316 -3.50501 5.04006 0
M  V30 2789 C 274.687 -3.38037 5.19741 0
M  V30 2790 C 276.742 -3.14488 3.86007 0
M  V30 2791 C 275.445 -3.30659 6.38793 0
M  V30 2792 C 277.471 -3.08438 5.04599 0
M  V30 2793 C 276.833 -3.1628 6.29402 0
M  V30 2794 H 272.932 -0.678967 0.387979 0
M  V30 2795 H 275.516 -1.30224 1.4474 0
M  V30 2796 H 273.687 -3.76976 0.935091 0
M  V30 2797 H 275.419 -3.87785 1.1578 0
M  V30 2798 H 272.174 -3.53815 3.1482 0
M  V30 2799 H 272.598 -3.54236 5.76928 0
M  V30 2800 H 277.24 -3.07291 2.90399 0
M  V30 2801 H 274.958 -3.36618 7.34652 0
M  V30 2802 H 278.544 -2.96952 5.0031 0
M  V30 2803 H 277.424 -3.1162 7.19627 0
M  V30 2804 N 274.927 -0.932562 -1.27047 0
M  V30 2805 C 275.857 -0.452902 -2.29066 0
M  V30 2806 C 276.838 0.489338 -1.62909 0
M  V30 2807 O 278.023 0.393046 -1.90181 0
M  V30 2808 C 275.153 0.290698 -3.46081 0
M  V30 2809 C 274.107 -0.564168 -4.24265 0
M  V30 2810 C 273.433 0.308886 -5.33807 0
M  V30 2811 C 274.733 -1.83112 -4.89149 0
M  V30 2812 H 276.427 -1.30552 -2.69437 0
M  V30 2813 H 273.973 -0.629201 -1.29526 0
M  V30 2814 H 275.926 0.637233 -4.16554 0
M  V30 2815 H 274.65 1.17738 -3.0464 0
M  V30 2816 H 273.309 -0.893477 -3.55545 0
M  V30 2817 H 272.957 1.19467 -4.88607 0
M  V30 2818 H 272.657 -0.259633 -5.87026 0
M  V30 2819 H 274.181 0.650884 -6.07121 0
M  V30 2820 H 275.595 -1.55236 -5.51883 0
M  V30 2821 H 273.992 -2.34353 -5.52448 0
M  V30 2822 H 275.062 -2.54772 -4.12576 0
M  V30 2823 N 276.405 1.4127 -0.698611 0
M  V30 2824 C 277.651 2.01478 -0.231207 0
M  V30 2825 C 277.984 1.55215 1.16713 0
M  V30 2826 O 277.259 0.764672 1.78838 0
M  V30 2827 C 277.542 3.58912 -0.292281 0
M  V30 2828 C 277.395 4.15293 -1.72778 0
M  V30 2829 C 278.714 4.38736 0.346194 0
M  V30 2830 H 275.833 0.732025 -0.0854878 0
M  V30 2831 H 278.475 1.67977 -0.887906 0
M  V30 2832 H 276.625 3.87582 0.26686 0
M  V30 2833 H 278.297 3.97486 -2.341 0
M  V30 2834 H 276.54 3.7022 -2.26096 0
M  V30 2835 H 277.211 5.24452 -1.72202 0
M  V30 2836 H 279.687 4.15897 -0.130035 0
M  V30 2837 H 278.563 5.48221 0.272932 0
M  V30 2838 H 278.824 4.18425 1.42734 0
M  V30 2839 N 277.883 0.443576 1.51229 0
M  V30 2840 C 279.132 -0.122332 2.01329 0
M  V30 2841 C 279.445 -1.43237 1.33201 0
M  V30 2842 O 280.651 -2.0816 1.74304 0
M  V30 2843 C 279.107 -0.268551 3.58897 0
M  V30 2844 C 278.715 1.03142 4.35965 0
M  V30 2845 C 280.459 -0.787894 4.17124 0
M  V30 2846 C 278.366 0.850504 5.85252 0
M  V30 2847 H 277.296 -0.0494929 0.752374 0
M  V30 2848 H 279.947 0.574289 1.74282 0
M  V30 2849 H 278.329 -1.02832 3.82415 0
M  V30 2850 H 279.503 1.80001 4.24189 0
M  V30 2851 H 277.818 1.47977 3.89219 0
M  V30 2852 H 280.415 -0.939841 5.26375 0
M  V30 2853 H 280.758 -1.77201 3.76703 0
M  V30 2854 H 281.291 -0.0862669 3.97706 0
M  V30 2855 H 278.03 1.80718 6.30096 0
M  V30 2856 H 277.55 0.121825 5.99676 0
M  V30 2857 H 279.229 0.506163 6.45017 0
M  V30 2858 N 279.361 -1.56624 0.175154 0
M  V30 2859 C 280.271 -2.21741 -0.766042 0
M  V30 2860 C 281.287 -1.21023 -1.25018 0
M  V30 2861 O 282.463 -1.53697 -1.3015 0
M  V30 2862 C 279.528 -2.84839 -1.97655 0
M  V30 2863 C 278.589 -4.00769 -1.53892 0
M  V30 2864 C 277.822 -4.60849 -2.69173 0
M  V30 2865 O 278.045 -4.19823 -3.86141 0
M  V30 2866 O 276.979 -5.50655 -2.43028 0
M  V30 2867 H 280.805 -3.02738 -0.241585 0
M  V30 2868 H 278.39 -1.49305 -0.053222 0
M  V30 2869 H 280.272 -3.24834 -2.68442 0
M  V30 2870 H 278.947 -2.06836 -2.48999 0
M  V30 2871 H 277.854 -3.65436 -0.80044 0
M  V30 2872 H 279.187 -4.80376 -1.07236 0
M  V30 2873 N 280.839 0.0985539 -1.57292 0
M  V30 2874 C 282.079 0.808332 -1.87737 0
M  V30 2875 C 282.443 1.7607 -0.76572 0
M  V30 2876 O 283.644 2.51358 -0.952499 0
M  V30 2877 C 281.915 1.52093 -3.23423 0
M  V30 2878 S 283.474 2.26947 -3.75554 0
M  V30 2879 H 280.292 0.269377 -0.657995 0
M  V30 2880 H 282.894 0.0656269 -1.9539 0
M  V30 2881 H 281.598 0.81363 -4.02254 0
M  V30 2882 H 281.129 2.30361 -3.189 0
M  V30 2883 H 283.144 3.53027 -3.48692 0
M  V30 2884 N 282.317 1.53212 0.369288 0
M  V30 2885 C 283.542 1.73423 1.1375 0
M  V30 2886 C 283.967 0.460404 1.82378 0
M  V30 2887 O 283.325 -0.585298 1.71592 0
M  V30 2888 C 283.373 2.89769 2.1463 0
M  V30 2889 O 282.477 2.58119 3.21634 0
M  V30 2890 H 281.818 0.576061 0.330227 0
M  V30 2891 H 284.348 2.00083 0.427547 0
M  V30 2892 H 284.358 3.15829 2.58294 0
M  V30 2893 H 283.033 3.8217 1.64071 0
M  V30 2894 H 281.61 2.42864 2.82969 0
M  V30 2895 N 283.795 -0.628877 1.44509 0
M  V30 2896 C 285.041 -1.39045 1.47629 0
M  V30 2897 C 285.374 -1.93892 0.109343 0
M  V30 2898 O 284.649 -1.7379 -0.87334 0
M  V30 2899 C 284.932 -2.55408 2.53848 0
M  V30 2900 C 284.785 -2.05896 3.99909 0
M  V30 2901 C 286.104 -3.5759 2.56549 0
M  V30 2902 H 283.223 -0.504232 0.537512 0
M  V30 2903 H 285.865 -0.710854 1.76201 0
M  V30 2904 H 284.015 -3.13384 2.29615 0
M  V30 2905 H 285.687 -1.52734 4.35282 0
M  V30 2906 H 283.93 -1.37061 4.11578 0
M  V30 2907 H 284.601 -2.89681 4.69882 0
M  V30 2908 H 287.077 -3.09419 2.78207 0
M  V30 2909 H 285.953 -4.36527 3.32769 0
M  V30 2910 H 286.214 -4.11808 1.60832 0
M  V30 2911 N 285.273 -1.31445 -0.869486 0
M  V30 2912 C 286.221 -1.19067 -1.99814 0
M  V30 2913 C 287.215 -0.0988569 -1.69111 0
M  V30 2914 O 288.421 -0.260781 -1.78101 0
M  V30 2915 H 284.796 -0.368677 -0.655425 0
M  V30 2916 H 286.767 -2.14555 -2.07385 0
M  V30 2917 C 285.516 -0.915323 -3.35436 0
M  V30 2918 H 284.839 -1.74759 -3.59582 0
M  V30 2919 H 286.279 -0.868895 -4.15001 0
M  V30 2920 C 284.738 0.381928 -3.34728 0
M  V30 2921 O 285.268 1.39857 -3.76567 0
M  V30 2922 N 283.474 0.398633 -2.87853 0
M  V30 2923 H 283.021 -0.429186 -2.54 0
M  V30 2924 H 282.979 1.26651 -2.87762 0
M  V30 2925 N 286.751 1.08385 -1.14413 0
M  V30 2926 C 288.162 1.62258 -0.923535 0
M  V30 2927 C 288.513 1.88691 0.537595 0
M  V30 2928 O 287.638 1.64454 1.40655 0
M  V30 2929 C 288.233 2.94781 -1.67002 0
M  V30 2930 C 286.792 3.45437 -1.495 0
M  V30 2931 C 285.939 2.19668 -1.69238 0
M  V30 2932 H 288.89 0.916086 -1.2959 0
M  V30 2933 H 288.911 3.63229 -1.13334 0
M  V30 2934 H 288.423 2.7551 -2.73342 0
M  V30 2935 H 286.524 3.6981 -0.455097 0
M  V30 2936 H 286.637 4.22173 -2.2651 0
M  V30 2937 H 285.001 2.28849 -1.11804 0
M  V30 2938 H 285.784 2.02905 -2.7692 0
M  V30 2939 N 288.23 0.939286 1.26551 0
M  V30 2940 C 289.478 0.58469 1.93457 0
M  V30 2941 C 289.799 -0.878774 1.74076 0
M  V30 2942 O 289.069 -1.62421 1.09528 0
M  V30 2943 H 287.649 0.21325 0.715914 0
M  V30 2944 H 290.311 1.1942 1.54029 0
M  V30 2945 H 289.407 0.800849 3.0165 0
M  V30 2946 N 289.708 -1.40897 0.706093 0
M  V30 2947 C 290.618 -2.3455 0.0482286 0
M  V30 2948 C 291.634 -1.56796 -0.754396 0
M  V30 2949 O 292.81 -1.89228 -0.689538 0
M  V30 2950 C 289.875 -3.35625 -0.869303 0
M  V30 2951 C 288.936 -4.29261 -0.0576994 0
M  V30 2952 C 288.169 -5.25508 -0.931531 0
M  V30 2953 O 288.392 -5.27472 -2.17092 0
M  V30 2954 O 287.326 -6.00727 -0.375587 0
M  V30 2955 H 291.152 -2.92407 0.820476 0
M  V30 2956 H 288.737 -1.4193 0.4665 0
M  V30 2957 H 290.619 -3.97635 -1.39514 0
M  V30 2958 H 289.294 -2.80196 -1.62086 0
M  V30 2959 H 288.201 -3.70566 0.512988 0
M  V30 2960 H 289.534 -4.87817 0.655426 0
M  V30 2961 N 291.186 -0.45159 -1.50991 0
M  V30 2962 C 292.414 0.108334 -2.06616 0
M  V30 2963 C 292.829 1.35224 -1.31757 0
M  V30 2964 O 292.186 1.78475 -0.381174 0
M  V30 2965 C 292.237 0.41619 -3.59096 0
M  V30 2966 O 291.958 -0.778361 -4.3113 0
M  V30 2967 C 293.459 1.02523 -4.31282 0
M  V30 2968 H 290.679 0.00159995 -0.670998 0
M  V30 2969 H 293.223 -0.634771 -1.94399 0
M  V30 2970 H 291.378 1.10921 -3.71181 0
M  V30 2971 H 291.792 -0.511181 -5.22003 0
M  V30 2972 H 293.266 1.19053 -5.39009 0
M  V30 2973 H 293.743 2.01013 -3.905 0
M  V30 2974 H 294.349 0.371173 -4.23677 0
M  V30 2975 N 292.664 1.56529 -0.183458 0
M  V30 2976 C 293.911 1.97244 0.458357 0
M  V30 2977 C 294.239 1.06992 1.62428 0
M  V30 2978 O 293.494 0.106542 1.9541 0
M  V30 2979 C 293.793 3.43939 0.971637 0
M  V30 2980 C 293.459 4.5083 -0.0796784 0
M  V30 2981 C 292.121 4.79786 -0.368584 0
M  V30 2982 C 294.473 5.15138 -0.792638 0
M  V30 2983 C 291.801 5.70345 -1.37563 0
M  V30 2984 C 294.153 6.06784 -1.78875 0
M  V30 2985 C 292.817 6.34102 -2.08497 0
M  V30 2986 H 292.087 0.721768 0.167725 0
M  V30 2987 H 294.734 1.89472 -0.277976 0
M  V30 2988 H 293.039 3.48724 1.78602 0
M  V30 2989 H 294.736 3.72791 1.47744 0
M  V30 2990 H 291.326 4.28317 0.155668 0
M  V30 2991 H 295.51 4.92868 -0.582659 0
M  V30 2992 H 290.766 5.89789 -1.61118 0
M  V30 2993 H 294.94 6.55677 -2.3465 0
M  V30 2994 H 292.567 7.04074 -2.86678 0
M  V30 2995 N 294.142 -0.090211 1.57342 0
M  V30 2996 C 295.072 -1.10976 2.05443 0
M  V30 2997 C 296.053 -1.41482 0.944284 0
M  V30 2998 O 297.238 -1.51428 1.21586 0
M  V30 2999 C 294.368 -2.42831 2.48295 0
M  V30 3000 C 293.322 -2.26721 3.63018 0
M  V30 3001 C 292.648 -3.63796 3.91863 0
M  V30 3002 C 293.948 -1.7037 4.93732 0
M  V30 3003 H 295.642 -0.709564 2.9087 0
M  V30 3004 H 293.188 -0.339874 1.39932 0
M  V30 3005 H 295.141 -3.14431 2.80555 0
M  V30 3006 H 293.865 -2.84795 1.59873 0
M  V30 3007 H 292.524 -1.57565 3.31012 0
M  V30 3008 H 292.172 -4.03297 3.00601 0
M  V30 3009 H 291.872 -3.53861 4.69101 0
M  V30 3010 H 293.396 -4.36855 4.26603 0
M  V30 3011 H 294.81 -2.31816 5.24342 0
M  V30 3012 H 293.207 -1.71181 5.75167 0
M  V30 3013 H 294.277 -0.663542 4.80339 0
M  V30 3014 N 295.62 -1.53406 -0.361157 0
M  V30 3015 C 296.897 -1.60411 -1.11927 0
M  V30 3016 C 297.277 -0.414385 -2.06993 0
M  V30 3017 O 296.625 0.594976 -2.20618 0
M  V30 3018 C 296.835 -2.95652 -1.85448 0
M  V30 3019 C 298.183 -3.50386 -2.39823 0
M  V30 3020 O 299.207 -2.97711 -1.95568 0
M  V30 3021 O 298.066 -4.42482 -3.20737 0
M  V30 3022 H 295.16 -0.64811 -0.513695 0
M  V30 3023 H 297.706 -1.65749 -0.364065 0
M  V30 3024 H 296.478 -3.73682 -1.16091 0
M  V30 3025 H 296.101 -2.93825 -2.67866 0
M  V30 3026 N 297.098 0.621204 -1.44841 0
M  V30 3027 C 298.514 0.94048 -1.28946 0
M  V30 3028 C 298.714 2.00154 -0.23249 0
M  V30 3029 O 297.77 2.49651 0.378237 0
M  V30 3030 C 299.083 1.39433 -2.66419 0
M  V30 3031 C 300.631 1.50927 -2.74208 0
M  V30 3032 C 301.106 1.99692 -4.12174 0
M  V30 3033 N 302.597 2.06947 -4.144 0
M  V30 3034 C 303.332 2.45871 -5.1801 0
M  V30 3035 N 302.828 2.83862 -6.31977 0
M  V30 3036 N 304.621 2.46092 -5.05366 0
M  V30 3037 H 296.772 -0.0803548 -2.12248 0
M  V30 3038 H 299.035 0.0266913 -0.947624 0
M  V30 3039 H 298.741 0.688925 -3.44887 0
M  V30 3040 H 298.615 2.36347 -2.93973 0
M  V30 3041 H 301.002 2.20561 -1.96053 0
M  V30 3042 H 301.083 0.523627 -2.50383 0
M  V30 3043 H 300.727 1.30649 -4.90809 0
M  V30 3044 H 300.657 2.99146 -4.33381 0
M  V30 3045 H 303.148 1.80232 -3.32152 0
M  V30 3046 H 303.461 3.12405 -7.0684 0
M  V30 3047 H 301.806 2.8159 -6.35399 0
M  V30 3048 H 304.997 2.1581 -4.15384 0
M  V30 3049 H 305.17 2.76102 -5.86235 0
M  V30 3050 N 298.576 1.31904 0.862503 0
M  V30 3051 C 299.509 1.14514 1.97388 0
M  V30 3052 C 300.487 0.0466493 1.62533 0
M  V30 3053 O 301.671 0.204484 1.87388 0
M  V30 3054 C 298.798 0.751347 3.30261 0
M  V30 3055 C 297.844 1.85395 3.84098 0
M  V30 3056 S 298.677 3.46081 4.08642 0
M  V30 3057 C 299.833 3.08655 5.44502 0
M  V30 3058 H 300.066 2.08597 2.11836 0
M  V30 3059 H 297.599 1.16475 1.01356 0
M  V30 3060 H 299.557 0.530901 4.07052 0
M  V30 3061 H 298.218 -0.170493 3.13637 0
M  V30 3062 H 297.411 1.53122 4.80177 0
M  V30 3063 H 297.013 2.02984 3.14123 0
M  V30 3064 H 299.305 2.58012 6.26447 0
M  V30 3065 H 300.248 4.03726 5.81731 0
M  V30 3066 H 300.656 2.45891 5.08132 0
M  V30 3067 N 300.054 -1.07777 1.14986 0
M  V30 3068 C 301.303 -1.79669 0.916617 0
M  V30 3069 C 301.616 -1.87474 -0.557917 0
M  V30 3070 O 302.822 -2.55845 -0.908617 0
M  V30 3071 C 301.278 -3.22848 1.59051 0
M  V30 3072 C 300.886 -3.23257 3.10176 0
M  V30 3073 C 302.63 -3.99379 1.43864 0
M  V30 3074 C 300.537 -4.61063 3.70372 0
M  V30 3075 H 299.467 -0.673349 0.33929 0
M  V30 3076 H 302.118 -1.21003 1.37951 0
M  V30 3077 H 300.5 -3.8168 1.0553 0
M  V30 3078 H 301.674 -2.74095 3.70417 0
M  V30 3079 H 299.989 -2.60222 3.25074 0
M  V30 3080 H 302.586 -5.0122 1.86232 0
M  V30 3081 H 302.929 -4.14511 0.385564 0
M  V30 3082 H 303.462 -3.47032 1.94457 0
M  V30 3083 H 300.201 -4.51135 4.7556 0
M  V30 3084 H 299.721 -5.1048 3.14913 0
M  V30 3085 H 301.4 -5.30034 3.71043 0
M  V30 3086 N 301.532 -0.945985 -1.26051 0
M  V30 3087 C 302.495 -0.463897 -2.24456 0
M  V30 3088 C 303.495 0.427655 -1.55009 0
M  V30 3089 O 304.685 0.226157 -1.72726 0
M  V30 3090 C 301.817 0.330812 -3.39291 0
M  V30 3091 H 303.01 -1.33357 -2.68619 0
M  V30 3092 H 300.563 -0.728416 -1.38289 0
M  V30 3093 H 301.298 1.21852 -3.00537 0
M  V30 3094 H 301.083 -0.308679 -3.90883 0
M  V30 3095 H 302.573 0.657865 -4.12386 0
M  V30 3096 N 303.011 1.40521 -0.713556 0
M  V30 3097 C 303.944 2.28198 -0.00881422 0
M  V30 3098 C 304.922 1.43227 0.769735 0
M  V30 3099 O 306.106 1.72641 0.756799 0
M  V30 3100 C 303.233 3.23758 0.994899 0
M  V30 3101 C 302.279 4.25391 0.3074 0
M  V30 3102 S 303.112 5.26765 -0.963247 0
M  V30 3103 C 304.268 6.25888 0.0384143 0
M  V30 3104 H 304.501 2.87622 -0.752407 0
M  V30 3105 H 302.034 1.45925 -0.504502 0
M  V30 3106 H 303.992 3.79341 1.56879 0
M  V30 3107 H 302.653 2.63396 1.71118 0
M  V30 3108 H 301.846 4.92596 1.0661 0
M  V30 3109 H 301.448 3.73497 -0.193879 0
M  V30 3110 H 303.74 6.71683 0.885912 0
M  V30 3111 H 304.683 7.05552 -0.60019 0
M  V30 3112 H 305.091 5.63072 0.401233 0
M  V30 3113 N 304.489 0.459591 1.5075 0
M  V30 3114 C 305.735 -0.0994966 2.02556 0
M  V30 3115 C 306.068 -1.40399 1.3417 0
M  V30 3116 O 305.343 -1.88892 0.463683 0
M  V30 3117 C 305.626 -0.295242 3.58888 0
M  V30 3118 C 305.479 1.02947 4.37861 0
M  V30 3119 C 306.798 -1.05502 4.27267 0
M  V30 3120 H 303.917 -0.034686 0.736183 0
M  V30 3121 H 306.559 0.602938 1.8018 0
M  V30 3122 H 304.709 -0.893563 3.78084 0
M  V30 3123 H 306.381 1.66348 4.30263 0
M  V30 3124 H 304.624 1.62885 4.02058 0
M  V30 3125 H 305.295 0.846281 5.45474 0
M  V30 3126 H 307.771 -0.547993 4.12476 0
M  V30 3127 H 306.647 -1.16077 5.36486 0
M  V30 3128 H 306.908 -2.08875 3.89645 0
M  V30 3129 N 305.967 -1.56429 0.191757 0
M  V30 3130 C 306.877 -2.22541 -0.742481 0
M  V30 3131 C 307.893 -1.22342 -1.23727 0
M  V30 3132 O 309.069 -1.55069 -1.28513 0
M  V30 3133 C 306.134 -2.8692 -1.94623 0
M  V30 3134 C 305.195 -4.02378 -1.49633 0
M  V30 3135 C 304.428 -4.63678 -2.6427 0
M  V30 3136 O 304.651 -4.23895 -3.81666 0
M  V30 3137 O 303.585 -5.53202 -2.37174 0
M  V30 3138 H 307.411 -3.02977 -0.209462 0
M  V30 3139 H 304.996 -1.49353 -0.0373832 0
M  V30 3140 H 306.878 -3.27663 -2.64982 0
M  V30 3141 H 305.553 -2.09466 -2.46791 0
M  V30 3142 H 304.46 -3.66265 -0.761636 0
M  V30 3143 H 305.793 -4.81487 -1.02134 0
M  V30 3144 N 307.445 0.0818655 -1.57387 0
M  V30 3145 C 308.693 0.781368 -1.86384 0
M  V30 3146 C 309.014 1.78618 -0.782342 0
M  V30 3147 O 308.284 1.94976 0.190061 0
M  V30 3148 H 306.864 0.291562 -0.687751 0
M  V30 3149 H 309.526 0.060348 -1.94807 0
M  V30 3150 H 308.622 1.3038 -2.83562 0
M  V30 3151 N 308.923 1.53595 0.353017 0
M  V30 3152 C 309.886 1.80232 1.41594 0
M  V30 3153 C 310.886 0.673081 1.46035 0
M  V30 3154 O 312.076 0.941335 1.46576 0
M  V30 3155 C 309.208 1.93578 2.80607 0
M  V30 3156 H 310.401 2.75174 1.19244 0
M  V30 3157 H 307.954 1.44864 0.586872 0
M  V30 3158 H 308.689 1.00746 3.08254 0
M  V30 3159 H 308.474 2.75724 2.78781 0
M  V30 3160 H 309.964 2.15735 3.57558 0
M  V30 3161 N 310.401 -0.613514 1.45168 0
M  V30 3162 C 311.333 -1.73825 1.4939 0
M  V30 3163 C 312.346 -1.58175 0.385304 0
M  V30 3164 O 313.535 -1.66165 0.652036 0
M  V30 3165 C 310.635 -3.11758 1.32891 0
M  V30 3166 C 309.808 -3.53704 2.57317 0
M  V30 3167 C 308.867 -4.70579 2.35462 0
M  V30 3168 O 307.893 -4.77996 3.09044 0
M  V30 3169 N 309.095 -5.63454 1.39644 0
M  V30 3170 H 311.86 -1.70669 2.46358 0
M  V30 3171 H 309.421 -0.79862 1.40832 0
M  V30 3172 H 311.413 -3.87692 1.1609 0
M  V30 3173 H 309.983 -3.09456 0.442218 0
M  V30 3174 H 309.203 -2.67794 2.89275 0
M  V30 3175 H 310.491 -3.78486 3.40038 0
M  V30 3176 H 309.889 -5.6017 0.789062 0
M  V30 3177 H 308.446 -6.38944 1.28816 0
M  V30 3178 N 311.879 -1.3236 -0.855495 0
M  V30 3179 C 313.295 -1.11332 -1.14356 0
M  V30 3180 C 313.495 0.106751 -2.01217 0
M  V30 3181 O 312.551 0.791891 -2.39761 0
M  V30 3182 C 313.864 -2.39237 -1.82171 0
M  V30 3183 C 315.412 -2.44986 -1.9481 0
M  V30 3184 C 315.887 -3.7281 -2.66039 0
M  V30 3185 N 317.378 -3.73787 -2.73565 0
M  V30 3186 C 318.113 -4.69394 -3.29327 0
M  V30 3187 N 317.609 -5.75367 -3.85907 0
M  V30 3188 N 319.402 -4.56893 -3.27423 0
M  V30 3189 H 311.553 -2.10586 -0.277027 0
M  V30 3190 H 313.816 -0.929701 -0.185364 0
M  V30 3191 H 313.522 -3.28431 -1.25802 0
M  V30 3192 H 313.396 -2.50134 -2.82335 0
M  V30 3193 H 315.783 -1.56252 -2.50338 0
M  V30 3194 H 315.864 -2.38043 -0.936448 0
M  V30 3195 H 315.508 -4.61918 -2.11174 0
M  V30 3196 H 315.438 -3.77024 -3.67642 0
M  V30 3197 H 317.929 -2.97189 -2.33424 0
M  V30 3198 H 318.242 -6.44378 -4.26611 0
M  V30 3199 H 316.587 -5.79123 -3.84242 0
M  V30 3200 H 319.778 -3.73269 -2.82467 0
M  V30 3201 H 319.951 -5.31577 -3.7058 0
M  V30 3202 N 313.357 1.07166 -1.15556 0
M  V30 3203 C 314.773 1.31899 -0.898603 0
M  V30 3204 C 314.973 1.96333 0.453383 0
M  V30 3205 O 314.029 2.22438 1.19489 0
M  V30 3206 C 315.342 2.20826 -2.04099 0
M  V30 3207 C 316.89 2.34269 -2.07574 0
M  V30 3208 C 317.365 3.26546 -3.21141 0
M  V30 3209 N 318.856 3.34127 -3.20801 0
M  V30 3210 C 319.591 4.05595 -4.05315 0
M  V30 3211 N 319.087 4.79661 -4.99897 0
M  V30 3212 N 320.88 4.01555 -3.93332 0
M  V30 3213 H 313.031 0.637302 -2.02613 0
M  V30 3214 H 315.294 0.343468 -0.883591 0
M  V30 3215 H 315 1.80744 -3.01703 0
M  V30 3216 H 314.874 3.21364 -1.97496 0
M  V30 3217 H 317.261 2.73603 -1.10568 0
M  V30 3218 H 317.342 1.33429 -2.18244 0
M  V30 3219 H 316.986 2.87931 -4.184 0
M  V30 3220 H 316.916 4.27345 -3.07708 0
M  V30 3221 H 319.407 2.81336 -2.52306 0
M  V30 3222 H 319.72 5.31694 -5.60822 0
M  V30 3223 H 318.065 4.78671 -5.03884 0
M  V30 3224 H 321.256 3.42806 -3.18751 0
M  V30 3225 H 321.429 4.56987 -4.5942 0
M  V30 3226 N 314.835 0.952656 1.25548 0
M  V30 3227 C 315.782 0.47008 2.25962 0
M  V30 3228 C 316.752 -0.476384 1.59122 0
M  V30 3229 O 317.937 -0.39007 1.8677 0
M  V30 3230 C 315.077 -0.247881 3.44209 0
M  V30 3231 C 314.19 0.735591 4.25691 0
M  V30 3232 C 313.325 -0.0047306 5.312 0
M  V30 3233 C 312.364 0.969805 6.04368 0
M  V30 3234 N 311.501 0.260486 7.01617 0
M  V30 3235 H 316.341 1.33126 2.66611 0
M  V30 3236 H 313.878 0.66765 1.31076 0
M  V30 3237 H 315.836 -0.680695 4.1161 0
M  V30 3238 H 314.466 -1.07312 3.0444 0
M  V30 3239 H 313.518 1.28689 3.57971 0
M  V30 3240 H 314.83 1.47934 4.76358 0
M  V30 3241 H 313.984 -0.496275 6.04667 0
M  V30 3242 H 312.723 -0.781282 4.81401 0
M  V30 3243 H 311.728 1.47237 5.29718 0
M  V30 3244 H 312.953 1.74655 6.56256 0
M  V30 3245 H 310.899 -0.497364 6.54112 0
M  V30 3246 H 310.816 0.943362 7.50091 0
M  V30 3247 H 312.084 -0.209587 7.79218 0
M  V30 3248 N 316.313 -1.40141 0.720998 0
M  V30 3249 C 317.541 -2.05096 0.272656 0
M  V30 3250 C 317.956 -1.54334 -1.0875 0
M  V30 3251 O 317.313 -0.702211 -1.6845 0
M  V30 3252 C 317.364 -3.60636 0.249835 0
M  V30 3253 O 317.085 -4.09526 1.55629 0
M  V30 3254 C 318.586 -4.42772 -0.216396 0
M  V30 3255 H 315.806 -0.659897 0.121558 0
M  V30 3256 H 318.35 -1.79449 0.980723 0
M  V30 3257 H 316.505 -3.85232 -0.409237 0
M  V30 3258 H 316.919 -5.03758 1.4604 0
M  V30 3259 H 318.393 -5.51702 -0.181212 0
M  V30 3260 H 318.87 -4.20756 -1.25941 0
M  V30 3261 H 319.476 -4.23294 0.412596 0
M  V30 3262 N 317.792 -0.46758 -1.50504 0
M  V30 3263 C 319.203 -0.0116166 -1.86696 0
M  V30 3264 C 319.554 1.39202 -1.38265 0
M  V30 3265 O 318.679 2.0313 -0.746132 0
M  V30 3266 C 319.274 -0.0143044 -3.38797 0
M  V30 3267 C 317.833 0.386175 -3.74414 0
M  V30 3268 C 316.98 -0.401287 -2.74381 0
M  V30 3269 H 319.931 -0.682022 -1.43297 0
M  V30 3270 H 319.952 0.788641 -3.72237 0
M  V30 3271 H 319.464 -1.03602 -3.74016 0
M  V30 3272 H 317.565 1.41237 -3.44794 0
M  V30 3273 H 317.678 0.0899596 -4.79016 0
M  V30 3274 H 316.042 0.144536 -2.5429 0
M  V30 3275 H 316.825 -1.42244 -3.12444 0
M  V30 3276 N 319.27 1.56325 -0.20005 0
M  V30 3277 C 320.218 2.20666 0.735482 0
M  V30 3278 C 321.212 1.17934 1.21605 0
M  V30 3279 O 322.418 1.36068 1.17837 0
M  V30 3280 H 318.793 0.70725 0.255542 0
M  V30 3281 H 320.764 2.9792 0.169166 0
M  V30 3282 C 319.513 2.88391 1.94232 0
M  V30 3283 H 318.836 3.67185 1.58161 0
M  V30 3284 H 320.276 3.3684 2.57517 0
M  V30 3285 C 318.735 1.89692 2.78421 0
M  V30 3286 O 319.265 1.40032 3.76502 0
M  V30 3287 N 317.471 1.57813 2.44015 0
M  V30 3288 H 317.018 1.9839 1.64314 0
M  V30 3289 H 316.976 0.920325 3.00628 0
M  V30 3290 N 320.748 -0.0735177 1.57428 0
M  V30 3291 C 321.658 -1.10547 2.06922 0
M  V30 3292 C 322.674 -1.42506 0.998402 0
M  V30 3293 O 323.85 -1.52717 1.31299 0
M  V30 3294 C 320.915 -2.40019 2.50184 0
M  V30 3295 C 319.976 -2.15046 3.71556 0
M  V30 3296 C 319.209 -3.38345 4.12745 0
M  V30 3297 O 319.432 -4.47399 3.53822 0
M  V30 3298 O 318.366 -3.2666 5.05546 0
M  V30 3299 H 322.192 -0.715013 2.95163 0
M  V30 3300 H 319.777 -0.287531 1.46607 0
M  V30 3301 H 321.659 -3.16218 2.78539 0
M  V30 3302 H 320.334 -2.78447 1.65072 0
M  V30 3303 H 319.241 -1.36558 3.48285 0
M  V30 3304 H 320.574 -1.81499 4.57514 0
M  V30 3305 N 322.226 -1.5378 -0.344866 0
M  V30 3306 C 323.475 -1.7018 -1.08267 0
M  V30 3307 C 323.788 -0.471 -1.89845 0
M  V30 3308 O 324.994 -0.515917 -2.66553 0
M  V30 3309 C 323.45 -3.00923 -1.97417 0
M  V30 3310 C 323.058 -4.31335 -1.21053 0
M  V30 3311 C 324.802 -3.26688 -2.71063 0
M  V30 3312 C 322.709 -5.53153 -2.09225 0
M  V30 3313 H 321.639 -0.634138 -0.407903 0
M  V30 3314 H 324.29 -1.8028 -0.342246 0
M  V30 3315 H 322.672 -2.84676 -2.75274 0
M  V30 3316 H 323.846 -4.58281 -0.481159 0
M  V30 3317 H 322.161 -4.12173 -0.591813 0
M  V30 3318 H 324.758 -4.1489 -3.37299 0
M  V30 3319 H 325.101 -2.43639 -3.37558 0
M  V30 3320 H 325.634 -3.43705 -2.0028 0
M  V30 3321 H 322.373 -6.38741 -1.47274 0
M  V30 3322 H 321.893 -5.30458 -2.79955 0
M  V30 3323 H 323.572 -5.88744 -2.68308 0
M  V30 3324 N 323.704 0.605807 -1.45491 0
M  V30 3325 C 324.667 1.69836 -1.5391 0
M  V30 3326 C 325.667 1.55261 -0.418424 0
M  V30 3327 O 326.857 1.60296 -0.681965 0
M  V30 3328 C 323.989 3.09117 -1.43734 0
M  V30 3329 H 325.182 1.63738 -2.51257 0
M  V30 3330 H 322.735 0.821689 -1.32959 0
M  V30 3331 H 323.47 3.20791 -0.475788 0
M  V30 3332 H 323.255 3.21104 -2.25021 0
M  V30 3333 H 324.745 3.88696 -1.52661 0
M  V30 3334 N 325.182 1.32811 0.848464 0
M  V30 3335 C 326.112 1.24882 1.97299 0
M  V30 3336 C 327.093 0.131357 1.69592 0
M  V30 3337 O 328.278 0.319553 1.91553 0
M  V30 3338 C 325.408 0.97746 3.33261 0
M  V30 3339 C 324.362 2.05682 3.75338 0
M  V30 3340 C 323.688 1.63777 5.09 0
M  V30 3341 C 324.988 3.47254 3.90144 0
M  V30 3342 H 326.682 2.18966 2.04191 0
M  V30 3343 H 324.228 1.05413 0.981029 0
M  V30 3344 H 326.181 0.908513 4.1149 0
M  V30 3345 H 324.905 0.000980011 3.266 0
M  V30 3346 H 323.564 2.11603 2.99366 0
M  V30 3347 H 323.212 0.648569 4.98801 0
M  V30 3348 H 322.912 2.36 5.38124 0
M  V30 3349 H 324.436 1.5833 5.89715 0
M  V30 3350 H 325.85 3.43888 4.58709 0
M  V30 3351 H 324.247 4.1788 4.30693 0
M  V30 3352 H 325.317 3.86462 2.92874 0
M  V30 3353 N 326.66 -1.06551 1.16123 0
M  V30 3354 C 327.888 -1.83005 0.965237 0
M  V30 3355 C 328.303 -1.82423 -0.486542 0
M  V30 3356 O 327.66 -1.24152 -1.33763 0
M  V30 3357 C 327.711 -3.29733 1.48183 0
M  V30 3358 O 327.432 -3.30416 2.87674 0
M  V30 3359 C 328.933 -4.22926 1.32848 0
M  V30 3360 H 326.153 -0.577118 0.342309 0
M  V30 3361 H 328.697 -1.3445 1.54089 0
M  V30 3362 H 326.852 -3.75609 0.948517 0
M  V30 3363 H 327.266 -4.22149 3.11272 0
M  V30 3364 H 328.74 -5.23916 1.73827 0
M  V30 3365 H 329.217 -4.38346 0.273692 0
M  V30 3366 H 329.823 -3.82894 1.85127 0
M  V30 3367 N 328.138 -0.959301 -1.25041 0
M  V30 3368 C 329.387 -0.612254 -1.92183 0
M  V30 3369 C 329.7 0.855347 -1.75907 0
M  V30 3370 O 330.906 1.31256 -2.37664 0
M  V30 3371 C 329.362 -1.04435 -3.44414 0
M  V30 3372 C 328.97 -2.53482 -3.69393 0
M  V30 3373 C 330.714 -0.770055 -4.17457 0
M  V30 3374 C 328.621 -2.90468 -5.15153 0
M  V30 3375 H 327.551 -0.225279 -0.719559 0
M  V30 3376 H 330.202 -1.16438 -1.41825 0
M  V30 3377 H 328.584 -0.4206 -3.9376 0
M  V30 3378 H 329.758 -3.20916 -3.30681 0
M  V30 3379 H 328.073 -2.78432 -3.0962 0
M  V30 3380 H 330.67 -1.02249 -5.24832 0
M  V30 3381 H 331.013 0.293611 -4.15263 0
M  V30 3382 H 331.546 -1.35437 -3.74034 0
M  V30 3383 H 328.285 -3.95871 -5.22462 0
M  V30 3384 H 327.805 -2.27711 -5.54894 0
M  V30 3385 H 329.484 -2.79914 -5.83315 0
M  V30 3386 N 329.616 1.39756 -0.72842 0
M  V30 3387 C 330.546 2.33289 -0.0991354 0
M  V30 3388 C 331.527 1.53568 0.731489 0
M  V30 3389 O 332.712 1.81987 0.677807 0
M  V30 3390 C 329.842 3.3763 0.813834 0
M  V30 3391 C 328.796 4.2791 0.0878663 0
M  V30 3392 C 328.122 5.22894 1.11741 0
M  V30 3393 C 329.422 5.11314 -1.06563 0
M  V30 3394 H 331.116 2.86163 -0.880408 0
M  V30 3395 H 328.662 1.37591 -0.424819 0
M  V30 3396 H 330.615 4.0201 1.26355 0
M  V30 3397 H 329.339 2.83181 1.62715 0
M  V30 3398 H 327.998 3.65 -0.342159 0
M  V30 3399 H 327.646 4.64744 1.92412 0
M  V30 3400 H 327.346 5.84143 0.636477 0
M  V30 3401 H 328.87 5.90151 1.56697 0
M  V30 3402 H 330.284 5.69076 -0.694671 0
M  V30 3403 H 328.681 5.81671 -1.47577 0
M  V30 3404 H 329.751 4.46534 -1.89038 0
M  V30 3405 N 331.094 0.475555 1.50254 0
M  V30 3406 C 332.024 -0.30611 2.31485 0
M  V30 3407 C 333.005 -0.986228 1.38591 0
M  V30 3408 O 334.19 -0.982541 1.67511 0
M  V30 3409 C 331.32 -1.38588 3.1845 0
M  V30 3410 C 330.274 -0.827115 4.19932 0
M  V30 3411 C 329.6 -2.00551 4.95665 0
M  V30 3412 C 330.9 0.16463 5.2204 0
M  V30 3413 H 332.594 0.371866 2.97082 0
M  V30 3414 H 330.14 0.180282 1.42867 0
M  V30 3415 H 332.093 -1.94023 3.74076 0
M  V30 3416 H 330.817 -2.09269 2.50747 0
M  V30 3417 H 329.476 -0.294702 3.65414 0
M  V30 3418 H 329.124 -2.6994 4.2443 0
M  V30 3419 H 328.824 -1.63784 5.64313 0
M  V30 3420 H 330.348 -2.56468 5.54127 0
M  V30 3421 H 331.762 -0.300699 5.72511 0
M  V30 3422 H 330.159 0.446813 5.98434 0
M  V30 3423 H 331.229 1.08905 4.72512 0
M  V30 3424 N 332.573 -1.56217 0.208337 0
M  V30 3425 C 333.822 -1.97124 -0.427204 0
M  V30 3426 C 334.135 -1.09859 -1.61835 0
M  V30 3427 O 335.341 -1.40606 -2.32255 0
M  V30 3428 C 333.797 -3.50633 -0.811442 0
M  V30 3429 C 333.405 -4.46582 0.35615 0
M  V30 3430 C 335.149 -4.00282 -1.41332 0
M  V30 3431 C 333.056 -5.91379 -0.0497852 0
M  V30 3432 H 331.986 -0.736086 -0.163381 0
M  V30 3433 H 334.637 -1.8099 0.302456 0
M  V30 3434 H 333.019 -3.62319 -1.59815 0
M  V30 3435 H 334.193 -4.46636 1.1337 0
M  V30 3436 H 332.508 -4.07202 0.870396 0
M  V30 3437 H 335.105 -5.0595 -1.72972 0
M  V30 3438 H 335.448 -3.45359 -2.32449 0
M  V30 3439 H 335.981 -3.91764 -0.690323 0
M  V30 3440 H 332.72 -6.50255 0.827529 0
M  V30 3441 H 332.24 -5.94549 -0.791926 0
M  V30 3442 H 333.919 -6.45209 -0.481042 0
M  V30 3443 N 334.051 0.0651679 -1.57465 0
M  V30 3444 C 335.014 1.06117 -2.03155 0
M  V30 3445 C 336.014 1.31204 -0.929632 0
M  V30 3446 O 337.204 1.26813 -1.19432 0
M  V30 3447 C 334.336 2.4032 -2.41783 0
M  V30 3448 H 335.529 0.667231 -2.92383 0
M  V30 3449 H 333.082 0.311075 -1.53173 0
M  V30 3450 H 333.817 2.84532 -1.55601 0
M  V30 3451 H 333.602 2.23451 -3.22199 0
M  V30 3452 H 335.092 3.11898 -2.77685 0
M  V30 3453 N 335.529 1.53961 0.336706 0
M  V30 3454 C 336.459 1.85417 1.41925 0
M  V30 3455 C 337.44 0.709856 1.5458 0
M  V30 3456 O 338.625 0.962396 1.68676 0
M  V30 3457 C 335.755 2.06985 2.78881 0
M  V30 3458 C 334.709 3.22813 2.81026 0
M  V30 3459 C 334.035 3.29727 4.20932 0
M  V30 3460 C 335.335 4.60767 2.45949 0
M  V30 3461 H 337.029 2.76079 1.15848 0
M  V30 3462 H 334.575 1.32839 0.555859 0
M  V30 3463 H 336.528 2.27575 3.54665 0
M  V30 3464 H 335.252 1.13061 3.06406 0
M  V30 3465 H 333.911 3.0209 2.07695 0
M  V30 3466 H 333.559 2.33385 4.45579 0
M  V30 3467 H 333.259 4.07566 4.23277 0
M  V30 3468 H 334.783 3.52536 4.98549 0
M  V30 3469 H 336.197 4.81325 3.11446 0
M  V30 3470 H 334.594 5.4106 2.59566 0
M  V30 3471 H 335.664 4.6391 1.41122 0
M  V30 3472 N 337.007 -0.598083 1.45811 0
M  V30 3473 C 338.235 -1.38322 1.53866 0
M  V30 3474 C 338.65 -1.87992 0.174479 0
M  V30 3475 O 338.007 -1.62756 -0.825627 0
M  V30 3476 C 338.058 -2.58125 2.53089 0
M  V30 3477 O 337.779 -2.10516 3.84206 0
M  V30 3478 C 339.28 -3.50869 2.70935 0
M  V30 3479 H 336.5 -0.423093 0.520801 0
M  V30 3480 H 339.044 -0.728527 1.91083 0
M  V30 3481 H 337.199 -3.19615 2.18917 0
M  V30 3482 H 337.613 -2.88425 4.38077 0
M  V30 3483 H 339.087 -4.31451 3.44317 0
M  V30 3484 H 339.564 -4.01822 1.77301 0
M  V30 3485 H 340.17 -2.95225 3.06141 0
M  V30 3486 N 338.485 -1.33259 -0.841409 0
M  V30 3487 C 339.734 -1.23921 -1.59143 0
M  V30 3488 C 340.047 0.1941 -1.94635 0
M  V30 3489 O 341.253 0.409474 -2.68394 0
M  V30 3490 C 339.709 -2.17119 -2.87032 0
M  V30 3491 C 339.317 -3.65606 -2.58914 0
M  V30 3492 C 341.061 -2.16648 -3.65053 0
M  V30 3493 C 338.968 -4.50726 -3.82884 0
M  V30 3494 H 337.898 -0.460264 -0.597221 0
M  V30 3495 H 340.549 -1.58307 -0.927959 0
M  V30 3496 H 338.931 -1.75663 -3.54906 0
M  V30 3497 H 340.105 -4.15487 -1.99267 0
M  V30 3498 H 338.42 -3.68341 -1.942 0
M  V30 3499 H 341.017 -2.77474 -4.57069 0
M  V30 3500 H 341.36 -1.16088 -3.99787 0
M  V30 3501 H 341.893 -2.56453 -3.041 0
M  V30 3502 H 338.632 -5.52151 -3.53283 0
M  V30 3503 H 338.152 -4.0559 -4.41879 0
M  V30 3504 H 339.831 -4.64401 -4.50489 0
M  V30 3505 N 339.963 1.05934 -1.16686 0
M  V30 3506 C 341.209 1.79065 -0.95203 0
M  V30 3507 C 341.542 1.87147 0.518629 0
M  V30 3508 O 340.817 1.36574 1.38484 0
M  V30 3509 C 341.1 3.23359 -1.58464 0
M  V30 3510 C 340.953 3.23336 -3.12689 0
M  V30 3511 C 342.272 4.21004 -1.28232 0
M  V30 3512 H 339.391 0.65005 -0.34728 0
M  V30 3513 H 342.033 1.23868 -1.44072 0
M  V30 3514 H 340.183 3.70493 -1.16908 0
M  V30 3515 H 341.855 2.84336 -3.6325 0
M  V30 3516 H 340.098 2.61886 -3.4583 0
M  V30 3517 H 340.769 4.25144 -3.52075 0
M  V30 3518 H 343.245 3.8233 -1.64203 0
M  V30 3519 H 342.121 5.20225 -1.75092 0
M  V30 3520 H 342.382 4.41639 -0.201791 0
M  V30 3521 N 341.441 0.965919 1.2453 0
M  V30 3522 C 342.688 0.626831 1.92554 0
M  V30 3523 C 343.016 -0.837739 1.75534 0
M  V30 3524 O 342.271 -1.61793 1.10098 0
M  V30 3525 C 342.57 0.945428 3.44669 0
M  V30 3526 C 342.236 2.39785 3.81856 0
M  V30 3527 C 340.898 2.79483 3.91718 0
M  V30 3528 C 343.25 3.34055 4.00071 0
M  V30 3529 C 340.578 4.12496 4.1721 0
M  V30 3530 C 342.93 4.66694 4.27059 0
M  V30 3531 C 341.594 5.06172 4.3514 0
M  V30 3532 H 340.864 0.229374 0.704605 0
M  V30 3533 H 343.511 1.21707 1.4785 0
M  V30 3534 H 341.816 0.272926 3.90848 0
M  V30 3535 H 343.513 0.661484 3.95507 0
M  V30 3536 H 340.103 2.08003 3.74743 0
M  V30 3537 H 344.287 3.04571 3.91855 0
M  V30 3538 H 339.543 4.42709 4.21685 0
M  V30 3539 H 343.717 5.3971 4.40097 0
M  V30 3540 H 341.344 6.09262 4.54646 0
M  V30 3541 N 342.919 -1.39368 0.735821 0
M  V30 3542 C 343.849 -2.33234 0.111506 0
M  V30 3543 C 344.83 -1.53954 -0.723334 0
M  V30 3544 O 346.015 -1.82344 -0.668147 0
M  V30 3545 C 343.145 -3.38057 -0.795917 0
M  V30 3546 C 342.099 -4.2795 -0.065172 0
M  V30 3547 C 341.425 -5.23479 -1.08967 0
M  V30 3548 C 342.725 -5.10741 1.09273 0
M  V30 3549 H 344.419 -2.85692 0.895571 0
M  V30 3550 H 341.965 -1.37364 0.432109 0
M  V30 3551 H 343.918 -4.02675 -1.24221 0
M  V30 3552 H 342.642 -2.8404 -1.61211 0
M  V30 3553 H 341.301 -3.64813 0.361511 0
M  V30 3554 H 340.949 -4.65758 -1.89944 0
M  V30 3555 H 340.649 -5.84472 -0.605489 0
M  V30 3556 H 342.173 -5.90974 -1.53565 0
M  V30 3557 H 343.587 -5.68699 0.724841 0
M  V30 3558 H 341.984 -5.8088 1.50659 0
M  V30 3559 H 343.054 -4.45525 1.91404 0
M  V30 3560 N 344.397 -0.483516 -1.5 0
M  V30 3561 C 345.327 0.293829 -2.31644 0
M  V30 3562 C 346.308 0.978864 -1.39112 0
M  V30 3563 O 347.493 0.973644 -1.68029 0
M  V30 3564 C 344.623 1.36897 -3.19181 0
M  V30 3565 C 343.577 0.804833 -4.20365 0
M  V30 3566 C 342.903 1.9792 -4.96721 0
M  V30 3567 C 344.203 -0.192313 -5.21946 0
M  V30 3568 H 345.897 -0.387616 -2.9688 0
M  V30 3569 H 343.443 -0.187856 -1.42769 0
M  V30 3570 H 345.396 1.92037 -3.751 0
M  V30 3571 H 344.12 2.07936 -2.51853 0
M  V30 3572 H 342.779 0.275319 -3.65565 0
M  V30 3573 H 342.427 2.67686 -4.25856 0
M  V30 3574 H 342.127 1.60789 -5.65173 0
M  V30 3575 H 343.651 2.53526 -5.55479 0
M  V30 3576 H 345.065 0.270333 -5.72662 0
M  V30 3577 H 343.462 -0.478543 -5.98189 0
M  V30 3578 H 344.532 -1.11409 -4.71928 0
M  V30 3579 N 345.875 1.56104 -0.216619 0
M  V30 3580 C 346.838 2.18819 0.681962 0
M  V30 3581 C 347.838 1.14866 1.12528 0
M  V30 3582 O 349.028 1.40128 1.03488 0
M  V30 3583 C 346.16 2.80756 1.93362 0
M  V30 3584 H 347.353 2.99595 0.135254 0
M  V30 3585 H 344.906 1.56265 0.0330003 0
M  V30 3586 H 345.641 2.03837 2.52232 0
M  V30 3587 H 345.426 3.56876 1.62426 0
M  V30 3588 H 346.916 3.28844 2.57393 0
M  V30 3589 N 347.353 -0.0568162 1.57498 0
M  V30 3590 C 348.581 -0.765626 1.92213 0
M  V30 3591 C 348.996 -1.70353 0.813961 0
M  V30 3592 O 348.353 -1.81268 -0.211701 0
M  V30 3593 C 348.404 -1.5465 3.2675 0
M  V30 3594 O 348.125 -0.646278 4.33307 0
M  V30 3595 C 349.626 -2.35497 3.75574 0
M  V30 3596 H 346.846 -0.216835 0.634999 0
M  V30 3597 H 349.39 -0.0226146 2.04487 0
M  V30 3598 H 347.545 -2.24165 3.15957 0
M  V30 3599 H 347.959 -1.19093 5.108 0
M  V30 3600 H 349.433 -2.85722 4.72299 0
M  V30 3601 H 349.91 -3.15692 3.05344 0
M  V30 3602 H 350.516 -1.7111 3.8936 0
M  V30 3603 N 348.832 -1.54138 -0.328536 0
M  V30 3604 C 349.795 -1.82462 -1.38709 0
M  V30 3605 C 350.795 -0.696229 -1.44946 0
M  V30 3606 O 351.985 -0.964535 -1.4506 0
M  V30 3607 C 349.117 -1.98018 -2.77492 0
M  V30 3608 H 350.31 -2.77037 -1.14851 0
M  V30 3609 H 347.863 -1.45779 -0.563751 0
M  V30 3610 H 348.598 -1.05637 -3.06613 0
M  V30 3611 H 348.383 -2.80124 -2.74359 0
M  V30 3612 H 349.873 -2.21396 -3.54081 0
M  V30 3613 N 350.31 0.590341 -1.46126 0
M  V30 3614 C 351.538 1.37504 -1.54597 0
M  V30 3615 C 351.953 1.87897 -0.184447 0
M  V30 3616 O 351.31 1.63192 0.816984 0
M  V30 3617 C 351.361 2.56779 -2.54454 0
M  V30 3618 O 351.082 2.08476 -3.85317 0
M  V30 3619 C 352.583 3.49427 -2.72792 0
M  V30 3620 H 349.803 0.420325 -0.523037 0
M  V30 3621 H 352.347 0.718383 -1.91467 0
M  V30 3622 H 350.502 3.1845 -2.20609 0
M  V30 3623 H 350.916 2.86097 -4.396 0
M  V30 3624 H 352.39 4.29619 -3.466 0
M  V30 3625 H 352.867 4.00876 -1.79429 0
M  V30 3626 H 353.473 2.93598 -3.07702 0
M  V30 3627 N 351.788 1.33704 0.83433 0
M  V30 3628 C 352.718 1.26967 1.95963 0
M  V30 3629 C 353.699 0.149337 1.69443 0
M  V30 3630 O 354.884 0.339852 1.91203 0
M  V30 3631 C 352.014 1.01275 3.32206 0
M  V30 3632 C 350.968 2.09652 3.73136 0
M  V30 3633 C 350.294 1.69166 5.07235 0
M  V30 3634 C 351.594 3.51372 3.86439 0
M  V30 3635 H 353.288 2.2112 2.01857 0
M  V30 3636 H 350.834 1.06447 0.969793 0
M  V30 3637 H 352.787 0.952106 4.10503 0
M  V30 3638 H 351.511 0.0356203 3.26581 0
M  V30 3639 H 350.17 2.14766 2.97104 0
M  V30 3640 H 349.818 0.701437 4.98085 0
M  V30 3641 H 349.518 2.41694 5.35591 0
M  V30 3642 H 351.042 1.64576 5.88003 0
M  V30 3643 H 352.456 3.48734 4.55036 0
M  V30 3644 H 350.853 4.22425 4.26236 0
M  V30 3645 H 351.923 3.89546 2.88759 0
M  V30 3646 N 353.266 -1.05314 1.17247 0
M  V30 3647 C 354.512 -1.78699 0.971513 0
M  V30 3648 C 354.867 -1.85932 -0.494692 0
M  V30 3649 O 354.16 -1.34716 -1.36243 0
M  V30 3650 C 354.354 -3.2229 1.54479 0
M  V30 3651 C 354.183 -3.29052 3.06521 0
M  V30 3652 C 352.953 -3.3841 3.75242 0
M  V30 3653 C 355.151 -3.18095 4.04129 0
M  V30 3654 N 353.133 -3.34289 5.14902 0
M  V30 3655 C 354.504 -3.21331 5.30232 0
M  V30 3656 C 356.559 -3.02049 3.95817 0
M  V30 3657 C 355.262 -3.10169 6.4899 0
M  V30 3658 C 357.288 -2.92228 5.14156 0
M  V30 3659 C 356.65 -2.96096 6.39145 0
M  V30 3660 H 352.749 -0.66628 0.409383 0
M  V30 3661 H 355.333 -1.25553 1.4881 0
M  V30 3662 H 353.504 -3.7381 1.05455 0
M  V30 3663 H 355.236 -3.83905 1.28059 0
M  V30 3664 H 351.991 -3.43621 3.25917 0
M  V30 3665 H 352.415 -3.35702 5.87906 0
M  V30 3666 H 357.057 -2.97897 3.00029 0
M  V30 3667 H 354.775 -3.13076 7.44989 0
M  V30 3668 H 358.361 -2.80885 5.09505 0
M  V30 3669 H 357.241 -2.88568 7.29176 0
M  V30 3670 N 354.744 -0.972509 -1.24016 0
M  V30 3671 C 356.155 -0.67517 -1.74064 0
M  V30 3672 C 356.506 0.808939 -1.78747 0
M  V30 3673 O 355.631 1.63286 -1.42009 0
M  V30 3674 C 356.226 -1.21889 -3.16115 0
M  V30 3675 C 354.785 -0.971358 -3.6365 0
M  V30 3676 C 353.932 -1.35134 -2.42145 0
M  V30 3677 H 356.883 -1.14727 -1.09651 0
M  V30 3678 H 356.904 -0.587489 -3.75937 0
M  V30 3679 H 356.416 -2.29906 -3.12674 0
M  V30 3680 H 354.517 0.0930686 -3.72484 0
M  V30 3681 H 354.63 -1.62039 -4.50866 0
M  V30 3682 H 352.994 -0.769751 -2.4279 0
M  V30 3683 H 353.777 -2.4411 -2.41381 0
M  V30 3684 N 356.222 1.38976 -0.743202 0
M  V30 3685 C 357.469 2.00343 -0.294752 0
M  V30 3686 C 357.797 1.58983 1.12047 0
M  V30 3687 O 357.052 0.813809 1.77977 0
M  V30 3688 C 357.351 3.55647 -0.353517 0
M  V30 3689 C 357.017 4.16685 -1.72292 0
M  V30 3690 C 355.679 4.3307 -2.09771 0
M  V30 3691 C 358.031 4.50464 -2.62168 0
M  V30 3692 C 355.359 4.80526 -3.36618 0
M  V30 3693 C 357.711 4.99332 -3.88395 0
M  V30 3694 C 356.375 5.13924 -4.25956 0
M  V30 3695 H 355.645 0.733108 -0.107857 0
M  V30 3696 H 358.292 1.6618 -0.951651 0
M  V30 3697 H 356.597 3.89884 0.386954 0
M  V30 3698 H 358.294 4.00998 0.0117269 0
M  V30 3699 H 354.884 4.04339 -1.42155 0
M  V30 3700 H 359.068 4.37416 -2.3448 0
M  V30 3701 H 354.324 4.90008 -3.65653 0
M  V30 3702 H 358.498 5.2444 -4.58187 0
M  V30 3703 H 356.125 5.50457 -5.2431 0
M  V30 3704 N 357.7 0.491464 1.49741 0
M  V30 3705 C 358.925 -0.0557177 2.07325 0
M  V30 3706 C 359.35 -1.30925 1.35056 0
M  V30 3707 O 358.708 -1.76733 0.404365 0
M  V30 3708 C 358.756 -0.302074 3.59333 0
M  V30 3709 O 357.86 -1.37868 3.88672 0
M  V30 3710 H 357.201 0.0219956 0.663636 0
M  V30 3711 H 359.731 0.688352 1.92673 0
M  V30 3712 H 359.741 -0.536464 4.04458 0
M  V30 3713 H 358.416 0.61383 4.11345 0
M  V30 3714 H 356.993 -1.12999 3.55367 0
M  V30 3715 N 359.178 -1.55987 0.224894 0
M  V30 3716 C 360.141 -2.19178 -0.670348 0
M  V30 3717 C 361.141 -1.15461 -1.11917 0
M  V30 3718 O 362.331 -1.40675 -1.02743 0
M  V30 3719 C 359.463 -2.81777 -1.9187 0
M  V30 3720 H 360.656 -2.99662 -0.119364 0
M  V30 3721 H 358.209 -1.5628 -0.0247128 0
M  V30 3722 H 358.944 -2.05172 -2.51147 0
M  V30 3723 H 358.729 -3.57732 -1.60531 0
M  V30 3724 H 360.219 -3.30205 -2.55645 0
M  V30 3725 N 360.656 0.0484629 -1.57525 0
M  V30 3726 C 361.902 0.738854 -1.89506 0
M  V30 3727 C 362.257 1.73989 -0.821319 0
M  V30 3728 O 361.55 1.90825 0.172129 0
M  V30 3729 C 361.744 1.46632 -3.25935 0
M  V30 3730 C 361.573 0.537254 -4.46479 0
M  V30 3731 C 360.343 0.165484 -5.05029 0
M  V30 3732 C 362.541 -0.176085 -5.13998 0
M  V30 3733 N 360.523 -0.766868 -6.09091 0
M  V30 3734 C 361.894 -0.96478 -6.12448 0
M  V30 3735 C 363.949 -0.24509 -4.97296 0
M  V30 3736 C 362.652 -1.8161 -6.95996 0
M  V30 3737 C 364.678 -1.08347 -5.81391 0
M  V30 3738 C 364.04 -1.86014 -6.79395 0
M  V30 3739 H 360.139 0.245067 -0.742608 0
M  V30 3740 H 362.723 -0.000476161 -1.947 0
M  V30 3741 H 360.894 2.17623 -3.21706 0
M  V30 3742 H 362.626 2.10757 -3.45491 0
M  V30 3743 H 359.381 0.523466 -4.70698 0
M  V30 3744 H 359.805 -1.22698 -6.65788 0
M  V30 3745 H 364.447 0.341063 -4.21422 0
M  V30 3746 H 362.165 -2.41313 -7.71229 0
M  V30 3747 H 365.751 -1.14014 -5.70519 0
M  V30 3748 H 364.631 -2.4984 -7.43337 0
M  V30 3749 N 362.134 1.5431 0.320358 0
M  V30 3750 C 363.382 1.72327 1.05583 0
M  V30 3751 C 363.703 0.50149 1.88441 0
M  V30 3752 O 362.973 -0.48448 1.89815 0
M  V30 3753 H 361.553 0.635387 0.3928 0
M  V30 3754 H 364.215 1.91621 0.356019 0
M  V30 3755 H 363.311 2.60426 1.72003 0
M  V30 3756 N 363.613 -0.582584 1.46437 0
M  V30 3757 C 364.861 -1.33814 1.51453 0
M  V30 3758 C 365.182 -1.94277 0.167792 0
M  V30 3759 O 364.452 -1.78566 -0.805677 0
M  V30 3760 H 363.032 -0.496838 0.557818 0
M  V30 3761 H 365.694 -0.682281 1.82568 0
M  V30 3762 H 364.79 -2.14479 2.26728 0
M  V30 3763 N 365.091 -1.34144 -0.827227 0
M  V30 3764 C 366.039 -1.25364 -1.95925 0
M  V30 3765 C 367.033 -0.152608 -1.68711 0
M  V30 3766 O 368.239 -0.317311 -1.77181 0
M  V30 3767 H 364.614 -0.389342 -0.643364 0
M  V30 3768 H 366.585 -2.21045 -2.00454 0
M  V30 3769 C 365.334 -1.02158 -3.32354 0
M  V30 3770 H 364.657 -1.86111 -3.5384 0
M  V30 3771 H 366.097 -1.00048 -4.12027 0
M  V30 3772 C 364.556 0.275244 -3.35774 0
M  V30 3773 O 365.086 1.27806 -3.80826 0
M  V30 3774 N 363.292 0.306853 -2.88975 0
M  V30 3775 H 362.839 -0.509777 -2.52506 0
M  V30 3776 H 362.797 1.17432 -2.91646 0
M  V30 3777 N 366.569 1.04691 -1.17803 0
M  V30 3778 C 367.532 2.10724 -0.901545 0
M  V30 3779 C 368.532 1.6042 0.110437 0
M  V30 3780 O 369.722 1.7377 -0.122303 0
M  V30 3781 C 366.854 3.39084 -0.351409 0
M  V30 3782 H 368.047 2.36686 -1.84174 0
M  V30 3783 H 365.6 1.21015 -0.98919 0
M  V30 3784 H 366.335 3.18782 0.59569 0
M  V30 3785 H 366.12 3.76909 -1.08083 0
M  V30 3786 H 367.61 4.17227 -0.176451 0
M  V30 3787 N 368.047 0.979072 1.23499 0
M  V30 3788 C 369.293 0.648178 1.92163 0
M  V30 3789 C 369.626 -0.816049 1.76222 0
M  V30 3790 O 368.901 -1.58849 1.12237 0
M  V30 3791 C 369.184 1.03773 3.44824 0
M  V30 3792 C 369.037 2.55948 3.69879 0
M  V30 3793 C 370.356 0.580653 4.36253 0
M  V30 3794 H 367.475 0.236952 0.69787 0
M  V30 3795 H 370.117 1.22012 1.45647 0
M  V30 3796 H 368.267 0.551058 3.84572 0
M  V30 3797 H 369.939 3.12179 3.3962 0
M  V30 3798 H 368.182 2.98641 3.14636 0
M  V30 3799 H 368.853 2.78255 4.76737 0
M  V30 3800 H 371.329 0.998465 4.03943 0
M  V30 3801 H 370.205 0.881663 5.41773 0
M  V30 3802 H 370.466 -0.519052 4.39042 0
M  V30 3803 N 369.525 -1.3858 0.750561 0
M  V30 3804 C 370.75 -2.04997 0.314812 0
M  V30 3805 C 371.175 -1.56235 -1.04749 0
M  V30 3806 O 370.533 -0.712981 -1.66692 0
M  V30 3807 C 370.581 -3.58961 0.343415 0
M  V30 3808 O 369.685 -4.07025 -0.663628 0
M  V30 3809 H 369.026 -0.649081 0.139962 0
M  V30 3810 H 371.556 -1.77313 1.02084 0
M  V30 3811 H 371.566 -4.07542 0.193233 0
M  V30 3812 H 370.241 -3.93811 1.33738 0
M  V30 3813 H 368.818 -3.6982 -0.478307 0
M  V30 3814 N 371.003 -0.499398 -1.49478 0
M  V30 3815 C 372.249 0.0457576 -2.02748 0
M  V30 3816 C 372.582 1.36793 -1.37846 0
M  V30 3817 O 371.857 1.87596 -0.513601 0
M  V30 3818 C 372.14 0.199986 -3.59544 0
M  V30 3819 C 371.993 -1.1452 -4.34977 0
M  V30 3820 C 373.312 0.94137 -4.29914 0
M  V30 3821 H 370.431 0.0151552 -0.736844 0
M  V30 3822 H 373.073 -0.650498 -1.78518 0
M  V30 3823 H 371.223 0.793007 -3.8032 0
M  V30 3824 H 372.895 -1.77697 -4.25701 0
M  V30 3825 H 371.138 -1.73488 -3.97598 0
M  V30 3826 H 371.809 -0.990607 -5.43039 0
M  V30 3827 H 374.285 0.43844 -4.13784 0
M  V30 3828 H 373.161 1.01812 -5.39375 0
M  V30 3829 H 373.422 1.98471 -3.95046 0
M  V30 3830 N 372.481 1.55866 -0.233164 0
M  V30 3831 C 373.709 2.02998 0.399905 0
M  V30 3832 C 374.124 1.11274 1.52524 0
M  V30 3833 O 373.481 0.124528 1.82075 0
M  V30 3834 C 373.532 3.4958 0.920639 0
M  V30 3835 O 373.253 4.37808 -0.159834 0
M  V30 3836 C 374.754 4.12411 1.62578 0
M  V30 3837 H 371.974 0.664006 0.0966281 0
M  V30 3838 H 374.518 2.0143 -0.353013 0
M  V30 3839 H 372.673 3.51727 1.62379 0
M  V30 3840 H 373.087 5.23981 0.23337 0
M  V30 3841 H 374.561 5.16711 1.94201 0
M  V30 3842 H 375.038 3.5809 2.54299 0
M  V30 3843 H 375.644 4.14148 0.967553 0
M  V30 3844 N 373.959 -0.0401083 1.57549 0
M  V30 3845 C 375.205 -0.734211 1.89043 0
M  V30 3846 C 375.538 -1.75591 0.829535 0
M  V30 3847 O 374.813 -1.93868 -0.156706 0
M  V30 3848 C 375.096 -1.41374 3.31188 0
M  V30 3849 C 374.949 -0.406299 4.47961 0
M  V30 3850 C 376.268 -2.35061 3.72068 0
M  V30 3851 H 373.387 -0.265447 0.687537 0
M  V30 3852 H 376.029 0.00294087 1.9 0
M  V30 3853 H 374.179 -2.04206 3.30503 0
M  V30 3854 H 375.851 0.219255 4.60779 0
M  V30 3855 H 374.094 0.275485 4.32924 0
M  V30 3856 H 374.765 -0.920022 5.44279 0
M  V30 3857 H 377.241 -1.82282 3.74049 0
M  V30 3858 H 376.117 -2.79593 4.72355 0
M  V30 3859 H 376.378 -3.21258 3.0372 0
M  V30 3860 N 375.437 -1.54477 -0.31217 0
M  V30 3861 C 376.367 -1.87652 -1.38957 0
M  V30 3862 C 377.348 -0.734358 -1.53431 0
M  V30 3863 O 378.533 -0.98911 -1.67123 0
M  V30 3864 C 375.663 -2.11396 -2.75552 0
M  V30 3865 C 374.617 -3.27243 -2.75855 0
M  V30 3866 C 373.943 -3.36382 -4.15633 0
M  V30 3867 C 375.243 -4.64622 -2.38587 0
M  V30 3868 H 376.937 -2.77887 -1.11442 0
M  V30 3869 H 374.483 -1.33707 -0.534655 0
M  V30 3870 H 376.436 -2.33189 -3.51 0
M  V30 3871 H 375.16 -1.17921 -3.04569 0
M  V30 3872 H 373.819 -3.05356 -2.02863 0
M  V30 3873 H 373.467 -2.40445 -4.41809 0
M  V30 3874 H 373.167 -4.14249 -4.1674 0
M  V30 3875 H 374.691 -3.60422 -4.92877 0
M  V30 3876 H 376.105 -4.86219 -3.03749 0
M  V30 3877 H 374.502 -5.45121 -2.50925 0
M  V30 3878 H 375.572 -4.66097 -1.33723 0
M  V30 3879 N 376.915 0.57481 -1.46744 0
M  V30 3880 C 378.161 1.3347 -1.52688 0
M  V30 3881 C 378.494 1.93353 -0.181229 0
M  V30 3882 O 377.769 1.76912 0.808237 0
M  V30 3883 C 378.052 2.45811 -2.63152 0
M  V30 3884 C 377.905 1.90912 -4.07275 0
M  V30 3885 C 379.224 3.47822 -2.69644 0
M  V30 3886 H 376.343 0.483935 -0.555856 0
M  V30 3887 H 378.985 0.644968 -1.78718 0
M  V30 3888 H 377.135 3.04646 -2.41088 0
M  V30 3889 H 378.807 1.36473 -4.4065 0
M  V30 3890 H 377.05 1.21691 -4.16382 0
M  V30 3891 H 377.721 2.72042 -4.80309 0
M  V30 3892 H 380.197 2.9888 -2.895 0
M  V30 3893 H 379.073 4.23876 -3.48742 0
M  V30 3894 H 379.334 4.05555 -1.76005 0
M  V30 3895 N 378.394 1.34581 0.820102 0
M  V30 3896 C 379.357 1.2628 1.91275 0
M  V30 3897 C 380.357 0.177344 1.59819 0
M  V30 3898 O 381.547 0.430156 1.68806 0
M  V30 3899 C 378.679 0.950327 3.27386 0
M  V30 3900 H 379.872 2.23421 2.00057 0
M  V30 3901 H 377.425 1.1891 1.0144 0
M  V30 3902 H 378.16 -0.0177938 3.24295 0
M  V30 3903 H 377.945 1.73549 3.51601 0
M  V30 3904 H 379.435 0.917492 4.07396 0
M  V30 3905 N 379.872 -1.04064 1.18357 0
M  V30 3906 C 380.802 -2.14001 0.934113 0
M  V30 3907 C 381.783 -1.69616 -0.128186 0
M  V30 3908 O 382.968 -1.94185 0.0244093 0
M  V30 3909 C 380.098 -3.44253 0.459066 0
M  V30 3910 C 379.052 -4.02261 1.46185 0
M  V30 3911 C 378.378 -5.27992 0.844322 0
M  V30 3912 C 379.678 -4.38432 2.83856 0
M  V30 3913 H 381.372 -2.35127 1.85352 0
M  V30 3914 H 378.918 -1.12998 0.892604 0
M  V30 3915 H 380.871 -4.20522 0.271907 0
M  V30 3916 H 379.595 -3.22813 -0.495912 0
M  V30 3917 H 378.254 -3.28074 1.63595 0
M  V30 3918 H 377.902 -5.02862 -0.117845 0
M  V30 3919 H 377.602 -5.67765 1.51384 0
M  V30 3920 H 379.126 -6.06938 0.667693 0
M  V30 3921 H 380.54 -5.05688 2.70098 0
M  V30 3922 H 378.937 -4.89254 3.47491 0
M  V30 3923 H 380.007 -3.4826 3.37406 0
M  V30 3924 N 381.35 -0.985608 -1.22978 0
M  V30 3925 C 382.28 -0.549649 -2.26939 0
M  V30 3926 C 383.261 0.419803 -1.64838 0
M  V30 3927 O 384.446 0.31203 -1.91677 0
M  V30 3928 C 381.576 0.143652 -3.47003 0
M  V30 3929 C 380.53 -0.743606 -4.21491 0
M  V30 3930 C 379.856 0.0822027 -5.34637 0
M  V30 3931 C 381.156 -2.03694 -4.80943 0
M  V30 3932 H 382.85 -1.41862 -2.63658 0
M  V30 3933 H 380.396 -0.683571 -1.26741 0
M  V30 3934 H 382.349 0.459985 -4.18882 0
M  V30 3935 H 381.073 1.04711 -3.09359 0
M  V30 3936 H 379.732 -1.04347 -3.51436 0
M  V30 3937 H 379.38 0.986359 -4.93234 0
M  V30 3938 H 379.08 -0.508377 -5.85397 0
M  V30 3939 H 380.604 0.392797 -6.09335 0
M  V30 3940 H 382.018 -1.78504 -5.44802 0
M  V30 3941 H 380.415 -2.57573 -5.42011 0
M  V30 3942 H 381.485 -2.72042 -4.01399 0
M  V30 3943 N 382.828 1.3818 -0.7579 0
M  V30 3944 C 384.074 2.00316 -0.316453 0
M  V30 3945 C 384.407 1.60026 1.10025 0
M  V30 3946 O 383.682 0.839835 1.75434 0
M  V30 3947 C 383.965 3.57349 -0.444245 0
M  V30 3948 C 383.818 4.07591 -1.90236 0
M  V30 3949 C 385.137 4.3981 0.1598 0
M  V30 3950 H 382.256 0.727741 -0.116459 0
M  V30 3951 H 384.898 1.6406 -0.958352 0
M  V30 3952 H 383.048 3.88365 0.102233 0
M  V30 3953 H 384.72 3.87199 -2.50748 0
M  V30 3954 H 382.963 3.60297 -2.41595 0
M  V30 3955 H 383.634 5.16677 -1.94291 0
M  V30 3956 H 386.11 4.14971 -0.306314 0
M  V30 3957 H 384.986 5.48885 0.0401675 0
M  V30 3958 H 385.247 4.24102 1.24859 0
M  V30 3959 N 384.306 0.507319 1.49211 0
M  V30 3960 C 385.546 -0.0332372 2.04373 0
M  V30 3961 C 385.91 -1.33694 1.37804 0
M  V30 3962 O 387.111 -1.96213 1.83722 0
M  V30 3963 C 385.382 -0.17599 3.56966 0
M  V30 3964 S 386.941 -0.669882 4.33657 0
M  V30 3965 H 383.759 0.00123603 0.710999 0
M  V30 3966 H 386.361 0.682725 1.83191 0
M  V30 3967 H 385.065 0.778053 4.02957 0
M  V30 3968 H 384.596 -0.917005 3.82563 0
M  V30 3969 H 386.611 -1.93806 4.56786 0
M  V30 3970 N 385.784 -1.5574 0.241426 0
M  V30 3971 C 386.714 -2.24133 -0.654722 0
M  V30 3972 C 387.695 -1.21974 -1.1856 0
M  V30 3973 O 388.88 -1.50612 -1.22595 0
M  V30 3974 C 386.01 -2.93659 -1.85423 0
M  V30 3975 C 384.964 -4.0246 -1.45636 0
M  V30 3976 C 384.29 -4.59383 -2.73626 0
M  V30 3977 C 385.59 -5.18468 -0.631506 0
M  V30 3978 H 387.284 -2.99281 -0.0844353 0
M  V30 3979 H 384.83 -1.43947 -0.0391707 0
M  V30 3980 H 386.783 -3.40203 -2.48676 0
M  V30 3981 H 385.507 -2.15991 -2.44981 0
M  V30 3982 H 384.166 -3.56676 -0.847202 0
M  V30 3983 H 383.814 -3.78422 -3.3137 0
M  V30 3984 H 383.514 -5.32826 -2.4773 0
M  V30 3985 H 385.038 -5.08658 -3.37786 0
M  V30 3986 H 386.452 -5.61272 -1.1682 0
M  V30 3987 H 384.849 -5.98266 -0.468831 0
M  V30 3988 H 385.919 -4.8358 0.357506 0
M  V30 3989 N 387.262 0.0317525 -1.57568 0
M  V30 3990 C 388.511 0.722131 -1.8833 0
M  V30 3991 C 388.824 1.76664 -0.839587 0
M  V30 3992 O 390.03 2.50942 -1.03635 0
M  V30 3993 C 388.486 1.33544 -3.34207 0
M  V30 3994 C 388.094 0.327415 -4.46802 0
M  V30 3995 C 389.838 2.00585 -3.7412 0
M  V30 3996 C 387.745 0.948915 -5.83738 0
M  V30 3997 H 386.675 0.273466 -0.702661 0
M  V30 3998 H 389.326 -0.0235811 -1.83485 0
M  V30 3999 H 387.708 2.13077 -3.33788 0
M  V30 4000 H 388.882 -0.441006 -4.58685 0
M  V30 4001 H 387.197 -0.240758 -4.15703 0
M  V30 4002 H 389.794 2.47932 -4.73744 0
M  V30 4003 H 390.137 2.82285 -3.05975 0
M  V30 4004 H 390.67 1.27831 -3.76702 0
M  V30 4005 H 387.409 0.171387 -6.55276 0
M  V30 4006 H 386.929 1.68724 -5.7558 0
M  V30 4007 H 388.608 1.45705 -6.3038 0
M  V30 4008 N 388.74 1.54641 0.303973 0
M  V30 4009 C 390.151 1.64811 0.877163 0
M  V30 4010 C 390.502 0.554838 1.88191 0
M  V30 4011 O 389.627 -0.309033 2.14182 0
M  V30 4012 C 390.222 2.9876 1.59775 0
M  V30 4013 C 388.781 3.11061 2.11938 0
M  V30 4014 C 387.928 2.60479 0.951097 0
M  V30 4015 H 390.879 1.58493 0.0810486 0
M  V30 4016 H 390.9 2.90017 2.46314 0
M  V30 4017 H 390.412 3.7831 0.866226 0
M  V30 4018 H 388.513 2.36225 2.88146 0
M  V30 4019 H 388.626 4.17171 2.35595 0
M  V30 4020 H 386.99 2.16859 1.33583 0
M  V30 4021 H 387.773 3.42504 0.233581 0
M  V30 4022 N 390.218 -0.567019 1.47046 0
M  V30 4023 C 391.446 -1.35027 1.56765 0
M  V30 4024 C 391.861 -1.8758 0.214316 0
M  V30 4025 O 391.218 -1.64471 -0.790919 0
M  V30 4026 C 391.269 -2.52698 2.58507 0
M  V30 4027 O 390.99 -2.0232 3.88585 0
M  V30 4028 C 392.491 -3.45043 2.78316 0
M  V30 4029 H 389.711 -0.41195 0.529658 0
M  V30 4030 H 392.255 -0.687832 1.92585 0
M  V30 4031 H 390.41 -3.149 2.25648 0
M  V30 4032 H 390.824 -2.79068 4.44096 0
M  V30 4033 H 392.298 -4.2405 3.53391 0
M  V30 4034 H 392.775 -3.97971 1.85784 0
M  V30 4035 H 393.381 -2.88665 3.12334 0
M  V30 4036 N 391.696 -1.35014 -0.812953 0
M  V30 4037 C 392.924 -1.31031 -1.6012 0
M  V30 4038 C 393.339 0.113558 -1.88458 0
M  V30 4039 O 392.696 1.06363 -1.48301 0
M  V30 4040 C 392.747 -2.10872 -2.93624 0
M  V30 4041 O 392.468 -3.47706 -2.66518 0
M  V30 4042 C 393.969 -2.14401 -3.88004 0
M  V30 4043 H 391.189 -0.45037 -0.497401 0
M  V30 4044 H 393.733 -1.77775 -1.01076 0
M  V30 4045 H 391.888 -1.67744 -3.492 0
M  V30 4046 H 392.302 -3.89097 -3.51715 0
M  V30 4047 H 393.776 -2.74669 -4.78812 0
M  V30 4048 H 394.253 -1.14105 -4.24119 0
M  V30 4049 H 394.859 -2.57662 -3.38364 0
M  V30 4050 N 393.175 1.03435 -1.18907 0
M  V30 4051 C 394.424 1.76143 -0.982669 0
M  V30 4052 C 394.737 1.89416 0.487953 0
M  V30 4053 O 395.943 2.59041 0.813036 0
M  V30 4054 C 394.399 3.16722 -1.70924 0
M  V30 4055 C 394.007 3.11522 -3.21959 0
M  V30 4056 C 395.751 3.93764 -1.58588 0
M  V30 4057 C 393.658 4.46999 -3.87228 0
M  V30 4058 H 392.588 0.660292 -0.364047 0
M  V30 4059 H 395.239 1.158 -1.42347 0
M  V30 4060 H 393.621 3.775 -1.19623 0
M  V30 4061 H 394.795 2.60158 -3.80335 0
M  V30 4062 H 393.11 2.47978 -3.34508 0
M  V30 4063 H 395.707 4.93963 -2.04707 0
M  V30 4064 H 396.05 4.12794 -0.539142 0
M  V30 4065 H 396.583 3.39576 -2.07203 0
M  V30 4066 H 393.322 4.33174 -4.91976 0
M  V30 4067 H 392.842 4.98441 -3.33642 0
M  V30 4068 H 394.521 5.15898 -3.90459 0
M  V30 4069 N 394.653 0.992116 1.22453 0
M  V30 4070 C 395.901 0.666215 1.90804 0
M  V30 4071 C 396.222 -0.804152 1.77647 0
M  V30 4072 O 395.492 -1.57629 1.16318 0
M  V30 4073 H 394.072 0.243423 0.706225 0
M  V30 4074 H 396.734 1.25845 1.48825 0
M  V30 4075 H 395.83 0.928069 2.97982 0
M  V30 4076 N 396.131 -1.37776 0.765217 0
M  V30 4077 C 397.379 -1.99454 0.325943 0
M  V30 4078 C 397.7 -1.61049 -1.09947 0
M  V30 4079 O 396.97 -0.872821 -1.75381 0
M  V30 4080 H 395.55 -0.737697 0.117525 0
M  V30 4081 H 398.212 -1.68359 0.981895 0
M  V30 4082 H 397.308 -3.09547 0.398353 0
M  V30 4083 N 397.609 -0.515225 -1.4894 0
M  V30 4084 C 398.539 0.244628 -2.32215 0
M  V30 4085 C 399.52 0.949136 -1.41157 0
M  V30 4086 O 400.705 0.937783 -1.70057 0
M  V30 4087 C 397.835 1.30096 -3.22013 0
M  V30 4088 C 396.789 0.715486 -4.21977 0
M  V30 4089 C 396.115 1.87339 -5.00808 0
M  V30 4090 C 397.415 -0.302982 -5.2142 0
M  V30 4091 H 399.109 -0.450501 -2.95991 0
M  V30 4092 H 396.655 -0.218098 -1.42339 0
M  V30 4093 H 398.608 1.84037 -3.79089 0
M  V30 4094 H 397.332 2.02547 -2.56207 0
M  V30 4095 H 395.991 0.197715 -3.66066 0
M  V30 4096 H 395.639 2.58592 -4.31438 0
M  V30 4097 H 395.339 1.48764 -5.68457 0
M  V30 4098 H 396.863 2.41686 -5.60732 0
M  V30 4099 H 398.277 0.148802 -5.73107 0
M  V30 4100 H 396.674 -0.60532 -5.97039 0
M  V30 4101 H 397.744 -1.21395 -4.69459 0
M  V30 4102 N 399.087 1.5561 -0.249682 0
M  V30 4103 C 400.017 2.24477 0.642826 0
M  V30 4104 C 400.998 1.22601 1.17911 0
M  V30 4105 O 402.183 1.5126 1.21795 0
M  V30 4106 C 399.313 2.94638 1.83863 0
M  V30 4107 C 398.267 4.03227 1.435 0
M  V30 4108 C 397.593 4.60828 2.71186 0
M  V30 4109 C 398.893 5.18796 0.604002 0
M  V30 4110 H 400.587 2.99321 0.0685625 0
M  V30 4111 H 398.133 1.43965 0.0315363 0
M  V30 4112 H 400.086 3.41517 2.46868 0
M  V30 4113 H 398.81 2.17287 2.43832 0
M  V30 4114 H 397.469 3.57121 0.828275 0
M  V30 4115 H 397.117 3.80174 3.29358 0
M  V30 4116 H 396.817 5.34132 2.44901 0
M  V30 4117 H 398.341 5.10442 3.35084 0
M  V30 4118 H 399.755 5.61883 1.13842 0
M  V30 4119 H 398.152 5.98506 0.437097 0
M  V30 4120 H 399.222 4.83384 -0.383147 0
M  V30 4121 N 400.565 -0.0233959 1.57583 0
M  V30 4122 C 401.79 -0.728376 1.94189 0
M  V30 4123 C 402.215 -1.67793 0.850119 0
M  V30 4124 O 401.573 -1.80262 -0.19371 0
M  V30 4125 C 401.621 -1.45669 3.29868 0
M  V30 4126 O 400.725 -2.57013 3.22518 0
M  V30 4127 H 400.066 -0.195493 0.63457 0
M  V30 4128 H 402.596 0.0228214 2.04587 0
M  V30 4129 H 402.606 -1.82535 3.6489 0
M  V30 4130 H 401.281 -0.760314 4.08891 0
M  V30 4131 H 399.858 -2.22648 2.99136 0
M  V30 4132 N 402.043 -1.548 -0.295768 0
M  V30 4133 C 403.006 -1.85363 -1.34808 0
M  V30 4134 C 404.006 -0.726817 -1.43436 0
M  V30 4135 O 405.196 -0.995088 -1.42981 0
M  V30 4136 C 402.328 -2.03859 -2.73229 0
M  V30 4137 H 403.521 -2.7941 -1.08949 0
M  V30 4138 H 401.074 -1.46942 -0.532702 0
M  V30 4139 H 401.809 -1.12117 -3.04303 0
M  V30 4140 H 401.594 -2.8588 -2.68356 0
M  V30 4141 H 403.084 -2.28857 -3.49305 0
M  V30 4142 N 403.521 0.559213 -1.47345 0
M  V30 4143 C 404.77 1.31281 -1.53128 0
M  V30 4144 C 405.083 1.94602 -0.197344 0
M  V30 4145 O 406.289 2.71173 -0.133154 0
M  V30 4146 C 404.745 2.38051 -2.69925 0
M  V30 4147 C 404.353 1.8093 -4.0984 0
M  V30 4148 C 406.097 3.14604 -2.84999 0
M  V30 4149 C 404.004 2.85468 -5.1794 0
M  V30 4150 H 402.934 0.493614 -0.569966 0
M  V30 4151 H 405.585 0.594155 -1.73615 0
M  V30 4152 H 403.967 3.12822 -2.42814 0
M  V30 4153 H 405.141 1.12544 -4.46845 0
M  V30 4154 H 403.456 1.16967 -3.99634 0
M  V30 4155 H 406.053 3.92666 -3.62929 0
M  V30 4156 H 406.396 3.68665 -1.93369 0
M  V30 4157 H 406.929 2.46945 -3.1187 0
M  V30 4158 H 403.668 2.36264 -6.1144 0
M  V30 4159 H 403.188 3.52269 -4.85455 0
M  V30 4160 H 404.867 3.48996 -5.44803 0
M  V30 4161 N 404.999 1.35443 0.805782 0
M  V30 4162 C 406.247 1.28507 1.55982 0
M  V30 4163 C 406.568 -0.140046 1.94496 0
M  V30 4164 O 405.838 -1.07666 1.63661 0
M  V30 4165 H 404.418 0.472676 0.578434 0
M  V30 4166 H 407.08 1.69555 0.961098 0
M  V30 4167 H 406.176 1.90148 2.47488 0
M  V30 4168 N 406.477 -1.02803 1.19454 0
M  V30 4169 C 407.723 -1.76478 0.999171 0
M  V30 4170 C 408.056 -1.88456 -0.468828 0
M  V30 4171 O 407.331 -1.40198 -1.34814 0
M  V30 4172 C 407.614 -3.19044 1.66981 0
M  V30 4173 C 407.467 -3.14932 3.21151 0
M  V30 4174 C 408.786 -4.17456 1.39349 0
M  V30 4175 H 405.905 -0.640614 0.364393 0
M  V30 4176 H 408.547 -1.20005 1.47305 0
M  V30 4177 H 406.697 -3.67263 1.2669 0
M  V30 4178 H 408.369 -2.74605 3.70661 0
M  V30 4179 H 406.612 -2.52625 3.52652 0
M  V30 4180 H 407.283 -4.1566 3.63223 0
M  V30 4181 H 409.759 -3.77842 1.74283 0
M  V30 4182 H 408.635 -5.154 1.88823 0
M  V30 4183 H 408.896 -4.40949 0.318813 0
M  V30 4184 N 407.956 -0.998596 -1.21925 0
M  V30 4185 C 408.919 -0.558679 -2.22287 0
M  V30 4186 C 409.919 0.361525 -1.56683 0
M  V30 4187 O 411.109 0.152695 -1.73529 0
M  V30 4188 C 408.241 0.18661 -3.40389 0
M  V30 4189 H 409.434 -1.4463 -2.62721 0
M  V30 4190 H 406.987 -0.786413 -1.35075 0
M  V30 4191 H 407.722 1.08996 -3.05435 0
M  V30 4192 H 407.507 -0.474188 -3.89222 0
M  V30 4193 H 408.997 0.482367 -4.14805 0
M  V30 4194 N 409.434 1.37368 -0.772513 0
M  V30 4195 C 410.682 1.99279 -0.336516 0
M  V30 4196 C 411.003 1.6163 1.09091 0
M  V30 4197 O 410.273 0.882109 1.74916 0
M  V30 4198 H 408.853 0.737063 -0.121435 0
M  V30 4199 H 411.515 1.67836 -0.990809 0
M  V30 4200 H 410.611 3.09332 -0.414763 0
M  V30 4201 N 410.912 0.523116 1.48665 0
M  V30 4202 C 411.845 -0.290518 2.26343 0
M  V30 4203 C 412.823 -0.950913 1.31895 0
M  V30 4204 O 414.007 -0.976662 1.61225 0
M  V30 4205 C 411.134 -1.41088 3.07915 0
M  V30 4206 C 410.18 -0.862597 4.17686 0
M  V30 4207 S 411.013 0.264135 5.34848 0
M  V30 4208 C 412.169 -0.858864 6.19979 0
M  V30 4209 H 412.402 0.368726 2.95005 0
M  V30 4210 H 409.935 0.30878 1.51281 0
M  V30 4211 H 411.893 -2.0527 3.55492 0
M  V30 4212 H 410.554 -2.04182 2.38681 0
M  V30 4213 H 409.747 -1.70287 4.74361 0
M  V30 4214 H 409.349 -0.297595 3.72814 0
M  V30 4215 H 411.641 -1.7591 6.54264 0
M  V30 4216 H 412.584 -0.330244 7.07329 0
M  V30 4217 H 412.992 -1.13617 5.52948 0
M  V30 4218 N 412.39 -1.55475 0.257931 0
M  V30 4219 C 413.615 -2.04064 -0.370488 0
M  V30 4220 C 414.04 -1.13565 -1.49948 0
M  V30 4221 O 413.398 -0.130781 -1.80828 0
M  V30 4222 C 413.446 -3.50554 -0.845237 0
M  V30 4223 O 412.55 -3.63173 -1.95394 0
M  V30 4224 H 411.891 -0.659257 -0.0792243 0
M  V30 4225 H 414.421 -2.00903 0.387212 0
M  V30 4226 H 414.431 -3.91588 -1.14555 0
M  V30 4227 H 413.106 -4.15896 -0.0191259 0
M  V30 4228 H 411.683 -3.34039 -1.65748 0
M  V30 4229 N 413.868 0.0150385 -1.57593 0
M  V30 4230 C 415.284 0.370907 -1.5523 0
M  V30 4231 C 415.484 1.75735 -0.985882 0
M  V30 4232 O 414.54 2.44944 -0.613077 0
M  V30 4233 C 415.853 0.259908 -2.99575 0
M  V30 4234 C 417.401 0.335959 -3.11192 0
M  V30 4235 C 417.876 0.254253 -4.57294 0
M  V30 4236 N 419.367 0.312618 -4.62144 0
M  V30 4237 C 420.102 0.272505 -5.72752 0
M  V30 4238 N 419.598 0.183864 -6.92556 0
M  V30 4239 N 421.391 0.323267 -5.6117 0
M  V30 4240 H 413.542 -0.892104 -1.92757 0
M  V30 4241 H 415.805 -0.340563 -0.884715 0
M  V30 4242 H 415.511 -0.693403 -3.44797 0
M  V30 4243 H 415.385 1.048 -3.62349 0
M  V30 4244 H 417.772 1.27971 -2.65909 0
M  V30 4245 H 417.853 -0.481739 -2.51223 0
M  V30 4246 H 417.497 -0.685887 -5.03247 0
M  V30 4247 H 417.427 1.09024 -5.15191 0
M  V30 4248 H 419.918 0.38307 -3.75953 0
M  V30 4249 H 420.231 0.15874 -7.72637 0
M  V30 4250 H 418.576 0.149708 -6.94839 0
M  V30 4251 H 421.767 0.390607 -4.66467 0
M  V30 4252 H 421.94 0.288539 -6.47357 0
M  V30 4253 N 415.346 1.54954 0.287554 0
M  V30 4254 C 416.279 1.81737 1.3801 0
M  V30 4255 C 417.257 0.669412 1.48181 0
M  V30 4256 O 418.441 0.910839 1.65033 0
M  V30 4257 C 415.568 1.96606 2.75796 0
M  V30 4258 C 414.614 3.19098 2.82982 0
M  V30 4259 S 415.447 4.7683 2.43707 0
M  V30 4260 C 416.603 4.94653 3.83496 0
M  V30 4261 H 416.836 2.74122 1.15085 0
M  V30 4262 H 414.369 1.46538 0.486403 0
M  V30 4263 H 416.327 2.05858 3.55152 0
M  V30 4264 H 414.988 1.05136 2.95982 0
M  V30 4265 H 414.181 3.26344 3.84077 0
M  V30 4266 H 413.783 3.08361 2.11635 0
M  V30 4267 H 416.075 4.79502 4.78628 0
M  V30 4268 H 417.018 5.96728 3.8121 0
M  V30 4269 H 417.426 4.2272 3.74123 0
M  V30 4270 N 416.824 -0.551391 1.4764 0
M  V30 4271 C 417.754 -1.66757 1.63445 0
M  V30 4272 C 418.735 -1.63077 0.483742 0
M  V30 4273 O 419.92 -1.80607 0.71377 0
M  V30 4274 C 417.05 -3.05387 1.65396 0
M  V30 4275 C 416.004 -3.23918 2.79752 0
M  V30 4276 C 415.33 -4.63393 2.66779 0
M  V30 4277 C 416.63 -3.08735 4.21284 0
M  V30 4278 H 418.324 -1.53786 2.56886 0
M  V30 4279 H 415.87 -0.738415 1.23626 0
M  V30 4280 H 417.823 -3.83325 1.75043 0
M  V30 4281 H 416.547 -3.19332 0.685195 0
M  V30 4282 H 415.206 -2.48391 2.69625 0
M  V30 4283 H 414.854 -4.74144 1.67918 0
M  V30 4284 H 414.554 -4.7674 3.43501 0
M  V30 4285 H 416.078 -5.43458 2.78364 0
M  V30 4286 H 417.492 -3.76484 4.32357 0
M  V30 4287 H 415.889 -3.33588 4.98838 0
M  V30 4288 H 416.959 -2.0541 4.39243 0
M  V30 4289 N 418.302 -1.35869 -0.798587 0
M  V30 4290 C 419.55 -1.29332 -1.55298 0
M  V30 4291 C 419.871 0.129729 -1.94568 0
M  V30 4292 O 419.141 1.06796 -1.6423 0
M  V30 4293 H 417.721 -0.475737 -0.57592 0
M  V30 4294 H 420.383 -1.70062 -0.952093 0
M  V30 4295 H 419.479 -1.91458 -2.46476 0
M  V30 4296 N 419.78 1.02168 -1.19998 0
M  V30 4297 C 420.743 2.08765 -0.94604 0
M  V30 4298 C 421.743 1.60618 0.0763846 0
M  V30 4299 O 422.933 1.73472 -0.159135 0
M  V30 4300 C 420.065 3.38262 -0.423255 0
M  V30 4301 H 421.258 2.32726 -1.89153 0
M  V30 4302 H 418.811 1.1889 -1.01464 0
M  V30 4303 H 419.546 3.19974 0.527938 0
M  V30 4304 H 419.331 3.74532 -1.16053 0
M  V30 4305 H 420.821 4.16759 -0.264911 0
M  V30 4306 N 421.258 1.00505 1.21394 0
M  V30 4307 C 422.206 0.558623 2.25792 0
M  V30 4308 C 423.2 -0.396848 1.64686 0
M  V30 4309 O 424.406 -0.268035 1.77993 0
M  V30 4310 H 420.781 0.1623 0.734277 0
M  V30 4311 H 422.752 1.4503 2.60785 0
M  V30 4312 C 421.501 -0.0989574 3.47559 0
M  V30 4313 H 420.824 0.627225 3.94849 0
M  V30 4314 H 422.264 -0.3746 4.22342 0
M  V30 4315 C 420.723 -1.33817 3.09184 0
M  V30 4316 O 421.253 -2.43252 3.19674 0
M  V30 4317 N 419.459 -1.21793 2.63846 0
M  V30 4318 H 419.006 -0.32746 2.5551 0
M  V30 4319 H 418.964 -2.04809 2.38539 0
M  V30 4320 N 422.737 -1.36956 0.779787 0
M  V30 4321 C 423.983 -1.99787 0.348281 0
M  V30 4322 C 424.316 -1.61756 -1.07465 0
M  V30 4323 O 423.591 -0.867639 -1.74075 0
M  V30 4324 C 423.874 -3.56597 0.50104 0
M  V30 4325 C 423.727 -4.04513 1.96697 0
M  V30 4326 C 425.046 -4.40008 -0.0898097 0
M  V30 4327 H 422.165 -0.725796 0.128022 0
M  V30 4328 H 424.807 -1.62514 0.984331 0
M  V30 4329 H 422.957 -3.88479 -0.0404347 0
M  V30 4330 H 424.629 -3.83161 2.56876 0
M  V30 4331 H 422.872 -3.56408 2.47297 0
M  V30 4332 H 423.543 -5.1352 2.02486 0
M  V30 4333 H 426.019 -4.14431 0.372293 0
M  V30 4334 H 424.895 -5.4888 0.0471605 0
M  V30 4335 H 425.156 -4.26035 -1.18096 0
M  V30 4336 N 424.215 -0.530993 -1.48385 0
M  V30 4337 C 425.464 0.00474348 -2.01699 0
M  V30 4338 C 425.777 1.35227 -1.41325 0
M  V30 4339 O 426.983 1.97643 -1.86144 0
M  V30 4340 C 425.439 0.0588473 -3.59852 0
M  V30 4341 C 425.047 -1.28385 -4.2921 0
M  V30 4342 C 426.791 0.543358 -4.21008 0
M  V30 4343 C 424.698 -1.19028 -5.79298 0
M  V30 4344 H 423.628 0.00554317 -0.75398 0
M  V30 4345 H 426.279 -0.674924 -1.70637 0
M  V30 4346 H 424.661 0.803612 -3.8776 0
M  V30 4347 H 425.835 -2.04426 -4.12973 0
M  V30 4348 H 424.15 -1.70418 -3.7993 0
M  V30 4349 H 426.747 0.631351 -5.3096 0
M  V30 4350 H 427.09 1.54937 -3.86394 0
M  V30 4351 H 427.623 -0.145754 -3.97533 0
M  V30 4352 H 424.362 -2.17147 -6.18488 0
M  V30 4353 H 423.882 -0.471246 -5.97946 0
M  V30 4354 H 425.561 -0.881365 -6.40969 0
M  V30 4355 N 425.693 1.55336 -0.266172 0
M  V30 4356 C 426.656 2.20878 0.612001 0
M  V30 4357 C 427.656 1.18388 1.08816 0
M  V30 4358 O 428.846 1.4335 0.989774 0
M  V30 4359 C 425.978 2.86765 1.84332 0
M  V30 4360 H 427.171 2.99873 0.0398718 0
M  V30 4361 H 424.724 1.56291 -0.0167309 0
M  V30 4362 H 425.459 2.11759 2.45619 0
M  V30 4363 H 425.244 3.61862 1.5099 0
M  V30 4364 H 426.734 3.36867 2.46801 0
M  V30 4365 N 427.171 -0.0066808 1.57599 0
M  V30 4366 C 428.399 -0.704087 1.94551 0
M  V30 4367 C 428.814 -1.67677 0.867746 0
M  V30 4368 O 428.171 -1.8185 -0.153925 0
M  V30 4369 C 428.222 -1.44177 3.31505 0
M  V30 4370 O 427.943 -0.508097 4.35144 0
M  V30 4371 C 429.444 -2.23429 3.82876 0
M  V30 4372 H 426.664 -0.196523 0.641576 0
M  V30 4373 H 429.208 0.042453 2.04456 0
M  V30 4374 H 427.363 -2.13999 3.22929 0
M  V30 4375 H 427.777 -1.02782 5.14331 0
M  V30 4376 H 429.251 -2.70552 4.8115 0
M  V30 4377 H 429.728 -3.05818 3.15233 0
M  V30 4378 H 430.334 -1.58636 3.94607 0
M  V30 4379 N 428.649 -1.55105 -0.279332 0
M  V30 4380 C 429.874 -1.7976 -1.03446 0
M  V30 4381 C 430.299 -0.565952 -1.79384 0
M  V30 4382 O 429.657 0.484259 -1.74713 0
M  V30 4383 C 429.705 -3.0179 -1.97371 0
M  V30 4384 O 428.809 -2.76432 -3.06038 0
M  V30 4385 H 428.15 -0.594334 -0.29608 0
M  V30 4386 H 430.68 -2.02235 -0.310165 0
M  V30 4387 H 430.69 -3.30351 -2.39441 0
M  V30 4388 H 429.365 -3.91085 -1.4151 0
M  V30 4389 H 427.942 -2.58949 -2.68328 0
M  V30 4390 N 430.127 0.543554 -1.4793 0
M  V30 4391 C 431.375 1.29752 -1.54948 0
M  V30 4392 C 431.696 1.93764 -0.219242 0
M  V30 4393 O 430.966 1.80639 0.75805 0
M  V30 4394 H 429.546 0.481874 -0.570795 0
M  V30 4395 H 432.208 0.633636 -1.84312 0
M  V30 4396 H 431.304 2.08392 -2.32334 0
M  V30 4397 N 431.605 1.3629 0.791371 0
M  V30 4398 C 433.021 1.16661 1.08914 0
M  V30 4399 C 433.221 -0.0106266 2.01497 0
M  V30 4400 O 432.277 -0.676596 2.43266 0
M  V30 4401 C 433.59 2.47656 1.70549 0
M  V30 4402 C 435.138 2.54002 1.82899 0
M  V30 4403 C 435.613 3.85078 2.47949 0
M  V30 4404 N 437.104 3.86413 2.5542 0
M  V30 4405 C 437.839 4.84572 3.06557 0
M  V30 4406 N 437.335 5.93124 3.58016 0
M  V30 4407 N 439.128 4.71994 3.05251 0
M  V30 4408 H 431.279 2.11668 0.176238 0
M  V30 4409 H 433.542 0.937486 0.140796 0
M  V30 4410 H 433.248 3.34059 1.09989 0
M  V30 4411 H 433.122 2.63319 2.70079 0
M  V30 4412 H 435.509 1.68018 2.42598 0
M  V30 4413 H 435.59 2.42239 0.821808 0
M  V30 4414 H 435.234 4.71467 1.88895 0
M  V30 4415 H 435.164 3.94135 3.49235 0
M  V30 4416 H 437.655 3.07988 2.18979 0
M  V30 4417 H 437.968 6.63999 3.95381 0
M  V30 4418 H 436.313 5.96796 3.56173 0
M  V30 4419 H 439.504 3.86321 2.64336 0
M  V30 4420 H 439.677 5.48653 3.44796 0
M  V30 4421 N 433.083 -1.0153 1.20538 0
M  V30 4422 C 434.046 -2.0826 0.957098 0
M  V30 4423 C 435.046 -1.60657 -0.0678655 0
M  V30 4424 O 436.236 -1.73385 0.168332 0
M  V30 4425 C 433.368 -3.38033 0.441188 0
M  V30 4426 H 434.561 -2.31719 1.90384 0
M  V30 4427 H 432.114 -1.1835 1.02093 0
M  V30 4428 H 432.849 -3.20249 -0.510961 0
M  V30 4429 H 432.634 -3.73911 1.18038 0
M  V30 4430 H 434.124 -4.16613 0.287009 0
M  V30 4431 N 434.561 -1.01147 -1.20859 0
M  V30 4432 C 435.807 -0.698899 -1.90377 0
M  V30 4433 C 436.14 0.76904 -1.78324 0
M  V30 4434 O 435.415 1.55817 -1.16409 0
M  V30 4435 C 435.698 -1.12878 -3.41951 0
M  V30 4436 C 435.551 -2.65665 -3.62963 0
M  V30 4437 C 436.87 -0.696114 -4.3456 0
M  V30 4438 H 433.989 -0.255372 -0.691342 0
M  V30 4439 H 436.631 -1.25831 -1.42361 0
M  V30 4440 H 434.781 -0.652827 -3.82976 0
M  V30 4441 H 436.453 -3.21074 -3.31224 0
M  V30 4442 H 434.696 -3.06878 -3.06608 0
M  V30 4443 H 435.367 -2.90797 -4.69192 0
M  V30 4444 H 437.843 -1.10521 -4.01154 0
M  V30 4445 H 436.719 -1.025 -5.39245 0
M  V30 4446 H 436.98 0.402465 -4.40264 0
M  V30 4447 N 436.039 1.36541 -0.78704 0
M  V30 4448 C 436.949 2.3387 -0.184896 0
M  V30 4449 C 437.965 1.60927 0.661697 0
M  V30 4450 O 439.141 1.92927 0.57804 0
M  V30 4451 C 436.206 3.40122 0.672145 0
M  V30 4452 C 435.267 4.28867 -0.19267 0
M  V30 4453 C 434.5 5.30045 0.623561 0
M  V30 4454 O 434.723 5.39232 1.8597 0
M  V30 4455 O 433.657 6.01895 0.0247068 0
M  V30 4456 H 437.483 2.87126 -0.989562 0
M  V30 4457 H 435.068 1.38969 -0.548455 0
M  V30 4458 H 436.95 4.05093 1.16094 0
M  V30 4459 H 435.625 2.89169 1.45474 0
M  V30 4460 H 434.532 3.66945 -0.728166 0
M  V30 4461 H 435.865 4.83165 -0.938722 0
M  V30 4462 N 437.518 0.538854 1.48102 0
M  V30 4463 C 438.481 -0.208395 2.28251 0
M  V30 4464 C 439.481 -0.859656 1.35892 0
M  V30 4465 O 440.671 -0.71834 1.58699 0
M  V30 4466 C 437.803 -1.30252 3.15035 0
M  V30 4467 H 438.996 0.495407 2.9578 0
M  V30 4468 H 436.549 0.295112 1.53489 0
M  V30 4469 H 437.284 -2.0393 2.52157 0
M  V30 4470 H 437.069 -0.840551 3.82985 0
M  V30 4471 H 438.559 -1.82787 3.75471 0
M  V30 4472 N 438.996 -1.55193 0.274407 0
M  V30 4473 C 439.959 -2.212 -0.600279 0
M  V30 4474 C 440.959 -1.18963 -1.08187 0
M  V30 4475 O 442.149 -1.43873 -0.982158 0
M  V30 4476 C 439.281 -2.87739 -1.82809 0
M  V30 4477 H 440.474 -2.9989 -0.0239682 0
M  V30 4478 H 438.027 -1.5628 0.0250192 0
M  V30 4479 H 438.762 -2.13058 -2.44493 0
M  V30 4480 H 438.547 -3.62658 -1.49069 0
M  V30 4481 H 440.037 -3.38171 -2.45011 0
M  V30 4482 N 440.474 -0.00167713 -1.576 0
M  V30 4483 C 441.722 0.681471 -1.90264 0
M  V30 4484 C 442.043 1.7422 -0.875924 0
M  V30 4485 O 441.313 1.95709 0.0864412 0
M  V30 4486 H 439.893 0.254696 -0.702239 0
M  V30 4487 H 442.555 -0.0429996 -1.94853 0
M  V30 4488 H 441.651 1.15166 -2.90075 0
M  V30 4489 N 441.952 1.55251 0.271103 0
M  V30 4490 C 443.229 1.66664 1.02384 0
M  V30 4491 C 443.609 0.534363 2.04225 0
M  V30 4492 O 442.957 -0.465337 2.23712 0
M  V30 4493 C 443.167 3.05961 1.67895 0
M  V30 4494 C 444.515 3.63772 2.18986 0
M  V30 4495 O 445.539 3.08606 1.77878 0
M  V30 4496 O 444.398 4.60429 2.94393 0
M  V30 4497 H 441.492 0.676957 0.475035 0
M  V30 4498 H 444.038 1.67589 0.26681 0
M  V30 4499 H 442.81 3.79815 0.941071 0
M  V30 4500 H 442.433 3.08943 2.5028 0
M  V30 4501 N 443.43 -0.535701 1.48216 0
M  V30 4502 C 444.676 -1.29375 1.56173 0
M  V30 4503 C 445.009 -1.92804 0.232429 0
M  V30 4504 O 444.284 -1.78992 -0.761048 0
M  V30 4505 C 444.567 -2.38747 2.69577 0
M  V30 4506 C 444.42 -1.80046 4.12193 0
M  V30 4507 C 445.739 -3.40551 2.78771 0
M  V30 4508 H 442.858 -0.469027 0.568491 0
M  V30 4509 H 445.5 -0.597358 1.80365 0
M  V30 4510 H 443.65 -2.98147 2.4908 0
M  V30 4511 H 445.322 -1.24742 4.44114 0
M  V30 4512 H 443.565 -1.10609 4.19462 0
M  V30 4513 H 444.236 -2.59212 4.87353 0
M  V30 4514 H 446.712 -2.91099 2.97322 0
M  V30 4515 H 445.588 -4.1448 3.59857 0
M  V30 4516 H 445.849 -4.00746 1.86696 0
M  V30 4517 N 444.908 -1.36708 -0.784132 0
M  V30 4518 C 446.185 -1.21776 -1.53069 0
M  V30 4519 C 446.565 0.193876 -2.10208 0
M  V30 4520 O 445.913 1.20012 -1.94446 0
M  V30 4521 C 446.123 -2.30395 -2.62143 0
M  V30 4522 C 447.471 -2.67325 -3.29882 0
M  V30 4523 O 448.495 -2.29478 -2.7243 0
M  V30 4524 O 447.354 -3.32485 -4.33724 0
M  V30 4525 H 444.448 -0.474459 -0.677361 0
M  V30 4526 H 446.994 -1.48454 -0.82216 0
M  V30 4527 H 445.766 -3.2498 -2.17953 0
M  V30 4528 H 445.389 -2.05112 -3.40609 0
M  V30 4529 N 446.386 1.0089 -1.21074 0
M  V30 4530 C 447.632 1.74866 -1.02712 0
M  V30 4531 C 447.965 1.89178 0.438787 0
M  V30 4532 O 447.24 1.42325 1.32567 0
M  V30 4533 C 447.523 3.16347 -1.72036 0
M  V30 4534 C 447.376 3.09782 -3.26121 0
M  V30 4535 C 448.695 4.15187 -1.45973 0
M  V30 4536 H 445.814 0.634736 -0.374539 0
M  V30 4537 H 448.456 1.17646 -1.49196 0
M  V30 4538 H 446.606 3.65201 -1.32517 0
M  V30 4539 H 448.278 2.68673 -3.74983 0
M  V30 4540 H 446.521 2.46982 -3.56626 0
M  V30 4541 H 447.192 4.09829 -3.6979 0
M  V30 4542 H 449.668 3.75022 -1.80272 0
M  V30 4543 H 448.544 5.12331 -1.96999 0
M  V30 4544 H 448.805 4.40386 -0.388924 0
M  V30 4545 N 447.864 1.01787 1.20321 0
M  V30 4546 C 448.794 0.609625 2.25401 0
M  V30 4547 C 449.775 -0.375951 1.65893 0
M  V30 4548 O 450.96 -0.261101 1.92437 0
M  V30 4549 C 448.09 -0.0515995 3.47262 0
M  V30 4550 C 447.044 0.855095 4.19371 0
M  V30 4551 C 446.37 0.0595757 5.34667 0
M  V30 4552 C 447.67 2.16374 4.75373 0
M  V30 4553 H 449.364 1.48803 2.59804 0
M  V30 4554 H 446.91 0.716934 1.24884 0
M  V30 4555 H 448.863 -0.348764 4.19954 0
M  V30 4556 H 447.587 -0.964726 3.12027 0
M  V30 4557 H 446.246 1.13628 3.48546 0
M  V30 4558 H 445.894 -0.85524 4.95676 0
M  V30 4559 H 445.594 0.663406 5.83843 0
M  V30 4560 H 447.118 -0.231105 6.10162 0
M  V30 4561 H 448.532 1.92885 5.39878 0
M  V30 4562 H 446.929 2.71853 5.34991 0
M  V30 4563 H 447.999 2.82589 3.94045 0
M  V30 4564 N 449.342 -1.36122 0.79427 0
M  V30 4565 C 450.272 -2.32551 0.210328 0
M  V30 4566 C 451.253 -1.56884 -0.657386 0
M  V30 4567 O 452.438 -1.85014 -0.590207 0
M  V30 4568 C 449.568 -3.41128 -0.651819 0
M  V30 4569 C 448.522 -4.27842 0.116395 0
M  V30 4570 C 447.848 -5.2763 -0.86666 0
M  V30 4571 C 449.148 -5.05647 1.30837 0
M  V30 4572 H 450.842 -2.81636 1.01594 0
M  V30 4573 H 448.388 -1.35407 0.489981 0
M  V30 4574 H 450.341 -4.07581 -1.07031 0
M  V30 4575 H 449.065 -2.90622 -1.49019 0
M  V30 4576 H 447.724 -3.62952 0.515915 0
M  V30 4577 H 447.372 -4.73395 -1.70019 0
M  V30 4578 H 447.072 -5.86514 -0.35705 0
M  V30 4579 H 448.596 -5.96955 -1.28361 0
M  V30 4580 H 450.01 -5.65113 0.965393 0
M  V30 4581 H 448.407 -5.73967 1.75161 0
M  V30 4582 H 449.477 -4.37006 2.10128 0
M  V30 4583 N 450.82 -0.546701 -1.47814 0
M  V30 4584 C 451.75 0.195317 -2.32682 0
M  V30 4585 C 452.731 0.918981 -1.43139 0
M  V30 4586 O 453.916 0.901501 -1.72008 0
M  V30 4587 C 451.046 1.23237 -3.247 0
M  V30 4588 C 450 0.625818 -4.234 0
M  V30 4589 C 449.326 1.76674 -5.04669 0
M  V30 4590 C 450.626 -0.413515 -5.2066 0
M  V30 4591 H 452.32 -0.513184 -2.94969 0
M  V30 4592 H 449.866 -0.248241 -1.41844 0
M  V30 4593 H 451.819 1.75955 -3.82907 0
M  V30 4594 H 450.543 1.97067 -2.60446 0
M  V30 4595 H 449.202 0.120023 -3.66403 0
M  V30 4596 H 448.85 2.49383 -4.36826 0
M  V30 4597 H 448.55 1.36673 -5.71484 0
M  V30 4598 H 450.074 2.29738 -5.65732 0
M  V30 4599 H 451.488 0.0272042 -5.73294 0
M  V30 4600 H 449.885 -0.731825 -5.95621 0
M  V30 4601 H 450.955 -1.31325 -4.66778 0
M  V30 4602 N 452.299 1.55045 -0.282633 0
M  V30 4603 C 453.576 1.9179 0.384166 0
M  V30 4604 C 453.956 1.20778 1.73136 0
M  V30 4605 O 453.304 0.33719 2.25998 0
M  V30 4606 C 453.514 3.45149 0.517014 0
M  V30 4607 C 454.862 4.17064 0.796427 0
M  V30 4608 O 455.886 3.51084 0.601535 0
M  V30 4609 O 454.745 5.33837 1.16962 0
M  V30 4610 H 451.839 0.799483 0.211558 0
M  V30 4611 H 454.385 1.66474 -0.32934 0
M  V30 4612 H 453.157 3.88922 -0.430772 0
M  V30 4613 H 452.78 3.76443 1.2797 0
M  V30 4614 N 453.777 0.010035 1.57597 0
M  V30 4615 C 454.724 -0.978122 2.09049 0
M  V30 4616 C 455.694 -1.33509 0.988159 0
M  V30 4617 O 456.879 -1.43172 1.26121 0
M  V30 4618 C 454.019 -2.26158 2.60666 0
M  V30 4619 C 453.132 -1.96275 3.84838 0
M  V30 4620 C 452.267 -3.18776 4.24918 0
M  V30 4621 C 451.306 -2.84625 5.41899 0
M  V30 4622 N 450.443 -3.99693 5.77226 0
M  V30 4623 H 455.283 -0.532431 2.93205 0
M  V30 4624 H 452.82 -0.251234 1.44939 0
M  V30 4625 H 454.778 -3.01202 2.88675 0
M  V30 4626 H 453.408 -2.68378 1.79369 0
M  V30 4627 H 452.46 -1.11555 3.63675 0
M  V30 4628 H 453.772 -1.67111 4.69974 0
M  V30 4629 H 452.926 -4.02157 4.54262 0
M  V30 4630 H 451.665 -3.51087 3.38511 0
M  V30 4631 H 450.67 -1.99653 5.12268 0
M  V30 4632 H 451.895 -2.53551 6.29991 0
M  V30 4633 H 449.841 -4.31882 4.93776 0
M  V30 4634 H 449.758 -3.74087 6.56959 0
M  V30 4635 H 451.026 -4.83834 6.11167 0
M  V30 4636 N 455.255 -1.55392 -0.262866 0
M  V30 4637 C 456.483 -1.80513 -1.01108 0
M  V30 4638 C 456.898 -0.583533 -1.79556 0
M  V30 4639 O 456.255 0.447585 -1.76926 0
M  V30 4640 C 456.306 -3.03648 -1.96164 0
M  V30 4641 O 456.027 -4.2109 -1.20893 0
M  V30 4642 C 457.528 -3.41448 -2.82715 0
M  V30 4643 H 454.748 -0.601079 -0.298236 0
M  V30 4644 H 457.292 -2.02425 -0.290582 0
M  V30 4645 H 455.447 -2.83832 -2.63663 0
M  V30 4646 H 455.861 -4.90771 -1.85051 0
M  V30 4647 H 457.335 -4.30751 -3.45192 0
M  V30 4648 H 457.812 -2.61308 -3.53008 0
M  V30 4649 H 458.418 -3.63559 -2.20693 0
M  V30 4650 N 456.733 0.527833 -1.48498 0
M  V30 4651 C 457.981 1.28101 -1.56316 0
M  V30 4652 C 458.302 1.9352 -0.239781 0
M  V30 4653 O 457.572 1.81433 0.738849 0
M  V30 4654 H 456.152 0.475793 -0.575873 0
M  V30 4655 H 458.814 0.614052 -1.84974 0
M  V30 4656 H 457.91 2.05916 -2.34532 0
M  V30 4657 N 458.211 1.37122 0.776871 0
M  V30 4658 C 459.439 1.3523 1.5659 0
M  V30 4659 C 459.854 -0.0635518 1.88693 0
M  V30 4660 O 459.211 -1.02394 1.51069 0
M  V30 4661 C 459.262 2.18583 2.8793 0
M  V30 4662 O 458.983 3.5465 2.57206 0
M  V30 4663 C 460.484 2.24612 3.82183 0
M  V30 4664 H 457.704 0.4634 0.485285 0
M  V30 4665 H 460.248 1.80392 0.963266 0
M  V30 4666 H 458.403 1.76943 3.4463 0
M  V30 4667 H 458.817 3.98286 3.41275 0
M  V30 4668 H 460.291 2.87267 4.71361 0
M  V30 4669 H 460.768 1.25309 4.20944 0
M  V30 4670 H 461.374 2.66543 3.31414 0
M  V30 4671 N 459.689 -1.00246 1.21608 0
M  V30 4672 C 460.938 -1.73476 1.02902 0
M  V30 4673 C 461.251 -1.90643 -0.437561 0
M  V30 4674 O 462.457 -2.61105 -0.74407 0
M  V30 4675 C 460.913 -3.12079 1.79261 0
M  V30 4676 C 460.521 -3.02877 3.30106 0
M  V30 4677 C 462.265 -3.89421 1.68972 0
M  V30 4678 C 460.172 -4.36575 3.98944 0
M  V30 4679 H 459.102 -0.650408 0.381425 0
M  V30 4680 H 461.753 -1.11985 1.45367 0
M  V30 4681 H 460.135 -3.74196 1.2959 0
M  V30 4682 H 461.309 -2.49983 3.87098 0
M  V30 4683 H 459.624 -2.39022 3.40965 0
M  V30 4684 H 462.221 -4.88362 2.17731 0
M  V30 4685 H 462.564 -4.1122 0.648397 0
M  V30 4686 H 463.097 -3.33963 2.16133 0
M  V30 4687 H 459.836 -4.19978 5.03288 0
M  V30 4688 H 459.356 -4.8942 3.4674 0
M  V30 4689 H 461.035 -5.05364 4.04 0
M  V30 4690 N 461.167 -1.02423 -1.1978 0
M  V30 4691 C 462.395 -0.737456 -1.93311 0
M  V30 4692 C 462.81 0.703023 -1.75223 0
M  V30 4693 O 462.167 1.47761 -1.07112 0
M  V30 4694 C 462.218 -1.0733 -3.45199 0
M  V30 4695 O 461.939 -2.4572 -3.62702 0
M  V30 4696 C 463.44 -0.80866 -4.35862 0
M  V30 4697 H 460.66 -0.2702 -0.614193 0
M  V30 4698 H 463.204 -1.36747 -1.52054 0
M  V30 4699 H 461.359 -0.488545 -3.84307 0
M  V30 4700 H 461.773 -2.58081 -4.56612 0
M  V30 4701 H 463.247 -1.09365 -5.41057 0
M  V30 4702 H 463.724 0.257025 -4.38447 0
M  V30 4703 H 464.33 -1.37592 -4.02428 0
M  V30 4704 N 462.645 1.35699 -0.801477 0
M  V30 4705 C 463.575 2.32436 -0.222658 0
M  V30 4706 C 464.556 1.5723 0.649057 0
M  V30 4707 O 465.741 1.85324 0.580387 0
M  V30 4708 C 462.871 3.41469 0.633719 0
M  V30 4709 C 461.825 4.27774 -0.139083 0
M  V30 4710 C 461.151 5.28082 0.838666 0
M  V30 4711 C 462.451 5.04946 -1.33517 0
M  V30 4712 H 464.145 2.81094 -1.03086 0
M  V30 4713 H 461.691 1.35146 -0.497155 0
M  V30 4714 H 463.644 4.08143 1.04868 0
M  V30 4715 H 462.368 2.91408 1.47475 0
M  V30 4716 H 461.027 3.62673 -0.535156 0
M  V30 4717 H 460.675 4.7429 1.67506 0
M  V30 4718 H 460.375 5.86695 0.32594 0
M  V30 4719 H 461.899 5.97628 1.25194 0
M  V30 4720 H 463.313 5.64593 -0.995349 0
M  V30 4721 H 461.71 5.7303 -1.78202 0
M  V30 4722 H 462.78 4.35886 -2.12442 0
M  V30 4723 N 464.123 0.554532 1.47522 0
M  V30 4724 C 465.371 0.0294208 2.02079 0
M  V30 4725 C 465.692 -1.32411 1.43151 0
M  V30 4726 O 464.962 -1.863 0.605728 0
M  V30 4727 H 463.542 0.00788672 0.746958 0
M  V30 4728 H 466.204 0.723934 1.80956 0
M  V30 4729 H 465.3 -0.0606745 3.12041 0
M  V30 4730 N 465.601 -1.54893 0.290851 0
M  V30 4731 C 466.549 -2.24579 -0.605576 0
M  V30 4732 C 467.543 -1.24824 -1.14522 0
M  V30 4733 O 468.749 -1.42706 -1.09704 0
M  V30 4734 H 465.124 -0.720946 -0.213872 0
M  V30 4735 H 467.095 -2.984 0.0048173 0
M  V30 4736 C 465.844 -2.99224 -1.77088 0
M  V30 4737 H 465.167 -3.75782 -1.36484 0
M  V30 4738 H 466.607 -3.51281 -2.3744 0
M  V30 4739 C 465.066 -2.05602 -2.66888 0
M  V30 4740 O 465.596 -1.61745 -3.67698 0
M  V30 4741 N 463.802 -1.71771 -2.34399 0
M  V30 4742 H 463.349 -2.07633 -1.52468 0
M  V30 4743 H 463.307 -1.09403 -2.94751 0
M  V30 4744 N 467.08 -0.0183926 -1.57589 0
M  V30 4745 C 468.496 0.337897 -1.55982 0
M  V30 4746 C 468.696 1.73604 -1.02294 0
M  V30 4747 O 467.752 2.43589 -0.664895 0
M  V30 4748 C 469.065 0.196305 -3.00059 0
M  V30 4749 C 470.613 0.269875 -3.11834 0
M  V30 4750 C 471.088 0.157197 -4.5773 0
M  V30 4751 N 472.579 0.214521 -4.62703 0
M  V30 4752 C 473.314 0.150955 -5.73201 0
M  V30 4753 N 472.81 0.0369212 -6.9279 0
M  V30 4754 N 474.603 0.204162 -5.61729 0
M  V30 4755 H 466.754 -0.93279 -1.90821 0
M  V30 4756 H 469.017 -0.359253 -0.877292 0
M  V30 4757 H 468.723 -0.766383 -3.43248 0
M  V30 4758 H 468.597 0.970908 -3.6449 0
M  V30 4759 H 470.984 1.22302 -2.68563 0
M  V30 4760 H 471.065 -0.534918 -2.50144 0
M  V30 4761 H 470.709 -0.792479 -5.01679 0
M  V30 4762 H 470.639 0.980717 -5.17387 0
M  V30 4763 H 473.13 0.303238 -3.76681 0
M  V30 4764 H 473.443 -0.00518321 -7.728 0
M  V30 4765 H 471.788 0.0022886 -6.95 0
M  V30 4766 H 474.979 0.291575 -4.67191 0
M  V30 4767 H 475.152 0.15116 -6.47824 0
M  V30 4768 N 468.558 1.5553 0.254621 0
M  V30 4769 C 469.49 1.86104 1.33783 0
M  V30 4770 C 470.503 0.746752 1.44663 0
M  V30 4771 O 471.692 1.0248 1.46151 0
M  V30 4772 C 468.792 2.02532 2.71724 0
M  V30 4773 C 467.965 3.33335 2.83208 0
M  V30 4774 C 467.024 3.396 4.01943 0
M  V30 4775 O 466.05 4.12862 3.91834 0
M  V30 4776 N 467.252 2.68332 5.1476 0
M  V30 4777 H 470.017 2.79605 1.07893 0
M  V30 4778 H 467.578 1.55672 0.444732 0
M  V30 4779 H 469.57 2.04074 3.4948 0
M  V30 4780 H 468.14 1.15811 2.90356 0
M  V30 4781 H 467.36 3.44176 1.92189 0
M  V30 4782 H 468.648 4.19565 2.87824 0
M  V30 4783 H 468.046 2.08528 5.25864 0
M  V30 4784 H 466.603 2.75575 5.90679 0
M  V30 4785 N 470.036 -0.519951 1.48776 0
M  V30 4786 C 470.999 -1.60574 1.6355 0
M  V30 4787 C 471.999 -1.52557 0.508234 0
M  V30 4788 O 473.189 -1.56047 0.774262 0
M  V30 4789 C 470.321 -3.00211 1.61512 0
M  V30 4790 H 471.514 -1.4881 2.60376 0
M  V30 4791 H 469.067 -0.742772 1.37523 0
M  V30 4792 H 469.802 -3.17471 0.662009 0
M  V30 4793 H 469.587 -3.07439 2.43359 0
M  V30 4794 H 471.077 -3.79134 1.75064 0
M  V30 4795 N 471.514 -1.37532 -0.769588 0
M  V30 4796 C 472.739 -1.36231 -1.56384 0
M  V30 4797 C 473.164 0.0495849 -1.88035 0
M  V30 4798 O 472.522 1.02723 -1.49391 0
M  V30 4799 C 472.57 -2.20986 -2.84952 0
M  V30 4800 O 471.674 -1.61597 -3.79421 0
M  V30 4801 H 471.015 -0.465387 -0.473615 0
M  V30 4802 H 473.545 -1.81085 -0.952342 0
M  V30 4803 H 473.555 -2.34277 -3.34034 0
M  V30 4804 H 472.23 -3.23612 -2.61243 0
M  V30 4805 H 470.807 -1.57359 -3.38072 0
M  V30 4806 N 472.992 0.995999 -1.22138 0
M  V30 4807 C 473.902 2.11985 -1.00496 0
M  V30 4808 C 474.918 1.7394 0.0457701 0
M  V30 4809 O 476.094 2.00868 -0.146273 0
M  V30 4810 C 473.159 3.41779 -0.582086 0
M  V30 4811 C 472.22 3.93943 -1.70608 0
M  V30 4812 C 471.453 5.17542 -1.30328 0
M  V30 4813 O 471.676 5.70114 -0.180743 0
M  V30 4814 O 470.61 5.63382 -2.11861 0
M  V30 4815 H 474.436 2.33123 -1.94647 0
M  V30 4816 H 472.021 1.10358 -1.00705 0
M  V30 4817 H 473.903 4.1989 -0.356467 0
M  V30 4818 H 472.578 3.22007 0.330592 0
M  V30 4819 H 471.485 3.17019 -1.98619 0
M  V30 4820 H 472.818 4.18141 -2.59651 0
M  V30 4821 N 474.47 1.03057 1.19235 0
M  V30 4822 C 475.717 0.728019 1.88961 0
M  V30 4823 C 476.045 -0.743515 1.79728 0
M  V30 4824 O 475.3 -1.55729 1.1852 0
M  V30 4825 C 475.599 1.1268 3.39172 0
M  V30 4826 C 475.265 2.5969 3.68608 0
M  V30 4827 C 473.927 2.99854 3.76352 0
M  V30 4828 C 476.279 3.54793 3.81801 0
M  V30 4829 C 473.607 4.34031 3.94758 0
M  V30 4830 C 475.959 4.88675 4.0172 0
M  V30 4831 C 474.623 5.28526 4.07697 0
M  V30 4832 H 473.893 0.266401 0.691456 0
M  V30 4833 H 476.54 1.29373 1.41191 0
M  V30 4834 H 474.845 0.479722 3.88852 0
M  V30 4835 H 476.542 0.870203 3.91444 0
M  V30 4836 H 473.132 2.27575 3.63191 0
M  V30 4837 H 477.316 3.24914 3.7516 0
M  V30 4838 H 472.572 4.6444 3.97625 0
M  V30 4839 H 476.746 5.6228 4.1087 0
M  V30 4840 H 474.373 6.32506 4.21712 0
M  V30 4841 N 475.948 -1.35272 0.808662 0
M  V30 4842 C 477.197 -1.97963 0.386483 0
M  V30 4843 C 477.51 -1.64866 -1.05255 0
M  V30 4844 O 478.716 -2.20937 -1.57794 0
M  V30 4845 C 477.172 -3.54162 0.640096 0
M  V30 4846 C 476.78 -3.96166 2.0918 0
M  V30 4847 C 478.524 -4.23553 0.283376 0
M  V30 4848 C 476.431 -5.4522 2.29106 0
M  V30 4849 H 475.361 -0.740742 0.140774 0
M  V30 4850 H 478.012 -1.5431 0.993012 0
M  V30 4851 H 476.394 -3.95983 -0.0364117 0
M  V30 4852 H 477.568 -3.65491 2.80629 0
M  V30 4853 H 475.883 -3.3967 2.40859 0
M  V30 4854 H 478.48 -5.33124 0.410273 0
M  V30 4855 H 478.823 -4.09105 -0.770659 0
M  V30 4856 H 479.356 -3.8716 0.913884 0
M  V30 4857 H 476.095 -5.64638 3.32962 0
M  V30 4858 H 475.615 -5.77457 1.62184 0
M  V30 4859 H 477.294 -6.1171 2.1076 0
M  V30 4860 N 477.426 -0.562348 -1.47226 0
M  V30 4861 C 478.837 -0.130325 -1.86245 0
M  V30 4862 C 479.188 1.30128 -1.46838 0
M  V30 4863 O 478.313 1.97974 -0.873805 0
M  V30 4864 C 478.908 -0.229738 -3.3802 0
M  V30 4865 C 477.467 0.14728 -3.76112 0
M  V30 4866 C 476.614 -0.574971 -2.71274 0
M  V30 4867 H 479.565 -0.771773 -1.3867 0
M  V30 4868 H 479.586 0.550316 -3.76499 0
M  V30 4869 H 479.098 -1.27178 -3.66671 0
M  V30 4870 H 477.199 1.19023 -3.53078 0
M  V30 4871 H 477.312 -0.214858 -4.78618 0
M  V30 4872 H 475.676 -0.0174756 -2.54694 0
M  V30 4873 H 476.459 -1.61827 -3.02766 0
M  V30 4874 N 478.904 1.54736 -0.299062 0
M  V30 4875 C 479.867 2.22127 0.565012 0
M  V30 4876 C 480.867 1.20669 1.06281 0
M  V30 4877 O 482.057 1.45417 0.959145 0
M  V30 4878 C 479.189 2.90611 1.78208 0
M  V30 4879 H 480.382 2.99891 -0.0237448 0
M  V30 4880 H 477.935 1.5622 -0.0498788 0
M  V30 4881 H 478.67 2.16921 2.41072 0
M  V30 4882 H 478.455 3.64984 1.43281 0
M  V30 4883 H 479.945 3.42026 2.396 0
M  V30 4884 N 480.382 0.0267497 1.57577 0
M  V30 4885 C 481.314 -0.984594 2.06974 0
M  V30 4886 C 482.327 -1.29032 0.992705 0
M  V30 4887 O 483.516 -1.25539 1.26895 0
M  V30 4888 C 480.616 -2.31262 2.47732 0
M  V30 4889 C 479.789 -2.1924 3.78487 0
M  V30 4890 C 478.848 -3.34956 4.05821 0
M  V30 4891 O 477.874 -3.11948 4.76106 0
M  V30 4892 N 479.076 -4.58672 3.55809 0
M  V30 4893 H 481.841 -0.563143 2.94362 0
M  V30 4894 H 479.402 -0.160061 1.61107 0
M  V30 4895 H 481.394 -3.07496 2.63112 0
M  V30 4896 H 479.964 -2.65056 1.65723 0
M  V30 4897 H 479.184 -1.27747 3.72927 0
M  V30 4898 H 480.472 -2.08409 4.64158 0
M  V30 4899 H 479.87 -4.8026 2.98942 0
M  V30 4900 H 478.427 -5.32083 3.76472 0
M  V30 4901 N 481.861 -1.55662 -0.24637 0
M  V30 4902 C 483.109 -1.77168 -0.972411 0
M  V30 4903 C 483.43 -0.590827 -1.85834 0
M  V30 4904 O 482.7 0.393365 -1.9191 0
M  V30 4905 H 481.28 -0.653405 -0.362038 0
M  V30 4906 H 483.942 -1.93101 -0.264189 0
M  V30 4907 H 483.038 -2.68335 -1.59382 0
M  V30 4908 N 483.339 0.512053 -1.4905 0
M  V30 4909 C 484.585 1.26874 -1.58212 0
M  V30 4910 C 484.918 1.9241 -0.263073 0
M  V30 4911 O 484.193 1.80181 0.732476 0
M  V30 4912 C 484.476 2.34428 -2.73341 0
M  V30 4913 C 484.329 1.73466 -4.15006 0
M  V30 4914 C 485.648 3.36073 -2.84154 0
M  V30 4915 H 482.767 0.459924 -0.575881 0
M  V30 4916 H 485.409 0.568587 -1.81293 0
M  V30 4917 H 483.559 2.94146 -2.53792 0
M  V30 4918 H 485.231 1.17661 -4.46042 0
M  V30 4919 H 483.474 1.03921 -4.21168 0
M  V30 4920 H 484.145 2.51426 -4.91415 0
M  V30 4921 H 486.621 2.86332 -3.01916 0
M  V30 4922 H 485.497 4.08703 -3.66406 0
M  V30 4923 H 485.758 3.97725 -1.93048 0
M  V30 4924 N 484.817 1.37938 0.762283 0
M  V30 4925 C 486.094 1.24196 1.51112 0
M  V30 4926 C 486.474 -0.160409 2.1049 0
M  V30 4927 O 485.822 -1.16904 1.96331 0
M  V30 4928 C 486.032 2.34537 2.58445 0
M  V30 4929 C 487.38 2.7254 3.25588 0
M  V30 4930 O 488.404 2.33783 2.68745 0
M  V30 4931 O 487.263 3.39343 4.28379 0
M  V30 4932 H 484.357 0.485175 0.669727 0
M  V30 4933 H 486.903 1.49743 0.798438 0
M  V30 4934 H 485.675 3.28406 2.12756 0
M  V30 4935 H 485.298 2.10505 3.37303 0
M  V30 4936 N 486.295 -0.989507 1.22664 0
M  V30 4937 C 487.205 -2.11449 1.01619 0
M  V30 4938 C 488.221 -1.73962 -0.036545 0
M  V30 4939 O 489.397 -2.00788 0.156924 0
M  V30 4940 C 486.462 -3.41465 0.600204 0
M  V30 4941 C 485.523 -3.93033 1.72695 0
M  V30 4942 C 484.756 -5.16844 1.33071 0
M  V30 4943 O 484.979 -5.7001 0.210975 0
M  V30 4944 O 483.913 -5.6225 2.14845 0
M  V30 4945 H 487.739 -2.32088 1.9588 0
M  V30 4946 H 485.324 -1.09823 1.01289 0
M  V30 4947 H 487.206 -4.19695 0.37873 0
M  V30 4948 H 485.881 -3.22178 -0.313511 0
M  V30 4949 H 484.788 -3.15961 2.00298 0
M  V30 4950 H 486.121 -4.16758 2.61865 0
M  V30 4951 N 487.773 -1.03688 -1.18687 0
M  V30 4952 C 488.72 -0.624624 -2.22187 0
M  V30 4953 C 489.69 0.365636 -1.62026 0
M  V30 4954 O 490.875 0.260481 -1.89014 0
M  V30 4955 C 488.015 0.0101738 -3.45099 0
M  V30 4956 C 487.128 -1.02709 -4.19613 0
M  V30 4957 C 486.263 -0.361213 -5.2997 0
M  V30 4958 C 485.302 -1.38384 -5.96252 0
M  V30 4959 N 484.439 -0.743196 -6.98155 0
M  V30 4960 H 489.279 -1.51176 -2.56807 0
M  V30 4961 H 486.816 -0.75636 -1.26165 0
M  V30 4962 H 488.774 0.395528 -4.15321 0
M  V30 4963 H 487.404 0.860848 -3.1111 0
M  V30 4964 H 486.456 -1.53043 -3.48256 0
M  V30 4965 H 487.768 -1.80398 -4.65036 0
M  V30 4966 H 486.922 0.0785537 -6.06649 0
M  V30 4967 H 485.661 0.447799 -4.8564 0
M  V30 4968 H 484.666 -1.83378 -5.18317 0
M  V30 4969 H 485.891 -2.19448 -6.42666 0
M  V30 4970 H 483.837 0.0455789 -6.55984 0
M  V30 4971 H 483.754 -1.45784 -7.41811 0
M  V30 4972 H 485.022 -0.327698 -7.78811 0
M  V30 4973 N 489.251 1.34841 -0.815825 0
M  V30 4974 C 490.479 2.0273 -0.413294 0
M  V30 4975 C 490.894 1.61459 0.978599 0
M  V30 4976 O 490.251 0.816584 1.63212 0
M  V30 4977 C 490.302 3.58058 -0.497676 0
M  V30 4978 O 490.023 3.97832 -1.8347 0
M  V30 4979 C 491.524 4.4321 -0.0891339 0
M  V30 4980 H 488.744 0.649956 -0.166728 0
M  V30 4981 H 491.288 1.72267 -1.10201 0
M  V30 4982 H 489.443 3.87136 0.142886 0
M  V30 4983 H 489.857 4.92501 -1.80396 0
M  V30 4984 H 491.331 5.5164 -0.199274 0
M  V30 4985 H 491.808 4.28432 0.966571 0
M  V30 4986 H 492.414 4.19446 -0.703214 0
M  V30 4987 N 490.729 0.570148 1.46925 0
M  V30 4988 C 491.659 -0.158274 2.32963 0
M  V30 4989 C 492.64 -0.896093 1.44583 0
M  V30 4990 O 493.825 -0.874022 1.7342 0
M  V30 4991 C 490.955 -1.18055 3.26619 0
M  V30 4992 C 489.909 -0.558379 4.24342 0
M  V30 4993 C 489.235 -1.68623 5.07415 0
M  V30 4994 C 490.535 0.496295 5.19937 0
M  V30 4995 H 492.229 0.560046 2.94115 0
M  V30 4996 H 489.775 0.270775 1.41431 0
M  V30 4997 H 491.728 -1.69841 3.85658 0
M  V30 4998 H 490.452 -1.92899 2.63548 0
M  V30 4999 H 489.111 -0.0617157 3.66548 0
M  V30 5000 H 488.759 -2.42402 4.40738 0
M  V30 5001 H 488.459 -1.27564 5.73586 0
M  V30 5002 H 489.983 -2.20709 5.69315 0
M  V30 5003 H 491.397 0.0640052 5.73264 0
M  V30 5004 H 489.794 0.82649 5.94381 0
M  V30 5005 H 490.864 1.38735 4.6463 0
M  V30 5006 N 492.207 -1.54576 0.307264 0
M  V30 5007 C 493.17 -2.22423 -0.553224 0
M  V30 5008 C 494.17 -1.21231 -1.05639 0
M  V30 5009 O 495.36 -1.45923 -0.951419 0
M  V30 5010 C 492.492 -2.91552 -1.76664 0
M  V30 5011 H 493.685 -2.99874 0.0396484 0
M  V30 5012 H 491.238 -1.56192 0.0581629 0
M  V30 5013 H 491.973 -2.18196 -2.39918 0
M  V30 5014 H 491.758 -3.65738 -1.41343 0
M  V30 5015 H 493.248 -3.43292 -2.37783 0
M  V30 5016 N 493.685 -0.035106 -1.57561 0
M  V30 5017 C 494.962 0.681212 -1.83354 0
M  V30 5018 C 495.342 1.89986 -0.920252 0
M  V30 5019 O 494.69 2.28489 0.0226815 0
M  V30 5020 C 494.9 1.05376 -3.32712 0
M  V30 5021 C 496.248 1.44286 -3.99333 0
M  V30 5022 O 497.272 1.14656 -3.37242 0
M  V30 5023 O 496.131 1.99518 -5.08778 0
M  V30 5024 H 493.225 0.334741 -0.756226 0
M  V30 5025 H 495.771 -0.0632448 -1.69582 0
M  V30 5026 H 494.543 0.186668 -3.90854 0
M  V30 5027 H 494.166 1.85619 -3.51613 0
M  V30 5028 N 495.163 1.55791 0.238111 0
M  V30 5029 C 496.126 1.90239 1.27835 0
M  V30 5030 C 497.126 0.779552 1.4064 0
M  V30 5031 O 498.316 1.04747 1.3919 0
M  V30 5032 C 495.448 2.13859 2.65475 0
M  V30 5033 H 496.641 2.83262 0.985034 0
M  V30 5034 H 494.194 1.48818 0.477799 0
M  V30 5035 H 494.929 1.23334 2.99932 0
M  V30 5036 H 494.714 2.95643 2.57561 0
M  V30 5037 H 496.204 2.41664 3.40571 0
M  V30 5038 N 496.642 -0.504142 1.49319 0
M  V30 5039 C 497.605 -1.5883 1.65244 0
M  V30 5040 C 498.605 -1.52009 0.524386 0
M  V30 5041 O 499.795 -1.55218 0.79077 0
M  V30 5042 C 496.927 -2.98481 1.64687 0
M  V30 5043 H 498.12 -1.4604 2.61939 0
M  V30 5044 H 495.673 -0.728144 1.38303 0
M  V30 5045 H 496.408 -3.16751 0.695644 0
M  V30 5046 H 496.193 -3.0484 2.46607 0
M  V30 5047 H 497.683 -3.77256 1.79075 0
M  V30 5048 N 498.12 -1.38341 -0.754957 0
M  V30 5049 C 499.052 -1.31347 -1.87831 0
M  V30 5050 C 500.065 -0.225955 -1.61224 0
M  V30 5051 O 501.254 -0.48341 -1.7183 0
M  V30 5052 C 498.354 -1.01201 -3.23437 0
M  V30 5053 C 497.527 -2.20834 -3.77559 0
M  V30 5054 C 496.586 -1.87454 -4.91678 0
M  V30 5055 O 495.612 -2.59934 -5.06382 0
M  V30 5056 N 496.814 -0.828682 -5.74555 0
M  V30 5057 H 499.579 -2.28147 -1.94342 0
M  V30 5058 H 497.14 -1.32184 -0.934828 0
M  V30 5059 H 499.132 -0.769249 -3.97322 0
M  V30 5060 H 497.702 -0.132011 -3.12321 0
M  V30 5061 H 496.922 -2.61184 -2.95256 0
M  V30 5062 H 498.21 -3.00678 -4.10451 0
M  V30 5063 H 497.608 -0.227591 -5.65242 0
M  V30 5064 H 496.165 -0.645802 -6.48593 0
M  V30 5065 N 499.598 0.982988 -1.23187 0
M  V30 5066 C 500.528 2.09301 -1.03515 0
M  V30 5067 C 501.509 1.70035 0.0471136 0
M  V30 5068 O 502.694 1.93847 -0.117029 0
M  V30 5069 C 499.824 3.4167 -0.622791 0
M  V30 5070 C 498.778 3.94828 -1.65211 0
M  V30 5071 C 498.104 5.23362 -1.09527 0
M  V30 5072 C 499.404 4.2439 -3.04451 0
M  V30 5073 H 501.098 2.26016 -1.96359 0
M  V30 5074 H 498.644 1.08611 -0.945501 0
M  V30 5075 H 500.597 4.18746 -0.472233 0
M  V30 5076 H 499.321 3.24811 0.341329 0
M  V30 5077 H 497.98 3.19895 -1.79061 0
M  V30 5078 H 497.628 5.02852 -0.122211 0
M  V30 5079 H 497.328 5.59895 -1.783 0
M  V30 5080 H 498.852 6.03062 -0.956511 0
M  V30 5081 H 500.266 4.92225 -2.93917 0
M  V30 5082 H 498.663 4.72118 -3.70438 0
M  V30 5083 H 499.733 3.31765 -3.53638 0
M  V30 5084 N 501.076 1.04316 1.18135 0
M  V30 5085 C 502.039 0.640794 2.2006 0
M  V30 5086 C 503.039 -0.303124 1.57917 0
M  V30 5087 O 504.229 -0.0881855 1.73977 0
M  V30 5088 C 501.361 -0.060148 3.40847 0
M  V30 5089 H 502.554 1.54281 2.57172 0
M  V30 5090 H 500.107 0.836004 1.32063 0
M  V30 5091 H 500.842 -0.975845 3.0927 0
M  V30 5092 H 500.627 0.618319 3.87194 0
M  V30 5093 H 502.117 -0.328082 4.16309 0
M  V30 5094 N 502.554 -1.34406 0.822964 0
M  V30 5095 C 503.779 -2.0304 0.423034 0
M  V30 5096 C 504.204 -1.61568 -0.963196 0
M  V30 5097 O 503.562 -0.800339 -1.62678 0
M  V30 5098 C 503.61 -3.56636 0.53321 0
M  V30 5099 O 502.714 -4.09971 -0.446939 0
M  V30 5100 H 502.055 -0.64075 0.174171 0
M  V30 5101 H 504.585 -1.71653 1.11339 0
M  V30 5102 H 504.595 -4.05945 0.408991 0
M  V30 5103 H 503.27 -3.86168 1.54425 0
M  V30 5104 H 501.847 -3.71835 -0.281601 0
M  V30 5105 N 504.032 -0.577932 -1.46621 0
M  V30 5106 C 504.962 0.145917 -2.33044 0
M  V30 5107 C 505.943 0.888412 -1.45056 0
M  V30 5108 O 507.128 0.864812 -1.73881 0
M  V30 5109 C 504.258 1.16322 -3.27241 0
M  V30 5110 C 503.212 0.535868 -4.24632 0
M  V30 5111 C 502.538 1.65929 -5.08303 0
M  V30 5112 C 503.838 -0.523861 -5.19666 0
M  V30 5113 H 505.532 -0.575636 -2.93814 0
M  V30 5114 H 503.078 -0.278272 -1.41286 0
M  V30 5115 H 505.031 1.67793 -3.86553 0
M  V30 5116 H 503.755 1.91498 -2.64567 0
M  V30 5117 H 502.414 0.0422759 -3.66576 0
M  V30 5118 H 502.062 2.40061 -4.42018 0
M  V30 5119 H 501.762 1.2452 -5.74255 0
M  V30 5120 H 503.286 2.17686 -5.70478 0
M  V30 5121 H 504.7 -0.0944059 -5.73222 0
M  V30 5122 H 503.097 -0.858 -5.93935 0
M  V30 5123 H 504.167 -1.41197 -4.63887 0
M  V30 5124 N 505.51 1.54411 -0.315457 0
M  V30 5125 C 506.473 2.22713 0.54142 0
M  V30 5126 C 507.473 1.2179 1.04995 0
M  V30 5127 O 508.663 1.46426 0.943667 0
M  V30 5128 C 505.795 2.92485 1.75116 0
M  V30 5129 H 506.988 2.99849 -0.0555508 0
M  V30 5130 H 504.541 1.56159 -0.0664453 0
M  V30 5131 H 505.276 2.19466 2.38758 0
M  V30 5132 H 505.061 3.66483 1.39401 0
M  V30 5133 H 506.551 3.44548 2.35959 0
M  V30 5134 N 506.988 0.0434614 1.5754 0
M  V30 5135 C 508.265 -0.671479 1.83713 0
M  V30 5136 C 508.645 -1.89495 0.930315 0
M  V30 5137 O 507.993 -2.28498 -0.0105639 0
M  V30 5138 C 508.203 -1.0361 3.33266 0
M  V30 5139 C 509.551 -1.42167 4.00092 0
M  V30 5140 O 510.575 -1.12866 3.37846 0
M  V30 5141 O 509.434 -1.96817 5.09829 0
M  V30 5142 H 506.528 -0.330726 0.75799 0
M  V30 5143 H 509.074 0.0722373 1.69546 0
M  V30 5144 H 507.846 -0.165938 3.90948 0
M  V30 5145 H 507.469 -1.83751 3.52592 0
M  V30 5146 N 508.466 -1.55915 -0.229846 0
M  V30 5147 C 509.376 -1.94891 -1.30593 0
M  V30 5148 C 510.392 -0.851604 -1.51736 0
M  V30 5149 O 511.568 -1.15447 -1.65027 0
M  V30 5150 C 508.633 -2.25052 -2.63728 0
M  V30 5151 C 507.694 -3.48306 -2.5096 0
M  V30 5152 C 506.927 -3.77019 -3.77747 0
M  V30 5153 O 507.15 -3.07534 -4.80395 0
M  V30 5154 O 506.084 -4.70523 -3.75356 0
M  V30 5155 H 509.91 -2.86581 -1.00525 0
M  V30 5156 H 507.495 -1.43017 -0.432025 0
M  V30 5157 H 509.377 -2.45682 -3.42372 0
M  V30 5158 H 508.052 -1.36538 -2.93495 0
M  V30 5159 H 506.959 -3.32964 -1.70546 0
M  V30 5160 H 508.292 -4.37177 -2.26136 0
M  V30 5161 N 509.944 0.496216 -1.49584 0
M  V30 5162 C 511.172 1.27394 -1.63029 0
M  V30 5163 C 511.587 1.86344 -0.303569 0
M  V30 5164 O 510.944 1.68057 0.711547 0
M  V30 5165 C 510.995 2.40077 -2.70269 0
M  V30 5166 O 510.716 1.83549 -3.97796 0
M  V30 5167 C 512.217 3.31372 -2.94462 0
M  V30 5168 H 509.437 0.386211 -0.54871 0
M  V30 5169 H 511.981 0.595163 -1.95648 0
M  V30 5170 H 510.136 3.03775 -2.40415 0
M  V30 5171 H 510.55 2.57561 -4.56905 0
M  V30 5172 H 512.024 4.06707 -3.73221 0
M  V30 5173 H 512.501 3.88654 -2.0456 0
M  V30 5174 H 513.107 2.73435 -3.25751 0
M  V30 5175 N 511.423 1.38739 0.74761 0
M  V30 5176 C 512.834 1.31507 1.32524 0
M  V30 5177 C 513.185 -0.0263963 1.96182 0
M  V30 5178 O 512.31 -0.92849 1.95469 0
M  V30 5179 C 512.905 2.38162 2.40966 0
M  V30 5180 C 511.464 2.34489 2.94434 0
M  V30 5181 C 510.611 2.20712 1.67873 0
M  V30 5182 H 513.562 1.4901 0.546043 0
M  V30 5183 H 513.583 2.04222 3.21051 0
M  V30 5184 H 513.095 3.35783 1.94605 0
M  V30 5185 H 511.196 1.40467 3.45108 0
M  V30 5186 H 511.309 3.28861 3.48407 0
M  V30 5187 H 509.673 1.67667 1.91729 0
M  V30 5188 H 510.456 3.20285 1.23582 0
M  V30 5189 N 512.901 -0.976442 1.23707 0
M  V30 5190 C 513.811 -2.10359 1.03856 0
M  V30 5191 C 514.827 -1.73991 -0.0180919 0
M  V30 5192 O 516.003 -2.0061 0.178211 0
M  V30 5193 C 513.068 -3.40809 0.636387 0
M  V30 5194 C 512.129 -3.91179 1.76854 0
M  V30 5195 C 511.362 -5.15404 1.38546 0
M  V30 5196 O 511.585 -5.69754 0.27142 0
M  V30 5197 O 510.519 -5.5994 2.20797 0
M  V30 5198 H 514.345 -2.29997 1.98331 0
M  V30 5199 H 511.93 -1.08742 1.02448 0
M  V30 5200 H 513.812 -4.19269 0.423223 0
M  V30 5201 H 512.487 -3.22493 -0.279322 0
M  V30 5202 H 511.394 -3.13819 2.03638 0
M  V30 5203 H 512.727 -4.13958 2.6627 0
M  V30 5204 N 514.379 -1.04941 -1.1758 0
M  V30 5205 C 515.627 -0.756492 -1.87408 0
M  V30 5206 C 515.948 0.718478 -1.81281 0
M  V30 5207 O 515.218 1.519 -1.23706 0
M  V30 5208 H 513.798 -0.276841 -0.693807 0
M  V30 5209 H 516.46 -1.32803 -1.42652 0
M  V30 5210 H 515.556 -1.06918 -2.93215 0
M  V30 5211 N 515.857 1.33968 -0.830081 0
M  V30 5212 C 517.273 1.51003 -0.516742 0
M  V30 5213 C 517.473 1.77286 0.957694 0
M  V30 5214 O 516.529 1.82797 1.74188 0
M  V30 5215 C 517.842 2.67036 -1.38247 0
M  V30 5216 C 519.39 2.80919 -1.38034 0
M  V30 5217 C 519.865 4.00004 -2.23071 0
M  V30 5218 N 521.356 4.07224 -2.20733 0
M  V30 5219 C 522.091 4.98541 -2.83275 0
M  V30 5220 N 521.587 5.95033 -3.54835 0
M  V30 5221 N 523.38 4.91469 -2.72791 0
M  V30 5222 H 515.531 1.15168 -1.78466 0
M  V30 5223 H 517.794 0.565443 -0.760906 0
M  V30 5224 H 517.5 2.54266 -2.42985 0
M  V30 5225 H 517.374 3.62226 -1.05225 0
M  V30 5226 H 519.761 2.93127 -0.340713 0
M  V30 5227 H 519.842 1.86517 -1.75057 0
M  V30 5228 H 519.486 3.88557 -3.27087 0
M  V30 5229 H 519.416 4.93634 -1.83394 0
M  V30 5230 H 521.907 3.38162 -1.68687 0
M  V30 5231 H 522.22 6.61357 -3.99784 0
M  V30 5232 H 520.565 5.95135 -3.58942 0
M  V30 5233 H 523.756 4.15048 -2.16456 0
M  V30 5234 H 523.929 5.62439 -3.21818 0
M  V30 5235 N 517.335 0.585699 1.46312 0
M  V30 5236 C 518.56 0.0762461 2.0726 0
M  V30 5237 C 518.985 -1.22071 1.43109 0
M  V30 5238 O 518.343 -1.73804 0.515942 0
M  V30 5239 C 518.391 -0.0729404 3.60526 0
M  V30 5240 O 517.495 -1.1287 3.96654 0
M  V30 5241 H 516.836 0.0641558 0.660893 0
M  V30 5242 H 519.366 0.809492 1.87905 0
M  V30 5243 H 519.376 -0.278158 4.07051 0
M  V30 5244 H 518.051 0.874188 4.06609 0
M  V30 5245 H 516.628 -0.901703 3.61834 0
M  V30 5246 N 518.813 -1.54241 0.323641 0
M  V30 5247 C 520.062 -1.9975 -0.279806 0
M  V30 5248 C 520.375 -1.2156 -1.5324 0
M  V30 5249 O 521.581 -1.57447 -2.21185 0
M  V30 5250 C 520.037 -3.55686 -0.549115 0
M  V30 5251 C 519.645 -4.4271 0.686432 0
M  V30 5252 C 521.389 -4.09663 -1.11251 0
M  V30 5253 C 519.296 -5.90119 0.389022 0
M  V30 5254 H 518.226 -0.746177 -0.10833 0
M  V30 5255 H 520.877 -1.78248 0.435877 0
M  V30 5256 H 519.259 -3.73176 -1.32499 0
M  V30 5257 H 520.433 -4.36996 1.46188 0
M  V30 5258 H 518.748 -3.99623 1.17005 0
M  V30 5259 H 521.345 -5.17386 -1.34965 0
M  V30 5260 H 521.688 -3.61651 -2.06191 0
M  V30 5261 H 522.221 -3.95806 -0.39782 0
M  V30 5262 H 518.96 -6.42326 1.30759 0
M  V30 5263 H 518.48 -5.98785 -0.348722 0
M  V30 5264 H 520.159 -6.47 -0.0011164 0
M  V30 5265 N 520.291 -0.0518155 -1.57515 0
M  V30 5266 C 521.537 0.622745 -1.93002 0
M  V30 5267 C 521.87 1.70456 -0.930499 0
M  V30 5268 O 521.145 1.94452 0.0434086 0
M  V30 5269 C 521.428 1.21824 -3.38867 0
M  V30 5270 C 521.281 0.144434 -4.49568 0
M  V30 5271 C 522.6 2.12968 -3.8514 0
M  V30 5272 H 519.719 0.22491 -0.701844 0
M  V30 5273 H 522.361 -0.113711 -1.89659 0
M  V30 5274 H 520.511 1.8459 -3.41846 0
M  V30 5275 H 522.183 -0.48753 -4.58717 0
M  V30 5276 H 520.426 -0.527424 -4.30582 0
M  V30 5277 H 521.097 0.601127 -5.48717 0
M  V30 5278 H 523.573 1.60163 -3.8404 0
M  V30 5279 H 522.449 2.51578 -4.87852 0
M  V30 5280 H 522.71 3.03004 -3.21934 0
M  V30 5281 N 521.769 1.56035 0.221574 0
M  V30 5282 C 523.018 1.78245 0.944016 0
M  V30 5283 C 523.331 0.620371 1.85501 0
M  V30 5284 O 524.537 0.726103 2.6161 0
M  V30 5285 C 522.993 3.15659 1.7288 0
M  V30 5286 C 522.601 4.39591 0.863942 0
M  V30 5287 C 524.345 3.47195 2.44246 0
M  V30 5288 C 522.252 5.6803 1.64607 0
M  V30 5289 H 521.182 0.664547 0.356222 0
M  V30 5290 H 523.833 1.8243 0.197904 0
M  V30 5291 H 522.215 3.0565 2.51781 0
M  V30 5292 H 523.389 4.60655 0.115464 0
M  V30 5293 H 521.704 4.15572 0.262407 0
M  V30 5294 H 524.301 4.40381 3.03263 0
M  V30 5295 H 524.644 2.69693 3.1713 0
M  V30 5296 H 525.177 3.58533 1.72334 0
M  V30 5297 H 521.916 6.48425 0.960507 0
M  V30 5298 H 521.436 5.51027 2.36917 0
M  V30 5299 H 523.115 6.08203 2.20675 0
M  V30 5300 N 523.247 -0.488276 1.49845 0
M  V30 5301 C 524.177 -1.59675 1.70371 0
M  V30 5302 C 525.158 -1.60878 0.552473 0
M  V30 5303 O 526.343 -1.77417 0.78973 0
M  V30 5304 C 523.473 -2.98098 1.782 0
M  V30 5305 C 522.427 -3.11761 2.93239 0
M  V30 5306 C 521.753 -4.51661 2.86193 0
M  V30 5307 C 523.053 -2.90589 4.33999 0
M  V30 5308 H 524.747 -1.42752 2.63177 0
M  V30 5309 H 522.293 -0.685317 1.26647 0
M  V30 5310 H 524.246 -3.75555 1.91144 0
M  V30 5311 H 522.97 -3.16138 0.820018 0
M  V30 5312 H 521.629 -2.36732 2.79917 0
M  V30 5313 H 521.277 -4.66595 1.87877 0
M  V30 5314 H 520.977 -4.61742 3.63412 0
M  V30 5315 H 522.501 -5.31162 3.01163 0
M  V30 5316 H 523.915 -3.57807 4.47936 0
M  V30 5317 H 522.312 -3.1213 5.12538 0
M  V30 5318 H 523.382 -1.86595 4.4756 0
M  V30 5319 N 524.725 -1.39134 -0.740242 0
M  V30 5320 C 525.688 -1.37217 -1.83587 0
M  V30 5321 C 526.688 -0.270221 -1.58513 0
M  V30 5322 O 527.878 -0.527843 -1.6601 0
M  V30 5323 C 525.01 -1.13959 -3.21288 0
M  V30 5324 H 526.203 -2.34705 -1.86691 0
M  V30 5325 H 523.756 -1.24622 -0.94335 0
M  V30 5326 H 524.491 -0.17131 -3.23847 0
M  V30 5327 H 524.276 -1.93754 -3.40884 0
M  V30 5328 H 525.766 -1.15346 -4.01354 0
M  V30 5329 N 526.204 0.969867 -1.24223 0
M  V30 5330 C 527.151 2.06407 -1.0327 0
M  V30 5331 C 528.121 1.66014 0.0533 0
M  V30 5332 O 529.306 1.90533 -0.100896 0
M  V30 5333 C 526.446 3.3909 -0.641262 0
M  V30 5334 C 525.559 3.9269 -1.80051 0
M  V30 5335 C 524.694 5.13631 -1.35486 0
M  V30 5336 C 523.733 5.59423 -2.48419 0
M  V30 5337 N 522.87 6.71586 -2.04737 0
M  V30 5338 H 527.71 2.23663 -1.96923 0
M  V30 5339 H 525.247 1.09624 -0.980862 0
M  V30 5340 H 527.205 4.15323 -0.395351 0
M  V30 5341 H 525.835 3.21765 0.258269 0
M  V30 5342 H 524.887 3.13116 -2.16014 0
M  V30 5343 H 526.199 4.22636 -2.64916 0
M  V30 5344 H 525.353 5.97231 -1.0677 0
M  V30 5345 H 524.092 4.85364 -0.476722 0
M  V30 5346 H 523.097 4.74398 -2.77897 0
M  V30 5347 H 524.322 5.89705 -3.36786 0
M  V30 5348 H 522.268 6.45058 -1.19318 0
M  V30 5349 H 522.185 7.0097 -2.83156 0
M  V30 5350 H 523.453 7.58633 -1.79154 0
M  V30 5351 N 527.682 1.05563 1.17022 0
M  V30 5352 C 528.614 0.617888 2.20714 0
M  V30 5353 C 529.627 -0.320303 1.59618 0
M  V30 5354 O 530.816 -0.112449 1.78145 0
M  V30 5355 C 527.916 -0.115333 3.38704 0
M  V30 5356 C 527.089 0.834493 4.29366 0
M  V30 5357 C 526.148 0.141855 5.26009 0
M  V30 5358 O 525.174 0.777151 5.6387 0
M  V30 5359 N 526.376 -1.11934 5.69606 0
M  V30 5360 H 529.141 1.50981 2.58892 0
M  V30 5361 H 526.702 0.938008 1.31958 0
M  V30 5362 H 528.694 -0.588918 4.00392 0
M  V30 5363 H 527.264 -0.908967 2.99093 0
M  V30 5364 H 526.484 1.48762 3.65053 0
M  V30 5365 H 527.772 1.4791 4.86827 0
M  V30 5366 H 527.17 -1.65574 5.40927 0
M  V30 5367 H 525.727 -1.53692 6.33421 0
M  V30 5368 N 529.16 -1.33526 0.837174 0
M  V30 5369 C 530.576 -1.50727 0.524743 0
M  V30 5370 C 530.776 -1.77792 -0.948279 0
M  V30 5371 O 529.832 -1.83719 -1.73216 0
M  V30 5372 C 531.145 -2.66299 1.39661 0
M  V30 5373 C 532.693 -2.80183 1.39521 0
M  V30 5374 C 533.168 -3.98815 2.25189 0
M  V30 5375 N 534.659 -4.06047 2.2289 0
M  V30 5376 C 535.394 -4.97032 2.85915 0
M  V30 5377 N 534.89 -5.93143 3.57985 0
M  V30 5378 N 536.683 -4.90015 2.75394 0
M  V30 5379 H 528.834 -1.1422 1.79074 0
M  V30 5380 H 531.097 -0.561399 0.763894 0
M  V30 5381 H 530.803 -2.52974 2.4433 0
M  V30 5382 H 530.677 -3.61663 1.07145 0
M  V30 5383 H 533.064 -2.92942 0.356253 0
M  V30 5384 H 533.145 -1.85586 1.76044 0
M  V30 5385 H 532.789 -3.86817 3.29143 0
M  V30 5386 H 532.719 -4.92654 1.86009 0
M  V30 5387 H 535.21 -3.37262 1.70478 0
M  V30 5388 H 535.523 -6.59227 4.03286 0
M  V30 5389 H 533.868 -5.93223 3.62093 0
M  V30 5390 H 537.059 -4.13894 2.18654 0
M  V30 5391 H 537.232 -5.60724 3.24796 0
M  V30 5392 N 530.638 -0.59345 -1.46 0
M  V30 5393 C 531.885 -0.0831523 -2.02329 0
M  V30 5394 C 532.213 1.28093 -1.46364 0
M  V30 5395 O 531.468 1.85526 -0.622793 0
M  V30 5396 C 531.767 0.021178 -3.57394 0
M  V30 5397 C 531.433 -1.27671 -4.32448 0
M  V30 5398 C 530.095 -1.63227 -4.5267 0
M  V30 5399 C 532.447 -2.13511 -4.7546 0
M  V30 5400 C 529.775 -2.84401 -5.1316 0
M  V30 5401 C 532.127 -3.33922 -5.37289 0
M  V30 5402 C 530.791 -3.69747 -5.55737 0
M  V30 5403 H 530.061 -0.0304276 -0.740375 0
M  V30 5404 H 532.708 -0.772239 -1.75239 0
M  V30 5405 H 531.013 0.793454 -3.83682 0
M  V30 5406 H 532.71 0.431942 -3.98667 0
M  V30 5407 H 529.3 -0.989937 -4.17011 0
M  V30 5408 H 533.484 -1.87344 -4.59582 0
M  V30 5409 H 528.74 -3.12282 -5.25633 0
M  V30 5410 H 532.914 -4.00698 -5.69574 0
M  V30 5411 H 530.541 -4.6373 -6.02377 0
M  V30 5412 N 532.116 1.54067 -0.331816 0
M  V30 5413 C 533.064 2.26105 0.54582 0
M  V30 5414 C 534.058 1.27816 1.11173 0
M  V30 5415 O 535.264 1.45565 1.05882 0
M  V30 5416 H 531.639 0.726363 0.194683 0
M  V30 5417 H 533.61 2.98282 -0.083931 0
M  V30 5418 C 532.359 3.03814 1.69092 0
M  V30 5419 H 531.682 3.79269 1.26473 0
M  V30 5420 H 533.122 3.57453 2.28043 0
M  V30 5421 C 531.581 2.12606 2.61343 0
M  V30 5422 O 532.111 1.71437 3.6328 0
M  V30 5423 N 530.317 1.77925 2.29763 0
M  V30 5424 H 529.864 2.11602 1.46909 0
M  V30 5425 H 529.822 1.1718 2.91747 0
M  V30 5426 N 533.594 0.0601682 1.57485 0
M  V30 5427 C 534.524 -0.90889 2.15085 0
M  V30 5428 C 535.505 -1.31838 1.07484 0
M  V30 5429 O 536.69 -1.3915 1.35466 0
M  V30 5430 C 533.82 -2.18059 2.7031 0
M  V30 5431 C 532.774 -1.91088 3.82974 0
M  V30 5432 C 532.1 -3.24789 4.24754 0
M  V30 5433 C 533.4 -1.22535 5.07723 0
M  V30 5434 H 535.094 -0.429093 2.96309 0
M  V30 5435 H 532.64 -0.204952 1.42534 0
M  V30 5436 H 534.593 -2.86258 3.09248 0
M  V30 5437 H 533.317 -2.6826 1.8629 0
M  V30 5438 H 531.976 -1.25297 3.44523 0
M  V30 5439 H 531.624 -3.72809 3.37672 0
M  V30 5440 H 531.324 -3.07538 5.00694 0
M  V30 5441 H 532.848 -3.94205 4.66299 0
M  V30 5442 H 534.262 -1.80783 5.4405 0
M  V30 5443 H 532.659 -1.1558 5.88864 0
M  V30 5444 H 533.729 -0.202692 4.84476 0
M  V30 5445 N 535.072 -1.5615 -0.213296 0
M  V30 5446 C 536.488 -1.49327 -0.56336 0
M  V30 5447 C 536.688 -0.756826 -1.86747 0
M  V30 5448 O 535.744 -0.299866 -2.50713 0
M  V30 5449 C 537.057 -2.9392 -0.634944 0
M  V30 5450 C 538.605 -3.04487 -0.725013 0
M  V30 5451 C 539.08 -4.50456 -0.82787 0
M  V30 5452 N 540.571 -4.54533 -0.891876 0
M  V30 5453 C 541.306 -5.64766 -0.991315 0
M  V30 5454 N 540.802 -6.84733 -1.05419 0
M  V30 5455 N 542.595 -5.52637 -1.02709 0
M  V30 5456 H 534.746 -2.02453 0.642366 0
M  V30 5457 H 537.009 -0.920548 0.226487 0
M  V30 5458 H 536.715 -3.50783 0.253859 0
M  V30 5459 H 536.589 -3.46274 -1.49579 0
M  V30 5460 H 538.976 -2.47685 -1.60425 0
M  V30 5461 H 539.057 -2.55289 0.161669 0
M  V30 5462 H 538.701 -5.07878 0.0469464 0
M  V30 5463 H 538.631 -4.97369 -1.73009 0
M  V30 5464 H 541.122 -3.68141 -0.85327 0
M  V30 5465 H 541.435 -7.64493 -1.13007 0
M  V30 5466 H 539.78 -6.87427 -1.02318 0
M  V30 5467 H 542.971 -4.5784 -0.974687 0
M  V30 5468 H 543.144 -6.38576 -1.10113 0
M  V30 5469 N 536.55 0.480323 -1.50102 0
M  V30 5470 C 537.46 1.60547 -1.71061 0
M  V30 5471 C 538.476 1.63564 -0.593529 0
M  V30 5472 O 539.652 1.81604 -0.870751 0
M  V30 5473 C 536.717 2.96814 -1.79171 0
M  V30 5474 C 535.778 3.04259 -3.02861 0
M  V30 5475 C 535.011 4.34027 -3.10574 0
M  V30 5476 O 535.234 5.24009 -2.25323 0
M  V30 5477 O 534.168 4.46873 -4.03223 0
M  V30 5478 H 537.994 1.45788 -2.6642 0
M  V30 5479 H 535.579 0.658838 -1.34088 0
M  V30 5480 H 537.461 3.77765 -1.86738 0
M  V30 5481 H 536.136 3.11791 -0.869947 0
M  V30 5482 H 535.043 2.22419 -3.008 0
M  V30 5483 H 536.376 2.94216 -3.94586 0
M  V30 5484 N 538.028 1.39524 0.732853 0
M  V30 5485 C 539.444 1.21176 1.03868 0
M  V30 5486 C 539.644 0.0748448 2.01361 0
M  V30 5487 O 538.7 -0.57281 2.45917 0
M  V30 5488 C 540.013 2.54667 1.59892 0
M  V30 5489 C 541.561 2.6153 1.71962 0
M  V30 5490 C 542.036 3.95248 2.31394 0
M  V30 5491 N 543.527 3.96899 2.38801 0
M  V30 5492 C 544.262 4.97138 2.85729 0
M  V30 5493 N 543.758 6.07775 3.32537 0
M  V30 5494 N 545.551 4.84516 2.84957 0
M  V30 5495 H 537.702 2.12225 0.086304 0
M  V30 5496 H 539.965 0.942614 0.100907 0
M  V30 5497 H 539.671 3.38423 0.95721 0
M  V30 5498 H 539.545 2.74538 2.58668 0
M  V30 5499 H 541.932 1.78156 2.35254 0
M  V30 5500 H 542.013 2.45507 0.718327 0
M  V30 5501 H 541.657 4.79054 1.68729 0
M  V30 5502 H 541.587 4.08593 3.32204 0
M  V30 5503 H 544.078 3.16998 2.05719 0
M  V30 5504 H 544.391 6.8017 3.66862 0
M  V30 5505 H 542.736 6.11366 3.30541 0
M  V30 5506 H 545.927 3.97185 2.47713 0
M  V30 5507 H 546.1 5.62783 3.21215 0
M  V30 5508 N 539.506 -0.963266 1.24736 0
M  V30 5509 C 540.783 -1.68248 0.9976 0
M  V30 5510 C 541.163 -2.05599 -0.478776 0
M  V30 5511 O 540.511 -1.7626 -1.45412 0
M  V30 5512 C 540.721 -2.91118 1.92487 0
M  V30 5513 C 542.069 -3.63261 2.19833 0
M  V30 5514 O 543.093 -3.01184 1.90176 0
M  V30 5515 O 541.952 -4.75019 2.7022 0
M  V30 5516 H 539.046 -0.735744 0.377637 0
M  V30 5517 H 541.592 -1.01696 1.35853 0
M  V30 5518 H 540.364 -2.60242 2.92215 0
M  V30 5519 H 539.987 -3.65402 1.56738 0
M  V30 5520 N 540.985 -1.06182 -1.16461 0
M  V30 5521 C 542.231 -0.779015 -1.87241 0
M  V30 5522 C 542.564 0.692715 -1.81425 0
M  V30 5523 O 541.839 1.5074 -1.22913 0
M  V30 5524 C 542.122 -1.2728 -3.36856 0
M  V30 5525 C 541.975 -2.80821 -3.51368 0
M  V30 5526 C 543.294 -0.879799 -4.31216 0
M  V30 5527 H 540.413 -0.284464 -0.679889 0
M  V30 5528 H 543.055 -1.31755 -1.36896 0
M  V30 5529 H 541.205 -0.814673 -3.79862 0
M  V30 5530 H 542.877 -3.34833 -3.17308 0
M  V30 5531 H 541.12 -3.19606 -2.93316 0
M  V30 5532 H 541.791 -3.10435 -4.56436 0
M  V30 5533 H 544.267 -1.27436 -3.96105 0
M  V30 5534 H 543.143 -1.25278 -5.34412 0
M  V30 5535 H 543.404 0.215372 -4.41575 0
M  V30 5536 N 542.463 1.3308 -0.844243 0
M  V30 5537 C 543.395 2.27954 -0.238671 0
M  V30 5538 C 544.408 1.51978 0.583665 0
M  V30 5539 O 545.597 1.73731 0.409857 0
M  V30 5540 C 542.697 3.31963 0.682185 0
M  V30 5541 C 541.87 4.37281 -0.101998 0
M  V30 5542 C 540.929 5.20928 0.743022 0
M  V30 5543 O 539.955 5.68914 0.180285 0
M  V30 5544 N 541.157 5.42738 2.0595 0
M  V30 5545 H 543.922 2.8056 -1.05386 0
M  V30 5546 H 541.483 1.4583 -0.70322 0
M  V30 5547 H 543.475 3.84828 1.25259 0
M  V30 5548 H 542.045 2.79594 1.39808 0
M  V30 5549 H 541.265 3.84843 -0.853802 0
M  V30 5550 H 542.553 5.04746 -0.641015 0
M  V30 5551 H 541.951 5.05463 2.54016 0
M  V30 5552 H 540.508 5.98639 2.57827 0
M  V30 5553 N 543.941 0.601185 1.45683 0
M  V30 5554 C 545.166 0.0982245 2.07167 0
M  V30 5555 C 545.591 -1.20546 1.44396 0
M  V30 5556 O 544.949 -1.73247 0.534347 0
M  V30 5557 C 544.997 -0.0346976 3.60583 0
M  V30 5558 O 544.101 -1.08657 3.97828 0
M  V30 5559 H 543.442 0.0711618 0.660176 0
M  V30 5560 H 545.972 0.829376 1.87036 0
M  V30 5561 H 545.982 -0.234969 4.07323 0
M  V30 5562 H 544.657 0.917265 4.05659 0
M  V30 5563 H 543.234 -0.863275 3.6277 0
M  V30 5564 N 545.419 -1.53889 0.339982 0
M  V30 5565 C 546.349 -2.27843 -0.510856 0
M  V30 5566 C 547.33 -1.29267 -1.10563 0
M  V30 5567 O 548.515 -1.58104 -1.12768 0
M  V30 5568 C 545.645 -3.04857 -1.66372 0
M  V30 5569 C 544.599 -4.10907 -1.19746 0
M  V30 5570 C 543.925 -4.75855 -2.43857 0
M  V30 5571 C 545.225 -5.21435 -0.300501 0
M  V30 5572 H 546.919 -2.99212 0.106067 0
M  V30 5573 H 544.465 -1.43904 0.0524533 0
M  V30 5574 H 546.418 -3.5533 -2.26537 0
M  V30 5575 H 545.142 -2.31133 -2.30749 0
M  V30 5576 H 543.801 -3.61342 -0.618654 0
M  V30 5577 H 543.449 -3.9873 -3.06633 0
M  V30 5578 H 543.149 -5.47502 -2.13343 0
M  V30 5579 H 544.673 -5.2911 -3.04754 0
M  V30 5580 H 546.087 -5.67565 -0.80889 0
M  V30 5581 H 544.484 -6.00036 -0.0874076 0
M  V30 5582 H 545.554 -4.80328 0.664321 0
M  V30 5583 N 546.897 -0.0685191 -1.57451 0
M  V30 5584 C 547.847 0.909895 -2.09057 0
M  V30 5585 C 548.831 1.26088 -0.999528 0
M  V30 5586 O 550.023 1.24041 -1.26265 0
M  V30 5587 C 547.152 2.17863 -2.65312 0
M  V30 5588 C 546.238 1.85427 -3.81415 0
M  V30 5589 N 546.629 1.23426 -4.9051 0
M  V30 5590 C 544.927 2.15196 -3.90649 0
M  V30 5591 C 545.628 1.09008 -5.71395 0
M  V30 5592 N 544.604 1.59871 -5.1956 0
M  V30 5593 H 548.406 0.426145 -2.90794 0
M  V30 5594 H 545.92 0.135462 -1.61834 0
M  V30 5595 H 547.917 2.88872 -3.00597 0
M  V30 5596 H 546.577 2.66829 -1.85021 0
M  V30 5597 H 547.588 0.904305 -5.09944 0
M  V30 5598 H 544.265 2.66562 -3.21327 0
M  V30 5599 H 545.655 0.607305 -6.6915 0
M  V30 5600 N 548.375 1.56261 0.205012 0
M  V30 5601 C 549.338 1.92908 1.23771 0
M  V30 5602 C 550.338 0.809208 1.38955 0
M  V30 5603 O 551.528 1.07676 1.36936 0
M  V30 5604 C 548.66 2.19442 2.60879 0
M  V30 5605 H 549.853 2.85287 0.924728 0
M  V30 5606 H 547.406 1.49798 0.446125 0
M  V30 5607 H 548.141 1.29668 2.97248 0
M  V30 5608 H 547.926 3.0104 2.51232 0
M  V30 5609 H 549.416 2.48833 3.35368 0
M  V30 5610 N 549.853 -0.472356 1.50355 0
M  V30 5611 C 551.081 -1.24784 1.65035 0
M  V30 5612 C 551.496 -1.85837 0.333176 0
M  V30 5613 O 550.853 -1.69168 -0.68472 0
M  V30 5614 C 550.904 -2.35747 2.74054 0
M  V30 5615 O 550.625 -1.77197 4.00665 0
M  V30 5616 C 552.126 -3.26645 2.99696 0
M  V30 5617 H 549.346 -0.377432 0.554785 0
M  V30 5618 H 551.89 -0.563962 1.9657 0
M  V30 5619 H 550.045 -2.99912 2.45217 0
M  V30 5620 H 550.459 -2.5026 4.60945 0
M  V30 5621 H 551.933 -4.00718 3.79644 0
M  V30 5622 H 552.41 -3.8535 2.10718 0
M  V30 5623 H 553.016 -2.68218 3.3006 0
M  V30 5624 N 551.331 -1.39911 -0.725443 0
M  V30 5625 C 552.578 -1.37654 -1.48518 0
M  V30 5626 C 552.906 0.0243982 -1.94485 0
M  V30 5627 O 552.161 1.00708 -1.67799 0
M  V30 5628 C 552.46 -2.30368 -2.7325 0
M  V30 5629 C 552.126 -3.77817 -2.461 0
M  V30 5630 C 550.788 -4.17991 -2.38405 0
M  V30 5631 C 553.14 -4.71036 -2.23103 0
M  V30 5632 C 550.468 -5.49433 -2.05768 0
M  V30 5633 C 552.82 -6.02766 -1.9198 0
M  V30 5634 C 551.484 -6.41993 -1.82761 0
M  V30 5635 H 550.754 -0.503713 -0.543465 0
M  V30 5636 H 553.401 -1.7249 -0.831822 0
M  V30 5637 H 551.706 -1.88683 -3.43375 0
M  V30 5638 H 553.403 -2.2591 -3.31309 0
M  V30 5639 H 549.993 -3.45982 -2.52972 0
M  V30 5640 H 554.177 -4.40823 -2.2801 0
M  V30 5641 H 549.433 -5.78738 -1.9716 0
M  V30 5642 H 553.607 -6.74519 -1.73197 0
M  V30 5643 H 551.234 -7.43761 -1.57237 0
M  V30 5644 N 552.809 0.956637 -1.25245 0
M  V30 5645 C 554.055 1.70352 -1.10036 0
M  V30 5646 C 554.388 1.90869 0.358156 0
M  V30 5647 O 553.663 1.47819 1.26411 0
M  V30 5648 C 553.946 3.08766 -1.85298 0
M  V30 5649 C 553.799 2.95672 -3.38966 0
M  V30 5650 C 555.118 4.08622 -1.63451 0
M  V30 5651 H 552.237 0.618279 -0.401123 0
M  V30 5652 H 554.879 1.11212 -1.54051 0
M  V30 5653 H 553.029 3.59252 -1.47887 0
M  V30 5654 H 554.701 2.52527 -3.86041 0
M  V30 5655 H 552.944 2.31634 -3.6678 0
M  V30 5656 H 553.615 3.93776 -3.86839 0
M  V30 5657 H 556.091 3.67038 -1.96015 0
M  V30 5658 H 554.967 5.03514 -2.18551 0
M  V30 5659 H 555.228 4.3834 -0.575357 0
M  V30 5660 N 554.287 1.06798 1.15896 0
M  V30 5661 C 555.698 0.811355 1.68149 0
M  V30 5662 C 556.049 -0.664339 1.8461 0
M  V30 5663 O 555.174 -1.51485 1.54535 0
M  V30 5664 C 555.769 1.46624 3.05429 0
M  V30 5665 C 554.328 1.25726 3.54781 0
M  V30 5666 C 553.475 1.53949 2.3064 0
M  V30 5667 H 556.426 1.23078 1.00187 0
M  V30 5668 H 556.447 0.88437 3.7008 0
M  V30 5669 H 555.959 2.54025 2.93416 0
M  V30 5670 H 554.06 0.20322 3.72045 0
M  V30 5671 H 554.173 1.97354 4.36564 0
M  V30 5672 H 552.537 0.96025 2.35905 0
M  V30 5673 H 553.32 2.6252 2.2122 0
M  V30 5674 N 555.766 -1.3263 0.851289 0
M  V30 5675 C 557.013 -1.97368 0.453023 0
M  V30 5676 C 557.341 -1.67384 -0.990596 0
M  V30 5677 O 556.596 -0.952665 -1.70947 0
M  V30 5678 C 556.895 -3.51713 0.635015 0
M  V30 5679 C 556.561 -4.01676 2.04859 0
M  V30 5680 C 555.223 -4.15031 2.43522 0
M  V30 5681 C 557.575 -4.28206 2.97135 0
M  V30 5682 C 554.903 -4.52257 3.73739 0
M  V30 5683 C 557.255 -4.66889 4.26846 0
M  V30 5684 C 555.919 -4.7845 4.65448 0
M  V30 5685 H 555.189 -0.722219 0.165773 0
M  V30 5686 H 557.836 -1.58092 1.0807 0
M  V30 5687 H 556.141 -3.91726 -0.0759081 0
M  V30 5688 H 557.838 -3.99823 0.306964 0
M  V30 5689 H 554.428 -3.91764 1.73836 0
M  V30 5690 H 558.612 -4.174 2.68498 0
M  V30 5691 H 553.868 -4.59402 4.03435 0
M  V30 5692 H 558.042 -4.86372 4.98413 0
M  V30 5693 H 555.669 -5.07052 5.66395 0
M  V30 5694 N 557.244 -0.608902 -1.45362 0
M  V30 5695 C 558.472 -0.111013 -2.06602 0
M  V30 5696 C 558.887 1.20516 -1.45332 0
M  V30 5697 O 558.244 1.73437 -0.567978 0
M  V30 5698 C 558.295 0.033688 -3.61484 0
M  V30 5699 O 558.016 -1.23041 -4.20467 0
M  V30 5700 C 559.517 0.562882 -4.39712 0
M  V30 5701 H 556.737 -0.0694453 -0.667397 0
M  V30 5702 H 559.281 -0.837008 -1.86586 0
M  V30 5703 H 557.436 0.710016 -3.80838 0
M  V30 5704 H 557.85 -1.06094 -5.13658 0
M  V30 5705 H 559.324 0.613213 -5.48583 0
M  V30 5706 H 559.801 1.58543 -4.09586 0
M  V30 5707 H 560.407 -0.0794454 -4.25226 0
M  V30 5708 N 558.722 1.53707 -0.348139 0
M  V30 5709 C 559.685 2.23812 0.494058 0
M  V30 5710 C 560.685 1.23989 1.02388 0
M  V30 5711 O 561.875 1.48395 0.912396 0
M  V30 5712 C 559.007 2.96133 1.68872 0
M  V30 5713 H 560.2 2.99663 -0.119141 0
M  V30 5714 H 557.753 1.55983 -0.0995539 0
M  V30 5715 H 558.488 2.24481 2.34049 0
M  V30 5716 H 558.273 3.69357 1.31596 0
M  V30 5717 H 559.763 3.49475 2.28597 0
M  V30 5718 N 560.2 0.0768682 1.57412 0
M  V30 5719 C 561.132 -0.918248 2.10002 0
M  V30 5720 C 562.145 -1.25808 1.03325 0
M  V30 5721 O 563.334 -1.21438 1.30824 0
M  V30 5722 C 560.434 -2.23263 2.54964 0
M  V30 5723 C 559.607 -2.07088 3.8527 0
M  V30 5724 C 558.666 -3.21876 4.16272 0
M  V30 5725 O 557.692 -2.96643 4.8579 0
M  V30 5726 N 558.894 -4.4712 3.70221 0
M  V30 5727 H 561.659 -0.469209 2.96004 0
M  V30 5728 H 559.22 -0.108725 1.61535 0
M  V30 5729 H 561.212 -2.9897 2.72762 0
M  V30 5730 H 559.782 -2.59649 1.74072 0
M  V30 5731 H 559.002 -1.15818 3.76802 0
M  V30 5732 H 560.29 -1.93537 4.70554 0
M  V30 5733 H 559.688 -4.70506 3.1407 0
M  V30 5734 H 558.245 -5.19837 3.93209 0
M  V30 5735 N 561.678 -1.56367 -0.196722 0
M  V30 5736 C 562.903 -1.84991 -0.937714 0
M  V30 5737 C 563.328 -0.660244 -1.76132 0
M  V30 5738 O 562.686 0.390967 -1.77034 0
M  V30 5739 C 562.734 -3.11828 -1.81096 0
M  V30 5740 O 561.838 -2.92266 -2.90955 0
M  V30 5741 H 561.179 -0.609193 -0.264159 0
M  V30 5742 H 563.709 -2.03595 -0.202529 0
M  V30 5743 H 563.719 -3.42579 -2.21594 0
M  V30 5744 H 562.394 -3.98037 -1.2058 0
M  V30 5745 H 560.971 -2.72809 -2.54224 0
M  V30 5746 N 563.156 0.464375 -1.50603 0
M  V30 5747 C 564.572 0.798684 -1.38178 0
M  V30 5748 C 564.772 1.96568 -0.44308 0
M  V30 5749 O 563.828 2.52252 0.111814 0
M  V30 5750 C 565.141 1.10444 -2.79683 0
M  V30 5751 C 566.689 1.2105 -2.88645 0
M  V30 5752 C 567.164 1.54934 -4.30998 0
M  V30 5753 N 568.655 1.61913 -4.3398 0
M  V30 5754 C 569.39 1.8965 -5.41129 0
M  V30 5755 N 568.886 2.15361 -6.58477 0
M  V30 5756 N 570.679 1.91207 -5.28579 0
M  V30 5757 H 562.83 -0.304603 -2.10204 0
M  V30 5758 H 565.093 -0.0737804 -0.945125 0
M  V30 5759 H 564.799 0.319934 -3.50242 0
M  V30 5760 H 564.673 2.03896 -3.17342 0
M  V30 5761 H 567.06 1.98567 -2.18301 0
M  V30 5762 H 567.141 0.255613 -2.5452 0
M  V30 5763 H 566.785 0.779549 -5.01882 0
M  V30 5764 H 566.715 2.51584 -4.62615 0
M  V30 5765 H 569.206 1.44055 -3.49366 0
M  V30 5766 H 569.519 2.35818 -7.35941 0
M  V30 5767 H 567.864 2.1274 -6.6164 0
M  V30 5768 H 571.055 1.70622 -4.35897 0
M  V30 5769 H 571.228 2.12488 -6.12171 0
M  V30 5770 N 564.634 1.40294 0.718013 0
M  V30 5771 C 565.567 1.34767 1.84155 0
M  V30 5772 C 566.545 0.218455 1.61126 0
M  V30 5773 O 567.729 0.401716 1.8417 0
M  V30 5774 C 564.856 1.09676 3.20451 0
M  V30 5775 C 563.902 2.25016 3.62312 0
M  V30 5776 S 564.735 3.87397 3.69707 0
M  V30 5777 C 565.891 3.64565 5.08766 0
M  V30 5778 H 566.124 2.29851 1.88562 0
M  V30 5779 H 563.657 1.2655 0.884555 0
M  V30 5780 H 565.615 0.95885 3.99144 0
M  V30 5781 H 564.276 0.162502 3.13679 0
M  V30 5782 H 563.469 2.03097 4.61268 0
M  V30 5783 H 563.071 2.35098 2.90869 0
M  V30 5784 H 565.363 3.22882 5.95612 0
M  V30 5785 H 566.306 4.63043 5.35721 0
M  V30 5786 H 566.714 2.98303 4.79245 0
M  V30 5787 N 566.112 -0.949982 1.2575 0
M  V30 5788 C 567.337 -1.73503 1.13628 0
M  V30 5789 C 567.762 -1.85601 -0.30559 0
M  V30 5790 O 567.12 -1.33984 -1.22139 0
M  V30 5791 C 567.168 -3.1243 1.80055 0
M  V30 5792 O 566.272 -3.97916 1.08336 0
M  V30 5793 H 565.613 -0.532665 0.396439 0
M  V30 5794 H 568.143 -1.19043 1.66403 0
M  V30 5795 H 568.153 -3.62866 1.86527 0
M  V30 5796 H 566.828 -3.02941 2.84956 0
M  V30 5797 H 565.405 -3.56375 1.09777 0
M  V30 5798 N 567.59 -1.07411 -1.15328 0
M  V30 5799 C 568.838 -0.796073 -1.85761 0
M  V30 5800 C 569.159 0.679864 -1.82764 0
M  V30 5801 O 568.429 1.49242 -1.269 0
M  V30 5802 H 567.009 -0.291495 -0.687779 0
M  V30 5803 H 569.671 -1.35799 -1.39802 0
M  V30 5804 H 568.767 -1.13114 -2.90881 0
M  V30 5805 N 569.068 1.32177 -0.85831 0
M  V30 5806 C 570.317 1.96392 -0.459689 0
M  V30 5807 C 570.63 1.68659 0.990632 0
M  V30 5808 O 571.836 2.26641 1.49485 0
M  V30 5809 C 570.292 3.51542 -0.7711 0
M  V30 5810 C 569.9 3.8813 -2.2374 0
M  V30 5811 C 571.644 4.2221 -0.44038 0
M  V30 5812 C 569.551 5.36341 -2.49183 0
M  V30 5813 H 568.481 0.735007 -0.168169 0
M  V30 5814 H 571.132 1.50518 -1.0496 0
M  V30 5815 H 569.514 3.95846 -0.11058 0
M  V30 5816 H 570.688 3.54824 -2.94001 0
M  V30 5817 H 569.003 3.30497 -2.533 0
M  V30 5818 H 571.6 5.31234 -0.607855 0
M  V30 5819 H 571.943 4.11683 0.618291 0
M  V30 5820 H 572.476 3.83502 -1.05695 0
M  V30 5821 H 569.215 5.51892 -3.53689 0
M  V30 5822 H 568.735 5.7104 -1.83504 0
M  V30 5823 H 570.414 6.03466 -2.33318 0
M  V30 5824 N 570.547 0.616602 1.45037 0
M  V30 5825 C 571.495 -0.109318 2.32343 0
M  V30 5826 C 572.489 -0.850543 1.465 0
M  V30 5827 O 573.695 -0.765088 1.62931 0
M  V30 5828 H 570.07 -0.0541091 0.750051 0
M  V30 5829 H 572.041 0.645326 2.91338 0
M  V30 5830 C 570.79 -1.0872 3.30266 0
M  V30 5831 H 570.113 -0.526267 3.96321 0
M  V30 5832 H 571.553 -1.56489 3.94065 0
M  V30 5833 C 570.012 -2.16525 2.58105 0
M  V30 5834 O 570.542 -3.244 2.36913 0
M  V30 5835 N 568.748 -1.92057 2.18088 0
M  V30 5836 H 568.295 -1.04337 2.35524 0
M  V30 5837 H 568.253 -2.64391 1.70131 0
M  V30 5838 N 572.025 -1.5352 0.356285 0
M  V30 5839 C 573.274 -2.00298 -0.237373 0
M  V30 5840 C 573.587 -1.24784 -1.50627 0
M  V30 5841 O 574.793 -1.62103 -2.17795 0
M  V30 5842 C 573.249 -3.56771 -0.473545 0
M  V30 5843 C 572.857 -4.41154 0.780183 0
M  V30 5844 C 574.601 -4.1193 -1.02537 0
M  V30 5845 C 572.508 -5.89161 0.514108 0
M  V30 5846 H 571.438 -0.748307 -0.092478 0
M  V30 5847 H 574.089 -1.77283 0.473588 0
M  V30 5848 H 572.471 -3.75902 -1.24553 0
M  V30 5849 H 573.645 -4.33797 1.55425 0
M  V30 5850 H 571.96 -3.97052 1.25455 0
M  V30 5851 H 574.557 -5.20133 -1.2396 0
M  V30 5852 H 574.9 -3.65943 -1.98473 0
M  V30 5853 H 575.433 -3.96561 -0.313775 0
M  V30 5854 H 572.172 -6.39408 1.44355 0
M  V30 5855 H 571.692 -5.9939 -0.221632 0
M  V30 5856 H 573.371 -6.46857 0.136122 0
M  V30 5857 N 573.503 -0.0852151 -1.57369 0
M  V30 5858 C 574.78 0.622534 -1.85429 0
M  V30 5859 C 575.16 1.86962 -0.980229 0
M  V30 5860 O 574.508 2.28445 -0.0500219 0
M  V30 5861 C 574.718 0.947374 -3.35896 0
M  V30 5862 C 576.066 1.31509 -4.03721 0
M  V30 5863 O 577.09 1.03869 -3.40719 0
M  V30 5864 O 575.949 1.83231 -5.14868 0
M  V30 5865 H 573.043 0.310513 -0.766492 0
M  V30 5866 H 575.589 -0.117164 -1.69295 0
M  V30 5867 H 574.361 0.0622264 -3.91251 0
M  V30 5868 H 573.984 1.74338 -3.5734 0
M  V30 5869 N 574.981 1.5647 0.188427 0
M  V30 5870 C 575.929 1.95971 1.25293 0
M  V30 5871 C 576.923 0.846047 1.4676 0
M  V30 5872 O 578.129 1.03109 1.47542 0
M  V30 5873 H 574.504 0.623253 0.420784 0
M  V30 5874 H 576.475 2.84731 0.892792 0
M  V30 5875 C 575.224 2.32116 2.58877 0
M  V30 5876 H 574.547 3.17341 2.43176 0
M  V30 5877 H 575.987 2.63613 3.3209 0
M  V30 5878 C 574.446 1.15823 3.16365 0
M  V30 5879 O 574.976 0.436785 3.99318 0
M  V30 5880 N 573.182 0.933278 2.75206 0
M  V30 5881 H 572.729 1.52169 2.07852 0
M  V30 5882 H 572.687 0.156976 3.14008 0
M  V30 5883 N 576.459 -0.456382 1.50847 0
M  V30 5884 C 577.875 -0.791345 1.386 0
M  V30 5885 C 578.075 -1.9633 0.453498 0
M  V30 5886 O 577.131 -2.52308 -0.0984353 0
M  V30 5887 C 578.444 -1.08959 2.80265 0
M  V30 5888 C 579.992 -1.19517 2.89283 0
M  V30 5889 C 580.467 -1.52647 4.31814 0
M  V30 5890 N 581.958 -1.59609 4.34832 0
M  V30 5891 C 582.693 -1.86777 5.42127 0
M  V30 5892 N 582.189 -2.11866 6.59609 0
M  V30 5893 N 583.982 -1.88402 5.29586 0
M  V30 5894 H 576.133 0.315746 2.1004 0
M  V30 5895 H 578.396 0.0787916 0.94472 0
M  V30 5896 H 578.102 -0.301355 3.50407 0
M  V30 5897 H 577.976 -2.02211 3.18419 0
M  V30 5898 H 580.363 -1.97406 2.19351 0
M  V30 5899 H 580.444 -0.242111 2.54652 0
M  V30 5900 H 580.088 -0.752922 5.02288 0
M  V30 5901 H 580.018 -2.49127 4.63943 0
M  V30 5902 H 582.509 -1.42201 3.50125 0
M  V30 5903 H 582.822 -2.31912 7.37182 0
M  V30 5904 H 581.167 -2.09228 6.62758 0
M  V30 5905 H 584.358 -1.68307 4.36795 0
M  V30 5906 H 584.531 -2.09238 6.13289 0
M  V30 5907 N 577.937 -1.40673 -0.710563 0
M  V30 5908 C 578.87 -1.35742 -1.83438 0
M  V30 5909 C 579.848 -0.226997 -1.61008 0
M  V30 5910 O 581.032 -0.411477 -1.83954 0
M  V30 5911 C 578.159 -1.11374 -3.19865 0
M  V30 5912 C 577.205 -2.26935 -3.61113 0
M  V30 5913 S 578.038 -3.89352 -3.67648 0
M  V30 5914 C 579.194 -3.67258 -5.06826 0
M  V30 5915 H 579.427 -2.30848 -1.87341 0
M  V30 5916 H 576.96 -1.27018 -0.877831 0
M  V30 5917 H 578.918 -0.980004 -3.9863 0
M  V30 5918 H 577.579 -0.179135 -3.13589 0
M  V30 5919 H 576.772 -2.0554 -4.60184 0
M  V30 5920 H 576.374 -2.36638 -2.89618 0
M  V30 5921 H 578.666 -3.26036 -5.93891 0
M  V30 5922 H 579.609 -4.65878 -5.33257 0
M  V30 5923 H 580.017 -3.0084 -4.77656 0
M  V30 5924 N 579.415 0.9433 -1.26252 0
M  V30 5925 C 580.664 1.68369 -1.11062 0
M  V30 5926 C 580.977 1.92514 0.346104 0
M  V30 5927 O 582.183 2.64358 0.618646 0
M  V30 5928 C 580.639 3.03171 -1.93946 0
M  V30 5929 C 580.247 2.86782 -3.4418 0
M  V30 5930 C 581.991 3.80916 -1.87359 0
M  V30 5931 C 579.898 4.17044 -4.19319 0
M  V30 5932 H 578.828 0.631469 -0.412023 0
M  V30 5933 H 581.479 1.04922 -1.50544 0
M  V30 5934 H 579.861 3.67587 -1.47296 0
M  V30 5935 H 581.035 2.31229 -3.98585 0
M  V30 5936 H 579.35 2.22482 -3.51981 0
M  V30 5937 H 581.947 4.77417 -2.40784 0
M  V30 5938 H 582.29 4.07658 -0.843857 0
M  V30 5939 H 582.823 3.2327 -2.31821 0
M  V30 5940 H 579.562 3.95487 -5.22753 0
M  V30 5941 H 579.082 4.72319 -3.69696 0
M  V30 5942 H 580.761 4.85513 -4.27651 0
M  V30 5943 N 580.893 1.08022 1.14757 0
M  V30 5944 C 582.309 0.807072 1.3769 0
M  V30 5945 C 582.509 -0.585504 1.92806 0
M  V30 5946 O 581.565 -1.34301 2.13821 0
M  V30 5947 C 582.878 1.88651 2.34161 0
M  V30 5948 C 584.426 1.91206 2.47809 0
M  V30 5949 C 584.901 2.98253 3.47576 0
M  V30 5950 N 586.392 2.974 3.55117 0
M  V30 5951 C 587.127 3.76872 4.32152 0
M  V30 5952 N 586.623 4.66212 5.12463 0
M  V30 5953 N 588.416 3.6519 4.27309 0
M  V30 5954 H 580.567 1.97824 0.77326 0
M  V30 5955 H 582.83 0.85826 0.402608 0
M  V30 5956 H 582.536 2.88749 2.00791 0
M  V30 5957 H 582.41 1.75244 3.3402 0
M  V30 5958 H 584.797 0.917564 2.80472 0
M  V30 5959 H 584.878 2.08691 1.47925 0
M  V30 5960 H 584.522 3.97907 3.15646 0
M  V30 5961 H 584.452 2.78014 4.47231 0
M  V30 5962 H 586.943 2.32643 2.97801 0
M  V30 5963 H 587.256 5.23468 5.68508 0
M  V30 5964 H 585.601 4.70257 5.11745 0
M  V30 5965 H 588.792 2.94765 3.63636 0
M  V30 5966 H 588.965 4.27366 4.87095 0
M  V30 5967 N 582.371 -1.3172 0.865308 0
M  V30 5968 C 583.318 -2.2863 0.315736 0
M  V30 5969 C 584.288 -1.55524 -0.583213 0
M  V30 5970 O 585.473 -1.83694 -0.51585 0
M  V30 5971 C 582.613 -3.41735 -0.480773 0
M  V30 5972 C 581.726 -4.297 0.445167 0
M  V30 5973 C 580.861 -5.29944 -0.365012 0
M  V30 5974 C 579.9 -6.09554 0.557651 0
M  V30 5975 N 579.037 -7.01768 -0.215994 0
M  V30 5976 H 583.877 -2.75026 1.14736 0
M  V30 5977 H 581.414 -1.35302 0.577209 0
M  V30 5978 H 583.372 -4.06045 -0.958306 0
M  V30 5979 H 582.002 -2.96461 -1.27714 0
M  V30 5980 H 581.054 -3.65875 1.04113 0
M  V30 5981 H 582.366 -4.85295 1.15284 0
M  V30 5982 H 581.52 -5.99908 -0.905255 0
M  V30 5983 H 580.259 -4.74994 -1.106 0
M  V30 5984 H 579.264 -5.38485 1.10969 0
M  V30 5985 H 580.489 -6.66591 1.29742 0
M  V30 5986 H 578.435 -6.49232 -0.939878 0
M  V30 5987 H 578.352 -7.54762 0.432431 0
M  V30 5988 H 579.62 -7.76002 -0.737618 0
M  V30 5989 N 583.85 -0.624285 -1.44708 0
M  V30 5990 C 585.098 -0.125802 -2.01708 0
M  V30 5991 C 585.418 1.2543 -1.49306 0
M  V30 5992 O 584.689 1.83198 -0.693924 0
M  V30 5993 H 583.269 -0.0435161 -0.745731 0
M  V30 5994 H 585.931 -0.809446 -1.77296 0
M  V30 5995 H 585.027 -0.0882734 -3.11975 0
M  V30 5996 N 585.328 1.53329 -0.364422 0
M  V30 5997 C 586.553 2.06132 0.229033 0
M  V30 5998 C 586.978 1.23625 1.41769 0
M  V30 5999 O 586.336 0.255038 1.79497 0
M  V30 6000 C 586.384 3.55544 0.60174 0
M  V30 6001 O 585.488 3.75771 1.69912 0
M  V30 6002 H 584.829 0.663148 0.0336213 0
M  V30 6003 H 587.359 1.97758 -0.524689 0
M  V30 6004 H 587.369 3.98549 0.873073 0
M  V30 6005 H 586.044 4.15039 -0.267421 0
M  V30 6006 H 584.621 3.44663 1.42343 0
M  V30 6007 N 586.806 0.0935595 1.57322 0
M  V30 6008 C 588.052 -0.571355 1.94585 0
M  V30 6009 C 588.385 -1.67929 0.975366 0
M  V30 6010 O 587.66 -1.94498 0.00816206 0
M  V30 6011 C 587.943 -1.12797 3.41978 0
M  V30 6012 C 587.796 -0.0251881 4.49793 0
M  V30 6013 C 589.115 -2.02682 3.90651 0
M  V30 6014 H 586.234 -0.206223 0.70756 0
M  V30 6015 H 588.876 0.163956 1.89291 0
M  V30 6016 H 587.026 -1.75461 3.4662 0
M  V30 6017 H 588.698 0.608979 4.57263 0
M  V30 6018 H 586.941 0.641399 4.29032 0
M  V30 6019 H 587.612 -0.455433 5.50118 0
M  V30 6020 H 590.088 -1.49925 3.88152 0
M  V30 6021 H 588.964 -2.38555 4.94351 0
M  V30 6022 H 589.225 -2.94362 3.29854 0
M  V30 6023 N 588.284 -1.56567 -0.180126 0
M  V30 6024 C 589.561 -1.7235 -0.924931 0
M  V30 6025 C 589.941 -0.652523 -2.00762 0
M  V30 6026 O 589.289 0.334115 -2.26044 0
M  V30 6027 C 589.499 -3.1523 -1.49771 0
M  V30 6028 C 590.847 -3.75921 -1.97405 0
M  V30 6029 O 591.871 -3.18452 -1.59583 0
M  V30 6030 O 590.73 -4.7681 -2.67048 0
M  V30 6031 H 587.824 -0.703502 -0.434758 0
M  V30 6032 H 590.37 -1.6886 -0.168647 0
M  V30 6033 H 589.142 -3.84656 -0.718027 0
M  V30 6034 H 588.765 -3.23009 -2.31842 0
M  V30 6035 N 589.762 0.448376 -1.51087 0
M  V30 6036 C 590.725 1.52588 -1.71025 0
M  V30 6037 C 591.725 1.49958 -0.580442 0
M  V30 6038 O 592.915 1.52176 -0.847833 0
M  V30 6039 C 590.047 2.92163 -1.75652 0
M  V30 6040 H 591.24 1.36218 -2.67179 0
M  V30 6041 H 588.793 0.676313 -1.4091 0
M  V30 6042 H 589.528 3.13951 -0.812724 0
M  V30 6043 H 589.313 2.95478 -2.57751 0
M  V30 6044 H 590.803 3.70349 -1.92953 0
M  V30 6045 N 591.24 1.41047 0.703093 0
M  V30 6046 C 592.489 1.39301 1.4587 0
M  V30 6047 C 592.802 0.00267077 1.956 0
M  V30 6048 O 594.008 -0.137414 2.71152 0
M  V30 6049 C 592.464 2.44891 2.63735 0
M  V30 6050 C 592.072 3.89796 2.20824 0
M  V30 6051 C 593.816 2.5227 3.41409 0
M  V30 6052 C 591.723 4.86955 3.35602 0
M  V30 6053 H 590.653 0.518005 0.547893 0
M  V30 6054 H 593.304 1.66839 0.764009 0
M  V30 6055 H 591.686 2.10472 3.35436 0
M  V30 6056 H 592.86 4.33424 1.56461 0
M  V30 6057 H 591.175 3.86008 1.56163 0
M  V30 6058 H 593.772 3.22044 4.26839 0
M  V30 6059 H 594.115 1.55714 3.86081 0
M  V30 6060 H 594.648 2.85742 2.7676 0
M  V30 6061 H 591.387 5.84888 2.9595 0
M  V30 6062 H 590.907 4.47982 3.98839 0
M  V30 6063 H 592.586 5.07361 4.01489 0
M  V30 6064 N 592.718 -0.936591 1.26751 0
M  V30 6065 C 594.134 -1.21095 1.03963 0
M  V30 6066 C 594.334 -2.00156 -0.232372 0
M  V30 6067 O 593.39 -2.3434 -0.940274 0
M  V30 6068 C 594.703 -1.96775 2.27377 0
M  V30 6069 C 596.251 -2.09749 2.32324 0
M  V30 6070 C 596.726 -2.88832 3.55443 0
M  V30 6071 N 598.217 -2.96404 3.55948 0
M  V30 6072 C 598.952 -3.58036 4.47881 0
M  V30 6073 N 598.448 -4.21132 5.50109 0
M  V30 6074 N 600.241 -3.55353 4.35523 0
M  V30 6075 H 592.392 -0.408173 2.08441 0
M  V30 6076 H 594.655 -0.243139 0.91629 0
M  V30 6077 H 594.361 -1.46094 3.19921 0
M  V30 6078 H 594.235 -2.97424 2.31989 0
M  V30 6079 H 596.622 -2.5962 1.40291 0
M  V30 6080 H 596.703 -1.08347 2.31721 0
M  V30 6081 H 596.347 -2.39647 4.47808 0
M  V30 6082 H 596.277 -3.90499 3.53296 0
M  V30 6083 H 598.768 -2.51552 2.82011 0
M  V30 6084 H 599.081 -4.66071 6.16439 0
M  V30 6085 H 597.426 -4.19705 5.53961 0
M  V30 6086 H 600.617 -3.05256 3.54875 0
M  V30 6087 H 600.79 -4.03097 5.07363 0
M  V30 6088 N 594.196 -1.08629 -1.14182 0
M  V30 6089 C 595.612 -0.814363 -1.3726 0
M  V30 6090 C 595.812 0.575271 -1.93114 0
M  V30 6091 O 594.868 1.33165 -2.1453 0
M  V30 6092 C 596.181 -1.8989 -2.33157 0
M  V30 6093 C 597.729 -1.92518 -2.46791 0
M  V30 6094 C 598.204 -3.00092 -3.45989 0
M  V30 6095 N 599.695 -2.99279 -3.53534 0
M  V30 6096 C 600.43 -3.79158 -4.30147 0
M  V30 6097 N 599.926 -4.68923 -5.09983 0
M  V30 6098 N 601.719 -3.67451 -4.25366 0
M  V30 6099 H 593.87 -1.98232 -0.762758 0
M  V30 6100 H 596.133 -0.860383 -0.398051 0
M  V30 6101 H 595.839 -2.89809 -1.99257 0
M  V30 6102 H 595.713 -1.77013 -3.33086 0
M  V30 6103 H 598.1 -0.932425 -2.79982 0
M  V30 6104 H 598.181 -2.09473 -1.46816 0
M  V30 6105 H 597.825 -3.99575 -3.13532 0
M  V30 6106 H 597.755 -2.80382 -4.45751 0
M  V30 6107 H 600.246 -2.3422 -2.96563 0
M  V30 6108 H 600.559 -5.26475 -5.65724 0
M  V30 6109 H 598.904 -4.72964 -5.09244 0
M  V30 6110 H 602.095 -2.9669 -3.62067 0
M  V30 6111 H 602.268 -4.29944 -4.84822 0
M  V30 6112 N 595.674 1.31259 -0.872281 0
M  V30 6113 C 596.624 2.26 -0.301295 0
M  V30 6114 C 597.608 1.50729 0.562991 0
M  V30 6115 O 598.8 1.72198 0.40949 0
M  V30 6116 C 595.929 3.39724 0.494227 0
M  V30 6117 C 595.015 4.22363 -0.383432 0
M  V30 6118 N 595.406 4.83724 -1.47799 0
M  V30 6119 C 593.704 4.45652 -0.176278 0
M  V30 6120 C 594.405 5.45523 -2.01939 0
M  V30 6121 N 593.381 5.27428 -1.31608 0
M  V30 6122 H 597.183 2.70981 -1.13782 0
M  V30 6123 H 594.697 1.45552 -0.720294 0
M  V30 6124 H 596.694 4.06626 0.919828 0
M  V30 6125 H 595.354 2.96286 1.32834 0
M  V30 6126 H 596.365 4.83313 -1.8609 0
M  V30 6127 H 593.042 4.12845 0.621698 0
M  V30 6128 H 594.432 6.04268 -2.93786 0
M  V30 6129 N 597.152 0.631951 1.44375 0
M  V30 6130 C 598.398 0.13697 2.02337 0
M  V30 6131 C 598.731 -1.23826 1.49602 0
M  V30 6132 O 598.006 -1.8221 0.680415 0
M  V30 6133 C 598.289 0.124536 3.59885 0
M  V30 6134 C 598.142 1.53217 4.229 0
M  V30 6135 C 599.461 -0.550481 4.36644 0
M  V30 6136 H 596.58 0.051247 0.735216 0
M  V30 6137 H 599.222 0.808581 1.71936 0
M  V30 6138 H 597.372 -0.44737 3.85916 0
M  V30 6139 H 599.044 2.15303 4.07973 0
M  V30 6140 H 597.287 2.0858 3.80364 0
M  V30 6141 H 597.958 1.4755 5.31914 0
M  V30 6142 H 600.434 -0.0641154 4.16051 0
M  V30 6143 H 599.31 -0.528371 5.46351 0
M  V30 6144 H 599.571 -1.62097 4.11311 0
M  V30 6145 N 598.631 -1.53133 0.372548 0
M  V30 6146 C 599.541 -2.29671 -0.478379 0
M  V30 6147 C 600.557 -1.35913 -1.08644 0
M  V30 6148 O 601.733 -1.68975 -1.09588 0
M  V30 6149 C 598.798 -3.07625 -1.599 0
M  V30 6150 C 597.859 -4.17061 -1.01776 0
M  V30 6151 C 597.092 -4.91289 -2.08497 0
M  V30 6152 O 597.315 -4.65442 -3.29727 0
M  V30 6153 O 596.249 -5.7705 -1.71164 0
M  V30 6154 H 600.075 -3.03355 0.144649 0
M  V30 6155 H 597.66 -1.48773 0.136729 0
M  V30 6156 H 599.542 -3.56281 -2.25038 0
M  V30 6157 H 598.217 -2.3677 -2.2073 0
M  V30 6158 H 597.124 -3.72641 -0.330098 0
M  V30 6159 H 598.457 -4.90102 -0.453915 0
M  V30 6160 N 600.109 -0.101901 -1.5727 0
M  V30 6161 C 601.072 0.840129 -2.13247 0
M  V30 6162 C 602.072 1.20625 -1.06331 0
M  V30 6163 O 603.262 1.13456 -1.32186 0
M  V30 6164 C 600.394 2.13372 -2.65867 0
M  V30 6165 H 601.587 0.353945 -2.97804 0
M  V30 6166 H 599.14 0.147167 -1.55606 0
M  V30 6167 H 599.875 2.66461 -1.84849 0
M  V30 6168 H 599.66 1.88085 -3.44044 0
M  V30 6169 H 601.15 2.80748 -3.09145 0
M  V30 6170 N 601.587 1.56661 0.17182 0
M  V30 6171 C 602.535 1.97289 1.23207 0
M  V30 6172 C 603.529 0.861566 1.45854 0
M  V30 6173 O 604.735 1.04668 1.4644 0
M  V30 6174 H 601.11 0.627681 0.41415 0
M  V30 6175 H 603.081 2.85662 0.862542 0
M  V30 6176 C 601.83 2.34849 2.564 0
M  V30 6177 H 601.153 3.19903 2.39797 0
M  V30 6178 H 602.593 2.67121 3.29276 0
M  V30 6179 C 601.052 1.19172 3.15119 0
M  V30 6180 O 601.582 0.479113 3.98833 0
M  V30 6181 N 599.788 0.962415 2.74201 0
M  V30 6182 H 599.335 1.54365 2.06226 0
M  V30 6183 H 599.293 0.190272 3.13824 0
M  V30 6184 N 603.065 -0.440357 1.51323 0
M  V30 6185 C 604.313 -1.18769 1.63518 0
M  V30 6186 C 604.634 -1.91793 0.352201 0
M  V30 6187 O 603.904 -1.85432 -0.631811 0
M  V30 6188 H 602.484 -0.441408 0.602634 0
M  V30 6189 H 605.146 -0.505162 1.8824 0
M  V30 6190 H 604.242 -1.91892 2.46138 0
M  V30 6191 N 604.543 -1.41418 -0.695603 0
M  V30 6192 C 605.791 -1.40496 -1.45277 0
M  V30 6193 C 606.112 -0.0149538 -1.94994 0
M  V30 6194 O 605.382 0.9432 -1.71699 0
M  V30 6195 H 603.962 -0.517147 -0.539044 0
M  V30 6196 H 606.624 -1.76656 -0.823321 0
M  V30 6197 H 605.72 -2.09214 -2.31595 0
M  V30 6198 N 606.021 0.929856 -1.27246 0
M  V30 6199 C 606.971 2.01629 -1.06442 0
M  V30 6200 C 607.955 1.60899 0.00687842 0
M  V30 6201 O 609.147 1.75733 -0.211407 0
M  V30 6202 C 606.276 3.35849 -0.711361 0
M  V30 6203 C 605.362 3.8303 -1.82069 0
M  V30 6204 N 605.753 4.02743 -3.05993 0
M  V30 6205 C 604.051 4.12046 -1.70687 0
M  V30 6206 C 604.752 4.42001 -3.78167 0
M  V30 6207 N 603.728 4.4935 -3.05918 0
M  V30 6208 H 607.53 2.14898 -2.00489 0
M  V30 6209 H 605.044 1.11654 -1.17929 0
M  V30 6210 H 607.041 4.13343 -0.543442 0
M  V30 6211 H 605.701 3.23944 0.221517 0
M  V30 6212 H 606.712 3.89112 -3.41778 0
M  V30 6213 H 603.389 4.08866 -0.844681 0
M  V30 6214 H 604.779 4.6535 -4.84664 0
M  V30 6215 N 607.499 1.09233 1.13605 0
M  V30 6216 C 608.746 0.827159 1.84836 0
M  V30 6217 C 609.074 -0.647199 1.83416 0
M  V30 6218 O 608.329 -1.49228 1.26608 0
M  V30 6219 C 608.628 1.305 3.32723 0
M  V30 6220 C 608.294 2.78864 3.54325 0
M  V30 6221 C 606.956 3.19382 3.59928 0
M  V30 6222 C 609.308 3.74532 3.62457 0
M  V30 6223 C 606.636 4.54346 3.71196 0
M  V30 6224 C 608.988 5.09283 3.75252 0
M  V30 6225 C 607.652 5.49394 3.79108 0
M  V30 6226 H 606.922 0.302679 0.676363 0
M  V30 6227 H 609.569 1.36676 1.34134 0
M  V30 6228 H 607.874 0.68517 3.85762 0
M  V30 6229 H 609.571 1.07648 3.86281 0
M  V30 6230 H 606.161 2.46507 3.50617 0
M  V30 6231 H 610.345 3.44343 3.57409 0
M  V30 6232 H 605.601 4.84864 3.72447 0
M  V30 6233 H 609.775 5.83269 3.80487 0
M  V30 6234 H 607.402 6.5397 3.87591 0
M  V30 6235 N 608.977 -1.30795 0.87923 0
M  V30 6236 C 610.388 -1.78535 0.546093 0
M  V30 6237 C 610.739 -1.72354 -0.937467 0
M  V30 6238 O 609.864 -1.2969 -1.73233 0
M  V30 6239 C 610.459 -3.24181 0.9845 0
M  V30 6240 C 609.018 -3.69779 0.702871 0
M  V30 6241 C 608.165 -2.51377 1.17068 0
M  V30 6242 H 611.116 -1.17746 1.06403 0
M  V30 6243 H 611.137 -3.79227 0.311045 0
M  V30 6244 H 610.649 -3.28647 2.06429 0
M  V30 6245 H 608.75 -3.70806 -0.365166 0
M  V30 6246 H 608.863 -4.61507 1.28639 0
M  V30 6247 H 607.227 -2.47768 0.590172 0
M  V30 6248 H 608.01 -2.58584 2.25808 0
M  V30 6249 N 610.455 -0.639598 -1.44038 0
M  V30 6250 C 611.683 -0.154811 -2.0632 0
M  V30 6251 C 612.098 1.17406 -1.47856 0
M  V30 6252 O 611.455 1.72193 -0.604638 0
M  V30 6253 C 611.506 -0.0429958 -3.61474 0
M  V30 6254 O 611.227 -1.31932 -4.17763 0
M  V30 6255 C 612.728 0.469486 -4.40807 0
M  V30 6256 H 609.948 -0.0835862 -0.665773 0
M  V30 6257 H 612.492 -0.876397 -1.84769 0
M  V30 6258 H 610.647 0.629075 -3.82258 0
M  V30 6259 H 611.061 -1.16965 -5.11292 0
M  V30 6260 H 612.535 0.496712 -5.49761 0
M  V30 6261 H 613.012 1.49819 -4.12857 0
M  V30 6262 H 613.618 -0.169624 -4.24962 0
M  V30 6263 N 611.933 1.52934 -0.380664 0
M  V30 6264 C 613.21 1.93845 0.261417 0
M  V30 6265 C 613.59 1.31544 1.65104 0
M  V30 6266 O 612.938 0.480234 2.23397 0
M  V30 6267 C 613.148 3.47739 0.296466 0
M  V30 6268 C 614.496 4.21284 0.529578 0
M  V30 6269 O 615.52 3.54199 0.377041 0
M  V30 6270 O 614.379 5.40195 0.827753 0
M  V30 6271 H 611.473 0.811318 0.160285 0
M  V30 6272 H 614.019 1.64042 -0.434544 0
M  V30 6273 H 612.791 3.85395 -0.67724 0
M  V30 6274 H 612.414 3.8382 1.0377 0
M  V30 6275 N 613.412 0.11024 1.57214 0
M  V30 6276 C 614.658 -0.550684 1.9518 0
M  V30 6277 C 614.991 -1.66885 0.993122 0
M  V30 6278 O 614.266 -1.94479 0.0287907 0
M  V30 6279 C 614.549 -1.09163 3.43155 0
M  V30 6280 C 614.402 0.0225198 4.49794 0
M  V30 6281 C 615.721 -1.98527 3.92778 0
M  V30 6282 H 612.84 -0.198706 0.709708 0
M  V30 6283 H 615.482 0.184024 1.89107 0
M  V30 6284 H 613.632 -1.71775 3.48462 0
M  V30 6285 H 615.304 0.657443 4.56591 0
M  V30 6286 H 613.547 0.686868 4.28328 0
M  V30 6287 H 614.218 -0.39706 5.5057 0
M  V30 6288 H 616.694 -1.458 3.8972 0
M  V30 6289 H 615.57 -2.33298 4.96853 0
M  V30 6290 H 615.831 -2.90846 3.32958 0
M  V30 6291 N 614.89 -1.56749 -0.16351 0
M  V30 6292 C 616.167 -1.73321 -0.906599 0
M  V30 6293 C 616.547 -0.673779 -2.00059 0
M  V30 6294 O 615.895 0.310121 -2.26386 0
M  V30 6295 C 616.105 -3.168 -1.46419 0
M  V30 6296 C 617.453 -3.77993 -1.93407 0
M  V30 6297 O 618.477 -3.20127 -1.56196 0
M  V30 6298 O 617.336 -4.79615 -2.61976 0
M  V30 6299 H 614.43 -0.708073 -0.427272 0
M  V30 6300 H 616.976 -1.69029 -0.150727 0
M  V30 6301 H 615.748 -3.85396 -0.677189 0
M  V30 6302 H 615.371 -3.2545 -2.28403 0
M  V30 6303 N 616.368 0.432326 -1.51554 0
M  V30 6304 C 617.3 1.54357 -1.6943 0
M  V30 6305 C 618.313 1.52311 -0.574897 0
M  V30 6306 O 619.502 1.56997 -0.849369 0
M  V30 6307 C 616.602 2.93273 -1.69836 0
M  V30 6308 C 615.775 3.19768 -2.98442 0
M  V30 6309 C 614.834 4.38433 -2.90969 0
M  V30 6310 O 613.86 4.36842 -3.64908 0
M  V30 6311 N 615.062 5.42276 -2.07163 0
M  V30 6312 H 617.827 1.39426 -2.65293 0
M  V30 6313 H 615.388 0.621331 -1.49503 0
M  V30 6314 H 617.38 3.70687 -1.62399 0
M  V30 6315 H 615.95 3.01777 -0.815456 0
M  V30 6316 H 615.17 2.30607 -3.19709 0
M  V30 6317 H 616.458 3.343 -3.83563 0
M  V30 6318 H 615.856 5.46407 -1.46477 0
M  V30 6319 H 614.413 6.18524 -2.05601 0
M  V30 6320 N 617.846 1.41785 0.688094 0
M  V30 6321 C 618.793 1.44221 1.80191 0
M  V30 6322 C 619.763 0.295688 1.63447 0
M  V30 6323 O 620.948 0.49783 1.84191 0
M  V30 6324 C 618.088 1.33743 3.1813 0
M  V30 6325 C 617.201 2.58325 3.46254 0
M  V30 6326 C 616.336 2.40086 4.73848 0
M  V30 6327 C 615.375 3.60107 4.94964 0
M  V30 6328 N 614.512 3.40892 6.13789 0
M  V30 6329 H 619.352 2.39411 1.77444 0
M  V30 6330 H 616.889 1.18876 0.866423 0
M  V30 6331 H 618.847 1.25669 3.97823 0
M  V30 6332 H 617.477 0.42157 3.20035 0
M  V30 6333 H 616.529 2.7682 2.60912 0
M  V30 6334 H 617.841 3.4758 3.57756 0
M  V30 6335 H 616.995 2.29522 5.61609 0
M  V30 6336 H 615.734 1.483 4.64606 0
M  V30 6337 H 614.739 3.71118 4.05649 0
M  V30 6338 H 615.964 4.52857 5.06061 0
M  V30 6339 H 613.91 2.51812 6.05745 0
M  V30 6340 H 613.827 4.23727 6.26092 0
M  V30 6341 H 615.095 3.34114 7.04264 0
M  V30 6342 N 619.324 -0.923095 1.27737 0
M  V30 6343 C 620.57 -1.67375 1.14514 0
M  V30 6344 C 620.903 -1.91751 -0.307424 0
M  V30 6345 O 620.178 -1.51119 -1.22447 0
M  V30 6346 C 620.461 -3.03745 1.9342 0
M  V30 6347 C 620.314 -2.86581 3.46686 0
M  V30 6348 C 621.633 -4.04144 1.74228 0
M  V30 6349 H 618.752 -0.607427 0.417374 0
M  V30 6350 H 621.394 -1.07089 1.56946 0
M  V30 6351 H 619.544 -3.55204 1.5736 0
M  V30 6352 H 621.216 -2.42203 3.92601 0
M  V30 6353 H 619.459 -2.21829 3.72793 0
M  V30 6354 H 620.13 -3.83381 3.97143 0
M  V30 6355 H 622.606 -3.61712 2.05678 0
M  V30 6356 H 621.482 -4.97543 2.31824 0
M  V30 6357 H 621.743 -4.36661 0.691373 0
M  V30 6358 N 620.802 -1.09834 -1.13024 0
M  V30 6359 C 622.079 -0.749225 -1.80682 0
M  V30 6360 C 622.459 0.765171 -1.96744 0
M  V30 6361 O 621.807 1.68912 -1.53886 0
M  V30 6362 C 622.017 -1.49311 -3.15448 0
M  V30 6363 C 623.365 -1.66162 -3.90737 0
M  V30 6364 O 624.389 -1.45597 -3.25085 0
M  V30 6365 O 623.248 -2.00211 -5.08505 0
M  V30 6366 H 620.342 -0.269614 -0.781817 0
M  V30 6367 H 622.888 -1.20078 -1.19914 0
M  V30 6368 H 621.66 -2.52407 -2.99009 0
M  V30 6369 H 621.283 -1.034 -3.8392 0
M  V30 6370 N 622.28 1.30327 -0.886154 0
M  V30 6371 C 623.212 2.27079 -0.311072 0
M  V30 6372 C 624.225 1.53758 0.53502 0
M  V30 6373 O 625.414 1.74947 0.354378 0
M  V30 6374 C 622.514 3.33965 0.576228 0
M  V30 6375 C 621.687 4.36735 -0.241064 0
M  V30 6376 C 620.746 5.23028 0.576916 0
M  V30 6377 O 619.772 5.692 -0.000802231 0
M  V30 6378 N 620.974 5.49016 1.88579 0
M  V30 6379 H 623.739 2.77065 -1.14259 0
M  V30 6380 H 621.3 1.43519 -0.749258 0
M  V30 6381 H 623.292 3.88618 1.12953 0
M  V30 6382 H 621.862 2.839 1.30842 0
M  V30 6383 H 621.082 3.81932 -0.975805 0
M  V30 6384 H 622.37 5.02451 -0.801272 0
M  V30 6385 H 621.768 5.13288 2.37806 0
M  V30 6386 H 620.325 6.06539 2.38651 0
M  V30 6387 N 623.758 0.647228 1.43697 0
M  V30 6388 C 625.004 0.158422 2.0218 0
M  V30 6389 C 625.337 -1.22233 1.50907 0
M  V30 6390 O 624.612 -1.81478 0.699702 0
M  V30 6391 C 624.895 0.1627 3.59732 0
M  V30 6392 C 624.748 1.57694 4.21251 0
M  V30 6393 C 626.067 -0.504138 4.37203 0
M  V30 6394 H 623.186 0.059042 0.734631 0
M  V30 6395 H 625.828 0.826772 1.71069 0
M  V30 6396 H 623.978 -0.406414 3.86368 0
M  V30 6397 H 625.65 2.19618 4.05667 0
M  V30 6398 H 623.893 2.12603 3.7813 0
M  V30 6399 H 624.564 1.53183 5.3032 0
M  V30 6400 H 627.04 -0.0199841 4.16095 0
M  V30 6401 H 625.916 -0.470394 5.46881 0
M  V30 6402 H 626.177 -1.57726 4.13007 0
M  V30 6403 N 625.236 -1.5273 0.388769 0
M  V30 6404 C 626.199 -2.25043 -0.434544 0
M  V30 6405 C 627.199 -1.26661 -0.990644 0
M  V30 6406 O 628.389 -1.50762 -0.872731 0
M  V30 6407 C 625.521 -3.00507 -1.60961 0
M  V30 6408 H 626.714 -2.99242 0.198549 0
M  V30 6409 H 624.267 -1.55664 0.140875 0
M  V30 6410 H 625.002 -2.30607 -2.28015 0
M  V30 6411 H 624.787 -3.72716 -1.21757 0
M  V30 6412 H 626.277 -3.55413 -2.19251 0
M  V30 6413 N 626.714 -0.118576 -1.57153 0
M  V30 6414 C 628.13 0.238014 -1.57815 0
M  V30 6415 C 628.33 1.66747 -1.13127 0
M  V30 6416 O 627.386 2.38867 -0.818462 0
M  V30 6417 C 628.699 0.00508207 -3.007 0
M  V30 6418 C 630.247 0.0710139 -3.12919 0
M  V30 6419 C 630.722 -0.13422 -4.57803 0
M  V30 6420 N 632.213 -0.0801755 -4.63131 0
M  V30 6421 C 632.948 -0.213885 -5.73001 0
M  V30 6422 N 632.444 -0.403742 -6.91623 0
M  V30 6423 N 634.237 -0.15349 -5.6189 0
M  V30 6424 H 626.388 -1.05226 -1.84503 0
M  V30 6425 H 628.651 -0.414318 -0.852669 0
M  V30 6426 H 628.357 -0.983125 -3.3768 0
M  V30 6427 H 628.231 0.73714 -3.69927 0
M  V30 6428 H 630.618 1.04975 -2.75798 0
M  V30 6429 H 630.699 -0.692918 -2.46236 0
M  V30 6430 H 630.343 -1.10992 -4.95624 0
M  V30 6431 H 630.273 0.649692 -5.22577 0
M  V30 6432 H 632.764 0.0630689 -3.77847 0
M  V30 6433 H 633.077 -0.496645 -7.71202 0
M  V30 6434 H 631.422 -0.43971 -6.93608 0
M  V30 6435 H 634.613 -0.00613174 -4.681 0
M  V30 6436 H 634.786 -0.261138 -6.47474 0
M  V30 6437 N 628.193 1.56834 0.155195 0
M  V30 6438 C 629.125 1.94235 1.21677 0
M  V30 6439 C 630.138 0.83724 1.39621 0
M  V30 6440 O 631.327 1.11567 1.39338 0
M  V30 6441 C 628.427 2.19402 2.58294 0
M  V30 6442 C 627.6 3.50671 2.61436 0
M  V30 6443 C 626.659 3.64475 3.79532 0
M  V30 6444 O 625.685 4.36945 3.64784 0
M  V30 6445 N 626.887 3.00526 4.96653 0
M  V30 6446 H 629.652 2.85901 0.898932 0
M  V30 6447 H 627.213 1.58185 0.34483 0
M  V30 6448 H 629.205 2.25886 3.35794 0
M  V30 6449 H 627.775 1.34042 2.82403 0
M  V30 6450 H 626.995 3.55702 1.69912 0
M  V30 6451 H 628.283 4.3702 2.60559 0
M  V30 6452 H 627.681 2.41549 5.11538 0
M  V30 6453 H 626.238 3.12583 5.71958 0
M  V30 6454 N 629.671 -0.424282 1.51781 0
M  V30 6455 C 630.919 -1.17028 1.64769 0
M  V30 6456 C 631.24 -1.91409 0.372523 0
M  V30 6457 O 630.51 -1.86091 -0.612108 0
M  V30 6458 H 629.09 -0.434992 0.607282 0
M  V30 6459 H 631.752 -0.485169 1.88765 0
M  V30 6460 H 630.848 -1.8927 2.4816 0
M  V30 6461 N 631.149 -1.42148 -0.680565 0
M  V30 6462 C 632.112 -1.4488 -1.77602 0
M  V30 6463 C 633.112 -0.337209 -1.57224 0
M  V30 6464 O 634.302 -0.597778 -1.63622 0
M  V30 6465 C 631.434 -1.27483 -3.16166 0
M  V30 6466 H 632.627 -2.42412 -1.76568 0
M  V30 6467 H 630.18 -1.28511 -0.889645 0
M  V30 6468 H 630.915 -0.30851 -3.22829 0
M  V30 6469 H 630.7 -2.08037 -3.3236 0
M  V30 6470 H 632.19 -1.32265 -3.96101 0
M  V30 6471 N 632.627 0.916307 -1.28225 0
M  V30 6472 C 633.855 1.69901 -1.18073 0
M  V30 6473 C 634.27 1.86988 0.260968 0
M  V30 6474 O 633.627 1.39505 1.17663 0
M  V30 6475 C 633.678 3.09254 -1.87201 0
M  V30 6476 O 633.399 2.92959 -3.2574 0
M  V30 6477 C 634.9 4.0362 -1.83319 0
M  V30 6478 H 632.12 0.531181 -0.409985 0
M  V30 6479 H 634.664 1.14703 -1.69303 0
M  V30 6480 H 632.819 3.61277 -1.39848 0
M  V30 6481 H 633.233 3.81139 -3.60324 0
M  V30 6482 H 634.707 4.98873 -2.36282 0
M  V30 6483 H 635.184 4.3176 -0.805007 0
M  V30 6484 H 635.79 3.57524 -2.3034 0
M  V30 6485 N 634.105 1.10431 1.1244 0
M  V30 6486 C 635.516 0.864439 1.65482 0
M  V30 6487 C 635.867 -0.60527 1.8663 0
M  V30 6488 O 634.992 -1.46492 1.59276 0
M  V30 6489 C 635.587 1.56267 3.0061 0
M  V30 6490 C 634.146 1.3695 3.50602 0
M  V30 6491 C 633.293 1.61209 2.25626 0
M  V30 6492 H 636.244 1.26203 0.962209 0
M  V30 6493 H 636.265 1.00166 3.67079 0
M  V30 6494 H 635.777 2.63231 2.85186 0
M  V30 6495 H 633.878 0.321481 3.71211 0
M  V30 6496 H 633.991 2.11143 4.30064 0
M  V30 6497 H 632.355 1.03482 2.32731 0
M  V30 6498 H 633.138 2.69425 2.12756 0
M  V30 6499 N 635.583 -1.29855 0.893053 0
M  V30 6500 C 636.513 -2.3035 0.382249 0
M  V30 6501 C 637.494 -1.61328 -0.539203 0
M  V30 6502 O 638.679 -1.88882 -0.451342 0
M  V30 6503 C 635.809 -3.45024 -0.396983 0
M  V30 6504 C 634.763 -4.258 0.433437 0
M  V30 6505 C 634.089 -5.32605 -0.472889 0
M  V30 6506 C 635.389 -4.94549 1.67984 0
M  V30 6507 H 637.083 -2.73325 1.22205 0
M  V30 6508 H 634.629 -1.314 0.589073 0
M  V30 6509 H 636.582 -4.14398 -0.765024 0
M  V30 6510 H 635.306 -3.00875 -1.2705 0
M  V30 6511 H 633.965 -3.58125 0.783723 0
M  V30 6512 H 633.613 -4.84702 -1.34435 0
M  V30 6513 H 633.313 -5.87547 0.0789958 0
M  V30 6514 H 634.837 -6.04832 -0.837269 0
M  V30 6515 H 636.251 -5.56395 1.38192 0
M  V30 6516 H 634.648 -5.59393 2.17254 0
M  V30 6517 H 635.718 -4.20215 2.41965 0
M  V30 6518 N 637.061 -0.65484 -1.43351 0
M  V30 6519 C 638.307 -0.169142 -2.02093 0
M  V30 6520 C 638.64 1.21431 -1.51553 0
M  V30 6521 O 637.915 1.81105 -0.709317 0
M  V30 6522 C 638.198 -0.181775 -3.59641 0
M  V30 6523 C 638.051 -1.59926 -4.20409 0
M  V30 6524 C 639.37 0.480945 -4.37464 0
M  V30 6525 H 636.489 -0.0629371 -0.734308 0
M  V30 6526 H 639.131 -0.835833 -1.70628 0
M  V30 6527 H 637.281 0.385918 -3.86578 0
M  V30 6528 H 638.953 -2.21766 -4.04497 0
M  V30 6529 H 637.196 -2.14605 -3.76998 0
M  V30 6530 H 637.867 -1.55994 -5.295 0
M  V30 6531 H 640.343 -0.00208273 -4.161 0
M  V30 6532 H 639.219 0.441384 -5.47122 0
M  V30 6533 H 639.48 1.55533 -4.13838 0
M  V30 6534 N 638.539 1.52521 -0.396863 0
M  V30 6535 C 639.785 2.01971 0.183169 0
M  V30 6536 C 640.118 1.2825 1.45827 0
M  V30 6537 O 639.393 0.385179 1.90648 0
M  V30 6538 C 639.676 3.5736 0.443391 0
M  V30 6539 C 639.529 4.41743 -0.84753 0
M  V30 6540 C 640.848 4.22539 1.2308 0
M  V30 6541 H 637.967 0.734119 0.0650976 0
M  V30 6542 H 640.609 1.82519 -0.527918 0
M  V30 6543 H 638.759 3.74066 1.04914 0
M  V30 6544 H 640.431 4.36773 -1.48414 0
M  V30 6545 H 638.674 4.0845 -1.4612 0
M  V30 6546 H 639.345 5.48507 -0.620003 0
M  V30 6547 H 641.821 4.09857 0.718084 0
M  V30 6548 H 640.697 5.31227 1.38162 0
M  V30 6549 H 640.958 3.80675 2.24808 0
M  V30 6550 N 640.017 0.126909 1.57088 0
M  V30 6551 C 641.263 -0.529952 1.95753 0
M  V30 6552 C 641.596 -1.65823 1.01077 0
M  V30 6553 O 640.871 -1.94437 0.0494162 0
M  V30 6554 C 641.154 -1.05517 3.44294 0
M  V30 6555 C 641.007 0.0702253 4.49745 0
M  V30 6556 C 642.326 -1.9435 3.94862 0
M  V30 6557 H 639.445 -0.191168 0.711775 0
M  V30 6558 H 642.087 0.204071 1.88901 0
M  V30 6559 H 640.237 -1.68069 3.50264 0
M  V30 6560 H 641.909 0.705834 4.55868 0
M  V30 6561 H 640.152 0.732259 4.27575 0
M  V30 6562 H 640.823 -0.338642 5.5096 0
M  V30 6563 H 643.299 -1.41658 3.91244 0
M  V30 6564 H 642.175 -2.28015 4.993 0
M  V30 6565 H 642.436 -2.87299 3.36024 0
M  V30 6566 N 641.495 -1.56914 -0.146875 0
M  V30 6567 C 642.405 -2.0154 -1.20079 0
M  V30 6568 C 643.421 -0.930838 -1.47008 0
M  V30 6569 O 644.597 -1.24032 -1.58676 0
M  V30 6570 C 641.662 -2.38715 -2.51428 0
M  V30 6571 C 640.723 -3.6112 -2.32145 0
M  V30 6572 C 639.956 -3.96512 -3.57231 0
M  V30 6573 O 640.179 -3.32566 -4.63418 0
M  V30 6574 O 639.113 -4.89758 -3.49887 0
M  V30 6575 H 642.939 -2.91506 -0.851924 0
M  V30 6576 H 640.524 -1.45106 -0.355607 0
M  V30 6577 H 642.406 -2.63485 -3.28867 0
M  V30 6578 H 641.081 -1.51903 -2.85845 0
M  V30 6579 H 639.988 -3.41536 -1.52656 0
M  V30 6580 H 641.321 -4.48549 -2.02644 0
M  V30 6581 N 642.974 0.416227 -1.52004 0
M  V30 6582 C 644.222 1.16153 -1.65387 0
M  V30 6583 C 644.543 1.91208 -0.382669 0
M  V30 6584 O 643.813 1.86413 0.602231 0
M  V30 6585 H 642.393 0.431765 -0.60958 0
M  V30 6586 H 645.055 0.475151 -1.89019 0
M  V30 6587 H 644.151 1.87952 -2.4916 0
M  V30 6588 N 644.452 1.42507 0.673017 0
M  V30 6589 C 645.677 1.4668 1.46627 0
M  V30 6590 C 646.102 0.080066 1.8793 0
M  V30 6591 O 645.46 -0.921879 1.56112 0
M  V30 6592 C 645.508 2.40091 2.69051 0
M  V30 6593 O 644.612 1.8735 3.67387 0
M  V30 6594 H 643.953 0.496908 0.44043 0
M  V30 6595 H 646.483 1.87215 0.825334 0
M  V30 6596 H 646.493 2.56731 3.17101 0
M  V30 6597 H 645.168 3.4084 2.3833 0
M  V30 6598 H 643.745 1.80274 3.26429 0
M  V30 6599 N 645.93 -0.909495 1.28709 0
M  V30 6600 C 647.346 -1.18862 1.06508 0
M  V30 6601 C 647.546 -2.00604 -0.189864 0
M  V30 6602 O 646.602 -2.36281 -0.890355 0
M  V30 6603 C 647.915 -1.91908 2.31499 0
M  V30 6604 C 649.463 -2.04773 2.36721 0
M  V30 6605 C 649.938 -2.81228 3.6149 0
M  V30 6606 N 651.429 -2.88787 3.62155 0
M  V30 6607 C 652.164 -3.48455 4.55375 0
M  V30 6608 N 651.66 -4.09369 5.58918 0
M  V30 6609 N 653.453 -3.46035 4.42963 0
M  V30 6610 H 645.604 -0.363867 2.0926 0
M  V30 6611 H 647.867 -0.223649 0.921241 0
M  V30 6612 H 647.573 -1.39275 3.22948 0
M  V30 6613 H 647.447 -2.92436 2.38245 0
M  V30 6614 H 649.834 -2.56585 1.45767 0
M  V30 6615 H 649.915 -1.03408 2.33967 0
M  V30 6616 H 649.559 -2.30094 4.5279 0
M  V30 6617 H 649.489 -3.82917 3.61499 0
M  V30 6618 H 651.98 -2.45514 2.87283 0
M  V30 6619 H 652.293 -4.52891 6.26187 0
M  V30 6620 H 650.638 -4.0786 5.62739 0
M  V30 6621 H 653.829 -2.9766 3.6127 0
M  V30 6622 H 654.002 -3.92244 5.15799 0
M  V30 6623 N 647.408 -1.11026 -1.11852 0
M  V30 6624 C 648.654 -0.857729 -1.83768 0
M  V30 6625 C 648.987 0.615143 -1.842 0
M  V30 6626 O 648.262 1.45391 -1.29196 0
M  V30 6627 C 648.545 -1.41453 -3.31154 0
M  V30 6628 C 648.398 -2.95471 -3.39142 0
M  V30 6629 C 649.717 -1.0619 -4.27097 0
M  V30 6630 H 646.836 -0.313044 -0.667212 0
M  V30 6631 H 649.478 -1.37443 -1.31185 0
M  V30 6632 H 647.628 -0.975052 -3.76065 0
M  V30 6633 H 649.3 -3.4799 -3.02821 0
M  V30 6634 H 647.543 -3.31759 -2.79497 0
M  V30 6635 H 648.214 -3.29515 -4.42859 0
M  V30 6636 H 650.69 -1.44122 -3.90344 0
M  V30 6637 H 649.566 -1.47832 -5.28618 0
M  V30 6638 H 649.827 0.0278912 -4.42091 0
M  V30 6639 N 648.886 1.2938 -0.899927 0
M  V30 6640 C 649.816 2.30144 -0.39446 0
M  V30 6641 C 650.797 1.61611 0.530639 0
M  V30 6642 O 651.982 1.89119 0.441319 0
M  V30 6643 C 649.112 3.45229 0.37868 0
M  V30 6644 C 648.066 4.25564 -0.456012 0
M  V30 6645 C 647.392 5.32848 0.444637 0
M  V30 6646 C 648.692 4.93651 -1.70605 0
M  V30 6647 H 650.386 2.72673 -1.23653 0
M  V30 6648 H 647.932 1.31086 -0.596034 0
M  V30 6649 H 649.885 4.14797 0.743037 0
M  V30 6650 H 648.609 3.01545 1.25453 0
M  V30 6651 H 647.268 3.57704 -0.802704 0
M  V30 6652 H 646.916 4.85408 1.31863 0
M  V30 6653 H 646.616 5.87497 -0.110154 0
M  V30 6654 H 648.14 6.05268 0.805182 0
M  V30 6655 H 649.554 5.55655 -1.41141 0
M  V30 6656 H 647.951 5.58233 -2.20217 0
M  V30 6657 H 649.021 4.18926 -2.4419 0
M  V30 6658 N 650.364 0.662433 1.43002 0
M  V30 6659 C 651.612 0.179237 2.01304 0
M  V30 6660 C 651.933 -1.21428 1.52579 0
M  V30 6661 O 651.203 -1.81294 0.742252 0
M  V30 6662 H 649.783 0.0632725 0.744316 0
M  V30 6663 H 652.445 0.856169 1.75088 0
M  V30 6664 H 651.541 0.170957 3.11631 0
M  V30 6665 N 651.842 -1.52309 0.404946 0
M  V30 6666 C 653.088 -2.02065 -0.172455 0
M  V30 6667 C 653.421 -1.29022 -1.45145 0
M  V30 6668 O 652.696 -0.395284 -1.90441 0
M  V30 6669 C 652.979 -3.5759 -0.424433 0
M  V30 6670 C 652.832 -4.41287 0.870945 0
M  V30 6671 C 654.151 -4.23186 -1.20837 0
M  V30 6672 H 651.27 -0.734454 -0.0612035 0
M  V30 6673 H 653.912 -1.82236 0.53759 0
M  V30 6674 H 652.062 -3.74617 -1.02929 0
M  V30 6675 H 653.734 -4.3598 1.50729 0
M  V30 6676 H 651.977 -4.07669 1.48284 0
M  V30 6677 H 652.648 -5.48171 0.649083 0
M  V30 6678 H 655.124 -4.10232 -0.696338 0
M  V30 6679 H 654 -5.31953 -1.35343 0
M  V30 6680 H 654.261 -3.81862 -2.22786 0
M  V30 6681 N 653.32 -0.135238 -1.57019 0
M  V30 6682 C 654.569 0.518694 -1.94917 0
M  V30 6683 C 654.882 1.66783 -1.0219 0
M  V30 6684 O 656.088 2.38561 -1.29619 0
M  V30 6685 C 654.544 0.974123 -3.46466 0
M  V30 6686 C 654.152 -0.147439 -4.47757 0
M  V30 6687 C 655.896 1.59851 -3.93253 0
M  V30 6688 C 653.803 0.325599 -5.90503 0
M  V30 6689 H 652.733 0.19754 -0.727663 0
M  V30 6690 H 655.384 -0.217698 -1.82204 0
M  V30 6691 H 653.766 1.76542 -3.5447 0
M  V30 6692 H 654.94 -0.924122 -4.51438 0
M  V30 6693 H 653.255 -0.679496 -4.10818 0
M  V30 6694 H 655.852 1.96385 -4.9733 0
M  V30 6695 H 656.195 2.48306 -3.3414 0
M  V30 6696 H 656.728 0.872323 -3.88118 0
M  V30 6697 H 653.467 -0.523295 -6.53408 0
M  V30 6698 H 652.987 1.06841 -5.90208 0
M  V30 6699 H 654.666 0.781498 -6.42263 0
M  V30 6700 N 654.798 1.5699 0.138552 0
M  V30 6701 C 655.761 1.97984 1.15478 0
M  V30 6702 C 656.761 0.867416 1.35398 0
M  V30 6703 O 657.951 1.13387 1.32246 0
M  V30 6704 C 655.083 2.3031 2.51337 0
M  V30 6705 H 656.276 2.88953 0.802896 0
M  V30 6706 H 653.829 1.51555 0.382189 0
M  V30 6707 H 654.564 1.42159 2.91481 0
M  V30 6708 H 654.349 3.11425 2.38237 0
M  V30 6709 H 655.839 2.62834 3.24512 0
M  V30 6710 N 656.276 -0.40816 1.52223 0
M  V30 6711 C 657.206 -1.5042 1.78595 0
M  V30 6712 C 658.187 -1.57723 0.636974 0
M  V30 6713 O 659.372 -1.72982 0.882664 0
M  V30 6714 C 656.502 -2.88232 1.93751 0
M  V30 6715 C 655.456 -2.95779 3.09352 0
M  V30 6716 C 654.782 -4.35855 3.09732 0
M  V30 6717 C 656.082 -2.67175 4.48793 0
M  V30 6718 H 657.776 -1.28601 2.70374 0
M  V30 6719 H 655.322 -0.617221 1.30101 0
M  V30 6720 H 657.275 -3.64895 2.10783 0
M  V30 6721 H 655.999 -3.11347 0.986443 0
M  V30 6722 H 654.658 -2.21561 2.92072 0
M  V30 6723 H 654.306 -4.55981 2.12346 0
M  V30 6724 H 654.006 -4.41829 3.87377 0
M  V30 6725 H 655.53 -5.14451 3.28895 0
M  V30 6726 H 656.944 -3.3356 4.66273 0
M  V30 6727 H 655.341 -2.84523 5.28362 0
M  V30 6728 H 656.411 -1.62609 4.56822 0
M  V30 6729 N 657.755 -1.42862 -0.66545 0
M  V30 6730 C 658.702 -1.4707 -1.77874 0
M  V30 6731 C 659.672 -0.321654 -1.62956 0
M  V30 6732 O 660.857 -0.52707 -1.83376 0
M  V30 6733 C 657.997 -1.38788 -3.15962 0
M  V30 6734 C 657.11 -2.63801 -3.42101 0
M  V30 6735 C 656.245 -2.47594 -4.69969 0
M  V30 6736 C 655.284 -3.67936 -4.89172 0
M  V30 6737 N 654.421 -3.50614 -6.08288 0
M  V30 6738 H 659.261 -2.42204 -1.73613 0
M  V30 6739 H 656.798 -1.20239 -0.847401 0
M  V30 6740 H 658.756 -1.31982 -3.95773 0
M  V30 6741 H 657.386 -0.472431 -3.19324 0
M  V30 6742 H 656.438 -2.80935 -2.56475 0
M  V30 6743 H 657.75 -3.53228 -3.52181 0
M  V30 6744 H 656.904 -2.38427 -5.57886 0
M  V30 6745 H 655.643 -1.55672 -4.62188 0
M  V30 6746 H 654.648 -3.77525 -3.99694 0
M  V30 6747 H 655.873 -4.60851 -4.98792 0
M  V30 6748 H 653.819 -2.61417 -6.01662 0
M  V30 6749 H 653.736 -4.33634 -6.19272 0
M  V30 6750 H 655.004 -3.45276 -6.98859 0
M  V30 6751 N 659.233 0.902656 -1.29189 0
M  V30 6752 C 660.51 1.63296 -1.07674 0
M  V30 6753 C 660.89 2.07649 0.380137 0
M  V30 6754 O 660.238 1.82997 1.36837 0
M  V30 6755 C 660.448 2.81603 -2.06158 0
M  V30 6756 C 661.796 3.52359 -2.36914 0
M  V30 6757 O 662.82 2.91767 -2.04329 0
M  V30 6758 O 661.679 4.61586 -2.92576 0
M  V30 6759 H 658.773 0.716889 -0.41231 0
M  V30 6760 H 661.319 0.950984 -1.4055 0
M  V30 6761 H 660.091 2.46004 -3.04299 0
M  V30 6762 H 659.714 3.57508 -1.73993 0
M  V30 6763 N 660.711 1.11618 1.11262 0
M  V30 6764 C 661.96 0.860934 1.82403 0
M  V30 6765 C 662.273 -0.615303 1.8567 0
M  V30 6766 O 663.479 -0.986861 2.52929 0
M  V30 6767 C 661.935 1.49048 3.27586 0
M  V30 6768 C 661.543 3.00089 3.32642 0
M  V30 6769 C 663.287 1.31515 4.03614 0
M  V30 6770 C 661.194 3.56019 4.72234 0
M  V30 6771 H 660.124 0.318423 0.683464 0
M  V30 6772 H 662.775 1.34165 1.25188 0
M  V30 6773 H 661.157 0.937434 3.84744 0
M  V30 6774 H 662.331 3.61813 2.85356 0
M  V30 6775 H 660.646 3.16919 2.70096 0
M  V30 6776 H 663.243 1.70732 5.0671 0
M  V30 6777 H 663.586 0.257917 4.155 0
M  V30 6778 H 664.119 1.83694 3.52848 0
M  V30 6779 H 660.858 4.61463 4.65545 0
M  V30 6780 H 660.378 2.99066 5.19923 0
M  V30 6781 H 662.057 3.54568 5.41193 0
M  V30 6782 N 662.189 -1.289 0.906776 0
M  V30 6783 C 663.435 -1.95558 0.53712 0
M  V30 6784 C 663.768 -1.71262 -0.915582 0
M  V30 6785 O 663.043 -1.02961 -1.65013 0
M  V30 6786 C 663.326 -3.50198 0.838645 0
M  V30 6787 C 663.179 -3.83923 2.34357 0
M  V30 6788 C 664.498 -4.38861 0.329988 0
M  V30 6789 H 661.617 -0.710289 0.196617 0
M  V30 6790 H 664.259 -1.52392 1.13475 0
M  V30 6791 H 662.409 -3.87096 0.330024 0
M  V30 6792 H 664.081 -3.56933 2.92227 0
M  V30 6793 H 662.324 -3.31215 2.80141 0
M  V30 6794 H 662.995 -4.91883 2.5051 0
M  V30 6795 H 665.471 -4.08996 0.765609 0
M  V30 6796 H 664.347 -5.45931 0.570105 0
M  V30 6797 H 664.608 -4.35352 -0.769511 0
M  V30 6798 N 663.667 -0.670007 -1.42649 0
M  V30 6799 C 664.614 0.0112928 -2.30797 0
M  V30 6800 C 665.584 0.797627 -1.45695 0
M  V30 6801 O 666.769 0.770845 -1.74535 0
M  V30 6802 C 663.909 0.95998 -3.31479 0
M  V30 6803 C 663.022 0.167975 -4.31673 0
M  V30 6804 C 662.157 1.11198 -5.19431 0
M  V30 6805 C 661.196 0.311381 -6.11307 0
M  V30 6806 N 660.333 1.20784 -6.91633 0
M  V30 6807 H 665.173 -0.746231 -2.88505 0
M  V30 6808 H 662.71 -0.379739 -1.42114 0
M  V30 6809 H 664.668 1.52379 -3.88377 0
M  V30 6810 H 663.298 1.68419 -2.75382 0
M  V30 6811 H 662.35 -0.512385 -3.76933 0
M  V30 6812 H 663.662 -0.453814 -4.96731 0
M  V30 6813 H 662.816 1.74587 -5.81037 0
M  V30 6814 H 661.555 1.76766 -4.54538 0
M  V30 6815 H 660.56 -0.335758 -5.48774 0
M  V30 6816 H 661.785 -0.340135 -6.78248 0
M  V30 6817 H 659.731 1.85001 -6.29373 0
M  V30 6818 H 659.648 0.64102 -7.53277 0
M  V30 6819 H 660.916 1.82936 -7.5773 0
M  V30 6820 N 665.145 1.52092 -0.413018 0
M  V30 6821 C 666.393 2.01456 0.161178 0
M  V30 6822 C 666.714 1.30034 1.45314 0
M  V30 6823 O 665.984 0.427435 1.9118 0
M  V30 6824 H 664.564 0.744376 0.0625526 0
M  V30 6825 H 667.226 1.86974 -0.550151 0
M  V30 6826 H 666.322 3.1008 0.354517 0
M  V30 6827 N 666.623 0.143563 1.56945 0
M  V30 6828 C 667.871 -0.507402 1.95627 0
M  V30 6829 C 668.192 -1.65626 1.02922 0
M  V30 6830 O 667.462 -1.95693 0.0901136 0
M  V30 6831 H 666.042 -0.190436 0.722318 0
M  V30 6832 H 668.704 0.218257 1.93674 0
M  V30 6833 H 667.8 -0.885816 2.99265 0
M  V30 6834 N 668.101 -1.57061 -0.130224 0
M  V30 6835 C 669.35 -1.83446 -0.838488 0
M  V30 6836 C 669.663 -0.727468 -1.81569 0
M  V30 6837 O 670.869 -0.877394 -2.56932 0
M  V30 6838 C 669.325 -3.25201 -1.54182 0
M  V30 6839 C 668.933 -4.4388 -0.606178 0
M  V30 6840 C 670.677 -3.60844 -2.23588 0
M  V30 6841 C 668.584 -5.76661 -1.31209 0
M  V30 6842 H 667.514 -0.684185 -0.316871 0
M  V30 6843 H 670.165 -1.83273 -0.0912059 0
M  V30 6844 H 668.547 -3.1981 -2.33533 0
M  V30 6845 H 669.721 -4.60545 0.153308 0
M  V30 6846 H 668.036 -4.16395 -0.0196705 0
M  V30 6847 H 670.633 -4.57313 -2.77072 0
M  V30 6848 H 670.976 -2.87724 -3.00867 0
M  V30 6849 H 671.509 -3.67971 -1.51137 0
M  V30 6850 H 668.248 -6.52922 -0.580823 0
M  V30 6851 H 667.768 -5.63902 -2.04387 0
M  V30 6852 H 669.447 -6.20035 -1.8484 0
M  V30 6853 N 669.579 0.400081 -1.52437 0
M  V30 6854 C 670.526 1.48803 -1.76426 0
M  V30 6855 C 671.496 1.5461 -0.607032 0
M  V30 6856 O 672.681 1.71041 -0.845563 0
M  V30 6857 C 669.821 2.86156 -1.92896 0
M  V30 6858 C 668.934 2.89587 -3.20567 0
M  V30 6859 C 668.069 4.18296 -3.27417 0
M  V30 6860 C 667.108 4.15736 -4.49255 0
M  V30 6861 N 666.245 5.36032 -4.53447 0
M  V30 6862 H 671.085 1.27649 -2.69276 0
M  V30 6863 H 668.622 0.619451 -1.33421 0
M  V30 6864 H 670.58 3.65901 -2.00429 0
M  V30 6865 H 669.21 3.05785 -1.03418 0
M  V30 6866 H 668.262 2.02278 -3.22161 0
M  V30 6867 H 669.574 2.83562 -4.10358 0
M  V30 6868 H 668.728 5.06439 -3.34072 0
M  V30 6869 H 667.467 4.27028 -2.35581 0
M  V30 6870 H 666.472 3.25982 -4.42737 0
M  V30 6871 H 667.697 4.08636 -5.42396 0
M  V30 6872 H 665.643 5.45415 -3.64498 0
M  V30 6873 H 665.56 5.32038 -5.37096 0
M  V30 6874 H 666.828 6.26104 -4.64343 0
M  V30 6875 N 671.057 1.43213 0.657864 0
M  V30 6876 C 671.967 1.50448 1.80007 0
M  V30 6877 C 672.983 0.39191 1.69529 0
M  V30 6878 O 674.159 0.645349 1.90781 0
M  V30 6879 C 671.224 1.42062 3.16258 0
M  V30 6880 C 670.285 2.63951 3.38568 0
M  V30 6881 C 669.518 2.55956 4.68318 0
M  V30 6882 O 669.741 1.60473 5.47361 0
M  V30 6883 O 668.675 3.46378 4.92245 0
M  V30 6884 H 672.501 2.4689 1.76858 0
M  V30 6885 H 670.086 1.25163 0.81576 0
M  V30 6886 H 671.968 1.3981 3.97531 0
M  V30 6887 H 670.643 0.487524 3.20008 0
M  V30 6888 H 669.55 2.71776 2.57077 0
M  V30 6889 H 670.883 3.56217 3.39662 0
M  V30 6890 N 672.536 -0.895792 1.29666 0
M  V30 6891 C 673.952 -1.17726 1.07763 0
M  V30 6892 C 674.152 -2.00794 -0.168576 0
M  V30 6893 O 673.208 -2.37213 -0.865244 0
M  V30 6894 C 674.521 -1.89441 2.33522 0
M  V30 6895 C 676.069 -2.02251 2.3888 0
M  V30 6896 C 676.544 -2.77378 3.64452 0
M  V30 6897 N 678.035 -2.8493 3.65198 0
M  V30 6898 C 678.77 -3.43606 4.59045 0
M  V30 6899 N 678.266 -4.03417 5.63228 0
M  V30 6900 N 680.059 -3.41317 4.46608 0
M  V30 6901 H 672.21 -0.341652 2.09634 0
M  V30 6902 H 674.473 -0.213865 0.923561 0
M  V30 6903 H 674.179 -1.35842 3.24407 0
M  V30 6904 H 674.053 -2.89893 2.41334 0
M  V30 6905 H 676.44 -2.55025 1.4848 0
M  V30 6906 H 676.521 -1.0092 2.3505 0
M  V30 6907 H 676.165 -2.25279 4.55205 0
M  V30 6908 H 676.095 -3.79062 3.65541 0
M  V30 6909 H 678.586 -2.42453 2.89871 0
M  V30 6910 H 678.899 -4.46224 6.30955 0
M  V30 6911 H 677.244 -4.01868 5.67033 0
M  V30 6912 H 680.435 -2.93812 3.64407 0
M  V30 6913 H 680.608 -3.86751 5.1993 0
M  V30 6914 N 674.014 -1.12206 -1.10668 0
M  V30 6915 C 675.261 -0.875875 -1.82578 0
M  V30 6916 C 675.589 0.598342 -1.85068 0
M  V30 6917 O 674.844 1.45818 -1.3052 0
M  V30 6918 C 675.143 -1.39276 -3.29146 0
M  V30 6919 C 674.809 -2.8816 -3.46806 0
M  V30 6920 C 673.471 -3.28813 -3.51334 0
M  V30 6921 C 675.823 -3.8401 -3.52399 0
M  V30 6922 C 673.151 -4.64028 -3.59019 0
M  V30 6923 C 675.503 -5.19053 -3.61617 0
M  V30 6924 C 674.167 -5.59252 -3.64408 0
M  V30 6925 H 673.437 -0.320505 -0.6681 0
M  V30 6926 H 676.084 -1.40184 -1.30464 0
M  V30 6927 H 674.389 -0.787207 -3.8381 0
M  V30 6928 H 676.086 -1.17851 -3.83291 0
M  V30 6929 H 672.676 -2.55716 -3.43958 0
M  V30 6930 H 676.86 -3.53698 -3.48154 0
M  V30 6931 H 672.116 -4.94568 -3.59461 0
M  V30 6932 H 676.29 -5.93152 -3.64889 0
M  V30 6933 H 673.917 -6.64017 -3.70116 0
M  V30 6934 N 675.492 1.28418 -0.913599 0
M  V30 6935 C 676.455 2.25564 -0.406624 0
M  V30 6936 C 677.455 1.5387 0.466965 0
M  V30 6937 O 678.645 1.72094 0.270042 0
M  V30 6938 C 675.777 3.38339 0.417053 0
M  V30 6939 H 676.97 2.71926 -1.26477 0
M  V30 6940 H 674.523 1.40098 -0.692986 0
M  V30 6941 H 675.258 2.97339 1.29461 0
M  V30 6942 H 675.043 3.91542 -0.209102 0
M  V30 6943 H 676.533 4.10578 0.762602 0
M  V30 6944 N 676.97 0.677563 1.42291 0
M  V30 6945 C 677.902 -0.0380218 2.29168 0
M  V30 6946 C 678.915 -0.762714 1.43828 0
M  V30 6947 O 680.104 -0.616413 1.67519 0
M  V30 6948 C 677.204 -1.07761 3.21311 0
M  V30 6949 C 676.377 -0.42618 4.35319 0
M  V30 6950 C 675.436 -1.36592 5.08162 0
M  V30 6951 O 674.462 -0.865174 5.62586 0
M  V30 6952 N 675.664 -2.69909 5.13935 0
M  V30 6953 H 678.429 0.707766 2.91223 0
M  V30 6954 H 675.99 0.52219 1.53247 0
M  V30 6955 H 677.982 -1.70761 3.6691 0
M  V30 6956 H 676.552 -1.72511 2.60689 0
M  V30 6957 H 675.772 0.383385 3.92331 0
M  V30 6958 H 677.06 0.0275277 5.08793 0
M  V30 6959 H 676.458 -3.13129 4.71134 0
M  V30 6960 H 675.015 -3.2815 5.6317 0
M  V30 6961 N 678.448 -1.51871 0.421078 0
M  V30 6962 C 679.378 -2.30231 -0.389363 0
M  V30 6963 C 680.359 -1.34946 -1.03555 0
M  V30 6964 O 681.544 -1.63859 -1.04229 0
M  V30 6965 C 678.674 -3.13247 -1.49979 0
M  V30 6966 C 677.628 -4.16677 -0.977966 0
M  V30 6967 C 676.954 -4.88112 -2.1829 0
M  V30 6968 C 678.254 -5.22295 -0.0236775 0
M  V30 6969 H 679.948 -2.98229 0.264524 0
M  V30 6970 H 677.494 -1.43424 0.12866 0
M  V30 6971 H 679.447 -3.66838 -2.07383 0
M  V30 6972 H 678.171 -2.4304 -2.18173 0
M  V30 6973 H 676.83 -3.64114 -0.426245 0
M  V30 6974 H 676.478 -4.14423 -2.85066 0
M  V30 6975 H 676.178 -5.58041 -1.84021 0
M  V30 6976 H 677.702 -5.44521 -2.76278 0
M  V30 6977 H 679.116 -5.71055 -0.506899 0
M  V30 6978 H 677.513 -5.99656 0.230782 0
M  V30 6979 H 678.583 -4.76131 0.917999 0
M  V30 6980 N 679.926 -0.151884 -1.56866 0
M  V30 6981 C 681.342 0.204486 -1.58285 0
M  V30 6982 C 681.542 1.6431 -1.16639 0
M  V30 6983 O 680.598 2.37077 -0.868946 0
M  V30 6984 C 681.911 -0.0587019 -3.00643 0
M  V30 6985 C 683.459 0.00462303 -3.13 0
M  V30 6986 C 683.934 -0.231297 -4.57416 0
M  V30 6987 N 685.425 -0.178394 -4.62856 0
M  V30 6988 C 686.16 -0.335379 -5.72418 0
M  V30 6989 N 685.656 -0.550355 -6.90611 0
M  V30 6990 N 687.449 -0.272641 -5.61438 0
M  V30 6991 H 679.6 -1.09116 -1.82229 0
M  V30 6992 H 681.863 -0.432311 -0.843689 0
M  V30 6993 H 681.569 -1.05453 -3.35518 0
M  V30 6994 H 681.443 0.658508 -3.71407 0
M  V30 6995 H 683.83 0.991009 -2.77962 0
M  V30 6996 H 683.911 -0.744992 -2.44711 0
M  V30 6997 H 683.555 -1.2148 -4.93158 0
M  V30 6998 H 683.485 0.5387 -5.23837 0
M  V30 6999 H 685.976 -0.0170923 -3.77896 0
M  V30 7000 H 686.289 -0.660116 -7.69976 0
M  V30 7001 H 684.634 -0.586736 -6.92519 0
M  V30 7002 H 687.825 -0.105421 -4.67981 0
M  V30 7003 H 687.998 -0.398418 -6.46774 0
M  V30 7004 N 681.404 1.57128 0.121893 0
M  V30 7005 C 682.351 2.0013 1.14964 0
M  V30 7006 C 683.321 0.872959 1.4131 0
M  V30 7007 O 684.506 1.13696 1.53225 0
M  V30 7008 C 681.646 2.40824 2.4718 0
M  V30 7009 C 680.759 3.67061 2.27794 0
M  V30 7010 C 679.894 3.96749 3.53219 0
M  V30 7011 C 678.933 5.16178 3.28978 0
M  V30 7012 N 678.07 5.41751 4.46599 0
M  V30 7013 H 682.91 2.8772 0.775947 0
M  V30 7014 H 680.447 1.42328 0.371652 0
M  V30 7015 H 682.405 2.62454 3.24305 0
M  V30 7016 H 681.035 1.56279 2.82448 0
M  V30 7017 H 680.087 3.53063 1.416 0
M  V30 7018 H 681.399 4.5434 2.05857 0
M  V30 7019 H 680.553 4.19012 4.38764 0
M  V30 7020 H 679.292 3.07941 3.78185 0
M  V30 7021 H 678.297 4.93762 2.41824 0
M  V30 7022 H 679.522 6.06561 3.05386 0
M  V30 7023 H 677.468 4.55899 4.71691 0
M  V30 7024 H 677.385 6.23347 4.27756 0
M  V30 7025 H 678.653 5.68531 5.33285 0
M  V30 7026 N 682.882 -0.391992 1.52647 0
M  V30 7027 C 683.815 -1.50019 1.71958 0
M  V30 7028 C 684.793 -1.5238 0.567365 0
M  V30 7029 O 685.977 -1.70831 0.796806 0
M  V30 7030 C 683.104 -2.88496 1.77447 0
M  V30 7031 C 682.15 -3.03974 2.99169 0
M  V30 7032 S 682.983 -2.75487 4.59203 0
M  V30 7033 C 684.139 -4.16163 4.67503 0
M  V30 7034 H 684.372 -1.33413 2.65685 0
M  V30 7035 H 681.905 -0.584674 1.42902 0
M  V30 7036 H 683.863 -3.68296 1.81296 0
M  V30 7037 H 682.524 -3.02431 0.848188 0
M  V30 7038 H 681.717 -4.05328 2.99542 0
M  V30 7039 H 681.319 -2.32062 2.93297 0
M  V30 7040 H 683.611 -5.10048 4.45934 0
M  V30 7041 H 684.554 -4.20806 5.69498 0
M  V30 7042 H 684.962 -4.01933 3.96371 0
M  V30 7043 N 684.36 -1.4356 -0.65026 0
M  V30 7044 C 685.608 -1.45046 -1.40734 0
M  V30 7045 C 685.929 -0.0769822 -1.94848 0
M  V30 7046 O 685.199 0.888098 -1.74613 0
M  V30 7047 H 683.779 -0.534034 -0.522318 0
M  V30 7048 H 686.441 -1.79186 -0.766703 0
M  V30 7049 H 685.537 -2.16476 -2.24822 0
M  V30 7050 N 685.838 0.888903 -1.30139 0
M  V30 7051 C 687.087 1.63507 -1.18103 0
M  V30 7052 C 687.4 1.93808 0.264141 0
M  V30 7053 O 688.606 2.66744 0.505966 0
M  V30 7054 C 687.062 2.94673 -2.0663 0
M  V30 7055 C 686.67 2.71926 -3.56034 0
M  V30 7056 C 688.414 3.72626 -2.03346 0
M  V30 7057 C 686.321 3.98884 -4.3663 0
M  V30 7058 H 685.251 0.613426 -0.438435 0
M  V30 7059 H 687.902 0.984427 -1.54859 0
M  V30 7060 H 686.284 3.61009 -1.62754 0
M  V30 7061 H 687.458 2.14116 -4.08033 0
M  V30 7062 H 685.773 2.07353 -3.61101 0
M  V30 7063 H 688.37 4.66775 -2.60816 0
M  V30 7064 H 688.713 4.03712 -1.016 0
M  V30 7065 H 689.246 3.13147 -2.45324 0
M  V30 7066 H 685.985 3.72959 -5.39056 0
M  V30 7067 H 685.505 4.56214 -3.89396 0
M  V30 7068 H 687.184 4.66938 -4.47859 0
M  V30 7069 N 687.317 1.12792 1.10072 0
M  V30 7070 C 688.264 0.79921 2.16521 0
M  V30 7071 C 689.234 -0.235726 1.64419 0
M  V30 7072 O 690.419 -0.109457 1.90486 0
M  V30 7073 C 687.559 0.264091 3.44088 0
M  V30 7074 C 686.672 1.35729 4.10124 0
M  V30 7075 C 685.807 0.781212 5.25424 0
M  V30 7076 C 684.846 1.85327 5.8337 0
M  V30 7077 N 683.983 1.29564 6.90042 0
M  V30 7078 H 688.823 1.71105 2.43981 0
M  V30 7079 H 686.36 0.854225 1.19756 0
M  V30 7080 H 688.318 -0.0642423 4.17151 0
M  V30 7081 H 686.948 -0.610901 3.16967 0
M  V30 7082 H 686 1.80234 3.34993 0
M  V30 7083 H 687.312 2.16782 4.4923 0
M  V30 7084 H 686.466 0.403769 6.05355 0
M  V30 7085 H 685.205 -0.0604686 4.87663 0
M  V30 7086 H 684.21 2.23986 5.02106 0
M  V30 7087 H 685.435 2.69824 6.23195 0
M  V30 7088 H 683.381 0.475844 6.54272 0
M  V30 7089 H 683.298 2.04271 7.2788 0
M  V30 7090 H 684.566 0.945545 7.73744 0
M  V30 7091 N 688.795 -1.27931 0.920396 0
M  V30 7092 C 690.023 -1.98805 0.573087 0
M  V30 7093 C 690.438 -1.68724 -0.847201 0
M  V30 7094 O 689.795 -0.943699 -1.56207 0
M  V30 7095 C 689.846 -3.52971 0.780633 0
M  V30 7096 O 689.567 -3.81994 2.14504 0
M  V30 7097 C 691.068 -4.411 0.44105 0
M  V30 7098 H 688.288 -0.634651 0.21785 0
M  V30 7099 H 690.832 -1.62965 1.23542 0
M  V30 7100 H 688.987 -3.87048 0.165204 0
M  V30 7101 H 689.401 -4.76609 2.18962 0
M  V30 7102 H 690.875 -5.48312 0.637006 0
M  V30 7103 H 691.352 -4.34758 -0.62306 0
M  V30 7104 H 691.958 -4.12532 1.0343 0
M  V30 7105 N 690.273 -0.685099 -1.4193 0
M  V30 7106 C 691.519 -0.211971 -2.01689 0
M  V30 7107 C 691.852 1.18189 -1.54094 0
M  V30 7108 O 691.127 1.79559 -0.747572 0
M  V30 7109 C 691.41 -0.258019 -3.59174 0
M  V30 7110 C 691.263 -1.68807 -4.16922 0
M  V30 7111 C 692.582 0.388044 -4.38386 0
M  V30 7112 H 689.701 -0.0784987 -0.732808 0
M  V30 7113 H 692.343 -0.871837 -1.68816 0
M  V30 7114 H 690.493 0.303832 -3.8731 0
M  V30 7115 H 692.165 -2.30296 -3.99702 0
M  V30 7116 H 690.408 -2.22553 -3.72361 0
M  V30 7117 H 691.079 -1.6719 -5.26072 0
M  V30 7118 H 693.555 -0.0903432 -4.16002 0
M  V30 7119 H 692.431 0.325232 -5.47936 0
M  V30 7120 H 692.692 1.4672 -4.17044 0
M  V30 7121 N 691.751 1.51645 -0.429126 0
M  V30 7122 C 692.684 2.24083 0.431492 0
M  V30 7123 C 693.662 1.25691 1.03153 0
M  V30 7124 O 694.846 1.54802 1.07557 0
M  V30 7125 C 691.973 2.9849 1.60067 0
M  V30 7126 C 691.019 4.11474 1.12211 0
M  V30 7127 S 691.852 5.35453 0.0708449 0
M  V30 7128 C 693.008 6.13395 1.24488 0
M  V30 7129 H 693.241 2.96733 -0.183525 0
M  V30 7130 H 690.774 1.52916 -0.213574 0
M  V30 7131 H 692.732 3.4196 2.27099 0
M  V30 7132 H 691.393 2.25445 2.18708 0
M  V30 7133 H 690.586 4.62784 1.99618 0
M  V30 7134 H 690.188 3.70223 0.530149 0
M  V30 7135 H 692.48 6.41984 2.16479 0
M  V30 7136 H 693.423 7.0388 0.771921 0
M  V30 7137 H 693.831 5.44761 1.47973 0
M  V30 7138 N 693.229 0.160201 1.56784 0
M  V30 7139 C 694.478 -0.487619 1.95717 0
M  V30 7140 C 694.791 -1.65136 1.0483 0
M  V30 7141 O 695.997 -2.36468 1.33398 0
M  V30 7142 C 694.453 -0.91888 3.47972 0
M  V30 7143 C 694.061 0.218655 4.47466 0
M  V30 7144 C 695.805 -1.53575 3.95746 0
M  V30 7145 C 693.712 -0.231614 5.90946 0
M  V30 7146 H 692.642 -0.185939 0.730714 0
M  V30 7147 H 695.293 0.246657 1.81835 0
M  V30 7148 H 693.675 -1.70881 3.57234 0
M  V30 7149 H 694.849 0.995825 4.49911 0
M  V30 7150 H 693.164 0.744767 4.09685 0
M  V30 7151 H 695.761 -1.88448 5.00391 0
M  V30 7152 H 696.104 -2.42959 3.38048 0
M  V30 7153 H 696.637 -0.810467 3.89456 0
M  V30 7154 H 693.376 0.62718 6.52493 0
M  V30 7155 H 692.896 -0.974379 5.91833 0
M  V30 7156 H 694.575 -0.67922 6.43425 0
M  V30 7157 N 694.707 -1.5719 -0.113559 0
M  V30 7158 C 695.935 -1.89328 -0.834422 0
M  V30 7159 C 696.35 -0.752018 -1.73177 0
M  V30 7160 O 695.707 0.276912 -1.80387 0
M  V30 7161 C 695.758 -3.20962 -1.66329 0
M  V30 7162 O 695.479 -4.30695 -0.802069 0
M  V30 7163 C 696.98 -3.6684 -2.48884 0
M  V30 7164 H 694.2 -0.626769 -0.239587 0
M  V30 7165 H 696.744 -2.04273 -0.0963195 0
M  V30 7166 H 694.899 -3.0767 -2.35409 0
M  V30 7167 H 695.313 -5.06175 -1.37431 0
M  V30 7168 H 696.787 -4.61692 -3.02563 0
M  V30 7169 H 697.264 -2.93765 -3.26495 0
M  V30 7170 H 697.87 -3.82938 -1.85036 0
M  V30 7171 N 696.185 0.383891 -1.52853 0
M  V30 7172 C 697.433 1.12619 -1.67814 0
M  V30 7173 C 697.754 1.90354 -0.423141 0
M  V30 7174 O 697.024 1.87649 0.562554 0
M  V30 7175 H 695.604 0.418738 -0.618601 0
M  V30 7176 H 698.266 0.43495 -1.89985 0
M  V30 7177 H 697.362 1.82624 -2.5309 0
M  V30 7178 N 697.663 1.43903 0.642637 0
M  V30 7179 C 698.94 1.36556 1.40043 0
M  V30 7180 C 699.32 0.0185588 2.11092 0
M  V30 7181 O 698.668 -0.998438 2.05532 0
M  V30 7182 C 698.878 2.55596 2.37638 0
M  V30 7183 C 700.226 2.99153 3.01318 0
M  V30 7184 O 701.25 2.55719 2.47965 0
M  V30 7185 O 700.109 3.74427 3.98078 0
M  V30 7186 H 697.203 0.540189 0.626198 0
M  V30 7187 H 699.749 1.55971 0.668657 0
M  V30 7188 H 698.521 3.45256 1.84158 0
M  V30 7189 H 698.144 2.38334 3.18249 0
M  V30 7190 N 699.141 -0.881989 1.30609 0
M  V30 7191 C 700.089 -2.00942 1.17155 0
M  V30 7192 C 701.083 -1.69198 0.0827154 0
M  V30 7193 O 702.289 -1.78342 0.243775 0
M  V30 7194 H 698.664 -0.658913 0.362406 0
M  V30 7195 H 700.635 -2.09423 2.12567 0
M  V30 7196 C 699.384 -3.36294 0.883273 0
M  V30 7197 H 698.707 -3.61233 1.7132 0
M  V30 7198 H 700.147 -4.15812 0.829255 0
M  V30 7199 C 698.606 -3.34348 -0.413851 0
M  V30 7200 O 699.136 -3.75216 -1.43444 0
M  V30 7201 N 697.342 -2.87459 -0.426082 0
M  V30 7202 H 696.889 -2.54397 0.40493 0
M  V30 7203 H 696.847 -2.8654 -1.29391 0
M  V30 7204 N 700.619 -1.13374 -1.09472 0
M  V30 7205 C 702.035 -0.871846 -1.33682 0
M  V30 7206 C 702.235 0.492847 -1.9538 0
M  V30 7207 O 701.291 1.23946 -2.19985 0
M  V30 7208 C 702.604 -1.99608 -2.24893 0
M  V30 7209 C 704.152 -2.02812 -2.38404 0
M  V30 7210 C 704.627 -3.14497 -3.3295 0
M  V30 7211 N 706.118 -3.14004 -3.40523 0
M  V30 7212 C 706.853 -3.97061 -4.13679 0
M  V30 7213 N 706.349 -4.90131 -4.89636 0
M  V30 7214 N 708.142 -3.85162 -4.09398 0
M  V30 7215 H 700.293 -2.01288 -0.677995 0
M  V30 7216 H 702.556 -0.876492 -0.361201 0
M  V30 7217 H 702.262 -2.98 -1.86786 0
M  V30 7218 H 702.136 -1.90981 -3.25278 0
M  V30 7219 H 704.523 -1.05034 -2.75775 0
M  V30 7220 H 704.604 -2.15511 -1.37799 0
M  V30 7221 H 704.248 -4.12514 -2.96302 0
M  V30 7222 H 704.178 -2.99035 -4.33458 0
M  V30 7223 H 706.669 -2.46587 -2.86362 0
M  V30 7224 H 706.982 -5.49996 -5.42885 0
M  V30 7225 H 705.327 -4.94138 -4.88726 0
M  V30 7226 H 708.518 -3.11779 -3.49158 0
M  V30 7227 H 708.691 -4.5012 -4.6615 0
M  V30 7228 N 702.098 1.27442 -0.927168 0
M  V30 7229 C 703.028 2.29256 -0.443188 0
M  V30 7230 C 704.009 1.62701 0.49624 0
M  V30 7231 O 705.194 1.90013 0.401105 0
M  V30 7232 C 702.324 3.45955 0.305366 0
M  V30 7233 C 701.278 4.24501 -0.546178 0
M  V30 7234 C 700.604 5.33671 0.331512 0
M  V30 7235 C 701.904 4.89921 -1.81037 0
M  V30 7236 H 703.598 2.69988 -1.29409 0
M  V30 7237 H 701.144 1.29792 -0.623705 0
M  V30 7238 H 703.097 4.1628 0.654885 0
M  V30 7239 H 701.821 3.04138 1.19029 0
M  V30 7240 H 700.48 3.55921 -0.878398 0
M  V30 7241 H 700.128 4.88096 1.21537 0
M  V30 7242 H 699.828 5.87131 -0.234746 0
M  V30 7243 H 701.352 6.0684 0.676614 0
M  V30 7244 H 702.766 5.52536 -1.52895 0
M  V30 7245 H 701.163 5.53436 -2.32009 0
M  V30 7246 H 702.233 4.13652 -2.53021 0
M  V30 7247 N 703.576 0.692616 1.41565 0
M  V30 7248 C 704.804 0.231279 2.05603 0
M  V30 7249 C 705.219 -1.11837 1.52111 0
M  V30 7250 O 704.576 -1.6983 0.66813 0
M  V30 7251 C 704.627 0.177125 3.61066 0
M  V30 7252 O 704.348 1.47346 4.12578 0
M  V30 7253 C 705.849 -0.30556 4.42246 0
M  V30 7254 H 703.069 0.108238 0.662213 0
M  V30 7255 H 705.613 0.944369 1.81389 0
M  V30 7256 H 703.768 -0.486769 3.8433 0
M  V30 7257 H 704.182 1.35861 5.06599 0
M  V30 7258 H 705.656 -0.29233 5.51225 0
M  V30 7259 H 706.133 -1.34393 4.18133 0
M  V30 7260 H 706.739 0.327229 4.24039 0
M  V30 7261 N 705.054 -1.51416 0.437162 0
M  V30 7262 C 706.017 -2.26312 -0.362729 0
M  V30 7263 C 707.017 -1.29748 -0.949847 0
M  V30 7264 O 708.207 -1.53462 -0.824325 0
M  V30 7265 C 705.339 -3.05475 -1.5132 0
M  V30 7266 H 706.532 -2.98459 0.29365 0
M  V30 7267 H 704.085 -1.55137 0.190327 0
M  V30 7268 H 704.82 -2.37744 -2.20563 0
M  V30 7269 H 704.605 -3.76401 -1.09838 0
M  V30 7270 H 706.095 -3.62209 -2.07833 0
M  V30 7271 N 706.532 -0.168513 -1.56696 0
M  V30 7272 C 707.495 0.748928 -2.16619 0
M  V30 7273 C 708.495 1.16007 -1.11351 0
M  V30 7274 O 709.685 1.07748 -1.3688 0
M  V30 7275 C 706.817 2.01904 -2.74677 0
M  V30 7276 H 708.01 0.227317 -2.99037 0
M  V30 7277 H 705.563 0.0810372 -1.5609 0
M  V30 7278 H 706.298 2.58381 -1.95985 0
M  V30 7279 H 706.083 1.73323 -3.51712 0
M  V30 7280 H 707.573 2.67383 -3.20774 0
M  V30 7281 N 708.01 1.57248 0.105221 0
M  V30 7282 C 708.973 2.00388 1.11252 0
M  V30 7283 C 709.973 0.89594 1.33527 0
M  V30 7284 O 711.163 1.16166 1.29811 0
M  V30 7285 C 708.295 2.35589 2.46395 0
M  V30 7286 H 709.488 2.90591 0.741424 0
M  V30 7287 H 707.041 1.52332 0.349956 0
M  V30 7288 H 707.776 1.4831 2.884 0
M  V30 7289 H 707.561 3.16408 2.31578 0
M  V30 7290 H 709.051 2.69658 3.18864 0
M  V30 7291 N 709.488 -0.375779 1.53054 0
M  V30 7292 C 710.737 -1.11674 1.67964 0
M  V30 7293 C 711.05 -1.90755 0.432655 0
M  V30 7294 O 712.256 -2.67538 0.462109 0
M  V30 7295 C 710.712 -2.0344 2.96884 0
M  V30 7296 C 710.32 -1.29719 4.28809 0
M  V30 7297 C 712.064 -2.7759 3.2116 0
M  V30 7298 C 709.971 -2.20327 5.48826 0
M  V30 7299 H 708.901 -0.420597 0.625791 0
M  V30 7300 H 711.552 -0.378499 1.79554 0
M  V30 7301 H 709.934 -2.80953 2.79072 0
M  V30 7302 H 711.108 -0.573394 4.57219 0
M  V30 7303 H 709.423 -0.674735 4.10897 0
M  V30 7304 H 712.02 -3.4559 4.0801 0
M  V30 7305 H 712.363 -3.42399 2.36789 0
M  V30 7306 H 712.896 -2.07164 3.396 0
M  V30 7307 H 709.635 -1.60113 6.35645 0
M  V30 7308 H 709.155 -2.90585 5.2471 0
M  V30 7309 H 710.834 -2.80116 5.83219 0
M  V30 7310 N 710.966 -1.44241 -0.634997 0
M  V30 7311 C 711.929 -1.50457 -1.72903 0
M  V30 7312 C 712.929 -0.387058 -1.56072 0
M  V30 7313 O 714.119 -0.649531 -1.61638 0
M  V30 7314 C 711.251 -1.37477 -3.1195 0
M  V30 7315 H 712.444 -2.47907 -1.68767 0
M  V30 7316 H 709.997 -1.31276 -0.84831 0
M  V30 7317 H 710.732 -0.41106 -3.21684 0
M  V30 7318 H 710.517 -2.18506 -3.25573 0
M  V30 7319 H 712.007 -1.44799 -3.91692 0
M  V30 7320 N 712.444 0.87505 -1.31075 0
M  V30 7321 C 713.407 1.96333 -1.18263 0
M  V30 7322 C 714.407 1.60416 -0.111106 0
M  V30 7323 O 715.597 1.7044 -0.359987 0
M  V30 7324 C 712.729 3.31036 -0.81414 0
M  V30 7325 H 713.922 2.09125 -2.14958 0
M  V30 7326 H 711.475 1.06271 -1.14614 0
M  V30 7327 H 712.21 3.23944 0.151875 0
M  V30 7328 H 711.995 3.58476 -1.58862 0
M  V30 7329 H 713.485 4.10842 -0.748249 0
M  V30 7330 N 713.922 1.13953 1.08869 0
M  V30 7331 C 714.832 0.835666 2.19212 0
M  V30 7332 C 715.848 -0.182005 1.73045 0
M  V30 7333 O 717.024 -0.0116661 2.01397 0
M  V30 7334 C 714.089 0.312325 3.4529 0
M  V30 7335 C 713.15 1.39196 4.06107 0
M  V30 7336 C 712.383 0.893496 5.26168 0
M  V30 7337 O 712.606 -0.266807 5.69776 0
M  V30 7338 O 711.54 1.67037 5.78258 0
M  V30 7339 H 715.366 1.75769 2.47667 0
M  V30 7340 H 712.951 0.917421 1.17914 0
M  V30 7341 H 714.833 0.0261582 4.21392 0
M  V30 7342 H 713.508 -0.582042 3.18424 0
M  V30 7343 H 712.415 1.73152 3.31616 0
M  V30 7344 H 713.748 2.26068 4.37212 0
M  V30 7345 N 715.4 -1.26948 0.933913 0
M  V30 7346 C 716.363 -2.24889 0.442457 0
M  V30 7347 C 717.363 -1.54594 -0.442426 0
M  V30 7348 O 718.553 -1.72502 -0.242629 0
M  V30 7349 C 715.685 -3.3896 -0.363173 0
M  V30 7350 H 716.878 -2.69879 1.30787 0
M  V30 7351 H 714.431 -1.38978 0.715187 0
M  V30 7352 H 715.166 -2.99361 -1.24714 0
M  V30 7353 H 714.951 -3.9116 0.271366 0
M  V30 7354 H 716.441 -4.11739 -0.697186 0
M  V30 7355 N 716.879 -0.700114 -1.41195 0
M  V30 7356 C 718.127 -0.232546 -2.00758 0
M  V30 7357 C 718.448 1.1734 -1.55745 0
M  V30 7358 O 717.718 1.79262 -0.790058 0
M  V30 7359 H 716.298 -0.0829845 -0.742376 0
M  V30 7360 H 718.96 -0.902289 -1.72756 0
M  V30 7361 H 718.056 -0.253521 -3.11069 0
M  V30 7362 N 718.357 1.51182 -0.445186 0
M  V30 7363 C 719.603 2.02452 0.11882 0
M  V30 7364 C 719.936 1.32824 1.41673 0
M  V30 7365 O 719.211 0.445637 1.89326 0
M  V30 7366 C 719.494 3.5859 0.329475 0
M  V30 7367 C 719.347 4.38823 -0.987638 0
M  V30 7368 C 720.666 4.26241 1.09575 0
M  V30 7369 H 717.785 0.735819 0.0417092 0
M  V30 7370 H 720.427 1.80747 -0.585718 0
M  V30 7371 H 718.577 3.77214 0.9296 0
M  V30 7372 H 720.249 4.3183 -1.62235 0
M  V30 7373 H 718.492 4.03594 -1.59041 0
M  V30 7374 H 719.163 5.46257 -0.794192 0
M  V30 7375 H 721.639 4.11934 0.587328 0
M  V30 7376 H 720.515 5.35354 1.21191 0
M  V30 7377 H 720.776 3.87635 2.12584 0
M  V30 7378 N 719.835 0.176821 1.56605 0
M  V30 7379 C 721.112 -0.513365 1.88743 0
M  V30 7380 C 721.492 -1.80929 1.08757 0
M  V30 7381 O 720.84 -2.27765 0.183127 0
M  V30 7382 C 721.05 -0.749925 3.40848 0
M  V30 7383 C 722.398 -1.07747 4.10701 0
M  V30 7384 O 723.422 -0.838277 3.46196 0
M  V30 7385 O 722.281 -1.52901 5.24675 0
M  V30 7386 H 719.375 -0.265296 0.783292 0
M  V30 7387 H 721.921 0.215669 1.68324 0
M  V30 7388 H 720.693 0.16599 3.90948 0
M  V30 7389 H 720.316 -1.53208 3.66897 0
M  V30 7390 N 721.313 -1.57302 -0.09688 0
M  V30 7391 C 722.59 -1.7701 -0.832272 0
M  V30 7392 C 722.97 -0.758025 -1.97021 0
M  V30 7393 O 722.318 0.213824 -2.27497 0
M  V30 7394 C 722.528 -3.22725 -1.32851 0
M  V30 7395 C 723.876 -3.85856 -1.772 0
M  V30 7396 O 724.9 -3.26464 -1.42478 0
M  V30 7397 O 723.759 -4.90295 -2.41398 0
M  V30 7398 H 720.853 -0.725558 -0.396856 0
M  V30 7399 H 723.399 -1.69516 -0.0789005 0
M  V30 7400 H 722.171 -3.87921 -0.51312 0
M  V30 7401 H 721.794 -3.34845 -2.14394 0
M  V30 7402 N 722.791 0.367657 -1.53252 0
M  V30 7403 C 724.038 1.11052 -1.69333 0
M  V30 7404 C 724.366 1.89363 -0.444064 0
M  V30 7405 O 723.621 1.87094 0.573953 0
M  V30 7406 C 723.92 2.09825 -2.89324 0
M  V30 7407 C 723.586 1.4801 -4.25915 0
M  V30 7408 C 722.248 1.30879 -4.6306 0
M  V30 7409 C 724.6 1.03268 -5.10867 0
M  V30 7410 C 721.928 0.675868 -5.82794 0
M  V30 7411 C 724.28 0.41377 -6.31245 0
M  V30 7412 C 722.944 0.229939 -6.67104 0
M  V30 7413 H 722.214 0.406367 -0.619634 0
M  V30 7414 H 724.861 0.392558 -1.87433 0
M  V30 7415 H 723.166 2.87917 -2.65728 0
M  V30 7416 H 724.863 2.67252 -2.98961 0
M  V30 7417 H 721.453 1.62336 -3.96667 0
M  V30 7418 H 725.637 1.15297 -4.82722 0
M  V30 7419 H 720.893 0.521833 -6.09169 0
M  V30 7420 H 725.067 0.0588768 -6.96375 0
M  V30 7421 H 722.694 -0.262562 -7.59746 0
M  V30 7422 N 724.269 1.44576 0.627338 0
M  V30 7423 C 725.199 1.54562 1.75022 0
M  V30 7424 C 726.18 0.398378 1.65369 0
M  V30 7425 O 727.365 0.61899 1.84071 0
M  V30 7426 C 724.495 1.49309 3.13567 0
M  V30 7427 C 723.449 2.62549 3.38012 0
M  V30 7428 C 722.775 2.42348 4.76625 0
M  V30 7429 C 724.075 4.04678 3.30202 0
M  V30 7430 H 725.769 2.4855 1.66922 0
M  V30 7431 H 723.315 1.19624 0.801636 0
M  V30 7432 H 725.268 1.54895 3.919 0
M  V30 7433 H 723.992 0.518392 3.2246 0
M  V30 7434 H 722.651 2.56358 2.62061 0
M  V30 7435 H 722.299 1.43062 4.82226 0
M  V30 7436 H 721.999 3.18273 4.93939 0
M  V30 7437 H 723.523 2.49758 5.57183 0
M  V30 7438 H 724.937 4.12217 3.98435 0
M  V30 7439 H 723.334 4.80836 3.5905 0
M  V30 7440 H 724.404 4.2798 2.27949 0
M  V30 7441 N 725.747 -0.868086 1.31537 0
M  V30 7442 C 726.71 -1.95703 1.19302 0
M  V30 7443 C 727.71 -1.60355 0.119612 0
M  V30 7444 O 728.9 -1.70247 0.36902 0
M  V30 7445 C 726.032 -3.30599 0.831684 0
M  V30 7446 H 727.225 -2.07982 2.16064 0
M  V30 7447 H 724.778 -1.05661 1.15176 0
M  V30 7448 H 725.513 -3.2402 -0.134694 0
M  V30 7449 H 725.298 -3.57629 1.60761 0
M  V30 7450 H 726.788 -4.10439 0.770026 0
M  V30 7451 N 727.225 -1.14528 -1.08264 0
M  V30 7452 C 728.135 -0.84728 -2.18765 0
M  V30 7453 C 729.151 0.172826 -1.7314 0
M  V30 7454 O 730.327 0.000985336 -2.014 0
M  V30 7455 C 727.392 -0.330633 -3.4512 0
M  V30 7456 C 726.453 -1.41348 -4.05363 0
M  V30 7457 C 725.686 -0.921387 -5.25686 0
M  V30 7458 O 725.909 0.236587 -5.69909 0
M  V30 7459 O 724.843 -1.70101 -5.77364 0
M  V30 7460 H 728.669 -1.7708 -2.46731 0
M  V30 7461 H 726.254 -0.923661 -1.17426 0
M  V30 7462 H 728.136 -0.0485053 -4.21372 0
M  V30 7463 H 726.811 0.565147 -3.18728 0
M  V30 7464 H 725.718 -1.74908 -3.30693 0
M  V30 7465 H 727.051 -2.28383 -4.36007 0
M  V30 7466 N 728.703 1.26451 -0.940633 0
M  V30 7467 C 729.666 2.24651 -0.454378 0
M  V30 7468 C 730.666 1.54826 0.434222 0
M  V30 7469 O 731.856 1.72628 0.233477 0
M  V30 7470 C 728.988 3.39148 0.345192 0
M  V30 7471 H 730.181 2.69182 -1.32217 0
M  V30 7472 H 727.734 1.38596 -0.722547 0
M  V30 7473 H 728.469 3.00018 1.23125 0
M  V30 7474 H 728.254 3.9101 -0.292107 0
M  V30 7475 H 729.744 4.12103 0.675341 0
M  V30 7476 N 730.181 0.707592 1.40822 0
M  V30 7477 C 731.409 0.253073 2.05346 0
M  V30 7478 C 731.824 -1.10218 1.53289 0
M  V30 7479 O 731.181 -1.69112 0.686105 0
M  V30 7480 C 731.232 0.215411 3.60858 0
M  V30 7481 O 730.953 1.51714 4.10992 0
M  V30 7482 C 732.454 -0.258636 4.42545 0
M  V30 7483 H 729.674 0.115256 0.661027 0
M  V30 7484 H 732.218 0.963555 1.80377 0
M  V30 7485 H 730.373 -0.445978 3.84824 0
M  V30 7486 H 730.787 1.41226 5.05129 0
M  V30 7487 H 732.261 -0.233849 5.51504 0
M  V30 7488 H 732.738 -1.2995 4.19535 0
M  V30 7489 H 733.344 0.372186 4.23668 0
M  V30 7490 N 731.66 -1.50943 0.453197 0
M  V30 7491 C 733.071 -1.86699 -0.00619892 0
M  V30 7492 C 733.422 -1.3693 -1.40515 0
M  V30 7493 O 732.547 -0.726715 -2.03833 0
M  V30 7494 C 733.142 -3.38795 -0.018025 0
M  V30 7495 C 731.701 -3.74028 -0.421885 0
M  V30 7496 C 730.848 -2.74752 0.375087 0
M  V30 7497 H 733.799 -1.43942 0.668317 0
M  V30 7498 H 733.82 -3.71468 -0.824125 0
M  V30 7499 H 733.332 -3.74988 1.00028 0
M  V30 7500 H 731.433 -3.43431 -1.44521 0
M  V30 7501 H 731.546 -4.78908 -0.135664 0
M  V30 7502 H 729.91 -2.5414 -0.168794 0
M  V30 7503 H 730.693 -3.13787 1.39256 0
M  V30 7504 N 733.138 -0.185124 -1.56509 0
M  V30 7505 C 734.048 0.751908 -2.22224 0
M  V30 7506 C 735.064 1.24244 -1.21817 0
M  V30 7507 O 736.24 1.29169 -1.54523 0
M  V30 7508 C 733.305 1.95837 -2.86092 0
M  V30 7509 C 732.366 1.51337 -4.01741 0
M  V30 7510 C 731.599 2.66233 -4.62554 0
M  V30 7511 O 731.822 3.8346 -4.22273 0
M  V30 7512 O 730.756 2.39517 -5.52191 0
M  V30 7513 H 734.582 0.222304 -3.02885 0
M  V30 7514 H 732.167 0.0437141 -1.49336 0
M  V30 7515 H 734.049 2.66368 -3.26536 0
M  V30 7516 H 732.724 2.47677 -2.08417 0
M  V30 7517 H 731.631 0.777155 -3.65939 0
M  V30 7518 H 732.964 1.04175 -4.81049 0
M  V30 7519 N 734.616 1.57351 0.0885366 0
M  V30 7520 C 735.579 2.01557 1.09121 0
M  V30 7521 C 736.579 0.910052 1.3257 0
M  V30 7522 O 737.769 1.17537 1.28572 0
M  V30 7523 C 734.901 2.38189 2.43883 0
M  V30 7524 H 736.094 2.91361 0.710562 0
M  V30 7525 H 733.647 1.52694 0.333779 0
M  V30 7526 H 734.382 1.5136 2.86811 0
M  V30 7527 H 734.167 3.18846 2.28209 0
M  V30 7528 H 735.657 2.73025 3.15986 0
M  V30 7529 N 736.094 -0.359525 1.53444 0
M  V30 7530 C 737.041 -1.44073 1.8031 0
M  V30 7531 C 738.011 -1.52946 0.647811 0
M  V30 7532 O 739.196 -1.68739 0.890614 0
M  V30 7533 C 736.336 -2.80941 2.00416 0
M  V30 7534 C 735.449 -2.80986 3.28132 0
M  V30 7535 C 734.584 -4.09468 3.38393 0
M  V30 7536 C 733.623 -4.03679 4.60119 0
M  V30 7537 N 732.76 -5.23821 4.675 0
M  V30 7538 H 737.6 -1.20464 2.72566 0
M  V30 7539 H 735.137 -0.583859 1.35017 0
M  V30 7540 H 737.095 -3.60459 2.1006 0
M  V30 7541 H 735.725 -3.02936 1.11489 0
M  V30 7542 H 734.777 -1.93666 3.27411 0
M  V30 7543 H 736.089 -2.72583 4.17732 0
M  V30 7544 H 735.243 -4.97404 3.47382 0
M  V30 7545 H 733.982 -4.20632 2.4682 0
M  V30 7546 H 732.987 -3.14129 4.51224 0
M  V30 7547 H 734.212 -3.94112 5.5304 0
M  V30 7548 H 732.158 -5.35559 3.7883 0
M  V30 7549 H 732.075 -5.17611 5.51013 0
M  V30 7550 H 733.343 -6.13572 4.8078 0
M  V30 7551 N 737.572 -1.44907 -0.619662 0
M  V30 7552 C 738.502 -1.55488 -1.742 0
M  V30 7553 C 739.483 -0.407143 -1.65156 0
M  V30 7554 O 740.668 -0.628743 -1.8374 0
M  V30 7555 C 737.798 -1.5097 -3.1277 0
M  V30 7556 C 736.752 -2.64337 -3.36615 0
M  V30 7557 C 736.078 -2.44872 -4.75333 0
M  V30 7558 C 737.378 -4.06423 -3.28051 0
M  V30 7559 H 739.072 -2.49432 -1.65602 0
M  V30 7560 H 736.618 -1.20047 -0.795281 0
M  V30 7561 H 738.571 -1.56971 -3.91073 0
M  V30 7562 H 737.295 -0.535486 -3.2218 0
M  V30 7563 H 735.954 -2.57744 -2.60698 0
M  V30 7564 H 735.602 -1.45617 -4.81461 0
M  V30 7565 H 735.302 -3.20888 -4.92244 0
M  V30 7566 H 736.826 -2.52709 -5.55851 0
M  V30 7567 H 738.24 -4.14324 -3.96243 0
M  V30 7568 H 736.637 -4.82733 -3.56495 0
M  V30 7569 H 737.707 -4.29183 -2.25676 0
M  V30 7570 N 739.05 0.861098 -1.31996 0
M  V30 7571 C 740.013 1.95068 -1.20338 0
M  V30 7572 C 741.013 1.60289 -0.128114 0
M  V30 7573 O 742.203 1.70048 -0.378044 0
M  V30 7574 C 739.335 3.30153 -0.849205 0
M  V30 7575 H 740.528 2.06833 -2.17164 0
M  V30 7576 H 738.081 1.05049 -1.15734 0
M  V30 7577 H 738.816 3.24087 0.117508 0
M  V30 7578 H 738.601 3.56771 -1.62655 0
M  V30 7579 H 740.091 4.10025 -0.791782 0
M  V30 7580 N 740.528 1.15101 1.07655 0
M  V30 7581 C 741.458 0.867864 2.16773 0
M  V30 7582 C 742.439 -0.180283 1.69142 0
M  V30 7583 O 743.624 -0.0353152 1.94168 0
M  V30 7584 C 740.754 0.35299 3.45501 0
M  V30 7585 C 739.708 1.33746 4.06566 0
M  V30 7586 C 739.034 0.681562 5.30338 0
M  V30 7587 C 740.334 2.7024 4.46954 0
M  V30 7588 H 742.028 1.78034 2.40716 0
M  V30 7589 H 739.574 0.857435 1.15689 0
M  V30 7590 H 741.527 0.142465 4.21159 0
M  V30 7591 H 740.251 -0.594945 3.21135 0
M  V30 7592 H 738.91 1.53429 3.32949 0
M  V30 7593 H 738.558 -0.272422 5.02262 0
M  V30 7594 H 738.258 1.33853 5.72151 0
M  V30 7595 H 739.782 0.48074 6.08705 0
M  V30 7596 H 741.196 2.5442 5.13754 0
M  V30 7597 H 739.593 3.32282 4.99709 0
M  V30 7598 H 740.663 3.26537 3.58471 0
M  V30 7599 N 742.006 -1.2595 0.947325 0
M  V30 7600 C 743.255 -1.92759 0.593887 0
M  V30 7601 C 743.568 -1.75083 -0.872093 0
M  V30 7602 O 744.774 -2.36401 -1.33518 0
M  V30 7603 C 743.23 -3.45395 1.01144 0
M  V30 7604 C 742.838 -3.71795 2.49946 0
M  V30 7605 C 744.582 -4.18173 0.730185 0
M  V30 7606 C 742.489 -5.17901 2.85539 0
M  V30 7607 H 741.419 -0.721676 0.218403 0
M  V30 7608 H 744.07 -1.4293 1.15079 0
M  V30 7609 H 742.452 -3.94143 0.383007 0
M  V30 7610 H 743.626 -3.33728 3.17746 0
M  V30 7611 H 741.941 -3.12263 2.75465 0
M  V30 7612 H 744.538 -5.25784 0.972367 0
M  V30 7613 H 744.881 -4.14964 -0.333223 0
M  V30 7614 H 745.414 -3.75309 1.31862 0
M  V30 7615 H 742.153 -5.26216 3.90867 0
M  V30 7616 H 741.673 -5.57042 2.22406 0
M  V30 7617 H 743.352 -5.8596 2.74336 0
M  V30 7618 N 743.484 -0.715051 -1.40445 0
M  V30 7619 C 744.9 -0.388555 -1.54798 0
M  V30 7620 C 745.1 1.10271 -1.68649 0
M  V30 7621 O 744.156 1.88875 -1.67578 0
M  V30 7622 C 745.469 -1.15414 -2.77669 0
M  V30 7623 C 747.017 -1.14039 -2.91486 0
M  V30 7624 C 747.492 -1.88812 -4.1727 0
M  V30 7625 N 748.983 -1.85878 -4.24268 0
M  V30 7626 C 749.718 -2.40558 -5.20499 0
M  V30 7627 N 749.214 -3.03791 -6.22642 0
M  V30 7628 N 751.007 -2.30703 -5.12574 0
M  V30 7629 H 743.158 -1.68201 -1.297 0
M  V30 7630 H 745.421 -0.710915 -0.627139 0
M  V30 7631 H 745.127 -2.20853 -2.7371 0
M  V30 7632 H 745.001 -0.745412 -3.69761 0
M  V30 7633 H 747.388 -0.0941996 -2.9495 0
M  V30 7634 H 747.469 -1.58834 -2.00513 0
M  V30 7635 H 747.113 -2.93422 -4.14568 0
M  V30 7636 H 747.043 -1.41438 -5.0725 0
M  V30 7637 H 749.534 -1.39794 -3.51093 0
M  V30 7638 H 749.847 -3.43032 -6.92495 0
M  V30 7639 H 748.192 -3.07875 -6.23087 0
M  V30 7640 H 751.383 -1.80961 -4.31707 0
M  V30 7641 H 751.556 -2.73618 -5.87398 0
M  V30 7642 N 744.962 1.50701 -0.461195 0
M  V30 7643 C 745.894 2.26124 0.374244 0
M  V30 7644 C 746.907 1.31064 0.965715 0
M  V30 7645 O 748.096 1.56647 0.855801 0
M  V30 7646 C 745.196 3.01996 1.5379 0
M  V30 7647 C 744.369 4.24336 1.06101 0
M  V30 7648 C 743.428 4.82585 2.09756 0
M  V30 7649 O 742.454 5.43775 1.68219 0
M  V30 7650 N 743.656 4.68712 3.42475 0
M  V30 7651 H 746.421 2.9846 -0.2723 0
M  V30 7652 H 743.982 1.59256 -0.291415 0
M  V30 7653 H 745.974 3.37846 2.22806 0
M  V30 7654 H 744.544 2.32521 2.08933 0
M  V30 7655 H 743.764 3.93707 0.197085 0
M  V30 7656 H 745.052 5.03678 0.720156 0
M  V30 7657 H 744.45 4.20026 3.78938 0
M  V30 7658 H 743.007 5.08858 4.07317 0
M  V30 7659 N 746.441 0.193421 1.56409 0
M  V30 7660 C 747.671 -0.450783 2.01622 0
M  V30 7661 C 748.079 -1.5585 1.07273 0
M  V30 7662 O 747.422 -1.83569 0.0694875 0
M  V30 7663 C 747.484 -1.06913 3.43235 0
M  V30 7664 C 747.148 -0.100352 4.5689 0
M  V30 7665 C 748.145 0.689633 5.15306 0
M  V30 7666 C 745.83 0.0102436 5.02299 0
M  V30 7667 C 747.824 1.5772 6.17579 0
M  V30 7668 C 745.511 0.901368 6.04416 0
M  V30 7669 C 746.509 1.68341 6.61929 0
M  V30 7670 O 746.197 2.5596 7.62063 0
M  V30 7671 H 745.929 -0.117671 0.66568 0
M  V30 7672 H 748.483 0.2989 2.03214 0
M  V30 7673 H 746.713 -1.86736 3.38624 0
M  V30 7674 H 748.402 -1.61781 3.72266 0
M  V30 7675 H 749.168 0.614485 4.81092 0
M  V30 7676 H 745.047 -0.58829 4.57231 0
M  V30 7677 H 748.591 2.18805 6.62397 0
M  V30 7678 H 744.488 0.977637 6.38054 0
M  V30 7679 H 745.256 2.49721 7.79475 0
M  V30 7680 N 747.919 -1.57396 -0.0801906 0
M  V30 7681 C 748.851 -1.9982 -1.12271 0
M  V30 7682 C 749.864 -0.902902 -1.35468 0
M  V30 7683 O 751.053 -1.18088 -1.33856 0
M  V30 7684 C 748.153 -2.31476 -2.47532 0
M  V30 7685 C 747.326 -3.62745 -2.44407 0
M  V30 7686 C 746.385 -3.82168 -3.6171 0
M  V30 7687 O 745.411 -4.53852 -3.43522 0
M  V30 7688 N 746.613 -3.2388 -4.81749 0
M  V30 7689 H 749.378 -2.89864 -0.761501 0
M  V30 7690 H 746.939 -1.5965 -0.268965 0
M  V30 7691 H 748.931 -2.4165 -3.24634 0
M  V30 7692 H 747.501 -1.47364 -2.75686 0
M  V30 7693 H 746.721 -3.63403 -1.52747 0
M  V30 7694 H 748.009 -4.48954 -2.39412 0
M  V30 7695 H 747.407 -2.6568 -4.9943 0
M  V30 7696 H 745.964 -3.39515 -5.56392 0
M  V30 7697 N 749.397 0.351382 -1.53633 0
M  V30 7698 C 750.36 1.41403 -1.80383 0
M  V30 7699 C 751.36 1.45963 -0.674635 0
M  V30 7700 O 752.55 1.46476 -0.942895 0
M  V30 7701 C 749.682 2.80401 -1.93876 0
M  V30 7702 H 750.875 1.18951 -2.75301 0
M  V30 7703 H 748.428 0.58533 -1.44926 0
M  V30 7704 H 749.163 3.08147 -1.01074 0
M  V30 7705 H 748.948 2.78488 -2.7602 0
M  V30 7706 H 750.438 3.57329 -2.16116 0
M  V30 7707 N 750.875 1.45233 0.611969 0
M  V30 7708 C 751.785 1.56098 1.7513 0
M  V30 7709 C 752.801 0.445646 1.68196 0
M  V30 7710 O 753.977 0.705718 1.88631 0
M  V30 7711 C 751.042 1.52052 3.11579 0
M  V30 7712 C 750.103 2.74589 3.29999 0
M  V30 7713 C 749.336 2.70726 4.59938 0
M  V30 7714 O 749.559 1.77806 5.41979 0
M  V30 7715 O 748.493 3.61864 4.80976 0
M  V30 7716 H 752.319 2.52392 1.68914 0
M  V30 7717 H 749.904 1.27695 0.775528 0
M  V30 7718 H 751.786 1.52387 3.92882 0
M  V30 7719 H 750.461 0.589085 3.18295 0
M  V30 7720 H 749.368 2.79817 2.48301 0
M  V30 7721 H 750.701 3.66843 3.28157 0
M  V30 7722 N 752.353 -0.854086 1.3245 0
M  V30 7723 C 753.601 -1.60513 1.228 0
M  V30 7724 C 753.922 -1.93865 -0.210073 0
M  V30 7725 O 753.192 -1.59673 -1.13496 0
M  V30 7726 H 751.772 -0.595099 0.451516 0
M  V30 7727 H 754.434 -1.0216 1.6598 0
M  V30 7728 H 753.53 -2.54182 1.81102 0
M  V30 7729 N 753.831 -1.1567 -1.07043 0
M  V30 7730 C 755.247 -0.900006 -1.31803 0
M  V30 7731 C 755.447 0.451293 -1.96381 0
M  V30 7732 O 754.503 1.19252 -2.22565 0
M  V30 7733 C 755.816 -2.04334 -2.20609 0
M  V30 7734 C 757.364 -2.07823 -2.34048 0
M  V30 7735 C 757.839 -3.21488 -3.26204 0
M  V30 7736 N 759.33 -3.21156 -3.33786 0
M  V30 7737 C 760.065 -4.05746 -4.05163 0
M  V30 7738 N 759.561 -5.00407 -4.79129 0
M  V30 7739 N 761.354 -3.93759 -4.01136 0
M  V30 7740 H 753.505 -2.02681 -0.635146 0
M  V30 7741 H 755.768 -0.883956 -0.342528 0
M  V30 7742 H 755.474 -3.01895 -1.80423 0
M  V30 7743 H 755.348 -1.97838 -3.21154 0
M  V30 7744 H 757.735 -1.1086 -2.73485 0
M  V30 7745 H 757.816 -2.18386 -1.33197 0
M  V30 7746 H 757.46 -4.18706 -2.87485 0
M  V30 7747 H 757.39 -3.08162 -4.27017 0
M  V30 7748 H 759.881 -2.52606 -2.81067 0
M  V30 7749 H 760.194 -5.61387 -5.31097 0
M  V30 7750 H 758.539 -5.04393 -4.78135 0
M  V30 7751 H 761.73 -3.19115 -3.42466 0
M  V30 7752 H 761.903 -4.59906 -4.56498 0
M  V30 7753 N 755.309 1.25446 -0.953992 0
M  V30 7754 C 756.239 2.28264 -0.491717 0
M  V30 7755 C 757.22 1.63717 0.461617 0
M  V30 7756 O 758.405 1.90821 0.36071 0
M  V30 7757 C 755.535 3.46525 0.231915 0
M  V30 7758 C 754.489 4.23247 -0.636098 0
M  V30 7759 C 753.815 5.34254 0.218238 0
M  V30 7760 C 755.115 4.85971 -1.91389 0
M  V30 7761 H 756.809 2.67183 -1.35106 0
M  V30 7762 H 754.355 1.2844 -0.651095 0
M  V30 7763 H 756.308 4.17576 0.566439 0
M  V30 7764 H 755.032 3.06594 1.12551 0
M  V30 7765 H 753.691 3.53978 -0.953696 0
M  V30 7766 H 753.339 4.90564 1.11156 0
M  V30 7767 H 753.039 5.86501 -0.359232 0
M  V30 7768 H 754.563 6.08138 0.547743 0
M  V30 7769 H 755.977 5.49168 -1.64581 0
M  V30 7770 H 754.374 5.48391 -2.43696 0
M  V30 7771 H 755.444 4.08192 -2.61738 0
M  V30 7772 N 756.787 0.722489 1.40064 0
M  V30 7773 C 758.033 0.265371 2.01056 0
M  V30 7774 C 758.366 -1.14062 1.57174 0
M  V30 7775 O 757.641 -1.77514 0.794916 0
M  V30 7776 C 757.924 0.353157 3.58364 0
M  V30 7777 C 757.777 1.79802 4.123 0
M  V30 7778 C 759.096 -0.271677 4.39261 0
M  V30 7779 H 756.215 0.0979002 0.730469 0
M  V30 7780 H 758.857 0.916289 1.66446 0
M  V30 7781 H 757.007 -0.201037 3.87979 0
M  V30 7782 H 758.679 2.40813 3.93455 0
M  V30 7783 H 756.922 2.32348 3.66329 0
M  V30 7784 H 757.593 1.81079 5.21454 0
M  V30 7785 H 760.069 0.200607 4.15616 0
M  V30 7786 H 758.945 -0.179843 5.48605 0
M  V30 7787 H 759.206 -1.35611 4.20787 0
M  V30 7788 N 758.265 -1.50454 0.469181 0
M  V30 7789 C 759.228 -2.2703 -0.314643 0
M  V30 7790 C 760.228 -1.31734 -0.922111 0
M  V30 7791 O 761.418 -1.55176 -0.791588 0
M  V30 7792 C 758.55 -3.08616 -1.44806 0
M  V30 7793 H 759.743 -2.97769 0.356892 0
M  V30 7794 H 757.296 -1.54698 0.223191 0
M  V30 7795 H 758.031 -2.42369 -2.1547 0
M  V30 7796 H 757.816 -3.78647 -1.01829 0
M  V30 7797 H 759.306 -3.66536 -2.00103 0
M  V30 7798 N 759.743 -0.201713 -1.56304 0
M  V30 7799 C 760.676 0.755976 -2.15314 0
M  V30 7800 C 761.654 1.20497 -1.09175 0
M  V30 7801 O 762.838 1.2913 -1.37323 0
M  V30 7802 C 759.965 2.02177 -2.71739 0
M  V30 7803 C 759.011 1.71436 -3.90528 0
M  V30 7804 S 759.844 0.856624 -5.28604 0
M  V30 7805 C 761 2.13242 -5.88455 0
M  V30 7806 H 761.233 0.254348 -2.9621 0
M  V30 7807 H 758.766 0.0133669 -1.54394 0
M  V30 7808 H 760.724 2.74867 -3.04891 0
M  V30 7809 H 759.385 2.49452 -1.90873 0
M  V30 7810 H 758.578 2.65433 -4.28441 0
M  V30 7811 H 758.18 1.06823 -3.5842 0
M  V30 7812 H 760.472 3.08435 -6.0322 0
M  V30 7813 H 761.415 1.7975 -6.84905 0
M  V30 7814 H 761.823 2.2639 -5.17115 0
M  V30 7815 N 761.222 1.57436 0.0718424 0
M  V30 7816 C 762.45 1.91474 0.783932 0
M  V30 7817 C 762.865 0.797669 1.71122 0
M  V30 7818 O 762.222 -0.228989 1.81058 0
M  V30 7819 C 762.273 3.25259 1.57761 0
M  V30 7820 O 761.994 4.3267 0.687596 0
M  V30 7821 C 763.495 3.7331 2.3907 0
M  V30 7822 H 760.715 0.632901 0.222885 0
M  V30 7823 H 763.259 2.04457 0.0421262 0
M  V30 7824 H 761.414 3.13804 2.27169 0
M  V30 7825 H 761.828 5.09641 1.23962 0
M  V30 7826 H 763.302 4.69551 2.90216 0
M  V30 7827 H 763.779 3.02318 3.18591 0
M  V30 7828 H 764.385 3.8771 1.74818 0
M  V30 7829 N 762.7 -0.34323 1.53817 0
M  V30 7830 C 763.948 -1.0813 1.70741 0
M  V30 7831 C 764.269 -1.89165 0.473461 0
M  V30 7832 O 763.539 -1.89075 -0.512605 0
M  V30 7833 H 762.119 -0.40219 0.629486 0
M  V30 7834 H 764.781 -0.384426 1.91071 0
M  V30 7835 H 763.877 -1.7585 2.57843 0
M  V30 7836 N 764.178 -1.45556 -0.604258 0
M  V30 7837 C 765.455 -1.40221 -1.36373 0
M  V30 7838 C 765.835 -0.0745195 -2.10968 0
M  V30 7839 O 765.183 0.943594 -2.08107 0
M  V30 7840 C 765.393 -2.61807 -2.30777 0
M  V30 7841 C 766.741 -3.07037 -2.93281 0
M  V30 7842 O 767.765 -2.62203 -2.41097 0
M  V30 7843 O 766.624 -3.8485 -3.88011 0
M  V30 7844 H 763.718 -0.556602 -0.611656 0
M  V30 7845 H 766.264 -1.57689 -0.627069 0
M  V30 7846 H 765.036 -3.50017 -1.74939 0
M  V30 7847 H 764.659 -2.46688 -3.11818 0
M  V30 7848 N 765.656 0.84705 -1.32902 0
M  V30 7849 C 766.904 1.5986 -1.2365 0
M  V30 7850 C 767.225 1.93974 0.199789 0
M  V30 7851 O 766.495 1.60273 1.12648 0
M  V30 7852 H 765.075 0.592696 -0.454665 0
M  V30 7853 H 767.737 1.01278 -1.66519 0
M  V30 7854 H 766.833 2.53218 -1.82448 0
M  V30 7855 N 767.134 1.16236 1.06428 0
M  V30 7856 C 768.362 0.967184 1.82902 0
M  V30 7857 C 768.777 -0.484601 1.82475 0
M  V30 7858 O 768.134 -1.33631 1.24294 0
M  V30 7859 C 768.185 1.48534 3.29576 0
M  V30 7860 O 767.906 2.88026 3.3011 0
M  V30 7861 C 769.407 1.33298 4.22784 0
M  V30 7862 H 766.627 0.342923 0.576754 0
M  V30 7863 H 769.171 1.54232 1.34286 0
M  V30 7864 H 767.326 0.952513 3.75508 0
M  V30 7865 H 767.74 3.11721 4.21818 0
M  V30 7866 H 769.214 1.74385 5.23731 0
M  V30 7867 H 769.691 0.278356 4.38317 0
M  V30 7868 H 770.297 1.85535 3.82697 0
M  V30 7869 N 768.612 -1.24939 0.960631 0
M  V30 7870 C 769.56 -2.27659 0.47686 0
M  V30 7871 C 770.554 -1.63148 -0.455961 0
M  V30 7872 O 771.76 -1.76911 -0.332029 0
M  V30 7873 H 768.135 -0.739651 0.135723 0
M  V30 7874 H 770.106 -2.65844 1.35534 0
M  V30 7875 C 768.855 -3.46976 -0.224191 0
M  V30 7876 H 768.178 -3.96854 0.484471 0
M  V30 7877 H 769.618 -4.20717 -0.526615 0
M  V30 7878 C 768.077 -3.04159 -1.44876 0
M  V30 7879 O 768.607 -3.10697 -2.54618 0
M  V30 7880 N 766.813 -2.59284 -1.31226 0
M  V30 7881 H 766.36 -2.54164 -0.419361 0
M  V30 7882 H 766.318 -2.31 -2.13275 0
M  V30 7883 N 770.09 -0.729906 -1.39679 0
M  V30 7884 C 771.367 -0.202149 -1.94553 0
M  V30 7885 C 771.747 1.29507 -1.66707 0
M  V30 7886 O 771.095 2.05819 -0.992517 0
M  V30 7887 C 771.305 -0.530279 -3.44948 0
M  V30 7888 C 772.653 -0.476808 -4.21914 0
M  V30 7889 O 773.677 -0.467171 -3.53123 0
M  V30 7890 O 772.536 -0.466869 -5.44502 0
M  V30 7891 H 769.63 -0.0351644 -0.826252 0
M  V30 7892 H 772.176 -0.808417 -1.49207 0
M  V30 7893 H 770.948 -1.56526 -3.5863 0
M  V30 7894 H 770.571 0.10522 -3.97461 0
M  V30 7895 N 771.568 1.50203 -0.477153 0
M  V30 7896 C 772.531 2.27194 0.302599 0
M  V30 7897 C 773.531 1.32221 0.915112 0
M  V30 7898 O 774.721 1.55593 0.783348 0
M  V30 7899 C 771.853 3.0938 1.43167 0
M  V30 7900 H 773.046 2.97575 -0.372678 0
M  V30 7901 H 770.599 1.54578 -0.231392 0
M  V30 7902 H 771.334 2.43509 2.14182 0
M  V30 7903 H 771.119 3.79181 0.998197 0
M  V30 7904 H 772.609 3.67592 1.98157 0
M  V30 7905 N 773.046 0.209999 1.56195 0
M  V30 7906 C 774.457 -0.299943 1.84275 0
M  V30 7907 C 774.808 -1.60314 1.1311 0
M  V30 7908 O 773.933 -2.1273 0.396874 0
M  V30 7909 C 774.528 -0.550986 3.3429 0
M  V30 7910 C 773.087 -1.00526 3.62728 0
M  V30 7911 C 772.234 -0.0619828 2.77231 0
M  V30 7912 H 775.185 0.433458 1.52666 0
M  V30 7913 H 775.206 -1.39846 3.53869 0
M  V30 7914 H 774.718 0.397669 3.86057 0
M  V30 7915 H 772.819 -1.96768 3.16407 0
M  V30 7916 H 772.932 -0.887664 4.70805 0
M  V30 7917 H 771.296 -0.566648 2.48317 0
M  V30 7918 H 772.079 0.881383 3.31793 0
M  V30 7919 N 774.524 -1.57472 -0.0634922 0
M  V30 7920 C 775.487 -2.03268 -1.059 0
M  V30 7921 C 776.487 -0.931028 -1.31105 0
M  V30 7922 O 777.677 -1.19567 -1.26686 0
M  V30 7923 C 774.809 -2.42039 -2.40062 0
M  V30 7924 H 776.002 -2.92454 -0.664119 0
M  V30 7925 H 773.555 -1.53206 -0.309444 0
M  V30 7926 H 774.29 -1.55904 -2.84367 0
M  V30 7927 H 774.075 -3.22437 -2.23108 0
M  V30 7928 H 775.565 -2.78017 -3.11603 0
M  V30 7929 N 776.003 0.335068 -1.53997 0
M  V30 7930 C 776.933 1.41727 -1.85568 0
M  V30 7931 C 777.914 1.54505 -0.7115 0
M  V30 7932 O 779.099 1.68573 -0.964191 0
M  V30 7933 C 776.229 2.7866 -2.07282 0
M  V30 7934 C 775.183 2.80682 -3.23112 0
M  V30 7935 C 774.509 4.20581 -3.30175 0
M  V30 7936 C 775.809 2.45458 -4.61029 0
M  V30 7937 H 777.503 1.15555 -2.76202 0
M  V30 7938 H 775.049 0.554445 -1.32898 0
M  V30 7939 H 777.002 3.54423 -2.27952 0
M  V30 7940 H 775.726 3.06286 -1.13387 0
M  V30 7941 H 774.385 2.07373 -3.02311 0
M  V30 7942 H 774.033 4.4533 -2.33859 0
M  V30 7943 H 773.733 4.22843 -4.08016 0
M  V30 7944 H 775.257 4.98174 -3.53066 0
M  V30 7945 H 776.671 3.10934 -4.81656 0
M  V30 7946 H 775.068 2.5899 -5.41336 0
M  V30 7947 H 776.138 1.40628 -4.6406 0
M  V30 7948 N 777.481 1.45874 0.596531 0
M  V30 7949 C 778.444 1.54988 1.68853 0
M  V30 7950 C 779.444 0.428302 1.54991 0
M  V30 7951 O 780.634 0.692158 1.59859 0
M  V30 7952 C 777.766 1.457 3.08195 0
M  V30 7953 H 778.959 2.52294 1.62135 0
M  V30 7954 H 776.512 1.33479 0.813206 0
M  V30 7955 H 777.247 0.496204 3.20481 0
M  V30 7956 H 777.032 2.27061 3.19665 0
M  V30 7957 H 778.522 1.55133 3.87716 0
M  V30 7958 N 778.959 -0.83999 1.33349 0
M  V30 7959 C 779.891 -1.95678 1.19344 0
M  V30 7960 C 780.904 -1.62322 0.124692 0
M  V30 7961 O 782.093 -1.74516 0.375012 0
M  V30 7962 C 779.193 -3.29133 0.807771 0
M  V30 7963 C 778.366 -3.9063 1.96792 0
M  V30 7964 C 777.425 -5.02438 1.56341 0
M  V30 7965 O 776.451 -5.21646 2.27759 0
M  V30 7966 N 777.653 -5.78612 0.467767 0
M  V30 7967 H 780.418 -2.08229 2.15548 0
M  V30 7968 H 777.979 -1.01566 1.26079 0
M  V30 7969 H 779.971 -4.01355 0.519282 0
M  V30 7970 H 778.541 -3.12535 -0.063555 0
M  V30 7971 H 777.761 -3.11011 2.4221 0
M  V30 7972 H 779.049 -4.2845 2.74422 0
M  V30 7973 H 778.447 -5.65559 -0.126324 0
M  V30 7974 H 777.004 -6.51362 0.238945 0
M  V30 7975 N 780.437 -1.16799 -1.0581 0
M  V30 7976 C 781.4 -0.881396 -2.11575 0
M  V30 7977 C 782.4 0.12574 -1.60308 0
M  V30 7978 O 783.59 -0.105716 -1.73879 0
M  V30 7979 C 780.722 -0.319037 -3.39404 0
M  V30 7980 H 781.915 -1.81907 -2.38432 0
M  V30 7981 H 779.468 -0.977597 -1.21954 0
M  V30 7982 H 780.203 0.626082 -3.18199 0
M  V30 7983 H 779.988 -1.04481 -3.77923 0
M  V30 7984 H 781.478 -0.13663 -4.17376 0
M  V30 7985 N 781.915 1.24427 -0.967243 0
M  V30 7986 C 783.192 1.87831 -0.545776 0
M  V30 7987 C 783.572 1.87126 0.977099 0
M  V30 7988 O 782.92 1.34357 1.84826 0
M  V30 7989 C 783.13 3.29967 -1.13679 0
M  V30 7990 C 784.478 4.06654 -1.22139 0
M  V30 7991 O 785.502 3.39136 -1.08926 0
M  V30 7992 O 784.361 5.27455 -1.43017 0
M  V30 7993 H 781.455 0.806745 -0.181912 0
M  V30 7994 H 784.001 1.32403 -1.06148 0
M  V30 7995 H 782.773 3.24977 -2.17958 0
M  V30 7996 H 782.396 3.92969 -0.605093 0
M  V30 7997 N 783.393 0.737304 1.3929 0
M  V30 7998 C 784.639 0.286681 2.00763 0
M  V30 7999 C 784.972 -1.12388 1.58375 0
M  V30 8000 O 784.247 -1.76661 0.813699 0
M  V30 8001 C 784.53 0.391147 3.57969 0
M  V30 8002 C 784.383 1.84165 4.1037 0
M  V30 8003 C 785.702 -0.225072 4.39524 0
M  V30 8004 H 782.821 0.105642 0.729389 0
M  V30 8005 H 785.463 0.933892 1.65464 0
M  V30 8006 H 783.613 -0.159875 3.88171 0
M  V30 8007 H 785.285 2.44972 3.90879 0
M  V30 8008 H 783.528 2.3622 3.63844 0
M  V30 8009 H 784.199 1.866 5.19504 0
M  V30 8010 H 786.675 0.244677 4.1538 0
M  V30 8011 H 785.551 -0.121646 5.48765 0
M  V30 8012 H 785.812 -1.31141 4.22202 0
M  V30 8013 N 784.871 -1.49948 0.485112 0
M  V30 8014 C 785.834 -2.27351 -0.290546 0
M  V30 8015 C 786.834 -1.32704 -0.908087 0
M  V30 8016 O 788.024 -1.56007 -0.775085 0
M  V30 8017 C 785.156 -3.10135 -1.41524 0
M  V30 8018 H 786.349 -2.97374 0.388454 0
M  V30 8019 H 783.902 -1.54453 0.239586 0
M  V30 8020 H 784.637 -2.44641 -2.12888 0
M  V30 8021 H 784.422 -3.79705 -0.978074 0
M  V30 8022 H 785.912 -3.68638 -1.96204 0
M  V30 8023 N 786.349 -0.21828 -1.56081 0
M  V30 8024 C 787.595 0.414921 -1.9851 0
M  V30 8025 C 787.928 1.59648 -1.10573 0
M  V30 8026 O 787.203 1.93818 -0.162695 0
M  V30 8027 C 787.486 0.852647 -3.4986 0
M  V30 8028 C 787.339 -0.33232 -4.48571 0
M  V30 8029 C 788.658 1.70998 -4.05521 0
M  V30 8030 H 785.777 0.149344 -0.72171 0
M  V30 8031 H 788.419 -0.313858 -1.8739 0
M  V30 8032 H 786.569 1.47362 -3.59467 0
M  V30 8033 H 788.241 -0.970418 -4.50977 0
M  V30 8034 H 786.484 -0.980302 -4.22578 0
M  V30 8035 H 787.155 0.0168407 -5.51997 0
M  V30 8036 H 789.631 1.18606 -3.98838 0
M  V30 8037 H 788.507 1.98517 -5.11744 0
M  V30 8038 H 788.768 2.67219 -3.52202 0
M  V30 8039 N 787.827 1.57504 0.0551401 0
M  V30 8040 C 788.79 2.03826 1.04821 0
M  V30 8041 C 789.79 0.937968 1.30609 0
M  V30 8042 O 790.98 1.20237 1.2605 0
M  V30 8043 C 788.112 2.43309 2.38775 0
M  V30 8044 H 789.305 2.92802 0.6486 0
M  V30 8045 H 786.858 1.53368 0.301315 0
M  V30 8046 H 787.593 1.5741 2.83536 0
M  V30 8047 H 787.378 3.23615 2.21395 0
M  V30 8048 H 788.868 2.79666 3.10124 0
M  V30 8049 N 789.305 -0.326896 1.54172 0
M  V30 8050 C 790.238 -1.42591 1.78166 0
M  V30 8051 C 791.216 -1.49837 0.631484 0
M  V30 8052 O 792.4 -1.67298 0.868544 0
M  V30 8053 C 789.527 -2.8071 1.89524 0
M  V30 8054 C 788.573 -2.91012 3.11792 0
M  V30 8055 S 789.406 -2.55763 4.70474 0
M  V30 8056 C 790.562 -3.9596 4.84733 0
M  V30 8057 H 790.795 -1.22024 2.71104 0
M  V30 8058 H 788.328 -0.523539 1.45253 0
M  V30 8059 H 790.286 -3.60276 1.96753 0
M  V30 8060 H 788.947 -2.98562 0.975696 0
M  V30 8061 H 788.14 -3.92258 3.16464 0
M  V30 8062 H 787.742 -2.19414 3.02876 0
M  V30 8063 H 790.034 -4.90676 4.67166 0
M  V30 8064 H 790.977 -3.96273 5.86833 0
M  V30 8065 H 791.385 -3.8476 4.13062 0
M  V30 8066 N 790.784 -1.46188 -0.588786 0
M  V30 8067 C 791.732 -1.56653 -1.71938 0
M  V30 8068 C 792.726 -0.435354 -1.6371 0
M  V30 8069 O 793.932 -0.611996 -1.69277 0
M  V30 8070 H 790.307 -0.492408 -0.568365 0
M  V30 8071 H 792.278 -2.51724 -1.60242 0
M  V30 8072 C 791.027 -1.56822 -3.10326 0
M  V30 8073 H 790.35 -2.43198 -3.17325 0
M  V30 8074 H 791.79 -1.68199 -3.89211 0
M  V30 8075 C 790.249 -0.295802 -3.35599 0
M  V30 8076 O 790.779 0.616515 -3.96941 0
M  V30 8077 N 788.985 -0.185609 -2.90007 0
M  V30 8078 H 788.532 -0.928914 -2.40269 0
M  V30 8079 H 788.49 0.664883 -3.07289 0
M  V30 8080 N 792.262 0.832906 -1.33792 0
M  V30 8081 C 793.487 1.62568 -1.28788 0
M  V30 8082 C 793.912 1.87599 0.137246 0
M  V30 8083 O 793.27 1.44436 1.0958 0
M  V30 8084 C 793.318 2.9495 -2.07453 0
M  V30 8085 O 792.422 3.86546 -1.43722 0
M  V30 8086 H 791.763 0.494809 -0.442787 0
M  V30 8087 H 794.293 1.03578 -1.76445 0
M  V30 8088 H 794.303 3.44599 -2.1844 0
M  V30 8089 H 792.978 2.76055 -3.11073 0
M  V30 8090 H 791.555 3.45044 -1.41417 0
M  V30 8091 N 793.74 1.17359 1.05189 0
M  V30 8092 C 794.988 0.960087 1.77839 0
M  V30 8093 C 795.309 -0.512554 1.88143 0
M  V30 8094 O 794.579 -1.3721 1.39822 0
M  V30 8095 H 793.159 0.352234 0.658741 0
M  V30 8096 H 795.821 1.47834 1.27008 0
M  V30 8097 H 794.917 1.38843 2.79516 0
M  V30 8098 N 795.218 -1.23913 0.973828 0
M  V30 8099 C 796.446 -1.96195 0.656891 0
M  V30 8100 C 796.861 -1.72166 -0.774876 0
M  V30 8101 O 796.218 -1.0091 -1.52064 0
M  V30 8102 C 796.269 -3.49342 0.929638 0
M  V30 8103 O 795.99 -3.72553 2.30512 0
M  V30 8104 C 797.491 -4.38833 0.627739 0
M  V30 8105 H 794.711 -0.624841 0.244572 0
M  V30 8106 H 797.255 -1.57579 1.30343 0
M  V30 8107 H 795.41 -3.85999 0.329216 0
M  V30 8108 H 795.824 -4.66893 2.3898 0
M  V30 8109 H 797.298 -5.45117 0.868991 0
M  V30 8110 H 797.775 -4.37009 -0.438104 0
M  V30 8111 H 798.381 -4.07773 1.20834 0
M  V30 8112 N 796.696 -0.74468 -1.38897 0
M  V30 8113 C 797.628 -0.0713608 -2.29089 0
M  V30 8114 C 798.641 0.693224 -1.47303 0
M  V30 8115 O 799.83 0.535785 -1.70269 0
M  V30 8116 C 796.93 0.923078 -3.26087 0
M  V30 8117 C 796.103 0.217998 -4.36856 0
M  V30 8118 C 795.162 1.12192 -5.14101 0
M  V30 8119 O 794.188 0.595771 -5.66073 0
M  V30 8120 N 795.39 2.45082 -5.26227 0
M  V30 8121 H 798.155 -0.845906 -2.87514 0
M  V30 8122 H 795.716 -0.594712 -1.50581 0
M  V30 8123 H 797.708 1.53061 -3.74639 0
M  V30 8124 H 796.278 1.59876 -2.68623 0
M  V30 8125 H 795.498 -0.570134 -3.90055 0
M  V30 8126 H 796.786 -0.270248 -5.08082 0
M  V30 8127 H 796.184 2.90294 -4.85537 0
M  V30 8128 H 794.741 3.00907 -5.78185 0
M  V30 8129 N 798.174 1.49689 -0.493057 0
M  V30 8130 C 799.137 2.27502 0.278485 0
M  V30 8131 C 800.137 1.33184 0.901037 0
M  V30 8132 O 801.327 1.56415 0.766801 0
M  V30 8133 C 798.459 3.10881 1.39878 0
M  V30 8134 H 799.652 2.97163 -0.404219 0
M  V30 8135 H 797.205 1.54324 -0.247774 0
M  V30 8136 H 797.94 2.45767 2.11587 0
M  V30 8137 H 797.725 3.80219 0.957924 0
M  V30 8138 H 799.215 3.69673 1.94247 0
M  V30 8139 N 799.652 0.226554 1.55963 0
M  V30 8140 C 800.615 -0.668015 2.19249 0
M  V30 8141 C 801.615 -1.11794 1.1558 0
M  V30 8142 O 802.805 -1.02593 1.40784 0
M  V30 8143 C 799.937 -1.91571 2.81981 0
M  V30 8144 H 801.13 -0.116175 2.99675 0
M  V30 8145 H 798.683 -0.0230497 1.56283 0
M  V30 8146 H 799.418 -2.50929 2.05439 0
M  V30 8147 H 799.203 -1.6015 3.57903 0
M  V30 8148 H 800.693 -2.55294 3.30477 0
M  V30 8149 N 801.13 -1.57531 -0.0467866 0
M  V30 8150 C 802.077 -2.05387 -1.05285 0
M  V30 8151 C 803.047 -0.939385 -1.36985 0
M  V30 8152 O 804.232 -1.20877 -1.47626 0
M  V30 8153 C 801.372 -2.52343 -2.35408 0
M  V30 8154 C 800.485 -3.77512 -2.10022 0
M  V30 8155 C 799.62 -4.1315 -3.33887 0
M  V30 8156 C 798.659 -5.31286 -3.03976 0
M  V30 8157 N 797.796 -5.62441 -4.20243 0
M  V30 8158 H 802.636 -2.91095 -0.637788 0
M  V30 8159 H 800.173 -1.43939 -0.303322 0
M  V30 8160 H 802.131 -2.77628 -3.11413 0
M  V30 8161 H 800.761 -1.69577 -2.7467 0
M  V30 8162 H 799.813 -3.59417 -1.24594 0
M  V30 8163 H 801.125 -4.63644 -1.83945 0
M  V30 8164 H 800.279 -4.39469 -4.18273 0
M  V30 8165 H 799.018 -3.25634 -3.63062 0
M  V30 8166 H 798.023 -5.04738 -2.17991 0
M  V30 8167 H 799.248 -6.20441 -2.76098 0
M  V30 8168 H 797.194 -4.77885 -4.49402 0
M  V30 8169 H 797.111 -6.43046 -3.97528 0
M  V30 8170 H 798.379 -5.93327 -5.05553 0
M  V30 8171 N 802.608 0.318715 -1.54344 0
M  V30 8172 C 803.518 1.41535 -1.87097 0
M  V30 8173 C 804.534 1.56361 -0.763353 0
M  V30 8174 O 805.71 1.71365 -1.05811 0
M  V30 8175 C 802.775 2.76178 -2.09587 0
M  V30 8176 C 801.836 2.70486 -3.3337 0
M  V30 8177 C 801.069 3.98708 -3.54778 0
M  V30 8178 O 801.292 4.9721 -2.79532 0
M  V30 8179 O 800.226 4.01674 -4.48266 0
M  V30 8180 H 804.052 1.16764 -2.80357 0
M  V30 8181 H 801.637 0.51318 -1.4031 0
M  V30 8182 H 803.519 3.55873 -2.25682 0
M  V30 8183 H 802.194 3.00829 -1.19514 0
M  V30 8184 H 801.101 1.89325 -3.22656 0
M  V30 8185 H 802.434 2.50789 -4.23516 0
M  V30 8186 N 804.086 1.46499 0.581025 0
M  V30 8187 C 805.049 1.5677 1.672 0
M  V30 8188 C 806.049 0.444716 1.54528 0
M  V30 8189 O 807.239 0.709074 1.59116 0
M  V30 8190 C 804.371 1.4896 3.06633 0
M  V30 8191 H 805.564 2.54 1.5945 0
M  V30 8192 H 803.117 1.34334 0.799003 0
M  V30 8193 H 803.852 0.530168 3.19937 0
M  V30 8194 H 803.637 2.30439 3.17239 0
M  V30 8195 H 805.127 1.59237 3.86048 0
M  V30 8196 N 805.565 -0.825799 1.34232 0
M  V30 8197 C 806.813 -1.57873 1.26177 0
M  V30 8198 C 807.134 -1.94267 -0.168904 0
M  V30 8199 O 806.404 -1.62045 -1.10084 0
M  V30 8200 H 804.984 -0.585388 0.464037 0
M  V30 8201 H 807.646 -0.986163 1.6811 0
M  V30 8202 H 806.742 -2.50283 1.86453 0
M  V30 8203 N 807.043 -1.17915 -1.04565 0
M  V30 8204 C 807.991 -0.897919 -2.1457 0
M  V30 8205 C 808.985 0.139883 -1.68821 0
M  V30 8206 O 810.191 -0.00779463 -1.79998 0
M  V30 8207 H 806.566 -0.272867 -0.700748 0
M  V30 8208 H 808.537 -1.83268 -2.3549 0
M  V30 8209 C 807.286 -0.434634 -3.44973 0
M  V30 8210 H 806.609 -1.22469 -3.8058 0
M  V30 8211 H 808.049 -0.276804 -4.23095 0
M  V30 8212 C 806.508 0.848738 -3.26034 0
M  V30 8213 O 807.038 1.9141 -3.53164 0
M  V30 8214 N 805.244 0.799373 -2.79389 0
M  V30 8215 H 804.791 -0.0678192 -2.57511 0
M  V30 8216 H 804.749 1.6585 -2.67098 0
M  V30 8217 N 808.521 1.23394 -0.980386 0
M  V30 8218 C 809.454 2.23404 -0.465404 0
M  V30 8219 C 810.432 1.55735 0.467471 0
M  V30 8220 O 811.616 1.84295 0.395921 0
M  V30 8221 C 808.743 3.3712 0.32672 0
M  V30 8222 C 807.789 4.22935 -0.550296 0
M  V30 8223 S 808.622 4.96824 -1.99814 0
M  V30 8224 C 809.778 6.13991 -1.21516 0
M  V30 8225 H 810.011 2.6674 -1.31289 0
M  V30 8226 H 807.544 1.32874 -0.78638 0
M  V30 8227 H 809.502 4.03065 0.777738 0
M  V30 8228 H 808.163 2.92317 1.14933 0
M  V30 8229 H 807.356 5.03966 0.0585298 0
M  V30 8230 H 806.958 3.62058 -0.937558 0
M  V30 8231 H 809.25 6.75822 -0.476476 0
M  V30 8232 H 810.193 6.7926 -2.0003 0
M  V30 8233 H 810.601 5.59708 -0.733949 0
M  V30 8234 N 809.999 0.752036 1.385 0
M  V30 8235 C 811.245 0.307958 2.00448 0
M  V30 8236 C 811.578 -1.10702 1.59558 0
M  V30 8237 O 810.853 -1.75788 0.832391 0
M  V30 8238 C 811.136 0.429092 3.57534 0
M  V30 8239 C 810.989 1.88507 4.08393 0
M  V30 8240 C 812.308 -0.178442 4.39738 0
M  V30 8241 H 809.427 0.113373 0.728228 0
M  V30 8242 H 812.069 0.951389 1.64465 0
M  V30 8243 H 810.219 -0.118695 3.88319 0
M  V30 8244 H 811.891 2.49104 3.88259 0
M  V30 8245 H 810.134 2.40066 3.61318 0
M  V30 8246 H 810.805 1.92099 5.17496 0
M  V30 8247 H 813.281 0.28872 4.15097 0
M  V30 8248 H 812.157 -0.0634349 5.48863 0
M  V30 8249 H 812.418 -1.26655 4.23569 0
M  V30 8250 N 811.477 -1.49425 0.500989 0
M  V30 8251 C 812.754 -1.9531 -0.106551 0
M  V30 8252 C 813.134 -1.44248 -1.54129 0
M  V30 8253 O 812.482 -0.656237 -2.18874 0
M  V30 8254 C 812.692 -3.48995 -0.0191972 0
M  V30 8255 C 814.04 -4.24161 -0.193129 0
M  V30 8256 O 815.064 -3.56075 -0.0943843 0
M  V30 8257 O 813.923 -5.45064 -0.395869 0
M  V30 8258 H 811.017 -0.82149 -0.0953068 0
M  V30 8259 H 813.563 -1.6007 0.563526 0
M  V30 8260 H 812.335 -3.78794 0.981353 0
M  V30 8261 H 811.958 -3.90852 -0.72942 0
M  V30 8262 N 812.955 -0.234822 -1.55841 0
M  V30 8263 C 813.885 0.664217 -2.23854 0
M  V30 8264 C 814.866 1.19076 -1.2147 0
M  V30 8265 O 816.051 1.23232 -1.50091 0
M  V30 8266 C 813.181 1.86666 -2.9287 0
M  V30 8267 C 812.135 1.47341 -4.01839 0
M  V30 8268 C 811.461 2.75571 -4.58219 0
M  V30 8269 C 812.761 0.653479 -5.18196 0
M  V30 8270 H 814.455 0.0971213 -2.99242 0
M  V30 8271 H 812.001 0.0452724 -1.43929 0
M  V30 8272 H 813.954 2.50116 -3.39146 0
M  V30 8273 H 812.678 2.45894 -2.1495 0
M  V30 8274 H 811.337 0.862314 -3.56314 0
M  V30 8275 H 810.985 3.32971 -3.77014 0
M  V30 8276 H 810.685 2.49987 -5.31771 0
M  V30 8277 H 812.209 3.39939 -5.07221 0
M  V30 8278 H 813.623 1.19198 -5.60771 0
M  V30 8279 H 812.02 0.494188 -5.98062 0
M  V30 8280 H 813.09 -0.337004 -4.83728 0
M  V30 8281 N 814.433 1.57553 0.0384317 0
M  V30 8282 C 815.71 1.79977 0.766002 0
M  V30 8283 C 816.09 0.830625 1.94072 0
M  V30 8284 O 815.438 -0.129243 2.28134 0
M  V30 8285 C 815.648 3.27434 1.20781 0
M  V30 8286 C 816.996 3.92167 1.62758 0
M  V30 8287 O 818.02 3.31527 1.30263 0
M  V30 8288 O 816.879 4.98917 2.23035 0
M  V30 8289 H 813.973 0.739787 0.369654 0
M  V30 8290 H 816.519 1.69693 0.0159312 0
M  V30 8291 H 815.291 3.89558 0.368792 0
M  V30 8292 H 814.914 3.42571 2.01819 0
M  V30 8293 N 815.911 -0.310526 1.54511 0
M  V30 8294 C 817.136 -1.07046 1.7764 0
M  V30 8295 C 817.561 -1.80488 0.529696 0
M  V30 8296 O 816.919 -1.73702 -0.519361 0
M  V30 8297 C 816.967 -2.03411 2.97752 0
M  V30 8298 O 816.071 -3.11545 2.7021 0
M  V30 8299 H 815.412 -0.307994 0.588248 0
M  V30 8300 H 817.942 -0.350848 2.01569 0
M  V30 8301 H 817.952 -2.46048 3.2546 0
M  V30 8302 H 816.627 -1.49361 3.88155 0
M  V30 8303 H 815.204 -2.7349 2.53491 0
M  V30 8304 N 817.389 -1.46805 -0.573248 0
M  V30 8305 C 818.337 -1.58468 -1.70267 0
M  V30 8306 C 819.331 -0.452694 -1.63239 0
M  V30 8307 O 820.537 -0.629915 -1.68618 0
M  V30 8308 H 816.912 -0.498408 -0.56311 0
M  V30 8309 H 818.883 -2.5341 -1.57563 0
M  V30 8310 C 817.632 -1.60104 -3.08645 0
M  V30 8311 H 816.955 -2.4655 -3.14727 0
M  V30 8312 H 818.395 -1.72318 -3.87405 0
M  V30 8313 C 816.854 -0.33138 -3.35266 0
M  V30 8314 O 817.384 0.57438 -3.97572 0
M  V30 8315 N 815.59 -0.216358 -2.89793 0
M  V30 8316 H 815.137 -0.954345 -2.3927 0
M  V30 8317 H 815.095 0.632253 -3.07977 0
M  V30 8318 N 818.867 0.818669 -1.34668 0
M  V30 8319 C 820.278 1.39177 -1.24446 0
M  V30 8320 C 820.629 1.9578 0.128268 0
M  V30 8321 O 819.754 1.90382 1.02877 0
M  V30 8322 C 820.349 2.53012 -2.25323 0
M  V30 8323 C 818.908 3.06218 -2.18878 0
M  V30 8324 C 818.055 1.79112 -2.11694 0
M  V30 8325 H 821.006 0.622709 -1.45973 0
M  V30 8326 H 821.027 3.31226 -1.8727 0
M  V30 8327 H 820.539 2.11784 -3.25221 0
M  V30 8328 H 818.64 3.51939 -1.22351 0
M  V30 8329 H 818.753 3.65019 -3.10319 0
M  V30 8330 H 817.117 2.0018 -1.57481 0
M  V30 8331 H 817.9 1.40053 -3.13433 0
M  V30 8332 N 820.346 1.18468 1.03938 0
M  V30 8333 C 821.574 1.00576 1.80809 0
M  V30 8334 C 821.989 -0.445786 1.83462 0
M  V30 8335 O 821.346 -1.30964 1.27101 0
M  V30 8336 C 821.397 1.55491 3.26351 0
M  V30 8337 O 821.118 2.94963 3.23926 0
M  V30 8338 C 822.619 1.42236 4.19862 0
M  V30 8339 H 819.839 0.35508 0.56935 0
M  V30 8340 H 822.383 1.57046 1.30984 0
M  V30 8341 H 820.538 1.03195 3.73403 0
M  V30 8342 H 820.952 3.20598 4.15111 0
M  V30 8343 H 822.426 1.85455 5.19914 0
M  V30 8344 H 822.903 0.371267 4.37628 0
M  V30 8345 H 823.509 1.9361 3.78675 0
M  V30 8346 N 821.824 -1.22873 0.986916 0
M  V30 8347 C 822.771 -2.2458 0.532215 0
M  V30 8348 C 823.741 -1.60375 -0.432322 0
M  V30 8349 O 824.926 -1.87775 -0.338416 0
M  V30 8350 C 822.066 -3.44761 -0.152864 0
M  V30 8351 C 821.179 -4.23501 0.852704 0
M  V30 8352 C 820.314 -5.31011 0.14176 0
M  V30 8353 C 819.353 -6.01464 1.1361 0
M  V30 8354 N 818.49 -7.00631 0.453871 0
M  V30 8355 H 823.33 -2.62838 1.40428 0
M  V30 8356 H 820.867 -1.29185 0.703543 0
M  V30 8357 H 822.825 -4.1333 -0.566926 0
M  V30 8358 H 821.455 -3.07284 -0.988756 0
M  V30 8359 H 820.507 -3.54286 1.38512 0
M  V30 8360 H 821.819 -4.72097 1.61014 0
M  V30 8361 H 820.973 -6.05805 -0.329337 0
M  V30 8362 H 819.712 -4.83373 -0.648229 0
M  V30 8363 H 818.717 -5.25456 1.61789 0
M  V30 8364 H 819.942 -6.5119 1.92686 0
M  V30 8365 H 817.888 -6.55235 -0.316791 0
M  V30 8366 H 817.805 -7.47204 1.14986 0
M  V30 8367 H 819.073 -7.795 0.00537823 0
M  V30 8368 N 823.302 -0.75937 -1.38099 0
M  V30 8369 C 824.232 -0.151077 -2.33011 0
M  V30 8370 C 825.213 0.697099 -1.5516 0
M  V30 8371 O 826.398 0.637101 -1.83452 0
M  V30 8372 C 823.528 0.738423 -3.39359 0
M  V30 8373 C 822.482 -0.0074741 -4.27999 0
M  V30 8374 C 821.808 1.00066 -5.25253 0
M  V30 8375 C 823.108 -1.17926 -5.08813 0
M  V30 8376 H 824.802 -0.943933 -2.84131 0
M  V30 8377 H 822.348 -0.455362 -1.36611 0
M  V30 8378 H 824.301 1.17369 -4.04725 0
M  V30 8379 H 823.025 1.56366 -2.86735 0
M  V30 8380 H 821.684 -0.423379 -3.64147 0
M  V30 8381 H 821.332 1.82012 -4.68914 0
M  V30 8382 H 821.032 0.506199 -5.85416 0
M  V30 8383 H 822.556 1.43512 -5.93495 0
M  V30 8384 H 823.97 -0.821262 -5.67387 0
M  V30 8385 H 822.367 -1.60497 -5.78239 0
M  V30 8386 H 823.437 -1.98938 -4.42212 0
M  V30 8387 N 824.78 1.49157 -0.508906 0
M  V30 8388 C 826.029 2.0167 0.0346854 0
M  V30 8389 C 826.342 1.39302 1.37311 0
M  V30 8390 O 827.548 1.83189 2.00385 0
M  V30 8391 C 826.004 3.59725 0.112261 0
M  V30 8392 C 825.612 4.31069 -1.21999 0
M  V30 8393 C 827.356 4.20155 0.605798 0
M  V30 8394 C 825.263 5.81001 -1.10415 0
M  V30 8395 H 824.193 0.753814 0.0167355 0
M  V30 8396 H 826.844 1.7162 -0.649518 0
M  V30 8397 H 825.226 3.86525 0.861087 0
M  V30 8398 H 826.4 4.15962 -1.98273 0
M  V30 8399 H 824.715 3.82418 -1.64759 0
M  V30 8400 H 827.312 5.29964 0.710102 0
M  V30 8401 H 827.655 3.84051 1.60656 0
M  V30 8402 H 828.188 3.97705 -0.0867239 0
M  V30 8403 H 824.927 6.21643 -2.07941 0
M  V30 8404 H 824.447 5.9858 -0.382428 0
M  V30 8405 H 826.126 6.42207 -0.786116 0
M  V30 8406 N 826.258 0.243083 1.55714 0
M  V30 8407 C 827.168 -0.668913 2.24862 0
M  V30 8408 C 828.184 -1.19638 1.26344 0
M  V30 8409 O 829.36 -1.23345 1.5921 0
M  V30 8410 C 826.425 -1.85084 2.93163 0
M  V30 8411 C 825.486 -1.36323 4.07081 0
M  V30 8412 C 824.719 -2.48882 4.72116 0
M  V30 8413 O 824.942 -3.67523 4.36214 0
M  V30 8414 O 823.876 -2.18857 5.60701 0
M  V30 8415 H 827.702 -0.109737 3.03502 0
M  V30 8416 H 825.287 0.0117411 1.49395 0
M  V30 8417 H 827.169 -2.54065 3.36197 0
M  V30 8418 H 825.844 -2.39771 2.17466 0
M  V30 8419 H 824.751 -0.640804 3.68571 0
M  V30 8420 H 826.084 -0.86249 4.84584 0
M  V30 8421 N 827.736 -1.57571 -0.0300757 0
M  V30 8422 C 828.982 -1.89506 -0.722159 0
M  V30 8423 C 829.315 -0.840699 -1.7506 0
M  V30 8424 O 828.59 0.144358 -1.93964 0
M  V30 8425 C 828.873 -3.32081 -1.39262 0
M  V30 8426 C 828.726 -4.48211 -0.377768 0
M  V30 8427 C 830.045 -3.73557 -2.32687 0
M  V30 8428 H 827.164 -0.689213 -0.261064 0
M  V30 8429 H 829.806 -1.89994 0.0150388 0
M  V30 8430 H 827.956 -3.31796 -2.02098 0
M  V30 8431 H 829.628 -4.6063 0.248591 0
M  V30 8432 H 827.871 -4.3274 0.303045 0
M  V30 8433 H 828.542 -5.44854 -0.885347 0
M  V30 8434 H 831.018 -3.75202 -1.79896 0
M  V30 8435 H 829.894 -4.74125 -2.7658 0
M  V30 8436 H 830.155 -3.05759 -3.19317 0
M  V30 8437 N 829.214 0.302327 -1.54673 0
M  V30 8438 C 830.46 1.03924 -1.74149 0
M  V30 8439 C 830.793 1.86968 -0.525041 0
M  V30 8440 O 830.068 1.88538 0.477868 0
M  V30 8441 C 830.351 1.94633 -3.02969 0
M  V30 8442 C 830.204 1.14778 -4.34909 0
M  V30 8443 C 831.523 2.93826 -3.27649 0
M  V30 8444 H 828.642 0.376405 -0.633631 0
M  V30 8445 H 831.284 0.314007 -1.87387 0
M  V30 8446 H 829.434 2.56471 -2.91813 0
M  V30 8447 H 831.106 0.552363 -4.57981 0
M  V30 8448 H 829.349 0.450462 -4.31455 0
M  V30 8449 H 830.02 1.81495 -5.21309 0
M  V30 8450 H 832.496 2.42117 -3.38406 0
M  V30 8451 H 831.372 3.54462 -4.19104 0
M  V30 8452 H 831.633 3.67416 -2.45882 0
M  V30 8453 N 830.692 1.47107 0.565454 0
M  V30 8454 C 831.642 1.55384 1.66852 0
M  V30 8455 C 832.626 0.413369 1.55499 0
M  V30 8456 O 833.818 0.66281 1.64121 0
M  V30 8457 C 830.947 1.5634 3.05635 0
M  V30 8458 C 830.033 2.75742 3.22222 0
M  V30 8459 N 830.424 4.00515 3.08903 0
M  V30 8460 C 828.722 2.7233 3.53203 0
M  V30 8461 C 829.423 4.80435 3.27959 0
M  V30 8462 N 828.399 4.1261 3.53913 0
M  V30 8463 H 832.201 2.49635 1.55111 0
M  V30 8464 H 829.715 1.42986 0.769982 0
M  V30 8465 H 831.712 1.60359 3.84825 0
M  V30 8466 H 830.372 0.631785 3.18494 0
M  V30 8467 H 831.383 4.31501 2.86404 0
M  V30 8468 H 828.06 1.8827 3.7264 0
M  V30 8469 H 829.45 5.89334 3.22699 0
M  V30 8470 N 832.17 -0.811516 1.35101 0
M  V30 8471 C 833.419 -1.56343 1.27435 0
M  V30 8472 C 833.732 -1.95019 -0.150696 0
M  V30 8473 O 834.938 -2.6924 -0.349586 0
M  V30 8474 C 833.394 -2.82124 2.23459 0
M  V30 8475 C 833.002 -2.50706 3.71283 0
M  V30 8476 C 834.746 -3.60137 2.24726 0
M  V30 8477 C 832.653 -3.72748 4.59143 0
M  V30 8478 H 831.583 -0.58682 0.473453 0
M  V30 8479 H 834.234 -0.892465 1.60335 0
M  V30 8480 H 832.616 -3.50905 1.83525 0
M  V30 8481 H 833.79 -1.89962 4.19823 0
M  V30 8482 H 832.105 -1.85947 3.72576 0
M  V30 8483 H 834.702 -4.50775 2.87587 0
M  V30 8484 H 835.045 -3.97101 1.24965 0
M  V30 8485 H 835.578 -2.98311 2.63164 0
M  V30 8486 H 832.317 -3.40896 5.59884 0
M  V30 8487 H 831.837 -4.32735 4.15332 0
M  V30 8488 H 833.516 -4.40033 4.74321 0
M  V30 8489 N 833.648 -1.19017 -1.03309 0
M  V30 8490 C 834.896 -0.988258 -1.76289 0
M  V30 8491 C 835.217 0.482557 -1.88935 0
M  V30 8492 O 834.487 1.34969 -1.41987 0
M  V30 8493 H 833.067 -0.36267 -0.653054 0
M  V30 8494 H 835.729 -1.49836 -1.2464 0
M  V30 8495 H 834.825 -1.43273 -2.77271 0
M  V30 8496 N 835.127 1.22348 -0.993418 0
M  V30 8497 C 836.074 2.24294 -0.544118 0
M  V30 8498 C 837.044 1.60602 0.42381 0
M  V30 8499 O 838.229 1.87952 0.328453 0
M  V30 8500 C 835.369 3.44837 0.134578 0
M  V30 8501 C 834.482 4.23043 -0.875151 0
M  V30 8502 C 833.617 5.30928 -0.169919 0
M  V30 8503 C 832.656 6.00853 -1.16798 0
M  V30 8504 N 831.793 7.00381 -0.491021 0
M  V30 8505 H 836.633 2.6209 -1.4182 0
M  V30 8506 H 834.17 1.2881 -0.710384 0
M  V30 8507 H 836.128 4.13625 0.544998 0
M  V30 8508 H 834.758 3.07804 0.972446 0
M  V30 8509 H 833.81 3.53546 -1.40389 0
M  V30 8510 H 835.122 4.71237 -1.63516 0
M  V30 8511 H 834.276 6.05972 0.297205 0
M  V30 8512 H 833.015 4.8371 0.622586 0
M  V30 8513 H 832.02 5.24591 -1.64573 0
M  V30 8514 H 833.245 6.50159 -1.96137 0
M  V30 8515 H 831.191 6.55393 0.282037 0
M  V30 8516 H 831.108 7.46584 -1.18947 0
M  V30 8517 H 832.376 7.79486 -0.0467169 0
M  V30 8518 N 836.605 0.766683 1.37694 0
M  V30 8519 C 837.537 0.107798 2.28946 0
M  V30 8520 C 838.55 -0.669701 1.48387 0
M  V30 8521 O 839.739 -0.508629 1.711 0
M  V30 8522 C 836.839 -0.871084 3.27514 0
M  V30 8523 C 836.012 -0.148471 4.37148 0
M  V30 8524 C 835.071 -1.03998 5.1582 0
M  V30 8525 O 834.097 -0.505639 5.6695 0
M  V30 8526 N 835.299 -2.36679 5.3006 0
M  V30 8527 H 838.064 0.89154 2.86132 0
M  V30 8528 H 835.625 0.618593 1.49616 0
M  V30 8529 H 837.617 -1.47081 3.77027 0
M  V30 8530 H 836.187 -1.55582 2.71133 0
M  V30 8531 H 835.407 0.632117 3.89099 0
M  V30 8532 H 836.695 0.351045 5.07588 0
M  V30 8533 H 836.093 -2.82532 4.90094 0
M  V30 8534 H 834.65 -2.9167 5.82899 0
M  V30 8535 N 838.083 -1.48885 0.516809 0
M  V30 8536 C 839.016 -2.26218 -0.30011 0
M  V30 8537 C 839.994 -1.31491 -0.956496 0
M  V30 8538 O 841.178 -1.6081 -0.983488 0
M  V30 8539 C 838.305 -3.07315 -1.42392 0
M  V30 8540 C 837.351 -4.17316 -0.880295 0
M  V30 8541 S 838.184 -5.34955 0.24146 0
M  V30 8542 C 839.34 -6.1961 -0.885138 0
M  V30 8543 H 839.573 -2.95158 0.356217 0
M  V30 8544 H 837.106 -1.5141 0.302365 0
M  V30 8545 H 839.064 -3.54619 -2.06775 0
M  V30 8546 H 837.725 -2.37813 -2.05192 0
M  V30 8547 H 836.918 -4.73635 -1.72297 0
M  V30 8548 H 836.52 -3.72685 -0.313396 0
M  V30 8549 H 838.812 -6.53513 -1.78682 0
M  V30 8550 H 839.755 -7.07183 -0.360226 0
M  V30 8551 H 840.163 -5.52461 -1.1596 0
M  V30 8552 N 839.561 -0.251338 -1.55583 0
M  V30 8553 C 840.491 0.640437 -2.24545 0
M  V30 8554 C 841.472 1.17781 -1.22726 0
M  V30 8555 O 842.657 1.21633 -1.5139 0
M  V30 8556 C 839.787 1.8355 -2.94834 0
M  V30 8557 C 838.741 1.4307 -4.03379 0
M  V30 8558 C 838.067 2.70695 -4.61116 0
M  V30 8559 C 839.367 0.59848 -5.1886 0
M  V30 8560 H 841.061 0.0653772 -2.99329 0
M  V30 8561 H 838.607 0.0300042 -1.43969 0
M  V30 8562 H 840.56 2.46505 -3.4178 0
M  V30 8563 H 839.284 2.43601 -2.17546 0
M  V30 8564 H 837.943 0.824474 -3.57209 0
M  V30 8565 H 837.591 3.28954 -3.80524 0
M  V30 8566 H 837.291 2.44332 -5.34393 0
M  V30 8567 H 838.815 3.34541 -5.10798 0
M  V30 8568 H 840.229 1.13244 -5.62004 0
M  V30 8569 H 838.626 0.430728 -5.98552 0
M  V30 8570 H 839.696 -0.38829 -4.83343 0
M  V30 8571 N 841.039 1.57585 0.0217189 0
M  V30 8572 C 841.972 2.02435 1.05334 0
M  V30 8573 C 842.95 0.91006 1.34747 0
M  V30 8574 O 844.134 1.17648 1.47279 0
M  V30 8575 C 841.261 2.40362 2.38629 0
M  V30 8576 C 840.307 3.62307 2.25025 0
M  V30 8577 S 841.14 5.11141 1.59673 0
M  V30 8578 C 842.296 5.52316 2.94444 0
M  V30 8579 H 842.529 2.89621 0.671354 0
M  V30 8580 H 840.062 1.52648 0.231925 0
M  V30 8581 H 842.02 2.62883 3.15282 0
M  V30 8582 H 840.681 1.53615 2.73973 0
M  V30 8583 H 839.874 3.86523 3.23443 0
M  V30 8584 H 839.476 3.39675 1.56515 0
M  V30 8585 H 841.768 5.53449 3.90768 0
M  V30 8586 H 842.711 6.52539 2.74952 0
M  V30 8587 H 843.119 4.79834 2.97355 0
M  V30 8588 N 842.517 -0.29412 1.54831 0
M  V30 8589 C 843.745 -1.04724 1.78439 0
M  V30 8590 C 844.16 -1.80695 0.547239 0
M  V30 8591 O 843.517 -1.75989 -0.483141 0
M  V30 8592 C 843.568 -2.02242 2.99634 0
M  V30 8593 O 843.289 -1.29352 4.18568 0
M  V30 8594 C 844.79 -2.89537 3.35683 0
M  V30 8595 H 842.01 -0.310285 0.594949 0
M  V30 8596 H 844.554 -0.331306 2.01798 0
M  V30 8597 H 842.709 -2.69328 2.78462 0
M  V30 8598 H 843.123 -1.94901 4.86943 0
M  V30 8599 H 844.597 -3.538 4.23709 0
M  V30 8600 H 845.074 -3.58201 2.54143 0
M  V30 8601 H 845.68 -2.27973 3.59038 0
M  V30 8602 N 843.995 -1.47404 -0.557645 0
M  V30 8603 C 845.411 -1.32913 -0.88353 0
M  V30 8604 C 845.611 -0.31929 -1.98954 0
M  V30 8605 O 844.667 0.26934 -2.51059 0
M  V30 8606 C 845.98 -2.72229 -1.27718 0
M  V30 8607 C 847.528 -2.8051 -1.38863 0
M  V30 8608 C 848.003 -4.20466 -1.81583 0
M  V30 8609 N 849.494 -4.23005 -1.88735 0
M  V30 8610 C 850.229 -5.2821 -2.23118 0
M  V30 8611 N 849.725 -6.4372 -2.56117 0
M  V30 8612 N 851.518 -5.15588 -2.23888 0
M  V30 8613 H 843.669 -2.11698 0.172557 0
M  V30 8614 H 845.932 -0.947889 0.0145334 0
M  V30 8615 H 845.638 -3.47556 -0.538329 0
M  V30 8616 H 845.512 -3.03971 -2.23342 0
M  V30 8617 H 847.899 -2.05457 -2.11829 0
M  V30 8618 H 847.98 -2.52423 -0.414274 0
M  V30 8619 H 847.624 -4.96025 -1.09187 0
M  V30 8620 H 847.554 -4.45977 -2.80021 0
M  V30 8621 H 850.045 -3.39674 -1.65621 0
M  V30 8622 H 850.358 -7.19754 -2.81378 0
M  V30 8623 H 848.703 -6.47041 -2.53698 0
M  V30 8624 H 851.894 -4.24374 -1.97546 0
M  V30 8625 H 852.067 -5.97685 -2.50353 0
M  V30 8626 N 845.473 0.80434 -1.35529 0
M  V30 8627 C 846.721 1.55845 -1.28673 0
M  V30 8628 C 847.042 1.94511 0.137976 0
M  V30 8629 O 846.312 1.63775 1.07492 0
M  V30 8630 H 844.892 0.577931 -0.473291 0
M  V30 8631 H 847.554 0.959293 -1.69657 0
M  V30 8632 H 846.65 2.47285 -1.90411 0
M  V30 8633 N 846.951 1.19563 1.02676 0
M  V30 8634 C 848.176 1.02556 1.80269 0
M  V30 8635 C 848.601 -0.421056 1.83327 0
M  V30 8636 O 847.959 -1.30279 1.26084 0
M  V30 8637 C 848.007 1.60165 3.23078 0
M  V30 8638 O 847.111 0.832404 4.03912 0
M  V30 8639 H 846.452 0.362354 0.556413 0
M  V30 8640 H 848.982 1.58633 1.29216 0
M  V30 8641 H 848.992 1.6347 3.7382 0
M  V30 8642 H 847.667 2.65454 3.20167 0
M  V30 8643 H 846.244 0.872768 3.62543 0
M  V30 8644 N 848.429 -1.21819 0.999893 0
M  V30 8645 C 849.359 -2.26282 0.576096 0
M  V30 8646 C 850.34 -1.65317 -0.400537 0
M  V30 8647 O 851.525 -1.92028 -0.28964 0
M  V30 8648 C 848.655 -3.47147 -0.103145 0
M  V30 8649 C 847.609 -4.20594 0.792745 0
M  V30 8650 C 846.935 -5.34696 -0.0198026 0
M  V30 8651 C 848.235 -4.78533 2.09293 0
M  V30 8652 H 849.929 -2.61984 1.4493 0
M  V30 8653 H 847.475 -1.25935 0.698316 0
M  V30 8654 H 849.428 -4.1939 -0.411068 0
M  V30 8655 H 848.152 -3.1056 -1.01094 0
M  V30 8656 H 846.811 -3.50194 1.08442 0
M  V30 8657 H 846.459 -4.94352 -0.928729 0
M  V30 8658 H 846.159 -5.84764 0.576661 0
M  V30 8659 H 847.683 -6.09752 -0.321659 0
M  V30 8660 H 849.097 -5.42682 1.8485 0
M  V30 8661 H 847.494 -5.38968 2.63881 0
M  V30 8662 H 848.564 -3.98197 2.76708 0
M  V30 8663 N 849.908 -0.773975 -1.37286 0
M  V30 8664 C 851.136 -0.350758 -2.03905 0
M  V30 8665 C 851.551 1.02779 -1.58373 0
M  V30 8666 O 850.908 1.65646 -0.766009 0
M  V30 8667 C 850.959 -0.387335 -3.59419 0
M  V30 8668 O 850.68 -1.7115 -4.03286 0
M  V30 8669 C 852.181 0.047198 -4.43275 0
M  V30 8670 H 849.401 -0.146663 -0.654775 0
M  V30 8671 H 851.945 -1.04852 -1.75574 0
M  V30 8672 H 850.1 0.261865 -3.86514 0
M  V30 8673 H 850.514 -1.65166 -4.97816 0
M  V30 8674 H 851.988 -0.0295474 -5.51992 0
M  V30 8675 H 852.465 1.09786 -4.25257 0
M  V30 8676 H 853.071 -0.573899 -4.2141 0
M  V30 8677 N 851.386 1.48609 -0.524698 0
M  V30 8678 C 852.614 2.06899 0.00742946 0
M  V30 8679 C 853.029 1.38196 1.28637 0
M  V30 8680 O 852.386 0.467771 1.76403 0
M  V30 8681 C 852.437 3.60699 0.240548 0
M  V30 8682 O 852.158 4.26821 -0.987715 0
M  V30 8683 C 853.659 4.35769 0.813652 0
M  V30 8684 H 850.879 0.670278 -0.0311294 0
M  V30 8685 H 853.423 1.91071 -0.728832 0
M  V30 8686 H 851.578 3.76149 0.926845 0
M  V30 8687 H 851.992 5.18889 -0.765175 0
M  V30 8688 H 853.466 5.44174 0.926219 0
M  V30 8689 H 853.943 3.9984 1.81728 0
M  V30 8690 H 854.549 4.24983 0.164086 0
M  V30 8691 N 852.864 0.259585 1.55447 0
M  V30 8692 C 854.111 -0.361607 1.99245 0
M  V30 8693 C 854.439 -1.57017 1.14787 0
M  V30 8694 O 853.694 -1.94658 0.201724 0
M  V30 8695 C 853.993 -0.802727 3.48269 0
M  V30 8696 C 853.659 0.299472 4.49904 0
M  V30 8697 C 852.321 0.602157 4.77418 0
M  V30 8698 C 854.673 1.04295 5.10658 0
M  V30 8699 C 852.001 1.65217 5.62957 0
M  V30 8700 C 854.353 2.08257 5.97337 0
M  V30 8701 C 853.017 2.39177 6.23178 0
M  V30 8702 H 852.287 -0.132322 0.72909 0
M  V30 8703 H 854.934 0.370059 1.8789 0
M  V30 8704 H 853.239 -1.61381 3.5702 0
M  V30 8705 H 854.936 -1.29385 3.79553 0
M  V30 8706 H 851.526 0.0534256 4.28567 0
M  V30 8707 H 855.71 0.822358 4.89439 0
M  V30 8708 H 850.966 1.89692 5.81229 0
M  V30 8709 H 855.14 2.6635 6.43452 0
M  V30 8710 H 852.767 3.20677 6.89253 0
M  V30 8711 N 854.342 -1.57594 -0.0133615 0
M  V30 8712 C 855.567 -1.94649 -0.715996 0
M  V30 8713 C 855.992 -0.860786 -1.67249 0
M  V30 8714 O 855.35 0.182228 -1.80382 0
M  V30 8715 C 855.398 -3.30789 -1.43566 0
M  V30 8716 O 854.502 -3.24148 -2.54955 0
M  V30 8717 H 853.843 -0.635801 -0.191449 0
M  V30 8718 H 856.373 -2.04569 0.0358478 0
M  V30 8719 H 856.383 -3.66045 -1.80208 0
M  V30 8720 H 855.058 -4.09367 -0.734263 0
M  V30 8721 H 853.635 -3.00548 -2.20739 0
M  V30 8722 N 855.82 0.285905 -1.54985 0
M  V30 8723 C 857.069 1.01691 -1.74189 0
M  V30 8724 C 857.382 1.87908 -0.543135 0
M  V30 8725 O 858.588 2.64389 -0.617305 0
M  V30 8726 C 857.044 1.85785 -3.0824 0
M  V30 8727 C 856.652 1.04497 -4.35642 0
M  V30 8728 C 858.396 2.58393 -3.36798 0
M  V30 8729 C 856.303 1.87955 -5.60738 0
M  V30 8730 H 855.233 0.383396 -0.649248 0
M  V30 8731 H 857.884 0.27317 -1.81455 0
M  V30 8732 H 856.266 2.64205 -2.94978 0
M  V30 8733 H 857.44 0.305847 -4.59784 0
M  V30 8734 H 855.755 0.434023 -4.14132 0
M  V30 8735 H 858.352 3.21214 -4.27464 0
M  V30 8736 H 858.695 3.28011 -2.56349 0
M  V30 8737 H 859.228 1.87012 -3.511 0
M  V30 8738 H 855.967 1.22781 -6.43898 0
M  V30 8739 H 855.487 2.59499 -5.40759 0
M  V30 8740 H 857.166 2.45636 -5.98558 0
M  V30 8741 N 857.298 1.47698 0.54982 0
M  V30 8742 C 858.261 1.60282 1.63837 0
M  V30 8743 C 859.261 0.477394 1.5355 0
M  V30 8744 O 860.451 0.742665 1.57576 0
M  V30 8745 C 857.583 1.55431 3.03404 0
M  V30 8746 H 858.776 2.57325 1.54026 0
M  V30 8747 H 856.329 1.35999 0.770329 0
M  V30 8748 H 857.064 0.597912 3.1874 0
M  V30 8749 H 856.849 2.37116 3.12279 0
M  V30 8750 H 858.339 1.6739 3.82584 0
M  V30 8751 N 858.776 -0.797141 1.35954 0
M  V30 8752 C 859.724 -1.93084 1.29697 0
M  V30 8753 C 860.718 -1.68329 0.190152 0
M  V30 8754 O 861.924 -1.7643 0.3567 0
M  V30 8755 H 858.299 -0.634531 0.403577 0
M  V30 8756 H 860.27 -1.95481 2.25455 0
M  V30 8757 C 859.019 -3.29996 1.09536 0
M  V30 8758 H 858.342 -3.49607 1.93946 0
M  V30 8759 H 859.782 -4.09696 1.09202 0
M  V30 8760 C 858.241 -3.36304 -0.200381 0
M  V30 8761 O 858.771 -3.83579 -1.19291 0
M  V30 8762 N 856.977 -2.89587 -0.242406 0
M  V30 8763 H 856.524 -2.51307 0.565897 0
M  V30 8764 H 856.482 -2.94189 -1.10906 0
M  V30 8765 N 860.254 -1.20106 -1.0204 0
M  V30 8766 C 861.531 -0.918029 -1.72718 0
M  V30 8767 C 861.911 0.574163 -2.03142 0
M  V30 8768 O 861.259 1.53476 -1.69285 0
M  V30 8769 C 861.469 -1.78698 -2.9978 0
M  V30 8770 C 862.817 -2.02648 -3.7312 0
M  V30 8771 O 863.841 -1.75919 -3.09727 0
M  V30 8772 O 862.7 -2.47767 -4.87107 0
M  V30 8773 H 859.794 -0.342904 -0.752559 0
M  V30 8774 H 862.34 -1.30961 -1.07923 0
M  V30 8775 H 861.112 -2.79757 -2.7359 0
M  V30 8776 H 860.735 -1.39522 -3.72316 0
M  V30 8777 N 861.732 1.21287 -1.00634 0
M  V30 8778 C 862.978 1.90671 -0.690822 0
M  V30 8779 C 863.311 1.77996 0.776592 0
M  V30 8780 O 862.586 1.15748 1.5631 0
M  V30 8781 C 862.869 3.42426 -1.11428 0
M  V30 8782 C 862.722 3.64086 -2.64124 0
M  V30 8783 C 864.041 4.34851 -0.677686 0
M  V30 8784 H 861.16 0.692419 -0.252439 0
M  V30 8785 H 863.802 1.42893 -1.25226 0
M  V30 8786 H 861.952 3.83249 -0.636586 0
M  V30 8787 H 863.624 3.32582 -3.19667 0
M  V30 8788 H 861.867 3.07906 -3.05576 0
M  V30 8789 H 862.538 4.7042 -2.88806 0
M  V30 8790 H 865.014 4.01619 -1.0882 0
M  V30 8791 H 863.89 5.39675 -1.00213 0
M  V30 8792 H 864.151 4.4009 0.421125 0
M  V30 8793 N 863.21 0.781244 1.36873 0
M  V30 8794 C 864.173 0.180094 2.28491 0
M  V30 8795 C 865.173 -0.617798 1.48458 0
M  V30 8796 O 866.363 -0.439991 1.68552 0
M  V30 8797 C 863.495 -0.751741 3.32508 0
M  V30 8798 H 864.688 0.987837 2.83164 0
M  V30 8799 H 862.241 0.550102 1.463 0
M  V30 8800 H 862.976 -1.58413 2.82977 0
M  V30 8801 H 862.761 -0.181649 3.91679 0
M  V30 8802 H 864.251 -1.16748 4.00949 0
M  V30 8803 N 864.689 -1.48329 0.532571 0
M  V30 8804 C 865.636 -2.29663 -0.228779 0
M  V30 8805 C 866.606 -1.37529 -0.931401 0
M  V30 8806 O 867.791 -1.66493 -0.931921 0
M  V30 8807 C 864.931 -3.20955 -1.26814 0
M  V30 8808 C 864.044 -4.28168 -0.574099 0
M  V30 8809 C 863.179 -5.06638 -1.59661 0
M  V30 8810 C 862.218 -6.05651 -0.88618 0
M  V30 8811 N 861.355 -6.77169 -1.85436 0
M  V30 8812 H 866.195 -2.94255 0.47098 0
M  V30 8813 H 863.732 -1.45061 0.2441 0
M  V30 8814 H 865.69 -3.72285 -1.88307 0
M  V30 8815 H 864.32 -2.58281 -1.93625 0
M  V30 8816 H 863.372 -3.80085 0.154827 0
M  V30 8817 H 864.684 -4.98797 -0.0163984 0
M  V30 8818 H 863.838 -5.61995 -2.28576 0
M  V30 8819 H 862.577 -4.35854 -2.18821 0
M  V30 8820 H 861.582 -5.49495 -0.182981 0
M  V30 8821 H 862.807 -6.78434 -0.300659 0
M  V30 8822 H 860.753 -6.09134 -2.43499 0
M  V30 8823 H 860.67 -7.43882 -1.34816 0
M  V30 8824 H 861.938 -7.37114 -2.53541 0
M  V30 8825 N 866.167 -0.267825 -1.55308 0
M  V30 8826 C 867.397 0.354073 -2.03543 0
M  V30 8827 C 867.805 1.50554 -1.14586 0
M  V30 8828 O 867.148 1.83028 -0.156991 0
M  V30 8829 C 867.21 0.904148 -3.47945 0
M  V30 8830 C 866.874 -0.11775 -4.56848 0
M  V30 8831 C 867.871 -0.934707 -5.11429 0
M  V30 8832 C 865.556 -0.249885 -5.01678 0
M  V30 8833 C 867.55 -1.87005 -6.0935 0
M  V30 8834 C 865.237 -1.18872 -5.99427 0
M  V30 8835 C 866.235 -1.99731 -6.53144 0
M  V30 8836 O 865.923 -2.92028 -7.48983 0
M  V30 8837 H 865.655 0.0857765 -0.670536 0
M  V30 8838 H 868.209 -0.395515 -2.01556 0
M  V30 8839 H 866.439 1.70368 -3.47148 0
M  V30 8840 H 868.128 1.43835 -3.79561 0
M  V30 8841 H 868.894 -0.84332 -4.77612 0
M  V30 8842 H 864.773 0.369469 -4.59517 0
M  V30 8843 H 868.317 -2.5016 -6.51203 0
M  V30 8844 H 864.214 -1.28095 -6.32663 0
M  V30 8845 H 864.982 -2.86627 -7.66673 0
M  V30 8846 N 867.645 1.57599 0.00500368 0
M  V30 8847 C 868.892 1.90349 0.690895 0
M  V30 8848 C 869.22 0.868045 1.74055 0
M  V30 8849 O 868.475 -0.127855 1.95282 0
M  V30 8850 C 868.774 3.29855 1.37588 0
M  V30 8851 C 868.44 4.48548 0.459906 0
M  V30 8852 C 867.102 4.80752 0.207693 0
M  V30 8853 C 869.454 5.20919 -0.171054 0
M  V30 8854 C 866.782 5.82701 -0.683855 0
M  V30 8855 C 869.134 6.23818 -1.05045 0
M  V30 8856 C 867.798 6.54481 -1.31189 0
M  V30 8857 H 867.068 0.696538 0.252816 0
M  V30 8858 H 869.715 1.91436 -0.0494495 0
M  V30 8859 H 868.02 3.24869 2.19015 0
M  V30 8860 H 869.717 3.52452 1.91255 0
M  V30 8861 H 866.307 4.23384 0.666648 0
M  V30 8862 H 870.491 4.96299 0.0107942 0
M  V30 8863 H 865.747 6.04822 -0.894467 0
M  V30 8864 H 869.921 6.79029 -1.54574 0
M  V30 8865 H 867.548 7.33299 -2.00442 0
M  V30 8866 N 869.123 -0.277682 1.55134 0
M  V30 8867 C 870.086 -1.32635 1.86924 0
M  V30 8868 C 871.086 -1.42578 0.743507 0
M  V30 8869 O 872.276 -1.4181 1.01171 0
M  V30 8870 C 869.408 -2.70832 2.07034 0
M  V30 8871 H 870.601 -1.0568 2.80663 0
M  V30 8872 H 868.154 -0.515517 1.47554 0
M  V30 8873 H 868.889 -3.02974 1.15661 0
M  V30 8874 H 868.674 -2.65001 2.88993 0
M  V30 8875 H 870.164 -3.46611 2.32918 0
M  V30 8876 N 870.601 -1.47988 -0.541979 0
M  V30 8877 C 871.85 -1.5465 -1.29485 0
M  V30 8878 C 872.163 -0.220041 -1.94358 0
M  V30 8879 O 873.369 -0.164792 -2.70999 0
M  V30 8880 C 871.825 -2.72685 -2.34885 0
M  V30 8881 C 871.433 -4.11923 -1.76134 0
M  V30 8882 C 873.177 -2.88651 -3.11257 0
M  V30 8883 C 871.084 -5.21237 -2.79404 0
M  V30 8884 H 870.014 -0.575688 -0.486928 0
M  V30 8885 H 872.665 -1.74296 -0.573853 0
M  V30 8886 H 871.047 -2.46448 -3.09966 0
M  V30 8887 H 872.221 -4.48128 -1.07322 0
M  V30 8888 H 870.536 -4.00972 -1.12295 0
M  V30 8889 H 873.133 -3.67487 -3.88404 0
M  V30 8890 H 873.476 -1.97658 -3.66384 0
M  V30 8891 H 874.009 -3.14731 -2.43288 0
M  V30 8892 H 870.748 -6.14156 -2.29113 0
M  V30 8893 H 870.268 -4.89533 -3.4658 0
M  V30 8894 H 871.947 -5.48839 -3.42615 0
M  V30 8895 N 872.079 0.78992 -1.36375 0
M  V30 8896 C 873.328 1.54296 -1.29906 0
M  V30 8897 C 873.641 1.95234 0.119651 0
M  V30 8898 O 874.847 2.69762 0.306708 0
M  V30 8899 C 873.303 2.78533 -2.27919 0
M  V30 8900 C 872.911 2.44767 -3.75224 0
M  V30 8901 C 874.655 3.56516 -2.30427 0
M  V30 8902 C 872.562 3.65397 -4.65015 0
M  V30 8903 H 871.492 0.579214 -0.482729 0
M  V30 8904 H 874.143 0.866845 -1.61735 0
M  V30 8905 H 872.525 3.47941 -1.89084 0
M  V30 8906 H 873.699 1.83259 -4.22792 0
M  V30 8907 H 872.014 1.79996 -3.75487 0
M  V30 8908 H 874.611 4.46143 -2.94722 0
M  V30 8909 H 874.954 3.95063 -1.31266 0
M  V30 8910 H 875.487 2.94087 -2.67876 0
M  V30 8911 H 872.226 3.31946 -5.65236 0
M  V30 8912 H 871.746 4.26072 -4.22164 0
M  V30 8913 H 873.425 4.32431 -4.81261 0
M  V30 8914 N 873.557 1.20646 1.01402 0
M  V30 8915 C 874.968 1.01823 1.56489 0
M  V30 8916 C 875.319 -0.42463 1.9155 0
M  V30 8917 O 874.444 -1.30644 1.72514 0
M  V30 8918 C 875.039 1.84208 2.84347 0
M  V30 8919 C 873.598 1.69743 3.35953 0
M  V30 8920 C 872.745 1.8198 2.09233 0
M  V30 8921 H 875.696 1.348 0.837539 0
M  V30 8922 H 875.717 1.34698 3.55861 0
M  V30 8923 H 875.229 2.89215 2.58798 0
M  V30 8924 H 873.33 0.673833 3.66456 0
M  V30 8925 H 873.443 2.51173 4.07981 0
M  V30 8926 H 871.807 1.25193 2.21808 0
M  V30 8927 H 872.59 2.88477 1.86107 0
M  V30 8928 N 875.035 -1.20752 1.01276 0
M  V30 8929 C 875.998 -2.2162 0.584583 0
M  V30 8930 C 876.998 -1.57094 -0.343215 0
M  V30 8931 O 878.188 -1.73696 -0.132433 0
M  V30 8932 C 875.32 -3.40583 -0.146872 0
M  V30 8933 H 876.513 -2.61015 1.47686 0
M  V30 8934 H 874.066 -1.34148 0.802123 0
M  V30 8935 H 874.801 -3.06686 -1.05424 0
M  V30 8936 H 874.586 -3.88642 0.51958 0
M  V30 8937 H 876.076 -4.15339 -0.433924 0
M  V30 8938 N 876.513 -0.788492 -1.36457 0
M  V30 8939 C 877.476 -0.192209 -2.28393 0
M  V30 8940 C 878.476 0.609916 -1.48784 0
M  V30 8941 O 879.666 0.431046 -1.68783 0
M  V30 8942 C 876.798 0.734096 -3.32902 0
M  V30 8943 H 877.991 -1.00284 -2.82636 0
M  V30 8944 H 875.544 -0.557852 -1.46006 0
M  V30 8945 H 876.279 1.5691 -2.83813 0
M  V30 8946 H 876.064 0.160875 -3.9177 0
M  V30 8947 H 877.554 1.1462 -4.01562 0
M  V30 8948 N 877.991 1.48044 -0.54043 0
M  V30 8949 C 879.238 2.02497 -0.0101567 0
M  V30 8950 C 879.566 1.41651 1.33286 0
M  V30 8951 O 878.821 0.555504 1.8765 0
M  V30 8952 C 879.12 3.57085 0.150008 0
M  V30 8953 C 878.786 4.36769 -1.11998 0
M  V30 8954 C 877.448 4.58261 -1.46801 0
M  V30 8955 C 879.8 4.82848 -1.96232 0
M  V30 8956 C 877.128 5.23079 -2.65717 0
M  V30 8957 C 879.48 5.48977 -3.14335 0
M  V30 8958 C 878.144 5.68705 -3.49472 0
M  V30 8959 H 877.414 0.740991 -0.00371661 0
M  V30 8960 H 880.061 1.77909 -0.708562 0
M  V30 8961 H 878.366 3.80572 0.931259 0
M  V30 8962 H 880.063 3.96851 0.575384 0
M  V30 8963 H 876.653 4.20309 -0.838957 0
M  V30 8964 H 880.837 4.66038 -1.70654 0
M  V30 8965 H 876.093 5.36549 -2.93129 0
M  V30 8966 H 880.267 5.83649 -3.79904 0
M  V30 8967 H 877.894 6.18703 -4.41713 0
M  V30 8968 N 879.47 0.276058 1.55163 0
M  V30 8969 C 880.433 -0.597924 2.21263 0
M  V30 8970 C 881.433 -1.0806 1.19078 0
M  V30 8971 O 882.623 -0.980626 1.43977 0
M  V30 8972 C 879.755 -1.82503 2.87933 0
M  V30 8973 H 880.948 -0.0207769 2.99893 0
M  V30 8974 H 878.501 0.0266823 1.56277 0
M  V30 8975 H 879.236 -2.44266 2.13318 0
M  V30 8976 H 879.021 -1.48683 3.62816 0
M  V30 8977 H 880.511 -2.44651 3.38431 0
M  V30 8978 N 880.948 -1.576 0.00335426 0
M  V30 8979 C 881.911 -2.07576 -0.971838 0
M  V30 8980 C 882.911 -0.985796 -1.27038 0
M  V30 8981 O 884.101 -1.24833 -1.21501 0
M  V30 8982 C 881.233 -2.52003 -2.29581 0
M  V30 8983 H 882.426 -2.95008 -0.539481 0
M  V30 8984 H 879.979 -1.54381 -0.244186 0
M  V30 8985 H 880.714 -1.67825 -2.77498 0
M  V30 8986 H 880.499 -3.31609 -2.09231 0
M  V30 8987 H 881.989 -2.90983 -2.99531 0
M  V30 8988 N 882.426 0.269451 -1.5528 0
M  V30 8989 C 883.654 1.01872 -1.80082 0
M  V30 8990 C 884.069 1.79802 -0.575917 0
M  V30 8991 O 883.426 1.76735 0.455081 0
M  V30 8992 C 883.477 1.9745 -3.02813 0
M  V30 8993 O 883.198 1.22677 -4.20573 0
M  V30 8994 C 884.699 2.8416 -3.40247 0
M  V30 8995 H 881.919 0.300781 -0.59981 0
M  V30 8996 H 884.463 0.29916 -2.023 0
M  V30 8997 H 882.618 2.64864 -2.82712 0
M  V30 8998 H 883.032 1.87129 -4.89982 0
M  V30 8999 H 884.506 3.47014 -4.29284 0
M  V30 9000 H 884.983 3.54113 -2.59809 0
M  V30 9001 H 885.589 2.22232 -3.6262 0
M  V30 9002 N 883.904 1.48273 0.534124 0
M  V30 9003 C 885.134 1.59503 1.31311 0
M  V30 9004 C 885.542 0.25284 1.87503 0
M  V30 9005 O 884.885 -0.767399 1.66903 0
M  V30 9006 C 884.947 2.57899 2.50456 0
M  V30 9007 C 884.611 4.03063 2.15382 0
M  V30 9008 C 885.608 4.90869 1.713 0
M  V30 9009 C 883.293 4.4857 2.26032 0
M  V30 9010 C 885.287 6.22209 1.38328 0
M  V30 9011 C 882.974 5.79932 1.92672 0
M  V30 9012 C 883.972 6.66574 1.4889 0
M  V30 9013 O 883.66 7.95492 1.15966 0
M  V30 9014 H 883.392 0.540695 0.405739 0
M  V30 9015 H 885.946 1.94794 0.651497 0
M  V30 9016 H 884.176 2.1772 3.19585 0
M  V30 9017 H 885.865 2.59008 3.12522 0
M  V30 9018 H 886.631 4.56951 1.62545 0
M  V30 9019 H 882.51 3.81321 2.59066 0
M  V30 9020 H 886.054 6.89792 1.04082 0
M  V30 9021 H 881.951 6.13386 2.01066 0
M  V30 9022 H 882.719 8.08207 1.29399 0
M  V30 9023 N 885.382 -0.782676 1.36792 0
M  V30 9024 C 886.793 -1.35828 1.28092 0
M  V30 9025 C 887.144 -1.96052 -0.076315 0
M  V30 9026 O 886.269 -1.93042 -0.977935 0
M  V30 9027 C 886.864 -2.46949 2.31952 0
M  V30 9028 C 885.423 -3.00307 2.2692 0
M  V30 9029 C 884.57 -1.73436 2.16368 0
M  V30 9030 H 887.521 -0.583788 1.47572 0
M  V30 9031 H 887.542 -3.26144 1.95986 0
M  V30 9032 H 887.054 -2.03087 3.30722 0
M  V30 9033 H 885.155 -3.48571 1.31639 0
M  V30 9034 H 885.268 -3.56663 3.19887 0
M  V30 9035 H 883.632 -1.95934 1.62733 0
M  V30 9036 H 884.415 -1.31693 3.17036 0
M  V30 9037 N 886.86 -1.21182 -1.00761 0
M  V30 9038 C 887.792 -0.926523 -2.09638 0
M  V30 9039 C 888.805 0.0892511 -1.62555 0
M  V30 9040 O 889.994 -0.142915 -1.77927 0
M  V30 9041 C 887.094 -0.369175 -3.36883 0
M  V30 9042 C 886.267 -1.43866 -4.13063 0
M  V30 9043 C 885.326 -0.891015 -5.18601 0
M  V30 9044 O 884.352 -1.57384 -5.47009 0
M  V30 9045 N 885.554 0.295057 -5.7975 0
M  V30 9046 H 888.319 -1.8638 -2.34697 0
M  V30 9047 H 885.88 -1.11671 -1.17223 0
M  V30 9048 H 887.872 0.011534 -4.04698 0
M  V30 9049 H 886.442 0.472861 -3.09003 0
M  V30 9050 H 885.662 -1.99332 -3.40089 0
M  V30 9051 H 886.95 -2.15866 -4.60738 0
M  V30 9052 H 886.348 0.8669 -5.59018 0
M  V30 9053 H 884.905 0.617306 -6.4887 0
M  V30 9054 N 888.338 1.20213 -1.01915 0
M  V30 9055 C 889.268 2.25336 -0.612023 0
M  V30 9056 C 890.249 1.65933 0.374186 0
M  V30 9057 O 891.434 1.92464 0.259053 0
M  V30 9058 C 888.564 3.47267 0.047904 0
M  V30 9059 C 887.518 4.1928 -0.859557 0
M  V30 9060 C 886.844 5.3466 -0.0652655 0
M  V30 9061 C 888.144 4.75143 -2.1688 0
M  V30 9062 H 889.838 2.59645 -1.49079 0
M  V30 9063 H 887.384 1.24808 -0.718263 0
M  V30 9064 H 889.337 4.19991 0.344294 0
M  V30 9065 H 888.061 3.12129 0.961404 0
M  V30 9066 H 886.72 3.48425 -1.13999 0
M  V30 9067 H 886.368 4.95767 0.849964 0
M  V30 9068 H 886.068 5.83772 -0.669618 0
M  V30 9069 H 887.592 6.10187 0.224612 0
M  V30 9070 H 889.006 5.39672 -1.9346 0
M  V30 9071 H 887.403 5.34702 -2.72422 0
M  V30 9072 H 888.473 3.93744 -2.83008 0
M  V30 9073 N 889.816 0.795718 1.36037 0
M  V30 9074 C 890.764 0.18649 2.31851 0
M  V30 9075 C 891.758 -0.657704 1.56111 0
M  V30 9076 O 892.964 -0.552083 1.71324 0
M  V30 9077 H 889.339 0.0415363 0.750852 0
M  V30 9078 H 891.31 1.00992 2.8079 0
M  V30 9079 C 890.059 -0.65918 3.41394 0
M  V30 9080 H 889.382 -0.01894 3.99796 0
M  V30 9081 H 890.822 -1.05202 4.10741 0
M  V30 9082 C 889.281 -1.82011 2.83502 0
M  V30 9083 O 889.811 -2.91703 2.76174 0
M  V30 9084 N 888.017 -1.62821 2.40703 0
M  V30 9085 H 887.564 -0.735965 2.46863 0
M  V30 9086 H 887.522 -2.40657 2.02316 0
M  V30 9087 N 891.294 -1.47756 0.548274 0
M  V30 9088 C 892.257 -2.28379 -0.193857 0
M  V30 9089 C 893.257 -1.36436 -0.850986 0
M  V30 9090 O 894.447 -1.59154 -0.70822 0
M  V30 9091 C 891.579 -3.15858 -1.28243 0
M  V30 9092 H 892.772 -2.95458 0.514231 0
M  V30 9093 H 890.325 -1.53298 0.304879 0
M  V30 9094 H 891.06 -2.5345 -2.0232 0
M  V30 9095 H 890.845 -3.83512 -0.816148 0
M  V30 9096 H 892.335 -3.76627 -1.80393 0
M  V30 9097 N 892.772 -0.284283 -1.55015 0
M  V30 9098 C 893.702 0.592663 -2.25853 0
M  V30 9099 C 894.683 1.15151 -1.25197 0
M  V30 9100 O 895.868 1.18395 -1.53936 0
M  V30 9101 C 892.998 1.77254 -2.98661 0
M  V30 9102 C 891.952 1.34482 -4.06323 0
M  V30 9103 C 891.278 2.60853 -4.66754 0
M  V30 9104 C 892.578 0.488288 -5.20013 0
M  V30 9105 H 894.272 0.00187041 -2.994 0
M  V30 9106 H 891.818 -0.000540402 -1.44 0
M  V30 9107 H 893.771 2.39199 -3.46932 0
M  V30 9108 H 892.495 2.38931 -2.22664 0
M  V30 9109 H 891.154 0.748519 -3.58877 0
M  V30 9110 H 890.802 3.20808 -3.87416 0
M  V30 9111 H 890.502 2.32942 -5.39455 0
M  V30 9112 H 892.026 3.23631 -5.1778 0
M  V30 9113 H 893.44 1.01298 -5.6428 0
M  V30 9114 H 891.837 0.303669 -5.99331 0
M  V30 9115 H 892.907 -0.490727 -4.8241 0
M  V30 9116 N 894.251 1.57596 -0.0117121 0
M  V30 9117 C 895.199 2.1029 0.994035 0
M  V30 9118 C 896.193 1.02549 1.34833 0
M  V30 9119 O 897.399 1.21003 1.3326 0
M  V30 9120 H 893.774 0.671624 0.338268 0
M  V30 9121 H 895.745 2.93761 0.524147 0
M  V30 9122 C 894.494 2.63099 2.27319 0
M  V30 9123 H 893.817 3.45642 2.00927 0
M  V30 9124 H 895.257 3.03635 2.95942 0
M  V30 9125 C 893.716 1.55044 2.99104 0
M  V30 9126 O 894.246 0.940127 3.90544 0
M  V30 9127 N 892.452 1.27506 2.61133 0
M  V30 9128 H 891.999 1.77322 1.86855 0
M  V30 9129 H 891.957 0.554292 3.09475 0
M  V30 9130 N 895.729 -0.261212 1.5542 0
M  V30 9131 C 896.978 -0.989072 1.75785 0
M  V30 9132 C 897.291 -1.8702 0.572961 0
M  V30 9133 O 898.497 -2.63374 0.659289 0
M  V30 9134 C 896.953 -1.80857 3.11157 0
M  V30 9135 C 896.561 -0.975535 4.3725 0
M  V30 9136 C 898.305 -2.53003 3.40866 0
M  V30 9137 C 896.212 -1.7901 5.63657 0
M  V30 9138 H 895.142 -0.373019 0.655266 0
M  V30 9139 H 897.793 -0.244267 1.81867 0
M  V30 9140 H 896.175 -2.59479 2.99144 0
M  V30 9141 H 897.349 -0.232661 4.60212 0
M  V30 9142 H 895.664 -0.368083 4.1477 0
M  V30 9143 H 898.261 -3.14372 4.32521 0
M  V30 9144 H 898.604 -3.23891 2.61535 0
M  V30 9145 H 899.137 -1.81403 3.54031 0
M  V30 9146 H 895.876 -1.12522 6.4577 0
M  V30 9147 H 895.396 -2.50863 5.44819 0
M  V30 9148 H 897.075 -2.36082 6.0239 0
M  V30 9149 N 897.207 -1.48554 -0.526253 0
M  V30 9150 C 898.14 -1.57928 -1.64724 0
M  V30 9151 C 899.118 -0.429536 -1.56824 0
M  V30 9152 O 900.302 -0.641651 -1.77243 0
M  V30 9153 C 897.429 -1.51075 -3.0314 0
M  V30 9154 C 896.475 -2.70937 -3.29386 0
M  V30 9155 S 897.308 -4.3287 -3.15251 0
M  V30 9156 C 898.464 -4.28622 -4.56108 0
M  V30 9157 H 898.697 -2.52761 -1.56523 0
M  V30 9158 H 896.23 -1.37133 -0.7095 0
M  V30 9159 H 898.188 -1.47808 -3.82966 0
M  V30 9160 H 896.849 -0.57574 -3.08778 0
M  V30 9161 H 896.042 -2.62291 -4.30371 0
M  V30 9162 H 895.644 -2.71486 -2.57238 0
M  V30 9163 H 897.936 -3.98784 -5.47702 0
M  V30 9164 H 898.879 -5.29798 -4.69808 0
M  V30 9165 H 899.287 -3.59038 -4.35605 0
M  V30 9166 N 898.685 0.775411 -1.37205 0
M  V30 9167 C 899.925 1.54689 -1.33606 0
M  V30 9168 C 900.289 1.91834 0.0798549 0
M  V30 9169 O 901.49 2.67722 0.240531 0
M  V30 9170 C 899.761 2.7804 -2.24563 0
M  V30 9171 S 901.32 3.68143 -2.38781 0
M  V30 9172 H 898.138 0.529631 -0.474355 0
M  V30 9173 H 900.74 0.912128 -1.72918 0
M  V30 9174 H 899.444 2.48825 -3.26365 0
M  V30 9175 H 898.975 3.46479 -1.86322 0
M  V30 9176 H 900.99 4.69843 -1.59568 0
M  V30 9177 N 900.163 1.21714 1.00117 0
M  V30 9178 C 901.093 1.00397 2.10815 0
M  V30 9179 C 902.074 -0.0723502 1.69946 0
M  V30 9180 O 903.259 0.0882398 1.93999 0
M  V30 9181 C 900.389 0.572001 3.42557 0
M  V30 9182 C 899.343 1.59331 3.97237 0
M  V30 9183 C 898.669 1.01746 5.2493 0
M  V30 9184 C 899.969 2.98117 4.28863 0
M  V30 9185 H 901.663 1.92983 2.28906 0
M  V30 9186 H 899.209 0.929273 1.10002 0
M  V30 9187 H 901.162 0.410018 4.19401 0
M  V30 9188 H 899.886 -0.38951 3.24269 0
M  V30 9189 H 898.545 1.74293 3.22518 0
M  V30 9190 H 898.193 0.0475491 5.02978 0
M  V30 9191 H 897.893 1.69969 5.62481 0
M  V30 9192 H 899.417 0.866881 6.04415 0
M  V30 9193 H 900.831 2.86578 4.96534 0
M  V30 9194 H 899.228 3.63389 4.77565 0
M  V30 9195 H 900.298 3.48674 3.36979 0
M  V30 9196 N 901.641 -1.19671 1.02551 0
M  V30 9197 C 902.591 -2.20655 0.574037 0
M  V30 9198 C 903.575 -1.56459 -0.375412 0
M  V30 9199 O 904.767 -1.75901 -0.196929 0
M  V30 9200 C 901.896 -3.43213 -0.0772031 0
M  V30 9201 C 900.982 -4.1456 0.894485 0
M  V30 9202 N 901.373 -4.62147 2.05557 0
M  V30 9203 C 899.671 -4.40196 0.717205 0
M  V30 9204 C 900.372 -5.16899 2.66814 0
M  V30 9205 N 899.348 -5.07496 1.94804 0
M  V30 9206 H 903.15 -2.55124 1.45908 0
M  V30 9207 H 900.664 -1.35707 0.89204 0
M  V30 9208 H 902.661 -4.14797 -0.41824 0
M  V30 9209 H 901.321 -3.10247 -0.957973 0
M  V30 9210 H 902.332 -4.5708 2.43513 0
M  V30 9211 H 899.009 -4.17342 -0.114758 0
M  V30 9212 H 900.399 -5.64032 3.65126 0
M  V30 9213 N 903.119 -0.802921 -1.35613 0
M  V30 9214 C 904.344 -0.392846 -2.03645 0
M  V30 9215 C 904.769 0.987075 -1.6012 0
M  V30 9216 O 904.127 1.63849 -0.776101 0
M  V30 9217 C 904.175 -0.480208 -3.57388 0
M  V30 9218 O 903.279 0.507751 -4.09262 0
M  V30 9219 H 902.62 -0.16464 -0.643265 0
M  V30 9220 H 905.15 -1.08779 -1.73287 0
M  V30 9221 H 905.16 -0.348683 -4.06507 0
M  V30 9222 H 903.835 -1.48675 -3.88418 0
M  V30 9223 H 902.412 0.336769 -3.71376 0
M  V30 9224 N 904.597 1.47463 -0.556102 0
M  V30 9225 C 906.008 1.86298 -0.122429 0
M  V30 9226 C 906.359 1.46285 1.30749 0
M  V30 9227 O 905.484 0.865405 1.98342 0
M  V30 9228 C 906.079 3.38115 -0.215407 0
M  V30 9229 C 904.638 3.76046 0.163223 0
M  V30 9230 C 903.785 2.71515 -0.563466 0
M  V30 9231 H 906.736 1.38996 -0.765888 0
M  V30 9232 H 906.757 3.76263 0.566271 0
M  V30 9233 H 906.269 3.67207 -1.25622 0
M  V30 9234 H 904.37 3.5257 1.20519 0
M  V30 9235 H 904.483 4.78705 -0.194568 0
M  V30 9236 H 902.847 2.54699 -0.00667879 0
M  V30 9237 H 903.63 3.03449 -1.60542 0
M  V30 9238 N 906.075 0.2925 1.54862 0
M  V30 9239 C 907.352 -0.371946 1.92031 0
M  V30 9240 C 907.732 -1.72363 1.21878 0
M  V30 9241 O 907.08 -2.25779 0.351573 0
M  V30 9242 C 907.29 -0.495027 3.45471 0
M  V30 9243 C 908.638 -0.769855 4.17562 0
M  V30 9244 O 909.662 -0.579168 3.5146 0
M  V30 9245 O 908.521 -1.13561 5.34571 0
M  V30 9246 H 905.615 -0.206463 0.800813 0
M  V30 9247 H 908.161 0.339933 1.6626 0
M  V30 9248 H 906.933 0.455528 3.88639 0
M  V30 9249 H 906.556 -1.2557 3.7725 0
M  V30 9250 N 907.553 -1.57587 0.0200696 0
M  V30 9251 C 908.778 -1.96124 -0.674547 0
M  V30 9252 C 909.203 -0.896068 -1.65385 0
M  V30 9253 O 908.561 0.143925 -1.80728 0
M  V30 9254 C 908.609 -3.3376 -1.36517 0
M  V30 9255 O 907.713 -3.29483 -2.48022 0
M  V30 9256 H 907.054 -0.639719 -0.177919 0
M  V30 9257 H 909.584 -2.04447 0.0792317 0
M  V30 9258 H 909.594 -3.69785 -1.72403 0
M  V30 9259 H 908.269 -4.10832 -0.647265 0
M  V30 9260 H 906.846 -3.05162 -2.14314 0
M  V30 9261 N 909.032 0.252966 -1.55557 0
M  V30 9262 C 909.995 1.29645 -1.8901 0
M  V30 9263 C 910.995 1.41378 -0.766096 0
M  V30 9264 O 912.185 1.40183 -1.03414 0
M  V30 9265 C 909.317 2.67504 -2.11316 0
M  V30 9266 H 910.51 1.01202 -2.82309 0
M  V30 9267 H 908.063 0.491977 -1.48355 0
M  V30 9268 H 908.798 3.01095 -1.20466 0
M  V30 9269 H 908.583 2.6037 -2.93172 0
M  V30 9270 H 910.073 3.42861 -2.38403 0
M  V30 9271 N 910.51 1.48831 0.518367 0
M  V30 9272 C 911.759 1.5669 1.27008 0
M  V30 9273 C 912.072 0.250934 1.93984 0
M  V30 9274 O 913.278 0.207884 2.70703 0
M  V30 9275 C 911.734 2.76387 2.30517 0
M  V30 9276 C 911.342 4.14673 1.69559 0
M  V30 9277 C 913.086 2.93566 3.06625 0
M  V30 9278 C 910.993 5.25616 2.71076 0
M  V30 9279 H 909.923 0.583362 0.477708 0
M  V30 9280 H 912.574 1.75187 0.546052 0
M  V30 9281 H 910.956 2.51348 3.06006 0
M  V30 9282 H 912.13 4.49779 1.00179 0
M  V30 9283 H 910.445 4.02708 1.05902 0
M  V30 9284 H 913.042 3.7362 3.82508 0
M  V30 9285 H 913.385 2.03462 3.63193 0
M  V30 9286 H 913.918 3.18562 2.38251 0
M  V30 9287 H 910.657 6.17723 2.19313 0
M  V30 9288 H 910.177 4.94985 3.38748 0
M  V30 9289 H 911.856 5.5422 3.3384 0
M  V30 9290 N 911.988 -0.768124 1.37614 0
M  V30 9291 C 912.918 -1.89537 1.36374 0
M  V30 9292 C 913.899 -1.68513 0.231803 0
M  V30 9293 O 915.084 -1.89318 0.432705 0
M  V30 9294 C 912.214 -3.26871 1.17358 0
M  V30 9295 C 911.168 -3.62466 2.27602 0
M  V30 9296 C 910.494 -4.9838 1.93705 0
M  V30 9297 C 911.794 -3.68841 3.69802 0
M  V30 9298 H 913.488 -1.90832 2.30702 0
M  V30 9299 H 911.034 -0.91672 1.11051 0
M  V30 9300 H 912.987 -4.05371 1.15119 0
M  V30 9301 H 911.711 -3.26018 0.194865 0
M  V30 9302 H 910.37 -2.86276 2.29002 0
M  V30 9303 H 910.018 -4.94071 0.943539 0
M  V30 9304 H 909.718 -5.23165 2.6753 0
M  V30 9305 H 911.242 -5.79276 1.93059 0
M  V30 9306 H 912.656 -4.37485 3.70513 0
M  V30 9307 H 911.053 -4.05126 4.42711 0
M  V30 9308 H 912.123 -2.69415 4.03167 0
M  V30 9309 N 913.466 -1.22244 -0.994698 0
M  V30 9310 C 914.691 -1.07299 -1.77487 0
M  V30 9311 C 915.116 0.372302 -1.84379 0
M  V30 9312 O 914.474 1.2689 -1.29494 0
M  V30 9313 C 914.522 -1.68675 -3.18718 0
M  V30 9314 O 913.626 -0.939202 -4.01563 0
M  V30 9315 H 912.967 -0.376979 -0.546611 0
M  V30 9316 H 915.497 -1.62003 -1.24965 0
M  V30 9317 H 915.507 -1.73324 -3.69354 0
M  V30 9318 H 914.182 -2.73849 -3.13017 0
M  V30 9319 H 912.759 -0.968583 -3.60101 0
M  V30 9320 N 914.944 1.19125 -1.03184 0
M  V30 9321 C 915.907 2.20662 -0.619766 0
M  V30 9322 C 916.907 1.57621 0.318179 0
M  V30 9323 O 918.097 1.73885 0.104783 0
M  V30 9324 C 915.229 3.40774 0.0926696 0
M  V30 9325 H 916.422 2.58633 -1.5182 0
M  V30 9326 H 913.975 1.32855 -0.823364 0
M  V30 9327 H 914.71 3.08324 1.00531 0
M  V30 9328 H 914.495 3.87766 -0.581344 0
M  V30 9329 H 915.985 4.15977 0.367792 0
M  V30 9330 N 916.422 0.810101 1.35185 0
M  V30 9331 C 917.668 0.392698 1.98962 0
M  V30 9332 C 918.001 -1.03835 1.64109 0
M  V30 9333 O 917.276 -1.721 0.9062 0
M  V30 9334 C 917.559 0.580349 3.55393 0
M  V30 9335 C 917.412 2.05658 4.00031 0
M  V30 9336 C 918.731 0.00822618 4.40099 0
M  V30 9337 H 915.85 0.144157 0.722764 0
M  V30 9338 H 918.492 1.02029 1.60281 0
M  V30 9339 H 916.642 0.0461106 3.88473 0
M  V30 9340 H 918.314 2.65348 3.77344 0
M  V30 9341 H 916.557 2.55174 3.50811 0
M  V30 9342 H 917.228 2.13875 5.08883 0
M  V30 9343 H 919.704 0.464517 4.13499 0
M  V30 9344 H 918.58 0.169414 5.48638 0
M  V30 9345 H 918.841 -1.08576 4.2856 0
M  V30 9346 N 917.9 -1.47166 0.563914 0
M  V30 9347 C 919.149 -2.0166 0.0401871 0
M  V30 9348 C 919.462 -1.44303 -1.32046 0
M  V30 9349 O 920.668 -1.905 -1.93448 0
M  V30 9350 C 919.124 -3.59894 0.0213257 0
M  V30 9351 C 918.732 -4.26244 1.37914 0
M  V30 9352 C 920.476 -4.22114 -0.449442 0
M  V30 9353 C 918.383 -5.76503 1.31902 0
M  V30 9354 H 917.313 -0.753916 0.0112534 0
M  V30 9355 H 919.964 -1.69091 0.712766 0
M  V30 9356 H 918.346 -3.89454 -0.717038 0
M  V30 9357 H 919.52 -4.08317 2.13574 0
M  V30 9358 H 917.835 -3.76039 1.78839 0
M  V30 9359 H 920.432 -5.32234 -0.51292 0
M  V30 9360 H 920.775 -3.89749 -1.46291 0
M  V30 9361 H 921.308 -3.9711 0.23427 0
M  V30 9362 H 918.047 -6.13498 2.3087 0
M  V30 9363 H 917.567 -5.96748 0.604324 0
M  V30 9364 H 919.246 -6.38846 1.02392 0
M  V30 9365 N 919.378 -0.300708 -1.54705 0
M  V30 9366 C 920.625 0.308654 -2.00134 0
M  V30 9367 C 920.953 1.53918 -1.1891 0
M  V30 9368 O 920.208 1.94054 -0.253263 0
M  V30 9369 C 920.507 0.710108 -3.50275 0
M  V30 9370 C 920.173 -0.418651 -4.48952 0
M  V30 9371 C 918.835 -0.728524 -4.75653 0
M  V30 9372 C 921.187 -1.17797 -5.07714 0
M  V30 9373 C 918.515 -1.80085 -5.58378 0
M  V30 9374 C 920.867 -2.24022 -5.91606 0
M  V30 9375 C 919.531 -2.55616 -6.16617 0
M  V30 9376 H 918.801 0.112945 -0.732342 0
M  V30 9377 H 921.448 -0.419744 -1.86843 0
M  V30 9378 H 919.753 1.51859 -3.61173 0
M  V30 9379 H 921.45 1.19277 -3.8285 0
M  V30 9380 H 918.04 -0.167034 -4.28274 0
M  V30 9381 H 922.224 -0.951835 -4.87087 0
M  V30 9382 H 917.48 -2.05036 -5.75995 0
M  V30 9383 H 921.654 -2.83317 -6.36164 0
M  V30 9384 H 919.281 -3.38839 -6.80509 0
M  V30 9385 N 920.856 1.57574 -0.0284266 0
M  V30 9386 C 921.804 2.11332 0.971675 0
M  V30 9387 C 922.798 1.03974 1.33738 0
M  V30 9388 O 924.004 1.22409 1.31969 0
M  V30 9389 H 920.379 0.675174 0.331125 0
M  V30 9390 H 922.35 2.943 0.49296 0
M  V30 9391 C 921.099 2.65496 2.24516 0
M  V30 9392 H 920.422 3.47753 1.9725 0
M  V30 9393 H 921.862 3.06757 2.92705 0
M  V30 9394 C 920.321 1.58207 2.97443 0
M  V30 9395 O 920.851 0.981496 3.89525 0
M  V30 9396 N 919.057 1.30269 2.59766 0
M  V30 9397 H 918.604 1.79294 1.84963 0
M  V30 9398 H 918.562 0.587085 3.0887 0
M  V30 9399 N 922.334 -0.244713 1.55689 0
M  V30 9400 C 923.297 -1.2864 1.89695 0
M  V30 9401 C 924.297 -1.40969 0.773583 0
M  V30 9402 O 925.487 -1.39632 1.04156 0
M  V30 9403 C 922.619 -2.66379 2.12732 0
M  V30 9404 H 923.812 -0.997033 2.82841 0
M  V30 9405 H 921.365 -0.484103 1.48614 0
M  V30 9406 H 922.1 -3.00452 1.22062 0
M  V30 9407 H 921.885 -2.58812 2.94549 0
M  V30 9408 H 923.375 -3.41592 2.40218 0
M  V30 9409 N 923.813 -1.49104 -0.510467 0
M  V30 9410 C 924.743 -1.67981 -1.62187 0
M  V30 9411 C 925.724 -0.528529 -1.6168 0
M  V30 9412 O 926.909 -0.763305 -1.7857 0
M  V30 9413 C 924.039 -1.73755 -3.0071 0
M  V30 9414 C 922.993 -2.88579 -3.1608 0
M  V30 9415 C 922.319 -2.79457 -4.5586 0
M  V30 9416 C 923.619 -4.29638 -2.97 0
M  V30 9417 H 925.313 -2.61029 -1.46643 0
M  V30 9418 H 922.859 -1.25615 -0.704042 0
M  V30 9419 H 924.812 -1.85548 -3.78352 0
M  V30 9420 H 923.536 -0.772996 -3.17321 0
M  V30 9421 H 922.195 -2.76372 -2.40861 0
M  V30 9422 H 921.843 -1.80929 -4.69333 0
M  V30 9423 H 921.543 -3.56518 -4.67086 0
M  V30 9424 H 923.067 -2.93245 -5.35574 0
M  V30 9425 H 924.481 -4.42575 -3.64418 0
M  V30 9426 H 922.878 -5.07847 -3.19704 0
M  V30 9427 H 923.948 -4.44741 -1.93219 0
M  V30 9428 N 925.291 0.760815 -1.38019 0
M  V30 9429 C 926.54 1.51506 -1.3315 0
M  V30 9430 C 926.853 1.95444 0.0782124 0
M  V30 9431 O 928.059 2.70352 0.249418 0
M  V30 9432 C 926.515 2.73636 -2.33776 0
M  V30 9433 C 926.123 2.36753 -3.80332 0
M  V30 9434 C 927.867 3.51548 -2.37937 0
M  V30 9435 C 925.774 3.55451 -4.72661 0
M  V30 9436 H 924.704 0.568844 -0.494907 0
M  V30 9437 H 927.355 0.832343 -1.63537 0
M  V30 9438 H 925.737 3.43852 -1.96422 0
M  V30 9439 H 926.911 1.7425 -4.26584 0
M  V30 9440 H 925.226 1.71991 -3.7922 0
M  V30 9441 H 927.823 4.39791 -3.04119 0
M  V30 9442 H 928.166 3.9219 -1.39617 0
M  V30 9443 H 928.699 2.88339 -2.74054 0
M  V30 9444 H 925.438 3.19882 -5.7215 0
M  V30 9445 H 924.958 4.17022 -4.31107 0
M  V30 9446 H 926.637 4.22125 -4.90326 0
M  V30 9447 N 926.769 1.22769 0.988202 0
M  V30 9448 C 928.018 1.0492 1.72263 0
M  V30 9449 C 928.331 -0.415282 1.91141 0
M  V30 9450 O 929.537 -0.713547 2.61956 0
M  V30 9451 C 927.993 1.82891 3.09966 0
M  V30 9452 C 927.601 3.33618 2.99003 0
M  V30 9453 C 929.345 1.73505 3.87423 0
M  V30 9454 C 927.252 4.04012 4.3189 0
M  V30 9455 H 926.182 0.38899 0.645912 0
M  V30 9456 H 928.833 1.46664 1.10281 0
M  V30 9457 H 927.215 1.33948 3.72658 0
M  V30 9458 H 928.389 3.8999 2.45448 0
M  V30 9459 H 926.704 3.43732 2.35027 0
M  V30 9460 H 929.301 2.23416 4.85787 0
M  V30 9461 H 929.644 0.696344 4.10435 0
M  V30 9462 H 930.177 2.20016 3.31418 0
M  V30 9463 H 926.916 5.08155 4.14075 0
M  V30 9464 H 926.436 3.52428 4.8534 0
M  V30 9465 H 928.115 4.0987 5.00615 0
M  V30 9466 N 928.247 -1.18576 1.03814 0
M  V30 9467 C 929.493 -1.88773 0.741132 0
M  V30 9468 C 929.826 -1.79993 -0.729127 0
M  V30 9469 O 929.101 -1.19851 -1.53186 0
M  V30 9470 C 929.384 -3.39352 1.20468 0
M  V30 9471 C 929.237 -3.56955 2.73684 0
M  V30 9472 C 930.556 -4.32901 0.792741 0
M  V30 9473 H 927.675 -0.685482 0.270708 0
M  V30 9474 H 930.317 -1.39523 1.2897 0
M  V30 9475 H 928.467 -3.81427 0.737974 0
M  V30 9476 H 930.139 -3.2399 3.28372 0
M  V30 9477 H 928.382 -2.99696 3.13632 0
M  V30 9478 H 929.053 -4.62598 3.01176 0
M  V30 9479 H 931.529 -3.98592 1.1943 0
M  V30 9480 H 930.405 -5.36828 1.14486 0
M  V30 9481 H 930.666 -4.41052 -0.304295 0
M  V30 9482 N 929.725 -0.817259 -1.34754 0
M  V30 9483 C 930.972 -0.402648 -1.98457 0
M  V30 9484 C 931.3 1.03287 -1.64809 0
M  V30 9485 O 930.555 1.73316 -0.908851 0
M  V30 9486 C 930.854 -0.5453 -3.53216 0
M  V30 9487 C 930.52 -1.9457 -4.06759 0
M  V30 9488 C 929.182 -2.32881 -4.21094 0
M  V30 9489 C 931.534 -2.86141 -4.35629 0
M  V30 9490 C 928.862 -3.62108 -4.61622 0
M  V30 9491 C 931.214 -4.14826 -4.776 0
M  V30 9492 C 929.878 -4.53121 -4.9014 0
M  V30 9493 H 929.148 -0.147339 -0.726204 0
M  V30 9494 H 931.795 -1.04011 -1.60791 0
M  V30 9495 H 930.1 0.175576 -3.91406 0
M  V30 9496 H 931.797 -0.205112 -4.00475 0
M  V30 9497 H 928.387 -1.6381 -3.96061 0
M  V30 9498 H 932.571 -2.57788 -4.24098 0
M  V30 9499 H 927.827 -3.91613 -4.69521 0
M  V30 9500 H 932.001 -4.85874 -4.98899 0
M  V30 9501 H 929.628 -5.53307 -5.21302 0
M  V30 9502 N 931.203 1.46865 -0.571711 0
M  V30 9503 C 932.133 2.3298 0.155795 0
M  V30 9504 C 933.114 1.44678 0.894553 0
M  V30 9505 O 934.299 1.73513 0.872176 0
M  V30 9506 C 931.429 3.26745 1.17708 0
M  V30 9507 C 930.383 4.24401 0.553863 0
M  V30 9508 C 929.709 5.07595 1.68083 0
M  V30 9509 C 931.009 5.19884 -0.501827 0
M  V30 9510 H 932.703 2.94056 -0.563176 0
M  V30 9511 H 930.249 1.41402 -0.27228 0
M  V30 9512 H 932.202 3.85838 1.6943 0
M  V30 9513 H 930.926 2.63753 1.92618 0
M  V30 9514 H 929.585 3.66554 0.057815 0
M  V30 9515 H 929.233 4.40996 2.41933 0
M  V30 9516 H 928.933 5.73722 1.26953 0
M  V30 9517 H 930.457 5.6955 2.20103 0
M  V30 9518 H 931.871 5.73257 -0.0701057 0
M  V30 9519 H 930.268 5.94293 -0.832815 0
M  V30 9520 H 931.338 4.64482 -1.39229 0
M  V30 9521 N 932.681 0.308908 1.54543 0
M  V30 9522 C 933.93 -0.298854 1.99474 0
M  V30 9523 C 934.243 -1.54393 1.20093 0
M  V30 9524 O 935.449 -2.22677 1.55329 0
M  V30 9525 C 933.905 -0.58303 3.55146 0
M  V30 9526 C 933.513 0.644157 4.43345 0
M  V30 9527 C 935.257 -1.15155 4.08582 0
M  V30 9528 C 933.164 0.332694 5.90463 0
M  V30 9529 H 932.094 -0.115445 0.74511 0
M  V30 9530 H 934.745 0.418848 1.78656 0
M  V30 9531 H 933.127 -1.36053 3.71894 0
M  V30 9532 H 934.301 1.42012 4.38371 0
M  V30 9533 H 932.616 1.13186 4.00722 0
M  V30 9534 H 935.213 -1.39896 5.16075 0
M  V30 9535 H 935.556 -2.09632 3.59667 0
M  V30 9536 H 936.089 -0.435571 3.95408 0
M  V30 9537 H 932.828 1.24624 6.43544 0
M  V30 9538 H 932.348 -0.405844 5.98425 0
M  V30 9539 H 934.027 -0.0628545 6.46969 0
M  V30 9540 N 934.159 -1.57557 0.0367827 0
M  V30 9541 C 935.57 -1.79853 -0.500971 0
M  V30 9542 C 935.921 -0.947749 -1.71791 0
M  V30 9543 O 935.046 -0.160287 -2.15806 0
M  V30 9544 C 935.641 -3.26193 -0.915626 0
M  V30 9545 C 934.2 -3.49457 -1.39845 0
M  V30 9546 C 933.347 -2.74864 -0.366784 0
M  V30 9547 H 936.298 -1.56509 0.262768 0
M  V30 9548 H 936.319 -3.36324 -1.7795 0
M  V30 9549 H 935.831 -3.88089 -0.0297227 0
M  V30 9550 H 933.932 -2.92823 -2.30402 0
M  V30 9551 H 934.045 -4.58172 -1.40054 0
M  V30 9552 H 932.409 -2.4057 -0.836554 0
M  V30 9553 H 933.192 -3.39479 0.510785 0
M  V30 9554 N 935.637 0.236453 -1.55816 0
M  V30 9555 C 936.567 1.29639 -1.94206 0
M  V30 9556 C 937.548 1.49667 -0.808319 0
M  V30 9557 O 938.733 1.621 -1.06945 0
M  V30 9558 C 935.863 2.64914 -2.24584 0
M  V30 9559 C 934.817 2.59565 -3.40308 0
M  V30 9560 C 934.143 3.98732 -3.56254 0
M  V30 9561 C 935.443 2.15642 -4.75706 0
M  V30 9562 H 937.137 0.977552 -2.82992 0
M  V30 9563 H 934.683 0.468804 -1.36155 0
M  V30 9564 H 936.636 3.39209 -2.50031 0
M  V30 9565 H 935.36 2.98455 -1.32636 0
M  V30 9566 H 934.019 1.87728 -3.14887 0
M  V30 9567 H 933.667 4.29556 -2.61707 0
M  V30 9568 H 933.367 3.96039 -4.34082 0
M  V30 9569 H 934.891 4.74711 -3.84033 0
M  V30 9570 H 936.305 2.79673 -5.00456 0
M  V30 9571 H 934.702 2.24039 -5.56711 0
M  V30 9572 H 935.772 1.10831 -4.72064 0
M  V30 9573 N 937.115 1.49373 0.502552 0
M  V30 9574 C 938.078 1.65413 1.58654 0
M  V30 9575 C 939.078 0.526003 1.51953 0
M  V30 9576 O 940.268 0.792421 1.55133 0
M  V30 9577 C 937.4 1.65005 2.98306 0
M  V30 9578 H 938.593 2.62095 1.45762 0
M  V30 9579 H 936.146 1.38381 0.726672 0
M  V30 9580 H 936.881 0.699014 3.16677 0
M  V30 9581 H 936.666 2.46931 3.04578 0
M  V30 9582 H 938.156 1.79477 3.77065 0
M  V30 9583 N 938.594 -0.753485 1.38421 0
M  V30 9584 C 939.524 -1.8808 1.38377 0
M  V30 9585 C 940.505 -1.68258 0.249664 0
M  V30 9586 O 941.69 -1.88848 0.45276 0
M  V30 9587 C 938.82 -3.25608 1.20818 0
M  V30 9588 C 937.774 -3.60032 2.31433 0
M  V30 9589 C 937.1 -4.96297 1.9898 0
M  V30 9590 C 938.4 -3.64898 3.73694 0
M  V30 9591 H 940.094 -1.88375 2.32713 0
M  V30 9592 H 937.64 -0.90489 1.12017 0
M  V30 9593 H 939.593 -4.04127 1.19412 0
M  V30 9594 H 938.317 -3.25793 0.229433 0
M  V30 9595 H 936.976 -2.83831 2.32025 0
M  V30 9596 H 936.624 -4.93043 0.995889 0
M  V30 9597 H 936.324 -5.20298 2.73063 0
M  V30 9598 H 937.848 -5.77196 1.99193 0
M  V30 9599 H 939.262 -4.33531 3.75132 0
M  V30 9600 H 937.659 -4.00407 4.46983 0
M  V30 9601 H 938.729 -2.65124 4.06002 0
M  V30 9602 N 940.072 -1.23292 -0.981677 0
M  V30 9603 C 941.019 -1.01296 -2.07383 0
M  V30 9604 C 941.989 0.069139 -1.65956 0
M  V30 9605 O 943.174 -0.0827108 -1.90621 0
M  V30 9606 C 940.314 -0.608876 -3.39686 0
M  V30 9607 C 939.427 -1.76296 -3.9439 0
M  V30 9608 C 938.562 -1.30578 -5.14901 0
M  V30 9609 C 937.601 -2.4307 -5.61768 0
M  V30 9610 N 936.738 -1.98319 -6.73509 0
M  V30 9611 H 941.578 -1.9478 -2.25532 0
M  V30 9612 H 939.115 -0.970356 -1.10555 0
M  V30 9613 H 941.073 -0.355702 -4.15681 0
M  V30 9614 H 939.703 0.288961 -3.21504 0
M  V30 9615 H 938.755 -2.13017 -3.15163 0
M  V30 9616 H 940.067 -2.60871 -4.25145 0
M  V30 9617 H 939.221 -1.01066 -5.98223 0
M  V30 9618 H 937.96 -0.430386 -4.85797 0
M  V30 9619 H 936.965 -2.73358 -4.77028 0
M  V30 9620 H 938.19 -3.31144 -5.92892 0
M  V30 9621 H 936.136 -1.13157 -6.46167 0
M  V30 9622 H 936.053 -2.76454 -7.0364 0
M  V30 9623 H 937.321 -1.71907 -7.60308 0
M  V30 9624 N 941.55 1.18024 -1.04442 0
M  V30 9625 C 942.798 1.87727 -0.74854 0
M  V30 9626 C 943.119 1.80975 0.726156 0
M  V30 9627 O 942.389 1.23061 1.52423 0
M  V30 9628 H 940.969 0.694974 -0.273897 0
M  V30 9629 H 943.631 1.43213 -1.32197 0
M  V30 9630 H 942.727 2.93665 -1.05674 0
M  V30 9631 N 943.028 0.824394 1.34319 0
M  V30 9632 C 944.274 0.413779 1.98534 0
M  V30 9633 C 944.607 -1.02089 1.65201 0
M  V30 9634 O 943.882 -1.71129 0.924402 0
M  V30 9635 C 944.165 0.61801 3.54757 0
M  V30 9636 C 944.018 2.0989 3.97827 0
M  V30 9637 C 945.337 0.0549041 4.40066 0
M  V30 9638 H 942.456 0.151815 0.721194 0
M  V30 9639 H 945.098 1.03723 1.5919 0
M  V30 9640 H 943.248 0.0873107 3.88402 0
M  V30 9641 H 944.92 2.69335 3.74508 0
M  V30 9642 H 943.163 2.58881 3.48085 0
M  V30 9643 H 943.834 2.1926 5.06586 0
M  V30 9644 H 946.31 0.508348 4.12983 0
M  V30 9645 H 945.186 0.227595 5.48428 0
M  V30 9646 H 945.447 -1.04025 4.29687 0
M  V30 9647 N 944.506 -1.46559 0.579492 0
M  V30 9648 C 945.731 -2.0729 0.0674595 0
M  V30 9649 C 946.156 -1.4259 -1.22677 0
M  V30 9650 O 945.514 -0.50857 -1.74021 0
M  V30 9651 C 945.562 -3.60492 -0.0882227 0
M  V30 9652 O 944.666 -3.96172 -1.14551 0
M  V30 9653 H 944.007 -0.661159 0.0613536 0
M  V30 9654 H 946.537 -1.88247 0.801519 0
M  V30 9655 H 946.547 -4.06929 -0.295411 0
M  V30 9656 H 945.222 -4.06976 0.856943 0
M  V30 9657 H 943.799 -3.61448 -0.917033 0
M  V30 9658 N 945.984 -0.3171 -1.54377 0
M  V30 9659 C 947.214 0.289138 -2.04567 0
M  V30 9660 C 947.622 1.46833 -1.19318 0
M  V30 9661 O 946.965 1.82436 -0.215141 0
M  V30 9662 C 947.027 0.792994 -3.50645 0
M  V30 9663 C 946.691 -0.263033 -4.56242 0
M  V30 9664 C 947.688 -1.09694 -5.08196 0
M  V30 9665 C 945.373 -0.409364 -5.00629 0
M  V30 9666 C 947.367 -2.06297 -6.03092 0
M  V30 9667 C 945.054 -1.37882 -5.95342 0
M  V30 9668 C 946.052 -2.20409 -6.46459 0
M  V30 9669 O 945.74 -3.15708 -7.39313 0
M  V30 9670 H 945.472 0.0644005 -0.672925 0
M  V30 9671 H 948.026 -0.459438 -2.00196 0
M  V30 9672 H 946.256 1.59237 -3.52392 0
M  V30 9673 H 947.945 1.31687 -3.83944 0
M  V30 9674 H 948.711 -0.994842 -4.74687 0
M  V30 9675 H 944.59 0.223091 -4.6046 0
M  V30 9676 H 948.134 -2.70751 -6.42915 0
M  V30 9677 H 944.031 -1.48158 -6.28267 0
M  V30 9678 H 944.799 -3.10873 -7.57166 0
M  V30 9679 N 947.462 1.57535 -0.0451378 0
M  V30 9680 C 948.409 2.11176 0.931313 0
M  V30 9681 C 949.379 1.01765 1.31275 0
M  V30 9682 O 950.564 1.29279 1.40327 0
M  V30 9683 C 947.704 2.65639 2.20295 0
M  V30 9684 C 946.817 3.89114 1.87654 0
M  V30 9685 C 945.952 4.31914 3.09232 0
M  V30 9686 C 944.991 5.48105 2.72484 0
M  V30 9687 N 944.128 5.85986 3.86736 0
M  V30 9688 H 948.968 2.94318 0.466986 0
M  V30 9689 H 946.505 1.45462 0.218886 0
M  V30 9690 H 948.463 2.95312 2.94697 0
M  V30 9691 H 947.093 1.85303 2.64316 0
M  V30 9692 H 946.145 3.6607 1.03427 0
M  V30 9693 H 947.457 4.7358 1.56601 0
M  V30 9694 H 946.611 4.63108 3.91939 0
M  V30 9695 H 945.35 3.46247 3.43459 0
M  V30 9696 H 944.355 5.16589 1.88192 0
M  V30 9697 H 945.58 6.35482 2.39455 0
M  V30 9698 H 943.526 5.03273 4.20775 0
M  V30 9699 H 943.443 6.65129 3.5936 0
M  V30 9700 H 944.711 6.21793 4.701 0
M  V30 9701 N 948.94 -0.228186 1.55939 0
M  V30 9702 C 950.351 -0.795734 1.68893 0
M  V30 9703 C 950.702 -1.85261 0.645967 0
M  V30 9704 O 949.827 -2.15434 -0.2042 0
M  V30 9705 C 950.422 -1.45013 3.06197 0
M  V30 9706 C 948.981 -1.96514 3.21028 0
M  V30 9707 C 948.128 -0.822918 2.64808 0
M  V30 9708 H 951.079 -0.0036485 1.587 0
M  V30 9709 H 951.1 -2.31875 3.01685 0
M  V30 9710 H 950.612 -0.680678 3.82084 0
M  V30 9711 H 948.713 -2.76282 2.49998 0
M  V30 9712 H 948.826 -2.14967 4.28166 0
M  V30 9713 H 947.19 -1.22846 2.23116 0
M  V30 9714 H 947.973 -0.0662493 3.43236 0
M  V30 9715 N 950.418 -1.49637 -0.494624 0
M  V30 9716 C 951.348 -1.69692 -1.60396 0
M  V30 9717 C 952.329 -0.545648 -1.61111 0
M  V30 9718 O 953.514 -0.782202 -1.77751 0
M  V30 9719 C 950.644 -1.76934 -2.9885 0
M  V30 9720 C 949.598 -2.91915 -3.13001 0
M  V30 9721 C 948.924 -2.84276 -4.5287 0
M  V30 9722 C 950.224 -4.32764 -2.92426 0
M  V30 9723 H 951.918 -2.6257 -1.43866 0
M  V30 9724 H 949.464 -1.26355 -0.690679 0
M  V30 9725 H 951.417 -1.8955 -3.76362 0
M  V30 9726 H 950.141 -0.806609 -3.16483 0
M  V30 9727 H 948.8 -2.78911 -2.37916 0
M  V30 9728 H 948.448 -1.85897 -4.67388 0
M  V30 9729 H 948.148 -3.61452 -4.63278 0
M  V30 9730 H 949.672 -2.98909 -5.32434 0
M  V30 9731 H 951.086 -4.46415 -3.59703 0
M  V30 9732 H 949.483 -5.1121 -3.143 0
M  V30 9733 H 950.553 -4.46765 -1.88491 0
M  V30 9734 N 951.896 0.746133 -1.38819 0
M  V30 9735 C 953.124 1.53539 -1.38685 0
M  V30 9736 C 953.539 1.88788 0.0215039 0
M  V30 9737 O 952.896 1.53312 0.990031 0
M  V30 9738 C 952.947 2.8299 -2.24942 0
M  V30 9739 O 952.668 2.49242 -3.60292 0
M  V30 9740 C 954.169 3.77085 -2.3307 0
M  V30 9741 H 951.389 0.474842 -0.474095 0
M  V30 9742 H 953.933 0.922844 -1.82493 0
M  V30 9743 H 952.088 3.40603 -1.84576 0
M  V30 9744 H 952.502 3.32319 -4.05789 0
M  V30 9745 H 953.976 4.64845 -2.97696 0
M  V30 9746 H 954.453 4.18049 -1.34655 0
M  V30 9747 H 955.059 3.25394 -2.73859 0
M  V30 9748 N 953.375 1.23811 0.975125 0
M  V30 9749 C 954.338 1.02505 2.05001 0
M  V30 9750 C 955.338 -0.0150084 1.60793 0
M  V30 9751 O 956.528 0.225246 1.72738 0
M  V30 9752 C 953.66 0.552087 3.364 0
M  V30 9753 H 954.853 1.979 2.25335 0
M  V30 9754 H 952.406 1.05929 1.1493 0
M  V30 9755 H 953.141 -0.405394 3.21756 0
M  V30 9756 H 952.926 1.30267 3.69828 0
M  V30 9757 H 954.416 0.423828 4.15444 0
M  V30 9758 N 954.853 -1.17469 1.05066 0
M  V30 9759 C 956.078 -1.92162 0.780298 0
M  V30 9760 C 956.503 -1.76222 -0.657832 0
M  V30 9761 O 955.861 -1.0791 -1.45688 0
M  V30 9762 C 955.909 -3.41292 1.16414 0
M  V30 9763 O 955.013 -4.1134 0.295531 0
M  V30 9764 H 954.354 -0.599127 0.286257 0
M  V30 9765 H 956.884 -1.48903 1.40318 0
M  V30 9766 H 956.894 -3.92029 1.13036 0
M  V30 9767 H 955.569 -3.52214 2.21175 0
M  V30 9768 H 954.146 -3.70857 0.389797 0
M  V30 9769 N 956.331 -0.831506 -1.3388 0
M  V30 9770 C 957.294 -0.264773 -2.27666 0
M  V30 9771 C 958.294 0.562273 -1.50649 0
M  V30 9772 O 959.484 0.377131 -1.70069 0
M  V30 9773 C 956.616 0.627814 -3.35069 0
M  V30 9774 H 957.809 -1.09225 -2.79303 0
M  V30 9775 H 955.362 -0.604021 -1.44157 0
M  V30 9776 H 956.097 1.47802 -2.88661 0
M  V30 9777 H 955.882 0.0361552 -3.92083 0
M  V30 9778 H 957.372 1.01786 -4.05005 0
M  V30 9779 N 957.809 1.4625 -0.587256 0
M  V30 9780 C 958.742 2.27392 0.191837 0
M  V30 9781 C 959.72 1.35905 0.89267 0
M  V30 9782 O 960.904 1.65319 0.905643 0
M  V30 9783 C 958.031 3.13758 1.27567 0
M  V30 9784 C 957.077 4.21041 0.680186 0
M  V30 9785 S 957.91 5.33194 -0.496419 0
M  V30 9786 C 959.066 6.23127 0.588506 0
M  V30 9787 H 959.299 2.93123 -0.496635 0
M  V30 9788 H 956.832 1.49795 -0.37426 0
M  V30 9789 H 958.79 3.6408 1.8962 0
M  V30 9790 H 957.451 2.47332 1.93612 0
M  V30 9791 H 956.644 4.81316 1.49503 0
M  V30 9792 H 956.246 3.73755 0.135227 0
M  V30 9793 H 958.538 6.61294 1.47298 0
M  V30 9794 H 959.481 7.08096 0.0224093 0
M  V30 9795 H 959.889 5.57365 0.894696 0
M  V30 9796 N 959.287 0.325282 1.54207 0
M  V30 9797 C 960.217 -0.532574 2.27345 0
M  V30 9798 C 961.198 -1.11791 1.28206 0
M  V30 9799 O 962.383 -1.14272 1.57021 0
M  V30 9800 C 959.513 -1.69274 3.03255 0
M  V30 9801 C 958.467 -1.23662 4.09746 0
M  V30 9802 C 957.793 -2.48386 4.73506 0
M  V30 9803 C 959.093 -0.350244 5.21124 0
M  V30 9804 H 960.787 0.0775108 2.993 0
M  V30 9805 H 958.333 0.0387193 1.43948 0
M  V30 9806 H 960.286 -2.29917 3.53152 0
M  V30 9807 H 959.01 -2.32944 2.28921 0
M  V30 9808 H 957.669 -0.653106 3.60735 0
M  V30 9809 H 957.317 -3.10424 3.95786 0
M  V30 9810 H 957.017 -2.18558 5.45441 0
M  V30 9811 H 958.541 -3.09789 5.26178 0
M  V30 9812 H 959.955 -0.863011 5.66767 0
M  V30 9813 H 958.352 -0.14466 5.99926 0
M  V30 9814 H 959.422 0.618457 4.8094 0
M  V30 9815 N 960.765 -1.57509 0.0534917 0
M  V30 9816 C 962.181 -1.56696 -0.303067 0
M  V30 9817 C 962.381 -1.06135 -1.71282 0
M  V30 9818 O 961.437 -0.71899 -2.42047 0
M  V30 9819 C 962.75 -3.00421 -0.129418 0
M  V30 9820 C 964.298 -3.12358 -0.200346 0
M  V30 9821 C 964.773 -4.57967 -0.0551971 0
M  V30 9822 N 966.264 -4.63066 -0.111398 0
M  V30 9823 C 966.999 -5.73395 -0.0232344 0
M  V30 9824 N 966.495 -6.92701 0.11741 0
M  V30 9825 N 968.288 -5.62045 -0.078984 0
M  V30 9826 H 960.439 -1.88696 0.975064 0
M  V30 9827 H 962.702 -0.869072 0.378706 0
M  V30 9828 H 962.408 -3.41456 0.842653 0
M  V30 9829 H 962.282 -3.66563 -0.889476 0
M  V30 9830 H 964.669 -2.71221 -1.16289 0
M  V30 9831 H 964.75 -2.48891 0.590506 0
M  V30 9832 H 964.394 -4.9979 0.904034 0
M  V30 9833 H 964.324 -5.19443 -0.865223 0
M  V30 9834 H 966.815 -3.77263 -0.219256 0
M  V30 9835 H 967.128 -7.72597 0.177326 0
M  V30 9836 H 965.473 -6.94833 0.152526 0
M  V30 9837 H 968.664 -4.67725 -0.187434 0
M  V30 9838 H 968.837 -6.48 -0.00681731 0
M  V30 9839 N 962.243 0.219913 -1.56058 0
M  V30 9840 C 963.659 0.569685 -1.49086 0
M  V30 9841 C 963.859 1.87066 -0.748903 0
M  V30 9842 O 962.915 2.50838 -0.289235 0
M  V30 9843 C 964.228 0.647397 -2.93648 0
M  V30 9844 C 965.776 0.737914 -3.04177 0
M  V30 9845 C 966.251 0.846957 -4.50101 0
M  V30 9846 N 967.742 0.911136 -4.5415 0
M  V30 9847 C 968.477 1.01525 -5.64341 0
M  V30 9848 N 967.973 1.0832 -6.8428 0
M  V30 9849 N 969.766 1.05051 -5.52196 0
M  V30 9850 H 961.917 -0.633778 -2.02724 0
M  V30 9851 H 964.18 -0.222583 -0.921499 0
M  V30 9852 H 963.886 -0.238987 -3.50887 0
M  V30 9853 H 963.76 1.51046 -3.45637 0
M  V30 9854 H 966.147 1.61474 -2.47002 0
M  V30 9855 H 966.228 -0.150845 -2.55355 0
M  V30 9856 H 965.872 -0.0254166 -5.07894 0
M  V30 9857 H 965.802 1.75116 -4.96631 0
M  V30 9858 H 968.293 0.868869 -3.67776 0
M  V30 9859 H 968.606 1.16247 -7.64007 0
M  V30 9860 H 966.951 1.05231 -6.86987 0
M  V30 9861 H 970.142 0.994086 -4.57423 0
M  V30 9862 H 970.315 1.12819 -6.38103 0
M  V30 9863 N 963.721 1.49897 0.486681 0
M  V30 9864 C 964.669 1.68125 1.60738 0
M  V30 9865 C 965.663 0.547097 1.60322 0
M  V30 9866 O 966.869 0.727153 1.64659 0
M  V30 9867 H 963.244 0.530391 0.533094 0
M  V30 9868 H 965.215 2.62165 1.42521 0
M  V30 9869 C 963.964 1.77827 2.98786 0
M  V30 9870 H 963.287 2.6448 2.99818 0
M  V30 9871 H 964.727 1.94611 3.76699 0
M  V30 9872 C 963.186 0.526287 3.32764 0
M  V30 9873 O 963.716 -0.341607 4.00245 0
M  V30 9874 N 961.922 0.384947 2.88039 0
M  V30 9875 H 961.469 1.09222 2.33299 0
M  V30 9876 H 961.427 -0.451618 3.11139 0
M  V30 9877 N 965.199 -0.738761 1.39212 0
M  V30 9878 C 966.129 -1.86602 1.40364 0
M  V30 9879 C 967.11 -1.67984 0.267495 0
M  V30 9880 O 968.295 -1.88358 0.472765 0
M  V30 9881 C 965.425 -3.24308 1.24265 0
M  V30 9882 C 964.379 -3.57557 2.35239 0
M  V30 9883 C 963.705 -4.94159 2.04233 0
M  V30 9884 C 965.005 -3.60914 3.77543 0
M  V30 9885 H 966.699 -1.85896 2.34698 0
M  V30 9886 H 964.245 -0.892959 1.1297 0
M  V30 9887 H 966.198 -4.02838 1.23692 0
M  V30 9888 H 964.922 -3.25531 0.263974 0
M  V30 9889 H 963.581 -2.81354 2.35022 0
M  V30 9890 H 963.229 -4.91959 1.04813 0
M  V30 9891 H 962.929 -5.17373 2.78567 0
M  V30 9892 H 964.453 -5.7505 2.05303 0
M  V30 9893 H 965.867 -4.29528 3.79709 0
M  V30 9894 H 964.264 -3.95644 4.51205 0
M  V30 9895 H 965.334 -2.60803 4.08791 0
M  V30 9896 N 966.677 -1.24326 -0.968545 0
M  V30 9897 C 967.923 -1.09413 -1.71465 0
M  V30 9898 C 968.278 0.363422 -1.88937 0
M  V30 9899 O 967.571 1.26486 -1.43916 0
M  V30 9900 C 967.765 -1.76644 -3.10695 0
M  V30 9901 C 967.594 -3.28787 -3.06805 0
M  V30 9902 C 966.364 -3.97995 -3.11333 0
M  V30 9903 C 968.562 -4.25389 -2.89047 0
M  V30 9904 N 966.544 -5.37024 -2.97453 0
M  V30 9905 C 967.915 -5.51411 -2.83454 0
M  V30 9906 C 969.97 -4.15976 -2.73621 0
M  V30 9907 C 968.673 -6.69096 -2.64013 0
M  V30 9908 C 970.699 -5.33338 -2.55547 0
M  V30 9909 C 970.061 -6.58291 -2.50663 0
M  V30 9910 H 966.16 -0.454986 -0.636012 0
M  V30 9911 H 968.744 -1.57228 -1.14837 0
M  V30 9912 H 966.915 -1.31344 -3.65518 0
M  V30 9913 H 968.647 -1.54599 -3.74007 0
M  V30 9914 H 965.402 -3.49155 -3.19981 0
M  V30 9915 H 965.826 -6.09948 -2.93756 0
M  V30 9916 H 970.468 -3.20131 -2.76181 0
M  V30 9917 H 968.186 -7.65064 -2.60197 0
M  V30 9918 H 971.772 -5.27904 -2.44557 0
M  V30 9919 H 970.652 -7.47575 -2.36856 0
M  V30 9920 N 968.156 1.1691 -1.05688 0
M  V30 9921 C 969.405 1.86629 -0.765022 0
M  V30 9922 C 969.718 1.82223 0.710918 0
M  V30 9923 O 970.924 2.47462 1.11691 0
M  V30 9924 C 969.38 3.34886 -1.3183 0
M  V30 9925 C 968.988 3.47781 -2.82404 0
M  V30 9926 C 970.732 4.099 -1.10372 0
M  V30 9927 C 968.639 4.9009 -3.31008 0
M  V30 9928 H 967.569 0.699082 -0.282491 0
M  V30 9929 H 970.22 1.31989 -1.27481 0
M  V30 9930 H 968.602 3.89094 -0.736312 0
M  V30 9931 H 969.776 3.03765 -3.46502 0
M  V30 9932 H 968.091 2.86193 -3.02461 0
M  V30 9933 H 970.688 5.14894 -1.4418 0
M  V30 9934 H 971.031 4.16279 -0.0417372 0
M  V30 9935 H 971.564 3.61913 -1.65117 0
M  V30 9936 H 968.303 4.88887 -4.36657 0
M  V30 9937 H 967.823 5.34756 -2.71655 0
M  V30 9938 H 969.502 5.58881 -3.25977 0
M  V30 9939 N 969.634 0.838594 1.33437 0
M  V30 9940 C 970.864 0.446995 2.01707 0
M  V30 9941 C 971.272 -0.956335 1.63251 0
M  V30 9942 O 970.615 -1.63289 0.841566 0
M  V30 9943 C 970.677 0.487707 3.56176 0
M  V30 9944 C 970.341 1.8471 4.18009 0
M  V30 9945 C 971.338 2.81028 4.374 0
M  V30 9946 C 969.023 2.13987 4.54439 0
M  V30 9947 C 971.017 4.04785 4.92369 0
M  V30 9948 C 968.704 3.38 5.09116 0
M  V30 9949 C 969.702 4.33216 5.28027 0
M  V30 9950 O 969.39 5.55036 5.81541 0
M  V30 9951 H 969.122 0.175799 0.652741 0
M  V30 9952 H 971.676 1.13265 1.71348 0
M  V30 9953 H 969.906 -0.254719 3.8586 0
M  V30 9954 H 971.595 0.113971 4.0574 0
M  V30 9955 H 972.361 2.5971 4.09604 0
M  V30 9956 H 968.24 1.40668 4.39014 0
M  V30 9957 H 971.784 4.79114 5.07046 0
M  V30 9958 H 967.681 3.59175 5.36343 0
M  V30 9959 H 968.449 5.56772 5.99956 0
M  V30 9960 N 971.112 -1.45937 0.595003 0
M  V30 9961 C 972.36 -2.01921 0.0851368 0
M  V30 9962 C 972.681 -1.46748 -1.28413 0
M  V30 9963 O 971.951 -0.656873 -1.84559 0
M  V30 9964 H 970.531 -0.746457 0.0284826 0
M  V30 9965 H 973.193 -1.78891 0.773561 0
M  V30 9966 H 972.289 -3.1209 0.0254002 0
M  V30 9967 N 972.59 -0.333456 -1.54032 0
M  V30 9968 C 973.52 0.52051 -2.27625 0
M  V30 9969 C 974.501 1.1111 -1.28797 0
M  V30 9970 O 975.686 1.13438 -1.57625 0
M  V30 9971 C 972.816 1.67663 -3.04149 0
M  V30 9972 C 971.77 1.21487 -4.10396 0
M  V30 9973 C 971.096 2.45872 -4.74817 0
M  V30 9974 C 972.396 0.322603 -5.21303 0
M  V30 9975 H 974.09 -0.0933823 -2.99254 0
M  V30 9976 H 971.636 -0.0463526 -1.43925 0
M  V30 9977 H 973.589 2.28041 -3.54366 0
M  V30 9978 H 972.313 2.31727 -2.30153 0
M  V30 9979 H 970.972 0.633966 -3.61077 0
M  V30 9980 H 970.62 3.0832 -3.97426 0
M  V30 9981 H 970.32 2.15662 -5.46593 0
M  V30 9982 H 971.844 3.06994 -5.27814 0
M  V30 9983 H 973.258 0.832942 -5.67217 0
M  V30 9984 H 971.655 0.112843 -5.99994 0
M  V30 9985 H 972.725 -0.643954 -4.80605 0
M  V30 9986 N 974.068 1.57479 -0.061844 0
M  V30 9987 C 975.316 1.92727 0.608336 0
M  V30 9988 C 975.637 0.941799 1.70749 0
M  V30 9989 O 974.907 -0.0116608 1.95897 0
M  V30 9990 H 973.487 0.71145 0.2277 0
M  V30 9991 H 976.149 1.94546 -0.117359 0
M  V30 9992 H 975.245 2.9426 1.04007 0
M  V30 9993 N 975.546 -0.211634 1.56173 0
M  V30 9994 C 976.794 -0.932704 1.7929 0
M  V30 9995 C 977.115 -1.84472 0.632076 0
M  V30 9996 O 976.385 -1.92739 -0.350519 0
M  V30 9997 H 974.965 -0.347393 0.661307 0
M  V30 9998 H 977.627 -0.22111 1.93642 0
M  V30 9999 H 976.723 -1.53365 2.71819 0
M  V30 10000 N 977.024 -1.50153 -0.478725 0
M  V30 10001 C 977.954 -1.71384 -1.58587 0
M  V30 10002 C 978.935 -0.562705 -1.60523 0
M  V30 10003 O 980.12 -0.80101 -1.76911 0
M  V30 10004 C 977.25 -1.80094 -2.96957 0
M  V30 10005 C 976.204 -2.95218 -3.09888 0
M  V30 10006 C 975.53 -2.89063 -4.49829 0
M  V30 10007 C 976.83 -4.35841 -2.8782 0
M  V30 10008 H 978.524 -2.64081 -1.41073 0
M  V30 10009 H 976.07 -1.27081 -0.677239 0
M  V30 10010 H 978.023 -1.93531 -3.74331 0
M  V30 10011 H 976.747 -0.840131 -3.1561 0
M  V30 10012 H 975.406 -2.81419 -2.34944 0
M  V30 10013 H 975.054 -1.90844 -4.6539 0
M  V30 10014 H 974.754 -3.66345 -4.59418 0
M  V30 10015 H 976.278 -3.04539 -5.29234 0
M  V30 10016 H 977.692 -4.50205 -3.54948 0
M  V30 10017 H 976.089 -5.14515 -3.0886 0
M  V30 10018 H 977.159 -4.48739 -1.83742 0
M  V30 10019 N 978.502 0.731368 -1.39602 0
M  V30 10020 C 979.432 1.85855 -1.41351 0
M  V30 10021 C 980.413 1.67839 -0.2764 0
M  V30 10022 O 981.598 1.88104 -0.482747 0
M  V30 10023 C 978.728 3.23644 -1.25983 0
M  V30 10024 C 977.682 3.56304 -2.37132 0
M  V30 10025 C 977.008 4.93069 -2.0685 0
M  V30 10026 C 978.308 3.58906 -3.79452 0
M  V30 10027 H 980.002 1.84648 -2.3568 0
M  V30 10028 H 977.548 0.886955 -1.13442 0
M  V30 10029 H 979.501 4.02176 -1.25826 0
M  V30 10030 H 978.225 3.25387 -0.281234 0
M  V30 10031 H 976.884 2.80104 -2.36511 0
M  V30 10032 H 976.532 4.91396 -1.0742 0
M  V30 10033 H 976.232 5.15888 -2.81306 0
M  V30 10034 H 977.756 5.73953 -2.0835 0
M  V30 10035 H 979.17 4.27508 -3.81982 0
M  V30 10036 H 977.567 3.93246 -4.53297 0
M  V30 10037 H 978.637 2.58631 -4.10168 0
M  V30 10038 N 979.98 1.24838 0.961938 0
M  V30 10039 C 981.226 1.09313 1.70817 0
M  V30 10040 C 981.559 -0.366244 1.90715 0
M  V30 10041 O 980.834 -1.27036 1.47282 0
M  V30 10042 C 981.117 1.83988 3.09549 0
M  V30 10043 C 980.97 3.3771 2.97106 0
M  V30 10044 C 982.289 1.61718 4.09311 0
M  V30 10045 H 979.408 0.398498 0.619974 0
M  V30 10046 H 982.05 1.53579 1.11864 0
M  V30 10047 H 980.2 1.46363 3.59875 0
M  V30 10048 H 981.872 3.84967 2.54161 0
M  V30 10049 H 980.115 3.65795 2.33187 0
M  V30 10050 H 980.786 3.85166 3.95412 0
M  V30 10051 H 983.262 1.94458 3.67866 0
M  V30 10052 H 982.138 2.16415 5.04436 0
M  V30 10053 H 982.399 0.55677 4.3858 0
M  V30 10054 N 981.458 -1.16348 1.06306 0
M  V30 10055 C 982.869 -1.68491 0.80422 0
M  V30 10056 C 983.22 -1.84327 -0.672159 0
M  V30 10057 O 982.345 -1.53892 -1.52139 0
M  V30 10058 C 982.94 -3.06048 1.45328 0
M  V30 10059 C 981.499 -3.55311 1.24221 0
M  V30 10060 C 980.646 -2.31291 1.5297 0
M  V30 10061 H 983.597 -1.00708 1.22652 0
M  V30 10062 H 983.618 -3.70451 0.868674 0
M  V30 10063 H 983.13 -2.9449 2.52779 0
M  V30 10064 H 981.231 -3.72128 0.187447 0
M  V30 10065 H 981.344 -4.37397 1.95502 0
M  V30 10066 H 979.708 -2.3631 0.950241 0
M  V30 10067 H 980.491 -2.22331 2.6158 0
M  V30 10068 N 982.937 -0.845659 -1.3299 0
M  V30 10069 C 984.184 -0.444653 -1.97558 0
M  V30 10070 C 984.512 0.997682 -1.66963 0
M  V30 10071 O 983.767 1.71349 -0.94541 0
M  V30 10072 C 984.066 -0.6201 -3.51979 0
M  V30 10073 C 983.732 -2.03155 -4.02541 0
M  V30 10074 C 982.394 -2.4176 -4.16059 0
M  V30 10075 C 984.746 -2.95317 -4.29462 0
M  V30 10076 C 982.074 -3.71818 -4.53837 0
M  V30 10077 C 984.426 -4.24863 -4.68694 0
M  V30 10078 C 983.09 -4.63416 -4.80419 0
M  V30 10079 H 982.36 -0.16271 -0.722915 0
M  V30 10080 H 985.007 -1.07399 -1.58549 0
M  V30 10081 H 983.312 0.092513 -3.91691 0
M  V30 10082 H 985.009 -0.290012 -3.9995 0
M  V30 10083 H 981.599 -1.72174 -3.92497 0
M  V30 10084 H 985.783 -2.66726 -4.18534 0
M  V30 10085 H 981.039 -4.01484 -4.61108 0
M  V30 10086 H 985.213 -4.96347 -4.8848 0
M  V30 10087 H 982.84 -5.6424 -5.09448 0
M  V30 10088 N 984.415 1.45619 -0.602734 0
M  V30 10089 C 985.664 2.01483 -0.0936395 0
M  V30 10090 C 985.977 1.47753 1.28173 0
M  V30 10091 O 987.183 1.95562 1.88329 0
M  V30 10092 C 985.639 3.59711 -0.116738 0
M  V30 10093 C 985.247 4.22437 -1.49166 0
M  V30 10094 C 986.991 4.23157 0.337368 0
M  V30 10095 C 984.898 5.72803 -1.47141 0
M  V30 10096 H 983.828 0.753353 -0.0312382 0
M  V30 10097 H 986.479 1.67142 -0.757347 0
M  V30 10098 H 984.861 3.91218 0.613529 0
M  V30 10099 H 986.035 4.02511 -2.24325 0
M  V30 10100 H 984.35 3.71166 -1.88746 0
M  V30 10101 H 986.947 5.33407 0.371628 0
M  V30 10102 H 987.29 3.93491 1.35906 0
M  V30 10103 H 987.823 3.96349 -0.339474 0
M  V30 10104 H 984.562 6.07161 -2.47055 0
M  V30 10105 H 984.082 5.94936 -0.762329 0
M  V30 10106 H 985.761 6.35907 -1.19294 0
M  V30 10107 N 985.893 0.34162 1.53853 0
M  V30 10108 C 987.141 -0.254979 2.00485 0
M  V30 10109 C 987.462 -1.51222 1.23114 0
M  V30 10110 O 986.732 -1.92966 0.337787 0
M  V30 10111 H 985.312 -0.0972084 0.740648 0
M  V30 10112 H 987.974 0.462332 1.89337 0
M  V30 10113 H 987.07 -0.498778 3.08089 0
M  V30 10114 N 987.371 -1.57444 0.0701946 0
M  V30 10115 C 988.62 -1.92605 -0.598849 0
M  V30 10116 C 988.933 -0.952058 -1.70866 0
M  V30 10117 O 990.139 -1.19643 -2.43716 0
M  V30 10118 C 988.595 -3.42142 -1.11655 0
M  V30 10119 C 988.203 -4.47984 -0.0378355 0
M  V30 10120 C 989.947 -3.86307 -1.75975 0
M  V30 10121 C 987.854 -5.88652 -0.569495 0
M  V30 10122 H 986.784 -0.718873 -0.22746 0
M  V30 10123 H 989.435 -1.82948 0.14217 0
M  V30 10124 H 987.817 -3.46866 -1.91049 0
M  V30 10125 H 988.991 -4.54874 0.736661 0
M  V30 10126 H 987.306 -4.13277 0.50904 0
M  V30 10127 H 989.903 -4.88784 -2.16782 0
M  V30 10128 H 990.246 -3.23587 -2.61911 0
M  V30 10129 H 990.779 -3.84179 -1.03206 0
M  V30 10130 H 987.518 -6.55013 0.252662 0
M  V30 10131 H 987.038 -5.85285 -1.31155 0
M  V30 10132 H 988.717 -6.38482 -1.04641 0
M  V30 10133 N 988.849 0.203349 -1.56283 0
M  V30 10134 C 989.796 1.25205 -1.93888 0
M  V30 10135 C 990.766 1.45654 -0.798376 0
M  V30 10136 O 991.951 1.58924 -1.05583 0
M  V30 10137 C 989.091 2.59355 -2.27659 0
M  V30 10138 C 988.204 2.46553 -3.54733 0
M  V30 10139 C 987.339 3.73351 -3.77865 0
M  V30 10140 C 986.378 3.55347 -4.98392 0
M  V30 10141 N 985.515 4.74137 -5.17821 0
M  V30 10142 H 990.355 0.924356 -2.83301 0
M  V30 10143 H 987.892 0.445082 -1.40205 0
M  V30 10144 H 989.85 3.375 -2.45254 0
M  V30 10145 H 988.48 2.90184 -1.41396 0
M  V30 10146 H 987.532 1.59749 -3.45231 0
M  V30 10147 H 988.844 2.2918 -4.43033 0
M  V30 10148 H 987.998 4.59937 -3.95655 0
M  V30 10149 H 986.737 3.9367 -2.8788 0
M  V30 10150 H 985.742 2.67146 -4.80534 0
M  V30 10151 H 986.967 3.36482 -5.89879 0
M  V30 10152 H 984.913 4.94735 -4.30782 0
M  V30 10153 H 984.83 4.59558 -6.00285 0
M  V30 10154 H 986.098 5.62098 -5.40061 0
M  V30 10155 N 990.327 1.50405 0.470755 0
M  V30 10156 C 991.573 1.6165 1.22462 0
M  V30 10157 C 991.906 0.316034 1.91611 0
M  V30 10158 O 991.181 -0.682509 1.82132 0
M  V30 10159 C 991.464 2.79702 2.26801 0
M  V30 10160 C 991.317 4.19631 1.61955 0
M  V30 10161 C 992.636 2.93313 3.28109 0
M  V30 10162 H 989.755 0.588345 0.443868 0
M  V30 10163 H 992.397 1.82792 0.518376 0
M  V30 10164 H 990.547 2.61807 2.87036 0
M  V30 10165 H 992.219 4.49117 1.05316 0
M  V30 10166 H 990.462 4.23874 0.922674 0
M  V30 10167 H 991.133 4.98162 2.37779 0
M  V30 10168 H 993.609 3.09697 2.77897 0
M  V30 10169 H 992.485 3.77537 3.98443 0
M  V30 10170 H 992.746 2.03942 3.9225 0
M  V30 10171 N 991.805 -0.723954 1.39988 0
M  V30 10172 C 993.054 -1.47922 1.3712 0
M  V30 10173 C 993.367 -1.95582 -0.0263665 0
M  V30 10174 O 994.573 -2.70918 -0.177652 0
M  V30 10175 C 993.029 -2.67342 2.40949 0
M  V30 10176 C 992.637 -2.26586 3.86475 0
M  V30 10177 C 994.381 -3.45116 2.47174 0
M  V30 10178 C 992.288 -3.42794 4.81919 0
M  V30 10179 H 991.218 -0.555522 0.509815 0
M  V30 10180 H 993.869 -0.788692 1.65686 0
M  V30 10181 H 992.251 -3.38524 2.0547 0
M  V30 10182 H 993.425 -1.62878 4.31054 0
M  V30 10183 H 991.74 -1.61876 3.83647 0
M  V30 10184 H 994.337 -4.31573 3.15672 0
M  V30 10185 H 994.68 -3.8835 1.49966 0
M  V30 10186 H 995.213 -2.80971 2.81602 0
M  V30 10187 H 991.952 -3.046 5.8043 0
M  V30 10188 H 991.472 -4.05445 4.42012 0
M  V30 10189 H 993.151 -4.08977 5.01345 0
M  V30 10190 N 993.283 -1.25346 -0.955304 0
M  V30 10191 C 994.56 -1.00829 -1.67609 0
M  V30 10192 C 994.94 0.465675 -2.059 0
M  V30 10193 O 994.288 1.44287 -1.77182 0
M  V30 10194 C 994.498 -1.94337 -2.89886 0
M  V30 10195 C 995.846 -2.22142 -3.61854 0
M  V30 10196 O 996.87 -1.9209 -2.99967 0
M  V30 10197 O 995.729 -2.73239 -4.73289 0
M  V30 10198 H 992.823 -0.382314 -0.733325 0
M  V30 10199 H 995.369 -1.36498 -1.00829 0
M  V30 10200 H 994.141 -2.93867 -2.58376 0
M  V30 10201 H 993.764 -1.59062 -3.64397 0
M  V30 10202 N 994.761 1.15782 -1.06922 0
M  V30 10203 C 995.691 2.22538 -0.707045 0
M  V30 10204 C 996.672 1.67371 0.303471 0
M  V30 10205 O 997.857 1.9339 0.177189 0
M  V30 10206 C 994.987 3.47158 -0.0994269 0
M  V30 10207 C 993.941 4.15257 -1.03661 0
M  V30 10208 C 993.267 5.33902 -0.291974 0
M  V30 10209 C 994.567 4.65516 -2.36837 0
M  V30 10210 H 996.261 2.53089 -1.59958 0
M  V30 10211 H 993.807 1.21649 -0.770552 0
M  V30 10212 H 995.76 4.21073 0.165852 0
M  V30 10213 H 994.484 3.15926 0.828155 0
M  V30 10214 H 993.143 3.43276 -1.28674 0
M  V30 10215 H 992.791 4.98926 0.638928 0
M  V30 10216 H 992.491 5.80407 -0.916613 0
M  V30 10217 H 994.015 6.1059 -0.0343915 0
M  V30 10218 H 995.429 5.30981 -2.16175 0
M  V30 10219 H 993.826 5.22666 -2.94856 0
M  V30 10220 H 994.896 3.81387 -2.99453 0
M  V30 10221 N 996.239 0.8527 1.3254 0
M  V30 10222 C 997.169 0.311234 2.31416 0
M  V30 10223 C 998.15 -0.588557 1.59593 0
M  V30 10224 O 999.335 -0.509211 1.87405 0
M  V30 10225 C 996.465 -0.502892 3.4364 0
M  V30 10226 C 995.419 0.302296 4.26931 0
M  V30 10227 C 994.745 -0.636445 5.30899 0
M  V30 10228 C 996.045 1.52697 4.99481 0
M  V30 10229 H 997.739 1.13742 2.76953 0
M  V30 10230 H 995.285 0.548389 1.33149 0
M  V30 10231 H 997.238 -0.892092 4.11849 0
M  V30 10232 H 995.962 -1.36242 2.96826 0
M  V30 10233 H 994.621 0.673226 3.60365 0
M  V30 10234 H 994.269 -1.49277 4.80339 0
M  V30 10235 H 993.969 -0.101716 5.87512 0
M  V30 10236 H 995.493 -1.02286 6.01972 0
M  V30 10237 H 996.907 1.21017 5.60382 0
M  V30 10238 H 995.304 1.9995 5.65809 0
M  V30 10239 H 996.374 2.28929 4.27457 0
M  V30 10240 N 997.718 -1.45297 0.610449 0
M  V30 10241 C 998.648 -2.33311 -0.0939698 0
M  V30 10242 C 999.629 -1.46999 -0.85588 0
M  V30 10243 O 1000.81 -1.75764 -0.825865 0
M  V30 10244 C 997.944 -3.29751 -1.09003 0
M  V30 10245 C 996.898 -4.2572 -0.441146 0
M  V30 10246 C 996.224 -5.11873 -1.54566 0
M  V30 10247 C 997.524 -5.1837 0.639489 0
M  V30 10248 H 999.218 -2.92459 0.640941 0
M  V30 10249 H 996.764 -1.40631 0.309675 0
M  V30 10250 H 998.717 -3.90195 -1.59141 0
M  V30 10251 H 997.441 -2.68768 -1.85557 0
M  V30 10252 H 996.1 -3.66579 0.0393908 0
M  V30 10253 H 995.748 -4.47256 -2.30155 0
M  V30 10254 H 995.448 -5.76886 -1.11698 0
M  V30 10255 H 996.972 -5.75185 -2.04925 0
M  V30 10256 H 998.386 -5.7287 0.22207 0
M  V30 10257 H 996.783 -5.91876 0.990089 0
M  V30 10258 H 997.853 -4.60627 1.51495 0
M  V30 10259 N 999.196 -0.349774 -1.5367 0
M  V30 10260 C 1000.42 0.246038 -2.05432 0
M  V30 10261 C 1000.84 1.43719 -1.22435 0
M  V30 10262 O 1000.2 1.80622 -0.261166 0
M  V30 10263 C 1000.25 0.65501 -3.55516 0
M  V30 10264 O 999.968 -0.488782 -4.35365 0
M  V30 10265 C 1001.47 1.31088 -4.23475 0
M  V30 10266 H 998.689 0.0463952 -0.669394 0
M  V30 10267 H 1001.23 -0.503566 -1.98203 0
M  V30 10268 H 999.388 1.35455 -3.62947 0
M  V30 10269 H 999.802 -0.161528 -5.24251 0
M  V30 10270 H 1001.28 1.54774 -5.29857 0
M  V30 10271 H 1001.75 2.26636 -3.76208 0
M  V30 10272 H 1002.36 0.653211 -4.20254 0
M  V30 10273 N 1000.67 1.57404 -0.0785433 0
M  V30 10274 C 1001.92 1.94031 0.589896 0
M  V30 10275 C 1002.25 0.959297 1.68852 0
M  V30 10276 O 1001.53 -0.0103978 1.94497 0
M  V30 10277 C 1001.81 3.40886 1.16055 0
M  V30 10278 C 1001.66 4.49748 0.0681072 0
M  V30 10279 C 1002.98 3.88699 2.06401 0
M  V30 10280 H 1000.1 0.70556 0.212965 0
M  V30 10281 H 1002.74 1.89439 -0.145886 0
M  V30 10282 H 1000.89 3.4493 1.78761 0
M  V30 10283 H 1002.57 4.57823 -0.565318 0
M  V30 10284 H 1000.81 4.29625 -0.600431 0
M  V30 10285 H 1001.48 5.49658 0.507906 0
M  V30 10286 H 1003.96 3.86703 1.53622 0
M  V30 10287 H 1002.83 4.92052 2.43261 0
M  V30 10288 H 1003.09 3.2703 2.97496 0
M  V30 10289 N 1002.15 -0.195058 1.56388 0
M  V30 10290 C 1003.39 -0.92221 1.82413 0
M  V30 10291 C 1003.76 -1.80444 0.656037 0
M  V30 10292 O 1004.96 -2.56738 0.796182 0
M  V30 10293 C 1003.23 -1.71687 3.13462 0
M  V30 10294 S 1004.79 -2.49604 3.60892 0
M  V30 10295 H 1001.6 -0.309316 0.640191 0
M  V30 10296 H 1004.21 -0.185613 1.94617 0
M  V30 10297 H 1002.91 -1.05936 3.96492 0
M  V30 10298 H 1002.44 -2.49529 3.04137 0
M  V30 10299 H 1004.46 -3.73794 3.26332 0
M  V30 10300 N 1003.63 -1.50653 -0.462772 0
M  V30 10301 C 1004.88 -1.61737 -1.21184 0
M  V30 10302 C 1005.2 -0.32369 -1.92295 0
M  V30 10303 O 1004.47 0.659269 -1.84473 0
M  V30 10304 H 1003.05 -0.596015 -0.450306 0
M  V30 10305 H 1005.71 -1.87469 -0.533051 0
M  V30 10306 H 1004.81 -2.43262 -1.95525 0
M  V30 10307 N 1005.11 0.71652 -1.4037 0
M  V30 10308 C 1006.04 1.84345 -1.43315 0
M  V30 10309 C 1007.02 1.67537 -0.294186 0
M  V30 10310 O 1008.2 1.87582 -0.502671 0
M  V30 10311 C 1005.33 3.2229 -1.29408 0
M  V30 10312 C 1004.29 3.53769 -2.40897 0
M  V30 10313 C 1003.61 4.90847 -2.12068 0
M  V30 10314 C 1004.91 3.54862 -3.83237 0
M  V30 10315 H 1006.61 1.82138 -2.37626 0
M  V30 10316 H 1004.15 0.874873 -1.14376 0
M  V30 10317 H 1006.11 4.00819 -1.30085 0
M  V30 10318 H 1004.83 3.2507 -0.31573 0
M  V30 10319 H 1003.49 2.77579 -2.39469 0
M  V30 10320 H 1003.14 4.90229 -1.12626 0
M  V30 10321 H 1002.84 5.12875 -2.86762 0
M  V30 10322 H 1004.36 5.71711 -2.14426 0
M  V30 10323 H 1005.78 4.23432 -3.86494 0
M  V30 10324 H 1004.17 3.88416 -4.57442 0
M  V30 10325 H 1005.24 2.54266 -4.12888 0
M  V30 10326 N 1006.59 1.25851 0.948643 0
M  V30 10327 C 1007.83 1.11119 1.69648 0
M  V30 10328 C 1008.17 -0.345995 1.91093 0
M  V30 10329 O 1007.44 -1.25467 1.48621 0
M  V30 10330 C 1007.72 1.87261 3.0758 0
M  V30 10331 C 1007.58 3.40842 2.93507 0
M  V30 10332 C 1008.9 1.6605 4.07573 0
M  V30 10333 H 1006.01 0.405052 0.615713 0
M  V30 10334 H 1008.66 1.54756 1.10229 0
M  V30 10335 H 1006.81 1.50172 3.58303 0
M  V30 10336 H 1008.48 3.87641 2.50064 0
M  V30 10337 H 1006.72 3.68248 2.29294 0
M  V30 10338 H 1007.39 3.89339 3.91305 0
M  V30 10339 H 1009.87 1.98348 3.65783 0
M  V30 10340 H 1008.74 2.21753 5.02113 0
M  V30 10341 H 1009.01 0.603256 4.37965 0
M  V30 10342 O 1008.1 -1.08194 1.19901 0
M  V30 10343 H 1008.79 -1.68797 0.950119 0
M  V30 END ATOM
M  V30 BEGIN BOND
M  V30 END BOND
M  V30 END CTAB
M  END
$$$$
