drugbank_drug|DB01309 B chain
 OpenBabel12092119113D

477484  0  0  0  0  0  0  0  0999 V2000
   -0.9080    1.9825   -0.1171 H   0  0  0  0  0 15  0  0  0  0  0  0
    0.0000    1.5760    0.0000 N   0  0  0  0  0 15  0  0  0  0  0  0
    1.2470    1.9057    0.6848 C   0  0  0  0  0 15  0  0  0  0  0  0
    1.5750    0.8736    1.7378 C   0  0  0  0  0 15  0  0  0  0  0  0
    0.8300   -0.1217    1.9532 O   0  0  0  0  0 15  0  0  0  0  0  0
    1.1290    3.3029    1.3654 C   0  0  0  0  0 15  0  0  0  0  0  0
    0.7950    4.4869    0.4457 C   0  0  0  0  0 15  0  0  0  0  0  0
   -0.5430    4.8082    0.1924 C   0  0  0  0  0 15  0  0  0  0  0  0
    1.8090    5.2086   -0.1876 C   0  0  0  0  0 15  0  0  0  0  0  0
   -0.8630    5.8248   -0.7024 C   0  0  0  0  0 15  0  0  0  0  0  0
    1.4890    6.2348   -1.0702 C   0  0  0  0  0 15  0  0  0  0  0  0
    0.1530    6.5406   -1.3327 C   0  0  0  0  0 15  0  0  0  0  0  0
   -0.5770    0.6973    0.2506 H   0  0  0  0  0 15  0  0  0  0  0  0
    2.0700    1.9142   -0.0555 H   0  0  0  0  0 15  0  0  0  0  0  0
    0.3750    3.2556    2.1798 H   0  0  0  0  0 15  0  0  0  0  0  0
    2.0720    3.5306    1.9013 H   0  0  0  0  0 15  0  0  0  0  0  0
   -1.3380    4.2359    0.6532 H   0  0  0  0  0 15  0  0  0  0  0  0
    2.8460    4.9630   -0.0050 H   0  0  0  0  0 15  0  0  0  0  0  0
   -1.8980    6.0453   -0.9137 H   0  0  0  0  0 15  0  0  0  0  0  0
    2.2760    6.7853   -1.5673 H   0  0  0  0  0 15  0  0  0  0  0  0
   -0.0970    7.3266   -2.0277 H   0  0  0  0  0 15  0  0  0  0  0  0
    1.4781   -0.2728    1.5522 N   0  0  0  0  0 15  0  0  0  0  0  0
    2.7241   -1.0058    1.7610 C   0  0  0  0  0 15  0  0  0  0  0  0
    3.0571   -1.8593    0.5606 C   0  0  0  0  0 15  0  0  0  0  0  0
    2.3321   -1.8942   -0.4418 O   0  0  0  0  0 15  0  0  0  0  0  0
    2.6151   -1.8882    3.0663 C   0  0  0  0  0 15  0  0  0  0  0  0
    2.4681   -1.0646    4.3702 C   0  0  0  0  0 15  0  0  0  0  0  0
    3.7871   -2.8752    3.3320 C   0  0  0  0  0 15  0  0  0  0  0  0
    0.9061   -0.3642    0.6407 H   0  0  0  0  0 15  0  0  0  0  0  0
    3.5481   -0.2782    1.8795 H   0  0  0  0  0 15  0  0  0  0  0  0
    1.6981   -2.5086    2.9665 H   0  0  0  0  0 15  0  0  0  0  0  0
    3.3701   -0.4649    4.5895 H   0  0  0  0  0 15  0  0  0  0  0  0
    1.6131   -0.3680    4.3224 H   0  0  0  0  0 15  0  0  0  0  0  0
    2.2841   -1.7151    5.2468 H   0  0  0  0  0 15  0  0  0  0  0  0
    4.7601   -2.3561    3.4296 H   0  0  0  0  0 15  0  0  0  0  0  0
    3.6361   -3.4640    4.2579 H   0  0  0  0  0 15  0  0  0  0  0  0
    3.8971   -3.6266    2.5285 H   0  0  0  0  0 15  0  0  0  0  0  0
    2.9562   -1.4816   -0.5373 N   0  0  0  0  0 15  0  0  0  0  0  0
    3.9032   -1.6214   -1.6426 C   0  0  0  0  0 15  0  0  0  0  0  0
    4.8732   -0.4637   -1.5950 C   0  0  0  0  0 15  0  0  0  0  0  0
    6.0582   -0.6862   -1.7803 O   0  0  0  0  0 15  0  0  0  0  0  0
    3.1982   -1.6603   -3.0254 C   0  0  0  0  0 15  0  0  0  0  0  0
    2.3112   -2.9285   -3.1758 C   0  0  0  0  0 15  0  0  0  0  0  0
    1.4462   -2.8795   -4.4638 C   0  0  0  0  0 15  0  0  0  0  0  0
    0.4852   -4.0952   -4.5493 C   0  0  0  0  0 15  0  0  0  0  0  0
   -0.3778   -4.0273   -5.7511 N   0  0  0  0  0 15  0  0  0  0  0  0
    4.4622   -2.5653   -1.5165 H   0  0  0  0  0 15  0  0  0  0  0  0
    1.9992   -1.2722   -0.7384 H   0  0  0  0  0 15  0  0  0  0  0  0
    3.9572   -1.6626   -3.8264 H   0  0  0  0  0 15  0  0  0  0  0  0
    2.5872   -0.7513   -3.1393 H   0  0  0  0  0 15  0  0  0  0  0  0
    1.6392   -3.0240   -2.3078 H   0  0  0  0  0 15  0  0  0  0  0  0
    2.9512   -3.8282   -3.1976 H   0  0  0  0  0 15  0  0  0  0  0  0
    2.1052   -2.8655   -5.3477 H   0  0  0  0  0 15  0  0  0  0  0  0
    0.8442   -1.9570   -4.4671 H   0  0  0  0  0 15  0  0  0  0  0  0
   -0.1508   -4.1120   -3.6496 H   0  0  0  0  0 15  0  0  0  0  0  0
    1.0742   -5.0292   -4.5635 H   0  0  0  0  0 15  0  0  0  0  0  0
   -0.9798   -3.1330   -5.7635 H   0  0  0  0  0 15  0  0  0  0  0  0
   -1.0628   -4.8640   -5.7875 H   0  0  0  0  0 15  0  0  0  0  0  0
    0.2052   -4.0538   -6.6580 H   0  0  0  0  0 15  0  0  0  0  0  0
    4.4343    0.7856   -1.3662 N   0  0  0  0  0 15  0  0  0  0  0  0
    5.3663    1.9071   -1.2713 C   0  0  0  0  0 15  0  0  0  0  0  0
    6.3793    1.6169   -0.1900 C   0  0  0  0  0 15  0  0  0  0  0  0
    7.5683    1.7286   -0.4450 O   0  0  0  0  0 15  0  0  0  0  0  0
    4.6683    3.2561   -0.9397 C   0  0  0  0  0 15  0  0  0  0  0  0
    3.8413    3.8238   -2.1237 C   0  0  0  0  0 15  0  0  0  0  0  0
    2.9003    4.9573   -1.7646 C   0  0  0  0  0 15  0  0  0  0  0  0
    1.9263    5.1205   -2.4859 O   0  0  0  0  0 15  0  0  0  0  0  0
    3.1283    5.7626   -0.7005 N   0  0  0  0  0 15  0  0  0  0  0  0
    5.8933    1.9938   -2.2376 H   0  0  0  0  0 15  0  0  0  0  0  0
    3.4543    0.9640   -1.3007 H   0  0  0  0  0 15  0  0  0  0  0  0
    5.4463    3.9894   -0.6806 H   0  0  0  0  0 15  0  0  0  0  0  0
    4.0163    3.1254   -0.0624 H   0  0  0  0  0 15  0  0  0  0  0  0
    3.2363    3.0100   -2.5454 H   0  0  0  0  0 15  0  0  0  0  0  0
    4.5243    4.1705   -2.9146 H   0  0  0  0  0 15  0  0  0  0  0  0
    3.9223    5.6561   -0.1016 H   0  0  0  0  0 15  0  0  0  0  0  0
    2.4793    6.4987   -0.5012 H   0  0  0  0  0 15  0  0  0  0  0  0
    5.9124    1.2097    1.0102 N   0  0  0  0  0 15  0  0  0  0  0  0
    6.8624    0.9318    2.0809 C   0  0  0  0  0 15  0  0  0  0  0  0
    7.8464   -0.1109    1.6052 C   0  0  0  0  0 15  0  0  0  0  0  0
    9.0384    0.0973    1.7673 O   0  0  0  0  0 15  0  0  0  0  0  0
    6.1674    0.4927    3.3975 C   0  0  0  0  0 15  0  0  0  0  0  0
    5.2534    1.5692    3.9400 C   0  0  0  0  0 15  0  0  0  0  0  0
    5.6444    2.7931    4.2169 N   0  0  0  0  0 15  0  0  0  0  0  0
    3.9424    1.4369    4.2222 C   0  0  0  0  0 15  0  0  0  0  0  0
    4.6434    3.4880    4.6553 C   0  0  0  0  0 15  0  0  0  0  0  0
    3.6194    2.7622    4.6819 N   0  0  0  0  0 15  0  0  0  0  0  0
    7.4214    1.8618    2.2741 H   0  0  0  0  0 15  0  0  0  0  0  0
    4.9354    1.1046    1.1905 H   0  0  0  0  0 15  0  0  0  0  0  0
    6.9324    0.2750    4.1599 H   0  0  0  0  0 15  0  0  0  0  0  0
    5.5924   -0.4305    3.2183 H   0  0  0  0  0 15  0  0  0  0  0  0
    6.6034    3.1590    4.1040 H   0  0  0  0  0 15  0  0  0  0  0  0
    3.2804    0.5785    4.1347 H   0  0  0  0  0 15  0  0  0  0  0  0
    4.6704    4.5356    4.9571 H   0  0  0  0  0 15  0  0  0  0  0  0
    7.3905   -1.2043    1.0166 N   0  0  0  0  0 15  0  0  0  0  0  0
    8.3205   -2.2547    0.6072 C   0  0  0  0  0 15  0  0  0  0  0  0
    9.3015   -1.6585   -0.3777 C   0  0  0  0  0 15  0  0  0  0  0  0
   10.4865   -1.9241   -0.2631 O   0  0  0  0  0 15  0  0  0  0  0  0
    7.6165   -3.4726   -0.0553 C   0  0  0  0  0 15  0  0  0  0  0  0
    6.5705   -4.1946    0.8506 C   0  0  0  0  0 15  0  0  0  0  0  0
    5.8965   -5.3467    0.0539 C   0  0  0  0  0 15  0  0  0  0  0  0
    7.1965   -4.7560    2.1587 C   0  0  0  0  0 15  0  0  0  0  0  0
    8.8905   -2.5996    1.4853 H   0  0  0  0  0 15  0  0  0  0  0  0
    6.4365   -1.2496    0.7156 H   0  0  0  0  0 15  0  0  0  0  0  0
    8.3895   -4.1992   -0.3532 H   0  0  0  0  0 15  0  0  0  0  0  0
    7.1135   -3.1192   -0.9680 H   0  0  0  0  0 15  0  0  0  0  0  0
    5.7725   -3.4867    1.1326 H   0  0  0  0  0 15  0  0  0  0  0  0
    5.4205   -4.9558   -0.8605 H   0  0  0  0  0 15  0  0  0  0  0  0
    5.1205   -5.8391    0.6572 H   0  0  0  0  0 15  0  0  0  0  0  0
    6.6445   -6.1014   -0.2376 H   0  0  0  0  0 15  0  0  0  0  0  0
    8.0585   -5.4008    1.9231 H   0  0  0  0  0 15  0  0  0  0  0  0
    6.4555   -5.3528    2.7128 H   0  0  0  0  0 15  0  0  0  0  0  0
    7.5255   -3.9435    2.8217 H   0  0  0  0  0 15  0  0  0  0  0  0
    8.8686   -0.7928   -1.3621 N   0  0  0  0  0 15  0  0  0  0  0  0
   10.1086   -0.3722   -2.0098 C   0  0  0  0  0 15  0  0  0  0  0  0
   10.4726    1.0375   -1.6156 C   0  0  0  0  0 15  0  0  0  0  0  0
   11.6736    1.5593   -2.1895 O   0  0  0  0  0 15  0  0  0  0  0  0
    9.9446   -0.5346   -3.5338 C   0  0  0  0  0 15  0  0  0  0  0  0
   11.5036   -0.2024   -4.3833 S   0  0  0  0  0 15  0  0  0  0  0  0
    8.3216   -0.1420   -0.6967 H   0  0  0  0  0 15  0  0  0  0  0  0
   10.9236   -1.0321   -1.6604 H   0  0  0  0  0 15  0  0  0  0  0  0
    9.6276   -1.5608   -3.7956 H   0  0  0  0  0 15  0  0  0  0  0  0
    9.1586    0.1411   -3.9315 H   0  0  0  0  0 15  0  0  0  0  0  0
   11.1736    0.9949   -4.8612 H   0  0  0  0  0 15  0  0  0  0  0  0
   10.3467    1.4787   -0.5451 N   0  0  0  0  0 15  0  0  0  0  0  0
   11.5947    2.0209   -0.0166 C   0  0  0  0  0 15  0  0  0  0  0  0
   11.9157    1.4231    1.3332 C   0  0  0  0  0 15  0  0  0  0  0  0
   11.1857    0.5939    1.8668 O   0  0  0  0  0 15  0  0  0  0  0  0
    9.7657    0.7470   -0.0031 H   0  0  0  0  0 15  0  0  0  0  0  0
   12.4277    1.8141   -0.7124 H   0  0  0  0  0 15  0  0  0  0  0  0
   11.5237    3.1200    0.0805 H   0  0  0  0  0 15  0  0  0  0  0  0
   11.8248    0.2810    1.5507 N   0  0  0  0  0 15  0  0  0  0  0  0
   13.0498   -0.3402    2.0459 C   0  0  0  0  0 15  0  0  0  0  0  0
   13.4748   -1.4825    1.1578 C   0  0  0  0  0 15  0  0  0  0  0  0
   12.8328   -1.8061    0.1576 O   0  0  0  0  0 15  0  0  0  0  0  0
   12.8808   -0.7931    3.5177 C   0  0  0  0  0 15  0  0  0  0  0  0
   11.9848   -1.8998    3.6603 O   0  0  0  0  0 15  0  0  0  0  0  0
   11.3258   -0.0694    0.6604 H   0  0  0  0  0 15  0  0  0  0  0  0
   13.8558    0.4170    2.0031 H   0  0  0  0  0 15  0  0  0  0  0  0
   13.8658   -1.0873    3.9325 H   0  0  0  0  0 15  0  0  0  0  0  0
   12.5408    0.0426    4.1588 H   0  0  0  0  0 15  0  0  0  0  0  0
   11.1178   -1.6077    3.3646 H   0  0  0  0  0 15  0  0  0  0  0  0
   13.3029   -1.5760    0.0084 N   0  0  0  0  0 15  0  0  0  0  0  0
   14.2529   -2.0543   -0.9890 C   0  0  0  0  0 15  0  0  0  0  0  0
   15.2369   -0.9507   -1.2981 C   0  0  0  0  0 15  0  0  0  0  0  0
   16.4289   -1.2144   -1.2877 O   0  0  0  0  0 15  0  0  0  0  0  0
   13.5579   -2.5680   -2.2783 C   0  0  0  0  0 15  0  0  0  0  0  0
   12.6439   -3.7406   -1.9985 C   0  0  0  0  0 15  0  0  0  0  0  0
   13.0349   -4.8544   -1.4206 N   0  0  0  0  0 15  0  0  0  0  0  0
   11.3329   -3.8215   -2.2995 C   0  0  0  0  0 15  0  0  0  0  0  0
   12.0339   -5.6682   -1.3074 C   0  0  0  0  0 15  0  0  0  0  0  0
   11.0099   -5.1308   -1.7959 N   0  0  0  0  0 15  0  0  0  0  0  0
   14.8119   -2.8896   -0.5369 H   0  0  0  0  0 15  0  0  0  0  0  0
   12.3259   -1.6120   -0.1971 H   0  0  0  0  0 15  0  0  0  0  0  0
   14.3229   -2.8935   -3.0014 H   0  0  0  0  0 15  0  0  0  0  0  0
   12.9829   -1.7470   -2.7370 H   0  0  0  0  0 15  0  0  0  0  0  0
   13.9939   -5.0612   -1.0983 H   0  0  0  0  0 15  0  0  0  0  0  0
   10.6709   -3.1092   -2.7863 H   0  0  0  0  0 15  0  0  0  0  0  0
   12.0609   -6.6634   -0.8623 H   0  0  0  0  0 15  0  0  0  0  0  0
   14.7810    0.2645   -1.5536 N   0  0  0  0  0 15  0  0  0  0  0  0
   15.7110    1.3312   -1.9184 C   0  0  0  0  0 15  0  0  0  0  0  0
   16.6920    1.5110   -0.7812 C   0  0  0  0  0 15  0  0  0  0  0  0
   17.8770    1.6400   -1.0400 O   0  0  0  0  0 15  0  0  0  0  0  0
   15.0070    2.6892   -2.1977 C   0  0  0  0  0 15  0  0  0  0  0  0
   13.9610    2.6566   -3.3557 C   0  0  0  0  0 15  0  0  0  0  0  0
   13.2870    4.0509   -3.4900 C   0  0  0  0  0 15  0  0  0  0  0  0
   14.5870    2.2419   -4.7174 C   0  0  0  0  0 15  0  0  0  0  0  0
   16.2810    1.0284   -2.8118 H   0  0  0  0  0 15  0  0  0  0  0  0
   13.8270    0.4933   -1.3529 H   0  0  0  0  0 15  0  0  0  0  0  0
   15.7800    3.4366   -2.4387 H   0  0  0  0  0 15  0  0  0  0  0  0
   14.5040    3.0080   -1.2723 H   0  0  0  0  0 15  0  0  0  0  0  0
   13.1630    1.9338   -3.1145 H   0  0  0  0  0 15  0  0  0  0  0  0
   12.8110    4.3421   -2.5392 H   0  0  0  0  0 15  0  0  0  0  0  0
   12.5110    4.0380   -4.2687 H   0  0  0  0  0 15  0  0  0  0  0  0
   14.0350    4.8156   -3.7541 H   0  0  0  0  0 15  0  0  0  0  0  0
   15.4490    2.8865   -4.9533 H   0  0  0  0  0 15  0  0  0  0  0  0
   13.8460    2.3404   -5.5258 H   0  0  0  0  0 15  0  0  0  0  0  0
   14.9160    1.1933   -4.6999 H   0  0  0  0  0 15  0  0  0  0  0  0
   16.2591    1.4844    0.5294 N   0  0  0  0  0 15  0  0  0  0  0  0
   17.5051    1.5672    1.2871 C   0  0  0  0  0 15  0  0  0  0  0  0
   17.8381    0.2406    1.9270 C   0  0  0  0  0 15  0  0  0  0  0  0
   17.1131   -0.7535    1.7931 O   0  0  0  0  0 15  0  0  0  0  0  0
   17.3961    2.7059    2.3760 C   0  0  0  0  0 15  0  0  0  0  0  0
   17.2491    4.1295    1.7830 C   0  0  0  0  0 15  0  0  0  0  0  0
   18.5681    2.8021    3.3937 C   0  0  0  0  0 15  0  0  0  0  0  0
   15.6871    0.5705    0.4666 H   0  0  0  0  0 15  0  0  0  0  0  0
   18.3291    1.8062    0.5897 H   0  0  0  0  0 15  0  0  0  0  0  0
   16.4791    2.5034    2.9709 H   0  0  0  0  0 15  0  0  0  0  0  0
   18.1511    4.4464    1.2286 H   0  0  0  0  0 15  0  0  0  0  0  0
   16.3941    4.1993    1.0883 H   0  0  0  0  0 15  0  0  0  0  0  0
   17.0651    4.8845    2.5714 H   0  0  0  0  0 15  0  0  0  0  0  0
   19.5411    2.9855    2.8984 H   0  0  0  0  0 15  0  0  0  0  0  0
   18.4171    3.6161    4.1295 H   0  0  0  0  0 15  0  0  0  0  0  0
   18.6781    1.8839    3.9995 H   0  0  0  0  0 15  0  0  0  0  0  0
   17.7372   -0.7783    1.3704 N   0  0  0  0  0 15  0  0  0  0  0  0
   18.6472   -1.9225    1.3445 C   0  0  0  0  0 15  0  0  0  0  0  0
   19.6632   -1.7227    0.2450 C   0  0  0  0  0 15  0  0  0  0  0  0
   20.8392   -1.9561    0.4793 O   0  0  0  0  0 15  0  0  0  0  0  0
   17.9042   -3.2728    1.1440 C   0  0  0  0  0 15  0  0  0  0  0  0
   16.9652   -3.5997    2.3393 C   0  0  0  0  0 15  0  0  0  0  0  0
   16.1982   -4.8855    2.1483 C   0  0  0  0  0 15  0  0  0  0  0  0
   16.4212   -5.5911    1.1291 O   0  0  0  0  0 15  0  0  0  0  0  0
   15.3552   -5.2015    3.0286 O   0  0  0  0  0 15  0  0  0  0  0  0
   19.1812   -1.9739    2.3080 H   0  0  0  0  0 15  0  0  0  0  0  0
   16.7662   -0.9202    1.1770 H   0  0  0  0  0 15  0  0  0  0  0  0
   18.6482   -4.0806    1.0518 H   0  0  0  0  0 15  0  0  0  0  0  0
   17.3232   -3.2301    0.2111 H   0  0  0  0  0 15  0  0  0  0  0  0
   16.2302   -2.7945    2.4871 H   0  0  0  0  0 15  0  0  0  0  0  0
   17.5632   -3.6898    3.2576 H   0  0  0  0  0 15  0  0  0  0  0  0
   19.2153   -1.2150   -1.0038 N   0  0  0  0  0 15  0  0  0  0  0  0
   20.1783   -0.9769   -2.0734 C   0  0  0  0  0 15  0  0  0  0  0  0
   21.1783    0.0525   -1.6071 C   0  0  0  0  0 15  0  0  0  0  0  0
   22.3683   -0.1849   -1.7322 O   0  0  0  0  0 15  0  0  0  0  0  0
   19.5003   -0.4734   -3.3760 C   0  0  0  0  0 15  0  0  0  0  0  0
   20.6933   -1.9259   -2.2989 H   0  0  0  0  0 15  0  0  0  0  0  0
   18.2463   -1.0322   -1.1737 H   0  0  0  0  0 15  0  0  0  0  0  0
   18.9813    0.4804   -3.2072 H   0  0  0  0  0 15  0  0  0  0  0  0
   18.7663   -1.2160   -3.7277 H   0  0  0  0  0 15  0  0  0  0  0  0
   20.2563   -0.3268   -4.1632 H   0  0  0  0  0 15  0  0  0  0  0  0
   20.6934    1.1989   -1.0230 N   0  0  0  0  0 15  0  0  0  0  0  0
   21.6234    2.2514   -0.6192 C   0  0  0  0  0 15  0  0  0  0  0  0
   22.6044    1.6605    0.3689 C   0  0  0  0  0 15  0  0  0  0  0  0
   23.7894    1.9255    0.2529 O   0  0  0  0  0 15  0  0  0  0  0  0
   20.9194    3.4728    0.0369 C   0  0  0  0  0 15  0  0  0  0  0  0
   19.8734    4.1900   -0.8729 C   0  0  0  0  0 15  0  0  0  0  0  0
   19.1994    5.3464   -0.0822 C   0  0  0  0  0 15  0  0  0  0  0  0
   20.4994    4.7445   -2.1839 C   0  0  0  0  0 15  0  0  0  0  0  0
   22.1934    2.5917   -1.4990 H   0  0  0  0  0 15  0  0  0  0  0  0
   19.7394    1.2458   -0.7222 H   0  0  0  0  0 15  0  0  0  0  0  0
   21.6924    4.2010    0.3310 H   0  0  0  0  0 15  0  0  0  0  0  0
   20.4164    3.1243    0.9515 H   0  0  0  0  0 15  0  0  0  0  0  0
   19.0754    3.4806   -1.1510 H   0  0  0  0  0 15  0  0  0  0  0  0
   18.7234    4.9603    0.8342 H   0  0  0  0  0 15  0  0  0  0  0  0
   18.4234    5.8356   -0.6881 H   0  0  0  0  0 15  0  0  0  0  0  0
   19.9474    6.1025    0.2052 H   0  0  0  0  0 15  0  0  0  0  0  0
   21.3614    5.3906   -1.9517 H   0  0  0  0  0 15  0  0  0  0  0  0
   19.7584    5.3383   -2.7412 H   0  0  0  0  0 15  0  0  0  0  0  0
   20.8284    3.9284   -2.8426 H   0  0  0  0  0 15  0  0  0  0  0  0
   22.1715    0.8000    1.3578 N   0  0  0  0  0 15  0  0  0  0  0  0
   23.4015    0.3890    2.0290 C   0  0  0  0  0 15  0  0  0  0  0  0
   23.8095   -1.0027    1.6044 C   0  0  0  0  0 15  0  0  0  0  0  0
   23.1525   -1.6563    0.7945 O   0  0  0  0  0 15  0  0  0  0  0  0
   23.2145    0.3855    3.5743 C   0  0  0  0  0 15  0  0  0  0  0  0
   22.8785    1.7266    4.2313 C   0  0  0  0  0 15  0  0  0  0  0  0
   23.8755    2.6839    4.4527 C   0  0  0  0  0 15  0  0  0  0  0  0
   21.5605    2.0088    4.6038 C   0  0  0  0  0 15  0  0  0  0  0  0
   23.5545    3.9052    5.0376 C   0  0  0  0  0 15  0  0  0  0  0  0
   21.2415    3.2328    5.1859 C   0  0  0  0  0 15  0  0  0  0  0  0
   22.2395    4.1792    5.4022 C   0  0  0  0  0 15  0  0  0  0  0  0
   21.9275    5.3815    5.9720 O   0  0  0  0  0 15  0  0  0  0  0  0
   21.6595    0.1570    0.6575 H   0  0  0  0  0 15  0  0  0  0  0  0
   24.2135    1.0831    1.7452 H   0  0  0  0  0 15  0  0  0  0  0  0
   22.4435   -0.3651    3.8497 H   0  0  0  0  0 15  0  0  0  0  0  0
   24.1325   -0.0023    4.0590 H   0  0  0  0  0 15  0  0  0  0  0  0
   24.8985    2.4787    4.1687 H   0  0  0  0  0 15  0  0  0  0  0  0
   20.7775    1.2804    4.4286 H   0  0  0  0  0 15  0  0  0  0  0  0
   24.3215    4.6440    5.2056 H   0  0  0  0  0 15  0  0  0  0  0  0
   20.2185    3.4367    5.4641 H   0  0  0  0  0 15  0  0  0  0  0  0
   20.9865    5.3936    6.1566 H   0  0  0  0  0 15  0  0  0  0  0  0
   23.6496   -1.4758    0.5530 N   0  0  0  0  0 15  0  0  0  0  0  0
   24.5796   -2.3276   -0.1855 C   0  0  0  0  0 15  0  0  0  0  0  0
   25.5606   -1.4353   -0.9129 C   0  0  0  0  0 15  0  0  0  0  0  0
   26.7456   -1.7239   -0.8942 O   0  0  0  0  0 15  0  0  0  0  0  0
   23.8756   -3.2522   -1.2186 C   0  0  0  0  0 15  0  0  0  0  0  0
   22.8296   -4.2366   -0.6079 C   0  0  0  0  0 15  0  0  0  0  0  0
   22.1556   -5.0541   -1.7453 C   0  0  0  0  0 15  0  0  0  0  0  0
   23.4556   -5.2048    0.4356 C   0  0  0  0  0 15  0  0  0  0  0  0
   25.1496   -2.9475    0.5257 H   0  0  0  0  0 15  0  0  0  0  0  0
   22.6956   -1.4174    0.2543 H   0  0  0  0  0 15  0  0  0  0  0  0
   24.6486   -3.8365   -1.7433 H   0  0  0  0  0 15  0  0  0  0  0  0
   23.3726   -2.6128   -1.9596 H   0  0  0  0  0 15  0  0  0  0  0  0
   22.0316   -3.6645   -0.1045 H   0  0  0  0  0 15  0  0  0  0  0  0
   21.6796   -4.3788   -2.4753 H   0  0  0  0  0 15  0  0  0  0  0  0
   21.3796   -5.7206   -1.3425 H   0  0  0  0  0 15  0  0  0  0  0  0
   22.9036   -5.6670   -2.2734 H   0  0  0  0  0 15  0  0  0  0  0  0
   24.3176   -5.7330   -0.0029 H   0  0  0  0  0 15  0  0  0  0  0  0
   22.7146   -5.9531    0.7571 H   0  0  0  0  0 15  0  0  0  0  0  0
   23.7846   -4.6622    1.3330 H   0  0  0  0  0 15  0  0  0  0  0  0
   25.1277   -0.2892   -1.5492 N   0  0  0  0  0 15  0  0  0  0  0  0
   26.3737    0.3240   -2.0020 C   0  0  0  0  0 15  0  0  0  0  0  0
   26.7067    1.5444   -1.1774 C   0  0  0  0  0 15  0  0  0  0  0  0
   25.9817    1.9288   -0.2509 O   0  0  0  0  0 15  0  0  0  0  0  0
   26.2647    0.6923   -3.5338 C   0  0  0  0  0 15  0  0  0  0  0  0
   26.1177   -0.5365   -4.4659 C   0  0  0  0  0 15  0  0  0  0  0  0
   27.4367    1.5233   -4.1289 C   0  0  0  0  0 15  0  0  0  0  0  0
   24.5557    0.1163   -0.7278 H   0  0  0  0  0 15  0  0  0  0  0  0
   27.1977   -0.3990   -1.8576 H   0  0  0  0  0 15  0  0  0  0  0  0
   25.3477    1.3082   -3.6581 H   0  0  0  0  0 15  0  0  0  0  0  0
   27.0197   -1.1750   -4.4608 H   0  0  0  0  0 15  0  0  0  0  0  0
   25.2627   -1.1719   -4.1767 H   0  0  0  0  0 15  0  0  0  0  0  0
   25.9337   -0.2348   -5.5150 H   0  0  0  0  0 15  0  0  0  0  0  0
   28.4097    1.0030   -4.0383 H   0  0  0  0  0 15  0  0  0  0  0  0
   27.2857    1.7498   -5.2026 H   0  0  0  0  0 15  0  0  0  0  0  0
   27.5467    2.5089   -3.6402 H   0  0  0  0  0 15  0  0  0  0  0  0
   26.6058    1.5759   -0.0167 N   0  0  0  0  0 15  0  0  0  0  0  0
   27.8458    1.9315    0.6689 C   0  0  0  0  0 15  0  0  0  0  0  0
   28.2098    0.8924    1.7000 C   0  0  0  0  0 15  0  0  0  0  0  0
   29.4108    1.1337    2.4372 O   0  0  0  0  0 15  0  0  0  0  0  0
   27.6818    3.3368    1.2804 C   0  0  0  0  0 15  0  0  0  0  0  0
   29.2408    3.9114    1.9888 S   0  0  0  0  0 15  0  0  0  0  0  0
   26.0588    0.6759    0.2205 H   0  0  0  0  0 15  0  0  0  0  0  0
   28.6608    1.9535   -0.0774 H   0  0  0  0  0 15  0  0  0  0  0  0
   27.3648    4.0713    0.5173 H   0  0  0  0  0 15  0  0  0  0  0  0
   26.8958    3.3489    2.0643 H   0  0  0  0  0 15  0  0  0  0  0  0
   28.9108    3.7357    3.2659 H   0  0  0  0  0 15  0  0  0  0  0  0
   28.0839   -0.2563    1.5550 N   0  0  0  0  0 15  0  0  0  0  0  0
   29.3319   -0.9837    1.7655 C   0  0  0  0  0 15  0  0  0  0  0  0
   29.6529   -1.8621    0.5790 C   0  0  0  0  0 15  0  0  0  0  0  0
   28.9229   -1.9166   -0.4056 O   0  0  0  0  0 15  0  0  0  0  0  0
   27.5029   -0.3662    0.6511 H   0  0  0  0  0 15  0  0  0  0  0  0
   30.1649   -0.2765    1.9293 H   0  0  0  0  0 15  0  0  0  0  0  0
   29.2609   -1.6109    2.6732 H   0  0  0  0  0 15  0  0  0  0  0  0
   29.5620   -1.4872   -0.5215 N   0  0  0  0  0 15  0  0  0  0  0  0
   30.4720   -1.6657   -1.6520 C   0  0  0  0  0 15  0  0  0  0  0  0
   31.4880   -0.5482   -1.6514 C   0  0  0  0  0 15  0  0  0  0  0  0
   32.6640   -0.8203   -1.8394 O   0  0  0  0  0 15  0  0  0  0  0  0
   29.7290   -1.7092   -3.0164 C   0  0  0  0  0 15  0  0  0  0  0  0
   28.7900   -2.9436   -3.1250 C   0  0  0  0  0 15  0  0  0  0  0  0
   28.0230   -2.9849   -4.4243 C   0  0  0  0  0 15  0  0  0  0  0  0
   28.2460   -2.1079   -5.3002 O   0  0  0  0  0 15  0  0  0  0  0  0
   27.1800   -3.9075   -4.5782 O   0  0  0  0  0 15  0  0  0  0  0  0
   31.0060   -2.6230   -1.5308 H   0  0  0  0  0 15  0  0  0  0  0  0
   28.5910   -1.3222   -0.6956 H   0  0  0  0  0 15  0  0  0  0  0  0
   30.4730   -1.7625   -3.8277 H   0  0  0  0  0 15  0  0  0  0  0  0
   29.1480   -0.7836   -3.1407 H   0  0  0  0  0 15  0  0  0  0  0  0
   28.0550   -2.9455   -2.3063 H   0  0  0  0  0 15  0  0  0  0  0  0
   29.3880   -3.8632   -3.0499 H   0  0  0  0  0 15  0  0  0  0  0  0
   31.0401    0.7711   -1.3745 N   0  0  0  0  0 15  0  0  0  0  0  0
   32.4561    1.0717   -1.1827 C   0  0  0  0  0 15  0  0  0  0  0  0
   32.6561    2.0149   -0.0193 C   0  0  0  0  0 15  0  0  0  0  0  0
   31.7121    2.4424    0.6404 O   0  0  0  0  0 15  0  0  0  0  0  0
   33.0251    1.6685   -2.5016 C   0  0  0  0  0 15  0  0  0  0  0  0
   34.5731    1.7911   -2.5669 C   0  0  0  0  0 15  0  0  0  0  0  0
   35.0481    2.4221   -3.8872 C   0  0  0  0  0 15  0  0  0  0  0  0
   36.5391    2.4966   -3.9016 N   0  0  0  0  0 15  0  0  0  0  0  0
   37.2741    2.9933   -4.8907 C   0  0  0  0  0 15  0  0  0  0  0  0
   36.7701    3.4917   -5.9837 N   0  0  0  0  0 15  0  0  0  0  0  0
   38.5631    2.9821   -4.7647 N   0  0  0  0  0 15  0  0  0  0  0  0
   30.7141    0.1448   -2.1191 H   0  0  0  0  0 15  0  0  0  0  0  0
   32.9771    0.1269   -0.9395 H   0  0  0  0  0 15  0  0  0  0  0  0
   32.6831    1.0502   -3.3565 H   0  0  0  0  0 15  0  0  0  0  0  0
   32.5571    2.6614   -2.6730 H   0  0  0  0  0 15  0  0  0  0  0  0
   34.9441    2.4008   -1.7160 H   0  0  0  0  0 15  0  0  0  0  0  0
   35.0251    0.7858   -2.4343 H   0  0  0  0  0 15  0  0  0  0  0  0
   34.6691    1.8188   -4.7422 H   0  0  0  0  0 15  0  0  0  0  0  0
   34.5991    3.4335   -3.9928 H   0  0  0  0  0 15  0  0  0  0  0  0
   37.0901    2.1438   -3.1120 H   0  0  0  0  0 15  0  0  0  0  0  0
   37.4031    3.8548   -6.6979 H   0  0  0  0  0 15  0  0  0  0  0  0
   35.7481    3.4727   -6.0202 H   0  0  0  0  0 15  0  0  0  0  0  0
   38.9391    2.5857   -3.9020 H   0  0  0  0  0 15  0  0  0  0  0  0
   39.1121    3.3661   -5.5371 H   0  0  0  0  0 15  0  0  0  0  0  0
   32.5182    1.2203    0.9973 N   0  0  0  0  0 15  0  0  0  0  0  0
   33.7662    1.0402    1.7328 C   0  0  0  0  0 15  0  0  0  0  0  0
   34.0872   -0.4263    1.9028 C   0  0  0  0  0 15  0  0  0  0  0  0
   33.3572   -1.3069    1.4593 O   0  0  0  0  0 15  0  0  0  0  0  0
   31.9372    0.3819    0.6420 H   0  0  0  0  0 15  0  0  0  0  0  0
   34.5992    1.5347    1.2014 H   0  0  0  0  0 15  0  0  0  0  0  0
   33.6952    1.5144    2.7290 H   0  0  0  0  0 15  0  0  0  0  0  0
   33.9963   -1.1934    1.0293 N   0  0  0  0  0 15  0  0  0  0  0  0
   35.2433   -1.8904    0.7260 C   0  0  0  0  0 15  0  0  0  0  0  0
   35.5713   -1.7965   -0.7454 C   0  0  0  0  0 15  0  0  0  0  0  0
   34.8263   -1.1835   -1.5586 O   0  0  0  0  0 15  0  0  0  0  0  0
   35.1253   -3.3929    1.1232 C   0  0  0  0  0 15  0  0  0  0  0  0
   34.7913   -3.6888    2.5930 C   0  0  0  0  0 15  0  0  0  0  0  0
   33.4533   -3.7667    2.9945 C   0  0  0  0  0 15  0  0  0  0  0  0
   35.8053   -3.8218    3.5439 C   0  0  0  0  0 15  0  0  0  0  0  0
   33.1333   -3.9522    4.3361 C   0  0  0  0  0 15  0  0  0  0  0  0
   35.4853   -4.0224    4.8825 C   0  0  0  0  0 15  0  0  0  0  0  0
   34.1493   -4.0826    5.2809 C   0  0  0  0  0 15  0  0  0  0  0  0
   33.4193   -0.6917    0.2657 H   0  0  0  0  0 15  0  0  0  0  0  0
   36.0663   -1.4133    1.2922 H   0  0  0  0  0 15  0  0  0  0  0  0
   34.3713   -3.8890    0.4756 H   0  0  0  0  0 15  0  0  0  0  0  0
   36.0683   -3.9154    0.8660 H   0  0  0  0  0 15  0  0  0  0  0  0
   32.6583   -3.6343    2.2719 H   0  0  0  0  0 15  0  0  0  0  0  0
   36.8423   -3.7551    3.2451 H   0  0  0  0  0 15  0  0  0  0  0  0
   32.0983   -3.9812    4.6402 H   0  0  0  0  0 15  0  0  0  0  0  0
   36.2723   -4.1147    5.6184 H   0  0  0  0  0 15  0  0  0  0  0  0
   33.8993   -4.2238    6.3206 H   0  0  0  0  0 15  0  0  0  0  0  0
   35.4744   -0.8072   -1.3536 N   0  0  0  0  0 15  0  0  0  0  0  0
   36.7214   -0.3879   -1.9875 C   0  0  0  0  0 15  0  0  0  0  0  0
   37.0494    1.0451   -1.6404 C   0  0  0  0  0 15  0  0  0  0  0  0
   36.3044    1.7399   -0.8959 O   0  0  0  0  0 15  0  0  0  0  0  0
   36.6034   -0.5190   -3.5361 C   0  0  0  0  0 15  0  0  0  0  0  0
   36.2694   -1.9154   -4.0819 C   0  0  0  0  0 15  0  0  0  0  0  0
   34.9314   -2.2974   -4.2281 C   0  0  0  0  0 15  0  0  0  0  0  0
   37.2834   -2.8290   -4.3774 C   0  0  0  0  0 15  0  0  0  0  0  0
   34.6114   -3.5867   -4.6430 C   0  0  0  0  0 15  0  0  0  0  0  0
   36.9634   -4.1127   -4.8067 C   0  0  0  0  0 15  0  0  0  0  0  0
   35.6274   -4.4947   -4.9349 C   0  0  0  0  0 15  0  0  0  0  0  0
   34.8974   -0.1419   -0.7273 H   0  0  0  0  0 15  0  0  0  0  0  0
   37.5444   -1.0281   -1.6156 H   0  0  0  0  0 15  0  0  0  0  0  0
   35.8494    0.2047   -3.9127 H   0  0  0  0  0 15  0  0  0  0  0  0
   37.5464   -0.1753   -4.0062 H   0  0  0  0  0 15  0  0  0  0  0  0
   34.1364   -1.6086   -3.9727 H   0  0  0  0  0 15  0  0  0  0  0  0
   38.3204   -2.5463   -4.2600 H   0  0  0  0  0 15  0  0  0  0  0  0
   33.5764   -3.8811   -4.7242 H   0  0  0  0  0 15  0  0  0  0  0  0
   37.7504   -4.8215   -5.0250 H   0  0  0  0  0 15  0  0  0  0  0  0
   35.3774   -5.4942   -5.2540 H   0  0  0  0  0 15  0  0  0  0  0  0
   36.9525    1.4729   -0.5608 N   0  0  0  0  0 15  0  0  0  0  0  0
   38.1825    2.0656   -0.0430 C   0  0  0  0  0 15  0  0  0  0  0  0
   38.5905    1.4134    1.2578 C   0  0  0  0  0 15  0  0  0  0  0  0
   37.9335    0.5052    1.7662 O   0  0  0  0  0 15  0  0  0  0  0  0
   37.9955    3.5883    0.2199 C   0  0  0  0  0 15  0  0  0  0  0  0
   37.6595    4.4610   -0.9919 C   0  0  0  0  0 15  0  0  0  0  0  0
   38.6565    4.8400   -1.8984 C   0  0  0  0  0 15  0  0  0  0  0  0
   36.3415    4.8757   -1.2076 C   0  0  0  0  0 15  0  0  0  0  0  0
   38.3355    5.6216   -3.0043 C   0  0  0  0  0 15  0  0  0  0  0  0
   36.0225    5.6549   -2.3165 C   0  0  0  0  0 15  0  0  0  0  0  0
   37.0205    6.0270   -3.2132 C   0  0  0  0  0 15  0  0  0  0  0  0
   36.7085    6.7905   -4.3028 O   0  0  0  0  0 15  0  0  0  0  0  0
   36.4405    0.6745   -0.0444 H   0  0  0  0  0 15  0  0  0  0  0  0
   38.9945    1.9023   -0.7748 H   0  0  0  0  0 15  0  0  0  0  0  0
   37.2245    3.7338    1.0061 H   0  0  0  0  0 15  0  0  0  0  0  0
   38.9135    4.0010    0.6835 H   0  0  0  0  0 15  0  0  0  0  0  0
   39.6795    4.5256   -1.7439 H   0  0  0  0  0 15  0  0  0  0  0  0
   35.5585    4.5807   -0.5189 H   0  0  0  0  0 15  0  0  0  0  0  0
   39.1025    5.9112   -3.7044 H   0  0  0  0  0 15  0  0  0  0  0  0
   34.9995    5.9634   -2.4708 H   0  0  0  0  0 15  0  0  0  0  0  0
   35.7675    6.9745   -4.2838 H   0  0  0  0  0 15  0  0  0  0  0  0
   38.4306    0.2974    1.5477 N   0  0  0  0  0 15  0  0  0  0  0  0
   39.6586   -0.3156    2.0448 C   0  0  0  0  0 15  0  0  0  0  0  0
   40.0736   -1.4779    1.1749 C   0  0  0  0  0 15  0  0  0  0  0  0
   39.4306   -1.8140    0.1997 O   0  0  0  0  0 15  0  0  0  0  0  0
   39.4816   -0.7753    3.5309 C   0  0  0  0  0 15  0  0  0  0  0  0
   39.2026    0.3407    4.3677 O   0  0  0  0  0 15  0  0  0  0  0  0
   40.7036   -1.4539    4.1878 C   0  0  0  0  0 15  0  0  0  0  0  0
   37.9236   -0.0691    0.6674 H   0  0  0  0  0 15  0  0  0  0  0  0
   40.4676    0.4360    1.9980 H   0  0  0  0  0 15  0  0  0  0  0  0
   38.6226   -1.4770    3.5814 H   0  0  0  0  0 15  0  0  0  0  0  0
   39.0366   -0.0165    5.2450 H   0  0  0  0  0 15  0  0  0  0  0  0
   40.5106   -1.7267    5.2430 H   0  0  0  0  0 15  0  0  0  0  0  0
   40.9876   -2.3927    3.6830 H   0  0  0  0  0 15  0  0  0  0  0  0
   41.5936   -0.7955    4.1779 H   0  0  0  0  0 15  0  0  0  0  0  0
   39.9087   -1.5758    0.0251 N   0  0  0  0  0 15  0  0  0  0  0  0
   41.3197   -1.7948   -0.5143 C   0  0  0  0  0 15  0  0  0  0  0  0
   41.6707   -0.9350   -1.7249 C   0  0  0  0  0 15  0  0  0  0  0  0
   40.7957   -0.1442   -2.1592 O   0  0  0  0  0 15  0  0  0  0  0  0
   41.3907   -3.2550   -0.9398 C   0  0  0  0  0 15  0  0  0  0  0  0
   39.9497   -3.4841   -1.4244 C   0  0  0  0  0 15  0  0  0  0  0  0
   39.0967   -2.7458   -0.3872 C   0  0  0  0  0 15  0  0  0  0  0  0
   42.0477   -1.5670    0.2511 H   0  0  0  0  0 15  0  0  0  0  0  0
   42.0687   -3.3499   -1.8044 H   0  0  0  0  0 15  0  0  0  0  0  0
   41.5807   -3.8806   -0.0586 H   0  0  0  0  0 15  0  0  0  0  0  0
   39.6817   -2.9110   -2.3257 H   0  0  0  0  0 15  0  0  0  0  0  0
   39.7947   -4.5712   -1.4345 H   0  0  0  0  0 15  0  0  0  0  0  0
   38.1587   -2.3994   -0.8544 H   0  0  0  0  0 15  0  0  0  0  0  0
   38.9417   -3.3985    0.4855 H   0  0  0  0  0 15  0  0  0  0  0  0
   41.3868    0.2480   -1.5564 N   0  0  0  0  0 15  0  0  0  0  0  0
   42.2968    1.3286   -1.9335 C   0  0  0  0  0 15  0  0  0  0  0  0
   43.3128    1.5272   -0.8338 C   0  0  0  0  0 15  0  0  0  0  0  0
   44.4888    1.6636   -1.1351 O   0  0  0  0  0 15  0  0  0  0  0  0
   41.5538    2.6634   -2.2196 C   0  0  0  0  0 15  0  0  0  0  0  0
   40.6148    2.5501   -3.4535 C   0  0  0  0  0 15  0  0  0  0  0  0
   39.8478    3.8212   -3.7258 C   0  0  0  0  0 15  0  0  0  0  0  0
   40.0708    4.8395   -3.0191 O   0  0  0  0  0 15  0  0  0  0  0  0
   39.0048    3.8082   -4.6611 O   0  0  0  0  0 15  0  0  0  0  0  0
   42.8308    1.0386   -2.8539 H   0  0  0  0  0 15  0  0  0  0  0  0
   40.4158    0.4487   -1.4250 H   0  0  0  0  0 15  0  0  0  0  0  0
   42.2978    3.4522   -2.4167 H   0  0  0  0  0 15  0  0  0  0  0  0
   40.9728    2.9507   -1.3310 H   0  0  0  0  0 15  0  0  0  0  0  0
   39.8798    1.7442   -3.3095 H   0  0  0  0  0 15  0  0  0  0  0  0
   41.2128    2.3122   -4.3451 H   0  0  0  0  0 15  0  0  0  0  0  0
   42.8649    1.4899    0.5136 N   0  0  0  0  0 15  0  0  0  0  0  0
   44.0929    1.6153    1.2929 C   0  0  0  0  0 15  0  0  0  0  0  0
   44.5079    0.2818    1.8669 C   0  0  0  0  0 15  0  0  0  0  0  0
   43.8649   -0.7311    1.6722 O   0  0  0  0  0 15  0  0  0  0  0  0
   43.9159    2.6745    2.4321 C   0  0  0  0  0 15  0  0  0  0  0  0
   43.6369    3.9563    1.8818 O   0  0  0  0  0 15  0  0  0  0  0  0
   45.1379    2.9057    3.3479 C   0  0  0  0  0 15  0  0  0  0  0  0
   42.3579    0.5442    0.3926 H   0  0  0  0  0 15  0  0  0  0  0  0
   44.9019    1.9494    0.6180 H   0  0  0  0  0 15  0  0  0  0  0  0
   43.0569    2.3685    3.0656 H   0  0  0  0  0 15  0  0  0  0  0  0
   43.4709    4.5387    2.6288 H   0  0  0  0  0 15  0  0  0  0  0  0
   44.9449    3.6845    4.1103 H   0  0  0  0  0 15  0  0  0  0  0  0
   45.4219    2.0001    3.9101 H   0  0  0  0  0 15  0  0  0  0  0  0
   46.0279    3.2254    2.7722 H   0  0  0  0  0 15  0  0  0  0  0  0
   44.3819   -0.6588    1.4745 O   0  0  0  0  0 15  0  0  0  0  0  0
   45.0729   -1.3121    1.4249 H   0  0  0  0  0 15  0  0  0  0  0  0
M  END
$$$$
