drugbank_target|P48506 Glutamate--cysteine ligase catalytic subunit (DB00142; DB00151)
 OpenBabel12092119253D

  0  0  0     0  0            999 V3000
M  V30 BEGIN CTAB
M  V30 COUNTS 10143 10255 0 0 0
M  V30 BEGIN ATOM
M  V30 1 H -0.908 1.98254 -0.117106 0
M  V30 2 N 0 1.576 0 0
M  V30 3 C 0.933 2.03868 1.02534 0
M  V30 4 C 1.911 0.928543 1.3348 0
M  V30 5 O 3.095 1.19667 1.45644 0
M  V30 6 C 0.222 2.43627 2.35294 0
M  V30 7 C -0.732 3.65373 2.2001 0
M  V30 8 S 0.101 5.13292 1.52614 0
M  V30 9 C 1.257 5.56322 2.86805 0
M  V30 10 H 1.49 2.90518 0.631377 0
M  V30 11 H -0.977 1.52953 0.210867 0
M  V30 12 H 0.981 2.67203 3.11629 0
M  V30 13 H -0.358 1.57376 2.7183 0
M  V30 14 H -1.165 3.90944 3.18086 0
M  V30 15 H -1.563 3.418 1.51819 0
M  V30 16 H 0.729 5.58782 3.83104 0
M  V30 17 H 1.672 6.56266 2.65933 0
M  V30 18 H 2.08 4.83886 2.90714 0
M  V30 19 N 1.4781 -0.272755 1.55222 0
M  V30 20 C 2.7261 -1.00234 1.75492 0
M  V30 21 C 3.0471 -1.8681 0.5592 0
M  V30 22 O 2.3171 -1.91215 -0.425882 0
M  V30 23 H 0.8971 -0.373076 0.647166 0
M  V30 24 H 3.5591 -0.296926 1.92625 0
M  V30 25 H 2.6551 -1.63913 2.65592 0
M  V30 26 N 2.9562 -1.48159 -0.537278 0
M  V30 27 C 3.8862 -1.65029 -1.6519 0
M  V30 28 C 4.8672 -0.499281 -1.62607 0
M  V30 29 O 6.0522 -0.730972 -1.79918 0
M  V30 30 C 3.1822 -1.68303 -3.03795 0
M  V30 31 C 2.1362 -2.8283 -3.21234 0
M  V30 32 C 1.4622 -2.71189 -4.60826 0
M  V30 33 C 2.7622 -4.24211 -3.04701 0
M  V30 34 H 4.4562 -2.58341 -1.51328 0
M  V30 35 H 2.0022 -1.24325 -0.726585 0
M  V30 36 H 3.9552 -1.78693 -3.81637 0
M  V30 37 H 2.6792 -0.715635 -3.18663 0
M  V30 38 H 1.3382 -2.71983 -2.45807 0
M  V30 39 H 0.9862 -1.72435 -4.7252 0
M  V30 40 H 0.6862 -3.48035 -4.7344 0
M  V30 41 H 2.2102 -2.83537 -5.40777 0
M  V30 42 H 3.6242 -4.3593 -3.72341 0
M  V30 43 H 2.0212 -5.01998 -3.28813 0
M  V30 44 H 3.0912 -4.41184 -2.01209 0
M  V30 45 N 4.4343 0.785586 -1.36625 0
M  V30 46 C 5.3643 1.91259 -1.33949 0
M  V30 47 C 6.3453 1.68795 -0.210325 0
M  V30 48 O 7.5303 1.89854 -0.408561 0
M  V30 49 C 4.6603 3.28339 -1.13186 0
M  V30 50 C 3.6143 3.65335 -2.22967 0
M  V30 51 C 2.9403 5.00806 -1.87342 0
M  V30 52 C 4.2403 3.7352 -3.65075 0
M  V30 53 H 5.9343 1.93755 -2.28253 0
M  V30 54 H 3.4803 0.930788 -1.09874 0
M  V30 55 H 5.4333 4.06804 -1.09948 0
M  V30 56 H 4.1573 3.2624 -0.153332 0
M  V30 57 H 2.8163 2.89169 -2.25337 0
M  V30 58 H 2.4643 4.95233 -0.880545 0
M  V30 59 H 2.1643 5.26529 -2.60846 0
M  V30 60 H 3.6883 5.81687 -1.85667 0
M  V30 61 H 5.1023 4.42168 -3.64911 0
M  V30 62 H 3.4993 4.10731 -4.37516 0
M  V30 63 H 4.5693 2.74527 -3.99703 0
M  V30 64 N 5.9124 1.20967 1.01018 0
M  V30 65 C 7.1374 1.0503 1.78839 0
M  V30 66 C 7.5624 -0.395752 1.8389 0
M  V30 67 O 6.9204 -1.28529 1.27867 0
M  V30 68 C 6.9684 1.64602 3.2084 0
M  V30 69 O 6.0724 0.887988 4.02726 0
M  V30 70 H 5.4134 0.369987 0.551367 0
M  V30 71 H 7.9434 1.60399 1.27018 0
M  V30 72 H 7.9534 1.68607 3.71532 0
M  V30 73 H 6.6284 2.69841 3.16479 0
M  V30 74 H 5.2054 0.922648 3.61305 0
M  V30 75 N 7.3905 -1.2043 1.01659 0
M  V30 76 C 8.3225 -2.22626 0.544988 0
M  V30 77 C 9.3355 -1.58479 -0.372609 0
M  V30 78 O 10.5245 -1.77679 -0.170958 0
M  V30 79 C 7.6245 -3.38141 -0.22663 0
M  V30 80 C 6.7975 -4.31877 0.692876 0
M  V30 81 C 5.8565 -5.26191 -0.0311616 0
M  V30 82 O 4.8825 -5.6612 0.591343 0
M  V30 83 N 6.0845 -5.65618 -1.30601 0
M  V30 84 H 8.8495 -2.63716 1.42388 0
M  V30 85 H 6.4105 -1.34971 0.894116 0
M  V30 86 H 8.4025 -3.98239 -0.72024 0
M  V30 87 H 6.9725 -2.95943 -1.00681 0
M  V30 88 H 6.1925 -3.69746 1.36679 0
M  V30 89 H 7.4805 -4.91426 1.31824 0
M  V30 90 H 6.8785 -5.3519 -1.83269 0
M  V30 91 H 5.4355 -6.28025 -1.74435 0
M  V30 92 N 8.8686 -0.792821 -1.36206 0
M  V30 93 C 10.1166 -0.366062 -1.98757 0
M  V30 94 C 10.4376 1.0668 -1.63231 0
M  V30 95 O 9.7076 1.73587 -0.907978 0
M  V30 96 H 8.2876 -0.132364 -0.735179 0
M  V30 97 H 10.9496 -1.01562 -1.66347 0
M  V30 98 H 10.0456 -0.460638 -3.08682 0
M  V30 99 N 10.3467 1.47872 -0.545128 0
M  V30 100 C 11.5717 2.07391 -0.0190611 0
M  V30 101 C 11.9967 1.39688 1.25971 0
M  V30 102 O 11.3547 0.467816 1.7516 0
M  V30 103 C 11.4027 3.60188 0.172335 0
M  V30 104 O 10.5067 3.9339 1.23766 0
M  V30 105 H 9.8477 0.662411 -0.0459059 0
M  V30 106 H 12.3777 1.90066 -0.757365 0
M  V30 107 H 12.3877 4.06129 0.390305 0
M  V30 108 H 11.0627 4.08865 -0.761725 0
M  V30 109 H 9.6397 3.5921 1.00114 0
M  V30 110 N 11.8248 0.280983 1.55075 0
M  V30 111 C 13.2358 -0.215629 1.85451 0
M  V30 112 C 13.5868 -1.54991 1.203 0
M  V30 113 O 12.7118 -2.10699 0.493435 0
M  V30 114 C 13.3068 -0.398026 3.36454 0
M  V30 115 C 11.8658 -0.838866 3.66933 0
M  V30 116 C 11.0128 0.064458 2.77225 0
M  V30 117 H 13.9638 0.502601 1.50531 0
M  V30 118 H 13.9848 -1.23569 3.59876 0
M  V30 119 H 13.4968 0.573241 3.83843 0
M  V30 120 H 11.5978 -1.8214 3.25048 0
M  V30 121 H 11.7108 -0.672123 4.74362 0
M  V30 122 H 10.0748 -0.452863 2.50642 0
M  V30 123 H 10.8578 1.03172 3.2743 0
M  V30 124 N 13.3029 -1.57598 0.00835791 0
M  V30 125 C 14.2329 -2.1198 -0.979113 0
M  V30 126 C 15.2139 -1.03091 -1.35301 0
M  V30 127 O 16.3989 -1.30818 -1.43528 0
M  V30 128 C 13.5289 -2.62995 -2.26828 0
M  V30 129 C 12.4829 -3.76485 -2.03576 0
M  V30 130 C 11.8089 -4.13846 -3.38579 0
M  V30 131 C 13.1089 -5.0342 -1.39161 0
M  V30 132 H 14.8029 -2.94738 -0.526281 0
M  V30 133 H 12.3489 -1.41783 -0.251704 0
M  V30 134 H 14.3019 -2.99669 -2.96271 0
M  V30 135 H 13.0259 -1.7737 -2.7424 0
M  V30 136 H 11.6849 -3.40217 -1.36557 0
M  V30 137 H 11.3329 -3.25232 -3.83709 0
M  V30 138 H 11.0329 -4.90312 -3.23834 0
M  V30 139 H 12.5569 -4.53086 -4.09323 0
M  V30 140 H 13.9709 -5.37812 -1.98573 0
M  V30 141 H 12.3679 -5.84746 -1.34878 0
M  V30 142 H 13.4379 -4.83548 -0.361868 0
M  V30 143 N 14.781 0.264519 -1.55364 0
M  V30 144 C 16.006 1.01726 -1.80739 0
M  V30 145 C 16.431 1.78836 -0.583044 0
M  V30 146 O 15.789 1.75167 0.467566 0
M  V30 147 C 15.837 1.94482 -3.03659 0
M  V30 148 O 14.941 3.03386 -2.7934 0
M  V30 149 H 14.282 0.290395 -0.597132 0
M  V30 150 H 16.812 0.290854 -2.02522 0
M  V30 151 H 16.822 2.36278 -3.32621 0
M  V30 152 H 15.497 1.37772 -3.92418 0
M  V30 153 H 14.074 2.65844 -2.61498 0
M  V30 154 N 16.2591 1.48442 0.529413 0
M  V30 155 C 17.5051 1.57699 1.28463 0
M  V30 156 C 17.8601 0.247913 1.90796 0
M  V30 157 O 17.1531 -0.749279 1.76342 0
M  V30 158 C 17.3471 2.6523 2.39558 0
M  V30 159 C 17.1761 4.08464 1.88114 0
M  V30 160 C 15.9461 4.75596 1.70693 0
M  V30 161 C 18.1441 4.94613 1.40935 0
M  V30 162 N 16.1261 6.03245 1.13881 0
M  V30 163 C 17.4971 6.12511 0.960734 0
M  V30 164 C 19.5521 4.80833 1.29243 0
M  V30 165 C 18.2551 7.18149 0.406792 0
M  V30 166 C 20.2811 5.86593 0.752487 0
M  V30 167 C 19.6431 7.037 0.313946 0
M  V30 168 H 15.7421 0.631608 0.46108 0
M  V30 169 H 18.3261 1.85325 0.596886 0
M  V30 170 H 16.4971 2.39425 3.05827 0
M  V30 171 H 18.2291 2.64169 3.06589 0
M  V30 172 H 14.9841 4.31938 1.94232 0
M  V30 173 H 15.4081 6.71324 0.874831 0
M  V30 174 H 20.0501 3.90635 1.61754 0
M  V30 175 H 17.7681 8.0807 0.0693671 0
M  V30 176 H 21.3541 5.77985 0.665192 0
M  V30 177 H 20.2341 7.8414 -0.0973632 0
M  V30 178 N 17.7372 -0.778329 1.37039 0
M  V30 179 C 18.6472 -1.92253 1.34446 0
M  V30 180 C 19.6632 -1.72267 0.244991 0
M  V30 181 O 20.8392 -1.95615 0.479258 0
M  V30 182 C 17.9042 -3.27282 1.144 0
M  V30 183 C 16.9652 -3.59969 2.33925 0
M  V30 184 C 16.1982 -4.88555 2.14825 0
M  V30 185 O 16.4212 -5.59113 1.12912 0
M  V30 186 O 15.3552 -5.20153 3.02861 0
M  V30 187 H 19.1812 -1.97392 2.30803 0
M  V30 188 H 16.7662 -0.920154 1.17701 0
M  V30 189 H 18.6482 -4.08062 1.05182 0
M  V30 190 H 17.3232 -3.23011 0.211124 0
M  V30 191 H 16.2302 -2.7945 2.48714 0
M  V30 192 H 17.5632 -3.68976 3.25757 0
M  V30 193 N 19.2153 -1.21501 -1.00376 0
M  V30 194 C 20.1253 -0.991447 -2.12621 0
M  V30 195 C 21.1413 0.0568446 -1.73907 0
M  V30 196 O 22.3173 -0.13348 -2.00957 0
M  V30 197 C 19.3823 -0.560312 -3.42142 0
M  V30 198 C 18.4433 -1.68096 -3.95022 0
M  V30 199 C 17.6763 -1.2703 -5.18362 0
M  V30 200 O 17.8993 -0.144438 -5.70217 0
M  V30 201 O 16.8333 -2.08269 -5.64719 0
M  V30 202 H 20.6593 -1.93158 -2.34358 0
M  V30 203 H 18.2443 -0.999999 -1.10997 0
M  V30 204 H 20.1263 -0.329724 -4.20108 0
M  V30 205 H 18.8013 0.351089 -3.2179 0
M  V30 206 H 17.7083 -1.96597 -3.18278 0
M  V30 207 H 19.0413 -2.56983 -4.19786 0
M  V30 208 N 20.6934 1.19889 -1.02296 0
M  V30 209 C 21.9214 1.9339 -0.735399 0
M  V30 210 C 22.3364 1.75148 0.704887 0
M  V30 211 O 21.6934 1.06954 1.47875 0
M  V30 212 C 21.7444 3.45313 -1.06962 0
M  V30 213 O 21.4654 3.62964 -2.45334 0
M  V30 214 C 22.9664 4.35948 -0.804021 0
M  V30 215 H 20.1864 0.61448 -0.269546 0
M  V30 216 H 22.7304 1.522 -1.36585 0
M  V30 217 H 20.8854 3.84359 -0.484455 0
M  V30 218 H 21.2994 4.56886 -2.57595 0
M  V30 219 H 22.7734 5.41174 -1.0879 0
M  V30 220 H 23.2504 4.3842 0.261691 0
M  V30 221 H 23.8564 4.02574 -1.37164 0
M  V30 222 N 22.1715 0.800033 1.35784 0
M  V30 223 C 23.1185 0.203848 2.29898 0
M  V30 224 C 24.0885 -0.658375 1.52495 0
M  V30 225 O 25.2735 -0.604832 1.8096 0
M  V30 226 C 22.4135 -0.64688 3.38983 0
M  V30 227 C 21.5265 0.235054 4.3136 0
M  V30 228 C 20.6615 -0.623054 5.27533 0
M  V30 229 C 19.7005 0.259682 6.11549 0
M  V30 230 N 18.8375 -0.558019 6.99879 0
M  V30 231 H 23.6775 1.01186 2.80295 0
M  V30 232 H 21.2145 0.51053 1.37957 0
M  V30 233 H 23.1725 -1.15521 4.00887 0
M  V30 234 H 21.8025 -1.42021 2.89879 0
M  V30 235 H 20.8545 0.861438 3.70518 0
M  V30 236 H 22.1665 0.914768 4.9034 0
M  V30 237 H 21.3205 -1.19678 5.94779 0
M  V30 238 H 20.0595 -1.33636 4.69034 0
M  V30 239 H 19.0645 0.845726 5.43256 0
M  V30 240 H 20.2895 0.970748 6.72126 0
M  V30 241 H 18.2355 -1.25542 6.43875 0
M  V30 242 H 18.1525 0.0637872 7.55973 0
M  V30 243 H 19.4205 -1.11523 7.71481 0
M  V30 244 N 23.6496 -1.47581 0.552962 0
M  V30 245 C 25.0656 -1.5818 0.212424 0
M  V30 246 C 25.2656 -1.55213 -1.28496 0
M  V30 247 O 24.3216 -1.45329 -2.06484 0
M  V30 248 C 25.6346 -2.88865 0.835318 0
M  V30 249 C 27.1826 -3.0244 0.806156 0
M  V30 250 C 27.6576 -4.35819 1.40804 0
M  V30 251 N 29.1486 -4.42444 1.37103 0
M  V30 252 C 29.8836 -5.44202 1.80641 0
M  V30 253 N 29.3796 -6.52795 2.32015 0
M  V30 254 N 31.1726 -5.35222 1.71738 0
M  V30 255 H 23.3236 -1.47753 1.52587 0
M  V30 256 H 25.5866 -0.702941 0.636064 0
M  V30 257 H 25.2926 -2.9676 1.88749 0
M  V30 258 H 25.1666 -3.7579 0.325848 0
M  V30 259 H 27.5536 -2.94144 -0.237317 0
M  V30 260 H 27.6346 -2.17068 1.35334 0
M  V30 261 H 27.2786 -4.44871 2.45056 0
M  V30 262 H 27.2086 -5.19916 0.836338 0
M  V30 263 H 29.6996 -3.6456 0.995202 0
M  V30 264 H 30.0126 -7.26609 2.63171 0
M  V30 265 H 28.3576 -6.53696 2.36023 0
M  V30 266 H 31.5486 -4.49284 1.31382 0
M  V30 267 H 31.7216 -6.14389 2.05987 0
M  V30 268 N 25.1277 -0.289203 -1.54924 0
M  V30 269 C 26.0777 0.606939 -2.19773 0
M  V30 270 C 27.0617 1.10783 -1.16687 0
M  V30 271 O 28.2537 1.05057 -1.4245 0
M  V30 272 C 25.3827 1.78398 -2.93307 0
M  V30 273 C 24.4687 1.29961 -4.03697 0
M  V30 274 N 24.8597 0.532377 -5.0299 0
M  V30 275 C 23.1577 1.58136 -4.17024 0
M  V30 276 C 23.8587 0.275912 -5.81045 0
M  V30 277 N 22.8347 0.852365 -5.36876 0
M  V30 278 H 26.6367 0.0130779 -2.93897 0
M  V30 279 H 24.1507 -0.09341 -1.62131 0
M  V30 280 H 26.1477 2.43741 -3.38225 0
M  V30 281 H 24.8077 2.38166 -2.20697 0
M  V30 282 H 25.8187 0.17838 -5.17593 0
M  V30 283 H 22.4957 2.18738 -3.55612 0
M  V30 284 H 23.8857 -0.339502 -6.71042 0
M  V30 285 N 26.6058 1.57591 -0.0167156 0
M  V30 286 C 27.5688 2.08393 0.954204 0
M  V30 287 C 28.5688 0.996531 1.26198 0
M  V30 288 O 29.7588 1.25858 1.20438 0
M  V30 289 C 26.8908 2.5394 2.27436 0
M  V30 290 H 28.0838 2.95455 0.514451 0
M  V30 291 H 25.6368 1.54582 0.231089 0
M  V30 292 H 26.3718 1.70171 2.76066 0
M  V30 293 H 26.1568 3.33371 2.06412 0
M  V30 294 H 27.6468 2.93512 2.97053 0
M  V30 295 N 28.0839 -0.256276 1.55502 0
M  V30 296 C 29.3609 -1.00789 1.67633 0
M  V30 297 C 29.7409 -2.03706 0.553826 0
M  V30 298 O 29.0889 -2.24145 -0.443969 0
M  V30 299 C 29.2989 -1.64968 3.07549 0
M  V30 300 C 30.6469 -2.15505 3.65845 0
M  V30 301 O 31.6709 -1.74925 3.1029 0
M  V30 302 O 30.5299 -2.89986 4.63217 0
M  V30 303 H 27.6239 -0.468553 0.681459 0
M  V30 304 H 30.1699 -0.250806 1.67836 0
M  V30 305 H 28.9419 -0.904785 3.80696 0
M  V30 306 H 28.5649 -2.47321 3.11317 0
M  V30 307 N 29.562 -1.4872 -0.521534 0
M  V30 308 C 30.512 -1.60269 -1.62166 0
M  V30 309 C 31.496 -0.45935 -1.54204 0
M  V30 310 O 32.688 -0.711241 -1.62081 0
M  V30 311 C 29.817 -1.65344 -3.00859 0
M  V30 312 C 28.903 -2.85187 -3.13894 0
M  V30 313 N 29.294 -4.09509 -2.96877 0
M  V30 314 C 27.592 -2.82695 -3.44963 0
M  V30 315 C 28.293 -4.89959 -3.13552 0
M  V30 316 N 27.269 -4.22934 -3.41508 0
M  V30 317 H 31.071 -2.5413 -1.47632 0
M  V30 318 H 28.585 -1.45209 -0.727194 0
M  V30 319 H 30.582 -1.71713 -3.79895 0
M  V30 320 H 29.242 -0.726058 -3.16478 0
M  V30 321 H 30.253 -4.39814 -2.73467 0
M  V30 322 H 26.93 -1.99249 -3.66887 0
M  V30 323 H 28.32 -5.98654 -3.05061 0
M  V30 324 N 31.0401 0.771051 -1.3745 0
M  V30 325 C 32.2861 1.5319 -1.32894 0
M  V30 326 C 32.6191 1.94008 0.0862511 0
M  V30 327 O 31.8941 1.64124 1.04373 0
M  V30 328 C 32.1771 2.79648 -2.26868 0
M  V30 329 C 32.0301 2.45079 -3.77169 0
M  V30 330 C 33.3491 3.81583 -2.19277 0
M  V30 331 H 30.4681 0.555744 -0.484064 0
M  V30 332 H 33.1101 0.884492 -1.68157 0
M  V30 333 H 31.2601 3.34891 -1.96926 0
M  V30 334 H 32.9321 1.95745 -4.1771 0
M  V30 335 H 31.1751 1.77767 -3.95704 0
M  V30 336 H 31.8461 3.35478 -4.38359 0
M  V30 337 H 34.3221 3.35835 -2.45671 0
M  V30 338 H 33.1981 4.67787 -2.87171 0
M  V30 339 H 33.4591 4.25897 -1.18592 0
M  V30 340 N 32.5182 1.22032 0.997298 0
M  V30 341 C 33.9342 0.979326 1.26021 0
M  V30 342 C 34.1342 -0.32972 1.98784 0
M  V30 343 O 33.1902 -1.05345 2.29475 0
M  V30 344 C 34.5032 2.17509 2.07631 0
M  V30 345 C 36.0512 2.21817 2.2083 0
M  V30 346 C 36.5262 3.40933 3.05825 0
M  V30 347 N 38.0172 3.41067 3.13412 0
M  V30 348 C 38.7522 4.29885 3.79455 0
M  V30 349 N 38.2482 5.28914 4.47462 0
M  V30 350 N 40.0412 4.17673 3.76173 0
M  V30 351 H 32.1922 2.06202 0.509352 0
M  V30 352 H 34.4552 0.90334 0.287541 0
M  V30 353 H 34.1612 3.12415 1.61524 0
M  V30 354 H 34.0352 2.17206 3.08385 0
M  V30 355 H 36.4222 1.27462 2.66153 0
M  V30 356 H 36.5032 2.2616 1.1952 0
M  V30 357 H 36.1472 4.35586 2.61203 0
M  V30 358 H 36.0772 3.33829 4.07266 0
M  V30 359 H 38.5682 2.69406 2.65007 0
M  V30 360 H 38.8812 5.92973 4.95583 0
M  V30 361 H 37.2262 5.32831 4.46224 0
M  V30 362 H 40.4172 3.39564 3.22202 0
M  V30 363 H 40.5902 4.87098 4.27363 0
M  V30 364 N 33.9963 -1.19345 1.0293 0
M  V30 365 C 35.4123 -1.41069 0.746446 0
M  V30 366 C 35.6123 -1.90078 -0.668776 0
M  V30 367 O 34.6683 -2.0778 -1.4347 0
M  V30 368 C 35.9813 -2.42141 1.78292 0
M  V30 369 C 37.5293 -2.55887 1.80252 0
M  V30 370 C 38.0043 -3.60214 2.8286 0
M  V30 371 N 39.4953 -3.67711 2.81679 0
M  V30 372 C 40.2303 -4.48128 3.57727 0
M  V30 373 N 39.7263 -5.32248 4.43491 0
M  V30 374 N 41.5193 -4.42782 3.46267 0
M  V30 375 H 33.6703 -0.858536 1.94275 0
M  V30 376 H 35.9333 -0.439541 0.839945 0
M  V30 377 H 35.6393 -2.13155 2.79746 0
M  V30 378 H 35.5133 -3.41323 1.60557 0
M  V30 379 H 37.9003 -2.84196 0.794757 0
M  V30 380 H 37.9813 -1.56858 2.02062 0
M  V30 381 H 37.6253 -3.32647 3.83807 0
M  V30 382 H 37.5553 -4.58895 2.58307 0
M  V30 383 H 40.0463 -3.07634 2.19476 0
M  V30 384 H 40.3593 -5.90729 4.98256 0
M  V30 385 H 38.7043 -5.31707 4.47564 0
M  V30 386 H 41.8953 -3.76107 2.78677 0
M  V30 387 H 42.0683 -5.05215 4.05785 0
M  V30 388 N 35.4744 -0.807222 -1.35358 0
M  V30 389 C 36.4244 -0.190706 -2.27201 0
M  V30 390 C 37.4084 0.635838 -1.47804 0
M  V30 391 O 38.6004 0.492991 -1.69996 0
M  V30 392 C 35.7294 0.659337 -3.36909 0
M  V30 393 C 34.8154 -0.176971 -4.23731 0
M  V30 394 N 35.2064 -1.24029 -4.90357 0
M  V30 395 C 33.5044 0.0412953 -4.45981 0
M  V30 396 C 34.2054 -1.75092 -5.54723 0
M  V30 397 N 33.1814 -1.05727 -5.33219 0
M  V30 398 H 36.9834 -1.0043 -2.76208 0
M  V30 399 H 34.4974 -0.648445 -1.48892 0
M  V30 400 H 36.4944 1.11706 -4.01656 0
M  V30 401 H 35.1544 1.47127 -2.89454 0
M  V30 402 H 36.1654 -1.62295 -4.91814 0
M  V30 403 H 32.8424 0.82232 -4.09322 0
M  V30 404 H 34.2324 -2.63963 -6.17878 0
M  V30 405 N 36.9525 1.47285 -0.560781 0
M  V30 406 C 38.2005 2.02064 -0.0379868 0
M  V30 407 C 38.5215 1.43711 1.31803 0
M  V30 408 O 37.7915 0.61362 1.86042 0
M  V30 409 H 36.3715 0.746918 -0.0110531 0
M  V30 410 H 39.0335 1.80648 -0.731598 0
M  V30 411 H 38.1295 3.12064 0.0474463 0
M  V30 412 N 38.4306 0.297415 1.54768 0
M  V30 413 C 39.6796 -0.313669 1.99246 0
M  V30 414 C 39.9926 -1.55281 1.18942 0
M  V30 415 O 41.1986 -2.23825 1.5367 0
M  V30 416 C 39.6546 -0.609407 3.54703 0
M  V30 417 C 39.2626 0.611192 4.43811 0
M  V30 418 C 41.0066 -1.18188 4.07715 0
M  V30 419 C 38.9136 0.288805 5.90694 0
M  V30 420 H 37.8436 -0.120979 0.744231 0
M  V30 421 H 40.4946 0.40556 1.78962 0
M  V30 422 H 38.8766 -1.38813 3.70873 0
M  V30 423 H 40.0506 1.3875 4.39414 0
M  V30 424 H 38.3656 1.10205 4.01552 0
M  V30 425 H 40.9626 -1.43727 5.15021 0
M  V30 426 H 41.3056 -2.12299 3.58099 0
M  V30 427 H 41.8386 -0.464944 3.95074 0
M  V30 428 H 38.5776 1.19838 6.44453 0
M  V30 429 H 38.0976 -0.450305 5.98107 0
M  V30 430 H 39.7766 -0.110933 6.46905 0
M  V30 431 N 39.9087 -1.5758 0.0250728 0
M  V30 432 C 40.8387 -2.13007 -0.956575 0
M  V30 433 C 41.8197 -1.0452 -1.342 0
M  V30 434 O 43.0047 -1.32332 -1.42133 0
M  V30 435 C 40.1347 -2.65386 -2.24026 0
M  V30 436 C 39.0887 -3.78623 -1.99571 0
M  V30 437 C 38.4147 -4.17414 -3.3417 0
M  V30 438 C 39.7147 -5.04867 -1.33814 0
M  V30 439 H 41.4087 -2.9528 -0.494991 0
M  V30 440 H 38.9547 -1.42042 -0.236651 0
M  V30 441 H 40.9077 -3.02794 -2.93076 0
M  V30 442 H 39.6317 -1.80268 -2.72343 0
M  V30 443 H 38.2907 -3.41646 -1.32941 0
M  V30 444 H 37.9387 -3.29284 -3.80238 0
M  V30 445 H 37.6387 -4.93719 -3.18615 0
M  V30 446 H 39.1627 -4.57402 -4.04495 0
M  V30 447 H 40.5767 -5.39888 -1.92857 0
M  V30 448 H 38.9737 -5.86144 -1.28669 0
M  V30 449 H 40.0437 -4.83904 -0.310561 0
M  V30 450 N 41.3868 0.248026 -1.55636 0
M  V30 451 C 42.3188 1.32993 -1.8667 0
M  V30 452 C 43.3318 1.44345 -0.752877 0
M  V30 453 O 44.5208 1.45715 -1.03098 0
M  V30 454 C 41.6208 2.70863 -2.03682 0
M  V30 455 C 40.7938 2.81792 -3.34532 0
M  V30 456 C 39.8528 4.005 -3.41301 0
M  V30 457 O 38.8788 3.9008 -4.14519 0
M  V30 458 N 40.0808 5.13618 -2.70512 0
M  V30 459 H 42.8458 1.06707 -2.8006 0
M  V30 460 H 40.4068 0.438129 -1.55859 0
M  V30 461 H 42.3988 3.48612 -2.05553 0
M  V30 462 H 40.9688 2.89862 -1.17041 0
M  V30 463 H 40.1888 1.90729 -3.44987 0
M  V30 464 H 41.4768 2.86043 -4.20781 0
M  V30 465 H 40.8748 5.24975 -2.10755 0
M  V30 466 H 39.4318 5.89505 -2.78077 0
M  V30 467 N 42.8649 1.48995 0.513639 0
M  V30 468 C 44.1119 1.57843 1.26854 0
M  V30 469 C 44.4399 0.259501 1.92761 0
M  V30 470 O 43.6949 -0.75159 1.80692 0
M  V30 471 C 43.9939 2.67756 2.36731 0
M  V30 472 C 43.6599 4.09669 1.88368 0
M  V30 473 C 42.3219 4.48291 1.74896 0
M  V30 474 C 44.6739 4.98537 1.52021 0
M  V30 475 C 42.0019 5.73568 1.23438 0
M  V30 476 C 44.3539 6.24319 1.0202 0
M  V30 477 C 43.0179 6.61783 0.871778 0
M  V30 478 H 42.2879 0.577587 0.464192 0
M  V30 479 H 44.9349 1.82778 0.571366 0
M  V30 480 H 43.2399 2.36743 3.12185 0
M  V30 481 H 44.9369 2.71813 2.9482 0
M  V30 482 H 41.5269 3.79176 1.99808 0
M  V30 483 H 45.7109 4.69363 1.61281 0
M  V30 484 H 40.9669 6.01304 1.10648 0
M  V30 485 H 45.1409 6.92566 0.729722 0
M  V30 486 H 42.7679 7.5874 0.470852 0
M  V30 487 N 44.343 -0.763751 1.37857 0
M  V30 488 C 45.273 -1.89103 1.36975 0
M  V30 489 C 46.254 -1.68439 0.237152 0
M  V30 490 O 47.439 -1.8918 0.438713 0
M  V30 491 C 44.569 -3.26496 1.18395 0
M  V30 492 C 43.523 -3.61741 2.28751 0
M  V30 493 C 42.849 -4.97762 1.95286 0
M  V30 494 C 44.149 -3.67665 3.70972 0
M  V30 495 H 45.843 -1.90099 2.31307 0
M  V30 496 H 43.389 -0.91319 1.11341 0
M  V30 497 H 45.342 -4.05003 1.16406 0
M  V30 498 H 44.066 -3.25955 0.205215 0
M  V30 499 H 42.725 -2.85547 2.29909 0
M  V30 500 H 42.373 -4.93769 0.959221 0
M  V30 501 H 42.073 -5.22313 2.69189 0
M  V30 502 H 43.597 -5.7866 1.94898 0
M  V30 503 H 45.011 -4.36307 3.719 0
M  V30 504 H 43.408 -4.03718 4.43995 0
M  V30 505 H 44.478 -2.68134 4.0402 0
M  V30 506 N 45.8211 -1.22559 -0.990812 0
M  V30 507 C 46.7711 -0.964807 -2.0658 0
M  V30 508 C 47.7551 0.0853472 -1.60673 0
M  V30 509 O 48.9471 -0.125443 -1.76555 0
M  V30 510 C 46.0761 -0.546707 -3.38919 0
M  V30 511 C 45.1621 -1.6317 -3.91454 0
M  V30 512 N 45.5531 -2.85985 -4.17189 0
M  V30 513 C 43.8511 -1.50387 -4.19881 0
M  V30 514 C 44.5521 -3.56159 -4.59919 0
M  V30 515 N 43.5281 -2.83637 -4.63736 0
M  V30 516 H 47.3301 -1.89769 -2.24421 0
M  V30 517 H 44.8441 -1.12343 -1.17273 0
M  V30 518 H 46.8411 -0.34119 -4.15502 0
M  V30 519 H 45.5011 0.379254 -3.22478 0
M  V30 520 H 46.5121 -3.22392 -4.05319 0
M  V30 521 H 43.1891 -0.644254 -4.12499 0
M  V30 522 H 44.5791 -4.6139 -4.88435 0
M  V30 523 N 47.2992 1.18797 -1.03562 0
M  V30 524 C 48.5482 1.87978 -0.731235 0
M  V30 525 C 48.8612 1.80911 0.743671 0
M  V30 526 O 50.0672 2.45407 1.16137 0
M  V30 527 C 48.5232 3.3721 -1.25768 0
M  V30 528 C 48.1312 3.52818 -2.76085 0
M  V30 529 C 49.8752 4.11825 -1.0296 0
M  V30 530 C 47.7822 4.9598 -3.22114 0
M  V30 531 H 46.7122 0.704063 -0.269835 0
M  V30 532 H 49.3632 1.34266 -1.25079 0
M  V30 533 H 47.7452 3.90359 -0.666011 0
M  V30 534 H 48.9192 3.09965 -3.40966 0
M  V30 535 H 47.2342 2.91602 -2.97249 0
M  V30 536 H 49.8312 5.17411 -1.34869 0
M  V30 537 H 50.1742 4.16287 0.0333546 0
M  V30 538 H 50.7072 3.64833 -1.58562 0
M  V30 539 H 47.4462 4.96684 -4.27768 0
M  V30 540 H 46.9662 5.39569 -2.61965 0
M  V30 541 H 48.6452 5.6467 -3.15844 0
M  V30 542 N 48.7773 0.814389 1.34928 0
M  V30 543 C 50.0073 0.41054 2.0248 0
M  V30 544 C 50.4153 -0.985625 1.61499 0
M  V30 545 O 49.7583 -1.64781 0.811976 0
M  V30 546 C 49.8203 0.423384 3.56998 0
M  V30 547 C 49.4843 1.77141 4.21272 0
M  V30 548 C 50.4813 2.73093 4.42398 0
M  V30 549 C 48.1663 2.05755 4.58225 0
M  V30 550 C 50.1603 3.95838 4.9959 0
M  V30 551 C 47.8473 3.28762 5.1513 0
M  V30 552 C 48.8453 4.23621 5.35755 0
M  V30 553 O 48.5333 5.44456 5.91458 0
M  V30 554 H 48.2653 0.163997 0.655806 0
M  V30 555 H 50.8193 1.10155 1.73364 0
M  V30 556 H 49.0493 -0.324276 3.85338 0
M  V30 557 H 50.7383 0.0407683 4.0588 0
M  V30 558 H 51.5043 2.5228 4.14222 0
M  V30 559 H 47.3833 1.32727 4.4148 0
M  V30 560 H 50.9273 4.69891 5.15605 0
M  V30 561 H 46.8243 3.49443 5.42734 0
M  V30 562 H 47.5923 5.4586 6.09901 0
M  V30 563 N 50.2554 -1.46986 0.568584 0
M  V30 564 C 51.2054 -2.27179 -0.193339 0
M  V30 565 C 52.1894 -1.35035 -0.874895 0
M  V30 566 O 53.3814 -1.5931 -0.771322 0
M  V30 567 C 50.5104 -3.21063 -1.21546 0
M  V30 568 C 49.5964 -4.2069 -0.536738 0
M  V30 569 N 49.9874 -5.04218 0.399673 0
M  V30 570 C 48.2854 -4.38961 -0.789254 0
M  V30 571 C 48.9864 -5.76242 0.795017 0
M  V30 572 N 47.9624 -5.434 0.1473 0
M  V30 573 H 51.7644 -2.89146 0.526458 0
M  V30 574 H 49.2784 -1.57664 0.389342 0
M  V30 575 H 51.2754 -3.77209 -1.77536 0
M  V30 576 H 49.9354 -2.60654 -1.93623 0
M  V30 577 H 50.9464 -5.12077 0.774454 0
M  V30 578 H 47.6234 -3.89713 -1.49767 0
M  V30 579 H 49.0134 -6.53417 1.56513 0
M  V30 580 N 51.7335 -0.305618 -1.54608 0
M  V30 581 C 52.6965 0.555591 -2.22364 0
M  V30 582 C 53.6965 1.05768 -1.21119 0
M  V30 583 O 54.8865 0.952972 -1.45822 0
M  V30 584 C 52.0185 1.76974 -2.91364 0
M  V30 585 H 53.2115 -0.0364572 -2.99878 0
M  V30 586 H 50.7645 -0.0565007 -1.56198 0
M  V30 587 H 51.4995 2.40151 -2.17941 0
M  V30 588 H 51.2845 1.41732 -3.65588 0
M  V30 589 H 52.7745 2.38148 -3.43038 0
M  V30 590 N 53.2116 1.57565 -0.0334293 0
M  V30 591 C 54.4576 1.92262 0.645226 0
M  V30 592 C 54.7906 0.910543 1.71531 0
M  V30 593 O 54.0656 -0.066099 1.94388 0
M  V30 594 C 54.3486 3.37422 1.2577 0
M  V30 595 C 54.2016 4.49369 0.196891 0
M  V30 596 C 55.5206 3.82628 2.17449 0
M  V30 597 H 52.6396 0.699171 0.233085 0
M  V30 598 H 55.2816 1.89779 -0.0915694 0
M  V30 599 H 53.4316 3.39669 1.88566 0
M  V30 600 H 55.1036 4.59254 -0.433962 0
M  V30 601 H 53.3466 4.31168 -0.477137 0
M  V30 602 H 54.0176 5.47978 0.665124 0
M  V30 603 H 56.4936 3.82145 1.64634 0
M  V30 604 H 55.3696 4.84883 2.57254 0
M  V30 605 H 55.6306 3.18376 3.0674 0
M  V30 606 N 54.6897 -0.239769 1.55765 0
M  V30 607 C 55.6367 -1.29696 1.90913 0
M  V30 608 C 56.6067 -1.47478 0.764164 0
M  V30 609 O 57.7917 -1.61345 1.01845 0
M  V30 610 C 54.9317 -2.64598 2.21544 0
M  V30 611 C 54.0447 -2.54765 3.48882 0
M  V30 612 C 53.1797 -3.82069 3.69049 0
M  V30 613 C 52.2187 -3.66883 4.89963 0
M  V30 614 N 51.3557 -4.86094 5.06614 0
M  V30 615 H 56.1957 -0.990224 2.81067 0
M  V30 616 H 53.7327 -0.477684 1.39128 0
M  V30 617 H 55.6907 -3.43132 2.3731 0
M  V30 618 H 54.3207 -2.93405 1.34585 0
M  V30 619 H 53.3727 -1.67763 3.41409 0
M  V30 620 H 54.6847 -2.39457 4.37563 0
M  V30 621 H 53.8387 -4.69046 3.84812 0
M  V30 622 H 52.5777 -4.00282 2.78614 0
M  V30 623 H 51.5827 -2.78289 4.74168 0
M  V30 624 H 52.8077 -3.50157 5.81865 0
M  V30 625 H 50.7537 -5.04655 4.19117 0
M  V30 626 H 50.6707 -4.73443 5.89396 0
M  V30 627 H 51.9387 -5.74549 5.26795 0
M  V30 628 N 56.1678 -1.49265 -0.50573 0
M  V30 629 C 57.4448 -1.49012 -1.26707 0
M  V30 630 C 57.8248 -0.215205 -2.1 0
M  V30 631 O 57.1728 0.802547 -2.13943 0
M  V30 632 C 57.3828 -2.7663 -2.12783 0
M  V30 633 C 58.7308 -3.25932 -2.72127 0
M  V30 634 O 59.7548 -2.77715 -2.23054 0
M  V30 635 O 58.6138 -4.09897 -3.61451 0
M  V30 636 H 55.7078 -0.596197 -0.57313 0
M  V30 637 H 58.2538 -1.61524 -0.52039 0
M  V30 638 H 57.0258 -3.60916 -1.5118 0
M  V30 639 H 56.6488 -2.66956 -2.94653 0
M  V30 640 N 57.6459 0.756429 -1.3826 0
M  V30 641 C 59.0619 1.0591 -1.19395 0
M  V30 642 C 59.2619 2.01459 -0.0406567 0
M  V30 643 O 58.3179 2.44909 0.614467 0
M  V30 644 C 59.6309 1.64191 -2.51916 0
M  V30 645 C 61.1789 1.76376 -2.58574 0
M  V30 646 C 61.6539 2.38069 -3.91264 0
M  V30 647 N 63.1449 2.45503 -3.92788 0
M  V30 648 C 63.8799 2.94126 -4.92217 0
M  V30 649 N 63.3759 3.42805 -6.02043 0
M  V30 650 N 65.1689 2.9314 -4.7961 0
M  V30 651 H 57.3199 0.122313 -2.12048 0
M  V30 652 H 59.5829 0.116892 -0.940766 0
M  V30 653 H 59.2889 1.01451 -3.3675 0
M  V30 654 H 59.1629 2.6329 -2.70108 0
M  V30 655 H 61.5499 2.38244 -1.74137 0
M  V30 656 H 61.6309 0.759894 -2.44252 0
M  V30 657 H 61.2749 1.76835 -4.76121 0
M  V30 658 H 61.2049 3.39091 -4.02895 0
M  V30 659 H 63.6959 2.1107 -3.13461 0
M  V30 660 H 64.0089 3.78354 -6.73846 0
M  V30 661 H 62.3539 3.4087 -6.05667 0
M  V30 662 H 65.5449 2.54419 -3.92923 0
M  V30 663 H 65.7179 3.30721 -5.5725 0
M  V30 664 N 59.124 1.23083 0.984299 0
M  V30 665 C 60.074 0.975749 2.06066 0
M  V30 666 C 61.058 -0.0768251 1.60716 0
M  V30 667 O 62.25 0.134805 1.76486 0
M  V30 668 C 59.379 0.564673 3.38624 0
M  V30 669 C 58.465 1.65244 3.90583 0
M  V30 670 N 58.856 2.88193 4.15666 0
M  V30 671 C 57.154 1.52612 4.19077 0
M  V30 672 C 57.855 3.58593 4.58024 0
M  V30 673 N 56.831 2.86093 4.62225 0
M  V30 674 H 60.633 1.90957 2.23411 0
M  V30 675 H 58.147 1.12963 1.16675 0
M  V30 676 H 60.144 0.36322 4.15315 0
M  V30 677 H 58.804 -0.362147 3.22674 0
M  V30 678 H 59.815 3.24537 4.03604 0
M  V30 679 H 56.492 0.666121 4.12152 0
M  V30 680 H 57.882 4.63974 4.85982 0
M  V30 681 N 60.6021 -1.18246 1.0419 0
M  V30 682 C 61.5491 -2.2192 0.634037 0
M  V30 683 C 62.5191 -1.62179 -0.358765 0
M  V30 684 O 63.7041 -1.89122 -0.252466 0
M  V30 685 C 60.8441 -3.451 0.00445535 0
M  V30 686 C 59.9571 -4.19174 1.04487 0
M  V30 687 C 59.0921 -5.29813 0.383676 0
M  V30 688 C 58.1311 -5.9566 1.4091 0
M  V30 689 N 57.2681 -6.97834 0.772784 0
M  V30 690 H 62.1081 -2.56164 1.52263 0
M  V30 691 H 59.6451 -1.25843 0.761701 0
M  V30 692 H 61.6031 -4.15485 -0.377919 0
M  V30 693 H 60.2331 -3.11472 -0.847652 0
M  V30 694 H 59.2851 -3.47604 1.54518 0
M  V30 695 H 60.5971 -4.64267 1.82368 0
M  V30 696 H 59.7511 -6.06677 -0.0528366 0
M  V30 697 H 58.4901 -4.85825 -0.427208 0
M  V30 698 H 57.4951 -5.17535 1.85574 0
M  V30 699 H 58.7201 -6.4173 2.22171 0
M  V30 700 H 56.6661 -6.55998 -0.0177708 0
M  V30 701 H 56.5831 -7.41186 1.48928 0
M  V30 702 H 57.8511 -7.78665 0.36071 0
M  V30 703 N 62.0802 -0.821533 -1.34494 0
M  V30 704 C 63.3572 -0.33159 -1.92769 0
M  V30 705 C 63.7372 1.18088 -1.74981 0
M  V30 706 O 63.0852 1.98733 -1.12772 0
M  V30 707 C 63.2952 -0.759398 -3.40638 0
M  V30 708 C 64.6432 -0.757433 -4.1779 0
M  V30 709 O 65.6672 -0.70189 -3.49216 0
M  V30 710 O 64.5262 -0.829361 -5.4017 0
M  V30 711 H 61.6202 -0.0902502 -0.822061 0
M  V30 712 H 64.1662 -0.906231 -1.43477 0
M  V30 713 H 62.9382 -1.8012 -3.47379 0
M  V30 714 H 62.5612 -0.160378 -3.97276 0
M  V30 715 N 63.5583 1.46682 -0.576371 0
M  V30 716 C 64.8043 2.02712 -0.0596221 0
M  V30 717 C 65.1373 1.44765 1.29448 0
M  V30 718 O 64.4123 0.610355 1.84675 0
M  V30 719 C 64.6953 3.60098 0.0129503 0
M  V30 720 C 64.5483 4.28441 -1.3696 0
M  V30 721 C 65.8673 4.34224 0.71678 0
M  V30 722 H 62.9863 0.736637 -0.0231407 0
M  V30 723 H 65.6283 1.74898 -0.742351 0
M  V30 724 H 63.7783 3.83926 0.594378 0
M  V30 725 H 65.4503 4.15896 -1.9957 0
M  V30 726 H 63.6933 3.8805 -1.93907 0
M  V30 727 H 64.3643 5.3716 -1.27135 0
M  V30 728 H 66.8403 4.15503 0.222908 0
M  V30 729 H 65.7163 5.43936 0.73657 0
M  V30 730 H 65.9773 4.04823 1.77682 0
M  V30 731 N 65.0364 0.313813 1.54444 0
M  V30 732 C 65.9664 -0.549454 2.26943 0
M  V30 733 C 66.9474 -1.12741 1.27372 0
M  V30 734 O 68.1324 -1.15436 1.56167 0
M  V30 735 C 65.2624 -1.71523 3.01989 0
M  V30 736 C 64.2164 -1.26703 4.08816 0
M  V30 737 C 63.5424 -2.51898 4.71647 0
M  V30 738 C 64.8424 -0.388962 5.2085 0
M  V30 739 H 66.5364 0.0552661 2.99349 0
M  V30 740 H 64.0824 0.0280207 1.43973 0
M  V30 741 H 66.0354 -2.32535 3.51433 0
M  V30 742 H 64.7594 -2.34639 2.27183 0
M  V30 743 H 63.4184 -0.679896 3.6024 0
M  V30 744 H 63.0664 -3.13356 3.93468 0
M  V30 745 H 62.7664 -2.22605 5.43802 0
M  V30 746 H 64.2904 -3.1369 5.23861 0
M  V30 747 H 65.7044 -0.905107 5.6611 0
M  V30 748 H 64.1014 -0.18924 5.99802 0
M  V30 749 H 65.1714 0.582699 4.81386 0
M  V30 750 N 66.5145 -1.57545 0.0417849 0
M  V30 751 C 67.4615 -2.10977 -0.935805 0
M  V30 752 C 68.4315 -1.01486 -1.31491 0
M  V30 753 O 69.6165 -1.2898 -1.40602 0
M  V30 754 C 66.7565 -2.65169 -2.2086 0
M  V30 755 C 65.8695 -3.88714 -1.88482 0
M  V30 756 C 65.0045 -4.31254 -3.1015 0
M  V30 757 C 64.0435 -5.47524 -2.7365 0
M  V30 758 N 63.1805 -5.85162 -3.87982 0
M  V30 759 H 68.0205 -2.94218 -0.473249 0
M  V30 760 H 65.5575 -1.45415 -0.221981 0
M  V30 761 H 67.5155 -2.94685 -2.95325 0
M  V30 762 H 66.1455 -1.8474 -2.64709 0
M  V30 763 H 65.1975 -3.65849 -1.04205 0
M  V30 764 H 66.5095 -4.73245 -1.57608 0
M  V30 765 H 65.6635 -4.62273 -3.92923 0
M  V30 766 H 64.4025 -3.45516 -3.44195 0
M  V30 767 H 63.4075 -5.16187 -1.89291 0
M  V30 768 H 64.6325 -6.34971 -2.40807 0
M  V30 769 H 62.5785 -5.02377 -4.21846 0
M  V30 770 H 62.4955 -6.64362 -3.60775 0
M  V30 771 H 63.7635 -6.20791 -4.71422 0
M  V30 772 N 67.9926 0.231505 -1.5589 0
M  V30 773 C 69.2386 0.954429 -1.79617 0
M  V30 774 C 69.5936 1.82367 -0.613199 0
M  V30 775 O 68.8866 1.87524 0.393094 0
M  V30 776 C 69.0806 1.83577 -3.0665 0
M  V30 777 C 68.9096 1.05334 -4.3719 0
M  V30 778 C 67.6796 0.75225 -4.99669 0
M  V30 779 C 69.8776 0.423444 -5.12554 0
M  V30 780 N 67.8596 -0.052627 -6.13877 0
M  V30 781 C 69.2306 -0.245287 -6.19515 0
M  V30 782 C 71.2856 0.335466 -4.96769 0
M  V30 783 C 69.9886 -0.993566 -7.12405 0
M  V30 784 C 72.0146 -0.399321 -5.9005 0
M  V30 785 C 71.3766 -1.05663 -6.9643 0
M  V30 786 H 67.4756 0.329846 -0.709031 0
M  V30 787 H 70.0596 0.226172 -1.93382 0
M  V30 788 H 68.2306 2.53592 -2.94186 0
M  V30 789 H 69.9626 2.49541 -3.18608 0
M  V30 790 H 66.7176 1.06783 -4.61405 0
M  V30 791 H 67.1416 -0.443609 -6.75545 0
M  V30 792 H 71.7836 0.829311 -4.14587 0
M  V30 793 H 69.5016 -1.49896 -7.94076 0
M  V30 794 H 73.0876 -0.468265 -5.79913 0
M  V30 795 H 71.9676 -1.61612 -7.67366 0
M  V30 796 N 69.4707 1.49531 0.497807 0
M  V30 797 C 70.7187 1.58865 1.24926 0
M  V30 798 C 71.0397 0.278721 1.92998 0
M  V30 799 O 70.3097 -0.702144 1.82885 0
M  V30 800 H 68.8897 0.585343 0.464094 0
M  V30 801 H 71.5517 1.86174 0.57666 0
M  V30 802 H 70.6477 2.38633 2.01149 0
M  V30 803 N 70.9488 -0.749086 1.3866 0
M  V30 804 C 72.2258 -1.4992 1.25632 0
M  V30 805 C 72.6058 -2.10633 -0.140317 0
M  V30 806 O 71.9538 -1.97437 -1.15025 0
M  V30 807 C 72.1638 -2.56195 2.36992 0
M  V30 808 C 73.5118 -3.22972 2.75634 0
M  V30 809 O 74.5358 -2.66502 2.36337 0
M  V30 810 O 73.3948 -4.25122 3.43415 0
M  V30 811 H 70.4888 -0.665067 0.491544 0
M  V30 812 H 73.0348 -0.784113 1.50498 0
M  V30 813 H 71.8068 -2.09612 3.30422 0
M  V30 814 H 71.4298 -3.35279 2.13714 0
M  V30 815 N 72.4269 -1.23603 -0.977757 0
M  V30 816 C 73.3369 -1.03632 -2.1047 0
M  V30 817 C 74.3529 0.0199435 -1.73989 0
M  V30 818 O 75.5289 -0.176076 -2.00629 0
M  V30 819 C 72.5939 -0.63276 -3.40877 0
M  V30 820 C 71.6549 -1.76437 -3.91367 0
M  V30 821 C 70.8879 -1.37997 -5.15551 0
M  V30 822 O 71.1109 -0.265357 -5.69782 0
M  V30 823 O 70.0449 -2.20201 -5.60174 0
M  V30 824 H 73.8709 -1.98086 -2.30208 0
M  V30 825 H 71.4559 -1.02332 -1.08851 0
M  V30 826 H 73.3379 -0.418761 -4.19314 0
M  V30 827 H 72.0129 0.282754 -3.22463 0
M  V30 828 H 70.9199 -2.03304 -3.14036 0
M  V30 829 H 72.2529 -2.6583 -4.14241 0
M  V30 830 N 73.905 1.17692 -1.04816 0
M  V30 831 C 75.151 1.88137 -0.75711 0
M  V30 832 C 75.484 1.80604 0.713841 0
M  V30 833 O 74.759 1.21146 1.52164 0
M  V30 834 C 75.042 3.38318 -1.2334 0
M  V30 835 C 74.895 3.54622 -2.76701 0
M  V30 836 C 76.214 4.32214 -0.829415 0
M  V30 837 H 73.333 0.683163 -0.27651 0
M  V30 838 H 75.975 1.38424 -1.30149 0
M  V30 839 H 74.125 3.80787 -0.770286 0
M  V30 840 H 75.797 3.21194 -3.31107 0
M  V30 841 H 74.04 2.97026 -3.16161 0
M  V30 842 H 74.711 4.60028 -3.05088 0
M  V30 843 H 77.187 3.97565 -1.22805 0
M  V30 844 H 76.063 5.35838 -1.19033 0
M  V30 845 H 76.324 4.41294 0.266891 0
M  V30 846 N 75.3831 0.828654 1.34056 0
M  V30 847 C 76.2931 0.256725 2.33191 0
M  V30 848 C 77.3091 -0.611898 1.62886 0
M  V30 849 O 78.4851 -0.51844 1.94613 0
M  V30 850 C 75.5501 -0.567238 3.42028 0
M  V30 851 C 74.6111 0.324458 4.28072 0
M  V30 852 C 73.8441 -0.460274 5.31712 0
M  V30 853 O 74.0671 -1.693 5.44696 0
M  V30 854 O 73.0011 0.160391 6.01686 0
M  V30 855 H 76.8271 1.07739 2.83947 0
M  V30 856 H 74.4121 0.59093 1.37217 0
M  V30 857 H 76.2941 -1.03582 4.08471 0
M  V30 858 H 74.9691 -1.36513 2.93506 0
M  V30 859 H 73.8761 0.840659 3.64532 0
M  V30 860 H 75.2091 1.08685 4.8005 0
M  V30 861 N 76.8612 -1.46375 0.584142 0
M  V30 862 C 78.0912 -2.06461 0.0758195 0
M  V30 863 C 78.4992 -1.43322 -1.23512 0
M  V30 864 O 77.8422 -0.533216 -1.75791 0
M  V30 865 C 77.9042 -3.59131 -0.162773 0
M  V30 866 C 77.5682 -4.4447 1.06279 0
M  V30 867 C 78.5652 -4.80918 1.97519 0
M  V30 868 C 76.2502 -4.85584 1.28504 0
M  V30 869 C 78.2442 -5.57309 3.09331 0
M  V30 870 C 75.9312 -5.61734 2.4062 0
M  V30 871 C 76.9292 -5.9751 3.30863 0
M  V30 872 O 76.6172 -6.72121 4.41032 0
M  V30 873 H 76.3492 -0.673745 0.0551725 0
M  V30 874 H 78.9032 -1.88969 0.804984 0
M  V30 875 H 77.1332 -3.74936 -0.946565 0
M  V30 876 H 78.8222 -4.0114 -0.619782 0
M  V30 877 H 79.5882 -4.49732 1.81565 0
M  V30 878 H 75.4672 -4.57187 0.591702 0
M  V30 879 H 79.0112 -5.85152 3.79793 0
M  V30 880 H 74.9082 -5.92334 2.56537 0
M  V30 881 H 75.6762 -6.90547 4.39417 0
M  V30 882 N 78.3393 -0.321999 -1.54275 0
M  V30 883 C 79.2723 0.58718 -2.20516 0
M  V30 884 C 80.2503 1.11693 -1.18167 0
M  V30 885 O 81.4343 1.18122 -1.46899 0
M  V30 886 C 78.5613 1.80554 -2.86562 0
M  V30 887 C 77.6073 1.40718 -4.02617 0
M  V30 888 S 78.4403 0.445218 -5.33646 0
M  V30 889 C 79.5963 1.6709 -6.03185 0
M  V30 890 H 79.8293 0.0244875 -2.9729 0
M  V30 891 H 77.3623 -0.106087 -1.54035 0
M  V30 892 H 79.3203 2.50462 -3.25237 0
M  V30 893 H 77.9813 2.33942 -2.09595 0
M  V30 894 H 77.1743 2.31501 -4.47687 0
M  V30 895 H 76.7763 0.78782 -3.65608 0
M  V30 896 H 79.0683 2.60856 -6.25268 0
M  V30 897 H 80.0113 1.26239 -6.96756 0
M  V30 898 H 80.4193 1.85716 -5.33076 0
M  V30 899 N 79.8174 1.5752 -0.0501392 0
M  V30 900 C 80.7474 2.14502 0.922566 0
M  V30 901 C 81.7284 1.06642 1.3252 0
M  V30 902 O 82.9134 1.34577 1.4001 0
M  V30 903 C 80.0434 2.68916 2.19776 0
M  V30 904 C 78.9974 3.8175 1.93523 0
M  V30 905 C 78.3234 4.22677 3.27487 0
M  V30 906 C 79.6234 5.06932 1.25765 0
M  V30 907 H 81.3174 2.9603 0.447952 0
M  V30 908 H 78.8634 1.42401 0.214024 0
M  V30 909 H 80.8164 3.07419 2.88222 0
M  V30 910 H 79.5404 1.84578 2.69441 0
M  V30 911 H 78.1994 3.43718 1.27489 0
M  V30 912 H 77.8474 3.35291 3.74952 0
M  V30 913 H 77.5474 4.98725 3.1072 0
M  V30 914 H 79.0714 4.63779 3.97166 0
M  V30 915 H 80.4854 5.42888 1.84244 0
M  V30 916 H 78.8824 5.88116 1.19328 0
M  V30 917 H 79.9524 4.84337 0.233536 0
M  V30 918 N 81.2955 -0.223234 1.56011 0
M  V30 919 C 82.5415 -0.949279 1.79211 0
M  V30 920 C 82.8745 -1.84054 0.619494 0
M  V30 921 O 82.1495 -1.90726 -0.381317 0
M  V30 922 C 82.4325 -1.78965 3.12479 0
M  V30 923 C 82.2855 -0.924997 4.40186 0
M  V30 924 C 83.6045 -2.76774 3.42175 0
M  V30 925 H 80.7235 -0.343676 0.651963 0
M  V30 926 H 83.3655 -0.218253 1.88742 0
M  V30 927 H 81.5155 -2.41291 3.04485 0
M  V30 928 H 83.1875 -0.318615 4.60198 0
M  V30 929 H 81.4305 -0.230344 4.33188 0
M  V30 930 H 82.1015 -1.54735 5.29869 0
M  V30 931 H 84.5775 -2.24584 3.50287 0
M  V30 932 H 83.4535 -3.32678 4.36597 0
M  V30 933 H 83.7145 -3.54429 2.64258 0
M  V30 934 N 82.7736 -1.49793 -0.48987 0
M  V30 935 C 83.9986 -1.63836 -1.27172 0
M  V30 936 C 84.4236 -0.31402 -1.8546 0
M  V30 937 O 83.7816 0.719803 -1.66399 0
M  V30 938 C 83.8296 -2.71797 -2.36978 0
M  V30 939 O 82.9336 -2.31744 -3.41128 0
M  V30 940 H 82.2746 -0.547997 -0.37496 0
M  V30 941 H 84.8046 -1.96053 -0.585191 0
M  V30 942 H 84.8146 -2.94305 -2.82575 0
M  V30 943 H 83.4896 -3.67923 -1.93921 0
M  V30 944 H 82.0666 -2.1961 -3.01373 0
M  V30 945 N 84.2517 0.741722 -1.39055 0
M  V30 946 C 85.4987 1.50114 -1.35912 0
M  V30 947 C 85.8267 1.94443 0.0470937 0
M  V30 948 O 85.0817 1.66612 1.02659 0
M  V30 949 C 85.3807 2.7592 -2.27163 0
M  V30 950 C 85.0467 2.50493 -3.74919 0
M  V30 951 C 83.7087 2.43267 -4.1518 0
M  V30 952 C 86.0607 2.28585 -4.684 0
M  V30 953 C 83.3887 2.12166 -5.46994 0
M  V30 954 C 85.7407 1.99002 -6.00484 0
M  V30 955 C 84.4047 1.90241 -6.39816 0
M  V30 956 H 83.6747 0.549306 -0.497336 0
M  V30 957 H 86.3217 0.851896 -1.71508 0
M  V30 958 H 84.6267 3.45553 -1.84663 0
M  V30 959 H 86.3237 3.33923 -2.22028 0
M  V30 960 H 82.9137 2.56992 -3.43006 0
M  V30 961 H 87.0977 2.33139 -4.38132 0
M  V30 962 H 82.3537 2.03901 -5.76398 0
M  V30 963 H 86.5277 1.81057 -6.72452 0
M  V30 964 H 84.1547 1.65907 -7.41875 0
M  V30 965 N 85.7298 1.2412 0.971189 0
M  V30 966 C 87.0068 0.986867 1.6888 0
M  V30 967 C 87.3868 -0.491857 2.0529 0
M  V30 968 O 86.7348 -1.46531 1.75331 0
M  V30 969 C 86.9448 1.9063 2.92338 0
M  V30 970 C 88.2928 2.17515 3.64654 0
M  V30 971 O 89.3168 1.88254 3.02388 0
M  V30 972 O 88.1758 2.6719 4.7673 0
M  V30 973 H 85.2698 0.372944 0.738134 0
M  V30 974 H 87.8158 1.35203 1.02559 0
M  V30 975 H 86.5878 2.90552 2.62097 0
M  V30 976 H 86.2108 1.54408 3.66393 0
M  V30 977 N 87.2079 -1.17134 1.05439 0
M  V30 978 C 88.1579 -2.1919 0.627675 0
M  V30 979 C 89.1419 -1.57328 -0.337147 0
M  V30 980 O 90.3339 -1.76329 -0.153976 0
M  V30 981 C 87.4629 -3.43299 0.00651435 0
M  V30 982 C 86.5489 -4.12255 0.995312 0
M  V30 983 N 86.9399 -4.56997 2.16765 0
M  V30 984 C 85.2379 -4.38316 0.824336 0
M  V30 985 C 85.9389 -5.10239 2.7934 0
M  V30 986 N 84.9149 -5.02595 2.07122 0
M  V30 987 H 88.7169 -2.5149 1.52086 0
M  V30 988 H 86.2309 -1.33491 0.924868 0
M  V30 989 H 88.2279 -4.15693 -0.316965 0
M  V30 990 H 86.8879 -3.1249 -0.882033 0
M  V30 991 H 87.8989 -4.51006 2.54587 0
M  V30 992 H 84.5759 -4.17498 -0.0129526 0
M  V30 993 H 85.9659 -5.54961 3.78772 0
M  V30 994 N 88.686 -0.835752 -1.33615 0
M  V30 995 C 89.596 -0.269088 -2.33052 0
M  V30 996 C 90.612 0.603251 -1.63208 0
M  V30 997 O 91.788 0.508112 -1.94885 0
M  V30 998 C 88.853 0.549091 -3.42324 0
M  V30 999 C 87.914 -0.347156 -4.27894 0
M  V30 1000 C 87.147 0.43207 -5.31948 0
M  V30 1001 O 87.37 1.66409 -5.45586 0
M  V30 1002 O 86.304 -0.192298 -6.01593 0
M  V30 1003 H 90.13 -1.09243 -2.83372 0
M  V30 1004 H 87.715 -0.598198 -1.36901 0
M  V30 1005 H 89.597 1.01414 -4.09015 0
M  V30 1006 H 88.272 1.34955 -2.94226 0
M  V30 1007 H 87.179 -0.859979 -3.64081 0
M  V30 1008 H 88.512 -1.1123 -4.79467 0
M  V30 1009 N 90.1641 1.46063 -0.591896 0
M  V30 1010 C 91.1121 2.32124 0.148739 0
M  V30 1011 C 92.1061 1.45035 0.875286 0
M  V30 1012 O 93.3121 1.61609 0.792632 0
M  V30 1013 H 89.6871 0.749024 0.066832 0
M  V30 1014 H 91.6581 2.92392 -0.595783 0
M  V30 1015 C 90.4071 3.28373 1.1431 0
M  V30 1016 H 89.7301 3.95371 0.59346 0
M  V30 1017 H 91.1701 3.91352 1.63155 0
M  V30 1018 C 89.6291 2.54393 2.20875 0
M  V30 1019 O 90.1591 2.31373 3.28374 0
M  V30 1020 N 88.3651 2.14797 1.95731 0
M  V30 1021 H 87.9121 2.33719 1.08319 0
M  V30 1022 H 87.8701 1.65619 2.67241 0
M  V30 1023 N 91.6422 0.330177 1.54103 0
M  V30 1024 C 92.5892 -0.532762 2.24567 0
M  V30 1025 C 93.5592 -1.10635 1.23892 0
M  V30 1026 O 94.7442 -1.14546 1.5259 0
M  V30 1027 C 91.8842 -1.6845 3.01195 0
M  V30 1028 C 90.9972 -1.13951 4.167 0
M  V30 1029 C 90.1322 -2.25746 4.80845 0
M  V30 1030 C 89.1712 -1.6853 5.88442 0
M  V30 1031 N 88.3082 -2.74014 6.46421 0
M  V30 1032 H 93.1482 0.0746905 2.97906 0
M  V30 1033 H 90.6852 0.048632 1.4702 0
M  V30 1034 H 92.6432 -2.36234 3.43874 0
M  V30 1035 H 91.2732 -2.26314 2.30178 0
M  V30 1036 H 90.3252 -0.35301 3.78758 0
M  V30 1037 H 91.6372 -0.680892 4.94131 0
M  V30 1038 H 90.7912 -3.01422 5.26526 0
M  V30 1039 H 89.5302 -2.74947 4.0281 0
M  V30 1040 H 88.5352 -0.913543 5.42157 0
M  V30 1041 H 89.7602 -1.20198 6.68378 0
M  V30 1042 H 87.7062 -3.22494 5.71256 0
M  V30 1043 H 87.6232 -2.32735 7.19285 0
M  V30 1044 H 88.8912 -3.49499 6.96757 0
M  V30 1045 N 93.1203 -1.57491 0.0584922 0
M  V30 1046 C 94.0673 -2.11958 -0.913376 0
M  V30 1047 C 95.0373 -1.02875 -1.30407 0
M  V30 1048 O 96.2223 -1.30464 -1.39226 0
M  V30 1049 C 93.3623 -2.67497 -2.18035 0
M  V30 1050 C 92.4753 -3.90691 -1.84349 0
M  V30 1051 C 91.6103 -4.3452 -3.05559 0
M  V30 1052 C 90.6493 -5.50395 -2.67827 0
M  V30 1053 N 89.7863 -5.89244 -3.81754 0
M  V30 1054 H 94.6263 -2.94704 -0.442017 0
M  V30 1055 H 92.1633 -1.45643 -0.206545 0
M  V30 1056 H 94.1213 -2.978 -2.92183 0
M  V30 1057 H 92.7513 -1.87537 -2.62735 0
M  V30 1058 H 91.8033 -3.66934 -1.00319 0
M  V30 1059 H 93.1153 -4.7489 -1.5258 0
M  V30 1060 H 92.2693 -4.66414 -3.87998 0
M  V30 1061 H 91.0083 -3.49147 -3.40511 0
M  V30 1062 H 90.0133 -5.18165 -1.83806 0
M  V30 1063 H 91.2383 -6.3749 -2.34059 0
M  V30 1064 H 89.1843 -5.06823 -4.16493 0
M  V30 1065 H 89.1013 -6.68151 -3.53708 0
M  V30 1066 H 90.3693 -6.25756 -4.64811 0
M  V30 1067 N 94.5984 0.214957 -1.56127 0
M  V30 1068 C 95.8444 0.939762 -1.79712 0
M  V30 1069 C 96.1774 1.83723 -0.629247 0
M  V30 1070 O 95.4524 1.90925 0.371197 0
M  V30 1071 C 95.7354 1.77306 -3.13424 0
M  V30 1072 C 95.5884 0.90164 -4.40671 0
M  V30 1073 C 96.9074 2.74956 -3.43638 0
M  V30 1074 H 94.0264 0.340214 -0.653776 0
M  V30 1075 H 96.6684 0.20824 -1.88855 0
M  V30 1076 H 94.8184 2.39673 -3.0576 0
M  V30 1077 H 96.4904 0.294206 -4.60361 0
M  V30 1078 H 94.7334 0.207368 -4.33304 0
M  V30 1079 H 95.4044 1.51923 -5.30682 0
M  V30 1080 H 97.8804 2.22724 -3.51473 0
M  V30 1081 H 96.7564 3.30358 -4.38355 0
M  V30 1082 H 97.0174 3.53023 -2.66134 0
M  V30 1083 N 96.0765 1.50051 0.48192 0
M  V30 1084 C 97.4925 1.37237 0.814756 0
M  V30 1085 C 97.6925 0.420109 1.97072 0
M  V30 1086 O 96.7485 -0.141246 2.52105 0
M  V30 1087 C 98.0615 2.78375 1.13701 0
M  V30 1088 C 99.6095 2.87213 1.2441 0
M  V30 1089 C 100.084 4.29161 1.59954 0
M  V30 1090 N 101.575 4.32061 1.66967 0
M  V30 1091 C 102.31 5.38879 1.95952 0
M  V30 1092 N 101.806 6.55918 2.23031 0
M  V30 1093 N 103.599 5.26312 1.97363 0
M  V30 1094 H 95.7505 2.10546 -0.28005 0
M  V30 1095 H 98.0135 0.945921 -0.0627454 0
M  V30 1096 H 97.7195 3.49845 0.360787 0
M  V30 1097 H 97.5935 3.14941 2.07586 0
M  V30 1098 H 99.9805 2.15969 2.01101 0
M  V30 1099 H 100.061 2.54204 0.285299 0
M  V30 1100 H 99.7055 5.00938 0.838067 0
M  V30 1101 H 99.6355 4.59648 2.56966 0
M  V30 1102 H 102.126 3.47661 1.48123 0
M  V30 1103 H 102.439 7.33139 2.44391 0
M  V30 1104 H 100.784 6.59112 2.20447 0
M  V30 1105 H 103.975 4.33876 1.75697 0
M  V30 1106 H 104.148 6.09649 2.19618 0
M  V30 1107 N 97.5546 -0.734337 1.39446 0
M  V30 1108 C 98.4846 -1.86155 1.40955 0
M  V30 1109 C 99.4656 -1.67898 0.272827 0
M  V30 1110 O 100.651 -1.88207 0.478743 0
M  V30 1111 C 97.7806 -3.23912 1.25294 0
M  V30 1112 C 96.7346 -3.56808 2.36373 0
M  V30 1113 C 96.0606 -4.93508 2.058 0
M  V30 1114 C 97.3606 -3.59713 3.78687 0
M  V30 1115 H 99.0546 -1.8515 2.35287 0
M  V30 1116 H 96.6006 -0.889367 1.13253 0
M  V30 1117 H 98.5536 -4.02443 1.2497 0
M  V30 1118 H 97.2776 -3.25446 0.274308 0
M  V30 1119 H 95.9366 -2.80606 2.35914 0
M  V30 1120 H 95.5846 -4.91623 1.06374 0
M  V30 1121 H 95.2846 -5.16486 2.80208 0
M  V30 1122 H 96.8086 -5.74396 2.07128 0
M  V30 1123 H 98.2226 -4.2832 3.81071 0
M  V30 1124 H 96.6196 -3.94209 4.52459 0
M  V30 1125 H 97.6896 -2.59504 4.09617 0
M  V30 1126 N 99.0327 -1.24633 -0.964593 0
M  V30 1127 C 100.279 -1.08949 -1.71049 0
M  V30 1128 C 100.612 0.370302 -1.90637 0
M  V30 1129 O 99.8867 1.27349 -1.47011 0
M  V30 1130 C 100.17 -1.83329 -3.0994 0
M  V30 1131 C 100.023 -3.37077 -2.97824 0
M  V30 1132 C 101.342 -1.60846 -4.09654 0
M  V30 1133 H 98.4607 -0.397178 -0.620821 0
M  V30 1134 H 101.103 -1.5334 -1.12191 0
M  V30 1135 H 99.2527 -1.45597 -3.60186 0
M  V30 1136 H 100.925 -3.84425 -2.5498 0
M  V30 1137 H 99.1677 -3.65298 -2.33965 0
M  V30 1138 H 99.8387 -3.84324 -3.96231 0
M  V30 1139 H 102.315 -1.93674 -3.68279 0
M  V30 1140 H 101.191 -2.1534 -5.04896 0
M  V30 1141 H 101.452 -0.547434 -4.38698 0
M  V30 1142 N 100.511 1.16574 -1.06058 0
M  V30 1143 C 101.441 2.23057 -0.690488 0
M  V30 1144 C 102.422 1.67141 0.315901 0
M  V30 1145 O 103.607 1.93253 0.191556 0
M  V30 1146 C 100.737 3.47222 -0.073625 0
M  V30 1147 C 99.6908 4.16016 -1.00573 0
M  V30 1148 C 99.0168 5.34104 -0.252289 0
M  V30 1149 C 100.317 4.67264 -2.33371 0
M  V30 1150 H 102.011 2.54271 -1.58072 0
M  V30 1151 H 99.5568 1.22218 -0.76149 0
M  V30 1152 H 101.51 4.20939 0.19714 0
M  V30 1153 H 100.234 3.15302 0.85161 0
M  V30 1154 H 98.8928 3.44223 -1.2612 0
M  V30 1155 H 98.5408 4.98437 0.675988 0
M  V30 1156 H 98.2408 5.81072 -0.873455 0
M  V30 1157 H 99.7648 6.10599 0.0109857 0
M  V30 1158 H 101.179 5.32573 -2.12223 0
M  V30 1159 H 99.5758 5.24843 -2.90963 0
M  V30 1160 H 100.646 3.83602 -2.96611 0
M  V30 1161 N 101.989 0.842826 1.3317 0
M  V30 1162 C 103.214 0.453129 2.02389 0
M  V30 1163 C 103.639 -0.939105 1.6298 0
M  V30 1164 O 102.997 -1.61472 0.8244 0
M  V30 1165 C 103.045 0.586094 3.55805 0
M  V30 1166 O 102.149 -0.386029 4.10589 0
M  V30 1167 H 101.49 0.183664 0.638094 0
M  V30 1168 H 104.02 1.13875 1.69981 0
M  V30 1169 H 104.03 0.469209 4.05293 0
M  V30 1170 H 102.705 1.6014 3.83833 0
M  V30 1171 H 101.282 -0.226371 3.72212 0
M  V30 1172 N 103.467 -1.45747 0.599634 0
M  V30 1173 C 104.715 -2.01893 0.0915472 0
M  V30 1174 C 105.036 -1.47155 -1.27946 0
M  V30 1175 O 104.306 -0.66273 -1.84349 0
M  V30 1176 H 102.886 -0.746363 0.0308524 0
M  V30 1177 H 105.548 -1.78645 0.779237 0
M  V30 1178 H 104.644 -3.1208 0.0353086 0
M  V30 1179 N 104.945 -0.338344 -1.53925 0
M  V30 1180 C 105.855 0.529421 -2.28548 0
M  V30 1181 C 106.871 1.11645 -1.3346 0
M  V30 1182 O 108.047 1.13325 -1.66492 0
M  V30 1183 C 105.112 1.66713 -3.03987 0
M  V30 1184 C 104.173 1.11041 -4.14691 0
M  V30 1185 C 103.406 2.19389 -4.86522 0
M  V30 1186 O 103.629 3.40013 -4.57982 0
M  V30 1187 O 102.563 1.83976 -5.73094 0
M  V30 1188 H 106.389 -0.0770399 -3.03602 0
M  V30 1189 H 103.974 -0.103555 -1.49041 0
M  V30 1190 H 105.856 2.32918 -3.5118 0
M  V30 1191 H 104.531 2.25949 -2.31794 0
M  V30 1192 H 103.438 0.413024 -3.71813 0
M  V30 1193 H 104.771 0.562975 -4.8897 0
M  V30 1194 N 106.423 1.57458 -0.0668435 0
M  V30 1195 C 107.37 2.12439 0.902122 0
M  V30 1196 C 108.34 1.03565 1.2986 0
M  V30 1197 O 109.525 1.312 1.38532 0
M  V30 1198 C 106.665 2.6865 2.16614 0
M  V30 1199 C 105.778 3.91663 1.82274 0
M  V30 1200 C 104.913 4.36134 3.0325 0
M  V30 1201 C 103.952 5.51808 2.64904 0
M  V30 1202 N 103.089 5.9126 3.78624 0
M  V30 1203 H 107.929 2.94934 0.426382 0
M  V30 1204 H 105.466 1.4575 0.198819 0
M  V30 1205 H 107.424 2.99346 2.90599 0
M  V30 1206 H 106.054 1.88928 2.61737 0
M  V30 1207 H 105.106 3.6746 0.983719 0
M  V30 1208 H 106.418 4.75693 1.50059 0
M  V30 1209 H 105.572 4.68465 3.85519 0
M  V30 1210 H 104.311 3.50948 3.38655 0
M  V30 1211 H 103.316 5.19133 1.81055 0
M  V30 1212 H 104.541 6.38722 2.30675 0
M  V30 1213 H 102.487 5.09024 4.138 0
M  V30 1214 H 102.404 6.70018 3.5016 0
M  V30 1215 H 103.672 6.28212 4.61486 0
M  V30 1216 N 107.901 -0.206675 1.56239 0
M  V30 1217 C 109.147 -0.930218 1.80208 0
M  V30 1218 C 109.48 -1.83387 0.638981 0
M  V30 1219 O 108.755 -1.91119 -0.361066 0
M  V30 1220 C 109.038 -1.75641 3.1436 0
M  V30 1221 C 108.891 -0.878257 4.41142 0
M  V30 1222 C 110.21 -2.73129 3.45092 0
M  V30 1223 H 107.329 -0.336742 0.655571 0
M  V30 1224 H 109.971 -0.198222 1.88963 0
M  V30 1225 H 108.121 -2.38048 3.07027 0
M  V30 1226 H 109.793 -0.269787 4.6051 0
M  V30 1227 H 108.036 -0.184385 4.33408 0
M  V30 1228 H 108.707 -1.49106 5.3148 0
M  V30 1229 H 111.183 -2.20856 3.52649 0
M  V30 1230 H 110.059 -3.28028 4.40101 0
M  V30 1231 H 110.32 -3.51606 2.68003 0
M  V30 1232 N 109.379 -1.50304 -0.473955 0
M  V30 1233 C 110.309 -1.71886 -1.58042 0
M  V30 1234 C 111.29 -0.567799 -1.60344 0
M  V30 1235 O 112.475 -0.806623 -1.76656 0
M  V30 1236 C 109.605 -1.81036 -2.96384 0
M  V30 1237 C 108.559 -2.962 -3.08949 0
M  V30 1238 C 107.885 -2.9049 -4.48909 0
M  V30 1239 C 109.185 -4.36752 -2.86434 0
M  V30 1240 H 110.879 -2.64527 -1.40234 0
M  V30 1241 H 108.425 -1.27295 -0.673201 0
M  V30 1242 H 110.378 -1.94719 -3.73714 0
M  V30 1243 H 109.102 -0.850147 -3.15341 0
M  V30 1244 H 107.761 -2.82164 -2.3405 0
M  V30 1245 H 107.409 -1.92321 -4.64781 0
M  V30 1246 H 107.109 -3.67802 -4.58253 0
M  V30 1247 H 108.633 -3.06218 -5.28264 0
M  V30 1248 H 110.047 -4.5133 -3.53517 0
M  V30 1249 H 108.444 -5.15493 -3.07225 0
M  V30 1250 H 109.514 -4.49321 -1.82316 0
M  V30 1251 N 110.857 0.726932 -1.39834 0
M  V30 1252 C 111.767 1.87131 -1.41489 0
M  V30 1253 C 112.783 1.71239 -0.308757 0
M  V30 1254 O 113.959 1.93701 -0.551529 0
M  V30 1255 C 111.024 3.22811 -1.26468 0
M  V30 1256 C 110.085 3.51039 -2.47124 0
M  V30 1257 C 109.318 4.80245 -2.3281 0
M  V30 1258 O 109.541 5.54537 -1.33585 0
M  V30 1259 O 108.475 5.08554 -3.21957 0
M  V30 1260 H 112.301 1.8869 -2.3797 0
M  V30 1261 H 109.886 0.875837 -1.21035 0
M  V30 1262 H 111.768 4.03877 -1.20255 0
M  V30 1263 H 110.443 3.22005 -0.330862 0
M  V30 1264 H 109.35 2.70027 -2.58914 0
M  V30 1265 H 110.683 3.56632 -3.39227 0
M  V30 1266 N 112.336 1.25143 0.95797 0
M  V30 1267 C 113.564 1.12424 1.73691 0
M  V30 1268 C 113.979 -0.322304 1.86029 0
M  V30 1269 O 113.336 -1.22186 1.35561 0
M  V30 1270 C 113.387 1.76933 3.15241 0
M  V30 1271 O 113.108 3.15932 3.03511 0
M  V30 1272 C 114.609 1.6995 4.09429 0
M  V30 1273 H 111.829 0.3923 0.544373 0
M  V30 1274 H 114.373 1.6544 1.20207 0
M  V30 1275 H 112.528 1.27895 3.6568 0
M  V30 1276 H 112.942 3.47598 3.9278 0
M  V30 1277 H 114.416 2.19753 5.06372 0
M  V30 1278 H 114.893 0.662619 4.34173 0
M  V30 1279 H 115.499 2.18461 3.64904 0
M  V30 1280 N 113.814 -1.1601 1.06675 0
M  V30 1281 C 114.744 -2.22688 0.702307 0
M  V30 1282 C 115.725 -1.67306 -0.307032 0
M  V30 1283 O 116.91 -1.93352 -0.181305 0
M  V30 1284 C 114.04 -3.47178 0.092038 0
M  V30 1285 C 112.994 -4.15477 1.02777 0
M  V30 1286 C 112.32 -5.33963 0.28061 0
M  V30 1287 C 113.62 -4.66019 2.35846 0
M  V30 1288 H 115.314 -2.53429 1.59419 0
M  V30 1289 H 112.86 -1.21813 0.767961 0
M  V30 1290 H 114.813 -4.21037 -0.174814 0
M  V30 1291 H 113.537 -3.15749 -0.834877 0
M  V30 1292 H 112.196 -3.43549 1.27944 0
M  V30 1293 H 111.844 -4.98788 -0.649545 0
M  V30 1294 H 111.544 -5.806 0.904258 0
M  V30 1295 H 113.068 -6.10596 0.021396 0
M  V30 1296 H 114.482 -5.3144 2.15045 0
M  V30 1297 H 112.879 -5.23293 2.93743 0
M  V30 1298 H 113.949 -3.82023 2.98641 0
M  V30 1299 N 115.292 -0.849877 -1.32721 0
M  V30 1300 C 116.224 -0.248332 -2.27851 0
M  V30 1301 C 117.237 0.577218 -1.52224 0
M  V30 1302 O 118.426 0.402489 -1.73903 0
M  V30 1303 C 115.526 0.668107 -3.32249 0
M  V30 1304 C 114.699 -0.120534 -4.37234 0
M  V30 1305 C 113.758 0.720932 -5.21238 0
M  V30 1306 O 112.784 0.156166 -5.68986 0
M  V30 1307 N 113.986 2.03647 -5.43607 0
M  V30 1308 H 116.751 -1.06575 -2.80111 0
M  V30 1309 H 114.312 -0.709395 -1.45531 0
M  V30 1310 H 116.304 1.23627 -3.85355 0
M  V30 1311 H 114.874 1.38621 -2.80184 0
M  V30 1312 H 114.094 -0.870108 -3.84477 0
M  V30 1313 H 115.382 -0.662406 -5.0447 0
M  V30 1314 H 114.78 2.51871 -5.06535 0
M  V30 1315 H 113.337 2.55287 -5.99727 0
M  V30 1316 N 116.77 1.45427 -0.607355 0
M  V30 1317 C 117.68 2.34325 0.113463 0
M  V30 1318 C 118.696 1.51226 0.860617 0
M  V30 1319 O 119.872 1.84029 0.818255 0
M  V30 1320 C 116.937 3.28839 1.09844 0
M  V30 1321 C 115.998 4.27844 0.353271 0
M  V30 1322 C 115.231 5.17842 1.29133 0
M  V30 1323 O 115.454 5.11264 2.52913 0
M  V30 1324 O 114.388 5.96713 0.788523 0
M  V30 1325 H 118.214 2.97364 -0.617094 0
M  V30 1326 H 115.799 1.44807 -0.367619 0
M  V30 1327 H 117.681 3.8708 1.66575 0
M  V30 1328 H 116.356 2.68365 1.81003 0
M  V30 1329 H 115.263 3.7322 -0.256494 0
M  V30 1330 H 116.596 4.91173 -0.317822 0
M  V30 1331 N 118.248 0.346503 1.53744 0
M  V30 1332 C 119.195 -0.508914 2.25119 0
M  V30 1333 C 120.165 -1.09315 1.25058 0
M  V30 1334 O 121.35 -1.12921 1.53797 0
M  V30 1335 C 118.49 -1.65246 3.02965 0
M  V30 1336 C 117.603 -1.09525 4.17886 0
M  V30 1337 C 116.738 -2.20634 4.83212 0
M  V30 1338 C 115.777 -1.62279 5.90196 0
M  V30 1339 N 114.914 -2.67143 6.49291 0
M  V30 1340 H 119.754 0.106283 2.9781 0
M  V30 1341 H 117.291 0.0642227 1.4696 0
M  V30 1342 H 119.249 -2.32574 3.4636 0
M  V30 1343 H 117.879 -2.2386 2.32565 0
M  V30 1344 H 116.931 -0.312818 3.79112 0
M  V30 1345 H 118.243 -0.628444 4.94825 0
M  V30 1346 H 117.397 -2.95821 5.29693 0
M  V30 1347 H 116.136 -2.70659 4.05703 0
M  V30 1348 H 115.141 -0.855989 5.43096 0
M  V30 1349 H 116.366 -1.13102 6.69615 0
M  V30 1350 H 114.312 -3.16417 5.74645 0
M  V30 1351 H 114.229 -2.25093 7.21713 0
M  V30 1352 H 115.497 -3.4209 7.00425 0
M  V30 1353 N 119.726 -1.57421 0.075193 0
M  V30 1354 C 120.974 -1.93236 -0.591974 0
M  V30 1355 C 121.295 -0.956241 -1.69944 0
M  V30 1356 O 120.565 -0.00494792 -1.95899 0
M  V30 1357 H 119.145 -0.713355 -0.22166 0
M  V30 1358 H 121.807 -1.9444 0.133848 0
M  V30 1359 H 120.903 -2.95131 -1.01509 0
M  V30 1360 N 121.204 0.198386 -1.56346 0
M  V30 1361 C 122.114 1.2664 -1.97483 0
M  V30 1362 C 123.13 1.49989 -0.882002 0
M  V30 1363 O 124.306 1.62668 -1.18748 0
M  V30 1364 C 121.371 2.59141 -2.30319 0
M  V30 1365 C 120.432 2.43892 -3.53292 0
M  V30 1366 C 119.665 3.70074 -3.84553 0
M  V30 1367 O 119.888 4.74101 -3.1715 0
M  V30 1368 O 118.822 3.658 -4.7799 0
M  V30 1369 H 122.648 0.947304 -2.88548 0
M  V30 1370 H 120.233 0.403123 -1.43859 0
M  V30 1371 H 122.115 3.37352 -2.5253 0
M  V30 1372 H 120.79 2.90684 -1.42423 0
M  V30 1373 H 119.697 1.63803 -3.36332 0
M  V30 1374 H 121.03 2.17282 -4.41644 0
M  V30 1375 N 122.682 1.50554 0.465978 0
M  V30 1376 C 124.098 1.38093 0.800154 0
M  V30 1377 C 124.298 0.440988 1.96615 0
M  V30 1378 O 123.354 -0.114499 2.5224 0
M  V30 1379 C 124.667 2.79565 1.10742 0
M  V30 1380 C 126.215 2.88516 1.21357 0
M  V30 1381 C 126.69 4.30833 1.55393 0
M  V30 1382 N 128.181 4.33807 1.62375 0
M  V30 1383 C 128.916 5.40927 1.90225 0
M  V30 1384 N 128.412 6.58247 2.16062 0
M  V30 1385 N 130.205 5.28376 1.9177 0
M  V30 1386 H 122.356 2.10237 -0.302366 0
M  V30 1387 H 124.619 0.945203 -0.0727746 0
M  V30 1388 H 124.325 3.50208 0.323661 0
M  V30 1389 H 124.199 3.17125 2.04234 0
M  V30 1390 H 126.586 2.1809 1.98799 0
M  V30 1391 H 126.667 2.54492 0.258321 0
M  V30 1392 H 126.311 5.01799 0.784889 0
M  V30 1393 H 126.241 4.62347 2.52076 0
M  V30 1394 H 128.732 3.49212 1.44427 0
M  V30 1395 H 129.045 7.3569 2.36601 0
M  V30 1396 H 127.39 6.61413 2.13444 0
M  V30 1397 H 130.581 4.35715 1.71085 0
M  V30 1398 H 130.754 6.11944 2.13139 0
M  V30 1399 N 124.16 -0.719506 1.40217 0
M  V30 1400 C 125.388 -1.50864 1.41589 0
M  V30 1401 C 125.803 -1.88794 0.0145275 0
M  V30 1402 O 125.16 -1.55174 -0.960594 0
M  V30 1403 C 125.211 -2.78646 2.30302 0
M  V30 1404 O 124.932 -2.42321 3.64983 0
M  V30 1405 C 126.433 -3.72569 2.40224 0
M  V30 1406 H 123.653 -0.465709 0.48307 0
M  V30 1407 H 126.197 -0.88785 1.84221 0
M  V30 1408 H 124.352 -3.37019 1.91042 0
M  V30 1409 H 124.766 -3.24514 4.12057 0
M  V30 1410 H 126.24 -4.5908 3.06512 0
M  V30 1411 H 126.717 -4.15403 1.42608 0
M  V30 1412 H 127.323 -3.20109 2.80019 0
M  V30 1413 N 125.638 -1.25649 -0.95132 0
M  V30 1414 C 126.586 -1.06118 -2.06982 0
M  V30 1415 C 127.58 0.00889169 -1.69398 0
M  V30 1416 O 128.786 -0.146988 -1.79399 0
M  V30 1417 H 125.161 -0.326248 -0.677544 0
M  V30 1418 H 127.132 -2.00932 -2.2061 0
M  V30 1419 C 125.881 -0.700145 -3.40578 0
M  V30 1420 H 125.204 -1.51537 -3.69968 0
M  V30 1421 H 126.644 -0.603211 -4.19687 0
M  V30 1422 C 125.103 0.59403 -3.31622 0
M  V30 1423 O 125.633 1.63522 -3.66911 0
M  V30 1424 N 123.839 0.58089 -2.84735 0
M  V30 1425 H 123.386 -0.266783 -2.56215 0
M  V30 1426 H 123.344 1.44695 -2.79125 0
M  V30 1427 N 127.117 1.15442 -1.07289 0
M  V30 1428 C 128.528 1.67803 -0.818475 0
M  V30 1429 C 128.879 1.8489 0.656507 0
M  V30 1430 O 128.004 1.55176 1.50829 0
M  V30 1431 C 128.599 3.04805 -1.47917 0
M  V30 1432 C 127.158 3.54245 -1.27229 0
M  V30 1433 C 126.305 2.29986 -1.54925 0
M  V30 1434 H 129.256 0.996646 -1.23502 0
M  V30 1435 H 129.277 3.69702 -0.90005 0
M  V30 1436 H 128.789 2.92336 -2.55267 0
M  V30 1437 H 126.89 3.71956 -0.21899 0
M  V30 1438 H 127.003 4.35723 -1.99203 0
M  V30 1439 H 125.367 2.35496 -0.970242 0
M  V30 1440 H 126.15 2.20105 -2.63455 0
M  V30 1441 N 128.595 0.856903 1.32268 0
M  V30 1442 C 129.543 0.291987 2.3076 0
M  V30 1443 C 130.537 -0.585857 1.58947 0
M  V30 1444 O 131.743 -0.47341 1.73663 0
M  V30 1445 H 128.118 0.075721 0.748178 0
M  V30 1446 H 130.089 1.13687 2.75895 0
M  V30 1447 C 128.838 -0.502869 3.44044 0
M  V30 1448 H 128.161 0.163328 3.99466 0
M  V30 1449 H 129.601 -0.863691 4.1511 0
M  V30 1450 C 128.06 -1.68898 2.91505 0
M  V30 1451 O 128.59 -2.78811 2.89184 0
M  V30 1452 N 126.796 -1.51679 2.47875 0
M  V30 1453 H 126.343 -0.622666 2.49961 0
M  V30 1454 H 126.301 -2.31184 2.13076 0
M  V30 1455 N 130.073 -1.45103 0.615059 0
M  V30 1456 C 131.023 -2.27679 -0.120966 0
M  V30 1457 C 132.007 -1.3775 -0.831491 0
M  V30 1458 O 133.199 -1.61683 -0.720249 0
M  V30 1459 C 130.328 -3.24767 -1.1127 0
M  V30 1460 C 129.414 -4.22184 -0.402627 0
M  V30 1461 N 129.805 -5.02692 0.559884 0
M  V30 1462 C 128.103 -4.4125 -0.649202 0
M  V30 1463 C 128.804 -5.73421 0.977942 0
M  V30 1464 N 127.78 -5.42657 0.320104 0
M  V30 1465 H 131.582 -2.87325 0.618181 0
M  V30 1466 H 129.096 -1.56345 0.439304 0
M  V30 1467 H 131.093 -3.82666 -1.65446 0
M  V30 1468 H 129.753 -2.66682 -1.85232 0
M  V30 1469 H 130.764 -5.09354 0.936976 0
M  V30 1470 H 127.441 -3.9428 -1.37293 0
M  V30 1471 H 128.831 -6.48107 1.77222 0
M  V30 1472 N 131.551 -0.354651 -1.53558 0
M  V30 1473 C 132.962 0.126902 -1.86268 0
M  V30 1474 C 133.313 1.49075 -1.27558 0
M  V30 1475 O 132.438 2.08105 -0.5934 0
M  V30 1476 C 133.033 0.237046 -3.3797 0
M  V30 1477 C 131.592 0.662842 -3.70518 0
M  V30 1478 C 130.739 -0.196652 -2.76602 0
M  V30 1479 H 133.69 -0.573849 -1.47962 0
M  V30 1480 H 133.711 1.06259 -3.65362 0
M  V30 1481 H 133.223 -0.755725 -3.80671 0
M  V30 1482 H 131.324 1.66424 -3.33367 0
M  V30 1483 H 131.437 0.445034 -4.77029 0
M  V30 1484 H 129.801 0.332763 -2.52517 0
M  V30 1485 H 130.584 -1.18676 -3.22135 0
M  V30 1486 N 133.029 1.57378 -0.0835403 0
M  V30 1487 C 134.257 1.98263 0.59157 0
M  V30 1488 C 134.672 0.962302 1.62435 0
M  V30 1489 O 134.029 -0.049581 1.82433 0
M  V30 1490 C 134.08 3.39214 1.24965 0
M  V30 1491 O 133.801 4.37339 0.258186 0
M  V30 1492 C 135.302 3.95038 2.01147 0
M  V30 1493 H 132.522 0.651773 0.159477 0
M  V30 1494 H 135.066 2.03878 -0.159415 0
M  V30 1495 H 133.221 3.34649 1.95164 0
M  V30 1496 H 133.635 5.19371 0.731734 0
M  V30 1497 H 135.109 4.95848 2.42567 0
M  V30 1498 H 135.586 3.32222 2.87272 0
M  V30 1499 H 136.192 4.0304 1.35789 0
M  V30 1500 N 134.507 -0.190092 1.56449 0
M  V30 1501 C 135.437 -1.23816 1.97969 0
M  V30 1502 C 136.418 -1.47201 0.852395 0
M  V30 1503 O 137.603 -1.58854 1.1171 0
M  V30 1504 C 134.733 -2.5813 2.3235 0
M  V30 1505 C 133.687 -2.49348 3.47864 0
M  V30 1506 C 133.013 -3.8798 3.67934 0
M  V30 1507 C 134.313 -2.01424 4.81898 0
M  V30 1508 H 136.007 -0.89311 2.85769 0
M  V30 1509 H 133.553 -0.428177 1.37487 0
M  V30 1510 H 135.506 -3.31637 2.59991 0
M  V30 1511 H 134.23 -2.94386 1.41438 0
M  V30 1512 H 132.889 -1.78297 3.20321 0
M  V30 1513 H 132.537 -4.21597 2.74344 0
M  V30 1514 H 132.237 -3.82978 4.45648 0
M  V30 1515 H 133.761 -4.63101 3.97957 0
M  V30 1516 H 135.175 -2.64693 5.08538 0
M  V30 1517 H 133.572 -2.07413 5.63116 0
M  V30 1518 H 134.642 -0.967677 4.75146 0
M  V30 1519 N 135.985 -1.50799 -0.457987 0
M  V30 1520 C 137.231 -1.63648 -1.20792 0
M  V30 1521 C 137.586 -0.338662 -1.89396 0
M  V30 1522 O 136.879 0.664291 -1.79716 0
M  V30 1523 C 137.073 -2.76358 -2.2663 0
M  V30 1524 C 136.902 -4.16974 -1.68411 0
M  V30 1525 C 135.672 -4.83199 -1.47807 0
M  V30 1526 C 137.87 -5.00774 -1.17176 0
M  V30 1527 N 135.852 -6.07991 -0.849692 0
M  V30 1528 C 137.223 -6.16397 -0.667403 0
M  V30 1529 C 139.278 -4.86452 -1.06155 0
M  V30 1530 C 137.981 -7.19272 -0.0636908 0
M  V30 1531 C 140.007 -5.89515 -0.471759 0
M  V30 1532 C 139.369 -7.04397 0.0221557 0
M  V30 1533 H 135.468 -0.652888 -0.43042 0
M  V30 1534 H 138.052 -1.87962 -0.507785 0
M  V30 1535 H 136.223 -2.53744 -2.94056 0
M  V30 1536 H 137.955 -2.78496 -2.93636 0
M  V30 1537 H 134.71 -4.40714 -1.73403 0
M  V30 1538 H 135.134 -6.74733 -0.553537 0
M  V30 1539 H 139.776 -3.97907 -1.42932 0
M  V30 1540 H 137.494 -8.07481 0.316253 0
M  V30 1541 H 141.08 -5.805 -0.388671 0
M  V30 1542 H 139.96 -7.82782 0.471375 0
M  V30 1543 N 137.463 0.71206 -1.40597 0
M  V30 1544 C 138.879 1.02058 -1.22704 0
M  V30 1545 C 139.079 2.01228 -0.104729 0
M  V30 1546 O 138.135 2.4674 0.53624 0
M  V30 1547 C 139.448 1.56094 -2.57012 0
M  V30 1548 C 140.996 1.6806 -2.64054 0
M  V30 1549 C 141.471 2.25501 -3.9864 0
M  V30 1550 N 142.962 2.32882 -4.004 0
M  V30 1551 C 143.697 2.78317 -5.01325 0
M  V30 1552 N 143.193 3.23478 -6.12645 0
M  V30 1553 N 144.986 2.77733 -4.88693 0
M  V30 1554 H 137.137 0.0547896 -2.12329 0
M  V30 1555 H 139.4 0.0869027 -0.944008 0
M  V30 1556 H 139.106 0.906865 -3.39807 0
M  V30 1557 H 138.98 2.54564 -2.78347 0
M  V30 1558 H 141.367 2.32583 -1.81629 0
M  V30 1559 H 141.448 0.681802 -2.46546 0
M  V30 1560 H 141.092 1.61598 -4.81506 0
M  V30 1561 H 141.022 3.26102 -4.13479 0
M  V30 1562 H 143.513 2.00991 -3.20017 0
M  V30 1563 H 143.826 3.56725 -6.85542 0
M  V30 1564 H 142.171 3.21429 -6.16205 0
M  V30 1565 H 145.362 2.4179 -4.00818 0
M  V30 1566 H 145.535 3.12826 -5.67489 0
M  V30 1567 N 138.941 1.26152 0.944643 0
M  V30 1568 C 140.352 1.10454 1.50522 0
M  V30 1569 C 140.703 -0.31635 1.93633 0
M  V30 1570 O 139.828 -1.20746 1.79581 0
M  V30 1571 C 140.423 1.99891 2.73549 0
M  V30 1572 C 138.982 1.88348 3.25886 0
M  V30 1573 C 138.129 1.93447 1.9868 0
M  V30 1574 H 141.08 1.39292 0.760489 0
M  V30 1575 H 141.101 1.54477 3.47732 0
M  V30 1576 H 140.613 3.03297 2.42141 0
M  V30 1577 H 138.714 0.878636 3.62092 0
M  V30 1578 H 138.827 2.73696 3.93227 0
M  V30 1579 H 137.191 1.37456 2.14425 0
M  V30 1580 H 137.974 2.98476 1.69607 0
M  V30 1581 N 140.419 -1.14872 1.07899 0
M  V30 1582 C 141.329 -2.2341 0.715915 0
M  V30 1583 C 142.345 -1.71808 -0.275306 0
M  V30 1584 O 143.521 -2.01039 -0.120545 0
M  V30 1585 C 140.586 -3.46474 0.125168 0
M  V30 1586 C 139.647 -4.13039 1.17034 0
M  V30 1587 C 138.88 -5.30229 0.607688 0
M  V30 1588 O 139.103 -5.675 -0.574497 0
M  V30 1589 O 138.037 -5.86444 1.35526 0
M  V30 1590 H 141.863 -2.56808 1.62121 0
M  V30 1591 H 139.448 -1.22702 0.852322 0
M  V30 1592 H 141.33 -4.20917 -0.201729 0
M  V30 1593 H 140.005 -3.14811 -0.753364 0
M  V30 1594 H 138.912 -3.40493 1.54968 0
M  V30 1595 H 140.245 -4.48796 2.02097 0
M  V30 1596 N 141.898 -0.863906 -1.31812 0
M  V30 1597 C 143.128 -0.485406 -2.00817 0
M  V30 1598 C 143.536 0.925007 -1.65046 0
M  V30 1599 O 142.879 1.61653 -0.872574 0
M  V30 1600 C 142.941 -0.555589 -3.55181 0
M  V30 1601 C 142.605 -1.92654 -4.14407 0
M  V30 1602 C 143.602 -2.89324 -4.31958 0
M  V30 1603 C 141.287 -2.2262 -4.50273 0
M  V30 1604 C 143.281 -4.14108 -4.84555 0
M  V30 1605 C 140.968 -3.47654 -5.02573 0
M  V30 1606 C 141.966 -4.43214 -5.19664 0
M  V30 1607 O 141.654 -5.66033 -5.70843 0
M  V30 1608 H 141.386 -0.188224 -0.649267 0
M  V30 1609 H 143.94 -1.16514 -1.69156 0
M  V30 1610 H 142.17 0.181037 -3.86276 0
M  V30 1611 H 143.859 -0.19138 -4.05449 0
M  V30 1612 H 144.625 -2.6748 -4.04573 0
M  V30 1613 H 140.504 -1.4902 -4.3625 0
M  V30 1614 H 144.048 -4.88703 -4.9781 0
M  V30 1615 H 139.945 -3.69345 -5.29391 0
M  V30 1616 H 140.713 -5.6812 -5.89222 0
M  V30 1617 N 143.376 1.44774 -0.622745 0
M  V30 1618 C 144.624 2.01721 -0.123655 0
M  V30 1619 C 144.945 1.49172 1.25589 0
M  V30 1620 O 144.215 0.691974 1.83272 0
M  V30 1621 H 142.795 0.745777 -0.0427225 0
M  V30 1622 H 145.457 1.77382 -0.807559 0
M  V30 1623 H 144.553 3.11984 -0.0849534 0
M  V30 1624 N 144.854 0.36279 1.53368 0
M  V30 1625 C 146.079 -0.231226 2.06107 0
M  V30 1626 C 146.504 -1.419 1.23474 0
M  V30 1627 O 145.862 -1.79524 0.253128 0
M  V30 1628 C 145.91 -0.605523 3.5548 0
M  V30 1629 O 145.014 -1.70312 3.7559 0
M  V30 1630 H 144.355 -0.034327 0.663112 0
M  V30 1631 H 146.885 0.522584 1.97814 0
M  V30 1632 H 146.895 -0.877314 3.98456 0
M  V30 1633 H 145.57 0.263004 4.15068 0
M  V30 1634 H 144.147 -1.4271 3.44512 0
M  V30 1635 N 146.332 -1.57332 0.0918853 0
M  V30 1636 C 147.562 -1.98286 -0.580205 0
M  V30 1637 C 147.97 -0.969713 -1.6246 0
M  V30 1638 O 147.313 0.0493501 -1.83634 0
M  V30 1639 C 147.375 -3.35603 -1.28882 0
M  V30 1640 C 147.039 -4.55285 -0.395559 0
M  V30 1641 C 148.036 -5.18687 0.355002 0
M  V30 1642 C 145.721 -5.01314 -0.314556 0
M  V30 1643 C 147.715 -6.26484 1.17458 0
M  V30 1644 C 145.402 -6.08979 0.508677 0
M  V30 1645 C 146.4 -6.71429 1.2519 0
M  V30 1646 O 146.088 -7.77018 2.06151 0
M  V30 1647 H 145.82 -0.656678 -0.160466 0
M  V30 1648 H 148.374 -2.04721 0.16688 0
M  V30 1649 H 146.604 -3.25842 -2.08241 0
M  V30 1650 H 148.293 -3.61026 -1.85512 0
M  V30 1651 H 149.059 -4.84058 0.302134 0
M  V30 1652 H 144.938 -4.5247 -0.882697 0
M  V30 1653 H 148.482 -6.75159 1.75518 0
M  V30 1654 H 144.379 -6.4304 0.563037 0
M  V30 1655 H 145.147 -7.93991 1.98799 0
M  V30 1656 N 147.81 0.181792 -1.56548 0
M  V30 1657 C 148.743 1.25366 -1.90679 0
M  V30 1658 C 149.721 1.43299 -0.768376 0
M  V30 1659 O 150.905 1.58475 -1.02068 0
M  V30 1660 C 148.032 2.61826 -2.1486 0
M  V30 1661 C 147.078 2.60688 -3.37556 0
M  V30 1662 S 147.911 2.10804 -4.92262 0
M  V30 1663 C 149.067 3.49062 -5.19525 0
M  V30 1664 H 149.3 0.962277 -2.81296 0
M  V30 1665 H 146.833 0.385892 -1.495 0
M  V30 1666 H 148.791 3.40371 -2.29473 0
M  V30 1667 H 147.452 2.88169 -1.24969 0
M  V30 1668 H 146.645 3.61058 -3.51643 0
M  V30 1669 H 146.247 1.90232 -3.22006 0
M  V30 1670 H 148.539 4.45003 -5.10861 0
M  V30 1671 H 149.482 3.39859 -6.2121 0
M  V30 1672 H 149.89 3.4459 -4.47122 0
M  V30 1673 N 149.288 1.51039 0.449983 0
M  V30 1674 C 150.537 1.62317 1.19733 0
M  V30 1675 C 150.85 0.339101 1.92638 0
M  V30 1676 O 152.056 0.331069 2.69474 0
M  V30 1677 C 150.512 2.86608 2.17678 0
M  V30 1678 C 150.12 4.21972 1.50479 0
M  V30 1679 C 151.864 3.07239 2.92924 0
M  V30 1680 C 149.771 5.37426 2.46834 0
M  V30 1681 H 148.701 0.604532 0.450619 0
M  V30 1682 H 151.352 1.77494 0.465625 0
M  V30 1683 H 149.734 2.65037 2.94231 0
M  V30 1684 H 150.908 4.53878 0.795716 0
M  V30 1685 H 149.223 4.07117 0.874344 0
M  V30 1686 H 151.82 3.90668 3.65079 0
M  V30 1687 H 152.163 2.19807 3.5354 0
M  V30 1688 H 152.696 3.29091 2.23481 0
M  V30 1689 H 149.435 6.27079 1.90926 0
M  V30 1690 H 148.955 5.09912 3.15832 0
M  V30 1691 H 150.634 5.68862 3.08228 0
M  V30 1692 N 150.766 -0.704594 1.40972 0
M  V30 1693 C 151.676 -1.84856 1.44448 0
M  V30 1694 C 152.692 -1.70726 0.335961 0
M  V30 1695 O 153.868 -1.92799 0.582276 0
M  V30 1696 C 150.933 -3.20758 1.31587 0
M  V30 1697 C 149.994 -3.47063 2.52677 0
M  V30 1698 C 149.227 -4.76481 2.4042 0
M  V30 1699 O 149.45 -5.52341 1.42391 0
M  V30 1700 O 148.384 -5.03367 3.30007 0
M  V30 1701 H 152.21 -1.8488 2.40942 0
M  V30 1702 H 149.795 -0.85647 1.22413 0
M  V30 1703 H 151.677 -4.01913 1.26665 0
M  V30 1704 H 150.352 -3.21438 0.382049 0
M  V30 1705 H 149.259 -2.65873 2.63177 0
M  V30 1706 H 150.592 -3.5119 3.44858 0
M  V30 1707 N 152.244 -1.26651 -0.937939 0
M  V30 1708 C 153.492 -1.12165 -1.68118 0
M  V30 1709 C 153.813 0.334983 -1.92101 0
M  V30 1710 O 153.083 1.23583 -1.52 0
M  V30 1711 H 151.663 -0.412093 -0.623048 0
M  V30 1712 H 154.325 -1.59027 -1.12678 0
M  V30 1713 H 153.421 -1.64289 -2.6536 0
M  V30 1714 N 153.722 1.14298 -1.08507 0
M  V30 1715 C 154.95 1.89219 -0.836876 0
M  V30 1716 C 155.365 1.78638 0.611054 0
M  V30 1717 O 154.722 1.14643 1.41998 0
M  V30 1718 C 154.773 3.39158 -1.25116 0
M  V30 1719 O 154.494 3.49449 -2.64229 0
M  V30 1720 C 155.995 4.31073 -1.03398 0
M  V30 1721 H 153.215 0.599328 -0.301739 0
M  V30 1722 H 155.759 1.44746 -1.44461 0
M  V30 1723 H 153.914 3.81251 -0.687514 0
M  V30 1724 H 154.328 4.42589 -2.81452 0
M  V30 1725 H 155.802 5.34646 -1.37323 0
M  V30 1726 H 156.279 4.3919 0.0289259 0
M  V30 1727 H 156.885 3.94738 -1.58311 0
M  V30 1728 N 155.201 0.870884 1.31352 0
M  V30 1729 C 156.612 0.534714 1.78879 0
M  V30 1730 C 156.963 -0.948423 1.71754 0
M  V30 1731 O 156.088 -1.74055 1.28584 0
M  V30 1732 C 156.683 0.963839 3.24801 0
M  V30 1733 C 155.242 0.679311 3.70219 0
M  V30 1734 C 154.389 1.15465 2.52117 0
M  V30 1735 H 157.34 1.05651 1.18421 0
M  V30 1736 H 157.361 0.286892 3.79417 0
M  V30 1737 H 156.873 2.04332 3.29955 0
M  V30 1738 H 154.974 -0.388769 3.70566 0
M  V30 1739 H 155.087 1.25698 4.62317 0
M  V30 1740 H 153.451 0.574383 2.48139 0
M  V30 1741 H 154.234 2.24157 2.60016 0
M  V30 1742 N 156.679 -1.44442 0.630414 0
M  V30 1743 C 157.927 -2.01653 0.134351 0
M  V30 1744 C 158.248 -1.49836 -1.24796 0
M  V30 1745 O 157.518 -0.701684 -1.82902 0
M  V30 1746 H 156.098 -0.74554 0.0466769 0
M  V30 1747 H 158.76 -1.76952 0.816955 0
M  V30 1748 H 157.856 -3.11935 0.101498 0
M  V30 1749 N 158.157 -0.370918 -1.53173 0
M  V30 1750 C 159.089 0.507823 -2.23503 0
M  V30 1751 C 160.102 1.04182 -1.251 0
M  V30 1752 O 161.291 0.947286 -1.5129 0
M  V30 1753 C 158.391 1.71447 -2.92334 0
M  V30 1754 C 157.564 1.31105 -4.17289 0
M  V30 1755 C 156.623 2.38035 -4.69282 0
M  V30 1756 O 155.649 2.00204 -5.32829 0
M  V30 1757 N 156.851 3.69697 -4.47554 0
M  V30 1758 H 159.616 -0.0946382 -2.99551 0
M  V30 1759 H 157.177 -0.196358 -1.60705 0
M  V30 1760 H 159.169 2.42469 -3.24023 0
M  V30 1761 H 157.739 2.22368 -2.19707 0
M  V30 1762 H 156.959 0.430462 -3.91843 0
M  V30 1763 H 158.247 1.0179 -4.98514 0
M  V30 1764 H 157.645 4.03205 -3.9679 0
M  V30 1765 H 156.202 4.36807 -4.8378 0
M  V30 1766 N 159.635 1.57281 -0.100228 0
M  V30 1767 C 161.046 1.81725 0.428107 0
M  V30 1768 C 161.397 1.01619 1.67833 0
M  V30 1769 O 160.522 0.247098 2.14985 0
M  V30 1770 C 161.117 3.29617 0.78347 0
M  V30 1771 C 159.676 3.54808 1.25653 0
M  V30 1772 C 158.823 2.76118 0.255752 0
M  V30 1773 H 161.774 1.55324 -0.325608 0
M  V30 1774 H 161.795 3.4322 1.64256 0
M  V30 1775 H 161.307 3.87893 -0.12665 0
M  V30 1776 H 159.408 3.01868 2.18418 0
M  V30 1777 H 159.521 4.63443 1.21482 0
M  V30 1778 H 157.885 2.43745 0.738956 0
M  V30 1779 H 158.668 3.37145 -0.647136 0
M  V30 1780 N 161.113 -0.173488 1.56642 0
M  V30 1781 C 162.343 -0.904781 1.85734 0
M  V30 1782 C 162.751 -1.76431 0.68328 0
M  V30 1783 O 162.094 -1.802 -0.356865 0
M  V30 1784 C 162.156 -1.83382 3.09211 0
M  V30 1785 C 161.82 -1.15411 4.42187 0
M  V30 1786 C 162.817 -0.520609 5.17287 0
M  V30 1787 C 160.502 -1.15151 4.88923 0
M  V30 1788 C 162.496 0.106412 6.37311 0
M  V30 1789 C 160.183 -0.520664 6.08878 0
M  V30 1790 C 161.181 0.107196 6.82916 0
M  V30 1791 O 160.869 0.728102 8.00596 0
M  V30 1792 H 160.601 -0.268408 0.62043 0
M  V30 1793 H 163.155 -0.179096 2.04618 0
M  V30 1794 H 161.385 -2.59976 2.86268 0
M  V30 1795 H 163.074 -2.43476 3.24768 0
M  V30 1796 H 163.84 -0.514606 4.82262 0
M  V30 1797 H 159.719 -1.62961 4.31236 0
M  V30 1798 H 163.263 0.597081 6.9504 0
M  V30 1799 H 159.16 -0.524242 6.43368 0
M  V30 1800 H 159.928 0.627138 8.16094 0
M  V30 1801 N 162.591 -1.51276 -0.441967 0
M  V30 1802 C 163.839 -1.63392 -1.18943 0
M  V30 1803 C 164.16 -0.350159 -1.9183 0
M  V30 1804 O 163.43 0.633784 -1.85364 0
M  V30 1805 H 162.01 -0.602164 -0.442049 0
M  V30 1806 H 164.672 -1.88186 -0.507165 0
M  V30 1807 H 163.768 -2.45934 -1.92154 0
M  V30 1808 N 164.069 0.697108 -1.41344 0
M  V30 1809 C 165.317 1.45426 -1.40341 0
M  V30 1810 C 165.638 1.94996 -0.0128787 0
M  V30 1811 O 164.908 1.71599 0.945027 0
M  V30 1812 H 163.488 0.539594 -0.516573 0
M  V30 1813 H 166.15 0.825201 -1.76569 0
M  V30 1814 H 165.246 2.31817 -2.08967 0
M  V30 1815 N 165.547 1.27147 0.931209 0
M  V30 1816 C 166.775 1.16082 1.71267 0
M  V30 1817 C 167.19 -0.282772 1.8667 0
M  V30 1818 O 166.547 -1.19283 1.38122 0
M  V30 1819 C 166.598 1.8358 3.11417 0
M  V30 1820 O 166.319 3.22299 2.96741 0
M  V30 1821 C 167.82 1.78597 4.05732 0
M  V30 1822 H 165.04 0.403758 0.535929 0
M  V30 1823 H 167.584 1.67953 1.16671 0
M  V30 1824 H 165.739 1.35623 3.62885 0
M  V30 1825 H 166.153 3.55851 3.85319 0
M  V30 1826 H 167.627 2.30444 5.01597 0
M  V30 1827 H 168.104 0.754564 4.3267 0
M  V30 1828 H 168.71 2.26152 3.60188 0
M  V30 1829 N 167.025 -1.13721 1.09112 0
M  V30 1830 C 167.958 -2.18094 0.67158 0
M  V30 1831 C 168.936 -1.59414 -0.320299 0
M  V30 1832 O 170.12 -1.87183 -0.222444 0
M  V30 1833 C 167.247 -3.38698 -0.0111189 0
M  V30 1834 C 166.293 -4.15966 0.942055 0
M  V30 1835 S 167.126 -4.7604 2.45246 0
M  V30 1836 C 168.282 -5.99994 1.78208 0
M  V30 1837 H 168.515 -2.53344 1.55577 0
M  V30 1838 H 166.048 -1.24967 0.906789 0
M  V30 1839 H 168.006 -4.08559 -0.398716 0
M  V30 1840 H 166.667 -3.01756 -0.871905 0
M  V30 1841 H 165.86 -5.02318 0.411396 0
M  V30 1842 H 165.462 -3.51745 1.2709 0
M  V30 1843 H 167.754 -6.68441 1.10424 0
M  V30 1844 H 168.697 -6.57662 2.62463 0
M  V30 1845 H 169.105 -5.50432 1.25238 0
M  V30 1846 N 168.503 -0.877838 -1.30888 0
M  V30 1847 C 169.728 -0.506629 -2.01117 0
M  V30 1848 C 170.153 0.895564 -1.65412 0
M  V30 1849 O 169.511 1.5923 -0.866922 0
M  V30 1850 C 169.559 -0.680223 -3.54126 0
M  V30 1851 O 168.663 0.277033 -4.11468 0
M  V30 1852 H 168.004 -0.200518 -0.633 0
M  V30 1853 H 170.534 -1.18342 -1.66902 0
M  V30 1854 H 170.544 -0.5765 -4.03907 0
M  V30 1855 H 169.219 -1.70261 -3.79452 0
M  V30 1856 H 167.796 0.127606 -3.72682 0
M  V30 1857 N 169.982 1.44106 -0.638065 0
M  V30 1858 C 170.892 2.34513 0.0637334 0
M  V30 1859 C 171.908 1.53018 0.828346 0
M  V30 1860 O 173.084 1.85723 0.779036 0
M  V30 1861 C 170.149 3.31095 1.02844 0
M  V30 1862 C 169.21 4.28497 0.26244 0
M  V30 1863 C 168.443 5.20465 1.1812 0
M  V30 1864 O 168.666 5.16514 2.42011 0
M  V30 1865 O 167.6 5.98251 0.661774 0
M  V30 1866 H 171.426 2.95989 -0.68003 0
M  V30 1867 H 169.011 1.43994 -0.398252 0
M  V30 1868 H 170.893 3.90526 1.58327 0
M  V30 1869 H 169.568 2.72144 1.7527 0
M  V30 1870 H 168.475 3.72592 -0.335602 0
M  V30 1871 H 169.808 4.90388 -0.421936 0
M  V30 1872 N 171.46 0.379036 1.52974 0
M  V30 1873 C 172.707 -0.206421 2.01445 0
M  V30 1874 C 173.035 -1.47668 1.26587 0
M  V30 1875 O 172.29 -1.92514 0.351675 0
M  V30 1876 C 172.589 -0.53096 3.53434 0
M  V30 1877 C 172.255 0.646546 4.46241 0
M  V30 1878 C 170.917 0.969604 4.7133 0
M  V30 1879 C 173.269 1.43479 5.01062 0
M  V30 1880 C 170.597 2.08263 5.48492 0
M  V30 1881 C 172.949 2.53834 5.7944 0
M  V30 1882 C 171.613 2.86659 6.02812 0
M  V30 1883 H 170.883 -0.0755349 0.73714 0
M  V30 1884 H 173.53 0.514271 1.84465 0
M  V30 1885 H 171.835 -1.33285 3.68432 0
M  V30 1886 H 173.532 -0.996417 3.88423 0
M  V30 1887 H 170.122 0.384734 4.2687 0
M  V30 1888 H 174.306 1.19844 4.81613 0
M  V30 1889 H 169.562 2.34078 5.64816 0
M  V30 1890 H 173.736 3.15319 6.20924 0
M  V30 1891 H 171.363 3.73026 6.62387 0
M  V30 1892 N 172.938 -1.57226 0.108567 0
M  V30 1893 C 173.886 -2.16002 -0.862885 0
M  V30 1894 C 174.88 -1.10644 -1.28274 0
M  V30 1895 O 176.086 -1.28966 -1.2557 0
M  V30 1896 H 172.461 -0.691148 -0.296342 0
M  V30 1897 H 174.432 -2.96427 -0.342575 0
M  V30 1898 C 173.181 -2.76576 -2.10716 0
M  V30 1899 H 172.504 -3.5734 -1.793 0
M  V30 1900 H 173.944 -3.21253 -2.76717 0
M  V30 1901 C 172.403 -1.73137 -2.89007 0
M  V30 1902 O 172.933 -1.17842 -3.84026 0
M  V30 1903 N 171.139 -1.43317 -2.52801 0
M  V30 1904 H 170.686 -1.88473 -1.75601 0
M  V30 1905 H 170.644 -0.743485 -3.05483 0
M  V30 1906 N 174.416 0.165178 -1.56732 0
M  V30 1907 C 175.644 0.896218 -1.86482 0
M  V30 1908 C 176.059 1.75555 -0.694675 0
M  V30 1909 O 175.416 1.79379 0.33607 0
M  V30 1910 C 175.467 1.76792 -3.1532 0
M  V30 1911 O 175.188 0.943239 -4.27825 0
M  V30 1912 C 176.689 2.6081 -3.58459 0
M  V30 1913 H 173.909 0.260064 -0.618553 0
M  V30 1914 H 176.453 0.163428 -2.03846 0
M  V30 1915 H 174.608 2.45398 -2.99764 0
M  V30 1916 H 175.022 1.53998 -5.01383 0
M  V30 1917 H 176.496 3.17579 -4.51495 0
M  V30 1918 H 176.973 3.35977 -2.82872 0
M  V30 1919 H 177.579 1.97526 -3.76648 0
M  V30 1920 N 175.894 1.51508 0.433938 0
M  V30 1921 C 177.14 1.64588 1.18484 0
M  V30 1922 C 177.473 0.362666 1.90784 0
M  V30 1923 O 176.748 -0.637892 1.83742 0
M  V30 1924 C 177.031 2.85149 2.19913 0
M  V30 1925 C 176.884 4.23456 1.51674 0
M  V30 1926 C 178.203 3.01227 3.20858 0
M  V30 1927 H 175.322 0.598994 0.429389 0
M  V30 1928 H 177.964 1.84002 0.473647 0
M  V30 1929 H 176.114 2.68729 2.80566 0
M  V30 1930 H 177.786 4.51552 0.943322 0
M  V30 1931 H 176.029 4.25998 0.819035 0
M  V30 1932 H 176.7 5.03812 2.2556 0
M  V30 1933 H 179.176 3.16382 2.70263 0
M  V30 1934 H 178.052 3.87141 3.89118 0
M  V30 1935 H 178.313 2.13447 3.8716 0
M  V30 1936 N 177.372 -0.689602 1.41712 0
M  V30 1937 C 178.282 -1.83314 1.46401 0
M  V30 1938 C 179.298 -1.7036 0.35405 0
M  V30 1939 O 180.474 -1.92171 0.602692 0
M  V30 1940 C 177.539 -3.19344 1.34982 0
M  V30 1941 C 176.6 -3.44363 2.56344 0
M  V30 1942 C 175.833 -4.73904 2.45461 0
M  V30 1943 O 176.056 -5.508 1.48241 0
M  V30 1944 O 174.99 -4.99839 3.35328 0
M  V30 1945 H 178.816 -1.82314 2.42889 0
M  V30 1946 H 176.401 -0.843438 1.23315 0
M  V30 1947 H 178.283 -4.00547 1.3092 0
M  V30 1948 H 176.958 -3.21014 0.41612 0
M  V30 1949 H 175.865 -2.63067 2.65982 0
M  V30 1950 H 177.198 -3.47512 3.48563 0
M  V30 1951 N 178.85 -1.27639 -0.924453 0
M  V30 1952 C 179.813 -1.10681 -2.00705 0
M  V30 1953 C 180.813 -0.0497823 -1.60723 0
M  V30 1954 O 182.003 -0.294654 -1.7169 0
M  V30 1955 C 179.135 -0.687164 -3.33902 0
M  V30 1956 H 180.328 -2.06817 -2.17179 0
M  V30 1957 H 177.881 -1.10473 -1.10569 0
M  V30 1958 H 178.616 0.275439 -3.23128 0
M  V30 1959 H 178.401 -1.45061 -3.6428 0
M  V30 1960 H 179.891 -0.590853 -4.13399 0
M  V30 1961 N 180.328 1.1314 -1.09713 0
M  V30 1962 C 181.276 2.20717 -0.733934 0
M  V30 1963 C 182.27 1.6729 0.266506 0
M  V30 1964 O 183.476 1.79547 0.127656 0
M  V30 1965 H 179.851 0.719292 -0.21937 0
M  V30 1966 H 181.822 2.48611 -1.6503 0
M  V30 1967 C 180.571 3.47265 -0.173849 0
M  V30 1968 H 179.894 3.88716 -0.934873 0
M  V30 1969 H 181.334 4.23979 0.0423126 0
M  V30 1970 C 179.793 3.18724 1.09164 0
M  V30 1971 O 180.323 3.37762 2.17439 0
M  V30 1972 N 178.529 2.72583 1.00732 0
M  V30 1973 H 178.076 2.57291 0.126121 0
M  V30 1974 H 178.034 2.53862 1.85476 0
M  V30 1975 N 181.806 0.884767 1.30421 0
M  V30 1976 C 182.739 0.295999 2.26272 0
M  V30 1977 C 183.717 -0.58332 1.51777 0
M  V30 1978 O 184.901 -0.53346 1.80794 0
M  V30 1979 C 182.028 -0.57944 3.33707 0
M  V30 1980 C 181.074 0.230525 4.25877 0
M  V30 1981 S 181.907 1.61867 5.1045 0
M  V30 1982 C 183.063 0.749756 6.21393 0
M  V30 1983 H 183.296 1.10848 2.75862 0
M  V30 1984 H 180.829 0.684178 1.38414 0
M  V30 1985 H 182.787 -1.07879 3.96071 0
M  V30 1986 H 181.448 -1.36601 2.82841 0
M  V30 1987 H 180.641 -0.437542 5.02097 0
M  V30 1988 H 180.243 0.662493 3.68086 0
M  V30 1989 H 182.535 -0.0333547 6.77492 0
M  V30 1990 H 183.478 1.48356 6.92384 0
M  V30 1991 H 183.886 0.310751 5.63644 0
M  V30 1992 N 183.284 -1.43765 0.645699 0
M  V30 1993 C 184.7 -1.56509 0.312591 0
M  V30 1994 C 184.9 -1.6307 -1.18365 0
M  V30 1995 O 183.956 -1.58167 -1.96824 0
M  V30 1996 C 185.269 -2.82968 1.01733 0
M  V30 1997 C 186.817 -2.96701 0.996865 0
M  V30 1998 C 187.292 -4.25982 1.68236 0
M  V30 1999 N 188.783 -4.32829 1.64964 0
M  V30 2000 C 189.518 -5.31613 2.14885 0
M  V30 2001 N 189.014 -6.36718 2.73061 0
M  V30 2002 N 190.807 -5.23217 2.05428 0
M  V30 2003 H 182.958 -1.3775 1.61675 0
M  V30 2004 H 185.221 -0.661067 0.679481 0
M  V30 2005 H 184.927 -2.84156 2.0724 0
M  V30 2006 H 184.801 -3.72957 0.564177 0
M  V30 2007 H 187.188 -2.95058 -0.0497719 0
M  V30 2008 H 187.269 -2.08022 1.48865 0
M  V30 2009 H 186.913 -4.28386 2.72852 0
M  V30 2010 H 186.843 -5.13545 1.16529 0
M  V30 2011 H 189.334 -3.57493 1.22503 0
M  V30 2012 H 189.647 -7.08401 3.08848 0
M  V30 2013 H 187.992 -6.37362 2.77118 0
M  V30 2014 H 191.183 -4.40019 1.59689 0
M  V30 2015 H 191.356 -6.00045 2.44643 0
M  V30 2016 N 184.763 -0.387143 -1.52771 0
M  V30 2017 C 185.71 0.449048 -2.26389 0
M  V30 2018 C 186.68 1.05961 -1.27912 0
M  V30 2019 O 187.865 1.08804 -1.56737 0
M  V30 2020 C 185.005 1.57155 -3.0724 0
M  V30 2021 C 184.118 0.984066 -4.20643 0
M  V30 2022 C 183.253 2.07745 -4.88892 0
M  V30 2023 C 182.292 1.46574 -5.94292 0
M  V30 2024 N 181.429 2.49834 -6.56146 0
M  V30 2025 H 186.269 -0.185205 -2.97424 0
M  V30 2026 H 183.806 -0.103164 -1.46738 0
M  V30 2027 H 185.764 2.23309 -3.52405 0
M  V30 2028 H 184.394 2.17615 -2.38419 0
M  V30 2029 H 183.446 0.212193 -3.79808 0
M  V30 2030 H 184.758 0.497029 -4.96318 0
M  V30 2031 H 183.912 2.81673 -5.3735 0
M  V30 2032 H 182.651 2.59807 -4.12737 0
M  V30 2033 H 181.656 0.711696 -5.45174 0
M  V30 2034 H 182.881 0.953088 -6.72379 0
M  V30 2035 H 180.827 3.0107 -5.82832 0
M  V30 2036 H 180.744 2.05879 -7.27427 0
M  V30 2037 H 182.012 3.23399 -7.09249 0
M  V30 2038 N 186.241 1.57166 -0.116904 0
M  V30 2039 C 187.657 1.5779 0.239693 0
M  V30 2040 C 187.857 1.1295 1.66867 0
M  V30 2041 O 186.913 0.81592 2.38954 0
M  V30 2042 C 188.226 3.00699 0.00828202 0
M  V30 2043 C 189.774 3.12912 0.0743438 0
M  V30 2044 C 190.249 4.57817 -0.129348 0
M  V30 2045 N 191.74 4.63139 -0.075247 0
M  V30 2046 C 192.475 5.73023 -0.207788 0
M  V30 2047 N 191.971 6.91665 -0.396382 0
M  V30 2048 N 193.764 5.61906 -0.14751 0
M  V30 2049 H 185.915 1.84615 -1.05029 0
M  V30 2050 H 188.178 0.85311 -0.41341 0
M  V30 2051 H 187.884 3.37784 -0.979531 0
M  V30 2052 H 187.758 3.69848 0.741077 0
M  V30 2053 H 190.145 2.75686 1.05268 0
M  V30 2054 H 190.226 2.4631 -0.690297 0
M  V30 2055 H 189.87 4.95742 -1.10465 0
M  V30 2056 H 189.8 5.22507 0.655253 0
M  V30 2057 H 192.291 3.7784 0.0670898 0
M  V30 2058 H 192.604 7.71255 -0.488437 0
M  V30 2059 H 190.949 6.93654 -0.432329 0
M  V30 2060 H 194.14 4.681 -0.00115036 0
M  V30 2061 H 194.313 6.47501 -0.254247 0
M  V30 2062 N 187.719 -0.156864 1.56817 0
M  V30 2063 C 189.135 -0.50916 1.5126 0
M  V30 2064 C 189.335 -1.83897 0.823658 0
M  V30 2065 O 188.391 -2.49469 0.390055 0
M  V30 2066 C 189.704 -0.52857 2.96018 0
M  V30 2067 C 191.252 -0.614771 3.06903 0
M  V30 2068 C 191.727 -0.664938 4.53147 0
M  V30 2069 N 193.218 -0.727433 4.57452 0
M  V30 2070 C 193.953 -0.787067 5.67973 0
M  V30 2071 N 193.449 -0.806649 6.88088 0
M  V30 2072 N 195.242 -0.827195 5.5598 0
M  V30 2073 H 187.393 0.714935 2.00006 0
M  V30 2074 H 189.656 0.259526 0.911784 0
M  V30 2075 H 189.362 0.380154 3.49639 0
M  V30 2076 H 189.236 -1.36998 3.51442 0
M  V30 2077 H 191.623 -1.51392 2.53307 0
M  V30 2078 H 191.704 0.253597 2.5454 0
M  V30 2079 H 191.348 0.230011 5.07379 0
M  V30 2080 H 191.278 -1.54966 5.03282 0
M  V30 2081 H 193.769 -0.719998 3.70978 0
M  V30 2082 H 194.082 -0.853727 7.6807 0
M  V30 2083 H 192.427 -0.774687 6.90669 0
M  V30 2084 H 195.618 -0.808998 4.61056 0
M  V30 2085 H 195.791 -0.870206 6.4213 0
M  V30 2086 N 189.197 -1.51736 -0.425897 0
M  V30 2087 C 190.144 -1.73875 -1.51776 0
M  V30 2088 C 191.114 -0.580702 -1.55618 0
M  V30 2089 O 192.299 -0.81641 -1.72451 0
M  V30 2090 C 189.439 -1.88012 -2.89388 0
M  V30 2091 C 188.552 -3.15606 -2.94986 0
M  V30 2092 C 187.687 -3.20271 -4.23793 0
M  V30 2093 C 186.726 -4.42134 -4.23302 0
M  V30 2094 N 185.863 -4.44284 -5.43651 0
M  V30 2095 H 190.703 -2.67071 -1.32201 0
M  V30 2096 H 188.24 -1.32351 -0.642008 0
M  V30 2097 H 190.198 -1.9419 -3.69251 0
M  V30 2098 H 188.828 -0.98213 -3.07496 0
M  V30 2099 H 187.88 -3.18681 -2.07717 0
M  V30 2100 H 189.192 -4.05486 -2.90486 0
M  V30 2101 H 188.346 -3.25428 -5.12036 0
M  V30 2102 H 187.085 -2.28299 -4.30965 0
M  V30 2103 H 186.09 -4.3714 -3.3345 0
M  V30 2104 H 187.315 -5.35382 -4.17783 0
M  V30 2105 H 185.261 -3.55188 -5.51523 0
M  V30 2106 H 185.178 -5.27988 -5.41078 0
M  V30 2107 H 186.446 -4.53649 -6.33895 0
M  V30 2108 N 190.675 0.682077 -1.42076 0
M  V30 2109 C 191.585 1.82535 -1.47371 0
M  V30 2110 C 192.601 1.7017 -0.363079 0
M  V30 2111 O 193.777 1.91848 -0.612875 0
M  V30 2112 C 190.842 3.18624 -1.36674 0
M  V30 2113 C 189.903 3.42999 -2.58167 0
M  V30 2114 C 189.136 4.72595 -2.4797 0
M  V30 2115 O 189.359 5.50006 -1.5116 0
M  V30 2116 O 188.293 4.98054 -3.37974 0
M  V30 2117 H 192.119 1.81023 -2.43853 0
M  V30 2118 H 189.704 0.836887 -1.2376 0
M  V30 2119 H 191.586 3.99847 -1.33043 0
M  V30 2120 H 190.261 3.20789 -0.433138 0
M  V30 2121 H 189.168 2.61653 -2.67373 0
M  V30 2122 H 190.501 3.45659 -3.50401 0
M  V30 2123 N 192.153 1.28127 0.917671 0
M  V30 2124 C 193.116 1.11744 2.00115 0
M  V30 2125 C 194.116 0.0583052 1.60694 0
M  V30 2126 O 195.306 0.303755 1.71531 0
M  V30 2127 C 192.438 0.704862 3.33533 0
M  V30 2128 H 193.631 2.07966 2.16079 0
M  V30 2129 H 191.184 1.11058 1.09981 0
M  V30 2130 H 191.919 -0.258299 3.2327 0
M  V30 2131 H 191.704 1.4699 3.63505 0
M  V30 2132 H 193.194 0.612768 4.1308 0
M  V30 2133 N 193.631 -1.12557 1.10312 0
M  V30 2134 C 194.859 -1.87864 0.866873 0
M  V30 2135 C 195.274 -1.79588 -0.582557 0
M  V30 2136 O 194.631 -1.16887 -1.40156 0
M  V30 2137 C 194.682 -3.37125 1.30496 0
M  V30 2138 O 194.403 -3.45201 2.69755 0
M  V30 2139 C 195.904 -4.29373 1.10243 0
M  V30 2140 H 193.124 -0.594452 0.311236 0
M  V30 2141 H 195.668 -1.42429 1.46745 0
M  V30 2142 H 193.823 -3.80109 0.748081 0
M  V30 2143 H 194.237 -4.38056 2.88457 0
M  V30 2144 H 195.711 -5.32394 1.45811 0
M  V30 2145 H 196.188 -4.39181 0.0409492 0
M  V30 2146 H 196.794 -3.92169 1.64571 0
M  V30 2147 N 195.109 -0.891671 -1.2995 0
M  V30 2148 C 196.334 -0.527932 -2.00568 0
M  V30 2149 C 196.759 0.877969 -1.66353 0
M  V30 2150 O 196.117 1.58301 -0.883762 0
M  V30 2151 C 196.165 -0.717745 -3.53385 0
M  V30 2152 O 195.269 0.233376 -4.11739 0
M  V30 2153 H 194.61 -0.20722 -0.630837 0
M  V30 2154 H 197.14 -1.20105 -1.65638 0
M  V30 2155 H 197.15 -0.619307 -4.03272 0
M  V30 2156 H 195.825 -1.74276 -3.77625 0
M  V30 2157 H 194.402 0.0880706 -3.72796 0
M  V30 2158 N 196.587 1.43421 -0.653314 0
M  V30 2159 C 197.836 2.01032 -0.164076 0
M  V30 2160 C 198.149 1.52147 1.22926 0
M  V30 2161 O 199.355 2.02031 1.81371 0
M  V30 2162 C 197.811 3.59082 -0.24252 0
M  V30 2163 C 197.419 4.1696 -1.63855 0
M  V30 2164 C 199.163 4.24079 0.18911 0
M  V30 2165 C 197.07 5.67304 -1.67092 0
M  V30 2166 H 196 0.751798 -0.0575769 0
M  V30 2167 H 198.651 1.6439 -0.815362 0
M  V30 2168 H 197.033 3.93125 0.476276 0
M  V30 2169 H 198.207 3.94416 -2.38271 0
M  V30 2170 H 196.522 3.64335 -2.01616 0
M  V30 2171 H 199.119 5.34381 0.184775 0
M  V30 2172 H 199.462 3.98005 1.22056 0
M  V30 2173 H 199.995 3.94918 -0.477938 0
M  V30 2174 H 196.734 5.98145 -2.68146 0
M  V30 2175 H 196.254 5.91904 -0.970014 0
M  V30 2176 H 197.933 6.31344 -1.4147 0
M  V30 2177 N 198.065 0.39524 1.52563 0
M  V30 2178 C 198.995 -0.428384 2.29537 0
M  V30 2179 C 199.976 -1.05831 1.33169 0
M  V30 2180 O 201.161 -1.06995 1.62067 0
M  V30 2181 C 198.291 -1.55274 3.10656 0
M  V30 2182 C 197.245 -1.04855 4.14957 0
M  V30 2183 C 196.571 -2.26543 4.84337 0
M  V30 2184 C 197.871 -0.112324 5.22179 0
M  V30 2185 H 199.565 0.213867 2.98635 0
M  V30 2186 H 197.111 0.104298 1.43622 0
M  V30 2187 H 199.064 -2.1358 3.63265 0
M  V30 2188 H 197.788 -2.22266 2.39302 0
M  V30 2189 H 196.447 -0.487985 3.63338 0
M  V30 2190 H 196.095 -2.92059 4.09525 0
M  V30 2191 H 195.795 -1.93466 5.54837 0
M  V30 2192 H 197.319 -2.85481 5.39753 0
M  V30 2193 H 198.733 -0.603752 5.70112 0
M  V30 2194 H 197.13 0.128968 5.99961 0
M  V30 2195 H 198.2 0.837052 4.77621 0
M  V30 2196 N 199.544 -1.57102 0.125237 0
M  V30 2197 C 200.454 -2.19191 -0.8362 0
M  V30 2198 C 201.47 -1.16985 -1.28805 0
M  V30 2199 O 202.646 -1.49479 -1.34974 0
M  V30 2200 C 199.711 -2.78407 -2.06617 0
M  V30 2201 C 198.772 -3.9567 -1.66565 0
M  V30 2202 C 198.005 -4.52052 -2.83698 0
M  V30 2203 O 198.228 -4.07326 -3.99302 0
M  V30 2204 O 197.162 -5.42645 -2.60423 0
M  V30 2205 H 200.988 -3.01816 -0.337776 0
M  V30 2206 H 198.573 -1.4906 -0.100695 0
M  V30 2207 H 200.455 -3.16129 -2.7864 0
M  V30 2208 H 199.13 -1.9881 -2.55453 0
M  V30 2209 H 198.037 -3.62705 -0.916296 0
M  V30 2210 H 199.37 -4.76722 -1.22464 0
M  V30 2211 N 201.022 0.148545 -1.56898 0
M  V30 2212 C 201.932 1.20293 -2.01412 0
M  V30 2213 C 202.948 1.47107 -0.929273 0
M  V30 2214 O 204.124 1.58807 -1.23863 0
M  V30 2215 C 201.189 2.51682 -2.38447 0
M  V30 2216 C 200.25 2.32529 -3.60872 0
M  V30 2217 C 199.483 3.57653 -3.96132 0
M  V30 2218 O 199.706 4.63771 -3.32073 0
M  V30 2219 O 198.64 3.50408 -4.89385 0
M  V30 2220 H 202.466 0.855025 -2.91416 0
M  V30 2221 H 200.051 0.357151 -1.45068 0
M  V30 2222 H 201.933 3.29147 -2.63135 0
M  V30 2223 H 200.608 2.86006 -1.51599 0
M  V30 2224 H 199.515 1.53019 -3.41373 0
M  V30 2225 H 200.848 2.03121 -4.48333 0
M  V30 2226 N 202.5 1.5196 0.417844 0
M  V30 2227 C 203.448 1.75278 1.52907 0
M  V30 2228 C 204.442 0.619611 1.57662 0
M  V30 2229 O 205.648 0.801457 1.61173 0
M  V30 2230 H 202.023 0.554141 0.508362 0
M  V30 2231 H 203.994 2.68389 1.30422 0
M  V30 2232 C 202.743 1.91262 2.90369 0
M  V30 2233 H 202.066 2.77872 2.8745 0
M  V30 2234 H 203.506 2.11581 3.67436 0
M  V30 2235 C 201.965 0.677431 3.30019 0
M  V30 2236 O 202.495 -0.158799 4.01386 0
M  V30 2237 N 200.701 0.515851 2.85985 0
M  V30 2238 H 200.248 1.19744 2.28077 0
M  V30 2239 H 200.206 -0.309315 3.12875 0
M  V30 2240 N 203.978 -0.674533 1.42435 0
M  V30 2241 C 204.91 -1.80005 1.41883 0
M  V30 2242 C 205.923 -1.59667 0.31787 0
M  V30 2243 O 207.112 -1.68781 0.580973 0
M  V30 2244 C 204.212 -3.17114 1.19549 0
M  V30 2245 C 203.385 -3.64299 2.42084 0
M  V30 2246 C 202.444 -4.80142 2.15291 0
M  V30 2247 O 201.47 -4.90673 2.88493 0
M  V30 2248 N 202.672 -5.68869 1.1562 0
M  V30 2249 H 205.437 -1.80964 2.38898 0
M  V30 2250 H 202.998 -0.857633 1.37318 0
M  V30 2251 H 204.99 -3.92267 0.995417 0
M  V30 2252 H 203.56 -3.11053 0.310569 0
M  V30 2253 H 202.78 -2.79822 2.77657 0
M  V30 2254 H 204.068 -3.92567 3.23679 0
M  V30 2255 H 203.466 -5.63012 0.550765 0
M  V30 2256 H 202.023 -6.43833 1.016 0
M  V30 2257 N 205.456 -1.28612 -0.910864 0
M  V30 2258 C 206.419 -1.12803 -1.9952 0
M  V30 2259 C 207.419 -0.0668264 -1.60661 0
M  V30 2260 O 208.609 -0.312847 -1.71368 0
M  V30 2261 C 205.741 -0.72254 -3.33155 0
M  V30 2262 H 206.934 -2.09109 -2.14973 0
M  V30 2263 H 204.487 -1.11639 -1.09391 0
M  V30 2264 H 205.222 0.241152 -3.23402 0
M  V30 2265 H 205.007 -1.48916 -3.62721 0
M  V30 2266 H 206.497 -0.634666 -4.12749 0
M  V30 2267 N 206.934 1.1197 -1.10907 0
M  V30 2268 C 207.864 2.19928 -0.784473 0
M  V30 2269 C 208.845 1.6833 0.244726 0
M  V30 2270 O 210.03 1.93892 0.109418 0
M  V30 2271 C 207.16 3.46597 -0.220827 0
M  V30 2272 C 206.114 4.11376 -1.18127 0
M  V30 2273 C 205.44 5.32554 -0.478594 0
M  V30 2274 C 206.74 4.56945 -2.52979 0
M  V30 2275 H 208.434 2.47337 -1.68715 0
M  V30 2276 H 205.98 1.18879 -0.812642 0
M  V30 2277 H 207.933 4.21396 0.0184278 0
M  V30 2278 H 206.657 3.1863 0.717113 0
M  V30 2279 H 205.316 3.38564 -1.40606 0
M  V30 2280 H 204.964 5.00856 0.463976 0
M  V30 2281 H 204.664 5.76844 -1.11912 0
M  V30 2282 H 206.188 6.10096 -0.248 0
M  V30 2283 H 207.602 5.23093 -2.3462 0
M  V30 2284 H 205.999 5.1203 -3.12962 0
M  V30 2285 H 207.069 3.70676 -3.12614 0
M  V30 2286 N 208.412 0.89855 1.29475 0
M  V30 2287 C 209.652 0.530771 1.97388 0
M  V30 2288 C 210.016 -0.905832 1.69289 0
M  V30 2289 O 211.217 -1.38042 2.30646 0
M  V30 2290 C 209.488 0.81369 3.48014 0
M  V30 2291 S 211.047 0.550048 4.35339 0
M  V30 2292 H 207.865 0.196956 0.683176 0
M  V30 2293 H 210.467 1.16074 1.57312 0
M  V30 2294 H 209.171 1.85749 3.65958 0
M  V30 2295 H 208.702 0.171795 3.93025 0
M  V30 2296 H 210.717 -0.605423 4.92493 0
M  V30 2297 N 209.89 -1.43072 0.660911 0
M  V30 2298 C 211.118 -2.06067 0.185422 0
M  V30 2299 C 211.533 -1.49582 -1.15198 0
M  V30 2300 O 210.89 -0.630134 -1.71276 0
M  V30 2301 C 210.941 -3.61371 0.0966523 0
M  V30 2302 O 210.662 -4.15758 1.38119 0
M  V30 2303 C 212.163 -4.41455 -0.403996 0
M  V30 2304 H 209.383 -0.664459 0.0934604 0
M  V30 2305 H 211.927 -1.83447 0.90373 0
M  V30 2306 H 210.082 -3.8315 -0.572259 0
M  V30 2307 H 210.496 -5.09499 1.24542 0
M  V30 2308 H 211.97 -5.50437 -0.415045 0
M  V30 2309 H 212.447 -4.15036 -1.43674 0
M  V30 2310 H 213.053 -4.24663 0.232691 0
M  V30 2311 N 211.368 -0.403325 -1.52352 0
M  V30 2312 C 212.617 0.175668 -2.00934 0
M  V30 2313 C 212.93 1.46718 -1.29356 0
M  V30 2314 O 214.136 2.12708 -1.68724 0
M  V30 2315 C 212.592 0.363612 -3.58058 0
M  V30 2316 C 212.2 -0.915472 -4.38547 0
M  V30 2317 C 213.944 0.89821 -4.14888 0
M  V30 2318 C 211.851 -0.695035 -5.87302 0
M  V30 2319 H 210.781 0.0694234 -0.750797 0
M  V30 2320 H 213.432 -0.527879 -1.75743 0
M  V30 2321 H 211.814 1.12935 -3.79555 0
M  V30 2322 H 212.988 -1.68691 -4.28812 0
M  V30 2323 H 211.303 -1.37606 -3.93006 0
M  V30 2324 H 213.9 1.07907 -5.23699 0
M  V30 2325 H 214.243 1.87126 -3.71873 0
M  V30 2326 H 214.776 0.191681 -3.97338 0
M  V30 2327 H 211.515 -1.63948 -6.34666 0
M  V30 2328 H 211.035 0.0372116 -5.99788 0
M  V30 2329 H 212.714 -0.33497 -6.46132 0
M  V30 2330 N 212.846 1.57033 -0.133567 0
M  V30 2331 C 214.074 2.00044 0.528195 0
M  V30 2332 C 214.489 1.01349 1.59291 0
M  V30 2333 O 213.846 0.00848369 1.82498 0
M  V30 2334 C 213.897 3.43018 1.1411 0
M  V30 2335 O 213.618 4.37939 0.11892 0
M  V30 2336 C 215.119 4.01237 1.88477 0
M  V30 2337 H 212.339 0.656517 0.138661 0
M  V30 2338 H 214.883 2.03267 -0.224196 0
M  V30 2339 H 213.038 3.40688 1.84418 0
M  V30 2340 H 213.452 5.21436 0.56613 0
M  V30 2341 H 214.926 5.03314 2.26669 0
M  V30 2342 H 215.403 3.41193 2.76558 0
M  V30 2343 H 216.009 4.07156 1.22898 0
M  V30 2344 N 214.325 -0.140222 1.56975 0
M  V30 2345 C 215.55 -0.870414 1.88251 0
M  V30 2346 C 215.975 -1.73637 0.723312 0
M  V30 2347 O 215.333 -1.78329 -0.32689 0
M  V30 2348 C 215.381 -1.69737 3.18154 0
M  V30 2349 O 214.485 -2.80229 3.02565 0
M  V30 2350 H 213.826 -0.242025 0.61832 0
M  V30 2351 H 216.356 -0.128999 2.04193 0
M  V30 2352 H 216.366 -2.09099 3.50345 0
M  V30 2353 H 215.041 -1.06152 4.02125 0
M  V30 2354 H 213.618 -2.44224 2.81796 0
M  V30 2355 N 215.803 -1.52179 -0.40978 0
M  V30 2356 C 217.05 -1.66206 -1.15679 0
M  V30 2357 C 217.378 -0.391674 -1.90516 0
M  V30 2358 O 216.633 0.62533 -1.8544 0
M  V30 2359 C 216.932 -2.83428 -2.17723 0
M  V30 2360 C 216.598 -4.21672 -1.59699 0
M  V30 2361 C 215.26 -4.59274 -1.43599 0
M  V30 2362 C 217.612 -5.07825 -1.17317 0
M  V30 2363 C 214.94 -5.80709 -0.836328 0
M  V30 2364 C 217.292 -6.29864 -0.587691 0
M  V30 2365 C 215.956 -6.66216 -0.413818 0
M  V30 2366 H 215.226 -0.608192 -0.423301 0
M  V30 2367 H 217.873 -1.86279 -0.444097 0
M  V30 2368 H 216.178 -2.57687 -2.95135 0
M  V30 2369 H 217.875 -2.91477 -2.75394 0
M  V30 2370 H 214.465 -3.9204 -1.73213 0
M  V30 2371 H 218.649 -4.79359 -1.28565 0
M  V30 2372 H 213.905 -6.07498 -0.689626 0
M  V30 2373 H 218.079 -6.95948 -0.250894 0
M  V30 2374 H 215.706 -7.60182 0.0529471 0
M  V30 2375 N 217.281 0.66697 -1.42791 0
M  V30 2376 C 218.692 1.2478 -1.38877 0
M  V30 2377 C 219.043 1.96012 -0.0859426 0
M  V30 2378 O 218.168 2.00463 0.815081 0
M  V30 2379 C 218.763 2.26938 -2.51564 0
M  V30 2380 C 217.322 2.80529 -2.50959 0
M  V30 2381 C 216.469 1.54965 -2.29959 0
M  V30 2382 H 219.42 0.459853 -1.51892 0
M  V30 2383 H 219.441 3.08834 -2.22265 0
M  V30 2384 H 218.953 1.75065 -3.46372 0
M  V30 2385 H 217.054 3.36502 -1.59991 0
M  V30 2386 H 217.167 3.29012 -3.48265 0
M  V30 2387 H 215.531 1.81817 -1.78366 0
M  V30 2388 H 216.314 1.05047 -3.26833 0
M  V30 2389 N 218.759 1.29093 0.90403 0
M  V30 2390 C 220.175 1.07011 1.1841 0
M  V30 2391 C 220.375 -0.181358 2.00682 0
M  V30 2392 O 219.431 -0.880331 2.36657 0
M  V30 2393 C 220.744 2.32311 1.90924 0
M  V30 2394 C 222.292 2.37587 2.03768 0
M  V30 2395 C 222.767 3.62679 2.79693 0
M  V30 2396 N 224.258 3.63376 2.87249 0
M  V30 2397 C 224.993 4.56848 3.46522 0
M  V30 2398 N 224.489 5.60648 4.06996 0
M  V30 2399 N 226.282 4.44426 3.44154 0
M  V30 2400 H 218.433 2.09412 0.354993 0
M  V30 2401 H 220.696 0.922181 0.219742 0
M  V30 2402 H 220.402 3.23536 1.37905 0
M  V30 2403 H 220.276 2.39483 2.91424 0
M  V30 2404 H 222.663 1.46853 2.55965 0
M  V30 2405 H 222.744 2.34403 1.02415 0
M  V30 2406 H 222.388 4.53762 2.28173 0
M  V30 2407 H 222.318 3.63119 3.81381 0
M  V30 2408 H 224.809 2.88321 2.44293 0
M  V30 2409 H 225.122 6.28101 4.50232 0
M  V30 2410 H 223.467 5.64463 4.05471 0
M  V30 2411 H 226.658 3.62529 2.96126 0
M  V30 2412 H 226.831 5.17457 3.90054 0
M  V30 2413 N 220.237 -1.11381 1.11499 0
M  V30 2414 C 221.167 -2.19509 0.796125 0
M  V30 2415 C 222.148 -1.68458 -0.235796 0
M  V30 2416 O 223.333 -1.93947 -0.0991344 0
M  V30 2417 C 220.463 -3.46475 0.239205 0
M  V30 2418 C 219.417 -4.10744 1.20307 0
M  V30 2419 C 218.743 -5.32293 0.50683 0
M  V30 2420 C 220.043 -4.55597 2.55399 0
M  V30 2421 H 221.737 -2.46439 1.70024 0
M  V30 2422 H 219.283 -1.18446 0.818935 0
M  V30 2423 H 221.236 -4.214 0.00392006 0
M  V30 2424 H 219.96 -3.19006 -0.700206 0
M  V30 2425 H 218.619 -3.37813 1.42399 0
M  V30 2426 H 218.267 -5.01095 -0.437408 0
M  V30 2427 H 217.967 -5.76243 1.1497 0
M  V30 2428 H 219.491 -6.09956 0.280351 0
M  V30 2429 H 220.905 -5.21841 2.37391 0
M  V30 2430 H 219.302 -5.10363 3.15673 0
M  V30 2431 H 220.372 -3.69013 3.14575 0
M  V30 2432 N 221.715 -0.905404 -1.28997 0
M  V30 2433 C 222.963 -0.533192 -1.9494 0
M  V30 2434 C 223.284 0.924618 -1.71685 0
M  V30 2435 O 222.554 1.65268 -1.05183 0
M  V30 2436 H 221.134 -0.194194 -0.721317 0
M  V30 2437 H 223.796 -1.15294 -1.57141 0
M  V30 2438 H 222.892 -0.72059 -3.03667 0
M  V30 2439 N 223.193 1.4272 -0.668489 0
M  V30 2440 C 224.433 2.03497 -0.19194 0
M  V30 2441 C 224.797 1.51684 1.17712 0
M  V30 2442 O 225.998 2.04205 1.74796 0
M  V30 2443 C 224.269 3.56734 -0.218032 0
M  V30 2444 S 225.828 4.38395 0.188438 0
M  V30 2445 H 222.646 0.706542 -0.0794959 0
M  V30 2446 H 225.248 1.74563 -0.880235 0
M  V30 2447 H 223.952 3.91943 -1.2169 0
M  V30 2448 H 223.483 3.90333 0.490303 0
M  V30 2449 H 225.498 4.75345 1.42345 0
M  V30 2450 N 224.671 0.411399 1.52136 0
M  V30 2451 C 226.082 -0.0576826 1.86611 0
M  V30 2452 C 226.433 -1.44238 1.33003 0
M  V30 2453 O 225.558 -2.05759 0.670228 0
M  V30 2454 C 226.153 -0.111448 3.38617 0
M  V30 2455 C 224.712 -0.52487 3.72723 0
M  V30 2456 C 223.859 0.299176 2.75681 0
M  V30 2457 H 226.81 0.628368 1.4573 0
M  V30 2458 H 226.831 -0.926252 3.69054 0
M  V30 2459 H 226.343 0.896488 3.77604 0
M  V30 2460 H 224.444 -1.53936 3.39315 0
M  V30 2461 H 224.557 -0.267681 4.78352 0
M  V30 2462 H 222.921 -0.238814 2.53578 0
M  V30 2463 H 223.704 1.3055 3.17508 0
M  V30 2464 N 226.149 -1.5696 0.141893 0
M  V30 2465 C 227.397 -1.95573 -0.509484 0
M  V30 2466 C 227.718 -1.02746 -1.65736 0
M  V30 2467 O 226.988 -0.0880311 -1.95702 0
M  V30 2468 H 225.568 -0.722115 -0.191205 0
M  V30 2469 H 228.23 -1.93697 0.216196 0
M  V30 2470 H 227.326 -2.99171 -0.889 0
M  V30 2471 N 227.627 0.131896 -1.57047 0
M  V30 2472 C 228.874 0.841932 -1.84168 0
M  V30 2473 C 229.202 1.8048 -0.725066 0
M  V30 2474 O 228.457 1.93618 0.284692 0
M  V30 2475 C 228.756 1.63703 -3.17704 0
M  V30 2476 C 228.422 0.81961 -4.43388 0
M  V30 2477 C 227.084 0.594148 -4.77518 0
M  V30 2478 C 229.436 0.248977 -5.20605 0
M  V30 2479 C 226.764 -0.212409 -5.86315 0
M  V30 2480 C 229.116 -0.544701 -6.30251 0
M  V30 2481 C 227.78 -0.780599 -6.6292 0
M  V30 2482 H 227.05 0.308085 -0.673917 0
M  V30 2483 H 229.697 0.104867 -1.91213 0
M  V30 2484 H 228.002 2.44464 -3.06177 0
M  V30 2485 H 229.699 2.19015 -3.35907 0
M  V30 2486 H 226.289 1.00542 -4.16641 0
M  V30 2487 H 230.473 0.410408 -4.946 0
M  V30 2488 H 225.729 -0.404524 -6.1006 0
M  V30 2489 H 229.903 -0.993922 -6.89271 0
M  V30 2490 H 227.53 -1.40742 -7.47058 0
M  V30 2491 N 229.106 1.52395 0.401703 0
M  V30 2492 C 230.334 1.70676 1.16949 0
M  V30 2493 C 230.749 0.419503 1.8408 0
M  V30 2494 O 230.106 -0.605061 1.72178 0
M  V30 2495 C 230.157 2.84753 2.22706 0
M  V30 2496 O 229.878 4.08495 1.58314 0
M  V30 2497 C 231.379 3.14608 3.12309 0
M  V30 2498 H 228.599 0.571787 0.351142 0
M  V30 2499 H 231.143 1.98987 0.471652 0
M  V30 2500 H 229.298 2.58941 2.88147 0
M  V30 2501 H 229.712 4.72117 2.28485 0
M  V30 2502 H 231.186 3.97923 3.82572 0
M  V30 2503 H 231.663 2.28464 3.75101 0
M  V30 2504 H 232.269 3.42212 2.52529 0
M  V30 2505 N 230.584 -0.659388 1.43143 0
M  V30 2506 C 231.514 -1.78422 1.50625 0
M  V30 2507 C 232.495 -1.66216 0.361443 0
M  V30 2508 O 233.68 -1.85404 0.577834 0
M  V30 2509 C 230.81 -3.16815 1.42287 0
M  V30 2510 C 229.764 -3.43777 2.54954 0
M  V30 2511 C 229.09 -4.81905 2.31671 0
M  V30 2512 C 230.39 -3.39134 3.97222 0
M  V30 2513 H 232.084 -1.72417 2.44771 0
M  V30 2514 H 229.63 -0.828084 1.17808 0
M  V30 2515 H 231.583 -3.95253 1.46127 0
M  V30 2516 H 230.307 -3.23534 0.446435 0
M  V30 2517 H 228.966 -2.67707 2.50457 0
M  V30 2518 H 228.614 -4.85294 1.32284 0
M  V30 2519 H 228.314 -5.00906 3.07192 0
M  V30 2520 H 229.838 -5.62609 2.37284 0
M  V30 2521 H 231.252 -4.07518 4.03239 0
M  V30 2522 H 229.649 -3.69671 4.72719 0
M  V30 2523 H 230.719 -2.37426 4.22797 0
M  V30 2524 N 232.062 -1.29571 -0.897171 0
M  V30 2525 C 233.473 -1.15964 -1.46319 0
M  V30 2526 C 233.824 0.244267 -1.94674 0
M  V30 2527 O 232.949 1.13998 -1.83939 0
M  V30 2528 C 233.544 -2.09906 -2.65942 0
M  V30 2529 C 232.103 -2.00314 -3.18671 0
M  V30 2530 C 231.25 -2.00687 -1.91363 0
M  V30 2531 H 234.201 -1.42019 -0.708268 0
M  V30 2532 H 234.222 -1.67276 -3.41759 0
M  V30 2533 H 233.734 -3.12075 -2.30718 0
M  V30 2534 H 231.835 -1.01242 -3.58582 0
M  V30 2535 H 231.948 -2.88102 -3.82798 0
M  V30 2536 H 230.312 -1.45319 -2.09175 0
M  V30 2537 H 231.095 -3.04566 -1.58413 0
M  V30 2538 N 233.54 1.10788 -1.12088 0
M  V30 2539 C 234.45 2.20599 -0.798338 0
M  V30 2540 C 235.466 1.72712 0.21135 0
M  V30 2541 O 236.642 2.01348 0.0458477 0
M  V30 2542 C 233.707 3.45771 -0.253674 0
M  V30 2543 C 232.768 4.08411 -1.32283 0
M  V30 2544 C 232.001 5.27608 -0.80406 0
M  V30 2545 O 232.224 5.69241 0.363478 0
M  V30 2546 O 231.158 5.8101 -1.57198 0
M  V30 2547 H 234.984 2.50614 -1.7154 0
M  V30 2548 H 232.569 1.19454 -0.897275 0
M  V30 2549 H 234.451 4.21376 0.0453691 0
M  V30 2550 H 233.126 3.1739 0.636005 0
M  V30 2551 H 232.033 3.34507 -1.67499 0
M  V30 2552 H 233.366 4.40986 -2.18614 0
M  V30 2553 N 235.018 0.912232 1.28515 0
M  V30 2554 C 236.264 0.545405 1.95328 0
M  V30 2555 C 236.597 -0.908313 1.71649 0
M  V30 2556 O 235.872 -1.64575 1.03659 0
M  V30 2557 C 236.155 0.853483 3.4984 0
M  V30 2558 C 236.008 2.35982 3.82926 0
M  V30 2559 C 237.327 0.348589 4.38717 0
M  V30 2560 H 234.446 0.199626 0.709449 0
M  V30 2561 H 237.088 1.1412 1.5191 0
M  V30 2562 H 235.238 0.34643 3.86952 0
M  V30 2563 H 236.91 2.93738 3.55691 0
M  V30 2564 H 235.153 2.81543 3.30024 0
M  V30 2565 H 235.824 2.52593 4.90816 0
M  V30 2566 H 238.3 0.78294 4.08668 0
M  V30 2567 H 237.176 0.593242 5.45685 0
M  V30 2568 H 237.437 -0.751049 4.35674 0
M  V30 2569 N 236.496 -1.42363 0.676048 0
M  V30 2570 C 237.443 -2.308 -0.00150904 0
M  V30 2571 C 238.413 -1.46032 -0.791444 0
M  V30 2572 O 239.598 -1.74861 -0.76344 0
M  V30 2573 C 236.738 -3.31883 -0.945919 0
M  V30 2574 C 235.851 -4.31741 -0.149675 0
M  V30 2575 C 234.986 -5.19898 -1.08995 0
M  V30 2576 C 234.025 -6.11434 -0.285465 0
M  V30 2577 N 233.162 -6.92138 -1.17851 0
M  V30 2578 H 238.002 -2.88187 0.758455 0
M  V30 2579 H 235.539 -1.41952 0.38576 0
M  V30 2580 H 237.497 -3.89019 -1.50731 0
M  V30 2581 H 236.127 -2.76093 -1.6725 0
M  V30 2582 H 235.179 -3.76713 0.528359 0
M  V30 2583 H 236.491 -4.96534 0.474866 0
M  V30 2584 H 235.645 -5.81772 -1.72123 0
M  V30 2585 H 234.384 -4.55284 -1.74837 0
M  V30 2586 H 233.389 -5.48627 0.359018 0
M  V30 2587 H 234.614 -6.78097 0.368883 0
M  V30 2588 H 232.56 -6.30152 -1.82332 0
M  V30 2589 H 232.477 -7.53542 -0.609082 0
M  V30 2590 H 233.745 -7.58499 -1.79722 0
M  V30 2591 N 237.974 -0.419461 -1.51915 0
M  V30 2592 C 239.385 0.0477853 -1.86639 0
M  V30 2593 C 239.736 1.43531 -1.33766 0
M  V30 2594 O 238.861 2.05401 -0.68113 0
M  V30 2595 C 239.456 0.0934885 -3.38671 0
M  V30 2596 C 238.015 0.505097 -3.72996 0
M  V30 2597 C 237.162 -0.313792 -2.75519 0
M  V30 2598 H 240.113 -0.636088 -1.45395 0
M  V30 2599 H 240.134 0.906667 -3.6954 0
M  V30 2600 H 239.646 -0.916501 -3.77123 0
M  V30 2601 H 237.747 1.52135 -3.40126 0
M  V30 2602 H 237.86 0.242309 -4.78487 0
M  V30 2603 H 236.224 0.225363 -2.53701 0
M  V30 2604 H 237.007 -1.32232 -3.16812 0
M  V30 2605 N 239.452 1.56882 -0.150215 0
M  V30 2606 C 240.4 2.18214 0.805313 0
M  V30 2607 C 241.394 1.14006 1.25296 0
M  V30 2608 O 242.6 1.3225 1.22107 0
M  V30 2609 H 238.975 0.698762 0.277913 0
M  V30 2610 H 240.946 2.97231 0.263862 0
M  V30 2611 C 239.695 2.82065 2.03309 0
M  V30 2612 H 239.018 3.61968 1.69763 0
M  V30 2613 H 240.458 3.28477 2.68103 0
M  V30 2614 C 238.917 1.80739 2.84315 0
M  V30 2615 O 239.447 1.27983 3.80767 0
M  V30 2616 N 237.653 1.4997 2.48913 0
M  V30 2617 H 237.2 1.93062 1.70542 0
M  V30 2618 H 237.158 0.824217 3.03404 0
M  V30 2619 N 240.93 -0.123565 1.57115 0
M  V30 2620 C 242.341 -0.681198 1.73829 0
M  V30 2621 C 242.692 -1.80535 0.768214 0
M  V30 2622 O 241.817 -2.16317 -0.0599103 0
M  V30 2623 C 242.412 -1.24246 3.15196 0
M  V30 2624 C 240.971 -1.74643 3.33432 0
M  V30 2625 C 240.118 -0.644284 2.69711 0
M  V30 2626 H 243.069 0.102315 1.5837 0
M  V30 2627 H 243.09 -2.11216 3.16493 0
M  V30 2628 H 242.602 -0.424062 3.85776 0
M  V30 2629 H 240.703 -2.58974 2.67886 0
M  V30 2630 H 240.816 -1.85902 4.41562 0
M  V30 2631 H 239.18 -1.07676 2.3082 0
M  V30 2632 H 239.963 0.163058 3.42913 0
M  V30 2633 N 242.408 -1.52605 -0.393616 0
M  V30 2634 C 243.654 -1.67672 -1.14079 0
M  V30 2635 C 243.987 -0.413121 -1.89755 0
M  V30 2636 O 243.262 0.588952 -1.85369 0
M  V30 2637 C 243.545 -2.9088 -2.12276 0
M  V30 2638 C 243.398 -4.27329 -1.40394 0
M  V30 2639 C 244.717 -3.09628 -3.12759 0
M  V30 2640 H 241.836 -0.610168 -0.413356 0
M  V30 2641 H 244.478 -1.85193 -0.424696 0
M  V30 2642 H 242.628 -2.76073 -2.73342 0
M  V30 2643 H 244.3 -4.53894 -0.82327 0
M  V30 2644 H 242.543 -4.2802 -0.705801 0
M  V30 2645 H 243.214 -5.09615 -2.12123 0
M  V30 2646 H 245.69 -3.23436 -2.61779 0
M  V30 2647 H 244.566 -3.97322 -3.78717 0
M  V30 2648 H 244.827 -2.23637 -3.81365 0
M  V30 2649 N 243.887 0.651787 -1.4349 0
M  V30 2650 C 244.797 1.79368 -1.5121 0
M  V30 2651 C 245.813 1.69361 -0.399093 0
M  V30 2652 O 246.989 1.90505 -0.653431 0
M  V30 2653 C 244.054 3.15653 -1.43401 0
M  V30 2654 C 243.115 3.37446 -2.65384 0
M  V30 2655 C 242.348 4.67229 -2.57939 0
M  V30 2656 O 242.571 5.46676 -1.62792 0
M  V30 2657 O 241.505 4.90773 -3.48462 0
M  V30 2658 H 245.331 1.7581 -2.47638 0
M  V30 2659 H 242.916 0.810447 -1.25507 0
M  V30 2660 H 244.798 3.96935 -1.41494 0
M  V30 2661 H 243.473 3.19798 -0.501085 0
M  V30 2662 H 242.38 2.55923 -2.72863 0
M  V30 2663 H 243.713 3.38148 -3.57654 0
M  V30 2664 N 245.365 1.30045 0.890287 0
M  V30 2665 C 246.613 1.18327 1.63839 0
M  V30 2666 C 246.934 -0.263455 1.93212 0
M  V30 2667 O 246.204 -1.17856 1.56482 0
M  V30 2668 H 244.784 0.434933 0.607324 0
M  V30 2669 H 247.446 1.631 1.06698 0
M  V30 2670 H 246.542 1.74024 2.59079 0
M  V30 2671 N 246.843 -1.10192 1.12674 0
M  V30 2672 C 248.091 -1.81845 0.881861 0
M  V30 2673 C 248.412 -1.85737 -0.593867 0
M  V30 2674 O 247.682 -1.33724 -1.4316 0
M  V30 2675 H 246.262 -0.673432 0.323261 0
M  V30 2676 H 248.924 -1.33316 1.42172 0
M  V30 2677 H 248.02 -2.85288 1.2656 0
M  V30 2678 N 248.321 -0.919034 -1.28029 0
M  V30 2679 C 249.284 -0.416182 -2.2539 0
M  V30 2680 C 250.284 0.460438 -1.54067 0
M  V30 2681 O 251.474 0.262744 -1.72207 0
M  V30 2682 C 248.606 0.402707 -3.38513 0
M  V30 2683 H 249.799 -1.27629 -2.71387 0
M  V30 2684 H 247.352 -0.698919 -1.39803 0
M  V30 2685 H 248.087 1.282 -2.97885 0
M  V30 2686 H 247.872 -0.225698 -3.9145 0
M  V30 2687 H 249.362 0.745191 -4.10897 0
M  V30 2688 N 249.799 1.42003 -0.683588 0
M  V30 2689 C 251.024 2.06265 -0.216647 0
M  V30 2690 C 251.449 1.51059 1.12083 0
M  V30 2691 O 250.807 0.632638 1.69904 0
M  V30 2692 C 250.855 3.60191 -0.171759 0
M  V30 2693 O 249.959 4.03396 0.857069 0
M  V30 2694 H 249.3 0.65502 -0.108834 0
M  V30 2695 H 251.83 1.81982 -0.935077 0
M  V30 2696 H 251.84 4.08 0.0014303 0
M  V30 2697 H 250.515 3.99743 -1.14796 0
M  V30 2698 H 249.092 3.67117 0.654208 0
M  V30 2699 N 251.277 0.427512 1.51691 0
M  V30 2700 C 252.224 -0.388867 2.275 0
M  V30 2701 C 253.194 -1.02532 1.30677 0
M  V30 2702 O 254.379 -1.0461 1.59566 0
M  V30 2703 C 251.519 -1.48954 3.11298 0
M  V30 2704 C 250.632 -0.872194 4.23104 0
M  V30 2705 C 249.767 -1.94709 4.94228 0
M  V30 2706 C 248.806 -1.30766 5.97969 0
M  V30 2707 N 247.943 -2.32349 6.62539 0
M  V30 2708 H 252.783 0.263997 2.96828 0
M  V30 2709 H 250.32 0.142033 1.46413 0
M  V30 2710 H 252.278 -2.13887 3.58201 0
M  V30 2711 H 250.908 -2.11217 2.44105 0
M  V30 2712 H 249.96 -0.111419 3.80237 0
M  V30 2713 H 251.272 -0.365264 4.97461 0
M  V30 2714 H 250.426 -2.67327 5.44629 0
M  V30 2715 H 249.165 -2.48773 4.1948 0
M  V30 2716 H 248.17 -0.566902 5.4687 0
M  V30 2717 H 249.395 -0.774483 6.74669 0
M  V30 2718 H 247.341 -2.85511 5.90609 0
M  V30 2719 H 247.258 -1.8652 7.3263 0
M  V30 2720 H 248.526 -3.04481 7.17574 0
M  V30 2721 N 252.755 -1.56801 0.158532 0
M  V30 2722 C 253.98 -2.01295 -0.499516 0
M  V30 2723 C 254.405 -1.03799 -1.56867 0
M  V30 2724 O 253.763 -0.0155162 -1.81293 0
M  V30 2725 C 253.811 -3.44469 -1.06647 0
M  V30 2726 O 252.915 -3.50012 -2.18095 0
M  V30 2727 H 252.256 -0.652884 -0.12099 0
M  V30 2728 H 254.786 -2.02958 0.258661 0
M  V30 2729 H 254.796 -3.8351 -1.39227 0
M  V30 2730 H 253.471 -4.14932 -0.283581 0
M  V30 2731 H 252.048 -3.22822 -1.86656 0
M  V30 2732 N 254.233 0.115231 -1.57178 0
M  V30 2733 C 255.163 1.1423 -2.03651 0
M  V30 2734 C 256.144 1.42967 -0.921655 0
M  V30 2735 O 257.329 1.53343 -1.19162 0
M  V30 2736 C 254.459 2.4675 -2.44401 0
M  V30 2737 C 253.413 2.32467 -3.59365 0
M  V30 2738 C 252.739 3.69984 -3.86026 0
M  V30 2739 C 254.039 1.78203 -4.90959 0
M  V30 2740 H 255.733 0.755749 -2.89705 0
M  V30 2741 H 253.279 0.362093 -1.39373 0
M  V30 2742 H 255.232 3.18854 -2.75517 0
M  V30 2743 H 253.956 2.87302 -1.55322 0
M  V30 2744 H 252.615 1.62811 -3.28463 0
M  V30 2745 H 252.263 4.08028 -2.94147 0
M  V30 2746 H 251.963 3.61279 -4.63412 0
M  V30 2747 H 253.487 4.43587 -4.19599 0
M  V30 2748 H 254.901 2.40128 -5.20587 0
M  V30 2749 H 253.298 1.8031 -5.72371 0
M  V30 2750 H 254.368 0.739876 -4.79222 0
M  V30 2751 N 255.711 1.52812 0.385517 0
M  V30 2752 C 256.958 1.68026 1.1302 0
M  V30 2753 C 257.286 0.421934 1.89868 0
M  V30 2754 O 256.541 -0.595749 1.86412 0
M  V30 2755 C 256.84 2.86856 2.13187 0
M  V30 2756 C 256.506 4.24159 1.5297 0
M  V30 2757 C 255.168 4.61501 1.36274 0
M  V30 2758 C 257.52 5.09627 1.09223 0
M  V30 2759 C 254.848 5.81966 0.743837 0
M  V30 2760 C 257.2 6.30719 0.487411 0
M  V30 2761 C 255.864 6.6679 0.307777 0
M  V30 2762 H 255.134 0.614849 0.413571 0
M  V30 2763 H 257.781 1.86962 0.414405 0
M  V30 2764 H 256.086 2.6235 2.90998 0
M  V30 2765 H 257.783 2.95821 2.70722 0
M  V30 2766 H 254.373 3.94746 1.66954 0
M  V30 2767 H 258.557 4.81343 1.20922 0
M  V30 2768 H 253.813 6.08519 0.592891 0
M  V30 2769 H 257.987 6.96259 0.140143 0
M  V30 2770 H 255.614 7.60001 -0.173879 0
M  V30 2771 N 257.189 -0.644168 1.43834 0
M  V30 2772 C 258.436 -1.40395 1.4593 0
M  V30 2773 C 258.764 -1.94305 0.0869658 0
M  V30 2774 O 258.019 -1.73288 -0.909378 0
M  V30 2775 C 258.318 -2.59615 2.45631 0
M  V30 2776 C 257.984 -2.2407 3.91284 0
M  V30 2777 C 256.646 -2.14089 4.30952 0
M  V30 2778 C 258.998 -1.95775 4.83034 0
M  V30 2779 C 256.326 -1.73981 5.6031 0
M  V30 2780 C 258.678 -1.57163 6.12766 0
M  V30 2781 C 257.342 -1.45713 6.51402 0
M  V30 2782 H 256.612 -0.513741 0.533995 0
M  V30 2783 H 259.259 -0.731724 1.76969 0
M  V30 2784 H 257.564 -3.32011 2.08028 0
M  V30 2785 H 259.261 -3.17834 2.44504 0
M  V30 2786 H 255.851 -2.32753 3.59895 0
M  V30 2787 H 260.035 -2.02403 4.53152 0
M  V30 2788 H 255.291 -1.63709 5.89075 0
M  V30 2789 H 259.465 -1.34303 6.83327 0
M  V30 2790 H 257.092 -1.14406 7.51542 0
M  V30 2791 N 258.668 -1.30515 -0.883378 0
M  V30 2792 C 260.079 -1.17509 -1.45081 0
M  V30 2793 C 260.43 0.223605 -1.94922 0
M  V30 2794 O 259.555 1.12041 -1.85137 0
M  V30 2795 C 260.15 -2.12715 -2.63701 0
M  V30 2796 C 258.709 -2.03682 -3.16529 0
M  V30 2797 C 257.856 -2.02706 -1.89224 0
M  V30 2798 H 260.807 -1.42762 -0.693165 0
M  V30 2799 H 260.828 -1.70891 -3.39965 0
M  V30 2800 H 260.34 -3.14505 -2.27395 0
M  V30 2801 H 258.441 -1.05039 -3.57488 0
M  V30 2802 H 258.554 -2.92146 -3.7972 0
M  V30 2803 H 256.918 -1.4753 -2.07622 0
M  V30 2804 H 257.701 -3.06229 -1.55174 0
M  V30 2805 N 260.146 1.09593 -1.13257 0
M  V30 2806 C 261.423 1.78293 -0.804432 0
M  V30 2807 C 261.803 1.99004 0.70431 0
M  V30 2808 O 261.151 1.59007 1.641 0
M  V30 2809 C 261.361 3.10707 -1.5894 0
M  V30 2810 C 262.709 3.85443 -1.78099 0
M  V30 2811 O 263.733 3.20454 -1.55525 0
M  V30 2812 O 262.592 5.02108 -2.15753 0
M  V30 2813 H 259.686 0.773156 -0.293528 0
M  V30 2814 H 262.232 1.16164 -1.23709 0
M  V30 2815 H 261.004 2.91106 -2.61482 0
M  V30 2816 H 260.627 3.80558 -1.15157 0
M  V30 2817 N 261.624 0.925811 1.2754 0
M  V30 2818 C 262.534 0.428993 2.30644 0
M  V30 2819 C 263.55 -0.489387 1.66976 0
M  V30 2820 O 264.726 -0.372653 1.97922 0
M  V30 2821 C 261.791 -0.311967 3.45294 0
M  V30 2822 C 260.852 0.641098 4.24486 0
M  V30 2823 C 260.085 -0.0645955 5.33661 0
M  V30 2824 O 260.308 -1.28429 5.55754 0
M  V30 2825 O 259.242 0.606265 5.98839 0
M  V30 2826 H 263.068 1.28504 2.75173 0
M  V30 2827 H 260.653 0.691086 1.32455 0
M  V30 2828 H 262.535 -0.729972 4.15029 0
M  V30 2829 H 261.21 -1.14365 3.02824 0
M  V30 2830 H 260.117 1.10874 3.57292 0
M  V30 2831 H 261.45 1.43995 4.70666 0
M  V30 2832 N 263.102 -1.41638 0.69111 0
M  V30 2833 C 264.065 -2.29178 0.0319786 0
M  V30 2834 C 265.065 -1.44153 -0.712496 0
M  V30 2835 O 266.255 -1.65354 -0.548053 0
M  V30 2836 C 263.387 -3.26952 -0.965161 0
M  V30 2837 H 264.58 -2.88959 0.802681 0
M  V30 2838 H 262.133 -1.4955 0.454356 0
M  V30 2839 H 262.868 -2.72142 -1.76378 0
M  V30 2840 H 262.653 -3.89685 -0.434522 0
M  V30 2841 H 264.143 -3.92561 -1.42428 0
M  V30 2842 N 264.58 -0.43555 -1.51462 0
M  V30 2843 C 265.829 0.133007 -2.01261 0
M  V30 2844 C 266.142 1.43942 -1.32439 0
M  V30 2845 O 267.348 2.09081 -1.73198 0
M  V30 2846 C 265.804 0.287581 -3.58749 0
M  V30 2847 C 265.412 -1.00829 -4.36506 0
M  V30 2848 C 267.156 0.810004 -4.167 0
M  V30 2849 C 265.063 -0.819454 -5.85695 0
M  V30 2850 H 263.993 0.0534822 -0.752101 0
M  V30 2851 H 266.644 -0.565038 -1.74584 0
M  V30 2852 H 265.026 1.04859 -3.81865 0
M  V30 2853 H 266.2 -1.77749 -4.25138 0
M  V30 2854 H 264.515 -1.45911 -3.89999 0
M  V30 2855 H 267.112 0.967743 -5.2587 0
M  V30 2856 H 267.455 1.79196 -3.75758 0
M  V30 2857 H 267.988 0.107357 -3.97655 0
M  V30 2858 H 264.727 -1.77374 -6.31046 0
M  V30 2859 H 264.247 -0.0900208 -5.99732 0
M  V30 2860 H 265.926 -0.471949 -6.45276 0
M  V30 2861 N 266.058 1.56714 -0.166846 0
M  V30 2862 C 267.006 2.19056 0.782123 0
M  V30 2863 C 268 1.15328 1.24079 0
M  V30 2864 O 269.206 1.33537 1.20697 0
M  V30 2865 H 265.581 0.70167 0.270486 0
M  V30 2866 H 267.552 2.97494 0.232322 0
M  V30 2867 C 266.301 2.84206 2.00306 0
M  V30 2868 H 265.624 3.63748 1.65914 0
M  V30 2869 H 267.064 3.31302 2.64604 0
M  V30 2870 C 265.523 1.83744 2.82382 0
M  V30 2871 O 266.053 1.32014 3.79388 0
M  V30 2872 N 264.259 1.52601 2.47308 0
M  V30 2873 H 263.806 1.9486 1.68485 0
M  V30 2874 H 263.764 0.856351 3.02513 0
M  V30 2875 N 267.536 -0.106894 1.57237 0
M  V30 2876 C 268.483 -1.13049 2.01217 0
M  V30 2877 C 269.453 -1.40471 0.886403 0
M  V30 2878 O 270.638 -1.52133 1.15153 0
M  V30 2879 C 267.778 -2.4487 2.43172 0
M  V30 2880 C 266.891 -2.24281 3.69218 0
M  V30 2881 C 266.026 -3.49417 4.00101 0
M  V30 2882 C 265.065 -3.24038 5.19294 0
M  V30 2883 N 264.202 -4.41409 5.45988 0
M  V30 2884 H 269.042 -0.748456 2.88448 0
M  V30 2885 H 266.579 -0.358054 1.42676 0
M  V30 2886 H 268.537 -3.21786 2.65537 0
M  V30 2887 H 267.167 -2.80944 1.58967 0
M  V30 2888 H 266.219 -1.38224 3.54398 0
M  V30 2889 H 267.531 -2.01512 4.56283 0
M  V30 2890 H 266.685 -4.34746 4.2318 0
M  V30 2891 H 265.424 -3.75229 3.11535 0
M  V30 2892 H 264.429 -2.37102 4.96047 0
M  V30 2893 H 265.654 -2.99584 6.09447 0
M  V30 2894 H 263.6 -4.67319 4.60379 0
M  V30 2895 H 263.517 -4.21788 6.274 0
M  V30 2896 H 264.785 -5.27836 5.73593 0
M  V30 2897 N 269.014 -1.53014 -0.377408 0
M  V30 2898 C 269.964 -1.74996 -1.46152 0
M  V30 2899 C 270.948 -0.604236 -1.49123 0
M  V30 2900 O 272.14 -0.862489 -1.54564 0
M  V30 2901 C 269.269 -1.93267 -2.8373 0
M  V30 2902 C 268.355 -3.13807 -2.85283 0
M  V30 2903 N 268.746 -4.35941 -2.56493 0
M  V30 2904 C 267.044 -3.14288 -3.16448 0
M  V30 2905 C 267.745 -5.17615 -2.65424 0
M  V30 2906 N 266.721 -4.53559 -2.99641 0
M  V30 2907 H 270.523 -2.67044 -1.22738 0
M  V30 2908 H 268.037 -1.51479 -0.585479 0
M  V30 2909 H 270.034 -2.0714 -3.61799 0
M  V30 2910 H 268.694 -1.0244 -3.08117 0
M  V30 2911 H 269.705 -4.63876 -2.30302 0
M  V30 2912 H 266.382 -2.33312 -3.46225 0
M  V30 2913 H 267.772 -6.25006 -2.46612 0
M  V30 2914 N 270.492 0.636531 -1.44174 0
M  V30 2915 C 271.903 1.21806 -1.41493 0
M  V30 2916 C 272.254 1.95785 -0.1275 0
M  V30 2917 O 271.379 2.02147 0.772376 0
M  V30 2918 C 271.974 2.21551 -2.56321 0
M  V30 2919 C 270.533 2.75143 -2.56853 0
M  V30 2920 C 269.68 1.50052 -2.33195 0
M  V30 2921 H 272.631 0.427531 -1.52833 0
M  V30 2922 H 272.652 3.0405 -2.28765 0
M  V30 2923 H 272.164 1.67679 -3.50008 0
M  V30 2924 H 270.265 3.33033 -1.67093 0
M  V30 2925 H 270.378 3.2155 -3.55165 0
M  V30 2926 H 268.742 1.77993 -1.82183 0
M  V30 2927 H 269.525 0.980903 -3.28988 0
M  V30 2928 N 271.97 1.30982 0.876444 0
M  V30 2929 C 273.386 1.09498 1.16113 0
M  V30 2930 C 273.586 -0.13875 2.01022 0
M  V30 2931 O 272.642 -0.829935 2.38471 0
M  V30 2932 C 273.955 2.36308 1.85954 0
M  V30 2933 C 275.503 2.41856 1.98683 0
M  V30 2934 C 275.978 3.6853 2.71937 0
M  V30 2935 N 277.469 3.69387 2.79477 0
M  V30 2936 C 278.204 4.64096 3.36753 0
M  V30 2937 N 277.7 5.69155 3.95012 0
M  V30 2938 N 279.493 4.51626 3.3465 0
M  V30 2939 H 271.644 2.10118 0.310494 0
M  V30 2940 H 273.907 0.926634 0.200131 0
M  V30 2941 H 273.613 3.26388 1.31011 0
M  V30 2942 H 273.487 2.4561 2.86278 0
M  V30 2943 H 275.874 1.52249 2.52793 0
M  V30 2944 H 275.955 2.36523 0.9742 0
M  V30 2945 H 275.599 4.58499 2.18496 0
M  V30 2946 H 275.529 3.71127 3.73593 0
M  V30 2947 H 278.02 2.93438 2.38123 0
M  V30 2948 H 278.333 6.3751 4.36808 0
M  V30 2949 H 276.678 5.72937 3.93406 0
M  V30 2950 H 279.869 3.68728 2.8837 0
M  V30 2951 H 280.042 5.25614 3.7899 0
M  V30 2952 N 273.449 -1.08991 1.13837 0
M  V30 2953 C 274.696 -1.81258 0.902882 0
M  V30 2954 C 275.024 -1.85936 -0.570803 0
M  V30 2955 O 274.279 -1.3267 -1.43865 0
M  V30 2956 C 274.578 -3.27042 1.44147 0
M  V30 2957 C 274.244 -3.4249 2.93276 0
M  V30 2958 C 272.906 -3.46414 3.33992 0
M  V30 2959 C 275.258 -3.4666 3.892 0
M  V30 2960 C 272.586 -3.52091 4.69307 0
M  V30 2961 C 274.938 -3.53872 5.24364 0
M  V30 2962 C 273.602 -3.56066 5.646 0
M  V30 2963 H 272.872 -0.663268 0.330388 0
M  V30 2964 H 275.519 -1.28368 1.42105 0
M  V30 2965 H 273.824 -3.82599 0.844097 0
M  V30 2966 H 275.521 -3.81499 1.23528 0
M  V30 2967 H 272.111 -3.40124 2.60794 0
M  V30 2968 H 276.295 -3.42865 3.58828 0
M  V30 2969 H 271.551 -3.52079 4.9985 0
M  V30 2970 H 275.725 -3.56043 5.98503 0
M  V30 2971 H 273.352 -3.60218 6.69438 0
M  V30 2972 N 274.927 -0.932562 -1.27047 0
M  V30 2973 C 276.152 -0.591474 -1.98787 0
M  V30 2974 C 276.577 0.824601 -1.69062 0
M  V30 2975 O 275.935 1.5541 -0.933677 0
M  V30 2976 C 275.983 -0.829808 -3.50922 0
M  V30 2977 O 275.087 0.102266 -4.12273 0
M  V30 2978 H 274.428 -0.227185 -0.623926 0
M  V30 2979 H 276.958 -1.25314 -1.61733 0
M  V30 2980 H 276.968 -0.747292 -4.01098 0
M  V30 2981 H 275.643 -1.86201 -3.7189 0
M  V30 2982 H 274.22 -0.0305761 -3.72887 0
M  V30 2983 N 276.405 1.4127 -0.698611 0
M  V30 2984 C 277.633 2.05503 -0.239992 0
M  V30 2985 C 278.048 1.52584 1.11191 0
M  V30 2986 O 277.405 0.675323 1.69545 0
M  V30 2987 C 277.456 3.60987 -0.192429 0
M  V30 2988 O 277.177 4.1195 -1.49094 0
M  V30 2989 C 278.678 4.42371 0.28681 0
M  V30 2990 H 275.898 0.661748 -0.111045 0
M  V30 2991 H 278.442 1.80987 -0.95205 0
M  V30 2992 H 276.597 3.84533 0.470472 0
M  V30 2993 H 277.011 5.06018 -1.38007 0
M  V30 2994 H 278.485 5.51344 0.26896 0
M  V30 2995 H 278.962 4.18699 1.32619 0
M  V30 2996 H 279.568 4.23897 -0.345201 0
M  V30 2997 N 277.883 0.443576 1.51229 0
M  V30 2998 C 278.813 -0.355142 2.30783 0
M  V30 2999 C 279.794 -1.0154 1.36468 0
M  V30 3000 O 280.979 -1.01785 1.65389 0
M  V30 3001 C 278.109 -1.45312 3.15439 0
M  V30 3002 C 277.063 -0.916002 4.18083 0
M  V30 3003 C 276.389 -2.1102 4.91299 0
M  V30 3004 C 277.689 0.0538602 5.22272 0
M  V30 3005 H 279.383 0.308767 2.97804 0
M  V30 3006 H 276.929 0.149937 1.43217 0
M  V30 3007 H 278.882 -2.01914 3.69876 0
M  V30 3008 H 277.606 -2.14541 2.46252 0
M  V30 3009 H 276.265 -0.372145 3.64706 0
M  V30 3010 H 275.913 -2.78882 4.18609 0
M  V30 3011 H 275.613 -1.75717 5.60712 0
M  V30 3012 H 277.137 -2.68164 5.48562 0
M  V30 3013 H 278.551 -0.422069 5.71744 0
M  V30 3014 H 276.948 0.319776 5.99247 0
M  V30 3015 H 278.018 0.98858 4.74716 0
M  V30 3016 N 279.361 -1.56624 0.175154 0
M  V30 3017 C 280.589 -2.01374 -0.474971 0
M  V30 3018 C 281.004 -1.05537 -1.56548 0
M  V30 3019 O 280.361 -0.0568668 -1.82411 0
M  V30 3020 C 280.412 -3.45923 -1.04975 0
M  V30 3021 O 280.133 -4.381 -0.00276605 0
M  V30 3022 C 281.634 -4.06093 -1.77773 0
M  V30 3023 H 278.854 -0.659962 -0.121206 0
M  V30 3024 H 281.398 -2.02601 0.27801 0
M  V30 3025 H 279.553 -3.45458 -1.75321 0
M  V30 3026 H 279.967 -5.22753 -0.427681 0
M  V30 3027 H 281.441 -5.09147 -2.13245 0
M  V30 3028 H 281.918 -3.48405 -2.67414 0
M  V30 3029 H 282.524 -4.10272 -1.12059 0
M  V30 3030 N 280.839 0.0985539 -1.57292 0
M  V30 3031 C 282.255 0.45267 -1.53046 0
M  V30 3032 C 282.455 1.80713 -0.891342 0
M  V30 3033 O 281.511 2.4785 -0.482375 0
M  V30 3034 C 282.824 0.418341 -2.97776 0
M  V30 3035 C 284.372 0.500443 -3.08973 0
M  V30 3036 C 284.847 0.496297 -4.55303 0
M  V30 3037 N 286.338 0.557151 -4.59837 0
M  V30 3038 C 287.073 0.575726 -5.70502 0
M  V30 3039 N 286.569 0.550714 -6.90608 0
M  V30 3040 N 288.362 0.620277 -5.58667 0
M  V30 3041 H 280.513 -0.788673 -1.97215 0
M  V30 3042 H 282.776 -0.293188 -0.901524 0
M  V30 3043 H 282.482 -0.509659 -3.47988 0
M  V30 3044 H 282.356 1.2386 -3.56284 0
M  V30 3045 H 284.743 1.41886 -2.58751 0
M  V30 3046 H 284.824 -0.347894 -2.53423 0
M  V30 3047 H 284.468 -0.418162 -5.06176 0
M  V30 3048 H 284.398 1.3618 -5.08687 0
M  V30 3049 H 286.889 0.581816 -3.73394 0
M  V30 3050 H 287.202 0.568075 -7.70709 0
M  V30 3051 H 285.547 0.517816 -6.93068 0
M  V30 3052 H 288.738 0.637322 -4.63741 0
M  V30 3053 H 288.911 0.631283 -6.44918 0
M  V30 3054 N 282.317 1.53212 0.369288 0
M  V30 3055 C 283.265 1.80054 1.47253 0
M  V30 3056 C 284.259 0.669456 1.55611 0
M  V30 3057 O 285.465 0.852328 1.58541 0
M  V30 3058 H 281.84 0.570034 0.490475 0
M  V30 3059 H 283.811 2.72403 1.21817 0
M  V30 3060 C 282.56 2.00403 2.84137 0
M  V30 3061 H 281.883 2.86876 2.78464 0
M  V30 3062 H 283.323 2.23164 3.60519 0
M  V30 3063 C 281.782 0.782081 3.27697 0
M  V30 3064 O 282.312 -0.0310205 4.01688 0
M  V30 3065 N 280.518 0.606573 2.84199 0
M  V30 3066 H 280.065 1.26939 2.24152 0
M  V30 3067 H 280.023 -0.20962 3.137 0
M  V30 3068 N 283.795 -0.628877 1.44509 0
M  V30 3069 C 285.044 -1.38437 1.4669 0
M  V30 3070 C 285.357 -1.95322 0.104272 0
M  V30 3071 O 286.563 -2.715 0.00362163 0
M  V30 3072 C 285.019 -2.50659 2.5826 0
M  V30 3073 C 284.627 -2.00277 4.0074 0
M  V30 3074 C 286.371 -3.27844 2.69664 0
M  V30 3075 C 284.278 -3.09854 5.0373 0
M  V30 3076 H 283.208 -0.520245 0.545766 0
M  V30 3077 H 285.859 -0.676313 1.70582 0
M  V30 3078 H 284.241 -3.2405 2.27612 0
M  V30 3079 H 285.415 -1.33736 4.40966 0
M  V30 3080 H 283.73 -1.35901 3.93599 0
M  V30 3081 H 286.327 -4.09534 3.43781 0
M  V30 3082 H 286.67 -3.77471 1.75559 0
M  V30 3083 H 287.203 -2.61543 2.99733 0
M  V30 3084 H 283.942 -2.65168 5.99472 0
M  V30 3085 H 283.462 -3.7503 4.68095 0
M  V30 3086 H 285.141 -3.74592 5.27532 0
M  V30 3087 N 285.273 -1.31445 -0.869486 0
M  V30 3088 C 286.689 -1.10113 -1.15531 0
M  V30 3089 C 286.889 0.128087 -2.01092 0
M  V30 3090 O 285.945 0.817276 -2.38908 0
M  V30 3091 C 287.258 -2.37291 -1.84698 0
M  V30 3092 C 288.806 -2.42906 -1.97397 0
M  V30 3093 C 289.281 -3.69967 -2.69979 0
M  V30 3094 N 290.772 -3.70864 -2.77514 0
M  V30 3095 C 291.507 -4.65875 -3.34287 0
M  V30 3096 N 291.003 -5.71242 -3.91988 0
M  V30 3097 N 292.796 -4.53394 -3.3225 0
M  V30 3098 H 284.947 -2.1028 -0.299347 0
M  V30 3099 H 287.21 -0.927683 -0.195214 0
M  V30 3100 H 286.916 -3.27078 -1.29278 0
M  V30 3101 H 286.79 -2.47125 -2.84972 0
M  V30 3102 H 289.177 -1.53588 -2.51982 0
M  V30 3103 H 289.258 -2.37036 -0.961643 0
M  V30 3104 H 288.902 -4.59652 -2.16062 0
M  V30 3105 H 288.832 -3.73103 -3.7162 0
M  V30 3106 H 291.323 -2.94697 -2.36563 0
M  V30 3107 H 291.636 -6.39817 -4.33421 0
M  V30 3108 H 289.981 -5.75015 -3.90362 0
M  V30 3109 H 293.172 -3.70252 -2.8641 0
M  V30 3110 H 293.345 -5.27617 -3.76197 0
M  V30 3111 N 286.751 1.08385 -1.14413 0
M  V30 3112 C 287.701 2.13509 -0.79987 0
M  V30 3113 C 288.685 1.5951 0.211059 0
M  V30 3114 O 289.877 1.76995 0.0133694 0
M  V30 3115 C 287.006 3.42162 -0.279297 0
M  V30 3116 C 286.092 4.03042 -1.31976 0
M  V30 3117 N 286.483 4.38327 -2.52395 0
M  V30 3118 C 284.781 4.30379 -1.17004 0
M  V30 3119 C 285.482 4.86428 -3.19003 0
M  V30 3120 N 284.458 4.84547 -2.46405 0
M  V30 3121 H 288.26 2.38609 -1.7159 0
M  V30 3122 H 285.774 1.2572 -1.02802 0
M  V30 3123 H 287.771 4.16898 -0.0143688 0
M  V30 3124 H 286.431 3.18511 0.630923 0
M  V30 3125 H 287.442 4.29349 -2.89621 0
M  V30 3126 H 284.119 4.16281 -0.318854 0
M  V30 3127 H 285.509 5.23107 -4.21674 0
M  V30 3128 N 288.23 0.939286 1.26551 0
M  V30 3129 C 289.646 0.641304 1.46149 0
M  V30 3130 C 289.846 -0.805964 1.84679 0
M  V30 3131 O 288.902 -1.58278 1.96734 0
M  V30 3132 C 290.215 1.6011 2.54529 0
M  V30 3133 C 291.763 1.6106 2.68382 0
M  V30 3134 C 292.238 2.55765 3.79932 0
M  V30 3135 N 293.729 2.5404 3.87322 0
M  V30 3136 C 294.464 3.24004 4.73085 0
M  V30 3137 N 293.96 4.03388 5.63249 0
M  V30 3138 N 295.753 3.12965 4.66914 0
M  V30 3139 H 287.904 1.87478 0.998285 0
M  V30 3140 H 290.167 0.805559 0.499779 0
M  V30 3141 H 289.873 2.63412 2.33039 0
M  V30 3142 H 289.747 1.35171 3.52149 0
M  V30 3143 H 292.134 0.584835 2.89247 0
M  V30 3144 H 292.215 1.90053 1.71212 0
M  V30 3145 H 291.859 3.58458 3.5982 0
M  V30 3146 H 291.789 2.24063 4.76554 0
M  V30 3147 H 294.28 1.96396 3.22858 0
M  V30 3148 H 294.593 4.5373 6.25579 0
M  V30 3149 H 292.938 4.07489 5.63008 0
M  V30 3150 H 296.129 2.50432 3.95476 0
M  V30 3151 H 296.302 3.67759 5.33533 0
M  V30 3152 N 289.708 -1.40897 0.706093 0
M  V30 3153 C 291.124 -1.55042 0.37869 0
M  V30 3154 C 291.324 -1.67944 -1.11342 0
M  V30 3155 O 290.38 -1.66372 -1.89938 0
M  V30 3156 C 291.693 -2.78398 1.13643 0
M  V30 3157 C 293.241 -2.92206 1.12181 0
M  V30 3158 C 293.716 -4.18463 1.86152 0
M  V30 3159 N 295.207 -4.25443 1.83173 0
M  V30 3160 C 295.942 -5.2202 2.37239 0
M  V30 3161 N 295.438 -6.24563 2.99821 0
M  V30 3162 N 297.231 -5.14033 2.27435 0
M  V30 3163 H 289.382 -1.30769 1.67372 0
M  V30 3164 H 291.645 -0.631653 0.706907 0
M  V30 3165 H 291.351 -2.7511 2.19106 0
M  V30 3166 H 291.225 -3.70228 0.721853 0
M  V30 3167 H 293.612 -2.95004 0.0754171 0
M  V30 3168 H 293.693 -2.01521 1.57554 0
M  V30 3169 H 293.337 -4.16427 2.90776 0
M  V30 3170 H 293.267 -5.08141 1.38206 0
M  V30 3171 H 295.758 -3.51976 1.37556 0
M  V30 3172 H 296.071 -6.94665 3.38616 0
M  V30 3173 H 294.416 -6.25035 3.03902 0
M  V30 3174 H 297.607 -4.3285 1.78208 0
M  V30 3175 H 297.78 -5.89129 2.69873 0
M  V30 3176 N 291.186 -0.45159 -1.50991 0
M  V30 3177 C 292.434 0.109857 -2.01801 0
M  V30 3178 C 292.755 1.41958 -1.3369 0
M  V30 3179 O 292.025 1.9003 -0.475951 0
M  V30 3180 H 290.605 0.0435884 -0.745727 0
M  V30 3181 H 293.267 -0.597557 -1.85514 0
M  V30 3182 H 292.363 0.275489 -3.10882 0
M  V30 3183 N 292.664 1.56529 -0.183458 0
M  V30 3184 C 293.574 2.22144 0.754272 0
M  V30 3185 C 294.59 1.21684 1.24374 0
M  V30 3186 O 295.766 1.54385 1.29333 0
M  V30 3187 C 292.831 2.85884 1.96141 0
M  V30 3188 C 291.892 4.01579 1.51765 0
M  V30 3189 C 291.125 4.6227 2.66725 0
M  V30 3190 O 291.348 4.21865 3.83909 0
M  V30 3191 O 290.282 5.51936 2.40104 0
M  V30 3192 H 294.108 3.02861 0.225527 0
M  V30 3193 H 291.693 1.49331 0.0453032 0
M  V30 3194 H 293.575 3.26253 2.66715 0
M  V30 3195 H 292.25 2.08154 2.47899 0
M  V30 3196 H 291.157 3.65856 0.781049 0
M  V30 3197 H 292.49 4.80938 1.04686 0
M  V30 3198 N 294.142 -0.090211 1.57342 0
M  V30 3199 C 295.089 -1.10909 2.02405 0
M  V30 3200 C 296.059 -1.39523 0.901252 0
M  V30 3201 O 297.244 -1.50903 1.1676 0
M  V30 3202 C 294.384 -2.42277 2.45755 0
M  V30 3203 C 293.497 -2.20352 3.71576 0
M  V30 3204 C 292.632 -3.45154 4.03785 0
M  V30 3205 C 291.671 -3.18512 5.22701 0
M  V30 3206 N 290.808 -4.35593 5.50639 0
M  V30 3207 H 295.648 -0.71782 2.89225 0
M  V30 3208 H 293.185 -0.342901 1.43048 0
M  V30 3209 H 295.143 -3.18951 2.68935 0
M  V30 3210 H 293.773 -2.79242 1.61938 0
M  V30 3211 H 292.825 -1.34458 3.55844 0
M  V30 3212 H 294.137 -1.96661 4.58395 0
M  V30 3213 H 293.291 -4.30233 4.27767 0
M  V30 3214 H 292.03 -3.71904 3.15498 0
M  V30 3215 H 291.035 -2.31827 4.98534 0
M  V30 3216 H 292.26 -2.93103 6.12591 0
M  V30 3217 H 290.206 -4.6241 4.6531 0
M  V30 3218 H 290.123 -4.1511 6.31838 0
M  V30 3219 H 291.391 -5.21723 5.7916 0
M  V30 3220 N 295.62 -1.53406 -0.361157 0
M  V30 3221 C 296.866 -1.70054 -1.10496 0
M  V30 3222 C 297.199 -0.453278 -1.88836 0
M  V30 3223 O 296.474 0.5495 -1.86576 0
M  V30 3224 C 296.757 -2.95317 -2.06058 0
M  V30 3225 C 296.61 -4.3021 -1.31298 0
M  V30 3226 C 297.929 -3.16193 -3.06121 0
M  V30 3227 H 295.048 -0.618799 -0.400321 0
M  V30 3228 H 297.69 -1.86052 -0.385318 0
M  V30 3229 H 295.84 -2.81809 -2.67425 0
M  V30 3230 H 297.512 -4.55538 -0.726807 0
M  V30 3231 H 295.755 -4.29421 -0.614853 0
M  V30 3232 H 296.426 -5.14 -2.01265 0
M  V30 3233 H 298.902 -3.28916 -2.5486 0
M  V30 3234 H 297.778 -4.05266 -3.70204 0
M  V30 3235 H 298.039 -2.31676 -3.76535 0
M  V30 3236 N 297.098 0.621204 -1.44841 0
M  V30 3237 C 298.344 1.3826 -1.48365 0
M  V30 3238 C 298.677 1.93831 -0.119624 0
M  V30 3239 O 297.952 1.74251 0.864111 0
M  V30 3240 C 298.235 2.54058 -2.55199 0
M  V30 3241 C 298.088 2.03772 -4.00995 0
M  V30 3242 C 299.407 3.56225 -2.58442 0
M  V30 3243 H 296.526 0.501374 -0.540179 0
M  V30 3244 H 299.168 0.7015 -1.76576 0
M  V30 3245 H 297.318 3.12162 -2.31274 0
M  V30 3246 H 298.99 1.50423 -4.36086 0
M  V30 3247 H 297.233 1.34876 -4.12299 0
M  V30 3248 H 297.904 2.87185 -4.71411 0
M  V30 3249 H 300.38 3.07939 -2.79844 0
M  V30 3250 H 299.256 4.34756 -3.3508 0
M  V30 3251 H 299.517 4.10949 -1.63013 0
M  V30 3252 N 298.576 1.31904 0.862503 0
M  V30 3253 C 299.825 1.21373 1.61094 0
M  V30 3254 C 300.138 -0.22504 1.94301 0
M  V30 3255 O 301.344 -0.452121 2.67709 0
M  V30 3256 C 299.8 2.12525 2.9045 0
M  V30 3257 C 299.408 3.61441 2.64697 0
M  V30 3258 C 301.152 2.10813 3.68454 0
M  V30 3259 C 299.059 4.44578 3.90006 0
M  V30 3260 H 297.989 0.450705 0.604468 0
M  V30 3261 H 300.64 1.56811 0.953027 0
M  V30 3262 H 299.022 1.69994 3.57656 0
M  V30 3263 H 300.196 4.12264 2.05851 0
M  V30 3264 H 298.511 3.65205 2.00036 0
M  V30 3265 H 301.108 2.70167 4.61426 0
M  V30 3266 H 301.451 1.09713 4.01583 0
M  V30 3267 H 301.984 2.51583 3.08141 0
M  V30 3268 H 298.723 5.46461 3.62023 0
M  V30 3269 H 298.243 3.98508 4.48276 0
M  V30 3270 H 299.922 4.57176 4.5782 0
M  V30 3271 N 300.054 -1.07777 1.14986 0
M  V30 3272 C 301.002 -2.16964 0.838406 0
M  V30 3273 C 301.996 -1.68372 -0.186386 0
M  V30 3274 O 303.202 -1.79951 -0.0418465 0
M  V30 3275 H 299.577 -0.708006 0.253439 0
M  V30 3276 H 301.548 -2.40454 1.76704 0
M  V30 3277 C 300.297 -3.4604 0.339335 0
M  V30 3278 H 299.62 -3.83813 1.11927 0
M  V30 3279 H 301.06 -4.23698 0.160021 0
M  V30 3280 C 299.519 -3.23569 -0.938325 0
M  V30 3281 O 300.049 -3.47752 -2.01077 0
M  V30 3282 N 298.255 -2.77079 -0.876117 0
M  V30 3283 H 297.802 -2.576 -0.00322037 0
M  V30 3284 H 297.76 -2.62422 -1.73153 0
M  V30 3285 N 301.532 -0.945985 -1.26051 0
M  V30 3286 C 302.778 -0.597002 -1.93814 0
M  V30 3287 C 303.111 0.862484 -1.73997 0
M  V30 3288 O 302.386 1.61769 -1.07986 0
M  V30 3289 C 302.669 -0.945937 -3.47454 0
M  V30 3290 C 302.522 -2.46052 -3.76535 0
M  V30 3291 C 303.841 -0.464785 -4.37639 0
M  V30 3292 H 300.96 -0.218366 -0.703907 0
M  V30 3293 H 303.602 -1.18107 -1.48831 0
M  V30 3294 H 301.752 -0.448902 -3.85898 0
M  V30 3295 H 303.424 -3.03065 -3.47778 0
M  V30 3296 H 301.667 -2.90194 -3.22444 0
M  V30 3297 H 302.338 -2.65517 -4.83947 0
M  V30 3298 H 304.814 -0.891016 -4.06448 0
M  V30 3299 H 303.69 -0.737712 -5.4392 0
M  V30 3300 H 303.951 0.635274 -4.37512 0
M  V30 3301 N 303.011 1.40521 -0.713556 0
M  V30 3302 C 304.422 1.83853 -0.324807 0
M  V30 3303 C 304.773 1.59667 1.14021 0
M  V30 3304 O 303.898 1.07649 1.87725 0
M  V30 3305 C 304.493 3.33751 -0.582746 0
M  V30 3306 C 303.052 3.75584 -0.247727 0
M  V30 3307 C 302.199 2.63753 -0.856121 0
M  V30 3308 H 305.15 1.29817 -0.91286 0
M  V30 3309 H 305.171 3.80194 0.152682 0
M  V30 3310 H 304.683 3.51322 -1.64908 0
M  V30 3311 H 302.784 3.63608 0.813624 0
M  V30 3312 H 302.897 4.7373 -0.715307 0
M  V30 3313 H 301.261 2.53108 -0.28432 0
M  V30 3314 H 302.044 2.84137 -1.92668 0
M  V30 3315 N 304.489 0.459591 1.5075 0
M  V30 3316 C 305.738 -0.100971 2.01447 0
M  V30 3317 C 306.051 -1.41816 1.34713 0
M  V30 3318 O 307.257 -2.06299 1.76502 0
M  V30 3319 C 305.713 -0.23047 3.59161 0
M  V30 3320 C 305.321 1.0776 4.34847 0
M  V30 3321 C 307.065 -0.743608 4.17936 0
M  V30 3322 C 304.972 0.91253 5.84317 0
M  V30 3323 H 303.902 -0.0415102 0.752856 0
M  V30 3324 H 306.553 0.592742 1.73663 0
M  V30 3325 H 304.935 -0.987703 3.83485 0
M  V30 3326 H 306.109 1.8449 4.22256 0
M  V30 3327 H 304.424 1.52097 3.87628 0
M  V30 3328 H 307.021 -0.883959 5.27343 0
M  V30 3329 H 307.364 -1.73196 3.78562 0
M  V30 3330 H 307.897 -0.04408 3.97776 0
M  V30 3331 H 304.636 1.87391 6.28144 0
M  V30 3332 H 304.156 0.185422 5.99513 0
M  V30 3333 H 305.835 0.574547 6.44444 0
M  V30 3334 N 305.967 -1.56429 0.191757 0
M  V30 3335 C 307.214 -1.97485 -0.447891 0
M  V30 3336 C 307.542 -1.07852 -1.61859 0
M  V30 3337 O 306.797 -0.116903 -1.95351 0
M  V30 3338 C 307.096 -3.44449 -0.953384 0
M  V30 3339 C 306.762 -4.50781 0.103586 0
M  V30 3340 C 305.424 -4.79584 0.394023 0
M  V30 3341 C 307.776 -5.1471 0.819946 0
M  V30 3342 C 305.104 -5.69607 1.40585 0
M  V30 3343 C 307.456 -6.05827 1.8209 0
M  V30 3344 C 306.12 -6.32987 2.11857 0
M  V30 3345 H 305.39 -0.722648 -0.163895 0
M  V30 3346 H 308.037 -1.89322 0.28802 0
M  V30 3347 H 306.342 -3.49666 -1.76751 0
M  V30 3348 H 308.039 -3.73569 -1.45765 0
M  V30 3349 H 304.629 -4.28394 -0.132951 0
M  V30 3350 H 308.813 -4.92552 0.608789 0
M  V30 3351 H 304.069 -5.88926 1.64243 0
M  V30 3352 H 308.243 -6.54424 2.38123 0
M  V30 3353 H 305.87 -7.02544 2.90407 0
M  V30 3354 N 307.445 0.0818655 -1.57387 0
M  V30 3355 C 308.392 1.09834 -2.0299 0
M  V30 3356 C 309.362 1.39043 -0.908639 0
M  V30 3357 O 310.547 1.50282 -1.17559 0
M  V30 3358 C 307.687 2.40971 -2.47037 0
M  V30 3359 C 306.8 2.18379 -3.7274 0
M  V30 3360 C 305.935 3.43008 -4.0561 0
M  V30 3361 C 304.974 3.15736 -5.24383 0
M  V30 3362 N 304.111 4.32667 -5.52941 0
M  V30 3363 H 308.951 0.702472 -2.89602 0
M  V30 3364 H 306.488 0.33531 -1.43227 0
M  V30 3365 H 308.446 3.1752 -2.70623 0
M  V30 3366 H 307.076 2.78379 -1.63417 0
M  V30 3367 H 306.128 1.32569 -3.56552 0
M  V30 3368 H 307.44 1.94227 -4.59431 0
M  V30 3369 H 306.594 4.27958 -4.30043 0
M  V30 3370 H 305.333 3.70225 -3.17466 0
M  V30 3371 H 304.338 2.2918 -4.99757 0
M  V30 3372 H 305.563 2.8985 -6.14136 0
M  V30 3373 H 303.509 4.59935 -4.67756 0
M  V30 3374 H 303.426 4.11753 -6.34031 0
M  V30 3375 H 304.694 5.18644 -5.81918 0
M  V30 3376 N 308.923 1.53595 0.353017 0
M  V30 3377 C 310.2 1.61002 1.11075 0
M  V30 3378 C 310.58 0.425356 2.0677 0
M  V30 3379 O 309.928 -0.583267 2.2093 0
M  V30 3380 C 310.138 2.96631 1.83877 0
M  V30 3381 C 311.486 3.51653 2.37961 0
M  V30 3382 O 312.51 2.98743 1.93987 0
M  V30 3383 O 311.369 4.44177 3.18386 0
M  V30 3384 H 308.463 0.650825 0.510251 0
M  V30 3385 H 311.009 1.6594 0.35527 0
M  V30 3386 H 309.781 3.74293 1.14108 0
M  V30 3387 H 309.404 2.95242 2.66304 0
M  V30 3388 N 310.401 -0.613514 1.45168 0
M  V30 3389 C 311.348 -1.72456 1.53387 0
M  V30 3390 C 312.318 -1.6169 0.380191 0
M  V30 3391 O 313.503 -1.81356 0.592836 0
M  V30 3392 C 310.643 -3.10753 1.50088 0
M  V30 3393 C 309.756 -3.32368 2.75963 0
M  V30 3394 C 308.891 -4.60737 2.64376 0
M  V30 3395 C 307.93 -4.7559 3.85332 0
M  V30 3396 N 307.067 -5.95253 3.72315 0
M  V30 3397 H 311.907 -1.64768 2.48305 0
M  V30 3398 H 309.444 -0.803503 1.23216 0
M  V30 3399 H 311.402 -3.90758 1.46164 0
M  V30 3400 H 310.032 -3.17413 0.587243 0
M  V30 3401 H 309.084 -2.4618 2.89999 0
M  V30 3402 H 310.396 -3.39218 3.65695 0
M  V30 3403 H 309.55 -5.48928 2.58385 0
M  V30 3404 H 308.289 -4.56275 1.72233 0
M  V30 3405 H 307.294 -3.85824 3.91688 0
M  V30 3406 H 308.519 -4.81854 4.78533 0
M  V30 3407 H 306.465 -5.91847 2.82937 0
M  V30 3408 H 306.382 -6.03236 4.55677 0
M  V30 3409 H 307.65 -6.85958 3.70246 0
M  V30 3410 N 311.879 -1.3236 -0.855495 0
M  V30 3411 C 312.827 -1.2118 -1.9854 0
M  V30 3412 C 313.821 -0.116788 -1.68997 0
M  V30 3413 O 315.027 -0.279657 -1.77814 0
M  V30 3414 H 311.402 -0.375608 -0.651477 0
M  V30 3415 H 313.373 -2.16743 -2.05098 0
M  V30 3416 C 312.122 -0.950849 -3.34446 0
M  V30 3417 H 311.445 -1.78563 -3.57708 0
M  V30 3418 H 312.885 -0.912863 -4.14057 0
M  V30 3419 C 311.344 0.346404 -3.35114 0
M  V30 3420 O 311.874 1.35855 -3.7803 0
M  V30 3421 N 310.08 0.36808 -2.88259 0
M  V30 3422 H 309.627 -0.456102 -2.5353 0
M  V30 3423 H 309.585 1.23591 -2.89089 0
M  V30 3424 N 313.357 1.07166 -1.15556 0
M  V30 3425 C 314.585 1.83514 -0.955519 0
M  V30 3426 C 315 1.82163 0.49621 0
M  V30 3427 O 314.357 1.23441 1.34419 0
M  V30 3428 C 314.408 3.30515 -1.46432 0
M  V30 3429 O 314.129 3.31937 -2.85918 0
M  V30 3430 C 315.63 4.23625 -1.30603 0
M  V30 3431 H 312.85 0.578926 -0.339244 0
M  V30 3432 H 315.394 1.35265 -1.53374 0
M  V30 3433 H 313.549 3.76106 -0.928584 0
M  V30 3434 H 313.963 4.23794 -3.09029 0
M  V30 3435 H 315.437 5.24831 -1.71047 0
M  V30 3436 H 315.914 4.38485 -0.250441 0
M  V30 3437 H 316.52 3.83871 -1.83094 0
M  V30 3438 N 314.835 0.952656 1.25548 0
M  V30 3439 C 316.246 0.647392 1.75116 0
M  V30 3440 C 316.597 -0.837274 1.77438 0
M  V30 3441 O 315.722 -1.65525 1.39393 0
M  V30 3442 C 316.317 1.16845 3.18014 0
M  V30 3443 C 314.876 0.913382 3.6515 0
M  V30 3444 C 314.023 1.31265 2.44264 0
M  V30 3445 H 316.974 1.12968 1.11462 0
M  V30 3446 H 316.995 0.527606 3.76824 0
M  V30 3447 H 316.507 2.24902 3.16292 0
M  V30 3448 H 314.608 -0.152316 3.72289 0
M  V30 3449 H 314.721 1.54845 4.53387 0
M  V30 3450 H 313.085 0.731028 2.43984 0
M  V30 3451 H 313.868 2.40239 2.45234 0
M  V30 3452 N 316.313 -1.40141 0.720998 0
M  V30 3453 C 317.538 -2.05618 0.271258 0
M  V30 3454 C 317.963 -1.53978 -1.08039 0
M  V30 3455 O 317.321 -0.677463 -1.68167 0
M  V30 3456 C 317.369 -3.59609 0.267197 0
M  V30 3457 O 316.473 -4.05526 -0.749814 0
M  V30 3458 H 315.814 -0.651904 0.126162 0
M  V30 3459 H 318.344 -1.79439 0.982997 0
M  V30 3460 H 318.354 -4.0786 0.106744 0
M  V30 3461 H 317.029 -3.96559 1.25354 0
M  V30 3462 H 315.606 -3.68722 -0.556644 0
M  V30 3463 N 317.792 -0.46758 -1.50504 0
M  V30 3464 C 319.203 -0.0116166 -1.86696 0
M  V30 3465 C 319.554 1.39202 -1.38265 0
M  V30 3466 O 318.679 2.0313 -0.746132 0
M  V30 3467 C 319.274 -0.0143044 -3.38797 0
M  V30 3468 C 317.833 0.386175 -3.74414 0
M  V30 3469 C 316.98 -0.401287 -2.74381 0
M  V30 3470 H 319.931 -0.682022 -1.43297 0
M  V30 3471 H 319.952 0.788641 -3.72237 0
M  V30 3472 H 319.464 -1.03602 -3.74016 0
M  V30 3473 H 317.565 1.41237 -3.44794 0
M  V30 3474 H 317.678 0.0899596 -4.79016 0
M  V30 3475 H 316.042 0.144536 -2.5429 0
M  V30 3476 H 316.825 -1.42244 -3.12444 0
M  V30 3477 N 319.27 1.56325 -0.20005 0
M  V30 3478 C 320.517 1.97719 0.437411 0
M  V30 3479 C 320.845 1.08709 1.61284 0
M  V30 3480 O 320.1 0.127261 1.95286 0
M  V30 3481 C 320.399 3.4495 0.935103 0
M  V30 3482 C 320.065 4.5072 -0.12749 0
M  V30 3483 C 318.727 4.79368 -0.419451 0
M  V30 3484 C 321.079 5.14268 -0.847231 0
M  V30 3485 C 318.407 5.68854 -1.43604 0
M  V30 3486 C 320.759 6.04852 -1.85301 0
M  V30 3487 C 319.423 6.31855 -2.15211 0
M  V30 3488 H 318.693 0.723507 0.16006 0
M  V30 3489 H 321.34 1.89166 -0.298056 0
M  V30 3490 H 319.645 3.50599 1.74894 0
M  V30 3491 H 321.342 3.74337 1.43781 0
M  V30 3492 H 317.932 4.28458 0.11023 0
M  V30 3493 H 322.116 4.92222 -0.634901 0
M  V30 3494 H 317.372 5.88047 -1.67364 0
M  V30 3495 H 321.546 6.53152 -2.41591 0
M  V30 3496 H 319.173 7.00994 -2.94129 0
M  V30 3497 N 320.748 -0.0735177 1.57428 0
M  V30 3498 C 321.997 -0.771809 1.86349 0
M  V30 3499 C 322.31 -1.78828 0.792452 0
M  V30 3500 O 323.516 -2.53602 0.96945 0
M  V30 3501 C 321.972 -1.42358 3.30548 0
M  V30 3502 C 321.58 -0.445761 4.45777 0
M  V30 3503 C 323.324 -2.10434 3.6867 0
M  V30 3504 C 321.231 -1.10335 5.81016 0
M  V30 3505 H 320.161 -0.291999 0.695164 0
M  V30 3506 H 322.812 -0.0250749 1.83483 0
M  V30 3507 H 321.194 -2.21852 3.28021 0
M  V30 3508 H 322.368 0.319239 4.59693 0
M  V30 3509 H 320.683 0.130457 4.16196 0
M  V30 3510 H 323.28 -2.60405 4.67004 0
M  V30 3511 H 323.623 -2.90298 2.98383 0
M  V30 3512 H 324.156 -1.37773 3.7318 0
M  V30 3513 H 320.895 -0.345061 6.54591 0
M  V30 3514 H 320.415 -1.83925 5.70904 0
M  V30 3515 H 322.094 -1.62367 6.26295 0
M  V30 3516 N 322.226 -1.5378 -0.344866 0
M  V30 3517 C 323.136 -1.84667 -1.4469 0
M  V30 3518 C 324.152 -0.736704 -1.57635 0
M  V30 3519 O 325.328 -1.02888 -1.73136 0
M  V30 3520 C 322.393 -2.04869 -2.79696 0
M  V30 3521 C 321.454 -3.28731 -2.76106 0
M  V30 3522 C 320.687 -3.4796 -4.04673 0
M  V30 3523 O 320.91 -2.71052 -5.01883 0
M  V30 3524 O 319.844 -4.41383 -4.09224 0
M  V30 3525 H 323.67 -2.78334 -1.21506 0
M  V30 3526 H 321.255 -1.39418 -0.536921 0
M  V30 3527 H 323.137 -2.19609 -3.59652 0
M  V30 3528 H 321.812 -1.14391 -3.02814 0
M  V30 3529 H 320.719 -3.19396 -1.94774 0
M  V30 3530 H 322.052 -4.19198 -2.57941 0
M  V30 3531 N 323.704 0.605807 -1.45491 0
M  V30 3532 C 324.932 1.39136 -1.5313 0
M  V30 3533 C 325.347 1.88082 -0.164507 0
M  V30 3534 O 324.704 1.62316 0.834247 0
M  V30 3535 C 324.755 2.59463 -2.51716 0
M  V30 3536 O 324.476 2.12551 -3.83084 0
M  V30 3537 C 325.977 3.52301 -2.6907 0
M  V30 3538 H 323.197 0.425849 -0.51855 0
M  V30 3539 H 325.741 0.73865 -1.90694 0
M  V30 3540 H 323.896 3.20772 -2.17219 0
M  V30 3541 H 324.31 2.90744 -4.36541 0
M  V30 3542 H 325.784 4.33271 -3.42024 0
M  V30 3543 H 326.261 4.02757 -1.75167 0
M  V30 3544 H 326.867 2.96845 -3.04571 0
M  V30 3545 N 325.182 1.32811 0.848464 0
M  V30 3546 C 326.429 1.23724 1.60308 0
M  V30 3547 C 326.757 -0.1994 1.93475 0
M  V30 3548 O 326.012 -1.15406 1.5805 0
M  V30 3549 C 326.311 2.04831 2.92881 0
M  V30 3550 C 325.977 3.54125 2.79117 0
M  V30 3551 C 324.639 3.94829 2.7507 0
M  V30 3552 C 326.991 4.49036 2.64606 0
M  V30 3553 C 324.319 5.28675 2.544 0
M  V30 3554 C 326.671 5.83033 2.4547 0
M  V30 3555 C 325.335 6.22931 2.39819 0
M  V30 3556 H 324.605 0.452737 0.586609 0
M  V30 3557 H 327.252 1.64301 0.983743 0
M  V30 3558 H 325.557 1.57001 3.58968 0
M  V30 3559 H 327.254 1.95164 3.50303 0
M  V30 3560 H 323.844 3.21801 2.83094 0
M  V30 3561 H 328.028 4.18505 2.66772 0
M  V30 3562 H 323.284 5.58637 2.48465 0
M  V30 3563 H 327.458 6.56186 2.33222 0
M  V30 3564 H 325.085 7.26584 2.23562 0
M  V30 3565 N 326.66 -1.06551 1.16123 0
M  V30 3566 C 327.888 -1.83005 0.965237 0
M  V30 3567 C 328.303 -1.82423 -0.486542 0
M  V30 3568 O 327.66 -1.24152 -1.33763 0
M  V30 3569 C 327.711 -3.29733 1.48183 0
M  V30 3570 O 327.432 -3.30416 2.87674 0
M  V30 3571 C 328.933 -4.22926 1.32848 0
M  V30 3572 H 326.153 -0.577118 0.342309 0
M  V30 3573 H 328.697 -1.3445 1.54089 0
M  V30 3574 H 326.852 -3.75609 0.948517 0
M  V30 3575 H 327.266 -4.22149 3.11272 0
M  V30 3576 H 328.74 -5.23916 1.73827 0
M  V30 3577 H 329.217 -4.38346 0.273692 0
M  V30 3578 H 329.823 -3.82894 1.85127 0
M  V30 3579 N 328.138 -0.959301 -1.25041 0
M  V30 3580 C 329.048 -0.489994 -2.29426 0
M  V30 3581 C 330.064 0.444944 -1.68215 0
M  V30 3582 O 331.24 0.320046 -1.98841 0
M  V30 3583 C 328.305 0.220309 -3.45999 0
M  V30 3584 C 327.366 -0.753418 -4.22637 0
M  V30 3585 C 326.599 -0.076918 -5.33645 0
M  V30 3586 O 326.822 1.13649 -5.58963 0
M  V30 3587 O 325.756 -0.764824 -5.97021 0
M  V30 3588 H 329.582 -1.35755 -2.71669 0
M  V30 3589 H 327.167 -0.725961 -1.30576 0
M  V30 3590 H 329.049 0.619677 -4.16819 0
M  V30 3591 H 327.724 1.06296 -3.0575 0
M  V30 3592 H 326.631 -1.20308 -3.54227 0
M  V30 3593 H 327.964 -1.56423 -4.66683 0
M  V30 3594 N 329.616 1.39756 -0.72842 0
M  V30 3595 C 330.893 1.94574 -0.200079 0
M  V30 3596 C 331.273 1.66569 1.29684 0
M  V30 3597 O 330.621 0.990326 2.05924 0
M  V30 3598 C 330.831 3.45004 -0.526608 0
M  V30 3599 C 332.179 4.21965 -0.472318 0
M  V30 3600 O 333.203 3.53173 -0.463413 0
M  V30 3601 O 332.062 5.44552 -0.461075 0
M  V30 3602 H 329.156 0.826289 -0.0342851 0
M  V30 3603 H 331.702 1.49293 -0.806829 0
M  V30 3604 H 330.474 3.58796 -1.56144 0
M  V30 3605 H 330.097 3.97449 0.109449 0
M  V30 3606 N 331.094 0.475555 1.50254 0
M  V30 3607 C 332.371 -0.139685 1.95101 0
M  V30 3608 C 332.751 -1.56555 1.41611 0
M  V30 3609 O 332.099 -2.19956 0.618993 0
M  V30 3610 C 332.309 -0.0784298 3.48912 0
M  V30 3611 C 333.657 -0.265095 4.23772 0
M  V30 3612 O 334.681 -0.154808 3.55863 0
M  V30 3613 O 333.54 -0.488327 5.44314 0
M  V30 3614 H 330.634 -0.109236 0.819754 0
M  V30 3615 H 333.18 0.536276 1.61004 0
M  V30 3616 H 331.952 0.916918 3.80405 0
M  V30 3617 H 331.575 -0.795655 3.89558 0
M  V30 3618 N 332.573 -1.56217 0.208337 0
M  V30 3619 C 333.483 -2.23316 -0.718836 0
M  V30 3620 C 334.499 -1.23648 -1.22422 0
M  V30 3621 O 335.675 -1.56423 -1.26861 0
M  V30 3622 C 332.74 -2.88968 -1.91568 0
M  V30 3623 C 331.801 -4.03943 -1.45357 0
M  V30 3624 C 331.034 -4.66455 -2.59337 0
M  V30 3625 O 331.257 -4.27919 -3.77149 0
M  V30 3626 O 330.191 -5.55686 -2.31293 0
M  V30 3627 H 334.017 -3.03182 -0.177315 0
M  V30 3628 H 331.602 -1.49384 -0.0215402 0
M  V30 3629 H 333.484 -3.30455 -2.61491 0
M  V30 3630 H 332.159 -2.12071 -2.44556 0
M  V30 3631 H 331.066 -3.67052 -0.722746 0
M  V30 3632 H 332.399 -4.82543 -0.970219 0
M  V30 3633 N 334.051 0.0651679 -1.57465 0
M  V30 3634 C 335.014 1.06117 -2.03155 0
M  V30 3635 C 336.014 1.31204 -0.929632 0
M  V30 3636 O 337.204 1.26813 -1.19432 0
M  V30 3637 C 334.336 2.4032 -2.41783 0
M  V30 3638 H 335.529 0.667231 -2.92383 0
M  V30 3639 H 333.082 0.311075 -1.53173 0
M  V30 3640 H 333.817 2.84532 -1.55601 0
M  V30 3641 H 333.602 2.23451 -3.22199 0
M  V30 3642 H 335.092 3.11898 -2.77685 0
M  V30 3643 N 335.529 1.53961 0.336706 0
M  V30 3644 C 336.754 1.75797 1.10046 0
M  V30 3645 C 337.179 0.498985 1.81361 0
M  V30 3646 O 336.537 -0.548769 1.72795 0
M  V30 3647 C 336.585 2.94257 2.08436 0
M  V30 3648 O 335.689 2.64883 3.16087 0
M  V30 3649 H 335.03 0.582936 0.317934 0
M  V30 3650 H 337.56 2.00945 0.38501 0
M  V30 3651 H 337.57 3.21237 2.51537 0
M  V30 3652 H 336.245 3.85564 1.55927 0
M  V30 3653 H 334.822 2.48812 2.77753 0
M  V30 3654 N 337.007 -0.598083 1.45811 0
M  V30 3655 C 338.423 -0.919847 1.30426 0
M  V30 3656 C 338.623 -1.99759 0.264303 0
M  V30 3657 O 337.679 -2.50221 -0.338472 0
M  V30 3658 C 338.992 -1.35176 2.68603 0
M  V30 3659 C 340.54 -1.46546 2.76574 0
M  V30 3660 C 341.015 -1.9311 4.15298 0
M  V30 3661 N 342.506 -2.00328 4.1764 0
M  V30 3662 C 343.241 -2.37599 5.21856 0
M  V30 3663 N 342.737 -2.73771 6.36413 0
M  V30 3664 N 344.53 -2.38021 5.09218 0
M  V30 3665 H 336.681 0.114111 2.12093 0
M  V30 3666 H 338.944 -0.0116121 0.947929 0
M  V30 3667 H 338.65 -0.633969 3.45939 0
M  V30 3668 H 338.524 -2.3164 2.97696 0
M  V30 3669 H 340.911 -2.17415 1.99537 0
M  V30 3670 H 340.992 -0.483727 2.51185 0
M  V30 3671 H 340.636 -1.22824 4.92825 0
M  V30 3672 H 340.566 -2.92213 4.38086 0
M  V30 3673 H 343.057 -1.74925 3.34977 0
M  V30 3674 H 343.37 -3.0112 7.11721 0
M  V30 3675 H 341.715 -2.71445 6.39799 0
M  V30 3676 H 344.906 -2.09174 4.18765 0
M  V30 3677 H 345.079 -2.66741 5.90554 0
M  V30 3678 N 338.485 -1.33259 -0.841409 0
M  V30 3679 C 339.448 -1.23221 -1.9326 0
M  V30 3680 C 340.448 -0.151895 -1.60081 0
M  V30 3681 O 341.638 -0.403246 -1.69468 0
M  V30 3682 C 338.77 -0.898123 -3.28856 0
M  V30 3683 H 339.963 -2.2021 -2.03587 0
M  V30 3684 H 337.516 -1.17281 -1.03319 0
M  V30 3685 H 338.251 0.0693841 -3.24226 0
M  V30 3686 H 338.036 -1.67934 -3.54317 0
M  V30 3687 H 339.526 -0.852563 -4.08805 0
M  V30 3688 N 339.963 1.05934 -1.16686 0
M  V30 3689 C 341.188 1.83029 -0.975455 0
M  V30 3690 C 341.613 1.82096 0.471452 0
M  V30 3691 O 340.971 1.22443 1.33706 0
M  V30 3692 C 341.019 3.27372 -1.51195 0
M  V30 3693 O 340.123 4.06054 -0.720701 0
M  V30 3694 H 339.464 0.566194 -0.346872 0
M  V30 3695 H 341.994 1.33541 -1.55009 0
M  V30 3696 H 342.004 3.78186 -1.53099 0
M  V30 3697 H 340.679 3.27366 -2.56523 0
M  V30 3698 H 339.256 3.64812 -0.772458 0
M  V30 3699 N 341.441 0.965919 1.2453 0
M  V30 3700 C 342.388 0.49402 2.25451 0
M  V30 3701 C 343.358 -0.45948 1.59618 0
M  V30 3702 O 344.543 -0.370238 1.87173 0
M  V30 3703 C 341.683 -0.211359 3.44452 0
M  V30 3704 C 340.796 0.7807 4.24887 0
M  V30 3705 C 339.931 0.0516105 5.31175 0
M  V30 3706 C 338.97 1.03385 6.03306 0
M  V30 3707 N 338.107 0.334887 7.01301 0
M  V30 3708 H 342.947 1.35946 2.65184 0
M  V30 3709 H 340.484 0.681515 1.3036 0
M  V30 3710 H 342.442 -0.637 4.12308 0
M  V30 3711 H 341.072 -1.04077 3.05562 0
M  V30 3712 H 340.124 1.32479 3.56586 0
M  V30 3713 H 341.436 1.52978 4.74762 0
M  V30 3714 H 340.59 -0.432114 6.05159 0
M  V30 3715 H 339.329 -0.730179 4.82203 0
M  V30 3716 H 338.334 1.52847 5.28127 0
M  V30 3717 H 339.559 1.81606 6.54367 0
M  V30 3718 H 337.505 -0.427959 6.54603 0
M  V30 3719 H 337.422 1.02287 7.49048 0
M  V30 3720 H 338.69 -0.126928 7.79397 0
M  V30 3721 N 342.919 -1.39368 0.735821 0
M  V30 3722 C 344.33 -1.83313 0.354015 0
M  V30 3723 C 344.681 -1.61461 -1.11466 0
M  V30 3724 O 343.806 -1.10621 -1.85989 0
M  V30 3725 C 344.401 -3.32781 0.635769 0
M  V30 3726 C 342.96 -3.75142 0.307448 0
M  V30 3727 C 342.107 -2.62358 0.897974 0
M  V30 3728 H 345.058 -1.28349 0.933398 0
M  V30 3729 H 345.079 -3.80388 -0.0921773 0
M  V30 3730 H 344.591 -3.48654 1.70476 0
M  V30 3731 H 342.692 -3.64857 -0.755674 0
M  V30 3732 H 342.805 -4.72532 0.790583 0
M  V30 3733 H 341.169 -2.52624 0.324551 0
M  V30 3734 H 341.952 -2.81036 1.97164 0
M  V30 3735 N 344.397 -0.483516 -1.5 0
M  V30 3736 C 345.674 0.129337 -1.95172 0
M  V30 3737 C 346.054 1.55802 -1.4244 0
M  V30 3738 O 345.402 2.19625 -0.630649 0
M  V30 3739 C 345.612 0.0599251 -3.48949 0
M  V30 3740 C 346.96 0.242617 -4.23906 0
M  V30 3741 O 347.984 0.135933 -3.55941 0
M  V30 3742 O 346.843 0.459454 -5.44565 0
M  V30 3743 H 343.937 0.104887 -0.820322 0
M  V30 3744 H 346.483 -0.544807 -1.60717 0
M  V30 3745 H 345.255 -0.937079 -3.79914 0
M  V30 3746 H 344.878 0.774984 -3.89974 0
M  V30 3747 N 345.875 1.56104 -0.216619 0
M  V30 3748 C 346.825 2.16703 0.708798 0
M  V30 3749 C 347.809 1.11392 1.16106 0
M  V30 3750 O 349.001 1.37395 1.11587 0
M  V30 3751 C 346.13 2.84666 1.91886 0
M  V30 3752 C 345.216 3.97195 1.48651 0
M  V30 3753 N 345.607 4.99959 0.766434 0
M  V30 3754 C 343.905 4.09193 1.77418 0
M  V30 3755 C 344.606 5.79126 0.546659 0
M  V30 3756 N 343.582 5.32315 1.10188 0
M  V30 3757 H 347.384 2.93516 0.150162 0
M  V30 3758 H 344.898 1.6239 -0.0176768 0
M  V30 3759 H 346.895 3.26486 2.59253 0
M  V30 3760 H 345.555 2.09347 2.48202 0
M  V30 3761 H 346.566 5.16197 0.419634 0
M  V30 3762 H 343.243 3.45021 2.35088 0
M  V30 3763 H 344.633 6.71895 -0.026103 0
M  V30 3764 N 347.353 -0.0568162 1.57498 0
M  V30 3765 C 348.602 -0.752001 1.87157 0
M  V30 3766 C 348.915 -1.77978 0.811375 0
M  V30 3767 O 350.121 -2.52559 0.996293 0
M  V30 3768 C 348.577 -1.38844 3.3204 0
M  V30 3769 C 348.185 -0.398456 4.46225 0
M  V30 3770 C 349.929 -2.06512 3.70882 0
M  V30 3771 C 347.836 -1.04166 5.82154 0
M  V30 3772 H 346.766 -0.28461 0.698222 0
M  V30 3773 H 349.417 -0.00561272 1.83499 0
M  V30 3774 H 347.799 -2.1836 3.30356 0
M  V30 3775 H 348.973 0.367977 4.59328 0
M  V30 3776 H 347.288 0.174592 4.16034 0
M  V30 3777 H 349.885 -2.55437 4.6974 0
M  V30 3778 H 350.228 -2.87117 3.01445 0
M  V30 3779 H 350.761 -1.33808 3.7462 0
M  V30 3780 H 347.5 -0.275614 6.5492 0
M  V30 3781 H 347.02 -1.7786 5.72823 0
M  V30 3782 H 348.699 -1.55715 6.27982 0
M  V30 3783 N 348.832 -1.54138 -0.328536 0
M  V30 3784 C 350.062 -1.75807 -1.08516 0
M  V30 3785 C 350.47 -0.50428 -1.82356 0
M  V30 3786 O 349.813 0.534451 -1.75754 0
M  V30 3787 C 349.875 -2.89423 -2.13248 0
M  V30 3788 C 349.539 -4.28504 -1.5885 0
M  V30 3789 C 350.536 -5.09536 -1.03289 0
M  V30 3790 C 348.221 -4.75034 -1.63243 0
M  V30 3791 C 350.215 -6.35206 -0.52845 0
M  V30 3792 C 347.902 -6.00672 -1.12411 0
M  V30 3793 C 348.9 -6.80592 -0.573062 0
M  V30 3794 O 348.588 -8.03867 -0.0723692 0
M  V30 3795 H 348.32 -0.590633 -0.328829 0
M  V30 3796 H 350.874 -2.01819 -0.381868 0
M  V30 3797 H 349.104 -2.5897 -2.87178 0
M  V30 3798 H 350.793 -2.98921 -2.74592 0
M  V30 3799 H 351.559 -4.74745 -0.99206 0
M  V30 3800 H 347.438 -4.12875 -2.05074 0
M  V30 3801 H 350.982 -6.97532 -0.0976774 0
M  V30 3802 H 346.879 -6.34955 -1.162 0
M  V30 3803 H 347.647 -8.18283 -0.188258 0
M  V30 3804 N 350.31 0.590341 -1.46126 0
M  V30 3805 C 351.243 1.71434 -1.50617 0
M  V30 3806 C 352.221 1.58543 -0.360948 0
M  V30 3807 O 353.405 1.79865 -0.563985 0
M  V30 3808 C 350.532 3.09422 -1.37753 0
M  V30 3809 C 349.578 3.40854 -2.5636 0
M  V30 3810 S 350.411 3.33773 -4.18755 0
M  V30 3811 C 351.567 4.74312 -4.08386 0
M  V30 3812 H 351.8 1.67364 -2.45717 0
M  V30 3813 H 349.333 0.76845 -1.33919 0
M  V30 3814 H 351.291 3.8903 -1.31018 0
M  V30 3815 H 349.952 3.10989 -0.440949 0
M  V30 3816 H 349.145 4.41368 -2.43332 0
M  V30 3817 H 348.747 2.68798 -2.60046 0
M  V30 3818 H 351.039 5.64522 -3.74595 0
M  V30 3819 H 351.982 4.92397 -5.08872 0
M  V30 3820 H 352.39 4.50803 -3.3976 0
M  V30 3821 N 351.788 1.33704 0.83433 0
M  V30 3822 C 353.065 1.16011 1.57483 0
M  V30 3823 C 353.445 -0.27176 2.09343 0
M  V30 3824 O 352.793 -1.27146 1.89858 0
M  V30 3825 C 353.003 2.20507 2.70514 0
M  V30 3826 C 354.351 2.54898 3.39577 0
M  V30 3827 O 355.375 2.19209 2.80759 0
M  V30 3828 O 354.234 3.16158 4.45765 0
M  V30 3829 H 351.328 0.448992 0.694503 0
M  V30 3830 H 353.874 1.453 0.876691 0
M  V30 3831 H 352.646 3.16667 2.29865 0
M  V30 3832 H 352.269 1.92329 3.47987 0
M  V30 3833 N 353.266 -1.05314 1.17247 0
M  V30 3834 C 354.229 -2.112 0.890357 0
M  V30 3835 C 355.229 -1.60359 -0.118943 0
M  V30 3836 O 356.419 -1.73833 0.113086 0
M  V30 3837 C 353.551 -3.39266 0.333422 0
M  V30 3838 H 354.744 -2.37659 1.82916 0
M  V30 3839 H 352.297 -1.21538 0.982758 0
M  V30 3840 H 353.032 -3.18462 -0.612587 0
M  V30 3841 H 352.817 -3.77477 1.06082 0
M  V30 3842 H 354.307 -4.17315 0.154322 0
M  V30 3843 N 354.744 -0.972509 -1.24016 0
M  V30 3844 C 355.677 -0.45117 -2.23696 0
M  V30 3845 C 356.655 0.477378 -1.55434 0
M  V30 3846 O 357.839 0.407647 -1.84039 0
M  V30 3847 C 354.966 0.34818 -3.36906 0
M  V30 3848 C 354.012 -0.523355 -4.23277 0
M  V30 3849 S 354.845 -1.96647 -4.98087 0
M  V30 3850 C 356.001 -1.17604 -6.14752 0
M  V30 3851 H 356.234 -1.29588 -2.67571 0
M  V30 3852 H 353.767 -0.777903 -1.33372 0
M  V30 3853 H 355.725 0.803387 -4.02562 0
M  V30 3854 H 354.386 1.16792 -2.91579 0
M  V30 3855 H 353.579 0.0906181 -5.03919 0
M  V30 3856 H 353.181 -0.914485 -3.62647 0
M  V30 3857 H 355.473 -0.433434 -6.76112 0
M  V30 3858 H 356.416 -1.95701 -6.8052 0
M  V30 3859 H 356.824 -0.698295 -5.60164 0
M  V30 3860 N 356.222 1.38976 -0.743202 0
M  V30 3861 C 357.47 1.99948 -0.29417 0
M  V30 3862 C 357.791 1.59279 1.12495 0
M  V30 3863 O 357.061 0.844808 1.76748 0
M  V30 3864 H 355.641 0.739473 -0.105774 0
M  V30 3865 H 358.303 1.699 -0.954986 0
M  V30 3866 H 357.399 3.10142 -0.349056 0
M  V30 3867 N 357.7 0.491464 1.49741 0
M  V30 3868 C 358.947 -0.0564256 2.02421 0
M  V30 3869 C 359.275 -1.37872 1.37192 0
M  V30 3870 O 358.53 -1.89375 0.493508 0
M  V30 3871 C 358.829 -0.267329 3.56399 0
M  V30 3872 C 358.495 0.975775 4.40215 0
M  V30 3873 C 357.157 1.31655 4.62839 0
M  V30 3874 C 359.509 1.80251 4.89039 0
M  V30 3875 C 356.837 2.48375 5.31532 0
M  V30 3876 C 359.189 2.96116 5.59015 0
M  V30 3877 C 357.853 3.30585 5.79888 0
M  V30 3878 H 357.123 -0.0206476 0.740712 0
M  V30 3879 H 359.77 0.649686 1.80143 0
M  V30 3880 H 358.075 -1.05588 3.77304 0
M  V30 3881 H 359.772 -0.705549 3.94744 0
M  V30 3882 H 356.362 0.700315 4.2284 0
M  V30 3883 H 360.546 1.55239 4.71396 0
M  V30 3884 H 355.802 2.7533 5.45897 0
M  V30 3885 H 359.976 3.60509 5.95824 0
M  V30 3886 H 357.603 4.21132 6.32892 0
M  V30 3887 N 359.178 -1.55987 0.224894 0
M  V30 3888 C 360.426 -1.97998 -0.405099 0
M  V30 3889 C 360.747 -1.11387 -1.60056 0
M  V30 3890 O 360.017 -0.191645 -1.9496 0
M  V30 3891 H 358.597 -0.731235 -0.152658 0
M  V30 3892 H 361.259 -1.92279 0.318567 0
M  V30 3893 H 360.355 -3.03463 -0.729167 0
M  V30 3894 N 360.656 0.0484629 -1.57525 0
M  V30 3895 C 361.589 1.08755 -2.00618 0
M  V30 3896 C 362.567 1.36272 -0.887058 0
M  V30 3897 O 363.751 1.49255 -1.15131 0
M  V30 3898 C 360.878 2.42675 -2.36277 0
M  V30 3899 C 359.924 2.31142 -3.58435 0
M  V30 3900 S 360.757 1.68326 -5.08357 0
M  V30 3901 C 361.913 3.03776 -5.47239 0
M  V30 3902 H 362.146 0.720415 -2.88439 0
M  V30 3903 H 359.679 0.257801 -1.52233 0
M  V30 3904 H 361.637 3.19699 -2.57494 0
M  V30 3905 H 360.298 2.76541 -1.48942 0
M  V30 3906 H 359.491 3.29957 -3.80978 0
M  V30 3907 H 359.093 1.62258 -3.36969 0
M  V30 3908 H 361.385 4.00106 -5.46737 0
M  V30 3909 H 362.328 2.85988 -6.47778 0
M  V30 3910 H 362.736 3.05456 -4.74718 0
M  V30 3911 N 362.134 1.5431 0.320358 0
M  V30 3912 C 363.382 1.72327 1.05583 0
M  V30 3913 C 363.703 0.50149 1.88441 0
M  V30 3914 O 362.973 -0.48448 1.89815 0
M  V30 3915 H 361.553 0.635387 0.3928 0
M  V30 3916 H 364.215 1.91621 0.356019 0
M  V30 3917 H 363.311 2.60426 1.72003 0
M  V30 3918 N 363.613 -0.582584 1.46437 0
M  V30 3919 C 364.561 -1.71272 1.5738 0
M  V30 3920 C 365.555 -1.63524 0.44229 0
M  V30 3921 O 366.761 -1.69016 0.619166 0
M  V30 3922 H 363.136 -0.566273 0.494813 0
M  V30 3923 H 365.107 -1.59174 2.52401 0
M  V30 3924 C 363.856 -3.09658 1.58136 0
M  V30 3925 H 363.179 -3.16291 2.44541 0
M  V30 3926 H 364.619 -3.88494 1.69847 0
M  V30 3927 C 363.078 -3.3547 0.310026 0
M  V30 3928 O 363.608 -3.97199 -0.599683 0
M  V30 3929 N 361.814 -2.89925 0.197901 0
M  V30 3930 H 361.361 -2.39873 0.93909 0
M  V30 3931 H 361.319 -3.07568 -0.65185 0
M  V30 3932 N 365.091 -1.34144 -0.827227 0
M  V30 3933 C 366.331 -1.27603 -1.59677 0
M  V30 3934 C 366.695 0.153035 -1.91389 0
M  V30 3935 O 367.896 0.342566 -2.66608 0
M  V30 3936 C 366.167 -2.13784 -2.86411 0
M  V30 3937 S 367.726 -2.24552 -3.76991 0
M  V30 3938 H 364.544 -0.453789 -0.547354 0
M  V30 3939 H 367.146 -1.69309 -0.977479 0
M  V30 3940 H 365.85 -3.16627 -2.61104 0
M  V30 3941 H 365.381 -1.72959 -3.5334 0
M  V30 3942 H 367.396 -1.41514 -4.75593 0
M  V30 3943 N 366.569 1.04691 -1.17803 0
M  V30 3944 C 367.809 1.79352 -0.980423 0
M  V30 3945 C 368.173 1.85853 0.481958 0
M  V30 3946 O 369.374 2.56656 0.798809 0
M  V30 3947 C 367.645 3.19088 -1.6099 0
M  V30 3948 S 369.204 4.10164 -1.55918 0
M  V30 3949 H 366.022 0.617631 -0.352211 0
M  V30 3950 H 368.624 1.25575 -1.49837 0
M  V30 3951 H 367.328 3.11962 -2.66661 0
M  V30 3952 H 366.859 3.77941 -1.09197 0
M  V30 3953 H 368.874 4.92907 -0.570685 0
M  V30 3954 N 368.047 0.979072 1.23499 0
M  V30 3955 C 368.977 0.537606 2.27227 0
M  V30 3956 C 369.958 -0.428539 1.64613 0
M  V30 3957 O 371.143 -0.322191 1.91509 0
M  V30 3958 C 368.273 -0.162052 3.46922 0
M  V30 3959 C 367.227 0.721242 4.21879 0
M  V30 3960 C 366.553 -0.110555 5.34586 0
M  V30 3961 C 367.853 2.01141 4.82016 0
M  V30 3962 H 369.547 1.40462 2.64406 0
M  V30 3963 H 367.093 0.67684 1.27102 0
M  V30 3964 H 369.046 -0.482192 4.18632 0
M  V30 3965 H 367.77 -1.06351 3.08799 0
M  V30 3966 H 366.429 1.02482 3.51984 0
M  V30 3967 H 366.077 -1.0125 4.92704 0
M  V30 3968 H 365.777 0.477325 5.85658 0
M  V30 3969 H 367.301 -0.425107 6.09118 0
M  V30 3970 H 368.715 1.75612 5.45741 0
M  V30 3971 H 367.112 2.54695 5.43369 0
M  V30 3972 H 368.182 2.69909 4.02836 0
M  V30 3973 N 369.525 -1.3858 0.750561 0
M  V30 3974 C 370.457 -2.29057 0.0810714 0
M  V30 3975 C 371.47 -1.47596 -0.686973 0
M  V30 3976 O 372.659 -1.70495 -0.528563 0
M  V30 3977 C 369.759 -3.26475 -0.909247 0
M  V30 3978 C 368.932 -4.36945 -0.199478 0
M  V30 3979 C 367.991 -5.14572 -1.10011 0
M  V30 3980 O 367.017 -5.66321 -0.57177 0
M  V30 3981 N 368.219 -5.27262 -2.42849 0
M  V30 3982 H 370.984 -2.87153 0.858087 0
M  V30 3983 H 368.545 -1.50328 0.60109 0
M  V30 3984 H 370.537 -3.75285 -1.51471 0
M  V30 3985 H 369.107 -2.69298 -1.58736 0
M  V30 3986 H 368.327 -3.8981 0.586664 0
M  V30 3987 H 369.615 -5.07963 0.291783 0
M  V30 3988 H 369.013 -4.86763 -2.88233 0
M  V30 3989 H 367.57 -5.79456 -2.98453 0
M  V30 3990 N 371.003 -0.499398 -1.49478 0
M  V30 3991 C 372.249 0.0457576 -2.02748 0
M  V30 3992 C 372.582 1.36793 -1.37846 0
M  V30 3993 O 371.857 1.87596 -0.513601 0
M  V30 3994 C 372.14 0.199986 -3.59544 0
M  V30 3995 C 371.993 -1.1452 -4.34977 0
M  V30 3996 C 373.312 0.94137 -4.29914 0
M  V30 3997 H 370.431 0.0151552 -0.736844 0
M  V30 3998 H 373.073 -0.650498 -1.78518 0
M  V30 3999 H 371.223 0.793007 -3.8032 0
M  V30 4000 H 372.895 -1.77697 -4.25701 0
M  V30 4001 H 371.138 -1.73488 -3.97598 0
M  V30 4002 H 371.809 -0.990607 -5.43039 0
M  V30 4003 H 374.285 0.43844 -4.13784 0
M  V30 4004 H 373.161 1.01812 -5.39375 0
M  V30 4005 H 373.422 1.98471 -3.95046 0
M  V30 4006 N 372.481 1.55866 -0.233164 0
M  V30 4007 C 373.709 2.02998 0.399905 0
M  V30 4008 C 374.124 1.11274 1.52524 0
M  V30 4009 O 373.481 0.124528 1.82075 0
M  V30 4010 C 373.532 3.4958 0.920639 0
M  V30 4011 O 373.253 4.37808 -0.159834 0
M  V30 4012 C 374.754 4.12411 1.62578 0
M  V30 4013 H 371.974 0.664006 0.0966281 0
M  V30 4014 H 374.518 2.0143 -0.353013 0
M  V30 4015 H 372.673 3.51727 1.62379 0
M  V30 4016 H 373.087 5.23981 0.23337 0
M  V30 4017 H 374.561 5.16711 1.94201 0
M  V30 4018 H 375.038 3.5809 2.54299 0
M  V30 4019 H 375.644 4.14148 0.967553 0
M  V30 4020 N 373.959 -0.0401083 1.57549 0
M  V30 4021 C 375.206 -0.733125 1.88763 0
M  V30 4022 C 375.534 -1.75946 0.829058 0
M  V30 4023 O 374.789 -1.94949 -0.171323 0
M  V30 4024 C 375.088 -1.44902 3.26708 0
M  V30 4025 C 374.754 -0.559707 4.47413 0
M  V30 4026 C 373.416 -0.314731 4.8017 0
M  V30 4027 C 375.768 0.0549743 5.21171 0
M  V30 4028 C 373.096 0.553886 5.8408 0
M  V30 4029 C 375.448 0.911229 6.26003 0
M  V30 4030 C 374.112 1.16577 6.57241 0
M  V30 4031 H 373.382 -0.268269 0.690733 0
M  V30 4032 H 376.029 0.00679408 1.91499 0
M  V30 4033 H 374.334 -2.26197 3.1991 0
M  V30 4034 H 376.031 -1.99058 3.48105 0
M  V30 4035 H 372.621 -0.760793 4.21794 0
M  V30 4036 H 376.805 -0.121344 4.96152 0
M  V30 4037 H 372.061 0.759518 6.06664 0
M  V30 4038 H 376.235 1.3941 6.82303 0
M  V30 4039 H 373.862 1.84058 7.37582 0
M  V30 4040 N 375.437 -1.54477 -0.31217 0
M  V30 4041 C 376.369 -1.81011 -1.40598 0
M  V30 4042 C 377.382 -0.692546 -1.47335 0
M  V30 4043 O 378.571 -0.969847 -1.49854 0
M  V30 4044 C 375.671 -1.92307 -2.79054 0
M  V30 4045 C 374.844 -3.22594 -2.95384 0
M  V30 4046 C 373.903 -3.24448 -4.1427 0
M  V30 4047 O 372.929 -3.98035 -4.06887 0
M  V30 4048 N 374.131 -2.49042 -5.24365 0
M  V30 4049 H 376.896 -2.75408 -1.18196 0
M  V30 4050 H 374.457 -1.53914 -0.502202 0
M  V30 4051 H 376.449 -1.90962 -3.56813 0
M  V30 4052 H 375.019 -1.04955 -2.94454 0
M  V30 4053 H 374.239 -3.36806 -2.04831 0
M  V30 4054 H 375.527 -4.08593 -3.03198 0
M  V30 4055 H 374.925 -1.88867 -5.33241 0
M  V30 4056 H 373.482 -2.53463 -6.005 0
M  V30 4057 N 376.915 0.57481 -1.46744 0
M  V30 4058 C 377.878 1.66533 -1.57478 0
M  V30 4059 C 378.878 1.54338 -0.451263 0
M  V30 4060 O 380.068 1.58814 -0.715813 0
M  V30 4061 C 377.2 3.05999 -1.50259 0
M  V30 4062 H 378.393 1.58372 -2.54673 0
M  V30 4063 H 375.946 0.793301 -1.34672 0
M  V30 4064 H 376.681 3.19709 -0.543725 0
M  V30 4065 H 376.466 3.16259 -2.31781 0
M  V30 4066 H 377.956 3.8537 -1.60872 0
M  V30 4067 N 378.394 1.34581 0.820102 0
M  V30 4068 C 379.634 1.28448 1.58998 0
M  V30 4069 C 379.998 -0.142883 1.91468 0
M  V30 4070 O 381.199 -0.328422 2.66786 0
M  V30 4071 C 379.47 2.153 2.85273 0
M  V30 4072 S 381.029 2.26548 3.75794 0
M  V30 4073 H 377.847 0.456685 0.54494 0
M  V30 4074 H 380.449 1.69825 0.968487 0
M  V30 4075 H 379.153 3.18008 2.59421 0
M  V30 4076 H 378.684 1.7483 3.52417 0
M  V30 4077 H 380.699 1.44034 4.74835 0
M  V30 4078 N 379.872 -1.04064 1.18357 0
M  V30 4079 C 381.097 -1.81454 1.00445 0
M  V30 4080 C 381.522 -1.82823 -0.442423 0
M  V30 4081 O 380.88 -1.24555 -1.31741 0
M  V30 4082 C 380.928 -3.24925 1.56384 0
M  V30 4083 O 380.032 -4.04856 0.785209 0
M  V30 4084 H 379.373 -0.560604 0.355835 0
M  V30 4085 H 381.903 -1.31059 1.57114 0
M  V30 4086 H 381.913 -3.75702 1.59097 0
M  V30 4087 H 380.588 -3.23244 2.61699 0
M  V30 4088 H 379.165 -3.63537 0.830399 0
M  V30 4089 N 381.35 -0.985608 -1.22978 0
M  V30 4090 C 382.599 -0.652881 -1.90841 0
M  V30 4091 C 382.912 0.817842 -1.77681 0
M  V30 4092 O 384.118 1.26185 -2.40395 0
M  V30 4093 C 382.574 -1.11717 -3.42122 0
M  V30 4094 C 382.182 -2.6126 -3.63933 0
M  V30 4095 C 383.926 -0.85843 -4.1573 0
M  V30 4096 C 381.833 -3.0133 -5.08876 0
M  V30 4097 H 380.763 -0.240491 -0.714619 0
M  V30 4098 H 383.414 -1.1942 -1.39324 0
M  V30 4099 H 381.796 -0.504027 -3.92779 0
M  V30 4100 H 382.97 -3.27858 -3.23799 0
M  V30 4101 H 381.285 -2.84937 -3.03644 0
M  V30 4102 H 383.882 -1.13359 -5.22546 0
M  V30 4103 H 384.225 0.205461 -4.15793 0
M  V30 4104 H 384.758 -1.43341 -3.71077 0
M  V30 4105 H 381.497 -4.06864 -5.13947 0
M  V30 4106 H 381.017 -2.3943 -5.49939 0
M  V30 4107 H 382.696 -2.92224 -5.77247 0
M  V30 4108 N 382.828 1.3818 -0.7579 0
M  V30 4109 C 384.053 2.04827 -0.325679 0
M  V30 4110 C 384.478 1.56788 1.03919 0
M  V30 4111 O 383.836 0.721811 1.66312 0
M  V30 4112 C 383.884 3.58774 -0.362447 0
M  V30 4113 O 382.988 4.07372 0.642033 0
M  V30 4114 H 382.329 0.64833 -0.143402 0
M  V30 4115 H 384.859 1.7677 -1.03023 0
M  V30 4116 H 384.869 4.07434 -0.214844 0
M  V30 4117 H 383.544 3.93096 -1.35824 0
M  V30 4118 H 382.121 3.70068 0.458688 0
M  V30 4119 N 384.306 0.507319 1.49211 0
M  V30 4120 C 385.216 -0.272136 2.33016 0
M  V30 4121 C 386.232 -0.961206 1.45041 0
M  V30 4122 O 387.408 -0.941191 1.78055 0
M  V30 4123 C 384.473 -1.31895 3.20631 0
M  V30 4124 C 383.534 -0.642648 4.24463 0
M  V30 4125 C 382.767 -1.63959 5.07891 0
M  V30 4126 O 382.99 -2.87007 4.92933 0
M  V30 4127 O 381.924 -1.19143 5.8999 0
M  V30 4128 H 385.75 0.413982 3.00865 0
M  V30 4129 H 383.335 0.268556 1.46966 0
M  V30 4130 H 385.217 -1.92446 3.7489 0
M  V30 4131 H 383.892 -1.98788 2.5547 0
M  V30 4132 H 382.799 0.00276252 3.741 0
M  V30 4133 H 384.132 -0.0160534 4.92197 0
M  V30 4134 N 385.784 -1.5574 0.241426 0
M  V30 4135 C 386.747 -2.19877 -0.647063 0
M  V30 4136 C 387.747 -1.16642 -1.10686 0
M  V30 4137 O 388.937 -1.41757 -1.01245 0
M  V30 4138 C 386.069 -2.83797 -1.88871 0
M  V30 4139 H 387.262 -2.99772 -0.087574 0
M  V30 4140 H 384.815 -1.56298 -0.00813574 0
M  V30 4141 H 385.55 -2.07824 -2.48957 0
M  V30 4142 H 385.335 -3.59414 -1.56728 0
M  V30 4143 H 386.825 -3.32898 -2.52129 0
M  V30 4144 N 387.262 0.0317525 -1.57568 0
M  V30 4145 C 388.678 0.38735 -1.54828 0
M  V30 4146 C 388.878 1.7677 -0.967187 0
M  V30 4147 O 387.934 2.45581 -0.587063 0
M  V30 4148 C 389.247 0.291667 -2.99282 0
M  V30 4149 C 390.795 0.368946 -3.10818 0
M  V30 4150 C 391.27 0.302741 -4.56998 0
M  V30 4151 N 392.761 0.361617 -4.61786 0
M  V30 4152 C 393.496 0.333238 -5.72431 0
M  V30 4153 N 392.992 0.257308 -6.92322 0
M  V30 4154 N 394.785 0.382769 -5.60795 0
M  V30 4155 H 386.936 -0.871609 -1.93692 0
M  V30 4156 H 389.199 -0.331161 -0.888277 0
M  V30 4157 H 388.905 -0.656794 -3.45513 0
M  V30 4158 H 388.779 1.08638 -3.61217 0
M  V30 4159 H 391.166 1.30784 -2.64536 0
M  V30 4160 H 391.247 -0.455066 -2.5172 0
M  V30 4161 H 390.891 -0.632473 -5.03947 0
M  V30 4162 H 390.821 1.14482 -5.14005 0
M  V30 4163 H 393.312 0.422923 -3.75526 0
M  V30 4164 H 393.625 0.24068 -7.72425 0
M  V30 4165 H 391.97 0.223396 -6.94641 0
M  V30 4166 H 395.161 0.44006 -4.66027 0
M  V30 4167 H 395.334 0.357184 -6.47015 0
M  V30 4168 N 388.74 1.54641 0.303973 0
M  V30 4169 C 389.97 1.77511 1.05705 0
M  V30 4170 C 390.378 0.533228 1.81531 0
M  V30 4171 O 389.721 -0.506423 1.76582 0
M  V30 4172 C 389.783 2.92779 2.08617 0
M  V30 4173 C 389.447 4.30977 1.52013 0
M  V30 4174 C 390.444 5.11115 0.9517 0
M  V30 4175 C 388.129 4.77571 1.55665 0
M  V30 4176 C 390.123 6.35966 0.427327 0
M  V30 4177 C 387.81 6.02384 1.02841 0
M  V30 4178 C 388.808 6.81417 0.464713 0
M  V30 4179 O 388.496 8.03881 -0.0555283 0
M  V30 4180 H 388.228 0.59579 0.319391 0
M  V30 4181 H 390.782 2.02401 0.349712 0
M  V30 4182 H 389.012 2.63506 2.83022 0
M  V30 4183 H 390.701 3.03252 2.69802 0
M  V30 4184 H 391.467 4.76264 0.916407 0
M  V30 4185 H 387.346 4.16085 1.9848 0
M  V30 4186 H 390.89 6.97599 -0.0133062 0
M  V30 4187 H 386.787 6.36723 1.06084 0
M  V30 4188 H 387.555 8.18479 0.0580522 0
M  V30 4189 N 390.218 -0.567019 1.47046 0
M  V30 4190 C 391.148 -1.68482 1.61667 0
M  V30 4191 C 392.129 -1.6358 0.466418 0
M  V30 4192 O 393.314 -1.81354 0.694574 0
M  V30 4193 C 390.444 -3.07124 1.62148 0
M  V30 4194 C 389.398 -3.26867 2.76301 0
M  V30 4195 C 388.724 -4.66196 2.61849 0
M  V30 4196 C 390.024 -3.13186 4.17986 0
M  V30 4197 H 391.718 -1.56502 2.5524 0
M  V30 4198 H 389.264 -0.751486 1.22836 0
M  V30 4199 H 391.217 -3.8516 1.70968 0
M  V30 4200 H 389.941 -3.2004 0.651287 0
M  V30 4201 H 388.6 -2.51237 2.66975 0
M  V30 4202 H 388.248 -4.75898 1.62879 0
M  V30 4203 H 387.948 -4.80356 3.38425 0
M  V30 4204 H 389.472 -5.46379 2.72584 0
M  V30 4205 H 390.886 -3.81049 4.2834 0
M  V30 4206 H 389.283 -3.3886 4.95272 0
M  V30 4207 H 390.353 -2.10057 4.3704 0
M  V30 4208 N 391.696 -1.35014 -0.812953 0
M  V30 4209 C 392.926 -1.30841 -1.59888 0
M  V30 4210 C 393.334 0.117576 -1.88834 0
M  V30 4211 O 392.677 1.07807 -1.48739 0
M  V30 4212 C 392.739 -2.0412 -2.95931 0
M  V30 4213 C 392.403 -3.53336 -2.89832 0
M  V30 4214 C 393.4 -4.48052 -2.63714 0
M  V30 4215 C 391.085 -3.95894 -3.0915 0
M  V30 4216 C 393.079 -5.833 -2.56982 0
M  V30 4217 C 390.766 -5.31239 -3.0204 0
M  V30 4218 C 391.764 -6.24754 -2.75991 0
M  V30 4219 O 391.452 -7.57617 -2.68833 0
M  V30 4220 H 391.184 -0.451215 -0.50337 0
M  V30 4221 H 393.738 -1.78354 -1.01877 0
M  V30 4222 H 391.968 -1.51235 -3.559 0
M  V30 4223 H 393.657 -1.93107 -3.57022 0
M  V30 4224 H 394.423 -4.16492 -2.48515 0
M  V30 4225 H 390.302 -3.23495 -3.28438 0
M  V30 4226 H 393.846 -6.56263 -2.36569 0
M  V30 4227 H 389.743 -5.62415 -3.16796 0
M  V30 4228 H 390.511 -7.67469 -2.84487 0
M  V30 4229 N 393.175 1.03435 -1.18907 0
M  V30 4230 C 394.452 1.73778 -0.89781 0
M  V30 4231 C 394.832 2.02458 0.597832 0
M  V30 4232 O 394.18 1.67482 1.55441 0
M  V30 4233 C 394.39 3.01845 -1.75187 0
M  V30 4234 C 395.738 3.7546 -1.9828 0
M  V30 4235 O 396.762 3.11759 -1.72293 0
M  V30 4236 O 395.621 4.89966 -2.42065 0
M  V30 4237 H 392.715 0.75651 -0.334098 0
M  V30 4238 H 395.261 1.09444 -1.29693 0
M  V30 4239 H 394.033 2.76836 -2.76545 0
M  V30 4240 H 393.656 3.73919 -1.35167 0
M  V30 4241 N 394.653 0.992116 1.22453 0
M  V30 4242 C 395.585 0.500024 2.23679 0
M  V30 4243 C 396.598 -0.404463 1.57696 0
M  V30 4244 O 397.787 -0.206722 1.77299 0
M  V30 4245 C 394.887 -0.294711 3.37616 0
M  V30 4246 C 394.06 0.605723 4.33186 0
M  V30 4247 C 393.119 -0.13717 5.26021 0
M  V30 4248 O 392.145 0.477164 5.67196 0
M  V30 4249 N 393.347 -1.4197 5.62872 0
M  V30 4250 H 396.112 1.37045 2.66531 0
M  V30 4251 H 393.673 0.866741 1.36745 0
M  V30 4252 H 395.665 -0.800329 3.96707 0
M  V30 4253 H 394.235 -1.06623 2.93854 0
M  V30 4254 H 393.455 1.29202 3.72425 0
M  V30 4255 H 394.743 1.21896 4.93983 0
M  V30 4256 H 394.141 -1.94015 5.31389 0
M  V30 4257 H 392.698 -1.87052 6.24383 0
M  V30 4258 N 396.131 -1.37776 0.765217 0
M  V30 4259 C 397.061 -2.32945 0.160953 0
M  V30 4260 C 398.042 -1.55454 -0.690516 0
M  V30 4261 O 399.227 -1.83721 -0.629318 0
M  V30 4262 C 396.357 -3.39669 -0.724031 0
M  V30 4263 C 395.311 -4.27992 0.0256173 0
M  V30 4264 C 394.637 -5.25673 -0.978383 0
M  V30 4265 C 395.937 -5.08309 1.20082 0
M  V30 4266 H 397.631 -2.83728 0.955969 0
M  V30 4267 H 395.177 -1.36416 0.461149 0
M  V30 4268 H 397.13 -4.05219 -1.15652 0
M  V30 4269 H 395.854 -2.87396 -1.5515 0
M  V30 4270 H 394.513 -3.63964 0.438812 0
M  V30 4271 H 394.161 -4.69682 -1.80022 0
M  V30 4272 H 393.861 -5.85625 -0.481378 0
M  V30 4273 H 395.385 -5.94098 -1.40995 0
M  V30 4274 H 396.799 -5.67034 0.845307 0
M  V30 4275 H 395.196 -5.77554 1.62947 0
M  V30 4276 H 396.266 -4.41365 2.00811 0
M  V30 4277 N 397.609 -0.515225 -1.4894 0
M  V30 4278 C 398.572 0.244681 -2.2789 0
M  V30 4279 C 399.572 0.881166 -1.34507 0
M  V30 4280 O 400.762 0.743497 -1.57537 0
M  V30 4281 C 397.894 1.35247 -3.12923 0
M  V30 4282 H 399.087 -0.448289 -2.96531 0
M  V30 4283 H 396.64 -0.270656 -1.53939 0
M  V30 4284 H 397.375 2.07916 -2.48881 0
M  V30 4285 H 397.16 0.901374 -3.81599 0
M  V30 4286 H 398.65 1.88737 -3.72516 0
M  V30 4287 N 399.087 1.5561 -0.249682 0
M  V30 4288 C 400.315 2.03411 0.378352 0
M  V30 4289 C 400.73 1.12886 1.51335 0
M  V30 4290 O 400.087 0.143833 1.81932 0
M  V30 4291 C 400.138 3.50537 0.88351 0
M  V30 4292 O 399.859 4.37614 -0.20626 0
M  V30 4293 C 401.36 4.14113 1.58195 0
M  V30 4294 H 398.58 0.664994 0.08958 0
M  V30 4295 H 401.124 2.01044 -0.374357 0
M  V30 4296 H 399.279 3.5343 1.58639 0
M  V30 4297 H 399.693 5.24199 0.177782 0
M  V30 4298 H 401.167 5.18741 1.8871 0
M  V30 4299 H 401.644 3.60767 2.50487 0
M  V30 4300 H 402.25 4.15151 0.923573 0
M  V30 4301 N 400.565 -0.0233959 1.57583 0
M  V30 4302 C 401.814 -0.712133 1.8871 0
M  V30 4303 C 402.127 -1.76217 0.848944 0
M  V30 4304 O 403.333 -2.50389 1.04964 0
M  V30 4305 C 401.789 -1.3177 3.3491 0
M  V30 4306 C 401.397 -0.303715 4.46969 0
M  V30 4307 C 403.141 -1.98598 3.75179 0
M  V30 4308 C 401.048 -0.917945 5.84233 0
M  V30 4309 H 399.978 -0.269735 0.704101 0
M  V30 4310 H 402.629 0.0333114 1.8347 0
M  V30 4311 H 401.011 -2.11304 3.34913 0
M  V30 4312 H 402.185 0.465325 4.58445 0
M  V30 4313 H 400.5 0.2628 4.1557 0
M  V30 4314 H 403.097 -2.45416 4.75053 0
M  V30 4315 H 403.44 -2.80659 3.07468 0
M  V30 4316 H 403.973 -1.25831 3.77374 0
M  V30 4317 H 400.712 -0.136633 6.55358 0
M  V30 4318 H 400.232 -1.65669 5.76467 0
M  V30 4319 H 401.911 -1.4236 6.31144 0
M  V30 4320 N 402.043 -1.548 -0.295768 0
M  V30 4321 C 403.283 -1.76069 -1.03823 0
M  V30 4322 C 403.647 -0.537992 -1.84309 0
M  V30 4323 O 404.848 -0.628514 -2.61349 0
M  V30 4324 C 403.119 -3.01705 -1.91596 0
M  V30 4325 S 404.678 -3.43998 -2.72416 0
M  V30 4326 H 401.496 -0.618852 -0.350062 0
M  V30 4327 H 404.098 -1.93009 -0.31106 0
M  V30 4328 H 402.802 -3.88812 -1.31351 0
M  V30 4329 H 402.333 -2.87366 -2.68671 0
M  V30 4330 H 404.348 -3.0148 -3.94112 0
M  V30 4331 N 403.521 0.559213 -1.47345 0
M  V30 4332 C 404.932 1.14134 -1.47751 0
M  V30 4333 C 405.283 1.94834 -0.231103 0
M  V30 4334 O 404.408 2.05957 0.664137 0
M  V30 4335 C 405.003 2.07653 -2.67705 0
M  V30 4336 C 403.562 2.61141 -2.71076 0
M  V30 4337 C 402.709 1.3748 -2.40821 0
M  V30 4338 H 405.66 0.345917 -1.54884 0
M  V30 4339 H 405.681 2.91497 -2.44561 0
M  V30 4340 H 405.193 1.4889 -3.58404 0
M  V30 4341 H 403.294 3.23707 -1.84511 0
M  V30 4342 H 403.407 3.02272 -3.7171 0
M  V30 4343 H 401.771 1.68086 -1.91362 0
M  V30 4344 H 402.554 0.805135 -3.33725 0
M  V30 4345 N 404.999 1.35443 0.805782 0
M  V30 4346 C 406.248 1.28097 1.55801 0
M  V30 4347 C 406.561 -0.142428 1.95081 0
M  V30 4348 O 407.767 -0.33817 2.69386 0
M  V30 4349 C 406.223 2.24653 2.81174 0
M  V30 4350 C 405.831 3.72342 2.49129 0
M  V30 4351 C 407.575 2.2625 3.59181 0
M  V30 4352 C 405.482 4.60719 3.70799 0
M  V30 4353 H 404.412 0.475937 0.584808 0
M  V30 4354 H 407.063 1.60712 0.885661 0
M  V30 4355 H 405.445 1.85011 3.50124 0
M  V30 4356 H 406.619 4.20624 1.88181 0
M  V30 4357 H 404.934 3.73361 1.84366 0
M  V30 4358 H 407.531 2.89495 4.49552 0
M  V30 4359 H 407.874 1.26647 3.96568 0
M  V30 4360 H 408.407 2.64426 2.97193 0
M  V30 4361 H 405.146 5.61324 3.3852 0
M  V30 4362 H 404.666 4.17163 4.3097 0
M  V30 4363 H 406.345 4.76182 4.38018 0
M  V30 4364 N 406.477 -1.02803 1.19454 0
M  V30 4365 C 407.723 -1.76478 0.999171 0
M  V30 4366 C 408.056 -1.88456 -0.468828 0
M  V30 4367 O 407.331 -1.40198 -1.34814 0
M  V30 4368 C 407.614 -3.19044 1.66981 0
M  V30 4369 C 407.467 -3.14932 3.21151 0
M  V30 4370 C 408.786 -4.17456 1.39349 0
M  V30 4371 H 405.905 -0.640614 0.364393 0
M  V30 4372 H 408.547 -1.20005 1.47305 0
M  V30 4373 H 406.697 -3.67263 1.2669 0
M  V30 4374 H 408.369 -2.74605 3.70661 0
M  V30 4375 H 406.612 -2.52625 3.52652 0
M  V30 4376 H 407.283 -4.1566 3.63223 0
M  V30 4377 H 409.759 -3.77842 1.74283 0
M  V30 4378 H 408.635 -5.154 1.88823 0
M  V30 4379 H 408.896 -4.40949 0.318813 0
M  V30 4380 N 407.956 -0.998596 -1.21925 0
M  V30 4381 C 408.889 -0.498517 -2.22688 0
M  V30 4382 C 409.867 0.444301 -1.56412 0
M  V30 4383 O 411.051 0.368518 -1.84863 0
M  V30 4384 C 408.178 0.276639 -3.37568 0
M  V30 4385 C 407.224 -0.61302 -4.22071 0
M  V30 4386 S 408.057 -2.07168 -4.93803 0
M  V30 4387 C 409.213 -1.30617 -6.12119 0
M  V30 4388 H 409.446 -1.35234 -2.64762 0
M  V30 4389 H 406.979 -0.806018 -1.31692 0
M  V30 4390 H 408.937 0.717817 -4.04175 0
M  V30 4391 H 407.598 1.10581 -2.93991 0
M  V30 4392 H 406.791 -0.0162909 -5.03997 0
M  V30 4393 H 406.393 -0.991202 -3.60626 0
M  V30 4394 H 408.685 -0.57675 -6.75041 0
M  V30 4395 H 409.628 -2.10091 -6.76215 0
M  V30 4396 H 410.036 -0.816957 -5.58557 0
M  V30 4397 N 409.434 1.37368 -0.772513 0
M  V30 4398 C 410.397 2.28601 -0.165541 0
M  V30 4399 C 411.397 1.48062 0.627238 0
M  V30 4400 O 412.587 1.68268 0.450715 0
M  V30 4401 C 409.719 3.32023 0.772897 0
M  V30 4402 H 410.912 2.83787 -0.969787 0
M  V30 4403 H 408.465 1.46647 -0.540775 0
M  V30 4404 H 409.2 2.81962 1.60212 0
M  V30 4405 H 408.985 3.91555 0.206585 0
M  V30 4406 H 410.475 4.00197 1.19298 0
M  V30 4407 N 410.912 0.523116 1.48665 0
M  V30 4408 C 411.842 -0.23231 2.32342 0
M  V30 4409 C 412.823 -0.941637 1.41659 0
M  V30 4410 O 414.008 -0.928751 1.70552 0
M  V30 4411 C 411.138 -1.28387 3.22698 0
M  V30 4412 C 410.092 -0.693098 4.22351 0
M  V30 4413 C 409.418 -1.8468 5.01794 0
M  V30 4414 C 410.718 0.33063 5.21252 0
M  V30 4415 H 412.412 0.466192 2.95748 0
M  V30 4416 H 409.958 0.225643 1.42221 0
M  V30 4417 H 411.911 -1.82024 3.80059 0
M  V30 4418 H 410.635 -2.01186 2.57278 0
M  V30 4419 H 409.294 -0.178299 3.66166 0
M  V30 4420 H 408.942 -2.56301 4.32804 0
M  V30 4421 H 408.642 -1.45747 5.69238 0
M  V30 4422 H 410.166 -2.38709 5.62006 0
M  V30 4423 H 411.58 -0.118407 5.73178 0
M  V30 4424 H 409.977 0.636974 5.9671 0
M  V30 4425 H 411.047 1.23883 4.68808 0
M  V30 4426 N 412.39 -1.55475 0.257931 0
M  V30 4427 C 413.615 -2.04064 -0.370488 0
M  V30 4428 C 414.04 -1.13565 -1.49948 0
M  V30 4429 O 413.398 -0.130781 -1.80828 0
M  V30 4430 C 413.446 -3.50554 -0.845237 0
M  V30 4431 O 412.55 -3.63173 -1.95394 0
M  V30 4432 H 411.891 -0.659257 -0.0792243 0
M  V30 4433 H 414.421 -2.00903 0.387212 0
M  V30 4434 H 414.431 -3.91588 -1.14555 0
M  V30 4435 H 413.106 -4.15896 -0.0191259 0
M  V30 4436 H 411.683 -3.34039 -1.65748 0
M  V30 4437 N 413.868 0.0150385 -1.57593 0
M  V30 4438 C 414.831 0.995996 -2.06428 0
M  V30 4439 C 415.831 1.2818 -0.970903 0
M  V30 4440 O 417.021 1.22949 -1.23406 0
M  V30 4441 C 414.153 2.32506 -2.49307 0
M  V30 4442 H 415.346 0.573873 -2.94358 0
M  V30 4443 H 412.899 0.262186 -1.54085 0
M  V30 4444 H 413.634 2.79438 -1.64575 0
M  V30 4445 H 413.419 2.13087 -3.29145 0
M  V30 4446 H 414.909 3.02906 -2.87468 0
M  V30 4447 N 415.346 1.54954 0.287554 0
M  V30 4448 C 416.309 1.86076 1.33823 0
M  V30 4449 C 417.309 0.734414 1.43049 0
M  V30 4450 O 418.499 1.00266 1.42452 0
M  V30 4451 C 415.631 2.05305 2.72144 0
M  V30 4452 H 416.824 2.79984 1.07465 0
M  V30 4453 H 414.377 1.47223 0.524902 0
M  V30 4454 H 415.112 1.1373 3.03704 0
M  V30 4455 H 414.897 2.873 2.66836 0
M  V30 4456 H 416.387 2.30706 3.48087 0
M  V30 4457 N 416.824 -0.551391 1.4764 0
M  V30 4458 C 418.049 -1.33837 1.58437 0
M  V30 4459 C 418.474 -1.866 0.237063 0
M  V30 4460 O 417.832 -1.6328 -0.787994 0
M  V30 4461 C 417.88 -2.48014 2.61766 0
M  V30 4462 O 416.984 -3.50419 2.1744 0
M  V30 4463 H 416.325 -0.397299 0.532024 0
M  V30 4464 H 418.855 -0.665759 1.93465 0
M  V30 4465 H 418.865 -2.94503 2.82369 0
M  V30 4466 H 417.54 -2.08969 3.5959 0
M  V30 4467 H 416.117 -3.10196 2.06961 0
M  V30 4468 N 418.302 -1.35869 -0.798587 0
M  V30 4469 C 419.713 -1.26498 -1.37314 0
M  V30 4470 C 420.064 0.0991899 -1.95949 0
M  V30 4471 O 419.189 1.0004 -1.91888 0
M  V30 4472 C 419.784 -2.29054 -2.49639 0
M  V30 4473 C 418.343 -2.234 -3.02935 0
M  V30 4474 C 417.49 -2.14329 -1.75949 0
M  V30 4475 H 420.441 -1.46881 -0.600971 0
M  V30 4476 H 420.462 -1.92166 -3.28409 0
M  V30 4477 H 419.974 -3.2833 -2.06933 0
M  V30 4478 H 418.075 -1.27562 -3.50084 0
M  V30 4479 H 418.188 -3.15703 -3.60372 0
M  V30 4480 H 416.552 -1.60435 -1.9782 0
M  V30 4481 H 417.335 -3.15477 -1.35384 0
M  V30 4482 N 419.78 1.02168 -1.19998 0
M  V30 4483 C 421.027 1.75685 -1.00702 0
M  V30 4484 C 421.355 1.88947 0.461426 0
M  V30 4485 O 420.61 1.40832 1.35885 0
M  V30 4486 C 420.909 3.18081 -1.62969 0
M  V30 4487 C 420.575 3.24809 -3.12746 0
M  V30 4488 C 419.237 3.26352 -3.53621 0
M  V30 4489 C 421.589 3.23379 -4.08749 0
M  V30 4490 C 418.917 3.2413 -4.89036 0
M  V30 4491 C 421.269 3.22698 -5.44104 0
M  V30 4492 C 419.933 3.22542 -5.84399 0
M  V30 4493 H 419.203 0.642877 -0.368496 0
M  V30 4494 H 421.85 1.19865 -1.49348 0
M  V30 4495 H 420.155 3.77027 -1.06573 0
M  V30 4496 H 421.852 3.73648 -1.45561 0
M  V30 4497 H 418.442 3.2434 -2.80181 0
M  V30 4498 H 422.626 3.21361 -3.78207 0
M  V30 4499 H 417.882 3.22338 -5.19527 0
M  V30 4500 H 422.056 3.20543 -6.18244 0
M  V30 4501 H 419.683 3.20575 -6.89301 0
M  V30 4502 N 421.258 1.00505 1.21394 0
M  V30 4503 C 422.488 0.705584 1.94178 0
M  V30 4504 C 422.896 -0.735846 1.74304 0
M  V30 4505 O 422.239 -1.50954 1.04683 0
M  V30 4506 C 422.301 0.94689 3.46806 0
M  V30 4507 C 421.965 2.37517 3.90429 0
M  V30 4508 C 422.962 3.35539 3.97127 0
M  V30 4509 C 420.647 2.71284 4.22742 0
M  V30 4510 C 422.641 4.65395 4.3553 0
M  V30 4511 C 420.328 4.01356 4.60822 0
M  V30 4512 C 421.326 4.98223 4.67186 0
M  V30 4513 O 421.014 6.25969 5.04399 0
M  V30 4514 H 420.746 0.259216 0.624326 0
M  V30 4515 H 423.3 1.34592 1.55159 0
M  V30 4516 H 421.53 0.249386 3.85895 0
M  V30 4517 H 423.219 0.640804 4.0081 0
M  V30 4518 H 423.985 3.10786 3.7234 0
M  V30 4519 H 419.864 1.96581 4.16985 0
M  V30 4520 H 423.408 5.41002 4.40412 0
M  V30 4521 H 419.305 4.25893 4.85063 0
M  V30 4522 H 420.073 6.30085 5.22431 0
M  V30 4523 N 422.737 -1.36956 0.779787 0
M  V30 4524 C 424.153 -1.52817 0.460342 0
M  V30 4525 C 424.353 -1.7361 -1.02283 0
M  V30 4526 O 423.409 -1.76207 -1.80852 0
M  V30 4527 C 424.722 -2.71983 1.28241 0
M  V30 4528 C 426.27 -2.85849 1.27512 0
M  V30 4529 C 426.745 -4.08008 2.08072 0
M  V30 4530 N 428.236 -4.15135 2.05467 0
M  V30 4531 C 428.971 -5.08711 2.64577 0
M  V30 4532 N 428.467 -6.07792 3.32506 0
M  V30 4533 N 430.26 -5.01254 2.54363 0
M  V30 4534 H 422.411 -1.21713 1.74068 0
M  V30 4535 H 424.674 -0.593294 0.739396 0
M  V30 4536 H 424.38 -2.63109 2.33381 0
M  V30 4537 H 424.254 -3.65882 0.917088 0
M  V30 4538 H 426.641 -2.94189 0.231686 0
M  V30 4539 H 426.722 -1.92886 1.68014 0
M  V30 4540 H 426.366 -4.00429 3.12441 0
M  V30 4541 H 426.296 -5.001 1.64947 0
M  V30 4542 H 428.787 -3.44189 1.5602 0
M  V30 4543 H 429.1 -6.75739 3.74963 0
M  V30 4544 H 427.445 -6.08047 3.36606 0
M  V30 4545 H 430.636 -4.22795 2.00902 0
M  V30 4546 H 430.809 -5.73995 3.00722 0
M  V30 4547 N 424.215 -0.530993 -1.48385 0
M  V30 4548 C 425.463 0.00273189 -2.021 0
M  V30 4549 C 425.784 1.34672 -1.41027 0
M  V30 4550 O 425.054 1.8724 -0.576012 0
M  V30 4551 H 423.634 0.00399774 -0.746989 0
M  V30 4552 H 426.296 -0.695054 -1.82085 0
M  V30 4553 H 425.392 0.11031 -3.11905 0
M  V30 4554 N 425.693 1.55336 -0.266172 0
M  V30 4555 C 426.923 2.03506 0.356239 0
M  V30 4556 C 427.331 1.14426 1.50676 0
M  V30 4557 O 426.674 0.155043 1.83045 0
M  V30 4558 C 426.736 3.47848 0.90785 0
M  V30 4559 C 426.4 4.56861 -0.112888 0
M  V30 4560 C 427.397 5.11528 -0.929264 0
M  V30 4561 C 425.082 5.01704 -0.244546 0
M  V30 4562 C 427.076 6.09549 -1.86357 0
M  V30 4563 C 424.763 5.99553 -1.18234 0
M  V30 4564 C 425.761 6.53356 -1.99036 0
M  V30 4565 O 425.449 7.49293 -2.91231 0
M  V30 4566 H 425.181 0.670444 0.08649 0
M  V30 4567 H 427.735 2.01598 -0.39337 0
M  V30 4568 H 425.965 3.46967 1.70737 0
M  V30 4569 H 427.654 3.79407 1.44239 0
M  V30 4570 H 428.42 4.77701 -0.838237 0
M  V30 4571 H 424.299 4.59477 0.374359 0
M  V30 4572 H 427.843 6.51469 -2.49467 0
M  V30 4573 H 423.74 6.32799 -1.27421 0
M  V30 4574 H 424.508 7.66978 -2.8581 0
M  V30 4575 N 427.171 -0.0066808 1.57599 0
M  V30 4576 C 428.417 -0.693947 1.90558 0
M  V30 4577 C 428.75 -1.73792 0.866594 0
M  V30 4578 O 428.025 -1.94156 -0.115548 0
M  V30 4579 C 428.308 -1.34317 3.34112 0
M  V30 4580 C 428.161 -0.311189 4.48722 0
M  V30 4581 C 429.48 -2.27116 3.7697 0
M  V30 4582 H 426.599 -0.250803 0.693013 0
M  V30 4583 H 429.241 0.043242 1.89951 0
M  V30 4584 H 427.391 -1.9715 3.3476 0
M  V30 4585 H 429.063 0.316944 4.6021 0
M  V30 4586 H 427.306 0.367253 4.32243 0
M  V30 4587 H 427.977 -0.804366 5.46108 0
M  V30 4588 H 430.453 -1.74306 3.77831 0
M  V30 4589 H 429.329 -2.69511 4.78179 0
M  V30 4590 H 429.59 -3.14743 3.10466 0
M  V30 4591 N 428.649 -1.55105 -0.279332 0
M  V30 4592 C 429.874 -1.7976 -1.03446 0
M  V30 4593 C 430.299 -0.565952 -1.79384 0
M  V30 4594 O 429.657 0.484259 -1.74713 0
M  V30 4595 C 429.705 -3.0179 -1.97371 0
M  V30 4596 O 428.809 -2.76432 -3.06038 0
M  V30 4597 H 428.15 -0.594334 -0.29608 0
M  V30 4598 H 430.68 -2.02235 -0.310165 0
M  V30 4599 H 430.69 -3.30351 -2.39441 0
M  V30 4600 H 429.365 -3.91085 -1.4151 0
M  V30 4601 H 427.942 -2.58949 -2.68328 0
M  V30 4602 N 430.127 0.543554 -1.4793 0
M  V30 4603 C 431.404 1.30458 -1.4574 0
M  V30 4604 C 431.784 2.1048 -0.161692 0
M  V30 4605 O 431.132 2.11831 0.856734 0
M  V30 4606 C 431.342 2.19754 -2.71126 0
M  V30 4607 C 432.69 2.80334 -3.18901 0
M  V30 4608 O 433.714 2.30049 -2.71948 0
M  V30 4609 O 432.573 3.71766 -4.00565 0
M  V30 4610 H 429.667 0.588117 -0.581418 0
M  V30 4611 H 432.213 0.561328 -1.60147 0
M  V30 4612 H 430.985 1.60316 -3.56952 0
M  V30 4613 H 430.608 3.01351 -2.59371 0
M  V30 4614 N 431.605 1.3629 0.791371 0
M  V30 4615 C 432.854 1.29742 1.54434 0
M  V30 4616 C 433.167 -0.121729 1.95221 0
M  V30 4617 O 434.373 -0.309579 2.69729 0
M  V30 4618 C 432.829 2.27623 2.78776 0
M  V30 4619 C 432.437 3.74963 2.45166 0
M  V30 4620 C 434.181 2.30047 3.56761 0
M  V30 4621 C 432.088 4.64626 3.65891 0
M  V30 4622 H 431.018 0.482113 0.579727 0
M  V30 4623 H 433.669 1.61642 0.868565 0
M  V30 4624 H 432.051 1.88714 3.48142 0
M  V30 4625 H 433.225 4.22596 1.83709 0
M  V30 4626 H 431.54 3.75295 1.80396 0
M  V30 4627 H 434.137 2.94247 4.46456 0
M  V30 4628 H 434.48 1.30846 3.95203 0
M  V30 4629 H 435.013 2.67563 2.94372 0
M  V30 4630 H 431.752 5.64883 3.32547 0
M  V30 4631 H 431.272 4.2171 4.26521 0
M  V30 4632 H 432.951 4.80801 4.32943 0
M  V30 4633 N 433.083 -1.0153 1.20538 0
M  V30 4634 C 434.36 -1.72327 0.925343 0
M  V30 4635 C 434.74 -2.03383 -0.565547 0
M  V30 4636 O 434.088 -1.69934 -1.52757 0
M  V30 4637 C 434.298 -2.9902 1.79967 0
M  V30 4638 C 435.646 -3.72258 2.04228 0
M  V30 4639 O 436.67 -3.08979 1.77231 0
M  V30 4640 O 435.529 -4.86053 2.4983 0
M  V30 4641 H 432.623 -0.751099 0.346092 0
M  V30 4642 H 435.169 -1.07366 1.31417 0
M  V30 4643 H 433.941 -2.72402 2.80915 0
M  V30 4644 H 433.564 -3.71721 1.41099 0
M  V30 4645 N 434.561 -1.01147 -1.20859 0
M  V30 4646 C 435.801 -0.706331 -1.91808 0
M  V30 4647 C 436.165 0.749736 -1.76757 0
M  V30 4648 O 437.366 1.16716 -2.42138 0
M  V30 4649 C 435.637 -1.12371 -3.39275 0
M  V30 4650 S 437.196 -0.939764 -4.28619 0
M  V30 4651 H 434.014 -0.257665 -0.662669 0
M  V30 4652 H 436.616 -1.29766 -1.46223 0
M  V30 4653 H 435.32 -2.17943 -3.47749 0
M  V30 4654 H 434.851 -0.524952 -3.89882 0
M  V30 4655 H 436.866 0.159556 -4.95943 0
M  V30 4656 N 436.039 1.36541 -0.78704 0
M  V30 4657 C 437.455 1.52571 -0.46844 0
M  V30 4658 C 437.655 1.7415 1.01361 0
M  V30 4659 O 436.711 1.77163 1.79915 0
M  V30 4660 C 438.024 2.71299 -1.29682 0
M  V30 4661 C 439.572 2.85169 -1.29027 0
M  V30 4662 C 440.047 4.06898 -2.10233 0
M  V30 4663 N 441.538 4.1404 -2.07666 0
M  V30 4664 C 442.273 5.07301 -2.67271 0
M  V30 4665 N 441.769 6.06021 -3.35724 0
M  V30 4666 N 443.562 4.99898 -2.57018 0
M  V30 4667 H 435.713 1.20788 -1.74711 0
M  V30 4668 H 437.976 0.589364 -0.742532 0
M  V30 4669 H 437.682 2.61868 -2.34773 0
M  V30 4670 H 437.556 3.6539 -0.936479 0
M  V30 4671 H 439.943 2.94062 -0.247284 0
M  V30 4672 H 440.024 1.91992 -1.69035 0
M  V30 4673 H 439.668 3.98766 -3.1456 0
M  V30 4674 H 439.598 4.99218 -1.67597 0
M  V30 4675 H 442.089 3.43357 -1.57843 0
M  V30 4676 H 442.402 6.73741 -3.78541 0
M  V30 4677 H 440.747 6.06253 -3.39826 0
M  V30 4678 H 443.938 4.21724 -2.03142 0
M  V30 4679 H 444.111 5.72392 -3.03761 0
M  V30 4680 N 437.518 0.538854 1.48102 0
M  V30 4681 C 438.764 0.0161732 2.03394 0
M  V30 4682 C 439.119 -1.31154 1.40771 0
M  V30 4683 O 438.412 -1.83613 0.547421 0
M  V30 4684 C 438.606 -0.153808 3.57069 0
M  V30 4685 C 438.435 1.15588 4.34591 0
M  V30 4686 C 437.205 1.71818 4.75191 0
M  V30 4687 C 439.403 2.06867 4.70861 0
M  V30 4688 N 437.385 2.96983 5.37284 0
M  V30 4689 C 438.756 3.16609 5.33066 0
M  V30 4690 C 440.811 2.07085 4.52791 0
M  V30 4691 C 439.514 4.26645 5.79109 0
M  V30 4692 C 441.54 3.16121 4.99821 0
M  V30 4693 C 440.902 4.24582 5.62058 0
M  V30 4694 H 437.001 0.0476346 0.780548 0
M  V30 4695 H 439.585 0.722094 1.80815 0
M  V30 4696 H 437.756 -0.828825 3.79454 0
M  V30 4697 H 439.488 -0.676896 3.98999 0
M  V30 4698 H 436.243 1.25845 4.56574 0
M  V30 4699 H 436.667 3.60732 5.72889 0
M  V30 4700 H 441.309 1.24522 4.04047 0
M  V30 4701 H 439.027 5.0998 6.26854 0
M  V30 4702 H 442.613 3.17355 4.87624 0
M  V30 4703 H 441.493 5.07562 5.97788 0
M  V30 4704 N 438.996 -1.55193 0.274407 0
M  V30 4705 C 440.244 -1.99187 -0.341902 0
M  V30 4706 C 440.565 -1.16422 -1.56431 0
M  V30 4707 O 439.835 -0.253573 -1.94252 0
M  V30 4708 H 438.415 -0.735721 -0.129317 0
M  V30 4709 H 441.077 -1.91168 0.379578 0
M  V30 4710 H 440.173 -3.05629 -0.632253 0
M  V30 4711 N 440.474 -0.00167713 -1.576 0
M  V30 4712 C 441.72 0.683832 -1.90923 0
M  V30 4713 C 442.053 1.7333 -0.875799 0
M  V30 4714 O 441.328 1.94215 0.10525 0
M  V30 4715 C 441.611 1.32543 -3.3482 0
M  V30 4716 C 441.464 0.287387 -4.48881 0
M  V30 4717 C 442.783 2.25114 -3.78169 0
M  V30 4718 H 439.902 0.247125 -0.694333 0
M  V30 4719 H 442.544 -0.0533149 -1.89925 0
M  V30 4720 H 440.694 1.95372 -3.35801 0
M  V30 4721 H 442.366 -0.341346 -4.60035 0
M  V30 4722 H 440.609 -0.39017 -4.32042 0
M  V30 4723 H 441.28 0.775393 -5.46527 0
M  V30 4724 H 443.756 1.723 -3.7875 0
M  V30 4725 H 442.632 2.66971 -4.79602 0
M  V30 4726 H 442.893 3.13092 -3.12131 0
M  V30 4727 N 441.952 1.55251 0.271103 0
M  V30 4728 C 443.201 1.75151 1.00025 0
M  V30 4729 C 443.514 0.561041 1.87381 0
M  V30 4730 O 444.72 0.642506 2.63788 0
M  V30 4731 C 443.176 3.09999 1.82835 0
M  V30 4732 C 442.784 4.3662 1.00336 0
M  V30 4733 C 444.528 3.39249 2.55168 0
M  V30 4734 C 442.435 5.62506 1.82595 0
M  V30 4735 H 441.365 0.652877 0.377183 0
M  V30 4736 H 444.016 1.81708 0.255843 0
M  V30 4737 H 442.398 2.97485 2.61378 0
M  V30 4738 H 443.572 4.60055 0.261959 0
M  V30 4739 H 441.887 4.14527 0.394486 0
M  V30 4740 H 444.484 4.3051 3.1712 0
M  V30 4741 H 444.827 2.59467 3.2555 0
M  V30 4742 H 445.36 3.52869 1.83653 0
M  V30 4743 H 442.099 6.45041 1.16631 0
M  V30 4744 H 441.619 5.43211 2.54327 0
M  V30 4745 H 443.298 6.00875 2.39913 0
M  V30 4746 N 443.43 -0.535701 1.48216 0
M  V30 4747 C 444.655 -1.32149 1.59848 0
M  V30 4748 C 445.08 -1.86338 0.256842 0
M  V30 4749 O 444.438 -1.64107 -0.770632 0
M  V30 4750 C 444.486 -2.45224 2.64381 0
M  V30 4751 O 443.59 -3.48093 2.21144 0
M  V30 4752 H 442.931 -0.391634 0.536208 0
M  V30 4753 H 445.461 -0.645202 1.94161 0
M  V30 4754 H 445.471 -2.91491 2.85476 0
M  V30 4755 H 444.146 -2.05143 3.61786 0
M  V30 4756 H 442.723 -3.07984 2.10239 0
M  V30 4757 N 444.908 -1.36708 -0.784132 0
M  V30 4758 C 445.871 -1.31307 -1.87859 0
M  V30 4759 C 446.871 -0.219654 -1.59293 0
M  V30 4760 O 448.061 -0.47476 -1.67606 0
M  V30 4761 C 445.193 -1.03679 -3.24751 0
M  V30 4762 H 446.386 -2.28647 -1.94064 0
M  V30 4763 H 443.939 -1.21558 -0.98252 0
M  V30 4764 H 444.674 -0.0681936 -3.24228 0
M  V30 4765 H 444.459 -1.82811 -3.46876 0
M  V30 4766 H 445.949 -1.02518 -4.04821 0
M  V30 4767 N 446.386 1.0089 -1.21074 0
M  V30 4768 C 447.611 1.78727 -1.05221 0
M  V30 4769 C 448.036 1.83932 0.393795 0
M  V30 4770 O 447.394 1.28004 1.28393 0
M  V30 4771 C 447.442 3.20665 -1.64944 0
M  V30 4772 O 446.546 4.02632 -0.892273 0
M  V30 4773 H 445.887 0.550973 -0.370574 0
M  V30 4774 H 448.417 1.26847 -1.60534 0
M  V30 4775 H 448.427 3.71352 -1.69002 0
M  V30 4776 H 447.102 3.16191 -2.70177 0
M  V30 4777 H 445.679 3.61207 -0.926492 0
M  V30 4778 N 447.864 1.01787 1.20321 0
M  V30 4779 C 449.11 0.708985 1.90003 0
M  V30 4780 C 449.443 -0.759572 1.78729 0
M  V30 4781 O 448.718 -1.55198 1.17234 0
M  V30 4782 C 449.001 1.1469 3.41348 0
M  V30 4783 C 448.854 2.67586 3.61549 0
M  V30 4784 C 450.173 0.71915 4.34185 0
M  V30 4785 H 447.292 0.259034 0.689978 0
M  V30 4786 H 449.934 1.26584 1.41692 0
M  V30 4787 H 448.084 0.673128 3.82624 0
M  V30 4788 H 449.756 3.22826 3.29517 0
M  V30 4789 H 447.999 3.085 3.04976 0
M  V30 4790 H 448.67 2.93281 4.67643 0
M  V30 4791 H 451.146 1.12647 4.00562 0
M  V30 4792 H 450.022 1.05358 5.38694 0
M  V30 4793 H 450.283 -0.379111 4.40472 0
M  V30 4794 N 449.342 -1.36122 0.79427 0
M  V30 4795 C 450.619 -1.93398 0.292685 0
M  V30 4796 C 450.999 -1.72567 -1.21589 0
M  V30 4797 O 450.347 -1.08745 -2.00965 0
M  V30 4798 C 450.557 -3.42099 0.690614 0
M  V30 4799 C 451.905 -4.19231 0.673105 0
M  V30 4800 O 452.929 -3.50559 0.631389 0
M  V30 4801 O 451.788 -5.41732 0.720362 0
M  V30 4802 H 448.882 -0.823712 0.0736693 0
M  V30 4803 H 451.428 -1.45273 0.87714 0
M  V30 4804 H 450.2 -3.50938 1.73085 0
M  V30 4805 H 449.823 -3.97519 0.0803036 0
M  V30 4806 N 450.82 -0.546701 -1.47814 0
M  V30 4807 C 452.097 0.0464413 -1.95545 0
M  V30 4808 C 452.477 1.4962 -1.48919 0
M  V30 4809 O 451.825 2.16752 -0.723232 0
M  V30 4810 C 452.035 -0.0881298 -3.48889 0
M  V30 4811 C 453.383 0.0626059 -4.24554 0
M  V30 4812 O 454.407 -0.0151555 -3.56197 0
M  V30 4813 O 453.266 0.228071 -5.46024 0
M  V30 4814 H 450.36 0.0700004 -0.824032 0
M  V30 4815 H 452.906 -0.612482 -1.58262 0
M  V30 4816 H 451.678 -1.09737 -3.75597 0
M  V30 4817 H 451.301 0.608886 -3.9291 0
M  V30 4818 N 452.299 1.55045 -0.282633 0
M  V30 4819 C 453.715 1.59441 0.0712997 0
M  V30 4820 C 453.915 1.2998 1.53972 0
M  V30 4821 O 452.971 1.06431 2.28973 0
M  V30 4822 C 454.284 2.99097 -0.310104 0
M  V30 4823 C 455.832 3.1194 -0.257343 0
M  V30 4824 C 456.307 4.53875 -0.613297 0
M  V30 4825 N 457.798 4.5974 -0.565134 0
M  V30 4826 C 458.533 5.67603 -0.81326 0
M  V30 4827 N 458.029 6.83582 -1.1264 0
M  V30 4828 N 459.822 5.57187 -0.741553 0
M  V30 4829 H 451.973 1.72458 -1.23984 0
M  V30 4830 H 454.236 0.804549 -0.501403 0
M  V30 4831 H 453.942 3.25516 -1.33163 0
M  V30 4832 H 453.816 3.75616 0.345366 0
M  V30 4833 H 456.203 2.85281 0.754905 0
M  V30 4834 H 456.284 2.37618 -0.947178 0
M  V30 4835 H 455.928 4.81261 -1.62327 0
M  V30 4836 H 455.858 5.26508 0.09841 0
M  V30 4837 H 458.349 3.76427 -0.333294 0
M  V30 4838 H 458.662 7.6175 -1.30219 0
M  V30 4839 H 457.007 6.85179 -1.16425 0
M  V30 4840 H 460.198 4.65457 -0.496705 0
M  V30 4841 H 460.371 6.41171 -0.938306 0
M  V30 4842 N 453.777 0.010035 1.57597 0
M  V30 4843 C 455.005 -0.683413 1.95287 0
M  V30 4844 C 455.42 -1.66747 0.885481 0
M  V30 4845 O 454.777 -1.82003 -0.134629 0
M  V30 4846 C 454.828 -1.40652 3.33015 0
M  V30 4847 O 454.549 -0.461916 4.35658 0
M  V30 4848 C 456.05 -2.19356 3.85225 0
M  V30 4849 H 453.27 -0.189708 0.643624 0
M  V30 4850 H 455.814 0.0641359 2.04399 0
M  V30 4851 H 453.969 -2.10562 3.2518 0
M  V30 4852 H 454.383 -0.973215 5.15392 0
M  V30 4853 H 455.857 -2.65433 4.83993 0
M  V30 4854 H 456.334 -3.02457 3.18459 0
M  V30 4855 H 456.94 -1.54442 3.96267 0
M  V30 4856 N 455.255 -1.55392 -0.262866 0
M  V30 4857 C 456.671 -1.47459 -0.610582 0
M  V30 4858 C 456.871 -0.697031 -1.8906 0
M  V30 4859 O 455.927 -0.219952 -2.5154 0
M  V30 4860 C 457.24 -2.91751 -0.728131 0
M  V30 4861 C 458.788 -3.02027 -0.821517 0
M  V30 4862 C 459.263 -4.47594 -0.97076 0
M  V30 4863 N 460.754 -4.51465 -1.03603 0
M  V30 4864 C 461.489 -5.61326 -1.17049 0
M  V30 4865 N 460.985 -6.81032 -1.2715 0
M  V30 4866 N 462.778 -5.49089 -1.20239 0
M  V30 4867 H 454.929 -2.04395 0.577632 0
M  V30 4868 H 457.192 -0.927287 0.197086 0
M  V30 4869 H 456.898 -3.51413 0.142132 0
M  V30 4870 H 456.772 -3.4134 -1.6052 0
M  V30 4871 H 459.159 -2.42456 -1.68224 0
M  V30 4872 H 459.24 -2.55674 0.0803688 0
M  V30 4873 H 458.884 -5.07771 -0.114655 0
M  V30 4874 H 458.814 -4.91613 -1.88745 0
M  V30 4875 H 461.305 -3.6524 -0.96996 0
M  V30 4876 H 461.618 -7.60511 -1.37271 0
M  V30 4877 H 459.963 -6.83824 -1.24136 0
M  V30 4878 H 463.154 -4.54507 -1.11985 0
M  V30 4879 H 463.327 -6.34749 -1.30373 0
M  V30 4880 N 456.733 0.527833 -1.48498 0
M  V30 4881 C 457.643 1.65907 -1.65867 0
M  V30 4882 C 458.659 1.6537 -0.541192 0
M  V30 4883 O 459.835 1.84282 -0.812534 0
M  V30 4884 C 456.9 3.02364 -1.69637 0
M  V30 4885 C 455.961 3.1374 -2.93028 0
M  V30 4886 C 455.194 4.43688 -2.96609 0
M  V30 4887 O 455.417 5.30913 -2.08538 0
M  V30 4888 O 454.351 4.59475 -3.88802 0
M  V30 4889 H 458.177 1.5419 -2.61647 0
M  V30 4890 H 455.762 0.701163 -1.31924 0
M  V30 4891 H 457.644 3.83515 -1.74625 0
M  V30 4892 H 456.319 3.14401 -0.770312 0
M  V30 4893 H 455.226 2.31877 -2.93571 0
M  V30 4894 H 456.559 3.06621 -3.85026 0
M  V30 4895 N 458.211 1.37122 0.776871 0
M  V30 4896 C 459.121 1.34651 1.9211 0
M  V30 4897 C 460.137 0.246824 1.7224 0
M  V30 4898 O 461.313 0.48134 1.95563 0
M  V30 4899 C 458.378 1.14748 3.2716 0
M  V30 4900 C 457.439 2.34308 3.5972 0
M  V30 4901 C 456.672 2.15345 4.88326 0
M  V30 4902 O 456.895 1.13507 5.58992 0
M  V30 4903 O 455.829 3.03414 5.1983 0
M  V30 4904 H 459.655 2.31013 1.97146 0
M  V30 4905 H 457.24 1.17799 0.918901 0
M  V30 4906 H 459.122 1.05616 4.0795 0
M  V30 4907 H 457.797 0.214562 3.22988 0
M  V30 4908 H 456.704 2.49011 2.79185 0
M  V30 4909 H 458.037 3.26149 3.68629 0
M  V30 4910 N 459.689 -1.00246 1.21608 0
M  V30 4911 C 461.105 -1.26435 0.973975 0
M  V30 4912 C 461.305 -1.98642 -0.338143 0
M  V30 4913 O 460.361 -2.29026 -1.06317 0
M  V30 4914 C 461.674 -2.08551 2.16626 0
M  V30 4915 C 463.222 -2.21769 2.20879 0
M  V30 4916 C 463.697 -3.07267 3.39633 0
M  V30 4917 N 465.188 -3.14855 3.39736 0
M  V30 4918 C 465.923 -3.81274 4.28273 0
M  V30 4919 N 465.419 -4.497 5.27012 0
M  V30 4920 N 467.212 -3.7794 4.16074 0
M  V30 4921 H 459.363 -0.518089 2.05984 0
M  V30 4922 H 461.626 -0.291368 0.902113 0
M  V30 4923 H 461.332 -1.62847 3.11727 0
M  V30 4924 H 461.206 -3.09303 2.15897 0
M  V30 4925 H 463.593 -2.66691 1.26332 0
M  V30 4926 H 463.674 -1.20478 2.25652 0
M  V30 4927 H 463.318 -2.63047 4.34475 0
M  V30 4928 H 463.248 -4.08678 3.321 0
M  V30 4929 H 465.739 -2.66147 2.6828 0
M  V30 4930 H 466.052 -4.98092 5.90867 0
M  V30 4931 H 464.397 -4.48479 5.30935 0
M  V30 4932 H 467.588 -3.23638 3.38195 0
M  V30 4933 H 467.761 -4.29424 4.85282 0
M  V30 4934 N 461.167 -1.02423 -1.1978 0
M  V30 4935 C 462.415 -0.716569 -1.8897 0
M  V30 4936 C 462.736 0.756769 -1.79716 0
M  V30 4937 O 462.006 1.5449 -1.20456 0
M  V30 4938 H 460.586 -0.262062 -0.699523 0
M  V30 4939 H 463.248 -1.29747 -1.45436 0
M  V30 4940 H 462.344 -1.00675 -2.95417 0
M  V30 4941 N 462.645 1.35699 -0.801477 0
M  V30 4942 C 463.575 2.32436 -0.222658 0
M  V30 4943 C 464.556 1.5723 0.649057 0
M  V30 4944 O 465.741 1.85324 0.580387 0
M  V30 4945 C 462.871 3.41469 0.633719 0
M  V30 4946 C 461.825 4.27774 -0.139083 0
M  V30 4947 C 461.151 5.28082 0.838666 0
M  V30 4948 C 462.451 5.04946 -1.33517 0
M  V30 4949 H 464.145 2.81094 -1.03086 0
M  V30 4950 H 461.691 1.35146 -0.497155 0
M  V30 4951 H 463.644 4.08143 1.04868 0
M  V30 4952 H 462.368 2.91408 1.47475 0
M  V30 4953 H 461.027 3.62673 -0.535156 0
M  V30 4954 H 460.675 4.7429 1.67506 0
M  V30 4955 H 460.375 5.86695 0.32594 0
M  V30 4956 H 461.899 5.97628 1.25194 0
M  V30 4957 H 463.313 5.64593 -0.995349 0
M  V30 4958 H 461.71 5.7303 -1.78202 0
M  V30 4959 H 462.78 4.35886 -2.12442 0
M  V30 4960 N 464.123 0.554532 1.47522 0
M  V30 4961 C 465.033 -0.197865 2.33764 0
M  V30 4962 C 466.049 -0.914576 1.48025 0
M  V30 4963 O 467.225 -0.884067 1.80959 0
M  V30 4964 C 464.29 -1.21628 3.24665 0
M  V30 4965 C 463.351 -0.507283 4.26292 0
M  V30 4966 C 462.584 -1.47718 5.1285 0
M  V30 4967 O 462.807 -2.7118 5.01814 0
M  V30 4968 O 461.741 -1.00313 5.93482 0
M  V30 4969 H 465.567 0.50949 2.99396 0
M  V30 4970 H 463.152 0.315176 1.46038 0
M  V30 4971 H 465.034 -1.80421 3.80823 0
M  V30 4972 H 463.709 -1.9056 2.61665 0
M  V30 4973 H 462.616 0.121778 3.73902 0
M  V30 4974 H 463.949 0.140544 4.91999 0
M  V30 4975 N 465.601 -1.54893 0.290851 0
M  V30 4976 C 467.012 -1.85584 -0.203816 0
M  V30 4977 C 467.363 -1.21285 -1.54222 0
M  V30 4978 O 466.488 -0.506841 -2.10381 0
M  V30 4979 C 467.083 -3.367 -0.376595 0
M  V30 4980 C 465.642 -3.6746 -0.815485 0
M  V30 4981 C 464.789 -2.77178 0.0821087 0
M  V30 4982 H 467.74 -1.50208 0.512175 0
M  V30 4983 H 467.761 -3.60656 -1.21275 0
M  V30 4984 H 467.273 -3.8347 0.59767 0
M  V30 4985 H 465.374 -3.26201 -1.80066 0
M  V30 4986 H 465.487 -4.7478 -0.641905 0
M  V30 4987 H 463.851 -2.50925 -0.436895 0
M  V30 4988 H 464.634 -3.26767 1.05254 0
M  V30 4989 N 467.08 -0.0183926 -1.57589 0
M  V30 4990 C 468.01 0.965596 -2.12599 0
M  V30 4991 C 468.991 1.34641 -1.0395 0
M  V30 4992 O 470.176 1.42693 -1.31729 0
M  V30 4993 C 467.306 2.25149 -2.64434 0
M  V30 4994 C 466.26 2.01175 -3.77773 0
M  V30 4995 C 465.586 3.35937 -4.15994 0
M  V30 4996 C 466.886 1.35953 -5.04296 0
M  V30 4997 H 468.58 0.507504 -2.95067 0
M  V30 4998 H 466.126 0.242671 -1.41941 0
M  V30 4999 H 468.079 2.94357 -3.01549 0
M  V30 5000 H 466.803 2.73105 -1.79112 0
M  V30 5001 H 465.462 1.34388 -3.4108 0
M  V30 5002 H 465.11 3.81631 -3.27669 0
M  V30 5003 H 464.81 3.20705 -4.92364 0
M  V30 5004 H 466.334 4.0643 -4.55683 0
M  V30 5005 H 467.748 1.95144 -5.39065 0
M  V30 5006 H 466.145 1.31152 -5.85593 0
M  V30 5007 H 467.215 0.331071 -4.83768 0
M  V30 5008 N 468.558 1.5553 0.254621 0
M  V30 5009 C 469.505 1.89666 1.31512 0
M  V30 5010 C 470.475 0.750057 1.482 0
M  V30 5011 O 471.66 1.00301 1.62309 0
M  V30 5012 C 468.8 2.19009 2.667 0
M  V30 5013 C 467.913 3.46435 2.58083 0
M  V30 5014 C 467.048 3.65386 3.85573 0
M  V30 5015 C 466.087 4.8644 3.71541 0
M  V30 5016 N 465.224 5.01952 4.90906 0
M  V30 5017 H 470.064 2.80109 1.017 0
M  V30 5018 H 467.601 1.38666 0.490938 0
M  V30 5019 H 469.559 2.34025 3.45381 0
M  V30 5020 H 468.189 1.31779 2.94676 0
M  V30 5021 H 467.241 3.39792 1.71013 0
M  V30 5022 H 468.553 4.35258 2.43622 0
M  V30 5023 H 467.707 3.80319 4.72697 0
M  V30 5024 H 466.446 2.74781 4.02922 0
M  V30 5025 H 465.451 4.71491 2.82801 0
M  V30 5026 H 466.676 5.78497 3.55694 0
M  V30 5027 H 464.622 4.14283 5.08631 0
M  V30 5028 H 464.539 5.84851 4.79046 0
M  V30 5029 H 465.807 5.21289 5.7955 0
M  V30 5030 N 470.036 -0.519951 1.48776 0
M  V30 5031 C 470.984 -1.64443 1.64503 0
M  V30 5032 C 471.978 -1.61501 0.511248 0
M  V30 5033 O 473.184 -1.66238 0.690294 0
M  V30 5034 H 469.559 -0.544776 0.518385 0
M  V30 5035 H 471.53 -1.48325 2.58925 0
M  V30 5036 C 470.279 -3.02673 1.71127 0
M  V30 5037 H 469.602 -3.05635 2.57735 0
M  V30 5038 H 471.042 -3.80941 1.86172 0
M  V30 5039 C 469.501 -3.33854 0.452032 0
M  V30 5040 O 470.031 -3.99385 -0.430678 0
M  V30 5041 N 468.237 -2.88825 0.32069 0
M  V30 5042 H 467.784 -2.35674 1.03998 0
M  V30 5043 H 467.742 -3.10056 -0.520814 0
M  V30 5044 N 471.514 -1.37532 -0.769588 0
M  V30 5045 C 472.462 -1.33561 -1.90432 0
M  V30 5046 C 473.456 -0.224027 -1.67912 0
M  V30 5047 O 474.662 -0.392174 -1.75676 0
M  V30 5048 H 471.037 -0.416279 -0.626271 0
M  V30 5049 H 473.008 -2.29348 -1.90899 0
M  V30 5050 C 471.757 -1.16162 -3.27722 0
M  V30 5051 H 471.08 -2.00951 -3.45628 0
M  V30 5052 H 472.52 -1.17434 -4.07413 0
M  V30 5053 C 470.979 0.132583 -3.36639 0
M  V30 5054 O 471.509 1.11539 -3.85904 0
M  V30 5055 N 469.715 0.184013 -2.90017 0
M  V30 5056 H 469.262 -0.616415 -2.50116 0
M  V30 5057 H 469.22 1.04956 -2.96364 0
M  V30 5058 N 472.992 0.995999 -1.22138 0
M  V30 5059 C 473.94 2.10673 -0.985876 0
M  V30 5060 C 474.934 1.69255 0.0699553 0
M  V30 5061 O 476.14 1.79812 -0.0822176 0
M  V30 5062 H 472.515 0.688865 -0.30161 0
M  V30 5063 H 474.486 2.27711 -1.92848 0
M  V30 5064 C 473.235 3.42881 -0.576909 0
M  V30 5065 H 472.558 3.75191 -1.38101 0
M  V30 5066 H 473.998 4.21589 -0.451518 0
M  V30 5067 C 472.457 3.29265 0.713196 0
M  V30 5068 O 472.987 3.60777 1.76643 0
M  V30 5069 N 471.193 2.82456 0.683162 0
M  V30 5070 H 470.74 2.5701 -0.174242 0
M  V30 5071 H 470.698 2.73727 1.54663 0
M  V30 5072 N 474.47 1.03057 1.19235 0
M  V30 5073 C 475.7 0.746613 1.92638 0
M  V30 5074 C 476.108 -0.698708 1.75826 0
M  V30 5075 O 475.451 -1.487 1.07861 0
M  V30 5076 C 475.513 1.02024 3.44719 0
M  V30 5077 C 475.177 2.45745 3.85303 0
M  V30 5078 C 476.174 3.43887 3.8992 0
M  V30 5079 C 473.859 2.8019 4.16892 0
M  V30 5080 C 475.853 4.74529 4.2556 0
M  V30 5081 C 473.54 4.1104 4.52205 0
M  V30 5082 C 474.538 5.0802 4.56513 0
M  V30 5083 O 474.226 6.36527 4.91008 0
M  V30 5084 H 473.958 0.272401 0.618687 0
M  V30 5085 H 476.512 1.37853 1.52269 0
M  V30 5086 H 474.742 0.331184 3.85279 0
M  V30 5087 H 476.431 0.725677 3.9936 0
M  V30 5088 H 477.197 3.18614 3.65664 0
M  V30 5089 H 473.076 2.05382 4.12722 0
M  V30 5090 H 476.62 5.50222 4.28838 0
M  V30 5091 H 472.517 4.36086 4.7592 0
M  V30 5092 H 473.285 6.41025 5.08949 0
M  V30 5093 N 475.948 -1.35272 0.808662 0
M  V30 5094 C 477.364 -1.51806 0.492653 0
M  V30 5095 C 477.564 -1.7574 -0.985778 0
M  V30 5096 O 476.62 -1.80003 -1.77074 0
M  V30 5097 C 477.933 -2.69202 1.33981 0
M  V30 5098 C 479.481 -2.8308 1.33547 0
M  V30 5099 C 479.956 -4.03502 2.16679 0
M  V30 5100 N 481.447 -4.10684 2.14227 0
M  V30 5101 C 482.182 -5.02984 2.75308 0
M  V30 5102 N 481.678 -6.00603 3.45323 0
M  V30 5103 N 483.471 -4.95746 2.64938 0
M  V30 5104 H 475.622 -1.17993 1.76611 0
M  V30 5105 H 477.885 -0.577476 0.751814 0
M  V30 5106 H 477.591 -2.581 2.38909 0
M  V30 5107 H 477.465 -3.63854 0.994491 0
M  V30 5108 H 479.852 -2.93631 0.294036 0
M  V30 5109 H 479.933 -1.89278 1.72068 0
M  V30 5110 H 479.577 -3.93711 3.20864 0
M  V30 5111 H 479.507 -4.96489 1.75517 0
M  V30 5112 H 481.998 -3.40802 1.63285 0
M  V30 5113 H 482.311 -6.67633 3.89212 0
M  V30 5114 H 480.656 -6.0077 3.49428 0
M  V30 5115 H 483.847 -4.18439 2.09825 0
M  V30 5116 H 484.02 -5.67487 3.12829 0
M  V30 5117 N 477.426 -0.562348 -1.47226 0
M  V30 5118 C 478.675 -0.038041 -2.01664 0
M  V30 5119 C 478.988 1.32199 -1.44162 0
M  V30 5120 O 480.194 1.9365 -1.90294 0
M  V30 5121 C 478.65 -0.0174958 -3.59896 0
M  V30 5122 C 478.258 -1.3746 -4.2639 0
M  V30 5123 C 480.002 0.453934 -4.22066 0
M  V30 5124 C 477.909 -1.31289 -5.76643 0
M  V30 5125 H 476.839 -0.0104511 -0.753928 0
M  V30 5126 H 479.49 -0.710966 -1.69167 0
M  V30 5127 H 477.872 0.721182 -3.89378 0
M  V30 5128 H 479.046 -2.1314 -4.08544 0
M  V30 5129 H 477.361 -1.78438 -3.7623 0
M  V30 5130 H 479.958 0.518584 -5.32179 0
M  V30 5131 H 480.301 1.46706 -3.89594 0
M  V30 5132 H 480.834 -0.230044 -3.97134 0
M  V30 5133 H 477.573 -2.30217 -6.13743 0
M  V30 5134 H 477.093 -0.597973 -5.96812 0
M  V30 5135 H 478.772 -1.01713 -6.38955 0
M  V30 5136 N 478.904 1.54736 -0.299062 0
M  V30 5137 C 480.129 2.04975 0.316254 0
M  V30 5138 C 480.554 1.17501 1.46885 0
M  V30 5139 O 479.912 0.178678 1.80417 0
M  V30 5140 C 479.96 3.52672 0.751997 0
M  V30 5141 O 479.064 3.68226 1.85697 0
M  V30 5142 H 478.405 0.661126 0.0617175 0
M  V30 5143 H 480.935 1.99805 -0.440341 0
M  V30 5144 H 480.945 3.94488 1.04133 0
M  V30 5145 H 479.62 4.158 -0.0911482 0
M  V30 5146 H 478.197 3.38316 1.56834 0
M  V30 5147 N 480.382 0.0267497 1.57577 0
M  V30 5148 C 481.329 -0.955894 2.10075 0
M  V30 5149 C 482.299 -1.32453 1.00226 0
M  V30 5150 O 483.484 -1.41826 1.27632 0
M  V30 5151 C 480.624 -2.2338 2.6305 0
M  V30 5152 C 479.737 -1.92183 3.86898 0
M  V30 5153 C 478.872 -3.14251 4.28275 0
M  V30 5154 C 477.911 -2.78862 5.44888 0
M  V30 5155 N 477.048 -3.93548 5.81433 0
M  V30 5156 H 481.888 -0.501303 2.93753 0
M  V30 5157 H 479.425 -0.235847 1.45197 0
M  V30 5158 H 481.383 -2.98124 2.91853 0
M  V30 5159 H 480.013 -2.6646 1.82205 0
M  V30 5160 H 479.065 -1.07692 3.64838 0
M  V30 5161 H 480.377 -1.62117 4.7172 0
M  V30 5162 H 479.531 -3.97317 4.58502 0
M  V30 5163 H 478.27 -3.47476 3.42215 0
M  V30 5164 H 477.275 -1.94208 5.14357 0
M  V30 5165 H 478.5 -2.46855 6.32645 0
M  V30 5166 H 476.446 -4.2662 4.98328 0
M  V30 5167 H 476.363 -3.67098 6.6089 0
M  V30 5168 H 477.631 -4.77325 6.16264 0
M  V30 5169 N 481.861 -1.55662 -0.24637 0
M  V30 5170 C 483.086 -1.81914 -0.996093 0
M  V30 5171 C 483.511 -0.603875 -1.78143 0
M  V30 5172 O 482.869 0.447091 -1.75701 0
M  V30 5173 C 482.917 -3.05908 -1.90925 0
M  V30 5174 O 482.021 -2.82861 -3.00105 0
M  V30 5175 H 481.362 -0.600481 -0.283406 0
M  V30 5176 H 483.892 -2.02848 -0.267199 0
M  V30 5177 H 483.902 -3.35356 -2.3238 0
M  V30 5178 H 482.577 -3.93999 -1.33183 0
M  V30 5179 H 481.154 -2.64583 -2.62775 0
M  V30 5180 N 483.339 0.512053 -1.4905 0
M  V30 5181 C 484.755 0.84224 -1.35567 0
M  V30 5182 C 484.955 1.97878 -0.380319 0
M  V30 5183 O 484.011 2.51769 0.19201 0
M  V30 5184 C 485.324 1.19286 -2.76028 0
M  V30 5185 C 486.872 1.30171 -2.84648 0
M  V30 5186 C 487.347 1.68568 -4.25851 0
M  V30 5187 N 488.838 1.75638 -4.28609 0
M  V30 5188 C 489.573 2.06769 -5.34821 0
M  V30 5189 N 489.069 2.36201 -6.51292 0
M  V30 5190 N 490.862 2.07927 -5.22229 0
M  V30 5191 H 483.013 -0.237574 -2.11067 0
M  V30 5192 H 485.276 -0.0436747 -0.946993 0
M  V30 5193 H 484.982 0.431199 -3.49047 0
M  V30 5194 H 484.856 2.13889 -3.10695 0
M  V30 5195 H 487.243 2.05411 -2.11873 0
M  V30 5196 H 487.324 0.336457 -2.53578 0
M  V30 5197 H 486.968 0.938824 -4.99148 0
M  V30 5198 H 486.898 2.66174 -4.54377 0
M  V30 5199 H 489.389 1.55097 -3.44606 0
M  V30 5200 H 489.702 2.59112 -7.28066 0
M  V30 5201 H 488.047 2.33681 -6.54536 0
M  V30 5202 H 491.238 1.84403 -4.30248 0
M  V30 5203 H 491.411 2.31856 -6.05101 0
M  V30 5204 N 484.817 1.37938 0.762283 0
M  V30 5205 C 486.047 1.36685 1.54922 0
M  V30 5206 C 486.455 -0.0474099 1.89141 0
M  V30 5207 O 485.798 -1.02213 1.52638 0
M  V30 5208 C 485.86 2.14963 2.88152 0
M  V30 5209 C 485.524 3.6385 2.76518 0
M  V30 5210 C 486.521 4.57531 2.46904 0
M  V30 5211 C 484.206 4.07095 2.94243 0
M  V30 5212 C 486.2 5.92436 2.35156 0
M  V30 5213 C 483.887 5.42083 2.82116 0
M  V30 5214 C 484.885 6.34567 2.52614 0
M  V30 5215 O 484.573 7.67073 2.40529 0
M  V30 5216 H 484.305 0.469586 0.486276 0
M  V30 5217 H 486.859 1.82012 0.951876 0
M  V30 5218 H 485.089 1.6434 3.50042 0
M  V30 5219 H 486.778 2.06224 3.49609 0
M  V30 5220 H 487.544 4.25428 2.32886 0
M  V30 5221 H 483.423 3.35462 3.16206 0
M  V30 5222 H 486.967 6.64591 2.12049 0
M  V30 5223 H 482.864 5.73785 2.95704 0
M  V30 5224 H 483.632 7.77499 2.55807 0
M  V30 5225 N 486.295 -0.989507 1.22664 0
M  V30 5226 C 487.572 -1.70326 0.961688 0
M  V30 5227 C 487.952 -2.04537 -0.522279 0
M  V30 5228 O 487.3 -1.73136 -1.49118 0
M  V30 5229 C 487.51 -2.95135 1.86269 0
M  V30 5230 C 488.858 -3.67842 2.12078 0
M  V30 5231 O 489.882 -3.0515 1.83745 0
M  V30 5232 O 488.741 -4.80644 2.60083 0
M  V30 5233 H 485.835 -0.743589 0.361946 0
M  V30 5234 H 488.381 -1.04555 1.33665 0
M  V30 5235 H 487.153 -2.66382 2.8663 0
M  V30 5236 H 486.776 -3.68645 1.48952 0
M  V30 5237 N 487.773 -1.03688 -1.18687 0
M  V30 5238 C 488.998 -0.757819 -1.93059 0
M  V30 5239 C 489.423 0.678353 -1.75442 0
M  V30 5240 O 488.781 1.46938 -1.06203 0
M  V30 5241 C 488.829 -1.12423 -3.42627 0
M  V30 5242 O 487.933 -0.247505 -4.11657 0
M  V30 5243 H 487.274 -0.279245 -0.602427 0
M  V30 5244 H 489.804 -1.3857 -1.5053 0
M  V30 5245 H 489.814 -1.08454 -3.93322 0
M  V30 5246 H 488.489 -2.17049 -3.54771 0
M  V30 5247 H 487.066 -0.34649 -3.71287 0
M  V30 5248 N 489.251 1.34841 -0.815825 0
M  V30 5249 C 490.5 1.97755 -0.396976 0
M  V30 5250 C 490.813 1.65422 1.04379 0
M  V30 5251 O 492.019 2.21771 1.5662 0
M  V30 5252 C 490.475 3.53818 -0.658869 0
M  V30 5253 C 490.083 3.95051 -2.11278 0
M  V30 5254 C 491.827 4.23397 -0.305834 0
M  V30 5255 C 489.734 5.43997 -2.31994 0
M  V30 5256 H 488.664 0.739985 -0.1447 0
M  V30 5257 H 491.315 1.53781 -1.00118 0
M  V30 5258 H 489.697 3.95997 0.0154112 0
M  V30 5259 H 490.871 3.63998 -2.82564 0
M  V30 5260 H 489.186 3.38388 -2.42657 0
M  V30 5261 H 491.783 5.32899 -0.43854 0
M  V30 5262 H 492.126 4.09508 0.748952 0
M  V30 5263 H 492.659 3.8667 -0.934403 0
M  V30 5264 H 489.398 5.62865 -3.35952 0
M  V30 5265 H 488.918 5.76589 -1.65244 0
M  V30 5266 H 490.597 6.10584 -2.14001 0
M  V30 5267 N 490.729 0.570148 1.46925 0
M  V30 5268 C 492.006 -0.0153259 1.95594 0
M  V30 5269 C 492.386 -1.47232 1.51281 0
M  V30 5270 O 491.734 -2.15574 0.757624 0
M  V30 5271 C 491.944 0.143624 3.48704 0
M  V30 5272 C 493.292 0.00494484 4.246 0
M  V30 5273 O 494.316 0.0718214 3.56128 0
M  V30 5274 O 493.175 -0.141175 5.46318 0
M  V30 5275 H 490.269 -0.0568819 0.825041 0
M  V30 5276 H 492.815 0.637583 1.57267 0
M  V30 5277 H 491.587 1.15699 3.73804 0
M  V30 5278 H 491.21 -0.5463 3.93829 0
M  V30 5279 N 492.207 -1.54576 0.307264 0
M  V30 5280 C 493.432 -2.05139 -0.305379 0
M  V30 5281 C 493.857 -1.18278 -1.46259 0
M  V30 5282 O 493.215 -0.188243 -1.8032 0
M  V30 5283 C 493.263 -3.53066 -0.733283 0
M  V30 5284 O 492.367 -3.69206 -1.83741 0
M  V30 5285 H 491.708 -0.661444 -0.0582105 0
M  V30 5286 H 494.238 -1.99569 0.450931 0
M  V30 5287 H 494.248 -3.95034 -1.02039 0
M  V30 5288 H 492.923 -4.15746 0.113198 0
M  V30 5289 H 491.5 -3.39143 -1.55037 0
M  V30 5290 N 493.685 -0.035106 -1.57561 0
M  V30 5291 C 494.915 0.651312 -1.96065 0
M  V30 5292 C 495.323 1.6585 -0.910514 0
M  V30 5293 O 494.666 1.83336 0.11552 0
M  V30 5294 C 494.728 1.40897 -3.30739 0
M  V30 5295 C 494.392 0.559436 -4.53563 0
M  V30 5296 C 495.389 -0.16778 -5.19629 0
M  V30 5297 C 493.074 0.495079 -4.99854 0
M  V30 5298 C 495.068 -0.947963 -6.30311 0
M  V30 5299 C 492.755 -0.288804 -6.10417 0
M  V30 5300 C 493.753 -1.00903 -6.75505 0
M  V30 5301 O 493.441 -1.78005 -7.83945 0
M  V30 5302 H 493.173 0.184036 -0.650467 0
M  V30 5303 H 495.727 -0.0929677 -2.05189 0
M  V30 5304 H 493.957 2.19852 -3.18123 0
M  V30 5305 H 495.646 1.98407 -3.54104 0
M  V30 5306 H 496.412 -0.12743 -4.84833 0
M  V30 5307 H 492.291 1.04524 -4.48994 0
M  V30 5308 H 495.835 -1.51064 -6.81047 0
M  V30 5309 H 491.732 -0.33085 -6.44652 0
M  V30 5310 H 492.5 -1.70046 -8.00641 0
M  V30 5311 N 495.163 1.55791 0.238111 0
M  V30 5312 C 496.093 1.94068 1.29846 0
M  V30 5313 C 497.074 0.806726 1.49753 0
M  V30 5314 O 498.259 1.06772 1.62214 0
M  V30 5315 C 495.389 2.24302 2.65153 0
M  V30 5316 C 494.343 3.40032 2.59927 0
M  V30 5317 C 493.669 3.55829 3.99111 0
M  V30 5318 C 494.969 4.75476 2.16148 0
M  V30 5319 H 496.663 2.82887 0.980563 0
M  V30 5320 H 494.209 1.36105 0.470253 0
M  V30 5321 H 496.162 2.4967 3.39475 0
M  V30 5322 H 494.886 1.32318 2.98596 0
M  V30 5323 H 493.545 3.14687 1.88063 0
M  V30 5324 H 493.193 2.6125 4.29834 0
M  V30 5325 H 492.893 4.3366 3.96501 0
M  V30 5326 H 494.417 3.83528 4.7512 0
M  V30 5327 H 495.831 5.00158 2.80205 0
M  V30 5328 H 494.228 5.56472 2.24631 0
M  V30 5329 H 495.298 4.71946 1.11333 0
M  V30 5330 N 496.642 -0.504142 1.49319 0
M  V30 5331 C 497.867 -1.28729 1.62615 0
M  V30 5332 C 498.292 -1.85752 0.296309 0
M  V30 5333 O 497.65 -1.65704 -0.735649 0
M  V30 5334 C 497.698 -2.39561 2.69524 0
M  V30 5335 O 496.802 -3.43324 2.28478 0
M  V30 5336 H 496.143 -0.380172 0.544395 0
M  V30 5337 H 498.673 -0.603872 1.95485 0
M  V30 5338 H 498.683 -2.8537 2.91595 0
M  V30 5339 H 497.358 -1.97423 3.66056 0
M  V30 5340 H 495.935 -3.03455 2.16725 0
M  V30 5341 N 498.12 -1.38341 -0.754957 0
M  V30 5342 C 499.067 -1.3546 -1.86867 0
M  V30 5343 C 500.037 -0.217369 -1.64672 0
M  V30 5344 O 501.222 -0.409383 -1.86356 0
M  V30 5345 C 498.362 -1.18413 -3.24149 0
M  V30 5346 C 497.475 -2.41511 -3.58185 0
M  V30 5347 C 496.61 -2.17205 -4.84763 0
M  V30 5348 C 495.649 -3.36081 -5.11582 0
M  V30 5349 N 494.786 -3.11219 -6.29354 0
M  V30 5350 H 499.626 -2.30672 -1.88664 0
M  V30 5351 H 497.163 -1.14607 -0.922154 0
M  V30 5352 H 499.121 -1.06545 -4.03366 0
M  V30 5353 H 497.751 -0.268397 -3.21682 0
M  V30 5354 H 496.803 -2.64056 -2.73822 0
M  V30 5355 H 498.115 -3.30115 -3.73932 0
M  V30 5356 H 497.269 -2.02465 -5.7192 0
M  V30 5357 H 496.008 -1.25964 -4.71152 0
M  V30 5358 H 495.013 -3.51341 -4.22894 0
M  V30 5359 H 496.238 -4.28196 -5.27091 0
M  V30 5360 H 494.184 -2.22624 -6.17069 0
M  V30 5361 H 494.101 -3.93373 -6.45596 0
M  V30 5362 H 495.369 -3.00132 -7.19403 0
M  V30 5363 N 499.598 0.982988 -1.23187 0
M  V30 5364 C 500.838 1.73903 -1.07412 0
M  V30 5365 C 501.202 1.88146 0.382764 0
M  V30 5366 O 502.403 2.6053 0.661638 0
M  V30 5367 C 500.674 3.10105 -1.77678 0
M  V30 5368 S 502.233 4.01323 -1.77441 0
M  V30 5369 H 499.051 0.598093 -0.384456 0
M  V30 5370 H 501.653 1.17456 -1.56283 0
M  V30 5371 H 500.357 2.97388 -2.82822 0
M  V30 5372 H 499.888 3.71622 -1.29077 0
M  V30 5373 H 501.903 4.89189 -0.831162 0
M  V30 5374 N 501.076 1.04316 1.18135 0
M  V30 5375 C 502.324 0.746542 1.87806 0
M  V30 5376 C 502.645 -0.728082 1.80898 0
M  V30 5377 O 501.915 -1.52554 1.22899 0
M  V30 5378 H 500.495 0.273157 0.695265 0
M  V30 5379 H 503.157 1.32044 1.43354 0
M  V30 5380 H 502.253 1.05362 2.93778 0
M  V30 5381 N 502.554 -1.34406 0.822964 0
M  V30 5382 C 503.464 -2.33298 0.246838 0
M  V30 5383 C 504.48 -1.62625 -0.618797 0
M  V30 5384 O 505.656 -1.94391 -0.526685 0
M  V30 5385 C 502.721 -3.41785 -0.581731 0
M  V30 5386 C 501.782 -4.28206 0.306309 0
M  V30 5387 C 501.015 -5.31512 -0.48281 0
M  V30 5388 O 501.238 -5.43973 -1.71607 0
M  V30 5389 O 500.172 -6.01749 0.134884 0
M  V30 5390 H 503.998 -2.84401 1.06534 0
M  V30 5391 H 501.583 -1.37466 0.585108 0
M  V30 5392 H 503.465 -4.08028 -1.05313 0
M  V30 5393 H 502.14 -2.92925 -1.37756 0
M  V30 5394 H 501.047 -3.64885 0.825199 0
M  V30 5395 H 502.38 -4.80507 1.06649 0
M  V30 5396 N 504.032 -0.577932 -1.46621 0
M  V30 5397 C 504.979 0.158048 -2.30258 0
M  V30 5398 C 505.949 0.888669 -1.40328 0
M  V30 5399 O 507.134 0.880283 -1.6928 0
M  V30 5400 C 504.274 1.16884 -3.24703 0
M  V30 5401 C 503.387 0.442163 -4.29731 0
M  V30 5402 C 502.522 1.44007 -5.11308 0
M  V30 5403 C 501.561 0.69952 -6.0809 0
M  V30 5404 N 500.698 1.64525 -6.82551 0
M  V30 5405 H 505.538 -0.561242 -2.92667 0
M  V30 5406 H 503.075 -0.288591 -1.44241 0
M  V30 5407 H 505.033 1.7677 -3.779 0
M  V30 5408 H 503.663 1.85591 -2.64113 0
M  V30 5409 H 502.715 -0.271632 -3.79429 0
M  V30 5410 H 504.027 -0.136992 -4.98612 0
M  V30 5411 H 503.181 2.11186 -5.68758 0
M  V30 5412 H 501.92 2.05315 -4.42377 0
M  V30 5413 H 500.925 0.0139217 -5.49798 0
M  V30 5414 H 502.15 0.091894 -6.79038 0
M  V30 5415 H 500.096 2.24653 -6.16334 0
M  V30 5416 H 500.013 1.11878 -7.47676 0
M  V30 5417 H 501.281 2.30754 -7.44562 0
M  V30 5418 N 505.51 1.54411 -0.315457 0
M  V30 5419 C 506.74 2.04536 0.291315 0
M  V30 5420 C 507.148 1.19162 1.4696 0
M  V30 5421 O 506.491 0.213199 1.82459 0
M  V30 5422 C 506.553 3.5056 0.796725 0
M  V30 5423 C 506.217 4.5627 -0.258178 0
M  V30 5424 C 507.214 5.08312 -1.09153 0
M  V30 5425 C 504.899 5.00672 -0.404036 0
M  V30 5426 C 506.893 6.03312 -2.05655 0
M  V30 5427 C 504.58 5.95488 -1.37248 0
M  V30 5428 C 505.578 6.46693 -2.19721 0
M  V30 5429 O 505.266 7.39648 -3.14921 0
M  V30 5430 H 504.998 0.672856 0.0651165 0
M  V30 5431 H 507.552 2.00244 -0.457308 0
M  V30 5432 H 505.782 3.52223 1.59612 0
M  V30 5433 H 507.471 3.83804 1.32096 0
M  V30 5434 H 508.237 4.74793 -0.98979 0
M  V30 5435 H 504.116 4.60436 0.22799 0
M  V30 5436 H 507.66 6.43203 -2.70067 0
M  V30 5437 H 503.557 6.28424 -1.47489 0
M  V30 5438 H 504.325 7.57496 -3.10067 0
M  V30 5439 N 506.988 0.0434614 1.5754 0
M  V30 5440 C 507.936 -0.951465 2.1225 0
M  V30 5441 C 508.93 -1.3274 1.05245 0
M  V30 5442 O 510.136 -1.30795 1.23663 0
M  V30 5443 H 506.511 -0.324667 0.678303 0
M  V30 5444 H 508.482 -0.464855 2.94757 0
M  V30 5445 C 507.231 -2.21972 2.67626 0
M  V30 5446 H 506.554 -1.93923 3.4962 0
M  V30 5447 H 507.994 -2.89765 3.09536 0
M  V30 5448 C 506.453 -2.95919 1.61038 0
M  V30 5449 O 506.983 -3.8857 1.01862 0
M  V30 5450 N 505.189 -2.58511 1.32741 0
M  V30 5451 H 504.736 -1.83244 1.81051 0
M  V30 5452 H 504.694 -3.08296 0.616531 0
M  V30 5453 N 508.466 -1.55915 -0.229846 0
M  V30 5454 C 509.743 -1.6932 -0.979295 0
M  V30 5455 C 510.123 -0.588321 -2.02736 0
M  V30 5456 O 509.471 0.40586 -2.24867 0
M  V30 5457 C 509.681 -3.10305 -1.59724 0
M  V30 5458 C 511.029 -3.6945 -2.09264 0
M  V30 5459 O 512.053 -3.13214 -1.69633 0
M  V30 5460 O 510.912 -4.68072 -2.82082 0
M  V30 5461 H 508.006 -0.689314 -0.456919 0
M  V30 5462 H 510.552 -1.68238 -0.222283 0
M  V30 5463 H 509.324 -3.82177 -0.840039 0
M  V30 5464 H 508.947 -3.1547 -2.42001 0
M  V30 5465 N 509.944 0.496216 -1.49584 0
M  V30 5466 C 511.193 1.24668 -1.58558 0
M  V30 5467 C 511.506 1.9359 -0.279703 0
M  V30 5468 O 512.712 2.70365 -0.248048 0
M  V30 5469 C 511.168 2.26388 -2.79779 0
M  V30 5470 C 510.776 1.63384 -4.17145 0
M  V30 5471 C 512.52 3.02233 -2.98086 0
M  V30 5472 C 510.427 2.63243 -5.29582 0
M  V30 5473 H 509.357 0.468995 -0.590389 0
M  V30 5474 H 512.008 0.519985 -1.75978 0
M  V30 5475 H 510.39 3.02241 -2.55863 0
M  V30 5476 H 511.564 0.93491 -4.51216 0
M  V30 5477 H 509.879 0.999121 -4.04236 0
M  V30 5478 H 512.476 3.76919 -3.79257 0
M  V30 5479 H 512.819 3.60132 -2.08831 0
M  V30 5480 H 513.352 2.33495 -3.22063 0
M  V30 5481 H 510.091 2.10119 -6.20911 0
M  V30 5482 H 509.611 3.31363 -4.99959 0
M  V30 5483 H 511.29 3.25575 -5.59115 0
M  V30 5484 N 511.423 1.38739 0.74761 0
M  V30 5485 C 512.7 1.25791 1.49786 0
M  V30 5486 C 513.08 -0.138075 2.10648 0
M  V30 5487 O 512.428 -1.14815 1.9756 0
M  V30 5488 C 512.638 2.37265 2.55942 0
M  V30 5489 C 513.986 2.75978 3.22679 0
M  V30 5490 O 515.01 2.36621 2.6625 0
M  V30 5491 O 513.869 3.43867 4.24756 0
M  V30 5492 H 510.963 0.492251 0.664543 0
M  V30 5493 H 513.509 1.50582 0.782511 0
M  V30 5494 H 512.281 3.30644 2.0926 0
M  V30 5495 H 511.904 2.14071 3.35051 0
M  V30 5496 N 512.901 -0.976442 1.23707 0
M  V30 5497 C 513.831 -2.08749 1.04624 0
M  V30 5498 C 514.812 -1.70057 -0.0380956 0
M  V30 5499 O 515.997 -1.93782 0.127308 0
M  V30 5500 C 513.127 -3.41335 0.640902 0
M  V30 5501 C 512.081 -3.93947 1.67302 0
M  V30 5502 C 511.407 -5.22774 1.12301 0
M  V30 5503 C 512.707 -4.22769 3.06697 0
M  V30 5504 H 514.401 -2.24972 1.97555 0
M  V30 5505 H 511.947 -1.08108 0.951247 0
M  V30 5506 H 513.9 -4.18489 0.494434 0
M  V30 5507 H 512.624 -3.24988 -0.324099 0
M  V30 5508 H 511.283 -3.18941 1.80755 0
M  V30 5509 H 510.931 -5.0278 0.148877 0
M  V30 5510 H 510.631 -5.58942 1.81267 0
M  V30 5511 H 512.155 -6.02546 0.988479 0
M  V30 5512 H 513.569 -4.90659 2.96524 0
M  V30 5513 H 511.966 -4.70147 3.72937 0
M  V30 5514 H 513.036 -3.29885 3.55392 0
M  V30 5515 N 514.379 -1.04941 -1.1758 0
M  V30 5516 C 515.607 -0.778294 -1.91703 0
M  V30 5517 C 516.022 0.665697 -1.76675 0
M  V30 5518 O 515.379 1.45456 -1.10222 0
M  V30 5519 C 515.43 -1.14628 -3.42845 0
M  V30 5520 O 515.151 -2.53359 -3.57409 0
M  V30 5521 C 516.652 -0.900931 -4.34049 0
M  V30 5522 H 513.872 -0.283167 -0.608323 0
M  V30 5523 H 516.416 -1.39942 -1.49119 0
M  V30 5524 H 514.571 -0.569953 -3.83184 0
M  V30 5525 H 514.985 -2.67709 -4.51035 0
M  V30 5526 H 516.459 -1.20817 -5.38616 0
M  V30 5527 H 516.936 0.163966 -4.38894 0
M  V30 5528 H 517.542 -1.46097 -3.99419 0
M  V30 5529 N 515.857 1.33968 -0.830081 0
M  V30 5530 C 517.106 1.97323 -0.417928 0
M  V30 5531 C 517.419 1.6652 1.02618 0
M  V30 5532 O 518.625 2.2342 1.54259 0
M  V30 5533 C 517.081 3.53099 -0.696359 0
M  V30 5534 C 516.689 3.92788 -2.15457 0
M  V30 5535 C 518.433 4.23049 -0.350724 0
M  V30 5536 C 516.34 5.41506 -2.37751 0
M  V30 5537 H 515.27 0.738409 -0.152541 0
M  V30 5538 H 517.921 1.52711 -1.01744 0
M  V30 5539 H 516.303 3.95991 -0.0265904 0
M  V30 5540 H 517.477 3.6098 -2.86408 0
M  V30 5541 H 515.792 3.35795 -2.46232 0
M  V30 5542 H 518.389 5.32403 -0.495036 0
M  V30 5543 H 518.732 4.10279 0.705476 0
M  V30 5544 H 519.265 3.85657 -0.975362 0
M  V30 5545 H 516.004 5.5927 -3.41903 0
M  V30 5546 H 515.524 5.74804 -1.7135 0
M  V30 5547 H 517.203 6.0828 -2.20465 0
M  V30 5548 N 517.335 0.585699 1.46312 0
M  V30 5549 C 518.612 0.00542031 1.95599 0
M  V30 5550 C 518.992 -1.45619 1.52834 0
M  V30 5551 O 518.34 -2.14759 0.780446 0
M  V30 5552 C 518.55 0.180601 3.48532 0
M  V30 5553 C 519.898 0.049979 4.24571 0
M  V30 5554 O 520.922 0.109589 3.56031 0
M  V30 5555 O 519.781 -0.0832226 5.46437 0
M  V30 5556 H 516.875 -0.0481281 0.825598 0
M  V30 5557 H 519.421 0.654227 1.56582 0
M  V30 5558 H 518.193 1.19657 3.72556 0
M  V30 5559 H 517.816 -0.504498 3.94386 0
M  V30 5560 N 518.813 -1.54241 0.323641 0
M  V30 5561 C 519.76 -2.24339 -0.542277 0
M  V30 5562 C 520.73 -1.23421 -1.11159 0
M  V30 5563 O 521.915 -1.52104 -1.15192 0
M  V30 5564 C 519.055 -3.00479 -1.69725 0
M  V30 5565 C 518.168 -4.16214 -1.15716 0
M  V30 5566 C 517.303 -4.79884 -2.27783 0
M  V30 5567 C 516.342 -5.87722 -1.71023 0
M  V30 5568 N 515.479 -6.45254 -2.76752 0
M  V30 5569 H 520.319 -2.97935 0.0620613 0
M  V30 5570 H 517.856 -1.47039 0.0423993 0
M  V30 5571 H 519.814 -3.42869 -2.3769 0
M  V30 5572 H 518.444 -2.29217 -2.27288 0
M  V30 5573 H 517.496 -3.78605 -0.369063 0
M  V30 5574 H 518.808 -4.93838 -0.701832 0
M  V30 5575 H 517.962 -5.25243 -3.03651 0
M  V30 5576 H 516.701 -4.01641 -2.76652 0
M  V30 5577 H 515.706 -5.41765 -0.936518 0
M  V30 5578 H 516.931 -6.67863 -1.2303 0
M  V30 5579 H 514.877 -5.69884 -3.24912 0
M  V30 5580 H 514.794 -7.18292 -2.35782 0
M  V30 5581 H 516.062 -6.95269 -3.5245 0
M  V30 5582 N 520.291 -0.0518155 -1.57515 0
M  V30 5583 C 521.201 0.937539 -2.15052 0
M  V30 5584 C 522.217 1.34121 -1.10849 0
M  V30 5585 O 523.393 1.418 -1.4302 0
M  V30 5586 C 520.458 2.19379 -2.68466 0
M  V30 5587 C 519.519 1.84841 -3.87469 0
M  V30 5588 C 518.752 3.04477 -4.38326 0
M  V30 5589 O 518.975 4.17868 -3.88256 0
M  V30 5590 O 517.909 2.85453 -5.29906 0
M  V30 5591 H 521.735 0.478201 -2.99912 0
M  V30 5592 H 519.32 0.17012 -1.48428 0
M  V30 5593 H 521.202 2.93084 -3.02787 0
M  V30 5594 H 519.877 2.64449 -1.86677 0
M  V30 5595 H 518.784 1.08449 -3.58036 0
M  V30 5596 H 520.117 1.44569 -4.7049 0
M  V30 5597 N 521.769 1.56035 0.221574 0
M  V30 5598 C 523.018 1.78245 0.944016 0
M  V30 5599 C 523.331 0.620371 1.85501 0
M  V30 5600 O 524.537 0.726103 2.6161 0
M  V30 5601 C 522.993 3.15659 1.7288 0
M  V30 5602 C 522.601 4.39591 0.863942 0
M  V30 5603 C 524.345 3.47195 2.44246 0
M  V30 5604 C 522.252 5.6803 1.64607 0
M  V30 5605 H 521.182 0.664547 0.356222 0
M  V30 5606 H 523.833 1.8243 0.197904 0
M  V30 5607 H 522.215 3.0565 2.51781 0
M  V30 5608 H 523.389 4.60655 0.115464 0
M  V30 5609 H 521.704 4.15572 0.262407 0
M  V30 5610 H 524.301 4.40381 3.03263 0
M  V30 5611 H 524.644 2.69693 3.1713 0
M  V30 5612 H 525.177 3.58533 1.72334 0
M  V30 5613 H 521.916 6.48425 0.960507 0
M  V30 5614 H 521.436 5.51027 2.36917 0
M  V30 5615 H 523.115 6.08203 2.20675 0
M  V30 5616 N 523.247 -0.488276 1.49845 0
M  V30 5617 C 524.477 -1.26344 1.63465 0
M  V30 5618 C 524.885 -1.86637 0.310379 0
M  V30 5619 O 524.228 -1.69184 -0.715712 0
M  V30 5620 C 524.29 -2.42407 2.65479 0
M  V30 5621 C 523.954 -2.02886 4.09495 0
M  V30 5622 C 524.951 -1.56124 4.95904 0
M  V30 5623 C 522.636 -2.12131 4.55308 0
M  V30 5624 C 524.63 -1.19129 6.26169 0
M  V30 5625 C 522.317 -1.74747 5.85582 0
M  V30 5626 C 523.315 -1.28322 6.70837 0
M  V30 5627 O 523.003 -0.914491 7.98682 0
M  V30 5628 H 522.735 -0.388921 0.552916 0
M  V30 5629 H 525.289 -0.591288 1.96705 0
M  V30 5630 H 523.519 -3.12739 2.27445 0
M  V30 5631 H 525.208 -3.04409 2.68495 0
M  V30 5632 H 525.974 -1.48417 4.61733 0
M  V30 5633 H 521.853 -2.47217 3.89107 0
M  V30 5634 H 525.397 -0.828211 6.92666 0
M  V30 5635 H 521.294 -1.82109 6.19279 0
M  V30 5636 H 522.062 -1.04485 8.11804 0
M  V30 5637 N 524.725 -1.39134 -0.740242 0
M  V30 5638 C 525.635 -1.39697 -1.88473 0
M  V30 5639 C 526.651 -0.292403 -1.71526 0
M  V30 5640 O 527.827 -0.533021 -1.94219 0
M  V30 5641 C 524.892 -1.23382 -3.24003 0
M  V30 5642 C 523.953 -2.43763 -3.53381 0
M  V30 5643 C 523.186 -2.28216 -4.82445 0
M  V30 5644 O 523.409 -1.28288 -5.55786 0
M  V30 5645 O 522.343 -3.1709 -5.11603 0
M  V30 5646 H 526.169 -2.36159 -1.90952 0
M  V30 5647 H 523.754 -1.20194 -0.887346 0
M  V30 5648 H 525.636 -1.16395 -4.05006 0
M  V30 5649 H 524.311 -0.300121 -3.22306 0
M  V30 5650 H 523.218 -2.56325 -2.72485 0
M  V30 5651 H 524.551 -3.35808 -3.59852 0
M  V30 5652 N 526.204 0.969867 -1.24223 0
M  V30 5653 C 527.136 2.0669 -0.99055 0
M  V30 5654 C 528.149 1.62753 0.0392222 0
M  V30 5655 O 529.338 1.77403 -0.197561 0
M  V30 5656 C 526.438 3.35589 -0.472594 0
M  V30 5657 C 525.611 4.08444 -1.56499 0
M  V30 5658 C 524.67 5.15616 -1.05007 0
M  V30 5659 O 523.696 5.41911 -1.7413 0
M  V30 5660 N 524.898 5.80383 0.116641 0
M  V30 5661 H 527.663 2.28855 -1.93508 0
M  V30 5662 H 525.224 1.13733 -1.15223 0
M  V30 5663 H 527.216 4.04542 -0.112919 0
M  V30 5664 H 525.786 3.10311 0.377617 0
M  V30 5665 H 525.006 3.33798 -2.09696 0
M  V30 5666 H 526.294 4.53882 -2.29932 0
M  V30 5667 H 525.692 5.6142 0.694589 0
M  V30 5668 H 524.249 6.50462 0.417483 0
M  V30 5669 N 527.682 1.05563 1.17022 0
M  V30 5670 C 528.612 0.681026 2.23348 0
M  V30 5671 C 529.593 -0.322983 1.67005 0
M  V30 5672 O 530.778 -0.199746 1.9317 0
M  V30 5673 C 527.908 0.0589053 3.4725 0
M  V30 5674 C 526.862 0.988082 4.16438 0
M  V30 5675 C 526.188 0.229646 5.34207 0
M  V30 5676 C 527.488 2.31388 4.68249 0
M  V30 5677 H 529.182 1.56993 2.54938 0
M  V30 5678 H 526.728 0.756302 1.2254 0
M  V30 5679 H 528.681 -0.214982 4.20851 0
M  V30 5680 H 527.405 -0.864968 3.14938 0
M  V30 5681 H 526.064 1.24659 3.44754 0
M  V30 5682 H 525.712 -0.697111 4.98146 0
M  V30 5683 H 525.412 0.848815 5.81437 0
M  V30 5684 H 526.936 -0.0368694 6.10589 0
M  V30 5685 H 528.35 2.09964 5.33468 0
M  V30 5686 H 526.747 2.88736 5.26072 0
M  V30 5687 H 527.817 2.94982 3.84855 0
M  V30 5688 N 529.16 -1.33526 0.837174 0
M  V30 5689 C 530.09 -2.31764 0.284206 0
M  V30 5690 C 531.071 -1.58896 -0.607142 0
M  V30 5691 O 532.256 -1.86798 -0.531047 0
M  V30 5692 C 529.386 -3.43029 -0.542962 0
M  V30 5693 C 528.34 -4.27255 0.252451 0
M  V30 5694 C 527.666 -5.3012 -0.69836 0
M  V30 5695 C 528.966 -5.01229 1.46858 0
M  V30 5696 H 530.66 -2.78262 1.10502 0
M  V30 5697 H 528.206 -1.3378 0.532812 0
M  V30 5698 H 530.159 -4.1078 -0.940096 0
M  V30 5699 H 528.883 -2.95216 -1.39697 0
M  V30 5700 H 527.542 -3.61127 0.631124 0
M  V30 5701 H 527.19 -4.78564 -1.54872 0
M  V30 5702 H 526.89 -5.87353 -0.170274 0
M  V30 5703 H 528.414 -6.00737 -1.09305 0
M  V30 5704 H 529.828 -5.61756 1.14469 0
M  V30 5705 H 528.225 -5.68104 1.93333 0
M  V30 5706 H 529.295 -4.301 2.23924 0
M  V30 5707 N 530.638 -0.59345 -1.46 0
M  V30 5708 C 531.57 0.171569 -2.28557 0
M  V30 5709 C 532.583 0.845273 -1.39137 0
M  V30 5710 O 533.772 0.713033 -1.6364 0
M  V30 5711 C 530.872 1.26311 -3.14482 0
M  V30 5712 C 530.045 0.679258 -4.32094 0
M  V30 5713 C 529.104 1.65987 -4.99334 0
M  V30 5714 O 528.13 1.19171 -5.56585 0
M  V30 5715 N 529.332 2.99414 -4.97324 0
M  V30 5716 H 532.097 -0.536771 -2.94854 0
M  V30 5717 H 529.658 -0.431954 -1.56031 0
M  V30 5718 H 531.65 1.91863 -3.5633 0
M  V30 5719 H 530.22 1.87416 -2.50188 0
M  V30 5720 H 529.44 -0.153992 -3.93899 0
M  V30 5721 H 530.728 0.26916 -5.08088 0
M  V30 5722 H 530.126 3.40064 -4.52076 0
M  V30 5723 H 528.683 3.60426 -5.4308 0
M  V30 5724 N 532.116 1.54067 -0.331816 0
M  V30 5725 C 533.026 2.28322 0.539104 0
M  V30 5726 C 534.042 1.32985 1.1221 0
M  V30 5727 O 535.218 1.6601 1.1403 0
M  V30 5728 C 532.283 3.03277 1.68 0
M  V30 5729 C 531.344 4.14216 1.12798 0
M  V30 5730 C 530.577 4.85588 2.2145 0
M  V30 5731 O 530.8 4.56536 3.41952 0
M  V30 5732 O 529.734 5.72309 1.86404 0
M  V30 5733 H 533.56 3.03632 -0.0641692 0
M  V30 5734 H 531.145 1.49083 -0.0972365 0
M  V30 5735 H 533.027 3.50189 2.34405 0
M  V30 5736 H 531.702 2.30834 2.2693 0
M  V30 5737 H 530.609 3.71635 0.428782 0
M  V30 5738 H 531.942 4.88727 0.583698 0
M  V30 5739 N 533.594 0.0601682 1.57485 0
M  V30 5740 C 534.842 -0.610386 1.92662 0
M  V30 5741 C 535.163 -1.70849 0.939981 0
M  V30 5742 O 534.433 -1.95895 -0.0137455 0
M  V30 5743 H 533.013 -0.228457 0.711208 0
M  V30 5744 H 535.675 0.115288 1.94559 0
M  V30 5745 H 534.771 -1.0432 2.94149 0
M  V30 5746 N 535.072 -1.5615 -0.213296 0
M  V30 5747 C 536.321 -1.78743 -0.93455 0
M  V30 5748 C 536.634 -0.630199 -1.8517 0
M  V30 5749 O 537.84 -0.739966 -2.61222 0
M  V30 5750 C 536.296 -3.16571 -1.71203 0
M  V30 5751 C 535.904 -4.40043 -0.840617 0
M  V30 5752 C 537.648 -3.48485 -2.42401 0
M  V30 5753 C 535.555 -5.68895 -1.61592 0
M  V30 5754 H 534.485 -0.666426 -0.352692 0
M  V30 5755 H 537.136 -1.82532 -0.188227 0
M  V30 5756 H 535.518 -3.06981 -2.50157 0
M  V30 5757 H 536.692 -4.6071 -0.0910326 0
M  V30 5758 H 535.007 -4.15706 -0.240365 0
M  V30 5759 H 537.604 -4.41983 -3.00924 0
M  V30 5760 H 537.947 -2.71371 -3.15695 0
M  V30 5761 H 538.48 -3.59442 -1.7043 0
M  V30 5762 H 535.219 -6.48925 -0.926106 0
M  V30 5763 H 534.739 -5.52275 -2.33991 0
M  V30 5764 H 536.418 -6.09365 -2.17447 0
M  V30 5765 N 536.55 0.480323 -1.50102 0
M  V30 5766 C 537.827 1.24159 -1.51142 0
M  V30 5767 C 538.207 2.09605 -0.250818 0
M  V30 5768 O 537.555 2.15274 0.766118 0
M  V30 5769 C 537.765 2.08057 -2.80202 0
M  V30 5770 C 539.113 2.66556 -3.30504 0
M  V30 5771 O 540.137 2.18308 -2.81461 0
M  V30 5772 O 538.996 3.54442 -4.15973 0
M  V30 5773 H 536.09 0.562928 -0.605839 0
M  V30 5774 H 538.636 0.492899 -1.62384 0
M  V30 5775 H 537.408 1.45032 -3.6343 0
M  V30 5776 H 537.031 2.90079 -2.71919 0
M  V30 5777 N 538.028 1.39524 0.732853 0
M  V30 5778 C 538.978 1.34905 1.83806 0
M  V30 5779 C 539.962 0.229546 1.59254 0
M  V30 5780 O 541.154 0.467255 1.70721 0
M  V30 5781 C 538.283 1.19699 3.21756 0
M  V30 5782 C 537.369 2.36359 3.5213 0
M  V30 5783 N 537.76 3.61834 3.53426 0
M  V30 5784 C 536.058 2.29363 3.82503 0
M  V30 5785 C 536.759 4.38992 3.81655 0
M  V30 5786 N 535.735 3.68606 3.99538 0
M  V30 5787 H 539.537 2.29882 1.83116 0
M  V30 5788 H 537.051 1.33051 0.931194 0
M  V30 5789 H 539.048 1.14472 4.00876 0
M  V30 5790 H 537.708 0.256739 3.23683 0
M  V30 5791 H 538.719 3.95228 3.34686 0
M  V30 5792 H 535.396 1.43612 3.92023 0
M  V30 5793 H 536.786 5.47763 3.89108 0
M  V30 5794 N 539.506 -0.963266 1.24736 0
M  V30 5795 C 540.436 -2.07628 1.06832 0
M  V30 5796 C 541.417 -1.70088 -0.0200566 0
M  V30 5797 O 542.602 -1.93636 0.147854 0
M  V30 5798 C 539.732 -3.40636 0.677069 0
M  V30 5799 C 538.686 -3.9215 1.71471 0
M  V30 5800 C 538.012 -5.21553 1.1784 0
M  V30 5801 C 539.312 -4.19493 3.11164 0
M  V30 5802 H 541.006 -2.22864 1.9993 0
M  V30 5803 H 538.552 -1.07093 0.96266 0
M  V30 5804 H 540.505 -4.17941 0.538792 0
M  V30 5805 H 539.229 -3.25313 -0.289612 0
M  V30 5806 H 537.888 -3.17005 1.84128 0
M  V30 5807 H 537.536 -5.02593 0.202195 0
M  V30 5808 H 537.236 -5.56988 1.87185 0
M  V30 5809 H 538.76 -6.01463 1.05233 0
M  V30 5810 H 540.174 -4.87487 3.01711 0
M  V30 5811 H 538.571 -4.66165 3.77902 0
M  V30 5812 H 539.641 -3.26097 3.58871 0
M  V30 5813 N 540.985 -1.06182 -1.16461 0
M  V30 5814 C 541.915 -0.692861 -2.22984 0
M  V30 5815 C 542.896 0.314122 -1.67174 0
M  V30 5816 O 544.081 0.189499 -1.93273 0
M  V30 5817 C 541.211 -0.07732 -3.47214 0
M  V30 5818 C 540.165 -1.01015 -4.15909 0
M  V30 5819 C 539.491 -0.257973 -5.34077 0
M  V30 5820 C 540.791 -2.33868 -4.67015 0
M  V30 5821 H 542.485 -1.58343 -2.54102 0
M  V30 5822 H 540.031 -0.76279 -1.22137 0
M  V30 5823 H 541.984 0.19266 -4.20959 0
M  V30 5824 H 540.708 0.848254 -3.15392 0
M  V30 5825 H 539.367 -1.26486 -3.44088 0
M  V30 5826 H 539.015 0.670684 -4.98509 0
M  V30 5827 H 538.715 -0.879638 -5.80979 0
M  V30 5828 H 540.239 0.00448788 -6.106 0
M  V30 5829 H 541.653 -2.1279 -5.32347 0
M  V30 5830 H 540.05 -2.91522 -5.24533 0
M  V30 5831 H 541.12 -2.97019 -3.83286 0
M  V30 5832 N 542.463 1.3308 -0.844243 0
M  V30 5833 C 543.426 2.27403 -0.286485 0
M  V30 5834 C 544.426 1.51179 0.547872 0
M  V30 5835 O 545.616 1.70421 0.360886 0
M  V30 5836 C 542.748 3.35653 0.595813 0
M  V30 5837 H 543.941 2.78248 -1.11885 0
M  V30 5838 H 541.494 1.43574 -0.617749 0
M  V30 5839 H 542.229 2.90058 1.4504 0
M  V30 5840 H 542.014 3.921 -0.00125994 0
M  V30 5841 H 543.504 4.05958 0.979168 0
M  V30 5842 N 543.941 0.601185 1.45683 0
M  V30 5843 C 544.873 -0.159446 2.28645 0
M  V30 5844 C 545.886 -0.837882 1.39583 0
M  V30 5845 O 547.075 -0.704344 1.64016 0
M  V30 5846 C 544.175 -1.24641 3.15147 0
M  V30 5847 C 543.348 -0.656334 4.32448 0
M  V30 5848 C 542.407 -1.63337 5.00208 0
M  V30 5849 O 541.433 -1.16217 5.57209 0
M  V30 5850 N 542.635 -2.96773 4.98905 0
M  V30 5851 H 545.4 0.5524 2.94565 0
M  V30 5852 H 542.961 0.440223 1.558 0
M  V30 5853 H 544.953 -1.8997 3.57342 0
M  V30 5854 H 543.523 -1.86087 2.51178 0
M  V30 5855 H 542.743 0.174879 3.93812 0
M  V30 5856 H 544.031 -0.242211 5.08223 0
M  V30 5857 H 543.429 -3.37662 4.53873 0
M  V30 5858 H 541.986 -3.57541 5.44984 0
M  V30 5859 N 545.419 -1.53889 0.339982 0
M  V30 5860 C 546.369 -2.2165 -0.534354 0
M  V30 5861 C 547.353 -1.20266 -1.06887 0
M  V30 5862 O 548.545 -1.45827 -1.00316 0
M  V30 5863 C 545.674 -2.99014 -1.68659 0
M  V30 5864 C 544.76 -4.07751 -1.16618 0
M  V30 5865 N 545.151 -5.04469 -0.366717 0
M  V30 5866 C 543.449 -4.21998 -1.4434 0
M  V30 5867 C 544.15 -5.81638 -0.0847275 0
M  V30 5868 N 543.126 -5.39388 -0.675391 0
M  V30 5869 H 546.928 -2.93781 0.0835562 0
M  V30 5870 H 544.442 -1.61736 0.146665 0
M  V30 5871 H 546.439 -3.46056 -2.32489 0
M  V30 5872 H 545.099 -2.28408 -2.30781 0
M  V30 5873 H 546.11 -5.17899 -0.00811038 0
M  V30 5874 H 542.787 -3.62612 -2.06928 0
M  V30 5875 H 544.177 -6.69563 0.559943 0
M  V30 5876 N 546.897 -0.0685191 -1.57451 0
M  V30 5877 C 548.143 0.602239 -1.93652 0
M  V30 5878 C 548.476 1.6946 -0.948526 0
M  V30 5879 O 547.751 1.94487 0.022782 0
M  V30 5880 C 548.034 1.18223 -3.4014 0
M  V30 5881 C 547.887 0.0967431 -4.49696 0
M  V30 5882 C 549.206 2.08872 -3.87377 0
M  V30 5883 H 546.325 0.217453 -0.70419 0
M  V30 5884 H 548.967 -0.133821 -1.89528 0
M  V30 5885 H 547.117 1.80953 -3.43785 0
M  V30 5886 H 548.789 -0.536155 -4.58174 0
M  V30 5887 H 547.032 -0.573063 -4.29998 0
M  V30 5888 H 547.703 0.542894 -5.49324 0
M  V30 5889 H 550.179 1.56081 -3.85717 0
M  V30 5890 H 549.055 2.46389 -4.90493 0
M  V30 5891 H 549.316 2.99572 -3.25129 0
M  V30 5892 N 548.375 1.56261 0.205012 0
M  V30 5893 C 549.338 1.92908 1.23771 0
M  V30 5894 C 550.338 0.809208 1.38955 0
M  V30 5895 O 551.528 1.07676 1.36936 0
M  V30 5896 C 548.66 2.19442 2.60879 0
M  V30 5897 H 549.853 2.85287 0.924728 0
M  V30 5898 H 547.406 1.49798 0.446125 0
M  V30 5899 H 548.141 1.29668 2.97248 0
M  V30 5900 H 547.926 3.0104 2.51232 0
M  V30 5901 H 549.416 2.48833 3.35368 0
M  V30 5902 N 549.853 -0.472356 1.50355 0
M  V30 5903 C 550.803 -1.56809 1.65514 0
M  V30 5904 C 551.787 -1.5261 0.509801 0
M  V30 5905 O 552.979 -1.59655 0.764145 0
M  V30 5906 C 550.108 -2.9526 1.75146 0
M  V30 5907 C 549.194 -3.04348 2.95353 0
M  V30 5908 N 549.585 -2.83253 4.19048 0
M  V30 5909 C 547.883 -3.35482 2.93884 0
M  V30 5910 C 548.584 -2.97273 5.00003 0
M  V30 5911 N 547.56 -3.27418 4.33934 0
M  V30 5912 H 551.362 -1.39197 2.58846 0
M  V30 5913 H 548.876 -0.67906 1.47521 0
M  V30 5914 H 550.873 -3.74044 1.8411 0
M  V30 5915 H 549.533 -3.1392 0.829717 0
M  V30 5916 H 550.544 -2.5886 4.48567 0
M  V30 5917 H 547.221 -3.60138 2.11204 0
M  V30 5918 H 548.611 -2.85214 6.08361 0
M  V30 5919 N 551.331 -1.39911 -0.725443 0
M  V30 5920 C 552.261 -1.42138 -1.85254 0
M  V30 5921 C 553.242 -0.283513 -1.67721 0
M  V30 5922 O 554.427 -0.490717 -1.87898 0
M  V30 5923 C 551.557 -1.27354 -3.23107 0
M  V30 5924 C 550.511 -2.3864 -3.55296 0
M  V30 5925 C 549.837 -2.08939 -4.92188 0
M  V30 5926 C 551.137 -3.8097 -3.57295 0
M  V30 5927 H 552.831 -2.36461 -1.83648 0
M  V30 5928 H 550.377 -1.13817 -0.882138 0
M  V30 5929 H 552.33 -1.2753 -4.01639 0
M  V30 5930 H 551.054 -0.295025 -3.25265 0
M  V30 5931 H 549.713 -2.37696 -2.79099 0
M  V30 5932 H 549.361 -1.09502 -4.90936 0
M  V30 5933 H 549.061 -2.83491 -5.14691 0
M  V30 5934 H 550.585 -2.10781 -5.73065 0
M  V30 5935 H 551.999 -3.8379 -4.25885 0
M  V30 5936 H 550.396 -4.5496 -3.9132 0
M  V30 5937 H 551.466 -4.11261 -2.5689 0
M  V30 5938 N 552.809 0.956637 -1.25245 0
M  V30 5939 C 554.056 1.701 -1.09874 0
M  V30 5940 C 554.384 1.91128 0.36062 0
M  V30 5941 O 553.639 1.47837 1.28229 0
M  V30 5942 C 553.938 3.08996 -1.79601 0
M  V30 5943 C 553.604 3.07774 -3.29523 0
M  V30 5944 C 552.266 3.07149 -3.70423 0
M  V30 5945 C 554.618 3.01257 -4.25316 0
M  V30 5946 C 551.946 2.97752 -5.0553 0
M  V30 5947 C 554.298 2.93403 -5.60444 0
M  V30 5948 C 552.962 2.91111 -6.00675 0
M  V30 5949 H 552.232 0.62244 -0.402056 0
M  V30 5950 H 554.879 1.1178 -1.55491 0
M  V30 5951 H 553.184 3.70848 -1.26408 0
M  V30 5952 H 554.881 3.65407 -1.65162 0
M  V30 5953 H 551.471 3.09032 -2.9698 0
M  V30 5954 H 555.655 3.00861 -3.9471 0
M  V30 5955 H 550.911 2.94346 -5.35883 0
M  V30 5956 H 555.085 2.87321 -6.34366 0
M  V30 5957 H 552.712 2.83586 -7.05325 0
M  V30 5958 N 554.287 1.06798 1.15896 0
M  V30 5959 C 555.536 0.782796 1.8589 0
M  V30 5960 C 555.849 -0.693498 1.82893 0
M  V30 5961 O 557.055 -1.09325 2.48516 0
M  V30 5962 C 555.511 1.3502 3.33613 0
M  V30 5963 C 555.119 2.8571 3.45071 0
M  V30 5964 C 556.863 1.14278 4.08829 0
M  V30 5965 C 554.77 3.35669 4.86909 0
M  V30 5966 H 553.7 0.289149 0.696354 0
M  V30 5967 H 556.351 1.28734 1.30766 0
M  V30 5968 H 554.733 0.773407 3.88374 0
M  V30 5969 H 555.907 3.49385 3.00445 0
M  V30 5970 H 554.222 3.05178 2.83294 0
M  V30 5971 H 556.819 1.49087 5.13495 0
M  V30 5972 H 557.162 0.0814575 4.1622 0
M  V30 5973 H 557.695 1.68563 3.60321 0
M  V30 5974 H 554.434 4.41302 4.84698 0
M  V30 5975 H 553.954 2.76745 5.32139 0
M  V30 5976 H 555.633 3.31296 5.55745 0
M  V30 5977 N 555.766 -1.3263 0.851289 0
M  V30 5978 C 557.182 -1.50162 0.5407 0
M  V30 5979 C 557.382 -1.78788 -0.929369 0
M  V30 5980 O 556.438 -1.85545 -1.71258 0
M  V30 5981 C 557.751 -2.64803 1.42478 0
M  V30 5982 C 559.299 -2.78688 1.42485 0
M  V30 5983 C 559.774 -3.96405 2.29407 0
M  V30 5984 N 561.265 -4.0366 2.27184 0
M  V30 5985 C 562 -4.93971 2.9117 0
M  V30 5986 N 561.496 -5.89313 3.64256 0
M  V30 5987 N 563.289 -4.87066 2.80576 0
M  V30 5988 H 555.44 -1.12315 1.80275 0
M  V30 5989 H 557.703 -0.553266 0.769806 0
M  V30 5990 H 557.409 -2.50368 2.46999 0
M  V30 5991 H 557.283 -3.60506 1.10974 0
M  V30 5992 H 559.67 -2.92547 0.387304 0
M  V30 5993 H 559.751 -1.83708 1.78002 0
M  V30 5994 H 559.395 -3.83304 3.33228 0
M  V30 5995 H 559.325 -4.90654 1.91224 0
M  V30 5996 H 561.816 -3.35435 1.74045 0
M  V30 5997 H 562.129 -6.54913 4.10255 0
M  V30 5998 H 560.474 -5.8935 3.68364 0
M  V30 5999 H 563.665 -4.11552 2.23031 0
M  V30 6000 H 563.838 -5.57248 3.30725 0
M  V30 6001 N 557.244 -0.608902 -1.45362 0
M  V30 6002 C 558.521 -0.0365378 -1.95566 0
M  V30 6003 C 558.901 1.43169 -1.55131 0
M  V30 6004 O 558.249 2.1349 -0.814513 0
M  V30 6005 C 558.459 -0.236026 -3.48201 0
M  V30 6006 C 559.807 -0.117518 -4.24437 0
M  V30 6007 O 560.831 -0.166217 -3.55812 0
M  V30 6008 O 559.69 -0.00372127 -5.465 0
M  V30 6009 H 556.784 0.0349874 -0.82626 0
M  V30 6010 H 559.33 -0.679055 -1.55521 0
M  V30 6011 H 558.102 -1.25569 -3.70605 0
M  V30 6012 H 557.725 0.441691 -3.95139 0
M  V30 6013 N 558.722 1.53707 -0.348139 0
M  V30 6014 C 560.133 1.86213 0.134797 0
M  V30 6015 C 560.484 1.26925 1.49614 0
M  V30 6016 O 559.609 0.584573 2.08355 0
M  V30 6017 C 560.204 3.37866 0.251371 0
M  V30 6018 C 558.763 3.70233 0.678543 0
M  V30 6019 C 557.91 2.76683 -0.184925 0
M  V30 6020 H 560.861 1.48204 -0.567571 0
M  V30 6021 H 560.882 3.64908 1.07806 0
M  V30 6022 H 560.394 3.80988 -0.739581 0
M  V30 6023 H 558.495 3.32659 1.67835 0
M  V30 6024 H 558.608 4.76836 0.465251 0
M  V30 6025 H 556.972 2.52374 0.343465 0
M  V30 6026 H 557.755 3.22635 -1.1731 0
M  V30 6027 N 560.2 0.0768682 1.57412 0
M  V30 6028 C 561.13 -0.886026 2.16037 0
M  V30 6029 C 562.111 -1.30691 1.08876 0
M  V30 6030 O 563.296 -1.37705 1.36934 0
M  V30 6031 C 560.426 -2.1518 2.72608 0
M  V30 6032 C 559.38 -1.87015 3.8498 0
M  V30 6033 C 558.706 -3.20266 4.28175 0
M  V30 6034 C 560.006 -1.17143 5.08994 0
M  V30 6035 H 561.7 -0.397642 2.96748 0
M  V30 6036 H 559.246 -0.189823 1.42743 0
M  V30 6037 H 561.199 -2.82962 3.12266 0
M  V30 6038 H 559.923 -2.66269 1.89125 0
M  V30 6039 H 558.582 -1.21636 3.45833 0
M  V30 6040 H 558.23 -3.69207 3.41607 0
M  V30 6041 H 557.93 -3.0221 5.03927 0
M  V30 6042 H 559.454 -3.89237 4.70454 0
M  V30 6043 H 560.868 -1.75003 5.45937 0
M  V30 6044 H 559.265 -1.09328 5.90057 0
M  V30 6045 H 560.335 -0.151295 4.84664 0
M  V30 6046 N 561.678 -1.56367 -0.196722 0
M  V30 6047 C 562.906 -1.84639 -0.933608 0
M  V30 6048 C 563.321 -0.659164 -1.76919 0
M  V30 6049 O 562.678 0.372142 -1.78665 0
M  V30 6050 C 562.729 -3.11694 -1.83109 0
M  V30 6051 O 562.45 -4.25838 -1.02924 0
M  V30 6052 C 563.951 -3.53132 -2.67979 0
M  V30 6053 H 561.171 -0.613188 -0.272473 0
M  V30 6054 H 563.715 -2.03475 -0.204465 0
M  V30 6055 H 561.87 -2.94759 -2.51387 0
M  V30 6056 H 562.284 -4.98178 -1.64069 0
M  V30 6057 H 563.758 -4.45005 -3.26611 0
M  V30 6058 H 564.235 -2.76045 -3.41608 0
M  V30 6059 H 564.841 -3.72592 -2.05074 0
M  V30 6060 N 563.156 0.464375 -1.50603 0
M  V30 6061 C 564.086 1.56944 -1.72889 0
M  V30 6062 C 565.067 1.59979 -0.577997 0
M  V30 6063 O 566.252 1.76138 -0.817855 0
M  V30 6064 C 563.382 2.95225 -1.8292 0
M  V30 6065 C 562.336 3.07056 -2.98162 0
M  V30 6066 C 561.662 4.47051 -2.93343 0
M  V30 6067 C 562.962 2.83648 -4.38567 0
M  V30 6068 H 564.656 1.38547 -2.65415 0
M  V30 6069 H 562.202 0.665082 -1.27721 0
M  V30 6070 H 564.155 3.72467 -1.97095 0
M  V30 6071 H 562.879 3.14793 -0.870209 0
M  V30 6072 H 561.538 2.32248 -2.83648 0
M  V30 6073 H 561.186 4.63547 -1.95276 0
M  V30 6074 H 560.886 4.55902 -3.70712 0
M  V30 6075 H 562.41 5.26304 -3.09575 0
M  V30 6076 H 563.824 3.50636 -4.53572 0
M  V30 6077 H 562.221 3.03937 -5.17438 0
M  V30 6078 H 563.291 1.79451 -4.50472 0
M  V30 6079 N 564.634 1.40294 0.718013 0
M  V30 6080 C 565.881 1.3844 1.47786 0
M  V30 6081 C 566.209 -0.0140838 1.94495 0
M  V30 6082 O 565.464 -0.998165 1.68331 0
M  V30 6083 C 565.763 2.31814 2.72024 0
M  V30 6084 C 565.429 3.79117 2.44093 0
M  V30 6085 C 564.091 4.19249 2.36185 0
M  V30 6086 C 566.443 4.72212 2.20602 0
M  V30 6087 C 563.771 5.50516 2.02851 0
M  V30 6088 C 566.123 6.03775 1.88781 0
M  V30 6089 C 564.787 6.42953 1.79354 0
M  V30 6090 H 564.057 0.506588 0.540786 0
M  V30 6091 H 566.704 1.72929 0.822663 0
M  V30 6092 H 565.009 1.90501 3.42369 0
M  V30 6093 H 566.706 2.27664 3.30106 0
M  V30 6094 H 563.296 3.47318 2.51133 0
M  V30 6095 H 567.48 4.42026 2.25669 0
M  V30 6096 H 562.736 5.79776 1.94088 0
M  V30 6097 H 566.91 6.75428 1.69617 0
M  V30 6098 H 564.537 7.44584 1.53291 0
M  V30 6099 N 566.112 -0.949982 1.2575 0
M  V30 6100 C 567.022 -2.08109 1.08295 0
M  V30 6101 C 568.038 -1.7399 0.0188181 0
M  V30 6102 O 569.214 -2.00187 0.220724 0
M  V30 6103 C 566.279 -3.39383 0.708534 0
M  V30 6104 C 565.34 -3.8734 1.85111 0
M  V30 6105 C 564.573 -5.12349 1.49447 0
M  V30 6106 O 564.796 -5.6905 0.392212 0
M  V30 6107 O 563.73 -5.5513 2.32624 0
M  V30 6108 H 567.556 -2.25738 2.03165 0
M  V30 6109 H 565.141 -1.06545 1.04731 0
M  V30 6110 H 567.023 -4.18277 0.512061 0
M  V30 6111 H 565.698 -3.23013 -0.210854 0
M  V30 6112 H 564.605 -3.09429 2.10248 0
M  V30 6113 H 565.938 -4.08216 2.74991 0
M  V30 6114 N 567.59 -1.07411 -1.15328 0
M  V30 6115 C 568.5 -0.706438 -2.23711 0
M  V30 6116 C 569.516 0.282586 -1.7169 0
M  V30 6117 O 570.692 0.129066 -2.00986 0
M  V30 6118 C 567.757 -0.11048 -3.46524 0
M  V30 6119 C 566.818 -1.15282 -4.13532 0
M  V30 6120 C 566.051 -0.585205 -5.30482 0
M  V30 6121 O 566.274 0.598549 -5.67251 0
M  V30 6122 O 565.208 -1.33039 -5.87013 0
M  V30 6123 H 569.034 -1.61031 -2.57493 0
M  V30 6124 H 566.619 -0.847113 -1.23062 0
M  V30 6125 H 568.501 0.21957 -4.20828 0
M  V30 6126 H 567.176 0.766703 -3.14489 0
M  V30 6127 H 566.083 -1.53523 -3.41147 0
M  V30 6128 H 567.416 -2.00192 -4.49649 0
M  V30 6129 N 569.068 1.32177 -0.85831 0
M  V30 6130 C 570.015 2.28794 -0.303607 0
M  V30 6131 C 570.985 1.55213 0.591453 0
M  V30 6132 O 572.17 1.83418 0.525585 0
M  V30 6133 C 569.31 3.41475 0.49889 0
M  V30 6134 C 568.423 4.2993 -0.422373 0
M  V30 6135 C 567.558 5.29743 0.393111 0
M  V30 6136 C 566.597 6.09842 -0.525317 0
M  V30 6137 N 565.734 7.01643 0.253208 0
M  V30 6138 H 570.574 2.75631 -1.13276 0
M  V30 6139 H 568.111 1.35606 -0.570026 0
M  V30 6140 H 570.069 4.05531 0.979826 0
M  V30 6141 H 568.699 2.95779 1.29284 0
M  V30 6142 H 567.751 3.66422 -1.02171 0
M  V30 6143 H 569.063 4.85899 -1.12709 0
M  V30 6144 H 568.217 5.9942 0.937056 0
M  V30 6145 H 566.956 4.744 1.13117 0
M  V30 6146 H 565.961 5.39066 -1.08112 0
M  V30 6147 H 567.186 6.6727 -1.26205 0
M  V30 6148 H 565.132 6.48725 0.974295 0
M  V30 6149 H 565.049 7.54981 -0.392398 0
M  V30 6150 H 566.317 7.756 0.778761 0
M  V30 6151 N 570.547 0.616602 1.45037 0
M  V30 6152 C 571.796 0.112861 2.01384 0
M  V30 6153 C 572.109 -1.26758 1.48969 0
M  V30 6154 O 573.315 -1.86454 1.9735 0
M  V30 6155 C 571.771 0.151057 3.59583 0
M  V30 6156 C 571.379 1.53191 4.20995 0
M  V30 6157 C 573.123 -0.296974 4.2346 0
M  V30 6158 C 571.03 1.526 5.71373 0
M  V30 6159 H 569.96 0.0384254 0.75302 0
M  V30 6160 H 572.611 0.773262 1.66412 0
M  V30 6161 H 570.993 -0.57617 3.91786 0
M  V30 6162 H 572.167 2.28156 4.00352 0
M  V30 6163 H 570.482 1.92279 3.69348 0
M  V30 6164 H 573.079 -0.320712 5.33737 0
M  V30 6165 H 573.422 -1.32145 3.9477 0
M  V30 6166 H 573.955 0.377279 3.96007 0
M  V30 6167 H 570.694 2.52837 6.04776 0
M  V30 6168 H 570.214 0.819064 5.94181 0
M  V30 6169 H 571.893 1.25357 6.3474 0
M  V30 6170 N 572.025 -1.5352 0.356285 0
M  V30 6171 C 572.975 -2.22204 -0.510815 0
M  V30 6172 C 573.959 -1.21393 -1.05605 0
M  V30 6173 O 575.151 -1.46883 -0.987639 0
M  V30 6174 C 572.28 -3.00786 -1.65478 0
M  V30 6175 C 571.366 -4.08965 -1.12287 0
M  V30 6176 N 571.757 -5.04829 -0.313191 0
M  V30 6177 C 570.055 -4.23505 -1.39856 0
M  V30 6178 C 570.756 -5.81695 -0.0230322 0
M  V30 6179 N 569.732 -5.40074 -0.618144 0
M  V30 6180 H 573.534 -2.93676 0.114711 0
M  V30 6181 H 571.048 -1.61572 0.163811 0
M  V30 6182 H 573.045 -3.48502 -2.28806 0
M  V30 6183 H 571.705 -2.30843 -2.28345 0
M  V30 6184 H 572.716 -5.17879 0.0468202 0
M  V30 6185 H 569.393 -3.64786 -2.0307 0
M  V30 6186 H 570.783 -6.68931 0.630927 0
M  V30 6187 N 573.503 -0.0852151 -1.57369 0
M  V30 6188 C 574.433 0.874556 -2.16503 0
M  V30 6189 C 575.414 1.30111 -1.09568 0
M  V30 6190 O 576.599 1.36977 -1.37662 0
M  V30 6191 C 573.729 2.13731 -2.73745 0
M  V30 6192 C 572.683 1.84971 -3.85966 0
M  V30 6193 C 572.009 3.17991 -4.29867 0
M  V30 6194 C 573.309 1.14442 -5.09608 0
M  V30 6195 H 575.003 0.381899 -2.96954 0
M  V30 6196 H 572.549 0.18225 -1.42842 0
M  V30 6197 H 574.502 2.81302 -3.13763 0
M  V30 6198 H 573.226 2.65263 -1.90534 0
M  V30 6199 H 571.885 1.19801 -3.46473 0
M  V30 6200 H 571.533 3.6739 -3.4356 0
M  V30 6201 H 571.233 2.99534 -5.05523 0
M  V30 6202 H 572.757 3.86737 -4.72511 0
M  V30 6203 H 574.171 1.72105 -5.46857 0
M  V30 6204 H 572.568 1.06197 -5.90629 0
M  V30 6205 H 573.638 0.12559 -4.84737 0
M  V30 6206 N 574.981 1.5647 0.188427 0
M  V30 6207 C 576.258 1.71857 0.934058 0
M  V30 6208 C 576.638 0.641867 2.01105 0
M  V30 6209 O 575.986 -0.346098 2.25864 0
M  V30 6210 C 576.196 3.14431 1.5144 0
M  V30 6211 C 577.544 3.74869 1.99396 0
M  V30 6212 O 578.568 3.17601 1.61269 0
M  V30 6213 O 577.427 4.75387 2.69573 0
M  V30 6214 H 574.521 0.701186 0.438483 0
M  V30 6215 H 577.067 1.68768 0.177599 0
M  V30 6216 H 575.839 3.8427 0.738416 0
M  V30 6217 H 575.462 3.21775 2.33552 0
M  V30 6218 N 576.459 -0.456382 1.50847 0
M  V30 6219 C 577.736 -1.21739 1.53098 0
M  V30 6220 C 578.116 -2.09179 0.284132 0
M  V30 6221 O 577.464 -2.16466 -0.731773 0
M  V30 6222 C 577.674 -2.03573 2.83477 0
M  V30 6223 C 579.022 -2.61264 3.34703 0
M  V30 6224 O 580.046 -2.13802 2.84898 0
M  V30 6225 O 578.905 -3.47779 4.21559 0
M  V30 6226 H 575.999 -0.553219 0.614718 0
M  V30 6227 H 578.545 -0.467003 1.63148 0
M  V30 6228 H 577.317 -1.39232 3.65691 0
M  V30 6229 H 576.94 -2.85716 2.76499 0
M  V30 6230 N 577.937 -1.40673 -0.710563 0
M  V30 6231 C 578.9 -1.4108 -1.80635 0
M  V30 6232 C 579.9 -0.303783 -1.57904 0
M  V30 6233 O 581.09 -0.562937 -1.64853 0
M  V30 6234 C 578.222 -1.20748 -3.18799 0
M  V30 6235 H 579.415 -2.38612 -1.81671 0
M  V30 6236 H 576.968 -1.26595 -0.916704 0
M  V30 6237 H 577.703 -0.239964 -3.23411 0
M  V30 6238 H 577.488 -2.00941 -3.36698 0
M  V30 6239 H 578.978 -1.23833 -3.98817 0
M  V30 6240 N 579.415 0.9433 -1.26252 0
M  V30 6241 C 580.363 2.06302 -1.07434 0
M  V30 6242 C 581.357 1.694 -0.00189471 0
M  V30 6243 O 582.563 1.79302 -0.158408 0
M  V30 6244 H 578.938 0.675453 -0.330556 0
M  V30 6245 H 580.909 2.19326 -2.02333 0
M  V30 6246 C 579.658 3.40125 -0.721817 0
M  V30 6247 H 578.981 3.68996 -1.5389 0
M  V30 6248 H 580.421 4.19295 -0.629922 0
M  V30 6249 C 578.88 3.31993 0.572902 0
M  V30 6250 O 579.41 3.67945 1.61182 0
M  V30 6251 N 577.616 2.85099 0.562748 0
M  V30 6252 H 577.163 2.5604 -0.283092 0
M  V30 6253 H 577.121 2.80041 1.42915 0
M  V30 6254 N 580.893 1.08022 1.14757 0
M  V30 6255 C 581.803 0.718292 2.23333 0
M  V30 6256 C 582.819 -0.273477 1.71837 0
M  V30 6257 O 583.995 -0.118406 2.01052 0
M  V30 6258 C 581.06 0.128855 3.4646 0
M  V30 6259 C 580.121 1.17473 4.12915 0
M  V30 6260 C 579.354 0.61333 5.30164 0
M  V30 6261 O 579.577 -0.568458 5.6756 0
M  V30 6262 O 578.511 1.3615 5.86299 0
M  V30 6263 H 582.337 1.62394 2.56636 0
M  V30 6264 H 579.922 0.853628 1.22611 0
M  V30 6265 H 581.804 -0.197249 4.20938 0
M  V30 6266 H 580.479 -0.750014 3.14891 0
M  V30 6267 H 579.386 1.5533 3.40328 0
M  V30 6268 H 580.719 2.02574 4.48581 0
M  V30 6269 N 582.371 -1.3172 0.865308 0
M  V30 6270 C 583.596 -2.01591 0.487415 0
M  V30 6271 C 584.021 -1.6455 -0.911307 0
M  V30 6272 O 583.379 -0.851689 -1.6005 0
M  V30 6273 C 583.427 -3.54759 0.646401 0
M  V30 6274 O 582.531 -4.11185 -0.316284 0
M  V30 6275 H 581.872 -0.634884 0.194468 0
M  V30 6276 H 584.402 -1.68024 1.16744 0
M  V30 6277 H 584.412 -4.04438 0.537932 0
M  V30 6278 H 583.087 -3.8106 1.66632 0
M  V30 6279 H 581.664 -3.72543 -0.163162 0
M  V30 6280 N 583.85 -0.624285 -1.44708 0
M  V30 6281 C 585.127 -0.0572781 -1.95516 0
M  V30 6282 C 585.507 1.41516 -1.56641 0
M  V30 6283 O 584.855 2.12614 -0.837111 0
M  V30 6284 C 585.065 -0.272944 -3.47931 0
M  V30 6285 C 586.413 -0.162529 -4.24289 0
M  V30 6286 O 587.437 -0.203946 -3.55616 0
M  V30 6287 O 586.296 -0.0616847 -5.46465 0
M  V30 6288 H 583.389 0.0262219 -0.826584 0
M  V30 6289 H 585.936 -0.695512 -1.54793 0
M  V30 6290 H 584.707 -1.29492 -3.69253 0
M  V30 6291 H 584.331 0.399756 -3.95585 0
M  V30 6292 N 585.328 1.53329 -0.364422 0
M  V30 6293 C 586.278 2.22472 0.499024 0
M  V30 6294 C 587.262 1.21952 1.0496 0
M  V30 6295 O 588.454 1.47405 0.979836 0
M  V30 6296 C 585.583 3.01659 1.6388 0
M  V30 6297 C 584.669 4.09555 1.10116 0
M  V30 6298 N 585.06 5.04988 0.286414 0
M  V30 6299 C 583.358 4.2424 1.37608 0
M  V30 6300 C 584.059 5.81699 -0.00781682 0
M  V30 6301 N 583.035 5.40394 0.589494 0
M  V30 6302 H 586.837 2.93611 -0.130284 0
M  V30 6303 H 584.351 1.61483 -0.172377 0
M  V30 6304 H 586.348 3.4971 2.26954 0
M  V30 6305 H 585.008 2.32051 2.27118 0
M  V30 6306 H 586.019 5.17847 -0.0742839 0
M  V30 6307 H 582.696 3.65858 2.01133 0
M  V30 6308 H 584.086 6.68587 -0.666394 0
M  V30 6309 N 586.806 0.0935595 1.57322 0
M  V30 6310 C 588.053 -0.570509 1.94297 0
M  V30 6311 C 588.381 -1.68286 0.97519 0
M  V30 6312 O 587.636 -1.95699 -0.00548655 0
M  V30 6313 C 587.935 -1.16692 3.37813 0
M  V30 6314 C 587.601 -0.178509 4.50547 0
M  V30 6315 C 586.263 0.0933475 4.81109 0
M  V30 6316 C 588.615 0.496472 5.1883 0
M  V30 6317 C 585.943 1.0469 5.77284 0
M  V30 6318 C 588.295 1.43849 6.16028 0
M  V30 6319 C 586.959 1.71859 6.44997 0
M  V30 6320 H 586.229 -0.208764 0.710984 0
M  V30 6321 H 588.876 0.169066 1.90752 0
M  V30 6322 H 587.181 -1.98271 3.37929 0
M  V30 6323 H 588.878 -1.6884 3.63722 0
M  V30 6324 H 585.468 -0.400584 4.26724 0
M  V30 6325 H 589.652 0.299584 4.95395 0
M  V30 6326 H 584.908 1.27094 5.98044 0
M  V30 6327 H 589.082 1.96734 6.68034 0
M  V30 6328 H 586.709 2.45906 7.19329 0
M  V30 6329 N 588.284 -1.56567 -0.180126 0
M  V30 6330 C 589.194 -1.98947 -1.24327 0
M  V30 6331 C 590.21 -0.899446 -1.4895 0
M  V30 6332 O 591.386 -1.20639 -1.61271 0
M  V30 6333 C 588.451 -2.33328 -2.56435 0
M  V30 6334 C 587.512 -3.56114 -2.39752 0
M  V30 6335 C 586.745 -3.88845 -3.65561 0
M  V30 6336 O 586.968 -3.22662 -4.70368 0
M  V30 6337 O 585.902 -4.82226 -3.60197 0
M  V30 6338 H 589.728 -2.89634 -0.913565 0
M  V30 6339 H 587.313 -1.44319 -0.386306 0
M  V30 6340 H 589.195 -2.5645 -3.34382 0
M  V30 6341 H 587.87 -1.45806 -2.89002 0
M  V30 6342 H 586.777 -3.38221 -1.59866 0
M  V30 6343 H 588.11 -4.4415 -2.12113 0
M  V30 6344 N 589.762 0.448376 -1.51087 0
M  V30 6345 C 590.71 1.56407 -1.72161 0
M  V30 6346 C 591.704 1.58878 -0.587721 0
M  V30 6347 O 592.91 1.62755 -0.768822 0
M  V30 6348 H 589.285 0.519423 -0.543786 0
M  V30 6349 H 591.256 1.35803 -2.65707 0
M  V30 6350 C 590.005 2.94163 -1.85373 0
M  V30 6351 H 589.328 2.9299 -2.72024 0
M  V30 6352 H 590.768 3.71625 -2.04135 0
M  V30 6353 C 589.227 3.31317 -0.610803 0
M  V30 6354 O 589.757 4.00985 0.239636 0
M  V30 6355 N 587.963 2.86966 -0.458127 0
M  V30 6356 H 587.51 2.30443 -1.15124 0
M  V30 6357 H 587.468 3.12188 0.372289 0
M  V30 6358 N 591.24 1.41047 0.703093 0
M  V30 6359 C 592.489 1.39301 1.4587 0
M  V30 6360 C 592.802 0.00267077 1.956 0
M  V30 6361 O 594.008 -0.137414 2.71152 0
M  V30 6362 C 592.464 2.44891 2.63735 0
M  V30 6363 C 592.072 3.89796 2.20824 0
M  V30 6364 C 593.816 2.5227 3.41409 0
M  V30 6365 C 591.723 4.86955 3.35602 0
M  V30 6366 H 590.653 0.518005 0.547893 0
M  V30 6367 H 593.304 1.66839 0.764009 0
M  V30 6368 H 591.686 2.10472 3.35436 0
M  V30 6369 H 592.86 4.33424 1.56461 0
M  V30 6370 H 591.175 3.86008 1.56163 0
M  V30 6371 H 593.772 3.22044 4.26839 0
M  V30 6372 H 594.115 1.55714 3.86081 0
M  V30 6373 H 594.648 2.85742 2.7676 0
M  V30 6374 H 591.387 5.84888 2.9595 0
M  V30 6375 H 590.907 4.47982 3.98839 0
M  V30 6376 H 592.586 5.07361 4.01489 0
M  V30 6377 N 592.718 -0.936591 1.26751 0
M  V30 6378 C 593.65 -2.03991 1.045 0
M  V30 6379 C 594.663 -1.628 0.00394261 0
M  V30 6380 O 595.852 -1.76817 0.244526 0
M  V30 6381 C 592.952 -3.34218 0.561403 0
M  V30 6382 C 592.125 -4.04151 1.67274 0
M  V30 6383 C 591.184 -5.12651 1.1864 0
M  V30 6384 O 590.21 -5.37104 1.88437 0
M  V30 6385 N 591.412 -5.80488 0.037278 0
M  V30 6386 H 594.177 -2.23644 1.99508 0
M  V30 6387 H 591.738 -1.10638 1.18198 0
M  V30 6388 H 593.73 -4.04101 0.220136 0
M  V30 6389 H 592.3 -3.11203 -0.295211 0
M  V30 6390 H 591.52 -3.28121 2.18472 0
M  V30 6391 H 592.808 -4.47626 2.41885 0
M  V30 6392 H 592.206 -5.63064 -0.545494 0
M  V30 6393 H 590.763 -6.5134 -0.244877 0
M  V30 6394 N 594.196 -1.08629 -1.14182 0
M  V30 6395 C 595.421 -0.83902 -1.89671 0
M  V30 6396 C 595.846 0.603332 -1.78161 0
M  V30 6397 O 595.204 1.42301 -1.12339 0
M  V30 6398 C 595.252 -1.26854 -3.37551 0
M  V30 6399 O 594.356 -0.42188 -4.10236 0
M  V30 6400 H 593.697 -0.304545 -0.590041 0
M  V30 6401 H 596.227 -1.4483 -1.44518 0
M  V30 6402 H 596.237 -1.25038 -3.88368 0
M  V30 6403 H 594.912 -2.31901 -3.45246 0
M  V30 6404 H 593.489 -0.503654 -3.69483 0
M  V30 6405 N 595.674 1.31259 -0.872281 0
M  V30 6406 C 596.902 2.00795 -0.498907 0
M  V30 6407 C 597.317 1.65464 0.909238 0
M  V30 6408 O 596.674 0.885073 1.59602 0
M  V30 6409 C 596.725 3.55625 -0.649092 0
M  V30 6410 O 596.446 3.89692 -2.00179 0
M  V30 6411 C 597.947 4.42434 -0.277034 0
M  V30 6412 H 595.167 0.642299 -0.194145 0
M  V30 6413 H 597.711 1.67438 -1.17408 0
M  V30 6414 H 595.866 3.87394 -0.0214402 0
M  V30 6415 H 596.28 4.84407 -2.01122 0
M  V30 6416 H 597.754 5.50299 -0.433064 0
M  V30 6417 H 598.231 4.32146 0.783989 0
M  V30 6418 H 598.837 4.16086 -0.880483 0
M  V30 6419 N 597.152 0.631951 1.44375 0
M  V30 6420 C 598.1 -0.0846693 2.32446 0
M  V30 6421 C 599.094 -0.834957 1.47393 0
M  V30 6422 O 600.3 -0.747764 1.63733 0
M  V30 6423 H 596.675 -0.0461508 0.750583 0
M  V30 6424 H 598.646 0.67619 2.90638 0
M  V30 6425 C 597.395 -1.05211 3.314 0
M  V30 6426 H 596.718 -0.484203 3.96857 0
M  V30 6427 H 598.158 -1.523 3.95703 0
M  V30 6428 C 596.617 -2.13776 2.60387 0
M  V30 6429 O 597.147 -3.21869 2.4034 0
M  V30 6430 N 595.353 -1.89733 2.20113 0
M  V30 6431 H 594.9 -1.01833 2.36618 0
M  V30 6432 H 594.858 -2.62572 1.72926 0
M  V30 6433 N 598.631 -1.53133 0.372548 0
M  V30 6434 C 599.877 -2.02336 -0.207823 0
M  V30 6435 C 600.232 -1.25477 -1.45853 0
M  V30 6436 O 599.525 -0.341971 -1.88524 0
M  V30 6437 C 599.719 -3.53206 -0.545938 0
M  V30 6438 C 599.548 -4.44674 0.670454 0
M  V30 6439 C 598.318 -4.91217 1.18465 0
M  V30 6440 C 600.516 -4.90772 1.53777 0
M  V30 6441 N 598.498 -5.66711 2.36034 0
M  V30 6442 C 599.869 -5.64678 2.56004 0
M  V30 6443 C 601.924 -4.72836 1.55983 0
M  V30 6444 C 600.627 -6.22555 3.60303 0
M  V30 6445 C 602.653 -5.31583 2.59179 0
M  V30 6446 C 602.015 -6.05381 3.6013 0
M  V30 6447 H 598.114 -0.781048 -0.0385783 0
M  V30 6448 H 600.698 -1.87665 0.518664 0
M  V30 6449 H 598.869 -3.68024 -1.24149 0
M  V30 6450 H 600.601 -3.89123 -1.112 0
M  V30 6451 H 597.356 -4.67652 0.748205 0
M  V30 6452 H 597.78 -6.09117 2.95475 0
M  V30 6453 H 602.422 -4.15299 0.792877 0
M  V30 6454 H 600.14 -6.79183 4.37876 0
M  V30 6455 H 603.726 -5.19595 2.61749 0
M  V30 6456 H 602.606 -6.50028 4.38672 0
M  V30 6457 N 600.109 -0.101901 -1.5727 0
M  V30 6458 C 601.041 0.884723 -2.11436 0
M  V30 6459 C 602.054 1.24149 -1.05314 0
M  V30 6460 O 603.243 1.19341 -1.3274 0
M  V30 6461 C 600.343 2.19179 -2.58484 0
M  V30 6462 C 599.516 2.00933 -3.88516 0
M  V30 6463 C 598.575 3.15213 -4.2134 0
M  V30 6464 O 597.601 2.88877 -4.90448 0
M  V30 6465 N 598.803 4.41174 -3.77288 0
M  V30 6466 H 601.568 0.422058 -2.96713 0
M  V30 6467 H 599.129 0.0830128 -1.61687 0
M  V30 6468 H 601.121 2.94593 -2.77484 0
M  V30 6469 H 599.691 2.56847 -1.7818 0
M  V30 6470 H 598.911 1.09809 -3.78597 0
M  V30 6471 H 600.199 1.86026 -4.73573 0
M  V30 6472 H 599.597 4.6545 -3.21516 0
M  V30 6473 H 598.154 5.13515 -4.01429 0
M  V30 6474 N 601.587 1.56661 0.17182 0
M  V30 6475 C 602.815 1.861 0.904115 0
M  V30 6476 C 603.23 0.687227 1.75848 0
M  V30 6477 O 602.587 -0.343671 1.79235 0
M  V30 6478 C 602.638 3.14568 1.78127 0
M  V30 6479 O 602.359 4.27422 0.961366 0
M  V30 6480 C 603.86 3.5735 2.62327 0
M  V30 6481 H 601.08 0.617445 0.262684 0
M  V30 6482 H 603.624 2.03775 0.172068 0
M  V30 6483 H 601.779 2.98721 2.46666 0
M  V30 6484 H 602.193 5.00725 1.56123 0
M  V30 6485 H 603.667 4.50144 3.1949 0
M  V30 6486 H 604.144 2.81445 3.37173 0
M  V30 6487 H 604.75 3.75807 1.99121 0
M  V30 6488 N 603.065 -0.440357 1.51323 0
M  V30 6489 C 603.998 -1.55414 1.67098 0
M  V30 6490 C 604.976 -1.54108 0.518599 0
M  V30 6491 O 606.16 -1.7328 0.742054 0
M  V30 6492 C 603.287 -2.93996 1.68179 0
M  V30 6493 C 602.333 -3.13338 2.89347 0
M  V30 6494 S 603.166 -2.89957 4.50206 0
M  V30 6495 C 604.322 -4.30826 4.54027 0
M  V30 6496 H 604.555 -1.41798 2.61306 0
M  V30 6497 H 602.088 -0.629841 1.40969 0
M  V30 6498 H 604.046 -3.73878 1.69487 0
M  V30 6499 H 602.707 -3.04976 0.751542 0
M  V30 6500 H 601.9 -4.14652 2.86495 0
M  V30 6501 H 601.502 -2.41276 2.85766 0
M  V30 6502 H 603.794 -5.23977 4.29481 0
M  V30 6503 H 604.737 -4.38712 5.55822 0
M  V30 6504 H 605.145 -4.1434 3.83384 0
M  V30 6505 N 604.543 -1.41418 -0.695603 0
M  V30 6506 C 605.959 -1.23887 -1.00619 0
M  V30 6507 C 606.159 -0.128206 -2.01092 0
M  V30 6508 O 605.215 0.507408 -2.47349 0
M  V30 6509 C 606.528 -2.58816 -1.53083 0
M  V30 6510 C 608.076 -2.65998 -1.64967 0
M  V30 6511 C 608.551 -4.01244 -2.20833 0
M  V30 6512 N 610.042 -4.0309 -2.28194 0
M  V30 6513 C 610.777 -5.04539 -2.72448 0
M  V30 6514 N 610.273 -6.16378 -3.16306 0
M  V30 6515 N 612.066 -4.91901 -2.72011 0
M  V30 6516 H 604.217 -2.12379 -0.0300061 0
M  V30 6517 H 606.48 -0.944958 -0.0758797 0
M  V30 6518 H 606.186 -3.40842 -0.867147 0
M  V30 6519 H 606.06 -2.81299 -2.51298 0
M  V30 6520 H 608.447 -1.84331 -2.30448 0
M  V30 6521 H 608.528 -2.47325 -0.652982 0
M  V30 6522 H 608.172 -4.83359 -1.55968 0
M  V30 6523 H 608.102 -4.17257 -3.21254 0
M  V30 6524 H 610.593 -3.22341 -1.97242 0
M  V30 6525 H 610.906 -6.89658 -3.487 0
M  V30 6526 H 609.251 -6.19914 -3.14215 0
M  V30 6527 H 612.442 -4.03613 -2.37095 0
M  V30 6528 H 612.615 -5.71102 -3.06181 0
M  V30 6529 N 606.021 0.929856 -1.27246 0
M  V30 6530 C 607.268 1.67731 -1.13457 0
M  V30 6531 C 607.596 1.9185 0.319998 0
M  V30 6532 O 606.851 1.50524 1.25064 0
M  V30 6533 C 607.15 3.05116 -1.86115 0
M  V30 6534 C 606.816 3.00715 -3.35978 0
M  V30 6535 C 605.478 2.99222 -3.76855 0
M  V30 6536 C 607.83 2.92168 -4.3161 0
M  V30 6537 C 605.158 2.86962 -5.11732 0
M  V30 6538 C 607.51 2.81449 -5.66542 0
M  V30 6539 C 606.174 2.78305 -6.06715 0
M  V30 6540 H 605.444 0.613772 -0.415168 0
M  V30 6541 H 608.091 1.08456 -1.57827 0
M  V30 6542 H 606.396 3.68083 -1.34246 0
M  V30 6543 H 608.093 3.61822 -1.72876 0
M  V30 6544 H 604.683 3.02664 -3.03468 0
M  V30 6545 H 608.867 2.92421 -4.01003 0
M  V30 6546 H 604.123 2.82913 -5.42006 0
M  V30 6547 H 608.297 2.738 -6.40317 0
M  V30 6548 H 605.924 2.68561 -7.11181 0
M  V30 6549 N 607.499 1.09233 1.13605 0
M  V30 6550 C 608.446 0.729921 2.18954 0
M  V30 6551 C 609.416 -0.287916 1.63586 0
M  V30 6552 O 610.601 -0.170003 1.90041 0
M  V30 6553 C 607.741 0.154489 3.44754 0
M  V30 6554 C 606.854 1.22613 4.14234 0
M  V30 6555 C 605.989 0.613657 5.27644 0
M  V30 6556 C 605.028 1.66674 5.8897 0
M  V30 6557 N 604.165 1.07545 6.93814 0
M  V30 6558 H 609.005 1.63257 2.49302 0
M  V30 6559 H 606.542 0.815693 1.22413 0
M  V30 6560 H 608.5 -0.196923 4.16735 0
M  V30 6561 H 607.13 -0.711433 3.14863 0
M  V30 6562 H 606.182 1.69485 3.40557 0
M  V30 6563 H 607.494 2.0238 4.55899 0
M  V30 6564 H 606.648 0.210976 6.06333 0
M  V30 6565 H 605.387 -0.215584 4.87223 0
M  V30 6566 H 604.392 2.07899 5.08978 0
M  V30 6567 H 605.617 2.49861 6.31464 0
M  V30 6568 H 603.563 0.267451 6.55455 0
M  V30 6569 H 603.48 1.81011 7.3401 0
M  V30 6570 H 604.748 0.698906 7.7636 0
M  V30 6571 N 608.977 -1.30795 0.87923 0
M  V30 6572 C 610.388 -1.78535 0.546093 0
M  V30 6573 C 610.739 -1.72354 -0.937467 0
M  V30 6574 O 609.864 -1.2969 -1.73233 0
M  V30 6575 C 610.459 -3.24181 0.9845 0
M  V30 6576 C 609.018 -3.69779 0.702871 0
M  V30 6577 C 608.165 -2.51377 1.17068 0
M  V30 6578 H 611.116 -1.17746 1.06403 0
M  V30 6579 H 611.137 -3.79227 0.311045 0
M  V30 6580 H 610.649 -3.28647 2.06429 0
M  V30 6581 H 608.75 -3.70806 -0.365166 0
M  V30 6582 H 608.863 -4.61507 1.28639 0
M  V30 6583 H 607.227 -2.47768 0.590172 0
M  V30 6584 H 608.01 -2.58584 2.25808 0
M  V30 6585 N 610.455 -0.639598 -1.44038 0
M  V30 6586 C 611.866 -0.228866 -1.85292 0
M  V30 6587 C 612.217 1.22161 -1.53529 0
M  V30 6588 O 611.342 1.93064 -0.977518 0
M  V30 6589 C 611.937 -0.408592 -3.36327 0
M  V30 6590 C 610.496 -0.0522953 -3.76364 0
M  V30 6591 C 609.643 -0.717959 -2.67844 0
M  V30 6592 H 612.594 -0.844194 -1.34384 0
M  V30 6593 H 612.615 0.349968 -3.78887 0
M  V30 6594 H 612.127 -1.46435 -3.59414 0
M  V30 6595 H 610.228 1.0014 -3.58891 0
M  V30 6596 H 610.341 -0.468261 -4.76806 0
M  V30 6597 H 608.705 -0.152459 -2.54243 0
M  V30 6598 H 609.488 -1.77648 -2.93762 0
M  V30 6599 N 611.933 1.52934 -0.380664 0
M  V30 6600 C 613.344 1.86457 0.0952684 0
M  V30 6601 C 613.695 1.3007 1.46889 0
M  V30 6602 O 612.82 0.628636 2.07068 0
M  V30 6603 C 613.415 3.38323 0.179648 0
M  V30 6604 C 611.974 3.71589 0.599858 0
M  V30 6605 C 611.121 2.76228 -0.243572 0
M  V30 6606 H 614.072 1.46966 -0.59888 0
M  V30 6607 H 614.093 3.67113 1.00042 0
M  V30 6608 H 613.605 3.79333 -0.820228 0
M  V30 6609 H 611.706 3.36144 1.60742 0
M  V30 6610 H 611.819 4.77715 0.364003 0
M  V30 6611 H 610.183 2.53045 0.289855 0
M  V30 6612 H 610.966 3.20074 -1.24127 0
M  V30 6613 N 613.412 0.11024 1.57214 0
M  V30 6614 C 614.823 -0.416527 1.81994 0
M  V30 6615 C 615.174 -1.67183 1.02686 0
M  V30 6616 O 614.299 -2.14823 0.260782 0
M  V30 6617 C 614.894 -0.762466 3.30109 0
M  V30 6618 C 613.453 -1.23391 3.556 0
M  V30 6619 C 612.6 -0.238166 2.76275 0
M  V30 6620 H 615.551 0.335491 1.55113 0
M  V30 6621 H 615.572 -1.62068 3.44259 0
M  V30 6622 H 615.084 0.151346 3.87805 0
M  V30 6623 H 613.185 -2.16492 3.03253 0
M  V30 6624 H 613.298 -1.18528 4.64207 0
M  V30 6625 H 611.662 -0.723421 2.4421 0
M  V30 6626 H 612.445 0.668591 3.36727 0
M  V30 6627 N 614.89 -1.56749 -0.16351 0
M  V30 6628 C 615.838 -1.97939 -1.22159 0
M  V30 6629 C 616.832 -0.869288 -1.45395 0
M  V30 6630 O 618.038 -1.05443 -1.45883 0
M  V30 6631 H 614.413 -0.629869 -0.410815 0
M  V30 6632 H 616.384 -2.86115 -0.847381 0
M  V30 6633 C 615.133 -2.36206 -2.55151 0
M  V30 6634 H 614.456 -3.2117 -2.38097 0
M  V30 6635 H 615.896 -2.68863 -3.27854 0
M  V30 6636 C 614.355 -1.20841 -3.14482 0
M  V30 6637 O 614.885 -0.500258 -3.98573 0
M  V30 6638 N 613.091 -0.976943 -2.73686 0
M  V30 6639 H 612.638 -1.55457 -2.05404 0
M  V30 6640 H 612.596 -0.206912 -3.13718 0
M  V30 6641 N 616.368 0.432326 -1.51554 0
M  V30 6642 C 617.593 1.20824 -1.68571 0
M  V30 6643 C 618.018 1.84126 -0.384596 0
M  V30 6644 O 617.376 1.69025 0.655751 0
M  V30 6645 C 617.424 2.26429 -2.80646 0
M  V30 6646 O 616.528 3.32032 -2.44598 0
M  V30 6647 H 615.869 0.353765 -0.561913 0
M  V30 6648 H 618.399 0.509916 -1.98144 0
M  V30 6649 H 618.409 2.71133 -3.04878 0
M  V30 6650 H 617.084 1.79733 -3.75058 0
M  V30 6651 H 615.661 2.92769 -2.30956 0
M  V30 6652 N 617.846 1.41785 0.688094 0
M  V30 6653 C 619.123 1.32031 1.44316 0
M  V30 6654 C 619.503 -0.0486079 2.11044 0
M  V30 6655 O 618.851 -1.06332 2.02252 0
M  V30 6656 C 619.061 2.47906 2.45649 0
M  V30 6657 C 620.409 2.89415 3.10683 0
M  V30 6658 O 621.433 2.477 2.55975 0
M  V30 6659 O 620.292 3.61573 4.09789 0
M  V30 6660 H 617.386 0.519994 0.643067 0
M  V30 6661 H 619.932 1.53765 0.71794 0
M  V30 6662 H 618.704 3.39222 1.95048 0
M  V30 6663 H 618.327 2.28089 3.25671 0
M  V30 6664 N 619.324 -0.923095 1.27737 0
M  V30 6665 C 620.573 -1.66581 1.13727 0
M  V30 6666 C 620.886 -1.9304 -0.315433 0
M  V30 6667 O 622.092 -2.65309 -0.57651 0
M  V30 6668 C 620.548 -3.00047 1.98745 0
M  V30 6669 C 620.156 -2.8127 3.48699 0
M  V30 6670 C 621.9 -3.77887 1.93395 0
M  V30 6671 C 619.807 -4.1032 4.25901 0
M  V30 6672 H 618.737 -0.624834 0.422017 0
M  V30 6673 H 621.388 -1.02514 1.52194 0
M  V30 6674 H 619.77 -3.65197 1.53125 0
M  V30 6675 H 620.944 -2.24859 4.02213 0
M  V30 6676 H 619.259 -2.16854 3.55476 0
M  V30 6677 H 621.856 -4.73526 2.48348 0
M  V30 6678 H 622.199 -4.06264 0.908605 0
M  V30 6679 H 622.732 -3.19541 2.36935 0
M  V30 6680 H 619.471 -3.8712 5.28978 0
M  V30 6681 H 618.991 -4.66377 3.77163 0
M  V30 6682 H 620.67 -4.78648 4.35321 0
M  V30 6683 N 620.802 -1.09834 -1.13024 0
M  V30 6684 C 622.05 -0.835297 -1.8403 0
M  V30 6685 C 622.371 0.640944 -1.84165 0
M  V30 6686 O 621.641 1.46517 -1.30037 0
M  V30 6687 H 620.221 -0.306018 -0.681441 0
M  V30 6688 H 622.883 -1.38734 -1.36891 0
M  V30 6689 H 621.979 -1.19258 -2.88416 0
M  V30 6690 N 622.28 1.30327 -0.886154 0
M  V30 6691 C 623.526 1.96764 -0.515312 0
M  V30 6692 C 623.881 1.68675 0.925552 0
M  V30 6693 O 623.174 0.981693 1.6454 0
M  V30 6694 C 623.368 3.49906 -0.728042 0
M  V30 6695 C 623.197 3.92881 -2.18803 0
M  V30 6696 C 621.967 4.18424 -2.83284 0
M  V30 6697 C 624.165 4.05617 -3.16195 0
M  V30 6698 N 622.147 4.47867 -4.19867 0
M  V30 6699 C 623.518 4.38957 -4.37855 0
M  V30 6700 C 625.573 3.88047 -3.11968 0
M  V30 6701 C 624.276 4.56559 -5.55829 0
M  V30 6702 C 626.302 4.06851 -4.29215 0
M  V30 6703 C 625.664 4.40538 -5.49641 0
M  V30 6704 H 621.763 0.74493 -0.237916 0
M  V30 6705 H 624.347 1.57536 -1.14414 0
M  V30 6706 H 622.518 3.88187 -0.128696 0
M  V30 6707 H 624.25 4.03401 -0.323983 0
M  V30 6708 H 621.005 4.1167 -2.34146 0
M  V30 6709 H 621.429 4.66721 -4.90408 0
M  V30 6710 H 626.071 3.61078 -2.19961 0
M  V30 6711 H 623.789 4.8237 -6.4834 0
M  V30 6712 H 627.375 3.94724 -4.27416 0
M  V30 6713 H 626.255 4.54789 -6.38856 0
M  V30 6714 N 623.758 0.647228 1.43697 0
M  V30 6715 C 625.174 0.314256 1.56476 0
M  V30 6716 C 625.374 -1.18191 1.63196 0
M  V30 6717 O 624.43 -1.96655 1.58376 0
M  V30 6718 C 625.743 1.02034 2.82859 0
M  V30 6719 C 627.291 1.00002 2.96595 0
M  V30 6720 C 627.766 1.68689 4.25803 0
M  V30 6721 N 629.257 1.65424 4.32654 0
M  V30 6722 C 629.992 2.1545 5.31384 0
M  V30 6723 N 629.488 2.73738 6.36427 0
M  V30 6724 N 631.281 2.05985 5.22998 0
M  V30 6725 H 623.432 1.61821 1.37578 0
M  V30 6726 H 625.695 0.680184 0.660344 0
M  V30 6727 H 625.401 2.07542 2.83935 0
M  V30 6728 H 625.275 0.568146 3.72897 0
M  V30 6729 H 627.662 -0.0466319 2.95063 0
M  V30 6730 H 627.743 1.49086 2.07863 0
M  V30 6731 H 627.387 2.73308 4.28095 0
M  V30 6732 H 627.317 1.17076 5.13421 0
M  V30 6733 H 629.808 1.22884 3.57363 0
M  V30 6734 H 630.121 3.09602 7.08072 0
M  V30 6735 H 628.466 2.77796 6.37067 0
M  V30 6736 H 631.657 1.60157 4.39849 0
M  V30 6737 H 631.83 2.45281 5.99784 0
M  V30 6738 N 625.236 -1.5273 0.388769 0
M  V30 6739 C 626.482 -2.01871 -0.193877 0
M  V30 6740 C 626.815 -1.27475 -1.46505 0
M  V30 6741 O 626.09 -0.375063 -1.90849 0
M  V30 6742 C 626.373 -3.5712 -0.462336 0
M  V30 6743 C 626.226 -4.42186 0.824091 0
M  V30 6744 C 627.545 -4.21881 -1.25319 0
M  V30 6745 H 624.664 -0.733764 -0.0689899 0
M  V30 6746 H 627.306 -1.82796 0.518231 0
M  V30 6747 H 625.456 -3.73504 -1.06896 0
M  V30 6748 H 627.128 -4.37554 1.46096 0
M  V30 6749 H 625.371 -4.09219 1.43952 0
M  V30 6750 H 626.042 -5.48828 0.590905 0
M  V30 6751 H 628.518 -4.0947 -0.73981 0
M  V30 6752 H 627.394 -5.30487 -1.40977 0
M  V30 6753 H 627.655 -3.79478 -2.26824 0
M  V30 6754 N 626.714 -0.118576 -1.57153 0
M  V30 6755 C 627.624 0.845484 -2.18835 0
M  V30 6756 C 628.64 1.29299 -1.16438 0
M  V30 6757 O 629.816 1.35607 -1.48905 0
M  V30 6758 C 626.881 2.07795 -2.77529 0
M  V30 6759 C 625.942 1.6824 -3.9496 0
M  V30 6760 C 625.175 2.85612 -4.50845 0
M  V30 6761 O 625.398 4.01025 -4.05629 0
M  V30 6762 O 624.332 2.62721 -5.41536 0
M  V30 6763 H 628.158 0.350568 -3.0167 0
M  V30 6764 H 625.743 0.107013 -1.49016 0
M  V30 6765 H 627.625 2.79978 -3.14945 0
M  V30 6766 H 626.3 2.56294 -1.97725 0
M  V30 6767 H 625.207 0.931663 -3.62313 0
M  V30 6768 H 626.54 1.24484 -4.76198 0
M  V30 6769 N 628.193 1.56834 0.155195 0
M  V30 6770 C 629.44 1.82898 0.869179 0
M  V30 6771 C 629.768 0.698194 1.81537 0
M  V30 6772 O 629.023 -0.313404 1.93174 0
M  V30 6773 C 629.322 3.15239 1.68402 0
M  V30 6774 C 628.988 4.42123 0.885341 0
M  V30 6775 C 627.65 4.76583 0.664971 0
M  V30 6776 C 630.002 5.20178 0.326234 0
M  V30 6777 C 627.33 5.86566 -0.125346 0
M  V30 6778 C 629.682 6.3099 -0.45108 0
M  V30 6779 C 628.346 6.64006 -0.682102 0
M  V30 6780 H 627.616 0.66927 0.318055 0
M  V30 6781 H 630.263 1.91036 0.133241 0
M  V30 6782 H 628.568 3.02515 2.48982 0
M  V30 6783 H 630.265 3.32618 2.23978 0
M  V30 6784 H 626.855 4.15102 1.06716 0
M  V30 6785 H 631.039 4.93936 0.483787 0
M  V30 6786 H 626.295 6.10594 -0.313915 0
M  V30 6787 H 630.469 6.9067 -0.89149 0
M  V30 6788 H 628.096 7.49065 -1.29636 0
M  V30 6789 N 629.671 -0.424282 1.51781 0
M  V30 6790 C 631.087 -0.761768 1.40247 0
M  V30 6791 C 631.287 -1.95324 0.495041 0
M  V30 6792 O 630.343 -2.5246 -0.0448949 0
M  V30 6793 C 631.656 -1.0299 2.82513 0
M  V30 6794 C 633.204 -1.13354 2.91753 0
M  V30 6795 C 633.679 -1.43453 4.34954 0
M  V30 6796 N 635.17 -1.5035 4.3812 0
M  V30 6797 C 635.905 -1.75236 5.45967 0
M  V30 6798 N 635.401 -1.97827 6.63955 0
M  V30 6799 N 637.194 -1.77126 5.33463 0
M  V30 6800 H 629.345 0.360228 2.09323 0
M  V30 6801 H 631.608 0.0988128 0.942836 0
M  V30 6802 H 631.314 -0.226961 3.50967 0
M  V30 6803 H 631.188 -1.95411 3.22637 0
M  V30 6804 H 633.575 -1.92709 2.23489 0
M  V30 6805 H 633.656 -0.188041 2.55108 0
M  V30 6806 H 633.3 -0.646209 5.03772 0
M  V30 6807 H 633.23 -2.3923 4.69123 0
M  V30 6808 H 635.721 -1.34742 3.53062 0
M  V30 6809 H 636.034 -2.16223 7.41935 0
M  V30 6810 H 634.379 -1.95123 6.67047 0
M  V30 6811 H 637.57 -1.59005 4.40267 0
M  V30 6812 H 637.743 -1.96182 6.17589 0
M  V30 6813 N 631.149 -1.42148 -0.680565 0
M  V30 6814 C 632.56 -1.3768 -1.26099 0
M  V30 6815 C 632.911 -0.0672348 -1.96085 0
M  V30 6816 O 632.036 0.834172 -1.99676 0
M  V30 6817 C 632.631 -2.49387 -2.29328 0
M  V30 6818 C 631.19 -2.4827 -2.82911 0
M  V30 6819 C 630.337 -2.2847 -1.57152 0
M  V30 6820 H 633.288 -1.51446 -0.474326 0
M  V30 6821 H 633.309 -2.19307 -3.10941 0
M  V30 6822 H 632.821 -3.44686 -1.78363 0
M  V30 6823 H 630.922 -1.56773 -3.38013 0
M  V30 6824 H 631.035 -3.45109 -3.3232 0
M  V30 6825 H 629.399 -1.76623 -1.83511 0
M  V30 6826 H 630.182 -3.25816 -1.0816 0
M  V30 6827 N 632.627 0.916307 -1.28225 0
M  V30 6828 C 633.56 2.01954 -1.06254 0
M  V30 6829 C 634.538 1.62587 0.0205983 0
M  V30 6830 O 635.722 1.88073 -0.126824 0
M  V30 6831 C 632.849 3.33086 -0.614141 0
M  V30 6832 C 631.895 3.91435 -1.69354 0
M  V30 6833 S 632.728 4.22603 -3.28887 0
M  V30 6834 C 633.884 5.568 -2.85876 0
M  V30 6835 H 634.117 2.20281 -1.99659 0
M  V30 6836 H 631.65 1.06085 -1.12184 0
M  V30 6837 H 633.608 4.089 -0.36213 0
M  V30 6838 H 632.269 3.12664 0.300036 0
M  V30 6839 H 631.462 4.86098 -1.33136 0
M  V30 6840 H 631.064 3.22248 -1.89821 0
M  V30 6841 H 633.356 6.3658 -2.31888 0
M  V30 6842 H 634.299 5.97927 -3.79326 0
M  V30 6843 H 634.707 5.17865 -2.24669 0
M  V30 6844 N 634.105 1.10431 1.1244 0
M  V30 6845 C 635.015 0.765502 2.21759 0
M  V30 6846 C 636.031 -0.236966 1.72379 0
M  V30 6847 O 637.207 -0.0757329 2.01258 0
M  V30 6848 C 634.272 0.202316 3.46109 0
M  V30 6849 C 633.333 1.26205 4.1033 0
M  V30 6850 C 632.566 0.725648 5.28744 0
M  V30 6851 O 632.789 -0.447942 5.68638 0
M  V30 6852 O 631.723 1.48555 5.83279 0
M  V30 6853 H 635.549 1.67801 2.53133 0
M  V30 6854 H 633.134 0.879443 1.20773 0
M  V30 6855 H 635.016 -0.107918 4.21262 0
M  V30 6856 H 633.691 -0.683052 3.16411 0
M  V30 6857 H 632.598 1.62514 3.36957 0
M  V30 6858 H 633.931 2.12044 4.44183 0
M  V30 6859 N 635.583 -1.29855 0.893053 0
M  V30 6860 C 636.829 -1.96116 0.516349 0
M  V30 6861 C 637.162 -1.70281 -0.933695 0
M  V30 6862 O 636.437 -1.01205 -1.66096 0
M  V30 6863 C 636.72 -3.51068 0.801455 0
M  V30 6864 C 636.573 -3.86387 2.30272 0
M  V30 6865 C 637.892 -4.39186 0.283423 0
M  V30 6866 H 635.011 -0.712335 0.189072 0
M  V30 6867 H 637.653 -1.53587 1.11852 0
M  V30 6868 H 635.803 -3.87424 0.288949 0
M  V30 6869 H 637.475 -3.60012 2.88425 0
M  V30 6870 H 635.718 -3.34167 2.76613 0
M  V30 6871 H 636.389 -4.94512 2.45279 0
M  V30 6872 H 638.865 -4.09785 0.722187 0
M  V30 6873 H 637.741 -5.46505 0.512169 0
M  V30 6874 H 638.002 -4.34511 -0.815643 0
M  V30 6875 N 637.061 -0.65484 -1.43351 0
M  V30 6876 C 637.993 0.0744757 -2.29079 0
M  V30 6877 C 639.006 0.7855 -1.42596 0
M  V30 6878 O 640.195 0.642986 -1.66517 0
M  V30 6879 C 637.295 1.12859 -3.19556 0
M  V30 6880 C 636.468 0.495381 -4.34586 0
M  V30 6881 C 635.527 1.44659 -5.05925 0
M  V30 6882 O 634.553 0.954567 -5.61139 0
M  V30 6883 N 635.755 2.78051 -5.09576 0
M  V30 6884 H 638.52 -0.661346 -2.92312 0
M  V30 6885 H 636.081 -0.497744 -1.54059 0
M  V30 6886 H 638.073 1.76577 -3.64147 0
M  V30 6887 H 636.643 1.76636 -2.57912 0
M  V30 6888 H 635.863 -0.32092 -3.92892 0
M  V30 6889 H 637.151 0.0534203 -5.08772 0
M  V30 6890 H 636.549 3.20584 -4.66093 0
M  V30 6891 H 635.106 3.37068 -5.57878 0
M  V30 6892 N 638.539 1.52521 -0.396863 0
M  V30 6893 C 639.469 2.29582 0.425941 0
M  V30 6894 C 640.45 1.33281 1.05689 0
M  V30 6895 O 641.635 1.62181 1.06823 0
M  V30 6896 C 638.765 3.10821 1.54943 0
M  V30 6897 C 637.719 4.15069 1.04413 0
M  V30 6898 C 637.045 4.84578 2.26028 0
M  V30 6899 C 638.345 5.22191 0.106767 0
M  V30 6900 H 640.039 2.98612 -0.217045 0
M  V30 6901 H 637.585 1.43611 -0.105826 0
M  V30 6902 H 639.538 3.63492 2.13193 0
M  V30 6903 H 638.262 2.39538 2.22011 0
M  V30 6904 H 636.921 3.63389 0.484118 0
M  V30 6905 H 636.569 4.09835 2.91623 0
M  V30 6906 H 636.269 5.55043 1.92876 0
M  V30 6907 H 637.793 5.40056 2.84906 0
M  V30 6908 H 639.207 5.70176 0.597685 0
M  V30 6909 H 637.604 5.99947 -0.135352 0
M  V30 6910 H 638.674 4.77531 -0.842134 0
M  V30 6911 N 640.017 0.126909 1.57088 0
M  V30 6912 C 641.245 -0.53667 1.99819 0
M  V30 6913 C 641.66 -1.5972 1.00673 0
M  V30 6914 O 641.017 -1.825 0.000747365 0
M  V30 6915 C 641.068 -1.15563 3.42531 0
M  V30 6916 O 640.789 -0.137483 4.37884 0
M  V30 6917 C 642.29 -1.90176 4.00435 0
M  V30 6918 H 639.51 -0.141443 0.655923 0
M  V30 6919 H 642.054 0.215578 2.03361 0
M  V30 6920 H 640.209 -1.85861 3.39904 0
M  V30 6921 H 640.623 -0.588229 5.21191 0
M  V30 6922 H 642.097 -2.28801 5.02349 0
M  V30 6923 H 642.574 -2.78002 3.40017 0
M  V30 6924 H 643.18 -1.24623 4.06632 0
M  V30 6925 N 641.495 -1.56914 -0.146875 0
M  V30 6926 C 642.772 -1.74273 -0.888165 0
M  V30 6927 C 643.152 -0.69496 -1.99333 0
M  V30 6928 O 642.5 0.286093 -2.26702 0
M  V30 6929 C 642.71 -3.18336 -1.43051 0
M  V30 6930 C 644.058 -3.80024 -1.89387 0
M  V30 6931 O 645.082 -3.21765 -1.52792 0
M  V30 6932 O 643.941 -4.82367 -2.56874 0
M  V30 6933 H 641.035 -0.712565 -0.419738 0
M  V30 6934 H 643.581 -1.6918 -0.132791 0
M  V30 6935 H 642.353 -3.86092 -0.636274 0
M  V30 6936 H 641.976 -3.27854 -2.24938 0
M  V30 6937 N 642.974 0.416227 -1.52004 0
M  V30 6938 C 644.221 1.16383 -1.65714 0
M  V30 6939 C 644.549 1.9068 -0.383594 0
M  V30 6940 O 643.804 1.85174 0.633185 0
M  V30 6941 C 644.103 2.18923 -2.82502 0
M  V30 6942 C 643.769 1.61485 -4.20991 0
M  V30 6943 C 642.431 1.45545 -4.58661 0
M  V30 6944 C 644.783 1.19468 -5.07323 0
M  V30 6945 C 642.111 0.860937 -5.80349 0
M  V30 6946 C 644.463 0.614386 -6.29609 0
M  V30 6947 C 643.127 0.442056 -6.66035 0
M  V30 6948 H 642.397 0.425875 -0.606392 0
M  V30 6949 H 645.044 0.45199 -1.8609 0
M  V30 6950 H 643.349 2.96225 -2.56433 0
M  V30 6951 H 645.046 2.76628 -2.90307 0
M  V30 6952 H 641.636 1.74873 -3.91302 0
M  V30 6953 H 645.82 1.30596 -4.78809 0
M  V30 6954 H 641.076 0.715372 -6.072 0
M  V30 6955 H 645.25 0.280393 -6.95835 0
M  V30 6956 H 642.877 -0.0207218 -7.60197 0
M  V30 6957 N 644.452 1.42507 0.673017 0
M  V30 6958 C 645.362 1.4853 1.81593 0
M  V30 6959 C 646.378 0.373907 1.69935 0
M  V30 6960 O 647.554 0.625078 1.91454 0
M  V30 6961 C 644.619 1.387 3.17747 0
M  V30 6962 C 643.68 2.60346 3.41348 0
M  V30 6963 C 642.913 2.50975 4.71007 0
M  V30 6964 O 643.136 1.54659 5.49033 0
M  V30 6965 O 642.07 3.41138 4.95892 0
M  V30 6966 H 645.896 2.45001 1.79467 0
M  V30 6967 H 643.481 1.2429 0.82899 0
M  V30 6968 H 645.363 1.35586 3.98992 0
M  V30 6969 H 644.038 0.453555 3.20507 0
M  V30 6970 H 642.945 2.69034 2.59945 0
M  V30 6971 H 644.278 3.52595 3.43421 0
M  V30 6972 N 645.93 -0.909495 1.28709 0
M  V30 6973 C 646.878 -2.03381 1.12866 0
M  V30 6974 C 647.872 -1.69335 0.0468074 0
M  V30 6975 O 649.078 -1.78819 0.205891 0
M  V30 6976 H 645.453 -0.666452 0.348348 0
M  V30 6977 H 647.424 -2.13885 2.08077 0
M  V30 6978 C 646.173 -3.38092 0.811742 0
M  V30 6979 H 645.496 -3.64786 1.63619 0
M  V30 6980 H 646.936 -4.17477 0.740869 0
M  V30 6981 C 645.395 -3.33395 -0.484679 0
M  V30 6982 O 645.925 -3.72089 -1.5137 0
M  V30 6983 N 644.131 -2.86491 -0.486961 0
M  V30 6984 H 643.678 -2.55199 0.350877 0
M  V30 6985 H 643.636 -2.83731 -1.3544 0
M  V30 6986 N 647.408 -1.11026 -1.11852 0
M  V30 6987 C 648.633 -0.879064 -1.87849 0
M  V30 6988 C 649.058 0.565406 -1.79401 0
M  V30 6989 O 648.416 1.39886 -1.15333 0
M  V30 6990 C 648.464 -1.33985 -3.34784 0
M  V30 6991 O 647.568 -0.508803 -4.09249 0
M  V30 6992 H 646.909 -0.316992 -0.583448 0
M  V30 6993 H 649.439 -1.47863 -1.41413 0
M  V30 6994 H 649.449 -1.33248 -3.85628 0
M  V30 6995 H 648.124 -2.39172 -3.40249 0
M  V30 6996 H 646.701 -0.581913 -3.68332 0
M  V30 6997 N 648.886 1.2938 -0.899927 0
M  V30 6998 C 649.849 2.25983 -0.382677 0
M  V30 6999 C 650.849 1.53366 0.483259 0
M  V30 7000 O 652.039 1.71798 0.28828 0
M  V30 7001 C 649.171 3.37878 0.452915 0
M  V30 7002 H 650.364 2.73252 -1.23586 0
M  V30 7003 H 647.917 1.40825 -0.678088 0
M  V30 7004 H 648.652 2.95949 1.32608 0
M  V30 7005 H 648.437 3.91742 -0.167562 0
M  V30 7006 H 649.927 4.09746 0.806107 0
M  V30 7007 N 650.364 0.662433 1.43002 0
M  V30 7008 C 651.594 0.187343 2.05749 0
M  V30 7009 C 652.002 -1.15582 1.49791 0
M  V30 7010 O 651.345 -1.72651 0.627487 0
M  V30 7011 C 651.407 0.0316493 3.59486 0
M  V30 7012 C 651.071 1.30156 4.38073 0
M  V30 7013 C 652.068 2.23234 4.69535 0
M  V30 7014 C 649.753 1.54572 4.77926 0
M  V30 7015 C 651.747 3.39012 5.39768 0
M  V30 7016 C 649.434 2.70641 5.47902 0
M  V30 7017 C 650.432 3.62687 5.78746 0
M  V30 7018 O 650.12 4.76728 6.47291 0
M  V30 7019 H 649.852 0.0915214 0.669776 0
M  V30 7020 H 652.406 0.905982 1.8434 0
M  V30 7021 H 650.636 -0.742451 3.79506 0
M  V30 7022 H 652.325 -0.401977 4.03905 0
M  V30 7023 H 653.091 2.05616 4.39257 0
M  V30 7024 H 648.97 0.83804 4.53319 0
M  V30 7025 H 652.514 4.10877 5.63761 0
M  V30 7026 H 648.411 2.88189 5.77596 0
M  V30 7027 H 649.179 4.76113 6.65777 0
M  V30 7028 N 651.842 -1.52309 0.404946 0
M  V30 7029 C 653.088 -2.02065 -0.172455 0
M  V30 7030 C 653.421 -1.29022 -1.45145 0
M  V30 7031 O 652.696 -0.395284 -1.90441 0
M  V30 7032 C 652.979 -3.5759 -0.424433 0
M  V30 7033 C 652.832 -4.41287 0.870945 0
M  V30 7034 C 654.151 -4.23186 -1.20837 0
M  V30 7035 H 651.27 -0.734454 -0.0612035 0
M  V30 7036 H 653.912 -1.82236 0.53759 0
M  V30 7037 H 652.062 -3.74617 -1.02929 0
M  V30 7038 H 653.734 -4.3598 1.50729 0
M  V30 7039 H 651.977 -4.07669 1.48284 0
M  V30 7040 H 652.648 -5.48171 0.649083 0
M  V30 7041 H 655.124 -4.10232 -0.696338 0
M  V30 7042 H 654 -5.31953 -1.35343 0
M  V30 7043 H 654.261 -3.81862 -2.22786 0
M  V30 7044 N 653.32 -0.135238 -1.57019 0
M  V30 7045 C 654.566 0.519563 -1.96032 0
M  V30 7046 C 654.899 1.65284 -1.01955 0
M  V30 7047 O 654.174 1.94408 -0.059727 0
M  V30 7048 C 654.457 1.0369 -3.44848 0
M  V30 7049 C 654.31 -0.0940754 -4.49702 0
M  V30 7050 C 655.629 1.92254 -3.95887 0
M  V30 7051 H 652.748 0.18739 -0.712779 0
M  V30 7052 H 655.39 -0.214086 -1.8879 0
M  V30 7053 H 653.54 1.66209 -3.5115 0
M  V30 7054 H 655.212 -0.73 -4.55487 0
M  V30 7055 H 653.455 -0.754924 -4.27181 0
M  V30 7056 H 654.126 0.309419 -5.51132 0
M  V30 7057 H 656.602 1.39581 -3.9199 0
M  V30 7058 H 655.478 2.25364 -5.00502 0
M  V30 7059 H 655.739 2.85513 -3.37543 0
M  V30 7060 N 654.798 1.5699 0.138552 0
M  V30 7061 C 656.045 1.83809 0.849732 0
M  V30 7062 C 656.373 0.717409 1.80786 0
M  V30 7063 O 655.628 -0.292897 1.93496 0
M  V30 7064 C 655.927 3.17007 1.65049 0
M  V30 7065 C 655.593 4.43037 0.838398 0
M  V30 7066 C 654.255 4.77262 0.614385 0
M  V30 7067 C 656.607 5.20495 0.271044 0
M  V30 7068 C 653.935 5.864 -0.187552 0
M  V30 7069 C 656.287 6.30476 -0.517979 0
M  V30 7070 C 654.951 6.63245 -0.75249 0
M  V30 7071 H 654.221 0.672605 0.310939 0
M  V30 7072 H 656.868 1.91166 0.112971 0
M  V30 7073 H 655.173 3.05138 2.4576 0
M  V30 7074 H 656.87 3.34975 2.20437 0
M  V30 7075 H 653.46 4.16211 1.02307 0
M  V30 7076 H 657.644 4.94422 0.431371 0
M  V30 7077 H 652.9 6.10226 -0.378659 0
M  V30 7078 H 657.074 6.89686 -0.964694 0
M  V30 7079 H 654.701 7.47648 -1.37573 0
M  V30 7080 N 656.276 -0.40816 1.52223 0
M  V30 7081 C 657.522 -1.15673 1.66576 0
M  V30 7082 C 657.855 -1.90141 0.394996 0
M  V30 7083 O 657.13 -1.84798 -0.606613 0
M  V30 7084 C 657.413 -2.15042 2.88841 0
M  V30 7085 C 657.266 -1.44465 4.25969 0
M  V30 7086 C 658.585 -3.15699 3.0663 0
M  V30 7087 H 655.704 -0.41916 0.606196 0
M  V30 7088 H 658.346 -0.442348 1.84779 0
M  V30 7089 H 656.496 -2.75964 2.73452 0
M  V30 7090 H 658.168 -0.866544 4.53088 0
M  V30 7091 H 656.411 -0.746612 4.27327 0
M  V30 7092 H 657.082 -2.16976 5.07568 0
M  V30 7093 H 659.558 -2.64854 3.20923 0
M  V30 7094 H 658.434 -3.82491 3.9369 0
M  V30 7095 H 658.695 -3.83481 2.19987 0
M  V30 7096 N 657.755 -1.42862 -0.66545 0
M  V30 7097 C 659.001 -1.44043 -1.42757 0
M  V30 7098 C 659.334 -0.0599629 -1.94107 0
M  V30 7099 O 658.609 0.917286 -1.71511 0
M  V30 7100 C 658.892 -2.47266 -2.61786 0
M  V30 7101 C 658.745 -3.94539 -2.16007 0
M  V30 7102 C 660.064 -2.47365 -3.64003 0
M  V30 7103 H 657.183 -0.524506 -0.517748 0
M  V30 7104 H 659.825 -1.74335 -0.755466 0
M  V30 7105 H 657.975 -2.21565 -3.19126 0
M  V30 7106 H 659.647 -4.31254 -1.63762 0
M  V30 7107 H 657.89 -4.07957 -1.47491 0
M  V30 7108 H 658.561 -4.62357 -3.01546 0
M  V30 7109 H 661.037 -2.70243 -3.16399 0
M  V30 7110 H 659.913 -3.21552 -4.44854 0
M  V30 7111 H 660.174 -1.50299 -4.15767 0
M  V30 7112 N 659.233 0.902656 -1.29189 0
M  V30 7113 C 660.163 2.02294 -1.16616 0
M  V30 7114 C 661.144 1.6999 -0.0611175 0
M  V30 7115 O 662.329 1.9271 -0.240072 0
M  V30 7116 C 659.459 3.37018 -0.83882 0
M  V30 7117 C 658.413 3.83522 -1.89986 0
M  V30 7118 C 657.739 5.15337 -1.42589 0
M  V30 7119 C 659.039 4.04169 -3.30824 0
M  V30 7120 H 660.733 2.13071 -2.10336 0
M  V30 7121 H 658.279 1.02378 -1.01266 0
M  V30 7122 H 660.232 4.14895 -0.737584 0
M  V30 7123 H 658.956 3.26325 0.134071 0
M  V30 7124 H 657.615 3.07859 -1.99043 0
M  V30 7125 H 657.263 5.01056 -0.441759 0
M  V30 7126 H 656.963 5.47423 -2.13547 0
M  V30 7127 H 658.487 5.95758 -1.3381 0
M  V30 7128 H 659.901 4.72537 -3.24626 0
M  V30 7129 H 658.298 4.47604 -3.99713 0
M  V30 7130 H 659.368 3.08604 -3.74021 0
M  V30 7131 N 660.711 1.11618 1.11262 0
M  V30 7132 C 661.641 0.79846 2.19424 0
M  V30 7133 C 662.622 -0.234003 1.68483 0
M  V30 7134 O 663.807 -0.0970704 1.93957 0
M  V30 7135 C 660.937 0.242892 3.4645 0
M  V30 7136 C 659.891 1.20744 4.10615 0
M  V30 7137 C 659.217 0.512494 5.32238 0
M  V30 7138 C 660.517 2.55884 4.55325 0
M  V30 7139 H 662.211 1.70286 2.46258 0
M  V30 7140 H 659.757 0.820195 1.18359 0
M  V30 7141 H 661.71 0.00840447 4.21399 0
M  V30 7142 H 660.434 -0.696811 3.1908 0
M  V30 7143 H 659.093 1.42759 3.37662 0
M  V30 7144 H 658.741 -0.432075 5.01141 0
M  V30 7145 H 658.441 1.15583 5.7612 0
M  V30 7146 H 659.965 0.286842 6.09926 0
M  V30 7147 H 661.379 2.37946 5.21588 0
M  V30 7148 H 659.776 3.16216 5.10027 0
M  V30 7149 H 660.846 3.14968 3.68678 0
M  V30 7150 N 662.189 -1.289 0.906776 0
M  V30 7151 C 663.417 -1.99401 0.551969 0
M  V30 7152 C 663.832 -1.67816 -0.865048 0
M  V30 7153 O 663.189 -0.927078 -1.57199 0
M  V30 7154 C 663.24 -3.53779 0.743152 0
M  V30 7155 O 662.961 -3.84248 2.1044 0
M  V30 7156 C 664.462 -4.41543 0.39424 0
M  V30 7157 H 661.682 -0.636926 0.211106 0
M  V30 7158 H 664.226 -1.64266 1.21807 0
M  V30 7159 H 662.381 -3.87201 0.124143 0
M  V30 7160 H 662.795 -4.78904 2.13895 0
M  V30 7161 H 664.269 -5.48957 0.578814 0
M  V30 7162 H 664.746 -4.34073 -0.669137 0
M  V30 7163 H 665.352 -4.13605 0.990491 0
M  V30 7164 N 663.667 -0.670007 -1.42649 0
M  V30 7165 C 665.083 -0.33911 -1.55956 0
M  V30 7166 C 665.283 1.1558 -1.65056 0
M  V30 7167 O 664.339 1.94111 -1.61485 0
M  V30 7168 C 665.652 -1.06522 -2.812 0
M  V30 7169 C 667.2 -1.04708 -2.94966 0
M  V30 7170 C 667.675 -1.75442 -4.23065 0
M  V30 7171 N 669.166 -1.72286 -4.29967 0
M  V30 7172 C 669.901 -2.23877 -5.27889 0
M  V30 7173 N 669.397 -2.83829 -6.31991 0
M  V30 7174 N 671.19 -2.14279 -5.19654 0
M  V30 7175 H 663.341 -1.6399 -1.34986 0
M  V30 7176 H 665.604 -0.690603 -0.649439 0
M  V30 7177 H 665.31 -2.12033 -2.80597 0
M  V30 7178 H 665.184 -0.627398 -3.71946 0
M  V30 7179 H 667.571 -0.000315966 -2.951 0
M  V30 7180 H 667.652 -1.52374 -2.05465 0
M  V30 7181 H 667.296 -2.80084 -4.23693 0
M  V30 7182 H 667.226 -1.25229 -5.11493 0
M  V30 7183 H 669.717 -1.28554 -3.55362 0
M  V30 7184 H 670.03 -3.20827 -7.03057 0
M  V30 7185 H 668.375 -2.87896 -6.32567 0
M  V30 7186 H 671.566 -1.67135 -4.37245 0
M  V30 7187 H 671.739 -2.54792 -5.95806 0
M  V30 7188 N 665.145 1.52092 -0.413018 0
M  V30 7189 C 666.391 2.02154 0.161737 0
M  V30 7190 C 666.724 1.29789 1.44459 0
M  V30 7191 O 665.999 0.405378 1.90229 0
M  V30 7192 C 666.282 3.5781 0.405463 0
M  V30 7193 C 666.135 4.40819 -0.894335 0
M  V30 7194 C 667.454 4.23821 1.18591 0
M  V30 7195 H 664.573 0.734769 0.0573077 0
M  V30 7196 H 667.215 1.81948 -0.547247 0
M  V30 7197 H 665.365 3.75158 1.0094 0
M  V30 7198 H 667.037 4.35175 -1.53039 0
M  V30 7199 H 665.28 4.06877 -1.50444 0
M  V30 7200 H 665.951 5.47819 -0.678144 0
M  V30 7201 H 668.427 4.10596 0.674573 0
M  V30 7202 H 667.303 5.32663 1.3252 0
M  V30 7203 H 667.564 3.83038 2.20758 0
M  V30 7204 N 666.623 0.143563 1.56945 0
M  V30 7205 C 667.872 -0.50835 1.95189 0
M  V30 7206 C 668.185 -1.66239 1.03073 0
M  V30 7207 O 669.391 -2.3787 1.30882 0
M  V30 7208 C 667.847 -0.955735 3.46978 0
M  V30 7209 C 667.455 0.171183 4.47673 0
M  V30 7210 C 669.199 -1.57763 3.94095 0
M  V30 7211 C 667.106 -0.294279 5.90667 0
M  V30 7212 H 666.036 -0.193679 0.728701 0
M  V30 7213 H 668.687 0.227357 1.82086 0
M  V30 7214 H 667.069 -1.7466 3.55401 0
M  V30 7215 H 668.243 0.948049 4.50942 0
M  V30 7216 H 666.558 0.701273 4.10452 0
M  V30 7217 H 669.155 -1.93745 4.98364 0
M  V30 7218 H 669.498 -2.46531 3.35452 0
M  V30 7219 H 670.031 -0.851728 3.88575 0
M  V30 7220 H 666.77 0.557939 6.53121 0
M  V30 7221 H 666.29 -1.0371 5.90766 0
M  V30 7222 H 667.969 -0.747426 6.42668 0
M  V30 7223 N 668.101 -1.57061 -0.130224 0
M  V30 7224 C 669.031 -2.02552 -1.16168 0
M  V30 7225 C 670.012 -0.907971 -1.4384 0
M  V30 7226 O 671.197 -1.17693 -1.54473 0
M  V30 7227 C 668.327 -2.42035 -2.49071 0
M  V30 7228 C 667.281 -3.5713 -2.35886 0
M  V30 7229 C 666.607 -3.82478 -3.7365 0
M  V30 7230 C 667.907 -4.89236 -1.8288 0
M  V30 7231 H 669.601 -2.8897 -0.783359 0
M  V30 7232 H 667.147 -1.39021 -0.375376 0
M  V30 7233 H 669.1 -2.72462 -3.21469 0
M  V30 7234 H 667.824 -1.52573 -2.88771 0
M  V30 7235 H 666.483 -3.26895 -1.65938 0
M  V30 7236 H 666.131 -2.9024 -4.10816 0
M  V30 7237 H 665.831 -4.59944 -3.65685 0
M  V30 7238 H 667.355 -4.15347 -4.47571 0
M  V30 7239 H 668.769 -5.18272 -2.45085 0
M  V30 7240 H 667.166 -5.70624 -1.85763 0
M  V30 7241 H 668.236 -4.78494 -0.785571 0
M  V30 7242 N 669.579 0.400081 -1.52437 0
M  V30 7243 C 670.804 1.17221 -1.71096 0
M  V30 7244 C 671.229 1.83269 -0.423565 0
M  V30 7245 O 670.587 1.70378 0.619751 0
M  V30 7246 C 670.635 2.20425 -2.85386 0
M  V30 7247 O 669.739 3.26769 -2.51586 0
M  V30 7248 H 669.08 0.341766 -0.569291 0
M  V30 7249 H 671.61 0.467772 -1.99181 0
M  V30 7250 H 671.62 2.64605 -3.10561 0
M  V30 7251 H 670.295 1.71737 -3.78786 0
M  V30 7252 H 668.872 2.87804 -2.37114 0
M  V30 7253 N 671.057 1.43213 0.657864 0
M  V30 7254 C 672.287 1.478 1.44356 0
M  V30 7255 C 672.695 0.0930206 1.88971 0
M  V30 7256 O 672.038 -0.906089 1.59799 0
M  V30 7257 C 672.1 2.35745 2.71412 0
M  V30 7258 C 671.764 3.83359 2.48767 0
M  V30 7259 C 672.761 4.74585 2.12285 0
M  V30 7260 C 670.446 4.27799 2.63235 0
M  V30 7261 C 672.44 6.08247 1.90562 0
M  V30 7262 C 670.127 5.61516 2.41128 0
M  V30 7263 C 671.125 6.51557 2.04847 0
M  V30 7264 O 670.813 7.82802 1.82967 0
M  V30 7265 H 670.545 0.504363 0.450104 0
M  V30 7266 H 673.099 1.88572 0.814241 0
M  V30 7267 H 671.329 1.89852 3.36887 0
M  V30 7268 H 673.018 2.31589 3.33348 0
M  V30 7269 H 673.784 4.41531 2.00687 0
M  V30 7270 H 669.663 3.57993 2.90451 0
M  V30 7271 H 673.207 6.78489 1.62168 0
M  V30 7272 H 669.104 5.94139 2.52327 0
M  V30 7273 H 669.872 7.94332 1.97429 0
M  V30 7274 N 672.536 -0.895792 1.29666 0
M  V30 7275 C 673.483 -2.00035 1.15129 0
M  V30 7276 C 674.453 -1.66043 0.0435819 0
M  V30 7277 O 675.638 -1.89621 0.211811 0
M  V30 7278 C 672.778 -3.34774 0.83787 0
M  V30 7279 C 671.891 -3.81525 2.0264 0
M  V30 7280 C 671.026 -5.04858 1.65201 0
M  V30 7281 C 670.065 -5.43988 2.80612 0
M  V30 7282 N 669.202 -6.58507 2.43544 0
M  V30 7283 H 674.042 -2.11802 2.09628 0
M  V30 7284 H 671.579 -1.03719 1.04311 0
M  V30 7285 H 673.537 -4.12311 0.636824 0
M  V30 7286 H 672.167 -3.22724 -0.0702314 0
M  V30 7287 H 671.219 -2.9999 2.33903 0
M  V30 7288 H 672.531 -4.06472 2.89106 0
M  V30 7289 H 671.685 -5.8999 1.41408 0
M  V30 7290 H 670.424 -4.81759 0.758893 0
M  V30 7291 H 669.429 -4.57388 3.05083 0
M  V30 7292 H 670.654 -5.69066 3.70595 0
M  V30 7293 H 668.6 -6.37004 1.56724 0
M  V30 7294 H 668.517 -6.83269 3.23542 0
M  V30 7295 H 669.785 -7.46897 2.2308 0
M  V30 7296 N 674.014 -1.12206 -1.10668 0
M  V30 7297 C 674.944 -0.810086 -2.18997 0
M  V30 7298 C 675.925 0.225065 -1.68604 0
M  V30 7299 O 677.11 0.086783 -1.94006 0
M  V30 7300 C 674.24 -0.261262 -3.46316 0
M  V30 7301 C 673.194 -1.2292 -4.09969 0
M  V30 7302 C 672.52 -0.540713 -5.31959 0
M  V30 7303 C 673.82 -2.58295 -4.53962 0
M  V30 7304 H 675.514 -1.7159 -2.45352 0
M  V30 7305 H 673.06 -0.82646 -1.17922 0
M  V30 7306 H 675.013 -0.0307522 -4.21389 0
M  V30 7307 H 673.737 0.679879 -3.19445 0
M  V30 7308 H 672.396 -1.44548 -3.369 0
M  V30 7309 H 672.044 0.405492 -5.01363 0
M  V30 7310 H 671.744 -1.18637 -5.75499 0
M  V30 7311 H 673.268 -0.319184 -6.09765 0
M  V30 7312 H 674.682 -2.40709 -5.20319 0
M  V30 7313 H 673.079 -3.18916 -5.08343 0
M  V30 7314 H 674.149 -3.16918 -3.67002 0
M  V30 7315 N 675.492 1.28418 -0.913599 0
M  V30 7316 C 676.769 1.89977 -0.465619 0
M  V30 7317 C 677.149 1.82813 1.05559 0
M  V30 7318 O 676.497 1.26397 1.90358 0
M  V30 7319 C 676.707 3.34492 -0.995813 0
M  V30 7320 C 678.055 4.11468 -1.04782 0
M  V30 7321 O 679.079 3.43451 -0.944445 0
M  V30 7322 O 677.938 5.33046 -1.20518 0
M  V30 7323 H 675.032 0.813734 -0.147532 0
M  V30 7324 H 677.578 1.36786 -1.00437 0
M  V30 7325 H 676.35 3.33929 -2.03978 0
M  V30 7326 H 675.973 3.95181 -0.437878 0
M  V30 7327 N 676.97 0.677563 1.42291 0
M  V30 7328 C 678.217 0.200975 2.015 0
M  V30 7329 C 678.545 -1.19342 1.53583 0
M  V30 7330 O 677.8 -1.81579 0.7299 0
M  V30 7331 C 678.099 0.187229 3.56909 0
M  V30 7332 C 677.765 1.52667 4.24268 0
M  V30 7333 C 676.427 1.89341 4.42384 0
M  V30 7334 C 678.779 2.40869 4.62203 0
M  V30 7335 C 676.107 3.13836 4.95705 0
M  V30 7336 C 678.459 3.64679 5.16906 0
M  V30 7337 C 677.123 4.01519 5.33234 0
M  V30 7338 H 676.393 0.0735418 0.737342 0
M  V30 7339 H 679.04 0.873095 1.70439 0
M  V30 7340 H 677.345 -0.568407 3.87655 0
M  V30 7341 H 679.042 -0.198773 4.00507 0
M  V30 7342 H 675.632 1.23138 4.1053 0
M  V30 7343 H 679.816 2.1382 4.47878 0
M  V30 7344 H 675.072 3.42396 5.06532 0
M  V30 7345 H 679.246 4.33224 5.45243 0
M  V30 7346 H 676.873 4.98062 5.74316 0
M  V30 7347 N 678.448 -1.51871 0.421078 0
M  V30 7348 C 679.378 -2.30231 -0.389363 0
M  V30 7349 C 680.359 -1.34946 -1.03555 0
M  V30 7350 O 681.544 -1.63859 -1.04229 0
M  V30 7351 C 678.674 -3.13247 -1.49979 0
M  V30 7352 C 677.628 -4.16677 -0.977966 0
M  V30 7353 C 676.954 -4.88112 -2.1829 0
M  V30 7354 C 678.254 -5.22295 -0.0236775 0
M  V30 7355 H 679.948 -2.98229 0.264524 0
M  V30 7356 H 677.494 -1.43424 0.12866 0
M  V30 7357 H 679.447 -3.66838 -2.07383 0
M  V30 7358 H 678.171 -2.4304 -2.18173 0
M  V30 7359 H 676.83 -3.64114 -0.426245 0
M  V30 7360 H 676.478 -4.14423 -2.85066 0
M  V30 7361 H 676.178 -5.58041 -1.84021 0
M  V30 7362 H 677.702 -5.44521 -2.76278 0
M  V30 7363 H 679.116 -5.71055 -0.506899 0
M  V30 7364 H 677.513 -5.99656 0.230782 0
M  V30 7365 H 678.583 -4.76131 0.917999 0
M  V30 7366 N 679.926 -0.151884 -1.56866 0
M  V30 7367 C 681.175 0.497992 -1.95456 0
M  V30 7368 C 681.488 1.6569 -1.03953 0
M  V30 7369 O 682.694 2.37173 -1.32142 0
M  V30 7370 C 681.15 0.93732 -3.4748 0
M  V30 7371 C 680.758 -0.194921 -4.47576 0
M  V30 7372 C 682.502 1.55671 -3.94926 0
M  V30 7373 C 680.409 0.26295 -5.90815 0
M  V30 7374 H 679.339 0.189811 -0.729717 0
M  V30 7375 H 681.99 -0.237011 -1.81963 0
M  V30 7376 H 680.372 1.72773 -3.56322 0
M  V30 7377 H 681.546 -0.971951 -4.50433 0
M  V30 7378 H 679.861 -0.72303 -4.10075 0
M  V30 7379 H 682.458 1.91099 -4.99385 0
M  V30 7380 H 682.801 2.44748 -3.36755 0
M  V30 7381 H 683.334 0.831109 -3.89021 0
M  V30 7382 H 680.073 -0.592568 -6.52816 0
M  V30 7383 H 679.593 1.00575 -5.91308 0
M  V30 7384 H 681.272 0.713333 -6.43056 0
M  V30 7385 N 681.404 1.57128 0.121893 0
M  V30 7386 C 682.815 1.73902 0.679348 0
M  V30 7387 C 683.166 0.770135 1.80453 0
M  V30 7388 O 682.291 -0.0576083 2.16323 0
M  V30 7389 C 682.886 3.15328 1.2391 0
M  V30 7390 C 681.445 3.33618 1.74288 0
M  V30 7391 C 680.592 2.6978 0.641414 0
M  V30 7392 H 683.543 1.58359 -0.104 0
M  V30 7393 H 683.564 3.16718 2.10879 0
M  V30 7394 H 683.076 3.85821 0.419957 0
M  V30 7395 H 681.177 2.68162 2.58689 0
M  V30 7396 H 681.29 4.4176 1.85432 0
M  V30 7397 H 679.654 2.30935 1.0743 0
M  V30 7398 H 680.437 3.42895 -0.166707 0
M  V30 7399 N 682.882 -0.391992 1.52647 0
M  V30 7400 C 683.812 -1.48517 1.8018 0
M  V30 7401 C 684.793 -1.57039 0.653667 0
M  V30 7402 O 685.978 -1.72036 0.900962 0
M  V30 7403 C 683.108 -2.86161 1.96797 0
M  V30 7404 C 682.062 -2.92481 3.12472 0
M  V30 7405 C 681.388 -4.32546 3.14338 0
M  V30 7406 C 682.688 -2.624 4.51601 0
M  V30 7407 H 684.382 -1.25726 2.71723 0
M  V30 7408 H 681.928 -0.603387 1.30749 0
M  V30 7409 H 683.881 -3.62639 2.14641 0
M  V30 7410 H 682.605 -3.10283 1.01941 0
M  V30 7411 H 681.264 -2.18451 2.94406 0
M  V30 7412 H 680.912 -4.53703 2.1717 0
M  V30 7413 H 680.612 -4.37695 3.92042 0
M  V30 7414 H 682.136 -5.10934 3.34333 0
M  V30 7415 H 683.55 -3.28596 4.69785 0
M  V30 7416 H 681.947 -2.78903 5.3135 0
M  V30 7417 H 683.017 -1.57754 4.58521 0
M  V30 7418 N 684.36 -1.4356 -0.65026 0
M  V30 7419 C 685.585 -1.48995 -1.44275 0
M  V30 7420 C 686.01 -0.109954 -1.87778 0
M  V30 7421 O 685.368 0.896926 -1.57559 0
M  V30 7422 C 685.416 -2.44341 -2.65198 0
M  V30 7423 O 684.52 -1.93172 -3.6436 0
M  V30 7424 H 683.861 -0.503852 -0.432469 0
M  V30 7425 H 686.391 -1.88504 -0.795446 0
M  V30 7426 H 686.401 -2.61743 -3.12977 0
M  V30 7427 H 685.076 -3.44588 -2.32877 0
M  V30 7428 H 683.653 -1.85445 -3.23519 0
M  V30 7429 N 685.838 0.888903 -1.30139 0
M  V30 7430 C 686.785 1.99422 -1.16188 0
M  V30 7431 C 687.755 1.66017 -0.0523869 0
M  V30 7432 O 688.94 1.89506 -0.221864 0
M  V30 7433 C 686.08 3.34325 -0.855612 0
M  V30 7434 C 685.193 3.80445 -2.0466 0
M  V30 7435 C 684.328 5.03975 -1.67876 0
M  V30 7436 C 683.367 5.42492 -2.83493 0
M  V30 7437 N 682.504 6.57206 -2.47032 0
M  V30 7438 H 687.344 2.10687 -2.10749 0
M  V30 7439 H 684.881 1.03165 -1.04859 0
M  V30 7440 H 686.839 4.11968 -0.658681 0
M  V30 7441 H 685.469 3.22756 0.0531155 0
M  V30 7442 H 684.521 2.98745 -2.3549 0
M  V30 7443 H 685.833 4.04933 -2.91257 0
M  V30 7444 H 684.987 5.89232 -1.44535 0
M  V30 7445 H 683.726 4.8135 -0.784431 0
M  V30 7446 H 682.731 4.55764 -3.07505 0
M  V30 7447 H 683.956 5.67093 -3.73607 0
M  V30 7448 H 681.902 6.36164 -1.601 0
M  V30 7449 H 681.819 6.81543 -3.27161 0
M  V30 7450 H 683.087 7.45704 -2.27038 0
M  V30 7451 N 687.317 1.12792 1.10072 0
M  V30 7452 C 688.563 0.886857 1.82381 0
M  V30 7453 C 688.896 -0.58576 1.85155 0
M  V30 7454 O 688.171 -1.43317 1.31493 0
M  V30 7455 C 688.454 1.46703 3.28862 0
M  V30 7456 C 688.307 3.00829 3.34398 0
M  V30 7457 C 689.626 1.12971 4.25353 0
M  V30 7458 H 686.745 0.32362 0.662148 0
M  V30 7459 H 689.387 1.39513 1.28982 0
M  V30 7460 H 687.537 1.03476 3.74466 0
M  V30 7461 H 689.209 3.52764 2.97247 0
M  V30 7462 H 687.452 3.36164 2.74183 0
M  V30 7463 H 688.123 3.36519 4.3756 0
M  V30 7464 H 690.599 1.50313 3.88001 0
M  V30 7465 H 689.475 1.56223 5.26199 0
M  V30 7466 H 689.736 0.0424452 4.4208 0
M  V30 7467 N 688.795 -1.27931 0.920396 0
M  V30 7468 C 690.072 -1.89728 0.475687 0
M  V30 7469 C 690.452 -1.8337 -1.04588 0
M  V30 7470 O 689.8 -1.27404 -1.89685 0
M  V30 7471 C 690.01 -3.33959 1.01354 0
M  V30 7472 C 691.358 -4.10907 1.06963 0
M  V30 7473 O 692.382 -3.42945 0.962646 0
M  V30 7474 O 691.241 -5.32399 1.23343 0
M  V30 7475 H 688.335 -0.81294 0.151845 0
M  V30 7476 H 690.881 -1.36252 1.01161 0
M  V30 7477 H 689.653 -3.32843 2.05746 0
M  V30 7478 H 689.276 -3.94944 0.458829 0
M  V30 7479 N 690.273 -0.685099 -1.4193 0
M  V30 7480 C 691.183 -0.013404 -2.34596 0
M  V30 7481 C 692.199 0.777589 -1.55658 0
M  V30 7482 O 693.375 0.717553 -1.88184 0
M  V30 7483 C 690.44 0.919031 -3.34297 0
M  V30 7484 C 689.501 0.121417 -4.29128 0
M  V30 7485 C 688.734 1.00944 -5.24067 0
M  V30 7486 O 688.957 2.24898 -5.24192 0
M  V30 7487 O 687.891 0.464724 -6.00103 0
M  V30 7488 H 691.717 -0.776978 -2.93593 0
M  V30 7489 H 689.302 -0.445379 -1.42607 0
M  V30 7490 H 691.184 1.45402 -3.9552 0
M  V30 7491 H 689.859 1.66228 -2.77759 0
M  V30 7492 H 688.766 -0.45792 -3.71287 0
M  V30 7493 H 690.099 -0.582937 -4.88736 0
M  V30 7494 N 691.751 1.51645 -0.429126 0
M  V30 7495 C 692.699 2.29119 0.400921 0
M  V30 7496 C 693.693 1.34628 1.02819 0
M  V30 7497 O 694.899 1.52004 0.964098 0
M  V30 7498 H 691.274 0.737273 0.148095 0
M  V30 7499 H 693.245 2.97144 -0.273457 0
M  V30 7500 C 691.994 3.13953 1.49429 0
M  V30 7501 H 691.317 3.86544 1.02097 0
M  V30 7502 H 692.757 3.71232 2.04849 0
M  V30 7503 C 691.216 2.28796 2.47293 0
M  V30 7504 O 691.746 1.94193 3.51642 0
M  V30 7505 N 689.952 1.92177 2.17982 0
M  V30 7506 H 689.499 2.20517 1.33154 0
M  V30 7507 H 689.457 1.35497 2.83704 0
M  V30 7508 N 693.229 0.160201 1.56784 0
M  V30 7509 C 694.162 -0.812797 2.13234 0
M  V30 7510 C 695.14 -1.2335 1.05942 0
M  V30 7511 O 696.324 -1.32725 1.33852 0
M  V30 7512 C 693.451 -2.09311 2.66283 0
M  V30 7513 C 692.497 -1.8173 3.85845 0
M  V30 7514 S 693.33 -0.996473 5.26147 0
M  V30 7515 C 694.486 -2.28769 5.82594 0
M  V30 7516 H 694.719 -0.332794 2.95432 0
M  V30 7517 H 692.252 -0.0542971 1.54304 0
M  V30 7518 H 694.21 -2.82854 2.97496 0
M  V30 7519 H 692.871 -2.54425 1.84192 0
M  V30 7520 H 692.064 -2.76699 4.21253 0
M  V30 7521 H 691.666 -1.16289 3.55462 0
M  V30 7522 H 693.958 -3.24319 5.9483 0
M  V30 7523 H 694.901 -1.97846 6.79899 0
M  V30 7524 H 695.309 -2.40021 5.10931 0
M  V30 7525 N 694.707 -1.5719 -0.113559 0
M  V30 7526 C 695.654 -2.00736 -1.13901 0
M  V30 7527 C 696.624 -0.88044 -1.40846 0
M  V30 7528 O 697.809 -1.14507 -1.5262 0
M  V30 7529 C 694.949 -2.42132 -2.45899 0
M  V30 7530 C 694.062 -3.68264 -2.25844 0
M  V30 7531 C 693.197 -3.98617 -3.5111 0
M  V30 7532 C 692.236 -5.17915 -3.26236 0
M  V30 7533 N 691.373 -5.44111 -4.4372 0
M  V30 7534 H 696.213 -2.88128 -0.760677 0
M  V30 7535 H 693.75 -1.42523 -0.364099 0
M  V30 7536 H 695.708 -2.6417 -3.22908 0
M  V30 7537 H 694.338 -1.57775 -2.81615 0
M  V30 7538 H 693.39 -3.53809 -1.39726 0
M  V30 7539 H 694.702 -4.55425 -2.03444 0
M  V30 7540 H 693.856 -4.21333 -4.36536 0
M  V30 7541 H 692.595 -3.09942 -3.76546 0
M  V30 7542 H 691.6 -4.95038 -2.39202 0
M  V30 7543 H 692.825 -6.08172 -3.02165 0
M  V30 7544 H 690.771 -4.58394 -4.69266 0
M  V30 7545 H 690.688 -6.25606 -4.24444 0
M  V30 7546 H 691.956 -5.71351 -5.30263 0
M  V30 7547 N 696.185 0.383891 -1.52853 0
M  V30 7548 C 697.431 1.13009 -1.68395 0
M  V30 7549 C 697.764 1.89488 -0.425195 0
M  V30 7550 O 697.039 1.8574 0.577136 0
M  V30 7551 C 697.322 2.10419 -2.92226 0
M  V30 7552 C 697.175 1.3767 -4.28214 0
M  V30 7553 C 698.494 3.10781 -3.11614 0
M  V30 7554 H 695.613 0.409463 -0.612788 0
M  V30 7555 H 698.255 0.412895 -1.85459 0
M  V30 7556 H 696.405 2.71579 -2.77808 0
M  V30 7557 H 698.077 0.794352 -4.54409 0
M  V30 7558 H 696.32 0.678533 -4.2846 0
M  V30 7559 H 696.991 2.08874 -5.10956 0
M  V30 7560 H 699.467 2.59715 -3.25096 0
M  V30 7561 H 698.343 3.76179 -3.99725 0
M  V30 7562 H 698.604 3.79933 -2.2606 0
M  V30 7563 N 697.663 1.43903 0.642637 0
M  V30 7564 C 698.626 1.49538 1.73698 0
M  V30 7565 C 699.626 0.378776 1.56275 0
M  V30 7566 O 700.816 0.64095 1.6198 0
M  V30 7567 C 697.948 1.35821 3.12675 0
M  V30 7568 H 699.141 2.47008 1.70079 0
M  V30 7569 H 696.694 1.30824 0.85526 0
M  V30 7570 H 697.429 0.393994 3.21898 0
M  V30 7571 H 697.214 2.16776 3.26727 0
M  V30 7572 H 698.704 1.4272 3.92455 0
M  V30 7573 N 699.141 -0.881989 1.30609 0
M  V30 7574 C 700.073 -1.99375 1.13058 0
M  V30 7575 C 701.086 -1.62636 0.0729879 0
M  V30 7576 O 702.275 -1.75621 0.319301 0
M  V30 7577 C 699.375 -3.31536 0.702651 0
M  V30 7578 C 698.548 -3.96693 1.84265 0
M  V30 7579 C 697.607 -5.07158 1.40277 0
M  V30 7580 O 696.633 -5.28628 2.11048 0
M  V30 7581 N 697.835 -5.79808 0.283449 0
M  V30 7582 H 700.6 -2.14981 2.08814 0
M  V30 7583 H 698.161 -1.05526 1.22784 0
M  V30 7584 H 700.153 -4.02804 0.391331 0
M  V30 7585 H 698.723 -3.12175 -0.162954 0
M  V30 7586 H 697.943 -3.1856 2.32192 0
M  V30 7587 H 699.231 -4.36964 2.60653 0
M  V30 7588 H 698.629 -5.64871 -0.306189 0
M  V30 7589 H 697.186 -6.51792 0.0315985 0
M  V30 7590 N 700.619 -1.13374 -1.09472 0
M  V30 7591 C 701.566 -0.810682 -2.16094 0
M  V30 7592 C 702.536 0.227003 -1.64541 0
M  V30 7593 O 703.721 0.0993538 -1.90541 0
M  V30 7594 C 700.861 -0.282336 -3.43943 0
M  V30 7595 C 699.974 -1.37902 -4.09398 0
M  V30 7596 C 699.109 -0.809066 -5.25002 0
M  V30 7597 C 698.148 -1.88419 -5.82379 0
M  V30 7598 N 697.285 -1.33221 -6.89345 0
M  V30 7599 H 702.125 -1.72397 -2.43071 0
M  V30 7600 H 699.662 -0.860564 -1.19301 0
M  V30 7601 H 701.62 0.0421189 -4.17179 0
M  V30 7602 H 700.25 0.594083 -3.17286 0
M  V30 7603 H 699.302 -1.82008 -3.34032 0
M  V30 7604 H 700.614 -2.19161 -4.48074 0
M  V30 7605 H 699.768 -0.435867 -6.05132 0
M  V30 7606 H 698.507 0.0346058 -4.87688 0
M  V30 7607 H 697.512 -2.26646 -5.00911 0
M  V30 7608 H 698.737 -2.73125 -6.21755 0
M  V30 7609 H 696.683 -0.510535 -6.5401 0
M  V30 7610 H 696.6 -2.08129 -7.26786 0
M  V30 7611 H 697.868 -0.986565 -7.73232 0
M  V30 7612 N 702.098 1.27442 -0.927168 0
M  V30 7613 C 703.514 1.46754 -0.627329 0
M  V30 7614 C 703.714 1.83902 0.823549 0
M  V30 7615 O 702.77 1.95215 1.60148 0
M  V30 7616 C 704.083 2.56045 -1.57674 0
M  V30 7617 C 705.631 2.69906 -1.58491 0
M  V30 7618 C 706.106 3.82355 -2.52128 0
M  V30 7619 N 707.597 3.89728 -2.50332 0
M  V30 7620 C 708.332 4.76155 -3.19475 0
M  V30 7621 N 707.828 5.67073 -3.97995 0
M  V30 7622 N 709.621 4.6988 -3.08496 0
M  V30 7623 H 701.772 1.01613 -1.86517 0
M  V30 7624 H 704.035 0.507443 -0.800753 0
M  V30 7625 H 703.741 2.35542 -2.61176 0
M  V30 7626 H 703.615 3.53423 -1.31804 0
M  V30 7627 H 706.002 2.89792 -0.557208 0
M  V30 7628 H 706.083 1.73018 -1.8841 0
M  V30 7629 H 705.727 3.63224 -3.55008 0
M  V30 7630 H 705.657 4.7867 -2.19505 0
M  V30 7631 H 708.148 3.24717 -1.93306 0
M  V30 7632 H 708.461 6.2988 -4.4774 0
M  V30 7633 H 706.806 5.6687 -4.02098 0
M  V30 7634 H 709.997 3.97848 -2.46646 0
M  V30 7635 H 710.17 5.37017 -3.62652 0
M  V30 7636 N 703.576 0.692616 1.41565 0
M  V30 7637 C 704.853 0.150496 1.9502 0
M  V30 7638 C 705.233 -1.33881 1.63215 0
M  V30 7639 O 704.581 -2.08378 0.937598 0
M  V30 7640 C 704.791 0.438636 3.46233 0
M  V30 7641 C 706.139 0.364777 4.2303 0
M  V30 7642 O 707.163 0.373383 3.54238 0
M  V30 7643 O 706.022 0.32234 5.45549 0
M  V30 7644 H 703.116 0.0132454 0.826894 0
M  V30 7645 H 705.662 0.768574 1.51298 0
M  V30 7646 H 704.434 1.46962 3.62654 0
M  V30 7647 H 704.057 -0.210562 3.97042 0
M  V30 7648 N 705.054 -1.51416 0.437162 0
M  V30 7649 C 706.017 -2.26312 -0.362729 0
M  V30 7650 C 707.017 -1.29748 -0.949847 0
M  V30 7651 O 708.207 -1.53462 -0.824325 0
M  V30 7652 C 705.339 -3.05475 -1.5132 0
M  V30 7653 H 706.532 -2.98459 0.29365 0
M  V30 7654 H 704.085 -1.55137 0.190327 0
M  V30 7655 H 704.82 -2.37744 -2.20563 0
M  V30 7656 H 704.605 -3.76401 -1.09838 0
M  V30 7657 H 706.095 -3.62209 -2.07833 0
M  V30 7658 N 706.532 -0.168513 -1.56696 0
M  V30 7659 C 707.778 0.477865 -1.9709 0
M  V30 7660 C 708.111 1.63084 -1.05438 0
M  V30 7661 O 707.386 1.94238 -0.10095 0
M  V30 7662 C 707.669 0.963521 -3.4697 0
M  V30 7663 C 707.522 -0.189443 -4.49401 0
M  V30 7664 C 708.841 1.83813 -3.99876 0
M  V30 7665 H 705.96 0.172229 -0.716593 0
M  V30 7666 H 708.602 -0.254083 -1.88293 0
M  V30 7667 H 706.752 1.58724 -3.54597 0
M  V30 7668 H 708.424 -0.826451 -4.53836 0
M  V30 7669 H 706.667 -0.845366 -4.25483 0
M  V30 7670 H 707.338 0.192446 -5.51664 0
M  V30 7671 H 709.814 1.31235 -3.94863 0
M  V30 7672 H 708.69 2.14697 -5.0517 0
M  V30 7673 H 708.951 2.78289 -3.43523 0
M  V30 7674 N 708.01 1.57248 0.105221 0
M  V30 7675 C 708.94 2.04374 1.12931 0
M  V30 7676 C 709.921 0.93074 1.42377 0
M  V30 7677 O 711.106 1.20136 1.52581 0
M  V30 7678 C 708.236 2.45967 2.45189 0
M  V30 7679 C 707.19 3.60838 2.30174 0
M  V30 7680 C 706.516 3.88374 3.67518 0
M  V30 7681 C 707.816 4.92084 1.75073 0
M  V30 7682 H 709.51 2.9018 0.737287 0
M  V30 7683 H 707.056 1.39601 0.353211 0
M  V30 7684 H 709.009 2.77542 3.17094 0
M  V30 7685 H 707.733 1.57148 2.86308 0
M  V30 7686 H 706.392 3.29493 1.60716 0
M  V30 7687 H 706.04 2.96739 4.06147 0
M  V30 7688 H 705.74 4.65703 3.58321 0
M  V30 7689 H 707.264 4.22415 4.40906 0
M  V30 7690 H 708.678 5.22106 2.36809 0
M  V30 7691 H 707.075 5.73507 1.76662 0
M  V30 7692 H 708.145 4.79684 0.709347 0
M  V30 7693 N 709.488 -0.375779 1.53054 0
M  V30 7694 C 710.42 -1.47963 1.75042 0
M  V30 7695 C 711.433 -1.50073 0.631031 0
M  V30 7696 O 712.622 -1.53736 0.907052 0
M  V30 7697 C 709.722 -2.86767 1.80604 0
M  V30 7698 C 708.895 -3.08471 3.10104 0
M  V30 7699 C 707.954 -4.27332 3.07041 0
M  V30 7700 O 706.98 -4.22998 3.80869 0
M  V30 7701 N 708.182 -5.34214 2.27147 0
M  V30 7702 H 710.947 -1.29484 2.70285 0
M  V30 7703 H 708.508 -0.565416 1.51706 0
M  V30 7704 H 710.5 -3.64404 1.76045 0
M  V30 7705 H 709.07 -2.98542 0.926897 0
M  V30 7706 H 708.29 -2.18583 3.28048 0
M  V30 7707 H 709.578 -3.19834 3.95706 0
M  V30 7708 H 708.976 -5.40594 1.66656 0
M  V30 7709 H 707.533 -6.10467 2.28415 0
M  V30 7710 N 710.966 -1.44241 -0.634997 0
M  V30 7711 C 712.214 -1.46531 -1.39187 0
M  V30 7712 C 712.535 -0.0976441 -1.94755 0
M  V30 7713 O 711.805 0.869528 -1.75545 0
M  V30 7714 H 710.385 -0.539544 -0.516625 0
M  V30 7715 H 713.047 -1.79989 -0.747655 0
M  V30 7716 H 712.143 -2.18848 -2.22513 0
M  V30 7717 N 712.444 0.87505 -1.31075 0
M  V30 7718 C 713.377 1.98471 -1.12625 0
M  V30 7719 C 714.355 1.6257 -0.0311379 0
M  V30 7720 O 715.539 1.87574 -0.186594 0
M  V30 7721 C 712.666 3.30963 -0.719799 0
M  V30 7722 C 711.712 3.85849 -1.81722 0
M  V30 7723 S 712.545 4.11926 -3.42165 0
M  V30 7724 C 713.701 5.47423 -3.03445 0
M  V30 7725 H 713.934 2.13817 -2.06566 0
M  V30 7726 H 711.467 1.02463 -1.15502 0
M  V30 7727 H 713.425 4.07541 -0.492035 0
M  V30 7728 H 712.086 3.1346 0.200413 0
M  V30 7729 H 711.279 4.81616 -1.48533 0
M  V30 7730 H 710.881 3.16046 -1.99977 0
M  V30 7731 H 713.173 6.28881 -2.52023 0
M  V30 7732 H 714.116 5.85557 -3.98157 0
M  V30 7733 H 714.524 5.10455 -2.41031 0
M  V30 7734 N 713.922 1.13953 1.08869 0
M  V30 7735 C 715.169 0.90481 1.81161 0
M  V30 7736 C 715.497 -0.568824 1.85996 0
M  V30 7737 O 714.752 -1.43723 1.32823 0
M  V30 7738 C 715.051 1.44495 3.26888 0
M  V30 7739 C 714.717 2.93641 3.42178 0
M  V30 7740 C 713.379 3.34361 3.46059 0
M  V30 7741 C 715.731 3.89568 3.46246 0
M  V30 7742 C 713.059 4.69681 3.51592 0
M  V30 7743 C 715.411 5.2474 3.53314 0
M  V30 7744 C 714.075 5.64979 3.55465 0
M  V30 7745 H 713.345 0.331094 0.662916 0
M  V30 7746 H 715.992 1.42242 1.28217 0
M  V30 7747 H 714.297 0.848169 3.82509 0
M  V30 7748 H 715.994 1.23934 3.81368 0
M  V30 7749 H 712.584 2.61156 3.39846 0
M  V30 7750 H 716.768 3.59192 3.42483 0
M  V30 7751 H 712.024 5.00224 3.51547 0
M  V30 7752 H 716.198 5.98882 3.55406 0
M  V30 7753 H 713.825 6.69821 3.59505 0
M  V30 7754 N 715.4 -1.26948 0.933913 0
M  V30 7755 C 716.63 -1.97898 0.593279 0
M  V30 7756 C 717.038 -1.69806 -0.834412 0
M  V30 7757 O 716.381 -0.958704 -1.56699 0
M  V30 7758 C 716.443 -3.51657 0.746825 0
M  V30 7759 C 716.107 -4.03384 2.14779 0
M  V30 7760 C 717.104 -4.15682 3.12257 0
M  V30 7761 C 714.789 -4.37577 2.46641 0
M  V30 7762 C 716.783 -4.61455 4.39702 0
M  V30 7763 C 714.47 -4.8304 3.7432 0
M  V30 7764 C 715.468 -4.94939 4.70664 0
M  V30 7765 O 715.156 -5.39403 5.96071 0
M  V30 7766 H 714.888 -0.63814 0.223055 0
M  V30 7767 H 717.442 -1.62608 1.2549 0
M  V30 7768 H 715.672 -3.8669 0.0280889 0
M  V30 7769 H 717.361 -4.03821 0.410328 0
M  V30 7770 H 718.127 -3.89519 2.88964 0
M  V30 7771 H 714.006 -4.27554 1.72391 0
M  V30 7772 H 717.55 -4.70658 5.14905 0
M  V30 7773 H 713.447 -5.08646 3.97429 0
M  V30 7774 H 714.215 -5.57641 5.99148 0
M  V30 7775 N 716.879 -0.700114 -1.41195 0
M  V30 7776 C 718.126 -0.233006 -2.01155 0
M  V30 7777 C 718.454 1.16883 -1.55462 0
M  V30 7778 O 717.709 1.80395 -0.758695 0
M  V30 7779 C 718.008 -0.243986 -3.56566 0
M  V30 7780 C 717.674 -1.59397 -4.21786 0
M  V30 7781 C 716.336 -1.96355 -4.39316 0
M  V30 7782 C 718.688 -2.48192 -4.58312 0
M  V30 7783 C 716.016 -3.21683 -4.9065 0
M  V30 7784 C 718.368 -3.72857 -5.11039 0
M  V30 7785 C 717.032 -4.09951 -5.26779 0
M  V30 7786 H 716.302 -0.085263 -0.736078 0
M  V30 7787 H 718.949 -0.9001 -1.69028 0
M  V30 7788 H 717.254 0.506663 -3.8851 0
M  V30 7789 H 718.951 0.135031 -4.00773 0
M  V30 7790 H 715.541 -1.29654 -4.08519 0
M  V30 7791 H 719.725 -2.20918 -4.4442 0
M  V30 7792 H 714.981 -3.50412 -5.01021 0
M  V30 7793 H 719.155 -4.41844 -5.38282 0
M  V30 7794 H 716.782 -5.07136 -5.66319 0
M  V30 7795 N 718.357 1.51182 -0.445186 0
M  V30 7796 C 719.773 1.59299 -0.0978954 0
M  V30 7797 C 719.973 1.4555 1.39346 0
M  V30 7798 O 719.029 1.30073 2.16419 0
M  V30 7799 C 720.342 2.94133 -0.625005 0
M  V30 7800 C 721.89 3.07463 -0.586137 0
M  V30 7801 C 722.365 4.44832 -1.09035 0
M  V30 7802 N 723.856 4.51173 -1.04867 0
M  V30 7803 C 724.591 5.55804 -1.40959 0
M  V30 7804 N 724.087 6.67816 -1.84375 0
M  V30 7805 N 725.88 5.46205 -1.32726 0
M  V30 7806 H 718.031 1.58363 -1.41544 0
M  V30 7807 H 720.294 0.746946 -0.58376 0
M  V30 7808 H 720 3.09589 -1.66876 0
M  V30 7809 H 719.874 3.77161 -0.0542262 0
M  V30 7810 H 722.261 2.9167 0.448646 0
M  V30 7811 H 722.342 2.26255 -1.19341 0
M  V30 7812 H 721.986 4.61372 -2.12364 0
M  V30 7813 H 721.916 5.24591 -0.459539 0
M  V30 7814 H 724.407 3.70783 -0.729932 0
M  V30 7815 H 724.72 7.43683 -2.10131 0
M  V30 7816 H 723.065 6.69003 -1.88308 0
M  V30 7817 H 726.256 4.57583 -0.986678 0
M  V30 7818 H 726.429 6.27634 -1.61182 0
M  V30 7819 N 719.835 0.176821 1.56605 0
M  V30 7820 C 720.782 -0.751312 2.18229 0
M  V30 7821 C 721.752 -1.22297 1.12395 0
M  V30 7822 O 722.937 -1.29015 1.40569 0
M  V30 7823 C 720.077 -1.97291 2.83143 0
M  V30 7824 C 719.19 -1.54431 4.03454 0
M  V30 7825 C 718.325 -2.72 4.56278 0
M  V30 7826 C 717.364 -2.25657 5.68986 0
M  V30 7827 N 716.501 -3.36338 6.16296 0
M  V30 7828 H 721.341 -0.219033 2.97194 0
M  V30 7829 H 718.878 -0.0963803 1.46784 0
M  V30 7830 H 720.836 -2.68949 3.1894 0
M  V30 7831 H 719.466 -2.4788 2.06773 0
M  V30 7832 H 718.518 -0.724273 3.73441 0
M  V30 7833 H 719.83 -1.16417 4.85024 0
M  V30 7834 H 718.984 -3.51806 4.94285 0
M  V30 7835 H 717.723 -3.13277 3.73777 0
M  V30 7836 H 716.728 -1.44299 5.30526 0
M  V30 7837 H 717.953 -1.85432 6.53293 0
M  V30 7838 H 715.899 -3.7718 5.36723 0
M  V30 7839 H 715.816 -3.02435 6.9287 0
M  V30 7840 H 717.084 -4.16413 6.58954 0
M  V30 7841 N 721.313 -1.57302 -0.09688 0
M  V30 7842 C 722.59 -1.7701 -0.832272 0
M  V30 7843 C 722.97 -0.758025 -1.97021 0
M  V30 7844 O 722.318 0.213824 -2.27497 0
M  V30 7845 C 722.528 -3.22725 -1.32851 0
M  V30 7846 C 723.876 -3.85856 -1.772 0
M  V30 7847 O 724.9 -3.26464 -1.42478 0
M  V30 7848 O 723.759 -4.90295 -2.41398 0
M  V30 7849 H 720.853 -0.725558 -0.396856 0
M  V30 7850 H 723.399 -1.69516 -0.0789005 0
M  V30 7851 H 722.171 -3.87921 -0.51312 0
M  V30 7852 H 721.794 -3.34845 -2.14394 0
M  V30 7853 N 722.791 0.367657 -1.53252 0
M  V30 7854 C 724.04 1.10782 -1.68554 0
M  V30 7855 C 724.353 1.90523 -0.442765 0
M  V30 7856 O 725.559 2.6729 -0.47629 0
M  V30 7857 C 724.015 2.01863 -2.97959 0
M  V30 7858 C 723.623 1.27443 -4.29491 0
M  V30 7859 C 725.367 2.75883 -3.22628 0
M  V30 7860 C 723.274 2.17414 -5.49987 0
M  V30 7861 H 722.204 0.417272 -0.628013 0
M  V30 7862 H 724.855 0.368971 -1.79752 0
M  V30 7863 H 723.237 2.7947 -2.80558 0
M  V30 7864 H 724.411 0.549138 -4.57516 0
M  V30 7865 H 722.726 0.652935 -4.11249 0
M  V30 7866 H 725.323 3.43421 -4.09837 0
M  V30 7867 H 725.666 3.41138 -2.38601 0
M  V30 7868 H 726.199 2.0536 -3.40693 0
M  V30 7869 H 722.938 1.5674 -6.36485 0
M  V30 7870 H 722.458 2.87799 -5.26243 0
M  V30 7871 H 724.137 2.77019 -5.84696 0
M  V30 7872 N 724.269 1.44576 0.627338 0
M  V30 7873 C 725.509 1.49083 1.39834 0
M  V30 7874 C 725.873 0.121643 1.91614 0
M  V30 7875 O 727.074 0.0413885 2.68768 0
M  V30 7876 C 725.345 2.52467 2.52973 0
M  V30 7877 S 726.904 2.7605 3.41089 0
M  V30 7878 H 723.722 0.527252 0.476997 0
M  V30 7879 H 726.324 1.81525 0.725872 0
M  V30 7880 H 725.028 3.50646 2.13249 0
M  V30 7881 H 724.559 2.2161 3.25042 0
M  V30 7882 H 726.574 2.07932 4.50531 0
M  V30 7883 N 725.747 -0.868086 1.31537 0
M  V30 7884 C 726.694 -1.97548 1.19346 0
M  V30 7885 C 727.664 -1.65913 0.0787922 0
M  V30 7886 O 728.849 -1.89129 0.251985 0
M  V30 7887 C 725.989 -3.32922 0.908692 0
M  V30 7888 C 725.102 -3.77141 2.10687 0
M  V30 7889 C 724.237 -5.01241 1.75873 0
M  V30 7890 C 723.276 -5.37914 2.92088 0
M  V30 7891 N 722.413 -6.53192 2.57457 0
M  V30 7892 H 727.253 -2.07307 2.14074 0
M  V30 7893 H 724.79 -1.01483 1.06487 0
M  V30 7894 H 726.748 -4.10867 0.724138 0
M  V30 7895 H 725.378 -3.228 -0.0017611 0
M  V30 7896 H 724.43 -2.94961 2.40213 0
M  V30 7897 H 725.742 -4.00248 2.97663 0
M  V30 7898 H 724.896 -5.86858 1.53891 0
M  V30 7899 H 723.635 -4.80041 0.86091 0
M  V30 7900 H 722.64 -4.50814 3.14717 0
M  V30 7901 H 723.865 -5.61077 3.82582 0
M  V30 7902 H 721.811 -6.33536 1.702 0
M  V30 7903 H 721.728 -6.76252 3.37963 0
M  V30 7904 H 722.996 -7.41997 2.38873 0
M  V30 7905 N 727.225 -1.14528 -1.08264 0
M  V30 7906 C 728.473 -0.912599 -1.80322 0
M  V30 7907 C 728.794 0.562256 -1.86718 0
M  V30 7908 O 728.064 1.40869 -1.36135 0
M  V30 7909 H 726.644 -0.334645 -0.667849 0
M  V30 7910 H 729.306 -1.44415 -1.30883 0
M  V30 7911 H 728.402 -1.31384 -2.83098 0
M  V30 7912 N 728.703 1.26451 -0.940633 0
M  V30 7913 C 729.951 1.93395 -0.586748 0
M  V30 7914 C 730.272 1.7417 0.876921 0
M  V30 7915 O 729.542 1.097 1.62304 0
M  V30 7916 H 728.122 0.715687 -0.214012 0
M  V30 7917 H 730.784 1.53902 -1.19584 0
M  V30 7918 H 729.88 3.01565 -0.804059 0
M  V30 7919 N 730.181 0.707592 1.40822 0
M  V30 7920 C 731.129 0.0386643 2.32568 0
M  V30 7921 C 732.123 -0.755653 1.51612 0
M  V30 7922 O 733.329 -0.659921 1.67467 0
M  V30 7923 H 729.704 -0.00629912 0.751974 0
M  V30 7924 H 731.675 0.8293 2.86645 0
M  V30 7925 C 730.424 -0.87496 3.36511 0
M  V30 7926 H 729.747 -0.273157 3.98866 0
M  V30 7927 H 731.187 -1.31111 4.03219 0
M  V30 7928 C 729.646 -1.99672 2.71353 0
M  V30 7929 O 730.176 -3.08676 2.57064 0
M  V30 7930 N 728.382 -1.77799 2.29861 0
M  V30 7931 H 727.929 -0.89147 2.41683 0
M  V30 7932 H 727.887 -2.53036 1.86601 0
M  V30 7933 N 731.66 -1.50943 0.453197 0
M  V30 7934 C 732.623 -2.26684 -0.338705 0
M  V30 7935 C 733.623 -1.30748 -0.936032 0
M  V30 7936 O 734.813 -1.54327 -0.808002 0
M  V30 7937 C 731.945 -3.07063 -1.48071 0
M  V30 7938 H 733.138 -2.98131 0.325289 0
M  V30 7939 H 730.691 -1.54926 0.206771 0
M  V30 7940 H 731.426 -2.4007 -2.18029 0
M  V30 7941 H 731.211 -3.77545 -1.0584 0
M  V30 7942 H 732.701 -3.64393 -2.0398 0
M  V30 7943 N 733.138 -0.185124 -1.56509 0
M  V30 7944 C 734.384 0.456934 -1.97585 0
M  V30 7945 C 734.717 1.61957 -1.07161 0
M  V30 7946 O 733.992 1.9412 -0.121546 0
M  V30 7947 C 734.275 0.926666 -3.47973 0
M  V30 7948 C 734.128 -0.237097 -4.49175 0
M  V30 7949 C 735.447 1.79561 -4.01803 0
M  V30 7950 H 732.566 0.164619 -0.71838 0
M  V30 7951 H 735.208 -0.274039 -1.88013 0
M  V30 7952 H 733.358 1.54954 -3.56261 0
M  V30 7953 H 735.03 -0.87454 -4.52934 0
M  V30 7954 H 733.273 -0.890446 -4.24563 0
M  V30 7955 H 733.944 0.133924 -5.51838 0
M  V30 7956 H 736.42 1.27039 -3.96232 0
M  V30 7957 H 735.296 2.09327 -5.07418 0
M  V30 7958 H 735.557 2.74629 -3.46455 0
M  V30 7959 N 734.616 1.57351 0.0885366 0
M  V30 7960 C 735.862 1.86696 0.791996 0
M  V30 7961 C 736.195 0.775148 1.78059 0
M  V30 7962 O 735.47 -0.216247 1.93294 0
M  V30 7963 C 735.753 3.26684 1.51491 0
M  V30 7964 C 735.606 4.465 0.543858 0
M  V30 7965 C 736.925 3.64664 2.46391 0
M  V30 7966 H 734.044 0.679049 0.286463 0
M  V30 7967 H 736.686 1.89919 0.0554866 0
M  V30 7968 H 734.836 3.24067 2.14273 0
M  V30 7969 H 736.508 4.61235 -0.0774597 0
M  V30 7970 H 734.751 4.33567 -0.142228 0
M  V30 7971 H 735.422 5.41192 1.08696 0
M  V30 7972 H 737.898 3.68267 1.93698 0
M  V30 7973 H 736.774 4.63534 2.93986 0
M  V30 7974 H 737.035 2.93698 3.30445 0
M  V30 7975 N 736.094 -0.359525 1.53444 0
M  V30 7976 C 737.371 -1.11756 1.6053 0
M  V30 7977 C 737.751 -2.06949 0.416587 0
M  V30 7978 O 737.099 -2.20681 -0.592628 0
M  V30 7979 C 737.309 -1.85133 2.95849 0
M  V30 7980 C 738.657 -2.3945 3.50641 0
M  V30 7981 O 739.681 -1.95251 2.97918 0
M  V30 7982 O 738.54 -3.20266 4.42823 0
M  V30 7983 H 735.634 -0.513005 0.648656 0
M  V30 7984 H 738.18 -0.362301 1.65787 0
M  V30 7985 H 736.952 -1.15694 3.73806 0
M  V30 7986 H 736.575 -2.67554 2.9411 0
M  V30 7987 N 737.572 -1.44907 -0.619662 0
M  V30 7988 C 738.82 -1.47999 -1.37625 0
M  V30 7989 C 739.141 -0.118295 -1.94641 0
M  V30 7990 O 738.411 0.85086 -1.76457 0
M  V30 7991 H 736.991 -0.544993 -0.510873 0
M  V30 7992 H 739.653 -1.80772 -0.728522 0
M  V30 7993 H 738.749 -2.21196 -2.20179 0
M  V30 7994 N 739.05 0.861098 -1.31996 0
M  V30 7995 C 740.29 1.62873 -1.23498 0
M  V30 7996 C 740.654 1.90938 0.201692 0
M  V30 7997 O 741.855 2.6565 0.410305 0
M  V30 7998 C 740.126 2.91759 -2.06426 0
M  V30 7999 S 741.685 3.82583 -2.14885 0
M  V30 8000 H 738.503 0.558726 -0.439712 0
M  V30 8001 H 741.105 1.02025 -1.66767 0
M  V30 8002 H 739.809 2.69077 -3.0988 0
M  V30 8003 H 739.34 3.57627 -1.6391 0
M  V30 8004 H 741.355 4.7904 -1.29364 0
M  V30 8005 N 740.528 1.15101 1.07655 0
M  V30 8006 C 741.776 0.922149 1.79836 0
M  V30 8007 C 742.097 -0.552346 1.87014 0
M  V30 8008 O 741.367 -1.40145 1.3688 0
M  V30 8009 H 739.947 0.338182 0.666064 0
M  V30 8010 H 742.609 1.45107 1.30115 0
M  V30 8011 H 741.705 1.32883 2.82398 0
M  V30 8012 N 742.006 -1.2595 0.947325 0
M  V30 8013 C 742.953 -2.26159 0.460497 0
M  V30 8014 C 743.923 -1.58919 -0.483125 0
M  V30 8015 O 745.108 -1.86603 -0.397983 0
M  V30 8016 C 742.248 -3.441 -0.26247 0
M  V30 8017 C 741.361 -4.25999 0.717539 0
M  V30 8018 C 740.496 -5.31193 -0.0272486 0
M  V30 8019 C 739.535 -6.04774 0.944177 0
M  V30 8020 N 738.672 -7.01721 0.230741 0
M  V30 8021 H 743.512 -2.67173 1.31995 0
M  V30 8022 H 741.049 -1.31358 0.662088 0
M  V30 8023 H 743.007 -4.11317 -0.698137 0
M  V30 8024 H 741.637 -3.03983 -1.08602 0
M  V30 8025 H 740.689 -3.58513 1.27171 0
M  V30 8026 H 742.001 -4.76981 1.45913 0
M  V30 8027 H 741.155 -6.04451 -0.521903 0
M  V30 8028 H 739.894 -4.81066 -0.801682 0
M  V30 8029 H 738.899 -5.30338 1.4499 0
M  V30 8030 H 740.124 -6.56991 1.71872 0
M  V30 8031 H 738.07 -6.53895 -0.525088 0
M  V30 8032 H 737.987 -7.50484 0.911556 0
M  V30 8033 H 739.255 -7.79122 -0.242616 0
M  V30 8034 N 743.484 -0.715051 -1.40445 0
M  V30 8035 C 744.447 -0.0708726 -2.2909 0
M  V30 8036 C 745.447 0.687926 -1.45342 0
M  V30 8037 O 746.637 0.519908 -1.66261 0
M  V30 8038 C 743.769 0.909528 -3.28543 0
M  V30 8039 H 744.962 -0.851611 -2.87555 0
M  V30 8040 H 742.515 -0.479674 -1.48758 0
M  V30 8041 H 743.25 1.71734 -2.75096 0
M  V30 8042 H 743.035 0.368318 -3.90366 0
M  V30 8043 H 744.525 1.35744 -3.94922 0
M  V30 8044 N 744.962 1.50701 -0.461195 0
M  V30 8045 C 745.894 2.26124 0.374244 0
M  V30 8046 C 746.907 1.31064 0.965715 0
M  V30 8047 O 748.096 1.56647 0.855801 0
M  V30 8048 C 745.196 3.01996 1.5379 0
M  V30 8049 C 744.369 4.24336 1.06101 0
M  V30 8050 C 743.428 4.82585 2.09756 0
M  V30 8051 O 742.454 5.43775 1.68219 0
M  V30 8052 N 743.656 4.68712 3.42475 0
M  V30 8053 H 746.421 2.9846 -0.2723 0
M  V30 8054 H 743.982 1.59256 -0.291415 0
M  V30 8055 H 745.974 3.37846 2.22806 0
M  V30 8056 H 744.544 2.32521 2.08933 0
M  V30 8057 H 743.764 3.93707 0.197085 0
M  V30 8058 H 745.052 5.03678 0.720156 0
M  V30 8059 H 744.45 4.20026 3.78938 0
M  V30 8060 H 743.007 5.08858 4.07317 0
M  V30 8061 N 746.441 0.193421 1.56409 0
M  V30 8062 C 747.389 -0.744829 2.20352 0
M  V30 8063 C 748.383 -1.22104 1.17418 0
M  V30 8064 O 749.589 -1.18413 1.35567 0
M  V30 8065 H 745.964 -0.258538 0.70616 0
M  V30 8066 H 747.935 -0.181794 2.97846 0
M  V30 8067 C 746.684 -1.95453 2.87565 0
M  V30 8068 H 746.007 -1.59716 3.66512 0
M  V30 8069 H 747.447 -2.58942 3.35745 0
M  V30 8070 C 745.906 -2.79223 1.8851 0
M  V30 8071 O 746.436 -3.77093 1.38434 0
M  V30 8072 N 744.642 -2.44682 1.56777 0
M  V30 8073 H 744.189 -1.65153 1.97692 0
M  V30 8074 H 744.147 -3.01016 0.907573 0
M  V30 8075 N 747.919 -1.57396 -0.0801906 0
M  V30 8076 C 749.144 -1.91437 -0.797909 0
M  V30 8077 C 749.569 -0.789075 -1.70749 0
M  V30 8078 O 748.927 0.25857 -1.79447 0
M  V30 8079 C 748.975 -3.24402 -1.57467 0
M  V30 8080 O 748.079 -3.13043 -2.68473 0
M  V30 8081 H 747.42 -0.627109 -0.218243 0
M  V30 8082 H 749.95 -2.04537 -0.050949 0
M  V30 8083 H 749.96 -3.58072 -1.95571 0
M  V30 8084 H 748.635 -4.05884 -0.907229 0
M  V30 8085 H 747.212 -2.90915 -2.33287 0
M  V30 8086 N 749.397 0.351382 -1.53633 0
M  V30 8087 C 750.625 1.11275 -1.74429 0
M  V30 8088 C 751.04 1.82602 -0.479798 0
M  V30 8089 O 750.397 1.74074 0.548125 0
M  V30 8090 C 750.448 2.13223 -2.91921 0
M  V30 8091 O 750.169 1.44798 -4.13479 0
M  V30 8092 C 751.67 3.01797 -3.24706 0
M  V30 8093 H 748.89 0.332153 -0.583023 0
M  V30 8094 H 751.434 0.405974 -2.0043 0
M  V30 8095 H 749.589 2.79477 -2.68274 0
M  V30 8096 H 750.003 2.12839 -4.79374 0
M  V30 8097 H 751.477 3.69282 -4.10286 0
M  V30 8098 H 751.954 3.67387 -2.40673 0
M  V30 8099 H 752.56 2.41141 -3.5033 0
M  V30 8100 N 750.875 1.45233 0.611969 0
M  V30 8101 C 751.785 1.56098 1.7513 0
M  V30 8102 C 752.801 0.445646 1.68196 0
M  V30 8103 O 753.977 0.705718 1.88631 0
M  V30 8104 C 751.042 1.52052 3.11579 0
M  V30 8105 C 750.103 2.74589 3.29999 0
M  V30 8106 C 749.336 2.70726 4.59938 0
M  V30 8107 O 749.559 1.77806 5.41979 0
M  V30 8108 O 748.493 3.61864 4.80976 0
M  V30 8109 H 752.319 2.52392 1.68914 0
M  V30 8110 H 749.904 1.27695 0.775528 0
M  V30 8111 H 751.786 1.52387 3.92882 0
M  V30 8112 H 750.461 0.589085 3.18295 0
M  V30 8113 H 749.368 2.79817 2.48301 0
M  V30 8114 H 750.701 3.66843 3.28157 0
M  V30 8115 N 752.353 -0.854086 1.3245 0
M  V30 8116 C 753.283 -1.97827 1.24044 0
M  V30 8117 C 754.264 -1.69646 0.124166 0
M  V30 8118 O 755.449 -1.91687 0.31143 0
M  V30 8119 C 752.579 -3.33673 0.963324 0
M  V30 8120 C 751.533 -3.76207 2.04089 0
M  V30 8121 C 750.859 -5.0969 1.61618 0
M  V30 8122 C 752.159 -3.91612 3.45597 0
M  V30 8123 H 753.853 -2.05118 2.18099 0
M  V30 8124 H 751.399 -0.985489 1.04996 0
M  V30 8125 H 753.352 -4.11871 0.891061 0
M  V30 8126 H 752.076 -3.26597 -0.0128649 0
M  V30 8127 H 750.735 -3.0026 2.10332 0
M  V30 8128 H 750.383 -4.99072 0.627418 0
M  V30 8129 H 750.083 -5.3912 2.33717 0
M  V30 8130 H 751.607 -5.90381 1.55829 0
M  V30 8131 H 753.021 -4.60163 3.4194 0
M  V30 8132 H 751.418 -4.3246 4.16051 0
M  V30 8133 H 752.488 -2.9451 3.85217 0
M  V30 8134 N 753.831 -1.1567 -1.07043 0
M  V30 8135 C 754.794 -0.858906 -2.12498 0
M  V30 8136 C 755.794 0.142735 -1.60165 0
M  V30 8137 O 756.984 -0.0872678 -1.73981 0
M  V30 8138 C 754.116 -0.283021 -3.39723 0
M  V30 8139 H 755.309 -1.79368 -2.40348 0
M  V30 8140 H 752.862 -0.964608 -1.22984 0
M  V30 8141 H 753.597 0.659796 -3.17517 0
M  V30 8142 H 753.382 -1.00467 -3.7901 0
M  V30 8143 H 754.872 -0.0923543 -4.17498 0
M  V30 8144 N 755.309 1.25446 -0.953992 0
M  V30 8145 C 756.272 2.24156 -0.478179 0
M  V30 8146 C 757.272 1.55278 0.417776 0
M  V30 8147 O 758.462 1.72866 0.215155 0
M  V30 8148 C 755.594 3.39495 0.309202 0
M  V30 8149 H 756.787 2.67764 -1.35064 0
M  V30 8150 H 754.34 1.37822 -0.737206 0
M  V30 8151 H 755.075 3.01307 1.19936 0
M  V30 8152 H 754.86 3.90679 -0.333562 0
M  V30 8153 H 756.35 4.12796 0.631594 0
M  V30 8154 N 756.787 0.722489 1.40064 0
M  V30 8155 C 757.697 0.0755984 2.34478 0
M  V30 8156 C 758.713 -0.736046 1.57665 0
M  V30 8157 O 759.889 -0.667407 1.9002 0
M  V30 8158 C 756.954 -0.830075 3.36616 0
M  V30 8159 C 756.015 -0.00759884 4.29299 0
M  V30 8160 C 755.248 -0.870139 5.26559 0
M  V30 8161 O 755.471 -2.10921 5.2997 0
M  V30 8162 O 754.405 -0.305454 6.01124 0
M  V30 8163 H 758.231 0.854545 2.9143 0
M  V30 8164 H 755.816 0.483032 1.41376 0
M  V30 8165 H 757.698 -1.34864 3.99236 0
M  V30 8166 H 756.373 -1.58805 2.82069 0
M  V30 8167 H 755.28 0.556199 3.69942 0
M  V30 8168 H 756.613 0.712312 4.87018 0
M  V30 8169 N 758.265 -1.50454 0.469181 0
M  V30 8170 C 759.175 -2.32248 -0.331349 0
M  V30 8171 C 760.191 -1.42548 -0.997807 0
M  V30 8172 O 761.367 -1.75602 -0.9862 0
M  V30 8173 C 758.432 -3.17171 -1.40012 0
M  V30 8174 C 757.493 -4.2269 -0.750463 0
M  V30 8175 C 756.726 -5.03554 -1.76831 0
M  V30 8176 O 756.949 -4.85469 -2.99459 0
M  V30 8177 O 755.883 -5.86767 -1.3412 0
M  V30 8178 H 759.709 -3.01821 0.337279 0
M  V30 8179 H 757.294 -1.47602 0.231066 0
M  V30 8180 H 759.176 -3.69871 -2.01924 0
M  V30 8181 H 757.851 -2.50328 -2.05226 0
M  V30 8182 H 756.758 -3.73986 -0.0924446 0
M  V30 8183 H 758.091 -4.91997 -0.14131 0
M  V30 8184 N 759.743 -0.201713 -1.56304 0
M  V30 8185 C 760.973 0.440084 -2.01858 0
M  V30 8186 C 761.381 1.55279 -1.08098 0
M  V30 8187 O 760.724 1.83529 -0.0792216 0
M  V30 8188 C 760.786 1.05091 -3.43797 0
M  V30 8189 C 760.45 0.0761208 -4.56937 0
M  V30 8190 C 761.447 -0.716951 -5.14933 0
M  V30 8191 C 759.132 -0.0368815 -5.02286 0
M  V30 8192 C 761.126 -1.60993 -6.16733 0
M  V30 8193 C 758.813 -0.933409 -6.03929 0
M  V30 8194 C 759.811 -1.71849 -6.61027 0
M  V30 8195 O 759.499 -2.59998 -7.60695 0
M  V30 8196 H 759.231 0.114139 -0.666294 0
M  V30 8197 H 761.785 -0.309672 -2.03052 0
M  V30 8198 H 760.015 1.84938 -3.3961 0
M  V30 8199 H 761.704 1.59804 -3.73118 0
M  V30 8200 H 762.47 -0.63999 -4.80759 0
M  V30 8201 H 758.349 0.564034 -4.57537 0
M  V30 8202 H 761.893 -2.22315 -6.61227 0
M  V30 8203 H 757.79 -1.01146 -6.37526 0
M  V30 8204 H 758.558 -2.53851 -7.7814 0
M  V30 8205 N 761.222 1.57436 0.0718424 0
M  V30 8206 C 762.45 1.91474 0.783932 0
M  V30 8207 C 762.865 0.797669 1.71122 0
M  V30 8208 O 762.222 -0.228989 1.81058 0
M  V30 8209 C 762.273 3.25259 1.57761 0
M  V30 8210 O 761.994 4.3267 0.687596 0
M  V30 8211 C 763.495 3.7331 2.3907 0
M  V30 8212 H 760.715 0.632901 0.222885 0
M  V30 8213 H 763.259 2.04457 0.0421262 0
M  V30 8214 H 761.414 3.13804 2.27169 0
M  V30 8215 H 761.828 5.09641 1.23962 0
M  V30 8216 H 763.302 4.69551 2.90216 0
M  V30 8217 H 763.779 3.02318 3.18591 0
M  V30 8218 H 764.385 3.8771 1.74818 0
M  V30 8219 N 762.7 -0.34323 1.53817 0
M  V30 8220 C 763.63 -1.42709 1.84814 0
M  V30 8221 C 764.611 -1.5488 0.703297 0
M  V30 8222 O 765.796 -1.69082 0.955237 0
M  V30 8223 C 762.926 -2.79756 2.05801 0
M  V30 8224 C 761.88 -2.82392 3.21619 0
M  V30 8225 C 761.206 -4.22326 3.2794 0
M  V30 8226 C 762.506 -2.479 4.59721 0
M  V30 8227 H 764.2 -1.17018 2.75585 0
M  V30 8228 H 761.746 -0.561485 1.32602 0
M  V30 8229 H 763.699 -3.55627 2.26069 0
M  V30 8230 H 762.423 -3.06883 1.11761 0
M  V30 8231 H 761.082 -2.08974 3.01207 0
M  V30 8232 H 760.73 -4.46564 2.31494 0
M  V30 8233 H 760.43 -4.25001 4.05768 0
M  V30 8234 H 761.954 -5.00039 3.50419 0
M  V30 8235 H 763.368 -3.13484 4.80001 0
M  V30 8236 H 761.765 -2.61857 5.39954 0
M  V30 8237 H 762.835 -1.43087 4.63308 0
M  V30 8238 N 764.178 -1.45556 -0.604258 0
M  V30 8239 C 765.111 -1.48975 -1.72863 0
M  V30 8240 C 766.089 -0.345803 -1.5888 0
M  V30 8241 O 767.273 -0.546796 -1.80395 0
M  V30 8242 C 764.4 -1.34794 -3.10722 0
M  V30 8243 C 763.446 -2.53096 -3.43285 0
M  V30 8244 S 764.279 -4.15551 -3.37754 0
M  V30 8245 C 765.435 -4.03842 -4.78187 0
M  V30 8246 H 765.668 -2.44108 -1.69701 0
M  V30 8247 H 763.201 -1.33179 -0.781194 0
M  V30 8248 H 765.159 -1.273 -3.90263 0
M  V30 8249 H 763.82 -0.411254 -3.11396 0
M  V30 8250 H 763.013 -2.39109 -4.4367 0
M  V30 8251 H 762.615 -2.57469 -2.71267 0
M  V30 8252 H 764.907 -3.69191 -5.6807 0
M  V30 8253 H 765.85 -5.0415 -4.97231 0
M  V30 8254 H 766.258 -3.35443 -4.54025 0
M  V30 8255 N 765.656 0.84705 -1.32902 0
M  V30 8256 C 766.881 1.63925 -1.27056 0
M  V30 8257 C 767.306 1.87443 0.157136 0
M  V30 8258 O 766.664 1.43266 1.11106 0
M  V30 8259 C 766.712 2.97134 -2.04313 0
M  V30 8260 O 765.816 3.88049 -1.39614 0
M  V30 8261 H 765.157 0.499477 -0.437514 0
M  V30 8262 H 767.687 1.05443 -1.75336 0
M  V30 8263 H 767.697 3.46896 -2.14772 0
M  V30 8264 H 766.372 2.79339 -3.08128 0
M  V30 8265 H 764.949 3.46525 -1.3775 0
M  V30 8266 N 767.134 1.16236 1.06428 0
M  V30 8267 C 768.383 0.937523 1.78587 0
M  V30 8268 C 768.696 -0.536 1.88113 0
M  V30 8269 O 769.902 -0.878697 2.56887 0
M  V30 8270 C 768.358 1.62808 3.2097 0
M  V30 8271 C 767.966 3.13927 3.19615 0
M  V30 8272 C 769.71 1.48515 3.97673 0
M  V30 8273 C 767.617 3.75727 4.56709 0
M  V30 8274 H 766.547 0.347125 0.669343 0
M  V30 8275 H 769.198 1.39353 1.19385 0
M  V30 8276 H 767.58 1.09977 3.80422 0
M  V30 8277 H 768.754 3.7359 2.69753 0
M  V30 8278 H 767.069 3.28089 2.56411 0
M  V30 8279 H 769.666 1.92069 4.99013 0
M  V30 8280 H 770.009 0.433913 4.14032 0
M  V30 8281 H 770.542 1.98494 3.44739 0
M  V30 8282 H 767.281 4.80793 4.45554 0
M  V30 8283 H 766.801 3.20849 5.0677 0
M  V30 8284 H 768.48 3.77203 5.25668 0
M  V30 8285 N 768.612 -1.24939 0.960631 0
M  V30 8286 C 769.889 -1.88118 0.535807 0
M  V30 8287 C 770.269 -1.86605 -0.987009 0
M  V30 8288 O 769.617 -1.33375 -1.85536 0
M  V30 8289 C 769.827 -3.30565 1.11927 0
M  V30 8290 C 771.175 -4.07296 1.19981 0
M  V30 8291 O 772.199 -3.39709 1.07126 0
M  V30 8292 O 771.058 -5.28206 1.40218 0
M  V30 8293 H 768.152 -0.807698 0.177631 0
M  V30 8294 H 770.698 -1.32964 1.05445 0
M  V30 8295 H 769.47 -3.26128 2.16231 0
M  V30 8296 H 769.093 -3.93284 0.584245 0
M  V30 8297 N 770.09 -0.729906 -1.39679 0
M  V30 8298 C 771.318 -0.285709 -2.04918 0
M  V30 8299 C 771.733 1.07765 -1.55023 0
M  V30 8300 O 771.09 1.67999 -0.712923 0
M  V30 8301 C 771.141 -0.272793 -3.60469 0
M  V30 8302 O 770.862 -1.58233 -4.08527 0
M  V30 8303 C 772.363 0.188199 -4.429 0
M  V30 8304 H 769.583 -0.125758 -0.65911 0
M  V30 8305 H 772.127 -0.992129 -1.78821 0
M  V30 8306 H 770.282 0.384699 -3.85485 0
M  V30 8307 H 770.696 -1.49245 -5.02818 0
M  V30 8308 H 772.17 0.14608 -5.51807 0
M  V30 8309 H 772.647 1.2326 -4.21549 0
M  V30 8310 H 773.253 -0.439541 -4.23023 0
M  V30 8311 N 771.568 1.50203 -0.477153 0
M  V30 8312 C 772.817 2.01551 0.0774548 0
M  V30 8313 C 773.13 1.36359 1.40234 0
M  V30 8314 O 774.336 1.78898 2.04225 0
M  V30 8315 C 772.792 3.59406 0.188539 0
M  V30 8316 C 772.4 4.3356 -1.12828 0
M  V30 8317 C 774.144 4.18776 0.694782 0
M  V30 8318 C 772.051 5.83213 -0.98066 0
M  V30 8319 H 770.981 0.75329 0.0327212 0
M  V30 8320 H 773.632 1.72959 -0.612969 0
M  V30 8321 H 772.014 3.84611 0.942881 0
M  V30 8322 H 773.188 4.20074 -1.89405 0
M  V30 8323 H 771.503 3.85827 -1.5661 0
M  V30 8324 H 774.1 5.28338 0.822356 0
M  V30 8325 H 774.443 3.80557 1.68766 0
M  V30 8326 H 774.976 3.978 -0.00234519 0
M  V30 8327 H 771.715 6.25914 -1.94709 0
M  V30 8328 H 771.235 5.99256 -0.255375 0
M  V30 8329 H 772.914 6.4373 -0.649717 0
M  V30 8330 N 773.046 0.209999 1.56195 0
M  V30 8331 C 774.295 -0.425106 1.97169 0
M  V30 8332 C 774.608 -1.61718 1.10031 0
M  V30 8333 O 775.814 -2.32105 1.40853 0
M  V30 8334 C 774.27 -0.80771 3.50719 0
M  V30 8335 C 773.878 0.360902 4.46544 0
M  V30 8336 C 775.622 -1.40906 4.00432 0
M  V30 8337 C 773.529 -0.0434919 5.91384 0
M  V30 8338 H 772.459 -0.162598 0.736259 0
M  V30 8339 H 775.11 0.304382 1.80958 0
M  V30 8340 H 773.492 -1.59429 3.62489 0
M  V30 8341 H 774.666 1.13846 4.46515 0
M  V30 8342 H 772.981 0.874729 4.07109 0
M  V30 8343 H 775.578 -1.72433 5.06133 0
M  V30 8344 H 775.921 -2.32081 3.45607 0
M  V30 8345 H 776.454 -0.686154 3.91838 0
M  V30 8346 H 773.193 0.834448 6.50167 0
M  V30 8347 H 772.713 -0.785598 5.94633 0
M  V30 8348 H 774.392 -0.474176 6.4526 0
M  V30 8349 N 774.524 -1.57472 -0.0634922 0
M  V30 8350 C 775.472 -2.05307 -1.09323 0
M  V30 8351 C 776.466 -0.959995 -1.39572 0
M  V30 8352 O 777.672 -1.14507 -1.38882 0
M  V30 8353 H 774.047 -0.65472 -0.369927 0
M  V30 8354 H 776.018 -2.90925 -0.663707 0
M  V30 8355 C 774.767 -2.51954 -2.39613 0
M  V30 8356 H 774.09 -3.35662 -2.1719 0
M  V30 8357 H 775.53 -2.89169 -3.10092 0
M  V30 8358 C 773.989 -1.40596 -3.06161 0
M  V30 8359 O 774.519 -0.752722 -3.94585 0
M  V30 8360 N 772.725 -1.14902 -2.66919 0
M  V30 8361 H 772.272 -1.68205 -1.95102 0
M  V30 8362 H 772.23 -0.406006 -3.11767 0
M  V30 8363 N 776.003 0.335068 -1.53997 0
M  V30 8364 C 777.251 1.07223 -1.71312 0
M  V30 8365 C 777.572 1.88911 -0.483486 0
M  V30 8366 O 776.842 1.89344 0.50257 0
M  V30 8367 H 775.422 0.398846 -0.63161 0
M  V30 8368 H 778.084 0.374288 -1.91272 0
M  V30 8369 H 777.18 1.7448 -2.58772 0
M  V30 8370 N 777.481 1.45874 0.596531 0
M  V30 8371 C 778.428 1.55389 1.70655 0
M  V30 8372 C 779.398 0.399036 1.61236 0
M  V30 8373 O 780.583 0.61396 1.80652 0
M  V30 8374 C 777.723 1.53705 3.0898 0
M  V30 8375 C 776.836 2.79823 3.29125 0
M  V30 8376 C 775.971 2.69735 4.5762 0
M  V30 8377 C 775.01 3.90856 4.71061 0
M  V30 8378 N 774.147 3.79237 5.90867 0
M  V30 8379 H 778.987 2.50211 1.61859 0
M  V30 8380 H 776.524 1.24146 0.789069 0
M  V30 8381 H 778.482 1.50715 3.89026 0
M  V30 8382 H 777.112 0.624247 3.16706 0
M  V30 8383 H 776.164 2.92852 2.42779 0
M  V30 8384 H 777.476 3.69628 3.34927 0
M  V30 8385 H 776.63 2.64773 5.45875 0
M  V30 8386 H 775.369 1.77547 4.54234 0
M  V30 8387 H 774.374 3.96164 3.81227 0
M  V30 8388 H 775.599 4.84124 4.76236 0
M  V30 8389 H 773.545 2.89825 5.88504 0
M  V30 8390 H 773.462 4.62686 5.97877 0
M  V30 8391 H 774.73 3.78227 6.8159 0
M  V30 8392 N 778.959 -0.83999 1.33349 0
M  V30 8393 C 779.869 -1.98182 1.25543 0
M  V30 8394 C 780.885 -1.73204 0.166208 0
M  V30 8395 O 782.061 -1.97596 0.389589 0
M  V30 8396 C 779.126 -3.32157 0.993614 0
M  V30 8397 C 778.187 -3.70258 2.17273 0
M  V30 8398 C 777.42 -4.9784 1.92331 0
M  V30 8399 O 777.643 -5.63679 0.873074 0
M  V30 8400 O 776.577 -5.33418 2.78835 0
M  V30 8401 H 780.403 -2.07708 2.21565 0
M  V30 8402 H 777.988 -0.972852 1.13384 0
M  V30 8403 H 779.87 -4.12433 0.864711 0
M  V30 8404 H 778.545 -3.23637 0.0636596 0
M  V30 8405 H 777.452 -2.90497 2.35716 0
M  V30 8406 H 778.785 -3.83442 3.08598 0
M  V30 8407 N 780.437 -1.16799 -1.0581 0
M  V30 8408 C 781.685 -0.950642 -1.78346 0
M  V30 8409 C 782.006 0.522524 -1.87869 0
M  V30 8410 O 781.276 1.3795 -1.39092 0
M  V30 8411 H 779.856 -0.348736 -0.6606 0
M  V30 8412 H 782.518 -1.47158 -1.27791 0
M  V30 8413 H 781.614 -1.37359 -2.80248 0
M  V30 8414 N 781.915 1.24427 -0.967243 0
M  V30 8415 C 783.161 1.92772 -0.629812 0
M  V30 8416 C 783.494 1.75436 0.832827 0
M  V30 8417 O 782.769 1.10716 1.59913 0
M  V30 8418 C 783.052 3.45798 -1.00477 0
M  V30 8419 C 782.905 3.72304 -2.52407 0
M  V30 8420 C 784.224 4.36787 -0.538999 0
M  V30 8421 H 781.343 0.700099 -0.230282 0
M  V30 8422 H 783.985 1.46805 -1.20616 0
M  V30 8423 H 782.135 3.8508 -0.514336 0
M  V30 8424 H 783.807 3.42584 -3.08924 0
M  V30 8425 H 782.05 3.17472 -2.95625 0
M  V30 8426 H 782.721 4.7937 -2.73693 0
M  V30 8427 H 785.197 4.04877 -0.959874 0
M  V30 8428 H 784.073 5.4259 -0.829926 0
M  V30 8429 H 784.334 4.38527 0.560923 0
M  V30 8430 N 783.393 0.737304 1.3929 0
M  V30 8431 C 784.64 0.286257 2.00467 0
M  V30 8432 C 784.968 -1.1272 1.58507 0
M  V30 8433 O 784.223 -1.7832 0.806257 0
M  V30 8434 C 784.522 0.338438 3.55794 0
M  V30 8435 C 784.188 1.70524 4.17411 0
M  V30 8436 C 782.85 2.07934 4.33955 0
M  V30 8437 C 785.202 2.60256 4.51571 0
M  V30 8438 C 782.53 3.34578 4.81948 0
M  V30 8439 C 784.882 3.86275 5.00974 0
M  V30 8440 C 783.546 4.23774 5.15725 0
M  V30 8441 H 782.816 0.104749 0.733559 0
M  V30 8442 H 785.463 0.944598 1.66582 0
M  V30 8443 H 783.768 -0.403478 3.89717 0
M  V30 8444 H 785.465 -0.0287255 4.0099 0
M  V30 8445 H 782.055 1.40439 4.04938 0
M  V30 8446 H 786.239 2.32624 4.38406 0
M  V30 8447 H 781.495 3.63572 4.91554 0
M  V30 8448 H 785.669 4.5596 5.26378 0
M  V30 8449 H 783.296 5.21972 5.52674 0
M  V30 8450 N 784.871 -1.49948 0.485112 0
M  V30 8451 C 786.282 -1.8667 0.0334041 0
M  V30 8452 C 786.633 -1.3988 -1.37579 0
M  V30 8453 O 785.758 -0.769788 -2.02245 0
M  V30 8454 C 786.353 -3.38757 0.0538426 0
M  V30 8455 C 784.912 -3.74839 -0.342453 0
M  V30 8456 C 784.059 -2.73894 0.433281 0
M  V30 8457 H 787.01 -1.42492 0.698699 0
M  V30 8458 H 787.031 -3.73132 -0.745146 0
M  V30 8459 H 786.543 -3.72782 1.07959 0
M  V30 8460 H 784.644 -3.46419 -1.37203 0
M  V30 8461 H 784.757 -4.79088 -0.0340503 0
M  V30 8462 H 783.121 -2.54441 -0.114849 0
M  V30 8463 H 783.904 -3.10763 1.45881 0
M  V30 8464 N 786.349 -0.21828 -1.56081 0
M  V30 8465 C 787.597 0.413488 -1.97825 0
M  V30 8466 C 787.918 1.60527 -1.10707 0
M  V30 8467 O 787.188 1.9504 -0.183378 0
M  V30 8468 H 785.768 0.155757 -0.730581 0
M  V30 8469 H 788.43 -0.310413 -1.92412 0
M  V30 8470 H 787.526 0.742024 -3.03151 0
M  V30 8471 N 787.827 1.57504 0.0551401 0
M  V30 8472 C 788.757 2.07864 1.06372 0
M  V30 8473 C 789.738 0.975565 1.39344 0
M  V30 8474 O 790.923 1.24929 1.48682 0
M  V30 8475 C 788.053 2.53643 2.3724 0
M  V30 8476 C 787.007 3.67978 2.18578 0
M  V30 8477 C 786.333 3.9987 3.54976 0
M  V30 8478 C 787.633 4.97405 1.59329 0
M  V30 8479 H 789.327 2.92379 0.644595 0
M  V30 8480 H 786.873 1.40654 0.308619 0
M  V30 8481 H 788.826 2.8749 3.08103 0
M  V30 8482 H 787.55 1.66177 2.81163 0
M  V30 8483 H 786.209 3.3444 1.50152 0
M  V30 8484 H 785.857 3.0951 3.965 0
M  V30 8485 H 785.557 4.76867 3.43324 0
M  V30 8486 H 787.081 4.36228 4.27244 0
M  V30 8487 H 788.495 5.29375 2.20078 0
M  V30 8488 H 786.892 5.78837 1.58327 0
M  V30 8489 H 787.962 4.81697 0.55638 0
M  V30 8490 N 789.305 -0.326896 1.54172 0
M  V30 8491 C 790.554 -1.06274 1.71431 0
M  V30 8492 C 790.867 -1.89282 0.493123 0
M  V30 8493 O 792.073 -2.65933 0.54699 0
M  V30 8494 C 790.529 -1.93892 3.03206 0
M  V30 8495 C 790.137 -1.16011 4.32719 0
M  V30 8496 C 791.881 -2.67232 3.29829 0
M  V30 8497 C 789.788 -2.02755 5.55558 0
M  V30 8498 H 788.718 -0.400475 0.638855 0
M  V30 8499 H 791.369 -0.321184 1.80667 0
M  V30 8500 H 789.751 -2.71933 2.87869 0
M  V30 8501 H 790.925 -0.427643 4.58811 0
M  V30 8502 H 789.24 -0.54367 4.12836 0
M  V30 8503 H 791.837 -3.32434 4.18798 0
M  V30 8504 H 792.18 -3.34692 2.47562 0
M  V30 8505 H 792.713 -1.96255 3.46018 0
M  V30 8506 H 789.452 -1.3981 6.40417 0
M  V30 8507 H 788.972 -2.73745 5.33689 0
M  V30 8508 H 790.651 -2.61419 5.91835 0
M  V30 8509 N 790.784 -1.46188 -0.588786 0
M  V30 8510 C 792.195 -1.45421 -1.17088 0
M  V30 8511 C 792.546 -0.191801 -1.9526 0
M  V30 8512 O 791.671 0.705497 -2.04577 0
M  V30 8513 C 792.266 -2.63467 -2.13004 0
M  V30 8514 C 790.825 -2.6576 -2.6655 0
M  V30 8515 C 789.972 -2.38002 -1.42304 0
M  V30 8516 H 792.923 -1.54156 -0.377052 0
M  V30 8517 H 792.944 -2.38638 -2.96365 0
M  V30 8518 H 792.456 -3.55331 -1.56081 0
M  V30 8519 H 790.557 -1.77952 -3.27359 0
M  V30 8520 H 790.67 -3.65545 -3.09699 0
M  V30 8521 H 789.034 -1.87936 -1.71907 0
M  V30 8522 H 789.817 -3.32035 -0.872209 0
M  V30 8523 N 792.262 0.832906 -1.33792 0
M  V30 8524 C 793.511 1.58351 -1.24932 0
M  V30 8525 C 793.824 1.94754 0.181703 0
M  V30 8526 O 795.03 2.6865 0.392375 0
M  V30 8527 C 793.486 2.85643 -2.18943 0
M  V30 8528 C 793.094 2.56581 -3.67247 0
M  V30 8529 C 794.838 3.63667 -2.18968 0
M  V30 8530 C 792.745 3.80006 -4.53155 0
M  V30 8531 H 791.675 0.594278 -0.464058 0
M  V30 8532 H 794.326 0.91786 -1.58895 0
M  V30 8533 H 792.708 3.53781 -1.77919 0
M  V30 8534 H 793.882 1.96617 -4.16747 0
M  V30 8535 H 792.197 1.91851 -3.6957 0
M  V30 8536 H 794.794 4.55293 -2.80379 0
M  V30 8537 H 795.137 3.99039 -1.18631 0
M  V30 8538 H 795.67 3.0246 -2.58384 0
M  V30 8539 H 792.409 3.4976 -5.5439 0
M  V30 8540 H 791.929 4.39288 -4.08395 0
M  V30 8541 H 793.608 4.47523 -4.6726 0
M  V30 8542 N 793.74 1.17359 1.05189 0
M  V30 8543 C 794.67 0.91365 2.14883 0
M  V30 8544 C 795.651 -0.144365 1.69486 0
M  V30 8545 O 796.836 0.00587861 1.94199 0
M  V30 8546 C 793.966 0.426196 3.44675 0
M  V30 8547 C 792.92 1.4234 4.03638 0
M  V30 8548 C 792.246 0.793902 5.28773 0
M  V30 8549 C 793.546 2.7966 4.41121 0
M  V30 8550 H 795.24 1.831 2.36885 0
M  V30 8551 H 792.786 0.881781 1.13845 0
M  V30 8552 H 794.739 0.231767 4.20762 0
M  V30 8553 H 793.463 -0.526693 3.22325 0
M  V30 8554 H 792.122 1.60457 3.2962 0
M  V30 8555 H 791.77 -0.165824 5.02727 0
M  V30 8556 H 791.47 1.45959 5.69183 0
M  V30 8557 H 792.994 0.609747 6.07548 0
M  V30 8558 H 794.408 2.6526 5.08242 0
M  V30 8559 H 792.805 3.42807 4.92548 0
M  V30 8560 H 793.875 3.34068 3.51464 0
M  V30 8561 N 795.218 -1.23913 0.973828 0
M  V30 8562 C 796.166 -2.27141 0.50098 0
M  V30 8563 C 797.16 -1.63623 -0.438631 0
M  V30 8564 O 798.366 -1.77253 -0.313247 0
M  V30 8565 H 794.741 -0.73817 0.14356 0
M  V30 8566 H 796.712 -2.64392 1.38346 0
M  V30 8567 C 795.461 -3.47195 -0.187377 0
M  V30 8568 H 794.784 -3.96318 0.526535 0
M  V30 8569 H 796.224 -4.21252 -0.481962 0
M  V30 8570 C 794.683 -3.05678 -1.41642 0
M  V30 8571 O 795.213 -3.1338 -2.51309 0
M  V30 8572 N 793.419 -2.60661 -1.28469 0
M  V30 8573 H 792.966 -2.54594 -0.39238 0
M  V30 8574 H 792.924 -2.33249 -2.10813 0
M  V30 8575 N 796.696 -0.74468 -1.38897 0
M  V30 8576 C 797.921 -0.306119 -2.05128 0
M  V30 8577 C 798.346 1.0541 -1.55789 0
M  V30 8578 O 797.704 1.66993 -0.705909 0
M  V30 8579 C 797.752 -0.328195 -3.59103 0
M  V30 8580 O 796.856 0.680876 -4.06741 0
M  V30 8581 H 796.197 -0.137209 -0.649669 0
M  V30 8582 H 798.727 -1.01331 -1.77745 0
M  V30 8583 H 798.737 -0.175956 -4.0762 0
M  V30 8584 H 797.412 -1.32067 -3.94374 0
M  V30 8585 H 795.989 0.49398 -3.69614 0
M  V30 8586 N 798.174 1.49689 -0.493057 0
M  V30 8587 C 799.404 2.06536 0.0512397 0
M  V30 8588 C 799.812 1.35459 1.32089 0
M  V30 8589 O 799.155 0.424145 1.78736 0
M  V30 8590 C 799.217 3.57452 0.383231 0
M  V30 8591 C 798.881 4.50163 -0.787555 0
M  V30 8592 C 799.878 4.92151 -1.67582 0
M  V30 8593 C 797.563 4.92565 -0.984109 0
M  V30 8594 C 799.557 5.7527 -2.74487 0
M  V30 8595 C 797.244 5.75463 -2.05634 0
M  V30 8596 C 798.242 6.16719 -2.93507 0
M  V30 8597 O 797.93 6.97961 -3.98881 0
M  V30 8598 H 797.662 0.675862 -0.0136516 0
M  V30 8599 H 800.216 1.9356 -0.687298 0
M  V30 8600 H 798.446 3.68408 1.17526 0
M  V30 8601 H 800.135 3.96572 0.8652 0
M  V30 8602 H 800.901 4.60043 -1.53575 0
M  V30 8603 H 796.78 4.5996 -0.309541 0
M  V30 8604 H 800.324 6.07392 -3.43104 0
M  V30 8605 H 796.221 6.06983 -2.19639 0
M  V30 8606 H 796.989 7.16253 -3.96137 0
M  V30 8607 N 799.652 0.226554 1.55963 0
M  V30 8608 C 800.582 -0.676079 2.23498 0
M  V30 8609 C 801.563 -1.19718 1.20837 0
M  V30 8610 O 802.748 -1.24027 1.49436 0
M  V30 8611 C 799.878 -1.88217 2.91876 0
M  V30 8612 C 798.832 -1.4947 4.01052 0
M  V30 8613 C 798.158 -2.77997 4.56751 0
M  V30 8614 C 799.458 -0.680951 5.17842 0
M  V30 8615 H 801.152 -0.112989 2.99187 0
M  V30 8616 H 798.698 -0.0529046 1.43903 0
M  V30 8617 H 800.651 -2.51911 3.37815 0
M  V30 8618 H 799.375 -2.47031 2.13643 0
M  V30 8619 H 798.034 -0.881199 3.55852 0
M  V30 8620 H 797.682 -3.34966 3.75243 0
M  V30 8621 H 797.382 -2.52803 5.30438 0
M  V30 8622 H 798.906 -3.42625 5.05411 0
M  V30 8623 H 800.32 -1.22171 5.60131 0
M  V30 8624 H 798.717 -0.525898 5.97791 0
M  V30 8625 H 799.787 0.311346 4.83899 0
M  V30 8626 N 801.13 -1.57531 -0.0467866 0
M  V30 8627 C 802.04 -2.08768 -1.07018 0
M  V30 8628 C 803.056 -1.02245 -1.40791 0
M  V30 8629 O 804.232 -1.33873 -1.50466 0
M  V30 8630 C 801.297 -2.54221 -2.35738 0
M  V30 8631 C 800.358 -3.75152 -2.08709 0
M  V30 8632 C 799.591 -4.18428 -3.31291 0
M  V30 8633 O 799.814 -3.61365 -4.4133 0
M  V30 8634 O 798.748 -5.11018 -3.18032 0
M  V30 8635 H 802.574 -2.96334 -0.664812 0
M  V30 8636 H 800.159 -1.47074 -0.262605 0
M  V30 8637 H 802.041 -2.83866 -3.11445 0
M  V30 8638 H 800.716 -1.69774 -2.75605 0
M  V30 8639 H 799.623 -3.50553 -1.30627 0
M  V30 8640 H 800.956 -4.60528 -1.73708 0
M  V30 8641 N 802.608 0.318715 -1.54344 0
M  V30 8642 C 803.556 1.41254 -1.84798 0
M  V30 8643 C 804.55 1.53325 -0.720256 0
M  V30 8644 O 805.756 1.55653 -0.903992 0
M  V30 8645 H 802.131 0.471468 -0.585851 0
M  V30 8646 H 804.102 1.12795 -2.7626 0
M  V30 8647 C 802.851 2.77395 -2.09637 0
M  V30 8648 H 802.174 2.68881 -2.95876 0
M  V30 8649 H 803.614 3.52987 -2.34896 0
M  V30 8650 C 802.073 3.24948 -0.889398 0
M  V30 8651 O 802.603 4.01573 -0.101063 0
M  V30 8652 N 800.809 2.82051 -0.699684 0
M  V30 8653 H 800.356 2.19858 -1.3424 0
M  V30 8654 H 800.314 3.1422 0.106368 0
M  V30 8655 N 804.086 1.46499 0.581025 0
M  V30 8656 C 805.019 1.51706 1.70472 0
M  V30 8657 C 805.997 0.371036 1.5831 0
M  V30 8658 O 807.181 0.575426 1.79502 0
M  V30 8659 C 804.308 1.3972 3.08538 0
M  V30 8660 C 803.354 2.58525 3.39215 0
M  V30 8661 S 804.187 4.20872 3.311 0
M  V30 8662 C 805.343 4.11398 4.71702 0
M  V30 8663 H 805.576 2.46777 1.65796 0
M  V30 8664 H 803.109 1.34405 0.759908 0
M  V30 8665 H 805.067 1.33492 3.88188 0
M  V30 8666 H 803.728 0.460742 3.10702 0
M  V30 8667 H 802.921 2.46137 4.3981 0
M  V30 8668 H 802.523 2.61752 2.67136 0
M  V30 8669 H 804.815 3.78182 5.62125 0
M  V30 8670 H 805.758 5.11997 4.89147 0
M  V30 8671 H 806.166 3.42624 4.48631 0
M  V30 8672 N 805.565 -0.825799 1.34232 0
M  V30 8673 C 806.475 -1.9684 1.27638 0
M  V30 8674 C 807.491 -1.73018 0.184569 0
M  V30 8675 O 808.667 -1.97172 0.410525 0
M  V30 8676 C 805.732 -3.31084 1.02879 0
M  V30 8677 C 804.793 -3.67933 2.21188 0
M  V30 8678 C 804.026 -4.95772 1.976 0
M  V30 8679 O 804.249 -5.62721 0.93281 0
M  V30 8680 O 803.183 -5.30431 2.84477 0
M  V30 8681 H 807.009 -2.05346 2.23756 0
M  V30 8682 H 804.594 -0.960772 1.1441 0
M  V30 8683 H 806.476 -4.11492 0.908406 0
M  V30 8684 H 805.151 -3.23552 0.0979821 0
M  V30 8685 H 804.058 -2.87981 2.38784 0
M  V30 8686 H 805.391 -3.80147 3.12648 0
M  V30 8687 N 807.043 -1.17915 -1.04565 0
M  V30 8688 C 808.289 -0.972863 -1.77942 0
M  V30 8689 C 808.622 0.496753 -1.87739 0
M  V30 8690 O 807.897 1.3688 -1.38181 0
M  V30 8691 C 808.18 -1.62227 -3.21488 0
M  V30 8692 C 808.033 -3.16441 -3.19664 0
M  V30 8693 C 809.352 -1.33137 -4.19479 0
M  V30 8694 H 806.471 -0.354843 -0.645953 0
M  V30 8695 H 809.113 -1.45508 -1.22178 0
M  V30 8696 H 807.263 -1.21224 -3.69103 0
M  V30 8697 H 808.935 -3.66544 -2.80077 0
M  V30 8698 H 807.178 -3.48863 -2.57832 0
M  V30 8699 H 807.849 -3.57012 -4.21006 0
M  V30 8700 H 810.325 -1.68654 -3.80388 0
M  V30 8701 H 809.201 -1.81151 -5.18146 0
M  V30 8702 H 809.462 -0.253319 -4.41374 0
M  V30 8703 N 808.521 1.23394 -0.980386 0
M  V30 8704 C 809.798 1.87242 -0.565667 0
M  V30 8705 C 810.178 1.88151 0.957197 0
M  V30 8706 O 809.526 1.36309 1.8339 0
M  V30 8707 C 809.736 3.28743 -1.17172 0
M  V30 8708 C 811.084 4.05335 -1.26446 0
M  V30 8709 O 812.108 3.37962 -1.12517 0
M  V30 8710 O 810.967 5.25908 -1.48604 0
M  V30 8711 H 808.061 0.80477 -0.190459 0
M  V30 8712 H 810.607 1.3127 -1.07547 0
M  V30 8713 H 809.379 3.22647 -2.21392 0
M  V30 8714 H 809.002 3.92305 -0.646739 0
M  V30 8715 N 809.999 0.752036 1.385 0
M  V30 8716 C 811.245 0.307958 2.00448 0
M  V30 8717 C 811.578 -1.10702 1.59558 0
M  V30 8718 O 810.853 -1.75788 0.832391 0
M  V30 8719 C 811.136 0.429092 3.57534 0
M  V30 8720 C 810.989 1.88507 4.08393 0
M  V30 8721 C 812.308 -0.178442 4.39738 0
M  V30 8722 H 809.427 0.113373 0.728228 0
M  V30 8723 H 812.069 0.951389 1.64465 0
M  V30 8724 H 810.219 -0.118695 3.88319 0
M  V30 8725 H 811.891 2.49104 3.88259 0
M  V30 8726 H 810.134 2.40066 3.61318 0
M  V30 8727 H 810.805 1.92099 5.17496 0
M  V30 8728 H 813.281 0.28872 4.15097 0
M  V30 8729 H 812.157 -0.0634349 5.48863 0
M  V30 8730 H 812.418 -1.26655 4.23569 0
M  V30 8731 N 811.477 -1.49425 0.500989 0
M  V30 8732 C 812.754 -1.9531 -0.106551 0
M  V30 8733 C 813.134 -1.44248 -1.54129 0
M  V30 8734 O 812.482 -0.656237 -2.18874 0
M  V30 8735 C 812.692 -3.48995 -0.0191972 0
M  V30 8736 C 814.04 -4.24161 -0.193129 0
M  V30 8737 O 815.064 -3.56075 -0.0943843 0
M  V30 8738 O 813.923 -5.45064 -0.395869 0
M  V30 8739 H 811.017 -0.82149 -0.0953068 0
M  V30 8740 H 813.563 -1.6007 0.563526 0
M  V30 8741 H 812.335 -3.78794 0.981353 0
M  V30 8742 H 811.958 -3.90852 -0.72942 0
M  V30 8743 N 812.955 -0.234822 -1.55841 0
M  V30 8744 C 814.183 0.397745 -2.03041 0
M  V30 8745 C 814.598 1.52405 -1.11437 0
M  V30 8746 O 813.955 1.82061 -0.126466 0
M  V30 8747 C 814.006 0.916919 -3.49678 0
M  V30 8748 O 813.727 -0.164493 -4.37791 0
M  V30 8749 C 815.228 1.62139 -4.12584 0
M  V30 8750 H 812.448 0.0959214 -0.664108 0
M  V30 8751 H 814.992 -0.355156 -2.01392 0
M  V30 8752 H 813.147 1.62004 -3.519 0
M  V30 8753 H 813.561 0.227794 -5.24005 0
M  V30 8754 H 815.035 1.93651 -5.16917 0
M  V30 8755 H 815.512 2.53918 -3.58361 0
M  V30 8756 H 816.118 0.963145 -4.14251 0
M  V30 8757 N 814.433 1.57553 0.0384317 0
M  V30 8758 C 815.849 1.54663 0.39391 0
M  V30 8759 C 816.049 0.959685 1.77179 0
M  V30 8760 O 815.105 0.576647 2.45827 0
M  V30 8761 C 816.418 2.99156 0.304352 0
M  V30 8762 C 817.966 3.10659 0.382119 0
M  V30 8763 C 818.441 4.56866 0.322111 0
M  V30 8764 N 819.932 4.61629 0.38119 0
M  V30 8765 C 820.667 5.72284 0.357501 0
M  V30 8766 N 820.163 6.92207 0.286654 0
M  V30 8767 N 821.956 5.60628 0.406538 0
M  V30 8768 H 814.107 1.9406 -0.86339 0
M  V30 8769 H 816.37 0.889673 -0.327392 0
M  V30 8770 H 816.076 3.45788 -0.642141 0
M  V30 8771 H 815.95 3.60753 1.10168 0
M  V30 8772 H 818.337 2.6398 1.31904 0
M  V30 8773 H 818.418 2.5191 -0.444391 0
M  V30 8774 H 818.062 5.0421 -0.611104 0
M  V30 8775 H 817.992 5.13515 1.1666 0
M  V30 8776 H 820.483 3.75343 0.438838 0
M  V30 8777 H 820.796 7.72316 0.273421 0
M  V30 8778 H 819.141 6.9454 0.252841 0
M  V30 8779 H 822.332 4.65836 0.459812 0
M  V30 8780 H 822.505 6.46858 0.384608 0
M  V30 8781 N 815.911 -0.310526 1.54511 0
M  V30 8782 C 817.151 -1.05498 1.7507 0
M  V30 8783 C 817.515 -1.84814 0.520381 0
M  V30 8784 O 818.716 -2.61937 0.603547 0
M  V30 8785 C 816.987 -1.94466 2.99863 0
M  V30 8786 S 818.546 -2.75686 3.41383 0
M  V30 8787 H 815.364 -0.355951 0.615483 0
M  V30 8788 H 817.966 -0.329464 1.92704 0
M  V30 8789 H 816.67 -1.35055 3.87541 0
M  V30 8790 H 816.201 -2.71401 2.84789 0
M  V30 8791 H 818.216 -3.96971 2.97706 0
M  V30 8792 N 817.389 -1.46805 -0.573248 0
M  V30 8793 C 818.614 -1.56433 -1.36175 0
M  V30 8794 C 819.039 -0.209336 -1.86932 0
M  V30 8795 O 818.397 0.812146 -1.62092 0
M  V30 8796 C 818.445 -2.58055 -2.51873 0
M  V30 8797 O 817.549 -2.12214 -3.53609 0
M  V30 8798 H 816.89 -0.526068 -0.405153 0
M  V30 8799 H 819.42 -1.92456 -0.694405 0
M  V30 8800 H 819.43 -2.77966 -2.98662 0
M  V30 8801 H 818.105 -3.56448 -2.14284 0
M  V30 8802 H 816.682 -2.02333 -3.13234 0
M  V30 8803 N 818.867 0.818669 -1.34668 0
M  V30 8804 C 820.116 1.57017 -1.26604 0
M  V30 8805 C 820.429 1.94936 0.161036 0
M  V30 8806 O 821.635 2.69051 0.36386 0
M  V30 8807 C 820.091 2.83305 -2.2196 0
M  V30 8808 C 819.699 2.52671 -3.69948 0
M  V30 8809 C 821.443 3.61324 -2.22813 0
M  V30 8810 C 819.35 3.75178 -4.5716 0
M  V30 8811 H 818.28 0.589323 -0.470335 0
M  V30 8812 H 820.931 0.900956 -1.59859 0
M  V30 8813 H 819.313 3.51874 -1.81661 0
M  V30 8814 H 820.487 1.92186 -4.18809 0
M  V30 8815 H 818.802 1.8792 -3.71584 0
M  V30 8816 H 821.399 4.52294 -2.85192 0
M  V30 8817 H 821.742 3.97759 -1.22857 0
M  V30 8818 H 822.275 2.99703 -2.61578 0
M  V30 8819 H 819.014 3.43861 -5.58068 0
M  V30 8820 H 818.534 4.34931 -4.13031 0
M  V30 8821 H 820.213 4.42542 -4.71981 0
M  V30 8822 N 820.346 1.18468 1.03938 0
M  V30 8823 C 821.276 0.936389 2.13902 0
M  V30 8824 C 822.257 -0.126381 1.6963 0
M  V30 8825 O 823.442 0.0264757 1.94182 0
M  V30 8826 C 820.572 0.462729 3.44204 0
M  V30 8827 C 819.526 1.46613 4.02105 0
M  V30 8828 C 818.852 0.84994 5.27902 0
M  V30 8829 C 820.152 2.84323 4.3813 0
M  V30 8830 H 821.846 1.85602 2.3493 0
M  V30 8831 H 819.392 0.893806 1.12903 0
M  V30 8832 H 821.345 0.276382 4.20493 0
M  V30 8833 H 820.069 -0.492477 3.22866 0
M  V30 8834 H 818.728 1.63944 3.27899 0
M  V30 8835 H 818.376 -0.112493 5.02874 0
M  V30 8836 H 818.076 1.51988 5.67603 0
M  V30 8837 H 819.6 0.674152 6.06867 0
M  V30 8838 H 821.014 2.70636 5.054 0
M  V30 8839 H 819.411 3.48012 4.88884 0
M  V30 8840 H 820.481 3.37776 3.47901 0
M  V30 8841 N 821.824 -1.22873 0.986916 0
M  V30 8842 C 822.772 -2.26597 0.525043 0
M  V30 8843 C 823.766 -1.64079 -0.421252 0
M  V30 8844 O 824.972 -1.77576 -0.294429 0
M  V30 8845 H 821.347 -0.736606 0.151381 0
M  V30 8846 H 823.318 -2.62909 1.41142 0
M  V30 8847 C 822.067 -3.47374 -0.150542 0
M  V30 8848 H 821.39 -3.95737 0.568541 0
M  V30 8849 H 822.83 -4.21739 -0.437256 0
M  V30 8850 C 821.289 -3.07163 -1.38392 0
M  V30 8851 O 821.819 -3.16028 -2.47971 0
M  V30 8852 N 820.025 -2.62009 -1.25697 0
M  V30 8853 H 819.572 -2.54996 -0.365355 0
M  V30 8854 H 819.53 -2.35472 -2.08327 0
M  V30 8855 N 823.302 -0.75937 -1.38099 0
M  V30 8856 C 824.532 -0.328634 -2.0397 0
M  V30 8857 C 824.94 1.04989 -1.57398 0
M  V30 8858 O 824.283 1.67918 -0.744932 0
M  V30 8859 C 824.345 -0.279216 -3.58414 0
M  V30 8860 C 824.009 -1.60025 -4.28067 0
M  V30 8861 C 825.006 -2.55048 -4.53041 0
M  V30 8862 C 822.691 -1.87128 -4.66142 0
M  V30 8863 C 824.685 -3.7539 -5.15132 0
M  V30 8864 C 822.372 -3.07742 -5.27956 0
M  V30 8865 C 823.37 -4.01694 -5.52387 0
M  V30 8866 O 823.058 -5.20186 -6.12912 0
M  V30 8867 H 822.79 -0.137443 -0.66188 0
M  V30 8868 H 825.344 -1.03082 -1.77661 0
M  V30 8869 H 823.574 0.479254 -3.83719 0
M  V30 8870 H 825.263 0.122781 -4.05714 0
M  V30 8871 H 826.029 -2.35387 -4.24049 0
M  V30 8872 H 821.908 -1.14833 -4.46469 0
M  V30 8873 H 825.452 -4.48737 -5.34117 0
M  V30 8874 H 821.349 -3.27294 -5.56371 0
M  V30 8875 H 822.117 -5.20846 -6.31397 0
M  V30 8876 N 824.78 1.49157 -0.508906 0
M  V30 8877 C 825.71 2.32109 0.254469 0
M  V30 8878 C 826.691 1.40754 0.955111 0
M  V30 8879 O 827.876 1.69658 0.944983 0
M  V30 8880 C 825.006 3.21458 1.3146 0
M  V30 8881 C 823.96 4.2167 0.733368 0
M  V30 8882 C 823.286 5.00009 1.8946 0
M  V30 8883 C 824.586 5.21544 -0.280875 0
M  V30 8884 H 826.28 2.9618 -0.43795 0
M  V30 8885 H 823.826 1.4243 -0.212062 0
M  V30 8886 H 825.779 3.78305 1.85643 0
M  V30 8887 H 824.503 2.55346 2.03632 0
M  V30 8888 H 823.162 3.65979 0.213231 0
M  V30 8889 H 822.81 4.30338 2.60419 0
M  V30 8890 H 822.51 5.67821 1.51173 0
M  V30 8891 H 824.034 5.59702 2.44061 0
M  V30 8892 H 825.448 5.73039 0.173095 0
M  V30 8893 H 823.845 5.97291 -0.580006 0
M  V30 8894 H 824.915 4.69969 -1.19404 0
M  V30 8895 N 826.258 0.243083 1.55714 0
M  V30 8896 C 827.205 -0.658078 2.21219 0
M  V30 8897 C 828.175 -1.1742 1.17481 0
M  V30 8898 O 829.36 -1.22937 1.45915 0
M  V30 8899 C 826.5 -1.85104 2.91257 0
M  V30 8900 C 825.613 -1.3718 4.09641 0
M  V30 8901 C 824.748 -2.52403 4.67404 0
M  V30 8902 C 823.787 -2.01321 5.78045 0
M  V30 8903 N 822.924 -3.09896 6.30007 0
M  V30 8904 H 827.764 -0.0927854 2.97856 0
M  V30 8905 H 825.301 -0.0340375 1.47061 0
M  V30 8906 H 827.259 -2.55179 3.3006 0
M  V30 8907 H 825.889 -2.38887 2.17101 0
M  V30 8908 H 824.941 -0.565232 3.76177 0
M  V30 8909 H 826.253 -0.957409 4.89525 0
M  V30 8910 H 825.407 -3.30525 5.08761 0
M  V30 8911 H 824.146 -2.97142 3.86728 0
M  V30 8912 H 823.151 -1.21667 5.36169 0
M  V30 8913 H 824.376 -1.57556 6.6057 0
M  V30 8914 H 822.322 -3.54077 5.52237 0
M  V30 8915 H 822.239 -2.72776 7.05074 0
M  V30 8916 H 823.507 -3.8809 6.76023 0
M  V30 8917 N 827.736 -1.57571 -0.0300757 0
M  V30 8918 C 828.666 -2.0953 -1.03051 0
M  V30 8919 C 829.647 -0.99761 -1.37774 0
M  V30 8920 O 830.832 -1.27279 -1.46676 0
M  V30 8921 C 827.962 -2.57385 -2.33174 0
M  V30 8922 C 826.916 -3.71409 -2.12696 0
M  V30 8923 C 826.242 -4.05467 -3.4857 0
M  V30 8924 C 827.542 -4.99877 -1.51396 0
M  V30 8925 H 829.236 -2.93367 -0.597999 0
M  V30 8926 H 826.782 -1.41127 -0.286203 0
M  V30 8927 H 828.735 -2.92355 -3.03491 0
M  V30 8928 H 827.459 -1.70629 -2.78484 0
M  V30 8929 H 826.118 -3.36786 -1.44813 0
M  V30 8930 H 825.766 -3.15779 -3.91526 0
M  V30 8931 H 825.466 -4.82269 -3.35694 0
M  V30 8932 H 826.99 -4.4297 -4.2025 0
M  V30 8933 H 828.404 -5.3281 -2.11629 0
M  V30 8934 H 826.801 -5.81283 -1.49098 0
M  V30 8935 H 827.871 -4.82522 -0.479676 0
M  V30 8936 N 829.214 0.302327 -1.54673 0
M  V30 8937 C 830.463 1.03533 -1.73101 0
M  V30 8938 C 830.776 1.88473 -0.523174 0
M  V30 8939 O 831.982 2.65029 -0.589229 0
M  V30 8940 C 830.438 1.89043 -3.06252 0
M  V30 8941 C 830.046 1.09112 -4.3451 0
M  V30 8942 C 831.79 2.61951 -3.34039 0
M  V30 8943 C 829.697 1.93891 -5.58713 0
M  V30 8944 H 828.627 0.390261 -0.645145 0
M  V30 8945 H 831.278 0.2924 -1.81155 0
M  V30 8946 H 829.66 2.67319 -2.92159 0
M  V30 8947 H 830.834 0.354596 -4.59434 0
M  V30 8948 H 829.149 0.477923 -4.13648 0
M  V30 8949 H 831.746 3.25729 -4.24033 0
M  V30 8950 H 832.089 3.30711 -2.52855 0
M  V30 8951 H 832.622 1.90725 -3.49097 0
M  V30 8952 H 829.361 1.29604 -6.4256 0
M  V30 8953 H 828.881 2.6522 -5.37976 0
M  V30 8954 H 830.56 2.51971 -5.95919 0
M  V30 8955 N 830.692 1.47107 0.565454 0
M  V30 8956 C 831.639 1.58974 1.6732 0
M  V30 8957 C 832.609 0.433146 1.60353 0
M  V30 8958 O 833.794 0.652141 1.79309 0
M  V30 8959 C 830.934 1.60224 3.05651 0
M  V30 8960 C 830.047 2.86741 3.23116 0
M  V30 8961 C 829.182 2.79381 4.51796 0
M  V30 8962 C 828.221 4.0076 4.62664 0
M  V30 8963 N 827.358 3.91685 5.8269 0
M  V30 8964 H 832.198 2.53588 1.56515 0
M  V30 8965 H 829.735 1.25791 0.762558 0
M  V30 8966 H 831.693 1.58933 3.85741 0
M  V30 8967 H 830.323 0.691285 3.15311 0
M  V30 8968 H 829.375 2.97936 2.36513 0
M  V30 8969 H 830.687 3.7665 3.27011 0
M  V30 8970 H 829.841 2.76293 5.40136 0
M  V30 8971 H 828.58 1.87142 4.50366 0
M  V30 8972 H 827.585 4.04162 3.72738 0
M  V30 8973 H 828.81 4.94117 4.6586 0
M  V30 8974 H 826.756 3.02243 5.82224 0
M  V30 8975 H 826.673 4.75264 5.87929 0
M  V30 8976 H 827.941 3.92599 6.73414 0
M  V30 8977 N 832.17 -0.811516 1.35101 0
M  V30 8978 C 833.117 -1.92308 1.27617 0
M  V30 8979 C 834.087 -1.6543 0.149091 0
M  V30 8980 O 835.272 -1.8789 0.331974 0
M  V30 8981 C 832.412 -3.28768 1.04908 0
M  V30 8982 C 831.525 -3.67865 2.26493 0
M  V30 8983 C 830.66 -4.9333 1.96974 0
M  V30 8984 C 829.699 -5.25041 3.1464 0
M  V30 8985 N 828.836 -6.41685 2.84929 0
M  V30 8986 H 833.676 -1.98041 2.22674 0
M  V30 8987 H 831.213 -0.968755 1.10696 0
M  V30 8988 H 833.171 -4.07426 0.897749 0
M  V30 8989 H 831.801 -3.22517 0.135151 0
M  V30 8990 H 830.853 -2.84507 2.52507 0
M  V30 8991 H 832.165 -3.87263 3.14371 0
M  V30 8992 H 831.319 -5.79803 1.78643 0
M  V30 8993 H 830.058 -4.75958 1.06374 0
M  V30 8994 H 829.063 -4.3706 3.33554 0
M  V30 8995 H 830.288 -5.44346 4.06035 0
M  V30 8996 H 828.234 -6.25747 1.96918 0
M  V30 8997 H 828.151 -6.6131 3.66341 0
M  V30 8998 H 829.419 -7.31198 2.70128 0
M  V30 8999 N 833.648 -1.19017 -1.03309 0
M  V30 9000 C 835.064 -0.941483 -1.28873 0
M  V30 9001 C 835.264 0.388587 -1.97718 0
M  V30 9002 O 834.32 1.12111 -2.26246 0
M  V30 9003 C 835.633 -2.11249 -2.13996 0
M  V30 9004 C 837.181 -2.15164 -2.27318 0
M  V30 9005 C 837.656 -3.31704 -3.15811 0
M  V30 9006 N 839.147 -3.31613 -3.23399 0
M  V30 9007 C 839.882 -4.18431 -3.9205 0
M  V30 9008 N 839.378 -5.15397 -4.62966 0
M  V30 9009 N 841.171 -4.06321 -3.88406 0
M  V30 9010 H 833.322 -2.04599 -0.570343 0
M  V30 9011 H 835.585 -0.894406 -0.314232 0
M  V30 9012 H 835.291 -3.07482 -1.70727 0
M  V30 9013 H 835.165 -2.07955 -3.14697 0
M  V30 9014 H 837.552 -1.19504 -2.6982 0
M  V30 9015 H 837.633 -2.22513 -1.26182 0
M  V30 9016 H 837.277 -4.2764 -2.74019 0
M  V30 9017 H 837.207 -3.21592 -4.16997 0
M  V30 9018 H 839.698 -2.6142 -2.72888 0
M  V30 9019 H 840.011 -5.78 -5.12968 0
M  V30 9020 H 838.356 -5.19349 -4.61846 0
M  V30 9021 H 841.547 -3.29849 -3.3214 0
M  V30 9022 H 841.72 -4.74196 -4.41635 0
M  V30 9023 N 835.127 1.22348 -0.993418 0
M  V30 9024 C 836.09 2.22522 -0.549251 0
M  V30 9025 C 837.09 1.56529 0.368164 0
M  V30 9026 O 838.28 1.73463 0.16005 0
M  V30 9027 C 835.412 3.40307 0.201037 0
M  V30 9028 H 836.605 2.63332 -1.43515 0
M  V30 9029 H 834.158 1.35407 -0.78068 0
M  V30 9030 H 834.893 3.0497 1.10289 0
M  V30 9031 H 834.678 3.8942 -0.457685 0
M  V30 9032 H 836.168 4.14597 0.499946 0
M  V30 9033 N 836.605 0.766683 1.37694 0
M  V30 9034 C 837.83 0.338715 2.04615 0
M  V30 9035 C 838.255 -1.02918 1.57447 0
M  V30 9036 O 837.613 -1.65849 0.732386 0
M  V30 9037 C 837.661 0.385284 3.58536 0
M  V30 9038 O 836.765 -0.616081 4.07772 0
M  V30 9039 H 836.106 0.147527 0.647404 0
M  V30 9040 H 838.636 1.04146 1.7611 0
M  V30 9041 H 838.646 0.240782 4.07289 0
M  V30 9042 H 837.321 1.38325 3.92223 0
M  V30 9043 H 835.898 -0.435115 3.70353 0
M  V30 9044 N 838.083 -1.48885 0.516809 0
M  V30 9045 C 839.331 -2.02088 -0.0220166 0
M  V30 9046 C 839.652 -1.39735 -1.36011 0
M  V30 9047 O 838.922 -0.558119 -1.87781 0
M  V30 9048 H 837.502 -0.746917 -0.0111255 0
M  V30 9049 H 840.164 -1.8274 0.677647 0
M  V30 9050 H 839.26 -3.11786 -0.140067 0
M  V30 9051 N 839.561 -0.251338 -1.55583 0
M  V30 9052 C 840.471 0.656978 -2.25213 0
M  V30 9053 C 841.487 1.18966 -1.26977 0
M  V30 9054 O 842.663 1.22499 -1.59862 0
M  V30 9055 C 839.728 1.83527 -2.94141 0
M  V30 9056 C 838.789 1.34162 -4.07798 0
M  V30 9057 C 838.022 2.46375 -4.73429 0
M  V30 9058 O 838.245 3.65205 -4.38157 0
M  V30 9059 O 837.179 2.15881 -5.61853 0
M  V30 9060 H 841.005 0.0936395 -3.03556 0
M  V30 9061 H 838.59 -0.0196638 -1.49387 0
M  V30 9062 H 840.472 2.52279 -3.3754 0
M  V30 9063 H 839.147 2.38614 -2.18735 0
M  V30 9064 H 838.054 0.621249 -3.68906 0
M  V30 9065 H 839.387 0.836779 -4.85035 0
M  V30 9066 N 841.039 1.57585 0.0217189 0
M  V30 9067 C 841.969 2.10073 1.01939 0
M  V30 9068 C 842.95 1.0049 1.37243 0
M  V30 9069 O 844.135 1.28055 1.45999 0
M  V30 9070 C 841.265 2.58618 2.31806 0
M  V30 9071 C 840.219 3.72531 2.10724 0
M  V30 9072 C 839.545 4.07309 3.46415 0
M  V30 9073 C 840.845 5.00672 1.48743 0
M  V30 9074 H 842.539 2.9368 0.582432 0
M  V30 9075 H 840.085 1.41277 0.278715 0
M  V30 9076 H 842.038 2.9396 3.01936 0
M  V30 9077 H 840.762 1.72104 2.77575 0
M  V30 9078 H 839.421 3.37549 1.43025 0
M  V30 9079 H 839.069 3.17851 3.89846 0
M  V30 9080 H 838.769 4.84042 3.33132 0
M  V30 9081 H 840.293 4.45192 4.17895 0
M  V30 9082 H 841.707 5.33925 2.088 0
M  V30 9083 H 840.104 5.82065 1.46013 0
M  V30 9084 H 841.174 4.82769 0.45408 0
M  V30 9085 N 842.517 -0.29412 1.54831 0
M  V30 9086 C 843.45 -1.38779 1.81151 0
M  V30 9087 C 844.428 -1.48464 0.663124 0
M  V30 9088 O 845.612 -1.65418 0.903835 0
M  V30 9089 C 842.739 -2.76627 1.95436 0
M  V30 9090 C 841.785 -2.84333 3.17895 0
M  V30 9091 S 842.618 -2.45726 4.75793 0
M  V30 9092 C 843.774 -3.85589 4.93023 0
M  V30 9093 H 844.007 -1.16246 2.73631 0
M  V30 9094 H 841.54 -0.492611 1.46331 0
M  V30 9095 H 843.498 -3.56021 2.04351 0
M  V30 9096 H 842.159 -2.96425 1.03881 0
M  V30 9097 H 841.352 -3.85457 3.24713 0
M  V30 9098 H 840.954 -2.1294 3.07461 0
M  V30 9099 H 843.246 -4.80656 4.77468 0
M  V30 9100 H 844.189 -3.83737 5.95107 0
M  V30 9101 H 844.597 -3.75911 4.21131 0
M  V30 9102 N 843.995 -1.47404 -0.557645 0
M  V30 9103 C 845.223 -1.57622 -1.34026 0
M  V30 9104 C 845.638 -0.226256 -1.87439 0
M  V30 9105 O 844.995 0.78043 -1.64971 0
M  V30 9106 C 845.046 -2.60111 -2.51047 0
M  V30 9107 O 844.767 -3.89866 -1.99841 0
M  V30 9108 C 846.268 -2.80508 -3.43264 0
M  V30 9109 H 843.488 -0.532271 -0.40857 0
M  V30 9110 H 846.032 -1.93019 -0.675555 0
M  V30 9111 H 844.187 -2.27648 -3.13457 0
M  V30 9112 H 844.601 -4.45864 -2.76234 0
M  V30 9113 H 846.075 -3.56084 -4.21792 0
M  V30 9114 H 846.552 -1.88314 -3.9678 0
M  V30 9115 H 847.158 -3.14166 -2.86671 0
M  V30 9116 N 845.473 0.80434 -1.35529 0
M  V30 9117 C 846.719 1.56385 -1.29118 0
M  V30 9118 C 847.052 1.9374 0.133536 0
M  V30 9119 O 846.327 1.6153 1.08344 0
M  V30 9120 C 846.61 2.85097 -2.19981 0
M  V30 9121 C 846.463 2.54204 -3.7108 0
M  V30 9122 C 847.782 3.86817 -2.09907 0
M  V30 9123 H 844.901 0.567382 -0.470368 0
M  V30 9124 H 847.543 0.925235 -1.6595 0
M  V30 9125 H 845.693 3.39594 -1.88701 0
M  V30 9126 H 847.365 2.05872 -4.12813 0
M  V30 9127 H 845.608 1.87364 -3.91251 0
M  V30 9128 H 846.279 3.46068 -4.30048 0
M  V30 9129 H 848.755 3.41725 -2.37409 0
M  V30 9130 H 847.631 4.7465 -2.75678 0
M  V30 9131 H 847.892 4.28663 -1.08171 0
M  V30 9132 N 846.951 1.19563 1.02676 0
M  V30 9133 C 847.914 0.937182 2.09164 0
M  V30 9134 C 848.914 -0.0831927 1.60585 0
M  V30 9135 O 850.104 0.15178 1.73538 0
M  V30 9136 C 847.236 0.408912 3.38439 0
M  V30 9137 H 848.429 1.88164 2.33526 0
M  V30 9138 H 845.982 1.00959 1.19319 0
M  V30 9139 H 846.717 -0.541497 3.19747 0
M  V30 9140 H 846.502 1.14464 3.7502 0
M  V30 9141 H 847.992 0.247242 4.16867 0
M  V30 9142 N 848.429 -1.21819 0.999893 0
M  V30 9143 C 849.845 -1.42847 0.711824 0
M  V30 9144 C 850.045 -1.88391 -0.714928 0
M  V30 9145 O 849.101 -2.0422 -1.48494 0
M  V30 9146 C 850.414 -2.46417 1.72334 0
M  V30 9147 C 851.962 -2.60207 1.73958 0
M  V30 9148 C 852.437 -3.67005 2.73992 0
M  V30 9149 N 853.928 -3.7447 2.72628 0
M  V30 9150 C 854.663 -4.56718 3.46693 0
M  V30 9151 N 854.159 -5.42904 4.3038 0
M  V30 9152 N 855.952 -4.51094 3.35366 0
M  V30 9153 H 848.103 -0.905656 1.92124 0
M  V30 9154 H 850.366 -0.459893 0.828977 0
M  V30 9155 H 850.072 -2.19914 2.74465 0
M  V30 9156 H 849.946 -3.45137 1.52186 0
M  V30 9157 H 852.333 -2.8605 0.725217 0
M  V30 9158 H 852.414 -1.61739 1.98177 0
M  V30 9159 H 852.058 -3.41908 3.75582 0
M  V30 9160 H 851.988 -4.65058 2.4704 0
M  V30 9161 H 854.479 -3.12895 2.11909 0
M  V30 9162 H 854.792 -6.02704 4.83702 0
M  V30 9163 H 853.137 -5.42463 4.34464 0
M  V30 9164 H 856.328 -3.82791 2.69423 0
M  V30 9165 H 856.501 -5.1496 3.93344 0
M  V30 9166 N 849.908 -0.773975 -1.37286 0
M  V30 9167 C 851.154 -0.348833 -2.00386 0
M  V30 9168 C 851.509 1.06347 -1.60337 0
M  V30 9169 O 850.802 1.72178 -0.840545 0
M  V30 9170 C 850.996 -0.432651 -3.54772 0
M  V30 9171 C 850.825 -1.85155 -4.09814 0
M  V30 9172 C 849.595 -2.47272 -4.40664 0
M  V30 9173 C 851.793 -2.8114 -4.30656 0
M  V30 9174 N 849.775 -3.80912 -4.81435 0
M  V30 9175 C 851.146 -3.99582 -4.74061 0
M  V30 9176 C 853.201 -2.78398 -4.12794 0
M  V30 9177 C 851.904 -5.1567 -5.01475 0
M  V30 9178 C 853.93 -3.9366 -4.41345 0
M  V30 9179 C 853.292 -5.10844 -4.84992 0
M  V30 9180 H 849.391 -0.174738 -0.762227 0
M  V30 9181 H 851.975 -1.00828 -1.66559 0
M  V30 9182 H 850.146 0.19663 -3.87902 0
M  V30 9183 H 851.878 0.0147601 -4.04697 0
M  V30 9184 H 848.633 -1.98872 -4.29822 0
M  V30 9185 H 849.057 -4.49628 -5.06126 0
M  V30 9186 H 853.699 -1.8897 -3.7822 0
M  V30 9187 H 851.417 -6.05696 -5.34938 0
M  V30 9188 H 855.003 -3.92882 -4.2911 0
M  V30 9189 H 853.883 -5.98553 -5.0666 0
M  V30 9190 N 851.386 1.48609 -0.524698 0
M  V30 9191 C 852.319 2.26374 0.288109 0
M  V30 9192 C 853.297 1.31997 0.949509 0
M  V30 9193 O 854.481 1.61329 0.974946 0
M  V30 9194 C 851.608 3.08065 1.4076 0
M  V30 9195 C 850.654 4.17777 0.858152 0
M  V30 9196 S 851.487 5.3482 -0.269827 0
M  V30 9197 C 852.643 6.2007 0.852266 0
M  V30 9198 H 852.876 2.94965 -0.371865 0
M  V30 9199 H 850.409 1.51248 -0.31039 0
M  V30 9200 H 852.367 3.5571 2.04892 0
M  V30 9201 H 851.028 2.38898 2.03928 0
M  V30 9202 H 850.221 4.74542 1.69783 0
M  V30 9203 H 849.823 3.72846 0.293627 0
M  V30 9204 H 852.115 6.54451 1.75213 0
M  V30 9205 H 853.058 7.07364 0.322717 0
M  V30 9206 H 853.466 5.53068 1.13029 0
M  V30 9207 N 852.864 0.259585 1.55447 0
M  V30 9208 C 854.28 -0.094961 1.59317 0
M  V30 9209 C 854.48 -1.55884 1.2768 0
M  V30 9210 O 853.536 -2.30528 1.0302 0
M  V30 9211 C 854.849 0.265669 2.99524 0
M  V30 9212 C 856.397 0.211007 3.12288 0
M  V30 9213 C 856.872 0.545851 4.54736 0
M  V30 9214 N 858.363 0.496823 4.60528 0
M  V30 9215 C 859.098 0.728909 5.68748 0
M  V30 9216 N 858.594 1.02479 6.85179 0
M  V30 9217 N 860.387 0.658756 5.58226 0
M  V30 9218 H 852.538 1.2141 1.7428 0
M  V30 9219 H 854.801 0.489404 0.811904 0
M  V30 9220 H 854.507 1.28316 3.27457 0
M  V30 9221 H 854.381 -0.401089 3.75061 0
M  V30 9222 H 856.768 -0.797172 2.84129 0
M  V30 9223 H 856.849 0.911799 2.38998 0
M  V30 9224 H 856.493 1.55164 4.83618 0
M  V30 9225 H 856.423 -0.17656 5.26304 0
M  V30 9226 H 858.914 0.277376 3.76881 0
M  V30 9227 H 859.227 1.18897 7.63599 0
M  V30 9228 H 857.572 1.0624 6.86832 0
M  V30 9229 H 860.763 0.427553 4.66143 0
M  V30 9230 H 860.936 0.84302 6.42493 0
M  V30 9231 N 854.342 -1.57594 -0.0133615 0
M  V30 9232 C 855.252 -2.10991 -1.02566 0
M  V30 9233 C 856.268 -1.05208 -1.3859 0
M  V30 9234 O 857.444 -1.37034 -1.47593 0
M  V30 9235 C 854.509 -2.59165 -2.30292 0
M  V30 9236 C 853.57 -3.79495 -2.00704 0
M  V30 9237 C 852.803 -4.25361 -3.22341 0
M  V30 9238 O 853.026 -3.70645 -4.33565 0
M  V30 9239 O 851.96 -5.17649 -3.07121 0
M  V30 9240 H 855.786 -2.97678 -0.601806 0
M  V30 9241 H 853.371 -1.47598 -0.23135 0
M  V30 9242 H 855.253 -2.90409 -3.05354 0
M  V30 9243 H 853.928 -1.75582 -2.71942 0
M  V30 9244 H 852.835 -3.53245 -1.23161 0
M  V30 9245 H 854.168 -4.64109 -1.639 0
M  V30 9246 N 855.82 0.285905 -1.54985 0
M  V30 9247 C 857.067 1.0192 -1.74982 0
M  V30 9248 C 857.395 1.86743 -0.543816 0
M  V30 9249 O 856.65 1.89874 0.473972 0
M  V30 9250 C 856.949 1.94193 -3.0004 0
M  V30 9251 C 856.615 1.25225 -4.33162 0
M  V30 9252 C 855.277 1.06149 -4.69346 0
M  V30 9253 C 857.629 0.760427 -5.15623 0
M  V30 9254 C 854.957 0.365991 -5.85557 0
M  V30 9255 C 857.309 0.0785787 -6.32551 0
M  V30 9256 C 855.973 -0.124002 -6.67385 0
M  V30 9257 H 855.243 0.372951 -0.640304 0
M  V30 9258 H 857.89 0.292652 -1.89251 0
M  V30 9259 H 856.195 2.73426 -2.80616 0
M  V30 9260 H 857.892 2.51029 -3.12707 0
M  V30 9261 H 854.482 1.41081 -4.04715 0
M  V30 9262 H 858.666 0.895466 -4.88155 0
M  V30 9263 H 853.922 0.198193 -6.11079 0
M  V30 9264 H 858.096 -0.310339 -6.95708 0
M  V30 9265 H 855.723 -0.664918 -7.57287 0
M  V30 9266 N 857.298 1.47698 0.54982 0
M  V30 9267 C 858.547 1.53961 1.30303 0
M  V30 9268 C 858.86 0.209731 1.94472 0
M  V30 9269 O 860.066 0.150418 2.71083 0
M  V30 9270 C 858.522 2.71436 2.36328 0
M  V30 9271 C 858.13 4.10983 1.78316 0
M  V30 9272 C 859.874 2.86996 3.12783 0
M  V30 9273 C 857.781 5.19747 2.82164 0
M  V30 9274 H 856.711 0.573098 0.489975 0
M  V30 9275 H 859.362 1.73989 0.583089 0
M  V30 9276 H 857.744 2.44801 3.11269 0
M  V30 9277 H 858.918 4.47552 1.09697 0
M  V30 9278 H 857.233 4.00371 1.1442 0
M  V30 9279 H 859.83 3.65422 3.90347 0
M  V30 9280 H 860.173 1.95712 3.67427 0
M  V30 9281 H 860.706 3.13436 2.44954 0
M  V30 9282 H 857.445 6.12932 2.32366 0
M  V30 9283 H 856.965 4.87688 3.49171 0
M  V30 9284 H 858.644 5.47014 3.4552 0
M  V30 9285 N 858.776 -0.797141 1.35954 0
M  V30 9286 C 859.739 -1.89104 1.29508 0
M  V30 9287 C 860.739 -1.59495 0.204444 0
M  V30 9288 O 861.929 -1.68051 0.458746 0
M  V30 9289 C 859.061 -3.25726 1.00576 0
M  V30 9290 H 860.254 -1.96237 2.26785 0
M  V30 9291 H 857.807 -0.994075 1.20614 0
M  V30 9292 H 858.542 -3.24279 0.0372519 0
M  V30 9293 H 858.327 -3.48604 1.79492 0
M  V30 9294 H 859.817 -4.0578 0.986508 0
M  V30 9295 N 860.254 -1.20106 -1.0204 0
M  V30 9296 C 861.202 -0.943231 -2.12617 0
M  V30 9297 C 862.196 0.104042 -1.6908 0
M  V30 9298 O 863.402 -0.0459732 -1.79941 0
M  V30 9299 H 859.777 -0.28767 -0.694802 0
M  V30 9300 H 861.748 -1.88221 -2.3155 0
M  V30 9301 C 860.497 -0.50771 -3.43973 0
M  V30 9302 H 859.82 -1.30514 -3.77897 0
M  V30 9303 H 861.26 -0.366486 -4.22413 0
M  V30 9304 C 859.719 0.77939 -3.27761 0
M  V30 9305 O 860.249 1.83876 -3.57145 0
M  V30 9306 N 858.455 0.739931 -2.81022 0
M  V30 9307 H 858.002 -0.122426 -2.57309 0
M  V30 9308 H 857.96 1.60147 -2.70556 0
M  V30 9309 N 861.732 1.21287 -1.00634 0
M  V30 9310 C 862.682 2.21541 -0.53886 0
M  V30 9311 C 863.666 1.55842 0.400256 0
M  V30 9312 O 864.858 1.75566 0.224889 0
M  V30 9313 C 861.987 3.43047 0.131796 0
M  V30 9314 C 861.073 4.1593 -0.828419 0
M  V30 9315 N 861.464 4.65359 -1.98178 0
M  V30 9316 C 859.762 4.41281 -0.647083 0
M  V30 9317 C 860.463 5.21079 -2.58557 0
M  V30 9318 N 859.439 5.10531 -1.86705 0
M  V30 9319 H 863.241 2.57413 -1.41831 0
M  V30 9320 H 860.755 1.37109 -0.870338 0
M  V30 9321 H 862.752 4.14079 0.484178 0
M  V30 9322 H 861.412 3.08683 1.00721 0
M  V30 9323 H 862.423 4.60896 -2.3621 0
M  V30 9324 H 859.1 4.17107 0.181139 0
M  V30 9325 H 860.49 5.6977 -3.56107 0
M  V30 9326 N 863.21 0.781244 1.36873 0
M  V30 9327 C 864.621 0.414093 1.8205 0
M  V30 9328 C 864.972 -1.06098 1.65039 0
M  V30 9329 O 864.097 -1.82251 1.16677 0
M  V30 9330 C 864.692 0.744837 3.30511 0
M  V30 9331 C 863.251 0.430621 3.73929 0
M  V30 9332 C 862.398 0.983746 2.59264 0
M  V30 9333 H 865.349 0.975091 1.2521 0
M  V30 9334 H 865.37 0.032936 3.80486 0
M  V30 9335 H 864.882 1.81847 3.42861 0
M  V30 9336 H 862.983 -0.635308 3.67144 0
M  V30 9337 H 863.096 0.945514 4.69677 0
M  V30 9338 H 861.46 0.407433 2.5142 0
M  V30 9339 H 862.243 2.06297 2.74402 0
M  V30 9340 N 864.689 -1.48329 0.532571 0
M  V30 9341 C 865.966 -1.95492 -0.0650985 0
M  V30 9342 C 866.346 -1.47485 -1.51034 0
M  V30 9343 O 865.694 -0.702516 -2.17433 0
M  V30 9344 C 865.904 -3.48957 0.0548341 0
M  V30 9345 C 867.252 -4.24475 -0.103115 0
M  V30 9346 O 868.276 -3.56195 -0.0188343 0
M  V30 9347 O 867.135 -5.45781 -0.280164 0
M  V30 9348 H 864.229 -0.823327 -0.0778603 0
M  V30 9349 H 866.775 -1.58839 0.597353 0
M  V30 9350 H 865.547 -3.76628 1.06148 0
M  V30 9351 H 865.17 -3.92311 -0.64635 0
M  V30 9352 N 866.167 -0.267825 -1.55308 0
M  V30 9353 C 867.397 0.354073 -2.03543 0
M  V30 9354 C 867.805 1.50554 -1.14586 0
M  V30 9355 O 867.148 1.83028 -0.156991 0
M  V30 9356 C 867.21 0.904148 -3.47945 0
M  V30 9357 C 866.874 -0.11775 -4.56848 0
M  V30 9358 C 867.871 -0.934707 -5.11429 0
M  V30 9359 C 865.556 -0.249885 -5.01678 0
M  V30 9360 C 867.55 -1.87005 -6.0935 0
M  V30 9361 C 865.237 -1.18872 -5.99427 0
M  V30 9362 C 866.235 -1.99731 -6.53144 0
M  V30 9363 O 865.923 -2.92028 -7.48983 0
M  V30 9364 H 865.655 0.0857765 -0.670536 0
M  V30 9365 H 868.209 -0.395515 -2.01556 0
M  V30 9366 H 866.439 1.70368 -3.47148 0
M  V30 9367 H 868.128 1.43835 -3.79561 0
M  V30 9368 H 868.894 -0.84332 -4.77612 0
M  V30 9369 H 864.773 0.369469 -4.59517 0
M  V30 9370 H 868.317 -2.5016 -6.51203 0
M  V30 9371 H 864.214 -1.28095 -6.32663 0
M  V30 9372 H 864.982 -2.86627 -7.66673 0
M  V30 9373 N 867.645 1.57599 0.00500368 0
M  V30 9374 C 868.592 2.08106 0.998025 0
M  V30 9375 C 869.562 0.975374 1.34446 0
M  V30 9376 O 870.747 1.24749 1.44369 0
M  V30 9377 C 867.887 2.58496 2.28635 0
M  V30 9378 C 867 3.82947 1.99939 0
M  V30 9379 C 866.135 4.21857 3.22816 0
M  V30 9380 C 865.174 5.39159 2.89783 0
M  V30 9381 N 864.311 5.73386 4.05183 0
M  V30 9382 H 869.151 2.92684 0.560385 0
M  V30 9383 H 866.688 1.44692 0.265053 0
M  V30 9384 H 868.646 2.85787 3.03943 0
M  V30 9385 H 867.276 1.768 2.70077 0
M  V30 9386 H 866.328 3.62594 1.1502 0
M  V30 9387 H 867.64 4.68358 1.71588 0
M  V30 9388 H 866.794 4.50404 4.06474 0
M  V30 9389 H 865.533 3.35145 3.54301 0
M  V30 9390 H 864.538 5.1034 2.04532 0
M  V30 9391 H 865.763 6.27543 2.59551 0
M  V30 9392 H 863.709 4.89632 4.36574 0
M  V30 9393 H 863.626 6.53359 3.80339 0
M  V30 9394 H 864.894 6.06522 4.89644 0
M  V30 9395 N 869.123 -0.277682 1.55134 0
M  V30 9396 C 870.055 -1.36531 1.84098 0
M  V30 9397 C 871.068 -1.45756 0.725194 0
M  V30 9398 O 872.257 -1.47656 1.00299 0
M  V30 9399 C 869.357 -2.74701 1.98476 0
M  V30 9400 C 868.53 -2.88125 3.29094 0
M  V30 9401 C 867.589 -4.0694 3.33596 0
M  V30 9402 O 866.615 -3.9792 4.06999 0
M  V30 9403 N 867.817 -5.18687 2.60661 0
M  V30 9404 H 870.582 -1.12032 2.77973 0
M  V30 9405 H 868.143 -0.467793 1.54995 0
M  V30 9406 H 870.135 -3.52471 1.98863 0
M  V30 9407 H 868.705 -2.92043 1.11488 0
M  V30 9408 H 867.925 -1.97277 3.41285 0
M  V30 9409 H 869.213 -2.94021 4.15246 0
M  V30 9410 H 868.611 -5.28901 2.00699 0
M  V30 9411 H 867.168 -5.94705 2.66776 0
M  V30 9412 N 870.601 -1.47988 -0.541979 0
M  V30 9413 C 871.878 -1.45878 -1.30303 0
M  V30 9414 C 872.258 -0.163931 -2.10463 0
M  V30 9415 O 871.606 0.854479 -2.11922 0
M  V30 9416 C 871.816 -2.71359 -2.19466 0
M  V30 9417 C 873.164 -3.19199 -2.79995 0
M  V30 9418 O 874.188 -2.72193 -2.2976 0
M  V30 9419 O 873.047 -4.00961 -3.71339 0
M  V30 9420 H 870.141 -0.582043 -0.587498 0
M  V30 9421 H 872.687 -1.60207 -0.559623 0
M  V30 9422 H 871.459 -3.57122 -1.59936 0
M  V30 9423 H 871.082 -2.59692 -3.01075 0
M  V30 9424 N 872.079 0.78992 -1.36375 0
M  V30 9425 C 873.304 1.58389 -1.33895 0
M  V30 9426 C 873.729 1.8794 0.0774934 0
M  V30 9427 O 873.087 1.4785 1.0493 0
M  V30 9428 C 873.135 2.88201 -2.16732 0
M  V30 9429 O 872.239 3.81778 -1.55946 0
M  V30 9430 H 871.58 0.480471 -0.458305 0
M  V30 9431 H 874.11 0.979119 -1.79651 0
M  V30 9432 H 874.12 3.37475 -2.29292 0
M  V30 9433 H 872.795 2.66019 -3.19698 0
M  V30 9434 H 871.372 3.40371 -1.52323 0
M  V30 9435 N 873.557 1.20646 1.01402 0
M  V30 9436 C 874.803 1.0197 1.753 0
M  V30 9437 C 875.136 -0.446803 1.8899 0
M  V30 9438 O 874.411 -1.33169 1.41762 0
M  V30 9439 C 874.694 1.70693 3.17074 0
M  V30 9440 C 874.547 3.24805 3.11162 0
M  V30 9441 C 875.866 1.44212 4.15802 0
M  V30 9442 H 872.985 0.371844 0.636318 0
M  V30 9443 H 875.627 1.48696 1.18277 0
M  V30 9444 H 873.777 1.30968 3.65759 0
M  V30 9445 H 875.449 3.73841 2.70261 0
M  V30 9446 H 873.692 3.55576 2.48492 0
M  V30 9447 H 874.363 3.68049 4.11393 0
M  V30 9448 H 876.839 1.7868 3.75783 0
M  V30 9449 H 875.715 1.94825 5.13161 0
M  V30 9450 H 875.976 0.370252 4.40547 0
M  V30 9451 N 875.035 -1.20752 1.01276 0
M  V30 9452 C 876.284 -1.8934 0.695229 0
M  V30 9453 C 876.597 -1.79459 -0.77806 0
M  V30 9454 O 877.803 -2.43146 -1.20799 0
M  V30 9455 C 876.259 -3.39548 1.1931 0
M  V30 9456 C 875.867 -3.58023 2.69302 0
M  V30 9457 C 877.611 -4.13714 0.950823 0
M  V30 9458 C 875.518 -5.02037 3.1259 0
M  V30 9459 H 874.448 -0.709084 0.25635 0
M  V30 9460 H 877.099 -1.36629 1.22494 0
M  V30 9461 H 875.481 -3.91559 0.591395 0
M  V30 9462 H 876.655 -3.16416 3.34989 0
M  V30 9463 H 874.97 -2.97222 2.9163 0
M  V30 9464 H 877.567 -5.19891 1.24971 0
M  V30 9465 H 877.91 -4.16147 -0.112791 0
M  V30 9466 H 878.443 -3.67792 1.51571 0
M  V30 9467 H 875.182 -5.04757 4.18211 0
M  V30 9468 H 874.702 -5.44469 2.51621 0
M  V30 9469 H 876.381 -5.70594 3.0501 0
M  V30 9470 N 876.513 -0.788492 -1.36457 0
M  V30 9471 C 877.741 -0.372365 -2.03522 0
M  V30 9472 C 878.156 1.01093 -1.59454 0
M  V30 9473 O 877.513 1.64824 -0.783535 0
M  V30 9474 C 877.564 -0.425435 -3.58988 0
M  V30 9475 O 877.285 -1.75418 -4.01448 0
M  V30 9476 C 878.786 0.000180167 -4.433 0
M  V30 9477 H 876.006 -0.1536 -0.653183 0
M  V30 9478 H 878.55 -1.06708 -1.74452 0
M  V30 9479 H 876.705 0.220856 -3.8677 0
M  V30 9480 H 877.119 -1.70437 -4.96036 0
M  V30 9481 H 878.593 -0.0880919 -5.5193 0
M  V30 9482 H 879.07 1.05269 -4.26398 0
M  V30 9483 H 879.676 -0.618563 -4.20778 0
M  V30 9484 N 877.991 1.48044 -0.54043 0
M  V30 9485 C 879.268 1.95523 0.0547302 0
M  V30 9486 C 879.648 1.48284 1.5025 0
M  V30 9487 O 878.996 0.714037 2.17057 0
M  V30 9488 C 879.206 3.48923 -0.0733393 0
M  V30 9489 C 880.554 4.24523 0.0806026 0
M  V30 9490 O 881.578 3.562 -5.58687e-05 0
M  V30 9491 O 880.437 5.45922 0.251216 0
M  V30 9492 H 877.531 0.823728 0.073493 0
M  V30 9493 H 880.077 1.5852 -0.605768 0
M  V30 9494 H 878.849 3.76059 -1.08144 0
M  V30 9495 H 878.472 3.92648 0.625536 0
M  V30 9496 N 879.47 0.276058 1.55163 0
M  V30 9497 C 880.38 -0.621066 2.2623 0
M  V30 9498 C 881.396 -1.16931 1.28853 0
M  V30 9499 O 882.572 -1.1994 1.61791 0
M  V30 9500 C 879.637 -1.78824 2.97023 0
M  V30 9501 C 878.698 -1.27657 4.09881 0
M  V30 9502 C 877.931 -2.38812 4.77289 0
M  V30 9503 O 878.154 -3.58188 4.43912 0
M  V30 9504 O 877.088 -2.06915 5.65217 0
M  V30 9505 H 880.914 -0.0453346 3.03666 0
M  V30 9506 H 878.499 0.0434275 1.49337 0
M  V30 9507 H 880.381 -2.46877 3.41511 0
M  V30 9508 H 879.056 -2.35104 2.22503 0
M  V30 9509 H 877.963 -0.56248 3.69847 0
M  V30 9510 H 879.296 -0.759509 4.86305 0
M  V30 9511 N 880.948 -1.576 0.00335426 0
M  V30 9512 C 881.881 -2.04085 -1.021 0
M  V30 9513 C 882.859 -0.931382 -1.33282 0
M  V30 9514 O 884.043 -1.19976 -1.45389 0
M  V30 9515 C 881.17 -2.44128 -2.34775 0
M  V30 9516 C 880.216 -3.65841 -2.19232 0
M  V30 9517 S 881.049 -5.13616 -1.51521 0
M  V30 9518 C 882.205 -5.56931 -2.8562 0
M  V30 9519 H 882.438 -2.90652 -0.625192 0
M  V30 9520 H 879.971 -1.52998 -0.207611 0
M  V30 9521 H 881.929 -2.67866 -3.1106 0
M  V30 9522 H 880.59 -1.57954 -2.71495 0
M  V30 9523 H 879.783 -3.9162 -3.17253 0
M  V30 9524 H 879.385 -3.42122 -1.51091 0
M  V30 9525 H 881.677 -5.59596 -3.81914 0
M  V30 9526 H 882.62 -6.5683 -2.64536 0
M  V30 9527 H 883.028 -4.84504 -2.89683 0
M  V30 9528 N 882.426 0.269451 -1.5528 0
M  V30 9529 C 883.374 1.35303 -1.89198 0
M  V30 9530 C 884.368 1.50956 -0.768671 0
M  V30 9531 O 885.574 1.52699 -0.953054 0
M  V30 9532 H 881.949 0.452591 -0.600554 0
M  V30 9533 H 883.92 1.03949 -2.79709 0
M  V30 9534 C 882.669 2.70585 -2.18356 0
M  V30 9535 H 881.992 2.59332 -3.04281 0
M  V30 9536 H 883.432 3.45335 -2.46007 0
M  V30 9537 C 881.891 3.21954 -0.992327 0
M  V30 9538 O 882.421 4.01048 -0.228769 0
M  V30 9539 N 880.627 2.79682 -0.789062 0
M  V30 9540 H 880.174 2.15475 -1.41167 0
M  V30 9541 H 880.132 3.14399 0.00634776 0
M  V30 9542 N 883.904 1.48273 0.534124 0
M  V30 9543 C 885.134 1.59503 1.31311 0
M  V30 9544 C 885.542 0.25284 1.87503 0
M  V30 9545 O 884.885 -0.767399 1.66903 0
M  V30 9546 C 884.947 2.57899 2.50456 0
M  V30 9547 C 884.611 4.03063 2.15382 0
M  V30 9548 C 885.608 4.90869 1.713 0
M  V30 9549 C 883.293 4.4857 2.26032 0
M  V30 9550 C 885.287 6.22209 1.38328 0
M  V30 9551 C 882.974 5.79932 1.92672 0
M  V30 9552 C 883.972 6.66574 1.4889 0
M  V30 9553 O 883.66 7.95492 1.15966 0
M  V30 9554 H 883.392 0.540695 0.405739 0
M  V30 9555 H 885.946 1.94794 0.651497 0
M  V30 9556 H 884.176 2.1772 3.19585 0
M  V30 9557 H 885.865 2.59008 3.12522 0
M  V30 9558 H 886.631 4.56951 1.62545 0
M  V30 9559 H 882.51 3.81321 2.59066 0
M  V30 9560 H 886.054 6.89792 1.04082 0
M  V30 9561 H 881.951 6.13386 2.01066 0
M  V30 9562 H 882.719 8.08207 1.29399 0
M  V30 9563 N 885.382 -0.782676 1.36792 0
M  V30 9564 C 886.607 -1.57676 1.34733 0
M  V30 9565 C 887.032 -1.87979 -0.0675253 0
M  V30 9566 O 886.39 -1.48404 -1.04144 0
M  V30 9567 C 886.438 -2.87047 2.18257 0
M  V30 9568 O 885.542 -3.80946 1.57969 0
M  V30 9569 H 884.883 -0.478034 0.460846 0
M  V30 9570 H 887.413 -0.969578 1.80168 0
M  V30 9571 H 887.423 -3.36254 2.31079 0
M  V30 9572 H 886.098 -2.64319 3.21104 0
M  V30 9573 H 884.675 -3.39558 1.54126 0
M  V30 9574 N 886.86 -1.21182 -1.00761 0
M  V30 9575 C 887.79 -0.992773 -2.11344 0
M  V30 9576 C 888.771 0.0813618 -1.69905 0
M  V30 9577 O 889.956 -0.0779503 -1.94043 0
M  V30 9578 C 887.086 -0.553826 -3.42856 0
M  V30 9579 C 886.04 -1.57223 -3.98077 0
M  V30 9580 C 885.366 -0.989605 -5.25463 0
M  V30 9581 C 886.666 -2.95839 -4.30438 0
M  V30 9582 H 888.36 -1.91766 -2.29927 0
M  V30 9583 H 885.906 -0.923426 -1.10494 0
M  V30 9584 H 887.859 -0.387771 -4.19612 0
M  V30 9585 H 886.583 0.406702 -3.24058 0
M  V30 9586 H 885.242 -1.7258 -3.23437 0
M  V30 9587 H 884.89 -0.0208743 -5.02996 0
M  V30 9588 H 884.59 -1.66984 -5.63374 0
M  V30 9589 H 886.114 -0.834815 -6.04866 0
M  V30 9590 H 887.528 -2.8394 -4.98047 0
M  V30 9591 H 885.925 -3.60851 -4.79486 0
M  V30 9592 H 886.995 -3.46882 -3.38823 0
M  V30 9593 N 888.338 1.20213 -1.01915 0
M  V30 9594 C 889.587 1.88968 -0.705261 0
M  V30 9595 C 889.9 1.79869 0.768531 0
M  V30 9596 O 891.106 2.43783 1.19508 0
M  V30 9597 C 889.562 3.38911 -1.21109 0
M  V30 9598 C 889.17 3.5659 -2.71197 0
M  V30 9599 C 890.914 4.13204 -0.97275 0
M  V30 9600 C 888.821 5.00372 -3.15248 0
M  V30 9601 H 887.751 0.707715 -0.260107 0
M  V30 9602 H 890.402 1.35977 -1.23217 0
M  V30 9603 H 888.784 3.9124 -0.612152 0
M  V30 9604 H 889.958 3.14635 -3.36662 0
M  V30 9605 H 888.273 2.95671 -2.93202 0
M  V30 9606 H 890.87 5.19221 -1.27726 0
M  V30 9607 H 891.213 4.16201 0.09072 0
M  V30 9608 H 891.746 3.66983 -1.5352 0
M  V30 9609 H 888.485 5.02532 -4.20882 0
M  V30 9610 H 888.005 5.43127 -2.54505 0
M  V30 9611 H 889.684 5.68969 -3.08032 0
M  V30 9612 N 889.816 0.795718 1.36037 0
M  V30 9613 C 890.746 0.212803 2.32528 0
M  V30 9614 C 891.727 -0.655716 1.56953 0
M  V30 9615 O 892.912 -0.588238 1.85077 0
M  V30 9616 C 890.042 -0.648189 3.41198 0
M  V30 9617 C 888.996 0.120948 4.27829 0
M  V30 9618 C 888.322 -0.861044 5.27722 0
M  V30 9619 C 889.622 1.31375 5.05508 0
M  V30 9620 H 891.316 1.01893 2.81528 0
M  V30 9621 H 888.862 0.491422 1.35355 0
M  V30 9622 H 890.815 -1.06597 4.07695 0
M  V30 9623 H 889.539 -1.48709 2.9078 0
M  V30 9624 H 888.198 0.519777 3.62897 0
M  V30 9625 H 887.846 -1.69515 4.73575 0
M  V30 9626 H 887.546 -0.350808 5.86552 0
M  V30 9627 H 889.07 -1.27726 5.97092 0
M  V30 9628 H 890.484 0.971406 5.6501 0
M  V30 9629 H 888.881 1.75772 5.73781 0
M  V30 9630 H 889.951 2.10593 4.36782 0
M  V30 9631 N 891.294 -1.47756 0.548274 0
M  V30 9632 C 892.241 -2.29893 -0.204408 0
M  V30 9633 C 893.211 -1.38509 -0.916761 0
M  V30 9634 O 894.396 -1.67472 -0.91421 0
M  V30 9635 C 891.536 -3.22282 -1.23403 0
M  V30 9636 C 890.649 -4.28753 -0.528654 0
M  V30 9637 C 889.784 -5.08303 -1.54279 0
M  V30 9638 C 888.823 -6.06557 -0.821893 0
M  V30 9639 N 887.96 -6.79098 -1.78243 0
M  V30 9640 H 892.8 -2.93739 0.502163 0
M  V30 9641 H 890.337 -1.44793 0.259471 0
M  V30 9642 H 892.295 -3.74262 -1.84348 0
M  V30 9643 H 890.925 -2.6032 -1.90875 0
M  V30 9644 H 889.977 -3.79899 0.195132 0
M  V30 9645 H 891.289 -4.98787 0.0365066 0
M  V30 9646 H 890.443 -5.64388 -2.22602 0
M  V30 9647 H 889.182 -4.3815 -2.14186 0
M  V30 9648 H 888.187 -5.49659 -0.12469 0
M  V30 9649 H 889.412 -6.78715 -0.228685 0
M  V30 9650 H 887.358 -6.11682 -2.37025 0
M  V30 9651 H 887.275 -7.4527 -1.26919 0
M  V30 9652 H 888.543 -7.39762 -2.45709 0
M  V30 9653 N 892.772 -0.284283 -1.55015 0
M  V30 9654 C 894.012 0.330942 -2.01703 0
M  V30 9655 C 894.376 1.52362 -1.16832 0
M  V30 9656 O 895.577 2.20909 -1.53142 0
M  V30 9657 C 893.848 0.694712 -3.50583 0
M  V30 9658 S 895.407 1.29517 -4.1925 0
M  V30 9659 H 892.225 0.10247 -0.703577 0
M  V30 9660 H 894.827 -0.408257 -1.9119 0
M  V30 9661 H 893.531 -0.182056 -4.09996 0
M  V30 9662 H 893.062 1.46513 -3.65099 0
M  V30 9663 H 895.077 2.58352 -4.23638 0
M  V30 9664 N 894.251 1.57596 -0.0117121 0
M  V30 9665 C 895.199 2.1029 0.994035 0
M  V30 9666 C 896.193 1.02549 1.34833 0
M  V30 9667 O 897.399 1.21003 1.3326 0
M  V30 9668 H 893.774 0.671624 0.338268 0
M  V30 9669 H 895.745 2.93761 0.524147 0
M  V30 9670 C 894.494 2.63099 2.27319 0
M  V30 9671 H 893.817 3.45642 2.00927 0
M  V30 9672 H 895.257 3.03635 2.95942 0
M  V30 9673 C 893.716 1.55044 2.99104 0
M  V30 9674 O 894.246 0.940127 3.90544 0
M  V30 9675 N 892.452 1.27506 2.61133 0
M  V30 9676 H 891.999 1.77322 1.86855 0
M  V30 9677 H 891.957 0.554292 3.09475 0
M  V30 9678 N 895.729 -0.261212 1.5542 0
M  V30 9679 C 896.661 -1.34571 1.85535 0
M  V30 9680 C 897.674 -1.44979 0.740612 0
M  V30 9681 O 898.863 -1.46584 1.01859 0
M  V30 9682 C 895.963 -2.7258 2.01378 0
M  V30 9683 C 895.136 -2.84618 3.32131 0
M  V30 9684 C 894.195 -4.03379 3.37893 0
M  V30 9685 O 893.221 -3.93581 4.11197 0
M  V30 9686 N 894.423 -5.15893 2.66148 0
M  V30 9687 H 897.188 -1.09078 2.79145 0
M  V30 9688 H 894.749 -0.451327 1.55482 0
M  V30 9689 H 896.741 -3.50342 2.0259 0
M  V30 9690 H 895.311 -2.90844 1.14579 0
M  V30 9691 H 894.531 -1.93647 3.43358 0
M  V30 9692 H 895.819 -2.896 4.18341 0
M  V30 9693 H 895.217 -5.26743 2.06297 0
M  V30 9694 H 893.774 -5.91842 2.73069 0
M  V30 9695 N 897.207 -1.48554 -0.526253 0
M  V30 9696 C 898.456 -1.56014 -1.27837 0
M  V30 9697 C 898.769 -0.240643 -1.94114 0
M  V30 9698 O 899.975 -0.193525 -2.70809 0
M  V30 9699 C 898.431 -2.75161 -2.31979 0
M  V30 9700 C 898.039 -4.13768 -1.71755 0
M  V30 9701 C 899.783 -2.91936 -3.08178 0
M  V30 9702 C 897.69 -5.24171 -2.7386 0
M  V30 9703 H 896.62 -0.58082 -0.480795 0
M  V30 9704 H 899.271 -1.74895 -0.555335 0
M  V30 9705 H 897.653 -2.49722 -3.07335 0
M  V30 9706 H 898.827 -4.49241 -1.02563 0
M  V30 9707 H 897.142 -4.02141 -1.08036 0
M  V30 9708 H 899.739 -3.71586 -3.84484 0
M  V30 9709 H 900.082 -2.01533 -3.64267 0
M  V30 9710 H 900.615 -3.17294 -2.39937 0
M  V30 9711 H 897.354 -6.16552 -2.22586 0
M  V30 9712 H 896.874 -4.93181 -3.41368 0
M  V30 9713 H 898.553 -5.52442 -3.36774 0
M  V30 9714 N 898.685 0.775411 -1.37205 0
M  V30 9715 C 899.648 1.8702 -1.325 0
M  V30 9716 C 900.648 1.5915 -0.229793 0
M  V30 9717 O 901.838 1.673 -0.485423 0
M  V30 9718 C 898.97 3.24085 -1.05745 0
M  V30 9719 H 900.163 1.92604 -2.29878 0
M  V30 9720 H 897.716 0.97476 -1.22181 0
M  V30 9721 H 898.451 3.24178 -0.0888371 0
M  V30 9722 H 898.236 3.45705 -1.85016 0
M  V30 9723 H 899.726 4.0416 -1.05094 0
M  V30 9724 N 900.163 1.21714 1.00117 0
M  V30 9725 C 901.111 0.976937 2.11089 0
M  V30 9726 C 902.105 -0.0771295 1.69224 0
M  V30 9727 O 903.311 0.0745945 1.79845 0
M  V30 9728 H 899.686 0.298687 0.690138 0
M  V30 9729 H 901.657 1.91881 2.28526 0
M  V30 9730 C 900.406 0.562369 3.43122 0
M  V30 9731 H 899.729 1.36509 3.75773 0
M  V30 9732 H 901.169 0.433642 4.21777 0
M  V30 9733 C 899.628 -0.727148 3.28959 0
M  V30 9734 O 900.158 -1.78171 3.60025 0
M  V30 9735 N 898.364 -0.695129 2.82164 0
M  V30 9736 H 897.911 0.163346 2.57082 0
M  V30 9737 H 897.869 -1.55822 2.73069 0
M  V30 9738 N 901.641 -1.19671 1.02551 0
M  V30 9739 C 902.551 -2.26441 0.613329 0
M  V30 9740 C 903.567 -1.70375 -0.353339 0
M  V30 9741 O 904.743 -2.0028 -0.212064 0
M  V30 9742 C 901.808 -3.46684 -0.0329028 0
M  V30 9743 C 900.869 -4.17945 0.980837 0
M  V30 9744 C 900.102 -5.32448 0.36535 0
M  V30 9745 O 900.325 -5.64291 -0.832596 0
M  V30 9746 O 899.259 -5.92012 1.08652 0
M  V30 9747 H 903.085 -2.63932 1.50246 0
M  V30 9748 H 900.67 -1.2646 0.795502 0
M  V30 9749 H 902.552 -4.1956 -0.393395 0
M  V30 9750 H 901.227 -3.1105 -0.896089 0
M  V30 9751 H 900.134 -3.47204 1.39286 0
M  V30 9752 H 901.467 -4.57542 1.81428 0
M  V30 9753 N 903.119 -0.802921 -1.35613 0
M  V30 9754 C 904.049 -0.225131 -2.32412 0
M  V30 9755 C 905.03 0.647383 -1.57299 0
M  V30 9756 O 906.215 0.578414 -1.85386 0
M  V30 9757 C 903.345 0.630085 -3.41537 0
M  V30 9758 C 902.299 -0.143635 -4.27759 0
M  V30 9759 C 901.625 0.833046 -5.28171 0
M  V30 9760 C 902.925 -1.34054 -5.04804 0
M  V30 9761 H 904.619 -1.03385 -2.80984 0
M  V30 9762 H 902.165 -0.498593 -1.35093 0
M  V30 9763 H 904.118 1.04433 -4.08254 0
M  V30 9764 H 902.842 1.47165 -2.91565 0
M  V30 9765 H 901.501 -0.539015 -3.62616 0
M  V30 9766 H 901.149 1.67001 -4.74468 0
M  V30 9767 H 900.849 0.319697 -5.8673 0
M  V30 9768 H 902.373 1.24558 -5.97761 0
M  V30 9769 H 903.787 -1.00136 -5.64487 0
M  V30 9770 H 902.184 -1.78812 -5.72841 0
M  V30 9771 H 903.254 -2.12906 -4.35659 0
M  V30 9772 N 904.597 1.47463 -0.556102 0
M  V30 9773 C 905.837 2.04372 -0.0339743 0
M  V30 9774 C 906.201 1.42125 1.29091 0
M  V30 9775 O 907.402 1.90074 1.90066 0
M  V30 9776 C 905.673 3.57352 0.0585316 0
M  V30 9777 S 907.232 4.35625 0.526943 0
M  V30 9778 H 904.05 0.710574 -0.0246115 0
M  V30 9779 H 906.652 1.80848 -0.742585 0
M  V30 9780 H 905.356 4.00181 -0.910116 0
M  V30 9781 H 904.887 3.85371 0.790731 0
M  V30 9782 H 906.902 4.62911 1.78683 0
M  V30 9783 N 906.075 0.2925 1.54862 0
M  V30 9784 C 906.985 -0.597036 2.26876 0
M  V30 9785 C 908.001 -1.15558 1.30086 0
M  V30 9786 O 909.177 -1.18217 1.63054 0
M  V30 9787 C 906.242 -1.75664 2.98903 0
M  V30 9788 C 905.303 -1.23303 4.11212 0
M  V30 9789 C 904.536 -2.33736 4.79795 0
M  V30 9790 O 904.759 -3.53459 4.47686 0
M  V30 9791 O 903.693 -2.00908 5.67379 0
M  V30 9792 H 907.519 -0.0131242 3.03697 0
M  V30 9793 H 905.104 0.0592642 1.49282 0
M  V30 9794 H 906.986 -2.43241 3.4411 0
M  V30 9795 H 905.661 -2.32731 2.24984 0
M  V30 9796 H 904.568 -0.523222 3.70423 0
M  V30 9797 H 905.901 -0.707887 4.87083 0
M  V30 9798 N 907.553 -1.57587 0.0200696 0
M  V30 9799 C 908.793 -1.93287 -0.66479 0
M  V30 9800 C 909.157 -0.896022 -1.6981 0
M  V30 9801 O 910.358 -1.13892 -2.43479 0
M  V30 9802 C 908.629 -3.33949 -1.27328 0
M  V30 9803 S 910.188 -3.91564 -1.98047 0
M  V30 9804 H 907.006 -0.676397 -0.219106 0
M  V30 9805 H 909.608 -1.9533 0.081568 0
M  V30 9806 H 908.312 -4.07235 -0.508673 0
M  V30 9807 H 907.843 -3.35329 -2.05714 0
M  V30 9808 H 909.858 -3.74265 -3.25791 0
M  V30 9809 N 909.032 0.252966 -1.55557 0
M  V30 9810 C 910.443 0.822503 -1.67606 0
M  V30 9811 C 910.794 1.86265 -0.616411 0
M  V30 9812 O 909.919 2.15082 0.238447 0
M  V30 9813 C 910.514 1.49866 -3.03852 0
M  V30 9814 C 909.073 2.01597 -3.17861 0
M  V30 9815 C 908.22 0.864943 -2.63465 0
M  V30 9816 H 911.171 0.0288958 -1.58674 0
M  V30 9817 H 911.192 2.36646 -2.97958 0
M  V30 9818 H 910.704 0.741378 -3.80953 0
M  V30 9819 H 908.805 2.80224 -2.45571 0
M  V30 9820 H 908.918 2.21752 -4.24692 0
M  V30 9821 H 907.282 1.2638 -2.21134 0
M  V30 9822 H 908.065 0.120847 -3.43087 0
M  V30 9823 N 910.51 1.48831 0.518367 0
M  V30 9824 C 911.42 1.6692 1.64848 0
M  V30 9825 C 912.436 0.551711 1.65022 0
M  V30 9826 O 913.612 0.824251 1.83761 0
M  V30 9827 C 910.677 1.71559 3.01278 0
M  V30 9828 C 909.738 2.9502 3.11868 0
M  V30 9829 C 908.971 2.99428 4.4179 0
M  V30 9830 O 909.194 2.11914 5.29574 0
M  V30 9831 O 908.128 3.91719 4.5699 0
M  V30 9832 H 911.954 2.62623 1.52521 0
M  V30 9833 H 909.539 1.32368 0.692749 0
M  V30 9834 H 911.421 1.77064 3.82396 0
M  V30 9835 H 910.096 0.790316 3.13904 0
M  V30 9836 H 909.003 2.95042 2.30003 0
M  V30 9837 H 910.336 3.8697 3.04163 0
M  V30 9838 N 911.988 -0.768124 1.37614 0
M  V30 9839 C 912.918 -1.89537 1.36374 0
M  V30 9840 C 913.899 -1.68513 0.231803 0
M  V30 9841 O 915.084 -1.89318 0.432705 0
M  V30 9842 C 912.214 -3.26871 1.17358 0
M  V30 9843 C 911.168 -3.62466 2.27602 0
M  V30 9844 C 910.494 -4.9838 1.93705 0
M  V30 9845 C 911.794 -3.68841 3.69802 0
M  V30 9846 H 913.488 -1.90832 2.30702 0
M  V30 9847 H 911.034 -0.91672 1.11051 0
M  V30 9848 H 912.987 -4.05371 1.15119 0
M  V30 9849 H 911.711 -3.26018 0.194865 0
M  V30 9850 H 910.37 -2.86276 2.29002 0
M  V30 9851 H 910.018 -4.94071 0.943539 0
M  V30 9852 H 909.718 -5.23165 2.6753 0
M  V30 9853 H 911.242 -5.79276 1.93059 0
M  V30 9854 H 912.656 -4.37485 3.70513 0
M  V30 9855 H 911.053 -4.05126 4.42711 0
M  V30 9856 H 912.123 -2.69415 4.03167 0
M  V30 9857 N 913.466 -1.22244 -0.994698 0
M  V30 9858 C 914.396 -1.01513 -2.10279 0
M  V30 9859 C 915.377 0.0633365 -1.69982 0
M  V30 9860 O 916.562 -0.0985268 -1.9395 0
M  V30 9861 C 913.692 -0.59016 -3.42249 0
M  V30 9862 C 912.646 -1.61436 -3.96387 0
M  V30 9863 C 911.972 -1.04528 -5.24383 0
M  V30 9864 C 913.272 -3.00388 -4.27276 0
M  V30 9865 H 914.966 -1.94194 -2.2788 0
M  V30 9866 H 912.512 -0.935094 -1.09508 0
M  V30 9867 H 914.465 -0.432254 -4.19177 0
M  V30 9868 H 913.189 0.372308 -3.24471 0
M  V30 9869 H 911.848 -1.76001 -3.21589 0
M  V30 9870 H 911.496 -0.0742225 -5.02945 0
M  V30 9871 H 911.196 -1.72949 -5.61571 0
M  V30 9872 H 912.72 -0.898922 -6.03947 0
M  V30 9873 H 914.134 -2.89207 -4.95007 0
M  V30 9874 H 912.531 -3.65916 -4.75631 0
M  V30 9875 H 913.601 -3.50456 -3.35125 0
M  V30 9876 N 914.944 1.19125 -1.03184 0
M  V30 9877 C 916.192 1.8851 -0.728587 0
M  V30 9878 C 916.513 1.80195 0.74531 0
M  V30 9879 O 915.783 1.21437 1.5372 0
M  V30 9880 H 914.363 0.69784 -0.266511 0
M  V30 9881 H 917.025 1.44607 -1.3067 0
M  V30 9882 H 916.121 2.9477 -1.02554 0
M  V30 9883 N 916.422 0.810101 1.35185 0
M  V30 9884 C 917.647 0.40364 2.03434 0
M  V30 9885 C 918.072 -0.97857 1.60641 0
M  V30 9886 O 917.43 -1.63435 0.784779 0
M  V30 9887 C 917.478 0.499154 3.57129 0
M  V30 9888 O 916.582 -0.486039 4.09526 0
M  V30 9889 H 915.923 0.168049 0.642383 0
M  V30 9890 H 918.453 1.09696 1.72708 0
M  V30 9891 H 918.463 0.370236 4.06317 0
M  V30 9892 H 917.138 1.50733 3.87624 0
M  V30 9893 H 915.715 -0.31707 3.7155 0
M  V30 9894 N 917.9 -1.47166 0.563914 0
M  V30 9895 C 918.863 -2.28571 -0.169624 0
M  V30 9896 C 919.863 -1.37331 -0.836467 0
M  V30 9897 O 921.053 -1.59896 -0.6913 0
M  V30 9898 C 918.185 -3.17201 -1.24886 0
M  V30 9899 H 919.378 -2.94896 0.545539 0
M  V30 9900 H 916.931 -1.52966 0.321121 0
M  V30 9901 H 917.666 -2.55582 -1.99621 0
M  V30 9902 H 917.451 -3.84356 -0.775426 0
M  V30 9903 H 918.941 -3.7852 -1.76388 0
M  V30 9904 N 919.378 -0.300708 -1.54705 0
M  V30 9905 C 920.625 0.308654 -2.00134 0
M  V30 9906 C 920.953 1.53918 -1.1891 0
M  V30 9907 O 920.208 1.94054 -0.253263 0
M  V30 9908 C 920.507 0.710108 -3.50275 0
M  V30 9909 C 920.173 -0.418651 -4.48952 0
M  V30 9910 C 918.835 -0.728524 -4.75653 0
M  V30 9911 C 921.187 -1.17797 -5.07714 0
M  V30 9912 C 918.515 -1.80085 -5.58378 0
M  V30 9913 C 920.867 -2.24022 -5.91606 0
M  V30 9914 C 919.531 -2.55616 -6.16617 0
M  V30 9915 H 918.801 0.112945 -0.732342 0
M  V30 9916 H 921.448 -0.419744 -1.86843 0
M  V30 9917 H 919.753 1.51859 -3.61173 0
M  V30 9918 H 921.45 1.19277 -3.8285 0
M  V30 9919 H 918.04 -0.167034 -4.28274 0
M  V30 9920 H 922.224 -0.951835 -4.87087 0
M  V30 9921 H 917.48 -2.05036 -5.75995 0
M  V30 9922 H 921.654 -2.83317 -6.36164 0
M  V30 9923 H 919.281 -3.38839 -6.80509 0
M  V30 9924 N 920.856 1.57574 -0.0284266 0
M  V30 9925 C 922.272 1.56194 0.327958 0
M  V30 9926 C 922.472 1.03397 1.72949 0
M  V30 9927 O 921.528 0.680392 2.4316 0
M  V30 9928 C 922.841 3.00177 0.177196 0
M  V30 9929 C 924.389 3.12 0.250014 0
M  V30 9930 C 924.864 4.57821 0.128049 0
M  V30 9931 N 926.355 4.6283 0.185054 0
M  V30 9932 C 927.09 5.73286 0.114454 0
M  V30 9933 N 926.586 6.928 -0.00719225 0
M  V30 9934 N 928.379 5.61848 0.16839 0
M  V30 9935 H 920.53 1.90224 -0.944921 0
M  V30 9936 H 922.793 0.874987 -0.364832 0
M  V30 9937 H 922.499 3.42753 -0.788224 0
M  V30 9938 H 922.373 3.65101 0.94768 0
M  V30 9939 H 924.76 2.69337 1.20589 0
M  V30 9940 H 924.841 2.49799 -0.550835 0
M  V30 9941 H 924.485 5.01165 -0.824407 0
M  V30 9942 H 924.415 5.18001 0.947753 0
M  V30 9943 H 926.906 3.76867 0.279247 0
M  V30 9944 H 927.219 7.72781 -0.0543903 0
M  V30 9945 H 925.564 6.94987 -0.0419648 0
M  V30 9946 H 928.755 4.67367 0.261821 0
M  V30 9947 H 928.928 6.47907 0.109908 0
M  V30 9948 N 922.334 -0.244713 1.55689 0
M  V30 9949 C 923.281 -1.30301 1.905 0
M  V30 9950 C 924.251 -1.4772 0.759478 0
M  V30 9951 O 925.436 -1.61667 1.01333 0
M  V30 9952 C 922.576 -2.653 2.20703 0
M  V30 9953 C 921.689 -2.55872 3.48071 0
M  V30 9954 C 920.824 -3.83238 3.67834 0
M  V30 9955 C 919.863 -3.68436 4.88796 0
M  V30 9956 N 919 -4.877 5.05068 0
M  V30 9957 H 923.84 -0.999143 2.80751 0
M  V30 9958 H 921.377 -0.482099 1.38976 0
M  V30 9959 H 923.335 -3.43884 2.36219 0
M  V30 9960 H 921.965 -2.93831 1.33653 0
M  V30 9961 H 921.017 -1.68846 3.40874 0
M  V30 9962 H 922.329 -2.40845 4.36801 0
M  V30 9963 H 921.483 -4.70266 3.83321 0
M  V30 9964 H 920.222 -4.01165 2.77341 0
M  V30 9965 H 919.227 -2.79793 4.73282 0
M  V30 9966 H 920.452 -3.52003 5.8075 0
M  V30 9967 H 918.398 -5.05983 4.17513 0
M  V30 9968 H 918.315 -4.75312 5.8789 0
M  V30 9969 H 919.583 -5.76219 5.24969 0
M  V30 9970 N 923.813 -1.49104 -0.510467 0
M  V30 9971 C 925.059 -1.58346 -1.26705 0
M  V30 9972 C 925.392 -0.265121 -1.92382 0
M  V30 9973 O 924.667 0.730558 -1.80258 0
M  V30 9974 C 924.95 -2.7359 -2.34137 0
M  V30 9975 C 924.803 -4.1519 -1.73024 0
M  V30 9976 C 926.122 -2.84511 -3.3577 0
M  V30 9977 H 923.241 -0.57637 -0.459311 0
M  V30 9978 H 925.883 -1.81353 -0.566658 0
M  V30 9979 H 924.033 -2.54105 -2.93876 0
M  V30 9980 H 925.705 -4.46167 -1.17186 0
M  V30 9981 H 923.948 -4.21279 -1.03473 0
M  V30 9982 H 924.619 -4.91683 -2.50903 0
M  V30 9983 H 927.095 -3.0222 -2.86011 0
M  V30 9984 H 925.971 -3.6684 -4.08313 0
M  V30 9985 H 926.232 -1.93471 -3.97519 0
M  V30 9986 N 925.291 0.760815 -1.38019 0
M  V30 9987 C 926.238 1.8744 -1.34666 0
M  V30 9988 C 927.208 1.64762 -0.210386 0
M  V30 9989 O 928.393 1.86528 -0.401479 0
M  V30 9990 C 925.533 3.24648 -1.17037 0
M  V30 9991 C 924.646 3.59206 -2.3999 0
M  V30 9992 C 923.781 4.8568 -2.15148 0
M  V30 9993 C 922.82 5.13002 -3.3391 0
M  V30 9994 N 921.957 6.30668 -3.08549 0
M  V30 9995 H 926.797 1.8964 -2.29871 0
M  V30 9996 H 924.334 0.927004 -1.14215 0
M  V30 9997 H 926.292 4.03814 -1.04834 0
M  V30 9998 H 924.922 3.21793 -0.254758 0
M  V30 9999 H 923.974 2.74939 -2.62893 0
M  V30 10000 H 925.286 3.75328 -3.28527 0
M  V30 10001 H 924.44 5.72773 -2.00039 0
M  V30 10002 H 923.179 4.71682 -1.23965 0
M  V30 10003 H 922.184 4.2438 -3.49545 0
M  V30 10004 H 923.409 5.28901 -4.25958 0
M  V30 10005 H 921.355 6.18008 -2.20006 0
M  V30 10006 H 921.272 6.47257 -3.90633 0
M  V30 10007 H 922.54 7.20669 -2.9708 0
M  V30 10008 N 926.769 1.22769 0.988202 0
M  V30 10009 C 927.999 1.07998 1.76125 0
M  V30 10010 C 928.407 -0.372062 1.85506 0
M  V30 10011 O 927.75 -1.26946 1.3278 0
M  V30 10012 C 927.812 1.6219 3.20834 0
M  V30 10013 C 927.476 3.1086 3.34986 0
M  V30 10014 C 928.473 4.08239 3.21927 0
M  V30 10015 C 926.158 3.50411 3.59886 0
M  V30 10016 C 928.152 5.43154 3.33561 0
M  V30 10017 C 925.839 4.85473 3.71159 0
M  V30 10018 C 926.837 5.81653 3.58006 0
M  V30 10019 O 926.525 7.14263 3.68895 0
M  V30 10020 H 926.257 0.378937 0.559806 0
M  V30 10021 H 928.811 1.62925 1.25078 0
M  V30 10022 H 927.041 1.01676 3.73094 0
M  V30 10023 H 928.73 1.43011 3.79872 0
M  V30 10024 H 929.496 3.79025 3.02597 0
M  V30 10025 H 925.375 2.76068 3.69198 0
M  V30 10026 H 928.919 6.18207 3.23211 0
M  V30 10027 H 924.816 5.14365 3.89998 0
M  V30 10028 H 925.584 7.21906 3.85739 0
M  V30 10029 N 928.247 -1.18576 1.03814 0
M  V30 10030 C 929.472 -1.92978 0.759873 0
M  V30 10031 C 929.897 -1.75514 -0.676486 0
M  V30 10032 O 929.255 -1.06359 -1.46824 0
M  V30 10033 C 929.303 -3.42507 1.12788 0
M  V30 10034 O 928.407 -4.1163 0.251886 0
M  V30 10035 H 927.748 -0.602129 0.279886 0
M  V30 10036 H 930.278 -1.50383 1.3873 0
M  V30 10037 H 930.288 -3.93206 1.08872 0
M  V30 10038 H 928.963 -3.5454 2.17427 0
M  V30 10039 H 927.54 -3.7125 0.350441 0
M  V30 10040 N 929.725 -0.817259 -1.34754 0
M  V30 10041 C 930.973 -0.401852 -1.98065 0
M  V30 10042 C 931.294 1.03718 -1.65129 0
M  V30 10043 O 930.564 1.71921 -0.939141 0
M  V30 10044 H 929.144 -0.145603 -0.732672 0
M  V30 10045 H 931.806 -1.04545 -1.64488 0
M  V30 10046 H 930.902 -0.516241 -3.07801 0
M  V30 10047 N 931.203 1.46865 -0.571711 0
M  V30 10048 C 932.428 2.07323 -0.0564655 0
M  V30 10049 C 932.853 1.41938 1.23431 0
M  V30 10050 O 932.211 0.499334 1.74288 0
M  V30 10051 C 932.259 3.6044 0.107339 0
M  V30 10052 O 931.363 3.95558 1.1665 0
M  V30 10053 H 930.704 0.661475 -0.0578465 0
M  V30 10054 H 933.234 1.88669 -0.791524 0
M  V30 10055 H 933.244 4.06767 0.316987 0
M  V30 10056 H 931.919 4.07425 -0.835348 0
M  V30 10057 H 930.496 3.60957 0.936189 0
M  V30 10058 N 932.681 0.308908 1.54543 0
M  V30 10059 C 933.628 -0.563659 2.23811 0
M  V30 10060 C 934.598 -1.12332 1.22355 0
M  V30 10061 O 935.783 -1.16638 1.50997 0
M  V30 10062 C 932.923 -1.72585 2.98845 0
M  V30 10063 C 932.036 -1.19682 4.1509 0
M  V30 10064 C 931.171 -2.32351 4.77688 0
M  V30 10065 C 930.21 -1.76623 5.86064 0
M  V30 10066 N 929.347 -2.82896 6.42584 0
M  V30 10067 H 934.187 0.0336288 2.97981 0
M  V30 10068 H 931.724 0.0283666 1.47073 0
M  V30 10069 H 933.682 -2.40951 3.40586 0
M  V30 10070 H 932.312 -2.29464 2.27037 0
M  V30 10071 H 931.364 -0.405173 3.78236 0
M  V30 10072 H 932.676 -0.748923 4.93146 0
M  V30 10073 H 931.83 -3.0865 5.22322 0
M  V30 10074 H 930.569 -2.80472 3.98982 0
M  V30 10075 H 929.574 -0.988171 5.40847 0
M  V30 10076 H 930.799 -1.29398 6.66658 0
M  V30 10077 H 928.745 -3.30336 5.66758 0
M  V30 10078 H 928.662 -2.42626 7.16009 0
M  V30 10079 H 929.93 -3.59068 6.91875 0
M  V30 10080 N 934.159 -1.57557 0.0367827 0
M  V30 10081 C 935.387 -1.96419 -0.650168 0
M  V30 10082 C 935.802 -0.913656 -1.6522 0
M  V30 10083 O 935.159 0.103718 -1.82205 0
M  V30 10084 C 935.21 -3.35355 -1.3498 0
M  V30 10085 O 934.931 -4.36379 -0.387905 0
M  V30 10086 C 936.432 -3.88892 -2.12786 0
M  V30 10087 H 933.652 -0.646751 -0.178756 0
M  V30 10088 H 936.196 -2.04261 0.0988197 0
M  V30 10089 H 934.351 -3.28708 -2.05012 0
M  V30 10090 H 934.765 -5.16969 -0.885596 0
M  V30 10091 H 936.239 -4.88428 -2.5718 0
M  V30 10092 H 936.716 -3.23547 -2.97008 0
M  V30 10093 H 937.322 -3.98831 -1.47694 0
M  V30 10094 N 935.637 0.236453 -1.55816 0
M  V30 10095 C 936.914 0.986463 -1.68903 0
M  V30 10096 C 937.294 2.02984 -0.579722 0
M  V30 10097 O 936.642 2.24693 0.415389 0
M  V30 10098 C 936.852 1.61038 -3.09625 0
M  V30 10099 C 938.2 2.10829 -3.6856 0
M  V30 10100 O 939.224 1.7096 -3.12492 0
M  V30 10101 O 938.083 2.84064 -4.66873 0
M  V30 10102 H 935.177 0.459837 -0.687371 0
M  V30 10103 H 937.723 0.229412 -1.68142 0
M  V30 10104 H 936.495 0.856232 -3.81817 0
M  V30 10105 H 936.118 2.43336 -3.14441 0
M  V30 10106 N 937.115 1.49373 0.502552 0
M  V30 10107 C 938.34 1.62752 1.28556 0
M  V30 10108 C 938.765 0.298285 1.8572 0
M  V30 10109 O 938.123 -0.733885 1.65782 0
M  V30 10110 C 938.171 2.69778 2.39274 0
M  V30 10111 O 937.275 2.28843 3.43081 0
M  V30 10112 H 936.616 0.544799 0.379592 0
M  V30 10113 H 939.146 1.9555 0.601792 0
M  V30 10114 H 939.156 2.91899 2.8506 0
M  V30 10115 H 937.831 3.66266 1.97033 0
M  V30 10116 H 936.408 2.17047 3.03224 0
M  V30 10117 N 938.594 -0.753485 1.38421 0
M  V30 10118 C 939.819 -1.54783 1.38047 0
M  V30 10119 C 940.244 -1.8808 -0.0276371 0
M  V30 10120 O 939.602 -1.5058 -1.00973 0
M  V30 10121 C 939.65 -2.82353 2.24297 0
M  V30 10122 O 938.754 -3.77509 1.66014 0
M  V30 10123 H 938.095 -0.468151 0.470883 0
M  V30 10124 H 940.625 -0.931144 1.82184 0
M  V30 10125 H 940.635 -3.31277 2.38159 0
M  V30 10126 H 939.31 -2.57449 3.26639 0
M  V30 10127 H 937.887 -3.36212 1.61294 0
M  V30 10128 N 940.072 -1.23292 -0.981677 0
M  V30 10129 C 941.02 -1.0104 -2.09508 0
M  V30 10130 C 942.014 0.0501977 -1.69326 0
M  V30 10131 O 943.22 -0.103197 -1.79704 0
M  V30 10132 H 939.595 -0.309629 -0.685298 0
M  V30 10133 H 941.566 -1.95493 -2.25444 0
M  V30 10134 C 940.315 -0.616885 -3.42184 0
M  V30 10135 H 939.638 -1.4247 -3.73554 0
M  V30 10136 H 941.078 -0.500688 -4.21033 0
M  V30 10137 C 939.537 0.674721 -3.30074 0
M  V30 10138 O 940.067 1.72421 -3.62814 0
M  V30 10139 N 938.273 0.650151 -2.83234 0
M  V30 10140 H 937.82 -0.204225 -2.56789 0
M  V30 10141 H 937.778 1.51458 -2.75514 0
M  V30 10142 O 941.589 1.11335 -1.1699 0
M  V30 10143 H 942.28 1.71257 -0.905032 0
M  V30 END ATOM
M  V30 BEGIN BOND
M  V30 END BOND
M  V30 END CTAB
M  END
$$$$
