drugbank_target|Q13258 Prostaglandin D2 receptor (DB00716)
 OpenBabel12092119283D

  0  0  0     0  0            999 V3000
M  V30 BEGIN CTAB
M  V30 COUNTS 5722 5791 0 0 0
M  V30 BEGIN ATOM
M  V30 1 H -0.908 1.98254 -0.117106 0
M  V30 2 N 0 1.576 0 0
M  V30 3 C 0.933 2.03868 1.02534 0
M  V30 4 C 1.911 0.928543 1.3348 0
M  V30 5 O 3.095 1.19667 1.45644 0
M  V30 6 C 0.222 2.43627 2.35294 0
M  V30 7 C -0.732 3.65373 2.2001 0
M  V30 8 S 0.101 5.13292 1.52614 0
M  V30 9 C 1.257 5.56322 2.86805 0
M  V30 10 H 1.49 2.90518 0.631377 0
M  V30 11 H -0.977 1.52953 0.210867 0
M  V30 12 H 0.981 2.67203 3.11629 0
M  V30 13 H -0.358 1.57376 2.7183 0
M  V30 14 H -1.165 3.90944 3.18086 0
M  V30 15 H -1.563 3.418 1.51819 0
M  V30 16 H 0.729 5.58782 3.83104 0
M  V30 17 H 1.672 6.56266 2.65933 0
M  V30 18 H 2.08 4.83886 2.90714 0
M  V30 19 N 1.4781 -0.272755 1.55222 0
M  V30 20 C 2.4251 -1.33716 1.88119 0
M  V30 21 C 3.3951 -1.49066 0.73271 0
M  V30 22 O 4.5801 -1.63469 0.984002 0
M  V30 23 C 1.7201 -2.69238 2.15882 0
M  V30 24 C 0.8331 -2.62108 3.43399 0
M  V30 25 C -0.0319 -3.89811 3.60861 0
M  V30 26 C -0.9929 -3.77193 4.8207 0
M  V30 27 N -1.8559 -4.9673 4.96189 0
M  V30 28 H 2.9841 -1.04962 2.78903 0
M  V30 29 H 0.5211 -0.507088 1.38083 0
M  V30 30 H 2.4791 -3.48089 2.29978 0
M  V30 31 H 1.1091 -2.96194 1.28331 0
M  V30 32 H 0.1611 -1.74967 3.37773 0
M  V30 33 H 1.4731 -2.48685 4.32386 0
M  V30 34 H 0.6271 -4.77103 3.74777 0
M  V30 35 H -0.6339 -4.06102 2.7006 0
M  V30 36 H -1.6289 -2.88284 4.68159 0
M  V30 37 H -0.4039 -3.62421 5.74307 0
M  V30 38 H -2.4579 -5.13431 4.08319 0
M  V30 39 H -2.5409 -4.85839 5.79221 0
M  V30 40 H -1.2729 -5.85594 5.1449 0
M  V30 41 N 2.9562 -1.48159 -0.537278 0
M  V30 42 C 4.1812 -1.59707 -1.32319 0
M  V30 43 C 4.6062 -0.254859 -1.86365 0
M  V30 44 O 3.9642 0.772378 -1.64024 0
M  V30 45 C 4.0122 -2.6412 -2.45505 0
M  V30 46 O 3.1162 -2.20774 -3.48328 0
M  V30 47 H 2.4572 -0.535791 -0.392204 0
M  V30 48 H 4.9872 -1.94092 -0.647268 0
M  V30 49 H 4.9972 -2.85166 -2.91795 0
M  V30 50 H 3.6722 -3.61567 -2.05528 0
M  V30 51 H 2.2492 -2.09911 -3.08207 0
M  V30 52 N 4.4343 0.785586 -1.36625 0
M  V30 53 C 5.8453 1.36101 -1.27803 0
M  V30 54 C 6.1963 1.96035 0.0804875 0
M  V30 55 O 5.3213 1.92834 0.982042 0
M  V30 56 C 5.9163 2.47442 -2.31426 0
M  V30 57 C 4.4753 3.00789 -2.26281 0
M  V30 58 C 3.6223 1.73896 -2.15999 0
M  V30 59 H 6.5733 0.586928 -1.47448 0
M  V30 60 H 6.5943 3.2656 -1.95291 0
M  V30 61 H 6.1063 2.03791 -3.30289 0
M  V30 62 H 4.2073 3.48851 -1.30896 0
M  V30 63 H 4.3203 3.57343 -3.19128 0
M  V30 64 H 2.6843 1.9628 -1.62316 0
M  V30 65 H 3.4673 1.32368 -3.16755 0
M  V30 66 N 5.9124 1.20967 1.01018 0
M  V30 67 C 7.1594 1.02374 1.74716 0
M  V30 68 C 7.4874 -0.443375 1.89379 0
M  V30 69 O 6.7424 -1.34535 1.42123 0
M  V30 70 C 7.0414 1.65997 3.16512 0
M  V30 71 C 6.7074 3.15831 3.2181 0
M  V30 72 C 5.3694 3.56719 3.22963 0
M  V30 73 C 7.7214 4.11816 3.19464 0
M  V30 74 C 5.0494 4.92107 3.19449 0
M  V30 75 C 7.4014 5.47158 3.17491 0
M  V30 76 C 6.0654 5.87451 3.16951 0
M  V30 77 H 5.3354 0.374614 0.639332 0
M  V30 78 H 7.9824 1.50485 1.18434 0
M  V30 79 H 6.2874 1.10166 3.75993 0
M  V30 80 H 7.9844 1.49119 3.72242 0
M  V30 81 H 4.5744 2.83263 3.21652 0
M  V30 82 H 8.7584 3.81257 3.17737 0
M  V30 83 H 4.0144 5.22579 3.17366 0
M  V30 84 H 8.1884 6.21274 3.14629 0
M  V30 85 H 5.8154 6.92329 3.13983 0
M  V30 86 N 7.3905 -1.2043 1.01659 0
M  V30 87 C 8.6205 -1.93496 0.724081 0
M  V30 88 C 9.0285 -1.74998 -0.71918 0
M  V30 89 O 8.3715 -1.06118 -1.49949 0
M  V30 90 C 8.4335 -3.45886 0.97994 0
M  V30 91 C 8.0975 -3.88145 2.41232 0
M  V30 92 C 9.0945 -3.93907 3.39313 0
M  V30 93 C 6.7795 -4.20134 2.75305 0
M  V30 94 C 8.7735 -4.31069 4.6953 0
M  V30 95 C 6.4605 -4.56971 4.05735 0
M  V30 96 C 7.4585 -4.62411 5.02658 0
M  V30 97 O 7.1465 -4.98403 6.30754 0
M  V30 98 H 6.8785 -0.621824 0.265162 0
M  V30 99 H 9.4325 -1.53867 1.36066 0
M  V30 100 H 7.6625 -3.85639 0.286198 0
M  V30 101 H 9.3515 -4.0018 0.679021 0
M  V30 102 H 10.1175 -3.69357 3.14325 0
M  V30 103 H 5.9965 -4.1509 2.00551 0
M  V30 104 H 9.5405 -4.3523 5.45179 0
M  V30 105 H 5.4375 -4.80977 4.30502 0
M  V30 106 H 6.2055 -5.16395 6.35042 0
M  V30 107 N 8.8686 -0.792821 -1.36206 0
M  V30 108 C 10.2846 -0.474903 -1.52371 0
M  V30 109 C 10.4846 1.00622 -1.74578 0
M  V30 110 O 9.5406 1.79162 -1.77924 0
M  V30 111 C 10.8536 -1.3083 -2.70747 0
M  V30 112 C 12.4016 -1.30234 -2.84619 0
M  V30 113 C 12.8766 -2.11956 -4.06004 0
M  V30 114 N 14.3676 -2.09419 -4.13156 0
M  V30 115 C 15.1026 -2.69419 -5.06163 0
M  V30 116 N 14.5986 -3.3829 -6.04592 0
M  V30 117 N 16.3916 -2.59134 -4.98804 0
M  V30 118 H 8.5426 -1.75222 -1.20046 0
M  V30 119 H 10.8056 -0.745024 -0.586211 0
M  V30 120 H 10.5116 -2.35881 -2.6087 0
M  V30 121 H 10.3856 -0.95196 -3.6499 0
M  V30 122 H 12.7726 -0.259748 -2.93955 0
M  V30 123 H 12.8536 -1.69847 -1.91274 0
M  V30 124 H 12.4976 -3.16248 -3.97429 0
M  V30 125 H 12.4276 -1.69711 -4.98503 0
M  V30 126 H 14.9186 -1.59297 -3.42685 0
M  V30 127 H 15.2316 -3.81394 -6.7213 0
M  V30 128 H 13.5766 -3.42393 -6.04807 0
M  V30 129 H 16.7676 -2.04927 -4.20859 0
M  V30 130 H 16.9406 -3.06185 -5.711 0
M  V30 131 N 10.3467 1.47872 -0.545128 0
M  V30 132 C 11.5867 2.04391 -0.0187854 0
M  V30 133 C 11.9507 1.41162 1.30144 0
M  V30 134 O 13.1517 1.88656 1.91474 0
M  V30 135 C 11.4227 3.57299 0.0850867 0
M  V30 136 S 12.9817 4.35221 0.559302 0
M  V30 137 H 9.7997 0.710737 -0.0193301 0
M  V30 138 H 12.4017 1.81395 -0.729125 0
M  V30 139 H 11.1057 4.00847 -0.880351 0
M  V30 140 H 10.6367 3.84773 0.819348 0
M  V30 141 H 12.6517 4.61571 1.82118 0
M  V30 142 N 11.8248 0.280983 1.55075 0
M  V30 143 C 12.7568 -0.637268 2.20163 0
M  V30 144 C 13.7698 -1.11298 1.18813 0
M  V30 145 O 14.9588 -1.03388 1.4551 0
M  V30 146 C 12.0588 -1.88199 2.81841 0
M  V30 147 C 11.2318 -1.55211 4.08936 0
M  V30 148 C 10.2908 -2.64991 4.54606 0
M  V30 149 O 9.3168 -2.30929 5.2025 0
M  V30 150 N 10.5188 -3.95161 4.25238 0
M  V30 151 H 13.2838 -0.0801694 2.99593 0
M  V30 152 H 10.8448 0.102329 1.61576 0
M  V30 153 H 12.8368 -2.60948 3.09335 0
M  V30 154 H 11.4068 -2.34799 2.06369 0
M  V30 155 H 10.6268 -0.658185 3.88666 0
M  V30 156 H 11.9148 -1.30681 4.91732 0
M  V30 157 H 11.3128 -4.25653 3.72607 0
M  V30 158 H 9.8698 -4.6427 4.5749 0
M  V30 159 N 13.3029 -1.57598 0.00835791 0
M  V30 160 C 14.2509 -2.10078 -0.998508 0
M  V30 161 C 15.2449 -1.02262 -1.35051 0
M  V30 162 O 16.4509 -1.20719 -1.33518 0
M  V30 163 H 12.8259 -0.670903 -0.339696 0
M  V30 164 H 14.7969 -2.93648 -0.530398 0
M  V30 165 C 13.5459 -2.62615 -2.27879 0
M  V30 166 H 12.8689 -3.45213 -2.01662 0
M  V30 167 H 14.3089 -3.03004 -2.96588 0
M  V30 168 C 12.7679 -1.54407 -2.99433 0
M  V30 169 O 13.2979 -0.931812 -3.90743 0
M  V30 170 N 11.5039 -1.2695 -2.61404 0
M  V30 171 H 11.0509 -1.76924 -1.87232 0
M  V30 172 H 11.0089 -0.547704 -3.09593 0
M  V30 173 N 14.781 0.264519 -1.55364 0
M  V30 174 C 16.009 1.013 -1.80405 0
M  V30 175 C 16.424 1.79618 -0.581622 0
M  V30 176 O 15.781 1.76879 0.449468 0
M  V30 177 C 15.832 1.96487 -3.03439 0
M  V30 178 O 15.553 1.21341 -4.20961 0
M  V30 179 C 17.054 2.83079 -3.41147 0
M  V30 180 H 14.274 0.298875 -0.600762 0
M  V30 181 H 16.818 0.292736 -2.02394 0
M  V30 182 H 14.973 2.63965 -2.83551 0
M  V30 183 H 15.387 1.85573 -4.90574 0
M  V30 184 H 16.861 3.4565 -4.30384 0
M  V30 185 H 17.338 3.53286 -2.60932 0
M  V30 186 H 17.944 2.2108 -3.63323 0
M  V30 187 N 16.2591 1.48442 0.529413 0
M  V30 188 C 17.4871 1.60151 1.30994 0
M  V30 189 C 17.9021 0.261985 1.86973 0
M  V30 190 O 17.2591 -0.748805 1.66431 0
M  V30 191 C 17.3101 2.64854 2.46038 0
M  V30 192 O 17.0311 3.93608 1.92365 0
M  V30 193 C 18.5321 2.87007 3.37849 0
M  V30 194 H 15.7521 0.539971 0.398338 0
M  V30 195 H 18.2961 1.94273 0.638597 0
M  V30 196 H 16.4511 2.33589 3.09055 0
M  V30 197 H 16.8651 4.51055 2.67675 0
M  V30 198 H 18.3391 3.64068 4.14919 0
M  V30 199 H 18.8161 1.95852 3.93114 0
M  V30 200 H 19.4221 3.19579 2.80623 0
M  V30 201 N 17.7372 -0.778329 1.37039 0
M  V30 202 C 18.9622 -1.57248 1.35233 0
M  V30 203 C 19.3872 -1.87999 -0.0615568 0
M  V30 204 O 18.7452 -1.48734 -1.03672 0
M  V30 205 C 18.7932 -2.86353 2.19167 0
M  V30 206 O 17.8972 -3.80442 1.59178 0
M  V30 207 H 17.2382 -0.476569 0.462362 0
M  V30 208 H 19.7682 -0.963853 1.80474 0
M  V30 209 H 19.7782 -3.35519 2.32145 0
M  V30 210 H 18.4532 -2.63299 3.21942 0
M  V30 211 H 17.0302 -3.39067 1.55203 0
M  V30 212 N 19.2153 -1.21501 -1.00376 0
M  V30 213 C 20.4613 -1.03452 -1.74429 0
M  V30 214 C 20.7943 0.430764 -1.89362 0
M  V30 215 O 20.0693 1.31962 -1.42886 0
M  V30 216 C 20.3523 -1.73375 -3.15615 0
M  V30 217 C 20.2053 -3.27431 -3.08397 0
M  V30 218 C 21.5243 -1.47732 -4.14564 0
M  V30 219 H 18.6433 -0.377226 -0.633143 0
M  V30 220 H 21.2853 -1.49693 -1.17013 0
M  V30 221 H 19.4353 -1.34064 -3.64636 0
M  V30 222 H 21.1073 -3.76119 -2.67081 0
M  V30 223 H 19.3503 -3.5767 -2.45468 0
M  V30 224 H 20.0213 -3.71524 -4.08258 0
M  V30 225 H 22.4973 -1.8186 -3.74254 0
M  V30 226 H 21.3733 -1.99169 -5.11491 0
M  V30 227 H 21.6343 -0.407589 -4.40217 0
M  V30 228 N 20.6934 1.19889 -1.02296 0
M  V30 229 C 21.6034 2.26571 -0.608508 0
M  V30 230 C 22.6194 1.70299 0.356964 0
M  V30 231 O 23.7954 2.00235 0.216326 0
M  V30 232 C 20.8604 3.46677 0.0402814 0
M  V30 233 C 19.9214 4.18153 -0.97194 0
M  V30 234 C 19.1544 5.32525 -0.354016 0
M  V30 235 O 19.3774 5.64112 0.844604 0
M  V30 236 O 18.3114 5.92242 -1.07391 0
M  V30 237 H 22.1374 2.64251 -1.49684 0
M  V30 238 H 19.7224 1.26629 -0.792809 0
M  V30 239 H 21.6044 4.19475 0.402324 0
M  V30 240 H 20.2794 3.10858 0.902707 0
M  V30 241 H 19.1864 3.47499 -1.38546 0
M  V30 242 H 20.5194 4.57927 -1.80454 0
M  V30 243 N 22.1715 0.800033 1.35784 0
M  V30 244 C 23.1185 0.203848 2.29898 0
M  V30 245 C 24.0885 -0.658375 1.52495 0
M  V30 246 O 25.2735 -0.604832 1.8096 0
M  V30 247 C 22.4135 -0.64688 3.38983 0
M  V30 248 C 21.5265 0.235054 4.3136 0
M  V30 249 C 20.6615 -0.623054 5.27533 0
M  V30 250 C 19.7005 0.259682 6.11549 0
M  V30 251 N 18.8375 -0.558019 6.99879 0
M  V30 252 H 23.6775 1.01186 2.80295 0
M  V30 253 H 21.2145 0.51053 1.37957 0
M  V30 254 H 23.1725 -1.15521 4.00887 0
M  V30 255 H 21.8025 -1.42021 2.89879 0
M  V30 256 H 20.8545 0.861438 3.70518 0
M  V30 257 H 22.1665 0.914768 4.9034 0
M  V30 258 H 21.3205 -1.19678 5.94779 0
M  V30 259 H 20.0595 -1.33636 4.69034 0
M  V30 260 H 19.0645 0.845726 5.43256 0
M  V30 261 H 20.2895 0.970748 6.72126 0
M  V30 262 H 18.2355 -1.25542 6.43875 0
M  V30 263 H 18.1525 0.0637872 7.55973 0
M  V30 264 H 19.4205 -1.11523 7.71481 0
M  V30 265 N 23.6496 -1.47581 0.552962 0
M  V30 266 C 24.8976 -2.02082 0.0272703 0
M  V30 267 C 25.2186 -1.4301 -1.32563 0
M  V30 268 O 24.4886 -0.603745 -1.86365 0
M  V30 269 H 23.0686 -0.746966 0.00709182 0
M  V30 270 H 25.7306 -1.81033 0.722008 0
M  V30 271 H 24.8266 -3.12034 -0.0639951 0
M  V30 272 N 25.1277 -0.289203 -1.54924 0
M  V30 273 C 26.0757 0.607966 -2.24514 0
M  V30 274 C 27.0697 1.14655 -1.24702 0
M  V30 275 O 28.2757 1.09856 -1.4259 0
M  V30 276 H 24.6507 0.21464 -0.720718 0
M  V30 277 H 26.6217 -0.00164182 -2.984 0
M  V30 278 C 25.3707 1.77406 -2.99036 0
M  V30 279 H 24.6937 1.36884 -3.75637 0
M  V30 280 H 26.1337 2.37814 -3.51028 0
M  V30 281 C 24.5927 2.67107 -2.05318 0
M  V30 282 O 25.1227 3.6787 -1.61353 0
M  V30 283 N 23.3287 2.34582 -1.71521 0
M  V30 284 H 22.8757 1.52688 -2.07471 0
M  V30 285 H 22.8337 2.94867 -1.0909 0
M  V30 286 N 26.6058 1.57591 -0.0167156 0
M  V30 287 C 27.8308 1.9598 0.67872 0
M  V30 288 C 28.2558 0.892546 1.65575 0
M  V30 289 O 27.6138 -0.147772 1.80697 0
M  V30 290 C 27.6618 3.33468 1.37227 0
M  V30 291 O 26.7658 3.28954 2.48722 0
M  V30 292 H 26.1068 0.639339 0.17928 0
M  V30 293 H 28.6368 2.04463 -0.0748802 0
M  V30 294 H 28.6468 3.69417 1.7319 0
M  V30 295 H 27.3218 4.10694 0.656007 0
M  V30 296 H 25.8988 3.04705 2.14963 0
M  V30 297 N 28.0839 -0.256276 1.55502 0
M  V30 298 C 29.0469 -1.30047 1.88734 0
M  V30 299 C 30.0469 -1.4154 0.763086 0
M  V30 300 O 31.2369 -1.40403 1.03115 0
M  V30 301 C 28.3689 -2.67953 2.10747 0
M  V30 302 H 29.5619 -1.01802 2.82093 0
M  V30 303 H 27.1149 -0.495134 1.4825 0
M  V30 304 H 27.8499 -3.01351 1.19825 0
M  V30 305 H 27.6349 -2.60993 2.92617 0
M  V30 306 H 29.1249 -3.43368 2.37673 0
M  V30 307 N 29.562 -1.4872 -0.521534 0
M  V30 308 C 30.808 -1.574 -1.27879 0
M  V30 309 C 31.141 -0.250817 -1.92573 0
M  V30 310 O 30.416 0.743934 -1.79711 0
M  V30 311 C 30.699 -2.71843 -2.36164 0
M  V30 312 C 30.552 -4.13893 -1.76105 0
M  V30 313 C 31.871 -2.82008 -3.37875 0
M  V30 314 H 28.99 -0.572941 -0.463581 0
M  V30 315 H 31.632 -1.80927 -0.580119 0
M  V30 316 H 29.782 -2.51914 -2.95756 0
M  V30 317 H 31.454 -4.45284 -1.20499 0
M  V30 318 H 29.697 -4.20498 -1.06601 0
M  V30 319 H 30.368 -4.89804 -2.5455 0
M  V30 320 H 32.844 -3.00086 -2.88249 0
M  V30 321 H 31.72 -3.63796 -4.11028 0
M  V30 322 H 31.981 -1.90511 -3.98946 0
M  V30 323 N 31.0401 0.771051 -1.3745 0
M  V30 324 C 31.9731 1.89166 -1.27638 0
M  V30 325 C 32.9511 1.61842 -0.156782 0
M  V30 326 O 34.1351 1.85569 -0.331111 0
M  V30 327 C 31.2621 3.24405 -0.973621 0
M  V30 328 C 30.3081 3.70638 -2.1102 0
M  V30 329 S 31.1411 3.84228 -3.73 0
M  V30 330 C 32.2971 5.22313 -3.44876 0
M  V30 331 H 32.5301 1.972 -2.22485 0
M  V30 332 H 30.0631 0.932224 -1.23081 0
M  V30 333 H 32.0211 4.02514 -0.805766 0
M  V30 334 H 30.6821 3.14071 -0.0426279 0
M  V30 335 H 29.8751 4.68685 -1.85338 0
M  V30 336 H 29.4771 2.99632 -2.23822 0
M  V30 337 H 31.7691 6.07505 -2.99908 0
M  V30 338 H 32.7121 5.53008 -4.42253 0
M  V30 339 H 33.1201 4.90284 -2.79789 0
M  V30 340 N 32.5182 1.22032 0.997298 0
M  V30 341 C 33.7662 1.04016 1.73278 0
M  V30 342 C 34.0872 -0.426255 1.90284 0
M  V30 343 O 33.3572 -1.30694 1.45931 0
M  V30 344 H 31.9372 0.381897 0.642 0
M  V30 345 H 34.5992 1.5347 1.20137 0
M  V30 346 H 33.6952 1.51441 2.72896 0
M  V30 347 N 33.9963 -1.19345 1.0293 0
M  V30 348 C 35.2443 -1.88665 0.724574 0
M  V30 349 C 35.5653 -1.80036 -0.749144 0
M  V30 350 O 34.8353 -1.2111 -1.53978 0
M  V30 351 H 33.4153 -0.698406 0.265025 0
M  V30 352 H 36.0773 -1.44885 1.30362 0
M  V30 353 H 35.1733 -2.94987 1.01926 0
M  V30 354 N 35.4744 -0.807222 -1.35358 0
M  V30 355 C 36.7204 -0.388463 -1.99045 0
M  V30 356 C 37.0534 1.04184 -1.63888 0
M  V30 357 O 36.3284 1.72292 -0.902535 0
M  V30 358 C 36.6114 -0.572783 -3.55515 0
M  V30 359 C 36.4644 -2.04807 -4.00468 0
M  V30 360 C 37.7834 0.00114064 -4.401 0
M  V30 361 H 34.9024 -0.142619 -0.723069 0
M  V30 362 H 37.5444 -1.01687 -1.60498 0
M  V30 363 H 35.6944 -0.0378425 -3.88482 0
M  V30 364 H 37.3664 -2.64544 -3.77908 0
M  V30 365 H 35.6094 -2.54427 -3.51353 0
M  V30 366 H 36.2804 -2.12792 -5.09337 0
M  V30 367 H 38.7564 -0.455716 -4.13597 0
M  V30 368 H 37.6324 -0.157737 -5.48673 0
M  V30 369 H 37.8934 1.09488 -4.28328 0
M  V30 370 N 36.9525 1.47285 -0.560781 0
M  V30 371 C 37.8825 2.32857 0.173105 0
M  V30 372 C 38.8635 1.44009 0.905281 0
M  V30 373 O 40.0485 1.7286 0.885046 0
M  V30 374 C 37.1785 3.25861 1.20133 0
M  V30 375 C 36.1325 4.23978 0.585388 0
M  V30 376 C 35.4585 5.06332 1.7185 0
M  V30 377 C 36.7585 5.20242 -0.463178 0
M  V30 378 H 38.4525 2.94466 -0.541307 0
M  V30 379 H 35.9985 1.41601 -0.261764 0
M  V30 380 H 37.9515 3.84569 1.72293 0
M  V30 381 H 36.6755 2.62315 1.94573 0
M  V30 382 H 35.3345 3.66501 0.085054 0
M  V30 383 H 34.9825 4.39186 2.45203 0
M  V30 384 H 34.6825 5.72762 1.31213 0
M  V30 385 H 36.2065 5.67899 2.24329 0
M  V30 386 H 37.6205 5.73293 -0.027502 0
M  V30 387 H 36.0175 5.94896 -0.788627 0
M  V30 388 H 37.0875 4.65504 -1.35773 0
M  V30 389 N 38.4306 0.297415 1.54768 0
M  V30 390 C 39.6776 -0.312913 2.00068 0
M  V30 391 C 40.0056 -1.54171 1.18582 0
M  V30 392 O 39.2606 -1.94108 0.249133 0
M  V30 393 C 39.5596 -0.717561 3.50123 0
M  V30 394 C 39.2256 0.409095 4.4904 0
M  V30 395 C 37.8876 0.718399 4.75807 0
M  V30 396 C 40.2396 1.16717 5.07963 0
M  V30 397 C 37.5676 1.78896 5.5876 0
M  V30 398 C 39.9196 2.22762 5.92081 0
M  V30 399 C 38.5836 2.54303 6.1716 0
M  V30 400 H 37.8536 -0.114503 0.7321 0
M  V30 401 H 40.5006 0.415767 1.86932 0
M  V30 402 H 38.8056 -1.52627 3.60849 0
M  V30 403 H 40.5026 -1.20091 3.82595 0
M  V30 404 H 37.0926 0.157918 4.28309 0
M  V30 405 H 41.2766 0.941466 4.87289 0
M  V30 406 H 36.5326 2.0381 5.7643 0
M  V30 407 H 40.7066 2.81962 6.36765 0
M  V30 408 H 38.3336 3.3739 6.81229 0
M  V30 409 N 39.9087 -1.5758 0.0250728 0
M  V30 410 C 41.1337 -1.96337 -0.668317 0
M  V30 411 C 41.5587 -0.901314 -1.651 0
M  V30 412 O 40.9167 0.138187 -1.80773 0
M  V30 413 C 40.9647 -3.34191 -1.35457 0
M  V30 414 O 40.0687 -3.30269 -2.46974 0
M  V30 415 H 39.4097 -0.640281 -0.175887 0
M  V30 416 H 41.9397 -2.0442 0.0857224 0
M  V30 417 H 41.9497 -3.70331 -1.71228 0
M  V30 418 H 40.6247 -4.11036 -0.634218 0
M  V30 419 H 39.2017 -3.05841 -2.13344 0
M  V30 420 N 41.3868 0.248026 -1.55636 0
M  V30 421 C 42.6148 0.993808 -1.81469 0
M  V30 422 C 43.0298 1.78991 -0.60064 0
M  V30 423 O 42.3868 1.77345 0.430682 0
M  V30 424 C 42.4378 1.93258 -3.05506 0
M  V30 425 O 42.1588 1.16869 -4.22224 0
M  V30 426 C 43.6598 2.79444 -3.4413 0
M  V30 427 H 40.8798 0.292486 -0.603898 0
M  V30 428 H 43.4238 0.271253 -2.02693 0
M  V30 429 H 41.5788 2.60943 -2.86335 0
M  V30 430 H 41.9928 1.80359 -4.92515 0
M  V30 431 H 43.4668 3.41066 -4.34026 0
M  V30 432 H 43.9438 3.50499 -2.64665 0
M  V30 433 H 44.5498 2.17214 -3.65648 0
M  V30 434 N 42.8649 1.48995 0.513639 0
M  V30 435 C 44.1129 1.57531 1.26604 0
M  V30 436 C 44.4339 0.258236 1.93283 0
M  V30 437 O 43.7039 -0.721502 1.8213 0
M  V30 438 H 42.2839 0.580387 0.470276 0
M  V30 439 H 44.9459 1.85552 0.596373 0
M  V30 440 H 44.0419 2.36486 2.03669 0
M  V30 441 N 44.343 -0.763751 1.37857 0
M  V30 442 C 45.273 -1.89103 1.36975 0
M  V30 443 C 46.254 -1.68439 0.237152 0
M  V30 444 O 47.439 -1.8918 0.438713 0
M  V30 445 C 44.569 -3.26496 1.18395 0
M  V30 446 C 43.523 -3.61741 2.28751 0
M  V30 447 C 42.849 -4.97762 1.95286 0
M  V30 448 C 44.149 -3.67665 3.70972 0
M  V30 449 H 45.843 -1.90099 2.31307 0
M  V30 450 H 43.389 -0.91319 1.11341 0
M  V30 451 H 45.342 -4.05003 1.16406 0
M  V30 452 H 44.066 -3.25955 0.205215 0
M  V30 453 H 42.725 -2.85547 2.29909 0
M  V30 454 H 42.373 -4.93769 0.959221 0
M  V30 455 H 42.073 -5.22313 2.69189 0
M  V30 456 H 43.597 -5.7866 1.94898 0
M  V30 457 H 45.011 -4.36307 3.719 0
M  V30 458 H 43.408 -4.03718 4.43995 0
M  V30 459 H 44.478 -2.68134 4.0402 0
M  V30 460 N 45.8211 -1.22559 -0.990812 0
M  V30 461 C 46.7511 -1.0218 -2.09956 0
M  V30 462 C 47.7321 0.0579394 -1.70001 0
M  V30 463 O 48.9171 -0.104684 -1.93918 0
M  V30 464 C 46.0471 -0.601023 -3.4206 0
M  V30 465 C 45.0011 -1.62694 -3.95872 0
M  V30 466 C 44.3271 -1.06193 -5.24049 0
M  V30 467 C 45.6271 -3.01743 -4.2632 0
M  V30 468 H 47.3211 -1.94916 -2.27262 0
M  V30 469 H 44.8671 -0.938566 -1.09211 0
M  V30 470 H 46.8201 -0.445561 -4.19038 0
M  V30 471 H 45.5441 0.362005 -3.24588 0
M  V30 472 H 44.2031 -1.77021 -3.21028 0
M  V30 473 H 43.8511 -0.0901903 -5.02919 0
M  V30 474 H 43.5511 -1.74732 -5.61019 0
M  V30 475 H 45.0751 -0.918092 -6.03658 0
M  V30 476 H 46.4891 -2.90777 -4.94087 0
M  V30 477 H 44.8861 -3.67425 -4.74467 0
M  V30 478 H 45.9561 -3.51518 -3.34011 0
M  V30 479 N 47.2992 1.18797 -1.03562 0
M  V30 480 C 48.5472 1.88278 -0.734569 0
M  V30 481 C 48.8682 1.8043 0.739586 0
M  V30 482 O 48.1382 1.21925 1.53333 0
M  V30 483 H 46.7182 0.696991 -0.268725 0
M  V30 484 H 49.3802 1.44192 -1.31129 0
M  V30 485 H 48.4762 2.94443 -1.03489 0
M  V30 486 N 48.7773 0.814389 1.34928 0
M  V30 487 C 49.7253 0.218424 2.31572 0
M  V30 488 C 50.7193 -0.636128 1.57002 0
M  V30 489 O 51.9253 -0.52842 1.72069 0
M  V30 490 H 48.3003 0.0518799 0.750208 0
M  V30 491 H 50.2713 1.04852 2.79372 0
M  V30 492 C 49.0203 -0.61207 3.4227 0
M  V30 493 H 48.3433 0.0361578 3.99784 0
M  V30 494 H 49.7833 -0.995317 4.12152 0
M  V30 495 C 48.2423 -1.78087 2.85984 0
M  V30 496 O 48.7723 -2.8787 2.80168 0
M  V30 497 N 46.9783 -1.59488 2.42924 0
M  V30 498 H 46.5253 -0.701874 2.47854 0
M  V30 499 H 46.4833 -2.37846 2.05613 0
M  V30 500 N 50.2554 -1.46986 0.568584 0
M  V30 501 C 51.1854 -2.32946 -0.160753 0
M  V30 502 C 52.1664 -1.44487 -0.897631 0
M  V30 503 O 53.3514 -1.73327 -0.875867 0
M  V30 504 C 50.4814 -3.26494 -1.18403 0
M  V30 505 C 49.4354 -4.24282 -0.562895 0
M  V30 506 C 48.7614 -5.07236 -1.69163 0
M  V30 507 C 50.0614 -5.19989 0.490761 0
M  V30 508 H 51.7554 -2.94175 0.556916 0
M  V30 509 H 49.3014 -1.4146 0.26927 0
M  V30 510 H 51.2544 -3.85477 -1.70251 0
M  V30 511 H 49.9784 -2.63343 -1.93179 0
M  V30 512 H 48.6374 -3.66541 -0.0656164 0
M  V30 513 H 48.2854 -4.4048 -2.42871 0
M  V30 514 H 47.9854 -5.7345 -1.28174 0
M  V30 515 H 49.5094 -5.6908 -2.21314 0
M  V30 516 H 50.9234 -5.73271 0.0579047 0
M  V30 517 H 49.3204 -5.94469 0.820165 0
M  V30 518 H 50.3904 -4.64777 1.3824 0
M  V30 519 N 51.7335 -0.305618 -1.54608 0
M  V30 520 C 52.6635 0.561482 -2.26649 0
M  V30 521 C 53.6445 1.13415 -1.26772 0
M  V30 522 O 54.8295 1.16262 -1.55553 0
M  V30 523 C 51.9595 1.73122 -3.01075 0
M  V30 524 C 50.9135 1.2887 -4.08138 0
M  V30 525 C 50.2395 2.54396 -4.70305 0
M  V30 526 C 51.5395 0.416578 -5.20636 0
M  V30 527 H 53.2335 -0.0393902 -2.99374 0
M  V30 528 H 50.7795 -0.020385 -1.43986 0
M  V30 529 H 52.7325 2.34396 -3.50195 0
M  V30 530 H 51.4565 2.3584 -2.25936 0
M  V30 531 H 50.1155 0.698991 -3.59875 0
M  V30 532 H 49.7635 3.15439 -3.918 0
M  V30 533 H 49.4635 2.25486 -5.42614 0
M  V30 534 H 50.9875 3.16464 -5.2219 0
M  V30 535 H 52.4015 0.935116 -5.65622 0
M  V30 536 H 50.7985 0.221046 -5.99693 0
M  V30 537 H 51.8685 -0.557162 -4.81688 0
M  V30 538 N 53.2116 1.57565 -0.0334293 0
M  V30 539 C 54.1746 2.09393 0.932048 0
M  V30 540 C 55.1746 1.00986 1.25134 0
M  V30 541 O 56.3646 1.27129 1.19096 0
M  V30 542 C 53.4966 2.56338 2.2473 0
M  V30 543 H 54.6896 2.95984 0.483085 0
M  V30 544 H 52.2426 1.54819 0.21468 0
M  V30 545 H 52.9776 1.7309 2.74245 0
M  V30 546 H 52.7626 3.35542 2.02865 0
M  V30 547 H 54.2526 2.96646 2.93923 0
M  V30 548 N 54.6897 -0.239769 1.55765 0
M  V30 549 C 55.6197 -1.30052 1.9393 0
M  V30 550 C 56.6007 -1.49839 0.805132 0
M  V30 551 O 57.7857 -1.62328 1.06599 0
M  V30 552 C 54.9157 -2.65391 2.2402 0
M  V30 553 C 53.8697 -2.60289 3.39755 0
M  V30 554 C 53.1957 -3.99489 3.55405 0
M  V30 555 C 54.4957 -2.16654 4.75246 0
M  V30 556 H 56.1897 -0.983573 2.82783 0
M  V30 557 H 53.7357 -0.471701 1.36055 0
M  V30 558 H 55.6887 -3.3974 2.49308 0
M  V30 559 H 54.4127 -2.98736 1.32 0
M  V30 560 H 53.0717 -1.88398 3.14487 0
M  V30 561 H 52.7197 -4.30112 2.60793 0
M  V30 562 H 52.4197 -3.96962 4.33238 0
M  V30 563 H 53.9437 -4.75528 3.83022 0
M  V30 564 H 55.3577 -2.80737 4.99859 0
M  V30 565 H 53.7547 -2.25223 5.56232 0
M  V30 566 H 54.8247 -1.11835 4.71827 0
M  V30 567 N 56.1678 -1.49265 -0.50573 0
M  V30 568 C 57.4158 -1.582 -1.25766 0
M  V30 569 C 57.7368 -0.268482 -1.93143 0
M  V30 570 O 57.0068 0.711833 -1.8251 0
M  V30 571 H 55.5868 -0.582873 -0.467191 0
M  V30 572 H 58.2488 -1.85865 -0.586525 0
M  V30 573 H 57.3448 -2.37563 -2.02412 0
M  V30 574 N 57.6459 0.756429 -1.3826 0
M  V30 575 C 58.5759 1.88374 -1.37976 0
M  V30 576 C 59.5569 1.68311 -0.246082 0
M  V30 577 O 60.7419 1.88944 -0.44874 0
M  V30 578 C 57.8719 3.25864 -1.20125 0
M  V30 579 C 56.8259 3.60523 -2.30666 0
M  V30 580 C 56.1519 4.9672 -1.97923 0
M  V30 581 C 57.4519 3.65692 -3.72916 0
M  V30 582 H 59.1459 1.88869 -2.32312 0
M  V30 583 H 56.6919 0.907272 -1.11824 0
M  V30 584 H 58.6449 4.0438 -1.18552 0
M  V30 585 H 57.3689 3.25841 -0.222498 0
M  V30 586 H 56.0279 2.84324 -2.3142 0
M  V30 587 H 55.6759 4.93253 -0.985393 0
M  V30 588 H 55.3759 5.20878 -2.71955 0
M  V30 589 H 56.8999 5.77618 -1.97964 0
M  V30 590 H 58.3139 4.34328 -3.74208 0
M  V30 591 H 56.7109 4.01358 -4.4613 0
M  V30 592 H 57.7809 2.65987 -4.05436 0
M  V30 593 N 59.124 1.23083 0.984299 0
M  V30 594 C 60.054 1.03292 2.09411 0
M  V30 595 C 61.035 -0.048923 1.7003 0
M  V30 596 O 62.22 0.114967 1.93859 0
M  V30 597 C 59.35 0.619155 3.41736 0
M  V30 598 C 58.304 1.64791 3.95004 0
M  V30 599 C 57.63 1.0897 5.23478 0
M  V30 600 C 58.93 3.03999 4.24714 0
M  V30 601 H 60.624 1.96119 2.26225 0
M  V30 602 H 58.17 0.944344 1.08711 0
M  V30 603 H 60.123 0.467777 4.18796 0
M  V30 604 H 58.847 -0.344786 3.24775 0
M  V30 605 H 57.506 1.78721 3.20085 0
M  V30 606 H 57.154 0.11686 5.02864 0
M  V30 607 H 56.854 1.77704 5.60085 0
M  V30 608 H 58.378 0.950093 6.03163 0
M  V30 609 H 59.792 2.93393 4.92538 0
M  V30 610 H 58.189 3.69936 4.72512 0
M  V30 611 H 59.259 3.53285 3.32142 0
M  V30 612 N 60.6021 -1.18246 1.0419 0
M  V30 613 C 61.5651 -2.20128 0.638452 0
M  V30 614 C 62.5651 -1.57885 -0.304805 0
M  V30 615 O 63.7551 -1.73967 -0.0900369 0
M  V30 616 C 60.8871 -3.4084 -0.0637751 0
M  V30 617 H 62.0801 -2.57336 1.54007 0
M  V30 618 H 59.6331 -1.32152 0.834598 0
M  V30 619 H 60.3681 -3.09166 -0.979136 0
M  V30 620 H 60.1531 -3.8726 0.614198 0
M  V30 621 H 61.6431 -4.16274 -0.332512 0
M  V30 622 N 62.0802 -0.821533 -1.34494 0
M  V30 623 C 63.4962 -0.507117 -1.51329 0
M  V30 624 C 63.6962 0.968964 -1.76673 0
M  V30 625 O 62.7522 1.75348 -1.81685 0
M  V30 626 C 64.0652 -1.36544 -2.67911 0
M  V30 627 C 65.6132 -1.36242 -2.81793 0
M  V30 628 C 66.0882 -2.2052 -4.01416 0
M  V30 629 N 67.5792 -2.18136 -4.08621 0
M  V30 630 C 68.3142 -2.80095 -5.00334 0
M  V30 631 N 67.8102 -3.51039 -5.9728 0
M  V30 632 N 69.6032 -2.69656 -4.93196 0
M  V30 633 H 61.7542 -1.77729 -1.16302 0
M  V30 634 H 64.0172 -0.757291 -0.570276 0
M  V30 635 H 63.7232 -2.41361 -2.55808 0
M  V30 636 H 63.5972 -1.02917 -3.62888 0
M  V30 637 H 65.9842 -0.322041 -2.93338 0
M  V30 638 H 66.0652 -1.73866 -1.87628 0
M  V30 639 H 65.7092 -3.24607 -3.90631 0
M  V30 640 H 65.6392 -1.80247 -4.94791 0
M  V30 641 H 68.1302 -1.6653 -3.39229 0
M  V30 642 H 68.4432 -3.95565 -6.63889 0
M  V30 643 H 66.7882 -3.55145 -5.97409 0
M  V30 644 H 69.9792 -2.13808 -4.16418 0
M  V30 645 H 70.1522 -3.1823 -5.64476 0
M  V30 646 N 63.5583 1.46682 -0.576371 0
M  V30 647 C 64.7833 2.07304 -0.0630475 0
M  V30 648 C 65.2083 1.42329 1.2298 0
M  V30 649 O 64.5663 0.504865 1.74129 0
M  V30 650 C 64.6143 3.60472 0.095895 0
M  V30 651 O 63.7183 3.95927 1.15394 0
M  V30 652 H 63.0593 0.661288 -0.0599463 0
M  V30 653 H 65.5893 1.88417 -0.797511 0
M  V30 654 H 65.5993 4.06865 0.304071 0
M  V30 655 H 64.2743 4.07157 -0.84828 0
M  V30 656 H 62.8513 3.61252 0.924724 0
M  V30 657 N 65.0364 0.313813 1.54444 0
M  V30 658 C 66.2844 -0.291099 1.99993 0
M  V30 659 C 66.6054 -1.53418 1.20366 0
M  V30 660 O 65.8754 -1.93544 0.302927 0
M  V30 661 H 64.4554 -0.110552 0.738774 0
M  V30 662 H 67.1174 0.428106 1.9014 0
M  V30 663 H 66.2134 -0.554268 3.07139 0
M  V30 664 N 66.5145 -1.57545 0.0417849 0
M  V30 665 C 67.4445 -2.14009 -0.933929 0
M  V30 666 C 68.4255 -1.05938 -1.33083 0
M  V30 667 O 69.6105 -1.33833 -1.40721 0
M  V30 668 C 66.7405 -2.67747 -2.21199 0
M  V30 669 C 65.6945 -3.80718 -1.95544 0
M  V30 670 C 65.0205 -4.20935 -3.29724 0
M  V30 671 C 66.3205 -5.06258 -1.28452 0
M  V30 672 H 68.0145 -2.95788 -0.463645 0
M  V30 673 H 65.5605 -1.42285 -0.221573 0
M  V30 674 H 67.5135 -3.05886 -2.89848 0
M  V30 675 H 66.2375 -1.83147 -2.70416 0
M  V30 676 H 64.8965 -3.43037 -1.2931 0
M  V30 677 H 64.5445 -3.33298 -3.76724 0
M  V30 678 H 64.2445 -4.9707 -3.13361 0
M  V30 679 H 65.7685 -4.61666 -3.9962 0
M  V30 680 H 67.1825 -5.41903 -1.8712 0
M  V30 681 H 65.5795 -5.87475 -1.22445 0
M  V30 682 H 66.6495 -4.84207 -0.259219 0
M  V30 683 N 67.9926 0.231505 -1.5589 0
M  V30 684 C 69.2406 0.955461 -1.78088 0
M  V30 685 C 69.5616 1.85262 -0.608533 0
M  V30 686 O 68.8316 1.92277 0.375035 0
M  V30 687 H 67.4116 0.355787 -0.656829 0
M  V30 688 H 70.0736 0.245751 -1.93344 0
M  V30 689 H 69.1696 1.56814 -2.69844 0
M  V30 690 N 69.4707 1.49531 0.497807 0
M  V30 691 C 70.7167 1.60388 1.25089 0
M  V30 692 C 71.0717 0.288328 1.90227 0
M  V30 693 O 70.3647 -0.711706 1.77891 0
M  V30 694 C 70.5587 2.70252 2.33878 0
M  V30 695 C 70.3877 4.12363 1.79408 0
M  V30 696 C 69.1577 4.7911 1.60566 0
M  V30 697 C 71.3557 4.97491 1.30412 0
M  V30 698 N 69.3377 6.05525 1.01059 0
M  V30 699 C 70.7087 6.14411 0.830595 0
M  V30 700 C 72.7637 4.83466 1.19015 0
M  V30 701 C 71.4667 7.1885 0.254371 0
M  V30 702 C 73.4927 5.88057 0.627892 0
M  V30 703 C 72.8547 7.04208 0.16461 0
M  V30 704 H 68.9537 0.641246 0.447579 0
M  V30 705 H 71.5377 1.86549 0.557441 0
M  V30 706 H 69.7087 2.45858 3.0068 0
M  V30 707 H 71.4407 2.70613 3.00917 0
M  V30 708 H 68.1957 4.35961 1.85026 0
M  V30 709 H 68.6197 6.73028 0.732236 0
M  V30 710 H 73.2617 3.93978 1.53431 0
M  V30 711 H 70.9797 8.08036 -0.102052 0
M  V30 712 H 74.5657 5.79266 0.542444 0
M  V30 713 H 73.4457 7.83757 -0.263669 0
M  V30 714 N 70.9488 -0.749086 1.3866 0
M  V30 715 C 72.1888 -1.52112 1.36534 0
M  V30 716 C 72.5528 -1.91951 -0.0432316 0
M  V30 717 O 73.7538 -2.68132 -0.189396 0
M  V30 718 C 72.0248 -2.73704 2.29828 0
M  V30 719 S 73.5838 -3.63519 2.45763 0
M  V30 720 H 70.4018 -0.520482 0.484375 0
M  V30 721 H 73.0038 -0.878963 1.74627 0
M  V30 722 H 71.7078 -2.42552 3.31054 0
M  V30 723 H 71.2388 -3.4286 1.929 0
M  V30 724 H 73.2538 -4.66712 1.68505 0
M  V30 725 N 72.4269 -1.23603 -0.977757 0
M  V30 726 C 73.6519 -1.09735 -1.75991 0
M  V30 727 C 74.0769 0.346858 -1.84874 0
M  V30 728 O 73.4349 1.25093 -1.3123 0
M  V30 729 C 73.4829 -1.73051 -3.16363 0
M  V30 730 O 72.5869 -0.994452 -4.0023 0
M  V30 731 H 71.9279 -0.384476 -0.541364 0
M  V30 732 H 74.4579 -1.6371 -1.2272 0
M  V30 733 H 74.4679 -1.78398 -3.66931 0
M  V30 734 H 73.1429 -2.78137 -3.09213 0
M  V30 735 H 71.7199 -1.01812 -3.58732 0
M  V30 736 N 73.905 1.17692 -1.04816 0
M  V30 737 C 75.321 1.39863 -0.768794 0
M  V30 738 C 75.521 1.91118 0.638451 0
M  V30 739 O 74.577 2.10036 1.40146 0
M  V30 740 C 75.89 2.39274 -1.82122 0
M  V30 741 C 77.438 2.52987 -1.843 0
M  V30 742 C 77.913 3.55669 -2.88555 0
M  V30 743 N 79.404 3.63183 -2.87493 0
M  V30 744 C 80.139 4.42381 -3.64811 0
M  V30 745 N 79.635 5.25125 -4.51903 0
M  V30 746 N 81.428 4.37217 -3.53267 0
M  V30 747 H 73.579 0.82752 -1.95617 0
M  V30 748 H 75.842 0.426123 -0.846831 0
M  V30 749 H 75.548 2.08678 -2.83102 0
M  V30 750 H 75.422 3.38725 -1.65967 0
M  V30 751 H 77.809 2.82896 -0.839869 0
M  V30 752 H 77.89 1.53623 -2.04532 0
M  V30 753 H 77.534 3.26499 -3.89051 0
M  V30 754 H 77.464 4.54728 -2.65575 0
M  V30 755 H 79.955 3.04103 -2.24343 0
M  V30 756 H 80.268 5.82728 -5.07591 0
M  V30 757 H 78.613 5.24519 -4.55966 0
M  V30 758 H 81.804 3.71626 -2.84625 0
M  V30 759 H 81.977 4.98696 -4.13771 0
M  V30 760 N 75.3831 0.828654 1.34056 0
M  V30 761 C 76.7991 0.515135 1.51058 0
M  V30 762 C 76.9991 -0.959581 1.77184 0
M  V30 763 O 76.0551 -1.74382 1.82612 0
M  V30 764 C 77.3681 1.37963 2.67183 0
M  V30 765 C 78.9161 1.37735 2.81066 0
M  V30 766 C 79.3911 2.22645 4.00241 0
M  V30 767 N 80.8821 2.203 4.07458 0
M  V30 768 C 81.6171 2.82744 4.98842 0
M  V30 769 N 81.1131 3.54201 5.9541 0
M  V30 770 N 82.9061 2.72268 4.91759 0
M  V30 771 H 75.0571 1.78343 1.15358 0
M  V30 772 H 77.3201 0.760304 0.566252 0
M  V30 773 H 77.0261 2.42714 2.54525 0
M  V30 774 H 76.9001 1.0484 3.62338 0
M  V30 775 H 79.2871 0.337593 2.93163 0
M  V30 776 H 79.3681 1.74859 1.86703 0
M  V30 777 H 79.0121 3.26674 3.88905 0
M  V30 778 H 78.9421 1.82869 4.93829 0
M  V30 779 H 81.4331 1.68327 3.38341 0
M  V30 780 H 81.7461 3.9908 6.61782 0
M  V30 781 H 80.0911 3.58308 5.95517 0
M  V30 782 H 83.2821 2.16014 4.15278 0
M  V30 783 H 83.4551 3.21219 5.62781 0
M  V30 784 N 76.8612 -1.46375 0.584142 0
M  V30 785 C 78.2722 -1.86031 0.157959 0
M  V30 786 C 78.6232 -1.48753 -1.27933 0
M  V30 787 O 77.7482 -0.903098 -1.96655 0
M  V30 788 C 78.3432 -3.37642 0.279892 0
M  V30 789 C 76.9022 -3.76289 -0.09143 0
M  V30 790 C 76.0492 -2.7039 0.615178 0
M  V30 791 H 79.0002 -1.37509 0.792274 0
M  V30 792 H 79.0212 -3.77275 -0.494364 0
M  V30 793 H 78.5332 -3.64742 1.32607 0
M  V30 794 H 76.6342 -3.54806 -1.13769 0
M  V30 795 H 76.7472 -4.78246 0.285886 0
M  V30 796 H 75.1112 -2.5464 0.0552833 0
M  V30 797 H 75.8942 -3.0033 1.66303 0
M  V30 798 N 78.3393 -0.321999 -1.54275 0
M  V30 799 C 79.2693 0.537411 -2.27231 0
M  V30 800 C 80.2503 1.12064 -1.27968 0
M  V30 801 O 81.4353 1.14606 -1.56777 0
M  V30 802 C 78.5653 1.69919 -3.02894 0
M  V30 803 C 77.5193 1.24534 -4.09482 0
M  V30 804 C 76.8453 2.49394 -4.72977 0
M  V30 805 C 78.1453 0.361335 -5.21049 0
M  V30 806 H 79.8393 -0.0711406 -2.99315 0
M  V30 807 H 77.3853 -0.0356555 -1.43956 0
M  V30 808 H 79.3383 2.30668 -3.52662 0
M  V30 809 H 78.0623 2.33431 -2.28424 0
M  V30 810 H 76.7213 0.660782 -3.60596 0
M  V30 811 H 76.3693 3.11265 -3.95124 0
M  V30 812 H 76.0693 2.19718 -5.44975 0
M  V30 813 H 77.5933 3.10908 -5.25517 0
M  V30 814 H 79.0073 0.875072 -5.66582 0
M  V30 815 H 77.4043 0.157428 -5.99893 0
M  V30 816 H 78.4743 -0.60822 -4.8107 0
M  V30 817 N 79.8174 1.5752 -0.0501392 0
M  V30 818 C 81.2334 1.56631 0.306402 0
M  V30 819 C 81.4334 1.0577 1.71508 0
M  V30 820 O 80.4894 0.713837 2.422 0
M  V30 821 C 81.8024 3.00393 0.135811 0
M  V30 822 C 83.3504 3.12315 0.206993 0
M  V30 823 C 83.8254 4.57954 0.064944 0
M  V30 824 N 85.3164 4.63041 0.121254 0
M  V30 825 C 86.0514 5.73389 0.0354381 0
M  V30 826 N 85.5474 6.92724 -0.102666 0
M  V30 827 N 87.3404 5.62026 0.090946 0
M  V30 828 H 79.4914 1.88903 -0.971046 0
M  V30 829 H 81.7544 0.869876 -0.376855 0
M  V30 830 H 81.4604 3.41635 -0.835384 0
M  V30 831 H 81.3344 3.66373 0.897275 0
M  V30 832 H 83.7214 2.70973 1.16866 0
M  V30 833 H 83.8024 2.49016 -0.585208 0
M  V30 834 H 83.4464 4.99981 -0.893394 0
M  V30 835 H 83.3764 5.19258 0.876277 0
M  V30 836 H 85.8674 3.77216 0.227284 0
M  V30 837 H 86.1804 7.72633 -0.160882 0
M  V30 838 H 84.5254 6.94864 -0.137737 0
M  V30 839 H 87.7164 4.67684 0.197388 0
M  V30 840 H 87.8894 6.47997 0.0206089 0
M  V30 841 N 81.2955 -0.223234 1.56011 0
M  V30 842 C 82.7065 -0.790368 1.69145 0
M  V30 843 C 83.0575 -1.85055 0.651845 0
M  V30 844 O 82.1825 -2.15498 -0.197359 0
M  V30 845 C 82.7775 -1.4404 3.06656 0
M  V30 846 C 81.3365 -1.95494 3.2165 0
M  V30 847 C 80.4835 -0.814506 2.65068 0
M  V30 848 H 83.4345 0.00139011 1.587 0
M  V30 849 H 83.4555 -2.30916 3.0242 0
M  V30 850 H 82.9675 -0.668543 3.82298 0
M  V30 851 H 81.0685 -2.75487 2.50874 0
M  V30 852 H 81.1815 -2.13607 4.28846 0
M  V30 853 H 79.5455 -1.22137 2.23505 0
M  V30 854 H 80.3285 -0.0553515 3.43255 0
M  V30 855 N 82.7736 -1.49793 -0.48987 0
M  V30 856 C 83.7036 -1.70201 -1.59856 0
M  V30 857 C 84.6846 -0.55076 -1.60937 0
M  V30 858 O 85.8696 -0.787841 -1.77501 0
M  V30 859 C 82.9996 -1.77882 -2.98287 0
M  V30 860 C 81.9536 -2.92907 -3.12073 0
M  V30 861 C 81.2796 -2.85712 -4.51965 0
M  V30 862 C 82.5796 -4.3369 -2.91051 0
M  V30 863 H 84.2736 -2.63025 -1.43032 0
M  V30 864 H 81.8196 -1.26574 -0.686664 0
M  V30 865 H 83.7726 -1.90744 -3.75759 0
M  V30 866 H 82.4966 -0.816653 -3.16225 0
M  V30 867 H 81.1556 -2.79665 -2.37029 0
M  V30 868 H 80.8036 -1.8738 -4.66795 0
M  V30 869 H 80.5036 -3.62921 -4.62128 0
M  V30 870 H 82.0276 -3.00598 -5.31482 0
M  V30 871 H 83.4416 -4.47555 -3.58284 0
M  V30 872 H 81.8386 -5.12205 -3.12675 0
M  V30 873 H 82.9086 -4.47362 -1.87071 0
M  V30 874 N 84.2517 0.741722 -1.39055 0
M  V30 875 C 85.6627 1.31966 -1.32068 0
M  V30 876 C 86.0137 1.96192 0.0180797 0
M  V30 877 O 85.1387 1.95861 0.920196 0
M  V30 878 C 85.7337 2.39954 -2.39181 0
M  V30 879 C 84.2927 2.93438 -2.35735 0
M  V30 880 C 83.4397 1.66936 -2.21422 0
M  V30 881 H 86.3907 0.539721 -1.4924 0
M  V30 882 H 86.4117 3.20182 -2.05581 0
M  V30 883 H 85.9237 1.9318 -3.36605 0
M  V30 884 H 84.0247 3.4451 -1.41929 0
M  V30 885 H 84.1377 3.4701 -3.30335 0
M  V30 886 H 82.5017 1.91016 -1.68478 0
M  V30 887 H 83.2847 1.22224 -3.20806 0
M  V30 888 N 85.7298 1.2412 0.971189 0
M  V30 889 C 86.9548 1.10667 1.75407 0
M  V30 890 C 87.3798 -0.337048 1.85056 0
M  V30 891 O 86.7378 -1.24396 1.31892 0
M  V30 892 C 86.7858 1.74726 3.15441 0
M  V30 893 O 85.8898 1.01566 3.99697 0
M  V30 894 H 85.2308 0.387341 0.539317 0
M  V30 895 H 87.7608 1.64358 1.2185 0
M  V30 896 H 87.7708 1.80341 3.6598 0
M  V30 897 H 86.4458 2.79773 3.07734 0
M  V30 898 H 85.0228 1.03713 3.58187 0
M  V30 899 N 87.2079 -1.17134 1.05439 0
M  V30 900 C 88.4539 -1.87733 0.767077 0
M  V30 901 C 88.7869 -1.8098 -0.704253 0
M  V30 902 O 88.0619 -1.21951 -1.5152 0
M  V30 903 C 88.3449 -3.37659 1.25133 0
M  V30 904 C 88.1979 -3.53149 2.78578 0
M  V30 905 C 89.5169 -4.31768 0.852324 0
M  V30 906 H 86.6359 -0.681687 0.280129 0
M  V30 907 H 89.2779 -1.37732 1.30881 0
M  V30 908 H 87.4279 -3.80373 0.790469 0
M  V30 909 H 89.0999 -3.19434 3.32806 0
M  V30 910 H 87.3429 -2.95345 3.17732 0
M  V30 911 H 88.0139 -4.58403 3.07523 0
M  V30 912 H 90.4899 -3.96909 1.24911 0
M  V30 913 H 89.3659 -5.35199 1.21873 0
M  V30 914 H 89.6269 -4.41429 -0.243485 0
M  V30 915 N 88.686 -0.835752 -1.33615 0
M  V30 916 C 89.933 -0.429959 -1.97883 0
M  V30 917 C 90.261 1.01006 -1.66217 0
M  V30 918 O 89.516 1.72047 -0.93265 0
M  V30 919 C 89.815 -0.593925 -3.52431 0
M  V30 920 C 89.481 -2.00158 -4.04039 0
M  V30 921 C 88.143 -2.38662 -4.17844 0
M  V30 922 C 90.495 -2.92117 -4.31644 0
M  V30 923 C 87.823 -3.68435 -4.56588 0
M  V30 924 C 90.175 -4.21368 -4.71838 0
M  V30 925 C 88.839 -4.59833 -4.83849 0
M  V30 926 H 88.109 -0.157333 -0.724104 0
M  V30 927 H 90.756 -1.06217 -1.59343 0
M  V30 928 H 89.061 0.121619 -3.91611 0
M  V30 929 H 90.758 -0.260282 -4.00154 0
M  V30 930 H 87.348 -1.69252 -3.93766 0
M  V30 931 H 91.532 -2.63608 -4.20505 0
M  V30 932 H 86.788 -3.98046 -4.64079 0
M  V30 933 H 90.962 -4.92703 -4.92155 0
M  V30 934 H 88.589 -5.60438 -5.13627 0
M  V30 935 N 90.1641 1.46063 -0.591896 0
M  V30 936 C 91.3941 2.06418 -0.0867676 0
M  V30 937 C 91.8021 1.43975 1.22751 0
M  V30 938 O 91.1451 0.542531 1.75506 0
M  V30 939 C 91.2071 3.59213 0.143725 0
M  V30 940 C 90.8711 4.439 -1.08635 0
M  V30 941 C 91.8681 4.79864 -2.00067 0
M  V30 942 C 89.5531 4.84896 -1.31077 0
M  V30 943 C 91.5471 5.55661 -3.12282 0
M  V30 944 C 89.2341 5.6045 -2.43596 0
M  V30 945 C 90.2321 5.95747 -3.34027 0
M  V30 946 O 89.9201 6.69772 -4.4459 0
M  V30 947 H 89.6521 0.673443 -0.0587447 0
M  V30 948 H 92.2061 1.88539 -0.814994 0
M  V30 949 H 90.4361 3.75433 0.926668 0
M  V30 950 H 92.1251 4.01463 0.5985 0
M  V30 951 H 92.8911 4.48763 -1.83947 0
M  V30 952 H 88.7701 4.56867 -0.61594 0
M  V30 953 H 92.3141 5.8313 -3.82891 0
M  V30 954 H 88.2111 5.90965 -2.59674 0
M  V30 955 H 88.9791 6.88207 -4.43073 0
M  V30 956 N 91.6422 0.330177 1.54103 0
M  V30 957 C 92.5752 -0.575477 2.20825 0
M  V30 958 C 93.5532 -1.11064 1.18758 0
M  V30 959 O 94.7372 -1.17341 1.47524 0
M  V30 960 C 91.8642 -1.79032 2.87516 0
M  V30 961 C 90.9102 -1.38581 4.03358 0
M  V30 962 S 91.7432 -0.416911 5.33875 0
M  V30 963 C 92.8992 -1.63889 6.04062 0
M  V30 964 H 93.1322 -0.00872114 2.97299 0
M  V30 965 H 90.6652 0.114254 1.53977 0
M  V30 966 H 92.6232 -2.48734 3.2656 0
M  V30 967 H 91.2842 -2.32827 2.10832 0
M  V30 968 H 90.4772 -2.29123 4.48908 0
M  V30 969 H 90.0792 -0.768419 3.66021 0
M  V30 970 H 92.3712 -2.57536 6.26643 0
M  V30 971 H 93.3142 -1.22542 6.97416 0
M  V30 972 H 93.7222 -1.82887 5.34053 0
M  V30 973 N 93.1203 -1.57491 0.0584922 0
M  V30 974 C 94.0503 -2.14988 -0.911178 0
M  V30 975 C 95.0313 -1.07343 -1.31952 0
M  V30 976 O 96.2163 -1.35318 -1.39294 0
M  V30 977 C 93.3463 -2.70078 -2.18347 0
M  V30 978 C 92.3003 -3.82771 -1.91495 0
M  V30 979 C 91.6263 -4.24408 -3.25241 0
M  V30 980 C 92.9263 -5.07592 -1.23075 0
M  V30 981 H 94.6203 -2.96263 -0.432246 0
M  V30 982 H 92.1663 -1.42512 -0.206469 0
M  V30 983 H 94.1193 -3.08943 -2.86587 0
M  V30 984 H 92.8433 -1.86005 -2.68458 0
M  V30 985 H 91.5023 -3.44389 -1.25664 0
M  V30 986 H 91.1503 -3.37275 -3.73168 0
M  V30 987 H 90.8503 -5.00366 -3.08071 0
M  V30 988 H 92.3743 -4.65879 -3.94701 0
M  V30 989 H 93.7883 -5.43857 -1.81362 0
M  V30 990 H 92.1853 -5.88741 -1.16207 0
M  V30 991 H 93.2553 -4.84454 -0.207847 0
M  V30 992 N 94.5984 0.214957 -1.56127 0
M  V30 993 C 95.8444 0.939762 -1.79712 0
M  V30 994 C 96.1774 1.83723 -0.629247 0
M  V30 995 O 95.4524 1.90925 0.371197 0
M  V30 996 C 95.7354 1.77306 -3.13424 0
M  V30 997 C 95.5884 0.90164 -4.40671 0
M  V30 998 C 96.9074 2.74956 -3.43638 0
M  V30 999 H 94.0264 0.340214 -0.653776 0
M  V30 1000 H 96.6684 0.20824 -1.88855 0
M  V30 1001 H 94.8184 2.39673 -3.0576 0
M  V30 1002 H 96.4904 0.294206 -4.60361 0
M  V30 1003 H 94.7334 0.207368 -4.33304 0
M  V30 1004 H 95.4044 1.51923 -5.30682 0
M  V30 1005 H 97.8804 2.22724 -3.51473 0
M  V30 1006 H 96.7564 3.30358 -4.38355 0
M  V30 1007 H 97.0174 3.53023 -2.66134 0
M  V30 1008 N 96.0765 1.50051 0.48192 0
M  V30 1009 C 97.3165 1.62128 1.24474 0
M  V30 1010 C 97.6805 0.309742 1.89485 0
M  V30 1011 O 98.8815 0.305854 2.67054 0
M  V30 1012 C 97.1525 2.76151 2.26882 0
M  V30 1013 S 98.7115 3.08297 3.12247 0
M  V30 1014 H 95.5295 0.571661 0.422759 0
M  V30 1015 H 98.1315 1.87791 0.54359 0
M  V30 1016 H 96.8355 3.69942 1.77683 0
M  V30 1017 H 96.3665 2.52541 3.0164 0
M  V30 1018 H 98.3815 2.51287 4.27866 0
M  V30 1019 N 97.5546 -0.734337 1.39446 0
M  V30 1020 C 98.8026 -1.49096 1.36436 0
M  V30 1021 C 99.1236 -1.94961 -0.0388255 0
M  V30 1022 O 98.3936 -1.69033 -0.990191 0
M  V30 1023 H 96.9736 -0.5531 0.502085 0
M  V30 1024 H 99.6356 -0.871725 1.74319 0
M  V30 1025 H 98.7316 -2.37276 2.02747 0
M  V30 1026 N 99.0327 -1.24633 -0.964593 0
M  V30 1027 C 99.9627 -1.06611 -2.07741 0
M  V30 1028 C 100.944 0.0218666 -1.70086 0
M  V30 1029 O 102.129 -0.145793 -1.93652 0
M  V30 1030 C 99.2587 -0.673444 -3.40708 0
M  V30 1031 C 98.2127 -1.71054 -3.92332 0
M  V30 1032 C 97.5387 -1.17285 -5.21678 0
M  V30 1033 C 98.8387 -3.10718 -4.19824 0
M  V30 1034 H 100.533 -1.99693 -2.23076 0
M  V30 1035 H 98.0787 -0.96152 -1.07195 0
M  V30 1036 H 100.032 -0.534345 -4.17998 0
M  V30 1037 H 98.7557 0.293073 -3.25282 0
M  V30 1038 H 97.4147 -1.83791 -3.17201 0
M  V30 1039 H 97.0627 -0.196847 -5.02615 0
M  V30 1040 H 96.7627 -1.86592 -5.57187 0
M  V30 1041 H 98.2867 -1.04593 -6.01575 0
M  V30 1042 H 99.7007 -3.01192 -4.87808 0
M  V30 1043 H 98.0977 -3.77406 -4.66567 0
M  V30 1044 H 99.1677 -3.58524 -3.26479 0
M  V30 1045 N 100.511 1.16574 -1.06058 0
M  V30 1046 C 101.739 1.90952 -0.796552 0
M  V30 1047 C 102.154 1.77302 0.648808 0
M  V30 1048 O 101.511 1.11605 1.44397 0
M  V30 1049 C 101.562 3.41736 -1.17894 0
M  V30 1050 O 101.283 3.54975 -2.56758 0
M  V30 1051 C 102.784 4.33169 -0.942308 0
M  V30 1052 H 100.004 0.605594 -0.288959 0
M  V30 1053 H 102.548 1.47777 -1.41358 0
M  V30 1054 H 100.703 3.82623 -0.606491 0
M  V30 1055 H 101.117 4.4846 -2.72 0
M  V30 1056 H 102.591 5.37439 -1.25952 0
M  V30 1057 H 103.068 4.3903 0.122078 0
M  V30 1058 H 103.674 3.98007 -1.49902 0
M  V30 1059 N 101.989 0.842826 1.3317 0
M  V30 1060 C 103.235 0.441099 1.97945 0
M  V30 1061 C 103.568 -0.998024 1.66593 0
M  V30 1062 O 102.843 -1.69839 0.947898 0
M  V30 1063 C 103.126 0.666841 3.53872 0
M  V30 1064 C 102.979 2.15352 3.94897 0
M  V30 1065 C 104.298 0.115544 4.39948 0
M  V30 1066 H 101.417 0.161739 0.719034 0
M  V30 1067 H 104.059 1.05907 1.57746 0
M  V30 1068 H 102.209 0.140828 3.88245 0
M  V30 1069 H 103.881 2.7447 3.70761 0
M  V30 1070 H 102.124 2.63653 3.44484 0
M  V30 1071 H 102.795 2.26221 5.03516 0
M  V30 1072 H 105.271 0.565213 4.12243 0
M  V30 1073 H 104.147 0.303152 5.48062 0
M  V30 1074 H 104.408 -0.980935 4.3108 0
M  V30 1075 N 103.467 -1.45747 0.599634 0
M  V30 1076 C 104.695 -2.06668 0.0978551 0
M  V30 1077 C 105.11 -1.44562 -1.21439 0
M  V30 1078 O 104.467 -0.556923 -1.73795 0
M  V30 1079 C 104.518 -3.61456 -0.0567044 0
M  V30 1080 O 104.239 -4.21242 1.20361 0
M  V30 1081 C 105.74 -4.39345 -0.590869 0
M  V30 1082 H 102.96 -0.667825 0.0651943 0
M  V30 1083 H 105.504 -1.87115 0.82511 0
M  V30 1084 H 103.659 -3.80378 -0.734251 0
M  V30 1085 H 104.073 -5.14323 1.02821 0
M  V30 1086 H 105.547 -5.48182 -0.648131 0
M  V30 1087 H 106.024 -4.08568 -1.61147 0
M  V30 1088 H 106.63 -4.25268 0.0523679 0
M  V30 1089 N 104.945 -0.338344 -1.53925 0
M  V30 1090 C 106.222 0.314774 -1.93051 0
M  V30 1091 C 106.602 1.68669 -1.26941 0
M  V30 1092 O 105.95 2.24636 -0.418445 0
M  V30 1093 C 106.16 0.392249 -3.46789 0
M  V30 1094 C 107.508 0.645554 -4.19664 0
M  V30 1095 O 108.532 0.474575 -3.53024 0
M  V30 1096 O 107.391 0.976408 -5.37707 0
M  V30 1097 H 104.485 0.182598 -0.80659 0
M  V30 1098 H 107.031 -0.389141 -1.65178 0
M  V30 1099 H 105.803 -0.570702 -3.87116 0
M  V30 1100 H 105.426 1.14316 -3.80812 0
M  V30 1101 N 106.423 1.57458 -0.0668435 0
M  V30 1102 C 107.353 2.15468 0.899764 0
M  V30 1103 C 108.334 1.08042 1.31381 0
M  V30 1104 O 109.519 1.36054 1.38574 0
M  V30 1105 C 106.649 2.71232 2.16911 0
M  V30 1106 C 105.603 3.83781 1.89463 0
M  V30 1107 C 104.929 4.26127 3.22986 0
M  V30 1108 C 106.229 5.08238 1.20381 0
M  V30 1109 H 107.923 2.96488 0.416529 0
M  V30 1110 H 105.469 1.4262 0.198908 0
M  V30 1111 H 107.422 3.10458 2.84945 0
M  V30 1112 H 106.146 1.87426 2.67468 0
M  V30 1113 H 104.805 3.45051 1.23836 0
M  V30 1114 H 104.453 3.39249 3.71374 0
M  V30 1115 H 104.153 5.01993 3.05413 0
M  V30 1116 H 105.677 4.67966 3.92225 0
M  V30 1117 H 107.091 5.44811 1.78475 0
M  V30 1118 H 105.488 5.89349 1.13083 0
M  V30 1119 H 106.558 4.84558 0.182153 0
M  V30 1120 N 107.901 -0.206675 1.56239 0
M  V30 1121 C 108.831 -1.25909 1.96645 0
M  V30 1122 C 109.812 -1.48097 0.836734 0
M  V30 1123 O 110.997 -1.6003 1.10019 0
M  V30 1124 C 108.127 -2.6058 2.29599 0
M  V30 1125 C 107.081 -2.53024 3.452 0
M  V30 1126 C 106.407 -3.91861 3.63798 0
M  V30 1127 C 107.707 -2.06524 4.79734 0
M  V30 1128 H 109.401 -0.923369 2.84806 0
M  V30 1129 H 106.947 -0.442735 1.37025 0
M  V30 1130 H 108.9 -3.34375 2.56459 0
M  V30 1131 H 107.624 -2.95869 1.38307 0
M  V30 1132 H 106.283 -1.81684 3.18412 0
M  V30 1133 H 105.931 -4.24483 2.69857 0
M  V30 1134 H 105.631 -3.87683 4.4156 0
M  V30 1135 H 107.155 -4.67296 3.93022 0
M  V30 1136 H 108.569 -2.70072 5.05702 0
M  V30 1137 H 106.966 -2.13374 5.60885 0
M  V30 1138 H 108.036 -1.01802 4.74093 0
M  V30 1139 N 109.379 -1.50304 -0.473955 0
M  V30 1140 C 110.627 -1.60832 -1.22382 0
M  V30 1141 C 110.948 -0.30939 -1.9253 0
M  V30 1142 O 110.218 0.67296 -1.83978 0
M  V30 1143 H 108.798 -0.592652 -0.454723 0
M  V30 1144 H 111.46 -1.87068 -0.546968 0
M  V30 1145 H 110.556 -2.41803 -1.97327 0
M  V30 1146 N 110.857 0.726932 -1.39834 0
M  V30 1147 C 111.804 1.841 -1.39197 0
M  V30 1148 C 112.774 1.642 -0.250502 0
M  V30 1149 O 113.959 1.85494 -0.446846 0
M  V30 1150 C 111.099 3.21697 -1.24919 0
M  V30 1151 C 110.212 3.53247 -2.48678 0
M  V30 1152 C 109.347 4.80289 -2.26928 0
M  V30 1153 C 108.386 5.04707 -3.4632 0
M  V30 1154 N 107.523 6.22956 -3.23836 0
M  V30 1155 H 112.363 1.83979 -2.34427 0
M  V30 1156 H 109.9 0.898876 -1.16442 0
M  V30 1157 H 111.858 4.01137 -1.1465 0
M  V30 1158 H 110.488 3.21076 -0.333153 0
M  V30 1159 H 109.54 2.68447 -2.69519 0
M  V30 1160 H 110.852 3.67205 -3.37582 0
M  V30 1161 H 110.006 5.67725 -2.13947 0
M  V30 1162 H 108.745 4.68519 -1.35431 0
M  V30 1163 H 107.75 4.1573 -3.5979 0
M  V30 1164 H 108.975 5.18357 -4.38729 0
M  V30 1165 H 106.921 6.12459 -2.35011 0
M  V30 1166 H 106.838 6.37539 -4.063 0
M  V30 1167 H 108.106 7.1321 -3.14566 0
M  V30 1168 N 112.336 1.25143 0.95797 0
M  V30 1169 C 113.576 1.10893 1.71703 0
M  V30 1170 C 113.94 -0.34478 1.88879 0
M  V30 1171 O 115.141 -0.609014 2.6181 0
M  V30 1172 C 113.412 1.83889 3.06463 0
M  V30 1173 S 114.971 1.85491 3.97666 0
M  V30 1174 H 111.789 0.396428 0.590226 0
M  V30 1175 H 114.391 1.58618 1.14283 0
M  V30 1176 H 113.095 2.88756 2.9163 0
M  V30 1177 H 112.626 1.36538 3.68946 0
M  V30 1178 H 114.641 0.929553 4.87415 0
M  V30 1179 N 113.814 -1.1601 1.06675 0
M  V30 1180 C 114.744 -2.22688 0.702307 0
M  V30 1181 C 115.725 -1.67306 -0.307032 0
M  V30 1182 O 116.91 -1.93352 -0.181305 0
M  V30 1183 C 114.04 -3.47178 0.092038 0
M  V30 1184 C 112.994 -4.15477 1.02777 0
M  V30 1185 C 112.32 -5.33963 0.28061 0
M  V30 1186 C 113.62 -4.66019 2.35846 0
M  V30 1187 H 115.314 -2.53429 1.59419 0
M  V30 1188 H 112.86 -1.21813 0.767961 0
M  V30 1189 H 114.813 -4.21037 -0.174814 0
M  V30 1190 H 113.537 -3.15749 -0.834877 0
M  V30 1191 H 112.196 -3.43549 1.27944 0
M  V30 1192 H 111.844 -4.98788 -0.649545 0
M  V30 1193 H 111.544 -5.806 0.904258 0
M  V30 1194 H 113.068 -6.10596 0.021396 0
M  V30 1195 H 114.482 -5.3144 2.15045 0
M  V30 1196 H 112.879 -5.23293 2.93743 0
M  V30 1197 H 113.949 -3.82023 2.98641 0
M  V30 1198 N 115.292 -0.849877 -1.32721 0
M  V30 1199 C 116.222 -0.306308 -2.31482 0
M  V30 1200 C 117.203 0.591952 -1.59468 0
M  V30 1201 O 118.388 0.513199 -1.87296 0
M  V30 1202 C 115.518 0.510204 -3.43532 0
M  V30 1203 C 114.472 -0.293209 -4.26994 0
M  V30 1204 C 113.798 0.647743 -5.30762 0
M  V30 1205 C 115.098 -1.51634 -4.99804 0
M  V30 1206 H 116.792 -1.13153 -2.77195 0
M  V30 1207 H 114.338 -0.545553 -1.33266 0
M  V30 1208 H 116.291 0.900856 -4.11658 0
M  V30 1209 H 115.015 1.36874 -2.96535 0
M  V30 1210 H 113.674 -0.665555 -3.60508 0
M  V30 1211 H 113.322 1.50299 -4.8002 0
M  V30 1212 H 113.022 0.11422 -5.87489 0
M  V30 1213 H 114.546 1.03567 -6.01753 0
M  V30 1214 H 115.96 -1.19824 -5.60638 0
M  V30 1215 H 114.357 -1.98745 -5.66234 0
M  V30 1216 H 115.427 -2.28018 -4.27943 0
M  V30 1217 N 116.77 1.45427 -0.607355 0
M  V30 1218 C 117.995 2.07124 -0.107006 0
M  V30 1219 C 118.42 1.44906 1.19933 0
M  V30 1220 O 117.778 0.541687 1.73019 0
M  V30 1221 C 117.826 3.60595 0.0194119 0
M  V30 1222 O 116.93 3.98285 1.0697 0
M  V30 1223 H 116.271 0.659868 -0.0739597 0
M  V30 1224 H 118.801 1.86683 -0.837297 0
M  V30 1225 H 118.811 4.07419 0.2177 0
M  V30 1226 H 117.486 4.05266 -0.934453 0
M  V30 1227 H 116.063 3.63133 0.847889 0
M  V30 1228 N 118.248 0.346503 1.53744 0
M  V30 1229 C 119.659 -0.136779 1.86198 0
M  V30 1230 C 120.01 -1.49749 1.26766 0
M  V30 1231 O 119.135 -2.08417 0.582355 0
M  V30 1232 C 119.73 -0.254966 3.37839 0
M  V30 1233 C 118.289 -0.682482 3.70161 0
M  V30 1234 C 117.436 0.181981 2.76702 0
M  V30 1235 H 120.387 0.565994 1.48264 0
M  V30 1236 H 120.408 -1.08195 3.64793 0
M  V30 1237 H 119.92 0.735526 3.81066 0
M  V30 1238 H 118.021 -1.68189 3.3248 0
M  V30 1239 H 118.134 -0.470326 4.76786 0
M  V30 1240 H 116.498 -0.34615 2.52337 0
M  V30 1241 H 117.281 1.16966 3.2276 0
M  V30 1242 N 119.726 -1.57421 0.075193 0
M  V30 1243 C 120.972 -1.93905 -0.594025 0
M  V30 1244 C 121.305 -0.955701 -1.69056 0
M  V30 1245 O 120.58 0.0145373 -1.94495 0
M  V30 1246 C 120.863 -3.40638 -1.1678 0
M  V30 1247 C 120.716 -4.49733 -0.0776792 0
M  V30 1248 C 122.035 -3.88259 -2.07228 0
M  V30 1249 H 119.154 -0.705105 -0.214466 0
M  V30 1250 H 121.796 -1.8947 0.141854 0
M  V30 1251 H 119.946 -3.44549 -1.79494 0
M  V30 1252 H 121.618 -4.57942 0.555573 0
M  V30 1253 H 119.861 -4.29751 0.591286 0
M  V30 1254 H 120.532 -5.49549 -0.519603 0
M  V30 1255 H 123.008 -3.86376 -1.54445 0
M  V30 1256 H 121.884 -4.91533 -2.44308 0
M  V30 1257 H 122.145 -3.26396 -2.98191 0
M  V30 1258 N 121.204 0.198386 -1.56346 0
M  V30 1259 C 122.45 0.920648 -1.80698 0
M  V30 1260 C 122.783 1.83045 -0.648697 0
M  V30 1261 O 122.058 1.91308 0.350925 0
M  V30 1262 C 122.341 1.73971 -3.15287 0
M  V30 1263 C 122.194 0.85485 -4.41602 0
M  V30 1264 C 123.513 2.71296 -3.46535 0
M  V30 1265 H 120.632 0.333261 -0.657348 0
M  V30 1266 H 123.274 0.188198 -1.89066 0
M  V30 1267 H 121.424 2.36416 -3.08285 0
M  V30 1268 H 123.096 0.245362 -4.60647 0
M  V30 1269 H 121.339 0.161398 -4.335 0
M  V30 1270 H 122.01 1.46286 -5.32264 0
M  V30 1271 H 124.486 2.18983 -3.53816 0
M  V30 1272 H 123.362 3.2569 -4.41834 0
M  V30 1273 H 123.623 3.5018 -2.69864 0
M  V30 1274 N 122.682 1.50554 0.465978 0
M  V30 1275 C 123.612 1.72722 1.57128 0
M  V30 1276 C 124.593 0.576294 1.6004 0
M  V30 1277 O 125.778 0.81598 1.76225 0
M  V30 1278 C 122.908 1.82605 2.95419 0
M  V30 1279 C 121.862 2.97835 3.07373 0
M  V30 1280 C 121.188 2.92867 4.47363 0
M  V30 1281 C 122.488 4.38265 2.84114 0
M  V30 1282 H 124.182 2.65267 1.38829 0
M  V30 1283 H 121.728 1.2765 0.666441 0
M  V30 1284 H 123.681 1.96698 3.72677 0
M  V30 1285 H 122.405 0.866858 3.14886 0
M  V30 1286 H 121.064 2.83401 2.3255 0
M  V30 1287 H 120.712 1.94783 4.63755 0
M  V30 1288 H 120.412 3.70227 4.56296 0
M  V30 1289 H 121.936 3.09015 5.26633 0
M  V30 1290 H 123.35 4.53198 3.51118 0
M  V30 1291 H 121.747 5.17115 3.04487 0
M  V30 1292 H 122.817 4.50281 1.7993 0
M  V30 1293 N 124.16 -0.719506 1.40217 0
M  V30 1294 C 125.123 -1.8153 1.39927 0
M  V30 1295 C 126.123 -1.58095 0.293723 0
M  V30 1296 O 127.313 -1.65209 0.552429 0
M  V30 1297 C 124.445 -3.19561 1.18716 0
M  V30 1298 H 125.638 -1.83186 2.37451 0
M  V30 1299 H 123.191 -0.924746 1.26008 0
M  V30 1300 H 123.926 -3.23557 0.219366 0
M  V30 1301 H 123.711 -3.3797 1.98793 0
M  V30 1302 H 125.201 -3.99598 1.21291 0
M  V30 1303 N 125.638 -1.25649 -0.95132 0
M  V30 1304 C 126.601 -1.06399 -2.03007 0
M  V30 1305 C 127.601 -0.0156794 -1.60792 0
M  V30 1306 O 128.791 -0.25817 -1.72276 0
M  V30 1307 C 125.923 -0.616184 -3.35285 0
M  V30 1308 H 127.116 -2.02164 -2.21517 0
M  V30 1309 H 124.669 -1.08103 -1.12887 0
M  V30 1310 H 125.404 0.343917 -3.22471 0
M  V30 1311 H 125.189 -1.37301 -3.67275 0
M  V30 1312 H 126.679 -0.503032 -4.14559 0
M  V30 1313 N 127.117 1.15442 -1.07289 0
M  V30 1314 C 128.347 1.89821 -0.815576 0
M  V30 1315 C 128.755 1.7823 0.634867 0
M  V30 1316 O 128.098 1.13152 1.44715 0
M  V30 1317 C 128.16 3.40817 -1.14385 0
M  V30 1318 C 127.824 3.76193 -2.59476 0
M  V30 1319 C 128.821 3.77269 -3.57721 0
M  V30 1320 C 126.506 4.0652 -2.95037 0
M  V30 1321 C 128.5 4.08176 -4.89562 0
M  V30 1322 C 126.187 4.37092 -4.27076 0
M  V30 1323 C 127.185 4.37902 -5.24148 0
M  V30 1324 O 126.873 4.67741 -6.53815 0
M  V30 1325 H 126.605 0.608465 -0.294528 0
M  V30 1326 H 129.159 1.472 -1.43252 0
M  V30 1327 H 127.389 3.83835 -0.469865 0
M  V30 1328 H 129.078 3.96485 -0.869179 0
M  V30 1329 H 129.844 3.5394 -3.3159 0
M  V30 1330 H 125.723 4.05049 -2.20128 0
M  V30 1331 H 129.267 4.08723 -5.65324 0
M  V30 1332 H 125.164 4.59889 -4.5296 0
M  V30 1333 H 125.932 4.85509 -6.58957 0
M  V30 1334 N 128.595 0.856903 1.32268 0
M  V30 1335 C 129.558 0.308171 2.27119 0
M  V30 1336 C 130.558 -0.533421 1.51695 0
M  V30 1337 O 131.748 -0.344607 1.70757 0
M  V30 1338 C 128.88 -0.563757 3.36206 0
M  V30 1339 H 130.073 1.14535 2.77167 0
M  V30 1340 H 127.626 0.631421 1.42978 0
M  V30 1341 H 128.361 -1.42266 2.91429 0
M  V30 1342 H 128.146 0.0386749 3.92081 0
M  V30 1343 H 129.636 -0.940386 4.06874 0
M  V30 1344 N 130.073 -1.45103 0.615059 0
M  V30 1345 C 131.005 -2.28786 -0.13762 0
M  V30 1346 C 132.018 -1.40376 -0.824525 0
M  V30 1347 O 133.207 -1.64681 -0.688662 0
M  V30 1348 C 130.307 -3.16322 -1.21628 0
M  V30 1349 C 129.48 -4.33054 -0.615039 0
M  V30 1350 C 128.539 -5.01743 -1.58556 0
M  V30 1351 O 127.565 -5.58293 -1.10895 0
M  V30 1352 N 128.767 -5.01714 -2.91998 0
M  V30 1353 H 131.532 -2.94025 0.580483 0
M  V30 1354 H 129.093 -1.55373 0.45507 0
M  V30 1355 H 131.085 -3.59139 -1.86552 0
M  V30 1356 H 129.655 -2.52943 -1.83681 0
M  V30 1357 H 128.875 -3.93627 0.21245 0
M  V30 1358 H 130.163 -5.08431 -0.193704 0
M  V30 1359 H 129.561 -4.57075 -3.33316 0
M  V30 1360 H 128.118 -5.48371 -3.52325 0
M  V30 1361 N 131.551 -0.354651 -1.53558 0
M  V30 1362 C 132.499 0.512195 -2.26891 0
M  V30 1363 C 133.493 1.09263 -1.29452 0
M  V30 1364 O 134.699 1.03709 -1.47121 0
M  V30 1365 H 131.074 0.183878 -0.729173 0
M  V30 1366 H 133.045 -0.128202 -2.98124 0
M  V30 1367 C 131.794 1.64563 -3.06291 0
M  V30 1368 H 131.117 1.20829 -3.81104 0
M  V30 1369 H 132.557 2.22711 -3.60799 0
M  V30 1370 C 131.016 2.58158 -2.16462 0
M  V30 1371 O 131.546 3.60695 -1.76811 0
M  V30 1372 N 129.752 2.27096 -1.81317 0
M  V30 1373 H 129.299 1.43751 -2.1376 0
M  V30 1374 H 129.257 2.89975 -1.21498 0
M  V30 1375 N 133.029 1.57378 -0.0835403 0
M  V30 1376 C 134.445 1.57246 0.273109 0
M  V30 1377 C 134.645 1.09385 1.69225 0
M  V30 1378 O 133.701 0.765051 2.40631 0
M  V30 1379 C 135.014 3.00614 0.0720628 0
M  V30 1380 C 136.562 3.12684 0.1407 0
M  V30 1381 C 137.037 4.57989 -0.0322094 0
M  V30 1382 N 138.528 4.63194 0.0230085 0
M  V30 1383 C 139.263 5.73335 -0.0861941 0
M  V30 1384 N 138.759 6.9235 -0.24958 0
M  V30 1385 N 140.552 5.62093 -0.0282886 0
M  V30 1386 H 132.703 1.86801 -1.0109 0
M  V30 1387 H 134.966 0.861687 -0.395222 0
M  V30 1388 H 134.672 3.39786 -0.907662 0
M  V30 1389 H 134.546 3.68193 0.81936 0
M  V30 1390 H 136.933 2.73391 1.11092 0
M  V30 1391 H 137.014 2.47719 -0.637896 0
M  V30 1392 H 136.658 4.97973 -0.999247 0
M  V30 1393 H 136.588 5.21 0.765937 0
M  V30 1394 H 139.079 3.77613 0.14722 0
M  V30 1395 H 139.392 7.72117 -0.324733 0
M  V30 1396 H 137.737 6.94415 -0.285097 0
M  V30 1397 H 140.928 4.67997 0.0981408 0
M  V30 1398 H 141.101 6.47895 -0.116845 0
M  V30 1399 N 134.507 -0.190092 1.56449 0
M  V30 1400 C 135.732 -0.929864 1.85387 0
M  V30 1401 C 136.157 -1.7585 0.667704 0
M  V30 1402 O 135.515 -1.77198 -0.383459 0
M  V30 1403 C 135.563 -1.79773 3.12593 0
M  V30 1404 O 134.667 -2.89713 2.93496 0
M  V30 1405 H 134.008 -0.261574 0.610307 0
M  V30 1406 H 136.538 -0.193896 2.03679 0
M  V30 1407 H 136.548 -2.20139 3.43515 0
M  V30 1408 H 135.223 -1.18892 3.98544 0
M  V30 1409 H 133.8 -2.53065 2.73884 0
M  V30 1410 N 135.985 -1.50799 -0.457987 0
M  V30 1411 C 136.915 -1.73553 -1.5621 0
M  V30 1412 C 137.896 -0.584774 -1.59732 0
M  V30 1413 O 139.081 -0.825314 -1.7579 0
M  V30 1414 C 136.211 -1.84169 -2.94447 0
M  V30 1415 C 135.165 -2.99461 -3.0579 0
M  V30 1416 C 134.491 -2.95235 -4.45803 0
M  V30 1417 C 135.791 -4.39766 -2.81786 0
M  V30 1418 H 137.485 -2.66 -1.37421 0
M  V30 1419 H 135.031 -1.28002 -0.659662 0
M  V30 1420 H 136.984 -1.98672 -3.71628 0
M  V30 1421 H 135.708 -0.883545 -3.14422 0
M  V30 1422 H 134.367 -2.8463 -2.31044 0
M  V30 1423 H 134.015 -1.97239 -4.62715 0
M  V30 1424 H 133.715 -3.72642 -4.54326 0
M  V30 1425 H 135.239 -3.11803 -5.24987 0
M  V30 1426 H 136.653 -4.55054 -3.4871 0
M  V30 1427 H 135.05 -5.18722 -3.0174 0
M  V30 1428 H 136.12 -4.51229 -1.7754 0
M  V30 1429 N 137.463 0.71206 -1.40597 0
M  V30 1430 C 138.879 1.02058 -1.22704 0
M  V30 1431 C 139.079 2.01228 -0.104729 0
M  V30 1432 O 138.135 2.4674 0.53624 0
M  V30 1433 C 139.448 1.56094 -2.57012 0
M  V30 1434 C 140.996 1.6806 -2.64054 0
M  V30 1435 C 141.471 2.25501 -3.9864 0
M  V30 1436 N 142.962 2.32882 -4.004 0
M  V30 1437 C 143.697 2.78317 -5.01325 0
M  V30 1438 N 143.193 3.23478 -6.12645 0
M  V30 1439 N 144.986 2.77733 -4.88693 0
M  V30 1440 H 137.137 0.0547896 -2.12329 0
M  V30 1441 H 139.4 0.0869027 -0.944008 0
M  V30 1442 H 139.106 0.906865 -3.39807 0
M  V30 1443 H 138.98 2.54564 -2.78347 0
M  V30 1444 H 141.367 2.32583 -1.81629 0
M  V30 1445 H 141.448 0.681802 -2.46546 0
M  V30 1446 H 141.092 1.61598 -4.81506 0
M  V30 1447 H 141.022 3.26102 -4.13479 0
M  V30 1448 H 143.513 2.00991 -3.20017 0
M  V30 1449 H 143.826 3.56725 -6.85542 0
M  V30 1450 H 142.171 3.21429 -6.16205 0
M  V30 1451 H 145.362 2.4179 -4.00818 0
M  V30 1452 H 145.535 3.12826 -5.67489 0
M  V30 1453 N 138.941 1.26152 0.944643 0
M  V30 1454 C 140.187 1.11657 1.69294 0
M  V30 1455 C 140.52 -0.339926 1.91202 0
M  V30 1456 O 139.795 -1.24994 1.49019 0
M  V30 1457 C 140.078 1.88236 3.06984 0
M  V30 1458 C 139.931 3.41772 2.92424 0
M  V30 1459 C 141.25 1.67343 4.07043 0
M  V30 1460 H 138.369 0.407004 0.614424 0
M  V30 1461 H 141.011 1.55106 1.09737 0
M  V30 1462 H 139.161 1.51308 3.57824 0
M  V30 1463 H 140.833 3.88433 2.48832 0
M  V30 1464 H 139.076 3.68974 2.28124 0
M  V30 1465 H 139.747 3.90579 3.90067 0
M  V30 1466 H 142.223 1.99509 3.65151 0
M  V30 1467 H 141.099 2.23346 5.01406 0
M  V30 1468 H 141.36 0.617158 4.37771 0
M  V30 1469 N 140.419 -1.14872 1.07899 0
M  V30 1470 C 141.349 -2.2193 0.725887 0
M  V30 1471 C 142.33 -1.67622 -0.28927 0
M  V30 1472 O 143.515 -1.93533 -0.160787 0
M  V30 1473 C 140.645 -3.47061 0.128856 0
M  V30 1474 C 139.599 -4.14363 1.07178 0
M  V30 1475 C 138.925 -5.33636 0.337229 0
M  V30 1476 C 140.225 -4.63492 2.40775 0
M  V30 1477 H 141.919 -2.51724 1.62097 0
M  V30 1478 H 139.465 -1.20991 0.780838 0
M  V30 1479 H 141.418 -4.21199 -0.130147 0
M  V30 1480 H 140.142 -3.16617 -0.80134 0
M  V30 1481 H 138.801 -3.42173 1.3158 0
M  V30 1482 H 138.449 -4.99449 -0.596606 0
M  V30 1483 H 138.149 -5.79609 0.965788 0
M  V30 1484 H 139.673 -6.10539 0.0861567 0
M  V30 1485 H 141.087 -5.2913 2.20669 0
M  V30 1486 H 139.484 -5.20148 2.99276 0
M  V30 1487 H 140.554 -3.78834 3.02676 0
M  V30 1488 N 141.898 -0.863906 -1.31812 0
M  V30 1489 C 142.861 -0.320212 -2.26952 0
M  V30 1490 C 143.861 0.525369 -1.51975 0
M  V30 1491 O 145.051 0.335547 -1.70938 0
M  V30 1492 C 142.183 0.545919 -3.365 0
M  V30 1493 H 143.376 -1.16004 -2.76556 0
M  V30 1494 H 140.929 -0.638995 -1.42641 0
M  V30 1495 H 141.664 1.40718 -2.92179 0
M  V30 1496 H 141.449 -0.0594674 -3.92055 0
M  V30 1497 H 142.939 0.918796 -4.07367 0
M  V30 1498 N 143.376 1.44774 -0.622745 0
M  V30 1499 C 144.787 1.85546 -0.207226 0
M  V30 1500 C 145.138 1.52093 1.23944 0
M  V30 1501 O 144.263 0.95492 1.94191 0
M  V30 1502 C 144.858 3.36781 -0.369313 0
M  V30 1503 C 143.417 3.76399 -0.00836847 0
M  V30 1504 C 142.564 2.68664 -0.686651 0
M  V30 1505 H 145.515 1.3536 -0.828454 0
M  V30 1506 H 145.536 3.78453 0.394162 0
M  V30 1507 H 145.048 3.61098 -1.42231 0
M  V30 1508 H 143.149 3.57698 1.04322 0
M  V30 1509 H 143.262 4.7732 -0.412584 0
M  V30 1510 H 141.626 2.54404 -0.122777 0
M  V30 1511 H 142.409 2.95815 -1.74208 0
M  V30 1512 N 144.854 0.36279 1.53368 0
M  V30 1513 C 145.817 -0.472679 2.24273 0
M  V30 1514 C 146.817 -1.012 1.24961 0
M  V30 1515 O 148.007 -0.898194 1.49259 0
M  V30 1516 C 145.139 -1.66039 2.97731 0
M  V30 1517 H 146.332 0.14773 2.99536 0
M  V30 1518 H 143.885 0.114434 1.55881 0
M  V30 1519 H 144.62 -2.31896 2.26704 0
M  V30 1520 H 144.405 -1.28066 3.70596 0
M  V30 1521 H 145.895 -2.25252 3.51641 0
M  V30 1522 N 146.332 -1.57332 0.0918853 0
M  V30 1523 C 147.262 -2.16872 -0.865371 0
M  V30 1524 C 148.243 -1.10118 -1.29646 0
M  V30 1525 O 149.428 -1.38242 -1.36392 0
M  V30 1526 C 146.558 -2.74649 -2.12569 0
M  V30 1527 C 145.512 -3.86747 -1.83333 0
M  V30 1528 C 144.838 -4.31212 -3.16166 0
M  V30 1529 C 146.138 -5.10089 -1.1228 0
M  V30 1530 H 147.832 -2.97114 -0.369307 0
M  V30 1531 H 145.378 -1.42918 -0.176194 0
M  V30 1532 H 147.331 -3.14952 -2.7997 0
M  V30 1533 H 146.055 -1.91657 -2.64452 0
M  V30 1534 H 144.714 -3.46978 -1.18331 0
M  V30 1535 H 144.362 -3.45115 -3.6593 0
M  V30 1536 H 144.062 -5.06788 -2.97388 0
M  V30 1537 H 145.586 -4.74146 -3.84731 0
M  V30 1538 H 147 -5.47582 -1.69785 0
M  V30 1539 H 145.397 -5.91073 -1.03693 0
M  V30 1540 H 146.467 -4.84786 -0.105041 0
M  V30 1541 N 147.81 0.181792 -1.56548 0
M  V30 1542 C 149.087 0.926765 -1.72251 0
M  V30 1543 C 149.467 2.00831 -0.650386 0
M  V30 1544 O 148.815 2.26008 0.336521 0
M  V30 1545 C 149.025 1.50106 -3.1507 0
M  V30 1546 C 150.373 1.97805 -3.75711 0
M  V30 1547 O 151.397 1.59922 -3.18282 0
M  V30 1548 O 150.256 2.67555 -4.76525 0
M  V30 1549 H 147.35 0.435506 -0.703039 0
M  V30 1550 H 149.896 0.170443 -1.68842 0
M  V30 1551 H 148.668 0.72212 -3.84579 0
M  V30 1552 H 148.291 2.32186 -3.22763 0
M  V30 1553 N 149.288 1.51039 0.449983 0
M  V30 1554 C 150.236 1.71995 1.5659 0
M  V30 1555 C 151.23 0.586029 1.5894 0
M  V30 1556 O 152.436 0.76709 1.62837 0
M  V30 1557 H 148.811 0.543233 0.520001 0
M  V30 1558 H 150.782 2.65562 1.36085 0
M  V30 1559 C 149.531 1.8506 2.9436 0
M  V30 1560 H 148.854 2.71712 2.93279 0
M  V30 1561 H 150.294 2.0374 3.71842 0
M  V30 1562 C 148.753 0.607277 3.31382 0
M  V30 1563 O 149.283 -0.243903 4.00959 0
M  V30 1564 N 147.489 0.455073 2.87015 0
M  V30 1565 H 147.036 1.14879 2.30566 0
M  V30 1566 H 146.994 -0.375611 3.12148 0
M  V30 1567 N 150.766 -0.704594 1.40972 0
M  V30 1568 C 151.991 -1.49858 1.43378 0
M  V30 1569 C 152.416 -1.88061 0.038184 0
M  V30 1570 O 151.774 -1.5402 -0.956425 0
M  V30 1571 C 151.822 -2.74333 2.34038 0
M  V30 1572 O 150.926 -3.7147 1.7912 0
M  V30 1573 H 150.267 -0.45139 0.486974 0
M  V30 1574 H 152.797 -0.866832 1.8533 0
M  V30 1575 H 152.807 -3.22741 2.49604 0
M  V30 1576 H 151.482 -2.45863 3.35446 0
M  V30 1577 H 150.059 -3.30363 1.72958 0
M  V30 1578 N 152.244 -1.26651 -0.937939 0
M  V30 1579 C 153.174 -1.10993 -2.05433 0
M  V30 1580 C 154.155 -0.0142161 -1.70094 0
M  V30 1581 O 155.34 -0.186837 -1.93299 0
M  V30 1582 C 152.47 -0.745561 -3.39203 0
M  V30 1583 C 151.424 -1.79337 -3.88616 0
M  V30 1584 C 150.75 -1.28324 -5.19073 0
M  V30 1585 C 152.05 -3.19553 -4.13138 0
M  V30 1586 H 153.744 -2.0438 -2.1879 0
M  V30 1587 H 151.29 -0.984041 -1.05131 0
M  V30 1588 H 153.243 -0.622888 -4.16771 0
M  V30 1589 H 151.967 0.22401 -3.25831 0
M  V30 1590 H 150.626 -1.90477 -3.13231 0
M  V30 1591 H 150.274 -0.303414 -5.02084 0
M  V30 1592 H 149.974 -1.98369 -5.53103 0
M  V30 1593 H 151.498 -1.1733 -5.99221 0
M  V30 1594 H 152.912 -3.11471 -4.81309 0
M  V30 1595 H 151.309 -3.87218 -4.58457 0
M  V30 1596 H 152.379 -3.65368 -3.18801 0
M  V30 1597 N 153.722 1.14298 -1.08507 0
M  V30 1598 C 154.962 1.87016 -0.824894 0
M  V30 1599 C 155.326 1.81099 0.637735 0
M  V30 1600 O 156.527 2.48963 1.01345 0
M  V30 1601 C 154.798 3.31584 -1.33368 0
M  V30 1602 S 156.357 4.21903 -1.20596 0
M  V30 1603 H 153.175 0.645259 -0.2986 0
M  V30 1604 H 155.777 1.37822 -1.38656 0
M  V30 1605 H 154.481 3.33439 -2.39262 0
M  V30 1606 H 154.012 3.85836 -0.767734 0
M  V30 1607 H 156.027 4.95971 -0.150891 0
M  V30 1608 N 155.201 0.870884 1.31352 0
M  V30 1609 C 156.133 0.28455 2.27427 0
M  V30 1610 C 157.146 -0.552927 1.53123 0
M  V30 1611 O 158.335 -0.374771 1.74521 0
M  V30 1612 C 155.435 -0.615164 3.3327 0
M  V30 1613 C 154.608 0.190079 4.36987 0
M  V30 1614 C 153.667 -0.637917 5.22319 0
M  V30 1615 O 152.693 -0.065626 5.69162 0
M  V30 1616 N 153.895 -1.94973 5.46778 0
M  V30 1617 H 156.66 1.11017 2.7838 0
M  V30 1618 H 154.221 0.732458 1.44384 0
M  V30 1619 H 156.213 -1.1748 3.87273 0
M  V30 1620 H 154.783 -1.34146 2.82354 0
M  V30 1621 H 154.003 0.931165 3.83044 0
M  V30 1622 H 155.291 0.742579 5.03352 0
M  V30 1623 H 154.689 -2.4378 5.10478 0
M  V30 1624 H 153.246 -2.45713 6.03712 0
M  V30 1625 N 156.679 -1.44442 0.630414 0
M  V30 1626 C 157.642 -2.29107 -0.0652523 0
M  V30 1627 C 158.642 -1.41002 -0.772995 0
M  V30 1628 O 159.832 -1.62881 -0.617692 0
M  V30 1629 C 156.964 -3.22564 -1.10296 0
M  V30 1630 H 158.157 -2.92103 0.679401 0
M  V30 1631 H 155.71 -1.51343 0.390517 0
M  V30 1632 H 156.445 -2.64416 -1.87762 0
M  V30 1633 H 156.23 -3.87491 -0.59941 0
M  V30 1634 H 157.72 -3.86167 -1.5895 0
M  V30 1635 N 158.157 -0.370918 -1.53173 0
M  V30 1636 C 159.404 0.217102 -2.01333 0
M  V30 1637 C 159.732 1.48338 -1.25802 0
M  V30 1638 O 158.987 1.92698 -0.34146 0
M  V30 1639 C 159.286 0.549696 -3.53147 0
M  V30 1640 C 158.952 -0.622872 -4.46577 0
M  V30 1641 C 157.614 -0.944595 -4.71838 0
M  V30 1642 C 159.966 -1.40819 -5.01816 0
M  V30 1643 C 157.294 -2.05351 -5.49589 0
M  V30 1644 C 159.646 -2.50757 -5.80778 0
M  V30 1645 C 158.31 -2.83458 -6.04324 0
M  V30 1646 H 157.58 0.0794431 -0.736729 0
M  V30 1647 H 160.227 -0.504481 -1.84736 0
M  V30 1648 H 158.532 1.35237 -3.6772 0
M  V30 1649 H 160.229 1.017 -3.87889 0
M  V30 1650 H 156.819 -0.36209 -4.27068 0
M  V30 1651 H 161.003 -1.17289 -4.82242 0
M  V30 1652 H 156.259 -2.3108 -5.6605 0
M  V30 1653 H 160.433 -3.12022 -6.22588 0
M  V30 1654 H 158.06 -3.69508 -6.64355 0
M  V30 1655 N 159.635 1.57281 -0.100228 0
M  V30 1656 C 160.598 2.13158 0.842398 0
M  V30 1657 C 161.598 1.06202 1.20738 0
M  V30 1658 O 162.788 1.32066 1.13597 0
M  V30 1659 C 159.92 2.65639 2.13655 0
M  V30 1660 H 161.113 2.97766 0.357114 0
M  V30 1661 H 158.666 1.5559 0.148823 0
M  V30 1662 H 159.401 1.84566 2.66657 0
M  V30 1663 H 159.186 3.43844 1.88451 0
M  V30 1664 H 160.676 3.08846 2.81077 0
M  V30 1665 N 161.113 -0.173488 1.56642 0
M  V30 1666 C 162.36 -0.890465 1.81871 0
M  V30 1667 C 162.688 -1.82339 0.67696 0
M  V30 1668 O 161.943 -1.92795 -0.335926 0
M  V30 1669 C 162.242 -1.72069 3.13252 0
M  V30 1670 C 161.908 -0.936878 4.41059 0
M  V30 1671 C 160.57 -0.720545 4.75775 0
M  V30 1672 C 162.922 -0.386919 5.19762 0
M  V30 1673 C 160.25 0.0568829 5.86672 0
M  V30 1674 C 162.602 0.37741 6.31473 0
M  V30 1675 C 161.266 0.604563 6.64757 0
M  V30 1676 H 160.536 -0.325844 0.665512 0
M  V30 1677 H 163.183 -0.155527 1.90867 0
M  V30 1678 H 161.488 -2.52496 2.99588 0
M  V30 1679 H 163.185 -2.27844 3.29982 0
M  V30 1680 H 159.775 -1.11553 4.13828 0
M  V30 1681 H 163.959 -0.541398 4.93338 0
M  V30 1682 H 159.215 0.242635 6.10918 0
M  V30 1683 H 163.389 0.810825 6.91664 0
M  V30 1684 H 161.016 1.20885 7.50527 0
M  V30 1685 N 162.591 -1.51276 -0.441967 0
M  V30 1686 C 163.838 -1.63715 -1.19179 0
M  V30 1687 C 164.166 -0.351175 -1.91303 0
M  V30 1688 O 163.421 0.664524 -1.84072 0
M  V30 1689 C 163.72 -2.78746 -2.23686 0
M  V30 1690 C 163.386 -4.18189 -1.68607 0
M  V30 1691 C 162.048 -4.56125 -1.53308 0
M  V30 1692 C 164.4 -5.05222 -1.28062 0
M  V30 1693 C 161.728 -5.78804 -0.959317 0
M  V30 1694 C 164.08 -6.28476 -0.721162 0
M  V30 1695 C 162.744 -6.65188 -0.55504 0
M  V30 1696 H 162.014 -0.599076 -0.436106 0
M  V30 1697 H 164.661 -1.85296 -0.48351 0
M  V30 1698 H 162.966 -2.51369 -3.00535 0
M  V30 1699 H 164.663 -2.8557 -2.81515 0
M  V30 1700 H 161.253 -3.88277 -1.8149 0
M  V30 1701 H 165.437 -4.76524 -1.38704 0
M  V30 1702 H 160.693 -6.05899 -0.81833 0
M  V30 1703 H 164.867 -6.95259 -0.398458 0
M  V30 1704 H 162.494 -7.60123 -0.108311 0
M  V30 1705 N 164.069 0.697108 -1.41344 0
M  V30 1706 C 165.002 1.82134 -1.37486 0
M  V30 1707 C 165.98 1.60784 -0.242351 0
M  V30 1708 O 167.164 1.83553 -0.429012 0
M  V30 1709 C 164.291 3.18788 -1.14421 0
M  V30 1710 C 163.337 3.58932 -2.3037 0
M  V30 1711 S 164.17 3.63916 -3.92843 0
M  V30 1712 C 165.326 5.03298 -3.72078 0
M  V30 1713 H 165.559 1.85129 -2.32625 0
M  V30 1714 H 163.092 0.865671 -1.2785 0
M  V30 1715 H 165.05 3.97677 -1.018 0
M  V30 1716 H 163.711 3.13404 -0.20905 0
M  V30 1717 H 162.904 4.58202 -2.09922 0
M  V30 1718 H 162.506 2.87347 -2.39391 0
M  V30 1719 H 164.798 5.90753 -3.31688 0
M  V30 1720 H 165.741 5.28788 -4.70945 0
M  V30 1721 H 166.149 4.74764 -3.05384 0
M  V30 1722 N 165.547 1.27147 0.931209 0
M  V30 1723 C 166.772 1.16191 1.71797 0
M  V30 1724 C 167.197 -0.278004 1.86034 0
M  V30 1725 O 166.555 -1.20137 1.35782 0
M  V30 1726 C 166.603 1.84673 3.09723 0
M  V30 1727 O 165.707 1.14231 3.96264 0
M  V30 1728 H 165.048 0.404303 0.526721 0
M  V30 1729 H 167.578 1.68152 1.1656 0
M  V30 1730 H 167.588 1.91893 3.60057 0
M  V30 1731 H 166.263 2.89421 2.98677 0
M  V30 1732 H 164.84 1.15056 3.54706 0
M  V30 1733 N 167.025 -1.13721 1.09112 0
M  V30 1734 C 168.272 -1.84924 0.825192 0
M  V30 1735 C 168.6 -1.83347 -0.649151 0
M  V30 1736 O 167.855 -1.26449 -1.49362 0
M  V30 1737 C 168.154 -3.32861 1.30146 0
M  V30 1738 C 167.82 -3.54621 2.78486 0
M  V30 1739 C 166.482 -3.60268 3.18999 0
M  V30 1740 C 168.834 -3.62855 3.74146 0
M  V30 1741 C 166.162 -3.71679 4.53951 0
M  V30 1742 C 168.514 -3.75793 5.08883 0
M  V30 1743 C 167.178 -3.79692 5.4899 0
M  V30 1744 H 166.448 -0.676684 0.301959 0
M  V30 1745 H 169.095 -1.3428 1.36533 0
M  V30 1746 H 167.4 -3.85835 0.681064 0
M  V30 1747 H 169.097 -3.86395 1.07236 0
M  V30 1748 H 165.687 -3.50879 2.46134 0
M  V30 1749 H 169.871 -3.57775 3.43963 0
M  V30 1750 H 165.127 -3.72963 4.84467 0
M  V30 1751 H 169.301 -3.81107 5.82864 0
M  V30 1752 H 166.928 -3.88287 6.53558 0
M  V30 1753 N 168.503 -0.877838 -1.30888 0
M  V30 1754 C 169.75 -0.492696 -1.96415 0
M  V30 1755 C 170.078 0.956671 -1.69346 0
M  V30 1756 O 169.333 1.68993 -0.986913 0
M  V30 1757 C 169.632 -0.705748 -3.50363 0
M  V30 1758 C 169.298 -2.1291 -3.97467 0
M  V30 1759 C 167.96 -2.51834 -4.1004 0
M  V30 1760 C 170.312 -3.05702 -4.22132 0
M  V30 1761 C 167.64 -3.82775 -4.44635 0
M  V30 1762 C 169.992 -4.36166 -4.58194 0
M  V30 1763 C 168.656 -4.74993 -4.68975 0
M  V30 1764 H 167.926 -0.18029 -0.718733 0
M  V30 1765 H 170.573 -1.11233 -1.55883 0
M  V30 1766 H 168.878 -0.00303058 -3.918 0
M  V30 1767 H 170.575 -0.387456 -3.99124 0
M  V30 1768 H 167.165 -1.81694 -3.88182 0
M  V30 1769 H 171.349 -2.76853 -4.11906 0
M  V30 1770 H 166.605 -4.12609 -4.51181 0
M  V30 1771 H 170.779 -5.08111 -4.76231 0
M  V30 1772 H 168.406 -5.76495 -4.95537 0
M  V30 1773 N 169.982 1.44106 -0.638065 0
M  V30 1774 C 171.23 2.01579 -0.145043 0
M  V30 1775 C 171.551 1.50496 1.24 0
M  V30 1776 O 170.821 0.711374 1.82527 0
M  V30 1777 H 169.401 0.745282 -0.05063 0
M  V30 1778 H 172.063 1.76516 -0.826327 0
M  V30 1779 H 171.159 3.11877 -0.118039 0
M  V30 1780 N 171.46 0.379036 1.52974 0
M  V30 1781 C 172.39 -0.452706 2.29069 0
M  V30 1782 C 173.371 -1.07237 1.32039 0
M  V30 1783 O 174.556 -1.08708 1.60923 0
M  V30 1784 C 171.686 -1.5856 3.08992 0
M  V30 1785 C 170.64 -1.0925 4.13822 0
M  V30 1786 C 169.966 -2.31668 4.81907 0
M  V30 1787 C 171.266 -0.167702 5.22031 0
M  V30 1788 H 172.96 0.182181 2.98845 0
M  V30 1789 H 170.506 0.0890592 1.43724 0
M  V30 1790 H 172.459 -2.1742 3.6098 0
M  V30 1791 H 171.183 -2.24792 2.36931 0
M  V30 1792 H 169.842 -0.526494 3.628 0
M  V30 1793 H 169.49 -2.96386 4.06404 0
M  V30 1794 H 169.19 -1.9934 5.52754 0
M  V30 1795 H 170.714 -2.91189 5.36695 0
M  V30 1796 H 172.128 -0.664186 5.6944 0
M  V30 1797 H 170.525 0.0653265 6.00064 0
M  V30 1798 H 171.595 0.786347 4.78482 0
M  V30 1799 N 172.938 -1.57226 0.108567 0
M  V30 1800 C 174.163 -1.99604 -0.563303 0
M  V30 1801 C 174.588 -0.987563 -1.6009 0
M  V30 1802 O 173.946 0.0421687 -1.81251 0
M  V30 1803 C 173.994 -3.40902 -1.17552 0
M  V30 1804 O 173.098 -3.42896 -2.2912 0
M  V30 1805 H 172.439 -0.648704 -0.1417 0
M  V30 1806 H 174.969 -2.03679 0.193961 0
M  V30 1807 H 174.979 -3.78886 -1.51357 0
M  V30 1808 H 173.654 -4.1382 -0.415445 0
M  V30 1809 H 172.231 -3.1672 -1.96832 0
M  V30 1810 N 174.416 0.165178 -1.56732 0
M  V30 1811 C 175.641 0.900253 -1.86843 0
M  V30 1812 C 176.066 1.74766 -0.695596 0
M  V30 1813 O 175.424 1.77786 0.35522 0
M  V30 1814 C 175.472 1.74777 -3.15413 0
M  V30 1815 O 174.576 2.85007 -2.98068 0
M  V30 1816 H 173.917 0.251832 -0.614391 0
M  V30 1817 H 176.447 0.161468 -2.03962 0
M  V30 1818 H 176.457 2.14646 -3.46974 0
M  V30 1819 H 175.132 1.12537 -4.00385 0
M  V30 1820 H 173.709 2.48676 -2.77875 0
M  V30 1821 N 175.894 1.51508 0.433938 0
M  V30 1822 C 177.122 1.68157 1.20543 0
M  V30 1823 C 177.537 0.380362 1.84929 0
M  V30 1824 O 176.894 -0.641446 1.70856 0
M  V30 1825 C 176.945 2.79965 2.28696 0
M  V30 1826 O 176.666 4.05045 1.66943 0
M  V30 1827 C 178.167 3.07912 3.18912 0
M  V30 1828 H 175.387 0.56421 0.363191 0
M  V30 1829 H 177.931 1.97941 0.513754 0
M  V30 1830 H 176.086 2.5277 2.93574 0
M  V30 1831 H 176.5 4.67165 2.38448 0
M  V30 1832 H 177.974 3.89719 3.90926 0
M  V30 1833 H 178.451 2.20456 3.79863 0
M  V30 1834 H 179.057 3.36779 2.59731 0
M  V30 1835 N 177.372 -0.689602 1.41712 0
M  V30 1836 C 178.302 -1.81577 1.46806 0
M  V30 1837 C 179.283 -1.66945 0.326105 0
M  V30 1838 O 180.468 -1.86588 0.538377 0
M  V30 1839 C 177.598 -3.19762 1.35535 0
M  V30 1840 C 176.552 -3.49107 2.47605 0
M  V30 1841 C 175.878 -4.86711 2.21397 0
M  V30 1842 C 177.178 -3.47483 3.89939 0
M  V30 1843 H 178.872 -1.7757 2.41058 0
M  V30 1844 H 176.418 -0.852887 1.16025 0
M  V30 1845 H 178.371 -3.98263 1.3771 0
M  V30 1846 H 177.095 -3.24409 0.377708 0
M  V30 1847 H 175.754 -2.72959 2.44722 0
M  V30 1848 H 175.402 -4.8799 1.21961 0
M  V30 1849 H 175.102 -5.0731 2.96497 0
M  V30 1850 H 176.626 -5.67515 2.25297 0
M  V30 1851 H 178.04 -4.1598 3.94505 0
M  V30 1852 H 176.437 -3.79615 4.64771 0
M  V30 1853 H 177.507 -2.46341 4.17665 0
M  V30 1854 N 178.85 -1.27639 -0.924453 0
M  V30 1855 C 179.782 -1.06442 -2.02985 0
M  V30 1856 C 180.795 -0.0194771 -1.62788 0
M  V30 1857 O 181.984 -0.261388 -1.76576 0
M  V30 1858 C 179.084 -0.59327 -3.33667 0
M  V30 1859 C 178.257 -1.71123 -4.02537 0
M  V30 1860 C 177.316 -1.23527 -5.11495 0
M  V30 1861 O 176.342 -1.93553 -5.35281 0
M  V30 1862 N 177.544 -0.0926678 -5.80426 0
M  V30 1863 H 180.309 -2.01633 -2.2173 0
M  V30 1864 H 177.87 -1.19248 -1.09505 0
M  V30 1865 H 179.862 -0.258686 -4.03872 0
M  V30 1866 H 178.432 0.265502 -3.1147 0
M  V30 1867 H 177.652 -2.21593 -3.26022 0
M  V30 1868 H 178.94 -2.46145 -4.45298 0
M  V30 1869 H 178.338 0.491741 -5.63559 0
M  V30 1870 H 176.895 0.182714 -6.51544 0
M  V30 1871 N 180.328 1.1314 -1.09713 0
M  V30 1872 C 181.258 2.20748 -0.761102 0
M  V30 1873 C 182.239 1.68061 0.262566 0
M  V30 1874 O 183.424 1.93765 0.129977 0
M  V30 1875 C 180.554 3.46812 -0.184054 0
M  V30 1876 C 179.508 4.12606 -1.13757 0
M  V30 1877 C 178.834 5.33031 -0.422083 0
M  V30 1878 C 180.134 4.59603 -2.48118 0
M  V30 1879 H 181.828 2.49113 -1.66082 0
M  V30 1880 H 179.374 1.19734 -0.799987 0
M  V30 1881 H 181.327 4.21353 0.0631215 0
M  V30 1882 H 180.051 3.17851 0.750868 0
M  V30 1883 H 178.71 3.40036 -1.37007 0
M  V30 1884 H 178.358 5.00335 0.517072 0
M  V30 1885 H 178.058 5.77999 -1.05788 0
M  V30 1886 H 179.582 6.10325 -0.183277 0
M  V30 1887 H 180.996 5.25552 -2.29059 0
M  V30 1888 H 179.393 5.15321 -3.07514 0
M  V30 1889 H 180.463 3.73971 -3.08665 0
M  V30 1890 N 181.806 0.884767 1.30421 0
M  V30 1891 C 182.736 0.367574 2.30589 0
M  V30 1892 C 183.717 -0.549464 1.60981 0
M  V30 1893 O 184.902 -0.46336 1.88591 0
M  V30 1894 C 182.032 -0.418944 3.44764 0
M  V30 1895 C 180.986 0.406316 4.26067 0
M  V30 1896 C 180.312 -0.506793 5.32293 0
M  V30 1897 C 181.612 1.64832 4.95608 0
M  V30 1898 H 183.306 1.20462 2.74097 0
M  V30 1899 H 180.852 0.580695 1.31772 0
M  V30 1900 H 182.805 -0.791395 4.13902 0
M  V30 1901 H 181.529 -1.28964 3.0006 0
M  V30 1902 H 180.188 0.760903 3.58617 0
M  V30 1903 H 179.836 -1.37519 4.83836 0
M  V30 1904 H 179.536 0.0415828 5.87585 0
M  V30 1905 H 181.06 -0.875764 6.04287 0
M  V30 1906 H 182.474 1.34646 5.57264 0
M  V30 1907 H 180.871 2.13688 5.60765 0
M  V30 1908 H 181.941 2.39284 4.21748 0
M  V30 1909 N 183.284 -1.43765 0.645699 0
M  V30 1910 C 184.247 -2.29163 -0.0409488 0
M  V30 1911 C 185.247 -1.41813 -0.757996 0
M  V30 1912 O 186.437 -1.63527 -0.600382 0
M  V30 1913 C 183.569 -3.23716 -1.06869 0
M  V30 1914 H 184.762 -2.91366 0.710345 0
M  V30 1915 H 182.315 -1.5092 0.406547 0
M  V30 1916 H 183.05 -2.66393 -1.84947 0
M  V30 1917 H 182.835 -3.88105 -0.558277 0
M  V30 1918 H 184.325 -3.87831 -1.54845 0
M  V30 1919 N 184.763 -0.387143 -1.52771 0
M  V30 1920 C 185.696 0.493123 -2.22808 0
M  V30 1921 C 186.674 1.0658 -1.22798 0
M  V30 1922 O 187.858 1.11785 -1.51777 0
M  V30 1923 C 184.985 1.68238 -2.93962 0
M  V30 1924 C 184.031 1.23515 -4.08223 0
M  V30 1925 S 184.864 0.21848 -5.35054 0
M  V30 1926 C 186.02 1.41357 -6.09729 0
M  V30 1927 H 186.253 -0.101625 -2.97126 0
M  V30 1928 H 183.786 -0.171323 -1.53447 0
M  V30 1929 H 185.744 2.36443 -3.35567 0
M  V30 1930 H 184.405 2.24842 -2.19328 0
M  V30 1931 H 183.598 2.12304 -4.57103 0
M  V30 1932 H 183.2 0.632044 -3.68621 0
M  V30 1933 H 185.492 2.34101 -6.3577 0
M  V30 1934 H 186.435 0.965736 -7.01484 0
M  V30 1935 H 186.843 1.6294 -5.40473 0
M  V30 1936 N 186.241 1.57166 -0.116904 0
M  V30 1937 C 187.204 2.14039 0.819742 0
M  V30 1938 C 188.204 1.07477 1.19605 0
M  V30 1939 O 189.394 1.33263 1.1219 0
M  V30 1940 C 186.526 2.67891 2.10826 0
M  V30 1941 H 187.719 2.98128 0.325511 0
M  V30 1942 H 185.272 1.55739 0.132312 0
M  V30 1943 H 186.007 1.87384 2.64685 0
M  V30 1944 H 185.792 3.45823 1.84793 0
M  V30 1945 H 187.282 3.11809 2.77785 0
M  V30 1946 N 187.719 -0.156864 1.56817 0
M  V30 1947 C 188.649 -1.19589 2.00551 0
M  V30 1948 C 189.63 -1.4536 0.883426 0
M  V30 1949 O 190.815 -1.56449 1.15054 0
M  V30 1950 C 187.945 -2.53143 2.37773 0
M  V30 1951 C 186.899 -2.41913 3.53075 0
M  V30 1952 C 186.225 -3.80088 3.76081 0
M  V30 1953 C 187.525 -1.91157 4.86062 0
M  V30 1954 H 189.219 -0.832293 2.87599 0
M  V30 1955 H 186.765 -0.398918 1.38364 0
M  V30 1956 H 188.718 -3.26047 2.66967 0
M  V30 1957 H 187.442 -2.91319 1.4765 0
M  V30 1958 H 186.101 -1.71462 3.24031 0
M  V30 1959 H 185.749 -4.15683 2.83225 0
M  V30 1960 H 185.449 -3.73439 4.53671 0
M  V30 1961 H 186.973 -4.54556 4.0769 0
M  V30 1962 H 188.387 -2.53846 5.14038 0
M  V30 1963 H 186.784 -1.95422 5.67389 0
M  V30 1964 H 187.854 -0.866673 4.77092 0
M  V30 1965 N 189.197 -1.51736 -0.425897 0
M  V30 1966 C 190.107 -1.76738 -1.54275 0
M  V30 1967 C 191.123 -0.65211 -1.61318 0
M  V30 1968 O 192.299 -0.935654 -1.78346 0
M  V30 1969 C 189.364 -1.89755 -2.90162 0
M  V30 1970 C 188.425 -3.13633 -2.93143 0
M  V30 1971 C 187.658 -3.2602 -4.22548 0
M  V30 1972 O 187.881 -2.44067 -5.15546 0
M  V30 1973 O 186.815 -4.19071 -4.32046 0
M  V30 1974 H 190.641 -2.71502 -1.36089 0
M  V30 1975 H 188.226 -1.36376 -0.610069 0
M  V30 1976 H 190.108 -2.00236 -3.70788 0
M  V30 1977 H 188.783 -0.981785 -3.08452 0
M  V30 1978 H 187.69 -3.08622 -2.11431 0
M  V30 1979 H 189.023 -4.04936 -2.798 0
M  V30 1980 N 190.675 0.682077 -1.42076 0
M  V30 1981 C 191.915 1.45424 -1.43636 0
M  V30 1982 C 192.279 1.91939 -0.0484001 0
M  V30 1983 O 193.48 2.6873 0.0612514 0
M  V30 1984 C 191.751 2.62427 -2.42625 0
M  V30 1985 S 193.31 3.51379 -2.62827 0
M  V30 1986 H 190.128 0.496779 -0.508657 0
M  V30 1987 H 192.73 0.794645 -1.78621 0
M  V30 1988 H 191.434 2.26481 -3.42249 0
M  V30 1989 H 190.965 3.33266 -2.09039 0
M  V30 1990 H 192.98 4.58141 -1.9058 0
M  V30 1991 N 192.153 1.28127 0.917671 0
M  V30 1992 C 193.399 1.16232 1.66918 0
M  V30 1993 C 193.754 -0.28701 1.90247 0
M  V30 1994 O 193.047 -1.20586 1.48895 0
M  V30 1995 C 193.241 1.89018 3.03327 0
M  V30 1996 C 193.07 3.4088 2.9331 0
M  V30 1997 C 191.84 4.10214 2.95047 0
M  V30 1998 C 194.038 4.36689 2.71675 0
M  V30 1999 N 192.02 5.48571 2.75577 0
M  V30 2000 C 193.391 5.62382 2.6101 0
M  V30 2001 C 195.446 4.26661 2.56641 0
M  V30 2002 C 194.149 6.79189 2.36843 0
M  V30 2003 C 196.175 5.432 2.33853 0
M  V30 2004 C 195.537 6.67855 2.23939 0
M  V30 2005 H 191.636 0.48024 0.617166 0
M  V30 2006 H 194.22 1.61727 1.08409 0
M  V30 2007 H 192.391 1.45963 3.59929 0
M  V30 2008 H 194.123 1.69541 3.67475 0
M  V30 2009 H 190.878 3.61762 3.05655 0
M  V30 2010 H 191.302 6.21287 2.68945 0
M  V30 2011 H 195.944 3.30998 2.63059 0
M  V30 2012 H 193.662 7.74926 2.29164 0
M  V30 2013 H 197.248 5.37328 2.23091 0
M  V30 2014 H 196.128 7.56511 2.06546 0
M  V30 2015 N 193.631 -1.12557 1.10312 0
M  V30 2016 C 194.561 -2.20341 0.772798 0
M  V30 2017 C 195.542 -1.68198 -0.25365 0
M  V30 2018 O 196.727 -1.93831 -0.119699 0
M  V30 2019 C 193.857 -3.46709 0.202443 0
M  V30 2020 C 192.811 -4.11996 1.15943 0
M  V30 2021 C 192.137 -5.328 0.450345 0
M  V30 2022 C 193.437 -4.5828 2.50552 0
M  V30 2023 H 195.131 -2.48229 1.674 0
M  V30 2024 H 192.677 -1.19308 0.806326 0
M  V30 2025 H 194.63 -4.2138 -0.0407752 0
M  V30 2026 H 193.354 -3.18245 -0.734001 0
M  V30 2027 H 192.013 -3.39305 1.38808 0
M  V30 2028 H 191.661 -5.00602 -0.490531 0
M  V30 2029 H 191.361 -5.7743 1.08851 0
M  V30 2030 H 192.885 -6.10219 0.215642 0
M  V30 2031 H 194.299 -5.2433 2.31843 0
M  V30 2032 H 192.696 -5.13683 3.10242 0
M  V30 2033 H 193.766 -3.72329 3.10643 0
M  V30 2034 N 195.109 -0.891671 -1.2995 0
M  V30 2035 C 196.334 -0.527932 -2.00568 0
M  V30 2036 C 196.759 0.877969 -1.66353 0
M  V30 2037 O 196.117 1.58301 -0.883762 0
M  V30 2038 C 196.165 -0.717745 -3.53385 0
M  V30 2039 O 195.269 0.233376 -4.11739 0
M  V30 2040 H 194.61 -0.20722 -0.630837 0
M  V30 2041 H 197.14 -1.20105 -1.65638 0
M  V30 2042 H 197.15 -0.619307 -4.03272 0
M  V30 2043 H 195.825 -1.74276 -3.77625 0
M  V30 2044 H 194.402 0.0880706 -3.72796 0
M  V30 2045 N 196.587 1.43421 -0.653314 0
M  V30 2046 C 197.517 2.33487 0.0246656 0
M  V30 2047 C 198.498 1.49475 0.811863 0
M  V30 2048 O 199.683 1.78139 0.773322 0
M  V30 2049 C 196.813 3.32841 0.99166 0
M  V30 2050 C 195.767 4.26842 0.314568 0
M  V30 2051 C 195.093 5.16236 1.39302 0
M  V30 2052 C 196.393 5.16243 -0.793095 0
M  V30 2053 H 198.087 2.90427 -0.727481 0
M  V30 2054 H 195.633 1.39649 -0.351287 0
M  V30 2055 H 197.586 3.94747 1.47487 0
M  V30 2056 H 196.31 2.74158 1.77497 0
M  V30 2057 H 194.969 3.663 -0.148199 0
M  V30 2058 H 194.617 4.53891 2.16776 0
M  V30 2059 H 194.317 5.79948 0.945223 0
M  V30 2060 H 195.841 5.81015 1.87759 0
M  V30 2061 H 197.255 5.71958 -0.392039 0
M  V30 2062 H 195.652 5.88676 -1.16536 0
M  V30 2063 H 196.722 4.55927 -1.65103 0
M  V30 2064 N 198.065 0.39524 1.52563 0
M  V30 2065 C 199.313 -0.184678 2.01254 0
M  V30 2066 C 199.634 -1.46822 1.28329 0
M  V30 2067 O 198.904 -1.91666 0.405094 0
M  V30 2068 H 197.484 -0.0712355 0.743596 0
M  V30 2069 H 200.146 0.528293 1.87603 0
M  V30 2070 H 199.242 -0.390681 3.09645 0
M  V30 2071 N 199.544 -1.57102 0.125237 0
M  V30 2072 C 200.494 -2.12202 -0.833936 0
M  V30 2073 C 201.478 -1.04433 -1.22403 0
M  V30 2074 O 202.67 -1.30655 -1.19408 0
M  V30 2075 C 199.799 -2.72994 -2.08157 0
M  V30 2076 C 198.885 -3.87852 -1.71556 0
M  V30 2077 N 199.276 -4.9464 -1.05662 0
M  V30 2078 C 197.574 -3.98153 -2.00973 0
M  V30 2079 C 198.275 -5.74953 -0.883376 0
M  V30 2080 N 197.251 -5.24985 -1.41036 0
M  V30 2081 H 201.053 -2.92141 -0.321035 0
M  V30 2082 H 198.567 -1.62217 -0.0770315 0
M  V30 2083 H 200.564 -3.10816 -2.77847 0
M  V30 2084 H 199.224 -1.9452 -2.59985 0
M  V30 2085 H 200.235 -5.12872 -0.719878 0
M  V30 2086 H 196.912 -3.30728 -2.54804 0
M  V30 2087 H 198.302 -6.70904 -0.365675 0
M  V30 2088 N 201.022 0.148545 -1.56898 0
M  V30 2089 C 202.433 0.708766 -1.72723 0
M  V30 2090 C 202.784 1.81734 -0.739395 0
M  V30 2091 O 201.909 2.16194 0.0943169 0
M  V30 2092 C 202.504 1.29245 -3.13179 0
M  V30 2093 C 201.063 1.79925 -3.30611 0
M  V30 2094 C 200.21 0.687111 -2.68652 0
M  V30 2095 H 203.161 -0.0771063 -1.58513 0
M  V30 2096 H 203.182 2.16224 -3.13093 0
M  V30 2097 H 202.694 0.485382 -3.85053 0
M  V30 2098 H 200.795 2.63203 -2.63732 0
M  V30 2099 H 200.908 1.92903 -4.38549 0
M  V30 2100 H 199.272 1.11335 -2.29078 0
M  V30 2101 H 200.055 -0.108483 -3.43129 0
M  V30 2102 N 202.5 1.5196 0.417844 0
M  V30 2103 C 203.747 1.65591 1.16559 0
M  V30 2104 C 204.075 0.381565 1.90721 0
M  V30 2105 O 203.33 -0.635156 1.85106 0
M  V30 2106 C 203.629 2.82269 2.19223 0
M  V30 2107 C 203.295 4.20819 1.61933 0
M  V30 2108 C 201.957 4.58506 1.46033 0
M  V30 2109 C 204.309 5.07196 1.20008 0
M  V30 2110 C 201.637 5.80257 0.867113 0
M  V30 2111 C 203.989 6.29544 0.621086 0
M  V30 2112 C 202.653 6.65987 0.449144 0
M  V30 2113 H 201.923 0.605939 0.42652 0
M  V30 2114 H 204.57 1.86041 0.45397 0
M  V30 2115 H 202.875 2.56118 2.96498 0
M  V30 2116 H 204.572 2.90012 2.76936 0
M  V30 2117 H 201.162 3.91116 1.7529 0
M  V30 2118 H 205.346 4.7867 1.31105 0
M  V30 2119 H 200.602 6.07124 0.721833 0
M  V30 2120 H 204.776 6.95805 0.287798 0
M  V30 2121 H 202.403 7.60199 -0.012632 0
M  V30 2122 N 203.978 -0.674533 1.42435 0
M  V30 2123 C 205.225 -1.43459 1.42919 0
M  V30 2124 C 205.553 -1.94446 0.0457312 0
M  V30 2125 O 204.808 -1.7132 -0.94593 0
M  V30 2126 C 205.107 -2.64767 2.40069 0
M  V30 2127 C 204.773 -2.3232 3.86443 0
M  V30 2128 C 203.435 -2.23182 4.26314 0
M  V30 2129 C 205.787 -2.05977 4.78773 0
M  V30 2130 C 203.115 -1.85827 5.56494 0
M  V30 2131 C 205.467 -1.70125 6.09295 0
M  V30 2132 C 204.131 -1.59498 6.48164 0
M  V30 2133 H 203.401 -0.524952 0.522978 0
M  V30 2134 H 206.048 -0.769097 1.75377 0
M  V30 2135 H 204.353 -3.36349 2.00939 0
M  V30 2136 H 206.05 -3.22949 2.37707 0
M  V30 2137 H 202.64 -2.40334 3.54877 0
M  V30 2138 H 206.824 -2.11969 4.48757 0
M  V30 2139 H 202.08 -1.76168 5.8547 0
M  V30 2140 H 206.254 -1.48767 6.80324 0
M  V30 2141 H 203.881 -1.30322 7.48946 0
M  V30 2142 N 205.456 -1.28612 -0.910864 0
M  V30 2143 C 206.686 -1.1862 -1.69153 0
M  V30 2144 C 207.094 0.257324 -1.87442 0
M  V30 2145 O 206.437 1.18543 -1.40332 0
M  V30 2146 C 206.499 -1.81606 -3.10257 0
M  V30 2147 C 206.163 -3.30864 -3.15243 0
M  V30 2148 C 207.16 -4.27256 -2.96223 0
M  V30 2149 C 204.845 -3.71871 -3.37664 0
M  V30 2150 C 206.839 -5.62631 -2.99541 0
M  V30 2151 C 204.526 -5.07371 -3.40614 0
M  V30 2152 C 205.524 -6.02561 -3.21573 0
M  V30 2153 O 205.212 -7.35589 -3.2429 0
M  V30 2154 H 204.944 -0.412633 -0.535453 0
M  V30 2155 H 207.498 -1.70306 -1.14827 0
M  V30 2156 H 205.728 -1.24418 -3.66138 0
M  V30 2157 H 207.417 -1.66092 -3.70362 0
M  V30 2158 H 208.183 -3.9691 -2.78725 0
M  V30 2159 H 204.062 -2.98241 -3.5153 0
M  V30 2160 H 207.606 -6.36907 -2.84597 0
M  V30 2161 H 203.503 -5.37366 -3.57642 0
M  V30 2162 H 204.271 -7.44252 -3.40633 0
M  V30 2163 N 206.934 1.1197 -1.10907 0
M  V30 2164 C 208.35 1.35591 -0.841852 0
M  V30 2165 C 208.55 1.94233 0.536246 0
M  V30 2166 O 207.606 2.1717 1.28816 0
M  V30 2167 C 208.919 2.29284 -1.94549 0
M  V30 2168 C 210.467 2.42862 -1.97451 0
M  V30 2169 C 210.942 3.39873 -3.07002 0
M  V30 2170 N 212.433 3.47433 -3.06341 0
M  V30 2171 C 213.168 4.22421 -3.87748 0
M  V30 2172 N 212.664 5.00432 -4.79103 0
M  V30 2173 N 214.457 4.17876 -3.75946 0
M  V30 2174 H 206.608 0.722664 -1.99728 0
M  V30 2175 H 208.871 0.380635 -0.868229 0
M  V30 2176 H 208.577 1.93378 -2.93765 0
M  V30 2177 H 208.451 3.29452 -1.83688 0
M  V30 2178 H 210.838 2.78046 -0.988645 0
M  V30 2179 H 210.919 1.42566 -2.12388 0
M  V30 2180 H 210.563 3.05417 -4.05811 0
M  V30 2181 H 210.493 4.40011 -2.89306 0
M  V30 2182 H 212.984 2.91784 -2.40147 0
M  V30 2183 H 213.297 5.55002 -5.37766 0
M  V30 2184 H 211.642 4.99612 -4.83128 0
M  V30 2185 H 214.833 3.56016 -3.03924 0
M  V30 2186 H 215.006 4.76061 -4.39624 0
M  V30 2187 N 208.412 0.89855 1.29475 0
M  V30 2188 C 209.828 0.594483 1.48115 0
M  V30 2189 C 210.028 -0.86431 1.82022 0
M  V30 2190 O 209.084 -1.64457 1.91599 0
M  V30 2191 C 210.397 1.51932 2.59494 0
M  V30 2192 C 211.945 1.5244 2.7337 0
M  V30 2193 C 212.42 2.43548 3.87877 0
M  V30 2194 N 213.911 2.41589 3.95208 0
M  V30 2195 C 214.646 3.08789 4.83153 0
M  V30 2196 N 214.142 3.85265 5.75798 0
M  V30 2197 N 215.935 2.97952 4.76635 0
M  V30 2198 H 208.086 1.84207 1.05742 0
M  V30 2199 H 210.349 0.789251 0.525154 0
M  V30 2200 H 210.055 2.55865 2.41301 0
M  V30 2201 H 209.929 1.23899 3.56271 0
M  V30 2202 H 212.316 0.492518 2.90961 0
M  V30 2203 H 212.397 1.8451 1.77172 0
M  V30 2204 H 212.041 3.46829 3.71041 0
M  V30 2205 H 211.971 2.08788 4.83441 0
M  V30 2206 H 214.462 1.86025 3.28943 0
M  V30 2207 H 214.775 4.33598 6.39697 0
M  V30 2208 H 213.12 3.89371 5.75687 0
M  V30 2209 H 216.311 2.37723 4.03244 0
M  V30 2210 H 216.484 3.50599 5.44962 0
M  V30 2211 N 209.89 -1.43072 0.660911 0
M  V30 2212 C 210.84 -2.27948 -0.04847 0
M  V30 2213 C 211.824 -1.40325 -0.787246 0
M  V30 2214 O 213.016 -1.63893 -0.668446 0
M  V30 2215 C 210.145 -3.28143 -1.00881 0
M  V30 2216 C 209.231 -4.23252 -0.268108 0
M  V30 2217 N 209.622 -5.00656 0.719528 0
M  V30 2218 C 207.92 -4.43092 -0.508493 0
M  V30 2219 C 208.621 -5.70019 1.15988 0
M  V30 2220 N 207.597 -5.41364 0.492584 0
M  V30 2221 H 211.399 -2.85213 0.709279 0
M  V30 2222 H 208.913 -1.54869 0.488822 0
M  V30 2223 H 210.91 -3.87736 -1.53188 0
M  V30 2224 H 209.57 -2.7244 -1.76654 0
M  V30 2225 H 210.581 -5.06115 1.09855 0
M  V30 2226 H 207.258 -3.98449 -1.24679 0
M  V30 2227 H 208.648 -6.4214 1.97751 0
M  V30 2228 N 211.368 -0.403325 -1.52352 0
M  V30 2229 C 212.617 0.175668 -2.00934 0
M  V30 2230 C 212.93 1.46718 -1.29356 0
M  V30 2231 O 214.136 2.12708 -1.68724 0
M  V30 2232 C 212.592 0.363612 -3.58058 0
M  V30 2233 C 212.2 -0.915472 -4.38547 0
M  V30 2234 C 213.944 0.89821 -4.14888 0
M  V30 2235 C 211.851 -0.695035 -5.87302 0
M  V30 2236 H 210.781 0.0694234 -0.750797 0
M  V30 2237 H 213.432 -0.527879 -1.75743 0
M  V30 2238 H 211.814 1.12935 -3.79555 0
M  V30 2239 H 212.988 -1.68691 -4.28812 0
M  V30 2240 H 211.303 -1.37606 -3.93006 0
M  V30 2241 H 213.9 1.07907 -5.23699 0
M  V30 2242 H 214.243 1.87126 -3.71873 0
M  V30 2243 H 214.776 0.191681 -3.97338 0
M  V30 2244 H 211.515 -1.63948 -6.34666 0
M  V30 2245 H 211.035 0.0372116 -5.99788 0
M  V30 2246 H 212.714 -0.33497 -6.46132 0
M  V30 2247 N 212.846 1.57033 -0.133567 0
M  V30 2248 C 214.074 2.00044 0.528195 0
M  V30 2249 C 214.489 1.01349 1.59291 0
M  V30 2250 O 213.846 0.00848369 1.82498 0
M  V30 2251 C 213.897 3.43018 1.1411 0
M  V30 2252 O 213.618 4.37939 0.11892 0
M  V30 2253 C 215.119 4.01237 1.88477 0
M  V30 2254 H 212.339 0.656517 0.138661 0
M  V30 2255 H 214.883 2.03267 -0.224196 0
M  V30 2256 H 213.038 3.40688 1.84418 0
M  V30 2257 H 213.452 5.21436 0.56613 0
M  V30 2258 H 214.926 5.03314 2.26669 0
M  V30 2259 H 215.403 3.41193 2.76558 0
M  V30 2260 H 216.009 4.07156 1.22898 0
M  V30 2261 N 214.325 -0.140222 1.56975 0
M  V30 2262 C 215.255 -1.17456 2.01808 0
M  V30 2263 C 216.236 -1.44415 0.898794 0
M  V30 2264 O 217.421 -1.5522 1.16707 0
M  V30 2265 C 214.551 -2.50607 2.40444 0
M  V30 2266 C 213.505 -2.38155 3.55621 0
M  V30 2267 C 212.831 -3.76078 3.80091 0
M  V30 2268 C 214.131 -1.85991 4.88062 0
M  V30 2269 H 215.825 -0.801743 2.88466 0
M  V30 2270 H 213.371 -0.38422 1.38779 0
M  V30 2271 H 215.324 -3.23197 2.7041 0
M  V30 2272 H 214.048 -2.89737 1.50732 0
M  V30 2273 H 212.707 -1.68016 3.25832 0
M  V30 2274 H 212.355 -4.12656 2.87618 0
M  V30 2275 H 212.055 -3.68606 4.57606 0
M  V30 2276 H 213.579 -4.50206 4.12488 0
M  V30 2277 H 214.993 -2.4838 5.16701 0
M  V30 2278 H 213.39 -1.89393 5.6943 0
M  V30 2279 H 214.46 -0.816023 4.77984 0
M  V30 2280 N 215.803 -1.52179 -0.40978 0
M  V30 2281 C 217.219 -1.40968 -0.74835 0
M  V30 2282 C 217.419 -0.513657 -1.94843 0
M  V30 2283 O 216.475 0.0208026 -2.52491 0
M  V30 2284 C 217.788 -2.83483 -1.0029 0
M  V30 2285 C 219.336 -2.92821 -1.10565 0
M  V30 2286 C 219.811 -4.36303 -1.39296 0
M  V30 2287 N 221.302 -4.39535 -1.46162 0
M  V30 2288 C 222.037 -5.47614 -1.70018 0
M  V30 2289 N 221.533 -6.65812 -1.91483 0
M  V30 2290 N 223.326 -5.35129 -1.72027 0
M  V30 2291 H 215.477 -2.0897 0.380186 0
M  V30 2292 H 217.74 -0.94185 0.107805 0
M  V30 2293 H 217.446 -3.51168 -0.193461 0
M  V30 2294 H 217.32 -3.24487 -1.92323 0
M  V30 2295 H 219.707 -2.25318 -1.90568 0
M  V30 2296 H 219.788 -2.55276 -0.16369 0
M  V30 2297 H 219.432 -5.04366 -0.598109 0
M  V30 2298 H 219.362 -4.71385 -2.34743 0
M  V30 2299 H 221.853 -3.54332 -1.31367 0
M  V30 2300 H 222.166 -7.43964 -2.09134 0
M  V30 2301 H 220.511 -6.68879 -1.88749 0
M  V30 2302 H 223.702 -4.41764 -1.54796 0
M  V30 2303 H 223.875 -6.19433 -1.9028 0
M  V30 2304 N 217.281 0.66697 -1.42791 0
M  V30 2305 C 218.211 1.79218 -1.49677 0
M  V30 2306 C 219.192 1.66405 -0.352623 0
M  V30 2307 O 220.377 1.85708 -0.567993 0
M  V30 2308 C 217.507 3.17565 -1.40605 0
M  V30 2309 C 216.461 3.45124 -2.53127 0
M  V30 2310 C 215.787 4.83127 -2.29112 0
M  V30 2311 C 217.087 3.41236 -3.95418 0
M  V30 2312 H 218.781 1.73713 -2.43853 0
M  V30 2313 H 216.327 0.83432 -1.17367 0
M  V30 2314 H 218.28 3.96022 -1.44029 0
M  V30 2315 H 217.004 3.23767 -0.429271 0
M  V30 2316 H 215.663 2.69031 -2.49034 0
M  V30 2317 H 215.311 4.85988 -1.29709 0
M  V30 2318 H 215.011 5.02528 -3.04531 0
M  V30 2319 H 216.535 5.63859 -2.34297 0
M  V30 2320 H 217.949 4.09651 -4.01073 0
M  V30 2321 H 216.346 3.72173 -4.70752 0
M  V30 2322 H 217.416 2.39665 -4.21532 0
M  V30 2323 N 218.759 1.29093 0.90403 0
M  V30 2324 C 220.007 1.16583 1.65085 0
M  V30 2325 C 220.328 -0.283933 1.92922 0
M  V30 2326 O 219.598 -1.19509 1.55224 0
M  V30 2327 H 218.178 0.428467 0.611903 0
M  V30 2328 H 220.84 1.61959 1.08422 0
M  V30 2329 H 219.936 1.71266 2.6091 0
M  V30 2330 N 220.237 -1.11381 1.11499 0
M  V30 2331 C 221.2 -2.15622 0.777153 0
M  V30 2332 C 222.2 -1.59504 -0.203779 0
M  V30 2333 O 223.39 -1.74188 0.020782 0
M  V30 2334 C 220.522 -3.40556 0.153116 0
M  V30 2335 H 221.715 -2.47021 1.70061 0
M  V30 2336 H 219.268 -1.26577 0.916952 0
M  V30 2337 H 220.003 -3.14767 -0.780536 0
M  V30 2338 H 219.788 -3.8257 0.859238 0
M  V30 2339 H 221.278 -4.17546 -0.0671044 0
M  V30 2340 N 221.715 -0.905404 -1.28997 0
M  V30 2341 C 222.645 -0.404212 -2.29975 0
M  V30 2342 C 223.626 0.523784 -1.61835 0
M  V30 2343 O 224.811 0.433298 -1.89304 0
M  V30 2344 C 221.941 0.364042 -3.45387 0
M  V30 2345 C 220.895 -0.474048 -4.25367 0
M  V30 2346 C 220.221 0.422045 -5.33032 0
M  V30 2347 C 221.521 -1.72696 -4.92923 0
M  V30 2348 H 223.215 -1.24807 -2.72146 0
M  V30 2349 H 220.761 -0.601585 -1.30832 0
M  V30 2350 H 222.714 0.725447 -4.15109 0
M  V30 2351 H 221.438 1.24174 -3.02074 0
M  V30 2352 H 220.097 -0.81786 -3.57361 0
M  V30 2353 H 219.745 1.29804 -4.85963 0
M  V30 2354 H 219.445 -0.135057 -5.87445 0
M  V30 2355 H 220.969 0.779517 -6.05604 0
M  V30 2356 H 222.383 -1.43495 -5.55051 0
M  V30 2357 H 220.78 -2.22582 -5.57295 0
M  V30 2358 H 221.85 -2.45964 -4.17887 0
M  V30 2359 N 223.193 1.4272 -0.668489 0
M  V30 2360 C 224.439 2.01923 -0.188419 0
M  V30 2361 C 224.772 1.52704 1.19979 0
M  V30 2362 O 224.047 0.726566 1.8042 0
M  V30 2363 C 224.33 3.59451 -0.216085 0
M  V30 2364 C 224.183 4.18864 -1.6393 0
M  V30 2365 C 225.502 4.37903 0.439179 0
M  V30 2366 H 222.621 0.733674 -0.0699412 0
M  V30 2367 H 225.263 1.69822 -0.852076 0
M  V30 2368 H 223.413 3.86929 0.349012 0
M  V30 2369 H 225.085 4.02362 -2.25616 0
M  V30 2370 H 223.328 3.74933 -2.18193 0
M  V30 2371 H 223.999 5.27987 -1.61039 0
M  V30 2372 H 226.475 4.16079 -0.0417878 0
M  V30 2373 H 225.351 5.47519 0.389157 0
M  V30 2374 H 225.612 4.15303 1.51577 0
M  V30 2375 N 224.671 0.411399 1.52136 0
M  V30 2376 C 225.634 -0.401089 2.25663 0
M  V30 2377 C 226.634 -0.971732 1.28117 0
M  V30 2378 O 227.824 -0.850254 1.52041 0
M  V30 2379 C 224.956 -1.56483 3.02863 0
M  V30 2380 H 226.149 0.24295 2.98914 0
M  V30 2381 H 223.702 0.163968 1.55438 0
M  V30 2382 H 224.437 -2.24567 2.33967 0
M  V30 2383 H 224.222 -1.16211 3.74483 0
M  V30 2384 H 225.712 -2.13951 3.58629 0
M  V30 2385 N 226.149 -1.5696 0.141893 0
M  V30 2386 C 227.56 -1.82797 -0.379776 0
M  V30 2387 C 227.911 -1.06033 -1.6508 0
M  V30 2388 O 227.036 -0.304011 -2.14254 0
M  V30 2389 C 227.631 -3.31578 -0.695802 0
M  V30 2390 C 226.19 -3.58014 -1.16201 0
M  V30 2391 C 225.337 -2.76699 -0.182455 0
M  V30 2392 H 228.288 -1.54406 0.366675 0
M  V30 2393 H 228.309 -3.47454 -1.55099 0
M  V30 2394 H 227.821 -3.87421 0.229449 0
M  V30 2395 H 225.922 -3.07553 -2.10338 0
M  V30 2396 H 226.035 -4.66501 -1.09151 0
M  V30 2397 H 224.399 -2.45618 -0.674072 0
M  V30 2398 H 225.182 -3.35311 0.736297 0
M  V30 2399 N 227.627 0.131896 -1.57047 0
M  V30 2400 C 228.873 0.843179 -1.84441 0
M  V30 2401 C 229.206 1.80129 -0.725749 0
M  V30 2402 O 228.481 1.92624 0.269469 0
M  V30 2403 C 228.764 1.60442 -3.22382 0
M  V30 2404 C 228.617 0.666782 -4.4483 0
M  V30 2405 C 229.936 2.56354 -3.5773 0
M  V30 2406 H 227.055 0.305081 -0.670891 0
M  V30 2407 H 229.697 0.107839 -1.89694 0
M  V30 2408 H 227.847 2.23128 -3.18035 0
M  V30 2409 H 229.519 0.0497646 -4.61273 0
M  V30 2410 H 227.762 -0.022609 -4.33794 0
M  V30 2411 H 228.433 1.23579 -5.37989 0
M  V30 2412 H 230.909 2.0378 -3.62785 0
M  V30 2413 H 229.785 3.06657 -4.5525 0
M  V30 2414 H 230.046 3.38419 -2.84473 0
M  V30 2415 N 229.106 1.52395 0.401703 0
M  V30 2416 C 230.352 1.67065 1.14966 0
M  V30 2417 C 230.685 0.403052 1.89971 0
M  V30 2418 O 229.96 -0.598774 1.85054 0
M  V30 2419 C 230.243 2.8975 2.13815 0
M  V30 2420 C 230.096 4.26578 1.42658 0
M  V30 2421 C 231.415 3.07965 3.14397 0
M  V30 2422 H 228.534 0.607968 0.416587 0
M  V30 2423 H 231.176 1.84965 0.434511 0
M  V30 2424 H 229.326 2.74619 2.74803 0
M  V30 2425 H 230.998 4.53451 0.847329 0
M  V30 2426 H 229.241 4.27639 0.72849 0
M  V30 2427 H 229.912 5.08483 2.14823 0
M  V30 2428 H 232.388 3.22043 2.63491 0
M  V30 2429 H 231.264 3.95308 3.80819 0
M  V30 2430 H 231.525 2.21611 3.82545 0
M  V30 2431 N 230.584 -0.659388 1.43143 0
M  V30 2432 C 231.809 -1.45221 1.48073 0
M  V30 2433 C 232.234 -1.87845 0.097995 0
M  V30 2434 O 231.592 -1.56985 -0.90694 0
M  V30 2435 C 231.64 -2.66748 2.42647 0
M  V30 2436 O 230.744 -3.65583 1.90848 0
M  V30 2437 H 230.085 -0.435669 0.501088 0
M  V30 2438 H 232.615 -0.807432 1.87994 0
M  V30 2439 H 232.625 -3.14637 2.59745 0
M  V30 2440 H 231.3 -2.35067 3.43098 0
M  V30 2441 H 229.877 -3.24693 1.83381 0
M  V30 2442 N 232.062 -1.29571 -0.897171 0
M  V30 2443 C 233.025 -1.14913 -1.98312 0
M  V30 2444 C 234.025 -0.0838629 -1.60581 0
M  V30 2445 O 235.215 -0.331006 -1.71026 0
M  V30 2446 C 232.347 -0.757835 -3.3237 0
M  V30 2447 H 233.54 -2.11377 -2.12743 0
M  V30 2448 H 231.093 -1.12793 -1.08201 0
M  V30 2449 H 231.828 0.206837 -3.2364 0
M  V30 2450 H 231.613 -1.52755 -3.61121 0
M  V30 2451 H 233.103 -0.678408 -4.12053 0
M  V30 2452 N 233.54 1.10788 -1.12088 0
M  V30 2453 C 234.787 1.82671 -0.873931 0
M  V30 2454 C 235.115 1.85004 0.600311 0
M  V30 2455 O 234.37 1.30365 1.45957 0
M  V30 2456 C 234.669 3.29294 -1.38926 0
M  V30 2457 C 234.335 3.47113 -2.87791 0
M  V30 2458 C 232.997 3.51684 -3.28439 0
M  V30 2459 C 235.349 3.52808 -3.83635 0
M  V30 2460 C 232.677 3.59513 -4.63646 0
M  V30 2461 C 235.029 3.62169 -5.18668 0
M  V30 2462 C 233.693 3.65003 -5.58864 0
M  V30 2463 H 232.963 0.668441 -0.319794 0
M  V30 2464 H 235.61 1.30613 -1.40045 0
M  V30 2465 H 233.915 3.83894 -0.783122 0
M  V30 2466 H 235.612 3.83416 -1.17443 0
M  V30 2467 H 232.202 3.4423 -2.5535 0
M  V30 2468 H 236.386 3.4853 -3.53328 0
M  V30 2469 H 231.642 3.59987 -4.94185 0
M  V30 2470 H 235.816 3.6552 -5.92763 0
M  V30 2471 H 233.443 3.70822 -6.63623 0
M  V30 2472 N 235.018 0.912232 1.28515 0
M  V30 2473 C 236.243 0.559774 1.99703 0
M  V30 2474 C 236.668 -0.851393 1.67729 0
M  V30 2475 O 236.026 -1.56875 0.908834 0
M  V30 2476 C 236.074 0.773874 3.52198 0
M  V30 2477 O 235.178 -0.167842 4.12058 0
M  V30 2478 H 234.519 0.21723 0.627461 0
M  V30 2479 H 237.049 1.22725 1.63706 0
M  V30 2480 H 237.059 0.683386 4.02236 0
M  V30 2481 H 235.734 1.80261 3.74805 0
M  V30 2482 H 234.311 -0.0287509 3.72889 0
M  V30 2483 N 236.496 -1.42363 0.676048 0
M  V30 2484 C 237.426 -2.33497 0.0124832 0
M  V30 2485 C 238.407 -1.50748 -0.787981 0
M  V30 2486 O 239.592 -1.79346 -0.744884 0
M  V30 2487 C 236.722 -3.34377 -0.938582 0
M  V30 2488 C 235.676 -4.27289 -0.246622 0
M  V30 2489 C 235.002 -5.18386 -1.31071 0
M  V30 2490 C 236.302 -5.14916 0.875125 0
M  V30 2491 H 237.996 -2.89233 0.773593 0
M  V30 2492 H 235.542 -1.39073 0.37346 0
M  V30 2493 H 237.495 -3.97044 -1.41188 0
M  V30 2494 H 236.219 -2.76947 -1.73113 0
M  V30 2495 H 234.878 -3.66018 0.206456 0
M  V30 2496 H 234.526 -4.57282 -2.09528 0
M  V30 2497 H 234.226 -5.81378 -0.852839 0
M  V30 2498 H 235.75 -5.83929 -1.78492 0
M  V30 2499 H 237.164 -5.71262 0.482983 0
M  V30 2500 H 235.561 -5.86747 1.25887 0
M  V30 2501 H 236.631 -4.53242 1.72335 0
M  V30 2502 N 237.974 -0.419461 -1.51915 0
M  V30 2503 C 238.937 0.389116 -2.25873 0
M  V30 2504 C 239.937 0.964924 -1.28631 0
M  V30 2505 O 241.127 0.842179 -1.52489 0
M  V30 2506 C 238.259 1.54874 -3.03689 0
M  V30 2507 H 239.452 -0.258799 -2.98781 0
M  V30 2508 H 237.005 -0.172209 -1.55348 0
M  V30 2509 H 237.74 2.23323 -2.35154 0
M  V30 2510 H 237.525 1.14223 -3.75094 0
M  V30 2511 H 239.015 2.12046 -3.59759 0
M  V30 2512 N 239.452 1.56882 -0.150215 0
M  V30 2513 C 240.699 1.96228 0.500093 0
M  V30 2514 C 241.027 1.03522 1.64661 0
M  V30 2515 O 240.282 0.0650683 1.95592 0
M  V30 2516 C 240.581 3.41801 1.04437 0
M  V30 2517 C 240.247 4.50897 0.0159671 0
M  V30 2518 C 238.909 4.8046 -0.266731 0
M  V30 2519 C 241.261 5.16703 -0.683192 0
M  V30 2520 C 238.589 5.73135 -1.25434 0
M  V30 2521 C 240.941 6.10441 -1.65964 0
M  V30 2522 C 239.605 6.38382 -1.95 0
M  V30 2523 H 238.875 0.718048 0.182997 0
M  V30 2524 H 241.522 1.90019 -0.237724 0
M  V30 2525 H 239.827 3.44857 1.85959 0
M  V30 2526 H 241.524 3.69573 1.55618 0
M  V30 2527 H 238.114 4.27891 0.246485 0
M  V30 2528 H 242.298 4.93993 -0.477983 0
M  V30 2529 H 237.554 5.93074 -1.48571 0
M  V30 2530 H 241.728 6.60507 -2.20689 0
M  V30 2531 H 239.355 7.09996 -2.71679 0
M  V30 2532 N 240.93 -0.123565 1.57115 0
M  V30 2533 C 242.17 -0.838097 1.86428 0
M  V30 2534 C 242.534 -1.77266 0.737611 0
M  V30 2535 O 243.735 -2.52842 0.912389 0
M  V30 2536 C 242.006 -1.57219 3.20962 0
M  V30 2537 S 243.565 -2.32893 3.71896 0
M  V30 2538 H 240.383 -0.279811 0.653626 0
M  V30 2539 H 242.985 -0.0967034 1.95261 0
M  V30 2540 H 241.689 -0.877522 4.00909 0
M  V30 2541 H 241.22 -2.35405 3.15195 0
M  V30 2542 H 243.235 -3.5853 3.43032 0
M  V30 2543 N 242.408 -1.52605 -0.393616 0
M  V30 2544 C 243.371 -1.76415 -1.46323 0
M  V30 2545 C 244.371 -0.634126 -1.47768 0
M  V30 2546 O 245.561 -0.902142 -1.4902 0
M  V30 2547 C 242.693 -1.8607 -2.85641 0
M  V30 2548 H 243.886 -2.71916 -1.26498 0
M  V30 2549 H 241.439 -1.43257 -0.625073 0
M  V30 2550 H 242.174 -0.925378 -3.10817 0
M  V30 2551 H 241.959 -2.68235 -2.85993 0
M  V30 2552 H 243.449 -2.06179 -3.63153 0
M  V30 2553 N 243.887 0.651787 -1.4349 0
M  V30 2554 C 244.817 1.77621 -1.51569 0
M  V30 2555 C 245.798 1.66022 -0.370253 0
M  V30 2556 O 246.983 1.85095 -0.587658 0
M  V30 2557 C 244.113 3.16056 -1.43966 0
M  V30 2558 C 243.067 3.4242 -2.56774 0
M  V30 2559 C 242.393 4.8067 -2.34223 0
M  V30 2560 C 243.693 3.37023 -3.99015 0
M  V30 2561 H 245.387 1.71117 -2.45681 0
M  V30 2562 H 242.933 0.821825 -1.18246 0
M  V30 2563 H 244.886 3.94472 -1.48221 0
M  V30 2564 H 243.61 3.23293 -0.463586 0
M  V30 2565 H 242.269 2.66375 -2.51873 0
M  V30 2566 H 241.917 4.84585 -1.34856 0
M  V30 2567 H 241.617 4.9927 -3.09844 0
M  V30 2568 H 243.141 5.61342 -2.40265 0
M  V30 2569 H 244.555 4.05374 -4.05395 0
M  V30 2570 H 242.952 3.67159 -4.74673 0
M  V30 2571 H 244.022 2.3518 -4.2405 0
M  V30 2572 N 245.365 1.30045 0.890287 0
M  V30 2573 C 246.776 1.16738 1.45702 0
M  V30 2574 C 247.127 -0.233939 1.948 0
M  V30 2575 O 246.252 -1.13021 1.84541 0
M  V30 2576 C 246.847 2.11313 2.64825 0
M  V30 2577 C 245.406 2.02001 3.17604 0
M  V30 2578 C 244.553 2.01699 1.90296 0
M  V30 2579 H 247.504 1.42392 0.700726 0
M  V30 2580 H 247.525 1.69086 3.40867 0
M  V30 2581 H 247.037 3.13294 2.2906 0
M  V30 2582 H 245.138 1.03142 3.5804 0
M  V30 2583 H 245.251 2.90128 3.81264 0
M  V30 2584 H 243.615 1.46427 2.08402 0
M  V30 2585 H 244.398 3.05402 1.56795 0
M  V30 2586 N 246.843 -1.10192 1.12674 0
M  V30 2587 C 248.09 -1.82205 0.883606 0
M  V30 2588 C 248.418 -1.8532 -0.590492 0
M  V30 2589 O 247.673 -1.31137 -1.45264 0
M  V30 2590 C 247.972 -3.28552 1.4067 0
M  V30 2591 C 247.638 -3.45582 2.89627 0
M  V30 2592 C 246.3 -3.49937 3.30299 0
M  V30 2593 C 248.652 -3.50768 3.85501 0
M  V30 2594 C 245.98 -3.57049 4.65546 0
M  V30 2595 C 248.332 -3.59414 5.20581 0
M  V30 2596 C 246.996 -3.62034 5.60792 0
M  V30 2597 H 246.266 -0.666735 0.323334 0
M  V30 2598 H 248.913 -1.29868 1.40736 0
M  V30 2599 H 247.218 -3.83473 0.80347 0
M  V30 2600 H 248.915 -3.82788 1.19475 0
M  V30 2601 H 245.505 -3.42871 2.57172 0
M  V30 2602 H 249.689 -3.46651 3.55171 0
M  V30 2603 H 244.945 -3.57361 4.96088 0
M  V30 2604 H 249.119 -3.62371 5.94693 0
M  V30 2605 H 246.746 -3.67298 6.6558 0
M  V30 2606 N 248.321 -0.919034 -1.28029 0
M  V30 2607 C 249.254 -0.355887 -2.25408 0
M  V30 2608 C 250.232 0.542874 -1.5327 0
M  V30 2609 O 251.416 0.485338 -1.82145 0
M  V30 2610 C 248.543 0.490759 -3.35126 0
M  V30 2611 C 247.589 -0.343358 -4.25116 0
M  V30 2612 S 248.422 -1.75344 -5.05979 0
M  V30 2613 C 249.578 -0.914244 -6.19187 0
M  V30 2614 H 249.811 -1.18123 -2.72826 0
M  V30 2615 H 247.344 -0.720636 -1.36551 0
M  V30 2616 H 249.302 0.973404 -3.98792 0
M  V30 2617 H 247.963 1.29054 -2.86363 0
M  V30 2618 H 247.156 0.304266 -5.03081 0
M  V30 2619 H 246.758 -0.759851 -3.662 0
M  V30 2620 H 249.05 -0.146282 -6.77342 0
M  V30 2621 H 249.993 -1.66661 -6.88208 0
M  V30 2622 H 250.401 -0.460082 -5.62622 0
M  V30 2623 N 249.799 1.42003 -0.683588 0
M  V30 2624 C 251.047 2.01015 -0.209101 0
M  V30 2625 C 251.368 1.54365 1.19149 0
M  V30 2626 O 250.638 0.769083 1.80172 0
M  V30 2627 H 249.218 0.743294 -0.074315 0
M  V30 2628 H 251.88 1.73798 -0.882066 0
M  V30 2629 H 250.976 3.11343 -0.2172 0
M  V30 2630 N 251.277 0.427512 1.51691 0
M  V30 2631 C 252.524 -0.142229 2.02 0
M  V30 2632 C 252.852 -1.43566 1.31221 0
M  V30 2633 O 252.107 -1.91298 0.412744 0
M  V30 2634 C 252.406 -0.418249 3.54944 0
M  V30 2635 C 252.072 0.788187 4.43958 0
M  V30 2636 C 250.734 1.11906 4.68007 0
M  V30 2637 C 253.086 1.59347 4.96244 0
M  V30 2638 C 250.414 2.25608 5.41588 0
M  V30 2639 C 252.766 2.7214 5.71072 0
M  V30 2640 C 251.43 3.05692 5.93387 0
M  V30 2641 H 250.7 -0.0520451 0.73917 0
M  V30 2642 H 253.347 0.572697 1.82736 0
M  V30 2643 H 251.652 -1.21496 3.72486 0
M  V30 2644 H 253.349 -0.872339 3.91397 0
M  V30 2645 H 249.939 0.520344 4.2543 0
M  V30 2646 H 254.123 1.35106 4.77556 0
M  V30 2647 H 249.379 2.51929 5.57083 0
M  V30 2648 H 253.553 3.34914 6.10578 0
M  V30 2649 H 251.18 3.9391 6.50184 0
M  V30 2650 N 252.755 -1.56801 0.158532 0
M  V30 2651 C 254.003 -1.96102 -0.488712 0
M  V30 2652 C 254.324 -1.04498 -1.64636 0
M  V30 2653 O 253.594 -0.108783 -1.95598 0
M  V30 2654 H 252.174 -0.724102 -0.183535 0
M  V30 2655 H 254.836 -1.93457 0.236728 0
M  V30 2656 H 253.932 -3.00097 -0.857219 0
M  V30 2657 N 254.233 0.115231 -1.57178 0
M  V30 2658 C 255.18 1.14115 -2.00615 0
M  V30 2659 C 256.15 1.40939 -0.878941 0
M  V30 2660 O 257.335 1.52741 -1.14345 0
M  V30 2661 C 254.475 2.46156 -2.4187 0
M  V30 2662 C 253.588 2.26236 -3.68024 0
M  V30 2663 C 252.723 3.51534 -3.98243 0
M  V30 2664 C 251.762 3.26787 -5.17568 0
M  V30 2665 N 250.899 4.44298 -5.43639 0
M  V30 2666 H 255.739 0.763743 -2.88047 0
M  V30 2667 H 253.276 0.365615 -1.42484 0
M  V30 2668 H 255.234 3.23189 -2.63827 0
M  V30 2669 H 253.864 2.81783 -1.57475 0
M  V30 2670 H 252.916 1.40102 -3.5366 0
M  V30 2671 H 254.228 2.03929 -4.55208 0
M  V30 2672 H 253.382 4.36984 -4.20868 0
M  V30 2673 H 252.121 3.76876 -3.09541 0
M  V30 2674 H 251.126 2.39729 -4.94783 0
M  V30 2675 H 252.351 3.02812 -6.0785 0
M  V30 2676 H 250.297 4.69754 -4.57895 0
M  V30 2677 H 250.214 4.25109 -6.25154 0
M  V30 2678 H 251.482 5.3087 -5.70786 0
M  V30 2679 N 255.711 1.52812 0.385517 0
M  V30 2680 C 256.958 1.68026 1.1302 0
M  V30 2681 C 257.286 0.421934 1.89868 0
M  V30 2682 O 256.541 -0.595749 1.86412 0
M  V30 2683 C 256.84 2.86856 2.13187 0
M  V30 2684 C 256.506 4.24159 1.5297 0
M  V30 2685 C 255.168 4.61501 1.36274 0
M  V30 2686 C 257.52 5.09627 1.09223 0
M  V30 2687 C 254.848 5.81966 0.743837 0
M  V30 2688 C 257.2 6.30719 0.487411 0
M  V30 2689 C 255.864 6.6679 0.307777 0
M  V30 2690 H 255.134 0.614849 0.413571 0
M  V30 2691 H 257.781 1.86962 0.414405 0
M  V30 2692 H 256.086 2.6235 2.90998 0
M  V30 2693 H 257.783 2.95821 2.70722 0
M  V30 2694 H 254.373 3.94746 1.66954 0
M  V30 2695 H 258.557 4.81343 1.20922 0
M  V30 2696 H 253.813 6.08519 0.592891 0
M  V30 2697 H 257.987 6.96259 0.140143 0
M  V30 2698 H 255.614 7.60001 -0.173879 0
M  V30 2699 N 257.189 -0.644168 1.43834 0
M  V30 2700 C 258.435 -1.40603 1.46146 0
M  V30 2701 C 258.768 -1.93997 0.0887717 0
M  V30 2702 O 258.043 -1.72854 -0.891724 0
M  V30 2703 C 258.326 -2.58086 2.51124 0
M  V30 2704 C 258.179 -2.10126 3.97702 0
M  V30 2705 C 259.498 -3.60291 2.52742 0
M  V30 2706 H 256.617 -0.509905 0.532134 0
M  V30 2707 H 259.259 -0.729502 1.75437 0
M  V30 2708 H 257.409 -3.15801 2.26278 0
M  V30 2709 H 259.081 -1.57342 4.33637 0
M  V30 2710 H 257.324 -1.41419 4.10101 0
M  V30 2711 H 257.995 -2.94649 4.66783 0
M  V30 2712 H 260.471 -3.12352 2.7491 0
M  V30 2713 H 259.347 -4.40032 3.28121 0
M  V30 2714 H 259.608 -4.1349 1.56455 0
M  V30 2715 N 258.668 -1.30515 -0.883378 0
M  V30 2716 C 259.6 -1.12846 -1.99496 0
M  V30 2717 C 260.613 -0.0712571 -1.62644 0
M  V30 2718 O 261.802 -0.317432 -1.75655 0
M  V30 2719 C 258.902 -0.699123 -3.3161 0
M  V30 2720 C 258.075 -1.83842 -3.96889 0
M  V30 2721 C 257.134 -1.39737 -5.07307 0
M  V30 2722 O 256.16 -2.10485 -5.28852 0
M  V30 2723 N 257.362 -0.277279 -5.79837 0
M  V30 2724 H 260.127 -2.08585 -2.15203 0
M  V30 2725 H 257.688 -1.22672 -1.05656 0
M  V30 2726 H 259.68 -0.387044 -4.02845 0
M  V30 2727 H 258.25 0.166276 -3.12157 0
M  V30 2728 H 257.47 -2.31853 -3.18807 0
M  V30 2729 H 258.758 -2.60187 -4.37241 0
M  V30 2730 H 258.156 0.3122 -5.64838 0
M  V30 2731 H 256.713 -0.0246623 -6.51795 0
M  V30 2732 N 260.146 1.09593 -1.13257 0
M  V30 2733 C 261.376 1.85231 -0.915049 0
M  V30 2734 C 261.784 1.81345 0.539498 0
M  V30 2735 O 261.127 1.20664 1.38513 0
M  V30 2736 C 261.189 3.34275 -1.3229 0
M  V30 2737 C 260.853 3.6191 -2.79052 0
M  V30 2738 C 261.85 3.57777 -3.77216 0
M  V30 2739 C 259.535 3.90309 -3.16171 0
M  V30 2740 C 261.529 3.81652 -5.1051 0
M  V30 2741 C 259.216 4.13839 -4.49644 0
M  V30 2742 C 260.214 4.09502 -5.46623 0
M  V30 2743 O 259.902 4.32426 -6.77689 0
M  V30 2744 H 259.634 0.591997 -0.326367 0
M  V30 2745 H 262.188 1.394 -1.50854 0
M  V30 2746 H 260.418 3.80805 -0.672667 0
M  V30 2747 H 262.107 3.9132 -1.07812 0
M  V30 2748 H 262.873 3.35865 -3.49885 0
M  V30 2749 H 258.752 3.92811 -2.41289 0
M  V30 2750 H 262.296 3.78182 -5.86195 0
M  V30 2751 H 258.193 4.35232 -4.767 0
M  V30 2752 H 258.961 4.49896 -6.83766 0
M  V30 2753 N 261.624 0.925811 1.2754 0
M  V30 2754 C 262.864 0.572521 1.96218 0
M  V30 2755 C 263.228 -0.869719 1.71172 0
M  V30 2756 O 264.429 -1.33119 2.33523 0
M  V30 2757 C 262.7 0.887325 3.4621 0
M  V30 2758 S 264.259 0.642266 4.34074 0
M  V30 2759 H 261.077 0.211403 0.678845 0
M  V30 2760 H 263.679 1.19384 1.54815 0
M  V30 2761 H 262.383 1.93469 3.61936 0
M  V30 2762 H 261.914 0.255123 3.92572 0
M  V30 2763 H 263.929 -0.500822 4.93666 0
M  V30 2764 N 263.102 -1.41638 0.69111 0
M  V30 2765 C 264.513 -1.84346 0.295517 0
M  V30 2766 C 264.864 -1.57833 -1.16547 0
M  V30 2767 O 263.989 -1.04648 -1.89414 0
M  V30 2768 C 264.584 -3.34636 0.529575 0
M  V30 2769 C 263.143 -3.7593 0.187944 0
M  V30 2770 C 262.29 -2.65082 0.814052 0
M  V30 2771 H 265.241 -1.31253 0.892092 0
M  V30 2772 H 265.262 -3.79903 -0.213148 0
M  V30 2773 H 264.774 -3.53901 1.59297 0
M  V30 2774 H 262.875 -3.62268 -0.871367 0
M  V30 2775 H 262.988 -4.74808 0.63985 0
M  V30 2776 H 261.352 -2.53528 0.244017 0
M  V30 2777 H 262.135 -2.87167 1.88123 0
M  V30 2778 N 264.58 -0.43555 -1.51462 0
M  V30 2779 C 265.828 0.131254 -2.01673 0
M  V30 2780 C 266.149 1.43368 -1.32177 0
M  V30 2781 O 265.419 1.90524 -0.455769 0
M  V30 2782 H 263.999 0.0514954 -0.745223 0
M  V30 2783 H 266.661 -0.577847 -1.86137 0
M  V30 2784 H 265.757 0.308446 -3.10572 0
M  V30 2785 N 266.058 1.56714 -0.166846 0
M  V30 2786 C 267.286 2.0112 0.485644 0
M  V30 2787 C 267.701 1.04705 1.57106 0
M  V30 2788 O 267.058 0.0471923 1.82439 0
M  V30 2789 C 267.109 3.45361 1.06808 0
M  V30 2790 O 266.83 4.38092 0.0259995 0
M  V30 2791 C 268.331 4.05145 1.79924 0
M  V30 2792 H 265.551 0.65931 0.124704 0
M  V30 2793 H 268.095 2.02746 -0.267262 0
M  V30 2794 H 266.25 3.44524 1.7715 0
M  V30 2795 H 266.664 5.22519 0.455398 0
M  V30 2796 H 268.138 5.08009 2.15942 0
M  V30 2797 H 268.615 3.46982 2.69258 0
M  V30 2798 H 269.221 4.09672 1.14234 0
M  V30 2799 N 267.536 -0.106894 1.57237 0
M  V30 2800 C 268.782 -0.808678 1.86633 0
M  V30 2801 C 269.137 -1.76917 0.756178 0
M  V30 2802 O 268.43 -1.90055 -0.242834 0
M  V30 2803 C 268.624 -1.58628 3.20268 0
M  V30 2804 C 268.453 -0.702592 4.44178 0
M  V30 2805 C 267.223 -0.352808 5.04067 0
M  V30 2806 C 269.421 -0.0148031 5.14298 0
M  V30 2807 N 267.403 0.540279 6.11518 0
M  V30 2808 C 268.774 0.736809 6.15606 0
M  V30 2809 C 270.829 0.0603524 4.97863 0
M  V30 2810 C 269.532 1.55654 7.02257 0
M  V30 2811 C 271.558 0.866942 5.85011 0
M  V30 2812 C 270.92 1.60671 6.85831 0
M  V30 2813 H 267.019 -0.27246 0.733001 0
M  V30 2814 H 269.603 -0.0717858 1.94568 0
M  V30 2815 H 267.774 -2.29413 3.13408 0
M  V30 2816 H 269.506 -2.23434 3.3743 0
M  V30 2817 H 266.261 -0.697802 4.68431 0
M  V30 2818 H 266.685 0.979029 6.69884 0
M  V30 2819 H 271.327 -0.497236 4.19866 0
M  V30 2820 H 269.045 2.12524 7.79653 0
M  V30 2821 H 272.631 0.927612 5.74358 0
M  V30 2822 H 271.511 2.2208 7.52097 0
M  V30 2823 N 269.014 -1.53014 -0.377408 0
M  V30 2824 C 270.254 -1.70318 -1.1301 0
M  V30 2825 C 270.618 -0.439538 -1.86901 0
M  V30 2826 O 271.819 -0.489095 -2.64313 0
M  V30 2827 C 270.09 -2.91125 -2.07319 0
M  V30 2828 S 271.649 -3.29075 -2.90268 0
M  V30 2829 H 268.467 -0.599426 -0.382374 0
M  V30 2830 H 271.069 -1.91089 -0.412933 0
M  V30 2831 H 269.773 -3.81303 -1.51777 0
M  V30 2832 H 269.304 -2.7272 -2.83526 0
M  V30 2833 H 271.319 -2.80165 -4.09539 0
M  V30 2834 N 270.492 0.636531 -1.44174 0
M  V30 2835 C 271.739 1.39619 -1.46672 0
M  V30 2836 C 272.067 1.94257 -0.0972691 0
M  V30 2837 O 271.322 1.73768 0.900175 0
M  V30 2838 C 271.621 2.58309 -2.47005 0
M  V30 2839 C 271.287 2.21992 -3.92467 0
M  V30 2840 C 269.949 2.118 -4.32081 0
M  V30 2841 C 272.301 1.9321 -4.84065 0
M  V30 2842 C 269.629 1.71007 -5.61225 0
M  V30 2843 C 271.981 1.53911 -6.13591 0
M  V30 2844 C 270.645 1.42257 -6.52165 0
M  V30 2845 H 269.915 0.510902 -0.536712 0
M  V30 2846 H 272.562 0.722328 -1.77355 0
M  V30 2847 H 270.867 3.30903 -2.09786 0
M  V30 2848 H 272.564 3.16533 -2.46186 0
M  V30 2849 H 269.154 2.30841 -3.61124 0
M  V30 2850 H 273.338 1.99997 -4.54219 0
M  V30 2851 H 268.594 1.60583 -5.89935 0
M  V30 2852 H 272.768 1.30677 -6.8403 0
M  V30 2853 H 270.395 1.10419 -7.52138 0
M  V30 2854 N 271.97 1.30982 0.876444 0
M  V30 2855 C 273.219 1.19658 1.62373 0
M  V30 2856 C 273.532 -0.245636 1.94052 0
M  V30 2857 O 274.738 -0.48049 2.67214 0
M  V30 2858 C 273.194 2.09433 2.92687 0
M  V30 2859 C 272.802 3.58613 2.68516 0
M  V30 2860 C 274.546 2.06893 3.70669 0
M  V30 2861 C 272.453 4.40416 3.94699 0
M  V30 2862 H 271.383 0.444268 0.609214 0
M  V30 2863 H 274.034 1.55791 0.969605 0
M  V30 2864 H 272.416 1.66191 3.59439 0
M  V30 2865 H 273.59 4.10058 2.10212 0
M  V30 2866 H 271.905 3.63063 2.03898 0
M  V30 2867 H 274.502 2.65258 4.64265 0
M  V30 2868 H 274.845 1.05448 4.02724 0
M  V30 2869 H 275.378 2.48301 3.10792 0
M  V30 2870 H 272.117 5.42591 3.67798 0
M  V30 2871 H 271.637 3.93731 4.52477 0
M  V30 2872 H 273.316 4.52294 4.62644 0
M  V30 2873 N 273.449 -1.08991 1.13837 0
M  V30 2874 C 274.381 -2.15606 0.777612 0
M  V30 2875 C 275.394 -1.61533 -0.202739 0
M  V30 2876 O 276.583 -1.78491 0.0181055 0
M  V30 2877 C 273.683 -3.3864 0.132623 0
M  V30 2878 C 272.856 -4.22115 1.1462 0
M  V30 2879 C 271.915 -5.23564 0.526074 0
M  V30 2880 O 270.941 -5.56678 1.18735 0
M  V30 2881 N 272.143 -5.76266 -0.699866 0
M  V30 2882 H 274.908 -2.47159 1.69506 0
M  V30 2883 H 272.469 -1.24747 1.03198 0
M  V30 2884 H 274.461 -4.03626 -0.29459 0
M  V30 2885 H 273.031 -3.04938 -0.687849 0
M  V30 2886 H 272.251 -3.53199 1.75055 0
M  V30 2887 H 273.539 -4.74709 1.83109 0
M  V30 2888 H 272.937 -5.51585 -1.25581 0
M  V30 2889 H 271.494 -6.42963 -1.06968 0
M  V30 2890 N 274.927 -0.932562 -1.27047 0
M  V30 2891 C 275.86 -0.379774 -2.25018 0
M  V30 2892 C 276.838 0.526587 -1.53837 0
M  V30 2893 O 278.022 0.465992 -1.82649 0
M  V30 2894 C 275.149 0.455187 -3.35627 0
M  V30 2895 C 274.195 -0.388428 -4.24728 0
M  V30 2896 S 275.028 -1.80701 -5.04091 0
M  V30 2897 C 276.184 -0.979865 -6.18182 0
M  V30 2898 H 276.417 -1.2101 -2.71558 0
M  V30 2899 H 273.95 -0.735078 -1.35779 0
M  V30 2900 H 275.908 0.931052 -3.99802 0
M  V30 2901 H 274.569 1.26009 -2.87716 0
M  V30 2902 H 273.762 0.25089 -5.03375 0
M  V30 2903 H 273.364 -0.798649 -3.65373 0
M  V30 2904 H 275.656 -0.218115 -6.77149 0
M  V30 2905 H 276.599 -1.73951 -6.86401 0
M  V30 2906 H 277.007 -0.51973 -5.62102 0
M  V30 2907 N 276.405 1.4127 -0.698611 0
M  V30 2908 C 277.651 2.01478 -0.231207 0
M  V30 2909 C 277.984 1.55215 1.16713 0
M  V30 2910 O 277.259 0.764672 1.78838 0
M  V30 2911 C 277.542 3.58912 -0.292281 0
M  V30 2912 C 277.395 4.15293 -1.72778 0
M  V30 2913 C 278.714 4.38736 0.346194 0
M  V30 2914 H 275.833 0.732025 -0.0854878 0
M  V30 2915 H 278.475 1.67977 -0.887906 0
M  V30 2916 H 276.625 3.87582 0.26686 0
M  V30 2917 H 278.297 3.97486 -2.341 0
M  V30 2918 H 276.54 3.7022 -2.26096 0
M  V30 2919 H 277.211 5.24452 -1.72202 0
M  V30 2920 H 279.687 4.15897 -0.130035 0
M  V30 2921 H 278.563 5.48221 0.272932 0
M  V30 2922 H 278.824 4.18425 1.42734 0
M  V30 2923 N 277.883 0.443576 1.51229 0
M  V30 2924 C 278.833 -0.382787 2.24764 0
M  V30 2925 C 279.817 -0.984836 1.27239 0
M  V30 2926 O 281.009 -0.901943 1.52296 0
M  V30 2927 C 278.138 -1.47989 3.09765 0
M  V30 2928 C 277.224 -0.886931 4.14722 0
M  V30 2929 N 277.615 -0.0237103 5.05794 0
M  V30 2930 C 275.913 -1.15385 4.30816 0
M  V30 2931 C 276.614 0.309971 5.80874 0
M  V30 2932 N 275.59 -0.307989 5.42727 0
M  V30 2933 H 279.392 0.282624 2.92538 0
M  V30 2934 H 276.906 0.256027 1.60369 0
M  V30 2935 H 278.903 -2.08482 3.61027 0
M  V30 2936 H 277.563 -2.14758 2.43535 0
M  V30 2937 H 278.574 0.34318 5.16762 0
M  V30 2938 H 275.251 -1.81857 3.75812 0
M  V30 2939 H 276.641 1.01279 6.64223 0
M  V30 2940 N 279.361 -1.56624 0.175154 0
M  V30 2941 C 280.271 -2.21741 -0.766042 0
M  V30 2942 C 281.287 -1.21023 -1.25018 0
M  V30 2943 O 282.463 -1.53697 -1.3015 0
M  V30 2944 C 279.528 -2.84839 -1.97655 0
M  V30 2945 C 278.589 -4.00769 -1.53892 0
M  V30 2946 C 277.822 -4.60849 -2.69173 0
M  V30 2947 O 278.045 -4.19823 -3.86141 0
M  V30 2948 O 276.979 -5.50655 -2.43028 0
M  V30 2949 H 280.805 -3.02738 -0.241585 0
M  V30 2950 H 278.39 -1.49305 -0.053222 0
M  V30 2951 H 280.272 -3.24834 -2.68442 0
M  V30 2952 H 278.947 -2.06836 -2.48999 0
M  V30 2953 H 277.854 -3.65436 -0.80044 0
M  V30 2954 H 279.187 -4.80376 -1.07236 0
M  V30 2955 N 280.839 0.0985539 -1.57292 0
M  V30 2956 C 281.749 1.13824 -2.05137 0
M  V30 2957 C 282.765 1.44076 -0.975604 0
M  V30 2958 O 283.941 1.54786 -1.28853 0
M  V30 2959 C 281.006 2.43969 -2.46333 0
M  V30 2960 C 280.067 2.2093 -3.68087 0
M  V30 2961 C 279.3 3.44869 -4.0731 0
M  V30 2962 O 279.523 4.52972 -3.46659 0
M  V30 2963 O 278.457 3.34661 -5.00285 0
M  V30 2964 H 282.283 0.761881 -2.93988 0
M  V30 2965 H 279.868 0.310818 -1.46131 0
M  V30 2966 H 281.75 3.20609 -2.73473 0
M  V30 2967 H 280.425 2.81038 -1.60621 0
M  V30 2968 H 279.332 1.42081 -3.46069 0
M  V30 2969 H 280.665 1.88755 -4.54568 0
M  V30 2970 N 282.317 1.53212 0.369288 0
M  V30 2971 C 283.565 1.68881 1.11012 0
M  V30 2972 C 283.886 0.441285 1.89941 0
M  V30 2973 O 283.156 -0.544623 1.88177 0
M  V30 2974 H 281.736 0.622569 0.412816 0
M  V30 2975 H 284.398 1.90391 0.416802 0
M  V30 2976 H 283.494 2.54822 1.80201 0
M  V30 2977 N 283.795 -0.628877 1.44509 0
M  V30 2978 C 285.02 -1.42048 1.5112 0
M  V30 2979 C 285.445 -1.87594 0.137818 0
M  V30 2980 O 284.803 -1.58873 -0.873437 0
M  V30 2981 C 284.851 -2.61541 2.48251 0
M  V30 2982 O 283.955 -3.61453 1.98559 0
M  V30 2983 H 283.296 -0.424942 0.510216 0
M  V30 2984 H 285.826 -0.767374 1.89664 0
M  V30 2985 H 285.836 -3.09057 2.66361 0
M  V30 2986 H 284.511 -2.27736 3.48007 0
M  V30 2987 H 283.088 -3.20731 1.90227 0
M  V30 2988 N 285.273 -1.31445 -0.869486 0
M  V30 2989 C 286.203 -1.21727 -1.99261 0
M  V30 2990 C 287.184 -0.104359 -1.6978 0
M  V30 2991 O 288.369 -0.289038 -1.92037 0
M  V30 2992 C 285.499 -0.924317 -3.34774 0
M  V30 2993 C 284.453 -1.99685 -3.78563 0
M  V30 2994 C 283.779 -1.55658 -5.11541 0
M  V30 2995 C 285.079 -3.41003 -3.95619 0
M  V30 2996 H 286.773 -2.1569 -2.07649 0
M  V30 2997 H 284.319 -1.03839 -0.997675 0
M  V30 2998 H 286.272 -0.842934 -4.12883 0
M  V30 2999 H 284.996 0.0509793 -3.2656 0
M  V30 3000 H 283.655 -2.06813 -3.02694 0
M  V30 3001 H 283.303 -0.569132 -4.9977 0
M  V30 3002 H 283.003 -2.27409 -5.41811 0
M  V30 3003 H 284.527 -1.48928 -5.92159 0
M  V30 3004 H 285.941 -3.36547 -4.64122 0
M  V30 3005 H 284.338 -4.10975 -4.37286 0
M  V30 3006 H 285.408 -3.81754 -2.98985 0
M  V30 3007 N 286.751 1.08385 -1.14413 0
M  V30 3008 C 287.976 1.85057 -0.936413 0
M  V30 3009 C 288.401 1.81055 0.509971 0
M  V30 3010 O 287.759 1.1958 1.36273 0
M  V30 3011 C 287.807 3.30505 -1.44217 0
M  V30 3012 O 286.911 4.07491 -0.634409 0
M  V30 3013 H 286.252 0.573425 -0.334784 0
M  V30 3014 H 288.782 1.36799 -1.52142 0
M  V30 3015 H 288.792 3.81348 -1.45043 0
M  V30 3016 H 287.467 3.32734 -2.49522 0
M  V30 3017 H 286.044 3.66368 -0.694902 0
M  V30 3018 N 288.23 0.939286 1.26551 0
M  V30 3019 C 289.476 0.586715 1.94128 0
M  V30 3020 C 289.809 -0.8717 1.73537 0
M  V30 3021 O 289.084 -1.62339 1.07127 0
M  V30 3022 C 289.367 0.927497 3.4795 0
M  V30 3023 C 289.22 2.44052 3.77834 0
M  V30 3024 C 290.539 0.441569 4.37879 0
M  V30 3025 H 287.658 0.21463 0.705055 0
M  V30 3026 H 290.3 1.17316 1.49455 0
M  V30 3027 H 288.45 0.428431 3.8613 0
M  V30 3028 H 290.122 3.01216 3.4938 0
M  V30 3029 H 288.365 2.8848 3.23978 0
M  V30 3030 H 289.036 2.62947 4.85348 0
M  V30 3031 H 291.512 0.869448 4.06915 0
M  V30 3032 H 290.388 0.708856 5.44304 0
M  V30 3033 H 290.649 -0.658467 4.37169 0
M  V30 3034 N 289.708 -1.40897 0.706093 0
M  V30 3035 C 290.638 -2.33418 0.0620085 0
M  V30 3036 C 291.619 -1.52385 -0.755827 0
M  V30 3037 O 292.804 -1.80886 -0.706674 0
M  V30 3038 C 289.934 -3.36293 -0.867445 0
M  V30 3039 C 288.888 -4.27716 -0.155932 0
M  V30 3040 C 288.214 -5.2105 -1.20046 0
M  V30 3041 C 289.514 -5.12944 0.984149 0
M  V30 3042 H 291.208 -2.87527 0.83477 0
M  V30 3043 H 288.754 -1.38249 0.402875 0
M  V30 3044 H 290.707 -3.99949 -1.32735 0
M  V30 3045 H 289.431 -2.80556 -1.67199 0
M  V30 3046 H 288.09 -3.65498 0.284047 0
M  V30 3047 H 287.738 -4.61624 -1.99781 0
M  V30 3048 H 287.438 -5.83056 -0.729328 0
M  V30 3049 H 288.962 -5.87584 -1.66066 0
M  V30 3050 H 290.376 -5.70109 0.604048 0
M  V30 3051 H 288.773 -5.83945 1.38304 0
M  V30 3052 H 289.843 -4.49485 1.81911 0
M  V30 3053 N 291.186 -0.45159 -1.50991 0
M  V30 3054 C 292.434 0.109857 -2.01801 0
M  V30 3055 C 292.755 1.41958 -1.3369 0
M  V30 3056 O 292.025 1.9003 -0.475951 0
M  V30 3057 H 290.605 0.0435884 -0.745727 0
M  V30 3058 H 293.267 -0.597557 -1.85514 0
M  V30 3059 H 292.363 0.275489 -3.10882 0
M  V30 3060 N 292.664 1.56529 -0.183458 0
M  V30 3061 C 293.894 2.01331 0.463612 0
M  V30 3062 C 294.302 1.06278 1.5653 0
M  V30 3063 O 293.645 0.0577976 1.83609 0
M  V30 3064 C 293.707 3.42547 1.09096 0
M  V30 3065 C 293.371 4.56817 0.129442 0
M  V30 3066 C 294.368 5.15734 -0.656807 0
M  V30 3067 C 292.053 5.02295 0.02174 0
M  V30 3068 C 294.047 6.1857 -1.53784 0
M  V30 3069 C 291.734 6.04978 -0.862864 0
M  V30 3070 C 292.732 6.62988 -1.64123 0
M  V30 3071 O 292.42 7.63677 -2.51103 0
M  V30 3072 H 292.152 0.664917 0.121907 0
M  V30 3073 H 294.706 2.034 -0.285954 0
M  V30 3074 H 292.936 3.37428 1.88889 0
M  V30 3075 H 294.625 3.71228 1.64148 0
M  V30 3076 H 295.391 4.81473 -0.583839 0
M  V30 3077 H 291.27 4.56847 0.617392 0
M  V30 3078 H 294.814 6.63777 -2.14583 0
M  V30 3079 H 290.711 6.38663 -0.93699 0
M  V30 3080 H 291.479 7.81049 -2.44753 0
M  V30 3081 N 294.142 -0.090211 1.57342 0
M  V30 3082 C 295.367 -0.810082 1.90925 0
M  V30 3083 C 295.792 -1.71248 0.778187 0
M  V30 3084 O 295.15 -1.79278 -0.269991 0
M  V30 3085 C 295.198 -1.59529 3.23393 0
M  V30 3086 O 294.302 -2.70461 3.11327 0
M  V30 3087 H 293.643 -0.222231 0.625707 0
M  V30 3088 H 296.173 -0.0639716 2.045 0
M  V30 3089 H 296.183 -1.97847 3.5682 0
M  V30 3090 H 294.858 -0.933055 4.05299 0
M  V30 3091 H 293.435 -2.35135 2.89423 0
M  V30 3092 N 295.62 -1.53406 -0.361157 0
M  V30 3093 C 296.866 -1.70054 -1.10496 0
M  V30 3094 C 297.199 -0.453278 -1.88836 0
M  V30 3095 O 296.474 0.5495 -1.86576 0
M  V30 3096 C 296.757 -2.95317 -2.06058 0
M  V30 3097 C 296.61 -4.3021 -1.31298 0
M  V30 3098 C 297.929 -3.16193 -3.06121 0
M  V30 3099 H 295.048 -0.618799 -0.400321 0
M  V30 3100 H 297.69 -1.86052 -0.385318 0
M  V30 3101 H 295.84 -2.81809 -2.67425 0
M  V30 3102 H 297.512 -4.55538 -0.726807 0
M  V30 3103 H 295.755 -4.29421 -0.614853 0
M  V30 3104 H 296.426 -5.14 -2.01265 0
M  V30 3105 H 298.902 -3.28916 -2.5486 0
M  V30 3106 H 297.778 -4.05266 -3.70204 0
M  V30 3107 H 298.039 -2.31676 -3.76535 0
M  V30 3108 N 297.098 0.621204 -1.44841 0
M  V30 3109 C 298.028 1.74366 -1.55303 0
M  V30 3110 C 299.009 1.65199 -0.405385 0
M  V30 3111 O 300.194 1.83807 -0.626787 0
M  V30 3112 C 297.324 3.12931 -1.50637 0
M  V30 3113 C 296.278 3.36896 -2.63979 0
M  V30 3114 C 295.604 4.75594 -2.44366 0
M  V30 3115 C 296.904 3.28483 -4.06074 0
M  V30 3116 H 298.598 1.65867 -2.49256 0
M  V30 3117 H 296.144 0.796558 -1.19962 0
M  V30 3118 H 298.097 3.9124 -1.56555 0
M  V30 3119 H 296.821 3.22237 -0.532057 0
M  V30 3120 H 295.48 2.60972 -2.57467 0
M  V30 3121 H 295.128 4.81616 -1.45105 0
M  V30 3122 H 294.828 4.92586 -3.20364 0
M  V30 3123 H 296.352 5.5612 -2.52117 0
M  V30 3124 H 297.766 3.96684 -4.13902 0
M  V30 3125 H 296.163 3.57008 -4.82354 0
M  V30 3126 H 297.233 2.26133 -4.28943 0
M  V30 3127 N 298.576 1.31904 0.862503 0
M  V30 3128 C 299.806 1.24817 1.64634 0
M  V30 3129 C 300.214 -0.187579 1.88268 0
M  V30 3130 O 299.557 -1.13253 1.44635 0
M  V30 3131 C 299.619 1.92996 3.03303 0
M  V30 3132 C 299.283 3.42336 3.02746 0
M  V30 3133 C 300.28 4.37956 2.80162 0
M  V30 3134 C 297.965 3.84147 3.2363 0
M  V30 3135 C 299.959 5.73361 2.78453 0
M  V30 3136 C 297.646 5.19663 3.21549 0
M  V30 3137 C 298.644 6.14081 2.98988 0
M  V30 3138 O 298.332 7.47118 2.96766 0
M  V30 3139 H 298.064 0.432222 0.519769 0
M  V30 3140 H 300.618 1.7445 1.08427 0
M  V30 3141 H 298.848 1.37922 3.61268 0
M  V30 3142 H 300.537 1.79723 3.63943 0
M  V30 3143 H 301.303 4.06981 2.63802 0
M  V30 3144 H 297.182 3.11083 3.40218 0
M  V30 3145 H 300.726 6.4703 2.60763 0
M  V30 3146 H 296.623 5.5027 3.37451 0
M  V30 3147 H 297.391 7.56382 3.12775 0
M  V30 3148 N 300.054 -1.07777 1.14986 0
M  V30 3149 C 301.279 -1.84558 0.946213 0
M  V30 3150 C 301.704 -1.81323 -0.500362 0
M  V30 3151 O 301.062 -1.20301 -1.35637 0
M  V30 3152 C 301.11 -3.29736 1.45968 0
M  V30 3153 O 300.214 -4.07149 0.65601 0
M  V30 3154 H 299.555 -0.571641 0.33782 0
M  V30 3155 H 302.085 -1.35991 1.52865 0
M  V30 3156 H 302.095 -3.80574 1.47063 0
M  V30 3157 H 300.77 -3.31406 2.51283 0
M  V30 3158 H 299.347 -3.65994 0.714322 0
M  V30 3159 N 301.532 -0.945985 -1.26051 0
M  V30 3160 C 302.757 -0.612525 -1.98149 0
M  V30 3161 C 303.182 0.806623 -1.69927 0
M  V30 3162 O 302.54 1.54411 -0.950108 0
M  V30 3163 C 302.588 -0.866981 -3.50023 0
M  V30 3164 O 301.692 0.0585333 -4.12358 0
M  V30 3165 H 301.033 -0.23379 -0.621481 0
M  V30 3166 H 303.563 -1.27023 -1.60395 0
M  V30 3167 H 303.573 -0.789792 -4.00283 0
M  V30 3168 H 302.248 -1.90135 -3.69894 0
M  V30 3169 H 300.825 -0.0701241 -3.72834 0
M  V30 3170 N 303.011 1.40521 -0.713556 0
M  V30 3171 C 303.941 2.33381 -0.0743864 0
M  V30 3172 C 304.922 1.52784 0.747735 0
M  V30 3173 O 306.107 1.81258 0.697071 0
M  V30 3174 C 303.237 3.36748 0.849598 0
M  V30 3175 C 302.191 4.27793 0.133247 0
M  V30 3176 C 301.517 5.21679 1.17281 0
M  V30 3177 C 302.817 5.12415 -1.01134 0
M  V30 3178 H 304.511 2.87081 -0.850007 0
M  V30 3179 H 302.057 1.38034 -0.410201 0
M  V30 3180 H 304.01 4.00648 1.30612 0
M  V30 3181 H 302.734 2.81439 1.65709 0
M  V30 3182 H 301.393 3.65342 -0.303426 0
M  V30 3183 H 301.041 4.62677 1.9733 0
M  V30 3184 H 300.741 5.83435 0.698397 0
M  V30 3185 H 302.265 5.88456 1.62947 0
M  V30 3186 H 303.679 5.69781 -0.634274 0
M  V30 3187 H 302.076 5.83203 -1.41399 0
M  V30 3188 H 303.146 4.48514 -1.84292 0
M  V30 3189 N 304.489 0.459591 1.5075 0
M  V30 3190 C 305.422 -0.386257 2.24907 0
M  V30 3191 C 306.4 -1.006 1.27744 0
M  V30 3192 O 307.584 -1.04416 1.56938 0
M  V30 3193 C 304.711 -1.54021 3.01654 0
M  V30 3194 C 303.757 -1.03898 4.13651 0
M  V30 3195 S 304.59 0.0370501 5.35487 0
M  V30 3196 C 305.746 -1.12105 6.15779 0
M  V30 3197 H 305.979 0.243272 2.96303 0
M  V30 3198 H 303.512 0.244339 1.52454 0
M  V30 3199 H 305.47 -2.20163 3.46466 0
M  V30 3200 H 304.131 -2.14121 2.29806 0
M  V30 3201 H 303.324 -1.90254 4.66711 0
M  V30 3202 H 302.926 -0.45545 3.71216 0
M  V30 3203 H 305.218 -2.03501 6.46215 0
M  V30 3204 H 306.161 -0.62995 7.05292 0
M  V30 3205 H 306.569 -1.36967 5.47631 0
M  V30 3206 N 305.967 -1.56429 0.191757 0
M  V30 3207 C 306.93 -2.17707 -0.716688 0
M  V30 3208 C 307.93 -1.13061 -1.14341 0
M  V30 3209 O 309.12 -1.38464 -1.05704 0
M  V30 3210 C 306.252 -2.77644 -1.97804 0
M  V30 3211 H 307.445 -2.99342 -0.1829 0
M  V30 3212 H 304.998 -1.56193 -0.0578566 0
M  V30 3213 H 305.733 -1.99799 -2.55443 0
M  V30 3214 H 305.518 -3.54246 -1.68083 0
M  V30 3215 H 307.008 -3.24708 -2.62592 0
M  V30 3216 N 307.445 0.0818655 -1.57387 0
M  V30 3217 C 308.375 1.09885 -2.06028 0
M  V30 3218 C 309.356 1.4098 -0.951774 0
M  V30 3219 O 310.541 1.50781 -1.22387 0
M  V30 3220 C 307.671 2.4151 -2.4958 0
M  V30 3221 C 306.625 2.24792 -3.64215 0
M  V30 3222 C 305.951 3.61712 -3.93787 0
M  V30 3223 C 307.251 1.67749 -4.94629 0
M  V30 3224 H 308.945 0.694128 -2.91243 0
M  V30 3225 H 306.491 0.332448 -1.4011 0
M  V30 3226 H 308.444 3.12939 -2.82219 0
M  V30 3227 H 307.168 2.83943 -1.61381 0
M  V30 3228 H 305.827 1.55807 -3.31843 0
M  V30 3229 H 305.475 4.01697 -3.02735 0
M  V30 3230 H 305.175 3.51368 -4.70971 0
M  V30 3231 H 306.699 4.34587 -4.28913 0
M  V30 3232 H 308.113 2.29032 -5.25564 0
M  V30 3233 H 306.51 1.68128 -5.76067 0
M  V30 3234 H 307.58 0.638059 -4.80684 0
M  V30 3235 N 308.923 1.53595 0.353017 0
M  V30 3236 C 309.853 1.83902 1.43883 0
M  V30 3237 C 310.834 0.693421 1.55324 0
M  V30 3238 O 312.019 0.944452 1.69687 0
M  V30 3239 C 309.149 2.04016 2.8106 0
M  V30 3240 C 308.103 3.19814 2.84434 0
M  V30 3241 C 307.429 3.25244 4.24406 0
M  V30 3242 C 308.729 4.58133 2.50822 0
M  V30 3243 H 310.423 2.74835 1.1877 0
M  V30 3244 H 307.969 1.32242 0.569917 0
M  V30 3245 H 309.922 2.238 3.57059 0
M  V30 3246 H 308.646 1.09804 3.07588 0
M  V30 3247 H 307.305 2.9987 2.10887 0
M  V30 3248 H 306.953 2.28646 4.48029 0
M  V30 3249 H 306.653 4.03054 4.27576 0
M  V30 3250 H 308.177 3.47228 5.0226 0
M  V30 3251 H 309.591 4.77995 3.16534 0
M  V30 3252 H 307.988 5.38276 2.6529 0
M  V30 3253 H 309.058 4.62387 1.46034 0
M  V30 3254 N 310.401 -0.613514 1.45168 0
M  V30 3255 C 311.647 -1.37471 1.49096 0
M  V30 3256 C 311.98 -1.93765 0.129901 0
M  V30 3257 O 311.255 -1.74707 -0.854858 0
M  V30 3258 C 311.538 -2.52701 2.56542 0
M  V30 3259 C 311.391 -2.01643 4.0207 0
M  V30 3260 C 312.71 -3.54849 2.60327 0
M  V30 3261 H 309.829 -0.498502 0.54283 0
M  V30 3262 H 312.471 -0.692125 1.76945 0
M  V30 3263 H 310.621 -3.10931 2.32926 0
M  V30 3264 H 312.293 -1.48108 4.36877 0
M  V30 3265 H 310.536 -1.32688 4.13009 0
M  V30 3266 H 311.207 -2.84681 4.72928 0
M  V30 3267 H 313.683 -3.0645 2.81474 0
M  V30 3268 H 312.559 -4.32973 3.37381 0
M  V30 3269 H 312.82 -4.10079 1.6519 0
M  V30 3270 N 311.879 -1.3236 -0.855495 0
M  V30 3271 C 312.809 -1.23833 -1.97958 0
M  V30 3272 C 313.79 -0.122361 -1.69659 0
M  V30 3273 O 314.975 -0.30939 -1.9172 0
M  V30 3274 C 312.105 -0.959772 -3.33775 0
M  V30 3275 C 311.059 -2.03689 -3.76424 0
M  V30 3276 C 310.385 -1.61075 -5.09862 0
M  V30 3277 C 311.685 -3.4518 -3.9198 0
M  V30 3278 H 313.379 -2.1788 -2.0535 0
M  V30 3279 H 310.925 -1.04891 -0.986605 0
M  V30 3280 H 312.878 -0.886678 -4.11966 0
M  V30 3281 H 311.602 0.0163404 -3.26596 0
M  V30 3282 H 310.261 -2.10012 -3.00484 0
M  V30 3283 H 309.909 -0.622107 -4.99138 0
M  V30 3284 H 309.609 -2.33143 -5.39368 0
M  V30 3285 H 311.133 -1.55201 -5.90546 0
M  V30 3286 H 312.547 -3.4145 -4.60526 0
M  V30 3287 H 310.944 -4.1559 -4.32903 0
M  V30 3288 H 312.014 -3.84903 -2.94919 0
M  V30 3289 N 313.357 1.07166 -1.15556 0
M  V30 3290 C 314.32 2.12589 -0.856644 0
M  V30 3291 C 315.32 1.6015 0.14444 0
M  V30 3292 O 316.51 1.7399 -0.0854163 0
M  V30 3293 C 313.642 3.39753 -0.279405 0
M  V30 3294 H 314.835 2.40539 -1.79112 0
M  V30 3295 H 312.388 1.23086 -0.963298 0
M  V30 3296 H 313.123 3.17447 0.663174 0
M  V30 3297 H 312.908 3.79117 -1.00063 0
M  V30 3298 H 314.398 4.17507 -0.0879113 0
M  V30 3299 N 314.835 0.952656 1.25548 0
M  V30 3300 C 316.063 0.623496 1.97282 0
M  V30 3301 C 316.478 -0.803987 1.70826 0
M  V30 3302 O 315.835 -1.53755 0.983147 0
M  V30 3303 C 315.886 0.870209 3.5087 0
M  V30 3304 O 315.607 2.24156 3.76412 0
M  V30 3305 C 317.108 0.553164 4.39835 0
M  V30 3306 H 314.328 0.233931 0.628902 0
M  V30 3307 H 316.872 1.27649 1.59768 0
M  V30 3308 H 315.027 0.263652 3.86502 0
M  V30 3309 H 315.441 2.31021 4.70882 0
M  V30 3310 H 316.915 0.776342 5.46513 0
M  V30 3311 H 317.392 -0.512215 4.36203 0
M  V30 3312 H 317.998 1.13896 4.09766 0
M  V30 3313 N 316.313 -1.40141 0.720998 0
M  V30 3314 C 317.559 -2.01084 0.263231 0
M  V30 3315 C 317.892 -1.57052 -1.14229 0
M  V30 3316 O 317.167 -0.793027 -1.77599 0
M  V30 3317 C 317.45 -3.58401 0.349344 0
M  V30 3318 C 317.303 -4.12491 1.79363 0
M  V30 3319 C 318.622 -4.39231 -0.276351 0
M  V30 3320 H 315.741 -0.730572 0.0971228 0
M  V30 3321 H 318.383 -1.66543 0.914518 0
M  V30 3322 H 316.533 -3.87958 -0.205165 0
M  V30 3323 H 318.205 -3.93711 2.40394 0
M  V30 3324 H 316.448 -3.66576 2.31958 0
M  V30 3325 H 317.119 -5.21646 1.80524 0
M  V30 3326 H 319.595 -4.15637 0.196184 0
M  V30 3327 H 318.471 -5.48586 -0.185681 0
M  V30 3328 H 318.732 -4.20643 -1.36059 0
M  V30 3329 N 317.792 -0.46758 -1.50504 0
M  V30 3330 C 318.722 0.318381 -2.31319 0
M  V30 3331 C 319.703 0.993564 -1.38066 0
M  V30 3332 O 320.888 0.991411 -1.66987 0
M  V30 3333 C 318.018 1.40275 -3.17711 0
M  V30 3334 C 316.972 0.849373 -4.19487 0
M  V30 3335 C 316.298 2.03177 -4.94594 0
M  V30 3336 C 317.598 -0.136942 -5.2212 0
M  V30 3337 H 319.292 -0.356106 -2.97275 0
M  V30 3338 H 316.838 -0.172703 -1.42961 0
M  V30 3339 H 318.791 1.96004 -3.73042 0
M  V30 3340 H 317.515 2.10596 -2.49634 0
M  V30 3341 H 316.174 0.314076 -3.65252 0
M  V30 3342 H 315.822 2.72187 -4.22993 0
M  V30 3343 H 315.522 1.66774 -5.63436 0
M  V30 3344 H 317.046 2.59403 -5.52759 0
M  V30 3345 H 318.46 0.331056 -5.72343 0
M  V30 3346 H 316.857 -0.41507 -5.98663 0
M  V30 3347 H 317.927 -1.06398 -4.73083 0
M  V30 3348 N 319.27 1.56325 -0.20005 0
M  V30 3349 C 320.51 1.99619 0.439519 0
M  V30 3350 C 320.874 1.08423 1.58456 0
M  V30 3351 O 322.075 1.40973 2.28867 0
M  V30 3352 C 320.346 3.46314 0.883258 0
M  V30 3353 S 321.905 4.11634 1.51997 0
M  V30 3354 H 318.723 0.697007 0.140363 0
M  V30 3355 H 321.325 1.93118 -0.304282 0
M  V30 3356 H 320.029 4.10381 0.0398967 0
M  V30 3357 H 319.56 3.56643 1.6604 0
M  V30 3358 H 321.575 4.09049 2.8088 0
M  V30 3359 N 320.748 -0.0735177 1.57428 0
M  V30 3360 C 321.696 -1.10628 2.04607 0
M  V30 3361 C 322.69 -1.40181 0.951088 0
M  V30 3362 O 323.896 -1.39608 1.1362 0
M  V30 3363 H 320.271 -0.374088 0.652351 0
M  V30 3364 H 322.242 -0.682218 2.90497 0
M  V30 3365 C 320.991 -2.41212 2.50423 0
M  V30 3366 H 320.314 -2.19322 3.34272 0
M  V30 3367 H 321.754 -3.11927 2.87189 0
M  V30 3368 C 320.213 -3.0705 1.38644 0
M  V30 3369 O 320.743 -3.95056 0.727582 0
M  V30 3370 N 318.949 -2.67645 1.132 0
M  V30 3371 H 318.496 -1.96169 1.66959 0
M  V30 3372 H 318.454 -3.1202 0.386147 0
M  V30 3373 N 322.226 -1.5378 -0.344866 0
M  V30 3374 C 323.156 -1.84662 -1.42906 0
M  V30 3375 C 324.137 -0.701648 -1.54955 0
M  V30 3376 O 325.322 -0.953438 -1.69184 0
M  V30 3377 C 322.452 -2.05503 -2.79974 0
M  V30 3378 C 321.406 -3.21318 -2.82734 0
M  V30 3379 C 320.732 -3.2749 -4.22675 0
M  V30 3380 C 322.032 -4.59456 -2.48389 0
M  V30 3381 H 323.726 -2.75461 -1.17311 0
M  V30 3382 H 321.272 -1.32542 -0.562896 0
M  V30 3383 H 323.225 -2.25691 -3.55867 0
M  V30 3384 H 321.949 -1.11434 -3.07002 0
M  V30 3385 H 320.608 -3.00984 -2.09294 0
M  V30 3386 H 320.256 -2.31019 -4.4681 0
M  V30 3387 H 319.956 -4.05316 -4.25433 0
M  V30 3388 H 321.48 -3.49887 -5.00412 0
M  V30 3389 H 322.894 -4.79667 -3.13995 0
M  V30 3390 H 321.291 -5.39675 -2.62432 0
M  V30 3391 H 322.361 -4.63155 -1.4358 0
M  V30 3392 N 323.704 0.605807 -1.45491 0
M  V30 3393 C 324.952 1.36207 -1.49305 0
M  V30 3394 C 325.273 1.94519 -0.136863 0
M  V30 3395 O 324.543 1.77261 0.833983 0
M  V30 3396 H 323.123 0.50565 -0.549843 0
M  V30 3397 H 325.785 0.711239 -1.81459 0
M  V30 3398 H 324.881 2.18058 -2.23287 0
M  V30 3399 N 325.182 1.32811 0.848464 0
M  V30 3400 C 326.145 1.22194 1.9391 0
M  V30 3401 C 327.145 0.143404 1.60159 0
M  V30 3402 O 328.335 0.394253 1.6968 0
M  V30 3403 C 325.467 0.88067 3.29328 0
M  V30 3404 H 326.66 2.19127 2.04752 0
M  V30 3405 H 324.213 1.16731 1.0394 0
M  V30 3406 H 324.948 -0.0865776 3.24184 0
M  V30 3407 H 324.733 1.66052 3.55203 0
M  V30 3408 H 326.223 0.830871 4.09251 0
M  V30 3409 N 326.66 -1.06551 1.16123 0
M  V30 3410 C 327.593 -2.13382 0.80892 0
M  V30 3411 C 328.571 -1.61128 -0.21827 0
M  V30 3412 O 329.755 -1.88219 -0.102952 0
M  V30 3413 C 326.882 -3.38083 0.204303 0
M  V30 3414 C 325.928 -4.09133 1.20469 0
M  V30 3415 S 326.761 -4.5948 2.75024 0
M  V30 3416 C 327.917 -5.87446 2.16005 0
M  V30 3417 H 328.15 -2.42937 1.71373 0
M  V30 3418 H 325.683 -1.18947 0.984428 0
M  V30 3419 H 327.641 -4.10268 -0.138081 0
M  V30 3420 H 326.302 -3.0669 -0.678234 0
M  V30 3421 H 325.495 -4.98685 0.730019 0
M  V30 3422 H 325.097 -3.4295 1.49202 0
M  V30 3423 H 327.389 -6.60065 1.5271 0
M  V30 3424 H 328.332 -6.39639 3.03756 0
M  V30 3425 H 328.74 -5.41354 1.59989 0
M  V30 3426 N 328.138 -0.959301 -1.25041 0
M  V30 3427 C 329.554 -0.664474 -1.4511 0
M  V30 3428 C 329.754 0.776481 -1.85938 0
M  V30 3429 O 328.81 1.55128 -1.99227 0
M  V30 3430 C 330.123 -1.64139 -2.5195 0
M  V30 3431 C 331.671 -1.65309 -2.65786 0
M  V30 3432 C 332.146 -2.61777 -3.75815 0
M  V30 3433 N 333.637 -2.60169 -3.83231 0
M  V30 3434 C 334.372 -3.31489 -4.6787 0
M  V30 3435 N 333.868 -4.12298 -5.56761 0
M  V30 3436 N 335.661 -3.20354 -4.61876 0
M  V30 3437 H 327.812 -1.89043 -0.968332 0
M  V30 3438 H 330.075 -0.813408 -0.4869 0
M  V30 3439 H 329.781 -2.67086 -2.28819 0
M  V30 3440 H 329.655 -1.40756 -3.49954 0
M  V30 3441 H 332.042 -0.630778 -2.8828 0
M  V30 3442 H 332.123 -1.92753 -1.68167 0
M  V30 3443 H 331.767 -3.64137 -3.54071 0
M  V30 3444 H 331.697 -2.31616 -4.72929 0
M  V30 3445 H 334.188 -2.01507 -3.19692 0
M  V30 3446 H 334.501 -4.63625 -6.18281 0
M  V30 3447 H 332.846 -4.16395 -5.56454 0
M  V30 3448 H 336.037 -2.56692 -3.91442 0
M  V30 3449 H 336.21 -3.76201 -5.27614 0
M  V30 3450 N 329.616 1.39756 -0.72842 0
M  V30 3451 C 330.564 2.32485 -0.0731849 0
M  V30 3452 C 331.558 1.52717 0.733063 0
M  V30 3453 O 332.764 1.68428 0.634988 0
M  V30 3454 H 329.139 0.751984 -0.00486469 0
M  V30 3455 H 331.11 2.85382 -0.871761 0
M  V30 3456 C 329.859 3.37773 0.824908 0
M  V30 3457 H 329.182 3.99227 0.213915 0
M  V30 3458 H 330.622 4.05121 1.25111 0
M  V30 3459 C 329.081 2.74287 1.95622 0
M  V30 3460 O 329.611 2.61618 3.04826 0
M  V30 3461 N 327.817 2.32475 1.74367 0
M  V30 3462 H 327.364 2.4298 0.855494 0
M  V30 3463 H 327.322 1.90337 2.50238 0
M  V30 3464 N 331.094 0.475555 1.50254 0
M  V30 3465 C 332.024 -0.30611 2.31485 0
M  V30 3466 C 333.005 -0.986228 1.38591 0
M  V30 3467 O 334.19 -0.982541 1.67511 0
M  V30 3468 C 331.32 -1.38588 3.1845 0
M  V30 3469 C 330.274 -0.827115 4.19932 0
M  V30 3470 C 329.6 -2.00551 4.95665 0
M  V30 3471 C 330.9 0.16463 5.2204 0
M  V30 3472 H 332.594 0.371866 2.97082 0
M  V30 3473 H 330.14 0.180282 1.42867 0
M  V30 3474 H 332.093 -1.94023 3.74076 0
M  V30 3475 H 330.817 -2.09269 2.50747 0
M  V30 3476 H 329.476 -0.294702 3.65414 0
M  V30 3477 H 329.124 -2.6994 4.2443 0
M  V30 3478 H 328.824 -1.63784 5.64313 0
M  V30 3479 H 330.348 -2.56468 5.54127 0
M  V30 3480 H 331.762 -0.300699 5.72511 0
M  V30 3481 H 330.159 0.446813 5.98434 0
M  V30 3482 H 331.229 1.08905 4.72512 0
M  V30 3483 N 332.573 -1.56217 0.208337 0
M  V30 3484 C 333.803 -2.02043 -0.431523 0
M  V30 3485 C 334.211 -1.08755 -1.54819 0
M  V30 3486 O 333.554 -0.0870009 -1.83494 0
M  V30 3487 C 333.616 -3.44239 -1.03633 0
M  V30 3488 C 333.28 -4.56965 -0.0567502 0
M  V30 3489 C 334.277 -5.14624 0.738773 0
M  V30 3490 C 331.962 -5.02266 0.0581736 0
M  V30 3491 C 333.956 -6.16045 1.63605 0
M  V30 3492 C 331.643 -6.03528 0.959001 0
M  V30 3493 C 332.641 -6.60293 1.7465 0
M  V30 3494 O 332.329 -7.59586 2.6322 0
M  V30 3495 H 332.061 -0.666772 -0.111313 0
M  V30 3496 H 334.615 -2.02919 0.318277 0
M  V30 3497 H 332.845 -3.40391 -1.83497 0
M  V30 3498 H 334.534 -3.73793 -1.58221 0
M  V30 3499 H 335.3 -4.80483 0.660364 0
M  V30 3500 H 331.179 -4.57771 -0.544633 0
M  V30 3501 H 334.723 -6.60279 2.25116 0
M  V30 3502 H 330.62 -6.37092 1.03848 0
M  V30 3503 H 331.388 -7.77057 2.57148 0
M  V30 3504 N 334.051 0.0651679 -1.57465 0
M  V30 3505 C 335.014 1.06117 -2.03155 0
M  V30 3506 C 336.014 1.31204 -0.929632 0
M  V30 3507 O 337.204 1.26813 -1.19432 0
M  V30 3508 C 334.336 2.4032 -2.41783 0
M  V30 3509 H 335.529 0.667231 -2.92383 0
M  V30 3510 H 333.082 0.311075 -1.53173 0
M  V30 3511 H 333.817 2.84532 -1.55601 0
M  V30 3512 H 333.602 2.23451 -3.22199 0
M  V30 3513 H 335.092 3.11898 -2.77685 0
M  V30 3514 N 335.529 1.53961 0.336706 0
M  V30 3515 C 336.462 1.77255 1.43722 0
M  V30 3516 C 337.44 0.62193 1.50236 0
M  V30 3517 O 338.624 0.857874 1.67847 0
M  V30 3518 C 335.751 1.87733 2.81912 0
M  V30 3519 C 334.797 3.09933 2.92991 0
M  V30 3520 S 335.63 4.68836 2.58753 0
M  V30 3521 C 336.786 4.82202 3.99039 0
M  V30 3522 H 337.019 2.70322 1.23748 0
M  V30 3523 H 334.552 1.44917 0.532777 0
M  V30 3524 H 336.51 1.94455 3.61521 0
M  V30 3525 H 335.171 0.956666 2.99177 0
M  V30 3526 H 334.364 3.1396 3.94265 0
M  V30 3527 H 333.966 3.01472 2.21338 0
M  V30 3528 H 336.258 4.64032 4.9364 0
M  V30 3529 H 337.201 5.84298 4.00002 0
M  V30 3530 H 337.609 4.10604 3.87382 0
M  V30 3531 N 337.007 -0.598083 1.45811 0
M  V30 3532 C 337.957 -1.70272 1.51629 0
M  V30 3533 C 338.941 -1.56382 0.378629 0
M  V30 3534 O 340.133 -1.65557 0.626087 0
M  V30 3535 C 337.262 -3.09042 1.49493 0
M  V30 3536 C 336.348 -3.28284 2.68496 0
M  V30 3537 N 336.739 -3.17748 3.93535 0
M  V30 3538 C 335.037 -3.59182 2.64394 0
M  V30 3539 C 335.738 -3.38579 4.7301 0
M  V30 3540 N 334.714 -3.63016 4.04624 0
M  V30 3541 H 338.516 -1.60634 2.46118 0
M  V30 3542 H 336.03 -0.801642 1.41235 0
M  V30 3543 H 338.027 -3.88302 1.51747 0
M  V30 3544 H 336.687 -3.19823 0.560683 0
M  V30 3545 H 337.698 -2.95944 4.25014 0
M  V30 3546 H 334.375 -3.76742 1.79922 0
M  V30 3547 H 335.765 -3.35747 5.82 0
M  V30 3548 N 338.485 -1.33259 -0.841409 0
M  V30 3549 C 339.901 -1.12538 -1.13169 0
M  V30 3550 C 340.101 0.0854037 -2.01319 0
M  V30 3551 O 339.157 0.766417 -2.40587 0
M  V30 3552 C 340.47 -2.41156 -1.79623 0
M  V30 3553 C 342.018 -2.47038 -1.922 0
M  V30 3554 C 342.493 -3.7561 -2.6207 0
M  V30 3555 N 343.984 -3.76667 -2.69585 0
M  V30 3556 C 344.719 -4.72861 -3.2433 0
M  V30 3557 N 344.215 -5.79428 -3.79783 0
M  V30 3558 N 346.008 -4.6034 -3.22558 0
M  V30 3559 H 338.159 -2.10868 -0.254676 0
M  V30 3560 H 340.422 -0.931615 -0.175493 0
M  V30 3561 H 340.128 -3.29747 -1.22311 0
M  V30 3562 H 340.002 -2.53114 -2.79666 0
M  V30 3563 H 342.389 -1.58898 -2.48667 0
M  V30 3564 H 342.47 -2.39022 -0.911148 0
M  V30 3565 H 342.114 -4.64131 -2.06263 0
M  V30 3566 H 342.044 -3.80902 -3.63622 0
M  V30 3567 H 344.535 -2.99648 -2.30259 0
M  V30 3568 H 344.848 -6.48867 -4.19752 0
M  V30 3569 H 343.193 -5.83166 -3.78078 0
M  V30 3570 H 346.384 -3.76244 -2.78492 0
M  V30 3571 H 346.557 -5.35478 -3.64921 0
M  V30 3572 N 339.963 1.05934 -1.16686 0
M  V30 3573 C 341.379 1.30938 -0.912542 0
M  V30 3574 C 341.579 1.96803 0.432533 0
M  V30 3575 O 340.635 2.23693 1.17123 0
M  V30 3576 C 341.948 2.18649 -2.06429 0
M  V30 3577 C 343.496 2.32055 -2.10047 0
M  V30 3578 C 343.971 3.23122 -3.24586 0
M  V30 3579 N 345.462 3.30706 -3.24327 0
M  V30 3580 C 346.197 4.01273 -4.09594 0
M  V30 3581 N 345.693 4.74332 -5.04956 0
M  V30 3582 N 347.486 3.97361 -3.97569 0
M  V30 3583 H 339.637 0.615777 -2.03278 0
M  V30 3584 H 341.9 0.334077 -0.887185 0
M  V30 3585 H 341.606 1.77534 -3.03603 0
M  V30 3586 H 341.48 3.19252 -2.00894 0
M  V30 3587 H 343.867 2.72415 -1.13464 0
M  V30 3588 H 343.948 1.31107 -2.19647 0
M  V30 3589 H 343.592 2.83477 -4.2143 0
M  V30 3590 H 343.522 4.24057 -3.12223 0
M  V30 3591 H 346.013 2.78644 -2.55276 0
M  V30 3592 H 346.326 5.25716 -5.6643 0
M  V30 3593 H 344.671 4.733 -5.08933 0
M  V30 3594 H 347.862 3.39405 -3.22369 0
M  V30 3595 H 348.035 4.52089 -4.64241 0
M  V30 3596 N 341.441 0.965919 1.2453 0
M  V30 3597 C 342.371 0.513476 2.27784 0
M  V30 3598 C 343.352 -0.445974 1.6415 0
M  V30 3599 O 344.537 -0.342485 1.91156 0
M  V30 3600 C 341.667 -0.198839 3.4673 0
M  V30 3601 C 340.621 0.676456 4.2262 0
M  V30 3602 C 339.947 -0.167248 5.34438 0
M  V30 3603 C 341.247 1.96017 4.84123 0
M  V30 3604 H 342.941 1.3765 2.65881 0
M  V30 3605 H 340.487 0.663321 1.27813 0
M  V30 3606 H 342.44 -0.526567 4.18097 0
M  V30 3607 H 341.164 -1.0962 3.07654 0
M  V30 3608 H 339.823 0.98743 3.53052 0
M  V30 3609 H 339.471 -1.0647 4.91603 0
M  V30 3610 H 339.171 0.415181 5.86131 0
M  V30 3611 H 340.695 -0.489688 6.08633 0
M  V30 3612 H 342.109 1.69814 5.47573 0
M  V30 3613 H 340.506 2.48918 5.4604 0
M  V30 3614 H 341.576 2.65622 4.05676 0
M  V30 3615 N 342.919 -1.39368 0.735821 0
M  V30 3616 C 343.851 -2.2913 0.0567723 0
M  V30 3617 C 344.864 -1.46859 -0.702589 0
M  V30 3618 O 346.053 -1.69925 -0.546616 0
M  V30 3619 C 343.153 -3.25492 -0.943823 0
M  V30 3620 C 342.326 -4.36709 -0.24581 0
M  V30 3621 C 341.385 -5.13376 -1.15463 0
M  V30 3622 O 340.411 -5.65683 -0.631803 0
M  V30 3623 N 341.613 -5.24656 -2.48427 0
M  V30 3624 H 344.378 -2.88047 0.827582 0
M  V30 3625 H 341.939 -1.50957 0.585112 0
M  V30 3626 H 343.931 -3.73657 -1.55443 0
M  V30 3627 H 342.501 -2.676 -1.61583 0
M  V30 3628 H 341.721 -3.9041 0.545286 0
M  V30 3629 H 343.009 -5.08244 0.237891 0
M  V30 3630 H 342.407 -4.83679 -2.93379 0
M  V30 3631 H 340.964 -5.76258 -3.04582 0
M  V30 3632 N 344.397 -0.483516 -1.5 0
M  V30 3633 C 345.813 -0.138404 -1.58999 0
M  V30 3634 C 346.013 1.35597 -1.4905 0
M  V30 3635 O 345.069 2.13039 -1.35539 0
M  V30 3636 C 346.382 -0.699658 -2.92447 0
M  V30 3637 C 347.93 -0.664195 -3.05872 0
M  V30 3638 C 348.405 -1.20321 -4.41913 0
M  V30 3639 N 349.896 -1.16315 -4.48358 0
M  V30 3640 C 350.631 -1.55058 -5.52037 0
M  V30 3641 N 350.127 -2.01311 -6.62907 0
M  V30 3642 N 351.92 -1.46584 -5.42651 0
M  V30 3643 H 344.071 -1.45529 -1.5471 0
M  V30 3644 H 346.334 -0.60258 -0.731848 0
M  V30 3645 H 346.04 -1.747 -3.05242 0
M  V30 3646 H 345.914 -0.150194 -3.76901 0
M  V30 3647 H 348.301 0.374272 -2.92717 0
M  V30 3648 H 348.382 -1.25061 -2.23144 0
M  V30 3649 H 348.026 -2.24037 -4.55818 0
M  V30 3650 H 347.956 -0.592896 -5.23252 0
M  V30 3651 H 350.447 -0.824058 -3.68806 0
M  V30 3652 H 350.76 -2.2899 -7.38095 0
M  V30 3653 H 349.105 -2.05273 -6.63994 0
M  V30 3654 H 352.296 -1.10281 -4.54924 0
M  V30 3655 H 352.469 -1.77103 -6.23329 0
M  V30 3656 N 345.875 1.56104 -0.216619 0
M  V30 3657 C 346.825 2.16703 0.708798 0
M  V30 3658 C 347.809 1.11392 1.16106 0
M  V30 3659 O 349.001 1.37395 1.11587 0
M  V30 3660 C 346.13 2.84666 1.91886 0
M  V30 3661 C 345.216 3.97195 1.48651 0
M  V30 3662 N 345.607 4.99959 0.766434 0
M  V30 3663 C 343.905 4.09193 1.77418 0
M  V30 3664 C 344.606 5.79126 0.546659 0
M  V30 3665 N 343.582 5.32315 1.10188 0
M  V30 3666 H 347.384 2.93516 0.150162 0
M  V30 3667 H 344.898 1.6239 -0.0176768 0
M  V30 3668 H 346.895 3.26486 2.59253 0
M  V30 3669 H 345.555 2.09347 2.48202 0
M  V30 3670 H 346.566 5.16197 0.419634 0
M  V30 3671 H 343.243 3.45021 2.35088 0
M  V30 3672 H 344.633 6.71895 -0.026103 0
M  V30 3673 N 347.353 -0.0568162 1.57498 0
M  V30 3674 C 348.764 -0.606858 1.76562 0
M  V30 3675 C 349.115 -1.77114 0.844094 0
M  V30 3676 O 348.24 -2.16376 0.0318911 0
M  V30 3677 C 348.835 -1.10766 3.20182 0
M  V30 3678 C 347.394 -1.60344 3.40539 0
M  V30 3679 C 346.541 -0.529311 2.72201 0
M  V30 3680 H 349.492 0.169393 1.57793 0
M  V30 3681 H 349.513 -1.97602 3.25167 0
M  V30 3682 H 349.025 -0.26006 3.87228 0
M  V30 3683 H 347.126 -2.47379 2.78629 0
M  V30 3684 H 347.239 -1.67006 4.4905 0
M  V30 3685 H 345.603 -0.977893 2.35179 0
M  V30 3686 H 346.386 0.308352 3.41912 0
M  V30 3687 N 348.832 -1.54138 -0.328536 0
M  V30 3688 C 350.248 -1.44736 -0.672574 0
M  V30 3689 C 350.448 -0.616217 -1.91846 0
M  V30 3690 O 349.504 -0.113067 -2.52247 0
M  V30 3691 C 350.817 -2.884 -0.851217 0
M  V30 3692 C 352.365 -2.98271 -0.948877 0
M  V30 3693 C 352.84 -4.43074 -1.15973 0
M  V30 3694 N 354.331 -4.46665 -1.22658 0
M  V30 3695 C 355.066 -5.55857 -1.40751 0
M  V30 3696 N 354.562 -6.75026 -1.5592 0
M  V30 3697 N 356.355 -5.43495 -1.4342 0
M  V30 3698 H 348.506 -2.06661 0.490421 0
M  V30 3699 H 350.769 -0.934812 0.157579 0
M  V30 3700 H 350.475 -3.51699 -0.00704236 0
M  V30 3701 H 350.349 -3.34225 -1.74853 0
M  V30 3702 H 352.736 -2.35102 -1.78356 0
M  V30 3703 H 352.817 -2.55785 -0.0281435 0
M  V30 3704 H 352.461 -5.06827 -0.329915 0
M  V30 3705 H 352.391 -4.83165 -2.09426 0
M  V30 3706 H 354.882 -3.60797 -1.124 0
M  V30 3707 H 355.195 -7.54004 -1.69404 0
M  V30 3708 H 353.54 -6.77944 -1.53027 0
M  V30 3709 H 356.731 -4.49349 -1.31162 0
M  V30 3710 H 356.904 -6.28649 -1.57178 0
M  V30 3711 N 350.31 0.590341 -1.46126 0
M  V30 3712 C 351.535 1.37991 -1.54833 0
M  V30 3713 C 351.96 1.87163 -0.187506 0
M  V30 3714 O 351.318 1.61133 0.831008 0
M  V30 3715 C 351.366 2.54867 -2.55098 0
M  V30 3716 O 350.47 3.56061 -2.08073 0
M  V30 3717 H 349.811 0.411265 -0.521303 0
M  V30 3718 H 352.341 0.716819 -1.91632 0
M  V30 3719 H 352.351 3.01886 -2.74461 0
M  V30 3720 H 351.026 2.18429 -3.53923 0
M  V30 3721 H 349.603 3.15574 -1.98664 0
M  V30 3722 N 351.788 1.33704 0.83433 0
M  V30 3723 C 353.028 1.26754 1.60352 0
M  V30 3724 C 353.392 -0.163182 1.91305 0
M  V30 3725 O 354.593 -0.3567 2.66423 0
M  V30 3726 C 352.864 2.12262 2.8754 0
M  V30 3727 S 354.423 2.22549 3.78176 0
M  V30 3728 H 351.241 0.450879 0.549753 0
M  V30 3729 H 353.843 1.68788 0.986444 0
M  V30 3730 H 352.547 3.15238 2.62779 0
M  V30 3731 H 352.078 1.71082 3.54252 0
M  V30 3732 H 354.093 1.3899 4.76336 0
M  V30 3733 N 353.266 -1.05314 1.17247 0
M  V30 3734 C 354.494 -1.81971 0.984593 0
M  V30 3735 C 354.909 -1.82929 -0.467166 0
M  V30 3736 O 354.266 -1.25564 -1.32438 0
M  V30 3737 C 354.317 -3.28143 1.51672 0
M  V30 3738 O 354.038 -3.27347 2.91163 0
M  V30 3739 C 355.539 -4.21493 1.37326 0
M  V30 3740 H 352.759 -0.573455 0.348411 0
M  V30 3741 H 355.303 -1.32808 1.55506 0
M  V30 3742 H 353.458 -3.74582 0.988302 0
M  V30 3743 H 353.872 -4.18824 3.15732 0
M  V30 3744 H 355.346 -5.22043 1.79375 0
M  V30 3745 H 355.823 -4.38031 0.320169 0
M  V30 3746 H 356.429 -3.80909 1.89178 0
M  V30 3747 N 354.744 -0.972509 -1.24016 0
M  V30 3748 C 356.16 -0.679827 -1.44397 0
M  V30 3749 C 356.36 0.756716 -1.86751 0
M  V30 3750 O 355.416 1.53007 -2.00861 0
M  V30 3751 C 356.729 -1.66803 -2.50195 0
M  V30 3752 C 358.277 -1.68119 -2.64017 0
M  V30 3753 C 358.752 -2.65748 -3.73017 0
M  V30 3754 N 360.243 -2.64219 -3.8045 0
M  V30 3755 C 360.978 -3.36433 -4.64328 0
M  V30 3756 N 360.474 -4.1818 -5.52356 0
M  V30 3757 N 362.267 -3.25235 -4.58453 0
M  V30 3758 H 354.418 -1.90059 -0.948228 0
M  V30 3759 H 356.681 -0.818527 -0.478245 0
M  V30 3760 H 356.387 -2.69498 -2.25973 0
M  V30 3761 H 356.261 -1.4446 -3.48441 0
M  V30 3762 H 358.648 -0.661319 -2.87594 0
M  V30 3763 H 358.729 -1.94525 -1.66113 0
M  V30 3764 H 358.373 -3.67872 -3.50189 0
M  V30 3765 H 358.303 -2.36619 -4.70446 0
M  V30 3766 H 360.794 -2.04887 -3.17537 0
M  V30 3767 H 361.107 -4.70157 -6.13329 0
M  V30 3768 H 359.452 -4.22273 -5.52006 0
M  V30 3769 H 362.643 -2.60829 -3.88698 0
M  V30 3770 H 362.816 -3.81776 -5.23594 0
M  V30 3771 N 356.222 1.38976 -0.743202 0
M  V30 3772 C 357.499 1.94351 -0.220705 0
M  V30 3773 C 357.879 1.67935 1.2791 0
M  V30 3774 O 357.227 1.01211 2.04862 0
M  V30 3775 C 357.437 3.44426 -0.563171 0
M  V30 3776 C 358.785 4.2144 -0.517046 0
M  V30 3777 O 359.809 3.52661 -0.500846 0
M  V30 3778 O 358.668 5.44032 -0.518806 0
M  V30 3779 H 355.762 0.825879 -0.043047 0
M  V30 3780 H 358.308 1.48429 -0.822618 0
M  V30 3781 H 357.08 3.5712 -1.59941 0
M  V30 3782 H 356.703 3.97543 0.0672883 0
M  V30 3783 N 357.7 0.491464 1.49741 0
M  V30 3784 C 358.94 -0.0549118 2.04326 0
M  V30 3785 C 359.304 -1.35148 1.36378 0
M  V30 3786 O 360.505 -1.9815 1.81631 0
M  V30 3787 C 358.776 -0.213841 3.5676 0
M  V30 3788 S 360.335 -0.715839 4.32922 0
M  V30 3789 H 357.153 -0.00630513 0.710972 0
M  V30 3790 H 359.755 0.663257 1.83905 0
M  V30 3791 H 358.459 0.73527 4.0376 0
M  V30 3792 H 357.99 -0.957529 3.81569 0
M  V30 3793 H 360.005 -1.9864 4.54705 0
M  V30 3794 N 359.178 -1.55987 0.224894 0
M  V30 3795 C 360.141 -2.19178 -0.670348 0
M  V30 3796 C 361.141 -1.15461 -1.11917 0
M  V30 3797 O 362.331 -1.40675 -1.02743 0
M  V30 3798 C 359.463 -2.81777 -1.9187 0
M  V30 3799 H 360.656 -2.99662 -0.119364 0
M  V30 3800 H 358.209 -1.5628 -0.0247128 0
M  V30 3801 H 358.944 -2.05172 -2.51147 0
M  V30 3802 H 358.729 -3.57732 -1.60531 0
M  V30 3803 H 360.219 -3.30205 -2.55645 0
M  V30 3804 N 360.656 0.0484629 -1.57525 0
M  V30 3805 C 361.566 1.07241 -2.08654 0
M  V30 3806 C 362.582 1.409 -1.02095 0
M  V30 3807 O 363.758 1.50609 -1.33712 0
M  V30 3808 C 360.823 2.36008 -2.5397 0
M  V30 3809 C 359.884 2.09108 -3.7493 0
M  V30 3810 C 359.117 3.31736 -4.18075 0
M  V30 3811 O 359.34 4.41714 -3.60895 0
M  V30 3812 O 358.274 3.18576 -5.10679 0
M  V30 3813 H 362.1 0.667965 -2.96263 0
M  V30 3814 H 359.685 0.26417 -1.47046 0
M  V30 3815 H 361.567 3.11747 -2.83535 0
M  V30 3816 H 360.242 2.75786 -1.69481 0
M  V30 3817 H 359.149 1.31 -3.50414 0
M  V30 3818 H 360.482 1.74198 -4.60343 0
M  V30 3819 N 362.134 1.5431 0.320358 0
M  V30 3820 C 363.545 1.63872 0.894594 0
M  V30 3821 C 363.896 0.534847 1.88769 0
M  V30 3822 O 363.021 -0.331732 2.13842 0
M  V30 3823 C 363.616 2.97049 1.62934 0
M  V30 3824 C 362.175 3.08796 2.15226 0
M  V30 3825 C 361.322 2.59456 0.978671 0
M  V30 3826 H 364.273 1.58398 0.0978544 0
M  V30 3827 H 364.294 2.87388 2.49376 0
M  V30 3828 H 363.806 3.7737 0.906302 0
M  V30 3829 H 361.907 2.33156 2.90636 0
M  V30 3830 H 362.02 4.14649 2.40006 0
M  V30 3831 H 360.384 2.1543 1.35875 0
M  V30 3832 H 361.167 3.42237 0.269895 0
M  V30 3833 N 363.613 -0.582584 1.46437 0
M  V30 3834 C 365.029 -0.905962 1.31394 0
M  V30 3835 C 365.229 -1.99468 0.285476 0
M  V30 3836 O 364.285 -2.50566 -0.311914 0
M  V30 3837 C 365.598 -1.3232 2.70022 0
M  V30 3838 C 367.146 -1.43604 2.78113 0
M  V30 3839 C 367.621 -1.88694 4.17323 0
M  V30 3840 N 369.112 -1.95887 4.19741 0
M  V30 3841 C 369.847 -2.32051 5.24347 0
M  V30 3842 N 369.343 -2.67006 6.39281 0
M  V30 3843 N 371.136 -2.32606 5.11713 0
M  V30 3844 H 363.287 0.1366 2.1196 0
M  V30 3845 H 365.55 -0.00155736 0.947999 0
M  V30 3846 H 365.256 -0.597242 3.46592 0
M  V30 3847 H 365.13 -2.28469 3.00136 0
M  V30 3848 H 367.517 -2.15286 2.01832 0
M  V30 3849 H 367.598 -0.457059 2.51684 0
M  V30 3850 H 367.242 -1.1759 4.941 0
M  V30 3851 H 367.172 -2.8755 4.4116 0
M  V30 3852 H 369.663 -1.71362 3.36814 0
M  V30 3853 H 369.976 -2.93554 7.14875 0
M  V30 3854 H 368.321 -2.64644 6.42642 0
M  V30 3855 H 371.512 -2.04721 4.2096 0
M  V30 3856 H 371.685 -2.60462 5.93349 0
M  V30 3857 N 365.091 -1.34144 -0.827227 0
M  V30 3858 C 366.054 -1.25264 -1.91942 0
M  V30 3859 C 367.054 -0.168866 -1.59911 0
M  V30 3860 O 368.244 -0.421198 -1.69031 0
M  V30 3861 C 365.376 -0.932952 -3.27885 0
M  V30 3862 H 366.569 -2.22357 -2.0124 0
M  V30 3863 H 364.122 -1.1837 -1.0207 0
M  V30 3864 H 364.857 0.0349917 -3.24281 0
M  V30 3865 H 364.642 -1.71682 -3.52516 0
M  V30 3866 H 366.132 -0.895874 -4.07877 0
M  V30 3867 N 366.569 1.04691 -1.17803 0
M  V30 3868 C 367.846 1.7472 -0.879328 0
M  V30 3869 C 368.226 2.01812 0.619271 0
M  V30 3870 O 367.574 1.65824 1.57209 0
M  V30 3871 C 367.784 3.03686 -1.71976 0
M  V30 3872 C 369.132 3.77542 -1.94286 0
M  V30 3873 O 370.156 3.13569 -1.68976 0
M  V30 3874 O 369.015 4.92506 -2.36855 0
M  V30 3875 H 366.109 0.760011 -0.326056 0
M  V30 3876 H 368.655 1.10813 -1.28525 0
M  V30 3877 H 367.427 2.79754 -2.73594 0
M  V30 3878 H 367.05 3.75332 -1.31194 0
M  V30 3879 N 368.047 0.979072 1.23499 0
M  V30 3880 C 369.295 0.645941 1.91499 0
M  V30 3881 C 369.616 -0.822948 1.76784 0
M  V30 3882 O 368.886 -1.58854 1.14639 0
M  V30 3883 H 367.466 0.235919 0.708767 0
M  V30 3884 H 370.128 1.2426 1.50152 0
M  V30 3885 H 369.224 0.896411 2.9895 0
M  V30 3886 N 369.525 -1.3858 0.750561 0
M  V30 3887 C 370.941 -1.53759 0.427824 0
M  V30 3888 C 371.141 -1.71401 -1.05943 0
M  V30 3889 O 370.197 -1.72331 -1.84549 0
M  V30 3890 C 371.51 -2.74642 1.22443 0
M  V30 3891 C 373.058 -2.88489 1.2142 0
M  V30 3892 C 373.533 -4.12329 1.9937 0
M  V30 3893 N 375.024 -4.194 1.96616 0
M  V30 3894 C 375.759 -5.14209 2.53727 0
M  V30 3895 N 375.255 -6.14709 3.19539 0
M  V30 3896 N 377.048 -5.06537 2.43673 0
M  V30 3897 H 369.199 -1.25377 1.71447 0
M  V30 3898 H 371.462 -0.608844 0.726645 0
M  V30 3899 H 371.168 -2.68 2.27747 0
M  V30 3900 H 371.042 -3.67745 0.839273 0
M  V30 3901 H 373.429 -2.94614 0.169232 0
M  V30 3902 H 373.51 -1.96406 1.63885 0
M  V30 3903 H 373.154 -4.06966 3.03877 0
M  V30 3904 H 373.084 -5.03486 1.54302 0
M  V30 3905 H 375.575 -3.47421 1.48684 0
M  V30 3906 H 375.888 -6.8354 3.60545 0
M  V30 3907 H 374.233 -6.1505 3.23633 0
M  V30 3908 H 377.424 -4.26962 1.91889 0
M  V30 3909 H 377.597 -5.80245 2.88479 0
M  V30 3910 N 371.003 -0.499398 -1.49478 0
M  V30 3911 C 371.913 0.284489 -2.32869 0
M  V30 3912 C 372.929 0.968885 -1.44529 0
M  V30 3913 O 374.105 0.95062 -1.77553 0
M  V30 3914 C 371.17 1.33594 -3.19928 0
M  V30 3915 C 370.231 0.665149 -4.24116 0
M  V30 3916 C 369.464 1.6665 -5.07014 0
M  V30 3917 O 369.687 2.89618 -4.91404 0
M  V30 3918 O 368.621 1.22271 -5.8935 0
M  V30 3919 H 372.447 -0.39802 -3.01081 0
M  V30 3920 H 370.032 -0.260758 -1.47107 0
M  V30 3921 H 371.914 1.94431 -3.73864 0
M  V30 3922 H 370.589 2.0014 -2.54412 0
M  V30 3923 H 369.496 0.0170769 -3.74096 0
M  V30 3924 H 370.829 0.0421555 -4.92182 0
M  V30 3925 N 372.481 1.55866 -0.233164 0
M  V30 3926 C 373.444 2.1953 0.658715 0
M  V30 3927 C 374.444 1.16053 1.11303 0
M  V30 3928 O 375.634 1.41218 1.01996 0
M  V30 3929 C 372.766 2.82791 1.90373 0
M  V30 3930 H 373.959 2.99721 0.10347 0
M  V30 3931 H 371.512 1.56291 0.0164245 0
M  V30 3932 H 372.247 2.06501 2.50056 0
M  V30 3933 H 372.032 3.58578 1.58632 0
M  V30 3934 H 373.522 3.31556 2.53891 0
M  V30 3935 N 373.959 -0.0401083 1.57549 0
M  V30 3936 C 375.184 -0.748931 1.93406 0
M  V30 3937 C 375.609 -1.68686 0.832274 0
M  V30 3938 O 374.967 -1.80047 -0.212818 0
M  V30 3939 C 375.015 -1.4916 3.28304 0
M  V30 3940 O 374.119 -2.6042 3.19774 0
M  V30 3941 H 373.46 -0.202212 0.63246 0
M  V30 3942 H 375.99 0.00112086 2.046 0
M  V30 3943 H 376 -1.86395 3.62934 0
M  V30 3944 H 374.675 -0.80364 4.08062 0
M  V30 3945 H 373.252 -2.25808 2.96758 0
M  V30 3946 N 375.437 -1.54477 -0.31217 0
M  V30 3947 C 376.848 -1.64344 -0.885891 0
M  V30 3948 C 377.199 -0.54485 -1.88483 0
M  V30 3949 O 376.324 0.320387 -2.14015 0
M  V30 3950 C 376.919 -2.97908 -1.61357 0
M  V30 3951 C 375.478 -3.09933 -2.13585 0
M  V30 3952 C 374.625 -2.59971 -0.964897 0
M  V30 3953 H 377.576 -1.58448 -0.0894528 0
M  V30 3954 H 377.597 -2.88706 -2.47848 0
M  V30 3955 H 377.109 -3.77845 -0.886277 0
M  V30 3956 H 375.21 -2.34694 -2.89395 0
M  V30 3957 H 375.323 -4.15916 -2.37804 0
M  V30 3958 H 373.687 -2.16147 -1.34731 0
M  V30 3959 H 374.47 -3.42376 -0.251742 0
M  V30 3960 N 376.915 0.57481 -1.46744 0
M  V30 3961 C 377.847 1.69804 -1.53946 0
M  V30 3962 C 378.86 1.57098 -0.427106 0
M  V30 3963 O 380.049 1.64378 -0.695863 0
M  V30 3964 C 377.149 3.08125 -1.4111 0
M  V30 3965 C 376.322 3.46757 -2.66605 0
M  V30 3966 C 375.381 4.6417 -2.47855 0
M  V30 3967 O 374.407 4.69634 -3.21609 0
M  V30 3968 N 375.609 5.59553 -1.54534 0
M  V30 3969 H 378.374 1.64077 -2.50796 0
M  V30 3970 H 375.935 0.761 -1.429 0
M  V30 3971 H 377.927 3.84478 -1.26328 0
M  V30 3972 H 376.497 3.08175 -0.524109 0
M  V30 3973 H 375.717 2.6003 -2.96274 0
M  V30 3974 H 377.005 3.69337 -3.49954 0
M  V30 3975 H 376.403 5.57881 -0.937304 0
M  V30 3976 H 374.96 6.35304 -1.45711 0
M  V30 3977 N 378.394 1.34581 0.820102 0
M  V30 3978 C 379.805 1.24298 1.39309 0
M  V30 3979 C 380.156 -0.130351 1.95767 0
M  V30 3980 O 379.281 -1.0308 1.90272 0
M  V30 3981 C 379.876 2.25054 2.53251 0
M  V30 3982 C 378.435 2.18552 3.0645 0
M  V30 3983 C 377.582 2.11503 1.79337 0
M  V30 3984 H 380.533 1.45906 0.624262 0
M  V30 3985 H 380.554 1.86917 3.31425 0
M  V30 3986 H 380.066 3.24996 2.1213 0
M  V30 3987 H 378.167 1.21976 3.52069 0
M  V30 3988 H 378.28 3.0993 3.65349 0
M  V30 3989 H 376.644 1.57268 2.00347 0
M  V30 3990 H 377.427 3.13284 1.40386 0
M  V30 3991 N 379.872 -1.04064 1.18357 0
M  V30 3992 C 380.802 -2.14001 0.934113 0
M  V30 3993 C 381.783 -1.69616 -0.128186 0
M  V30 3994 O 382.968 -1.94185 0.0244093 0
M  V30 3995 C 380.098 -3.44253 0.459066 0
M  V30 3996 C 379.052 -4.02261 1.46185 0
M  V30 3997 C 378.378 -5.27992 0.844322 0
M  V30 3998 C 379.678 -4.38432 2.83856 0
M  V30 3999 H 381.372 -2.35127 1.85352 0
M  V30 4000 H 378.918 -1.12998 0.892604 0
M  V30 4001 H 380.871 -4.20522 0.271907 0
M  V30 4002 H 379.595 -3.22813 -0.495912 0
M  V30 4003 H 378.254 -3.28074 1.63595 0
M  V30 4004 H 377.902 -5.02862 -0.117845 0
M  V30 4005 H 377.602 -5.67765 1.51384 0
M  V30 4006 H 379.126 -6.06938 0.667693 0
M  V30 4007 H 380.54 -5.05688 2.70098 0
M  V30 4008 H 378.937 -4.89254 3.47491 0
M  V30 4009 H 380.007 -3.4826 3.37406 0
M  V30 4010 N 381.35 -0.985608 -1.22978 0
M  V30 4011 C 382.26 -0.538548 -2.28335 0
M  V30 4012 C 383.276 0.409163 -1.69121 0
M  V30 4013 O 384.452 0.277797 -1.99475 0
M  V30 4014 C 381.517 0.146867 -3.46389 0
M  V30 4015 C 380.578 -0.842896 -4.20944 0
M  V30 4016 C 379.811 -0.190095 -5.33361 0
M  V30 4017 O 380.034 1.01767 -5.61248 0
M  V30 4018 O 378.968 -0.891289 -5.95264 0
M  V30 4019 H 382.794 -1.41487 -2.68729 0
M  V30 4020 H 380.379 -0.753495 -1.29007 0
M  V30 4021 H 382.261 0.531125 -4.1804 0
M  V30 4022 H 380.936 0.997871 -3.07935 0
M  V30 4023 H 379.843 -1.27795 -3.51595 0
M  V30 4024 H 381.176 -1.66287 -4.6326 0
M  V30 4025 N 382.828 1.3818 -0.7579 0
M  V30 4026 C 383.738 2.3421 -0.135247 0
M  V30 4027 C 384.754 1.59487 0.695683 0
M  V30 4028 O 385.93 1.91657 0.618832 0
M  V30 4029 C 382.995 3.3862 0.744139 0
M  V30 4030 C 382.056 4.2918 -0.101658 0
M  V30 4031 C 381.289 5.28603 0.735851 0
M  V30 4032 O 381.512 5.35166 1.97366 0
M  V30 4033 O 380.446 6.01707 0.152372 0
M  V30 4034 H 384.272 2.8916 -0.928436 0
M  V30 4035 H 381.857 1.40101 -0.518855 0
M  V30 4036 H 383.739 4.02539 1.2466 0
M  V30 4037 H 382.414 2.86019 1.51575 0
M  V30 4038 H 381.321 3.68407 -0.650167 0
M  V30 4039 H 382.654 4.85048 -0.836024 0
M  V30 4040 N 384.306 0.507319 1.49211 0
M  V30 4041 C 385.236 -0.256939 2.32082 0
M  V30 4042 C 386.217 -0.956609 1.40652 0
M  V30 4043 O 387.402 -0.946788 1.69557 0
M  V30 4044 C 384.532 -1.31802 3.21318 0
M  V30 4045 C 383.486 -0.737855 4.21592 0
M  V30 4046 C 382.812 -1.89992 4.99807 0
M  V30 4047 C 384.112 0.275325 5.21574 0
M  V30 4048 H 385.806 0.434798 2.96226 0
M  V30 4049 H 383.352 0.210546 1.42452 0
M  V30 4050 H 385.305 -1.86045 3.78107 0
M  V30 4051 H 384.029 -2.03903 2.5513 0
M  V30 4052 H 382.688 -0.217126 3.65956 0
M  V30 4053 H 382.336 -2.60877 4.30061 0
M  V30 4054 H 382.036 -1.51777 5.6766 0
M  V30 4055 H 383.56 -2.44657 5.59442 0
M  V30 4056 H 384.974 -0.179193 5.7302 0
M  V30 4057 H 383.371 0.573649 5.97352 0
M  V30 4058 H 384.441 1.18903 4.70096 0
M  V30 4059 N 385.784 -1.5574 0.241426 0
M  V30 4060 C 387.061 -1.90704 -0.434881 0
M  V30 4061 C 387.441 -1.16145 -1.76277 0
M  V30 4062 O 386.789 -0.277152 -2.26813 0
M  V30 4063 C 386.999 -3.43657 -0.608343 0
M  V30 4064 C 388.347 -4.14806 -0.906725 0
M  V30 4065 O 389.371 -3.49366 -0.694408 0
M  V30 4066 O 388.23 -5.30548 -1.31075 0
M  V30 4067 H 385.324 -0.793592 -0.23268 0
M  V30 4068 H 387.87 -1.67288 0.285086 0
M  V30 4069 H 386.642 -3.89927 0.327505 0
M  V30 4070 H 386.265 -3.72918 -1.37906 0
M  V30 4071 N 387.262 0.0317525 -1.57568 0
M  V30 4072 C 388.212 1.04101 -2.02847 0
M  V30 4073 C 389.196 1.3219 -0.917317 0
M  V30 4074 O 390.388 1.31819 -1.18121 0
M  V30 4075 C 387.517 2.34295 -2.5092 0
M  V30 4076 C 386.603 2.09308 -3.68851 0
M  V30 4077 N 386.994 1.5437 -4.81667 0
M  V30 4078 C 385.292 2.39604 -3.76172 0
M  V30 4079 C 385.993 1.45126 -5.63306 0
M  V30 4080 N 384.969 1.92589 -5.08341 0
M  V30 4081 H 388.771 0.610217 -2.87495 0
M  V30 4082 H 386.285 0.238108 -1.60645 0
M  V30 4083 H 388.282 3.07404 -2.81617 0
M  V30 4084 H 386.942 2.78055 -1.67677 0
M  V30 4085 H 387.953 1.22678 -5.03161 0
M  V30 4086 H 384.63 2.86457 -3.03724 0
M  V30 4087 H 386.02 1.03163 -6.63933 0
M  V30 4088 N 388.74 1.54641 0.303973 0
M  V30 4089 C 389.67 1.88386 1.3796 0
M  V30 4090 C 390.651 0.742485 1.5304 0
M  V30 4091 O 391.836 0.997959 1.66597 0
M  V30 4092 C 388.966 2.12854 2.74427 0
M  V30 4093 C 387.92 3.28702 2.74115 0
M  V30 4094 C 387.246 3.38582 4.13844 0
M  V30 4095 C 388.546 4.65881 2.3612 0
M  V30 4096 H 390.24 2.78474 1.09966 0
M  V30 4097 H 387.786 1.33988 0.527556 0
M  V30 4098 H 389.739 2.35047 3.49758 0
M  V30 4099 H 388.463 1.19535 3.03939 0
M  V30 4100 H 387.122 3.06428 2.0124 0
M  V30 4101 H 386.77 2.42784 4.40528 0
M  V30 4102 H 386.47 4.16453 4.14537 0
M  V30 4103 H 387.994 3.63031 4.90959 0
M  V30 4104 H 389.408 4.87823 3.01167 0
M  V30 4105 H 387.805 5.46444 2.48031 0
M  V30 4106 H 388.875 4.66799 1.3125 0
M  V30 4107 N 390.218 -0.567019 1.47046 0
M  V30 4108 C 391.148 -1.68482 1.61667 0
M  V30 4109 C 392.129 -1.6358 0.466418 0
M  V30 4110 O 393.314 -1.81354 0.694574 0
M  V30 4111 C 390.444 -3.07124 1.62148 0
M  V30 4112 C 389.398 -3.26867 2.76301 0
M  V30 4113 C 388.724 -4.66196 2.61849 0
M  V30 4114 C 390.024 -3.13186 4.17986 0
M  V30 4115 H 391.718 -1.56502 2.5524 0
M  V30 4116 H 389.264 -0.751486 1.22836 0
M  V30 4117 H 391.217 -3.8516 1.70968 0
M  V30 4118 H 389.941 -3.2004 0.651287 0
M  V30 4119 H 388.6 -2.51237 2.66975 0
M  V30 4120 H 388.248 -4.75898 1.62879 0
M  V30 4121 H 387.948 -4.80356 3.38425 0
M  V30 4122 H 389.472 -5.46379 2.72584 0
M  V30 4123 H 390.886 -3.81049 4.2834 0
M  V30 4124 H 389.283 -3.3886 4.95272 0
M  V30 4125 H 390.353 -2.10057 4.3704 0
M  V30 4126 N 391.696 -1.35014 -0.812953 0
M  V30 4127 C 392.626 -1.30069 -1.93919 0
M  V30 4128 C 393.607 -0.176275 -1.69184 0
M  V30 4129 O 394.792 -0.370227 -1.90638 0
M  V30 4130 C 391.922 -1.06547 -3.30552 0
M  V30 4131 C 390.876 -2.15561 -3.69753 0
M  V30 4132 C 390.202 -1.77214 -5.04479 0
M  V30 4133 C 391.502 -3.57476 -3.808 0
M  V30 4134 H 393.196 -2.24303 -1.98314 0
M  V30 4135 H 390.742 -1.07977 -0.952736 0
M  V30 4136 H 392.695 -1.01729 -4.08937 0
M  V30 4137 H 391.419 -0.0875719 -3.26483 0
M  V30 4138 H 390.078 -2.19466 -2.9365 0
M  V30 4139 H 389.726 -0.780589 -4.96906 0
M  V30 4140 H 389.426 -2.50184 -5.31678 0
M  V30 4141 H 390.95 -1.7391 -5.8531 0
M  V30 4142 H 392.364 -3.55929 -4.4943 0
M  V30 4143 H 390.761 -4.29152 -4.19462 0
M  V30 4144 H 391.831 -3.94091 -2.82525 0
M  V30 4145 N 393.175 1.03435 -1.18907 0
M  V30 4146 C 394.105 2.13503 -0.945448 0
M  V30 4147 C 395.086 1.69682 0.119189 0
M  V30 4148 O 396.271 1.94169 -0.034707 0
M  V30 4149 C 393.401 3.44004 -0.477316 0
M  V30 4150 C 392.355 4.0148 -1.48316 0
M  V30 4151 C 391.681 5.27537 -0.872311 0
M  V30 4152 C 392.981 4.36921 -2.86177 0
M  V30 4153 H 394.675 2.34141 -1.86597 0
M  V30 4154 H 392.221 1.12523 -0.898584 0
M  V30 4155 H 394.174 4.20372 -0.294204 0
M  V30 4156 H 392.898 3.23072 0.478786 0
M  V30 4157 H 391.557 3.27201 -1.65332 0
M  V30 4158 H 391.205 5.02917 0.0911752 0
M  V30 4159 H 390.905 5.66954 -1.54393 0
M  V30 4160 H 392.429 6.06576 -0.699871 0
M  V30 4161 H 393.843 5.04248 -2.72776 0
M  V30 4162 H 392.24 4.87405 -3.50081 0
M  V30 4163 H 393.31 3.46466 -3.39248 0
M  V30 4164 N 394.653 0.992116 1.22453 0
M  V30 4165 C 395.616 0.546883 2.2258 0
M  V30 4166 C 396.616 -0.369829 1.56489 0
M  V30 4167 O 397.806 -0.161896 1.73446 0
M  V30 4168 C 394.938 -0.204659 3.40285 0
M  V30 4169 H 396.131 1.43234 2.63484 0
M  V30 4170 H 393.684 0.779239 1.3549 0
M  V30 4171 H 394.419 -1.10614 3.04853 0
M  V30 4172 H 394.204 0.45354 3.89468 0
M  V30 4173 H 395.694 -0.504358 4.14543 0
M  V30 4174 N 396.131 -1.37776 0.765217 0
M  V30 4175 C 397.061 -2.32945 0.160953 0
M  V30 4176 C 398.042 -1.55454 -0.690516 0
M  V30 4177 O 399.227 -1.83721 -0.629318 0
M  V30 4178 C 396.357 -3.39669 -0.724031 0
M  V30 4179 C 395.311 -4.27992 0.0256173 0
M  V30 4180 C 394.637 -5.25673 -0.978383 0
M  V30 4181 C 395.937 -5.08309 1.20082 0
M  V30 4182 H 397.631 -2.83728 0.955969 0
M  V30 4183 H 395.177 -1.36416 0.461149 0
M  V30 4184 H 397.13 -4.05219 -1.15652 0
M  V30 4185 H 395.854 -2.87396 -1.5515 0
M  V30 4186 H 394.513 -3.63964 0.438812 0
M  V30 4187 H 394.161 -4.69682 -1.80022 0
M  V30 4188 H 393.861 -5.85625 -0.481378 0
M  V30 4189 H 395.385 -5.94098 -1.40995 0
M  V30 4190 H 396.799 -5.67034 0.845307 0
M  V30 4191 H 395.196 -5.77554 1.62947 0
M  V30 4192 H 396.266 -4.41365 2.00811 0
M  V30 4193 N 397.609 -0.515225 -1.4894 0
M  V30 4194 C 398.542 0.302518 -2.26186 0
M  V30 4195 C 399.52 0.957895 -1.31389 0
M  V30 4196 O 400.704 0.985198 -1.60705 0
M  V30 4197 C 397.831 1.42719 -3.07163 0
M  V30 4198 C 396.877 0.884736 -4.17223 0
M  V30 4199 S 397.71 -0.235767 -5.34981 0
M  V30 4200 C 398.866 0.891731 -6.19515 0
M  V30 4201 H 399.099 -0.353076 -2.95196 0
M  V30 4202 H 396.632 -0.300753 -1.51443 0
M  V30 4203 H 398.59 2.07152 -3.54398 0
M  V30 4204 H 397.251 2.05445 -2.37595 0
M  V30 4205 H 396.444 1.72801 -4.73451 0
M  V30 4206 H 396.046 0.317362 -3.72651 0
M  V30 4207 H 398.338 1.79377 -6.53322 0
M  V30 4208 H 399.281 0.367751 -7.07144 0
M  V30 4209 H 399.689 1.16548 -5.52338 0
M  V30 4210 N 399.087 1.5561 -0.249682 0
M  V30 4211 C 400.315 2.03411 0.378352 0
M  V30 4212 C 400.73 1.12886 1.51335 0
M  V30 4213 O 400.087 0.143833 1.81932 0
M  V30 4214 C 400.138 3.50537 0.88351 0
M  V30 4215 O 399.859 4.37614 -0.20626 0
M  V30 4216 C 401.36 4.14113 1.58195 0
M  V30 4217 H 398.58 0.664994 0.08958 0
M  V30 4218 H 401.124 2.01044 -0.374357 0
M  V30 4219 H 399.279 3.5343 1.58639 0
M  V30 4220 H 399.693 5.24199 0.177782 0
M  V30 4221 H 401.167 5.18741 1.8871 0
M  V30 4222 H 401.644 3.60767 2.50487 0
M  V30 4223 H 402.25 4.15151 0.923573 0
M  V30 4224 N 400.565 -0.0233959 1.57583 0
M  V30 4225 C 401.811 -0.714119 1.89811 0
M  V30 4226 C 402.144 -1.74702 0.848113 0
M  V30 4227 O 401.419 -1.94023 -0.136135 0
M  V30 4228 C 401.702 -1.37853 3.32669 0
M  V30 4229 C 401.555 -0.358764 4.48367 0
M  V30 4230 C 402.874 -2.31101 3.7454 0
M  V30 4231 H 399.993 -0.25814 0.690314 0
M  V30 4232 H 402.635 0.0230927 1.89986 0
M  V30 4233 H 400.785 -2.00689 3.3265 0
M  V30 4234 H 402.457 0.268115 4.6052 0
M  V30 4235 H 400.7 0.321387 4.32608 0
M  V30 4236 H 401.371 -0.862242 5.45224 0
M  V30 4237 H 403.847 -1.78304 3.75961 0
M  V30 4238 H 402.723 -2.74567 4.75294 0
M  V30 4239 H 402.984 -3.18018 3.0711 0
M  V30 4240 N 402.043 -1.548 -0.295768 0
M  V30 4241 C 402.973 -1.89115 -1.36959 0
M  V30 4242 C 403.954 -0.75059 -1.52644 0
M  V30 4243 O 405.139 -1.00678 -1.66065 0
M  V30 4244 C 402.269 -2.14307 -2.73295 0
M  V30 4245 C 401.223 -3.30151 -2.72368 0
M  V30 4246 C 400.549 -3.40772 -4.12042 0
M  V30 4247 C 401.849 -4.67126 -2.33646 0
M  V30 4248 H 403.543 -2.79053 -1.08488 0
M  V30 4249 H 401.089 -1.34266 -0.520443 0
M  V30 4250 H 403.042 -2.36898 -3.48507 0
M  V30 4251 H 401.766 -1.21145 -3.03301 0
M  V30 4252 H 400.425 -3.0749 -1.99613 0
M  V30 4253 H 400.073 -2.45117 -4.39234 0
M  V30 4254 H 399.773 -4.18645 -4.12322 0
M  V30 4255 H 401.297 -3.6563 -4.89027 0
M  V30 4256 H 402.711 -4.89414 -2.98575 0
M  V30 4257 H 401.108 -5.47751 -2.45129 0
M  V30 4258 H 402.178 -4.67489 -1.28772 0
M  V30 4259 N 403.521 0.559213 -1.47345 0
M  V30 4260 C 404.768 1.31648 -1.53867 0
M  V30 4261 C 405.096 1.93468 -0.200104 0
M  V30 4262 O 404.351 1.78295 0.806799 0
M  V30 4263 C 404.65 2.44853 -2.6035 0
M  V30 4264 C 404.316 2.00876 -4.03683 0
M  V30 4265 C 402.978 1.88599 -4.42701 0
M  V30 4266 C 405.33 1.67279 -4.93626 0
M  V30 4267 C 402.658 1.41017 -5.69501 0
M  V30 4268 C 405.01 1.21169 -6.20887 0
M  V30 4269 C 403.674 1.07487 -6.58789 0
M  V30 4270 H 402.944 0.481734 -0.56304 0
M  V30 4271 H 405.591 0.627301 -1.80934 0
M  V30 4272 H 403.896 3.19318 -2.27032 0
M  V30 4273 H 405.593 3.03039 -2.62619 0
M  V30 4274 H 402.183 2.11374 -3.72853 0
M  V30 4275 H 406.367 1.75638 -4.64182 0
M  V30 4276 H 401.623 1.29086 -5.97618 0
M  V30 4277 H 405.797 0.942345 -6.89995 0
M  V30 4278 H 403.424 0.703946 -7.56934 0
M  V30 4279 N 404.999 1.35443 0.805782 0
M  V30 4280 C 406.227 1.31878 1.59423 0
M  V30 4281 C 406.642 -0.103562 1.88516 0
M  V30 4282 O 405.999 -1.05575 1.48863 0
M  V30 4283 C 406.05 2.12426 2.92502 0
M  V30 4284 O 405.771 3.49115 2.6467 0
M  V30 4285 C 407.272 2.16455 3.86862 0
M  V30 4286 H 404.492 0.453002 0.495005 0
M  V30 4287 H 407.036 1.78309 1.00131 0
M  V30 4288 H 405.191 1.69593 3.48306 0
M  V30 4289 H 405.605 3.90957 3.49647 0
M  V30 4290 H 407.079 2.77204 4.77349 0
M  V30 4291 H 407.556 1.16352 4.23508 0
M  V30 4292 H 408.162 2.59453 3.36993 0
M  V30 4293 N 406.477 -1.02803 1.19454 0
M  V30 4294 C 407.41 -2.107 0.876396 0
M  V30 4295 C 408.388 -1.61741 -0.166897 0
M  V30 4296 O 409.572 -1.88451 -0.0430195 0
M  V30 4297 C 406.699 -3.37262 0.311758 0
M  V30 4298 C 405.745 -4.05093 1.33424 0
M  V30 4299 S 406.578 -4.50498 2.89503 0
M  V30 4300 C 407.734 -5.80277 2.34584 0
M  V30 4301 H 407.967 -2.37362 1.79016 0
M  V30 4302 H 405.5 -1.15755 1.02177 0
M  V30 4303 H 407.458 -4.10499 -0.00748752 0
M  V30 4304 H 406.119 -3.08693 -0.58032 0
M  V30 4305 H 405.312 -4.9611 0.888302 0
M  V30 4306 H 404.914 -3.3803 1.60037 0
M  V30 4307 H 407.206 -6.54873 1.73633 0
M  V30 4308 H 408.149 -6.29651 3.23952 0
M  V30 4309 H 408.557 -5.3599 1.77131 0
M  V30 4310 N 407.956 -0.998596 -1.21925 0
M  V30 4311 C 409.196 -0.685948 -1.92546 0
M  V30 4312 C 409.56 0.768441 -1.75952 0
M  V30 4313 O 410.761 1.19277 -2.40887 0
M  V30 4314 C 409.032 -1.08767 -3.40448 0
M  V30 4315 S 410.591 -0.894251 -4.29591 0
M  V30 4316 H 407.409 -0.250622 -0.665364 0
M  V30 4317 H 410.011 -1.28207 -1.47591 0
M  V30 4318 H 408.715 -2.14242 -3.50041 0
M  V30 4319 H 408.246 -0.48357 -3.90417 0
M  V30 4320 H 410.261 0.212149 -4.95746 0
M  V30 4321 N 409.434 1.37368 -0.772513 0
M  V30 4322 C 410.659 2.0447 -0.347386 0
M  V30 4323 C 411.084 1.57882 1.0225 0
M  V30 4324 O 410.442 0.73941 1.65537 0
M  V30 4325 C 410.49 3.58369 -0.400479 0
M  V30 4326 O 409.594 4.0803 0.598789 0
M  V30 4327 H 408.935 0.646773 -0.15027 0
M  V30 4328 H 411.465 1.75667 -1.04892 0
M  V30 4329 H 411.475 4.07183 -0.258045 0
M  V30 4330 H 410.15 3.91633 -1.39986 0
M  V30 4331 H 408.727 3.70534 0.419411 0
M  V30 4332 N 410.912 0.523116 1.48665 0
M  V30 4333 C 411.842 -0.23231 2.32342 0
M  V30 4334 C 412.823 -0.941637 1.41659 0
M  V30 4335 O 414.008 -0.928751 1.70552 0
M  V30 4336 C 411.138 -1.28387 3.22698 0
M  V30 4337 C 410.092 -0.693098 4.22351 0
M  V30 4338 C 409.418 -1.8468 5.01794 0
M  V30 4339 C 410.718 0.33063 5.21252 0
M  V30 4340 H 412.412 0.466192 2.95748 0
M  V30 4341 H 409.958 0.225643 1.42221 0
M  V30 4342 H 411.911 -1.82024 3.80059 0
M  V30 4343 H 410.635 -2.01186 2.57278 0
M  V30 4344 H 409.294 -0.178299 3.66166 0
M  V30 4345 H 408.942 -2.56301 4.32804 0
M  V30 4346 H 408.642 -1.45747 5.69238 0
M  V30 4347 H 410.166 -2.38709 5.62006 0
M  V30 4348 H 411.58 -0.118407 5.73178 0
M  V30 4349 H 409.977 0.636974 5.9671 0
M  V30 4350 H 411.047 1.23883 4.68808 0
M  V30 4351 N 412.39 -1.55475 0.257931 0
M  V30 4352 C 413.801 -1.8511 -0.243135 0
M  V30 4353 C 414.152 -1.17986 -1.5676 0
M  V30 4354 O 413.277 -0.462102 -2.11409 0
M  V30 4355 C 413.872 -3.35826 -0.447929 0
M  V30 4356 C 412.431 -3.65647 -0.893245 0
M  V30 4357 C 411.578 -2.7729 0.0232965 0
M  V30 4358 H 414.529 -1.51261 0.480199 0
M  V30 4359 H 414.55 -3.58002 -1.28898 0
M  V30 4360 H 414.062 -3.84652 0.516196 0
M  V30 4361 H 412.163 -3.22308 -1.86945 0
M  V30 4362 H 412.276 -4.73312 -0.742469 0
M  V30 4363 H 410.64 -2.49942 -0.490021 0
M  V30 4364 H 411.423 -3.28926 0.982994 0
M  V30 4365 N 413.868 0.0150385 -1.57593 0
M  V30 4366 C 415.114 0.704043 -1.90187 0
M  V30 4367 C 415.447 1.74249 -0.857366 0
M  V30 4368 O 414.722 1.94092 0.125843 0
M  V30 4369 C 415.005 1.36087 -3.33395 0
M  V30 4370 C 414.858 0.334981 -4.48551 0
M  V30 4371 C 416.177 2.29112 -3.7576 0
M  V30 4372 H 413.296 0.254475 -0.691673 0
M  V30 4373 H 415.938 -0.0331678 -1.89971 0
M  V30 4374 H 414.088 1.98922 -3.3371 0
M  V30 4375 H 415.76 -0.292534 -4.60372 0
M  V30 4376 H 414.003 -0.344325 -4.32431 0
M  V30 4377 H 414.674 0.833316 -5.45674 0
M  V30 4378 H 417.15 1.76308 -3.76902 0
M  V30 4379 H 416.026 2.72043 -4.76743 0
M  V30 4380 H 416.287 3.16385 -3.08793 0
M  V30 4381 N 415.346 1.54954 0.287554 0
M  V30 4382 C 416.595 1.74081 1.01877 0
M  V30 4383 C 416.908 0.541135 1.87966 0
M  V30 4384 O 418.114 0.614491 2.64455 0
M  V30 4385 C 416.57 3.08042 1.86113 0
M  V30 4386 C 416.178 4.35531 1.04961 0
M  V30 4387 C 417.922 3.36523 2.58752 0
M  V30 4388 C 415.829 5.60538 1.88551 0
M  V30 4389 H 414.759 0.64884 0.384087 0
M  V30 4390 H 417.41 1.81426 0.275101 0
M  V30 4391 H 415.792 2.94696 2.64519 0
M  V30 4392 H 416.966 4.59751 0.31074 0
M  V30 4393 H 415.281 4.14085 0.43843 0
M  V30 4394 H 417.878 4.27122 3.21668 0
M  V30 4395 H 418.221 2.56 3.28283 0
M  V30 4396 H 418.754 3.50901 1.87386 0
M  V30 4397 H 415.493 6.43767 1.23466 0
M  V30 4398 H 415.013 5.40483 2.60074 0
M  V30 4399 H 416.692 5.98297 2.46273 0
M  V30 4400 N 416.824 -0.551391 1.4764 0
M  V30 4401 C 418.054 -1.33163 1.57959 0
M  V30 4402 C 418.462 -1.87785 0.23094 0
M  V30 4403 O 417.805 -1.65996 -0.786825 0
M  V30 4404 C 417.867 -2.53449 2.54958 0
M  V30 4405 C 417.531 -2.20071 4.00522 0
M  V30 4406 C 418.528 -1.77017 4.88836 0
M  V30 4407 C 416.213 -2.31252 4.45901 0
M  V30 4408 C 418.207 -1.4558 6.20552 0
M  V30 4409 C 415.894 -1.99427 5.77644 0
M  V30 4410 C 416.892 -1.56659 6.64791 0
M  V30 4411 O 416.58 -1.25242 7.94084 0
M  V30 4412 H 416.312 -0.412022 0.535923 0
M  V30 4413 H 418.866 -0.674186 1.9402 0
M  V30 4414 H 417.096 -3.22104 2.13976 0
M  V30 4415 H 418.785 -3.15523 2.55343 0
M  V30 4416 H 419.551 -1.67867 4.55023 0
M  V30 4417 H 415.43 -2.63498 3.78272 0
M  V30 4418 H 418.974 -1.12125 6.8853 0
M  V30 4419 H 414.871 -2.08211 6.10998 0
M  V30 4420 H 415.639 -1.38822 8.06642 0
M  V30 4421 N 418.302 -1.35869 -0.798587 0
M  V30 4422 C 419.718 -1.16082 -1.09532 0
M  V30 4423 C 419.918 0.0213124 -2.01489 0
M  V30 4424 O 418.974 0.689488 -2.42904 0
M  V30 4425 C 420.287 -2.46748 -1.7186 0
M  V30 4426 C 421.835 -2.53028 -1.84244 0
M  V30 4427 C 422.31 -3.83758 -2.49988 0
M  V30 4428 N 423.801 -3.85053 -2.57465 0
M  V30 4429 C 424.536 -4.8294 -3.09122 0
M  V30 4430 N 424.032 -5.91217 -3.61157 0
M  V30 4431 N 425.825 -4.70369 -3.0775 0
M  V30 4432 H 417.976 -2.11571 -0.187461 0
M  V30 4433 H 420.239 -0.936726 -0.145765 0
M  V30 4434 H 419.945 -3.33471 -1.11759 0
M  V30 4435 H 419.819 -2.61883 -2.71472 0
M  V30 4436 H 422.206 -1.66729 -2.43486 0
M  V30 4437 H 422.287 -2.418 -0.834643 0
M  V30 4438 H 421.931 -4.70459 -1.91393 0
M  V30 4439 H 421.861 -3.92278 -3.5132 0
M  V30 4440 H 424.352 -3.06822 -2.20609 0
M  V30 4441 H 424.665 -6.61892 -3.98896 0
M  V30 4442 H 423.01 -5.94899 -3.59333 0
M  V30 4443 H 426.201 -3.84914 -2.66381 0
M  V30 4444 H 426.374 -5.46816 -3.47701 0
M  V30 4445 N 419.78 1.02168 -1.19998 0
M  V30 4446 C 420.743 2.08765 -0.94604 0
M  V30 4447 C 421.743 1.60618 0.0763846 0
M  V30 4448 O 422.933 1.73472 -0.159135 0
M  V30 4449 C 420.065 3.38262 -0.423255 0
M  V30 4450 H 421.258 2.32726 -1.89153 0
M  V30 4451 H 418.811 1.1889 -1.01464 0
M  V30 4452 H 419.546 3.19974 0.527938 0
M  V30 4453 H 419.331 3.74532 -1.16053 0
M  V30 4454 H 420.821 4.16759 -0.264911 0
M  V30 4455 N 421.258 1.00505 1.21394 0
M  V30 4456 C 422.488 0.705584 1.94178 0
M  V30 4457 C 422.896 -0.735846 1.74304 0
M  V30 4458 O 422.239 -1.50954 1.04683 0
M  V30 4459 C 422.301 0.94689 3.46806 0
M  V30 4460 C 421.965 2.37517 3.90429 0
M  V30 4461 C 422.962 3.35539 3.97127 0
M  V30 4462 C 420.647 2.71284 4.22742 0
M  V30 4463 C 422.641 4.65395 4.3553 0
M  V30 4464 C 420.328 4.01356 4.60822 0
M  V30 4465 C 421.326 4.98223 4.67186 0
M  V30 4466 O 421.014 6.25969 5.04399 0
M  V30 4467 H 420.746 0.259216 0.624326 0
M  V30 4468 H 423.3 1.34592 1.55159 0
M  V30 4469 H 421.53 0.249386 3.85895 0
M  V30 4470 H 423.219 0.640804 4.0081 0
M  V30 4471 H 423.985 3.10786 3.7234 0
M  V30 4472 H 419.864 1.96581 4.16985 0
M  V30 4473 H 423.408 5.41002 4.40412 0
M  V30 4474 H 419.305 4.25893 4.85063 0
M  V30 4475 H 420.073 6.30085 5.22431 0
M  V30 4476 N 422.737 -1.36956 0.779787 0
M  V30 4477 C 423.967 -2.03459 0.358877 0
M  V30 4478 C 424.375 -1.58939 -1.02641 0
M  V30 4479 O 423.718 -0.769777 -1.66794 0
M  V30 4480 C 423.78 -3.5796 0.332393 0
M  V30 4481 C 423.444 -4.25644 1.66362 0
M  V30 4482 C 424.441 -4.49205 2.61746 0
M  V30 4483 C 422.126 -4.63313 1.94027 0
M  V30 4484 C 424.12 -5.09503 3.82996 0
M  V30 4485 C 421.807 -5.2333 3.15546 0
M  V30 4486 C 422.805 -5.46363 4.0985 0
M  V30 4487 O 422.493 -6.05122 5.29228 0
M  V30 4488 H 422.225 -0.659767 0.147254 0
M  V30 4489 H 424.779 -1.76111 1.05708 0
M  V30 4490 H 423.009 -3.84388 -0.422237 0
M  V30 4491 H 424.698 -4.05852 -0.0625389 0
M  V30 4492 H 425.464 -4.20508 2.41657 0
M  V30 4493 H 421.343 -4.44715 1.21448 0
M  V30 4494 H 424.887 -5.27397 4.56617 0
M  V30 4495 H 420.784 -5.51451 3.35517 0
M  V30 4496 H 421.552 -6.23595 5.30161 0
M  V30 4497 N 424.215 -0.530993 -1.48385 0
M  V30 4498 C 425.463 0.00273189 -2.021 0
M  V30 4499 C 425.784 1.34672 -1.41027 0
M  V30 4500 O 425.054 1.8724 -0.576012 0
M  V30 4501 H 423.634 0.00399774 -0.746989 0
M  V30 4502 H 426.296 -0.695054 -1.82085 0
M  V30 4503 H 425.392 0.11031 -3.11905 0
M  V30 4504 N 425.693 1.55336 -0.266172 0
M  V30 4505 C 426.656 2.20878 0.612001 0
M  V30 4506 C 427.656 1.18388 1.08816 0
M  V30 4507 O 428.846 1.4335 0.989774 0
M  V30 4508 C 425.978 2.86765 1.84332 0
M  V30 4509 H 427.171 2.99873 0.0398718 0
M  V30 4510 H 424.724 1.56291 -0.0167309 0
M  V30 4511 H 425.459 2.11759 2.45619 0
M  V30 4512 H 425.244 3.61862 1.5099 0
M  V30 4513 H 426.734 3.36867 2.46801 0
M  V30 4514 N 427.171 -0.0066808 1.57599 0
M  V30 4515 C 428.418 -0.69292 1.90276 0
M  V30 4516 C 428.746 -1.74148 0.866192 0
M  V30 4517 O 428.001 -1.95268 -0.129933 0
M  V30 4518 C 428.3 -1.37939 3.29708 0
M  V30 4519 C 427.966 -0.464679 4.48499 0
M  V30 4520 C 426.628 -0.212809 4.80729 0
M  V30 4521 C 428.98 0.16551 5.20937 0
M  V30 4522 C 426.308 0.677653 5.82773 0
M  V30 4523 C 428.66 1.04381 6.23929 0
M  V30 4524 C 427.324 1.30492 6.54621 0
M  V30 4525 H 426.594 -0.253558 0.696268 0
M  V30 4526 H 429.241 0.0474123 1.91441 0
M  V30 4527 H 427.546 -2.1936 3.24636 0
M  V30 4528 H 429.243 -1.9163 3.52249 0
M  V30 4529 H 425.833 -0.671153 4.23313 0
M  V30 4530 H 430.017 -0.0160756 4.96297 0
M  V30 4531 H 425.273 0.88803 6.04917 0
M  V30 4532 H 429.447 1.53851 6.79193 0
M  V30 4533 H 427.074 1.99662 7.33512 0
M  V30 4534 N 428.649 -1.55105 -0.279332 0
M  V30 4535 C 429.596 -1.8755 -1.34513 0
M  V30 4536 C 430.566 -0.726384 -1.49375 0
M  V30 4537 O 431.751 -0.977063 -1.63884 0
M  V30 4538 C 428.891 -2.14738 -2.70151 0
M  V30 4539 C 428.004 -3.42285 -2.63562 0
M  V30 4540 C 427.139 -3.59206 -3.91337 0
M  V30 4541 C 426.178 -4.80467 -3.79233 0
M  V30 4542 N 425.315 -4.94079 -4.98829 0
M  V30 4543 H 430.155 -2.78456 -1.06143 0
M  V30 4544 H 427.692 -1.37867 -0.512936 0
M  V30 4545 H 429.65 -2.28501 -3.49061 0
M  V30 4546 H 428.28 -1.27075 -2.96735 0
M  V30 4547 H 427.332 -3.37029 -1.76397 0
M  V30 4548 H 428.644 -4.31328 -2.50515 0
M  V30 4549 H 427.798 -3.72751 -4.78687 0
M  V30 4550 H 426.537 -2.68337 -4.07243 0
M  V30 4551 H 425.542 -4.66932 -2.90266 0
M  V30 4552 H 426.767 -5.72765 -3.64852 0
M  V30 4553 H 424.713 -4.06139 -5.15158 0
M  V30 4554 H 424.63 -5.77156 -4.8829 0
M  V30 4555 H 425.898 -5.12003 -5.8777 0
M  V30 4556 N 430.127 0.543554 -1.4793 0
M  V30 4557 C 431.404 1.30458 -1.4574 0
M  V30 4558 C 431.784 2.1048 -0.161692 0
M  V30 4559 O 431.132 2.11831 0.856734 0
M  V30 4560 C 431.342 2.19754 -2.71126 0
M  V30 4561 C 432.69 2.80334 -3.18901 0
M  V30 4562 O 433.714 2.30049 -2.71948 0
M  V30 4563 O 432.573 3.71766 -4.00565 0
M  V30 4564 H 429.667 0.588117 -0.581418 0
M  V30 4565 H 432.213 0.561328 -1.60147 0
M  V30 4566 H 430.985 1.60316 -3.56952 0
M  V30 4567 H 430.608 3.01351 -2.59371 0
M  V30 4568 N 431.605 1.3629 0.791371 0
M  V30 4569 C 432.851 1.30605 1.55146 0
M  V30 4570 C 433.184 -0.115042 1.93859 0
M  V30 4571 O 432.459 -1.06798 1.62556 0
M  V30 4572 C 432.742 2.22692 2.82985 0
M  V30 4573 C 432.595 3.73489 2.50651 0
M  V30 4574 C 433.914 2.13588 3.84796 0
M  V30 4575 H 431.033 0.475761 0.562868 0
M  V30 4576 H 433.675 1.66825 0.909358 0
M  V30 4577 H 431.825 1.91933 3.37778 0
M  V30 4578 H 433.497 4.14758 2.01924 0
M  V30 4579 H 431.74 3.93021 1.83622 0
M  V30 4580 H 432.411 4.3333 3.41949 0
M  V30 4581 H 434.887 2.40659 3.39445 0
M  V30 4582 H 433.763 2.80195 4.71998 0
M  V30 4583 H 434.024 1.12256 4.27611 0
M  V30 4584 N 433.083 -1.0153 1.20538 0
M  V30 4585 C 434.03 -2.10098 0.955383 0
M  V30 4586 C 435 -1.65702 -0.114878 0
M  V30 4587 O 436.185 -1.90776 0.0301118 0
M  V30 4588 C 433.325 -3.41236 0.514969 0
M  V30 4589 C 432.438 -3.99102 1.65353 0
M  V30 4590 C 431.573 -5.18306 1.16329 0
M  V30 4591 C 430.612 -5.68258 2.27485 0
M  V30 4592 N 429.749 -6.78722 1.7967 0
M  V30 4593 H 434.589 -2.30818 1.88486 0
M  V30 4594 H 432.126 -1.13189 0.939499 0
M  V30 4595 H 434.084 -4.16504 0.240935 0
M  V30 4596 H 432.714 -3.20585 -0.377512 0
M  V30 4597 H 431.766 -3.20918 2.04245 0
M  V30 4598 H 433.078 -4.32177 2.49047 0
M  V30 4599 H 432.232 -6.00782 0.845302 0
M  V30 4600 H 430.971 -4.86799 0.296254 0
M  V30 4601 H 429.976 -4.84385 2.60099 0
M  V30 4602 H 431.201 -6.01798 3.14667 0
M  V30 4603 H 429.147 -6.49042 0.95295 0
M  V30 4604 H 429.064 -7.10996 2.56944 0
M  V30 4605 H 430.332 -7.64759 1.50875 0
M  V30 4606 N 434.561 -1.01147 -1.20859 0
M  V30 4607 C 435.471 -0.58686 -2.27141 0
M  V30 4608 C 436.487 0.373198 -1.69951 0
M  V30 4609 O 437.663 0.235423 -2.00019 0
M  V30 4610 C 434.728 0.0733602 -3.46622 0
M  V30 4611 C 433.789 -0.931995 -4.19061 0
M  V30 4612 C 433.022 -0.303186 -5.32838 0
M  V30 4613 O 433.245 0.898395 -5.63281 0
M  V30 4614 O 432.179 -1.01735 -5.9324 0
M  V30 4615 H 436.005 -1.47155 -2.65667 0
M  V30 4616 H 433.59 -0.780689 -1.2738 0
M  V30 4617 H 435.472 0.442333 -4.19072 0
M  V30 4618 H 434.147 0.932329 -3.09983 0
M  V30 4619 H 433.054 -1.35224 -3.48805 0
M  V30 4620 H 434.387 -1.76076 -4.59628 0
M  V30 4621 N 436.039 1.36541 -0.78704 0
M  V30 4622 C 436.986 2.30082 -0.181901 0
M  V30 4623 C 437.956 1.5186 0.672896 0
M  V30 4624 O 439.141 1.80374 0.622072 0
M  V30 4625 C 436.281 3.3835 0.679197 0
M  V30 4626 C 435.394 4.31565 -0.193882 0
M  V30 4627 C 434.529 5.26915 0.673364 0
M  V30 4628 C 433.568 6.11769 -0.201315 0
M  V30 4629 N 432.705 6.99315 0.624777 0
M  V30 4630 H 437.545 2.81248 -0.985064 0
M  V30 4631 H 435.082 1.38437 -0.497342 0
M  V30 4632 H 437.04 3.99767 1.19341 0
M  V30 4633 H 435.67 2.8851 1.44781 0
M  V30 4634 H 434.722 3.71323 -0.826044 0
M  V30 4635 H 436.034 4.91191 -0.867937 0
M  V30 4636 H 435.188 5.9361 1.25348 0
M  V30 4637 H 433.927 4.67737 1.38105 0
M  V30 4638 H 432.932 5.44039 -0.793849 0
M  V30 4639 H 434.157 6.73022 -0.906568 0
M  V30 4640 H 432.103 6.42648 1.3168 0
M  V30 4641 H 432.02 7.56 0.00835237 0
M  V30 4642 H 433.288 7.70382 1.18879 0
M  V30 4643 N 437.518 0.538854 1.48102 0
M  V30 4644 C 438.466 -0.232325 2.31437 0
M  V30 4645 C 439.46 -0.927004 1.41785 0
M  V30 4646 O 440.666 -0.850378 1.58646 0
M  V30 4647 H 437.041 -0.0937916 0.746128 0
M  V30 4648 H 439.012 0.489986 2.9435 0
M  V30 4649 C 437.761 -1.26074 3.24038 0
M  V30 4650 H 437.084 -0.735609 3.92974 0
M  V30 4651 H 438.524 -1.77157 3.85216 0
M  V30 4652 C 436.983 -2.29902 2.46265 0
M  V30 4653 O 437.513 -3.36502 2.19384 0
M  V30 4654 N 435.719 -2.03348 2.07601 0
M  V30 4655 H 435.266 -1.16675 2.29662 0
M  V30 4656 H 435.224 -2.73038 1.55877 0
M  V30 4657 N 438.996 -1.55193 0.274407 0
M  V30 4658 C 440.412 -1.59401 -0.0797543 0
M  V30 4659 C 440.612 -1.29162 -1.54659 0
M  V30 4660 O 439.668 -1.05215 -2.29534 0
M  V30 4661 C 440.981 -2.99257 0.294238 0
M  V30 4662 C 442.529 -3.12072 0.240796 0
M  V30 4663 C 443.004 -4.54194 0.589218 0
M  V30 4664 N 444.495 -4.60033 0.540744 0
M  V30 4665 C 445.23 -5.68027 0.783147 0
M  V30 4666 N 444.726 -6.8417 1.09013 0
M  V30 4667 N 446.519 -5.57572 0.711993 0
M  V30 4668 H 438.67 -1.73113 1.23067 0
M  V30 4669 H 440.933 -0.807197 0.497129 0
M  V30 4670 H 440.639 -3.26217 1.31435 0
M  V30 4671 H 440.513 -3.75427 -0.365281 0
M  V30 4672 H 442.9 -2.84877 -0.770024 0
M  V30 4673 H 442.981 -2.38117 0.934563 0
M  V30 4674 H 442.625 -4.82115 1.59772 0
M  V30 4675 H 442.555 -5.26448 -0.126331 0
M  V30 4676 H 445.046 -3.76599 0.313327 0
M  V30 4677 H 445.359 -7.6243 1.26178 0
M  V30 4678 H 443.704 -6.85787 1.12789 0
M  V30 4679 H 446.895 -4.65714 0.472014 0
M  V30 4680 H 447.068 -6.41659 0.90429 0
M  V30 4681 N 440.474 -0.00167713 -1.576 0
M  V30 4682 C 441.702 0.693759 -1.94922 0
M  V30 4683 C 442.117 1.67215 -0.876626 0
M  V30 4684 O 441.474 1.81929 0.144279 0
M  V30 4685 C 441.525 1.42416 -3.32265 0
M  V30 4686 O 441.246 0.485014 -4.35407 0
M  V30 4687 C 442.747 2.21395 -3.84056 0
M  V30 4688 H 439.967 0.193118 -0.642609 0
M  V30 4689 H 442.511 -0.0532952 -2.04431 0
M  V30 4690 H 440.666 2.12284 -3.24059 0
M  V30 4691 H 441.08 1.00053 -5.14868 0
M  V30 4692 H 442.554 2.67996 -4.82578 0
M  V30 4693 H 443.031 3.04142 -3.16851 0
M  V30 4694 H 443.637 1.56542 -3.95443 0
M  V30 4695 N 441.952 1.55251 0.271103 0
M  V30 4696 C 443.177 1.80306 1.02491 0
M  V30 4697 C 443.602 0.575457 1.79081 0
M  V30 4698 O 442.96 -0.474987 1.74967 0
M  V30 4699 C 443.008 3.02832 1.95768 0
M  V30 4700 O 442.112 2.78051 3.04568 0
M  V30 4701 H 441.453 0.595896 0.292923 0
M  V30 4702 H 443.983 2.02397 0.299436 0
M  V30 4703 H 443.993 3.31616 2.37686 0
M  V30 4704 H 442.668 3.9183 1.39434 0
M  V30 4705 H 441.245 2.60369 2.66951 0
M  V30 4706 N 443.43 -0.535701 1.48216 0
M  V30 4707 C 444.34 -1.66785 1.64985 0
M  V30 4708 C 445.356 -1.65654 0.532414 0
M  V30 4709 O 446.532 -1.8471 0.80275 0
M  V30 4710 C 443.597 -3.0326 1.68031 0
M  V30 4711 C 442.658 -3.1529 2.9136 0
M  V30 4712 C 441.891 -4.45255 2.94252 0
M  V30 4713 O 442.114 -5.32011 2.05719 0
M  V30 4714 O 441.048 -4.6153 3.86359 0
M  V30 4715 H 444.874 -1.55576 2.60825 0
M  V30 4716 H 442.459 -0.70815 1.31551 0
M  V30 4717 H 444.341 -3.84436 1.72589 0
M  V30 4718 H 443.016 -3.14805 0.753628 0
M  V30 4719 H 441.923 -2.3343 2.92337 0
M  V30 4720 H 443.256 -3.08658 3.83394 0
M  V30 4721 N 444.908 -1.36708 -0.784132 0
M  V30 4722 C 445.818 -1.3363 -1.92822 0
M  V30 4723 C 446.834 -0.237686 -1.72369 0
M  V30 4724 O 448.01 -0.470962 -1.95816 0
M  V30 4725 C 445.075 -1.13011 -3.27764 0
M  V30 4726 C 444.136 -2.32397 -3.60957 0
M  V30 4727 C 443.369 -2.12752 -4.89461 0
M  V30 4728 O 443.592 -1.10541 -5.59586 0
M  V30 4729 O 442.526 -3.00653 -5.21432 0
M  V30 4730 H 446.352 -2.29964 -1.98369 0
M  V30 4731 H 443.937 -1.1731 -0.925136 0
M  V30 4732 H 445.819 -1.03451 -4.08504 0
M  V30 4733 H 444.494 -0.19743 -3.23097 0
M  V30 4734 H 443.401 -2.47527 -2.80502 0
M  V30 4735 H 444.734 -3.2419 -3.70354 0
M  V30 4736 N 446.386 1.0089 -1.21074 0
M  V30 4737 C 447.349 2.0775 -0.968129 0
M  V30 4738 C 448.349 1.6069 0.0593445 0
M  V30 4739 O 449.539 1.73293 -0.177525 0
M  V30 4740 C 446.671 3.37794 -0.459108 0
M  V30 4741 H 447.864 2.30707 -1.9161 0
M  V30 4742 H 445.417 1.17807 -1.02719 0
M  V30 4743 H 446.152 3.20516 0.49397 0
M  V30 4744 H 445.937 3.7328 -1.20019 0
M  V30 4745 H 447.427 4.16454 -0.309099 0
M  V30 4746 N 447.864 1.01787 1.20321 0
M  V30 4747 C 448.774 0.598898 2.26827 0
M  V30 4748 C 449.79 -0.36418 1.70146 0
M  V30 4749 O 450.966 -0.224812 2.00141 0
M  V30 4750 C 448.031 -0.0549769 3.46656 0
M  V30 4751 C 447.092 0.954205 4.18561 0
M  V30 4752 C 446.325 0.331439 5.3267 0
M  V30 4753 O 446.548 -0.86851 5.63749 0
M  V30 4754 O 445.482 1.0488 5.92692 0
M  V30 4755 H 449.308 1.48562 2.64883 0
M  V30 4756 H 446.893 0.787434 1.26964 0
M  V30 4757 H 448.775 -0.420102 4.19301 0
M  V30 4758 H 447.45 -0.915876 3.10473 0
M  V30 4759 H 446.357 1.37072 3.48083 0
M  V30 4760 H 447.69 1.78511 4.58688 0
M  V30 4761 N 449.342 -1.36122 0.79427 0
M  V30 4762 C 450.619 -1.93398 0.292685 0
M  V30 4763 C 450.999 -1.72567 -1.21589 0
M  V30 4764 O 450.347 -1.08745 -2.00965 0
M  V30 4765 C 450.557 -3.42099 0.690614 0
M  V30 4766 C 451.905 -4.19231 0.673105 0
M  V30 4767 O 452.929 -3.50559 0.631389 0
M  V30 4768 O 451.788 -5.41732 0.720362 0
M  V30 4769 H 448.882 -0.823712 0.0736693 0
M  V30 4770 H 451.428 -1.45273 0.87714 0
M  V30 4771 H 450.2 -3.50938 1.73085 0
M  V30 4772 H 449.823 -3.97519 0.0803036 0
M  V30 4773 N 450.82 -0.546701 -1.47814 0
M  V30 4774 C 451.75 0.195317 -2.32682 0
M  V30 4775 C 452.731 0.918981 -1.43139 0
M  V30 4776 O 453.916 0.901501 -1.72008 0
M  V30 4777 C 451.046 1.23237 -3.247 0
M  V30 4778 C 450 0.625818 -4.234 0
M  V30 4779 C 449.326 1.76674 -5.04669 0
M  V30 4780 C 450.626 -0.413515 -5.2066 0
M  V30 4781 H 452.32 -0.513184 -2.94969 0
M  V30 4782 H 449.866 -0.248241 -1.41844 0
M  V30 4783 H 451.819 1.75955 -3.82907 0
M  V30 4784 H 450.543 1.97067 -2.60446 0
M  V30 4785 H 449.202 0.120023 -3.66403 0
M  V30 4786 H 448.85 2.49383 -4.36826 0
M  V30 4787 H 448.55 1.36673 -5.71484 0
M  V30 4788 H 450.074 2.29738 -5.65732 0
M  V30 4789 H 451.488 0.0272042 -5.73294 0
M  V30 4790 H 449.885 -0.731825 -5.95621 0
M  V30 4791 H 450.955 -1.31325 -4.66778 0
M  V30 4792 N 452.299 1.55045 -0.282633 0
M  V30 4793 C 453.715 1.59441 0.0712997 0
M  V30 4794 C 453.915 1.2998 1.53972 0
M  V30 4795 O 452.971 1.06431 2.28973 0
M  V30 4796 C 454.284 2.99097 -0.310104 0
M  V30 4797 C 455.832 3.1194 -0.257343 0
M  V30 4798 C 456.307 4.53875 -0.613297 0
M  V30 4799 N 457.798 4.5974 -0.565134 0
M  V30 4800 C 458.533 5.67603 -0.81326 0
M  V30 4801 N 458.029 6.83582 -1.1264 0
M  V30 4802 N 459.822 5.57187 -0.741553 0
M  V30 4803 H 451.973 1.72458 -1.23984 0
M  V30 4804 H 454.236 0.804549 -0.501403 0
M  V30 4805 H 453.942 3.25516 -1.33163 0
M  V30 4806 H 453.816 3.75616 0.345366 0
M  V30 4807 H 456.203 2.85281 0.754905 0
M  V30 4808 H 456.284 2.37618 -0.947178 0
M  V30 4809 H 455.928 4.81261 -1.62327 0
M  V30 4810 H 455.858 5.26508 0.09841 0
M  V30 4811 H 458.349 3.76427 -0.333294 0
M  V30 4812 H 458.662 7.6175 -1.30219 0
M  V30 4813 H 457.007 6.85179 -1.16425 0
M  V30 4814 H 460.198 4.65457 -0.496705 0
M  V30 4815 H 460.371 6.41171 -0.938306 0
M  V30 4816 N 453.777 0.010035 1.57597 0
M  V30 4817 C 454.74 -0.963029 2.07986 0
M  V30 4818 C 455.74 -1.26619 0.991173 0
M  V30 4819 O 456.93 -1.2097 1.25347 0
M  V30 4820 C 454.062 -2.2851 2.52974 0
M  V30 4821 H 455.255 -0.526971 2.95234 0
M  V30 4822 H 452.808 -0.237639 1.54483 0
M  V30 4823 H 453.543 -2.76784 1.69 0
M  V30 4824 H 453.328 -2.07824 3.32493 0
M  V30 4825 H 454.818 -2.98294 2.9225 0
M  V30 4826 N 455.255 -1.55392 -0.262866 0
M  V30 4827 C 456.185 -1.91978 -1.32917 0
M  V30 4828 C 457.166 -0.7828 -1.51017 0
M  V30 4829 O 458.351 -1.04178 -1.63892 0
M  V30 4830 C 455.481 -2.20055 -2.68687 0
M  V30 4831 C 454.435 -3.35854 -2.65304 0
M  V30 4832 C 453.761 -3.49435 -4.04721 0
M  V30 4833 C 455.061 -4.71977 -2.23685 0
M  V30 4834 H 456.755 -2.81292 -1.02544 0
M  V30 4835 H 454.301 -1.3534 -0.491846 0
M  V30 4836 H 456.254 -2.44237 -3.43404 0
M  V30 4837 H 454.978 -1.27551 -3.00663 0
M  V30 4838 H 453.637 -3.11655 -1.93045 0
M  V30 4839 H 453.285 -2.54379 -4.33936 0
M  V30 4840 H 452.985 -4.27297 -4.0335 0
M  V30 4841 H 454.509 -3.7592 -4.81161 0
M  V30 4842 H 455.923 -4.95637 -2.88127 0
M  V30 4843 H 454.32 -5.52828 -2.33456 0
M  V30 4844 H 455.39 -4.70115 -1.18827 0
M  V30 4845 N 456.733 0.527833 -1.48498 0
M  V30 4846 C 458.149 0.856571 -1.34666 0
M  V30 4847 C 458.349 1.98271 -0.35931 0
M  V30 4848 O 457.405 2.51551 0.218703 0
M  V30 4849 C 458.718 1.22207 -2.74747 0
M  V30 4850 C 460.266 1.33183 -2.83251 0
M  V30 4851 C 460.741 1.73075 -4.24039 0
M  V30 4852 N 462.232 1.80174 -4.26722 0
M  V30 4853 C 462.967 2.1243 -5.32598 0
M  V30 4854 N 462.463 2.43096 -6.4875 0
M  V30 4855 N 464.256 2.13454 -5.19994 0
M  V30 4856 H 456.407 -0.215174 -2.11307 0
M  V30 4857 H 458.67 -0.0336281 -0.947403 0
M  V30 4858 H 458.376 0.468195 -3.4857 0
M  V30 4859 H 458.25 2.17173 -3.08409 0
M  V30 4860 H 460.637 2.07647 -2.09683 0
M  V30 4861 H 460.718 0.363333 -2.53206 0
M  V30 4862 H 460.362 0.991712 -4.98124 0
M  V30 4863 H 460.292 2.70979 -4.51529 0
M  V30 4864 H 462.783 1.58744 -3.42942 0
M  V30 4865 H 463.096 2.6682 -7.25277 0
M  V30 4866 H 461.441 2.40611 -6.52021 0
M  V30 4867 H 464.632 1.88956 -4.28268 0
M  V30 4868 H 464.805 2.38261 -6.02608 0
M  V30 4869 N 458.211 1.37122 0.776871 0
M  V30 4870 C 459.458 1.32047 1.53524 0
M  V30 4871 C 459.786 -0.0965631 1.9426 0
M  V30 4872 O 459.041 -1.06866 1.63945 0
M  V30 4873 C 459.34 2.20068 2.81611 0
M  V30 4874 C 459.006 3.68423 2.59953 0
M  V30 4875 C 457.668 4.08854 2.53755 0
M  V30 4876 C 460.02 4.62431 2.40431 0
M  V30 4877 C 457.348 5.41417 2.26018 0
M  V30 4878 C 459.7 5.95225 2.14219 0
M  V30 4879 C 458.364 6.34767 2.06462 0
M  V30 4880 H 457.634 0.483196 0.561785 0
M  V30 4881 H 460.281 1.69284 0.895268 0
M  V30 4882 H 458.586 1.75809 3.50141 0
M  V30 4883 H 460.283 2.13458 3.39465 0
M  V30 4884 H 456.873 3.36354 2.65638 0
M  V30 4885 H 461.057 4.32057 2.44213 0
M  V30 4886 H 456.313 5.71022 2.18504 0
M  V30 4887 H 460.487 6.67626 1.98112 0
M  V30 4888 H 458.114 7.37413 1.84733 0
M  V30 4889 N 459.689 -1.00246 1.21608 0
M  V30 4890 C 460.619 -2.10921 1.00172 0
M  V30 4891 C 461.6 -1.69938 -0.0741587 0
M  V30 4892 O 462.785 -1.94009 0.0861753 0
M  V30 4893 C 459.915 -3.42618 0.568355 0
M  V30 4894 C 458.869 -3.97407 1.58909 0
M  V30 4895 C 458.195 -5.25038 1.01187 0
M  V30 4896 C 459.495 -4.2918 2.97661 0
M  V30 4897 H 461.189 -2.29112 1.92739 0
M  V30 4898 H 458.735 -1.10101 0.928102 0
M  V30 4899 H 460.688 -4.19444 0.405555 0
M  V30 4900 H 459.412 -3.24227 -0.392961 0
M  V30 4901 H 458.071 -3.22703 1.73949 0
M  V30 4902 H 457.719 -5.02982 0.0421965 0
M  V30 4903 H 457.419 -5.62661 1.6937 0
M  V30 4904 H 458.943 -6.04507 0.860448 0
M  V30 4905 H 460.357 -4.96839 2.86049 0
M  V30 4906 H 458.754 -4.77952 3.6288 0
M  V30 4907 H 459.824 -3.3735 3.48315 0
M  V30 4908 N 461.167 -1.02423 -1.1978 0
M  V30 4909 C 462.392 -0.7373 -1.93852 0
M  V30 4910 C 462.817 0.696923 -1.74713 0
M  V30 4911 O 462.175 1.48056 -1.04638 0
M  V30 4912 C 462.223 -1.08783 -3.438 0
M  V30 4913 O 461.327 -0.20383 -4.11896 0
M  V30 4914 H 460.668 -0.27284 -0.605355 0
M  V30 4915 H 463.198 -1.36966 -1.51992 0
M  V30 4916 H 463.208 -1.04276 -3.9445 0
M  V30 4917 H 461.883 -2.13274 -3.57053 0
M  V30 4918 H 460.46 -0.307091 -3.71633 0
M  V30 4919 N 462.645 1.35699 -0.801477 0
M  V30 4920 C 463.891 1.99208 -0.380022 0
M  V30 4921 C 464.224 1.63445 1.04878 0
M  V30 4922 O 463.499 0.895223 1.72673 0
M  V30 4923 C 463.782 3.55755 -0.557708 0
M  V30 4924 C 463.635 4.01332 -2.03107 0
M  V30 4925 C 464.954 4.40096 0.0197968 0
M  V30 4926 H 462.073 0.723667 -0.139552 0
M  V30 4927 H 464.715 1.60928 -1.01006 0
M  V30 4928 H 462.865 3.88494 -0.0213741 0
M  V30 4929 H 464.537 3.79026 -2.62939 0
M  V30 4930 H 462.78 3.52429 -2.52936 0
M  V30 4931 H 463.451 5.10234 -2.1063 0
M  V30 4932 H 465.927 4.13786 -0.438179 0
M  V30 4933 H 464.803 5.48735 -0.134477 0
M  V30 4934 H 465.064 4.2786 1.11303 0
M  V30 4935 N 464.123 0.554532 1.47522 0
M  V30 4936 C 465.372 0.0273458 2.01681 0
M  V30 4937 C 465.685 -1.32962 1.43459 0
M  V30 4938 O 466.891 -1.94657 1.89265 0
M  V30 4939 C 465.347 -0.00159057 3.599 0
M  V30 4940 C 464.955 1.35197 4.27113 0
M  V30 4941 C 466.699 -0.476311 4.21819 0
M  V30 4942 C 464.606 1.28229 5.77331 0
M  V30 4943 H 463.536 0.00645269 0.753972 0
M  V30 4944 H 466.187 0.701985 1.69542 0
M  V30 4945 H 464.569 -0.741821 3.8899 0
M  V30 4946 H 465.743 2.1097 4.09668 0
M  V30 4947 H 464.058 1.76441 3.77171 0
M  V30 4948 H 466.655 -0.5468 5.31897 0
M  V30 4949 H 466.998 -1.4877 3.8881 0
M  V30 4950 H 467.531 0.20898 3.97251 0
M  V30 4951 H 464.27 2.26959 6.14955 0
M  V30 4952 H 463.79 0.566314 5.97121 0
M  V30 4953 H 465.469 0.983226 6.39485 0
M  V30 4954 N 465.601 -1.54893 0.290851 0
M  V30 4955 C 466.826 -2.04804 -0.32712 0
M  V30 4956 C 467.251 -1.16721 -1.47506 0
M  V30 4957 O 466.609 -0.169107 -1.8051 0
M  V30 4958 C 466.657 -3.52268 -0.770689 0
M  V30 4959 O 465.761 -3.67236 -1.87647 0
M  V30 4960 H 465.102 -0.660789 -0.0652227 0
M  V30 4961 H 467.632 -2.00036 0.429739 0
M  V30 4962 H 467.642 -3.9393 -1.06223 0
M  V30 4963 H 466.317 -4.15843 0.069096 0
M  V30 4964 H 464.894 -3.37479 -1.58626 0
M  V30 4965 N 467.08 -0.0183926 -1.57589 0
M  V30 4966 C 468.329 0.66185 -1.90532 0
M  V30 4967 C 468.642 1.73904 -0.895366 0
M  V30 4968 O 469.848 2.47518 -1.11566 0
M  V30 4969 C 468.304 1.22844 -3.38286 0
M  V30 4970 C 467.912 0.185103 -4.47617 0
M  V30 4971 C 469.656 1.88581 -3.80312 0
M  V30 4972 C 467.563 0.762723 -5.86461 0
M  V30 4973 H 466.493 0.250972 -0.711006 0
M  V30 4974 H 469.144 -0.0819435 -1.83317 0
M  V30 4975 H 467.526 2.0235 -3.40398 0
M  V30 4976 H 468.7 -0.58671 -4.5705 0
M  V30 4977 H 467.015 -0.372889 -4.14727 0
M  V30 4978 H 469.612 2.32735 -4.81392 0
M  V30 4979 H 469.955 2.72408 -3.14801 0
M  V30 4980 H 470.488 1.15782 -3.80578 0
M  V30 4981 H 467.227 -0.0371713 -6.55489 0
M  V30 4982 H 466.747 1.50327 -5.80656 0
M  V30 4983 H 468.426 1.25576 -6.34697 0
M  V30 4984 N 468.558 1.5553 0.254621 0
M  V30 4985 C 469.804 1.77262 0.985193 0
M  V30 4986 C 470.137 0.582286 1.85265 0
M  V30 4987 O 469.412 -0.419666 1.89919 0
M  V30 4988 C 469.695 3.0881 1.85225 0
M  V30 4989 C 469.548 4.38233 1.0135 0
M  V30 4990 C 470.867 3.3653 2.83612 0
M  V30 4991 H 467.986 0.644906 0.356742 0
M  V30 4992 H 470.628 1.88264 0.256236 0
M  V30 4993 H 468.778 2.99562 2.47376 0
M  V30 4994 H 470.45 4.59463 0.411269 0
M  V30 4995 H 468.693 4.32636 0.317574 0
M  V30 4996 H 469.364 5.26644 1.65379 0
M  V30 4997 H 471.84 3.45691 2.31596 0
M  V30 4998 H 470.716 4.29805 3.41407 0
M  V30 4999 H 470.977 2.57064 3.59681 0
M  V30 5000 N 470.036 -0.519951 1.48776 0
M  V30 5001 C 471.313 -1.28123 1.47797 0
M  V30 5002 C 471.693 -2.10196 0.195157 0
M  V30 5003 O 471.041 -2.13167 -0.822925 0
M  V30 5004 C 471.251 -2.15413 2.74587 0
M  V30 5005 C 472.599 -2.75225 3.23321 0
M  V30 5006 O 473.623 -2.25694 2.75574 0
M  V30 5007 O 472.482 -3.65346 4.06429 0
M  V30 5008 H 469.576 -0.578793 0.590701 0
M  V30 5009 H 472.122 -0.535779 1.6102 0
M  V30 5010 H 470.894 -1.54617 3.59457 0
M  V30 5011 H 470.517 -2.97186 2.64132 0
M  V30 5012 N 471.514 -1.37532 -0.769588 0
M  V30 5013 C 472.925 -1.29382 -1.346 0
M  V30 5014 C 473.276 0.0576039 -1.96115 0
M  V30 5015 O 472.401 0.95947 -1.93967 0
M  V30 5016 C 472.996 -2.34298 -2.44724 0
M  V30 5017 C 471.555 -2.29776 -2.98128 0
M  V30 5018 C 470.702 -2.18013 -1.71364 0
M  V30 5019 H 473.653 -1.48123 -0.56968 0
M  V30 5020 H 473.674 -1.99089 -3.24259 0
M  V30 5021 H 473.186 -3.32645 -1.99922 0
M  V30 5022 H 471.287 -1.34959 -3.47299 0
M  V30 5023 H 471.4 -3.23276 -3.53595 0
M  V30 5024 H 469.764 -1.64595 -1.94372 0
M  V30 5025 H 470.547 -3.18278 -1.28662 0
M  V30 5026 N 472.992 0.995999 -1.22138 0
M  V30 5027 C 474.238 1.7386 -1.05567 0
M  V30 5028 C 474.593 1.8808 0.405418 0
M  V30 5029 O 473.886 1.41062 1.29661 0
M  V30 5030 C 474.08 3.14553 -1.6968 0
M  V30 5031 C 473.909 3.14053 -3.21871 0
M  V30 5032 C 472.679 3.20121 -3.90961 0
M  V30 5033 C 474.877 2.98451 -4.18845 0
M  V30 5034 N 472.859 3.09342 -5.30265 0
M  V30 5035 C 474.23 2.95667 -5.4496 0
M  V30 5036 C 476.285 2.8282 -4.09777 0
M  V30 5037 C 474.988 2.78852 -6.63049 0
M  V30 5038 C 477.014 2.67364 -5.27513 0
M  V30 5039 C 476.376 2.65264 -6.52544 0
M  V30 5040 H 472.475 0.645989 -0.440706 0
M  V30 5041 H 475.059 1.1831 -1.54631 0
M  V30 5042 H 473.23 3.68353 -1.2317 0
M  V30 5043 H 474.962 3.77358 -1.4623 0
M  V30 5044 H 471.717 3.27679 -3.4194 0
M  V30 5045 H 472.141 3.0727 -6.03253 0
M  V30 5046 H 476.783 2.83243 -3.139 0
M  V30 5047 H 474.501 2.77175 -7.59078 0
M  V30 5048 H 478.087 2.56256 -5.22326 0
M  V30 5049 H 476.967 2.5345 -7.42114 0
M  V30 5050 N 474.47 1.03057 1.19235 0
M  V30 5051 C 475.719 0.72326 1.88287 0
M  V30 5052 C 476.032 -0.751333 1.80594 0
M  V30 5053 O 477.238 -1.17176 2.44912 0
M  V30 5054 C 475.694 1.24338 3.3774 0
M  V30 5055 C 475.302 2.74587 3.53986 0
M  V30 5056 C 477.046 1.01213 4.12257 0
M  V30 5057 C 474.953 3.20009 4.97341 0
M  V30 5058 H 473.883 0.266848 0.705201 0
M  V30 5059 H 476.534 1.24509 1.34795 0
M  V30 5060 H 474.916 0.649457 3.90638 0
M  V30 5061 H 476.09 3.39649 3.11408 0
M  V30 5062 H 474.405 2.9601 2.9286 0
M  V30 5063 H 477.002 1.32675 5.17978 0
M  V30 5064 H 477.345 -0.051001 4.16269 0
M  V30 5065 H 477.878 1.57014 3.65501 0
M  V30 5066 H 474.617 4.25659 4.98493 0
M  V30 5067 H 474.137 2.59676 5.40674 0
M  V30 5068 H 475.816 3.13447 5.66003 0
M  V30 5069 N 475.948 -1.35272 0.808662 0
M  V30 5070 C 477.195 -1.98709 0.390003 0
M  V30 5071 C 477.523 -1.64148 -1.04335 0
M  V30 5072 O 476.778 -0.897797 -1.73891 0
M  V30 5073 C 477.077 -3.53556 0.522798 0
M  V30 5074 C 476.743 -4.0799 1.91977 0
M  V30 5075 C 475.405 -4.22568 2.30195 0
M  V30 5076 C 477.757 -4.37442 2.83361 0
M  V30 5077 C 475.085 -4.63918 3.59162 0
M  V30 5078 C 477.437 -4.80232 4.11776 0
M  V30 5079 C 476.101 -4.93016 4.49991 0
M  V30 5080 H 475.371 -0.727127 0.142712 0
M  V30 5081 H 478.018 -1.6145 1.02985 0
M  V30 5082 H 476.323 -3.91287 -0.200494 0
M  V30 5083 H 478.02 -4.00598 0.179608 0
M  V30 5084 H 474.61 -3.97096 1.61284 0
M  V30 5085 H 478.794 -4.25731 2.55083 0
M  V30 5086 H 474.05 -4.72005 3.88615 0
M  V30 5087 H 478.224 -5.01982 4.82687 0
M  V30 5088 H 475.851 -5.24814 5.49976 0
M  V30 5089 N 477.426 -0.562348 -1.47226 0
M  V30 5090 C 478.675 -0.038041 -2.01664 0
M  V30 5091 C 478.988 1.32199 -1.44162 0
M  V30 5092 O 480.194 1.9365 -1.90294 0
M  V30 5093 C 478.65 -0.0174958 -3.59896 0
M  V30 5094 C 478.258 -1.3746 -4.2639 0
M  V30 5095 C 480.002 0.453934 -4.22066 0
M  V30 5096 C 477.909 -1.31289 -5.76643 0
M  V30 5097 H 476.839 -0.0104511 -0.753928 0
M  V30 5098 H 479.49 -0.710966 -1.69167 0
M  V30 5099 H 477.872 0.721182 -3.89378 0
M  V30 5100 H 479.046 -2.1314 -4.08544 0
M  V30 5101 H 477.361 -1.78438 -3.7623 0
M  V30 5102 H 479.958 0.518584 -5.32179 0
M  V30 5103 H 480.301 1.46706 -3.89594 0
M  V30 5104 H 480.834 -0.230044 -3.97134 0
M  V30 5105 H 477.573 -2.30217 -6.13743 0
M  V30 5106 H 477.093 -0.597973 -5.96812 0
M  V30 5107 H 478.772 -1.01713 -6.38955 0
M  V30 5108 N 478.904 1.54736 -0.299062 0
M  V30 5109 C 480.153 1.99279 0.311549 0
M  V30 5110 C 480.466 1.19107 1.55154 0
M  V30 5111 O 481.672 1.53908 2.23662 0
M  V30 5112 C 480.128 3.54768 0.605632 0
M  V30 5113 C 479.736 4.43746 -0.615914 0
M  V30 5114 C 481.48 4.07841 1.17754 0
M  V30 5115 C 479.387 5.90663 -0.29509 0
M  V30 5116 H 478.317 0.744359 0.120187 0
M  V30 5117 H 480.968 1.78919 -0.407464 0
M  V30 5118 H 479.35 3.71021 1.38419 0
M  V30 5119 H 480.524 4.39267 -1.39218 0
M  V30 5120 H 478.839 4.01434 -1.10633 0
M  V30 5121 H 481.436 5.15174 1.43179 0
M  V30 5122 H 481.779 3.58324 2.11918 0
M  V30 5123 H 482.312 3.95123 0.460739 0
M  V30 5124 H 479.051 6.44325 -1.20524 0
M  V30 5125 H 478.571 5.98155 0.44394 0
M  V30 5126 H 480.25 6.46916 0.104048 0
M  V30 5127 N 480.382 0.0267497 1.57577 0
M  V30 5128 C 481.629 -0.652404 1.91703 0
M  V30 5129 C 481.957 -1.72271 0.902936 0
M  V30 5130 O 481.212 -1.955 -0.0884843 0
M  V30 5131 C 481.511 -1.30914 3.3256 0
M  V30 5132 C 481.177 -0.369441 4.49384 0
M  V30 5133 C 479.839 -0.110791 4.81072 0
M  V30 5134 C 482.191 0.275971 5.20469 0
M  V30 5135 C 479.519 0.801116 5.81205 0
M  V30 5136 C 481.871 1.17592 6.21575 0
M  V30 5137 C 480.535 1.44348 6.51705 0
M  V30 5138 H 479.805 -0.238732 0.70149 0
M  V30 5139 H 482.452 0.0880091 1.91298 0
M  V30 5140 H 480.757 -2.12425 3.29216 0
M  V30 5141 H 482.454 -1.84115 3.56234 0
M  V30 5142 H 479.044 -0.581211 4.24641 0
M  V30 5143 H 483.228 0.0892 4.9622 0
M  V30 5144 H 478.484 1.01614 6.02897 0
M  V30 5145 H 482.658 1.68223 6.75777 0
M  V30 5146 H 480.285 2.15176 7.29111 0
M  V30 5147 N 481.861 -1.55662 -0.24637 0
M  V30 5148 C 483.277 -1.48098 -0.594907 0
M  V30 5149 C 483.477 -0.717044 -1.8831 0
M  V30 5150 O 482.533 -0.246618 -2.51293 0
M  V30 5151 C 483.846 -2.92507 -0.697146 0
M  V30 5152 C 485.394 -3.02881 -0.789436 0
M  V30 5153 C 485.869 -4.48598 -0.923232 0
M  V30 5154 N 487.36 -4.52538 -0.988088 0
M  V30 5155 C 488.095 -5.62536 -1.11089 0
M  V30 5156 N 487.591 -6.82342 -1.19919 0
M  V30 5157 N 489.384 -5.50334 -1.14408 0
M  V30 5158 H 481.535 -2.0377 0.599278 0
M  V30 5159 H 483.798 -0.925145 0.20691 0
M  V30 5160 H 483.504 -3.51242 0.179396 0
M  V30 5161 H 483.378 -3.43024 -1.5689 0
M  V30 5162 H 485.765 -2.44226 -1.65643 0
M  V30 5163 H 485.846 -2.55574 0.107482 0
M  V30 5164 H 485.49 -5.07864 -0.0607927 0
M  V30 5165 H 485.42 -4.93587 -1.8352 0
M  V30 5166 H 487.911 -3.66248 -0.931167 0
M  V30 5167 H 488.224 -7.61924 -1.29197 0
M  V30 5168 H 486.569 -6.85102 -1.16876 0
M  V30 5169 H 489.76 -4.5567 -1.07158 0
M  V30 5170 H 489.933 -6.36096 -1.23634 0
M  V30 5171 N 483.339 0.512053 -1.4905 0
M  V30 5172 C 484.564 1.2959 -1.6193 0
M  V30 5173 C 484.989 1.85906 -0.286454 0
M  V30 5174 O 484.347 1.65312 0.744426 0
M  V30 5175 C 484.395 2.40987 -2.68249 0
M  V30 5176 O 483.499 3.44531 -2.26654 0
M  V30 5177 H 482.84 0.383053 -0.542371 0
M  V30 5178 H 485.37 0.614231 -1.95162 0
M  V30 5179 H 485.38 2.86913 -2.90078 0
M  V30 5180 H 484.055 1.99361 -3.65004 0
M  V30 5181 H 482.632 3.046 -2.15112 0
M  V30 5182 N 484.817 1.37938 0.762283 0
M  V30 5183 C 486.228 1.30094 1.33912 0
M  V30 5184 C 486.579 -0.0472026 1.96143 0
M  V30 5185 O 485.704 -0.94917 1.94473 0
M  V30 5186 C 486.299 2.35592 2.43478 0
M  V30 5187 C 484.858 2.31353 2.96905 0
M  V30 5188 C 484.005 2.18919 1.70205 0
M  V30 5189 H 486.956 1.48423 0.561816 0
M  V30 5190 H 486.977 2.00806 3.23199 0
M  V30 5191 H 486.489 3.33701 1.98155 0
M  V30 5192 H 484.59 1.36799 3.46579 0
M  V30 5193 H 484.703 3.25147 3.51875 0
M  V30 5194 H 483.067 1.65624 1.93496 0
M  V30 5195 H 483.85 3.18956 1.26973 0
M  V30 5196 N 486.295 -0.989507 1.22664 0
M  V30 5197 C 487.541 -1.7321 1.05481 0
M  V30 5198 C 487.874 -1.89852 -0.408635 0
M  V30 5199 O 487.149 -1.44416 -1.30285 0
M  V30 5200 C 487.432 -3.1357 1.77047 0
M  V30 5201 C 487.285 -3.04555 3.31008 0
M  V30 5202 C 488.604 -4.12812 1.5256 0
M  V30 5203 H 485.723 -0.628697 0.384589 0
M  V30 5204 H 488.365 -1.15258 1.51049 0
M  V30 5205 H 486.515 -3.63046 1.3831 0
M  V30 5206 H 488.187 -2.62674 3.7921 0
M  V30 5207 H 486.43 -2.41278 3.6051 0
M  V30 5208 H 487.101 -4.03894 3.76263 0
M  V30 5209 H 489.577 -3.72106 1.86215 0
M  V30 5210 H 488.453 -5.09132 2.05124 0
M  V30 5211 H 488.714 -4.39711 0.458936 0
M  V30 5212 N 487.773 -1.03688 -1.18687 0
M  V30 5213 C 489.02 -0.73803 -1.88572 0
M  V30 5214 C 489.348 0.733973 -1.8012 0
M  V30 5215 O 488.603 1.55098 -1.19344 0
M  V30 5216 C 488.902 -1.14477 -3.3857 0
M  V30 5217 C 488.568 -2.61641 -3.67226 0
M  V30 5218 C 487.23 -3.01846 -3.74757 0
M  V30 5219 C 489.582 -3.56812 -3.79914 0
M  V30 5220 C 486.91 -4.36118 -3.92451 0
M  V30 5221 C 489.262 -4.90799 -3.99123 0
M  V30 5222 C 487.926 -5.3068 -4.04888 0
M  V30 5223 H 487.196 -0.270064 -0.690034 0
M  V30 5224 H 489.843 -1.3012 -1.40503 0
M  V30 5225 H 488.148 -0.500337 -3.88592 0
M  V30 5226 H 489.845 -0.89095 -3.90977 0
M  V30 5227 H 486.435 -2.29498 -3.61979 0
M  V30 5228 H 490.619 -3.26899 -3.73431 0
M  V30 5229 H 485.875 -4.66542 -3.95157 0
M  V30 5230 H 490.049 -5.64451 -4.07882 0
M  V30 5231 H 487.676 -6.34733 -4.18351 0
M  V30 5232 N 489.251 1.34841 -0.815825 0
M  V30 5233 C 490.667 1.51543 -0.500697 0
M  V30 5234 C 490.867 1.76261 0.976444 0
M  V30 5235 O 489.923 1.8094 1.76117 0
M  V30 5236 C 491.236 2.68487 -1.35407 0
M  V30 5237 C 492.784 2.82368 -1.35046 0
M  V30 5238 C 493.259 4.02347 -2.18816 0
M  V30 5239 N 494.75 4.09542 -2.16402 0
M  V30 5240 C 495.485 5.01517 -2.77971 0
M  V30 5241 N 494.981 5.98763 -3.48503 0
M  V30 5242 N 496.774 4.94334 -2.67563 0
M  V30 5243 H 488.925 1.17055 -1.77234 0
M  V30 5244 H 491.188 0.573481 -0.754866 0
M  V30 5245 H 490.894 2.56829 -2.40274 0
M  V30 5246 H 490.768 3.63321 -1.01377 0
M  V30 5247 H 493.155 2.93471 -0.309604 0
M  V30 5248 H 493.236 1.88363 -1.73069 0
M  V30 5249 H 492.88 3.92004 -3.22948 0
M  V30 5250 H 492.81 4.95551 -1.78148 0
M  V30 5251 H 495.301 3.39932 -1.65091 0
M  V30 5252 H 495.614 6.6556 -3.92747 0
M  V30 5253 H 493.959 5.98909 -3.52609 0
M  V30 5254 H 497.15 4.1732 -2.12041 0
M  V30 5255 H 497.323 5.6582 -3.15834 0
M  V30 5256 N 490.729 0.570148 1.46925 0
M  V30 5257 C 491.978 0.0487352 2.01641 0
M  V30 5258 C 492.291 -1.31433 1.44861 0
M  V30 5259 O 493.497 -1.92638 1.91318 0
M  V30 5260 C 491.953 0.0365817 3.59881 0
M  V30 5261 C 491.561 1.39719 4.25655 0
M  V30 5262 C 493.305 -0.431545 4.22301 0
M  V30 5263 C 491.212 1.34345 5.75939 0
M  V30 5264 H 490.142 0.0144492 0.753862 0
M  V30 5265 H 492.793 0.719928 1.68788 0
M  V30 5266 H 491.175 -0.700522 3.89755 0
M  V30 5267 H 492.349 2.15303 4.07408 0
M  V30 5268 H 490.664 1.80431 3.75278 0
M  V30 5269 H 493.261 -0.490354 5.32447 0
M  V30 5270 H 493.604 -1.44638 3.90366 0
M  V30 5271 H 494.137 0.251102 3.97007 0
M  V30 5272 H 490.876 2.33469 6.12513 0
M  V30 5273 H 490.396 0.629615 5.96486 0
M  V30 5274 H 492.075 1.051 6.38407 0
M  V30 5275 N 492.207 -1.54576 0.307264 0
M  V30 5276 C 493.454 -2.00263 -0.300167 0
M  V30 5277 C 493.782 -1.19561 -1.53413 0
M  V30 5278 O 493.037 -0.261487 -1.93945 0
M  V30 5279 C 493.336 -3.50572 -0.695253 0
M  V30 5280 C 493.002 -4.48771 0.437679 0
M  V30 5281 C 491.664 -4.7534 0.748681 0
M  V30 5282 C 494.016 -5.0721 1.19949 0
M  V30 5283 C 491.344 -5.5761 1.8245 0
M  V30 5284 C 493.696 -5.90651 2.26527 0
M  V30 5285 C 492.36 -6.15528 2.58227 0
M  V30 5286 H 491.63 -0.732814 -0.109839 0
M  V30 5287 H 494.277 -1.86664 0.427661 0
M  V30 5288 H 492.582 -3.61814 -1.50326 0
M  V30 5289 H 494.279 -3.83352 -1.17653 0
M  V30 5290 H 490.869 -4.282 0.185187 0
M  V30 5291 H 495.053 -4.86679 0.972474 0
M  V30 5292 H 490.309 -5.75121 2.07476 0
M  V30 5293 H 494.483 -6.34957 2.86011 0
M  V30 5294 H 492.11 -6.79066 3.4172 0
M  V30 5295 N 493.685 -0.035106 -1.57561 0
M  V30 5296 C 494.932 0.642229 -1.92046 0
M  V30 5297 C 495.26 1.7179 -0.91206 0
M  V30 5298 O 494.515 1.95544 0.0781153 0
M  V30 5299 C 494.814 1.29149 -3.3325 0
M  V30 5300 C 494.48 0.345604 -4.49574 0
M  V30 5301 C 493.142 0.0852775 -4.81124 0
M  V30 5302 C 495.494 -0.303569 -5.20315 0
M  V30 5303 C 492.822 -0.831927 -5.80772 0
M  V30 5304 C 495.174 -1.20886 -6.20942 0
M  V30 5305 C 493.838 -1.47802 -6.50931 0
M  V30 5306 H 493.108 0.235008 -0.702746 0
M  V30 5307 H 495.755 -0.0981529 -1.91248 0
M  V30 5308 H 494.06 2.10676 -3.30337 0
M  V30 5309 H 495.757 1.82223 -3.57205 0
M  V30 5310 H 492.347 0.558683 -4.24943 0
M  V30 5311 H 496.531 -0.115515 -4.96166 0
M  V30 5312 H 491.787 -1.0481 -6.02349 0
M  V30 5313 H 495.961 -1.71804 -6.74875 0
M  V30 5314 H 493.588 -2.19039 -7.2796 0
M  V30 5315 N 495.163 1.55791 0.238111 0
M  V30 5316 C 496.113 1.87444 1.29803 0
M  V30 5317 C 497.097 0.736043 1.43078 0
M  V30 5318 O 498.289 0.998146 1.46171 0
M  V30 5319 C 495.418 2.18028 2.65177 0
M  V30 5320 C 494.504 3.38217 2.55871 0
M  V30 5321 N 494.895 4.57264 2.16202 0
M  V30 5322 C 493.193 3.41502 2.86866 0
M  V30 5323 C 493.894 5.3941 2.17744 0
M  V30 5324 N 492.87 4.78695 2.57589 0
M  V30 5325 H 496.672 2.7701 0.981965 0
M  V30 5326 H 494.186 1.56135 0.44672 0
M  V30 5327 H 496.183 2.38873 3.4168 0
M  V30 5328 H 494.843 1.29765 2.97643 0
M  V30 5329 H 495.854 4.82727 1.87602 0
M  V30 5330 H 492.531 2.63536 3.23813 0
M  V30 5331 H 493.921 6.44671 1.89339 0
M  V30 5332 N 496.642 -0.504142 1.49319 0
M  V30 5333 C 497.589 -1.60603 1.65756 0
M  V30 5334 C 498.559 -1.58425 0.499082 0
M  V30 5335 O 499.744 -1.76459 0.725728 0
M  V30 5336 C 496.884 -2.98764 1.72726 0
M  V30 5337 C 495.997 -3.10982 2.99857 0
M  V30 5338 C 495.132 -4.39857 2.97824 0
M  V30 5339 C 494.171 -4.45697 4.19548 0
M  V30 5340 N 493.308 -5.65995 4.15444 0
M  V30 5341 H 498.148 -1.45895 2.59843 0
M  V30 5342 H 495.685 -0.709891 1.28837 0
M  V30 5343 H 497.643 -3.78839 1.74747 0
M  V30 5344 H 496.273 -3.12183 0.821075 0
M  V30 5345 H 495.325 -2.23991 3.07461 0
M  V30 5346 H 496.637 -3.11157 3.89849 0
M  V30 5347 H 495.791 -5.2825 2.98391 0
M  V30 5348 H 494.53 -4.42242 2.05604 0
M  V30 5349 H 493.535 -3.55707 4.19229 0
M  V30 5350 H 494.76 -4.4503 5.12957 0
M  V30 5351 H 492.706 -5.69229 3.26059 0
M  V30 5352 H 492.623 -5.67773 4.99169 0
M  V30 5353 H 493.891 -6.56604 4.20109 0
M  V30 5354 N 498.12 -1.38341 -0.754957 0
M  V30 5355 C 499.369 -1.33791 -1.5094 0
M  V30 5356 C 499.682 0.0699267 -1.95475 0
M  V30 5357 O 500.888 0.237956 -2.70455 0
M  V30 5358 C 499.344 -2.34934 -2.72643 0
M  V30 5359 C 498.952 -3.81332 -2.35138 0
M  V30 5360 C 500.696 -2.39425 -3.50536 0
M  V30 5361 C 498.603 -4.74164 -3.53444 0
M  V30 5362 H 497.533 -0.497314 -0.566741 0
M  V30 5363 H 500.184 -1.63888 -0.825403 0
M  V30 5364 H 498.566 -1.97878 -3.43017 0
M  V30 5365 H 499.74 -4.27319 -1.7244 0
M  V30 5366 H 498.055 -3.79946 -1.70382 0
M  V30 5367 H 500.652 -3.0598 -4.38498 0
M  V30 5368 H 500.995 -1.41278 -3.91594 0
M  V30 5369 H 501.528 -2.75274 -2.87174 0
M  V30 5370 H 498.267 -5.73501 -3.17453 0
M  V30 5371 H 497.787 -4.3287 -4.15191 0
M  V30 5372 H 499.466 -4.92111 -4.20043 0
M  V30 5373 N 499.598 0.982988 -1.23187 0
M  V30 5374 C 500.845 1.72392 -1.06241 0
M  V30 5375 C 501.173 1.9032 0.40108 0
M  V30 5376 O 500.428 1.45084 1.31336 0
M  V30 5377 C 500.727 3.12736 -1.73006 0
M  V30 5378 C 500.393 3.14695 -3.22921 0
M  V30 5379 C 499.055 3.14937 -3.63824 0
M  V30 5380 C 501.407 3.10211 -4.1883 0
M  V30 5381 C 498.735 3.08408 -4.99101 0
M  V30 5382 C 501.087 3.05224 -5.54095 0
M  V30 5383 C 499.751 3.03787 -5.94365 0
M  V30 5384 H 499.021 0.630829 -0.388762 0
M  V30 5385 H 501.668 1.15053 -1.53085 0
M  V30 5386 H 499.973 3.73446 -1.18514 0
M  V30 5387 H 501.67 3.68828 -1.57374 0
M  V30 5388 H 498.26 3.15262 -2.90358 0
M  V30 5389 H 502.444 3.09166 -3.8824 0
M  V30 5390 H 497.7 3.05646 -5.29519 0
M  V30 5391 H 501.874 3.00712 -6.28128 0
M  V30 5392 H 499.501 2.98483 -6.99151 0
M  V30 5393 N 501.076 1.04316 1.18135 0
M  V30 5394 C 502.325 0.74319 1.87509 0
M  V30 5395 C 502.638 -0.732136 1.81381 0
M  V30 5396 O 503.844 -1.14572 2.46141 0
M  V30 5397 C 502.3 1.27913 3.36402 0
M  V30 5398 C 501.908 2.78326 3.51053 0
M  V30 5399 C 503.652 1.0558 4.11161 0
M  V30 5400 C 501.559 3.25266 4.93919 0
M  V30 5401 H 500.489 0.274313 0.702331 0
M  V30 5402 H 503.14 1.25931 1.33467 0
M  V30 5403 H 501.522 0.690853 3.89927 0
M  V30 5404 H 502.696 3.42933 3.07788 0
M  V30 5405 H 501.011 2.991 2.89704 0
M  V30 5406 H 503.608 1.38161 5.16542 0
M  V30 5407 H 503.951 -0.00684729 4.16299 0
M  V30 5408 H 504.484 1.60882 3.63816 0
M  V30 5409 H 501.223 4.30922 4.9395 0
M  V30 5410 H 500.743 2.65396 5.3789 0
M  V30 5411 H 502.422 3.19433 5.62647 0
M  V30 5412 N 502.554 -1.34406 0.822964 0
M  V30 5413 C 503.97 -1.51275 0.508727 0
M  V30 5414 C 504.17 -1.76776 -0.967083 0
M  V30 5415 O 503.226 -1.81871 -1.75155 0
M  V30 5416 C 504.539 -2.67765 1.36829 0
M  V30 5417 C 506.087 -2.81647 1.36542 0
M  V30 5418 C 506.562 -4.01181 2.20947 0
M  V30 5419 N 508.053 -4.08388 2.18571 0
M  V30 5420 C 508.788 -5.00036 2.80627 0
M  V30 5421 N 508.284 -5.96906 3.51674 0
M  V30 5422 N 510.077 -4.92908 2.70181 0
M  V30 5423 H 502.228 -1.16113 1.77852 0
M  V30 5424 H 504.491 -0.56947 0.757897 0
M  V30 5425 H 504.197 -2.55551 2.41633 0
M  V30 5426 H 504.071 -3.62779 1.03303 0
M  V30 5427 H 506.458 -2.93303 0.325163 0
M  V30 5428 H 506.539 -1.87443 1.74066 0
M  V30 5429 H 506.183 -3.90286 3.25022 0
M  V30 5430 H 506.113 -4.94599 1.80774 0
M  V30 5431 H 508.604 -3.39051 1.66891 0
M  V30 5432 H 508.917 -6.63468 3.96271 0
M  V30 5433 H 507.262 -5.9703 3.5578 0
M  V30 5434 H 510.453 -4.1619 2.14251 0
M  V30 5435 H 510.626 -5.64137 3.18831 0
M  V30 5436 N 504.032 -0.577932 -1.46621 0
M  V30 5437 C 505.443 -0.150071 -1.86096 0
M  V30 5438 C 505.794 1.28563 -1.48209 0
M  V30 5439 O 504.919 1.97036 -0.894754 0
M  V30 5440 C 505.514 -0.265576 -3.37758 0
M  V30 5441 C 504.073 0.10738 -3.76247 0
M  V30 5442 C 503.22 -0.603711 -2.70649 0
M  V30 5443 H 506.171 -0.786438 -1.37844 0
M  V30 5444 H 506.192 0.510352 -3.77062 0
M  V30 5445 H 505.704 -1.3106 -3.65301 0
M  V30 5446 H 503.805 1.15272 -3.54321 0
M  V30 5447 H 503.918 -0.26561 -4.78363 0
M  V30 5448 H 502.282 -0.0444884 -2.54661 0
M  V30 5449 H 503.065 -1.65029 -3.01032 0
M  V30 5450 N 505.51 1.54411 -0.315457 0
M  V30 5451 C 506.44 2.27002 0.547039 0
M  V30 5452 C 507.421 1.27492 1.12605 0
M  V30 5453 O 508.606 1.5629 1.15269 0
M  V30 5454 C 505.736 3.02171 1.71201 0
M  V30 5455 C 504.69 4.0895 1.26268 0
M  V30 5456 C 504.016 4.71915 2.51396 0
M  V30 5457 C 505.316 5.20891 0.383419 0
M  V30 5458 H 507.01 2.99343 -0.0584517 0
M  V30 5459 H 504.556 1.4397 -0.0295527 0
M  V30 5460 H 506.509 3.51681 2.32161 0
M  V30 5461 H 505.233 2.27433 2.34397 0
M  V30 5462 H 503.892 3.60312 0.676062 0
M  V30 5463 H 503.54 3.93801 3.12937 0
M  V30 5464 H 503.24 5.44039 2.22026 0
M  V30 5465 H 504.764 5.24195 3.13133 0
M  V30 5466 H 506.178 5.66206 0.899082 0
M  V30 5467 H 504.575 5.99821 0.182857 0
M  V30 5468 H 505.645 4.81324 -0.587821 0
M  V30 5469 N 506.988 0.0434614 1.5754 0
M  V30 5470 C 508.404 -0.313039 1.565 0
M  V30 5471 C 508.604 -1.71954 1.05043 0
M  V30 5472 O 507.66 -2.425 0.703564 0
M  V30 5473 C 508.973 -0.148544 3.00333 0
M  V30 5474 C 510.521 -0.220231 3.12224 0
M  V30 5475 C 510.996 -0.0843565 4.57922 0
M  V30 5476 N 512.487 -0.140881 4.62986 0
M  V30 5477 C 513.222 -0.0597443 5.73369 0
M  V30 5478 N 512.718 0.0733004 6.92761 0
M  V30 5479 N 514.511 -0.11477 5.61983 0
M  V30 5480 H 506.662 0.96303 1.89313 0
M  V30 5481 H 508.925 0.373164 0.871466 0
M  V30 5482 H 508.631 0.820894 3.41986 0
M  V30 5483 H 508.505 -0.912798 3.65989 0
M  V30 5484 H 510.892 -1.18014 2.70475 0
M  V30 5485 H 510.973 0.574646 2.49262 0
M  V30 5486 H 510.617 0.872192 5.00355 0
M  V30 5487 H 510.547 -0.898281 5.18882 0
M  V30 5488 H 513.038 -0.243273 3.77116 0
M  V30 5489 H 513.351 0.128128 7.72694 0
M  V30 5490 H 511.696 0.10828 6.94916 0
M  V30 5491 H 514.887 -0.217212 4.67596 0
M  V30 5492 H 515.06 -0.0480779 6.47982 0
M  V30 5493 N 508.466 -1.55915 -0.229846 0
M  V30 5494 C 509.696 -1.82352 -0.971152 0
M  V30 5495 C 510.104 -0.619231 -1.7878 0
M  V30 5496 O 509.447 0.421597 -1.78797 0
M  V30 5497 C 509.509 -3.02399 -1.9441 0
M  V30 5498 C 509.173 -4.37739 -1.31277 0
M  V30 5499 C 510.17 -5.15074 -0.706757 0
M  V30 5500 C 507.855 -4.84454 -1.32702 0
M  V30 5501 C 509.849 -6.37281 -0.123413 0
M  V30 5502 C 507.536 -6.06605 -0.739831 0
M  V30 5503 C 508.534 -6.82858 -0.139071 0
M  V30 5504 O 508.222 -8.027 0.439007 0
M  V30 5505 H 507.954 -0.61035 -0.290601 0
M  V30 5506 H 510.508 -2.03839 -0.252746 0
M  V30 5507 H 508.738 -2.76709 -2.70128 0
M  V30 5508 H 510.427 -3.15779 -2.55026 0
M  V30 5509 H 511.193 -4.80093 -0.688131 0
M  V30 5510 H 507.072 -4.25081 -1.78402 0
M  V30 5511 H 510.616 -6.96741 0.346124 0
M  V30 5512 H 506.513 -6.4106 -0.755841 0
M  V30 5513 H 507.281 -8.17824 0.332521 0
M  V30 5514 N 509.944 0.496216 -1.49584 0
M  V30 5515 C 511.36 0.827814 -1.36453 0
M  V30 5516 C 511.56 1.97464 -0.401285 0
M  V30 5517 O 510.616 2.51958 0.165296 0
M  V30 5518 C 511.929 1.16352 -2.77277 0
M  V30 5519 C 513.477 1.27145 -2.86013 0
M  V30 5520 C 513.952 1.64042 -4.27615 0
M  V30 5521 N 515.443 1.71082 -4.30448 0
M  V30 5522 C 516.178 2.01085 -5.36984 0
M  V30 5523 N 515.674 2.2928 -6.5376 0
M  V30 5524 N 517.467 2.02376 -5.24405 0
M  V30 5525 H 509.618 -0.259947 -2.10803 0
M  V30 5526 H 511.881 -0.0537163 -0.946477 0
M  V30 5527 H 511.587 0.394153 -3.49484 0
M  V30 5528 H 511.461 2.10582 -3.12946 0
M  V30 5529 H 513.848 2.03152 -2.1404 0
M  V30 5530 H 513.929 0.309542 -2.5392 0
M  V30 5531 H 513.573 0.88583 -5.00115 0
M  V30 5532 H 513.503 2.6134 -4.57175 0
M  V30 5533 H 515.994 1.51434 -3.46232 0
M  V30 5534 H 516.307 2.51376 -7.30774 0
M  V30 5535 H 514.652 2.26726 -6.56978 0
M  V30 5536 H 517.843 1.79829 -4.32179 0
M  V30 5537 H 518.016 2.25425 -6.07526 0
M  V30 5538 N 511.423 1.38739 0.74761 0
M  V30 5539 C 512.648 1.38702 1.54197 0
M  V30 5540 C 513.073 -0.019664 1.8809 0
M  V30 5541 O 512.431 -1.00333 1.51006 0
M  V30 5542 C 512.479 2.25492 2.814 0
M  V30 5543 O 511.583 1.67613 3.76802 0
M  V30 5544 H 510.924 0.472863 0.466151 0
M  V30 5545 H 513.454 1.82577 0.923413 0
M  V30 5546 H 513.464 2.39561 3.30264 0
M  V30 5547 H 512.139 3.27727 2.56062 0
M  V30 5548 H 510.716 1.62718 3.35526 0
M  V30 5549 N 512.901 -0.976442 1.23707 0
M  V30 5550 C 514.317 -1.24341 1.00058 0
M  V30 5551 C 514.517 -1.99315 -0.295932 0
M  V30 5552 O 513.573 -2.3123 -1.01435 0
M  V30 5553 C 514.886 -2.03909 2.21001 0
M  V30 5554 C 516.434 -2.17034 2.25534 0
M  V30 5555 C 516.909 -2.99994 3.46075 0
M  V30 5556 N 518.4 -3.07578 3.46338 0
M  V30 5557 C 519.135 -3.72104 4.36264 0
M  V30 5558 N 518.631 -4.3842 5.36432 0
M  V30 5559 N 520.424 -3.69029 4.23998 0
M  V30 5560 H 512.575 -0.47428 2.07037 0
M  V30 5561 H 514.838 -0.272167 0.908091 0
M  V30 5562 H 514.544 -1.56198 3.15111 0
M  V30 5563 H 514.418 -3.04654 2.22409 0
M  V30 5564 H 516.805 -2.63951 1.31961 0
M  V30 5565 H 516.886 -1.15664 2.28156 0
M  V30 5566 H 516.53 -2.53772 4.39957 0
M  V30 5567 H 516.46 -4.01541 3.40694 0
M  V30 5568 H 518.951 -2.60397 2.73865 0
M  V30 5569 H 519.264 -4.85447 6.013 0
M  V30 5570 H 517.609 -4.37116 5.40328 0
M  V30 5571 H 520.8 -3.16392 3.44984 0
M  V30 5572 H 520.973 -4.19034 4.94282 0
M  V30 5573 N 514.379 -1.04941 -1.1758 0
M  V30 5574 C 515.619 -0.766996 -1.89464 0
M  V30 5575 C 515.983 0.693123 -1.79053 0
M  V30 5576 O 517.184 1.08953 -2.45729 0
M  V30 5577 C 515.455 -1.23108 -3.35528 0
M  V30 5578 S 517.014 -1.07565 -4.25412 0
M  V30 5579 H 513.832 -0.278616 -0.654136 0
M  V30 5580 H 516.434 -1.34352 -1.4202 0
M  V30 5581 H 515.138 -2.28896 -3.40639 0
M  V30 5582 H 514.669 -0.648724 -3.88014 0
M  V30 5583 H 516.684 0.00169467 -4.962 0
M  V30 5584 N 515.857 1.33968 -0.830081 0
M  V30 5585 C 517.082 2.02813 -0.433796 0
M  V30 5586 C 517.507 1.62076 0.954614 0
M  V30 5587 O 516.865 0.808955 1.62252 0
M  V30 5588 C 516.913 3.56348 -0.552115 0
M  V30 5589 O 516.017 4.10202 0.425191 0
M  V30 5590 H 515.358 0.639817 -0.177567 0
M  V30 5591 H 517.888 1.7106 -1.12248 0
M  V30 5592 H 517.898 4.05722 -0.430513 0
M  V30 5593 H 516.573 3.85344 -1.56471 0
M  V30 5594 H 515.15 3.71979 0.261878 0
M  V30 5595 N 517.335 0.585699 1.46312 0
M  V30 5596 C 518.283 -0.158577 2.32059 0
M  V30 5597 C 519.277 -0.881427 1.44662 0
M  V30 5598 O 520.483 -0.799476 1.61271 0
M  V30 5599 H 516.858 -0.0700066 0.748734 0
M  V30 5600 H 518.829 0.583383 2.92642 0
M  V30 5601 C 517.578 -1.15701 3.27885 0
M  V30 5602 H 516.901 -0.610215 3.95116 0
M  V30 5603 H 518.341 -1.64812 3.90657 0
M  V30 5604 C 516.8 -2.21951 2.53455 0
M  V30 5605 O 517.33 -3.29352 2.29978 0
M  V30 5606 N 515.536 -1.9664 2.13965 0
M  V30 5607 H 515.083 -1.09309 2.33258 0
M  V30 5608 H 515.041 -2.6794 1.64485 0
M  V30 5609 N 518.813 -1.54241 0.323641 0
M  V30 5610 C 520.038 -2.05452 -0.283605 0
M  V30 5611 C 520.463 -1.19823 -1.44997 0
M  V30 5612 O 519.821 -0.207358 -1.8011 0
M  V30 5613 C 519.869 -3.53823 -0.695795 0
M  V30 5614 O 518.973 -3.71134 -1.79815 0
M  V30 5615 H 518.314 -0.662024 -0.0511917 0
M  V30 5616 H 520.844 -1.99079 0.472073 0
M  V30 5617 H 520.854 -3.96094 -0.978434 0
M  V30 5618 H 519.529 -4.15602 0.157287 0
M  V30 5619 H 518.106 -3.40768 -1.51431 0
M  V30 5620 N 520.291 -0.0518155 -1.57515 0
M  V30 5621 C 521.519 0.631395 -1.9703 0
M  V30 5622 C 521.934 1.64341 -0.92938 0
M  V30 5623 O 521.291 1.82296 0.0863266 0
M  V30 5624 C 521.342 1.31774 -3.36627 0
M  V30 5625 O 521.063 0.346247 -4.3673 0
M  V30 5626 C 522.564 2.09065 -3.90905 0
M  V30 5627 H 519.784 0.172576 -0.648428 0
M  V30 5628 H 522.328 -0.118306 -2.04158 0
M  V30 5629 H 520.483 2.01867 -3.30649 0
M  V30 5630 H 520.897 0.836226 -5.17791 0
M  V30 5631 H 522.371 2.52508 -4.9086 0
M  V30 5632 H 522.848 2.93908 -3.26366 0
M  V30 5633 H 523.454 1.43882 -4.00223 0
M  V30 5634 N 521.769 1.56035 0.221574 0
M  V30 5635 C 522.717 1.93269 1.29421 0
M  V30 5636 C 523.711 0.814727 1.48521 0
M  V30 5637 O 524.917 0.999559 1.49696 0
M  V30 5638 H 521.292 0.614188 0.43391 0
M  V30 5639 H 523.263 2.82773 0.952987 0
M  V30 5640 C 522.012 2.26573 2.63742 0
M  V30 5641 H 521.335 3.12112 2.49853 0
M  V30 5642 H 522.775 2.5651 3.37607 0
M  V30 5643 C 521.234 1.09086 3.1875 0
M  V30 5644 O 521.764 0.351985 4.00155 0
M  V30 5645 N 519.97 0.874693 2.77124 0
M  V30 5646 H 519.517 1.47726 2.11033 0
M  V30 5647 H 519.475 0.0903349 3.1427 0
M  V30 5648 N 523.247 -0.488276 1.49845 0
M  V30 5649 C 524.18 -1.60651 1.62069 0
M  V30 5650 C 525.158 -1.5568 0.469308 0
M  V30 5651 O 526.342 -1.75553 0.686551 0
M  V30 5652 C 523.469 -2.99197 1.58741 0
M  V30 5653 C 522.515 -3.22385 2.79232 0
M  V30 5654 S 523.348 -3.04133 4.40753 0
M  V30 5655 C 524.504 -4.45052 4.4009 0
M  V30 5656 H 524.737 -1.50039 2.56662 0
M  V30 5657 H 522.27 -0.674371 1.38894 0
M  V30 5658 H 524.228 -3.79081 1.57506 0
M  V30 5659 H 522.889 -3.07213 0.654136 0
M  V30 5660 H 522.082 -4.23557 2.73159 0
M  V30 5661 H 521.684 -2.50245 2.77945 0
M  V30 5662 H 523.976 -5.37375 4.12594 0
M  V30 5663 H 524.919 -4.56172 5.41583 0
M  V30 5664 H 525.327 -4.26327 3.70008 0
M  V30 5665 N 524.725 -1.39134 -0.740242 0
M  V30 5666 C 525.635 -1.39697 -1.88473 0
M  V30 5667 C 526.651 -0.292403 -1.71526 0
M  V30 5668 O 527.827 -0.533021 -1.94219 0
M  V30 5669 C 524.892 -1.23382 -3.24003 0
M  V30 5670 C 523.953 -2.43763 -3.53381 0
M  V30 5671 C 523.186 -2.28216 -4.82445 0
M  V30 5672 O 523.409 -1.28288 -5.55786 0
M  V30 5673 O 522.343 -3.1709 -5.11603 0
M  V30 5674 H 526.169 -2.36159 -1.90952 0
M  V30 5675 H 523.754 -1.20194 -0.887346 0
M  V30 5676 H 525.636 -1.16395 -4.05006 0
M  V30 5677 H 524.311 -0.300121 -3.22306 0
M  V30 5678 H 523.218 -2.56325 -2.72485 0
M  V30 5679 H 524.551 -3.35808 -3.59852 0
M  V30 5680 N 526.204 0.969867 -1.24223 0
M  V30 5681 C 527.429 1.75289 -1.10853 0
M  V30 5682 C 527.854 1.85091 0.335079 0
M  V30 5683 O 527.212 1.32024 1.24255 0
M  V30 5684 C 527.26 3.15255 -1.75062 0
M  V30 5685 O 526.364 3.99589 -1.01992 0
M  V30 5686 H 525.705 0.538904 -0.387915 0
M  V30 5687 H 528.235 1.21675 -1.64488 0
M  V30 5688 H 528.245 3.65787 -1.80731 0
M  V30 5689 H 526.92 3.07436 -2.801 0
M  V30 5690 H 525.497 3.58077 -1.04094 0
M  V30 5691 N 527.682 1.05563 1.17022 0
M  V30 5692 C 528.907 0.788437 1.91829 0
M  V30 5693 C 529.332 -0.650356 1.76499 0
M  V30 5694 O 528.69 -1.45229 1.08527 0
M  V30 5695 C 528.738 1.1786 3.40795 0
M  V30 5696 O 527.842 0.312965 4.11211 0
M  V30 5697 H 527.183 0.288794 0.597908 0
M  V30 5698 H 529.713 1.40948 1.48307 0
M  V30 5699 H 529.723 1.14697 3.91546 0
M  V30 5700 H 528.398 2.22666 3.51273 0
M  V30 5701 H 526.975 0.405515 3.70689 0
M  V30 5702 N 529.16 -1.33526 0.837174 0
M  V30 5703 C 530.09 -2.31764 0.284206 0
M  V30 5704 C 531.071 -1.58896 -0.607142 0
M  V30 5705 O 532.256 -1.86798 -0.531047 0
M  V30 5706 C 529.386 -3.43029 -0.542962 0
M  V30 5707 C 528.34 -4.27255 0.252451 0
M  V30 5708 C 527.666 -5.3012 -0.69836 0
M  V30 5709 C 528.966 -5.01229 1.46858 0
M  V30 5710 H 530.66 -2.78262 1.10502 0
M  V30 5711 H 528.206 -1.3378 0.532812 0
M  V30 5712 H 530.159 -4.1078 -0.940096 0
M  V30 5713 H 528.883 -2.95216 -1.39697 0
M  V30 5714 H 527.542 -3.61127 0.631124 0
M  V30 5715 H 527.19 -4.78564 -1.54872 0
M  V30 5716 H 526.89 -5.87353 -0.170274 0
M  V30 5717 H 528.414 -6.00737 -1.09305 0
M  V30 5718 H 529.828 -5.61756 1.14469 0
M  V30 5719 H 528.225 -5.68104 1.93333 0
M  V30 5720 H 529.295 -4.301 2.23924 0
M  V30 5721 O 530.677 -0.734023 -1.43855 0
M  V30 5722 H 531.368 -0.285275 -1.91588 0
M  V30 END ATOM
M  V30 BEGIN BOND
M  V30 END BOND
M  V30 END CTAB
M  END
$$$$
