drugbank_target|P02749 Beta-2-glycoprotein 1 (DB05446; DB09130)
 OpenBabel12092120263D

  0  0  0     0  0            999 V3000
M  V30 BEGIN CTAB
M  V30 COUNTS 5323 5404 0 0 0
M  V30 BEGIN ATOM
M  V30 1 H -0.908 1.98254 -0.117106 0
M  V30 2 N 0 1.576 0 0
M  V30 3 C 0.933 2.03868 1.02534 0
M  V30 4 C 1.911 0.928543 1.3348 0
M  V30 5 O 3.095 1.19667 1.45644 0
M  V30 6 C 0.222 2.43627 2.35294 0
M  V30 7 C -0.732 3.65373 2.2001 0
M  V30 8 S 0.101 5.13292 1.52614 0
M  V30 9 C 1.257 5.56322 2.86805 0
M  V30 10 H 1.49 2.90518 0.631377 0
M  V30 11 H -0.977 1.52953 0.210867 0
M  V30 12 H 0.981 2.67203 3.11629 0
M  V30 13 H -0.358 1.57376 2.7183 0
M  V30 14 H -1.165 3.90944 3.18086 0
M  V30 15 H -1.563 3.418 1.51819 0
M  V30 16 H 0.729 5.58782 3.83104 0
M  V30 17 H 1.672 6.56266 2.65933 0
M  V30 18 H 2.08 4.83886 2.90714 0
M  V30 19 N 1.4781 -0.272755 1.55222 0
M  V30 20 C 2.7271 -1.00211 1.75045 0
M  V30 21 C 3.0401 -1.87441 0.559046 0
M  V30 22 O 4.2461 -2.63856 0.639698 0
M  V30 23 C 2.7021 -1.83165 3.09804 0
M  V30 24 C 2.3101 -1.008 4.36513 0
M  V30 25 C 4.0541 -2.55529 3.38977 0
M  V30 26 C 1.9611 -1.83194 5.62311 0
M  V30 27 H 0.8911 -0.377878 0.652476 0
M  V30 28 H 3.5421 -0.257776 1.8168 0
M  V30 29 H 1.9241 -2.61694 2.97207 0
M  V30 30 H 3.0981 -0.266855 4.60027 0
M  V30 31 H 1.4131 -0.398897 4.14485 0
M  V30 32 H 4.0101 -3.17578 4.30172 0
M  V30 33 H 4.3531 -3.25825 2.59121 0
M  V30 34 H 4.8861 -1.84029 3.52673 0
M  V30 35 H 1.6251 -1.17318 6.44916 0
M  V30 36 H 1.1451 -2.54905 5.4294 0
M  V30 37 H 2.8241 -2.40552 6.00619 0
M  V30 38 N 2.9562 -1.48159 -0.537278 0
M  V30 39 C 4.1812 -1.59707 -1.32319 0
M  V30 40 C 4.6062 -0.254859 -1.86365 0
M  V30 41 O 3.9642 0.772378 -1.64024 0
M  V30 42 C 4.0122 -2.6412 -2.45505 0
M  V30 43 O 3.1162 -2.20774 -3.48328 0
M  V30 44 H 2.4572 -0.535791 -0.392204 0
M  V30 45 H 4.9872 -1.94092 -0.647268 0
M  V30 46 H 4.9972 -2.85166 -2.91795 0
M  V30 47 H 3.6722 -3.61567 -2.05528 0
M  V30 48 H 2.2492 -2.09911 -3.08207 0
M  V30 49 N 4.4343 0.785586 -1.36625 0
M  V30 50 C 5.8453 1.36101 -1.27803 0
M  V30 51 C 6.1963 1.96035 0.0804875 0
M  V30 52 O 5.3213 1.92834 0.982042 0
M  V30 53 C 5.9163 2.47442 -2.31426 0
M  V30 54 C 4.4753 3.00789 -2.26281 0
M  V30 55 C 3.6223 1.73896 -2.15999 0
M  V30 56 H 6.5733 0.586928 -1.47448 0
M  V30 57 H 6.5943 3.2656 -1.95291 0
M  V30 58 H 6.1063 2.03791 -3.30289 0
M  V30 59 H 4.2073 3.48851 -1.30896 0
M  V30 60 H 4.3203 3.57343 -3.19128 0
M  V30 61 H 2.6843 1.9628 -1.62316 0
M  V30 62 H 3.4673 1.32368 -3.16755 0
M  V30 63 N 5.9124 1.20967 1.01018 0
M  V30 64 C 7.1584 1.02526 1.74975 0
M  V30 65 C 7.4914 -0.4408 1.89131 0
M  V30 66 O 6.7664 -1.32718 1.42184 0
M  V30 67 C 7.0494 1.71699 3.1653 0
M  V30 68 C 6.9024 3.25791 3.10129 0
M  V30 69 C 8.2214 1.45531 4.15342 0
M  V30 70 H 5.3404 0.373863 0.635134 0
M  V30 71 H 7.9824 1.49071 1.17805 0
M  V30 72 H 6.1324 1.32128 3.65341 0
M  V30 73 H 7.8044 3.74697 2.69072 0
M  V30 74 H 6.0474 3.56363 2.47362 0
M  V30 75 H 6.7184 3.69353 4.10222 0
M  V30 76 H 9.1944 1.79872 3.75213 0
M  V30 77 H 8.0704 1.96453 5.1254 0
M  V30 78 H 8.3314 0.384237 4.40427 0
M  V30 79 N 7.3905 -1.2043 1.01659 0
M  V30 80 C 8.3205 -2.25466 0.607226 0
M  V30 81 C 9.3015 -1.65853 -0.377716 0
M  V30 82 O 10.4865 -1.92409 -0.263149 0
M  V30 83 C 7.6165 -3.47256 -0.0552949 0
M  V30 84 C 6.5705 -4.19462 0.850632 0
M  V30 85 C 5.8965 -5.34673 0.0538859 0
M  V30 86 C 7.1965 -4.75603 2.15868 0
M  V30 87 H 8.8905 -2.59962 1.48526 0
M  V30 88 H 6.4365 -1.2496 0.715605 0
M  V30 89 H 8.3895 -4.19917 -0.353233 0
M  V30 90 H 7.1135 -3.11924 -0.968045 0
M  V30 91 H 5.7725 -3.48667 1.13257 0
M  V30 92 H 5.4205 -4.95585 -0.860514 0
M  V30 93 H 5.1205 -5.83913 0.657192 0
M  V30 94 H 6.6445 -6.10138 -0.237598 0
M  V30 95 H 8.0585 -5.40083 1.92311 0
M  V30 96 H 6.4555 -5.3528 2.71284 0
M  V30 97 H 7.5255 -3.94346 2.82169 0
M  V30 98 N 8.8686 -0.792821 -1.36206 0
M  V30 99 C 10.1176 -0.363353 -1.984 0
M  V30 100 C 10.4306 1.07172 -1.63626 0
M  V30 101 O 11.6366 1.60362 -2.19081 0
M  V30 102 C 10.0926 -0.59872 -3.54885 0
M  V30 103 C 9.7006 -2.04543 -3.9858 0
M  V30 104 C 11.4446 -0.233926 -4.23855 0
M  V30 105 C 9.3516 -2.22727 -5.47856 0
M  V30 106 H 8.2816 -0.13212 -0.742334 0
M  V30 107 H 10.9326 -0.974935 -1.55458 0
M  V30 108 H 9.3146 0.0826222 -3.95914 0
M  V30 109 H 10.4886 -2.76345 -3.68741 0
M  V30 110 H 8.8036 -2.36879 -3.42458 0
M  V30 111 H 11.4006 -0.348027 -5.33566 0
M  V30 112 H 11.7436 0.818351 -4.08177 0
M  V30 113 H 12.2766 -0.868639 -3.882 0
M  V30 114 H 9.0156 -3.2635 -5.68486 0
M  V30 115 H 8.5356 -1.55434 -5.7931 0
M  V30 116 H 10.2146 -2.03607 -6.14128 0
M  V30 117 N 10.3467 1.47872 -0.545128 0
M  V30 118 C 11.2767 2.32661 0.197793 0
M  V30 119 C 12.2577 1.43041 0.920504 0
M  V30 120 O 13.4427 1.71912 0.90333 0
M  V30 121 C 10.5727 3.24569 1.23582 0
M  V30 122 C 9.5267 4.23333 0.630323 0
M  V30 123 C 8.8527 5.0448 1.77211 0
M  V30 124 C 10.1527 5.20704 -0.407974 0
M  V30 125 H 11.8467 2.95024 -0.510045 0
M  V30 126 H 9.3927 1.4187 -0.246731 0
M  V30 127 H 11.3457 3.8272 1.76362 0
M  V30 128 H 10.0697 2.60236 1.97344 0
M  V30 129 H 8.7287 3.6639 0.123922 0
M  V30 130 H 8.3767 4.36561 2.49847 0
M  V30 131 H 8.0767 5.71339 1.37281 0
M  V30 132 H 9.6007 5.65487 2.3034 0
M  V30 133 H 11.0147 5.7329 0.033305 0
M  V30 134 H 9.4117 5.95699 -0.725486 0
M  V30 135 H 10.4817 4.66917 -1.30828 0
M  V30 136 N 11.8248 0.280983 1.55075 0
M  V30 137 C 13.0718 -0.334115 1.99725 0
M  V30 138 C 13.3998 -1.5542 1.1694 0
M  V30 139 O 12.6548 -1.94361 0.228531 0
M  V30 140 C 12.9538 -0.754656 3.49342 0
M  V30 141 C 12.6198 0.361445 4.49449 0
M  V30 142 C 11.2818 0.667893 4.76542 0
M  V30 143 C 13.6338 1.11322 5.09173 0
M  V30 144 C 10.9618 1.7296 5.60626 0
M  V30 145 C 13.3138 2.1647 5.9441 0
M  V30 146 C 11.9778 2.47742 6.19822 0
M  V30 147 H 11.2478 -0.122261 0.730844 0
M  V30 148 H 13.8948 0.395917 1.87363 0
M  V30 149 H 12.1998 -1.56446 3.5921 0
M  V30 150 H 13.8968 -1.24142 3.813 0
M  V30 151 H 10.4868 0.112481 4.28452 0
M  V30 152 H 14.6708 0.88973 4.8826 0
M  V30 153 H 9.9268 1.97684 5.78559 0
M  V30 154 H 14.1008 2.75193 6.3972 0
M  V30 155 H 11.7278 3.30145 6.84769 0
M  V30 156 N 13.3029 -1.57598 0.00835791 0
M  V30 157 C 14.5279 -1.95617 -0.689103 0
M  V30 158 C 14.9529 -0.883753 -1.66046 0
M  V30 159 O 14.3109 0.157352 -1.80616 0
M  V30 160 C 14.3589 -3.32736 -1.38994 0
M  V30 161 O 13.4629 -3.27631 -2.50463 0
M  V30 162 H 12.8039 -0.638379 -0.182668 0
M  V30 163 H 15.3339 -2.045 0.064036 0
M  V30 164 H 15.3439 -3.68494 -1.75147 0
M  V30 165 H 14.0189 -4.1034 -0.677778 0
M  V30 166 H 12.5959 -3.03561 -2.16576 0
M  V30 167 N 14.781 0.264519 -1.55364 0
M  V30 168 C 16.006 1.01726 -1.80739 0
M  V30 169 C 16.431 1.78836 -0.583044 0
M  V30 170 O 15.789 1.75167 0.467566 0
M  V30 171 C 15.837 1.94482 -3.03659 0
M  V30 172 O 14.941 3.03386 -2.7934 0
M  V30 173 H 14.282 0.290395 -0.597132 0
M  V30 174 H 16.812 0.290854 -2.02522 0
M  V30 175 H 16.822 2.36278 -3.32621 0
M  V30 176 H 15.497 1.37772 -3.92418 0
M  V30 177 H 14.074 2.65844 -2.61498 0
M  V30 178 N 16.2591 1.48442 0.529413 0
M  V30 179 C 17.5061 1.56488 1.28521 0
M  V30 180 C 17.8341 0.239042 1.93025 0
M  V30 181 O 17.0891 -0.770713 1.79885 0
M  V30 182 C 17.3881 2.6523 2.39558 0
M  V30 183 C 17.0541 4.07648 1.92702 0
M  V30 184 C 15.7161 4.46411 1.79641 0
M  V30 185 C 18.0681 4.96896 1.573 0
M  V30 186 C 15.3961 5.72226 1.29514 0
M  V30 187 C 17.7481 6.23202 1.08636 0
M  V30 188 C 16.4121 6.60821 0.941919 0
M  V30 189 H 15.6821 0.572631 0.470292 0
M  V30 190 H 18.3291 1.82161 0.59072 0
M  V30 191 H 16.6341 2.33419 3.14679 0
M  V30 192 H 18.3311 2.68671 2.97686 0
M  V30 193 H 14.9211 3.77036 2.03819 0
M  V30 194 H 19.1051 4.67626 1.66251 0
M  V30 195 H 14.3611 6.00097 1.17019 0
M  V30 196 H 18.5351 6.91753 0.803136 0
M  V30 197 H 16.1621 7.58198 0.5513 0
M  V30 198 N 17.7372 -0.778329 1.37039 0
M  V30 199 C 18.6672 -1.90546 1.34962 0
M  V30 200 C 19.6482 -1.68681 0.219274 0
M  V30 201 O 20.8332 -1.89634 0.418624 0
M  V30 202 C 17.9632 -3.27734 1.14925 0
M  V30 203 C 16.9172 -3.64147 2.24902 0
M  V30 204 C 16.2432 -4.99806 1.89996 0
M  V30 205 C 17.5432 -3.71579 3.67051 0
M  V30 206 H 19.2372 -1.92541 2.29277 0
M  V30 207 H 16.7832 -0.924948 1.10366 0
M  V30 208 H 18.7362 -4.06215 1.12104 0
M  V30 209 H 17.4602 -3.26154 0.170631 0
M  V30 210 H 16.1192 -2.8797 2.26868 0
M  V30 211 H 15.7672 -4.94759 0.906796 0
M  V30 212 H 15.4672 -5.25139 2.63634 0
M  V30 213 H 16.9912 -5.80694 1.88749 0
M  V30 214 H 18.4052 -4.40227 3.67251 0
M  V30 215 H 16.8022 -4.08405 4.39688 0
M  V30 216 H 17.8722 -2.72404 4.01154 0
M  V30 217 N 19.2153 -1.21501 -1.00376 0
M  V30 218 C 20.4553 -1.04444 -1.75701 0
M  V30 219 C 20.8193 0.414644 -1.87469 0
M  V30 220 O 22.0203 0.705763 -2.59369 0
M  V30 221 C 20.2913 -1.72389 -3.13077 0
M  V30 222 S 21.8503 -1.70604 -4.04277 0
M  V30 223 H 18.6683 -0.374249 -0.604532 0
M  V30 224 H 21.2703 -1.54267 -1.20091 0
M  V30 225 H 19.9743 -2.77734 -3.02146 0
M  V30 226 H 19.5053 -1.22751 -3.73759 0
M  V30 227 H 21.5203 -0.748012 -4.9053 0
M  V30 228 N 20.6934 1.19889 -1.02296 0
M  V30 229 C 21.6434 2.20777 -0.56934 0
M  V30 230 C 22.6274 1.56379 0.378741 0
M  V30 231 O 23.8194 1.75859 0.200673 0
M  V30 232 C 20.9484 3.43196 0.0845077 0
M  V30 233 C 20.0344 4.14749 -0.88566 0
M  V30 234 N 20.4254 4.62584 -2.04573 0
M  V30 235 C 18.7234 4.40347 -0.707835 0
M  V30 236 C 19.4244 5.17466 -2.65714 0
M  V30 237 N 18.4004 5.0791 -1.93723 0
M  V30 238 H 22.2024 2.55434 -1.45365 0
M  V30 239 H 19.7164 1.35897 -0.88915 0
M  V30 240 H 21.7134 4.14707 0.427067 0
M  V30 241 H 20.3734 3.10042 0.964574 0
M  V30 242 H 21.3844 4.57597 -2.4254 0
M  V30 243 H 18.0614 4.17317 0.12364 0
M  V30 244 H 19.4514 5.64808 -3.63925 0
M  V30 245 N 22.1715 0.800033 1.35784 0
M  V30 246 C 23.4175 0.377901 1.99248 0
M  V30 247 C 23.7505 -1.05052 1.63333 0
M  V30 248 O 23.0255 -1.72768 0.893385 0
M  V30 249 C 23.3085 0.553922 3.55814 0
M  V30 250 C 23.1615 2.0268 4.01548 0
M  V30 251 C 24.4805 -0.0244802 4.40093 0
M  V30 252 H 21.5995 0.138782 0.723815 0
M  V30 253 H 24.2415 1.00835 1.61035 0
M  V30 254 H 22.3915 0.0172398 3.88496 0
M  V30 255 H 24.0635 2.62536 3.79305 0
M  V30 256 H 22.3065 2.5256 3.52698 0
M  V30 257 H 22.9775 2.10087 5.10458 0
M  V30 258 H 25.4535 0.433775 4.13833 0
M  V30 259 H 24.3295 0.128637 5.48749 0
M  V30 260 H 24.5905 -1.11758 4.27741 0
M  V30 261 N 23.6496 -1.47581 0.552962 0
M  V30 262 C 24.6126 -2.28439 -0.186605 0
M  V30 263 C 25.6126 -1.36706 -0.84665 0
M  V30 264 O 26.8026 -1.59378 -0.703164 0
M  V30 265 C 23.9346 -3.16264 -1.2724 0
M  V30 266 H 25.1276 -2.95294 0.523609 0
M  V30 267 H 22.6806 -1.532 0.309745 0
M  V30 268 H 23.4156 -2.54091 -2.01514 0
M  V30 269 H 23.2006 -3.83769 -0.803968 0
M  V30 270 H 24.6906 -3.77198 -1.79196 0
M  V30 271 N 25.1277 -0.289203 -1.54924 0
M  V30 272 C 26.3767 0.324231 -1.99077 0
M  V30 273 C 26.6897 1.5591 -1.18117 0
M  V30 274 O 27.8957 2.24637 -1.52481 0
M  V30 275 C 26.3517 0.628209 -3.54375 0
M  V30 276 C 25.9597 -0.587647 -4.44129 0
M  V30 277 C 27.7037 1.20349 -4.07083 0
M  V30 278 C 25.6107 -0.257475 -5.90839 0
M  V30 279 H 24.5407 0.124924 -0.743579 0
M  V30 280 H 27.1917 -0.396063 -1.79175 0
M  V30 281 H 25.5737 1.40778 -3.70132 0
M  V30 282 H 26.7477 -1.36418 -4.40144 0
M  V30 283 H 25.0627 -1.08074 -4.0213 0
M  V30 284 H 27.6597 1.46456 -5.14252 0
M  V30 285 H 28.0027 2.14195 -3.56968 0
M  V30 286 H 28.5357 0.485889 -3.94821 0
M  V30 287 H 25.2747 -1.16419 -6.45079 0
M  V30 288 H 24.7947 0.482018 -5.9786 0
M  V30 289 H 26.4737 0.145238 -6.46837 0
M  V30 290 N 26.6058 1.57591 -0.0167156 0
M  V30 291 C 27.5688 2.08393 0.954204 0
M  V30 292 C 28.5688 0.996531 1.26198 0
M  V30 293 O 29.7588 1.25858 1.20438 0
M  V30 294 C 26.8908 2.5394 2.27436 0
M  V30 295 H 28.0838 2.95455 0.514451 0
M  V30 296 H 25.6368 1.54582 0.231089 0
M  V30 297 H 26.3718 1.70171 2.76066 0
M  V30 298 H 26.1568 3.33371 2.06412 0
M  V30 299 H 27.6468 2.93512 2.97053 0
M  V30 300 N 28.0839 -0.256276 1.55502 0
M  V30 301 C 29.3319 -0.983672 1.76545 0
M  V30 302 C 29.6529 -1.86206 0.578982 0
M  V30 303 O 28.9229 -1.91656 -0.405577 0
M  V30 304 H 27.5029 -0.366191 0.651086 0
M  V30 305 H 30.1649 -0.276479 1.92929 0
M  V30 306 H 29.2609 -1.61087 2.67315 0
M  V30 307 N 29.562 -1.4872 -0.521534 0
M  V30 308 C 30.978 -1.35028 -0.850855 0
M  V30 309 C 31.178 -0.367712 -1.98116 0
M  V30 310 O 30.234 0.208037 -2.51642 0
M  V30 311 C 31.547 -2.75263 -1.21041 0
M  V30 312 C 33.095 -2.83813 -1.31981 0
M  V30 313 C 33.57 -4.24769 -1.71276 0
M  V30 314 N 35.061 -4.27482 -1.78363 0
M  V30 315 C 35.796 -5.33494 -2.1017 0
M  V30 316 N 35.292 -6.49775 -2.40343 0
M  V30 317 N 37.085 -5.20894 -2.11248 0
M  V30 318 H 29.236 -2.11214 0.22413 0
M  V30 319 H 31.499 -0.947252 0.0376439 0
M  V30 320 H 31.205 -3.48765 -0.453415 0
M  V30 321 H 31.079 -3.09327 -2.15863 0
M  V30 322 H 33.466 -2.10561 -2.06756 0
M  V30 323 H 33.547 -2.53358 -0.352596 0
M  V30 324 H 33.191 -4.9854 -0.970588 0
M  V30 325 H 33.121 -4.52673 -2.69062 0
M  V30 326 H 35.612 -3.43611 -1.57288 0
M  V30 327 H 35.925 -7.26402 -2.63743 0
M  V30 328 H 34.27 -6.53035 -2.37844 0
M  V30 329 H 37.461 -4.29065 -1.87139 0
M  V30 330 H 37.634 -6.03612 -2.35704 0
M  V30 331 N 31.0401 0.771051 -1.3745 0
M  V30 332 C 32.2681 1.56015 -1.35893 0
M  V30 333 C 32.6831 1.88718 0.0555523 0
M  V30 334 O 32.0401 1.51502 1.01752 0
M  V30 335 C 32.0911 2.87001 -2.19801 0
M  V30 336 O 31.8121 2.557 -3.55738 0
M  V30 337 C 33.3131 3.81228 -2.26231 0
M  V30 338 H 30.5331 0.483317 -0.465453 0
M  V30 339 H 33.0771 0.955611 -1.80799 0
M  V30 340 H 31.2321 3.43877 -1.78402 0
M  V30 341 H 31.6461 3.39584 -3.99729 0
M  V30 342 H 33.1201 4.70139 -2.89263 0
M  V30 343 H 33.5971 4.20409 -1.27093 0
M  V30 344 H 34.2031 3.30281 -2.67945 0
M  V30 345 N 32.5182 1.22032 0.997298 0
M  V30 346 C 33.7582 1.05375 1.75144 0
M  V30 347 C 34.1222 -0.404696 1.87686 0
M  V30 348 O 35.3232 -0.691998 2.5974 0
M  V30 349 C 33.5942 1.74046 3.12158 0
M  V30 350 S 35.1532 1.72745 4.03366 0
M  V30 351 H 31.9712 0.377449 0.602539 0
M  V30 352 H 34.5732 1.54902 1.19272 0
M  V30 353 H 33.2772 2.79332 3.00669 0
M  V30 354 H 32.8082 1.24731 3.73103 0
M  V30 355 H 34.8232 0.774015 4.90126 0
M  V30 356 N 33.9963 -1.19345 1.0293 0
M  V30 357 C 35.4073 -1.70725 0.755633 0
M  V30 358 C 35.7583 -1.82326 -0.724676 0
M  V30 359 O 34.8833 -1.49471 -1.56484 0
M  V30 360 C 35.4783 -3.10084 1.36503 0
M  V30 361 C 34.0373 -3.58723 1.13994 0
M  V30 362 C 33.1843 -2.35577 1.46283 0
M  V30 363 H 36.1353 -1.0418 1.19718 0
M  V30 364 H 36.1563 -3.72787 0.762217 0
M  V30 365 H 35.6683 -3.01609 2.44241 0
M  V30 366 H 33.7693 -3.72512 0.0807901 0
M  V30 367 H 33.8823 -4.42816 1.82894 0
M  V30 368 H 32.2463 -2.38935 0.88217 0
M  V30 369 H 33.0293 -2.29731 2.55105 0
M  V30 370 N 35.4744 -0.807222 -1.35358 0
M  V30 371 C 36.4214 -0.216037 -2.29787 0
M  V30 372 C 37.3914 0.650278 -1.52842 0
M  V30 373 O 38.5764 0.595227 -1.81278 0
M  V30 374 C 35.7164 0.628893 -3.39321 0
M  V30 375 C 34.8294 -0.257927 -4.31229 0
M  V30 376 C 33.9644 0.595069 -5.27856 0
M  V30 377 C 33.0034 -0.292111 -6.11403 0
M  V30 378 N 32.1404 0.520895 -7.00165 0
M  V30 379 H 36.9804 -1.02671 -2.79755 0
M  V30 380 H 34.5174 -0.517839 -1.37684 0
M  V30 381 H 36.4754 1.13393 -4.01494 0
M  V30 382 H 35.1054 1.40482 -2.90628 0
M  V30 383 H 34.1574 -0.881076 -3.70056 0
M  V30 384 H 35.4694 -0.940759 -4.89848 0
M  V30 385 H 34.6234 1.16522 -5.95405 0
M  V30 386 H 33.3624 1.31146 -4.69736 0
M  V30 387 H 32.3674 -0.874525 -5.428 0
M  V30 388 H 33.5924 -1.00638 -6.71602 0
M  V30 389 H 31.5384 1.22125 -6.44532 0
M  V30 390 H 31.4554 -0.103877 -7.55929 0
M  V30 391 H 32.7234 1.0743 -7.72062 0
M  V30 392 N 36.9525 1.47285 -0.560781 0
M  V30 393 C 38.3635 1.86258 -0.128343 0
M  V30 394 C 38.7145 1.46699 1.30284 0
M  V30 395 O 37.8395 0.871698 1.98067 0
M  V30 396 C 38.4345 3.38044 -0.22614 0
M  V30 397 C 36.9935 3.76096 0.151283 0
M  V30 398 C 36.1405 2.71335 -0.572084 0
M  V30 399 H 39.0915 1.38752 -0.770297 0
M  V30 400 H 39.1125 3.76441 0.554322 0
M  V30 401 H 38.6245 3.66806 -1.26788 0
M  V30 402 H 36.7255 3.52951 1.19399 0
M  V30 403 H 36.8385 4.78641 -0.209765 0
M  V30 404 H 35.2025 2.54696 -0.0147653 0
M  V30 405 H 35.9855 3.02938 -1.61504 0
M  V30 406 N 38.4306 0.297415 1.54768 0
M  V30 407 C 39.7076 -0.365847 1.92148 0
M  V30 408 C 40.0876 -1.71975 1.22424 0
M  V30 409 O 39.4356 -2.25666 0.358739 0
M  V30 410 C 39.6456 -0.484056 3.45627 0
M  V30 411 C 40.9936 -0.756594 4.17805 0
M  V30 412 O 42.0176 -0.568007 3.51642 0
M  V30 413 O 40.8766 -1.11863 5.34929 0
M  V30 414 H 37.9706 -0.203919 0.801465 0
M  V30 415 H 40.5166 0.34521 1.66152 0
M  V30 416 H 39.2886 0.467865 3.88493 0
M  V30 417 H 38.9116 -1.24372 3.77647 0
M  V30 418 N 39.9087 -1.5758 0.0250728 0
M  V30 419 C 41.1857 -1.82917 -0.692873 0
M  V30 420 C 41.5657 -0.908137 -1.90568 0
M  V30 421 O 40.9137 0.0372298 -2.2847 0
M  V30 422 C 41.1237 -3.32034 -1.07492 0
M  V30 423 C 42.4717 -3.98406 -1.46826 0
M  V30 424 O 43.4957 -3.36505 -1.16801 0
M  V30 425 O 42.3547 -5.07497 -2.02754 0
M  V30 426 H 39.4487 -0.754079 -0.33955 0
M  V30 427 H 41.9947 -1.69619 0.0524456 0
M  V30 428 H 40.7667 -3.90728 -0.211552 0
M  V30 429 H 40.3897 -3.50424 -1.87854 0
M  V30 430 N 41.3868 0.248026 -1.55636 0
M  V30 431 C 42.3168 1.31079 -1.93237 0
M  V30 432 C 43.2978 1.50264 -0.797174 0
M  V30 433 O 44.4828 1.62891 -1.05737 0
M  V30 434 C 41.6128 2.66575 -2.22609 0
M  V30 435 C 40.5668 2.62087 -3.3837 0
M  V30 436 C 39.8928 4.01369 -3.53281 0
M  V30 437 C 41.1928 2.19171 -4.7409 0
M  V30 438 H 42.8868 0.998556 -2.82257 0
M  V30 439 H 40.4328 0.47891 -1.35803 0
M  V30 440 H 42.3858 3.41057 -2.47503 0
M  V30 441 H 41.1098 2.99432 -1.30414 0
M  V30 442 H 39.7688 1.90063 -3.13483 0
M  V30 443 H 39.4168 4.31489 -2.58508 0
M  V30 444 H 39.1168 3.99254 -4.31127 0
M  V30 445 H 40.6408 4.77552 -3.80495 0
M  V30 446 H 42.0548 2.83384 -4.98363 0
M  V30 447 H 40.4518 2.2817 -5.5503 0
M  V30 448 H 41.5218 1.14336 -4.71227 0
M  V30 449 N 42.8649 1.48995 0.513639 0
M  V30 450 C 44.2759 1.5119 1.09537 0
M  V30 451 C 44.6269 0.290906 1.94031 0
M  V30 452 O 43.7519 -0.60049 2.07902 0
M  V30 453 C 44.3469 2.73964 1.99322 0
M  V30 454 C 42.9059 2.78978 2.52682 0
M  V30 455 C 42.0529 2.44934 1.30009 0
M  V30 456 H 45.0039 1.55875 0.298125 0
M  V30 457 H 45.0249 2.53409 2.83838 0
M  V30 458 H 44.5369 3.62813 1.37799 0
M  V30 459 H 42.6379 1.94378 3.1788 0
M  V30 460 H 42.7509 3.8083 2.90698 0
M  V30 461 H 41.1149 1.9644 1.62122 0
M  V30 462 H 41.8979 3.36043 0.702131 0
M  V30 463 N 44.343 -0.763751 1.37857 0
M  V30 464 C 45.59 -1.52257 1.33506 0
M  V30 465 C 45.918 -1.94343 -0.078022 0
M  V30 466 O 45.173 -1.64958 -1.05297 0
M  V30 467 C 45.472 -2.79499 2.22745 0
M  V30 468 C 45.138 -2.56426 3.70886 0
M  V30 469 C 43.8 -2.49842 4.11257 0
M  V30 470 C 46.152 -2.36008 4.64704 0
M  V30 471 C 43.48 -2.20841 5.43549 0
M  V30 472 C 45.832 -2.0853 5.97242 0
M  V30 473 C 44.496 -2.00396 6.36709 0
M  V30 474 H 43.766 -0.557149 0.488534 0
M  V30 475 H 46.413 -0.879073 1.70131 0
M  V30 476 H 44.718 -3.48447 1.79142 0
M  V30 477 H 46.415 -3.37413 2.16688 0
M  V30 478 H 43.005 -2.62416 3.38874 0
M  V30 479 H 47.189 -2.40079 4.34368 0
M  V30 480 H 42.445 -2.13045 5.73081 0
M  V30 481 H 46.619 -1.91732 6.69486 0
M  V30 482 H 44.246 -1.77688 7.39142 0
M  V30 483 N 45.8211 -1.22559 -0.990812 0
M  V30 484 C 47.0461 -1.07862 -1.77145 0
M  V30 485 C 47.4711 0.366447 -1.84496 0
M  V30 486 O 46.8291 1.26478 -1.29896 0
M  V30 487 C 46.8771 -1.69686 -3.18181 0
M  V30 488 O 45.9811 -0.951946 -4.01263 0
M  V30 489 H 45.3221 -0.378712 -0.545411 0
M  V30 490 H 47.8521 -1.62399 -1.2445 0
M  V30 491 H 47.8621 -1.74496 -3.68802 0
M  V30 492 H 46.5371 -2.74841 -3.12146 0
M  V30 493 H 45.1141 -0.980011 -3.59792 0
M  V30 494 N 47.2992 1.18797 -1.03562 0
M  V30 495 C 48.5272 1.92599 -0.755869 0
M  V30 496 C 48.9422 1.75886 0.686271 0
M  V30 497 O 48.2992 1.08517 1.46732 0
M  V30 498 C 48.3502 3.44159 -1.10619 0
M  V30 499 O 48.0712 3.60341 -2.4917 0
M  V30 500 C 49.5722 4.3507 -0.850214 0
M  V30 501 H 46.7922 0.611587 -0.276048 0
M  V30 502 H 49.3362 1.50742 -1.38192 0
M  V30 503 H 47.4912 3.83823 -0.525194 0
M  V30 504 H 47.9052 4.54128 -2.62427 0
M  V30 505 H 49.3792 5.39989 -1.14523 0
M  V30 506 H 49.8562 4.38673 0.215176 0
M  V30 507 H 50.4622 4.01097 -1.41426 0
M  V30 508 N 48.7773 0.814389 1.34928 0
M  V30 509 C 50.0233 0.399013 1.98836 0
M  V30 510 C 50.3563 -1.03314 1.64438 0
M  V30 511 O 49.6313 -1.71811 0.911659 0
M  V30 512 C 49.9143 0.591629 3.55207 0
M  V30 513 C 49.7673 2.06928 3.99376 0
M  V30 514 C 51.0863 0.022199 4.40094 0
M  V30 515 H 48.2053 0.146451 0.722303 0
M  V30 516 H 50.8473 1.02537 1.59957 0
M  V30 517 H 48.9973 0.0584441 3.88456 0
M  V30 518 H 50.6693 2.66544 3.76499 0
M  V30 519 H 48.9123 2.56287 3.49999 0
M  V30 520 H 49.5833 2.1549 5.08201 0
M  V30 521 H 52.0593 0.477643 4.13349 0
M  V30 522 H 50.9353 0.186832 5.48582 0
M  V30 523 H 51.1963 -1.07215 4.28902 0
M  V30 524 N 50.2554 -1.46986 0.568584 0
M  V30 525 C 51.5014 -2.02741 0.0488709 0
M  V30 526 C 51.8344 -1.44077 -1.30214 0
M  V30 527 O 51.1094 -0.600552 -1.84996 0
M  V30 528 C 51.3924 -3.60086 -0.032047 0
M  V30 529 C 51.2454 -4.29162 1.34686 0
M  V30 530 C 52.5644 -4.33838 -0.739798 0
M  V30 531 H 49.6834 -0.736749 0.0192338 0
M  V30 532 H 52.3254 -1.75289 0.733065 0
M  V30 533 H 50.4754 -3.83606 -0.61473 0
M  V30 534 H 52.1474 -4.16948 1.97362 0
M  V30 535 H 50.3904 -3.89073 1.91846 0
M  V30 536 H 51.0614 -5.37826 1.24285 0
M  V30 537 H 53.5374 -4.15378 -0.244939 0
M  V30 538 H 52.4134 -5.43537 -0.765406 0
M  V30 539 H 52.6744 -4.03875 -1.79827 0
M  V30 540 N 51.7335 -0.305618 -1.54608 0
M  V30 541 C 53.1445 0.186098 -1.8577 0
M  V30 542 C 53.4955 1.53058 -1.22751 0
M  V30 543 O 52.6205 2.09888 -0.526893 0
M  V30 544 C 53.2155 0.344449 -3.37044 0
M  V30 545 C 51.7745 0.780384 -3.68221 0
M  V30 546 C 50.9215 -0.108554 -2.77087 0
M  V30 547 H 53.8725 -0.526485 -1.49712 0
M  V30 548 H 53.8935 1.17828 -3.61796 0
M  V30 549 H 53.4055 -0.634235 -3.82883 0
M  V30 550 H 51.5065 1.76945 -3.27904 0
M  V30 551 H 51.6195 0.596572 -4.75371 0
M  V30 552 H 49.9835 0.412931 -2.5133 0
M  V30 553 H 50.7665 -1.08368 -3.25747 0
M  V30 554 N 53.2116 1.57565 -0.0334293 0
M  V30 555 C 54.1416 2.13511 0.945265 0
M  V30 556 C 55.1226 1.05231 1.33643 0
M  V30 557 O 56.3076 1.33084 1.41429 0
M  V30 558 C 53.4376 2.6657 2.22616 0
M  V30 559 C 52.3916 3.79676 1.97561 0
M  V30 560 C 51.7176 4.1918 3.31952 0
M  V30 561 C 53.0176 5.0557 1.31135 0
M  V30 562 H 54.7116 2.95538 0.479325 0
M  V30 563 H 52.2576 1.42166 0.229115 0
M  V30 564 H 54.2106 3.04344 2.91466 0
M  V30 565 H 52.9346 1.8171 2.71384 0
M  V30 566 H 51.5936 3.42347 1.31127 0
M  V30 567 H 51.2416 3.31296 3.78487 0
M  V30 568 H 50.9416 4.95402 3.15992 0
M  V30 569 H 52.4656 4.59541 4.02063 0
M  V30 570 H 53.8796 5.40903 1.89992 0
M  V30 571 H 52.2766 5.86818 1.25559 0
M  V30 572 H 53.3466 4.84062 0.284894 0
M  V30 573 N 54.6897 -0.239769 1.55765 0
M  V30 574 C 55.6367 -1.29696 1.90913 0
M  V30 575 C 56.6067 -1.47478 0.764164 0
M  V30 576 O 57.7917 -1.61345 1.01845 0
M  V30 577 C 54.9317 -2.64598 2.21544 0
M  V30 578 C 54.0447 -2.54765 3.48882 0
M  V30 579 C 53.1797 -3.82069 3.69049 0
M  V30 580 C 52.2187 -3.66883 4.89963 0
M  V30 581 N 51.3557 -4.86094 5.06614 0
M  V30 582 H 56.1957 -0.990224 2.81067 0
M  V30 583 H 53.7327 -0.477684 1.39128 0
M  V30 584 H 55.6907 -3.43132 2.3731 0
M  V30 585 H 54.3207 -2.93405 1.34585 0
M  V30 586 H 53.3727 -1.67763 3.41409 0
M  V30 587 H 54.6847 -2.39457 4.37563 0
M  V30 588 H 53.8387 -4.69046 3.84812 0
M  V30 589 H 52.5777 -4.00282 2.78614 0
M  V30 590 H 51.5827 -2.78289 4.74168 0
M  V30 591 H 52.8077 -3.50157 5.81865 0
M  V30 592 H 50.7537 -5.04655 4.19117 0
M  V30 593 H 50.6707 -4.73443 5.89396 0
M  V30 594 H 51.9387 -5.74549 5.26795 0
M  V30 595 N 56.1678 -1.49265 -0.50573 0
M  V30 596 C 57.3958 -1.62215 -1.28429 0
M  V30 597 C 57.8108 -0.291697 -1.86533 0
M  V30 598 O 57.1678 0.722233 -1.67601 0
M  V30 599 C 57.2188 -2.68735 -2.41793 0
M  V30 600 O 56.9398 -3.96619 -1.86078 0
M  V30 601 C 58.4408 -2.92346 -3.3324 0
M  V30 602 H 55.6608 -0.546239 -0.389697 0
M  V30 603 H 58.2048 -1.95265 -0.607609 0
M  V30 604 H 56.3598 -2.38476 -3.053 0
M  V30 605 H 56.7738 -4.55256 -2.60465 0
M  V30 606 H 58.2478 -3.70623 -4.09075 0
M  V30 607 H 58.7248 -2.02081 -3.89948 0
M  V30 608 H 59.3308 -3.24003 -2.75503 0
M  V30 609 N 57.6459 0.756429 -1.3826 0
M  V30 610 C 58.8929 1.51547 -1.34312 0
M  V30 611 C 59.2209 1.94382 0.0677144 0
M  V30 612 O 58.4759 1.65514 1.04421 0
M  V30 613 C 58.7749 2.78313 -2.24224 0
M  V30 614 C 58.4409 2.54455 -3.72241 0
M  V30 615 C 57.1029 2.47657 -4.12576 0
M  V30 616 C 59.4549 2.3354 -4.65949 0
M  V30 617 C 56.7829 2.17956 -5.44713 0
M  V30 618 C 59.1349 2.05359 -5.9834 0
M  V30 619 C 57.7989 1.97016 -6.37762 0
M  V30 620 H 57.0689 0.55455 -0.491482 0
M  V30 621 H 59.7159 0.870039 -1.70595 0
M  V30 622 H 58.0209 3.47492 -1.80987 0
M  V30 623 H 59.7179 3.36259 -2.18474 0
M  V30 624 H 56.3079 2.60616 -3.40261 0
M  V30 625 H 60.4919 2.37772 -4.35635 0
M  V30 626 H 55.7479 2.10003 -5.74203 0
M  V30 627 H 59.9219 1.88179 -6.70494 0
M  V30 628 H 57.5489 1.73766 -7.40074 0
M  V30 629 N 59.124 1.23083 0.984299 0
M  V30 630 C 60.354 1.08556 1.75781 0
M  V30 631 C 60.762 -0.366171 1.85623 0
M  V30 632 O 60.105 -1.26524 1.33182 0
M  V30 633 C 60.167 1.63208 3.20318 0
M  V30 634 C 59.831 3.11922 3.33997 0
M  V30 635 C 60.828 4.09259 3.2063 0
M  V30 636 C 58.513 3.51552 3.58771 0
M  V30 637 C 60.507 5.4421 3.31835 0
M  V30 638 C 58.194 4.86649 3.69616 0
M  V30 639 C 59.192 5.82787 3.56157 0
M  V30 640 O 58.88 7.15431 3.66626 0
M  V30 641 H 58.612 0.380713 0.5586 0
M  V30 642 H 61.166 1.63321 1.2456 0
M  V30 643 H 59.396 1.0286 3.72769 0
M  V30 644 H 61.085 1.44216 3.79416 0
M  V30 645 H 61.851 3.79984 3.01392 0
M  V30 646 H 57.73 2.77239 3.6832 0
M  V30 647 H 61.274 6.1923 3.21247 0
M  V30 648 H 57.171 5.15601 3.88363 0
M  V30 649 H 57.939 7.23127 3.83445 0
M  V30 650 N 60.6021 -1.18246 1.0419 0
M  V30 651 C 61.5121 -2.25574 0.644476 0
M  V30 652 C 62.5281 -1.70845 -0.329826 0
M  V30 653 O 63.7041 -2.00554 -0.184443 0
M  V30 654 C 60.7691 -3.46697 0.014877 0
M  V30 655 C 59.8301 -4.16554 1.03834 0
M  V30 656 C 59.0631 -5.31894 0.438692 0
M  V30 657 O 59.2861 -5.65385 -0.754752 0
M  V30 658 O 58.2201 -5.90459 1.168 0
M  V30 659 H 62.0461 -2.61836 1.53869 0
M  V30 660 H 59.6311 -1.25352 0.812854 0
M  V30 661 H 61.5131 -4.20062 -0.335538 0
M  V30 662 H 60.1881 -3.12255 -0.853138 0
M  V30 663 H 59.0951 -3.45251 1.44057 0
M  V30 664 H 60.4281 -4.54998 1.87716 0
M  V30 665 N 62.0802 -0.821533 -1.34494 0
M  V30 666 C 63.4912 -0.467956 -1.8074 0
M  V30 667 C 63.8422 1.01151 -1.68116 0
M  V30 668 O 62.9672 1.78707 -1.22036 0
M  V30 669 C 63.5622 -0.842627 -3.28154 0
M  V30 670 C 62.1212 -0.541439 -3.72485 0
M  V30 671 C 61.2682 -1.06028 -2.56229 0
M  V30 672 H 64.2192 -1.01183 -1.22261 0
M  V30 673 H 64.2402 -0.145876 -3.8022 0
M  V30 674 H 63.7522 -1.91945 -3.37311 0
M  V30 675 H 61.8532 0.526034 -3.68868 0
M  V30 676 H 61.9662 -1.08453 -4.66663 0
M  V30 677 H 60.3302 -0.481892 -2.501 0
M  V30 678 H 61.1132 -2.14352 -2.68157 0
M  V30 679 N 63.5583 1.46682 -0.576371 0
M  V30 680 C 64.8063 2.02013 -0.0594163 0
M  V30 681 C 65.1273 1.45101 1.30271 0
M  V30 682 O 64.3973 0.633317 1.8538 0
M  V30 683 H 62.9773 0.746759 -0.0189745 0
M  V30 684 H 65.6393 1.79862 -0.750717 0
M  V30 685 H 64.7353 3.12097 0.014345 0
M  V30 686 N 65.0364 0.313813 1.54444 0
M  V30 687 C 65.9464 -0.565714 2.27677 0
M  V30 688 C 66.9624 -1.13754 1.31666 0
M  V30 689 O 68.1384 -1.15959 1.64668 0
M  V30 690 C 65.2034 -1.71528 3.01296 0
M  V30 691 C 64.2644 -1.17624 4.12872 0
M  V30 692 C 63.4974 -2.27102 4.8297 0
M  V30 693 O 63.7204 -3.47256 4.52514 0
M  V30 694 O 62.6544 -1.9307 5.70094 0
M  V30 695 H 66.4804 0.0287296 3.03686 0
M  V30 696 H 64.0654 0.0798312 1.49187 0
M  V30 697 H 65.9474 -2.38476 3.4743 0
M  V30 698 H 64.6224 -2.29608 2.2817 0
M  V30 699 H 63.5294 -0.472124 3.71109 0
M  V30 700 H 64.8624 -0.640695 4.88012 0
M  V30 701 N 66.5145 -1.57545 0.0417849 0
M  V30 702 C 67.4245 -2.14451 -0.951213 0
M  V30 703 C 68.4405 -1.09992 -1.34825 0
M  V30 704 O 69.6165 -1.42114 -1.42708 0
M  V30 705 C 66.6815 -2.67063 -2.21084 0
M  V30 706 C 65.7425 -3.86284 -1.87304 0
M  V30 707 C 64.9755 -4.36378 -3.07261 0
M  V30 708 O 65.1985 -3.85587 -4.20332 0
M  V30 709 O 64.1325 -5.28077 -2.88822 0
M  V30 710 H 67.9585 -2.99601 -0.497287 0
M  V30 711 H 65.5435 -1.48317 -0.179567 0
M  V30 712 H 67.4255 -3.00914 -2.95006 0
M  V30 713 H 66.1005 -1.84989 -2.65633 0
M  V30 714 H 65.0075 -3.57338 -1.10727 0
M  V30 715 H 66.3405 -4.6956 -1.47562 0
M  V30 716 N 67.9926 0.231505 -1.5589 0
M  V30 717 C 69.2416 0.955346 -1.7764 0
M  V30 718 C 69.5546 1.85893 -0.608546 0
M  V30 719 O 70.7606 2.62067 -0.70943 0
M  V30 720 C 69.2166 1.74886 -3.14552 0
M  V30 721 C 68.8246 0.891915 -4.39032 0
M  V30 722 C 70.5686 2.46452 -3.45633 0
M  V30 723 C 68.4756 1.68221 -5.66971 0
M  V30 724 H 67.4056 0.360446 -0.662265 0
M  V30 725 H 70.0566 0.209516 -1.823 0
M  V30 726 H 68.4386 2.53723 -3.04041 0
M  V30 727 H 69.6126 0.144793 -4.60572 0
M  V30 728 H 67.9276 0.288863 -4.15397 0
M  V30 729 H 70.5246 3.06061 -4.38441 0
M  V30 730 H 70.8676 3.18841 -2.67668 0
M  V30 731 H 71.4006 1.74613 -3.57428 0
M  V30 732 H 68.1396 1.00178 -6.478 0
M  V30 733 H 67.6596 2.4042 -5.49507 0
M  V30 734 H 69.3386 2.24544 -6.06786 0
M  V30 735 N 69.4707 1.49531 0.497807 0
M  V30 736 C 70.6987 1.62893 1.27567 0
M  V30 737 C 71.1137 0.301585 1.86376 0
M  V30 738 O 70.4707 -0.713335 1.67982 0
M  V30 739 C 70.5217 2.70013 2.40364 0
M  V30 740 O 70.2427 3.976 1.83972 0
M  V30 741 C 71.7437 2.94109 3.31685 0
M  V30 742 H 68.9637 0.548298 0.386794 0
M  V30 743 H 71.5077 1.95584 0.597245 0
M  V30 744 H 69.6627 2.40092 3.04031 0
M  V30 745 H 70.0767 4.56631 2.58047 0
M  V30 746 H 71.5507 3.72788 4.07104 0
M  V30 747 H 72.0277 2.04147 3.88871 0
M  V30 748 H 72.6337 3.2546 2.73781 0
M  V30 749 N 70.9488 -0.749086 1.3866 0
M  V30 750 C 72.1788 -1.53611 1.38157 0
M  V30 751 C 72.5868 -1.89177 -0.0293595 0
M  V30 752 O 71.9298 -1.53606 -1.00752 0
M  V30 753 C 71.9918 -2.86087 2.17702 0
M  V30 754 C 71.6558 -2.73034 3.66472 0
M  V30 755 C 72.6528 -2.42526 4.59866 0
M  V30 756 C 70.3378 -2.90345 4.09884 0
M  V30 757 C 72.3318 -2.29492 5.94653 0
M  V30 758 C 70.0188 -2.7693 5.4475 0
M  V30 759 C 71.0168 -2.46547 6.36949 0
M  V30 760 O 70.7048 -2.33199 7.69333 0
M  V30 761 H 70.4368 -0.481773 0.474205 0
M  V30 762 H 72.9908 -0.934465 1.82912 0
M  V30 763 H 71.2208 -3.48458 1.67672 0
M  V30 764 H 72.9098 -3.47625 2.09551 0
M  V30 765 H 73.6758 -2.28816 4.27631 0
M  V30 766 H 69.5548 -3.1299 3.38464 0
M  V30 767 H 73.0988 -2.05698 6.66584 0
M  V30 768 H 68.9958 -2.90215 5.76581 0
M  V30 769 H 69.7638 -2.48376 7.79905 0
M  V30 770 N 72.4269 -1.23603 -0.977757 0
M  V30 771 C 73.6519 -1.09735 -1.75991 0
M  V30 772 C 74.0769 0.346858 -1.84874 0
M  V30 773 O 73.4349 1.25093 -1.3123 0
M  V30 774 C 73.4829 -1.73051 -3.16363 0
M  V30 775 O 72.5869 -0.994452 -4.0023 0
M  V30 776 H 71.9279 -0.384476 -0.541364 0
M  V30 777 H 74.4579 -1.6371 -1.2272 0
M  V30 778 H 74.4679 -1.78398 -3.66931 0
M  V30 779 H 73.1429 -2.78137 -3.09213 0
M  V30 780 H 71.7199 -1.01812 -3.58732 0
M  V30 781 N 73.905 1.17692 -1.04816 0
M  V30 782 C 75.145 1.89545 -0.764979 0
M  V30 783 C 75.509 1.78979 0.695028 0
M  V30 784 O 76.71 2.45613 1.09215 0
M  V30 785 C 74.981 3.35659 -1.22751 0
M  V30 786 S 76.54 4.25526 -1.07112 0
M  V30 787 H 73.358 0.654432 -0.27792 0
M  V30 788 H 75.96 1.42163 -1.34201 0
M  V30 789 H 74.664 3.40882 -2.28533 0
M  V30 790 H 74.195 3.88083 -0.644594 0
M  V30 791 H 76.21 4.962 0.00697508 0
M  V30 792 N 75.3831 0.828654 1.34056 0
M  V30 793 C 76.3301 0.252567 2.29414 0
M  V30 794 C 77.3001 -0.62588 1.53857 0
M  V30 795 O 78.4851 -0.566312 1.82202 0
M  V30 796 C 75.6251 -0.574831 3.40279 0
M  V30 797 C 74.7381 0.326499 4.30764 0
M  V30 798 C 73.8731 -0.511016 5.28736 0
M  V30 799 C 72.9121 0.389342 6.1086 0
M  V30 800 N 72.0491 -0.409439 7.00905 0
M  V30 801 H 76.8891 1.07108 2.78086 0
M  V30 802 H 74.4261 0.539677 1.36843 0
M  V30 803 H 76.3841 -1.06992 4.03248 0
M  V30 804 H 75.0141 -1.35841 2.92826 0
M  V30 805 H 74.0661 0.939837 3.68607 0
M  V30 806 H 75.3781 1.01857 4.88289 0
M  V30 807 H 74.5321 -1.07035 5.97184 0
M  V30 808 H 73.2711 -1.23657 4.71763 0
M  V30 809 H 72.2761 0.960769 5.4134 0
M  V30 810 H 73.5011 1.1131 6.69916 0
M  V30 811 H 71.4471 -1.11856 6.46393 0
M  V30 812 H 71.3641 0.224126 7.55668 0
M  V30 813 H 72.6321 -0.951336 7.73673 0
M  V30 814 N 76.8612 -1.46375 0.584142 0
M  V30 815 C 78.2722 -1.86031 0.157959 0
M  V30 816 C 78.6232 -1.48753 -1.27933 0
M  V30 817 O 77.7482 -0.903098 -1.96655 0
M  V30 818 C 78.3432 -3.37642 0.279892 0
M  V30 819 C 76.9022 -3.76289 -0.09143 0
M  V30 820 C 76.0492 -2.7039 0.615178 0
M  V30 821 H 79.0002 -1.37509 0.792274 0
M  V30 822 H 79.0212 -3.77275 -0.494364 0
M  V30 823 H 78.5332 -3.64742 1.32607 0
M  V30 824 H 76.6342 -3.54806 -1.13769 0
M  V30 825 H 76.7472 -4.78246 0.285886 0
M  V30 826 H 75.1112 -2.5464 0.0552833 0
M  V30 827 H 75.8942 -3.0033 1.66303 0
M  V30 828 N 78.3393 -0.321999 -1.54275 0
M  V30 829 C 79.5873 0.280489 -2.00144 0
M  V30 830 C 79.9083 1.52777 -1.21178 0
M  V30 831 O 79.1783 1.9338 -0.313187 0
M  V30 832 H 77.7583 0.106632 -0.73935 0
M  V30 833 H 80.4203 -0.438184 -1.8991 0
M  V30 834 H 79.5163 0.537972 -3.07428 0
M  V30 835 N 79.8174 1.5752 -0.0501392 0
M  V30 836 C 81.0474 1.96678 0.632573 0
M  V30 837 C 81.4554 0.926298 1.64974 0
M  V30 838 O 80.7984 -0.09802 1.83438 0
M  V30 839 C 80.8604 3.32068 1.37735 0
M  V30 840 C 80.5244 4.54076 0.516131 0
M  V30 841 C 81.5214 5.19445 -0.217357 0
M  V30 842 C 79.2064 5.00304 0.44736 0
M  V30 843 C 81.2004 6.29378 -1.00807 0
M  V30 844 C 78.8874 6.10114 -0.347038 0
M  V30 845 C 79.8854 6.74512 -1.07344 0
M  V30 846 O 79.5734 7.82211 -1.85477 0
M  V30 847 H 79.3054 0.652193 0.177821 0
M  V30 848 H 81.8594 2.05091 -0.112543 0
M  V30 849 H 80.0894 3.20206 2.16807 0
M  V30 850 H 81.7784 3.55981 1.95019 0
M  V30 851 H 82.5444 4.84689 -0.173688 0
M  V30 852 H 78.4234 4.49971 1.00235 0
M  V30 853 H 81.9674 6.79575 -1.57556 0
M  V30 854 H 77.8644 6.44307 -0.392349 0
M  V30 855 H 78.6324 7.98982 -1.77678 0
M  V30 856 N 81.2955 -0.223234 1.56011 0
M  V30 857 C 82.5415 -0.949279 1.79211 0
M  V30 858 C 82.8745 -1.84054 0.619494 0
M  V30 859 O 82.1495 -1.90726 -0.381317 0
M  V30 860 C 82.4325 -1.78965 3.12479 0
M  V30 861 C 82.2855 -0.924997 4.40186 0
M  V30 862 C 83.6045 -2.76774 3.42175 0
M  V30 863 H 80.7235 -0.343676 0.651963 0
M  V30 864 H 83.3655 -0.218253 1.88742 0
M  V30 865 H 81.5155 -2.41291 3.04485 0
M  V30 866 H 83.1875 -0.318615 4.60198 0
M  V30 867 H 81.4305 -0.230344 4.33188 0
M  V30 868 H 82.1015 -1.54735 5.29869 0
M  V30 869 H 84.5775 -2.24584 3.50287 0
M  V30 870 H 83.4535 -3.32678 4.36597 0
M  V30 871 H 83.7145 -3.54429 2.64258 0
M  V30 872 N 82.7736 -1.49793 -0.48987 0
M  V30 873 C 83.9986 -1.63836 -1.27172 0
M  V30 874 C 84.4236 -0.31402 -1.8546 0
M  V30 875 O 83.7816 0.719803 -1.66399 0
M  V30 876 C 83.8296 -2.71797 -2.36978 0
M  V30 877 O 82.9336 -2.31744 -3.41128 0
M  V30 878 H 82.2746 -0.547997 -0.37496 0
M  V30 879 H 84.8046 -1.96053 -0.585191 0
M  V30 880 H 84.8146 -2.94305 -2.82575 0
M  V30 881 H 83.4896 -3.67923 -1.93921 0
M  V30 882 H 82.0666 -2.1961 -3.01373 0
M  V30 883 N 84.2517 0.741722 -1.39055 0
M  V30 884 C 85.6677 1.04638 -1.20512 0
M  V30 885 C 85.8677 2.01405 -0.0620218 0
M  V30 886 O 84.9237 2.45547 0.588457 0
M  V30 887 C 86.2367 1.6151 -2.53643 0
M  V30 888 C 87.7847 1.73623 -2.6043 0
M  V30 889 C 88.2597 2.33906 -3.93767 0
M  V30 890 N 89.7507 2.41323 -3.9537 0
M  V30 891 C 90.4857 2.88888 -4.95309 0
M  V30 892 N 89.9817 3.36401 -6.05645 0
M  V30 893 N 91.7747 2.88037 -4.82692 0
M  V30 894 H 83.9257 0.0998155 -2.12165 0
M  V30 895 H 86.1887 0.106907 -0.941953 0
M  V30 896 H 85.8947 0.978739 -3.37807 0
M  V30 897 H 85.7687 2.60411 -2.72885 0
M  V30 898 H 88.1557 2.36384 -1.76655 0
M  V30 899 H 88.2367 0.733945 -2.45045 0
M  V30 900 H 87.8807 1.71776 -4.7797 0
M  V30 901 H 87.8107 3.34799 -4.06469 0
M  V30 902 H 90.3017 2.07734 -3.15682 0
M  V30 903 H 90.6147 3.71186 -6.77821 0
M  V30 904 H 88.9597 3.34427 -6.09248 0
M  V30 905 H 92.1507 2.50237 -3.95599 0
M  V30 906 H 92.3237 3.24792 -5.60726 0
M  V30 907 N 85.7298 1.2412 0.971189 0
M  V30 908 C 86.9778 1.07668 1.71032 0
M  V30 909 C 87.2988 -0.385797 1.91146 0
M  V30 910 O 86.5688 -1.27569 1.4867 0
M  V30 911 H 85.1488 0.395429 0.633755 0
M  V30 912 H 87.8108 1.55984 1.16855 0
M  V30 913 H 86.9068 1.57195 2.69622 0
M  V30 914 N 87.2079 -1.17134 1.05439 0
M  V30 915 C 88.4559 -1.87085 0.764429 0
M  V30 916 C 88.7769 -1.81584 -0.710787 0
M  V30 917 O 88.0469 -1.24349 -1.51374 0
M  V30 918 H 86.6269 -0.692627 0.279779 0
M  V30 919 H 89.2889 -1.42087 1.33406 0
M  V30 920 H 88.3849 -2.92759 1.0816 0
M  V30 921 N 88.686 -0.835752 -1.33615 0
M  V30 922 C 89.619 -0.211815 -2.27215 0
M  V30 923 C 90.597 0.639249 -1.49507 0
M  V30 924 O 91.781 0.600193 -1.78689 0
M  V30 925 C 88.908 0.702893 -3.31326 0
M  V30 926 C 87.954 -0.0723049 -4.26439 0
M  V30 927 S 88.787 -1.42811 -5.16106 0
M  V30 928 C 89.943 -0.518613 -6.23748 0
M  V30 929 H 90.176 -1.00533 -2.79786 0
M  V30 930 H 87.709 -0.632336 -1.40858 0
M  V30 931 H 89.667 1.22505 -3.91794 0
M  V30 932 H 88.328 1.47004 -2.77576 0
M  V30 933 H 87.521 0.62359 -5.00127 0
M  V30 934 H 87.123 -0.525424 -3.70291 0
M  V30 935 H 89.415 0.284778 -6.76901 0
M  V30 936 H 90.358 -1.22556 -6.97413 0
M  V30 937 H 90.766 -0.101344 -5.64409 0
M  V30 938 N 90.1641 1.46063 -0.591896 0
M  V30 939 C 91.5801 1.57561 -0.254288 0
M  V30 940 C 91.7801 1.58565 1.24336 0
M  V30 941 O 90.8361 1.50753 2.02558 0
M  V30 942 C 92.1491 2.86549 -0.911611 0
M  V30 943 C 93.6971 3.00197 -0.886059 0
M  V30 944 C 94.1721 4.31933 -1.5231 0
M  V30 945 N 95.6631 4.38654 -1.48786 0
M  V30 946 C 96.3981 5.39222 -1.95006 0
M  V30 947 N 95.8941 6.46414 -2.49241 0
M  V30 948 N 97.6871 5.3048 -1.85868 0
M  V30 949 H 89.8381 1.43655 -1.56451 0
M  V30 950 H 92.1011 0.68583 -0.654478 0
M  V30 951 H 91.8071 2.91651 -1.96551 0
M  V30 952 H 91.6811 3.74794 -0.425368 0
M  V30 953 H 94.0681 2.9467 0.159246 0
M  V30 954 H 94.1491 2.13403 -1.41041 0
M  V30 955 H 93.7931 4.38217 -2.56765 0
M  V30 956 H 93.7231 5.17516 -0.973891 0
M  V30 957 H 96.2141 3.61793 -1.09151 0
M  V30 958 H 96.5271 7.19376 -2.82344 0
M  V30 959 H 94.8721 6.47208 -2.53272 0
M  V30 960 H 98.0631 4.45643 -1.43248 0
M  V30 961 H 98.2361 6.08711 -2.22204 0
M  V30 962 N 91.6422 0.330177 1.54103 0
M  V30 963 C 92.5892 -0.532762 2.24567 0
M  V30 964 C 93.5592 -1.10635 1.23892 0
M  V30 965 O 94.7442 -1.14546 1.5259 0
M  V30 966 C 91.8842 -1.6845 3.01195 0
M  V30 967 C 90.9972 -1.13951 4.167 0
M  V30 968 C 90.1322 -2.25746 4.80845 0
M  V30 969 C 89.1712 -1.6853 5.88442 0
M  V30 970 N 88.3082 -2.74014 6.46421 0
M  V30 971 H 93.1482 0.0746905 2.97906 0
M  V30 972 H 90.6852 0.048632 1.4702 0
M  V30 973 H 92.6432 -2.36234 3.43874 0
M  V30 974 H 91.2732 -2.26314 2.30178 0
M  V30 975 H 90.3252 -0.35301 3.78758 0
M  V30 976 H 91.6372 -0.680892 4.94131 0
M  V30 977 H 90.7912 -3.01422 5.26526 0
M  V30 978 H 89.5302 -2.74947 4.0281 0
M  V30 979 H 88.5352 -0.913543 5.42157 0
M  V30 980 H 89.7602 -1.20198 6.68378 0
M  V30 981 H 87.7062 -3.22494 5.71256 0
M  V30 982 H 87.6232 -2.32735 7.19285 0
M  V30 983 H 88.8912 -3.49499 6.96757 0
M  V30 984 N 93.1203 -1.57491 0.0584922 0
M  V30 985 C 94.3673 -1.92978 -0.613648 0
M  V30 986 C 94.6953 -0.937461 -1.70417 0
M  V30 987 O 93.9503 0.049078 -1.95638 0
M  V30 988 C 94.2493 -3.3513 -1.24188 0
M  V30 989 C 93.9153 -4.50037 -0.278826 0
M  V30 990 C 92.5773 -4.81198 -0.0138447 0
M  V30 991 C 94.9293 -5.19807 0.380777 0
M  V30 992 C 92.2573 -5.79473 0.918052 0
M  V30 993 C 94.6093 -6.19079 1.30091 0
M  V30 994 C 93.2733 -6.48665 1.57449 0
M  V30 995 H 92.5433 -0.706157 -0.22455 0
M  V30 996 H 95.1903 -1.91082 0.126533 0
M  V30 997 H 93.4953 -3.33429 -2.05749 0
M  V30 998 H 95.1923 -3.59871 -1.769 0
M  V30 999 H 91.7823 -4.25726 -0.495539 0
M  V30 1000 H 95.9663 -4.95939 0.189158 0
M  V30 1001 H 91.2223 -6.00727 1.1374 0
M  V30 1002 H 95.3963 -6.7225 1.81804 0
M  V30 1003 H 93.0233 -7.24628 2.29822 0
M  V30 1004 N 94.5984 0.214957 -1.56127 0
M  V30 1005 C 95.8474 0.936451 -1.78643 0
M  V30 1006 C 96.1604 1.85237 -0.628229 0
M  V30 1007 O 97.3664 2.613 -0.737186 0
M  V30 1008 C 95.8224 1.7154 -3.16389 0
M  V30 1009 C 95.4304 0.845299 -4.39953 0
M  V30 1010 C 97.1744 2.42772 -3.48227 0
M  V30 1011 C 95.0814 1.62198 -5.68723 0
M  V30 1012 H 94.0114 0.353401 -0.666051 0
M  V30 1013 H 96.6624 0.190169 -1.82512 0
M  V30 1014 H 95.0444 2.50484 -3.06715 0
M  V30 1015 H 96.2184 0.0959353 -4.607 0
M  V30 1016 H 94.5334 0.244789 -4.1568 0
M  V30 1017 H 97.1304 3.01394 -4.41663 0
M  V30 1018 H 97.4734 3.15984 -2.71035 0
M  V30 1019 H 98.0064 1.70813 -3.5926 0
M  V30 1020 H 94.7454 0.933011 -6.48826 0
M  V30 1021 H 94.2654 2.34579 -5.52026 0
M  V30 1022 H 95.9444 2.18095 -6.09133 0
M  V30 1023 N 96.0765 1.50051 0.48192 0
M  V30 1024 C 97.3165 1.62128 1.24474 0
M  V30 1025 C 97.6805 0.309742 1.89485 0
M  V30 1026 O 98.8815 0.305854 2.67054 0
M  V30 1027 C 97.1525 2.76151 2.26882 0
M  V30 1028 S 98.7115 3.08297 3.12247 0
M  V30 1029 H 95.5295 0.571661 0.422759 0
M  V30 1030 H 98.1315 1.87791 0.54359 0
M  V30 1031 H 96.8355 3.69942 1.77683 0
M  V30 1032 H 96.3665 2.52541 3.0164 0
M  V30 1033 H 98.3815 2.51287 4.27866 0
M  V30 1034 N 97.5546 -0.734337 1.39446 0
M  V30 1035 C 98.9656 -1.31264 1.32766 0
M  V30 1036 C 99.3166 -1.96198 -0.00767497 0
M  V30 1037 O 98.4416 -1.96346 -0.909796 0
M  V30 1038 C 99.0366 -2.38682 2.4045 0
M  V30 1039 C 97.5956 -2.92184 2.37288 0
M  V30 1040 C 96.7426 -1.6576 2.22304 0
M  V30 1041 H 99.6936 -0.531799 1.49525 0
M  V30 1042 H 99.7146 -3.19087 2.07276 0
M  V30 1043 H 99.2266 -1.91392 3.37625 0
M  V30 1044 H 97.3276 -3.43752 1.43754 0
M  V30 1045 H 97.4406 -3.45253 3.3217 0
M  V30 1046 H 95.8046 -1.9012 1.69489 0
M  V30 1047 H 96.5876 -1.20521 3.21449 0
M  V30 1048 N 99.0327 -1.24633 -0.964593 0
M  V30 1049 C 99.9627 -1.06611 -2.07741 0
M  V30 1050 C 100.944 0.0218666 -1.70086 0
M  V30 1051 O 102.129 -0.145793 -1.93652 0
M  V30 1052 C 99.2587 -0.673444 -3.40708 0
M  V30 1053 C 98.2127 -1.71054 -3.92332 0
M  V30 1054 C 97.5387 -1.17285 -5.21678 0
M  V30 1055 C 98.8387 -3.10718 -4.19824 0
M  V30 1056 H 100.533 -1.99693 -2.23076 0
M  V30 1057 H 98.0787 -0.96152 -1.07195 0
M  V30 1058 H 100.032 -0.534345 -4.17998 0
M  V30 1059 H 98.7557 0.293073 -3.25282 0
M  V30 1060 H 97.4147 -1.83791 -3.17201 0
M  V30 1061 H 97.0627 -0.196847 -5.02615 0
M  V30 1062 H 96.7627 -1.86592 -5.57187 0
M  V30 1063 H 98.2867 -1.04593 -6.01575 0
M  V30 1064 H 99.7007 -3.01192 -4.87808 0
M  V30 1065 H 98.0977 -3.77406 -4.66567 0
M  V30 1066 H 99.1677 -3.58524 -3.26479 0
M  V30 1067 N 100.511 1.16574 -1.06058 0
M  V30 1068 C 101.739 1.90952 -0.796552 0
M  V30 1069 C 102.154 1.77302 0.648808 0
M  V30 1070 O 101.511 1.11605 1.44397 0
M  V30 1071 C 101.562 3.41736 -1.17894 0
M  V30 1072 O 101.283 3.54975 -2.56758 0
M  V30 1073 C 102.784 4.33169 -0.942308 0
M  V30 1074 H 100.004 0.605594 -0.288959 0
M  V30 1075 H 102.548 1.47777 -1.41358 0
M  V30 1076 H 100.703 3.82623 -0.606491 0
M  V30 1077 H 101.117 4.4846 -2.72 0
M  V30 1078 H 102.591 5.37439 -1.25952 0
M  V30 1079 H 103.068 4.3903 0.122078 0
M  V30 1080 H 103.674 3.98007 -1.49902 0
M  V30 1081 N 101.989 0.842826 1.3317 0
M  V30 1082 C 103.237 0.439577 1.97262 0
M  V30 1083 C 103.558 -1.00548 1.67078 0
M  V30 1084 O 102.828 -1.70098 0.971779 0
M  V30 1085 H 101.408 0.159558 0.72976 0
M  V30 1086 H 104.07 1.07665 1.62463 0
M  V30 1087 H 103.166 0.574886 3.0676 0
M  V30 1088 N 103.467 -1.45747 0.599634 0
M  V30 1089 C 104.397 -2.33235 -0.111306 0
M  V30 1090 C 105.378 -1.46359 -0.866781 0
M  V30 1091 O 106.563 -1.75146 -0.838904 0
M  V30 1092 C 103.693 -3.28932 -1.11451 0
M  V30 1093 C 102.647 -4.25381 -0.472772 0
M  V30 1094 C 101.973 -5.1071 -1.58365 0
M  V30 1095 C 103.273 -5.18831 0.600948 0
M  V30 1096 H 104.967 -2.92927 0.61919 0
M  V30 1097 H 102.513 -1.40857 0.299215 0
M  V30 1098 H 104.466 -3.89002 -1.62036 0
M  V30 1099 H 103.19 -2.67381 -1.8755 0
M  V30 1100 H 101.849 -3.66598 0.0121472 0
M  V30 1101 H 101.497 -4.45533 -2.33473 0
M  V30 1102 H 101.197 -5.7604 -1.15982 0
M  V30 1103 H 102.721 -5.73647 -2.09194 0
M  V30 1104 H 104.135 -5.73019 0.179491 0
M  V30 1105 H 102.532 -5.92595 0.946076 0
M  V30 1106 H 103.602 -4.6174 1.48068 0
M  V30 1107 N 104.945 -0.338344 -1.53925 0
M  V30 1108 C 106.191 0.252842 -2.01822 0
M  V30 1109 C 106.546 1.48612 -1.22197 0
M  V30 1110 O 105.839 1.89238 -0.299892 0
M  V30 1111 C 106.033 0.62448 -3.51902 0
M  V30 1112 C 105.862 -0.571235 -4.46057 0
M  V30 1113 C 104.632 -1.07493 -4.93734 0
M  V30 1114 C 106.83 -1.42807 -4.94076 0
M  V30 1115 N 104.812 -2.23351 -5.71828 0
M  V30 1116 C 106.183 -2.43362 -5.70241 0
M  V30 1117 C 108.238 -1.45412 -4.76193 0
M  V30 1118 C 106.941 -3.46346 -6.30426 0
M  V30 1119 C 108.967 -2.47274 -5.37224 0
M  V30 1120 C 108.329 -3.46555 -6.13253 0
M  V30 1121 H 104.428 0.0559669 -0.779995 0
M  V30 1122 H 107.012 -0.476732 -1.88773 0
M  V30 1123 H 105.183 1.32317 -3.65167 0
M  V30 1124 H 106.915 1.19841 -3.86549 0
M  V30 1125 H 103.67 -0.643848 -4.69203 0
M  V30 1126 H 104.094 -2.81834 -6.15548 0
M  V30 1127 H 108.736 -0.700171 -4.16962 0
M  V30 1128 H 106.454 -4.22638 -6.88769 0
M  V30 1129 H 110.04 -2.50109 -5.25297 0
M  V30 1130 H 108.92 -4.24083 -6.59638 0
M  V30 1131 N 106.423 1.57458 -0.0668435 0
M  V30 1132 C 107.834 1.80776 0.466558 0
M  V30 1133 C 108.185 0.980361 1.69951 0
M  V30 1134 O 107.31 0.201441 2.1546 0
M  V30 1135 C 107.905 3.27881 0.85321 0
M  V30 1136 C 106.464 3.52062 1.3315 0
M  V30 1137 C 105.611 2.75513 0.314264 0
M  V30 1138 H 108.562 1.5598 -0.292588 0
M  V30 1139 H 108.583 3.39659 1.715 0
M  V30 1140 H 108.095 3.88075 -0.0443439 0
M  V30 1141 H 106.196 2.97167 2.24772 0
M  V30 1142 H 106.309 4.60762 1.31285 0
M  V30 1143 H 104.673 2.42123 0.790492 0
M  V30 1144 H 105.456 3.38442 -0.575477 0
M  V30 1145 N 107.901 -0.206675 1.56239 0
M  V30 1146 C 109.15 -0.926964 1.79138 0
M  V30 1147 C 109.463 -1.84901 0.638043 0
M  V30 1148 O 110.669 -2.60906 0.751033 0
M  V30 1149 C 109.125 -1.6986 3.17294 0
M  V30 1150 C 108.733 -0.821956 4.40395 0
M  V30 1151 C 110.477 -2.40922 3.4951 0
M  V30 1152 C 108.384 -1.59179 5.69575 0
M  V30 1153 H 107.314 -0.349864 0.667915 0
M  V30 1154 H 109.965 -0.180487 1.8261 0
M  V30 1155 H 108.347 -2.48853 3.08039 0
M  V30 1156 H 109.521 -0.0715019 4.60745 0
M  V30 1157 H 107.836 -0.222741 4.15804 0
M  V30 1158 H 110.433 -2.99047 4.43255 0
M  V30 1159 H 110.776 -3.14542 2.72707 0
M  V30 1160 H 111.309 -1.68905 3.60161 0
M  V30 1161 H 108.048 -0.898589 6.49312 0
M  V30 1162 H 107.568 -2.31648 5.53262 0
M  V30 1163 H 109.247 -2.14862 6.10281 0
M  V30 1164 N 109.379 -1.50304 -0.473955 0
M  V30 1165 C 110.327 -1.69482 -1.59307 0
M  V30 1166 C 111.321 -0.560669 -1.59853 0
M  V30 1167 O 112.527 -0.741087 -1.64036 0
M  V30 1168 H 108.902 -0.534892 -0.528578 0
M  V30 1169 H 110.873 -2.63364 -1.40293 0
M  V30 1170 C 109.622 -1.80354 -2.97267 0
M  V30 1171 H 108.945 -2.67012 -2.97564 0
M  V30 1172 H 110.385 -1.97798 -3.75036 0
M  V30 1173 C 108.844 -0.55448 -3.32306 0
M  V30 1174 O 109.374 0.307661 -4.0052 0
M  V30 1175 N 107.58 -0.409354 -2.87702 0
M  V30 1176 H 107.127 -1.11196 -2.32364 0
M  V30 1177 H 107.085 0.425223 -3.11511 0
M  V30 1178 N 110.857 0.726932 -1.39834 0
M  V30 1179 C 112.085 1.51613 -1.40787 0
M  V30 1180 C 112.5 1.88799 -0.00451505 0
M  V30 1181 O 111.857 1.54662 0.968809 0
M  V30 1182 C 111.908 2.79863 -2.28821 0
M  V30 1183 O 111.629 2.44253 -3.63692 0
M  V30 1184 C 113.13 3.73837 -2.38245 0
M  V30 1185 H 110.35 0.468264 -0.480593 0
M  V30 1186 H 112.894 0.897607 -1.83748 0
M  V30 1187 H 111.049 3.38027 -1.89252 0
M  V30 1188 H 111.463 3.26695 -4.1033 0
M  V30 1189 H 112.937 4.60699 -3.04073 0
M  V30 1190 H 113.414 4.16153 -1.40403 0
M  V30 1191 H 114.02 3.21589 -2.78317 0
M  V30 1192 N 112.336 1.25143 0.95797 0
M  V30 1193 C 113.266 1.07711 2.07173 0
M  V30 1194 C 114.247 -0.0128462 1.70095 0
M  V30 1195 O 115.432 0.156061 1.93572 0
M  V30 1196 C 112.562 0.691503 3.40346 0
M  V30 1197 C 111.516 1.73132 3.9142 0
M  V30 1198 C 110.842 1.20049 5.21049 0
M  V30 1199 C 112.142 3.1294 4.1817 0
M  V30 1200 H 113.836 2.00873 2.22014 0
M  V30 1201 H 111.382 0.967191 1.06684 0
M  V30 1202 H 113.335 0.556505 4.17709 0
M  V30 1203 H 112.059 -0.275819 3.25433 0
M  V30 1204 H 110.718 1.8547 3.16222 0
M  V30 1205 H 110.366 0.223499 5.02503 0
M  V30 1206 H 110.066 1.89545 5.56189 0
M  V30 1207 H 111.59 1.07782 6.01012 0
M  V30 1208 H 113.004 3.03775 4.86203 0
M  V30 1209 H 111.401 3.79875 4.64559 0
M  V30 1210 H 112.471 3.6025 3.24573 0
M  V30 1211 N 113.814 -1.1601 1.06675 0
M  V30 1212 C 114.761 -2.20525 0.680967 0
M  V30 1213 C 115.731 -1.62904 -0.324283 0
M  V30 1214 O 116.916 -1.89615 -0.212294 0
M  V30 1215 C 114.056 -3.45013 0.0776551 0
M  V30 1216 C 113.169 -4.16863 1.13355 0
M  V30 1217 C 112.304 -5.2888 0.49597 0
M  V30 1218 C 111.343 -5.92537 1.53513 0
M  V30 1219 N 110.48 -6.96038 0.920631 0
M  V30 1220 H 115.32 -2.52876 1.57663 0
M  V30 1221 H 112.857 -1.24199 0.788223 0
M  V30 1222 H 114.815 -4.16193 -0.289704 0
M  V30 1223 H 113.445 -3.132 -0.781393 0
M  V30 1224 H 112.497 -3.44248 1.61857 0
M  V30 1225 H 113.809 -4.60294 1.92174 0
M  V30 1226 H 112.963 -6.06653 0.0758604 0
M  V30 1227 H 111.702 -4.86622 -0.324062 0
M  V30 1228 H 110.707 -5.13482 1.9651 0
M  V30 1229 H 111.932 -6.36873 2.35733 0
M  V30 1230 H 109.878 -6.55888 0.12138 0
M  V30 1231 H 109.795 -7.3786 1.64616 0
M  V30 1232 H 111.063 -7.77725 0.525795 0
M  V30 1233 N 115.292 -0.849877 -1.32721 0
M  V30 1234 C 116.532 -0.457146 -1.99222 0
M  V30 1235 C 116.896 0.968038 -1.6581 0
M  V30 1236 O 118.097 1.46507 -2.25364 0
M  V30 1237 C 116.368 -0.683966 -3.50794 0
M  V30 1238 S 117.927 -0.388095 -4.3708 0
M  V30 1239 H 114.745 -0.171464 -0.690015 0
M  V30 1240 H 117.347 -1.10155 -1.61512 0
M  V30 1241 H 116.051 -1.72038 -3.726 0
M  V30 1242 H 115.582 -0.0258086 -3.93392 0
M  V30 1243 H 117.597 0.787791 -4.89906 0
M  V30 1244 N 116.77 1.45427 -0.607355 0
M  V30 1245 C 117.998 2.06614 -0.108814 0
M  V30 1246 C 118.413 1.45204 1.2067 0
M  V30 1247 O 117.77 0.566132 1.73497 0
M  V30 1248 C 117.821 3.61481 0.0375347 0
M  V30 1249 O 117.542 4.20598 -1.22593 0
M  V30 1250 C 119.043 4.39652 0.567561 0
M  V30 1251 H 116.263 0.66747 -0.0687351 0
M  V30 1252 H 118.807 1.86675 -0.835022 0
M  V30 1253 H 116.962 3.80762 0.714068 0
M  V30 1254 H 117.376 5.1377 -1.05547 0
M  V30 1255 H 118.85 5.48518 0.61905 0
M  V30 1256 H 119.327 4.09417 1.58978 0
M  V30 1257 H 119.933 4.25234 -0.0749202 0
M  V30 1258 N 118.248 0.346503 1.53744 0
M  V30 1259 C 119.659 -0.136779 1.86198 0
M  V30 1260 C 120.01 -1.49749 1.26766 0
M  V30 1261 O 119.135 -2.08417 0.582355 0
M  V30 1262 C 119.73 -0.254966 3.37839 0
M  V30 1263 C 118.289 -0.682482 3.70161 0
M  V30 1264 C 117.436 0.181981 2.76702 0
M  V30 1265 H 120.387 0.565994 1.48264 0
M  V30 1266 H 120.408 -1.08195 3.64793 0
M  V30 1267 H 119.92 0.735526 3.81066 0
M  V30 1268 H 118.021 -1.68189 3.3248 0
M  V30 1269 H 118.134 -0.470326 4.76786 0
M  V30 1270 H 116.498 -0.34615 2.52337 0
M  V30 1271 H 117.281 1.16966 3.2276 0
M  V30 1272 N 119.726 -1.57421 0.075193 0
M  V30 1273 C 121.142 -1.57099 -0.281444 0
M  V30 1274 C 121.342 -1.08486 -1.69803 0
M  V30 1275 O 120.398 -0.752279 -2.41033 0
M  V30 1276 C 121.711 -3.00571 -0.0880041 0
M  V30 1277 C 123.259 -3.12605 -0.157281 0
M  V30 1278 C 123.734 -4.57999 0.0079207 0
M  V30 1279 N 125.225 -4.63176 -0.0475725 0
M  V30 1280 C 125.96 -5.73373 0.0557876 0
M  V30 1281 N 125.456 -6.92473 0.21286 0
M  V30 1282 N 127.249 -5.621 -0.00152098 0
M  V30 1283 H 119.4 -1.87335 1.00098 0
M  V30 1284 H 121.663 -0.86377 0.390646 0
M  V30 1285 H 121.369 -3.40262 0.889629 0
M  V30 1286 H 121.243 -3.67754 -0.838875 0
M  V30 1287 H 123.63 -2.72798 -1.1254 0
M  V30 1288 H 123.711 -2.48053 0.62475 0
M  V30 1289 H 123.355 -4.98496 0.972824 0
M  V30 1290 H 123.285 -5.20586 -0.793556 0
M  V30 1291 H 125.776 -3.7753 -0.167244 0
M  V30 1292 H 126.089 -7.72279 0.283781 0
M  V30 1293 H 124.434 -6.94556 0.248267 0
M  V30 1294 H 127.625 -4.67938 -0.122958 0
M  V30 1295 H 127.798 -6.47948 0.0824844 0
M  V30 1296 N 121.204 0.198386 -1.56346 0
M  V30 1297 C 122.45 0.920648 -1.80698 0
M  V30 1298 C 122.783 1.83045 -0.648697 0
M  V30 1299 O 122.058 1.91308 0.350925 0
M  V30 1300 C 122.341 1.73971 -3.15287 0
M  V30 1301 C 122.194 0.85485 -4.41602 0
M  V30 1302 C 123.513 2.71296 -3.46535 0
M  V30 1303 H 120.632 0.333261 -0.657348 0
M  V30 1304 H 123.274 0.188198 -1.89066 0
M  V30 1305 H 121.424 2.36416 -3.08285 0
M  V30 1306 H 123.096 0.245362 -4.60647 0
M  V30 1307 H 121.339 0.161398 -4.335 0
M  V30 1308 H 122.01 1.46286 -5.32264 0
M  V30 1309 H 124.486 2.18983 -3.53816 0
M  V30 1310 H 123.362 3.2569 -4.41834 0
M  V30 1311 H 123.623 3.5018 -2.69864 0
M  V30 1312 N 122.682 1.50554 0.465978 0
M  V30 1313 C 123.922 1.63439 1.22747 0
M  V30 1314 C 124.286 0.329822 1.89146 0
M  V30 1315 O 125.487 0.334161 2.66715 0
M  V30 1316 C 123.758 2.78542 2.2394 0
M  V30 1317 S 125.317 3.11591 3.0896 0
M  V30 1318 H 122.135 0.576113 0.416672 0
M  V30 1319 H 124.737 1.88357 0.523641 0
M  V30 1320 H 123.441 3.71805 1.7375 0
M  V30 1321 H 122.972 2.55726 2.98944 0
M  V30 1322 H 124.987 2.55811 4.25176 0
M  V30 1323 N 124.16 -0.719506 1.40217 0
M  V30 1324 C 125.571 -1.29848 1.34151 0
M  V30 1325 C 125.922 -1.96196 0.0131349 0
M  V30 1326 O 125.047 -1.973 -0.88892 0
M  V30 1327 C 125.642 -2.36118 2.42968 0
M  V30 1328 C 124.201 -2.8965 2.40374 0
M  V30 1329 C 123.348 -1.63393 2.24049 0
M  V30 1330 H 126.299 -0.51591 1.5008 0
M  V30 1331 H 126.32 -3.16871 2.10649 0
M  V30 1332 H 125.832 -1.878 3.39636 0
M  V30 1333 H 123.933 -3.42208 1.47392 0
M  V30 1334 H 124.046 -3.4171 3.35814 0
M  V30 1335 H 122.41 -1.88312 1.71495 0
M  V30 1336 H 123.193 -1.17104 3.2271 0
M  V30 1337 N 125.638 -1.25649 -0.95132 0
M  V30 1338 C 126.885 -1.10594 -1.69633 0
M  V30 1339 C 127.213 0.352515 -1.91279 0
M  V30 1340 O 126.468 1.27601 -1.4838 0
M  V30 1341 C 126.767 -1.80909 -3.08231 0
M  V30 1342 C 126.433 -3.30825 -3.06375 0
M  V30 1343 C 125.095 -3.71722 -3.05576 0
M  V30 1344 C 127.447 -4.26589 -2.99452 0
M  V30 1345 C 124.775 -5.06788 -2.95606 0
M  V30 1346 C 127.127 -5.61683 -2.91024 0
M  V30 1347 C 125.791 -6.01904 -2.88562 0
M  V30 1348 H 125.061 -0.404691 -0.620731 0
M  V30 1349 H 127.708 -1.55964 -1.11119 0
M  V30 1350 H 126.013 -1.27979 -3.70309 0
M  V30 1351 H 127.71 -1.6671 -3.64704 0
M  V30 1352 H 124.3 -2.98287 -3.07771 0
M  V30 1353 H 128.484 -3.95982 -2.99185 0
M  V30 1354 H 123.74 -5.37126 -2.92071 0
M  V30 1355 H 127.914 -6.35578 -2.84629 0
M  V30 1356 H 125.541 -7.06521 -2.80593 0
M  V30 1357 N 127.117 1.15442 -1.07289 0
M  V30 1358 C 128.08 2.18358 -0.696591 0
M  V30 1359 C 129.08 1.58637 0.262837 0
M  V30 1360 O 130.27 1.74145 0.0438809 0
M  V30 1361 C 127.402 3.4089 -0.0266151 0
M  V30 1362 H 128.595 2.53162 -1.60776 0
M  V30 1363 H 126.148 1.29893 -0.869342 0
M  V30 1364 H 126.883 3.11653 0.896822 0
M  V30 1365 H 126.668 3.85495 -0.716657 0
M  V30 1366 H 128.158 4.17009 0.222028 0
M  V30 1367 N 128.595 0.856903 1.32268 0
M  V30 1368 C 129.843 0.460474 1.96784 0
M  V30 1369 C 130.164 -0.987701 1.68135 0
M  V30 1370 O 129.434 -1.69058 0.989765 0
M  V30 1371 H 128.014 0.167289 0.728027 0
M  V30 1372 H 130.676 1.09383 1.61312 0
M  V30 1373 H 129.772 0.60739 3.06133 0
M  V30 1374 N 130.073 -1.45103 0.615059 0
M  V30 1375 C 131.322 -2.01396 0.110718 0
M  V30 1376 C 131.635 -1.48834 -1.26916 0
M  V30 1377 O 132.841 -1.97152 -1.86664 0
M  V30 1378 C 131.297 -3.59599 0.14723 0
M  V30 1379 C 130.905 -4.21158 1.52743 0
M  V30 1380 C 132.649 -4.23428 -0.30148 0
M  V30 1381 C 130.556 -5.71535 1.51992 0
M  V30 1382 H 129.486 -0.753061 0.0376241 0
M  V30 1383 H 132.137 -1.66494 0.77149 0
M  V30 1384 H 130.519 -3.91724 -0.580339 0
M  V30 1385 H 131.693 -4.00594 2.2773 0
M  V30 1386 H 130.008 -3.69552 1.91886 0
M  V30 1387 H 132.605 -5.33703 -0.326392 0
M  V30 1388 H 132.948 -3.94629 -1.32565 0
M  V30 1389 H 133.481 -3.96047 0.373065 0
M  V30 1390 H 130.22 -6.05044 2.52193 0
M  V30 1391 H 129.74 -5.94268 0.81274 0
M  V30 1392 H 131.419 -6.34873 1.24681 0
M  V30 1393 N 131.551 -0.354651 -1.53558 0
M  V30 1394 C 132.481 0.489091 -2.2832 0
M  V30 1395 C 133.462 1.09324 -1.30316 0
M  V30 1396 O 134.647 1.11255 -1.59173 0
M  V30 1397 C 131.777 1.63456 -3.0643 0
M  V30 1398 C 130.731 1.1582 -4.12031 0
M  V30 1399 C 130.057 2.39305 -4.7816 0
M  V30 1400 C 131.357 0.250731 -5.21698 0
M  V30 1401 H 133.051 -0.134614 -2.99097 0
M  V30 1402 H 130.597 -0.0661826 -1.43848 0
M  V30 1403 H 132.55 2.23136 -3.57475 0
M  V30 1404 H 131.274 2.28533 -2.33325 0
M  V30 1405 H 129.933 0.584146 -3.61916 0
M  V30 1406 H 129.581 3.02814 -4.01637 0
M  V30 1407 H 129.281 2.08109 -5.49513 0
M  V30 1408 H 130.805 2.99691 -5.31994 0
M  V30 1409 H 132.219 0.754695 -5.68311 0
M  V30 1410 H 130.616 0.0301468 -6.00092 0
M  V30 1411 H 131.686 -0.710125 -4.79672 0
M  V30 1412 N 133.029 1.57378 -0.0835403 0
M  V30 1413 C 133.939 2.16897 0.894021 0
M  V30 1414 C 134.955 1.13528 1.31861 0
M  V30 1415 O 136.131 1.45848 1.3889 0
M  V30 1416 C 133.196 2.72831 2.13925 0
M  V30 1417 C 132.257 3.91115 1.76997 0
M  V30 1418 C 131.49 4.44371 2.95584 0
M  V30 1419 O 131.713 3.96596 4.09961 0
M  V30 1420 O 130.647 5.35549 2.74719 0
M  V30 1421 H 134.473 3.00814 0.417679 0
M  V30 1422 H 132.058 1.48741 0.140181 0
M  V30 1423 H 133.94 3.0863 2.86924 0
M  V30 1424 H 132.615 1.91967 2.60635 0
M  V30 1425 H 131.522 3.60148 1.01214 0
M  V30 1426 H 132.855 4.73307 1.3506 0
M  V30 1427 N 134.507 -0.190092 1.56449 0
M  V30 1428 C 135.455 -1.25501 1.95837 0
M  V30 1429 C 136.449 -1.4685 0.844485 0
M  V30 1430 O 137.655 -1.47651 1.02952 0
M  V30 1431 H 134.03 -0.421447 0.622805 0
M  V30 1432 H 136.001 -0.895821 2.84636 0
M  V30 1433 C 134.75 -2.59124 2.31841 0
M  V30 1434 H 134.073 -2.43514 3.17082 0
M  V30 1435 H 135.513 -3.32371 2.6326 0
M  V30 1436 C 133.972 -3.16488 1.15486 0
M  V30 1437 O 134.502 -3.99365 0.432535 0
M  V30 1438 N 132.708 -2.75305 0.930349 0
M  V30 1439 H 132.255 -2.08013 1.51948 0
M  V30 1440 H 132.213 -3.14024 0.153634 0
M  V30 1441 N 135.985 -1.50799 -0.457987 0
M  V30 1442 C 137.233 -1.62121 -1.2067 0
M  V30 1443 C 137.554 -0.329793 -1.92191 0
M  V30 1444 O 136.824 0.653409 -1.84682 0
M  V30 1445 H 135.404 -0.597441 -0.448411 0
M  V30 1446 H 138.066 -1.87637 -0.527096 0
M  V30 1447 H 137.162 -2.43882 -1.94751 0
M  V30 1448 N 137.463 0.71206 -1.40597 0
M  V30 1449 C 138.426 1.80785 -1.40888 0
M  V30 1450 C 139.426 1.57937 -0.302103 0
M  V30 1451 O 140.616 1.64913 -0.561182 0
M  V30 1452 C 137.748 3.18927 -1.20409 0
M  V30 1453 H 138.941 1.81924 -2.38419 0
M  V30 1454 H 136.494 0.91805 -1.26497 0
M  V30 1455 H 137.229 3.23436 -0.236522 0
M  V30 1456 H 137.014 3.36911 -2.00582 0
M  V30 1457 H 138.504 3.98949 -1.23408 0
M  V30 1458 N 138.941 1.26152 0.944643 0
M  V30 1459 C 140.187 1.11657 1.69294 0
M  V30 1460 C 140.52 -0.339926 1.91202 0
M  V30 1461 O 139.795 -1.24994 1.49019 0
M  V30 1462 C 140.078 1.88236 3.06984 0
M  V30 1463 C 139.931 3.41772 2.92424 0
M  V30 1464 C 141.25 1.67343 4.07043 0
M  V30 1465 H 138.369 0.407004 0.614424 0
M  V30 1466 H 141.011 1.55106 1.09737 0
M  V30 1467 H 139.161 1.51308 3.57824 0
M  V30 1468 H 140.833 3.88433 2.48832 0
M  V30 1469 H 139.076 3.68974 2.28124 0
M  V30 1470 H 139.747 3.90579 3.90067 0
M  V30 1471 H 142.223 1.99509 3.65151 0
M  V30 1472 H 141.099 2.23346 5.01406 0
M  V30 1473 H 141.36 0.617158 4.37771 0
M  V30 1474 N 140.419 -1.14872 1.07899 0
M  V30 1475 C 141.835 -1.37776 0.805606 0
M  V30 1476 C 142.035 -1.92743 -0.587555 0
M  V30 1477 O 141.091 -2.13678 -1.34528 0
M  V30 1478 C 142.404 -2.34361 1.88402 0
M  V30 1479 C 143.952 -2.48012 1.90942 0
M  V30 1480 C 144.427 -3.47893 2.97883 0
M  V30 1481 N 145.918 -3.55433 2.97021 0
M  V30 1482 C 146.653 -4.32553 3.76412 0
M  V30 1483 N 146.149 -5.12959 4.65666 0
M  V30 1484 N 147.942 -4.27697 3.64735 0
M  V30 1485 H 140.093 -0.775365 1.97742 0
M  V30 1486 H 142.356 -0.403521 0.857831 0
M  V30 1487 H 142.062 -2.01098 2.88535 0
M  V30 1488 H 141.936 -3.34206 1.74889 0
M  V30 1489 H 144.323 -2.8057 0.914579 0
M  V30 1490 H 144.404 -1.48147 2.08534 0
M  V30 1491 H 144.048 -3.16069 3.97571 0
M  V30 1492 H 143.978 -4.47527 2.77538 0
M  V30 1493 H 146.469 -2.98048 2.32326 0
M  V30 1494 H 146.782 -5.69065 5.22862 0
M  V30 1495 H 145.127 -5.12245 4.69712 0
M  V30 1496 H 148.318 -3.63949 2.94378 0
M  V30 1497 H 148.491 -4.8755 4.26848 0
M  V30 1498 N 141.898 -0.863906 -1.31812 0
M  V30 1499 C 143.128 -0.485406 -2.00817 0
M  V30 1500 C 143.536 0.925007 -1.65046 0
M  V30 1501 O 142.879 1.61653 -0.872574 0
M  V30 1502 C 142.941 -0.555589 -3.55181 0
M  V30 1503 C 142.605 -1.92654 -4.14407 0
M  V30 1504 C 143.602 -2.89324 -4.31958 0
M  V30 1505 C 141.287 -2.2262 -4.50273 0
M  V30 1506 C 143.281 -4.14108 -4.84555 0
M  V30 1507 C 140.968 -3.47654 -5.02573 0
M  V30 1508 C 141.966 -4.43214 -5.19664 0
M  V30 1509 O 141.654 -5.66033 -5.70843 0
M  V30 1510 H 141.386 -0.188224 -0.649267 0
M  V30 1511 H 143.94 -1.16514 -1.69156 0
M  V30 1512 H 142.17 0.181037 -3.86276 0
M  V30 1513 H 143.859 -0.19138 -4.05449 0
M  V30 1514 H 144.625 -2.6748 -4.04573 0
M  V30 1515 H 140.504 -1.4902 -4.3625 0
M  V30 1516 H 144.048 -4.88703 -4.9781 0
M  V30 1517 H 139.945 -3.69345 -5.29391 0
M  V30 1518 H 140.713 -5.6812 -5.89222 0
M  V30 1519 N 143.376 1.44774 -0.622745 0
M  V30 1520 C 144.604 2.06487 -0.130722 0
M  V30 1521 C 145.019 1.46476 1.19123 0
M  V30 1522 O 144.376 0.584502 1.72887 0
M  V30 1523 C 144.427 3.615 -0.000807207 0
M  V30 1524 O 144.148 4.19274 -1.27048 0
M  V30 1525 C 145.649 4.40229 0.520898 0
M  V30 1526 H 142.869 0.666704 -0.0758106 0
M  V30 1527 H 145.413 1.85779 -0.854774 0
M  V30 1528 H 143.568 3.81498 0.673643 0
M  V30 1529 H 143.982 5.12622 -1.1099 0
M  V30 1530 H 145.456 5.49144 0.560838 0
M  V30 1531 H 145.933 4.1108 1.54627 0
M  V30 1532 H 146.539 4.25131 -0.120018 0
M  V30 1533 N 144.854 0.36279 1.53368 0
M  V30 1534 C 146.082 -0.228613 2.05633 0
M  V30 1535 C 146.497 -1.42676 1.23649 0
M  V30 1536 O 145.854 -1.80394 0.27647 0
M  V30 1537 C 145.905 -0.624845 3.56059 0
M  V30 1538 O 145.626 0.525675 4.34935 0
M  V30 1539 C 147.127 -1.27493 4.24571 0
M  V30 1540 H 144.347 -0.0407183 0.669763 0
M  V30 1541 H 146.891 0.520352 1.97769 0
M  V30 1542 H 145.046 -1.32373 3.64083 0
M  V30 1543 H 145.46 0.205969 5.24095 0
M  V30 1544 H 146.934 -1.50277 5.31151 0
M  V30 1545 H 147.411 -2.23439 3.78116 0
M  V30 1546 H 148.017 -0.617558 4.20792 0
M  V30 1547 N 146.332 -1.57332 0.0918853 0
M  V30 1548 C 147.579 -1.94236 -0.572577 0
M  V30 1549 C 147.907 -0.973398 -1.6839 0
M  V30 1550 O 147.162 0.00756912 -1.95699 0
M  V30 1551 C 147.461 -3.37689 -1.17051 0
M  V30 1552 C 147.127 -4.50527 -0.183304 0
M  V30 1553 C 145.789 -4.81119 0.0882276 0
M  V30 1554 C 148.141 -5.18883 0.49095 0
M  V30 1555 C 145.469 -5.77395 1.04076 0
M  V30 1556 C 147.821 -6.1618 1.43193 0
M  V30 1557 C 146.485 -6.45179 1.71173 0
M  V30 1558 H 145.755 -0.710762 -0.209521 0
M  V30 1559 H 148.402 -1.9077 0.167036 0
M  V30 1560 H 146.707 -3.37718 -1.9863 0
M  V30 1561 H 148.404 -3.63543 -1.69227 0
M  V30 1562 H 144.994 -4.26681 -0.405124 0
M  V30 1563 H 149.178 -4.95427 0.294312 0
M  V30 1564 H 144.434 -5.98179 1.26457 0
M  V30 1565 H 148.608 -6.68243 1.96023 0
M  V30 1566 H 146.235 -7.1959 2.4514 0
M  V30 1567 N 147.81 0.181792 -1.56548 0
M  V30 1568 C 148.72 1.24538 -1.98815 0
M  V30 1569 C 149.736 1.49045 -0.897861 0
M  V30 1570 O 150.912 1.61399 -1.20467 0
M  V30 1571 C 147.977 2.56683 -2.33055 0
M  V30 1572 C 147.038 2.40131 -3.55859 0
M  V30 1573 C 146.271 3.65975 -3.88456 0
M  V30 1574 O 146.494 4.70711 -3.22161 0
M  V30 1575 O 145.428 3.6071 -4.81842 0
M  V30 1576 H 149.254 0.916647 -2.89536 0
M  V30 1577 H 146.839 0.387842 -1.44278 0
M  V30 1578 H 148.721 3.34655 -2.56094 0
M  V30 1579 H 147.396 2.89157 -1.45498 0
M  V30 1580 H 146.303 1.60226 -3.38051 0
M  V30 1581 H 147.636 2.12585 -4.43924 0
M  V30 1582 N 149.288 1.51039 0.449983 0
M  V30 1583 C 150.518 1.66627 1.22143 0
M  V30 1584 C 150.926 0.357776 1.85786 0
M  V30 1585 O 150.269 -0.672424 1.70951 0
M  V30 1586 C 150.331 2.71562 2.35573 0
M  V30 1587 C 149.995 4.14526 1.92399 0
M  V30 1588 C 150.992 4.99717 1.43453 0
M  V30 1589 C 148.677 4.60559 2.00475 0
M  V30 1590 C 150.671 6.28998 1.03155 0
M  V30 1591 C 148.358 5.8984 1.59788 0
M  V30 1592 C 149.356 6.73886 1.11208 0
M  V30 1593 O 149.044 8.0075 0.710935 0
M  V30 1594 H 148.776 0.562635 0.374724 0
M  V30 1595 H 151.33 1.98146 0.541036 0
M  V30 1596 H 149.56 2.3533 3.06849 0
M  V30 1597 H 151.249 2.76156 2.97478 0
M  V30 1598 H 152.015 4.65361 1.36618 0
M  V30 1599 H 147.894 3.95273 2.37235 0
M  V30 1600 H 151.438 6.9455 0.651663 0
M  V30 1601 H 147.335 6.23713 1.66289 0
M  V30 1602 H 148.103 8.142 0.837913 0
M  V30 1603 N 150.766 -0.704594 1.40972 0
M  V30 1604 C 152.177 -1.28418 1.3552 0
M  V30 1605 C 152.528 -1.96171 0.0339434 0
M  V30 1606 O 151.653 -1.98231 -0.867944 0
M  V30 1607 C 152.248 -2.33528 2.45459 0
M  V30 1608 C 150.807 -2.87085 2.43433 0
M  V30 1609 C 149.954 -1.61007 2.2577 0
M  V30 1610 H 152.905 -0.499963 1.50619 0
M  V30 1611 H 152.926 -3.14619 2.13998 0
M  V30 1612 H 152.438 -1.84187 3.41609 0
M  V30 1613 H 150.539 -3.40626 1.51013 0
M  V30 1614 H 150.652 -3.3813 3.39419 0
M  V30 1615 H 149.016 -1.86482 1.73483 0
M  V30 1616 H 149.799 -1.13675 3.23933 0
M  V30 1617 N 152.244 -1.26651 -0.937939 0
M  V30 1618 C 153.192 -1.08308 -2.05845 0
M  V30 1619 C 154.186 -0.0090757 -1.69398 0
M  V30 1620 O 155.392 -0.166007 -1.79233 0
M  V30 1621 H 151.767 -0.333416 -0.674046 0
M  V30 1622 H 153.738 -2.03261 -2.18467 0
M  V30 1623 C 152.487 -0.736229 -3.39816 0
M  V30 1624 H 151.81 -1.55453 -3.6834 0
M  V30 1625 H 153.25 -0.64769 -4.19024 0
M  V30 1626 C 151.709 0.558824 -3.32233 0
M  V30 1627 O 152.239 1.59621 -3.68624 0
M  V30 1628 N 150.445 0.550657 -2.85335 0
M  V30 1629 H 149.992 -0.293943 -2.55917 0
M  V30 1630 H 149.95 1.41726 -2.80644 0
M  V30 1631 N 153.722 1.14298 -1.08507 0
M  V30 1632 C 154.95 1.89219 -0.836876 0
M  V30 1633 C 155.365 1.78638 0.611054 0
M  V30 1634 O 154.722 1.14643 1.41998 0
M  V30 1635 C 154.773 3.39158 -1.25116 0
M  V30 1636 O 154.494 3.49449 -2.64229 0
M  V30 1637 C 155.995 4.31073 -1.03398 0
M  V30 1638 H 153.215 0.599328 -0.301739 0
M  V30 1639 H 155.759 1.44746 -1.44461 0
M  V30 1640 H 153.914 3.81251 -0.687514 0
M  V30 1641 H 154.328 4.42589 -2.81452 0
M  V30 1642 H 155.802 5.34646 -1.37323 0
M  V30 1643 H 156.279 4.3919 0.0289259 0
M  V30 1644 H 156.885 3.94738 -1.58311 0
M  V30 1645 N 155.201 0.870884 1.31352 0
M  V30 1646 C 156.45 0.478408 1.95944 0
M  V30 1647 C 156.763 -0.974493 1.69597 0
M  V30 1648 O 157.969 -1.47316 2.28058 0
M  V30 1649 C 156.425 0.804609 3.50791 0
M  V30 1650 C 156.033 2.27433 3.85977 0
M  V30 1651 C 157.777 0.480648 4.2177 0
M  V30 1652 C 155.684 2.5429 5.33939 0
M  V30 1653 H 154.614 0.175175 0.733369 0
M  V30 1654 H 157.265 1.06391 1.4951 0
M  V30 1655 H 155.647 0.148347 3.95722 0
M  V30 1656 H 156.821 2.97373 3.52002 0
M  V30 1657 H 155.136 2.56442 3.28065 0
M  V30 1658 H 157.733 0.658519 5.30629 0
M  V30 1659 H 158.076 -0.578979 4.12254 0
M  V30 1660 H 158.609 1.09349 3.82476 0
M  V30 1661 H 155.348 3.58939 5.48491 0
M  V30 1662 H 154.868 1.88945 5.69263 0
M  V30 1663 H 156.547 2.39066 6.01212 0
M  V30 1664 N 156.679 -1.44442 0.630414 0
M  V30 1665 C 157.904 -2.06927 0.139944 0
M  V30 1666 C 158.329 -1.46795 -1.17613 0
M  V30 1667 O 157.687 -0.569144 -1.72135 0
M  V30 1668 C 157.735 -3.6058 0.0379581 0
M  V30 1669 O 156.839 -3.99937 -1.0062 0
M  V30 1670 H 156.18 -0.658608 0.0844483 0
M  V30 1671 H 158.71 -1.85327 0.866891 0
M  V30 1672 H 158.72 -4.07714 -0.152856 0
M  V30 1673 H 157.395 -4.03728 0.998809 0
M  V30 1674 H 155.972 -3.64436 -0.79001 0
M  V30 1675 N 158.157 -0.370918 -1.53173 0
M  V30 1676 C 159.404 0.217102 -2.01333 0
M  V30 1677 C 159.732 1.48338 -1.25802 0
M  V30 1678 O 158.987 1.92698 -0.34146 0
M  V30 1679 C 159.286 0.549696 -3.53147 0
M  V30 1680 C 158.952 -0.622872 -4.46577 0
M  V30 1681 C 157.614 -0.944595 -4.71838 0
M  V30 1682 C 159.966 -1.40819 -5.01816 0
M  V30 1683 C 157.294 -2.05351 -5.49589 0
M  V30 1684 C 159.646 -2.50757 -5.80778 0
M  V30 1685 C 158.31 -2.83458 -6.04324 0
M  V30 1686 H 157.58 0.0794431 -0.736729 0
M  V30 1687 H 160.227 -0.504481 -1.84736 0
M  V30 1688 H 158.532 1.35237 -3.6772 0
M  V30 1689 H 160.229 1.017 -3.87889 0
M  V30 1690 H 156.819 -0.36209 -4.27068 0
M  V30 1691 H 161.003 -1.17289 -4.82242 0
M  V30 1692 H 156.259 -2.3108 -5.6605 0
M  V30 1693 H 160.433 -3.12022 -6.22588 0
M  V30 1694 H 158.06 -3.69508 -6.64355 0
M  V30 1695 N 159.635 1.57281 -0.100228 0
M  V30 1696 C 160.86 1.99302 0.573881 0
M  V30 1697 C 161.285 0.979059 1.60611 0
M  V30 1698 O 160.643 -0.0517803 1.81226 0
M  V30 1699 C 160.691 3.40274 1.19358 0
M  V30 1700 O 159.795 3.41676 2.30935 0
M  V30 1701 H 159.136 0.647944 0.145138 0
M  V30 1702 H 161.666 2.03779 -0.183156 0
M  V30 1703 H 161.676 3.78078 1.53365 0
M  V30 1704 H 160.351 4.13594 0.437385 0
M  V30 1705 H 158.928 3.15672 1.98509 0
M  V30 1706 N 161.113 -0.173488 1.56642 0
M  V30 1707 C 162.353 -0.896984 1.83667 0
M  V30 1708 C 162.717 -1.79523 0.680842 0
M  V30 1709 O 163.918 -2.55616 0.831488 0
M  V30 1710 C 162.189 -1.67351 3.15798 0
M  V30 1711 S 163.748 -2.44607 3.64298 0
M  V30 1712 H 160.566 -0.300464 0.644393 0
M  V30 1713 H 163.168 -0.158775 1.94854 0
M  V30 1714 H 161.872 -1.00462 3.97914 0
M  V30 1715 H 161.403 -2.45313 3.07546 0
M  V30 1716 H 163.418 -3.69261 3.31452 0
M  V30 1717 N 162.591 -1.51276 -0.441967 0
M  V30 1718 C 163.539 -1.72823 -1.55676 0
M  V30 1719 C 164.533 -0.59445 -1.58627 0
M  V30 1720 O 165.739 -0.775715 -1.62427 0
M  V30 1721 H 162.114 -0.545983 -0.517113 0
M  V30 1722 H 164.085 -2.6628 -1.34675 0
M  V30 1723 C 162.834 -1.86619 -2.93375 0
M  V30 1724 H 162.157 -2.73264 -2.91834 0
M  V30 1725 H 163.597 -2.05709 -3.70756 0
M  V30 1726 C 162.056 -0.624842 -3.31055 0
M  V30 1727 O 162.586 0.222636 -4.01083 0
M  V30 1728 N 160.792 -0.470288 -2.86769 0
M  V30 1729 H 160.339 -1.161 -2.29953 0
M  V30 1730 H 160.297 0.359051 -3.12343 0
M  V30 1731 N 164.069 0.697108 -1.41344 0
M  V30 1732 C 165.297 1.48593 -1.43972 0
M  V30 1733 C 165.712 1.88747 -0.0445612 0
M  V30 1734 O 165.069 1.56682 0.935785 0
M  V30 1735 C 165.12 2.74946 -2.34706 0
M  V30 1736 O 164.841 2.36484 -3.68791 0
M  V30 1737 C 166.342 3.687 -2.46121 0
M  V30 1738 H 163.562 0.457964 -0.490418 0
M  V30 1739 H 166.106 0.858429 -1.8561 0
M  V30 1740 H 164.261 3.33937 -1.9638 0
M  V30 1741 H 164.675 3.17918 -4.17167 0
M  V30 1742 H 166.149 4.54145 -3.13777 0
M  V30 1743 H 166.626 4.13081 -1.49199 0
M  V30 1744 H 167.232 3.15613 -2.85076 0
M  V30 1745 N 165.547 1.27147 0.931209 0
M  V30 1746 C 166.795 1.13055 1.6752 0
M  V30 1747 C 167.116 -0.324791 1.92276 0
M  V30 1748 O 166.386 -1.22775 1.52654 0
M  V30 1749 H 164.966 0.415391 0.620854 0
M  V30 1750 H 167.628 1.59623 1.11833 0
M  V30 1751 H 166.724 1.65694 2.64485 0
M  V30 1752 N 167.025 -1.13721 1.09112 0
M  V30 1753 C 168.272 -1.84924 0.825192 0
M  V30 1754 C 168.6 -1.83347 -0.649151 0
M  V30 1755 O 167.855 -1.26449 -1.49362 0
M  V30 1756 C 168.154 -3.32861 1.30146 0
M  V30 1757 C 167.82 -3.54621 2.78486 0
M  V30 1758 C 166.482 -3.60268 3.18999 0
M  V30 1759 C 168.834 -3.62855 3.74146 0
M  V30 1760 C 166.162 -3.71679 4.53951 0
M  V30 1761 C 168.514 -3.75793 5.08883 0
M  V30 1762 C 167.178 -3.79692 5.4899 0
M  V30 1763 H 166.448 -0.676684 0.301959 0
M  V30 1764 H 169.095 -1.3428 1.36533 0
M  V30 1765 H 167.4 -3.85835 0.681064 0
M  V30 1766 H 169.097 -3.86395 1.07236 0
M  V30 1767 H 165.687 -3.50879 2.46134 0
M  V30 1768 H 169.871 -3.57775 3.43963 0
M  V30 1769 H 165.127 -3.72963 4.84467 0
M  V30 1770 H 169.301 -3.81107 5.82864 0
M  V30 1771 H 166.928 -3.88287 6.53558 0
M  V30 1772 N 168.503 -0.877838 -1.30888 0
M  V30 1773 C 169.733 -0.506678 -2.00291 0
M  V30 1774 C 170.141 0.907449 -1.66018 0
M  V30 1775 O 169.484 1.60719 -0.88967 0
M  V30 1776 C 169.546 -0.59323 -3.54572 0
M  V30 1777 C 169.21 -1.97038 -4.12341 0
M  V30 1778 C 170.207 -2.93889 -4.28865 0
M  V30 1779 C 167.892 -2.27383 -4.47886 0
M  V30 1780 C 169.886 -4.19224 -4.80136 0
M  V30 1781 C 167.573 -3.52965 -4.98857 0
M  V30 1782 C 168.571 -4.48701 -5.14934 0
M  V30 1783 O 168.259 -5.72056 -5.64808 0
M  V30 1784 H 167.991 -0.1951 -0.647234 0
M  V30 1785 H 170.545 -1.18301 -1.6791 0
M  V30 1786 H 168.775 0.140057 -3.86446 0
M  V30 1787 H 170.464 -0.234372 -4.05223 0
M  V30 1788 H 171.23 -2.71756 -4.01714 0
M  V30 1789 H 167.109 -1.53639 -4.34645 0
M  V30 1790 H 170.653 -4.93956 -4.92599 0
M  V30 1791 H 166.55 -3.74939 -5.25443 0
M  V30 1792 H 167.318 -5.74337 -5.83163 0
M  V30 1793 N 169.982 1.44106 -0.638065 0
M  V30 1794 C 170.912 2.33448 0.0494287 0
M  V30 1795 C 171.893 1.48606 0.827672 0
M  V30 1796 O 173.078 1.77308 0.792173 0
M  V30 1797 C 170.208 3.31771 1.02691 0
M  V30 1798 C 169.162 4.26485 0.359823 0
M  V30 1799 C 168.488 5.14729 1.44769 0
M  V30 1800 C 169.788 5.17056 -0.738296 0
M  V30 1801 H 171.482 2.91183 -0.696636 0
M  V30 1802 H 169.028 1.40014 -0.336456 0
M  V30 1803 H 170.981 3.93161 1.51666 0
M  V30 1804 H 169.705 2.7226 1.80395 0
M  V30 1805 H 168.364 3.66437 -0.10934 0
M  V30 1806 H 168.012 4.51566 2.21578 0
M  V30 1807 H 167.712 5.78913 1.00668 0
M  V30 1808 H 169.236 5.78991 1.93911 0
M  V30 1809 H 170.65 5.72342 -0.331354 0
M  V30 1810 H 169.047 5.89879 -1.10286 0
M  V30 1811 H 170.117 4.57652 -1.60258 0
M  V30 1812 N 171.46 0.379036 1.52974 0
M  V30 1813 C 172.408 -0.476033 2.27677 0
M  V30 1814 C 173.402 -1.0719 1.31174 0
M  V30 1815 O 174.608 -1.01355 1.48752 0
M  V30 1816 H 170.983 -0.172255 0.732006 0
M  V30 1817 H 172.954 0.175615 2.97883 0
M  V30 1818 C 171.703 -1.5967 3.0887 0
M  V30 1819 H 171.026 -1.1475 3.82978 0
M  V30 1820 H 172.466 -2.16943 3.64296 0
M  V30 1821 C 170.925 -2.54682 2.20542 0
M  V30 1822 O 171.455 -3.57836 1.82527 0
M  V30 1823 N 169.661 -2.24183 1.84907 0
M  V30 1824 H 169.208 -1.40333 2.1602 0
M  V30 1825 H 169.166 -2.88006 1.26096 0
M  V30 1826 N 172.938 -1.57226 0.108567 0
M  V30 1827 C 174.186 -1.94448 -0.550853 0
M  V30 1828 C 174.507 -0.992074 -1.67878 0
M  V30 1829 O 173.777 -0.0465 -1.95845 0
M  V30 1830 H 172.357 -0.717897 -0.206479 0
M  V30 1831 H 175.019 -1.94112 0.175062 0
M  V30 1832 H 174.115 -2.97218 -0.952259 0
M  V30 1833 N 174.416 0.165178 -1.56732 0
M  V30 1834 C 175.379 1.18822 -1.95995 0
M  V30 1835 C 176.379 1.3685 -0.84431 0
M  V30 1836 O 177.569 1.34152 -1.11126 0
M  V30 1837 C 174.701 2.5521 -2.26011 0
M  V30 1838 H 175.894 0.851825 -2.87548 0
M  V30 1839 H 173.447 0.407857 -1.50885 0
M  V30 1840 H 174.182 2.93852 -1.37191 0
M  V30 1841 H 173.967 2.43489 -3.07336 0
M  V30 1842 H 175.457 3.28927 -2.57288 0
M  V30 1843 N 175.894 1.51508 0.433938 0
M  V30 1844 C 177.171 1.54888 1.19453 0
M  V30 1845 C 177.551 0.315154 2.08734 0
M  V30 1846 O 176.899 -0.699558 2.17528 0
M  V30 1847 C 177.109 2.86467 1.99342 0
M  V30 1848 C 178.457 3.38545 2.56267 0
M  V30 1849 O 179.481 2.88041 2.0955 0
M  V30 1850 O 178.34 4.26675 3.41483 0
M  V30 1851 H 175.434 0.622863 0.544032 0
M  V30 1852 H 177.98 1.63823 0.442732 0
M  V30 1853 H 176.752 3.67718 1.33788 0
M  V30 1854 H 176.375 2.8071 2.8158 0
M  V30 1855 N 177.372 -0.689602 1.41712 0
M  V30 1856 C 178.597 -1.48329 1.44959 0
M  V30 1857 C 179.022 -1.8801 0.0581283 0
M  V30 1858 O 178.38 -1.55026 -0.940035 0
M  V30 1859 C 178.428 -2.71835 2.36935 0
M  V30 1860 O 177.532 -3.69549 1.8305 0
M  V30 1861 H 176.873 -0.446199 0.491734 0
M  V30 1862 H 179.403 -0.847127 1.86239 0
M  V30 1863 H 179.413 -3.20076 2.53013 0
M  V30 1864 H 178.088 -2.42291 3.38035 0
M  V30 1865 H 176.665 -3.2851 1.76452 0
M  V30 1866 N 178.85 -1.27639 -0.924453 0
M  V30 1867 C 179.813 -1.10681 -2.00705 0
M  V30 1868 C 180.813 -0.0497823 -1.60723 0
M  V30 1869 O 182.003 -0.294654 -1.7169 0
M  V30 1870 C 179.135 -0.687164 -3.33902 0
M  V30 1871 H 180.328 -2.06817 -2.17179 0
M  V30 1872 H 177.881 -1.10473 -1.10569 0
M  V30 1873 H 178.616 0.275439 -3.23128 0
M  V30 1874 H 178.401 -1.45061 -3.6428 0
M  V30 1875 H 179.891 -0.590853 -4.13399 0
M  V30 1876 N 180.328 1.1314 -1.09713 0
M  V30 1877 C 181.275 2.18642 -0.739196 0
M  V30 1878 C 182.245 1.63706 0.280978 0
M  V30 1879 O 183.43 1.90111 0.161946 0
M  V30 1880 C 180.57 3.44685 -0.169102 0
M  V30 1881 C 179.683 4.13711 -1.24367 0
M  V30 1882 C 178.818 5.27379 -0.636019 0
M  V30 1883 C 177.857 5.88259 -1.69169 0
M  V30 1884 N 176.994 6.93352 -1.10485 0
M  V30 1885 H 181.834 2.48607 -1.64312 0
M  V30 1886 H 179.371 1.22066 -0.820875 0
M  V30 1887 H 181.329 4.16815 0.179256 0
M  V30 1888 H 179.959 3.15161 0.698079 0
M  V30 1889 H 179.011 3.39835 -1.70927 0
M  V30 1890 H 180.323 4.55037 -2.04311 0
M  V30 1891 H 179.477 6.06238 -0.236677 0
M  V30 1892 H 178.216 4.8731 0.194928 0
M  V30 1893 H 177.221 5.08092 -2.10055 0
M  V30 1894 H 178.446 6.30399 -2.52536 0
M  V30 1895 H 176.392 6.55335 -0.295234 0
M  V30 1896 H 176.309 7.33236 -1.84121 0
M  V30 1897 H 177.577 7.76057 -0.73181 0
M  V30 1898 N 181.806 0.884767 1.30421 0
M  V30 1899 C 183.046 0.509806 1.9794 0
M  V30 1900 C 183.41 -0.923736 1.68319 0
M  V30 1901 O 184.611 -1.40481 2.29169 0
M  V30 1902 C 182.882 0.776732 3.48858 0
M  V30 1903 S 184.441 0.503843 4.35898 0
M  V30 1904 H 181.259 0.189699 0.685227 0
M  V30 1905 H 183.861 1.14399 1.58535 0
M  V30 1906 H 182.565 1.81857 3.67908 0
M  V30 1907 H 182.096 0.1301 3.93185 0
M  V30 1908 H 184.111 -0.657625 4.91823 0
M  V30 1909 N 183.284 -1.43765 0.645699 0
M  V30 1910 C 184.512 -2.06253 0.163556 0
M  V30 1911 C 184.927 -1.48352 -1.16778 0
M  V30 1912 O 184.284 -0.611932 -1.71935 0
M  V30 1913 C 184.335 -3.61453 0.0583186 0
M  V30 1914 O 184.056 -4.172 1.33702 0
M  V30 1915 C 185.557 -4.41002 -0.450795 0
M  V30 1916 H 182.777 -0.665413 0.0864077 0
M  V30 1917 H 185.321 -1.84396 0.884222 0
M  V30 1918 H 183.476 -3.82522 -0.612865 0
M  V30 1919 H 183.89 -5.10791 1.19131 0
M  V30 1920 H 185.364 -5.49966 -0.473403 0
M  V30 1921 H 185.841 -4.13488 -1.48068 0
M  V30 1922 H 186.447 -4.24886 0.187637 0
M  V30 1923 N 184.763 -0.387143 -1.52771 0
M  V30 1924 C 185.673 0.456442 -2.30117 0
M  V30 1925 C 186.689 1.07342 -1.36944 0
M  V30 1926 O 187.865 1.07971 -1.70013 0
M  V30 1927 C 184.93 1.56957 -3.09136 0
M  V30 1928 C 183.991 0.977916 -4.18014 0
M  V30 1929 C 183.224 2.038 -4.93256 0
M  V30 1930 O 183.447 3.25271 -4.68567 0
M  V30 1931 O 182.381 1.6565 -5.78657 0
M  V30 1932 H 186.207 -0.17359 -3.03203 0
M  V30 1933 H 183.792 -0.150919 -1.48636 0
M  V30 1934 H 185.674 2.21628 -3.58412 0
M  V30 1935 H 184.349 2.18461 -2.38865 0
M  V30 1936 H 183.256 0.294525 -3.72939 0
M  V30 1937 H 184.589 0.407128 -4.90513 0
M  V30 1938 N 186.241 1.57166 -0.116904 0
M  V30 1939 C 187.151 2.18745 0.847812 0
M  V30 1940 C 188.167 1.163 1.29423 0
M  V30 1941 O 189.343 1.48761 1.35765 0
M  V30 1942 C 186.408 2.77307 2.0809 0
M  V30 1943 C 185.469 3.94781 1.68661 0
M  V30 1944 C 184.702 4.50541 2.86091 0
M  V30 1945 O 184.925 4.05202 4.01456 0
M  V30 1946 O 183.859 5.41256 2.63298 0
M  V30 1947 H 187.685 3.01632 0.353778 0
M  V30 1948 H 185.27 1.49005 0.108599 0
M  V30 1949 H 187.152 3.14647 2.80313 0
M  V30 1950 H 185.827 1.97452 2.56504 0
M  V30 1951 H 184.734 3.62214 0.935518 0
M  V30 1952 H 186.067 4.76065 1.24991 0
M  V30 1953 N 187.719 -0.156864 1.56817 0
M  V30 1954 C 188.967 -0.869404 1.82444 0
M  V30 1955 C 189.288 -1.82147 0.69623 0
M  V30 1956 O 188.558 -1.93847 -0.28287 0
M  V30 1957 H 187.138 -0.324043 0.673056 0
M  V30 1958 H 189.8 -0.153224 1.94297 0
M  V30 1959 H 188.896 -1.43761 2.77019 0
M  V30 1960 N 189.197 -1.51736 -0.425897 0
M  V30 1961 C 190.144 -1.73875 -1.51776 0
M  V30 1962 C 191.114 -0.580702 -1.55618 0
M  V30 1963 O 192.299 -0.81641 -1.72451 0
M  V30 1964 C 189.439 -1.88012 -2.89388 0
M  V30 1965 C 188.552 -3.15606 -2.94986 0
M  V30 1966 C 187.687 -3.20271 -4.23793 0
M  V30 1967 C 186.726 -4.42134 -4.23302 0
M  V30 1968 N 185.863 -4.44284 -5.43651 0
M  V30 1969 H 190.703 -2.67071 -1.32201 0
M  V30 1970 H 188.24 -1.32351 -0.642008 0
M  V30 1971 H 190.198 -1.9419 -3.69251 0
M  V30 1972 H 188.828 -0.98213 -3.07496 0
M  V30 1973 H 187.88 -3.18681 -2.07717 0
M  V30 1974 H 189.192 -4.05486 -2.90486 0
M  V30 1975 H 188.346 -3.25428 -5.12036 0
M  V30 1976 H 187.085 -2.28299 -4.30965 0
M  V30 1977 H 186.09 -4.3714 -3.3345 0
M  V30 1978 H 187.315 -5.35382 -4.17783 0
M  V30 1979 H 185.261 -3.55188 -5.51523 0
M  V30 1980 H 185.178 -5.27988 -5.41078 0
M  V30 1981 H 186.446 -4.53649 -6.33895 0
M  V30 1982 N 190.675 0.682077 -1.42076 0
M  V30 1983 C 191.921 1.44283 -1.43366 0
M  V30 1984 C 192.276 1.92344 -0.0465775 0
M  V30 1985 O 191.569 1.67517 0.929973 0
M  V30 1986 C 191.763 2.66036 -2.38662 0
M  V30 1987 C 191.592 2.29889 -3.86499 0
M  V30 1988 C 190.362 2.19599 -4.55087 0
M  V30 1989 C 192.56 1.91999 -4.77117 0
M  V30 1990 N 190.542 1.76478 -5.87987 0
M  V30 1991 C 191.913 1.59741 -5.99068 0
M  V30 1992 C 193.968 1.78927 -4.64639 0
M  V30 1993 C 192.671 1.15723 -7.0993 0
M  V30 1994 C 194.697 1.36314 -5.75476 0
M  V30 1995 C 194.059 1.04975 -6.96534 0
M  V30 1996 H 190.158 0.524739 -0.579805 0
M  V30 1997 H 192.742 0.787834 -1.78048 0
M  V30 1998 H 190.913 3.29237 -2.06053 0
M  V30 1999 H 192.645 3.32588 -2.30581 0
M  V30 2000 H 189.4 2.38433 -4.09202 0
M  V30 2001 H 189.824 1.57362 -6.58458 0
M  V30 2002 H 194.466 2.01805 -3.7153 0
M  V30 2003 H 192.184 0.91591 -8.02893 0
M  V30 2004 H 195.77 1.26731 -5.6783 0
M  V30 2005 H 194.65 0.725017 -7.80841 0
M  V30 2006 N 192.153 1.28127 0.917671 0
M  V30 2007 C 193.378 1.18007 1.70555 0
M  V30 2008 C 193.803 -0.258257 1.86319 0
M  V30 2009 O 193.161 -1.1869 1.37049 0
M  V30 2010 C 193.209 1.87948 3.07746 0
M  V30 2011 O 192.313 1.18427 3.9503 0
M  V30 2012 H 191.654 0.409867 0.522403 0
M  V30 2013 H 194.184 1.69379 1.1477 0
M  V30 2014 H 194.194 1.95701 3.58001 0
M  V30 2015 H 192.869 2.92573 2.95591 0
M  V30 2016 H 191.446 1.18811 3.53466 0
M  V30 2017 N 193.631 -1.12557 1.10312 0
M  V30 2018 C 195.042 -1.65574 0.862678 0
M  V30 2019 C 195.393 -1.86566 -0.607256 0
M  V30 2020 O 194.518 -1.59121 -1.46662 0
M  V30 2021 C 195.113 -3.00776 1.55947 0
M  V30 2022 C 193.672 -3.50748 1.36576 0
M  V30 2023 C 192.819 -2.25797 1.60968 0
M  V30 2024 H 195.77 -0.963552 1.26101 0
M  V30 2025 H 195.791 -3.67185 0.997753 0
M  V30 2026 H 195.303 -2.85465 2.62928 0
M  V30 2027 H 193.404 -3.71245 0.317531 0
M  V30 2028 H 193.517 -4.30289 2.10686 0
M  V30 2029 H 191.881 -2.32841 1.03234 0
M  V30 2030 H 192.664 -2.13043 2.69198 0
M  V30 2031 N 195.109 -0.891671 -1.2995 0
M  V30 2032 C 196.019 -0.367691 -2.31701 0
M  V30 2033 C 197.035 0.533486 -1.6562 0
M  V30 2034 O 198.211 0.424997 -1.96865 0
M  V30 2035 C 195.276 0.403406 -3.44345 0
M  V30 2036 C 194.337 -0.528328 -4.26037 0
M  V30 2037 C 193.57 0.206063 -5.33302 0
M  V30 2038 O 193.793 1.43119 -5.52153 0
M  V30 2039 O 192.727 -0.447281 -6.00236 0
M  V30 2040 H 196.553 -1.21163 -2.78484 0
M  V30 2041 H 194.138 -0.655725 -1.34241 0
M  V30 2042 H 196.02 0.839753 -4.12948 0
M  V30 2043 H 194.695 1.22354 -2.99685 0
M  V30 2044 H 193.602 -1.01362 -3.60106 0
M  V30 2045 H 194.935 -1.31465 -4.74318 0
M  V30 2046 N 196.587 1.43421 -0.653314 0
M  V30 2047 C 197.517 2.33487 0.0246656 0
M  V30 2048 C 198.498 1.49475 0.811863 0
M  V30 2049 O 199.683 1.78139 0.773322 0
M  V30 2050 C 196.813 3.32841 0.99166 0
M  V30 2051 C 195.767 4.26842 0.314568 0
M  V30 2052 C 195.093 5.16236 1.39302 0
M  V30 2053 C 196.393 5.16243 -0.793095 0
M  V30 2054 H 198.087 2.90427 -0.727481 0
M  V30 2055 H 195.633 1.39649 -0.351287 0
M  V30 2056 H 197.586 3.94747 1.47487 0
M  V30 2057 H 196.31 2.74158 1.77497 0
M  V30 2058 H 194.969 3.663 -0.148199 0
M  V30 2059 H 194.617 4.53891 2.16776 0
M  V30 2060 H 194.317 5.79948 0.945223 0
M  V30 2061 H 195.841 5.81015 1.87759 0
M  V30 2062 H 197.255 5.71958 -0.392039 0
M  V30 2063 H 195.652 5.88676 -1.16536 0
M  V30 2064 H 196.722 4.55927 -1.65103 0
M  V30 2065 N 198.065 0.39524 1.52563 0
M  V30 2066 C 199.476 -0.0774719 1.86539 0
M  V30 2067 C 199.827 -1.45641 1.31466 0
M  V30 2068 O 198.952 -2.06459 0.648367 0
M  V30 2069 C 199.547 -0.147356 3.38479 0
M  V30 2070 C 198.106 -0.564373 3.72145 0
M  V30 2071 C 197.253 0.269919 2.75983 0
M  V30 2072 H 200.204 0.612876 1.46388 0
M  V30 2073 H 200.225 -0.965343 3.68051 0
M  V30 2074 H 199.737 0.856387 3.78534 0
M  V30 2075 H 197.838 -1.57527 3.37663 0
M  V30 2076 H 197.951 -0.318402 4.78041 0
M  V30 2077 H 196.315 -0.265696 2.5331 0
M  V30 2078 H 197.098 1.27175 3.18875 0
M  V30 2079 N 199.544 -1.57102 0.125237 0
M  V30 2080 C 200.79 -1.95697 -0.532035 0
M  V30 2081 C 201.123 -1.009 -1.6593 0
M  V30 2082 O 200.398 -0.047347 -1.94442 0
M  V30 2083 C 200.681 -3.44181 -1.05884 0
M  V30 2084 C 200.534 -4.49752 0.0654392 0
M  V30 2085 C 201.853 -3.94655 -1.9477 0
M  V30 2086 H 198.972 -0.711571 -0.191925 0
M  V30 2087 H 201.614 -1.88923 0.20206 0
M  V30 2088 H 199.764 -3.50085 -1.68442 0
M  V30 2089 H 201.436 -4.55943 0.700982 0
M  V30 2090 H 199.679 -4.27653 0.727709 0
M  V30 2091 H 200.35 -5.50924 -0.344505 0
M  V30 2092 H 202.826 -3.91094 -1.42074 0
M  V30 2093 H 201.702 -4.99057 -2.28546 0
M  V30 2094 H 201.963 -3.35718 -2.87656 0
M  V30 2095 N 201.022 0.148545 -1.56898 0
M  V30 2096 C 202.262 0.86765 -1.85071 0
M  V30 2097 C 202.626 1.78417 -0.709317 0
M  V30 2098 O 203.827 2.54261 -0.872049 0
M  V30 2099 C 202.098 1.62306 -3.1842 0
M  V30 2100 S 203.657 2.3878 -3.68143 0
M  V30 2101 H 200.475 0.290174 -0.649092 0
M  V30 2102 H 203.077 0.127755 -1.95082 0
M  V30 2103 H 201.781 0.941192 -3.99462 0
M  V30 2104 H 201.312 2.4039 -3.1141 0
M  V30 2105 H 203.327 3.63942 -3.37285 0
M  V30 2106 N 202.5 1.5196 0.417844 0
M  V30 2107 C 203.463 1.74065 1.49111 0
M  V30 2108 C 204.463 0.610537 1.48758 0
M  V30 2109 O 205.653 0.87832 1.50437 0
M  V30 2110 C 202.785 1.81502 2.88565 0
M  V30 2111 H 203.978 2.69869 1.30807 0
M  V30 2112 H 201.531 1.42244 0.647785 0
M  V30 2113 H 202.266 0.875813 3.1225 0
M  V30 2114 H 202.051 2.63651 2.90225 0
M  V30 2115 H 203.541 2.00376 3.66387 0
M  V30 2116 N 203.978 -0.674533 1.42435 0
M  V30 2117 C 205.389 -1.25514 1.38214 0
M  V30 2118 C 205.74 -1.96055 0.0755464 0
M  V30 2119 O 204.865 -2.00028 -0.8257 0
M  V30 2120 C 205.46 -2.28269 2.50357 0
M  V30 2121 C 204.019 -2.81856 2.49467 0
M  V30 2122 C 203.166 -1.56182 2.29134 0
M  V30 2123 H 206.117 -0.467902 1.51646 0
M  V30 2124 H 206.138 -3.10009 2.20624 0
M  V30 2125 H 205.65 -1.769 3.45439 0
M  V30 2126 H 203.751 -3.37346 1.58204 0
M  V30 2127 H 203.864 -3.30854 3.46515 0
M  V30 2128 H 202.228 -1.82761 1.774 0
M  V30 2129 H 203.011 -1.06778 3.26272 0
M  V30 2130 N 205.456 -1.28612 -0.910864 0
M  V30 2131 C 206.705 -1.15311 -1.65488 0
M  V30 2132 C 207.018 0.296999 -1.93332 0
M  V30 2133 O 208.224 0.551168 -2.65847 0
M  V30 2134 C 206.68 -2.01599 -2.98137 0
M  V30 2135 C 206.288 -3.51367 -2.7793 0
M  V30 2136 C 208.032 -1.96993 -3.76024 0
M  V30 2137 C 205.939 -4.29797 -4.06237 0
M  V30 2138 H 204.869 -0.42796 -0.620779 0
M  V30 2139 H 207.52 -1.53166 -1.01057 0
M  V30 2140 H 205.902 -1.56603 -3.63719 0
M  V30 2141 H 207.076 -4.0434 -2.21011 0
M  V30 2142 H 205.391 -3.57529 -2.13452 0
M  V30 2143 H 207.988 -2.52856 -4.71135 0
M  V30 2144 H 208.331 -0.94733 -4.05378 0
M  V30 2145 H 208.864 -2.39973 -3.17266 0
M  V30 2146 H 205.603 -5.32648 -3.82055 0
M  V30 2147 H 205.123 -3.81596 -4.62757 0
M  V30 2148 H 206.802 -4.39869 -4.74473 0
M  V30 2149 N 206.934 1.1197 -1.10907 0
M  V30 2150 C 208.183 1.82947 -0.849302 0
M  V30 2151 C 208.496 1.85275 0.627112 0
M  V30 2152 O 209.702 2.52296 1.00295 0
M  V30 2153 C 208.158 3.28529 -1.46959 0
M  V30 2154 C 207.766 3.34546 -2.97965 0
M  V30 2155 C 209.51 4.04443 -1.28942 0
M  V30 2156 C 207.417 4.74491 -3.53004 0
M  V30 2157 H 206.347 0.685477 -0.314065 0
M  V30 2158 H 208.998 1.2604 -1.33365 0
M  V30 2159 H 207.38 3.85333 -0.912917 0
M  V30 2160 H 208.554 2.87654 -3.59989 0
M  V30 2161 H 206.869 2.72108 -3.15192 0
M  V30 2162 H 209.466 5.07787 -1.67502 0
M  V30 2163 H 209.809 4.15656 -0.231456 0
M  V30 2164 H 210.342 3.5401 -1.81443 0
M  V30 2165 H 207.081 4.68474 -4.58489 0
M  V30 2166 H 206.601 5.21816 -2.9575 0
M  V30 2167 H 208.28 5.4344 -3.51115 0
M  V30 2168 N 208.412 0.89855 1.29475 0
M  V30 2169 C 209.652 0.530771 1.97388 0
M  V30 2170 C 210.016 -0.905832 1.69289 0
M  V30 2171 O 211.217 -1.38042 2.30646 0
M  V30 2172 C 209.488 0.81369 3.48014 0
M  V30 2173 S 211.047 0.550048 4.35339 0
M  V30 2174 H 207.865 0.196956 0.683176 0
M  V30 2175 H 210.467 1.16074 1.57312 0
M  V30 2176 H 209.171 1.85749 3.65958 0
M  V30 2177 H 208.702 0.171795 3.93025 0
M  V30 2178 H 210.717 -0.605423 4.92493 0
M  V30 2179 N 209.89 -1.43072 0.660911 0
M  V30 2180 C 211.301 -1.84932 0.256348 0
M  V30 2181 C 211.652 -1.55325 -1.19868 0
M  V30 2182 O 210.777 -1.00607 -1.91591 0
M  V30 2183 C 211.372 -3.35684 0.458475 0
M  V30 2184 C 209.931 -3.76245 0.108161 0
M  V30 2185 C 209.078 -2.66749 0.757641 0
M  V30 2186 H 212.029 -1.33116 0.864051 0
M  V30 2187 H 212.05 -3.79365 -0.293683 0
M  V30 2188 H 211.562 -3.572 1.51755 0
M  V30 2189 H 209.663 -3.60338 -0.948014 0
M  V30 2190 H 209.776 -4.76058 0.538992 0
M  V30 2191 H 208.14 -2.53989 0.190185 0
M  V30 2192 H 208.923 -2.91092 1.81989 0
M  V30 2193 N 211.368 -0.403325 -1.52352 0
M  V30 2194 C 212.779 0.0675782 -1.86578 0
M  V30 2195 C 213.13 1.44941 -1.32236 0
M  V30 2196 O 212.255 2.06112 -0.659307 0
M  V30 2197 C 212.85 0.129404 -3.38553 0
M  V30 2198 C 211.409 0.544629 -3.72439 0
M  V30 2199 C 210.556 -0.284551 -2.75836 0
M  V30 2200 H 213.507 -0.620631 -1.46061 0
M  V30 2201 H 213.528 0.94581 -3.68558 0
M  V30 2202 H 213.04 -0.87645 -3.78074 0
M  V30 2203 H 211.141 1.55734 -3.38493 0
M  V30 2204 H 211.254 0.293046 -4.78203 0
M  V30 2205 H 209.618 0.252258 -2.53448 0
M  V30 2206 H 210.401 -1.28865 -3.18196 0
M  V30 2207 N 212.846 1.57033 -0.133567 0
M  V30 2208 C 214.257 1.82593 0.389464 0
M  V30 2209 C 214.608 1.05156 1.6564 0
M  V30 2210 O 213.733 0.292644 2.14412 0
M  V30 2211 C 214.328 3.31204 0.713377 0
M  V30 2212 C 212.887 3.57393 1.18098 0
M  V30 2213 C 212.034 2.76598 0.197126 0
M  V30 2214 H 214.985 1.54598 -0.358481 0
M  V30 2215 H 215.006 3.46627 1.56939 0
M  V30 2216 H 214.518 3.87537 -0.2089 0
M  V30 2217 H 212.619 3.06433 2.11966 0
M  V30 2218 H 212.732 4.65915 1.11624 0
M  V30 2219 H 211.096 2.45257 0.687088 0
M  V30 2220 H 211.879 3.35697 -0.718504 0
M  V30 2221 N 214.325 -0.140222 1.56975 0
M  V30 2222 C 215.55 -0.870414 1.88251 0
M  V30 2223 C 215.975 -1.73637 0.723312 0
M  V30 2224 O 215.333 -1.78329 -0.32689 0
M  V30 2225 C 215.381 -1.69737 3.18154 0
M  V30 2226 O 214.485 -2.80229 3.02565 0
M  V30 2227 H 213.826 -0.242025 0.61832 0
M  V30 2228 H 216.356 -0.128999 2.04193 0
M  V30 2229 H 216.366 -2.09099 3.50345 0
M  V30 2230 H 215.041 -1.06152 4.02125 0
M  V30 2231 H 213.618 -2.44224 2.81796 0
M  V30 2232 N 215.803 -1.52179 -0.40978 0
M  V30 2233 C 217.052 -1.65434 -1.15388 0
M  V30 2234 C 217.365 -0.390056 -1.91671 0
M  V30 2235 O 218.571 -0.402399 -2.68501 0
M  V30 2236 C 217.027 -2.92279 -2.10003 0
M  V30 2237 C 216.635 -4.25813 -1.39239 0
M  V30 2238 C 218.379 -3.14897 -2.84675 0
M  V30 2239 C 216.286 -5.43782 -2.32498 0
M  V30 2240 H 215.216 -0.616267 -0.434432 0
M  V30 2241 H 217.867 -1.78666 -0.418401 0
M  V30 2242 H 216.249 -2.72744 -2.871 0
M  V30 2243 H 217.423 -4.55828 -0.675099 0
M  V30 2244 H 215.738 -4.09292 -0.766097 0
M  V30 2245 H 218.335 -4.0021 -3.54593 0
M  V30 2246 H 218.678 -2.29103 -3.47588 0
M  V30 2247 H 219.211 -3.34901 -2.14677 0
M  V30 2248 H 215.95 -6.3192 -1.74233 0
M  V30 2249 H 215.47 -5.18106 -3.02201 0
M  V30 2250 H 217.149 -5.76834 -2.93038 0
M  V30 2251 N 217.281 0.66697 -1.42791 0
M  V30 2252 C 218.692 1.2478 -1.38877 0
M  V30 2253 C 219.043 1.96012 -0.0859426 0
M  V30 2254 O 218.168 2.00463 0.815081 0
M  V30 2255 C 218.763 2.26938 -2.51564 0
M  V30 2256 C 217.322 2.80529 -2.50959 0
M  V30 2257 C 216.469 1.54965 -2.29959 0
M  V30 2258 H 219.42 0.459853 -1.51892 0
M  V30 2259 H 219.441 3.08834 -2.22265 0
M  V30 2260 H 218.953 1.75065 -3.46372 0
M  V30 2261 H 217.054 3.36502 -1.59991 0
M  V30 2262 H 217.167 3.29012 -3.48265 0
M  V30 2263 H 215.531 1.81817 -1.78366 0
M  V30 2264 H 216.314 1.05047 -3.26833 0
M  V30 2265 N 218.759 1.29093 0.90403 0
M  V30 2266 C 219.987 1.19689 1.68766 0
M  V30 2267 C 220.402 -0.243113 1.87228 0
M  V30 2268 O 219.759 -1.16326 1.40621 0
M  V30 2269 C 219.81 1.90144 3.07453 0
M  V30 2270 O 219.531 3.2852 2.89838 0
M  V30 2271 C 221.032 1.87162 4.01852 0
M  V30 2272 H 218.252 0.415035 0.527244 0
M  V30 2273 H 220.796 1.7039 1.13082 0
M  V30 2274 H 218.951 1.43289 3.59926 0
M  V30 2275 H 219.365 3.63944 3.77684 0
M  V30 2276 H 220.839 2.41032 4.96596 0
M  V30 2277 H 221.316 0.84617 4.30972 0
M  V30 2278 H 221.922 2.33741 3.5531 0
M  V30 2279 N 220.237 -1.11381 1.11499 0
M  V30 2280 C 221.484 -1.83132 0.864231 0
M  V30 2281 C 221.812 -1.84683 -0.610114 0
M  V30 2282 O 221.067 -1.29589 -1.46646 0
M  V30 2283 C 221.366 -3.30026 1.37177 0
M  V30 2284 C 221.032 -3.48634 2.85946 0
M  V30 2285 C 219.694 -3.53421 3.26569 0
M  V30 2286 C 222.046 -3.54837 3.81759 0
M  V30 2287 C 219.374 -3.61967 4.61733 0
M  V30 2288 C 221.726 -3.64915 5.1674 0
M  V30 2289 C 220.39 -3.67962 5.5692 0
M  V30 2290 H 219.66 -0.670127 0.316245 0
M  V30 2291 H 222.307 -1.31354 1.3935 0
M  V30 2292 H 220.612 -3.84304 0.762753 0
M  V30 2293 H 222.309 -3.84034 1.15408 0
M  V30 2294 H 218.899 -3.45579 2.53521 0
M  V30 2295 H 223.083 -3.50399 3.51474 0
M  V30 2296 H 218.339 -3.62603 4.92269 0
M  V30 2297 H 222.513 -3.68658 5.90816 0
M  V30 2298 H 220.14 -3.74336 6.61647 0
M  V30 2299 N 221.715 -0.905404 -1.28997 0
M  V30 2300 C 222.678 -0.392253 -2.25819 0
M  V30 2301 C 223.678 0.476753 -1.5357 0
M  V30 2302 O 224.868 0.280994 -1.71919 0
M  V30 2303 C 222 0.438588 -3.38067 0
M  V30 2304 H 223.193 -1.24743 -2.72725 0
M  V30 2305 H 220.746 -0.684051 -1.40536 0
M  V30 2306 H 221.481 1.31352 -2.96508 0
M  V30 2307 H 221.266 -0.184167 -3.91667 0
M  V30 2308 H 222.756 0.78873 -4.10084 0
M  V30 2309 N 223.193 1.4272 -0.668489 0
M  V30 2310 C 224.421 2.05966 -0.196348 0
M  V30 2311 C 224.836 1.50191 1.14403 0
M  V30 2312 O 224.193 0.639208 1.7094 0
M  V30 2313 C 224.244 3.61314 -0.115815 0
M  V30 2314 O 223.965 4.1502 -1.40322 0
M  V30 2315 C 225.466 4.41663 0.380579 0
M  V30 2316 H 222.686 0.663954 -0.0969829 0
M  V30 2317 H 225.23 1.82966 -0.913446 0
M  V30 2318 H 223.385 3.83448 0.551931 0
M  V30 2319 H 223.799 5.08832 -1.27243 0
M  V30 2320 H 225.273 5.5065 0.385848 0
M  V30 2321 H 225.75 4.15792 1.41471 0
M  V30 2322 H 226.356 4.24534 -0.255209 0
M  V30 2323 N 224.671 0.411399 1.52136 0
M  V30 2324 C 225.601 -0.404015 2.29978 0
M  V30 2325 C 226.582 -1.04412 1.34284 0
M  V30 2326 O 227.767 -1.0527 1.63192 0
M  V30 2327 C 224.897 -1.5197 3.12286 0
M  V30 2328 C 223.851 -1.00448 4.16046 0
M  V30 2329 C 223.177 -2.21393 4.86712 0
M  V30 2330 C 224.477 -0.0569336 5.22269 0
M  V30 2331 H 226.171 0.245529 2.98392 0
M  V30 2332 H 223.717 0.119525 1.43503 0
M  V30 2333 H 225.67 -2.09715 3.6551 0
M  V30 2334 H 224.394 -2.19716 2.41646 0
M  V30 2335 H 223.053 -0.449421 3.63835 0
M  V30 2336 H 222.701 -2.87699 4.12599 0
M  V30 2337 H 222.401 -1.87571 5.56858 0
M  V30 2338 H 223.925 -2.7974 5.4275 0
M  V30 2339 H 225.339 -0.54325 5.7072 0
M  V30 2340 H 223.736 0.192594 5.99791 0
M  V30 2341 H 224.806 0.887663 4.76706 0
M  V30 2342 N 226.149 -1.5696 0.141893 0
M  V30 2343 C 227.565 -1.58151 -0.21456 0
M  V30 2344 C 227.765 -1.1559 -1.65049 0
M  V30 2345 O 226.821 -0.853832 -2.37626 0
M  V30 2346 C 228.134 -3.00674 0.0395576 0
M  V30 2347 C 229.682 -3.1299 -0.0245529 0
M  V30 2348 C 230.157 -4.57554 0.202167 0
M  V30 2349 N 231.648 -4.62961 0.148919 0
M  V30 2350 C 232.383 -5.7262 0.298924 0
M  V30 2351 N 231.879 -6.90947 0.50637 0
M  V30 2352 N 233.672 -5.61601 0.236886 0
M  V30 2353 H 225.823 -1.8292 1.07953 0
M  V30 2354 H 228.086 -0.846425 0.42693 0
M  V30 2355 H 227.792 -3.36183 1.03315 0
M  V30 2356 H 227.666 -3.70981 -0.682143 0
M  V30 2357 H 230.053 -2.77326 -1.00869 0
M  V30 2358 H 230.134 -2.4518 0.729396 0
M  V30 2359 H 229.778 -4.93922 1.18338 0
M  V30 2360 H 229.708 -5.23484 -0.572044 0
M  V30 2361 H 232.199 -3.77899 -0.00697015 0
M  V30 2362 H 232.512 -7.7038 0.611076 0
M  V30 2363 H 230.857 -6.92878 0.542628 0
M  V30 2364 H 234.048 -4.68039 0.0756209 0
M  V30 2365 H 234.221 -6.47015 0.357227 0
M  V30 2366 N 227.627 0.131896 -1.57047 0
M  V30 2367 C 228.873 0.843179 -1.84441 0
M  V30 2368 C 229.206 1.80129 -0.725749 0
M  V30 2369 O 228.481 1.92624 0.269469 0
M  V30 2370 C 228.764 1.60442 -3.22382 0
M  V30 2371 C 228.617 0.666782 -4.4483 0
M  V30 2372 C 229.936 2.56354 -3.5773 0
M  V30 2373 H 227.055 0.305081 -0.670891 0
M  V30 2374 H 229.697 0.107839 -1.89694 0
M  V30 2375 H 227.847 2.23128 -3.18035 0
M  V30 2376 H 229.519 0.0497646 -4.61273 0
M  V30 2377 H 227.762 -0.022609 -4.33794 0
M  V30 2378 H 228.433 1.23579 -5.37989 0
M  V30 2379 H 230.909 2.0378 -3.62785 0
M  V30 2380 H 229.785 3.06657 -4.5525 0
M  V30 2381 H 230.046 3.38419 -2.84473 0
M  V30 2382 N 229.106 1.52395 0.401703 0
M  V30 2383 C 230.336 1.70429 1.1678 0
M  V30 2384 C 230.744 0.416702 1.84554 0
M  V30 2385 O 230.087 -0.617697 1.73003 0
M  V30 2386 C 230.149 2.78919 2.26814 0
M  V30 2387 C 229.813 4.20437 1.79113 0
M  V30 2388 C 230.81 5.04028 1.27482 0
M  V30 2389 C 228.495 4.66704 1.85722 0
M  V30 2390 C 230.489 6.31961 0.830913 0
M  V30 2391 C 228.176 5.94625 1.40942 0
M  V30 2392 C 229.174 6.77082 0.897128 0
M  V30 2393 O 228.862 8.02607 0.455822 0
M  V30 2394 H 228.594 0.574272 0.356634 0
M  V30 2395 H 231.148 1.99767 0.477724 0
M  V30 2396 H 229.378 2.44973 2.99207 0
M  V30 2397 H 231.067 2.8548 2.88541 0
M  V30 2398 H 231.833 4.69471 1.21744 0
M  V30 2399 H 227.712 4.0262 2.24539 0
M  V30 2400 H 231.256 6.96271 0.430368 0
M  V30 2401 H 227.153 6.28688 1.46362 0
M  V30 2402 H 227.921 8.16453 0.578457 0
M  V30 2403 N 230.584 -0.659388 1.43143 0
M  V30 2404 C 231.531 -1.77249 1.47822 0
M  V30 2405 C 232.501 -1.62818 0.328558 0
M  V30 2406 O 233.686 -1.83151 0.534838 0
M  V30 2407 C 230.826 -3.15371 1.40126 0
M  V30 2408 C 229.939 -3.4098 2.65249 0
M  V30 2409 C 229.074 -4.68915 2.49584 0
M  V30 2410 C 228.113 -4.87608 3.70006 0
M  V30 2411 N 227.25 -6.06796 3.53189 0
M  V30 2412 H 232.09 -1.72584 2.42938 0
M  V30 2413 H 229.627 -0.842297 1.20598 0
M  V30 2414 H 231.585 -3.9521 1.33659 0
M  V30 2415 H 230.215 -3.19121 0.485964 0
M  V30 2416 H 229.267 -2.55282 2.8202 0
M  V30 2417 H 230.579 -3.50681 3.54717 0
M  V30 2418 H 229.733 -5.56871 2.4079 0
M  V30 2419 H 228.472 -4.61524 1.5763 0
M  V30 2420 H 227.477 -3.9809 3.79215 0
M  V30 2421 H 228.702 -4.96834 4.62961 0
M  V30 2422 H 226.648 -6.00549 2.63965 0
M  V30 2423 H 226.565 -6.17428 4.36255 0
M  V30 2424 H 227.833 -6.9739 3.48236 0
M  V30 2425 N 232.062 -1.29571 -0.897171 0
M  V30 2426 C 233.473 -1.15964 -1.46319 0
M  V30 2427 C 233.824 0.244267 -1.94674 0
M  V30 2428 O 232.949 1.13998 -1.83939 0
M  V30 2429 C 233.544 -2.09906 -2.65942 0
M  V30 2430 C 232.103 -2.00314 -3.18671 0
M  V30 2431 C 231.25 -2.00687 -1.91363 0
M  V30 2432 H 234.201 -1.42019 -0.708268 0
M  V30 2433 H 234.222 -1.67276 -3.41759 0
M  V30 2434 H 233.734 -3.12075 -2.30718 0
M  V30 2435 H 231.835 -1.01242 -3.58582 0
M  V30 2436 H 231.948 -2.88102 -3.82798 0
M  V30 2437 H 230.312 -1.45319 -2.09175 0
M  V30 2438 H 231.095 -3.04566 -1.58413 0
M  V30 2439 N 233.54 1.10788 -1.12088 0
M  V30 2440 C 234.765 1.87002 -0.896949 0
M  V30 2441 C 235.19 1.79933 0.548261 0
M  V30 2442 O 234.548 1.16662 1.38779 0
M  V30 2443 C 234.596 3.3349 -1.37174 0
M  V30 2444 O 233.7 4.08745 -0.547831 0
M  V30 2445 H 233.041 0.580397 -0.322545 0
M  V30 2446 H 235.571 1.39996 -1.49206 0
M  V30 2447 H 235.581 3.84339 -1.36922 0
M  V30 2448 H 234.256 3.37951 -2.42408 0
M  V30 2449 H 232.833 3.6776 -0.617034 0
M  V30 2450 N 235.018 0.912232 1.28515 0
M  V30 2451 C 235.981 0.404223 2.25607 0
M  V30 2452 C 236.981 -0.468602 1.53821 0
M  V30 2453 O 238.171 -0.271873 1.72065 0
M  V30 2454 C 235.303 -0.420653 3.38295 0
M  V30 2455 H 236.496 1.26188 2.7206 0
M  V30 2456 H 234.049 0.691495 1.40171 0
M  V30 2457 H 234.784 -1.29777 2.97201 0
M  V30 2458 H 234.569 0.204935 3.91564 0
M  V30 2459 H 236.059 -0.766971 4.10496 0
M  V30 2460 N 236.496 -1.42363 0.676048 0
M  V30 2461 C 237.744 -2.01123 0.198437 0
M  V30 2462 C 238.065 -1.53731 -1.19966 0
M  V30 2463 O 237.335 -0.759518 -1.80577 0
M  V30 2464 H 235.915 -0.743678 0.0703721 0
M  V30 2465 H 238.577 -1.74263 0.872837 0
M  V30 2466 H 237.673 -3.11454 0.200686 0
M  V30 2467 N 237.974 -0.419461 -1.51915 0
M  V30 2468 C 238.922 0.415502 -2.28859 0
M  V30 2469 C 239.916 1.03674 -1.3397 0
M  V30 2470 O 241.122 0.973757 -1.51387 0
M  V30 2471 H 237.497 0.152786 -0.736315 0
M  V30 2472 H 239.468 -0.254531 -2.97312 0
M  V30 2473 C 238.217 1.51425 -3.12995 0
M  V30 2474 H 237.54 1.04556 -3.85886 0
M  V30 2475 H 238.98 2.07208 -3.6992 0
M  V30 2476 C 237.439 2.48745 -2.27217 0
M  V30 2477 O 237.969 3.52871 -1.9195 0
M  V30 2478 N 236.175 2.19202 -1.90785 0
M  V30 2479 H 235.722 1.34556 -2.19664 0
M  V30 2480 H 235.68 2.84561 -1.33687 0
M  V30 2481 N 239.452 1.56882 -0.150215 0
M  V30 2482 C 240.4 2.18214 0.805313 0
M  V30 2483 C 241.394 1.14006 1.25296 0
M  V30 2484 O 242.6 1.3225 1.22107 0
M  V30 2485 H 238.975 0.698762 0.277913 0
M  V30 2486 H 240.946 2.97231 0.263862 0
M  V30 2487 C 239.695 2.82065 2.03309 0
M  V30 2488 H 239.018 3.61968 1.69763 0
M  V30 2489 H 240.458 3.28477 2.68103 0
M  V30 2490 C 238.917 1.80739 2.84315 0
M  V30 2491 O 239.447 1.27983 3.80767 0
M  V30 2492 N 237.653 1.4997 2.48913 0
M  V30 2493 H 237.2 1.93062 1.70542 0
M  V30 2494 H 237.158 0.824217 3.03404 0
M  V30 2495 N 240.93 -0.123565 1.57115 0
M  V30 2496 C 242.155 -0.850398 1.89164 0
M  V30 2497 C 242.58 -1.7286 0.741688 0
M  V30 2498 O 241.938 -1.78665 -0.307958 0
M  V30 2499 C 241.986 -1.66353 3.19936 0
M  V30 2500 O 241.09 -2.77004 3.0552 0
M  V30 2501 H 240.431 -0.235454 0.620852 0
M  V30 2502 H 242.961 -0.107335 2.04318 0
M  V30 2503 H 242.971 -2.05372 3.52543 0
M  V30 2504 H 241.646 -1.01881 4.03228 0
M  V30 2505 H 240.223 -2.41221 2.84371 0
M  V30 2506 N 242.408 -1.52605 -0.393616 0
M  V30 2507 C 243.338 -1.80022 -1.48709 0
M  V30 2508 C 244.319 -0.651995 -1.57108 0
M  V30 2509 O 245.504 -0.89913 -1.72132 0
M  V30 2510 C 242.634 -1.96492 -2.86371 0
M  V30 2511 C 241.588 -3.12161 -2.92813 0
M  V30 2512 C 240.914 -3.13877 -4.3288 0
M  V30 2513 C 242.214 -4.51322 -2.6288 0
M  V30 2514 H 243.908 -2.71589 -1.26015 0
M  V30 2515 H 241.454 -1.30684 -0.604778 0
M  V30 2516 H 243.407 -2.14255 -3.62867 0
M  V30 2517 H 242.131 -1.01611 -3.10391 0
M  V30 2518 H 240.79 -2.94173 -2.18764 0
M  V30 2519 H 240.438 -2.16687 -4.53933 0
M  V30 2520 H 240.138 -3.91576 -4.38112 0
M  V30 2521 H 241.662 -3.33789 -5.1129 0
M  V30 2522 H 243.076 -4.69435 -3.29096 0
M  V30 2523 H 241.473 -5.31053 -2.79468 0
M  V30 2524 H 242.543 -4.58353 -1.58242 0
M  V30 2525 N 243.887 0.651787 -1.4349 0
M  V30 2526 C 245.117 1.43728 -1.48411 0
M  V30 2527 C 245.525 1.8893 -0.10103 0
M  V30 2528 O 244.868 1.60182 0.899307 0
M  V30 2529 C 244.93 2.70411 -2.36893 0
M  V30 2530 C 244.594 2.4714 -3.8441 0
M  V30 2531 C 245.591 2.10271 -4.75481 0
M  V30 2532 C 243.276 2.6142 -4.28912 0
M  V30 2533 C 245.27 1.87982 -6.0905 0
M  V30 2534 C 242.957 2.38746 -5.62533 0
M  V30 2535 C 243.955 2.02083 -6.5242 0
M  V30 2536 O 243.643 1.79647 -7.8357 0
M  V30 2537 H 243.375 0.447962 -0.506267 0
M  V30 2538 H 245.929 0.80624 -1.88915 0
M  V30 2539 H 244.159 3.36079 -1.91278 0
M  V30 2540 H 245.848 3.32364 -2.33 0
M  V30 2541 H 246.614 1.98814 -4.42378 0
M  V30 2542 H 242.493 2.88931 -3.59222 0
M  V30 2543 H 246.037 1.5929 -6.7917 0
M  V30 2544 H 241.934 2.49806 -5.95203 0
M  V30 2545 H 242.702 1.9406 -7.95162 0
M  V30 2546 N 245.365 1.30045 0.890287 0
M  V30 2547 C 246.781 1.08261 1.17268 0
M  V30 2548 C 246.981 -0.160063 2.00863 0
M  V30 2549 O 246.037 -0.855181 2.37577 0
M  V30 2550 C 247.35 2.34323 1.8845 0
M  V30 2551 C 248.898 2.39735 2.01237 0
M  V30 2552 C 249.373 3.65625 2.7583 0
M  V30 2553 N 250.864 3.66402 2.83379 0
M  V30 2554 C 251.599 4.60498 3.41657 0
M  V30 2555 N 251.095 5.64933 4.01026 0
M  V30 2556 N 252.888 4.48051 3.39421 0
M  V30 2557 H 245.039 2.09777 0.332762 0
M  V30 2558 H 247.302 0.92446 0.209948 0
M  V30 2559 H 247.008 3.2498 1.34465 0
M  V30 2560 H 246.882 2.4256 2.88867 0
M  V30 2561 H 249.269 1.4956 2.54393 0
M  V30 2562 H 249.35 2.35476 0.999232 0
M  V30 2563 H 248.994 4.56156 2.23347 0
M  V30 2564 H 248.924 3.67144 3.77509 0
M  V30 2565 H 251.415 2.90896 2.41222 0
M  V30 2566 H 251.728 6.32841 4.43545 0
M  V30 2567 H 250.073 5.68732 3.99461 0
M  V30 2568 H 253.264 3.65649 2.92264 0
M  V30 2569 H 253.437 5.21565 3.84544 0
M  V30 2570 N 246.843 -1.10192 1.12674 0
M  V30 2571 C 248.12 -1.78717 0.794965 0
M  V30 2572 C 248.5 -1.98628 -0.714853 0
M  V30 2573 O 247.848 -1.58135 -1.64941 0
M  V30 2574 C 248.058 -3.11546 1.5729 0
M  V30 2575 C 249.406 -3.86382 1.76052 0
M  V30 2576 O 250.43 -3.21274 1.53823 0
M  V30 2577 O 249.289 -5.03246 2.13087 0
M  V30 2578 H 246.383 -0.774702 0.289423 0
M  V30 2579 H 248.929 -1.16819 1.23091 0
M  V30 2580 H 247.701 -2.92489 2.59935 0
M  V30 2581 H 247.324 -3.81164 1.13137 0
M  V30 2582 N 248.321 -0.919034 -1.28029 0
M  V30 2583 C 249.549 -0.570971 -1.98866 0
M  V30 2584 C 249.964 0.848996 -1.68634 0
M  V30 2585 O 249.321 1.56307 -0.942036 0
M  V30 2586 C 249.372 -0.776876 -3.53054 0
M  V30 2587 O 249.093 -2.14097 -3.82222 0
M  V30 2588 C 250.594 -0.436356 -4.41147 0
M  V30 2589 H 247.814 -0.217175 -0.634883 0
M  V30 2590 H 250.358 -1.23368 -1.63097 0
M  V30 2591 H 248.513 -0.161085 -3.87065 0
M  V30 2592 H 248.927 -2.18455 -4.76841 0
M  V30 2593 H 250.401 -0.63117 -5.4838 0
M  V30 2594 H 250.878 0.627686 -4.34692 0
M  V30 2595 H 251.484 -1.02991 -4.12641 0
M  V30 2596 N 249.799 1.42003 -0.683588 0
M  V30 2597 C 250.762 2.29191 -0.0198243 0
M  V30 2598 C 251.762 1.43773 0.72013 0
M  V30 2599 O 252.952 1.65061 0.556815 0
M  V30 2600 C 250.084 3.26435 0.982487 0
M  V30 2601 H 251.277 2.8938 -0.787345 0
M  V30 2602 H 248.83 1.49789 -0.446418 0
M  V30 2603 H 249.565 2.71203 1.77819 0
M  V30 2604 H 249.35 3.89449 0.455182 0
M  V30 2605 H 250.84 3.918 1.44508 0
M  V30 2606 N 251.277 0.427512 1.51691 0
M  V30 2607 C 252.523 -0.142439 2.02299 0
M  V30 2608 C 252.856 -1.43214 1.31162 0
M  V30 2609 O 252.131 -1.89833 0.423511 0
M  V30 2610 C 252.414 -0.371301 3.58181 0
M  V30 2611 C 252.267 0.936358 4.39946 0
M  V30 2612 C 253.586 -1.14542 4.24933 0
M  V30 2613 H 250.705 -0.0502937 0.735282 0
M  V30 2614 H 253.347 0.564584 1.81418 0
M  V30 2615 H 251.497 -0.973559 3.76104 0
M  V30 2616 H 253.169 1.57184 4.33694 0
M  V30 2617 H 251.412 1.5432 4.05423 0
M  V30 2618 H 252.083 0.730388 5.47147 0
M  V30 2619 H 254.559 -0.635362 4.11221 0
M  V30 2620 H 253.435 -1.27431 5.33903 0
M  V30 2621 H 253.696 -2.17093 3.85127 0
M  V30 2622 N 252.755 -1.56801 0.158532 0
M  V30 2623 C 254.002 -1.9649 -0.489679 0
M  V30 2624 C 254.33 -1.04394 -1.6411 0
M  V30 2625 O 253.585 -0.0754401 -1.95555 0
M  V30 2626 C 253.884 -3.4235 -1.02623 0
M  V30 2627 C 253.55 -4.50899 0.00794526 0
M  V30 2628 C 252.212 -4.80312 0.292207 0
M  V30 2629 C 254.564 -5.16333 0.710584 0
M  V30 2630 C 251.892 -5.72461 1.28472 0
M  V30 2631 C 254.244 -6.09553 1.69199 0
M  V30 2632 C 252.908 -6.37339 1.98383 0
M  V30 2633 H 252.178 -0.719009 -0.179186 0
M  V30 2634 H 254.825 -1.8989 0.247798 0
M  V30 2635 H 253.13 -3.45838 -1.84128 0
M  V30 2636 H 254.827 -3.70393 -1.53656 0
M  V30 2637 H 251.417 -4.28015 -0.22379 0
M  V30 2638 H 255.601 -4.93732 0.504174 0
M  V30 2639 H 250.857 -5.92278 1.51714 0
M  V30 2640 H 255.031 -6.59327 2.24189 0
M  V30 2641 H 252.658 -7.08546 2.7544 0
M  V30 2642 N 254.233 0.115231 -1.57178 0
M  V30 2643 C 255.143 1.15994 -2.03918 0
M  V30 2644 C 256.159 1.45103 -0.960268 0
M  V30 2645 O 257.335 1.56144 -1.27204 0
M  V30 2646 C 254.4 2.46568 -2.43732 0
M  V30 2647 C 253.461 2.24822 -3.65723 0
M  V30 2648 C 252.694 3.4917 -4.03629 0
M  V30 2649 O 252.917 4.56623 -3.41835 0
M  V30 2650 O 251.851 3.39949 -4.96708 0
M  V30 2651 H 255.677 0.793019 -2.93164 0
M  V30 2652 H 253.262 0.3263 -1.45793 0
M  V30 2653 H 255.144 3.23492 -2.70057 0
M  V30 2654 H 253.819 2.82726 -1.57631 0
M  V30 2655 H 252.726 1.45744 -3.44542 0
M  V30 2656 H 254.059 1.93566 -4.52541 0
M  V30 2657 N 255.711 1.52812 0.385517 0
M  V30 2658 C 256.951 1.69716 1.13911 0
M  V30 2659 C 257.315 0.42962 1.87132 0
M  V30 2660 O 258.516 0.475071 2.64569 0
M  V30 2661 C 256.787 2.90021 2.0886 0
M  V30 2662 S 258.346 3.27531 2.92009 0
M  V30 2663 H 255.164 0.59739 0.385547 0
M  V30 2664 H 257.766 1.90868 0.423061 0
M  V30 2665 H 256.47 3.80493 1.53797 0
M  V30 2666 H 256.001 2.71213 2.84969 0
M  V30 2667 H 258.016 2.77989 4.11019 0
M  V30 2668 N 257.189 -0.644168 1.43834 0
M  V30 2669 C 258.119 -1.76814 1.52509 0
M  V30 2670 C 259.1 -1.65823 0.379052 0
M  V30 2671 O 260.285 -1.84781 0.597466 0
M  V30 2672 C 257.415 -3.15288 1.4564 0
M  V30 2673 C 256.369 -3.41053 2.58586 0
M  V30 2674 C 255.695 -4.79421 2.36769 0
M  V30 2675 C 256.995 -3.34902 4.00797 0
M  V30 2676 H 258.689 -1.69812 2.46586 0
M  V30 2677 H 256.235 -0.815542 1.1868 0
M  V30 2678 H 258.188 -3.93681 1.50311 0
M  V30 2679 H 256.912 -3.23043 0.480725 0
M  V30 2680 H 255.571 -2.65035 2.53282 0
M  V30 2681 H 255.219 -4.83863 1.37424 0
M  V30 2682 H 254.919 -4.9762 3.12487 0
M  V30 2683 H 256.443 -5.6006 2.43238 0
M  V30 2684 H 257.857 -4.03218 4.07539 0
M  V30 2685 H 256.254 -3.64637 4.76613 0
M  V30 2686 H 257.324 -2.32928 4.25291 0
M  V30 2687 N 258.668 -1.30515 -0.883378 0
M  V30 2688 C 260.079 -1.17509 -1.45081 0
M  V30 2689 C 260.43 0.223605 -1.94922 0
M  V30 2690 O 259.555 1.12041 -1.85137 0
M  V30 2691 C 260.15 -2.12715 -2.63701 0
M  V30 2692 C 258.709 -2.03682 -3.16529 0
M  V30 2693 C 257.856 -2.02706 -1.89224 0
M  V30 2694 H 260.807 -1.42762 -0.693165 0
M  V30 2695 H 260.828 -1.70891 -3.39965 0
M  V30 2696 H 260.34 -3.14505 -2.27395 0
M  V30 2697 H 258.441 -1.05039 -3.57488 0
M  V30 2698 H 258.554 -2.92146 -3.7972 0
M  V30 2699 H 256.918 -1.4753 -2.07622 0
M  V30 2700 H 257.701 -3.06229 -1.55174 0
M  V30 2701 N 260.146 1.09593 -1.13257 0
M  V30 2702 C 261.078 2.16015 -0.766167 0
M  V30 2703 C 262.091 1.61423 0.211303 0
M  V30 2704 O 263.28 1.78498 -0.00863946 0
M  V30 2705 C 260.38 3.38706 -0.114662 0
M  V30 2706 C 259.553 4.22717 -1.12379 0
M  V30 2707 C 258.612 5.23835 -0.498301 0
M  V30 2708 O 257.638 5.573 -1.15781 0
M  V30 2709 N 258.84 5.75886 0.730417 0
M  V30 2710 H 261.605 2.48055 -1.68193 0
M  V30 2711 H 259.166 1.25292 -1.02535 0
M  V30 2712 H 261.158 4.03464 0.315991 0
M  V30 2713 H 259.728 3.04569 0.704011 0
M  V30 2714 H 258.948 3.54122 -1.73179 0
M  V30 2715 H 260.236 4.75673 -1.80589 0
M  V30 2716 H 259.634 5.50911 1.28504 0
M  V30 2717 H 258.191 6.42387 1.10376 0
M  V30 2718 N 261.624 0.925811 1.2754 0
M  V30 2719 C 262.574 0.394488 2.24561 0
M  V30 2720 C 263.558 -0.500183 1.52928 0
M  V30 2721 O 264.75 -0.337936 1.73744 0
M  V30 2722 C 261.879 -0.353328 3.41477 0
M  V30 2723 C 260.965 0.557752 4.20416 0
M  V30 2724 N 261.356 1.67674 4.77199 0
M  V30 2725 C 259.654 0.360404 4.44541 0
M  V30 2726 C 260.355 2.24324 5.36706 0
M  V30 2727 N 259.331 1.53305 5.21535 0
M  V30 2728 H 263.133 1.2489 2.66045 0
M  V30 2729 H 260.647 0.779864 1.4245 0
M  V30 2730 H 262.644 -0.7509 4.10082 0
M  V30 2731 H 261.304 -1.20469 3.01525 0
M  V30 2732 H 262.315 2.05915 4.75204 0
M  V30 2733 H 258.992 -0.450454 4.15063 0
M  V30 2734 H 260.382 3.18521 5.91603 0
M  V30 2735 N 263.102 -1.41638 0.69111 0
M  V30 2736 C 264.065 -2.29178 0.0319786 0
M  V30 2737 C 265.065 -1.44153 -0.712496 0
M  V30 2738 O 266.255 -1.65354 -0.548053 0
M  V30 2739 C 263.387 -3.26952 -0.965161 0
M  V30 2740 H 264.58 -2.88959 0.802681 0
M  V30 2741 H 262.133 -1.4955 0.454356 0
M  V30 2742 H 262.868 -2.72142 -1.76378 0
M  V30 2743 H 262.653 -3.89685 -0.434522 0
M  V30 2744 H 264.143 -3.92561 -1.42428 0
M  V30 2745 N 264.58 -0.43555 -1.51462 0
M  V30 2746 C 265.513 0.421989 -2.24264 0
M  V30 2747 C 266.491 1.02619 -1.26127 0
M  V30 2748 O 267.675 1.069 -1.55257 0
M  V30 2749 C 264.802 1.588 -2.99166 0
M  V30 2750 C 263.848 1.10465 -4.11946 0
M  V30 2751 S 264.681 0.048146 -5.35478 0
M  V30 2752 C 265.837 1.21887 -6.13917 0
M  V30 2753 H 266.07 -0.196102 -2.96653 0
M  V30 2754 H 263.603 -0.220054 -1.52824 0
M  V30 2755 H 265.561 2.25647 -3.42919 0
M  V30 2756 H 264.222 2.1775 -2.26371 0
M  V30 2757 H 263.415 1.97654 -4.63626 0
M  V30 2758 H 263.017 0.51445 -3.70445 0
M  V30 2759 H 265.309 2.13756 -6.42895 0
M  V30 2760 H 266.252 0.742076 -7.04201 0
M  V30 2761 H 266.66 1.45663 -5.45383 0
M  V30 2762 N 266.058 1.56714 -0.166846 0
M  V30 2763 C 267.305 1.96747 0.479252 0
M  V30 2764 C 267.633 1.05263 1.63554 0
M  V30 2765 O 266.888 0.0858098 1.95512 0
M  V30 2766 C 267.187 3.42889 1.00806 0
M  V30 2767 C 266.853 4.50889 -0.0318574 0
M  V30 2768 C 265.515 4.8015 -0.317675 0
M  V30 2769 C 267.867 5.15949 -0.737956 0
M  V30 2770 C 265.195 5.71772 -1.31506 0
M  V30 2771 C 267.547 6.08647 -1.72429 0
M  V30 2772 C 266.211 6.36277 -2.0176 0
M  V30 2773 H 265.481 0.719949 0.175371 0
M  V30 2774 H 268.128 1.89756 -0.257864 0
M  V30 2775 H 266.433 3.4681 1.82291 0
M  V30 2776 H 268.13 3.71203 1.51689 0
M  V30 2777 H 264.72 4.28128 0.201088 0
M  V30 2778 H 268.904 4.93458 -0.530351 0
M  V30 2779 H 264.16 5.91465 -1.54853 0
M  V30 2780 H 268.334 6.58129 -2.27682 0
M  V30 2781 H 265.961 7.07075 -2.79194 0
M  V30 2782 N 267.536 -0.106894 1.57237 0
M  V30 2783 C 268.784 -0.810921 1.85117 0
M  V30 2784 C 269.105 -1.7984 0.753827 0
M  V30 2785 O 268.375 -1.94649 -0.221056 0
M  V30 2786 H 266.955 -0.302466 0.683025 0
M  V30 2787 H 269.617 -0.0913324 1.94686 0
M  V30 2788 H 268.713 -1.34875 2.81452 0
M  V30 2789 N 269.014 -1.53014 -0.377408 0
M  V30 2790 C 269.962 -1.7927 -1.48206 0
M  V30 2791 C 270.956 -0.661195 -1.55963 0
M  V30 2792 O 272.162 -0.843908 -1.58991 0
M  V30 2793 H 268.537 -0.567425 -0.493491 0
M  V30 2794 H 270.508 -2.71753 -1.2326 0
M  V30 2795 C 269.257 -1.98894 -2.85196 0
M  V30 2796 H 268.58 -2.85395 -2.79981 0
M  V30 2797 H 270.02 -2.21249 -3.61698 0
M  V30 2798 C 268.479 -0.764691 -3.28107 0
M  V30 2799 O 269.009 0.0523226 -4.01666 0
M  V30 2800 N 267.215 -0.591493 -2.84517 0
M  V30 2801 H 266.762 -1.25749 -2.24822 0
M  V30 2802 H 266.72 0.226253 -3.13585 0
M  V30 2803 N 270.492 0.636531 -1.44174 0
M  V30 2804 C 271.769 1.39463 -1.37148 0
M  V30 2805 C 272.149 2.11082 -0.027507 0
M  V30 2806 O 271.497 2.05954 0.989716 0
M  V30 2807 C 271.707 2.36552 -2.56601 0
M  V30 2808 C 273.055 3.00048 -3.00427 0
M  V30 2809 O 274.079 2.46878 -2.56767 0
M  V30 2810 O 272.938 3.96488 -3.76111 0
M  V30 2811 H 270.032 0.623903 -0.542839 0
M  V30 2812 H 272.578 0.662039 -1.56253 0
M  V30 2813 H 271.35 1.82692 -3.46034 0
M  V30 2814 H 270.973 3.17236 -2.39681 0
M  V30 2815 N 271.97 1.30982 0.876444 0
M  V30 2816 C 273.198 1.23242 1.6619 0
M  V30 2817 C 273.613 -0.203345 1.87702 0
M  V30 2818 O 272.97 -1.13317 1.43057 0
M  V30 2819 C 273.021 1.96623 3.03351 0
M  V30 2820 O 272.742 3.34594 2.82804 0
M  V30 2821 C 274.243 1.95644 3.97792 0
M  V30 2822 H 271.463 0.426126 0.518322 0
M  V30 2823 H 274.007 1.7275 1.09442 0
M  V30 2824 H 272.162 1.50892 3.56806 0
M  V30 2825 H 272.576 3.71873 3.69879 0
M  V30 2826 H 274.05 2.51511 4.91372 0
M  V30 2827 H 274.527 0.937395 4.2908 0
M  V30 2828 H 275.133 2.41225 3.50272 0
M  V30 2829 N 273.449 -1.08991 1.13837 0
M  V30 2830 C 274.698 -1.80631 0.897509 0
M  V30 2831 C 275.011 -1.86872 -0.57777 0
M  V30 2832 O 276.217 -2.54866 -0.935701 0
M  V30 2833 C 274.673 -3.24517 1.55618 0
M  V30 2834 C 274.281 -3.26529 3.0673 0
M  V30 2835 C 276.025 -4.00882 1.3962 0
M  V30 2836 C 273.932 -4.64965 3.65461 0
M  V30 2837 H 272.862 -0.67691 0.332129 0
M  V30 2838 H 275.513 -1.2246 1.3666 0
M  V30 2839 H 273.895 -3.82778 1.01476 0
M  V30 2840 H 275.069 -2.78008 3.67489 0
M  V30 2841 H 273.384 -2.63656 3.22296 0
M  V30 2842 H 275.981 -5.03167 1.80906 0
M  V30 2843 H 276.324 -4.14896 0.341578 0
M  V30 2844 H 276.857 -3.49075 1.90766 0
M  V30 2845 H 273.596 -4.56153 4.70749 0
M  V30 2846 H 273.116 -5.13792 3.09481 0
M  V30 2847 H 274.795 -5.3394 3.654 0
M  V30 2848 N 274.927 -0.932562 -1.27047 0
M  V30 2849 C 276.155 -0.592031 -1.98249 0
M  V30 2850 C 276.57 0.831062 -1.69525 0
M  V30 2851 O 275.927 1.55299 -0.958561 0
M  V30 2852 C 275.978 -0.814279 -3.5221 0
M  V30 2853 O 275.699 -2.18139 -3.7993 0
M  V30 2854 C 277.2 -0.483121 -4.4066 0
M  V30 2855 H 274.42 -0.223896 -0.632544 0
M  V30 2856 H 276.964 -1.25091 -1.61779 0
M  V30 2857 H 275.119 -0.20213 -3.86872 0
M  V30 2858 H 275.533 -2.235 -4.74498 0
M  V30 2859 H 277.007 -0.689298 -5.47679 0
M  V30 2860 H 277.484 0.581546 -4.35333 0
M  V30 2861 H 278.09 -1.07362 -4.11526 0
M  V30 2862 N 276.405 1.4127 -0.698611 0
M  V30 2863 C 277.645 2.03044 -0.235062 0
M  V30 2864 C 278.009 1.54146 1.14468 0
M  V30 2865 O 279.21 2.07867 1.70425 0
M  V30 2866 C 277.481 3.56192 -0.293651 0
M  V30 2867 S 279.04 4.38696 0.0954053 0
M  V30 2868 H 275.858 0.704697 -0.0944648 0
M  V30 2869 H 278.46 1.72656 -0.917064 0
M  V30 2870 H 277.164 3.89274 -1.29977 0
M  V30 2871 H 276.695 3.91285 0.407397 0
M  V30 2872 H 278.71 4.78257 1.3223 0
M  V30 2873 N 277.883 0.443576 1.51229 0
M  V30 2874 C 279.111 -0.11929 2.06556 0
M  V30 2875 C 279.526 -1.35921 1.31038 0
M  V30 2876 O 278.883 -1.78675 0.371704 0
M  V30 2877 C 278.934 -0.435228 3.5887 0
M  V30 2878 O 278.655 0.755486 4.31537 0
M  V30 2879 C 280.156 -1.04808 4.30732 0
M  V30 2880 H 277.376 -0.0051584 0.67098 0
M  V30 2881 H 279.92 0.624453 1.94733 0
M  V30 2882 H 278.075 -1.12887 3.70588 0
M  V30 2883 H 278.489 0.483491 5.22267 0
M  V30 2884 H 279.963 -1.2191 5.3837 0
M  V30 2885 H 280.44 -2.03081 3.89429 0
M  V30 2886 H 281.046 -0.393637 4.23474 0
M  V30 2887 N 279.361 -1.56624 0.175154 0
M  V30 2888 C 280.589 -2.01374 -0.474971 0
M  V30 2889 C 281.004 -1.05537 -1.56548 0
M  V30 2890 O 280.361 -0.0568668 -1.82411 0
M  V30 2891 C 280.412 -3.45923 -1.04975 0
M  V30 2892 O 280.133 -4.381 -0.00276605 0
M  V30 2893 C 281.634 -4.06093 -1.77773 0
M  V30 2894 H 278.854 -0.659962 -0.121206 0
M  V30 2895 H 281.398 -2.02601 0.27801 0
M  V30 2896 H 279.553 -3.45458 -1.75321 0
M  V30 2897 H 279.967 -5.22753 -0.427681 0
M  V30 2898 H 281.441 -5.09147 -2.13245 0
M  V30 2899 H 281.918 -3.48405 -2.67414 0
M  V30 2900 H 282.524 -4.10272 -1.12059 0
M  V30 2901 N 280.839 0.0985539 -1.57292 0
M  V30 2902 C 281.789 1.1261 -1.9825 0
M  V30 2903 C 282.773 1.35961 -0.860426 0
M  V30 2904 O 283.965 1.36711 -1.12424 0
M  V30 2905 C 281.094 2.44727 -2.40757 0
M  V30 2906 C 280.18 2.24764 -3.59642 0
M  V30 2907 N 280.571 1.74661 -4.74687 0
M  V30 2908 C 278.869 2.55344 -3.65672 0
M  V30 2909 C 279.57 1.68887 -5.56644 0
M  V30 2910 N 278.546 2.13976 -4.99715 0
M  V30 2911 H 282.348 0.731604 -2.84648 0
M  V30 2912 H 279.862 0.306029 -1.59491 0
M  V30 2913 H 281.859 3.19072 -2.68326 0
M  V30 2914 H 280.519 2.84917 -1.55733 0
M  V30 2915 H 281.53 1.43908 -4.97505 0
M  V30 2916 H 278.207 2.99081 -2.91302 0
M  V30 2917 H 279.597 1.3123 -6.5896 0
M  V30 2918 N 282.317 1.53212 0.369288 0
M  V30 2919 C 283.565 1.68881 1.11012 0
M  V30 2920 C 283.886 0.441285 1.89941 0
M  V30 2921 O 283.156 -0.544623 1.88177 0
M  V30 2922 H 281.736 0.622569 0.412816 0
M  V30 2923 H 284.398 1.90391 0.416802 0
M  V30 2924 H 283.494 2.54822 1.80201 0
M  V30 2925 N 283.795 -0.628877 1.44509 0
M  V30 2926 C 284.743 -1.76193 1.51852 0
M  V30 2927 C 285.737 -1.64849 0.390042 0
M  V30 2928 O 286.943 -1.709 0.565082 0
M  V30 2929 H 283.318 -0.581728 0.476547 0
M  V30 2930 H 285.289 -1.67123 2.47209 0
M  V30 2931 C 284.038 -3.14533 1.48204 0
M  V30 2932 H 283.361 -3.23911 2.34354 0
M  V30 2933 H 284.801 -3.93701 1.57402 0
M  V30 2934 C 283.26 -3.36287 0.203142 0
M  V30 2935 O 283.79 -3.9509 -0.725745 0
M  V30 2936 N 281.996 -2.90408 0.105563 0
M  V30 2937 H 281.543 -2.42739 0.862301 0
M  V30 2938 H 281.501 -3.05339 -0.749371 0
M  V30 2939 N 285.273 -1.31445 -0.869486 0
M  V30 2940 C 286.519 -1.22347 -1.62489 0
M  V30 2941 C 286.874 0.216204 -1.91181 0
M  V30 2942 O 286.167 1.14977 -1.53268 0
M  V30 2943 C 286.361 -2.00145 -2.96102 0
M  V30 2944 C 286.19 -3.51531 -2.80456 0
M  V30 2945 C 284.96 -4.20882 -2.79618 0
M  V30 2946 C 287.158 -4.46471 -2.5528 0
M  V30 2947 N 285.14 -5.58421 -2.55027 0
M  V30 2948 C 286.511 -5.71682 -2.39957 0
M  V30 2949 C 288.566 -4.35892 -2.40629 0
M  V30 2950 C 287.269 -6.87511 -2.11472 0
M  V30 2951 C 289.295 -5.51505 -2.13532 0
M  V30 2952 C 288.657 -6.75707 -1.98998 0
M  V30 2953 H 284.756 -0.502815 -0.598917 0
M  V30 2954 H 287.34 -1.65639 -1.02332 0
M  V30 2955 H 285.511 -1.59221 -3.54264 0
M  V30 2956 H 287.243 -1.83063 -3.60929 0
M  V30 2957 H 283.998 -3.72857 -2.92018 0
M  V30 2958 H 284.422 -6.30841 -2.45701 0
M  V30 2959 H 289.064 -3.40533 -2.50593 0
M  V30 2960 H 286.782 -7.82897 -2.00245 0
M  V30 2961 H 290.368 -5.45238 -2.02995 0
M  V30 2962 H 289.248 -7.63655 -1.78326 0
M  V30 2963 N 286.751 1.08385 -1.14413 0
M  V30 2964 C 287.979 1.84517 -0.936001 0
M  V30 2965 C 288.394 1.81626 0.515503 0
M  V30 2966 O 287.751 1.22008 1.35721 0
M  V30 2967 C 287.802 3.32049 -1.42918 0
M  V30 2968 O 287.523 3.34951 -2.82381 0
M  V30 2969 C 289.024 4.24986 -1.26103 0
M  V30 2970 H 286.244 0.582491 -0.333084 0
M  V30 2971 H 288.788 1.36885 -1.5193 0
M  V30 2972 H 286.943 3.7707 -0.888641 0
M  V30 2973 H 287.357 4.27048 -3.04517 0
M  V30 2974 H 288.831 5.26615 -1.6547 0
M  V30 2975 H 289.308 4.38726 -0.20392 0
M  V30 2976 H 289.914 3.85791 -1.79012 0
M  V30 2977 N 288.23 0.939286 1.26551 0
M  V30 2978 C 289.177 0.446088 2.26448 0
M  V30 2979 C 290.147 -0.493234 1.58608 0
M  V30 2980 O 291.332 -0.409857 1.86346 0
M  V30 2981 C 288.472 -0.284375 3.43926 0
M  V30 2982 C 287.585 0.690399 4.26448 0
M  V30 2983 C 286.72 -0.0610712 5.31165 0
M  V30 2984 C 285.759 0.905649 6.05363 0
M  V30 2985 N 284.896 0.186055 7.01853 0
M  V30 2986 H 289.736 1.30291 2.68008 0
M  V30 2987 H 287.273 0.65371 1.31776 0
M  V30 2988 H 289.231 -0.724313 4.10864 0
M  V30 2989 H 287.861 -1.10535 3.03285 0
M  V30 2990 H 286.913 1.24885 3.59316 0
M  V30 2991 H 288.225 1.42873 4.779 0
M  V30 2992 H 287.379 -0.56038 6.04106 0
M  V30 2993 H 286.118 -0.832297 4.80546 0
M  V30 2994 H 285.123 1.4161 5.3125 0
M  V30 2995 H 286.348 1.67685 6.58072 0
M  V30 2996 H 284.294 -0.566714 6.53548 0
M  V30 2997 H 284.211 0.863752 7.51049 0
M  V30 2998 H 285.479 -0.292221 7.78952 0
M  V30 2999 N 289.708 -1.40897 0.706093 0
M  V30 3000 C 290.638 -2.33418 0.0620085 0
M  V30 3001 C 291.619 -1.52385 -0.755827 0
M  V30 3002 O 292.804 -1.80886 -0.706674 0
M  V30 3003 C 289.934 -3.36293 -0.867445 0
M  V30 3004 C 288.888 -4.27716 -0.155932 0
M  V30 3005 C 288.214 -5.2105 -1.20046 0
M  V30 3006 C 289.514 -5.12944 0.984149 0
M  V30 3007 H 291.208 -2.87527 0.83477 0
M  V30 3008 H 288.754 -1.38249 0.402875 0
M  V30 3009 H 290.707 -3.99949 -1.32735 0
M  V30 3010 H 289.431 -2.80556 -1.67199 0
M  V30 3011 H 288.09 -3.65498 0.284047 0
M  V30 3012 H 287.738 -4.61624 -1.99781 0
M  V30 3013 H 287.438 -5.83056 -0.729328 0
M  V30 3014 H 288.962 -5.87584 -1.66066 0
M  V30 3015 H 290.376 -5.70109 0.604048 0
M  V30 3016 H 288.773 -5.83945 1.38304 0
M  V30 3017 H 289.843 -4.49485 1.81911 0
M  V30 3018 N 291.186 -0.45159 -1.50991 0
M  V30 3019 C 292.597 0.00818571 -1.86698 0
M  V30 3020 C 292.948 1.40661 -1.3678 0
M  V30 3021 O 292.073 2.0391 -0.724546 0
M  V30 3022 C 292.668 0.0216303 -3.38793 0
M  V30 3023 C 291.227 0.425865 -3.73983 0
M  V30 3024 C 290.374 -0.372163 -2.74791 0
M  V30 3025 H 293.325 -0.666785 -1.44013 0
M  V30 3026 H 293.346 0.828078 -3.7138 0
M  V30 3027 H 292.858 -0.996288 -3.75094 0
M  V30 3028 H 290.959 1.44886 -3.43277 0
M  V30 3029 H 291.072 0.140761 -4.78893 0
M  V30 3030 H 289.436 0.171498 -2.54122 0
M  V30 3031 H 290.219 -1.38922 -3.13935 0
M  V30 3032 N 292.664 1.56529 -0.183458 0
M  V30 3033 C 293.574 2.22144 0.754272 0
M  V30 3034 C 294.59 1.21684 1.24374 0
M  V30 3035 O 295.766 1.54385 1.29333 0
M  V30 3036 C 292.831 2.85884 1.96141 0
M  V30 3037 C 291.892 4.01579 1.51765 0
M  V30 3038 C 291.125 4.6227 2.66725 0
M  V30 3039 O 291.348 4.21865 3.83909 0
M  V30 3040 O 290.282 5.51936 2.40104 0
M  V30 3041 H 294.108 3.02861 0.225527 0
M  V30 3042 H 291.693 1.49331 0.0453032 0
M  V30 3043 H 293.575 3.26253 2.66715 0
M  V30 3044 H 292.25 2.08154 2.47899 0
M  V30 3045 H 291.157 3.65856 0.781049 0
M  V30 3046 H 292.49 4.80938 1.04686 0
M  V30 3047 N 294.142 -0.090211 1.57342 0
M  V30 3048 C 295.382 -0.798365 1.88163 0
M  V30 3049 C 295.746 -1.75662 0.775046 0
M  V30 3050 O 296.947 -2.50849 0.965816 0
M  V30 3051 C 295.218 -1.50376 3.24225 0
M  V30 3052 S 296.777 -2.24952 3.76752 0
M  V30 3053 H 293.595 -0.265883 0.659414 0
M  V30 3054 H 296.197 -0.055264 1.95422 0
M  V30 3055 H 294.901 -0.792286 4.0268 0
M  V30 3056 H 294.432 -2.28666 3.20118 0
M  V30 3057 H 296.447 -3.51173 3.5056 0
M  V30 3058 N 295.62 -1.53406 -0.361157 0
M  V30 3059 C 297.036 -1.43277 -0.703124 0
M  V30 3060 C 297.236 -0.575384 -1.9311 0
M  V30 3061 O 296.292 -0.0595362 -2.5243 0
M  V30 3062 C 297.605 -2.8653 -0.9122 0
M  V30 3063 C 299.153 -2.96191 -1.01193 0
M  V30 3064 C 299.628 -4.40514 -1.25345 0
M  V30 3065 N 301.119 -4.43962 -1.32105 0
M  V30 3066 C 301.854 -5.52746 -1.5251 0
M  V30 3067 N 301.35 -6.71567 -1.70203 0
M  V30 3068 N 303.143 -5.40331 -1.54916 0
M  V30 3069 H 295.294 -2.07654 0.446475 0
M  V30 3070 H 297.557 -0.937944 0.137715 0
M  V30 3071 H 297.263 -3.51605 -0.0816414 0
M  V30 3072 H 297.137 -3.30441 -1.81903 0
M  V30 3073 H 299.524 -2.31266 -1.83303 0
M  V30 3074 H 299.605 -2.55667 -0.0823929 0
M  V30 3075 H 299.249 -5.06014 -0.437346 0
M  V30 3076 H 299.179 -4.78614 -2.19627 0
M  V30 3077 H 301.67 -3.58332 -1.20028 0
M  V30 3078 H 301.983 -7.50241 -1.85359 0
M  V30 3079 H 300.328 -6.74545 -1.67373 0
M  V30 3080 H 303.519 -4.46465 -1.40663 0
M  V30 3081 H 303.692 -6.25173 -1.70477 0
M  V30 3082 N 297.098 0.621204 -1.44841 0
M  V30 3083 C 298.008 1.7612 -1.5498 0
M  V30 3084 C 299.024 1.68477 -0.434927 0
M  V30 3085 O 300.2 1.89076 -0.693693 0
M  V30 3086 C 297.265 3.1254 -1.50065 0
M  V30 3087 C 296.326 3.31741 -2.72482 0
M  V30 3088 C 295.559 4.61653 -2.67792 0
M  V30 3089 O 295.782 5.431 -1.74352 0
M  V30 3090 O 294.716 4.83271 -3.58794 0
M  V30 3091 H 298.542 1.70518 -2.51311 0
M  V30 3092 H 296.127 0.783643 -1.27198 0
M  V30 3093 H 298.009 3.93844 -1.49882 0
M  V30 3094 H 296.684 3.18663 -0.568806 0
M  V30 3095 H 295.591 2.50077 -2.7823 0
M  V30 3096 H 296.924 3.30486 -3.64746 0
M  V30 3097 N 298.576 1.31904 0.862503 0
M  V30 3098 C 299.822 1.22197 1.61851 0
M  V30 3099 C 300.155 -0.217641 1.92977 0
M  V30 3100 O 299.43 -1.15264 1.56666 0
M  V30 3101 C 299.713 2.07378 2.94391 0
M  V30 3102 C 299.566 3.59678 2.70096 0
M  V30 3103 C 300.885 1.92891 3.95577 0
M  V30 3104 H 298.004 0.445255 0.587296 0
M  V30 3105 H 300.646 1.6177 0.99651 0
M  V30 3106 H 298.796 1.73758 3.47477 0
M  V30 3107 H 300.468 4.03472 2.23625 0
M  V30 3108 H 298.711 3.82735 2.04197 0
M  V30 3109 H 299.382 4.14595 3.64438 0
M  V30 3110 H 301.858 2.22327 3.51724 0
M  V30 3111 H 300.734 2.54781 4.86187 0
M  V30 3112 H 300.995 0.894315 4.3296 0
M  V30 3113 N 300.054 -1.07777 1.14986 0
M  V30 3114 C 301.001 -2.14867 0.842672 0
M  V30 3115 C 301.971 -1.6486 -0.202552 0
M  V30 3116 O 303.156 -1.90668 -0.0710568 0
M  V30 3117 C 300.296 -3.43486 0.333363 0
M  V30 3118 C 299.409 -4.07306 1.43965 0
M  V30 3119 C 298.544 -5.23744 0.886914 0
M  V30 3120 C 297.583 -5.79517 1.97043 0
M  V30 3121 N 296.72 -6.87291 1.4344 0
M  V30 3122 H 301.56 -2.40485 1.75986 0
M  V30 3123 H 299.097 -1.1801 0.878179 0
M  V30 3124 H 301.055 -4.17195 0.0198163 0
M  V30 3125 H 299.685 -3.18133 -0.546916 0
M  V30 3126 H 298.737 -3.31293 1.86946 0
M  V30 3127 H 300.049 -4.44771 2.25788 0
M  V30 3128 H 299.203 -6.04419 0.525651 0
M  V30 3129 H 297.942 -4.87685 0.0377957 0
M  V30 3130 H 296.947 -4.97491 2.34057 0
M  V30 3131 H 298.172 -6.17632 2.82325 0
M  V30 3132 H 296.118 -6.5318 0.607567 0
M  V30 3133 H 296.035 -7.23617 2.18895 0
M  V30 3134 H 297.303 -7.71682 1.10124 0
M  V30 3135 N 301.532 -0.945985 -1.26051 0
M  V30 3136 C 302.772 -0.603665 -1.95282 0
M  V30 3137 C 303.136 0.842377 -1.72534 0
M  V30 3138 O 304.337 1.29387 -2.35611 0
M  V30 3139 C 302.608 -0.942292 -3.44754 0
M  V30 3140 S 304.167 -0.711242 -4.32997 0
M  V30 3141 H 300.985 -0.222176 -0.675395 0
M  V30 3142 H 303.587 -1.21832 -1.52896 0
M  V30 3143 H 302.291 -1.99203 -3.58812 0
M  V30 3144 H 301.822 -0.317546 -3.92116 0
M  V30 3145 H 303.837 0.422221 -4.944 0
M  V30 3146 N 303.011 1.40521 -0.713556 0
M  V30 3147 C 304.422 1.83853 -0.324807 0
M  V30 3148 C 304.773 1.59667 1.14021 0
M  V30 3149 O 303.898 1.07649 1.87725 0
M  V30 3150 C 304.493 3.33751 -0.582746 0
M  V30 3151 C 303.052 3.75584 -0.247727 0
M  V30 3152 C 302.199 2.63753 -0.856121 0
M  V30 3153 H 305.15 1.29817 -0.91286 0
M  V30 3154 H 305.171 3.80194 0.152682 0
M  V30 3155 H 304.683 3.51322 -1.64908 0
M  V30 3156 H 302.784 3.63608 0.813624 0
M  V30 3157 H 302.897 4.7373 -0.715307 0
M  V30 3158 H 301.261 2.53108 -0.28432 0
M  V30 3159 H 302.044 2.84137 -1.92668 0
M  V30 3160 N 304.489 0.459591 1.5075 0
M  V30 3161 C 305.736 -0.0993495 2.02256 0
M  V30 3162 C 306.064 -1.40751 1.34237 0
M  V30 3163 O 305.319 -1.90379 0.453228 0
M  V30 3164 C 305.618 -0.342866 3.55752 0
M  V30 3165 C 305.284 0.88218 4.42186 0
M  V30 3166 C 303.946 1.21808 4.65528 0
M  V30 3167 C 306.298 1.69837 4.92752 0
M  V30 3168 C 303.626 2.37045 5.36681 0
M  V30 3169 C 305.978 2.84192 5.65171 0
M  V30 3170 C 304.642 3.1821 5.8677 0
M  V30 3171 H 303.912 -0.0363545 0.740108 0
M  V30 3172 H 306.559 0.611329 1.8148 0
M  V30 3173 H 304.864 -1.13567 3.7498 0
M  V30 3174 H 306.561 -0.789121 3.93159 0
M  V30 3175 H 303.151 0.610467 4.2423 0
M  V30 3176 H 307.335 1.45205 4.74583 0
M  V30 3177 H 302.591 2.63689 5.51614 0
M  V30 3178 H 306.765 3.4779 6.03337 0
M  V30 3179 H 304.392 4.07613 6.41682 0
M  V30 3180 N 305.967 -1.56429 0.191757 0
M  V30 3181 C 307.378 -1.83912 -0.321428 0
M  V30 3182 C 307.729 -1.11231 -1.61623 0
M  V30 3183 O 306.854 -0.37202 -2.13178 0
M  V30 3184 C 307.449 -3.33624 -0.589961 0
M  V30 3185 C 306.008 -3.6153 -1.04753 0
M  V30 3186 C 305.155 -2.7714 -0.0943327 0
M  V30 3187 H 308.106 -1.53161 0.415612 0
M  V30 3188 H 308.127 -3.52213 -1.43966 0
M  V30 3189 H 307.639 -3.86495 0.352588 0
M  V30 3190 H 305.74 -3.14089 -2.00447 0
M  V30 3191 H 305.853 -4.69737 -0.942549 0
M  V30 3192 H 304.217 -2.47638 -0.595589 0
M  V30 3193 H 305 -3.32799 0.842601 0
M  V30 3194 N 307.445 0.0818655 -1.57387 0
M  V30 3195 C 308.67 0.799946 -1.91352 0
M  V30 3196 C 309.095 1.70833 -0.787258 0
M  V30 3197 O 308.453 1.79419 0.26048 0
M  V30 3198 C 308.501 1.57812 -3.24234 0
M  V30 3199 O 307.605 2.68806 -3.12757 0
M  V30 3200 H 306.946 0.21891 -0.626877 0
M  V30 3201 H 309.476 0.0531256 -2.04531 0
M  V30 3202 H 309.486 1.95952 -3.57864 0
M  V30 3203 H 308.161 0.911548 -4.05788 0
M  V30 3204 H 306.738 2.33597 -2.90666 0
M  V30 3205 N 308.923 1.53595 0.353017 0
M  V30 3206 C 310.339 1.43648 0.695516 0
M  V30 3207 C 310.539 0.585617 1.92802 0
M  V30 3208 O 309.595 0.0729223 2.52395 0
M  V30 3209 C 310.908 2.8701 0.896991 0
M  V30 3210 C 312.456 2.96723 0.996209 0
M  V30 3211 C 312.931 4.41173 1.23007 0
M  V30 3212 N 314.422 4.44657 1.29749 0
M  V30 3213 C 315.157 5.53547 1.49577 0
M  V30 3214 N 314.653 6.72461 1.66639 0
M  V30 3215 N 316.446 5.41145 1.52048 0
M  V30 3216 H 308.597 2.07415 -0.457481 0
M  V30 3217 H 310.86 0.9372 -0.142687 0
M  V30 3218 H 310.566 3.51644 0.0629938 0
M  V30 3219 H 310.44 3.31401 1.80148 0
M  V30 3220 H 312.827 2.32235 1.82074 0
M  V30 3221 H 312.908 2.55707 0.0688331 0
M  V30 3222 H 312.552 5.06238 0.410505 0
M  V30 3223 H 312.482 4.79772 2.17086 0
M  V30 3224 H 314.973 3.58963 1.18126 0
M  V30 3225 H 315.286 7.51214 1.81378 0
M  V30 3226 H 313.631 6.75423 1.63794 0
M  V30 3227 H 316.822 4.47205 1.38294 0
M  V30 3228 H 316.995 6.26068 1.67159 0
M  V30 3229 N 310.401 -0.613514 1.45168 0
M  V30 3230 C 311.812 -1.19539 1.43413 0
M  V30 3231 C 312.163 -1.95558 0.158632 0
M  V30 3232 O 311.288 -2.0335 -0.740119 0
M  V30 3233 C 311.883 -2.17445 2.59813 0
M  V30 3234 C 310.442 -2.71022 2.61197 0
M  V30 3235 C 309.589 -1.46323 2.35552 0
M  V30 3236 H 312.54 -0.403163 1.53494 0
M  V30 3237 H 312.561 -3.00373 2.33574 0
M  V30 3238 H 312.073 -1.62089 3.52631 0
M  V30 3239 H 310.174 -3.30332 1.7237 0
M  V30 3240 H 310.287 -3.15859 3.60236 0
M  V30 3241 H 308.651 -1.75072 1.84992 0
M  V30 3242 H 309.434 -0.92844 3.30507 0
M  V30 3243 N 311.879 -1.3236 -0.855495 0
M  V30 3244 C 313.156 -1.13491 -1.59309 0
M  V30 3245 C 313.536 0.30503 -2.08885 0
M  V30 3246 O 312.884 1.30151 -1.87811 0
M  V30 3247 C 313.094 -2.16176 -2.73987 0
M  V30 3248 C 314.442 -2.49463 -3.43589 0
M  V30 3249 O 315.466 -2.14715 -2.84211 0
M  V30 3250 O 314.325 -3.09027 -4.50738 0
M  V30 3251 H 311.419 -0.437887 -0.701559 0
M  V30 3252 H 313.965 -1.43887 -0.899696 0
M  V30 3253 H 312.737 -3.1297 -2.34873 0
M  V30 3254 H 312.36 -1.86769 -3.51003 0
M  V30 3255 N 313.357 1.07166 -1.15556 0
M  V30 3256 C 314.305 2.16517 -0.8499 0
M  V30 3257 C 315.299 1.68468 0.177454 0
M  V30 3258 O 316.505 1.79971 0.0323026 0
M  V30 3259 H 312.88 0.706652 -0.25719 0
M  V30 3260 H 314.851 2.39514 -1.77976 0
M  V30 3261 C 313.6 3.45855 -0.357682 0
M  V30 3262 H 312.923 3.83214 -1.13961 0
M  V30 3263 H 314.363 4.23607 -0.182489 0
M  V30 3264 C 312.822 3.24062 0.921152 0
M  V30 3265 O 313.352 3.48813 1.9923 0
M  V30 3266 N 311.558 2.77539 0.86141 0
M  V30 3267 H 311.105 2.57598 -0.0104408 0
M  V30 3268 H 311.063 2.63337 1.71758 0
M  V30 3269 N 314.835 0.952656 1.25548 0
M  V30 3270 C 316.083 0.605176 1.92826 0
M  V30 3271 C 316.404 -0.860261 1.74999 0
M  V30 3272 O 315.674 -1.6125 1.11244 0
M  V30 3273 H 314.254 0.220832 0.713612 0
M  V30 3274 H 316.916 1.21047 1.52754 0
M  V30 3275 H 316.012 0.832798 3.00784 0
M  V30 3276 N 316.313 -1.40141 0.720998 0
M  V30 3277 C 317.56 -2.00787 0.262842 0
M  V30 3278 C 317.888 -1.5718 -1.14563 0
M  V30 3279 O 317.143 -0.785391 -1.79249 0
M  V30 3280 C 317.442 -3.56165 0.296892 0
M  V30 3281 C 317.108 -4.19373 1.65641 0
M  V30 3282 C 315.77 -4.36352 2.02855 0
M  V30 3283 C 318.122 -4.54578 2.54968 0
M  V30 3284 C 315.45 -4.8582 3.28931 0
M  V30 3285 C 317.802 -5.05447 3.80402 0
M  V30 3286 C 316.466 -5.20635 4.17726 0
M  V30 3287 H 315.736 -0.734731 0.0961807 0
M  V30 3288 H 318.383 -1.67673 0.925093 0
M  V30 3289 H 316.688 -3.8922 -0.448932 0
M  V30 3290 H 318.385 -4.00929 -0.0755208 0
M  V30 3291 H 314.975 -4.06549 1.35704 0
M  V30 3292 H 319.159 -4.41091 2.27491 0
M  V30 3293 H 314.415 -4.95764 3.57811 0
M  V30 3294 H 318.589 -5.31663 4.49786 0
M  V30 3295 H 316.216 -5.58728 5.15487 0
M  V30 3296 N 317.792 -0.46758 -1.50504 0
M  V30 3297 C 319.038 0.0887532 -2.02606 0
M  V30 3298 C 319.371 1.39686 -1.34913 0
M  V30 3299 O 318.646 1.88644 -0.473694 0
M  V30 3300 C 318.929 0.276206 -3.59039 0
M  V30 3301 C 318.782 -1.05267 -4.37309 0
M  V30 3302 C 320.101 1.03235 -4.27821 0
M  V30 3303 H 317.22 0.0307814 -0.736357 0
M  V30 3304 H 319.862 -0.612485 -1.79857 0
M  V30 3305 H 318.012 0.8735 -3.78553 0
M  V30 3306 H 319.684 -1.68628 -4.29374 0
M  V30 3307 H 317.927 -1.65015 -4.01189 0
M  V30 3308 H 318.598 -0.875197 -5.45018 0
M  V30 3309 H 321.074 0.526111 -4.12761 0
M  V30 3310 H 319.95 1.1323 -5.37094 0
M  V30 3311 H 320.211 2.06806 -3.90748 0
M  V30 3312 N 319.27 1.56325 -0.20005 0
M  V30 3313 C 320.218 2.20666 0.735482 0
M  V30 3314 C 321.212 1.17934 1.21605 0
M  V30 3315 O 322.418 1.36068 1.17837 0
M  V30 3316 H 318.793 0.70725 0.255542 0
M  V30 3317 H 320.764 2.9792 0.169166 0
M  V30 3318 C 319.513 2.88391 1.94232 0
M  V30 3319 H 318.836 3.67185 1.58161 0
M  V30 3320 H 320.276 3.3684 2.57517 0
M  V30 3321 C 318.735 1.89692 2.78421 0
M  V30 3322 O 319.265 1.40032 3.76502 0
M  V30 3323 N 317.471 1.57813 2.44015 0
M  V30 3324 H 317.018 1.9839 1.64314 0
M  V30 3325 H 316.976 0.920325 3.00628 0
M  V30 3326 N 320.748 -0.0735177 1.57428 0
M  V30 3327 C 321.978 -0.78483 1.91112 0
M  V30 3328 C 322.386 -1.71729 0.7941 0
M  V30 3329 O 321.729 -1.82105 -0.241542 0
M  V30 3330 C 321.791 -1.63346 3.20247 0
M  V30 3331 C 321.455 -0.870557 4.48632 0
M  V30 3332 C 322.452 -0.19058 5.19551 0
M  V30 3333 C 320.137 -0.838242 4.95256 0
M  V30 3334 C 322.131 0.511503 6.35344 0
M  V30 3335 C 319.818 -0.132386 6.10957 0
M  V30 3336 C 320.816 0.541288 6.80852 0
M  V30 3337 O 320.504 1.23578 7.94345 0
M  V30 3338 H 320.236 -0.228408 0.636244 0
M  V30 3339 H 322.79 -0.0486039 2.05342 0
M  V30 3340 H 321.02 -2.41245 3.02222 0
M  V30 3341 H 322.709 -2.22329 3.39595 0
M  V30 3342 H 323.475 -0.206864 4.84559 0
M  V30 3343 H 319.354 -1.35206 4.40727 0
M  V30 3344 H 322.898 1.03789 6.89836 0
M  V30 3345 H 318.795 -0.114023 6.45399 0
M  V30 3346 H 319.563 1.14487 8.10454 0
M  V30 3347 N 322.226 -1.5378 -0.344866 0
M  V30 3348 C 323.637 -1.62428 -0.920552 0
M  V30 3349 C 323.988 -0.504747 -1.89596 0
M  V30 3350 O 323.113 0.365711 -2.13287 0
M  V30 3351 C 323.708 -2.94419 -1.67639 0
M  V30 3352 C 322.267 -3.05333 -2.20111 0
M  V30 3353 C 321.414 -2.57866 -1.01982 0
M  V30 3354 H 324.365 -1.58222 -0.123042 0
M  V30 3355 H 324.386 -2.83384 -2.53917 0
M  V30 3356 H 323.898 -3.7588 -0.966224 0
M  V30 3357 H 321.999 -2.28502 -2.94308 0
M  V30 3358 H 322.112 -4.10778 -2.46573 0
M  V30 3359 H 320.476 -2.13241 -1.39285 0
M  V30 3360 H 321.259 -3.41765 -0.324308 0
M  V30 3361 N 323.704 0.605807 -1.45491 0
M  V30 3362 C 324.667 1.69836 -1.5391 0
M  V30 3363 C 325.667 1.55261 -0.418424 0
M  V30 3364 O 326.857 1.60296 -0.681965 0
M  V30 3365 C 323.989 3.09117 -1.43734 0
M  V30 3366 H 325.182 1.63738 -2.51257 0
M  V30 3367 H 322.735 0.821689 -1.32959 0
M  V30 3368 H 323.47 3.20791 -0.475788 0
M  V30 3369 H 323.255 3.21104 -2.25021 0
M  V30 3370 H 324.745 3.88696 -1.52661 0
M  V30 3371 N 325.182 1.32811 0.848464 0
M  V30 3372 C 326.129 1.22265 1.95755 0
M  V30 3373 C 327.099 0.103413 1.65778 0
M  V30 3374 O 328.284 0.280033 1.88734 0
M  V30 3375 C 325.424 0.958014 3.31536 0
M  V30 3376 C 324.537 2.16262 3.73971 0
M  V30 3377 C 323.672 1.83295 4.98575 0
M  V30 3378 C 322.711 3.00041 5.33518 0
M  V30 3379 N 321.848 2.67125 6.49299 0
M  V30 3380 H 326.688 2.17128 2.04107 0
M  V30 3381 H 324.225 1.07982 0.998913 0
M  V30 3382 H 326.183 0.785052 4.09747 0
M  V30 3383 H 324.813 0.046159 3.22767 0
M  V30 3384 H 323.865 2.44565 2.91362 0
M  V30 3385 H 325.177 3.03572 3.95785 0
M  V30 3386 H 324.331 1.62586 5.84509 0
M  V30 3387 H 323.07 0.932078 4.7871 0
M  V30 3388 H 322.075 3.21374 4.46093 0
M  V30 3389 H 323.3 3.90869 5.55336 0
M  V30 3390 H 321.246 1.79586 6.3094 0
M  V30 3391 H 321.163 3.47965 6.71161 0
M  V30 3392 H 322.431 2.49861 7.3837 0
M  V30 3393 N 326.66 -1.06551 1.16123 0
M  V30 3394 C 328.071 -1.60768 0.949232 0
M  V30 3395 C 328.422 -1.89523 -0.507508 0
M  V30 3396 O 327.547 -1.66671 -1.38021 0
M  V30 3397 C 328.142 -2.92086 1.71671 0
M  V30 3398 C 326.701 -3.43015 1.54977 0
M  V30 3399 C 325.848 -2.16947 1.72711 0
M  V30 3400 H 328.799 -0.895354 1.31031 0
M  V30 3401 H 328.82 -3.6138 1.19099 0
M  V30 3402 H 328.332 -2.71127 2.7769 0
M  V30 3403 H 326.433 -3.69039 0.513873 0
M  V30 3404 H 326.546 -4.18516 2.33198 0
M  V30 3405 H 324.91 -2.27041 1.15431 0
M  V30 3406 H 325.693 -1.98473 2.80113 0
M  V30 3407 N 328.138 -0.959301 -1.25041 0
M  V30 3408 C 329.366 -0.633949 -1.96948 0
M  V30 3409 C 329.781 0.794916 -1.7125 0
M  V30 3410 O 329.138 1.53231 -0.991287 0
M  V30 3411 C 329.189 -0.888805 -3.50403 0
M  V30 3412 O 328.91 -2.26149 -3.75218 0
M  V30 3413 C 330.411 -0.576482 -4.39536 0
M  V30 3414 H 327.631 -0.237263 -0.627652 0
M  V30 3415 H 330.175 -1.28495 -1.59089 0
M  V30 3416 H 328.33 -0.284145 -3.86357 0
M  V30 3417 H 328.744 -2.33514 -4.6965 0
M  V30 3418 H 330.218 -0.805314 -5.46094 0
M  V30 3419 H 330.695 0.489075 -4.36468 0
M  V30 3420 H 331.301 -1.16067 -4.09156 0
M  V30 3421 N 329.616 1.39756 -0.72842 0
M  V30 3422 C 330.546 2.33289 -0.0991354 0
M  V30 3423 C 331.527 1.53568 0.731489 0
M  V30 3424 O 332.712 1.81987 0.677807 0
M  V30 3425 C 329.842 3.3763 0.813834 0
M  V30 3426 C 328.796 4.2791 0.0878663 0
M  V30 3427 C 328.122 5.22894 1.11741 0
M  V30 3428 C 329.422 5.11314 -1.06563 0
M  V30 3429 H 331.116 2.86163 -0.880408 0
M  V30 3430 H 328.662 1.37591 -0.424819 0
M  V30 3431 H 330.615 4.0201 1.26355 0
M  V30 3432 H 329.339 2.83181 1.62715 0
M  V30 3433 H 327.998 3.65 -0.342159 0
M  V30 3434 H 327.646 4.64744 1.92412 0
M  V30 3435 H 327.346 5.84143 0.636477 0
M  V30 3436 H 328.87 5.90151 1.56697 0
M  V30 3437 H 330.284 5.69076 -0.694671 0
M  V30 3438 H 328.681 5.81671 -1.47577 0
M  V30 3439 H 329.751 4.46534 -1.89038 0
M  V30 3440 N 331.094 0.475555 1.50254 0
M  V30 3441 C 332.324 -0.0753399 2.06463 0
M  V30 3442 C 332.732 -1.33661 1.33908 0
M  V30 3443 O 332.075 -1.79219 0.403257 0
M  V30 3444 C 332.137 -0.424921 3.5698 0
M  V30 3445 C 331.801 0.734965 4.51051 0
M  V30 3446 C 332.798 1.61827 4.94073 0
M  V30 3447 C 330.483 0.926557 4.9368 0
M  V30 3448 C 332.477 2.67754 5.78434 0
M  V30 3449 C 330.164 1.98904 5.77824 0
M  V30 3450 C 331.162 2.8629 6.20103 0
M  V30 3451 O 330.85 3.90708 7.02568 0
M  V30 3452 H 330.582 0.00576308 0.675975 0
M  V30 3453 H 333.136 0.664662 1.94349 0
M  V30 3454 H 331.366 -1.21817 3.67012 0
M  V30 3455 H 333.055 -0.911422 3.95535 0
M  V30 3456 H 333.821 1.48196 4.61804 0
M  V30 3457 H 329.7 0.25584 4.6029 0
M  V30 3458 H 333.244 3.35992 6.11355 0
M  V30 3459 H 329.141 2.12541 6.09505 0
M  V30 3460 H 329.909 3.87751 7.20827 0
M  V30 3461 N 332.573 -1.56217 0.208337 0
M  V30 3462 C 333.803 -2.02043 -0.431523 0
M  V30 3463 C 334.211 -1.08755 -1.54819 0
M  V30 3464 O 333.554 -0.0870009 -1.83494 0
M  V30 3465 C 333.616 -3.44239 -1.03633 0
M  V30 3466 C 333.28 -4.56965 -0.0567502 0
M  V30 3467 C 334.277 -5.14624 0.738773 0
M  V30 3468 C 331.962 -5.02266 0.0581736 0
M  V30 3469 C 333.956 -6.16045 1.63605 0
M  V30 3470 C 331.643 -6.03528 0.959001 0
M  V30 3471 C 332.641 -6.60293 1.7465 0
M  V30 3472 O 332.329 -7.59586 2.6322 0
M  V30 3473 H 332.061 -0.666772 -0.111313 0
M  V30 3474 H 334.615 -2.02919 0.318277 0
M  V30 3475 H 332.845 -3.40391 -1.83497 0
M  V30 3476 H 334.534 -3.73793 -1.58221 0
M  V30 3477 H 335.3 -4.80483 0.660364 0
M  V30 3478 H 331.179 -4.57771 -0.544633 0
M  V30 3479 H 334.723 -6.60279 2.25116 0
M  V30 3480 H 330.62 -6.37092 1.03848 0
M  V30 3481 H 331.388 -7.77057 2.57148 0
M  V30 3482 N 334.051 0.0651679 -1.57465 0
M  V30 3483 C 334.998 1.07675 -2.04144 0
M  V30 3484 C 335.968 1.38071 -0.923335 0
M  V30 3485 O 337.153 1.49026 -1.19146 0
M  V30 3486 C 334.293 2.38337 -2.49579 0
M  V30 3487 C 333.406 2.14413 -3.75035 0
M  V30 3488 C 332.541 3.38686 -4.09225 0
M  V30 3489 C 331.58 3.10156 -5.27702 0
M  V30 3490 N 330.717 4.26778 -5.57499 0
M  V30 3491 H 335.557 0.671716 -2.90331 0
M  V30 3492 H 333.094 0.3201 -1.43575 0
M  V30 3493 H 335.052 3.14632 -2.73975 0
M  V30 3494 H 333.682 2.7663 -1.6636 0
M  V30 3495 H 332.734 1.2878 -3.57939 0
M  V30 3496 H 334.046 1.89344 -4.61466 0
M  V30 3497 H 333.2 4.23373 -4.34558 0
M  V30 3498 H 331.939 3.66837 -3.21374 0
M  V30 3499 H 330.944 2.23866 -5.02159 0
M  V30 3500 H 332.169 2.8332 -6.17176 0
M  V30 3501 H 330.115 4.54948 -4.72608 0
M  V30 3502 H 330.032 4.05005 -6.38362 0
M  V30 3503 H 331.3 5.12443 -5.87386 0
M  V30 3504 N 335.529 1.53961 0.336706 0
M  V30 3505 C 336.806 1.62171 1.09361 0
M  V30 3506 C 337.186 0.447263 2.06307 0
M  V30 3507 O 336.534 -0.559802 2.21537 0
M  V30 3508 C 336.744 2.98565 1.80721 0
M  V30 3509 C 338.092 3.54157 2.34218 0
M  V30 3510 O 339.116 3.00784 1.90807 0
M  V30 3511 O 337.975 4.47528 3.13657 0
M  V30 3512 H 335.069 0.6562 0.503319 0
M  V30 3513 H 337.615 1.66307 0.33765 0
M  V30 3514 H 336.387 3.75482 1.10132 0
M  V30 3515 H 336.01 2.9805 2.63158 0
M  V30 3516 N 337.007 -0.598083 1.45811 0
M  V30 3517 C 337.954 -1.7082 1.55207 0
M  V30 3518 C 338.924 -1.61278 0.39732 0
M  V30 3519 O 340.109 -1.80717 0.612038 0
M  V30 3520 C 337.249 -3.09144 1.53376 0
M  V30 3521 C 336.362 -3.29423 2.79472 0
M  V30 3522 C 335.497 -4.57907 2.69248 0
M  V30 3523 C 334.536 -4.71476 3.90354 0
M  V30 3524 N 333.673 -5.9127 3.78608 0
M  V30 3525 H 338.513 -1.62125 2.50039 0
M  V30 3526 H 336.05 -0.790389 1.24062 0
M  V30 3527 H 338.008 -3.89186 1.50301 0
M  V30 3528 H 336.638 -3.16773 0.620876 0
M  V30 3529 H 335.69 -2.43091 2.92594 0
M  V30 3530 H 337.002 -3.3532 3.69272 0
M  V30 3531 H 336.156 -5.46157 2.64192 0
M  V30 3532 H 334.895 -4.54423 1.77063 0
M  V30 3533 H 333.9 -3.81648 3.95759 0
M  V30 3534 H 335.125 -4.76751 4.83617 0
M  V30 3535 H 333.071 -5.88813 2.89199 0
M  V30 3536 H 332.988 -5.98369 4.6205 0
M  V30 3537 H 334.256 -6.81992 3.77501 0
M  V30 3538 N 338.485 -1.33259 -0.841409 0
M  V30 3539 C 339.448 -1.23221 -1.9326 0
M  V30 3540 C 340.448 -0.151895 -1.60081 0
M  V30 3541 O 341.638 -0.403246 -1.69468 0
M  V30 3542 C 338.77 -0.898123 -3.28856 0
M  V30 3543 H 339.963 -2.2021 -2.03587 0
M  V30 3544 H 337.516 -1.17281 -1.03319 0
M  V30 3545 H 338.251 0.0693841 -3.24226 0
M  V30 3546 H 338.036 -1.67934 -3.54317 0
M  V30 3547 H 339.526 -0.852563 -4.08805 0
M  V30 3548 N 339.963 1.05934 -1.16686 0
M  V30 3549 C 341.191 1.8249 -0.974929 0
M  V30 3550 C 341.606 1.82679 0.476861 0
M  V30 3551 O 340.963 1.2486 1.33103 0
M  V30 3552 C 341.014 3.28943 -1.49929 0
M  V30 3553 O 340.735 3.28886 -2.89423 0
M  V30 3554 C 342.236 4.22215 -1.35089 0
M  V30 3555 H 339.456 0.575295 -0.345365 0
M  V30 3556 H 342 1.33631 -1.548 0
M  V30 3557 H 340.155 3.751 -0.968423 0
M  V30 3558 H 340.569 4.20493 -3.13506 0
M  V30 3559 H 342.043 5.22987 -1.76603 0
M  V30 3560 H 342.52 4.38195 -0.296935 0
M  V30 3561 H 343.126 3.81907 -1.87155 0
M  V30 3562 N 341.441 0.965919 1.2453 0
M  V30 3563 C 342.688 0.626831 1.92554 0
M  V30 3564 C 343.016 -0.837739 1.75534 0
M  V30 3565 O 342.271 -1.61793 1.10098 0
M  V30 3566 C 342.57 0.945428 3.44669 0
M  V30 3567 C 342.236 2.39785 3.81856 0
M  V30 3568 C 340.898 2.79483 3.91718 0
M  V30 3569 C 343.25 3.34055 4.00071 0
M  V30 3570 C 340.578 4.12496 4.1721 0
M  V30 3571 C 342.93 4.66694 4.27059 0
M  V30 3572 C 341.594 5.06172 4.3514 0
M  V30 3573 H 340.864 0.229374 0.704605 0
M  V30 3574 H 343.511 1.21707 1.4785 0
M  V30 3575 H 341.816 0.272926 3.90848 0
M  V30 3576 H 343.513 0.661484 3.95507 0
M  V30 3577 H 340.103 2.08003 3.74743 0
M  V30 3578 H 344.287 3.04571 3.91855 0
M  V30 3579 H 339.543 4.42709 4.21685 0
M  V30 3580 H 343.717 5.3971 4.40097 0
M  V30 3581 H 341.344 6.09262 4.54646 0
M  V30 3582 N 342.919 -1.39368 0.735821 0
M  V30 3583 C 344.167 -2.00101 0.283562 0
M  V30 3584 C 344.488 -1.5868 -1.13338 0
M  V30 3585 O 343.758 -0.835423 -1.77193 0
M  V30 3586 H 342.338 -0.740024 0.101851 0
M  V30 3587 H 345 -1.70404 0.945962 0
M  V30 3588 H 344.096 -3.10323 0.332604 0
M  V30 3589 N 344.397 -0.483516 -1.5 0
M  V30 3590 C 345.637 0.0657469 -2.04294 0
M  V30 3591 C 346.001 1.35869 -1.35659 0
M  V30 3592 O 347.202 1.99111 -1.80578 0
M  V30 3593 C 345.473 0.232758 -3.56641 0
M  V30 3594 S 347.032 0.738788 -4.32536 0
M  V30 3595 H 343.85 0.0100755 -0.710929 0
M  V30 3596 H 346.452 -0.653494 -1.84254 0
M  V30 3597 H 345.156 -0.713847 -4.04144 0
M  V30 3598 H 344.687 0.977751 -3.81056 0
M  V30 3599 H 346.702 2.01048 -4.53645 0
M  V30 3600 N 345.875 1.56104 -0.216619 0
M  V30 3601 C 346.825 2.16703 0.708798 0
M  V30 3602 C 347.809 1.11392 1.16106 0
M  V30 3603 O 349.001 1.37395 1.11587 0
M  V30 3604 C 346.13 2.84666 1.91886 0
M  V30 3605 C 345.216 3.97195 1.48651 0
M  V30 3606 N 345.607 4.99959 0.766434 0
M  V30 3607 C 343.905 4.09193 1.77418 0
M  V30 3608 C 344.606 5.79126 0.546659 0
M  V30 3609 N 343.582 5.32315 1.10188 0
M  V30 3610 H 347.384 2.93516 0.150162 0
M  V30 3611 H 344.898 1.6239 -0.0176768 0
M  V30 3612 H 346.895 3.26486 2.59253 0
M  V30 3613 H 345.555 2.09347 2.48202 0
M  V30 3614 H 346.566 5.16197 0.419634 0
M  V30 3615 H 343.243 3.45021 2.35088 0
M  V30 3616 H 344.633 6.71895 -0.026103 0
M  V30 3617 N 347.353 -0.0568162 1.57498 0
M  V30 3618 C 348.63 -0.786954 1.79071 0
M  V30 3619 C 349.01 -1.95028 0.80792 0
M  V30 3620 O 348.358 -2.27968 -0.155858 0
M  V30 3621 C 348.568 -1.24594 3.26002 0
M  V30 3622 C 349.916 -1.67323 3.90241 0
M  V30 3623 O 350.94 -1.34124 3.29984 0
M  V30 3624 O 349.799 -2.28842 4.9628 0
M  V30 3625 H 346.893 -0.378262 0.735423 0
M  V30 3626 H 349.439 -0.035734 1.69662 0
M  V30 3627 H 348.211 -0.41423 3.89101 0
M  V30 3628 H 347.834 -2.05803 3.40192 0
M  V30 3629 N 348.832 -1.54138 -0.328536 0
M  V30 3630 C 350.08 -1.71765 -1.06496 0
M  V30 3631 C 350.401 -0.49149 -1.88704 0
M  V30 3632 O 349.671 0.494539 -1.89555 0
M  V30 3633 H 348.251 -0.633295 -0.396164 0
M  V30 3634 H 350.913 -1.91429 -0.366176 0
M  V30 3635 H 350.009 -2.5951 -1.73381 0
M  V30 3636 N 350.31 0.590341 -1.46126 0
M  V30 3637 C 351.54 1.37304 -1.54373 0
M  V30 3638 C 351.948 1.88332 -0.181071 0
M  V30 3639 O 351.291 1.63852 0.830559 0
M  V30 3640 C 351.353 2.6012 -2.48149 0
M  V30 3641 C 351.017 2.30613 -3.94546 0
M  V30 3642 C 352.014 1.89915 -4.83971 0
M  V30 3643 C 349.699 2.42993 -4.39613 0
M  V30 3644 C 351.693 1.61981 -6.16475 0
M  V30 3645 C 349.38 2.14672 -5.72153 0
M  V30 3646 C 350.378 1.7423 -6.60404 0
M  V30 3647 O 350.066 1.46251 -7.90485 0
M  V30 3648 H 349.798 0.426086 -0.524811 0
M  V30 3649 H 352.352 0.72539 -1.92165 0
M  V30 3650 H 350.582 3.27664 -2.05361 0
M  V30 3651 H 352.271 3.22182 -2.46887 0
M  V30 3652 H 353.037 1.79872 -4.50412 0
M  V30 3653 H 348.916 2.73435 -3.71153 0
M  V30 3654 H 352.46 1.30341 -6.85315 0
M  V30 3655 H 348.357 2.24337 -6.05263 0
M  V30 3656 H 349.125 1.6016 -8.02677 0
M  V30 3657 N 351.788 1.33704 0.83433 0
M  V30 3658 C 353.013 1.28615 1.62705 0
M  V30 3659 C 353.438 -0.139242 1.87584 0
M  V30 3660 O 352.796 -1.09734 1.4432 0
M  V30 3661 C 352.844 2.07139 2.95171 0
M  V30 3662 O 351.948 1.4331 3.86699 0
M  V30 3663 H 351.289 0.44226 0.49528 0
M  V30 3664 H 353.819 1.76335 1.03766 0
M  V30 3665 H 353.829 2.18073 3.44831 0
M  V30 3666 H 352.504 3.10779 2.76386 0
M  V30 3667 H 351.081 1.4105 3.45195 0
M  V30 3668 N 353.266 -1.05314 1.17247 0
M  V30 3669 C 354.196 -2.1498 0.911362 0
M  V30 3670 C 355.177 -1.69471 -0.146169 0
M  V30 3671 O 356.362 -1.942 0.003812 0
M  V30 3672 C 353.492 -3.4472 0.422528 0
M  V30 3673 C 352.446 -4.03789 1.4191 0
M  V30 3674 C 351.772 -5.28858 0.788274 0
M  V30 3675 C 353.072 -4.41418 2.7919 0
M  V30 3676 H 354.766 -2.3708 1.82848 0
M  V30 3677 H 352.312 -1.13938 0.880569 0
M  V30 3678 H 354.265 -4.20787 0.227289 0
M  V30 3679 H 352.989 -3.22269 -0.530123 0
M  V30 3680 H 351.648 -3.2979 1.60106 0
M  V30 3681 H 351.296 -5.02709 -0.171173 0
M  V30 3682 H 350.996 -5.69338 1.45353 0
M  V30 3683 H 352.52 -6.07612 0.603282 0
M  V30 3684 H 353.934 -5.08524 2.64719 0
M  V30 3685 H 352.331 -4.92913 3.42282 0
M  V30 3686 H 353.401 -3.51819 3.33693 0
M  V30 3687 N 354.744 -0.972509 -1.24016 0
M  V30 3688 C 356.021 -0.553733 -1.87598 0
M  V30 3689 C 356.401 0.969158 -1.87538 0
M  V30 3690 O 355.749 1.84255 -1.35139 0
M  V30 3691 C 355.959 -1.15076 -3.29482 0
M  V30 3692 C 357.307 -1.23862 -4.06132 0
M  V30 3693 O 358.331 -1.10363 -3.38672 0
M  V30 3694 O 357.19 -1.45252 -5.26844 0
M  V30 3695 H 354.284 -0.185331 -0.805966 0
M  V30 3696 H 356.83 -1.06709 -1.31952 0
M  V30 3697 H 355.602 -2.19333 -3.2405 0
M  V30 3698 H 355.225 -0.621746 -3.92709 0
M  V30 3699 N 356.222 1.38976 -0.743202 0
M  V30 3700 C 357.47 1.99948 -0.29417 0
M  V30 3701 C 357.791 1.59279 1.12495 0
M  V30 3702 O 357.061 0.844808 1.76748 0
M  V30 3703 H 355.641 0.739473 -0.105774 0
M  V30 3704 H 358.303 1.699 -0.954986 0
M  V30 3705 H 357.399 3.10142 -0.349056 0
M  V30 3706 N 357.7 0.491464 1.49741 0
M  V30 3707 C 359.111 0.0413169 1.86654 0
M  V30 3708 C 359.462 -1.36985 1.40462 0
M  V30 3709 O 358.587 -2.01917 0.778354 0
M  V30 3710 C 359.182 0.0682023 3.38731 0
M  V30 3711 C 357.741 -0.32656 3.74981 0
M  V30 3712 C 356.888 0.444888 2.73708 0
M  V30 3713 H 359.839 0.704733 1.42194 0
M  V30 3714 H 359.86 -0.729322 3.73445 0
M  V30 3715 H 359.372 1.09539 3.72321 0
M  V30 3716 H 357.473 -1.35734 3.46997 0
M  V30 3717 H 357.586 -0.013741 4.79098 0
M  V30 3718 H 355.95 -0.104062 2.54487 0
M  V30 3719 H 356.733 1.47197 3.10142 0
M  V30 3720 N 359.178 -1.55987 0.224894 0
M  V30 3721 C 360.088 -2.24066 -0.69511 0
M  V30 3722 C 361.104 -1.24939 -1.21104 0
M  V30 3723 O 362.28 -1.5776 -1.25195 0
M  V30 3724 C 359.345 -2.90983 -1.88493 0
M  V30 3725 C 358.406 -4.05462 -1.41064 0
M  V30 3726 C 357.639 -4.69179 -2.54375 0
M  V30 3727 O 357.862 -4.31895 -3.72589 0
M  V30 3728 O 356.796 -5.58108 -2.25386 0
M  V30 3729 H 360.622 -3.03353 -0.145149 0
M  V30 3730 H 358.207 -1.49399 -0.00569476 0
M  V30 3731 H 360.089 -3.33209 -2.57972 0
M  V30 3732 H 358.764 -2.14653 -2.42293 0
M  V30 3733 H 357.671 -3.67798 -0.683774 0
M  V30 3734 H 359.004 -4.83545 -0.918985 0
M  V30 3735 N 360.656 0.0484629 -1.57525 0
M  V30 3736 C 361.566 1.07241 -2.08654 0
M  V30 3737 C 362.582 1.409 -1.02095 0
M  V30 3738 O 363.758 1.50609 -1.33712 0
M  V30 3739 C 360.823 2.36008 -2.5397 0
M  V30 3740 C 359.884 2.09108 -3.7493 0
M  V30 3741 C 359.117 3.31736 -4.18075 0
M  V30 3742 O 359.34 4.41714 -3.60895 0
M  V30 3743 O 358.274 3.18576 -5.10679 0
M  V30 3744 H 362.1 0.667965 -2.96263 0
M  V30 3745 H 359.685 0.26417 -1.47046 0
M  V30 3746 H 361.567 3.11747 -2.83535 0
M  V30 3747 H 360.242 2.75786 -1.69481 0
M  V30 3748 H 359.149 1.31 -3.50414 0
M  V30 3749 H 360.482 1.74198 -4.60343 0
M  V30 3750 N 362.134 1.5431 0.320358 0
M  V30 3751 C 363.383 1.7188 1.05546 0
M  V30 3752 C 363.696 0.501143 1.89071 0
M  V30 3753 O 364.902 0.558258 2.65699 0
M  V30 3754 C 363.358 3.04025 1.92605 0
M  V30 3755 C 362.966 4.33207 1.14176 0
M  V30 3756 C 364.71 3.30959 2.65832 0
M  V30 3757 C 362.617 5.56412 2.00399 0
M  V30 3758 H 361.547 0.640547 0.397763 0
M  V30 3759 H 364.198 1.80802 0.313522 0
M  V30 3760 H 362.58 2.89019 2.7071 0
M  V30 3761 H 363.754 4.58989 0.40819 0
M  V30 3762 H 362.069 4.13062 0.526165 0
M  V30 3763 H 364.666 4.20203 3.30656 0
M  V30 3764 H 365.009 2.48979 3.33639 0
M  V30 3765 H 365.542 3.46847 1.94787 0
M  V30 3766 H 362.281 6.41004 1.37094 0
M  V30 3767 H 361.801 5.34844 2.7148 0
M  V30 3768 H 363.48 5.92938 2.58908 0
M  V30 3769 N 363.613 -0.582584 1.46437 0
M  V30 3770 C 364.523 -1.71949 1.59595 0
M  V30 3771 C 365.539 -1.67264 0.479443 0
M  V30 3772 O 366.715 -1.87171 0.743579 0
M  V30 3773 C 363.78 -3.08452 1.58298 0
M  V30 3774 C 362.841 -3.244 2.81182 0
M  V30 3775 C 362.074 -4.54391 2.79937 0
M  V30 3776 O 362.297 -5.38287 1.8869 0
M  V30 3777 O 361.231 -4.73588 3.71481 0
M  V30 3778 H 365.057 -1.63795 2.55744 0
M  V30 3779 H 362.642 -0.749643 1.29231 0
M  V30 3780 H 364.524 -3.89732 1.60271 0
M  V30 3781 H 363.199 -3.17043 0.653094 0
M  V30 3782 H 362.106 -2.42613 2.84763 0
M  V30 3783 H 363.439 -3.20699 3.7338 0
M  V30 3784 N 365.091 -1.34144 -0.827227 0
M  V30 3785 C 366.331 -1.27603 -1.59677 0
M  V30 3786 C 366.695 0.153035 -1.91389 0
M  V30 3787 O 367.896 0.342566 -2.66608 0
M  V30 3788 C 366.167 -2.13784 -2.86411 0
M  V30 3789 S 367.726 -2.24552 -3.76991 0
M  V30 3790 H 364.544 -0.453789 -0.547354 0
M  V30 3791 H 367.146 -1.69309 -0.977479 0
M  V30 3792 H 365.85 -3.16627 -2.61104 0
M  V30 3793 H 365.381 -1.72959 -3.5334 0
M  V30 3794 H 367.396 -1.41514 -4.75593 0
M  V30 3795 N 366.569 1.04691 -1.17803 0
M  V30 3796 C 367.797 1.81446 -0.99423 0
M  V30 3797 C 368.212 1.83174 0.457459 0
M  V30 3798 O 367.569 1.26265 1.31771 0
M  V30 3799 C 367.62 3.27334 -1.5341 0
M  V30 3800 O 367.341 3.25798 -2.92895 0
M  V30 3801 C 368.842 4.20759 -1.39559 0
M  V30 3802 H 366.062 0.571599 -0.351447 0
M  V30 3803 H 368.606 1.31982 -1.56208 0
M  V30 3804 H 366.761 3.74052 -1.00815 0
M  V30 3805 H 367.175 4.17144 -3.17949 0
M  V30 3806 H 368.649 5.21084 -1.82141 0
M  V30 3807 H 369.126 4.37856 -0.343394 0
M  V30 3808 H 369.732 3.79901 -1.91195 0
M  V30 3809 N 368.047 0.979072 1.23499 0
M  V30 3810 C 368.994 0.517904 2.24914 0
M  V30 3811 C 369.964 -0.442525 1.60097 0
M  V30 3812 O 371.149 -0.350365 1.87556 0
M  V30 3813 C 368.289 -0.174813 3.44657 0
M  V30 3814 C 367.402 0.825721 4.24035 0
M  V30 3815 C 366.537 0.107946 5.3109 0
M  V30 3816 C 365.576 1.09778 6.02175 0
M  V30 3817 N 364.713 0.40925 7.00906 0
M  V30 3818 H 369.553 1.38751 2.63727 0
M  V30 3819 H 367.09 0.695303 1.2963 0
M  V30 3820 H 369.048 -0.593233 4.12961 0
M  V30 3821 H 367.678 -1.0083 3.06648 0
M  V30 3822 H 366.73 1.36253 3.55161 0
M  V30 3823 H 368.042 1.58005 4.73113 0
M  V30 3824 H 367.196 -0.367904 6.05583 0
M  V30 3825 H 365.935 -0.678994 4.8295 0
M  V30 3826 H 364.94 1.5844 5.26476 0
M  V30 3827 H 366.165 1.88536 6.52404 0
M  V30 3828 H 364.111 -0.358506 6.5502 0
M  V30 3829 H 364.028 1.10226 7.47921 0
M  V30 3830 H 365.296 -0.0442557 7.79487 0
M  V30 3831 N 369.525 -1.3858 0.750561 0
M  V30 3832 C 370.455 -2.33102 0.136237 0
M  V30 3833 C 371.436 -1.54713 -0.706965 0
M  V30 3834 O 372.621 -1.83043 -0.648769 0
M  V30 3835 C 369.751 -3.38882 -0.760017 0
M  V30 3836 C 368.705 -4.27995 -0.0197785 0
M  V30 3837 C 368.031 -5.24605 -1.03408 0
M  V30 3838 C 369.331 -5.09554 1.14684 0
M  V30 3839 H 371.025 -2.84726 0.925822 0
M  V30 3840 H 368.571 -1.36898 0.446654 0
M  V30 3841 H 370.524 -4.0397 -1.19943 0
M  V30 3842 H 369.248 -2.85734 -1.58189 0
M  V30 3843 H 367.907 -3.64409 0.400184 0
M  V30 3844 H 367.555 -4.67746 -1.84994 0
M  V30 3845 H 367.255 -5.85081 -0.543464 0
M  V30 3846 H 368.779 -5.9257 -1.47288 0
M  V30 3847 H 370.193 -5.67899 0.785118 0
M  V30 3848 H 368.59 -5.7925 1.56812 0
M  V30 3849 H 369.66 -4.4347 1.96118 0
M  V30 3850 N 371.003 -0.499398 -1.49478 0
M  V30 3851 C 372.251 0.0455996 -2.02049 0
M  V30 3852 C 372.572 1.37633 -1.38138 0
M  V30 3853 O 371.842 1.8842 -0.536166 0
M  V30 3854 H 370.422 0.0198416 -0.746736 0
M  V30 3855 H 373.084 -0.656274 -1.83519 0
M  V30 3856 H 372.18 0.176445 -3.11601 0
M  V30 3857 N 372.481 1.55866 -0.233164 0
M  V30 3858 C 373.429 2.22176 0.68851 0
M  V30 3859 C 374.423 1.20487 1.19076 0
M  V30 3860 O 375.629 1.38536 1.14925 0
M  V30 3861 H 372.004 0.712511 0.240483 0
M  V30 3862 H 373.975 2.98212 0.105935 0
M  V30 3863 C 372.724 2.92446 1.88071 0
M  V30 3864 H 372.047 3.70458 1.50337 0
M  V30 3865 H 373.487 3.42226 2.50314 0
M  V30 3866 C 371.946 1.95555 2.74335 0
M  V30 3867 O 372.476 1.47986 3.73447 0
M  V30 3868 N 370.682 1.62953 2.40613 0
M  V30 3869 H 370.229 2.01831 1.60069 0
M  V30 3870 H 370.187 0.983886 2.98609 0
M  V30 3871 N 373.959 -0.0401083 1.57549 0
M  V30 3872 C 375.205 -0.728793 1.89895 0
M  V30 3873 C 375.56 -1.73551 0.830535 0
M  V30 3874 O 374.853 -1.90914 -0.162007 0
M  V30 3875 C 375.047 -1.44902 3.26708 0
M  V30 3876 C 374.876 -0.513568 4.46758 0
M  V30 3877 C 373.646 -0.138698 5.0511 0
M  V30 3878 C 375.844 0.203341 5.13898 0
M  V30 3879 N 373.826 0.799159 6.08676 0
M  V30 3880 C 375.197 0.997246 6.11927 0
M  V30 3881 C 377.252 0.271459 4.97159 0
M  V30 3882 C 375.955 1.85299 6.95023 0
M  V30 3883 C 377.981 1.11429 5.80808 0
M  V30 3884 C 377.343 1.89615 6.78399 0
M  V30 3885 H 373.442 -0.241125 0.743897 0
M  V30 3886 H 376.026 0.0108016 1.94697 0
M  V30 3887 H 374.197 -2.15914 3.22856 0
M  V30 3888 H 375.929 -2.08921 3.46603 0
M  V30 3889 H 372.684 -0.498496 4.70969 0
M  V30 3890 H 373.108 1.26227 6.65128 0
M  V30 3891 H 377.75 -0.318709 4.21597 0
M  V30 3892 H 375.468 2.454 7.69938 0
M  V30 3893 H 379.054 1.17038 5.69906 0
M  V30 3894 H 377.934 2.53779 7.42001 0
M  V30 3895 N 375.437 -1.54477 -0.31217 0
M  V30 3896 C 376.662 -1.77526 -1.07235 0
M  V30 3897 C 377.087 -0.527775 -1.80544 0
M  V30 3898 O 376.445 0.52121 -1.73646 0
M  V30 3899 C 376.493 -2.97535 -2.03728 0
M  V30 3900 O 375.597 -2.69878 -3.11833 0
M  V30 3901 H 374.938 -0.58792 -0.30862 0
M  V30 3902 H 377.468 -2.01532 -0.352993 0
M  V30 3903 H 377.478 -3.25198 -2.46395 0
M  V30 3904 H 376.153 -3.87996 -1.49774 0
M  V30 3905 H 374.73 -2.53199 -2.7376 0
M  V30 3906 N 376.915 0.57481 -1.46744 0
M  V30 3907 C 377.878 1.66533 -1.57478 0
M  V30 3908 C 378.878 1.54338 -0.451263 0
M  V30 3909 O 380.068 1.58814 -0.715813 0
M  V30 3910 C 377.2 3.05999 -1.50259 0
M  V30 3911 H 378.393 1.58372 -2.54673 0
M  V30 3912 H 375.946 0.793301 -1.34672 0
M  V30 3913 H 376.681 3.19709 -0.543725 0
M  V30 3914 H 376.466 3.16259 -2.31781 0
M  V30 3915 H 377.956 3.8537 -1.60872 0
M  V30 3916 N 378.394 1.34581 0.820102 0
M  V30 3917 C 379.327 1.20735 1.93644 0
M  V30 3918 C 380.305 0.0983343 1.62302 0
M  V30 3919 O 381.489 0.263997 1.86642 0
M  V30 3920 C 378.616 0.856037 3.27704 0
M  V30 3921 C 377.662 1.97521 3.78005 0
M  V30 3922 S 378.495 3.58906 3.97425 0
M  V30 3923 C 379.651 3.25822 5.34407 0
M  V30 3924 H 379.884 2.15231 2.05093 0
M  V30 3925 H 377.417 1.1964 0.97599 0
M  V30 3926 H 379.375 0.660133 4.05157 0
M  V30 3927 H 378.036 -0.0706253 3.14021 0
M  V30 3928 H 377.229 1.68321 4.75062 0
M  V30 3929 H 376.831 2.12875 3.07507 0
M  V30 3930 H 379.123 2.77812 6.17922 0
M  V30 3931 H 380.066 4.22029 5.68592 0
M  V30 3932 H 380.474 2.61932 5.00052 0
M  V30 3933 N 379.872 -1.04064 1.18357 0
M  V30 3934 C 381.283 -1.58719 0.98312 0
M  V30 3935 C 381.634 -1.90556 -0.467193 0
M  V30 3936 O 380.759 -1.69561 -1.34454 0
M  V30 3937 C 381.354 -2.88379 1.77828 0
M  V30 3938 C 379.913 -3.3965 1.62218 0
M  V30 3939 C 379.06 -2.13235 1.77274 0
M  V30 3940 H 382.011 -0.867359 1.32901 0
M  V30 3941 H 382.032 -3.58773 1.26737 0
M  V30 3942 H 381.544 -2.65176 2.83379 0
M  V30 3943 H 379.645 -3.67866 0.592036 0
M  V30 3944 H 379.758 -4.13475 2.42023 0
M  V30 3945 H 378.122 -2.24542 1.20221 0
M  V30 3946 H 378.905 -1.92487 2.8426 0
M  V30 3947 N 381.35 -0.985608 -1.22978 0
M  V30 3948 C 382.575 -0.675254 -1.961 0
M  V30 3949 C 383 0.752154 -1.72407 0
M  V30 3950 O 382.358 1.5131 -0.998751 0
M  V30 3951 C 382.406 -0.977899 -3.47087 0
M  V30 3952 O 381.51 -0.072685 -4.12336 0
M  V30 3953 H 380.851 -0.253443 -0.613728 0
M  V30 3954 H 383.381 -1.32061 -1.56272 0
M  V30 3955 H 383.391 -0.916739 -3.97567 0
M  V30 3956 H 382.066 -2.01807 -3.63657 0
M  V30 3957 H 380.643 -0.188703 -3.72422 0
M  V30 3958 N 382.828 1.3818 -0.7579 0
M  V30 3959 C 384.068 2.01864 -0.320968 0
M  V30 3960 C 384.432 1.58863 1.07827 0
M  V30 3961 O 385.633 2.14908 1.61456 0
M  V30 3962 C 383.904 3.54626 -0.44446 0
M  V30 3963 S 385.463 4.38706 -0.0907467 0
M  V30 3964 H 382.281 0.700056 -0.124268 0
M  V30 3965 H 384.883 1.68611 -0.989468 0
M  V30 3966 H 383.587 3.83411 -1.4637 0
M  V30 3967 H 383.118 3.92661 0.241073 0
M  V30 3968 H 385.133 4.83435 1.11826 0
M  V30 3969 N 384.306 0.507319 1.49211 0
M  V30 3970 C 385.253 -0.267728 2.29242 0
M  V30 3971 C 386.223 -0.954609 1.35928 0
M  V30 3972 O 387.408 -0.960046 1.64887 0
M  V30 3973 C 384.548 -1.32243 3.18756 0
M  V30 3974 C 383.661 -0.64669 4.27132 0
M  V30 3975 C 382.796 -1.68238 5.03855 0
M  V30 3976 C 381.835 -0.98885 6.0406 0
M  V30 3977 N 380.972 -1.96903 6.73924 0
M  V30 3978 H 385.812 0.420968 2.95012 0
M  V30 3979 H 383.349 0.219443 1.45454 0
M  V30 3980 H 385.307 -1.94599 3.69036 0
M  V30 3981 H 383.937 -1.97981 2.54958 0
M  V30 3982 H 382.989 0.0902926 3.80293 0
M  V30 3983 H 384.301 -0.101058 4.98698 0
M  V30 3984 H 383.455 -2.38081 5.58034 0
M  V30 3985 H 382.194 -2.26187 4.32077 0
M  V30 3986 H 381.199 -0.276222 5.49106 0
M  V30 3987 H 382.424 -0.415767 6.77826 0
M  V30 3988 H 380.37 -2.53803 6.04913 0
M  V30 3989 H 380.287 -1.47423 7.41487 0
M  V30 3990 H 381.555 -2.66015 7.32705 0
M  V30 3991 N 385.784 -1.5574 0.241426 0
M  V30 3992 C 386.747 -2.19877 -0.647063 0
M  V30 3993 C 387.747 -1.16642 -1.10686 0
M  V30 3994 O 388.937 -1.41757 -1.01245 0
M  V30 3995 C 386.069 -2.83797 -1.88871 0
M  V30 3996 H 387.262 -2.99772 -0.087574 0
M  V30 3997 H 384.815 -1.56298 -0.00813574 0
M  V30 3998 H 385.55 -2.07824 -2.48957 0
M  V30 3999 H 385.335 -3.59414 -1.56728 0
M  V30 4000 H 386.825 -3.32898 -2.52129 0
M  V30 4001 N 387.262 0.0317525 -1.57568 0
M  V30 4002 C 388.487 0.738664 -1.938 0
M  V30 4003 C 388.912 1.68242 -0.841208 0
M  V30 4004 O 388.27 1.80157 0.203267 0
M  V30 4005 C 388.318 1.47417 -3.29091 0
M  V30 4006 O 387.422 2.5872 -3.2115 0
M  V30 4007 H 386.763 0.198856 -0.633524 0
M  V30 4008 H 389.293 -0.0119713 -2.04596 0
M  V30 4009 H 389.303 1.84468 -3.63917 0
M  V30 4010 H 387.978 0.781988 -4.08482 0
M  V30 4011 H 386.555 2.24231 -2.97951 0
M  V30 4012 N 388.74 1.54641 0.303973 0
M  V30 4013 C 389.98 1.75516 1.04755 0
M  V30 4014 C 390.344 0.528211 1.84591 0
M  V30 4015 O 391.545 0.614645 2.61678 0
M  V30 4016 C 389.816 3.00685 1.93193 0
M  V30 4017 S 391.375 3.42549 2.74237 0
M  V30 4018 H 388.193 0.616987 0.353339 0
M  V30 4019 H 390.795 1.92842 0.321292 0
M  V30 4020 H 389.499 3.8811 1.33411 0
M  V30 4021 H 389.03 2.85937 2.70191 0
M  V30 4022 H 391.045 2.99386 3.95705 0
M  V30 4023 N 390.218 -0.567019 1.47046 0
M  V30 4024 C 391.165 -1.67489 1.58796 0
M  V30 4025 C 392.135 -1.60399 0.43144 0
M  V30 4026 O 393.32 -1.79378 0.650233 0
M  V30 4027 C 390.46 -3.05821 1.59899 0
M  V30 4028 C 389.573 -3.2342 2.86397 0
M  V30 4029 C 388.708 -4.52093 2.789 0
M  V30 4030 C 387.747 -4.6309 4.00267 0
M  V30 4031 N 386.884 -5.83106 3.91064 0
M  V30 4032 H 391.724 -1.56785 2.53422 0
M  V30 4033 H 389.261 -0.763896 1.2571 0
M  V30 4034 H 391.219 -3.8591 1.58522 0
M  V30 4035 H 389.849 -3.15384 0.687929 0
M  V30 4036 H 388.901 -2.3683 2.97684 0
M  V30 4037 H 390.213 -3.27412 3.76301 0
M  V30 4038 H 389.367 -5.4043 2.75718 0
M  V30 4039 H 388.106 -4.50565 1.86662 0
M  V30 4040 H 387.111 -3.73168 4.03765 0
M  V30 4041 H 388.336 -4.66386 4.93621 0
M  V30 4042 H 386.282 -5.82546 3.01623 0
M  V30 4043 H 386.199 -5.88434 4.74638 0
M  V30 4044 H 387.467 -6.73831 3.91882 0
M  V30 4045 N 391.696 -1.35014 -0.812953 0
M  V30 4046 C 392.942 -1.2812 -1.57204 0
M  V30 4047 C 393.275 0.145869 -1.93651 0
M  V30 4048 O 392.55 1.0937 -1.60836 0
M  V30 4049 C 392.833 -2.18162 -2.86492 0
M  V30 4050 C 392.686 -3.69454 -2.56561 0
M  V30 4051 C 394.005 -2.07439 -3.88145 0
M  V30 4052 H 391.124 -0.466746 -0.570366 0
M  V30 4053 H 393.766 -1.65357 -0.935783 0
M  V30 4054 H 391.916 -1.86535 -3.40789 0
M  V30 4055 H 393.588 -4.11493 -2.08497 0
M  V30 4056 H 391.831 -3.9005 -1.89851 0
M  V30 4057 H 392.502 -4.27835 -3.48799 0
M  V30 4058 H 394.978 -2.35228 -3.4323 0
M  V30 4059 H 393.854 -2.7265 -4.76396 0
M  V30 4060 H 394.115 -1.05439 -4.29343 0
M  V30 4061 N 393.175 1.03435 -1.18907 0
M  V30 4062 C 394.586 1.58195 -0.991523 0
M  V30 4063 C 394.937 1.90801 0.457081 0
M  V30 4064 O 394.062 1.70272 1.33553 0
M  V30 4065 C 394.657 2.87432 -1.79355 0
M  V30 4066 C 393.216 3.38785 -1.64017 0
M  V30 4067 C 392.363 2.12292 -1.78402 0
M  V30 4068 H 395.314 0.860299 -1.33359 0
M  V30 4069 H 395.335 3.58096 -1.28638 0
M  V30 4070 H 394.847 2.63669 -2.84781 0
M  V30 4071 H 392.948 3.67547 -0.611536 0
M  V30 4072 H 393.061 4.12186 -2.44212 0
M  V30 4073 H 391.425 2.23901 -1.2141 0
M  V30 4074 H 392.208 1.90977 -2.85277 0
M  V30 4075 N 394.653 0.992116 1.22453 0
M  V30 4076 C 395.899 0.668523 1.91464 0
M  V30 4077 C 396.232 -0.797313 1.77078 0
M  V30 4078 O 395.507 -1.5765 1.13916 0
M  V30 4079 C 395.79 1.07424 3.43703 0
M  V30 4080 C 395.643 2.59857 3.67143 0
M  V30 4081 C 396.962 0.626891 4.35612 0
M  V30 4082 H 394.081 0.244341 0.695318 0
M  V30 4083 H 396.723 1.2355 1.44345 0
M  V30 4084 H 394.873 0.591816 3.83966 0
M  V30 4085 H 396.545 3.15764 3.3629 0
M  V30 4086 H 394.788 3.01961 3.11451 0
M  V30 4087 H 395.459 2.83296 4.73759 0
M  V30 4088 H 397.935 1.04125 4.02861 0
M  V30 4089 H 396.811 0.939076 5.40807 0
M  V30 4090 H 397.072 -0.472457 4.39568 0
M  V30 4091 N 396.131 -1.37776 0.765217 0
M  V30 4092 C 397.078 -2.30342 0.145274 0
M  V30 4093 C 398.048 -1.5077 -0.696971 0
M  V30 4094 O 399.233 -1.79362 -0.650689 0
M  V30 4095 C 396.373 -3.37227 -0.732939 0
M  V30 4096 C 395.486 -4.31819 0.125199 0
M  V30 4097 C 394.621 -5.25777 -0.757107 0
M  V30 4098 C 393.66 -6.12012 0.103963 0
M  V30 4099 N 392.797 -6.98232 -0.735953 0
M  V30 4100 H 397.637 -2.8278 0.940195 0
M  V30 4101 H 395.174 -1.39211 0.475255 0
M  V30 4102 H 397.132 -3.97818 -1.25686 0
M  V30 4103 H 395.762 -2.86171 -1.49353 0
M  V30 4104 H 394.814 -3.7259 0.766865 0
M  V30 4105 H 396.126 -4.92509 0.789683 0
M  V30 4106 H 395.28 -5.91541 -1.34776 0
M  V30 4107 H 394.019 -4.65481 -1.45529 0
M  V30 4108 H 393.024 -5.45233 0.707197 0
M  V30 4109 H 394.249 -6.74379 0.799381 0
M  V30 4110 H 392.195 -6.40472 -1.41887 0
M  V30 4111 H 392.112 -7.55891 -0.128624 0
M  V30 4112 H 393.38 -7.68393 -1.31121 0
M  V30 4113 N 397.609 -0.515225 -1.4894 0
M  V30 4114 C 398.556 0.255567 -2.29381 0
M  V30 4115 C 399.526 0.947387 -1.36432 0
M  V30 4116 O 400.711 0.951288 -1.65394 0
M  V30 4117 C 397.851 1.30551 -3.19453 0
M  V30 4118 C 396.964 0.624029 -4.27469 0
M  V30 4119 C 396.099 1.65563 -5.0474 0
M  V30 4120 C 395.138 0.956802 -6.04576 0
M  V30 4121 N 394.275 1.93326 -6.74959 0
M  V30 4122 H 399.115 -0.436607 -2.94784 0
M  V30 4123 H 396.652 -0.227154 -1.45336 0
M  V30 4124 H 398.61 1.92639 -3.70062 0
M  V30 4125 H 397.24 1.96626 -2.56004 0
M  V30 4126 H 396.292 -0.110459 -3.8024 0
M  V30 4127 H 397.604 0.0746092 -4.98744 0
M  V30 4128 H 396.758 2.35119 -5.59289 0
M  V30 4129 H 395.497 2.23893 -4.3327 0
M  V30 4130 H 394.502 0.247097 -5.49244 0
M  V30 4131 H 395.727 0.379814 -6.78037 0
M  V30 4132 H 393.673 2.50591 -6.06251 0
M  V30 4133 H 393.59 1.43489 -7.42258 0
M  V30 4134 H 394.858 2.62126 -7.34105 0
M  V30 4135 N 399.087 1.5561 -0.249682 0
M  V30 4136 C 400.05 2.20217 0.635394 0
M  V30 4137 C 401.05 1.17227 1.10066 0
M  V30 4138 O 402.24 1.42292 1.00492 0
M  V30 4139 C 399.372 2.84794 1.87363 0
M  V30 4140 H 400.565 2.99814 0.0716752 0
M  V30 4141 H 398.118 1.563 -0.000153234 0
M  V30 4142 H 398.853 2.09142 2.47851 0
M  V30 4143 H 398.638 3.60241 1.5482 0
M  V30 4144 H 400.128 3.3423 2.5036 0
M  V30 4145 N 400.565 -0.0233959 1.57583 0
M  V30 4146 C 401.793 -0.724682 1.93794 0
M  V30 4147 C 402.208 -1.68588 0.849912 0
M  V30 4148 O 401.565 -1.81676 -0.173204 0
M  V30 4149 C 401.616 -1.47684 3.29957 0
M  V30 4150 O 401.337 -0.554222 4.3458 0
M  V30 4151 C 402.838 -2.27477 3.80485 0
M  V30 4152 H 400.058 -0.203317 0.639455 0
M  V30 4153 H 402.602 0.0207653 2.04489 0
M  V30 4154 H 400.757 -2.17412 3.20641 0
M  V30 4155 H 401.171 -1.08232 5.13212 0
M  V30 4156 H 402.645 -2.7564 4.78254 0
M  V30 4157 H 403.122 -3.09144 3.11972 0
M  V30 4158 H 403.728 -1.62813 3.92902 0
M  V30 4159 N 402.043 -1.548 -0.295768 0
M  V30 4160 C 403.289 -1.74588 -1.03184 0
M  V30 4161 C 403.622 -0.532962 -1.86744 0
M  V30 4162 O 402.897 0.469872 -1.88739 0
M  V30 4163 C 403.18 -3.03791 -1.93347 0
M  V30 4164 C 403.033 -4.35392 -1.12933 0
M  V30 4165 C 404.352 -3.28892 -2.92435 0
M  V30 4166 H 401.471 -0.635221 -0.373715 0
M  V30 4167 H 404.113 -1.87519 -0.30606 0
M  V30 4168 H 402.263 -2.92898 -2.55232 0
M  V30 4169 H 403.935 -4.58211 -0.532943 0
M  V30 4170 H 402.178 -4.31642 -0.432168 0
M  V30 4171 H 402.849 -5.22074 -1.79284 0
M  V30 4172 H 405.325 -3.39429 -2.4068 0
M  V30 4173 H 404.201 -4.20603 -3.52682 0
M  V30 4174 H 404.462 -2.47437 -3.6637 0
M  V30 4175 N 403.521 0.559213 -1.47345 0
M  V30 4176 C 404.767 1.31843 -1.54095 0
M  V30 4177 C 405.1 1.93149 -0.201726 0
M  V30 4178 O 404.375 1.77759 0.789428 0
M  V30 4179 C 404.658 2.43006 -2.65744 0
M  V30 4180 C 404.511 1.86581 -4.09277 0
M  V30 4181 C 405.83 3.44943 -2.73318 0
M  V30 4182 H 402.949 0.478012 -0.560957 0
M  V30 4183 H 405.591 0.625977 -1.79392 0
M  V30 4184 H 403.741 3.02072 -2.44305 0
M  V30 4185 H 405.413 1.31792 -4.42073 0
M  V30 4186 H 403.656 1.17268 -4.17649 0
M  V30 4187 H 404.327 2.66933 -4.83168 0
M  V30 4188 H 406.803 2.95793 -2.92653 0
M  V30 4189 H 405.679 4.20153 -3.53218 0
M  V30 4190 H 405.94 4.03665 -1.80296 0
M  V30 4191 N 404.999 1.35443 0.805782 0
M  V30 4192 C 406.229 1.31687 1.59192 0
M  V30 4193 C 406.637 -0.10756 1.88894 0
M  V30 4194 O 405.98 -1.07017 1.49309 0
M  V30 4195 C 406.042 2.05686 2.94845 0
M  V30 4196 C 405.706 3.54868 2.87954 0
M  V30 4197 C 406.703 4.49444 2.61335 0
M  V30 4198 C 404.388 3.97528 3.07046 0
M  V30 4199 C 406.382 5.84655 2.53885 0
M  V30 4200 C 404.069 5.32833 2.99219 0
M  V30 4201 C 405.067 6.26209 2.72674 0
M  V30 4202 O 404.755 7.59032 2.64811 0
M  V30 4203 H 404.487 0.453878 0.50097 0
M  V30 4204 H 407.041 1.78892 1.0093 0
M  V30 4205 H 405.271 1.5312 3.55093 0
M  V30 4206 H 406.96 1.94998 3.55993 0
M  V30 4207 H 407.726 4.17804 2.46303 0
M  V30 4208 H 403.605 3.25233 3.26718 0
M  V30 4209 H 407.149 6.57508 2.33086 0
M  V30 4210 H 403.046 5.64087 3.13809 0
M  V30 4211 H 403.814 7.68967 2.80413 0
M  V30 4212 N 406.477 -1.02803 1.19454 0
M  V30 4213 C 407.409 -2.11181 0.890807 0
M  V30 4214 C 408.422 -1.6238 -0.116829 0
M  V30 4215 O 409.611 -1.78144 0.112694 0
M  V30 4216 C 406.711 -3.37461 0.311942 0
M  V30 4217 C 405.884 -4.15446 1.36834 0
M  V30 4218 C 404.943 -5.20039 0.802864 0
M  V30 4219 O 403.969 -5.49602 1.48077 0
M  V30 4220 N 405.171 -5.79165 -0.393417 0
M  V30 4221 H 407.936 -2.37827 1.82369 0
M  V30 4222 H 405.497 -1.19101 1.09666 0
M  V30 4223 H 407.489 -4.0462 -0.0802225 0
M  V30 4224 H 406.059 -3.08156 -0.52524 0
M  V30 4225 H 405.279 -3.43423 1.93531 0
M  V30 4226 H 406.567 -4.64335 2.08015 0
M  V30 4227 H 405.965 -5.57466 -0.961658 0
M  V30 4228 H 404.522 -6.47729 -0.727351 0
M  V30 4229 N 407.956 -0.998596 -1.21925 0
M  V30 4230 C 409.204 -0.676325 -1.90448 0
M  V30 4231 C 409.525 0.794719 -1.78071 0
M  V30 4232 O 408.795 1.5701 -1.17152 0
M  V30 4233 H 407.375 -0.247165 -0.704925 0
M  V30 4234 H 410.037 -1.26633 -1.48156 0
M  V30 4235 H 409.133 -0.943858 -2.97486 0
M  V30 4236 N 409.434 1.37368 -0.772513 0
M  V30 4237 C 410.344 2.34053 -0.160081 0
M  V30 4238 C 411.36 1.60216 0.678728 0
M  V30 4239 O 412.536 1.92303 0.59847 0
M  V30 4240 C 409.601 3.3939 0.708182 0
M  V30 4241 C 408.662 4.29048 -0.147172 0
M  V30 4242 C 407.895 5.29354 0.679744 0
M  V30 4243 O 408.118 5.3723 1.91678 0
M  V30 4244 O 407.052 6.01835 0.0885444 0
M  V30 4245 H 410.878 2.88159 -0.959053 0
M  V30 4246 H 408.463 1.39543 -0.533685 0
M  V30 4247 H 410.345 4.03839 1.20384 0
M  V30 4248 H 409.02 2.8761 1.48533 0
M  V30 4249 H 407.927 3.67697 -0.689205 0
M  V30 4250 H 409.26 4.84134 -0.887423 0
M  V30 4251 N 410.912 0.523116 1.48665 0
M  V30 4252 C 412.328 0.180511 1.58576 0
M  V30 4253 C 412.528 -1.31597 1.52592 0
M  V30 4254 O 411.584 -2.0937 1.4114 0
M  V30 4255 C 412.897 0.776949 2.90489 0
M  V30 4256 C 414.445 0.745058 3.04003 0
M  V30 4257 C 414.92 1.31995 4.38567 0
M  V30 4258 N 416.411 1.28162 4.45117 0
M  V30 4259 C 417.146 1.6964 5.47731 0
M  V30 4260 N 416.642 2.18816 6.57337 0
M  V30 4261 N 418.435 1.6092 5.38573 0
M  V30 4262 H 410.586 1.4958 1.50797 0
M  V30 4263 H 412.849 0.621772 0.715614 0
M  V30 4264 H 412.555 1.82732 3.00503 0
M  V30 4265 H 412.429 0.25007 3.7637 0
M  V30 4266 H 414.816 -0.296532 2.93606 0
M  V30 4267 H 414.897 1.30933 2.1975 0
M  V30 4268 H 414.541 2.36043 4.49718 0
M  V30 4269 H 414.471 0.731418 5.21496 0
M  V30 4270 H 416.962 0.92155 3.66491 0
M  V30 4271 H 417.275 2.48478 7.31764 0
M  V30 4272 H 415.62 2.22805 6.58318 0
M  V30 4273 H 418.811 1.22304 4.5184 0
M  V30 4274 H 418.984 1.93567 6.18414 0
M  V30 4275 N 412.39 -1.55475 0.257931 0
M  V30 4276 C 413.636 -1.99502 -0.364266 0
M  V30 4277 C 413.969 -1.146 -1.56782 0
M  V30 4278 O 413.244 -0.211968 -1.93342 0
M  V30 4279 C 413.527 -3.51917 -0.763333 0
M  V30 4280 C 413.38 -4.4758 0.446371 0
M  V30 4281 C 414.699 -4.09742 -1.60623 0
M  V30 4282 H 411.818 -0.725277 -0.130929 0
M  V30 4283 H 414.46 -1.8653 0.361446 0
M  V30 4284 H 412.61 -3.63101 -1.38166 0
M  V30 4285 H 414.282 -4.48362 1.08487 0
M  V30 4286 H 412.525 -4.19947 1.08753 0
M  V30 4287 H 413.196 -5.51862 0.123645 0
M  V30 4288 H 415.672 -4.01727 -1.08418 0
M  V30 4289 H 414.548 -5.16631 -1.85429 0
M  V30 4290 H 414.809 -3.58889 -2.58169 0
M  V30 4291 N 413.868 0.0150385 -1.57593 0
M  V30 4292 C 414.815 1.01126 -2.07466 0
M  V30 4293 C 415.785 1.35064 -0.966794 0
M  V30 4294 O 416.97 1.4516 -1.23827 0
M  V30 4295 C 414.11 2.30276 -2.57035 0
M  V30 4296 C 413.223 2.02373 -3.81666 0
M  V30 4297 C 412.358 3.25496 -4.19793 0
M  V30 4298 C 411.397 2.93211 -5.37303 0
M  V30 4299 N 410.534 4.08826 -5.70794 0
M  V30 4300 H 415.374 0.57901 -2.92321 0
M  V30 4301 H 412.911 0.27426 -1.44521 0
M  V30 4302 H 414.869 3.05757 -2.83846 0
M  V30 4303 H 413.499 2.71197 -1.75077 0
M  V30 4304 H 412.551 1.17327 -3.61854 0
M  V30 4305 H 413.863 1.74567 -4.67256 0
M  V30 4306 H 413.017 4.09333 -4.47807 0
M  V30 4307 H 411.756 3.56428 -3.32882 0
M  V30 4308 H 410.761 2.07777 -5.09027 0
M  V30 4309 H 411.986 2.63542 -6.25877 0
M  V30 4310 H 409.932 4.39682 -4.86842 0
M  V30 4311 H 409.849 3.84491 -6.50924 0
M  V30 4312 H 411.117 4.93496 -6.03392 0
M  V30 4313 N 415.346 1.54954 0.287554 0
M  V30 4314 C 416.595 1.74081 1.01877 0
M  V30 4315 C 416.908 0.541135 1.87966 0
M  V30 4316 O 418.114 0.614491 2.64455 0
M  V30 4317 C 416.57 3.08042 1.86113 0
M  V30 4318 C 416.178 4.35531 1.04961 0
M  V30 4319 C 417.922 3.36523 2.58752 0
M  V30 4320 C 415.829 5.60538 1.88551 0
M  V30 4321 H 414.759 0.64884 0.384087 0
M  V30 4322 H 417.41 1.81426 0.275101 0
M  V30 4323 H 415.792 2.94696 2.64519 0
M  V30 4324 H 416.966 4.59751 0.31074 0
M  V30 4325 H 415.281 4.14085 0.43843 0
M  V30 4326 H 417.878 4.27122 3.21668 0
M  V30 4327 H 418.221 2.56 3.28283 0
M  V30 4328 H 418.754 3.50901 1.87386 0
M  V30 4329 H 415.493 6.43767 1.23466 0
M  V30 4330 H 415.013 5.40483 2.60074 0
M  V30 4331 H 416.692 5.98297 2.46273 0
M  V30 4332 N 416.824 -0.551391 1.4764 0
M  V30 4333 C 417.756 -1.67333 1.56628 0
M  V30 4334 C 418.769 -1.56398 0.452045 0
M  V30 4335 O 419.958 -1.6325 0.721926 0
M  V30 4336 C 417.058 -3.05841 1.45994 0
M  V30 4337 C 416.231 -3.42472 2.72088 0
M  V30 4338 C 415.29 -4.60168 2.55209 0
M  V30 4339 O 414.316 -4.64458 3.2904 0
M  V30 4340 N 415.518 -5.57024 1.63416 0
M  V30 4341 H 418.283 -1.60066 2.53375 0
M  V30 4342 H 415.844 -0.738169 1.44093 0
M  V30 4343 H 417.836 -3.8242 1.32428 0
M  V30 4344 H 416.406 -3.07302 0.573071 0
M  V30 4345 H 415.626 -2.55284 3.00373 0
M  V30 4346 H 416.914 -3.63723 3.55785 0
M  V30 4347 H 416.312 -5.56319 1.02594 0
M  V30 4348 H 414.869 -6.32906 1.558 0
M  V30 4349 N 418.302 -1.35869 -0.798587 0
M  V30 4350 C 419.212 -1.31578 -1.94228 0
M  V30 4351 C 420.228 -0.21939 -1.72611 0
M  V30 4352 O 421.404 -0.450167 -1.96305 0
M  V30 4353 C 418.469 -1.09528 -3.28944 0
M  V30 4354 C 417.53 -2.28556 -3.63402 0
M  V30 4355 C 416.763 -2.07549 -4.9169 0
M  V30 4356 O 416.986 -1.046 -5.60727 0
M  V30 4357 O 415.92 -2.95106 -5.24591 0
M  V30 4358 H 419.746 -2.27847 -2.00796 0
M  V30 4359 H 417.331 -1.16322 -0.937526 0
M  V30 4360 H 419.213 -0.991127 -4.09579 0
M  V30 4361 H 417.888 -0.16315 -3.23289 0
M  V30 4362 H 416.795 -2.44538 -2.83112 0
M  V30 4363 H 418.128 -3.20244 -3.73771 0
M  V30 4364 N 419.78 1.02168 -1.19998 0
M  V30 4365 C 420.727 2.10601 -0.944228 0
M  V30 4366 C 421.697 1.65639 0.123664 0
M  V30 4367 O 422.882 1.9079 -0.0199941 0
M  V30 4368 C 420.022 3.41504 -0.496865 0
M  V30 4369 C 419.135 3.99973 -1.63234 0
M  V30 4370 C 418.27 5.18915 -1.13579 0
M  V30 4371 C 417.309 5.69456 -2.24468 0
M  V30 4372 N 416.446 6.79665 -1.76068 0
M  V30 4373 H 421.286 2.31814 -1.8726 0
M  V30 4374 H 418.823 1.13686 -0.933483 0
M  V30 4375 H 420.781 4.16626 -0.218843 0
M  V30 4376 H 419.411 3.2038 0.394508 0
M  V30 4377 H 418.463 3.21997 -2.0254 0
M  V30 4378 H 419.775 4.33492 -2.46752 0
M  V30 4379 H 418.929 6.01222 -0.813429 0
M  V30 4380 H 417.668 4.8695 -0.270434 0
M  V30 4381 H 416.673 4.85757 -2.57526 0
M  V30 4382 H 417.898 6.03459 -3.11472 0
M  V30 4383 H 415.844 6.49538 -0.918516 0
M  V30 4384 H 415.761 7.12349 -2.5317 0
M  V30 4385 H 417.029 7.65549 -1.46817 0
M  V30 4386 N 421.258 1.00505 1.21394 0
M  V30 4387 C 422.505 0.687774 1.90462 0
M  V30 4388 C 422.833 -0.78147 1.7811 0
M  V30 4389 O 422.088 -1.58208 1.1519 0
M  V30 4390 C 422.387 1.0546 3.41486 0
M  V30 4391 C 422.053 2.51812 3.74034 0
M  V30 4392 C 420.715 2.91804 3.82628 0
M  V30 4393 C 423.067 3.46614 3.8924 0
M  V30 4394 C 420.395 4.2556 4.03876 0
M  V30 4395 C 422.747 4.80044 4.11995 0
M  V30 4396 C 421.411 5.19759 4.18816 0
M  V30 4397 H 420.681 0.251674 0.696951 0
M  V30 4398 H 423.328 1.26349 1.43903 0
M  V30 4399 H 421.633 0.397133 3.89782 0
M  V30 4400 H 423.33 0.786976 3.93202 0
M  V30 4401 H 419.92 2.1982 3.67936 0
M  V30 4402 H 424.104 3.16883 3.81967 0
M  V30 4403 H 419.36 4.55901 4.07387 0
M  V30 4404 H 423.534 5.53439 4.22704 0
M  V30 4405 H 421.161 6.23418 4.35033 0
M  V30 4406 N 422.737 -1.36956 0.779787 0
M  V30 4407 C 423.684 -2.30175 0.169697 0
M  V30 4408 C 424.654 -1.51501 -0.68094 0
M  V30 4409 O 425.839 -1.80042 -0.631629 0
M  V30 4410 C 422.979 -3.37985 -0.697131 0
M  V30 4411 C 422.092 -4.31661 0.170992 0
M  V30 4412 C 421.227 -5.2655 -0.701298 0
M  V30 4413 C 420.266 -6.11867 0.168869 0
M  V30 4414 N 419.403 -6.98973 -0.661855 0
M  V30 4415 H 424.243 -2.81767 0.970135 0
M  V30 4416 H 421.78 -1.38699 0.489994 0
M  V30 4417 H 423.738 -3.99128 -1.2146 0
M  V30 4418 H 422.368 -2.87739 -1.46309 0
M  V30 4419 H 421.42 -3.71756 0.80634 0
M  V30 4420 H 422.732 -4.91644 0.841875 0
M  V30 4421 H 421.886 -5.92937 -1.28494 0
M  V30 4422 H 420.625 -4.66998 -1.40584 0
M  V30 4423 H 419.63 -5.44452 0.764986 0
M  V30 4424 H 420.855 -6.73493 0.870863 0
M  V30 4425 H 418.801 -6.41941 -1.35086 0
M  V30 4426 H 418.718 -7.55984 -0.0484447 0
M  V30 4427 H 419.986 -7.6974 -1.22963 0
M  V30 4428 N 424.215 -0.530993 -1.48385 0
M  V30 4429 C 425.163 0.244595 -2.3131 0
M  V30 4430 C 426.157 0.93451 -1.41291 0
M  V30 4431 O 427.363 0.85878 -1.58193 0
M  V30 4432 H 423.738 0.0977472 -0.74562 0
M  V30 4433 H 425.709 -0.474369 -2.94605 0
M  V30 4434 C 424.458 1.2779 -3.23365 0
M  V30 4435 H 423.781 0.756439 -3.92579 0
M  V30 4436 H 425.221 1.79198 -3.84271 0
M  V30 4437 C 423.68 2.31205 -2.45042 0
M  V30 4438 O 424.21 3.37661 -2.17596 0
M  V30 4439 N 422.416 2.04446 -2.0652 0
M  V30 4440 H 421.963 1.17891 -2.2904 0
M  V30 4441 H 421.921 2.73861 -1.54427 0
M  V30 4442 N 425.693 1.55336 -0.266172 0
M  V30 4443 C 426.941 1.99003 0.35246 0
M  V30 4444 C 427.262 1.15591 1.57047 0
M  V30 4445 O 426.532 0.243268 1.94384 0
M  V30 4446 H 425.112 0.735025 0.133217 0
M  V30 4447 H 427.774 1.91367 -0.369434 0
M  V30 4448 H 426.87 3.05289 0.648453 0
M  V30 4449 N 427.171 -0.0066808 1.57599 0
M  V30 4450 C 428.104 -1.03397 2.03431 0
M  V30 4451 C 429.082 -1.33872 0.922877 0
M  V30 4452 O 430.266 -1.4615 1.19048 0
M  V30 4453 C 427.393 -2.36325 2.42628 0
M  V30 4454 C 426.439 -2.21557 3.64438 0
M  V30 4455 S 427.272 -1.54789 5.12641 0
M  V30 4456 C 428.428 -2.8916 5.55101 0
M  V30 4457 H 428.661 -0.643687 2.90248 0
M  V30 4458 H 426.194 -0.217349 1.52863 0
M  V30 4459 H 428.152 -3.12759 2.65879 0
M  V30 4460 H 426.813 -2.72495 1.56222 0
M  V30 4461 H 426.006 -3.1974 3.89592 0
M  V30 4462 H 425.608 -1.53267 3.41153 0
M  V30 4463 H 427.9 -3.8547 5.57153 0
M  V30 4464 H 428.843 -2.68713 6.55133 0
M  V30 4465 H 429.251 -2.92762 4.82649 0
M  V30 4466 N 428.649 -1.55105 -0.279332 0
M  V30 4467 C 429.579 -1.90557 -1.34945 0
M  V30 4468 C 430.56 -0.766738 -1.51839 0
M  V30 4469 O 431.745 -1.02434 -1.64988 0
M  V30 4470 C 428.875 -2.17193 -2.71006 0
M  V30 4471 C 427.829 -3.33021 -2.68851 0
M  V30 4472 C 427.155 -3.45123 -4.08405 0
M  V30 4473 C 428.455 -4.69578 -2.28678 0
M  V30 4474 H 430.149 -2.80188 -1.05522 0
M  V30 4475 H 427.695 -1.34811 -0.506173 0
M  V30 4476 H 429.648 -2.40581 -3.45975 0
M  V30 4477 H 428.372 -1.24355 -3.01999 0
M  V30 4478 H 427.031 -3.0959 -1.9634 0
M  V30 4479 H 426.679 -2.49762 -4.3661 0
M  V30 4480 H 426.379 -4.22995 -4.07859 0
M  V30 4481 H 427.903 -3.70796 -4.85121 0
M  V30 4482 H 429.317 -4.92553 -2.93368 0
M  V30 4483 H 427.714 -5.5032 -2.39306 0
M  V30 4484 H 428.784 -4.68828 -1.23807 0
M  V30 4485 N 430.127 0.543554 -1.4793 0
M  V30 4486 C 431.077 1.64527 -1.57844 0
M  V30 4487 C 432.061 1.54869 -0.436408 0
M  V30 4488 O 433.253 1.63119 -0.687101 0
M  V30 4489 C 430.382 3.03281 -1.6086 0
M  V30 4490 C 429.468 3.18093 -2.80495 0
M  V30 4491 N 429.859 3.02923 -4.05057 0
M  V30 4492 C 428.157 3.49121 -2.77543 0
M  V30 4493 C 428.858 3.20791 -4.85251 0
M  V30 4494 N 427.834 3.47749 -4.17818 0
M  V30 4495 H 431.636 1.51388 -2.5191 0
M  V30 4496 H 429.15 0.748671 -1.44113 0
M  V30 4497 H 431.147 3.82403 -1.66054 0
M  V30 4498 H 429.807 3.17521 -0.678996 0
M  V30 4499 H 430.818 2.79966 -4.35705 0
M  V30 4500 H 427.495 3.69804 -1.93781 0
M  V30 4501 H 428.885 3.13915 -5.9406 0
M  V30 4502 N 431.605 1.3629 0.791371 0
M  V30 4503 C 432.853 1.30154 1.5461 0
M  V30 4504 C 433.174 -0.119409 1.94634 0
M  V30 4505 O 432.444 -1.05924 1.64794 0
M  V30 4506 H 431.024 0.478784 0.573389 0
M  V30 4507 H 433.686 1.70565 0.94306 0
M  V30 4508 H 432.782 1.92762 2.45457 0
M  V30 4509 N 433.083 -1.0153 1.20538 0
M  V30 4510 C 434.36 -1.72327 0.925343 0
M  V30 4511 C 434.74 -2.03383 -0.565547 0
M  V30 4512 O 434.088 -1.69934 -1.52757 0
M  V30 4513 C 434.298 -2.9902 1.79967 0
M  V30 4514 C 435.646 -3.72258 2.04228 0
M  V30 4515 O 436.67 -3.08979 1.77231 0
M  V30 4516 O 435.529 -4.86053 2.4983 0
M  V30 4517 H 432.623 -0.751099 0.346092 0
M  V30 4518 H 435.169 -1.07366 1.31417 0
M  V30 4519 H 433.941 -2.72402 2.80915 0
M  V30 4520 H 433.564 -3.71721 1.41099 0
M  V30 4521 N 434.561 -1.01147 -1.20859 0
M  V30 4522 C 435.508 -0.577354 -2.23462 0
M  V30 4523 C 436.478 0.399922 -1.61214 0
M  V30 4524 O 437.663 0.300515 -1.88419 0
M  V30 4525 C 434.803 0.083372 -3.44999 0
M  V30 4526 C 433.916 -0.937856 -4.21697 0
M  V30 4527 C 433.051 -0.248717 -5.30617 0
M  V30 4528 C 432.09 -1.25705 -5.99053 0
M  V30 4529 N 431.227 -0.594939 -6.99575 0
M  V30 4530 H 436.067 -1.45695 -2.59956 0
M  V30 4531 H 433.604 -0.729428 -1.27741 0
M  V30 4532 H 435.562 0.483535 -4.14388 0
M  V30 4533 H 434.192 0.926645 -3.09214 0
M  V30 4534 H 433.244 -1.45622 -3.51423 0
M  V30 4535 H 434.556 -1.70493 -4.68757 0
M  V30 4536 H 433.71 0.207215 -6.06346 0
M  V30 4537 H 432.449 0.55071 -4.84581 0
M  V30 4538 H 431.454 -1.72343 -5.2209 0
M  V30 4539 H 432.679 -2.05767 -6.47176 0
M  V30 4540 H 430.625 0.184713 -6.5574 0
M  V30 4541 H 430.542 -1.30017 -7.44736 0
M  V30 4542 H 431.81 -0.162427 -7.79331 0
M  V30 4543 N 436.039 1.36541 -0.78704 0
M  V30 4544 C 437.285 1.99599 -0.358872 0
M  V30 4545 C 437.618 1.62323 1.06606 0
M  V30 4546 O 436.893 0.876858 1.73613 0
M  V30 4547 C 437.176 3.56327 -0.519944 0
M  V30 4548 C 437.029 4.03464 -1.98839 0
M  V30 4549 C 438.348 4.4005 0.0664737 0
M  V30 4550 H 435.467 0.725107 -0.131869 0
M  V30 4551 H 438.109 1.6199 -0.992936 0
M  V30 4552 H 436.259 3.88495 0.0198321 0
M  V30 4553 H 437.931 3.81793 -2.58905 0
M  V30 4554 H 436.174 3.55092 -2.49183 0
M  V30 4555 H 436.845 5.12439 -2.05207 0
M  V30 4556 H 439.321 4.14228 -0.394267 0
M  V30 4557 H 438.197 5.48847 -0.0762682 0
M  V30 4558 H 438.458 4.26655 1.15835 0
M  V30 4559 N 437.518 0.538854 1.48102 0
M  V30 4560 C 438.743 0.0102694 2.07397 0
M  V30 4561 C 439.168 -1.26562 1.39153 0
M  V30 4562 O 438.526 -1.75357 0.460387 0
M  V30 4563 C 438.574 -0.187602 3.60112 0
M  V30 4564 O 437.678 -1.25432 3.92862 0
M  V30 4565 H 437.019 0.0430975 0.6626 0
M  V30 4566 H 439.549 0.749301 1.90385 0
M  V30 4567 H 439.559 -0.407517 4.0596 0
M  V30 4568 H 438.234 0.744386 4.09184 0
M  V30 4569 H 436.811 -1.01636 3.58782 0
M  V30 4570 N 438.996 -1.55193 0.274407 0
M  V30 4571 C 440.243 -1.99581 -0.342579 0
M  V30 4572 C 440.571 -1.1628 -1.55914 0
M  V30 4573 O 439.826 -0.22029 -1.94456 0
M  V30 4574 C 440.125 -3.49019 -0.769458 0
M  V30 4575 C 439.791 -4.49598 0.342389 0
M  V30 4576 C 438.453 -4.76821 0.647686 0
M  V30 4577 C 440.805 -5.0964 1.09163 0
M  V30 4578 C 438.133 -5.61354 1.70581 0
M  V30 4579 C 440.485 -5.95323 2.13948 0
M  V30 4580 C 439.149 -6.20867 2.45113 0
M  V30 4581 H 438.419 -0.730319 -0.125358 0
M  V30 4582 H 441.066 -1.87529 0.387971 0
M  V30 4583 H 439.371 -3.58544 -1.57967 0
M  V30 4584 H 441.068 -3.8077 -1.25757 0
M  V30 4585 H 437.658 -4.28496 0.094318 0
M  V30 4586 H 441.842 -4.88632 0.869024 0
M  V30 4587 H 437.098 -5.79392 1.9523 0
M  V30 4588 H 441.272 -6.40881 2.72478 0
M  V30 4589 H 438.899 -6.86162 3.27239 0
M  V30 4590 N 440.474 -0.00167713 -1.576 0
M  V30 4591 C 441.721 0.68282 -1.90641 0
M  V30 4592 C 442.049 1.73686 -0.875415 0
M  V30 4593 O 441.304 1.95334 0.119575 0
M  V30 4594 C 441.603 1.36189 -3.30435 0
M  V30 4595 C 441.269 0.440887 -4.48739 0
M  V30 4596 C 439.931 0.187312 -4.80835 0
M  V30 4597 C 442.283 -0.193134 -5.20842 0
M  V30 4598 C 439.611 -0.70855 -5.82406 0
M  V30 4599 C 441.963 -1.07688 -6.23367 0
M  V30 4600 C 440.627 -1.33962 -6.53919 0
M  V30 4601 H 439.897 0.249862 -0.697603 0
M  V30 4602 H 442.544 -0.0575642 -1.91413 0
M  V30 4603 H 440.849 2.17636 -3.25794 0
M  V30 4604 H 442.546 1.89759 -3.5326 0
M  V30 4605 H 439.136 0.648694 -4.23663 0
M  V30 4606 H 443.32 -0.0102445 -4.96299 0
M  V30 4607 H 438.576 -0.920097 -6.04437 0
M  V30 4608 H 442.75 -1.57451 -6.78367 0
M  V30 4609 H 440.377 -2.03549 -7.32442 0
M  V30 4610 N 441.952 1.55251 0.271103 0
M  V30 4611 C 443.192 1.77698 1.01008 0
M  V30 4612 C 443.556 0.567246 1.83429 0
M  V30 4613 O 444.757 0.670013 2.60316 0
M  V30 4614 C 443.028 3.04715 1.86772 0
M  V30 4615 S 444.587 3.48289 2.66909 0
M  V30 4616 H 441.405 0.624343 0.340172 0
M  V30 4617 H 444.007 1.9348 0.280315 0
M  V30 4618 H 442.711 3.90853 1.25149 0
M  V30 4619 H 442.242 2.91604 2.64066 0
M  V30 4620 H 444.257 3.07712 3.89266 0
M  V30 4621 N 443.43 -0.535701 1.48216 0
M  V30 4622 C 444.377 -1.64083 1.62312 0
M  V30 4623 C 445.347 -1.59448 0.465365 0
M  V30 4624 O 446.532 -1.77959 0.688135 0
M  V30 4625 C 443.672 -3.0236 1.66349 0
M  V30 4626 C 442.785 -3.17273 2.93193 0
M  V30 4627 C 441.92 -4.46075 2.88427 0
M  V30 4628 C 440.959 -4.54496 4.1 0
M  V30 4629 N 440.096 -5.7468 4.03345 0
M  V30 4630 H 444.936 -1.51374 2.5669 0
M  V30 4631 H 442.473 -0.737059 1.27302 0
M  V30 4632 H 444.431 -3.82461 1.66672 0
M  V30 4633 H 443.061 -3.13854 0.754672 0
M  V30 4634 H 442.113 -2.30462 3.02641 0
M  V30 4635 H 443.425 -3.19357 3.83162 0
M  V30 4636 H 442.579 -5.3446 2.87119 0
M  V30 4637 H 441.318 -4.46504 1.96177 0
M  V30 4638 H 440.323 -3.64519 4.11589 0
M  V30 4639 H 441.548 -4.5581 5.03402 0
M  V30 4640 H 439.494 -5.76017 3.13912 0
M  V30 4641 H 439.411 -5.78234 4.87013 0
M  V30 4642 H 440.679 -6.65367 4.06087 0
M  V30 4643 N 444.908 -1.36708 -0.784132 0
M  V30 4644 C 445.856 -1.31533 -1.91838 0
M  V30 4645 C 446.85 -0.206205 -1.6814 0
M  V30 4646 O 448.056 -0.373519 -1.76082 0
M  V30 4647 H 444.431 -0.409613 -0.630651 0
M  V30 4648 H 446.402 -2.2731 -1.9332 0
M  V30 4649 C 445.151 -1.12679 -3.28936 0
M  V30 4650 H 444.474 -1.97274 -3.4774 0
M  V30 4651 H 445.914 -1.13106 -4.08636 0
M  V30 4652 C 444.373 0.168281 -3.36479 0
M  V30 4653 O 444.903 1.15625 -3.84699 0
M  V30 4654 N 443.109 0.214762 -2.89805 0
M  V30 4655 H 442.656 -0.589852 -2.50756 0
M  V30 4656 H 442.614 1.08094 -2.95234 0
M  V30 4657 N 446.386 1.0089 -1.21074 0
M  V30 4658 C 447.333 2.09588 -0.966512 0
M  V30 4659 C 448.303 1.65761 0.106089 0
M  V30 4660 O 449.488 1.90758 -0.0402287 0
M  V30 4661 C 446.628 3.40958 -0.533058 0
M  V30 4662 C 445.741 3.9822 -1.67467 0
M  V30 4663 C 444.876 5.17682 -1.19076 0
M  V30 4664 C 443.915 5.67043 -2.30496 0
M  V30 4665 N 443.052 6.77759 -1.83267 0
M  V30 4666 H 447.892 2.29815 -1.89708 0
M  V30 4667 H 445.429 1.12689 -0.945489 0
M  V30 4668 H 447.387 4.1637 -0.263019 0
M  V30 4669 H 446.017 3.20781 0.360505 0
M  V30 4670 H 445.069 3.1983 -2.05944 0
M  V30 4671 H 446.381 4.3085 -2.51336 0
M  V30 4672 H 445.535 6.00326 -0.877151 0
M  V30 4673 H 444.274 4.86635 -0.322066 0
M  V30 4674 H 443.279 4.82999 -2.62664 0
M  V30 4675 H 444.504 6.00121 -3.17855 0
M  V30 4676 H 442.45 6.48527 -0.987356 0
M  V30 4677 H 442.367 7.09624 -2.60711 0
M  V30 4678 H 443.635 7.63949 -1.54928 0
M  V30 4679 N 447.864 1.01787 1.20321 0
M  V30 4680 C 448.774 0.598898 2.26827 0
M  V30 4681 C 449.79 -0.36418 1.70146 0
M  V30 4682 O 450.966 -0.224812 2.00141 0
M  V30 4683 C 448.031 -0.0549769 3.46656 0
M  V30 4684 C 447.092 0.954205 4.18561 0
M  V30 4685 C 446.325 0.331439 5.3267 0
M  V30 4686 O 446.548 -0.86851 5.63749 0
M  V30 4687 O 445.482 1.0488 5.92692 0
M  V30 4688 H 449.308 1.48562 2.64883 0
M  V30 4689 H 446.893 0.787434 1.26964 0
M  V30 4690 H 448.775 -0.420102 4.19301 0
M  V30 4691 H 447.45 -0.915876 3.10473 0
M  V30 4692 H 446.357 1.37072 3.48083 0
M  V30 4693 H 447.69 1.78511 4.58688 0
M  V30 4694 N 449.342 -1.36122 0.79427 0
M  V30 4695 C 450.289 -2.29982 0.194101 0
M  V30 4696 C 451.259 -1.52214 -0.664833 0
M  V30 4697 O 452.444 -1.80702 -0.612498 0
M  V30 4698 C 449.584 -3.38706 -0.661244 0
M  V30 4699 C 448.697 -4.31456 0.216766 0
M  V30 4700 C 447.832 -5.27265 -0.645411 0
M  V30 4701 C 446.871 -6.11653 0.233756 0
M  V30 4702 N 446.008 -6.99636 -0.587682 0
M  V30 4703 H 450.848 -2.80722 0.999965 0
M  V30 4704 H 448.385 -1.38172 0.504677 0
M  V30 4705 H 450.343 -4.00394 -1.17219 0
M  V30 4706 H 448.973 -2.89274 -1.43249 0
M  V30 4707 H 448.025 -3.7088 0.845724 0
M  V30 4708 H 449.337 -4.90724 0.893973 0
M  V30 4709 H 448.491 -5.94266 -1.22198 0
M  V30 4710 H 447.23 -4.68463 -1.35623 0
M  V30 4711 H 446.235 -5.4361 0.82269 0
M  V30 4712 H 447.46 -6.72531 0.942247 0
M  V30 4713 H 445.406 -6.43337 -1.2827 0
M  V30 4714 H 445.323 -7.55993 0.0317402 0
M  V30 4715 H 446.591 -7.71001 -1.14792 0
M  V30 4716 N 450.82 -0.546701 -1.47814 0
M  V30 4717 C 451.767 0.206854 -2.29871 0
M  V30 4718 C 452.737 0.918235 -1.38411 0
M  V30 4719 O 453.922 0.915991 -1.67375 0
M  V30 4720 C 451.062 1.23746 -3.22151 0
M  V30 4721 C 450.175 0.533216 -4.28697 0
M  V30 4722 C 449.31 1.5482 -5.08138 0
M  V30 4723 C 448.349 0.828347 -6.06469 0
M  V30 4724 N 447.486 1.78966 -6.78908 0
M  V30 4725 H 452.326 -0.499037 -2.93792 0
M  V30 4726 H 449.863 -0.25793 -1.44821 0
M  V30 4727 H 451.821 1.84746 -3.74065 0
M  V30 4728 H 450.451 1.91151 -2.60117 0
M  V30 4729 H 449.503 -0.191089 -3.7992 0
M  V30 4730 H 450.815 -0.0311987 -4.9879 0
M  V30 4731 H 449.969 2.23202 -5.6415 0
M  V30 4732 H 448.708 2.14652 -4.37922 0
M  V30 4733 H 447.713 0.130539 -5.49645 0
M  V30 4734 H 448.938 0.235907 -6.7869 0
M  V30 4735 H 446.884 2.37675 -6.1143 0
M  V30 4736 H 446.801 1.27712 -7.45135 0
M  V30 4737 H 448.069 2.46496 -7.395 0
M  V30 4738 N 452.299 1.55045 -0.282633 0
M  V30 4739 C 453.539 2.01668 0.333088 0
M  V30 4740 C 453.903 1.1667 1.52486 0
M  V30 4741 O 455.104 1.52907 2.21072 0
M  V30 4742 C 453.375 3.50509 0.698442 0
M  V30 4743 S 454.934 4.19112 1.29963 0
M  V30 4744 H 451.752 0.703468 0.103219 0
M  V30 4745 H 454.354 1.91233 -0.406222 0
M  V30 4746 H 453.058 4.10015 -0.177693 0
M  V30 4747 H 452.589 3.64943 1.46902 0
M  V30 4748 H 454.604 4.23362 2.58803 0
M  V30 4749 N 453.777 0.010035 1.57597 0
M  V30 4750 C 455.002 -0.687021 1.95691 0
M  V30 4751 C 455.427 -1.65952 0.885519 0
M  V30 4752 O 454.785 -1.80633 -0.15543 0
M  V30 4753 C 454.833 -1.3864 3.32884 0
M  V30 4754 O 453.937 -2.50115 3.27897 0
M  V30 4755 H 453.278 -0.181989 0.638573 0
M  V30 4756 H 455.808 0.0662122 2.04493 0
M  V30 4757 H 455.818 -1.74754 3.6868 0
M  V30 4758 H 454.493 -0.673411 4.10412 0
M  V30 4759 H 453.07 -2.16253 3.03791 0
M  V30 4760 N 455.255 -1.55392 -0.262866 0
M  V30 4761 C 456.485 -1.80251 -1.00961 0
M  V30 4762 C 456.893 -0.58117 -1.80053 0
M  V30 4763 O 456.236 0.459427 -1.77862 0
M  V30 4764 C 456.298 -2.98207 -2.00781 0
M  V30 4765 C 455.962 -4.34856 -1.40533 0
M  V30 4766 C 456.959 -5.13459 -0.815853 0
M  V30 4767 C 454.644 -4.8153 -1.42948 0
M  V30 4768 C 456.638 -6.36875 -0.258562 0
M  V30 4769 C 454.325 -6.04899 -0.868334 0
M  V30 4770 C 455.323 -6.8241 -0.283884 0
M  V30 4771 O 455.011 -8.03451 0.268644 0
M  V30 4772 H 454.743 -0.604049 -0.303482 0
M  V30 4773 H 457.297 -2.03257 -0.295926 0
M  V30 4774 H 455.527 -2.70917 -2.75936 0
M  V30 4775 H 457.216 -3.10299 -2.61667 0
M  V30 4776 H 457.982 -4.78526 -0.789812 0
M  V30 4777 H 453.861 -4.21201 -1.87378 0
M  V30 4778 H 457.405 -6.97318 0.198257 0
M  V30 4779 H 453.302 -6.39312 -0.891649 0
M  V30 4780 H 454.07 -8.18346 0.158974 0
M  V30 4781 N 456.733 0.527833 -1.48498 0
M  V30 4782 C 457.961 1.30823 -1.6029 0
M  V30 4783 C 458.376 1.86945 -0.263974 0
M  V30 4784 O 457.733 1.6651 0.747034 0
M  V30 4785 C 457.784 2.45756 -2.65116 0
M  V30 4786 O 457.505 1.91946 -3.93813 0
M  V30 4787 C 459.006 3.37543 -2.87367 0
M  V30 4788 H 456.226 0.397763 -0.540394 0
M  V30 4789 H 458.77 0.636529 -1.94341 0
M  V30 4790 H 456.925 3.08806 -2.33917 0
M  V30 4791 H 457.339 2.67195 -4.51339 0
M  V30 4792 H 458.813 4.14532 -3.6451 0
M  V30 4793 H 459.29 3.92905 -1.9627 0
M  V30 4794 H 459.896 2.80283 -3.19878 0
M  V30 4795 N 458.211 1.37122 0.776871 0
M  V30 4796 C 459.121 1.34651 1.9211 0
M  V30 4797 C 460.137 0.246824 1.7224 0
M  V30 4798 O 461.313 0.48134 1.95563 0
M  V30 4799 C 458.378 1.14748 3.2716 0
M  V30 4800 C 457.439 2.34308 3.5972 0
M  V30 4801 C 456.672 2.15345 4.88326 0
M  V30 4802 O 456.895 1.13507 5.58992 0
M  V30 4803 O 455.829 3.03414 5.1983 0
M  V30 4804 H 459.655 2.31013 1.97146 0
M  V30 4805 H 457.24 1.17799 0.918901 0
M  V30 4806 H 459.122 1.05616 4.0795 0
M  V30 4807 H 457.797 0.214562 3.22988 0
M  V30 4808 H 456.704 2.49011 2.79185 0
M  V30 4809 H 458.037 3.26149 3.68629 0
M  V30 4810 N 459.689 -1.00246 1.21608 0
M  V30 4811 C 460.966 -1.71336 0.943568 0
M  V30 4812 C 461.346 -2.03972 -0.543943 0
M  V30 4813 O 460.694 -1.71545 -1.50946 0
M  V30 4814 C 460.904 -2.97094 1.83128 0
M  V30 4815 C 462.252 -3.70071 2.08165 0
M  V30 4816 O 463.276 -3.07081 1.80498 0
M  V30 4817 O 462.135 -4.83376 2.54971 0
M  V30 4818 H 459.229 -0.747386 0.354039 0
M  V30 4819 H 461.775 -1.05967 1.32549 0
M  V30 4820 H 460.547 -2.69407 2.83788 0
M  V30 4821 H 460.17 -3.70204 1.45034 0
M  V30 4822 N 461.167 -1.02423 -1.1978 0
M  V30 4823 C 462.13 -0.605703 -2.21052 0
M  V30 4824 C 463.13 0.328209 -1.57415 0
M  V30 4825 O 464.32 0.115853 -1.73814 0
M  V30 4826 C 461.452 0.114366 -3.40708 0
M  V30 4827 H 462.645 -1.5017 -2.59594 0
M  V30 4828 H 460.198 -0.814888 -1.33376 0
M  V30 4829 H 460.933 1.02492 -3.07678 0
M  V30 4830 H 460.718 -0.556641 -3.88129 0
M  V30 4831 H 462.208 0.394272 -4.15735 0
M  V30 4832 N 462.645 1.35699 -0.801477 0
M  V30 4833 C 463.577 2.28598 -0.166028 0
M  V30 4834 C 464.59 1.50044 0.631721 0
M  V30 4835 O 465.779 1.72339 0.464921 0
M  V30 4836 C 462.879 3.29625 0.787451 0
M  V30 4837 C 462.052 4.37384 0.037171 0
M  V30 4838 C 461.111 5.183 0.908375 0
M  V30 4839 O 460.137 5.68053 0.361189 0
M  V30 4840 N 461.339 5.35912 2.23112 0
M  V30 4841 H 464.104 2.83771 -0.964071 0
M  V30 4842 H 461.665 1.47994 -0.656469 0
M  V30 4843 H 463.657 3.80648 1.37439 0
M  V30 4844 H 462.227 2.75004 1.48632 0
M  V30 4845 H 461.447 3.87364 -0.730935 0
M  V30 4846 H 462.735 5.0653 -0.480109 0
M  V30 4847 H 462.133 4.97125 2.69968 0
M  V30 4848 H 460.69 5.90133 2.76741 0
M  V30 4849 N 464.123 0.554532 1.47522 0
M  V30 4850 C 465.363 0.0317994 2.04375 0
M  V30 4851 C 465.727 -1.29242 1.41988 0
M  V30 4852 O 466.928 -1.90269 1.89872 0
M  V30 4853 C 465.199 -0.0623344 3.57346 0
M  V30 4854 S 466.758 -0.531578 4.35568 0
M  V30 4855 H 463.576 0.0238553 0.7106 0
M  V30 4856 H 466.178 0.74066 1.80927 0
M  V30 4857 H 464.882 0.905857 4.00278 0
M  V30 4858 H 464.413 -0.794831 3.85287 0
M  V30 4859 H 466.428 -1.79175 4.62721 0
M  V30 4860 N 465.601 -1.54893 0.290851 0
M  V30 4861 C 466.85 -1.99111 -0.322113 0
M  V30 4862 C 467.163 -1.18283 -1.55784 0
M  V30 4863 O 468.369 -1.5272 -2.24475 0
M  V30 4864 C 466.825 -3.54442 -0.624438 0
M  V30 4865 C 466.433 -4.44066 0.592373 0
M  V30 4866 C 468.177 -4.07211 -1.19916 0
M  V30 4867 C 466.084 -5.90812 0.263762 0
M  V30 4868 H 465.014 -0.743712 -0.124133 0
M  V30 4869 H 467.665 -1.79132 0.39797 0
M  V30 4870 H 466.047 -3.70281 -1.40384 0
M  V30 4871 H 467.221 -4.39999 1.36886 0
M  V30 4872 H 465.536 -4.02015 1.08502 0
M  V30 4873 H 468.133 -5.14407 -1.45909 0
M  V30 4874 H 468.476 -3.57196 -2.13815 0
M  V30 4875 H 469.009 -3.94873 -0.481687 0
M  V30 4876 H 465.748 -6.44955 1.17105 0
M  V30 4877 H 465.268 -5.97911 -0.475655 0
M  V30 4878 H 466.947 -6.46852 -0.138354 0
M  V30 4879 N 467.08 -0.0183926 -1.57589 0
M  V30 4880 C 468.357 0.700621 -1.82622 0
M  V30 4881 C 468.737 1.90951 -0.90005 0
M  V30 4882 O 468.085 2.28452 0.0469145 0
M  V30 4883 C 468.295 1.08899 -3.31575 0
M  V30 4884 C 469.643 1.48514 -3.9778 0
M  V30 4885 O 470.667 1.18227 -3.36007 0
M  V30 4886 O 469.526 2.04903 -5.06633 0
M  V30 4887 H 466.62 0.342743 -0.752633 0
M  V30 4888 H 469.166 -0.0452548 -1.6964 0
M  V30 4889 H 467.938 0.228113 -3.90635 0
M  V30 4890 H 467.561 1.89338 -3.49624 0
M  V30 4891 N 468.558 1.5553 0.254621 0
M  V30 4892 C 469.806 1.7665 0.981793 0
M  V30 4893 C 470.127 0.580963 1.86145 0
M  V30 4894 O 469.397 -0.403537 1.91699 0
M  V30 4895 H 467.977 0.651475 0.365498 0
M  V30 4896 H 470.639 1.92958 0.274426 0
M  V30 4897 H 469.735 2.67486 1.60802 0
M  V30 4898 N 470.036 -0.519951 1.48776 0
M  V30 4899 C 471.264 -1.29971 1.60982 0
M  V30 4900 C 471.679 -1.86803 0.273885 0
M  V30 4901 O 471.036 -1.66904 -0.738193 0
M  V30 4902 C 471.087 -2.44346 2.66415 0
M  V30 4903 O 470.808 -1.89855 3.94825 0
M  V30 4904 C 472.309 -3.36014 2.89153 0
M  V30 4905 H 469.529 -0.394891 0.542496 0
M  V30 4906 H 472.073 -0.626214 1.94676 0
M  V30 4907 H 470.228 -3.07562 2.35552 0
M  V30 4908 H 470.642 -2.64798 4.5275 0
M  V30 4909 H 472.116 -4.12593 3.66703 0
M  V30 4910 H 472.593 -3.91859 1.98351 0
M  V30 4911 H 473.199 -2.78582 3.21359 0
M  V30 4912 N 471.514 -1.37532 -0.769588 0
M  V30 4913 C 472.763 -1.32183 -1.5235 0
M  V30 4914 C 473.076 0.0906555 -1.9539 0
M  V30 4915 O 474.282 0.266628 -2.70188 0
M  V30 4916 C 472.738 -2.32029 -2.75119 0
M  V30 4917 C 472.346 -3.78816 -2.3917 0
M  V30 4918 C 474.09 -2.35694 -3.53056 0
M  V30 4919 C 471.997 -4.70388 -3.58453 0
M  V30 4920 H 470.927 -0.491275 -0.571984 0
M  V30 4921 H 473.578 -1.63004 -0.842739 0
M  V30 4922 H 471.96 -1.94229 -3.45096 0
M  V30 4923 H 473.134 -4.25466 -1.76962 0
M  V30 4924 H 471.449 -3.78117 -1.74402 0
M  V30 4925 H 474.046 -3.01312 -4.41718 0
M  V30 4926 H 474.389 -1.37117 -3.93071 0
M  V30 4927 H 474.922 -2.72212 -2.90078 0
M  V30 4928 H 471.661 -5.70102 -3.23518 0
M  V30 4929 H 471.181 -4.28442 -4.19758 0
M  V30 4930 H 472.86 -4.87628 -4.25239 0
M  V30 4931 N 472.992 0.995999 -1.22138 0
M  V30 4932 C 473.902 2.11985 -1.00496 0
M  V30 4933 C 474.918 1.7394 0.0457701 0
M  V30 4934 O 476.094 2.00868 -0.146273 0
M  V30 4935 C 473.159 3.41779 -0.582086 0
M  V30 4936 C 472.22 3.93943 -1.70608 0
M  V30 4937 C 471.453 5.17542 -1.30328 0
M  V30 4938 O 471.676 5.70114 -0.180743 0
M  V30 4939 O 470.61 5.63382 -2.11861 0
M  V30 4940 H 474.436 2.33123 -1.94647 0
M  V30 4941 H 472.021 1.10358 -1.00705 0
M  V30 4942 H 473.903 4.1989 -0.356467 0
M  V30 4943 H 472.578 3.22007 0.330592 0
M  V30 4944 H 471.485 3.17019 -1.98619 0
M  V30 4945 H 472.818 4.18141 -2.59651 0
M  V30 4946 N 474.47 1.03057 1.19235 0
M  V30 4947 C 475.716 0.729098 1.89241 0
M  V30 4948 C 476.049 -0.740573 1.79525 0
M  V30 4949 O 475.324 -1.53946 1.18874 0
M  V30 4950 C 475.607 1.18304 3.40112 0
M  V30 4951 C 475.46 2.71406 3.5869 0
M  V30 4952 C 476.779 0.765161 4.33397 0
M  V30 4953 H 473.898 0.266338 0.687192 0
M  V30 4954 H 476.54 1.28079 1.40341 0
M  V30 4955 H 474.69 0.713672 3.81889 0
M  V30 4956 H 476.362 3.26303 3.26074 0
M  V30 4957 H 474.605 3.11717 3.01687 0
M  V30 4958 H 475.276 2.98225 4.64506 0
M  V30 4959 H 477.752 1.16889 3.99345 0
M  V30 4960 H 476.628 1.11065 5.37546 0
M  V30 4961 H 476.889 -0.332372 4.40849 0
M  V30 4962 N 475.948 -1.35272 0.808662 0
M  V30 4963 C 477.359 -1.81179 0.450688 0
M  V30 4964 C 477.71 -1.67143 -1.02751 0
M  V30 4965 O 476.835 -1.20325 -1.79864 0
M  V30 4966 C 477.43 -3.28943 0.811275 0
M  V30 4967 C 475.989 -3.72985 0.505871 0
M  V30 4968 C 475.136 -2.57229 1.03578 0
M  V30 4969 H 478.087 -1.2322 1.00012 0
M  V30 4970 H 478.108 -3.80342 0.109588 0
M  V30 4971 H 477.62 -3.39127 1.88718 0
M  V30 4972 H 475.721 -3.68349 -0.561209 0
M  V30 4973 H 475.834 -4.67677 1.03995 0
M  V30 4974 H 474.198 -2.50548 0.458005 0
M  V30 4975 H 474.981 -2.7019 2.11784 0
M  V30 4976 N 477.426 -0.562348 -1.47226 0
M  V30 4977 C 478.373 0.182461 -2.30078 0
M  V30 4978 C 479.343 0.903503 -1.39377 0
M  V30 4979 O 480.528 0.898188 -1.68337 0
M  V30 4980 C 477.668 1.20322 -3.23445 0
M  V30 4981 C 476.781 0.487717 -4.29238 0
M  V30 4982 C 475.916 1.49422 -5.09752 0
M  V30 4983 C 474.955 0.763976 -6.07314 0
M  V30 4984 N 474.092 1.71755 -6.80768 0
M  V30 4985 H 478.932 -0.530169 -2.93246 0
M  V30 4986 H 476.469 -0.273276 -1.44539 0
M  V30 4987 H 478.427 1.80768 -3.76004 0
M  V30 4988 H 477.057 1.88382 -2.6213 0
M  V30 4989 H 476.109 -0.231374 -3.79696 0
M  V30 4990 H 477.421 -0.0841003 -4.98729 0
M  V30 4991 H 476.575 2.17206 -5.66486 0
M  V30 4992 H 475.314 2.09995 -4.40174 0
M  V30 4993 H 474.319 0.0722344 -5.49753 0
M  V30 4994 H 475.544 0.16391 -6.78902 0
M  V30 4995 H 473.49 2.31177 -6.13916 0
M  V30 4996 H 473.407 1.19802 -7.46447 0
M  V30 4997 H 474.675 2.38638 -7.42073 0
M  V30 4998 N 478.904 1.54736 -0.299062 0
M  V30 4999 C 480.144 2.0201 0.31168 0
M  V30 5000 C 480.508 1.18281 1.5124 0
M  V30 5001 O 481.709 1.55243 2.19438 0
M  V30 5002 C 479.98 3.5123 0.661227 0
M  V30 5003 S 481.539 4.20467 1.2551 0
M  V30 5004 H 478.357 0.704523 0.0957517 0
M  V30 5005 H 480.959 1.90791 -0.426482 0
M  V30 5006 H 479.663 4.09804 -0.221171 0
M  V30 5007 H 479.194 3.66481 1.43023 0
M  V30 5008 H 481.209 4.26083 2.54298 0
M  V30 5009 N 480.382 0.0267497 1.57577 0
M  V30 5010 C 481.629 -0.652404 1.91703 0
M  V30 5011 C 481.957 -1.72271 0.902936 0
M  V30 5012 O 481.212 -1.955 -0.0884843 0
M  V30 5013 C 481.511 -1.30914 3.3256 0
M  V30 5014 C 481.177 -0.369441 4.49384 0
M  V30 5015 C 479.839 -0.110791 4.81072 0
M  V30 5016 C 482.191 0.275971 5.20469 0
M  V30 5017 C 479.519 0.801116 5.81205 0
M  V30 5018 C 481.871 1.17592 6.21575 0
M  V30 5019 C 480.535 1.44348 6.51705 0
M  V30 5020 H 479.805 -0.238732 0.70149 0
M  V30 5021 H 482.452 0.0880091 1.91298 0
M  V30 5022 H 480.757 -2.12425 3.29216 0
M  V30 5023 H 482.454 -1.84115 3.56234 0
M  V30 5024 H 479.044 -0.581211 4.24641 0
M  V30 5025 H 483.228 0.0892 4.9622 0
M  V30 5026 H 478.484 1.01614 6.02897 0
M  V30 5027 H 482.658 1.68223 6.75777 0
M  V30 5028 H 480.285 2.15176 7.29111 0
M  V30 5029 N 481.861 -1.55662 -0.24637 0
M  V30 5030 C 482.808 -1.90361 -1.30504 0
M  V30 5031 C 483.778 -0.757905 -1.47801 0
M  V30 5032 O 484.963 -1.01161 -1.61775 0
M  V30 5033 C 482.103 -2.2042 -2.65535 0
M  V30 5034 C 481.216 -3.47799 -2.56242 0
M  V30 5035 C 480.351 -3.67426 -3.8363 0
M  V30 5036 C 479.39 -4.88403 -3.68956 0
M  V30 5037 N 478.527 -5.04548 -4.88237 0
M  V30 5038 H 483.367 -2.80645 -1.00213 0
M  V30 5039 H 480.904 -1.38924 -0.483577 0
M  V30 5040 H 482.862 -2.35853 -3.44135 0
M  V30 5041 H 481.492 -1.3334 -2.93973 0
M  V30 5042 H 480.544 -3.40694 -1.69208 0
M  V30 5043 H 481.856 -4.36544 -2.4131 0
M  V30 5044 H 481.01 -3.82821 -4.70673 0
M  V30 5045 H 479.749 -2.76914 -4.01459 0
M  V30 5046 H 478.754 -4.72984 -2.80296 0
M  V30 5047 H 479.979 -5.80375 -3.52621 0
M  V30 5048 H 477.925 -4.16974 -5.06427 0
M  V30 5049 H 477.842 -5.87384 -4.75937 0
M  V30 5050 H 479.11 -5.24355 -5.76777 0
M  V30 5051 N 483.339 0.512053 -1.4905 0
M  V30 5052 C 484.249 1.64139 -1.67617 0
M  V30 5053 C 485.265 1.64786 -0.558701 0
M  V30 5054 O 486.441 1.8341 -0.832034 0
M  V30 5055 C 483.506 3.00548 -1.72835 0
M  V30 5056 C 482.567 3.10615 -2.96339 0
M  V30 5057 C 481.8 4.40517 -3.01298 0
M  V30 5058 O 482.023 5.28671 -2.14157 0
M  V30 5059 O 480.957 4.55325 -3.93653 0
M  V30 5060 H 484.783 1.51407 -2.63267 0
M  V30 5061 H 482.368 0.687131 -1.32661 0
M  V30 5062 H 484.25 3.81641 -1.78683 0
M  V30 5063 H 482.925 3.13566 -0.803616 0
M  V30 5064 H 481.832 2.2875 -2.96014 0
M  V30 5065 H 483.165 3.0252 -3.88256 0
M  V30 5066 N 484.817 1.37938 0.762283 0
M  V30 5067 C 485.767 1.30976 1.86626 0
M  V30 5068 C 486.751 0.195714 1.59705 0
M  V30 5069 O 487.943 0.430937 1.71674 0
M  V30 5070 C 485.072 1.12847 3.24223 0
M  V30 5071 C 484.158 2.28836 3.57064 0
M  V30 5072 N 484.549 3.54256 3.61022 0
M  V30 5073 C 482.847 2.21198 3.87282 0
M  V30 5074 C 483.548 4.30798 3.90881 0
M  V30 5075 N 482.524 3.60049 4.07266 0
M  V30 5076 H 486.326 2.25946 1.87951 0
M  V30 5077 H 483.84 1.31046 0.959206 0
M  V30 5078 H 485.837 1.05943 4.03214 0
M  V30 5079 H 484.497 0.188024 3.24155 0
M  V30 5080 H 485.508 3.8804 3.42995 0
M  V30 5081 H 482.185 1.35264 3.94981 0
M  V30 5082 H 483.575 5.39386 4.00639 0
M  V30 5083 N 486.295 -0.989507 1.22664 0
M  V30 5084 C 487.52 -1.77031 1.08051 0
M  V30 5085 C 487.945 -1.84535 -0.364483 0
M  V30 5086 O 487.303 -1.3003 -1.2634 0
M  V30 5087 C 487.351 -3.18 1.70024 0
M  V30 5088 O 486.455 -4.01161 0.956216 0
M  V30 5089 H 485.796 -0.545008 0.379292 0
M  V30 5090 H 488.326 -1.24277 1.62531 0
M  V30 5091 H 488.336 -3.68616 1.74888 0
M  V30 5092 H 487.011 -3.11853 2.75174 0
M  V30 5093 H 485.588 -3.59687 0.98384 0
M  V30 5094 N 487.773 -1.03688 -1.18687 0
M  V30 5095 C 488.998 -0.757819 -1.93059 0
M  V30 5096 C 489.423 0.678353 -1.75442 0
M  V30 5097 O 488.781 1.46938 -1.06203 0
M  V30 5098 C 488.829 -1.12423 -3.42627 0
M  V30 5099 O 487.933 -0.247505 -4.11657 0
M  V30 5100 H 487.274 -0.279245 -0.602427 0
M  V30 5101 H 489.804 -1.3857 -1.5053 0
M  V30 5102 H 489.814 -1.08454 -3.93322 0
M  V30 5103 H 488.489 -2.17049 -3.54771 0
M  V30 5104 H 487.066 -0.34649 -3.71287 0
M  V30 5105 N 489.251 1.34841 -0.815825 0
M  V30 5106 C 490.181 2.32187 -0.247298 0
M  V30 5107 C 491.162 1.5791 0.632344 0
M  V30 5108 O 492.347 1.8593 0.560698 0
M  V30 5109 C 489.477 3.42122 0.597466 0
M  V30 5110 C 488.431 4.27602 -0.184446 0
M  V30 5111 C 487.757 5.28942 0.782609 0
M  V30 5112 C 489.057 5.03502 -1.38865 0
M  V30 5113 H 490.751 2.79985 -1.06061 0
M  V30 5114 H 488.297 1.34611 -0.511461 0
M  V30 5115 H 490.25 4.09232 1.00533 0
M  V30 5116 H 488.974 2.92956 1.44376 0
M  V30 5117 H 487.633 3.62085 -0.573592 0
M  V30 5118 H 487.281 4.7604 1.62466 0
M  V30 5119 H 486.981 5.87008 0.263695 0
M  V30 5120 H 488.505 5.98922 1.18848 0
M  V30 5121 H 489.919 5.63506 -1.05518 0
M  V30 5122 H 488.316 5.71108 -1.8427 0
M  V30 5123 H 489.386 4.33608 -2.17054 0
M  V30 5124 N 490.729 0.570148 1.46925 0
M  V30 5125 C 491.692 -0.159933 2.28641 0
M  V30 5126 C 492.692 -0.830638 1.37685 0
M  V30 5127 O 493.882 -0.684516 1.60187 0
M  V30 5128 C 491.014 -1.2354 3.17727 0
M  V30 5129 H 492.207 0.558035 2.94662 0
M  V30 5130 H 489.76 0.327603 1.52828 0
M  V30 5131 H 490.495 -1.98535 2.56426 0
M  V30 5132 H 490.28 -0.759125 3.84681 0
M  V30 5133 H 491.77 -1.74782 3.79264 0
M  V30 5134 N 492.207 -1.54576 0.307264 0
M  V30 5135 C 493.454 -2.00263 -0.300167 0
M  V30 5136 C 493.782 -1.19561 -1.53413 0
M  V30 5137 O 493.037 -0.261487 -1.93945 0
M  V30 5138 C 493.336 -3.50572 -0.695253 0
M  V30 5139 C 493.002 -4.48771 0.437679 0
M  V30 5140 C 491.664 -4.7534 0.748681 0
M  V30 5141 C 494.016 -5.0721 1.19949 0
M  V30 5142 C 491.344 -5.5761 1.8245 0
M  V30 5143 C 493.696 -5.90651 2.26527 0
M  V30 5144 C 492.36 -6.15528 2.58227 0
M  V30 5145 H 491.63 -0.732814 -0.109839 0
M  V30 5146 H 494.277 -1.86664 0.427661 0
M  V30 5147 H 492.582 -3.61814 -1.50326 0
M  V30 5148 H 494.279 -3.83352 -1.17653 0
M  V30 5149 H 490.869 -4.282 0.185187 0
M  V30 5150 H 495.053 -4.86679 0.972474 0
M  V30 5151 H 490.309 -5.75121 2.07476 0
M  V30 5152 H 494.483 -6.34957 2.86011 0
M  V30 5153 H 492.11 -6.79066 3.4172 0
M  V30 5154 N 493.685 -0.035106 -1.57561 0
M  V30 5155 C 494.931 0.637362 -1.93156 0
M  V30 5156 C 495.286 1.69391 -0.912392 0
M  V30 5157 O 494.579 1.91469 0.070735 0
M  V30 5158 C 494.773 1.29149 -3.3325 0
M  V30 5159 C 494.602 0.29983 -4.48699 0
M  V30 5160 C 493.372 -0.102454 -5.05196 0
M  V30 5161 C 495.57 -0.448297 -5.12342 0
M  V30 5162 N 493.552 -1.08866 -6.0417 0
M  V30 5163 C 494.923 -1.28807 -6.06472 0
M  V30 5164 C 496.978 -0.508351 -4.95298 0
M  V30 5165 C 495.681 -2.18248 -6.85391 0
M  V30 5166 C 497.707 -1.39013 -5.7483 0
M  V30 5167 C 497.069 -2.21766 -6.6858 0
M  V30 5168 H 493.168 0.205358 -0.754554 0
M  V30 5169 H 495.752 -0.103682 -1.94424 0
M  V30 5170 H 493.923 2.00264 -3.3279 0
M  V30 5171 H 495.655 1.92147 -3.56177 0
M  V30 5172 H 492.41 0.273223 -4.72811 0
M  V30 5173 H 492.834 -1.57817 -6.58348 0
M  V30 5174 H 497.476 0.117197 -4.22638 0
M  V30 5175 H 495.194 -2.81855 -7.57353 0
M  V30 5176 H 498.78 -1.44096 -5.63673 0
M  V30 5177 H 497.66 -2.88892 -7.29048 0
M  V30 5178 N 495.163 1.55791 0.238111 0
M  V30 5179 C 496.11 1.9105 1.29493 0
M  V30 5180 C 497.08 0.765733 1.47397 0
M  V30 5181 O 498.265 1.02017 1.61236 0
M  V30 5182 C 495.405 2.21826 2.64362 0
M  V30 5183 C 494.518 3.49153 2.54394 0
M  V30 5184 C 493.653 3.69455 3.81676 0
M  V30 5185 C 492.692 4.90353 3.66361 0
M  V30 5186 N 491.829 5.07131 4.85554 0
M  V30 5187 H 496.669 2.81172 0.987233 0
M  V30 5188 H 494.206 1.39179 0.476203 0
M  V30 5189 H 496.164 2.37675 3.4288 0
M  V30 5190 H 494.794 1.34897 2.93262 0
M  V30 5191 H 493.846 3.41587 1.67399 0
M  V30 5192 H 495.158 4.37818 2.38991 0
M  V30 5193 H 494.312 3.85311 4.68636 0
M  V30 5194 H 493.051 2.7904 3.99985 0
M  V30 5195 H 492.056 4.74464 2.77784 0
M  V30 5196 H 493.281 5.82237 3.49538 0
M  V30 5197 H 491.227 4.19654 5.04209 0
M  V30 5198 H 491.144 5.89899 4.72816 0
M  V30 5199 H 492.412 5.27407 5.73988 0
M  V30 5200 N 496.642 -0.504142 1.49319 0
M  V30 5201 C 497.87 -1.28256 1.62351 0
M  V30 5202 C 498.285 -1.86502 0.293682 0
M  V30 5203 O 497.642 -1.67678 -0.720449 0
M  V30 5204 C 497.693 -2.41507 2.68992 0
M  V30 5205 O 497.414 -1.85656 3.96817 0
M  V30 5206 C 498.915 -3.32929 2.927 0
M  V30 5207 H 496.135 -0.389115 0.546654 0
M  V30 5208 H 498.679 -0.605531 1.95329 0
M  V30 5209 H 496.834 -3.05046 2.38801 0
M  V30 5210 H 497.248 -2.59981 4.55533 0
M  V30 5211 H 498.722 -4.0868 3.71058 0
M  V30 5212 H 499.199 -3.89733 2.02496 0
M  V30 5213 H 499.805 -2.75158 3.24296 0
M  V30 5214 N 498.12 -1.38341 -0.754957 0
M  V30 5215 C 499.397 -1.24995 -1.50451 0
M  V30 5216 C 499.777 0.149244 -2.10572 0
M  V30 5217 O 499.125 1.15861 -1.96948 0
M  V30 5218 C 499.335 -2.35904 -2.57197 0
M  V30 5219 C 500.683 -2.74262 -3.24138 0
M  V30 5220 O 501.707 -2.35205 -2.67501 0
M  V30 5221 O 500.566 -3.4161 -4.26574 0
M  V30 5222 H 497.66 -0.48872 -0.667144 0
M  V30 5223 H 500.206 -1.50165 -0.790486 0
M  V30 5224 H 498.978 -3.2953 -2.11011 0
M  V30 5225 H 498.601 -2.12291 -3.36182 0
M  V30 5226 N 499.598 0.982988 -1.23187 0
M  V30 5227 C 500.561 2.05649 -1.01198 0
M  V30 5228 C 501.561 1.6078 0.0252464 0
M  V30 5229 O 502.751 1.72878 -0.214243 0
M  V30 5230 C 499.883 3.36744 -0.530656 0
M  V30 5231 H 501.076 2.2659 -1.96461 0
M  V30 5232 H 498.629 1.15602 -1.05195 0
M  V30 5233 H 499.364 3.21492 0.425873 0
M  V30 5234 H 499.149 3.7065 -1.2791 0
M  V30 5235 H 500.639 4.15705 -0.397366 0
M  V30 5236 N 501.076 1.04316 1.18135 0
M  V30 5237 C 502.301 0.768047 1.92655 0
M  V30 5238 C 502.726 -0.66904 1.758 0
M  V30 5239 O 502.084 -1.46372 1.06981 0
M  V30 5240 C 502.132 1.14239 3.42026 0
M  V30 5241 O 501.236 0.269333 4.1152 0
M  V30 5242 H 500.577 0.282436 0.600937 0
M  V30 5243 H 503.107 1.39367 1.49793 0
M  V30 5244 H 503.117 1.10538 3.92741 0
M  V30 5245 H 501.792 2.18928 3.53615 0
M  V30 5246 H 500.369 0.366175 3.71098 0
M  V30 5247 N 502.554 -1.34406 0.822964 0
M  V30 5248 C 503.831 -1.92733 0.333641 0
M  V30 5249 C 504.211 -1.75107 -1.17901 0
M  V30 5250 O 503.559 -1.12983 -1.98613 0
M  V30 5251 C 503.769 -3.40557 0.763023 0
M  V30 5252 C 505.117 -4.17709 0.761879 0
M  V30 5253 O 506.141 -3.49141 0.705606 0
M  V30 5254 O 505 -5.40082 0.835109 0
M  V30 5255 H 502.094 -0.821964 0.0911249 0
M  V30 5256 H 504.64 -1.4338 0.907757 0
M  V30 5257 H 503.412 -3.47187 1.8049 0
M  V30 5258 H 503.035 -3.97259 0.164605 0
M  V30 5259 N 504.032 -0.577932 -1.46621 0
M  V30 5260 C 505.278 -0.0617793 -2.02706 0
M  V30 5261 C 505.611 1.29294 -1.44903 0
M  V30 5262 O 504.886 1.8461 -0.61232 0
M  V30 5263 C 505.169 0.00911824 -3.60099 0
M  V30 5264 C 505.022 -1.37416 -4.28295 0
M  V30 5265 C 506.341 0.712159 -4.343 0
M  V30 5266 H 503.46 -0.0239246 -0.736612 0
M  V30 5267 H 506.102 -0.744211 -1.74818 0
M  V30 5268 H 504.252 0.590292 -3.83989 0
M  V30 5269 H 505.924 -2.00013 -4.15683 0
M  V30 5270 H 504.167 -1.94319 -3.87843 0
M  V30 5271 H 504.838 -1.27707 -5.37024 0
M  V30 5272 H 507.314 0.218486 -4.15526 0
M  V30 5273 H 506.19 0.730782 -5.44014 0
M  V30 5274 H 506.451 1.77251 -4.05012 0
M  V30 5275 N 505.51 1.54411 -0.315457 0
M  V30 5276 C 506.457 2.24048 0.554166 0
M  V30 5277 C 507.427 1.2283 1.11812 0
M  V30 5278 O 508.612 1.51491 1.15997 0
M  V30 5279 C 505.752 2.99574 1.71316 0
M  V30 5280 C 504.865 4.15594 1.17922 0
M  V30 5281 C 504 4.78669 2.30324 0
M  V30 5282 C 503.039 5.86807 1.74137 0
M  V30 5283 N 502.176 6.43777 2.8017 0
M  V30 5284 H 507.016 2.97964 -0.0462602 0
M  V30 5285 H 504.553 1.47059 -0.0346009 0
M  V30 5286 H 506.511 3.41604 2.39505 0
M  V30 5287 H 505.141 2.28008 2.285 0
M  V30 5288 H 504.193 3.78404 0.389136 0
M  V30 5289 H 505.505 4.93459 0.728012 0
M  V30 5290 H 504.659 5.23626 3.06433 0
M  V30 5291 H 503.398 4.00168 2.78778 0
M  V30 5292 H 502.403 5.41261 0.965236 0
M  V30 5293 H 503.628 6.67201 1.2657 0
M  V30 5294 H 501.574 5.68153 3.2793 0
M  V30 5295 H 501.491 7.17031 2.39588 0
M  V30 5296 H 502.759 6.9339 3.56132 0
M  V30 5297 N 506.988 0.0434614 1.5754 0
M  V30 5298 C 508.399 -0.493343 1.80064 0
M  V30 5299 C 508.75 -1.71388 0.955023 0
M  V30 5300 O 507.875 -2.15736 0.169434 0
M  V30 5301 C 508.47 -0.90179 3.26578 0
M  V30 5302 C 507.029 -1.38362 3.50047 0
M  V30 5303 C 506.176 -0.355129 2.75017 0
M  V30 5304 H 509.127 0.2694 1.56397 0
M  V30 5305 H 509.148 -1.76523 3.37075 0
M  V30 5306 H 508.66 -0.013271 3.88098 0
M  V30 5307 H 506.761 -2.29159 2.93798 0
M  V30 5308 H 506.874 -1.3811 4.58762 0
M  V30 5309 H 505.238 -0.826348 2.40922 0
M  V30 5310 H 506.021 0.525172 3.39259 0
M  V30 5311 N 508.466 -1.55915 -0.229846 0
M  V30 5312 C 509.706 -1.80314 -0.962614 0
M  V30 5313 C 510.07 -0.61568 -1.81861 0
M  V30 5314 O 511.271 -0.738795 -2.58448 0
M  V30 5315 C 509.542 -3.0956 -1.78627 0
M  V30 5316 S 511.101 -3.55243 -2.57581 0
M  V30 5317 H 507.919 -0.633142 -0.323499 0
M  V30 5318 H 510.521 -1.94155 -0.228919 0
M  V30 5319 H 509.225 -3.94033 -1.14742 0
M  V30 5320 H 508.756 -2.98503 -2.56241 0
M  V30 5321 H 510.771 -3.17924 -3.80971 0
M  V30 5322 O 509.983 0.375361 -1.57077 0
M  V30 5323 H 510.674 1.02655 -1.64261 0
M  V30 END ATOM
M  V30 BEGIN BOND
M  V30 END BOND
M  V30 END CTAB
M  END
$$$$
