drugbank_target|P29474 Nitric oxide synthase, endothelial (DB00125; DB00155; DB00360; DB01110; DB01686; DB01821; DB01833; DB01997; DB02027; DB02044; DB02048; DB02077; DB02141; DB02207; DB02234; DB02335; DB02589; DB02911; DB02979; DB02994; DB03065; DB03100; DB03144; DB03305; DB03332; DB03707; DB03910; DB03918; DB03963; DB03974; DB04018; DB04223; DB04534; DB04559; DB07001; DB07244; DB07388; DB08018; DB08019; DB09237)
 OpenBabel12092119283D

  0  0  0     0  0            999 V3000
M  V30 BEGIN CTAB
M  V30 COUNTS 18657 18907 0 0 0
M  V30 BEGIN ATOM
M  V30 1 H -0.908 1.98254 -0.117106 0
M  V30 2 N 0 1.576 0 0
M  V30 3 C 0.933 2.03868 1.02534 0
M  V30 4 C 1.911 0.928543 1.3348 0
M  V30 5 O 3.095 1.19667 1.45644 0
M  V30 6 C 0.222 2.43627 2.35294 0
M  V30 7 C -0.732 3.65373 2.2001 0
M  V30 8 S 0.101 5.13292 1.52614 0
M  V30 9 C 1.257 5.56322 2.86805 0
M  V30 10 H 1.49 2.90518 0.631377 0
M  V30 11 H -0.977 1.52953 0.210867 0
M  V30 12 H 0.981 2.67203 3.11629 0
M  V30 13 H -0.358 1.57376 2.7183 0
M  V30 14 H -1.165 3.90944 3.18086 0
M  V30 15 H -1.563 3.418 1.51819 0
M  V30 16 H 0.729 5.58782 3.83104 0
M  V30 17 H 1.672 6.56266 2.65933 0
M  V30 18 H 2.08 4.83886 2.90714 0
M  V30 19 N 1.4781 -0.272755 1.55222 0
M  V30 20 C 2.7261 -1.00234 1.75492 0
M  V30 21 C 3.0471 -1.8681 0.5592 0
M  V30 22 O 2.3171 -1.91215 -0.425882 0
M  V30 23 H 0.8971 -0.373076 0.647166 0
M  V30 24 H 3.5591 -0.296926 1.92625 0
M  V30 25 H 2.6551 -1.63913 2.65592 0
M  V30 26 N 2.9562 -1.48159 -0.537278 0
M  V30 27 C 3.9042 -1.62573 -1.66352 0
M  V30 28 C 4.8982 -0.492366 -1.62087 0
M  V30 29 O 6.1042 -0.670847 -1.67032 0
M  V30 30 H 2.4792 -0.511992 -0.550789 0
M  V30 31 H 4.4502 -2.57176 -1.51337 0
M  V30 32 C 3.1992 -1.67583 -3.04649 0
M  V30 33 H 2.5222 -2.54151 -3.08622 0
M  V30 34 H 3.9622 -1.81713 -3.83088 0
M  V30 35 C 2.4212 -0.413039 -3.34358 0
M  V30 36 O 2.9512 0.477259 -3.98855 0
M  V30 37 N 1.1572 -0.286961 -2.8918 0
M  V30 38 H 0.7042 -1.01241 -2.36871 0
M  V30 39 H 0.6622 0.556963 -3.09427 0
M  V30 40 N 4.4343 0.785586 -1.36625 0
M  V30 41 C 5.3643 1.91259 -1.33949 0
M  V30 42 C 6.3453 1.68795 -0.210325 0
M  V30 43 O 7.5303 1.89854 -0.408561 0
M  V30 44 C 4.6603 3.28339 -1.13186 0
M  V30 45 C 3.6143 3.65335 -2.22967 0
M  V30 46 C 2.9403 5.00806 -1.87342 0
M  V30 47 C 4.2403 3.7352 -3.65075 0
M  V30 48 H 5.9343 1.93755 -2.28253 0
M  V30 49 H 3.4803 0.930788 -1.09874 0
M  V30 50 H 5.4333 4.06804 -1.09948 0
M  V30 51 H 4.1573 3.2624 -0.153332 0
M  V30 52 H 2.8163 2.89169 -2.25337 0
M  V30 53 H 2.4643 4.95233 -0.880545 0
M  V30 54 H 2.1643 5.26529 -2.60846 0
M  V30 55 H 3.6883 5.81687 -1.85667 0
M  V30 56 H 5.1023 4.42168 -3.64911 0
M  V30 57 H 3.4993 4.10731 -4.37516 0
M  V30 58 H 4.5693 2.74527 -3.99703 0
M  V30 59 N 5.9124 1.20967 1.01018 0
M  V30 60 C 6.8594 0.964281 2.09691 0
M  V30 61 C 7.8294 -0.107853 1.65749 0
M  V30 62 O 9.0144 0.0381987 1.90762 0
M  V30 63 C 6.1544 0.52943 3.41015 0
M  V30 64 C 5.2674 1.67043 3.98398 0
M  V30 65 C 4.4024 1.18525 5.17808 0
M  V30 66 C 3.4414 2.29892 5.67288 0
M  V30 67 N 2.5784 1.82546 6.77954 0
M  V30 68 H 7.4184 1.89463 2.30017 0
M  V30 69 H 4.9554 0.944289 1.1279 0
M  V30 70 H 6.9134 0.258588 4.16398 0
M  V30 71 H 5.5434 -0.363919 3.20742 0
M  V30 72 H 4.5954 2.05603 3.20049 0
M  V30 73 H 5.9074 2.50877 4.31117 0
M  V30 74 H 5.0614 0.870762 6.00419 0
M  V30 75 H 3.8004 0.316887 4.86669 0
M  V30 76 H 2.8054 2.6215 4.83278 0
M  V30 77 H 4.0304 3.17216 6.00459 0
M  V30 78 H 1.9764 0.980454 6.48632 0
M  V30 79 H 1.8934 2.59956 7.09901 0
M  V30 80 H 3.1614 1.54115 7.64113 0
M  V30 81 N 7.3905 -1.2043 1.01659 0
M  V30 82 C 8.6155 -1.94318 0.724942 0
M  V30 83 C 9.0405 -1.74266 -0.708034 0
M  V30 84 O 8.3985 -1.03694 -1.48719 0
M  V30 85 C 8.4465 -3.44486 1.06591 0
M  V30 86 O 7.5505 -4.12017 0.177599 0
M  V30 87 H 6.8915 -0.60708 0.26898 0
M  V30 88 H 9.4215 -1.52861 1.35995 0
M  V30 89 H 9.4315 -3.95106 1.01762 0
M  V30 90 H 8.1065 -3.58404 2.10997 0
M  V30 91 H 6.6835 -3.71821 0.283421 0
M  V30 92 N 8.8686 -0.792821 -1.36206 0
M  V30 93 C 10.1146 -0.36733 -1.99446 0
M  V30 94 C 10.4476 1.05917 -1.62774 0
M  V30 95 O 9.7226 1.7324 -0.88421 0
M  V30 96 C 10.0056 -0.535044 -3.56103 0
M  V30 97 C 9.8586 -2.00548 -4.02617 0
M  V30 98 C 11.1776 0.0478191 -4.40074 0
M  V30 99 H 8.2966 -0.134941 -0.724541 0
M  V30 100 H 10.9386 -0.999794 -1.61568 0
M  V30 101 H 9.0886 0.00336329 -3.885 0
M  V30 102 H 10.7606 -2.60521 -3.80692 0
M  V30 103 H 9.0036 -2.50686 -3.54032 0
M  V30 104 H 9.6746 -2.07377 -5.11565 0
M  V30 105 H 12.1506 -0.411822 -4.14057 0
M  V30 106 H 11.0266 -0.0995336 -5.4881 0
M  V30 107 H 11.2876 1.14025 -4.27142 0
M  V30 108 N 10.3467 1.47872 -0.545128 0
M  V30 109 C 11.3097 2.28337 0.198717 0
M  V30 110 C 12.3097 1.36255 0.853888 0
M  V30 111 O 13.4997 1.59003 0.711606 0
M  V30 112 C 10.6317 3.15585 1.28915 0
M  V30 113 H 11.8247 2.95567 -0.507941 0
M  V30 114 H 9.3777 1.53362 -0.301616 0
M  V30 115 H 10.1127 2.53019 2.02859 0
M  V30 116 H 9.8977 3.83337 0.824309 0
M  V30 117 H 11.3877 3.76243 1.81194 0
M  V30 118 N 11.8248 0.280983 1.55075 0
M  V30 119 C 12.7568 -0.637268 2.20163 0
M  V30 120 C 13.7698 -1.11298 1.18813 0
M  V30 121 O 14.9588 -1.03388 1.4551 0
M  V30 122 C 12.0588 -1.88199 2.81841 0
M  V30 123 C 11.2318 -1.55211 4.08936 0
M  V30 124 C 10.2908 -2.64991 4.54606 0
M  V30 125 O 9.3168 -2.30929 5.2025 0
M  V30 126 N 10.5188 -3.95161 4.25238 0
M  V30 127 H 13.2838 -0.0801694 2.99593 0
M  V30 128 H 10.8448 0.102329 1.61576 0
M  V30 129 H 12.8368 -2.60948 3.09335 0
M  V30 130 H 11.4068 -2.34799 2.06369 0
M  V30 131 H 10.6268 -0.658185 3.88666 0
M  V30 132 H 11.9148 -1.30681 4.91732 0
M  V30 133 H 11.3128 -4.25653 3.72607 0
M  V30 134 H 9.8698 -4.6427 4.5749 0
M  V30 135 N 13.3029 -1.57598 0.00835791 0
M  V30 136 C 14.2129 -2.12385 -0.996487 0
M  V30 137 C 15.2289 -1.07108 -1.37127 0
M  V30 138 O 16.4049 -1.39055 -1.4569 0
M  V30 139 C 13.4699 -2.62314 -2.26699 0
M  V30 140 C 12.5309 -3.82225 -1.95456 0
M  V30 141 C 11.7639 -4.29763 -3.16449 0
M  V30 142 O 11.9869 -3.76584 -4.28416 0
M  V30 143 O 10.9209 -5.21832 -2.99958 0
M  V30 144 H 14.7469 -2.98479 -0.560725 0
M  V30 145 H 12.3319 -1.47903 -0.210987 0
M  V30 146 H 14.2139 -2.94589 -3.01322 0
M  V30 147 H 12.8889 -1.79313 -2.69497 0
M  V30 148 H 11.7959 -3.54909 -1.18282 0
M  V30 149 H 13.1289 -4.66324 -1.57489 0
M  V30 150 N 14.781 0.264519 -1.55364 0
M  V30 151 C 16.192 0.834936 -1.6699 0
M  V30 152 C 16.543 1.86718 -0.602552 0
M  V30 153 O 15.668 2.14899 0.254425 0
M  V30 154 C 16.263 1.5212 -3.02729 0
M  V30 155 C 14.822 2.03954 -3.16354 0
M  V30 156 C 13.969 0.884498 -2.62815 0
M  V30 157 H 16.92 0.0406869 -1.58648 0
M  V30 158 H 16.941 2.38853 -2.96191 0
M  V30 159 H 16.453 0.769668 -3.80392 0
M  V30 160 H 14.554 2.82041 -2.43482 0
M  V30 161 H 14.667 2.24902 -4.23032 0
M  V30 162 H 13.031 1.2802 -2.20188 0
M  V30 163 H 13.814 0.14634 -3.42988 0
M  V30 164 N 16.2591 1.48442 0.529413 0
M  V30 165 C 17.5071 1.56179 1.28267 0
M  V30 166 C 17.8281 0.237721 1.93546 0
M  V30 167 O 17.0981 -0.740779 1.81354 0
M  V30 168 H 15.6781 0.575367 0.476405 0
M  V30 169 H 18.3401 1.84909 0.61602 0
M  V30 170 H 17.4361 2.34312 2.06165 0
M  V30 171 N 17.7372 -0.778329 1.37039 0
M  V30 172 C 19.1482 -1.35421 1.28523 0
M  V30 173 C 19.4992 -1.96075 -0.0700901 0
M  V30 174 O 18.6242 -1.93352 -0.971801 0
M  V30 175 C 19.2192 -2.46211 2.32735 0
M  V30 176 C 17.7782 -2.99585 2.27873 0
M  V30 177 C 16.9252 -1.72748 2.16918 0
M  V30 178 H 19.8762 -0.5791 1.47757 0
M  V30 179 H 19.8972 -3.2552 1.9702 0
M  V30 180 H 19.4092 -2.02036 3.31365 0
M  V30 181 H 17.5102 -3.48152 1.32745 0
M  V30 182 H 17.6232 -3.55646 3.21018 0
M  V30 183 H 15.9872 -1.95416 1.63354 0
M  V30 184 H 16.7702 -1.30686 3.17452 0
M  V30 185 N 19.2153 -1.21501 -1.00376 0
M  V30 186 C 20.6263 -1.03146 -1.55621 0
M  V30 187 C 20.9773 0.408375 -1.91903 0
M  V30 188 O 20.1023 1.29177 -1.73616 0
M  V30 189 C 20.6973 -1.86612 -2.82775 0
M  V30 190 C 19.2563 -1.72586 -3.34501 0
M  V30 191 C 18.4033 -1.83747 -2.07683 0
M  V30 192 H 21.3543 -1.35505 -0.826081 0
M  V30 193 H 21.3753 -1.3771 -3.54706 0
M  V30 194 H 20.8873 -2.91399 -2.56336 0
M  V30 195 H 18.9883 -0.704877 -3.65872 0
M  V30 196 H 19.1013 -2.54623 -4.05837 0
M  V30 197 H 17.4653 -1.27069 -2.20739 0
M  V30 198 H 18.2483 -2.90044 -1.83655 0
M  V30 199 N 20.6934 1.19889 -1.02296 0
M  V30 200 C 21.9334 1.91125 -0.724602 0
M  V30 201 C 22.2974 1.77464 0.732835 0
M  V30 202 O 23.4984 2.43241 1.144 0
M  V30 203 C 21.7694 3.38187 -1.15604 0
M  V30 204 S 23.3284 4.27702 -0.980621 0
M  V30 205 H 20.1464 0.66018 -0.263976 0
M  V30 206 H 22.7484 1.44978 -1.31155 0
M  V30 207 H 21.4524 3.45653 -2.21251 0
M  V30 208 H 20.9834 3.89363 -0.562131 0
M  V30 209 H 22.9984 4.96073 0.112225 0
M  V30 210 N 22.1715 0.800033 1.35784 0
M  V30 211 C 23.4195 0.376597 1.9856 0
M  V30 212 C 23.7405 -1.05812 1.63795 0
M  V30 213 O 23.0105 -1.73103 0.917171 0
M  V30 214 H 21.5905 0.136261 0.734467 0
M  V30 215 H 24.2525 1.02442 1.65806 0
M  V30 216 H 23.3485 0.477002 3.08433 0
M  V30 217 N 23.6496 -1.47581 0.552962 0
M  V30 218 C 24.5796 -2.32762 -0.185451 0
M  V30 219 C 25.5606 -1.43527 -0.912905 0
M  V30 220 O 26.7456 -1.72388 -0.894201 0
M  V30 221 C 23.8756 -3.25219 -1.21859 0
M  V30 222 C 22.8296 -4.23661 -0.607864 0
M  V30 223 C 22.1556 -5.05413 -1.74533 0
M  V30 224 C 23.4556 -5.20481 0.435582 0
M  V30 225 H 25.1496 -2.94749 0.525684 0
M  V30 226 H 22.6956 -1.41738 0.254251 0
M  V30 227 H 24.6486 -3.8365 -1.7433 0
M  V30 228 H 23.3726 -2.61279 -1.95961 0
M  V30 229 H 22.0316 -3.66451 -0.104489 0
M  V30 230 H 21.6796 -4.3788 -2.47529 0
M  V30 231 H 21.3796 -5.72059 -1.34249 0
M  V30 232 H 22.9036 -5.66701 -2.27338 0
M  V30 233 H 24.3176 -5.733 -0.00290157 0
M  V30 234 H 22.7146 -5.95305 0.757067 0
M  V30 235 H 23.7846 -4.66217 1.33303 0
M  V30 236 N 25.1277 -0.289203 -1.54924 0
M  V30 237 C 26.3757 0.322879 -1.99504 0
M  V30 238 C 26.6967 1.55313 -1.1791 0
M  V30 239 O 25.9667 1.94001 -0.272097 0
M  V30 240 H 24.5467 0.122291 -0.736922 0
M  V30 241 H 27.2087 -0.397802 -1.90797 0
M  V30 242 H 26.3047 0.603061 -3.06218 0
M  V30 243 N 26.6058 1.57591 -0.0167156 0
M  V30 244 C 27.5358 2.12496 0.967858 0
M  V30 245 C 28.5168 1.03807 1.34752 0
M  V30 246 O 29.7018 1.31577 1.42833 0
M  V30 247 C 26.8318 2.64194 2.25431 0
M  V30 248 C 25.7858 3.77559 2.01576 0
M  V30 249 C 25.1118 4.15636 3.36379 0
M  V30 250 C 26.4118 5.04151 1.36489 0
M  V30 251 H 28.1058 2.95013 0.510643 0
M  V30 252 H 25.6518 1.41915 0.244181 0
M  V30 253 H 27.6048 3.01236 2.94678 0
M  V30 254 H 26.3288 1.78821 2.73296 0
M  V30 255 H 24.9878 3.40937 1.34751 0
M  V30 256 H 24.6358 3.27263 3.81979 0
M  V30 257 H 24.3358 4.92022 3.21229 0
M  V30 258 H 25.8598 4.5525 4.06915 0
M  V30 259 H 27.2738 5.38857 1.95718 0
M  V30 260 H 25.6708 5.85453 1.31776 0
M  V30 261 H 26.7408 4.83733 0.336219 0
M  V30 262 N 28.0839 -0.256276 1.55502 0
M  V30 263 C 29.3319 -0.983672 1.76545 0
M  V30 264 C 29.6529 -1.86206 0.578982 0
M  V30 265 O 28.9229 -1.91656 -0.405577 0
M  V30 266 H 27.5029 -0.366191 0.651086 0
M  V30 267 H 30.1649 -0.276479 1.92929 0
M  V30 268 H 29.2609 -1.61087 2.67315 0
M  V30 269 N 29.562 -1.4872 -0.521534 0
M  V30 270 C 30.492 -1.66771 -1.63431 0
M  V30 271 C 31.473 -0.516499 -1.62069 0
M  V30 272 O 32.658 -0.750013 -1.79132 0
M  V30 273 C 29.788 -1.71515 -3.01993 0
M  V30 274 C 28.742 -2.86222 -3.18216 0
M  V30 275 C 28.068 -2.76061 -4.57924 0
M  V30 276 C 29.368 -4.27419 -3.00184 0
M  V30 277 H 31.062 -2.59932 -1.48579 0
M  V30 278 H 28.608 -1.25089 -0.713358 0
M  V30 279 H 30.561 -1.82731 -3.7972 0
M  V30 280 H 29.285 -0.749393 -3.17886 0
M  V30 281 H 27.944 -2.74575 -2.42908 0
M  V30 282 H 27.592 -1.77437 -4.70665 0
M  V30 283 H 27.292 -3.53037 -4.69722 0
M  V30 284 H 28.816 -2.89256 -5.37739 0
M  V30 285 H 30.23 -4.39855 -3.67697 0
M  V30 286 H 28.627 -5.05458 -3.2347 0
M  V30 287 H 29.697 -4.43293 -1.96518 0
M  V30 288 N 31.0401 0.771051 -1.3745 0
M  V30 289 C 32.2881 1.52661 -1.32435 0
M  V30 290 C 32.6091 1.9479 0.0905024 0
M  V30 291 O 31.8791 1.66348 1.03466 0
M  V30 292 H 30.4591 0.566218 -0.487244 0
M  V30 293 H 33.1211 0.917636 -1.71946 0
M  V30 294 H 32.2171 2.42568 -1.96385 0
M  V30 295 N 32.5182 1.22032 0.997298 0
M  V30 296 C 33.4482 1.01065 2.10495 0
M  V30 297 C 34.4292 -0.0669542 1.69968 0
M  V30 298 O 35.6142 0.0943987 1.9397 0
M  V30 299 C 32.7442 0.582874 3.42374 0
M  V30 300 C 31.6982 1.60592 3.96729 0
M  V30 301 C 31.0242 1.03412 5.24605 0
M  V30 302 C 32.3242 2.99478 4.27914 0
M  V30 303 H 34.0182 1.93708 2.28292 0
M  V30 304 H 31.5642 0.932761 1.09707 0
M  V30 305 H 33.5172 0.423332 4.19268 0
M  V30 306 H 32.2412 -0.379213 3.24391 0
M  V30 307 H 30.9002 1.75316 3.21963 0
M  V30 308 H 30.5482 0.063518 5.0296 0
M  V30 309 H 30.2482 1.71754 5.61938 0
M  V30 310 H 31.7722 0.886066 6.04137 0
M  V30 311 H 33.1862 2.88153 4.95622 0
M  V30 312 H 31.5832 3.64903 4.76409 0
M  V30 313 H 32.6532 3.49742 3.3587 0
M  V30 314 N 33.9963 -1.19345 1.0293 0
M  V30 315 C 35.2443 -1.88665 0.724574 0
M  V30 316 C 35.5653 -1.80036 -0.749144 0
M  V30 317 O 34.8353 -1.2111 -1.53978 0
M  V30 318 H 33.4153 -0.698406 0.265025 0
M  V30 319 H 36.0773 -1.44885 1.30362 0
M  V30 320 H 35.1733 -2.94987 1.01926 0
M  V30 321 N 35.4744 -0.807222 -1.35358 0
M  V30 322 C 36.4044 -0.232509 -2.3234 0
M  V30 323 C 37.3854 0.642386 -1.57504 0
M  V30 324 O 38.5704 0.572526 -1.85569 0
M  V30 325 C 35.7004 0.619238 -3.41735 0
M  V30 326 C 34.6544 -0.157215 -4.27711 0
M  V30 327 C 33.9804 0.816273 -5.28433 0
M  V30 328 C 35.2804 -1.35656 -5.04376 0
M  V30 329 H 36.9744 -1.04276 -2.80654 0
M  V30 330 H 34.5204 -0.50288 -1.34934 0
M  V30 331 H 36.4734 1.03137 -4.08584 0
M  V30 332 H 35.1974 1.46239 -2.92031 0
M  V30 333 H 33.8564 -0.550525 -3.62443 0
M  V30 334 H 33.5044 1.65494 -4.74996 0
M  V30 335 H 33.2044 0.301067 -5.86828 0
M  V30 336 H 34.7284 1.22659 -5.98153 0
M  V30 337 H 36.1424 -1.01927 -5.64166 0
M  V30 338 H 34.5394 -1.8063 -5.7227 0
M  V30 339 H 35.6094 -2.14288 -4.34981 0
M  V30 340 N 36.9525 1.47285 -0.560781 0
M  V30 341 C 38.1925 2.0436 -0.0404627 0
M  V30 342 C 38.5565 1.42534 1.28639 0
M  V30 343 O 39.7575 1.90677 1.89462 0
M  V30 344 C 38.0285 3.57369 0.0471856 0
M  V30 345 S 39.5875 4.3579 0.513109 0
M  V30 346 H 36.4055 0.710492 -0.0268674 0
M  V30 347 H 39.0075 1.80611 -0.748323 0
M  V30 348 H 37.7115 3.9989 -0.922817 0
M  V30 349 H 37.2425 3.8562 0.778491 0
M  V30 350 H 39.2575 4.63476 1.77212 0
M  V30 351 N 38.4306 0.297415 1.54768 0
M  V30 352 C 39.6786 -0.312295 1.99673 0
M  V30 353 C 39.9996 -1.54686 1.18732 0
M  V30 354 O 39.2696 -1.93854 0.282382 0
M  V30 355 H 37.8496 -0.118381 0.73756 0
M  V30 356 H 40.5116 0.407915 1.90583 0
M  V30 357 H 39.6076 -0.586813 3.06534 0
M  V30 358 N 39.9087 -1.5758 0.0250728 0
M  V30 359 C 40.8557 -2.09973 -0.958129 0
M  V30 360 C 41.8257 -1.00085 -1.3256 0
M  V30 361 O 43.0107 -1.27481 -1.41962 0
M  V30 362 C 40.1507 -2.62812 -2.2366 0
M  V30 363 C 39.2637 -3.86693 -1.92594 0
M  V30 364 C 38.3987 -4.27941 -3.14707 0
M  V30 365 C 37.4377 -5.44591 -2.79442 0
M  V30 366 N 36.5747 -5.81014 -3.94167 0
M  V30 367 H 41.4147 -2.937 -0.504428 0
M  V30 368 H 38.9517 -1.45172 -0.237392 0
M  V30 369 H 40.9097 -2.91536 -2.98434 0
M  V30 370 H 39.5397 -1.81922 -2.66654 0
M  V30 371 H 38.5917 -3.64723 -1.0808 0
M  V30 372 H 39.9037 -4.71547 -1.62619 0
M  V30 373 H 39.0577 -4.58079 -3.97804 0
M  V30 374 H 37.7967 -3.41845 -3.4784 0
M  V30 375 H 36.8017 -5.1415 -1.94755 0
M  V30 376 H 38.0267 -6.32382 -2.47528 0
M  V30 377 H 35.9727 -4.97874 -4.2715 0
M  V30 378 H 35.8897 -6.60498 -3.67801 0
M  V30 379 H 37.1577 -6.15756 -4.7798 0
M  V30 380 N 41.3868 0.248026 -1.55636 0
M  V30 381 C 42.3188 1.32993 -1.8667 0
M  V30 382 C 43.3318 1.44345 -0.752877 0
M  V30 383 O 44.5208 1.45715 -1.03098 0
M  V30 384 C 41.6208 2.70863 -2.03682 0
M  V30 385 C 40.7938 2.81792 -3.34532 0
M  V30 386 C 39.8528 4.005 -3.41301 0
M  V30 387 O 38.8788 3.9008 -4.14519 0
M  V30 388 N 40.0808 5.13618 -2.70512 0
M  V30 389 H 42.8458 1.06707 -2.8006 0
M  V30 390 H 40.4068 0.438129 -1.55859 0
M  V30 391 H 42.3988 3.48612 -2.05553 0
M  V30 392 H 40.9688 2.89862 -1.17041 0
M  V30 393 H 40.1888 1.90729 -3.44987 0
M  V30 394 H 41.4768 2.86043 -4.20781 0
M  V30 395 H 40.8748 5.24975 -2.10755 0
M  V30 396 H 39.4318 5.89505 -2.78077 0
M  V30 397 N 42.8649 1.48995 0.513639 0
M  V30 398 C 44.1129 1.57531 1.26604 0
M  V30 399 C 44.4339 0.258236 1.93283 0
M  V30 400 O 43.7039 -0.721502 1.8213 0
M  V30 401 H 42.2839 0.580387 0.470276 0
M  V30 402 H 44.9459 1.85552 0.596373 0
M  V30 403 H 44.0419 2.36486 2.03669 0
M  V30 404 N 44.343 -0.763751 1.37857 0
M  V30 405 C 45.754 -1.3405 1.29952 0
M  V30 406 C 46.105 -1.96138 -0.0492898 0
M  V30 407 O 45.23 -1.94372 -0.951239 0
M  V30 408 C 45.825 -2.43729 2.35333 0
M  V30 409 C 44.384 -2.97151 2.31037 0
M  V30 410 C 43.531 -1.70438 2.18738 0
M  V30 411 H 46.482 -0.563396 1.48363 0
M  V30 412 H 46.503 -3.23412 2.00462 0
M  V30 413 H 46.015 -1.9851 3.33489 0
M  V30 414 H 44.116 -3.46724 1.3643 0
M  V30 415 H 44.229 -3.52221 3.24772 0
M  V30 416 H 42.593 -1.93673 1.65418 0
M  V30 417 H 43.376 -1.27312 3.18821 0
M  V30 418 N 45.8211 -1.22559 -0.990812 0
M  V30 419 C 46.7841 -0.998863 -2.0629 0
M  V30 420 C 47.7841 0.0354834 -1.60761 0
M  V30 421 O 48.9741 -0.203231 -1.7301 0
M  V30 422 C 46.1061 -0.509203 -3.37076 0
M  V30 423 H 47.2991 -1.95014 -2.27837 0
M  V30 424 H 44.8521 -1.04456 -1.16269 0
M  V30 425 H 45.5871 0.446335 -3.21214 0
M  V30 426 H 45.3721 -1.25547 -3.71457 0
M  V30 427 H 46.8621 -0.370888 -4.1595 0
M  V30 428 N 47.2992 1.18797 -1.03562 0
M  V30 429 C 48.5272 1.92599 -0.755869 0
M  V30 430 C 48.9422 1.75886 0.686271 0
M  V30 431 O 48.2992 1.08517 1.46732 0
M  V30 432 C 48.3502 3.44159 -1.10619 0
M  V30 433 O 48.0712 3.60341 -2.4917 0
M  V30 434 C 49.5722 4.3507 -0.850214 0
M  V30 435 H 46.7922 0.611587 -0.276048 0
M  V30 436 H 49.3362 1.50742 -1.38192 0
M  V30 437 H 47.4912 3.83823 -0.525194 0
M  V30 438 H 47.9052 4.54128 -2.62427 0
M  V30 439 H 49.3792 5.39989 -1.14523 0
M  V30 440 H 49.8562 4.38673 0.215176 0
M  V30 441 H 50.4622 4.01097 -1.41426 0
M  V30 442 N 48.7773 0.814389 1.34928 0
M  V30 443 C 50.1883 0.458364 1.80986 0
M  V30 444 C 50.5393 -1.02042 1.67577 0
M  V30 445 O 49.6643 -1.79352 1.21086 0
M  V30 446 C 50.2593 0.825212 3.28597 0
M  V30 447 C 48.8183 0.521677 3.72767 0
M  V30 448 C 47.9653 1.04668 2.56788 0
M  V30 449 H 50.9163 1.00533 1.22795 0
M  V30 450 H 50.9373 0.12571 3.80292 0
M  V30 451 H 50.4493 1.90154 3.38324 0
M  V30 452 H 48.5503 -0.545589 3.68584 0
M  V30 453 H 48.6633 1.05977 4.67232 0
M  V30 454 H 47.0273 0.468622 2.50352 0
M  V30 455 H 47.8103 2.12927 2.6929 0
M  V30 456 N 50.2554 -1.46986 0.568584 0
M  V30 457 C 51.2184 -2.28624 -0.162366 0
M  V30 458 C 52.2184 -1.37596 -0.832103 0
M  V30 459 O 53.4084 -1.60115 -0.68622 0
M  V30 460 C 50.5404 -3.17596 -1.23878 0
M  V30 461 H 51.7334 -2.94722 0.554899 0
M  V30 462 H 49.2864 -1.52863 0.325976 0
M  V30 463 H 50.0214 -2.56214 -1.98808 0
M  V30 464 H 49.8064 -3.846 -0.763219 0
M  V30 465 H 51.2964 -3.79078 -1.75185 0
M  V30 466 N 51.7335 -0.305618 -1.54608 0
M  V30 467 C 53.1445 0.186098 -1.8577 0
M  V30 468 C 53.4955 1.53058 -1.22751 0
M  V30 469 O 52.6205 2.09888 -0.526893 0
M  V30 470 C 53.2155 0.344449 -3.37044 0
M  V30 471 C 51.7745 0.780384 -3.68221 0
M  V30 472 C 50.9215 -0.108554 -2.77087 0
M  V30 473 H 53.8725 -0.526485 -1.49712 0
M  V30 474 H 53.8935 1.17828 -3.61796 0
M  V30 475 H 53.4055 -0.634235 -3.82883 0
M  V30 476 H 51.5065 1.76945 -3.27904 0
M  V30 477 H 51.6195 0.596572 -4.75371 0
M  V30 478 H 49.9835 0.412931 -2.5133 0
M  V30 479 H 50.7665 -1.08368 -3.25747 0
M  V30 480 N 53.2116 1.57565 -0.0334293 0
M  V30 481 C 54.1216 2.13943 0.962572 0
M  V30 482 C 55.1376 1.09276 1.35406 0
M  V30 483 O 56.3136 1.41355 1.4346 0
M  V30 484 C 53.3786 2.65887 2.22497 0
M  V30 485 C 52.4396 3.85286 1.8935 0
M  V30 486 C 51.6726 4.34743 3.09571 0
M  V30 487 O 51.8956 3.83352 4.22371 0
M  V30 488 O 50.8296 5.26538 2.91618 0
M  V30 489 H 54.6556 2.99333 0.513169 0
M  V30 490 H 52.2406 1.4822 0.18743 0
M  V30 491 H 54.1226 2.99346 2.96598 0
M  V30 492 H 52.7976 1.83578 2.6661 0
M  V30 493 H 51.7046 3.56746 1.1262 0
M  V30 494 H 53.0376 4.68771 1.5005 0
M  V30 495 N 54.6897 -0.239769 1.55765 0
M  V30 496 C 56.1007 -0.808263 1.68297 0
M  V30 497 C 56.4517 -1.85736 0.632181 0
M  V30 498 O 55.5767 -2.15277 -0.220204 0
M  V30 499 C 56.1717 -1.47284 3.05111 0
M  V30 500 C 54.7307 -1.98895 3.19559 0
M  V30 501 C 53.8777 -0.842575 2.64189 0
M  V30 502 H 56.8287 -0.0154422 1.58692 0
M  V30 503 H 56.8497 -2.34111 2.99954 0
M  V30 504 H 56.3617 -0.709053 3.81568 0
M  V30 505 H 54.4627 -2.78132 2.47938 0
M  V30 506 H 54.5757 -2.18143 4.26556 0
M  V30 507 H 52.9397 -1.24501 2.22197 0
M  V30 508 H 53.7227 -0.0917552 3.43177 0
M  V30 509 N 56.1678 -1.49265 -0.50573 0
M  V30 510 C 57.3928 -1.62478 -1.28902 0
M  V30 511 C 57.8178 -0.294332 -1.85783 0
M  V30 512 O 57.1758 0.737412 -1.65626 0
M  V30 513 C 57.2238 -2.69268 -2.39848 0
M  V30 514 O 56.3278 -2.28113 -3.43567 0
M  V30 515 H 55.6688 -0.54399 -0.380751 0
M  V30 516 H 58.1988 -1.95421 -0.605952 0
M  V30 517 H 58.2088 -2.91291 -2.85681 0
M  V30 518 H 56.8838 -3.65846 -1.97812 0
M  V30 519 H 55.4608 -2.16401 -3.03685 0
M  V30 520 N 57.6459 0.756429 -1.3826 0
M  V30 521 C 59.0619 1.0591 -1.19395 0
M  V30 522 C 59.2619 2.01459 -0.0406567 0
M  V30 523 O 58.3179 2.44909 0.614467 0
M  V30 524 C 59.6309 1.64191 -2.51916 0
M  V30 525 C 61.1789 1.76376 -2.58574 0
M  V30 526 C 61.6539 2.38069 -3.91264 0
M  V30 527 N 63.1449 2.45503 -3.92788 0
M  V30 528 C 63.8799 2.94126 -4.92217 0
M  V30 529 N 63.3759 3.42805 -6.02043 0
M  V30 530 N 65.1689 2.9314 -4.7961 0
M  V30 531 H 57.3199 0.122313 -2.12048 0
M  V30 532 H 59.5829 0.116892 -0.940766 0
M  V30 533 H 59.2889 1.01451 -3.3675 0
M  V30 534 H 59.1629 2.6329 -2.70108 0
M  V30 535 H 61.5499 2.38244 -1.74137 0
M  V30 536 H 61.6309 0.759894 -2.44252 0
M  V30 537 H 61.2749 1.76835 -4.76121 0
M  V30 538 H 61.2049 3.39091 -4.02895 0
M  V30 539 H 63.6959 2.1107 -3.13461 0
M  V30 540 H 64.0089 3.78354 -6.73846 0
M  V30 541 H 62.3539 3.4087 -6.05667 0
M  V30 542 H 65.5449 2.54419 -3.92923 0
M  V30 543 H 65.7179 3.30721 -5.5725 0
M  V30 544 N 59.124 1.23083 0.984299 0
M  V30 545 C 60.087 1.00979 2.05757 0
M  V30 546 C 61.087 -0.0269573 1.60777 0
M  V30 547 O 62.277 0.212403 1.729 0
M  V30 548 C 59.409 0.527072 3.36801 0
M  V30 549 H 60.602 1.9622 2.26799 0
M  V30 550 H 58.155 1.05072 1.15714 0
M  V30 551 H 58.89 -0.429294 3.21446 0
M  V30 552 H 58.675 1.27515 3.70786 0
M  V30 553 H 60.165 0.392942 4.15747 0
M  V30 554 N 60.6021 -1.18246 1.0419 0
M  V30 555 C 62.0131 -1.69914 0.773698 0
M  V30 556 C 62.3641 -1.83085 -0.705297 0
M  V30 557 O 61.4891 -1.51123 -1.5489 0
M  V30 558 C 62.0841 -3.08619 1.39784 0
M  V30 559 C 60.6431 -3.57494 1.17792 0
M  V30 560 C 59.7901 -2.34013 1.48773 0
M  V30 561 H 62.7411 -1.02904 1.20816 0
M  V30 562 H 62.7621 -3.71958 0.801714 0
M  V30 563 H 62.2741 -2.99001 2.47426 0
M  V30 564 H 60.3751 -3.72406 0.120295 0
M  V30 565 H 60.4881 -4.40852 1.87581 0
M  V30 566 H 58.8521 -2.37986 0.907463 0
M  V30 567 H 59.6351 -2.27013 2.57527 0
M  V30 568 N 62.0802 -0.821533 -1.34494 0
M  V30 569 C 63.0432 -0.247847 -2.27856 0
M  V30 570 C 64.0432 0.573453 -1.50227 0
M  V30 571 O 65.2332 0.389759 -1.69784 0
M  V30 572 C 62.3652 0.652698 -3.34593 0
M  V30 573 H 63.5582 -1.07146 -2.80107 0
M  V30 574 H 61.1112 -0.593291 -1.44602 0
M  V30 575 H 61.8462 1.49943 -2.87555 0
M  V30 576 H 61.6312 0.065292 -3.92046 0
M  V30 577 H 63.1212 1.04793 -4.04238 0
M  V30 578 N 63.5583 1.46682 -0.576371 0
M  V30 579 C 64.7833 2.07304 -0.0630475 0
M  V30 580 C 65.2083 1.42329 1.2298 0
M  V30 581 O 64.5663 0.504865 1.74129 0
M  V30 582 C 64.6143 3.60472 0.095895 0
M  V30 583 O 63.7183 3.95927 1.15394 0
M  V30 584 H 63.0593 0.661288 -0.0599463 0
M  V30 585 H 65.5893 1.88417 -0.797511 0
M  V30 586 H 65.5993 4.06865 0.304071 0
M  V30 587 H 64.2743 4.07157 -0.84828 0
M  V30 588 H 62.8513 3.61252 0.924724 0
M  V30 589 N 65.0364 0.313813 1.54444 0
M  V30 590 C 65.9664 -0.549454 2.26943 0
M  V30 591 C 66.9474 -1.12741 1.27372 0
M  V30 592 O 68.1324 -1.15436 1.56167 0
M  V30 593 C 65.2624 -1.71523 3.01989 0
M  V30 594 C 64.2164 -1.26703 4.08816 0
M  V30 595 C 63.5424 -2.51898 4.71647 0
M  V30 596 C 64.8424 -0.388962 5.2085 0
M  V30 597 H 66.5364 0.0552661 2.99349 0
M  V30 598 H 64.0824 0.0280207 1.43973 0
M  V30 599 H 66.0354 -2.32535 3.51433 0
M  V30 600 H 64.7594 -2.34639 2.27183 0
M  V30 601 H 63.4184 -0.679896 3.6024 0
M  V30 602 H 63.0664 -3.13356 3.93468 0
M  V30 603 H 62.7664 -2.22605 5.43802 0
M  V30 604 H 64.2904 -3.1369 5.23861 0
M  V30 605 H 65.7044 -0.905107 5.6611 0
M  V30 606 H 64.1014 -0.18924 5.99802 0
M  V30 607 H 65.1714 0.582699 4.81386 0
M  V30 608 N 66.5145 -1.57545 0.0417849 0
M  V30 609 C 67.4445 -2.14009 -0.933929 0
M  V30 610 C 68.4255 -1.05938 -1.33083 0
M  V30 611 O 69.6105 -1.33833 -1.40721 0
M  V30 612 C 66.7405 -2.67747 -2.21199 0
M  V30 613 C 65.6945 -3.80718 -1.95544 0
M  V30 614 C 65.0205 -4.20935 -3.29724 0
M  V30 615 C 66.3205 -5.06258 -1.28452 0
M  V30 616 H 68.0145 -2.95788 -0.463645 0
M  V30 617 H 65.5605 -1.42285 -0.221573 0
M  V30 618 H 67.5135 -3.05886 -2.89848 0
M  V30 619 H 66.2375 -1.83147 -2.70416 0
M  V30 620 H 64.8965 -3.43037 -1.2931 0
M  V30 621 H 64.5445 -3.33298 -3.76724 0
M  V30 622 H 64.2445 -4.9707 -3.13361 0
M  V30 623 H 65.7685 -4.61666 -3.9962 0
M  V30 624 H 67.1825 -5.41903 -1.8712 0
M  V30 625 H 65.5795 -5.87475 -1.22445 0
M  V30 626 H 66.6495 -4.84207 -0.259219 0
M  V30 627 N 67.9926 0.231505 -1.5589 0
M  V30 628 C 69.4036 0.799327 -1.68724 0
M  V30 629 C 69.7546 1.85398 -0.642022 0
M  V30 630 O 68.8796 2.1539 0.208784 0
M  V30 631 C 69.4746 1.45664 -3.05888 0
M  V30 632 C 68.0336 1.97197 -3.20609 0
M  V30 633 C 67.1806 0.828552 -2.64632 0
M  V30 634 H 70.1316 0.00702616 -1.58698 0
M  V30 635 H 70.1526 2.32517 -3.01191 0
M  V30 636 H 69.6646 0.688808 -3.81939 0
M  V30 637 H 67.7656 2.76813 -2.4941 0
M  V30 638 H 67.8786 2.15878 -4.27707 0
M  V30 639 H 66.2426 1.23321 -2.22854 0
M  V30 640 H 67.0256 0.0735544 -3.43221 0
M  V30 641 N 69.4707 1.49531 0.497807 0
M  V30 642 C 70.8817 1.52344 1.07927 0
M  V30 643 C 71.2327 0.311469 1.93712 0
M  V30 644 O 70.3577 -0.578405 2.08527 0
M  V30 645 C 70.9527 2.76062 1.96405 0
M  V30 646 C 69.5117 2.81643 2.49709 0
M  V30 647 C 68.6587 2.46299 1.27404 0
M  V30 648 H 71.6097 1.56182 0.281576 0
M  V30 649 H 71.6307 2.56405 2.81135 0
M  V30 650 H 71.1427 3.64254 1.33943 0
M  V30 651 H 69.2437 1.97739 3.15801 0
M  V30 652 H 69.3567 3.83891 2.86643 0
M  V30 653 H 67.7207 1.98148 1.60029 0
M  V30 654 H 68.5037 3.36769 0.66645 0
M  V30 655 N 70.9488 -0.749086 1.3866 0
M  V30 656 C 71.9118 -1.84457 1.36045 0
M  V30 657 C 72.9118 -1.58682 0.260122 0
M  V30 658 O 74.1018 -1.66343 0.517261 0
M  V30 659 C 71.2338 -3.22008 1.11911 0
M  V30 660 H 72.4268 -1.88182 2.33512 0
M  V30 661 H 69.9798 -0.951266 1.24019 0
M  V30 662 H 70.7148 -3.2395 0.150686 0
M  V30 663 H 70.4998 -3.42111 1.91579 0
M  V30 664 H 71.9898 -4.0208 1.12788 0
M  V30 665 N 72.4269 -1.23603 -0.977757 0
M  V30 666 C 73.8379 -1.06424 -1.53398 0
M  V30 667 C 74.1889 0.367578 -1.92726 0
M  V30 668 O 73.3139 1.25465 -1.76316 0
M  V30 669 C 73.9089 -1.92568 -2.78753 0
M  V30 670 C 72.4679 -1.79642 -3.30765 0
M  V30 671 C 71.6149 -1.88111 -2.03739 0
M  V30 672 H 74.5659 -1.37227 -0.797152 0
M  V30 673 H 74.5869 -1.45203 -3.51705 0
M  V30 674 H 74.0989 -2.96771 -2.50098 0
M  V30 675 H 72.1999 -0.782325 -3.64294 0
M  V30 676 H 72.3129 -2.63174 -4.00345 0
M  V30 677 H 70.6769 -1.31723 -2.17994 0
M  V30 678 H 71.4599 -2.93875 -1.77461 0
M  V30 679 N 73.905 1.17692 -1.04816 0
M  V30 680 C 74.815 2.25229 -0.65643 0
M  V30 681 C 75.831 1.71018 0.320761 0
M  V30 682 O 77.007 2.00649 0.173805 0
M  V30 683 C 74.072 3.46684 -0.0332629 0
M  V30 684 C 73.133 4.15997 -1.06042 0
M  V30 685 C 72.366 5.31654 -0.466893 0
M  V30 686 O 72.589 5.65777 0.724758 0
M  V30 687 O 71.523 5.89831 -1.1993 0
M  V30 688 H 75.349 2.61016 -1.55255 0
M  V30 689 H 72.934 1.24919 -0.81949 0
M  V30 690 H 74.816 4.20234 0.313256 0
M  V30 691 H 73.491 3.12703 0.836566 0
M  V30 692 H 72.398 3.44482 -1.45886 0
M  V30 693 H 73.731 4.53996 -1.90127 0
M  V30 694 N 75.3831 0.828654 1.34056 0
M  V30 695 C 76.3331 0.226828 2.26869 0
M  V30 696 C 77.3171 -0.612243 1.48796 0
M  V30 697 O 78.5091 -0.465884 1.70759 0
M  V30 698 C 75.6381 -0.605654 3.37915 0
M  V30 699 C 74.7241 0.244361 4.23395 0
M  V30 700 N 75.1151 1.31815 4.88322 0
M  V30 701 C 73.4131 0.0296616 4.4599 0
M  V30 702 C 74.1141 1.83895 5.51867 0
M  V30 703 N 73.0901 1.14196 5.3147 0
M  V30 704 H 76.8921 1.04811 2.74576 0
M  V30 705 H 74.4061 0.67205 1.47842 0
M  V30 706 H 76.4031 -1.05302 4.03382 0
M  V30 707 H 75.0631 -1.42504 2.91758 0
M  V30 708 H 76.0741 1.70099 4.8917 0
M  V30 709 H 72.7511 -0.757097 4.10578 0
M  V30 710 H 74.1411 2.7376 6.136 0
M  V30 711 N 76.8612 -1.46375 0.584142 0
M  V30 712 C 78.0862 -2.07268 0.0740405 0
M  V30 713 C 78.5112 -1.42979 -1.22223 0
M  V30 714 O 77.8692 -0.514092 -1.73859 0
M  V30 715 C 77.9172 -3.60518 -0.0767769 0
M  V30 716 O 77.0212 -3.96533 -1.13292 0
M  V30 717 H 76.3622 -0.660961 0.0634524 0
M  V30 718 H 78.8922 -1.87991 0.807492 0
M  V30 719 H 78.9022 -4.07021 -0.282489 0
M  V30 720 H 77.5772 -4.06702 0.86986 0
M  V30 721 H 76.1542 -3.61738 -0.905553 0
M  V30 722 N 78.3393 -0.321999 -1.54275 0
M  V30 723 C 79.7503 0.166384 -1.85957 0
M  V30 724 C 80.1013 1.51747 -1.24367 0
M  V30 725 O 79.2263 2.09317 -0.549124 0
M  V30 726 C 79.8213 0.308681 -3.37391 0
M  V30 727 C 78.3803 0.741286 -3.69028 0
M  V30 728 C 77.5273 -0.137937 -2.76957 0
M  V30 729 H 80.4783 -0.542335 -1.49146 0
M  V30 730 H 80.4993 1.13984 -3.63026 0
M  V30 731 H 80.0113 -0.674809 -3.82188 0
M  V30 732 H 78.1123 1.73458 -3.29762 0
M  V30 733 H 78.2253 0.546118 -4.75977 0
M  V30 734 H 76.5893 0.386251 -2.51754 0
M  V30 735 H 77.3723 -1.11816 -3.2458 0
M  V30 736 N 79.8174 1.5752 -0.0501392 0
M  V30 737 C 81.2284 1.80271 0.485705 0
M  V30 738 C 81.5794 0.96228 1.70981 0
M  V30 739 O 80.7044 0.178578 2.15662 0
M  V30 740 C 81.2994 3.26957 0.887938 0
M  V30 741 C 79.8584 3.5063 1.36877 0
M  V30 742 C 79.0054 2.75165 0.343468 0
M  V30 743 H 81.9564 1.56281 -0.276028 0
M  V30 744 H 81.9774 3.37821 1.75093 0
M  V30 745 H 81.4894 3.881 -0.0031809 0
M  V30 746 H 79.5904 2.94766 2.27911 0
M  V30 747 H 79.7034 4.59343 1.36164 0
M  V30 748 H 78.0674 2.4127 0.816128 0
M  V30 749 H 78.8504 3.39034 -0.539548 0
M  V30 750 N 81.2955 -0.223234 1.56011 0
M  V30 751 C 82.5205 -0.968978 1.83373 0
M  V30 752 C 82.9455 -1.77227 0.630254 0
M  V30 753 O 82.3035 -1.76345 -0.420959 0
M  V30 754 C 82.3515 -1.86363 3.08709 0
M  V30 755 O 81.4555 -2.95873 2.87285 0
M  V30 756 H 80.7965 -0.274461 0.604622 0
M  V30 757 H 83.3265 -0.237056 2.03222 0
M  V30 758 H 83.3365 -2.27376 3.38768 0
M  V30 759 H 82.0115 -1.27319 3.95933 0
M  V30 760 H 80.5885 -2.58818 2.68454 0
M  V30 761 N 82.7736 -1.49793 -0.48987 0
M  V30 762 C 83.9986 -1.63836 -1.27172 0
M  V30 763 C 84.4236 -0.31402 -1.8546 0
M  V30 764 O 83.7816 0.719803 -1.66399 0
M  V30 765 C 83.8296 -2.71797 -2.36978 0
M  V30 766 O 82.9336 -2.31744 -3.41128 0
M  V30 767 H 82.2746 -0.547997 -0.37496 0
M  V30 768 H 84.8046 -1.96053 -0.585191 0
M  V30 769 H 84.8146 -2.94305 -2.82575 0
M  V30 770 H 83.4896 -3.67923 -1.93921 0
M  V30 771 H 82.0666 -2.1961 -3.01373 0
M  V30 772 N 84.2517 0.741722 -1.39055 0
M  V30 773 C 85.6627 1.31966 -1.32068 0
M  V30 774 C 86.0137 1.96192 0.0180797 0
M  V30 775 O 85.1387 1.95861 0.920196 0
M  V30 776 C 85.7337 2.39954 -2.39181 0
M  V30 777 C 84.2927 2.93438 -2.35735 0
M  V30 778 C 83.4397 1.66936 -2.21422 0
M  V30 779 H 86.3907 0.539721 -1.4924 0
M  V30 780 H 86.4117 3.20182 -2.05581 0
M  V30 781 H 85.9237 1.9318 -3.36605 0
M  V30 782 H 84.0247 3.4451 -1.41929 0
M  V30 783 H 84.1377 3.4701 -3.30335 0
M  V30 784 H 82.5017 1.91016 -1.68478 0
M  V30 785 H 83.2847 1.22224 -3.20806 0
M  V30 786 N 85.7298 1.2412 0.971189 0
M  V30 787 C 86.6598 1.05508 2.08304 0
M  V30 788 C 87.6408 -0.0308864 1.70072 0
M  V30 789 O 88.8258 0.135521 1.93727 0
M  V30 790 C 85.9558 0.655365 3.4106 0
M  V30 791 C 84.9098 1.68971 3.93234 0
M  V30 792 C 84.2358 1.14516 5.22293 0
M  V30 793 C 85.5358 3.08487 4.21465 0
M  V30 794 H 87.2298 1.98507 2.24132 0
M  V30 795 H 84.7758 0.955821 1.07704 0
M  V30 796 H 86.7288 0.51217 4.18276 0
M  V30 797 H 85.4528 -0.31032 3.25122 0
M  V30 798 H 84.1118 1.82106 3.18171 0
M  V30 799 H 83.7598 0.170189 5.02712 0
M  V30 800 H 83.4598 1.83635 5.58168 0
M  V30 801 H 84.9838 1.01401 6.02121 0
M  V30 802 H 86.3978 2.98601 4.89398 0
M  V30 803 H 84.7948 3.74926 4.68562 0
M  V30 804 H 85.8648 3.56787 3.28376 0
M  V30 805 N 87.2079 -1.17134 1.05439 0
M  V30 806 C 88.4359 -1.91372 0.786414 0
M  V30 807 C 88.8509 -1.76955 -0.658202 0
M  V30 808 O 88.2079 -1.10838 -1.44987 0
M  V30 809 C 88.2589 -3.42356 1.1608 0
M  V30 810 O 87.9799 -3.56332 2.54871 0
M  V30 811 C 89.4809 -4.33663 0.919322 0
M  V30 812 H 86.7009 -0.607118 0.285743 0
M  V30 813 H 89.2449 -1.48525 1.40572 0
M  V30 814 H 87.3999 -3.82939 0.586191 0
M  V30 815 H 87.8139 -4.49896 2.69618 0
M  V30 816 H 89.2879 -5.38099 1.231 0
M  V30 817 H 89.7649 -4.38959 -0.145359 0
M  V30 818 H 90.3709 -3.98796 1.47789 0
M  V30 819 N 88.686 -0.835752 -1.33615 0
M  V30 820 C 89.618 -0.224151 -2.28101 0
M  V30 821 C 90.631 0.593331 -1.51603 0
M  V30 822 O 91.82 0.420911 -1.73466 0
M  V30 823 C 88.92 0.703309 -3.31522 0
M  V30 824 C 88.093 -0.0741528 -4.37337 0
M  V30 825 C 87.152 0.776176 -5.20444 0
M  V30 826 O 86.178 0.216506 -5.68788 0
M  V30 827 N 87.38 2.09401 -5.41416 0
M  V30 828 H 90.145 -1.03598 -2.81225 0
M  V30 829 H 87.706 -0.69392 -1.46275 0
M  V30 830 H 89.698 1.27707 -3.84022 0
M  V30 831 H 88.268 1.41585 -2.78698 0
M  V30 832 H 87.488 -0.82928 -3.85378 0
M  V30 833 H 88.776 -0.608863 -5.05144 0
M  V30 834 H 88.174 2.57229 -5.03835 0
M  V30 835 H 86.731 2.61633 -5.96985 0
M  V30 836 N 90.1641 1.46063 -0.591896 0
M  V30 837 C 91.5751 1.85944 -0.167822 0
M  V30 838 C 91.9261 1.49429 1.27143 0
M  V30 839 O 91.0511 0.913515 1.96173 0
M  V30 840 C 91.6461 3.37489 -0.297794 0
M  V30 841 C 90.2051 3.76332 0.0714732 0
M  V30 842 C 89.3521 2.7006 -0.629509 0
M  V30 843 H 92.3031 1.37087 -0.799555 0
M  V30 844 H 92.3241 3.77532 0.474349 0
M  V30 845 H 91.8361 3.64034 -1.3454 0
M  V30 846 H 89.9371 3.55405 1.11886 0
M  V30 847 H 90.0501 4.78088 -0.311245 0
M  V30 848 H 88.4141 2.54607 -0.0687867 0
M  V30 849 H 89.1971 2.99444 -1.67894 0
M  V30 850 N 91.6422 0.330177 1.54103 0
M  V30 851 C 93.0532 -0.15652 1.86043 0
M  V30 852 C 93.4042 -1.51086 1.2517 0
M  V30 853 O 92.5292 -2.09023 0.560217 0
M  V30 854 C 93.1242 -0.290784 3.3755 0
M  V30 855 C 91.6832 -0.721705 3.69416 0
M  V30 856 C 90.8302 0.152622 2.7688 0
M  V30 857 H 93.7812 0.550237 1.48856 0
M  V30 858 H 93.8022 -1.12058 3.63625 0
M  V30 859 H 93.3142 0.695068 3.81825 0
M  V30 860 H 91.4152 -1.71706 3.30678 0
M  V30 861 H 91.5282 -0.520869 4.7626 0
M  V30 862 H 89.8922 -0.372894 2.51956 0
M  V30 863 H 90.6752 1.13536 3.23982 0
M  V30 864 N 93.1203 -1.57491 0.0584922 0
M  V30 865 C 94.0303 -2.15448 -0.928414 0
M  V30 866 C 95.0463 -1.11416 -1.3365 0
M  V30 867 O 96.2223 -1.4362 -1.41193 0
M  V30 868 C 93.2873 -2.69393 -2.18239 0
M  V30 869 C 92.3483 -3.88249 -1.83196 0
M  V30 870 C 91.5813 -4.39613 -3.02616 0
M  V30 871 O 91.8043 -3.90023 -4.16219 0
M  V30 872 O 90.7383 -5.31111 -2.83204 0
M  V30 873 H 94.5643 -3.00112 -0.465483 0
M  V30 874 H 92.1493 -1.48499 -0.163826 0
M  V30 875 H 94.0313 -3.04026 -2.91798 0
M  V30 876 H 92.7063 -1.87796 -2.63656 0
M  V30 877 H 91.6133 -3.58492 -1.06931 0
M  V30 878 H 92.9463 -4.71098 -1.42573 0
M  V30 879 N 94.5984 0.214957 -1.56127 0
M  V30 880 C 95.8464 0.936518 -1.79091 0
M  V30 881 C 96.1674 1.84606 -0.628148 0
M  V30 882 O 95.4374 1.92664 0.35462 0
M  V30 883 H 94.0174 0.3488 -0.660566 0
M  V30 884 H 96.6794 0.22523 -1.93594 0
M  V30 885 H 95.7754 1.53943 -2.71492 0
M  V30 886 N 96.0765 1.50051 0.48192 0
M  V30 887 C 97.4875 1.5348 1.06305 0
M  V30 888 C 97.8385 0.331997 1.93371 0
M  V30 889 O 96.9635 -0.556256 2.09129 0
M  V30 890 C 97.5585 2.7813 1.93466 0
M  V30 891 C 96.1175 2.84275 2.46707 0
M  V30 892 C 95.2645 2.47637 1.24785 0
M  V30 893 H 98.2155 1.56472 0.264995 0
M  V30 894 H 98.2365 2.59372 2.78399 0
M  V30 895 H 97.7485 3.65654 1.30072 0
M  V30 896 H 95.8495 2.01077 3.13686 0
M  V30 897 H 95.9625 3.8691 2.82555 0
M  V30 898 H 94.3265 1.99835 1.57918 0
M  V30 899 H 95.1095 3.37457 0.630694 0
M  V30 900 N 97.5546 -0.734337 1.39446 0
M  V30 901 C 98.5016 -1.84835 1.38219 0
M  V30 902 C 99.4716 -1.64331 0.24179 0
M  V30 903 O 100.657 -1.85728 0.437002 0
M  V30 904 C 97.7966 -3.22355 1.23212 0
M  V30 905 C 96.9096 -3.5456 2.46801 0
M  V30 906 C 96.0446 -4.81485 2.24377 0
M  V30 907 C 95.0836 -5.06536 3.43639 0
M  V30 908 N 94.2206 -6.24665 3.20528 0
M  V30 909 H 99.0606 -1.85219 2.33448 0
M  V30 910 H 96.5976 -0.905039 1.15963 0
M  V30 911 H 98.5556 -4.0174 1.12522 0
M  V30 912 H 97.1856 -3.21248 0.316121 0
M  V30 913 H 96.2376 -2.69872 2.68092 0
M  V30 914 H 97.5496 -3.6899 3.3563 0
M  V30 915 H 96.7036 -5.68852 2.10933 0
M  V30 916 H 95.4426 -4.6923 1.32944 0
M  V30 917 H 94.4476 -4.17632 3.5758 0
M  V30 918 H 95.6726 -5.20676 4.35974 0
M  V30 919 H 93.6186 -6.13696 2.3176 0
M  V30 920 H 93.5356 -6.39685 4.02913 0
M  V30 921 H 94.8036 -7.14868 3.10779 0
M  V30 922 N 99.0327 -1.24633 -0.964593 0
M  V30 923 C 100.28 -1.08788 -1.70796 0
M  V30 924 C 100.608 0.372783 -1.90894 0
M  V30 925 O 99.8627 1.29167 -1.47018 0
M  V30 926 C 100.162 -1.7763 -3.10133 0
M  V30 927 C 99.8277 -3.27557 -3.09866 0
M  V30 928 C 98.4897 -3.6846 -3.09501 0
M  V30 929 C 100.842 -4.23389 -3.03959 0
M  V30 930 C 98.1697 -5.03624 -3.00965 0
M  V30 931 C 100.522 -5.58565 -2.96965 0
M  V30 932 C 99.1857 -5.98809 -2.9493 0
M  V30 933 H 98.4557 -0.398084 -0.624988 0
M  V30 934 H 101.103 -1.54777 -1.12767 0
M  V30 935 H 99.4077 -1.24044 -3.71645 0
M  V30 936 H 101.105 -1.62832 -3.66451 0
M  V30 937 H 97.6947 -2.95006 -3.10917 0
M  V30 938 H 101.879 -3.92787 -3.03368 0
M  V30 939 H 97.1347 -5.33998 -2.97752 0
M  V30 940 H 101.309 -6.32523 -2.91354 0
M  V30 941 H 98.9357 -7.03505 -2.88071 0
M  V30 942 N 100.511 1.16574 -1.06058 0
M  V30 943 C 101.922 1.68662 -0.800632 0
M  V30 944 C 102.273 1.84184 0.67608 0
M  V30 945 O 101.398 1.53568 1.52466 0
M  V30 946 C 101.993 3.06356 -1.44676 0
M  V30 947 C 100.552 3.55575 -1.23465 0
M  V30 948 C 99.6988 2.31616 -1.52477 0
M  V30 949 H 102.65 1.00969 -1.22438 0
M  V30 950 H 102.671 3.70636 -0.860788 0
M  V30 951 H 102.183 2.95027 -2.52152 0
M  V30 952 H 100.284 3.72167 -0.179527 0
M  V30 953 H 100.397 4.37812 -1.94571 0
M  V30 954 H 98.7608 2.36512 -0.945209 0
M  V30 955 H 99.5438 2.22887 -2.61106 0
M  V30 956 N 101.989 0.842826 1.3317 0
M  V30 957 C 103.405 0.531128 1.50503 0
M  V30 958 C 103.605 -0.940734 1.78192 0
M  V30 959 O 102.661 -1.72436 1.84451 0
M  V30 960 C 103.974 1.40789 2.65705 0
M  V30 961 C 105.522 1.40708 2.79589 0
M  V30 962 C 105.997 2.26878 3.97857 0
M  V30 963 N 107.488 2.24609 4.05099 0
M  V30 964 C 108.223 2.88019 4.95815 0
M  V30 965 N 107.719 3.60496 5.9162 0
M  V30 966 N 109.512 2.77469 4.88843 0
M  V30 967 H 101.663 1.79557 1.1346 0
M  V30 968 H 103.926 0.766267 0.558156 0
M  V30 969 H 103.632 2.454 2.51936 0
M  V30 970 H 103.506 1.08677 3.61205 0
M  V30 971 H 105.893 0.368668 2.92788 0
M  V30 972 H 105.974 1.76829 1.84838 0
M  V30 973 H 105.618 3.3078 3.85418 0
M  V30 974 H 105.548 1.88096 4.91861 0
M  V30 975 H 108.039 1.71906 3.36536 0
M  V30 976 H 108.352 4.06076 6.57512 0
M  V30 977 H 106.697 3.64604 5.91683 0
M  V30 978 H 109.888 2.20406 4.12963 0
M  V30 979 H 110.061 3.2717 5.59342 0
M  V30 980 N 103.467 -1.45747 0.599634 0
M  V30 981 C 104.713 -2.02592 0.0918643 0
M  V30 982 C 105.046 -1.46806 -1.27128 0
M  V30 983 O 104.321 -0.639658 -1.83681 0
M  V30 984 C 104.604 -3.60073 0.0443398 0
M  V30 985 C 104.457 -4.26208 1.43759 0
M  V30 986 C 105.776 -4.35309 -0.647608 0
M  V30 987 H 102.895 -0.736175 0.034857 0
M  V30 988 H 105.537 -1.73694 0.770081 0
M  V30 989 H 103.687 -3.84823 -0.533224 0
M  V30 990 H 105.359 -4.12668 2.06162 0
M  V30 991 H 103.602 -3.84916 2.00056 0
M  V30 992 H 104.273 -5.35069 1.35665 0
M  V30 993 H 106.749 -4.15805 -0.156776 0
M  V30 994 H 105.625 -5.45038 -0.649942 0
M  V30 995 H 105.886 -4.07598 -1.71219 0
M  V30 996 N 104.945 -0.338344 -1.53925 0
M  V30 997 C 105.892 0.520845 -2.24846 0
M  V30 998 C 106.862 1.09976 -1.24477 0
M  V30 999 O 108.047 1.13735 -1.53196 0
M  V30 1000 C 105.187 1.6685 -3.02084 0
M  V30 1001 C 104.3 1.11739 -4.17299 0
M  V30 1002 C 103.435 2.23193 -4.82036 0
M  V30 1003 C 102.474 1.65407 -5.89328 0
M  V30 1004 N 101.611 2.70582 -6.47866 0
M  V30 1005 H 106.451 -0.0904881 -2.97863 0
M  V30 1006 H 103.988 -0.0564282 -1.46992 0
M  V30 1007 H 105.946 2.34407 -3.45122 0
M  V30 1008 H 104.576 2.2509 -2.31375 0
M  V30 1009 H 103.628 0.332919 -3.7894 0
M  V30 1010 H 104.94 0.654677 -4.94485 0
M  V30 1011 H 104.094 2.98626 -5.28117 0
M  V30 1012 H 102.833 2.72807 -4.04262 0
M  V30 1013 H 101.838 0.884779 -5.42634 0
M  V30 1014 H 103.063 1.16652 -6.69006 0
M  V30 1015 H 101.009 3.1946 -5.72959 0
M  V30 1016 H 100.926 2.28917 -7.20509 0
M  V30 1017 H 102.194 3.45799 -6.98601 0
M  V30 1018 N 106.423 1.57458 -0.0668435 0
M  V30 1019 C 107.371 2.13639 0.919851 0
M  V30 1020 C 108.365 1.07204 1.31163 0
M  V30 1021 O 109.571 1.25591 1.28945 0
M  V30 1022 H 105.946 0.683048 0.314562 0
M  V30 1023 H 107.917 2.95415 0.421047 0
M  V30 1024 C 106.666 2.70892 2.17975 0
M  V30 1025 H 105.989 3.5246 1.88711 0
M  V30 1026 H 107.429 3.13803 2.85138 0
M  V30 1027 C 105.888 1.65414 2.93496 0
M  V30 1028 O 106.418 1.07619 3.87015 0
M  V30 1029 N 104.624 1.36564 2.56512 0
M  V30 1030 H 104.171 1.83751 1.80536 0
M  V30 1031 H 104.129 0.66223 3.07347 0
M  V30 1032 N 107.901 -0.206675 1.56239 0
M  V30 1033 C 109.147 -0.925733 1.81113 0
M  V30 1034 C 109.502 -1.81368 0.642135 0
M  V30 1035 O 108.795 -1.88126 -0.363211 0
M  V30 1036 C 108.989 -1.78675 3.09532 0
M  V30 1037 C 108.818 -0.98365 4.3881 0
M  V30 1038 C 107.588 -0.672661 5.00803 0
M  V30 1039 C 109.786 -0.341847 5.13163 0
M  V30 1040 N 107.768 0.150283 6.13716 0
M  V30 1041 C 109.139 0.343815 6.19046 0
M  V30 1042 C 111.194 -0.256392 4.97239 0
M  V30 1043 C 109.897 1.10678 7.10734 0
M  V30 1044 C 111.923 0.493142 5.8934 0
M  V30 1045 C 111.285 1.16729 6.94661 0
M  V30 1046 H 107.384 -0.318524 0.714189 0
M  V30 1047 H 109.968 -0.195378 1.93717 0
M  V30 1048 H 108.139 -2.4888 2.98183 0
M  V30 1049 H 109.871 -2.44441 3.22538 0
M  V30 1050 H 106.626 -0.994294 4.63045 0
M  V30 1051 H 107.05 0.551026 6.74754 0
M  V30 1052 H 111.692 -0.763249 4.15854 0
M  V30 1053 H 109.41 1.6251 7.91591 0
M  V30 1054 H 112.996 0.560465 5.79094 0
M  V30 1055 H 111.876 1.738 7.64698 0
M  V30 1056 N 109.379 -1.50304 -0.473955 0
M  V30 1057 C 110.289 -1.7174 -1.5982 0
M  V30 1058 C 111.305 -0.600457 -1.63311 0
M  V30 1059 O 112.481 -0.878441 -1.81233 0
M  V30 1060 C 109.546 -1.80427 -2.96052 0
M  V30 1061 C 108.607 -3.04148 -3.02972 0
M  V30 1062 C 107.84 -3.12411 -4.32706 0
M  V30 1063 O 108.063 -2.27542 -5.23049 0
M  V30 1064 O 106.997 -4.05113 -4.45159 0
M  V30 1065 H 110.823 -2.67035 -1.44657 0
M  V30 1066 H 108.408 -1.34366 -0.653148 0
M  V30 1067 H 110.29 -1.88338 -3.7697 0
M  V30 1068 H 108.965 -0.883156 -3.11419 0
M  V30 1069 H 107.872 -3.0174 -2.21142 0
M  V30 1070 H 109.205 -3.95829 -2.92541 0
M  V30 1071 N 110.857 0.726932 -1.39834 0
M  V30 1072 C 112.103 1.48884 -1.377 0
M  V30 1073 C 112.436 1.94185 0.0244852 0
M  V30 1074 O 111.711 1.67361 0.990986 0
M  V30 1075 C 111.994 2.72288 -2.3565 0
M  V30 1076 C 111.847 2.32956 -3.84775 0
M  V30 1077 C 113.166 3.74414 -2.31306 0
M  V30 1078 H 110.285 0.540062 -0.5015 0
M  V30 1079 H 112.927 0.830547 -1.70886 0
M  V30 1080 H 111.077 3.28457 -2.07481 0
M  V30 1081 H 112.749 1.82356 -4.23726 0
M  V30 1082 H 110.992 1.65088 -4.01159 0
M  V30 1083 H 111.663 3.21362 -4.4881 0
M  V30 1084 H 114.139 3.27849 -2.56231 0
M  V30 1085 H 113.015 4.58414 -3.01907 0
M  V30 1086 H 113.276 4.21909 -1.32081 0
M  V30 1087 N 112.336 1.25143 0.95797 0
M  V30 1088 C 113.584 1.09476 1.69881 0
M  V30 1089 C 113.905 -0.365502 1.91544 0
M  V30 1090 O 113.175 -1.25985 1.50015 0
M  V30 1091 H 111.755 0.402128 0.629525 0
M  V30 1092 H 114.417 1.57214 1.15194 0
M  V30 1093 H 113.513 1.60046 2.6794 0
M  V30 1094 N 113.814 -1.1601 1.06675 0
M  V30 1095 C 115.039 -1.91068 0.806706 0
M  V30 1096 C 115.464 -1.77112 -0.633485 0
M  V30 1097 O 114.822 -1.09908 -1.44187 0
M  V30 1098 C 114.87 -3.39655 1.21106 0
M  V30 1099 O 113.974 -4.10893 0.352189 0
M  V30 1100 H 113.315 -0.595125 0.294486 0
M  V30 1101 H 115.845 -1.46955 1.42356 0
M  V30 1102 H 115.855 -3.90434 1.18428 0
M  V30 1103 H 114.53 -3.49132 2.26008 0
M  V30 1104 H 113.107 -3.70285 0.440868 0
M  V30 1105 N 115.292 -0.849877 -1.32721 0
M  V30 1106 C 116.541 -0.447175 -1.96681 0
M  V30 1107 C 116.854 1.00135 -1.68025 0
M  V30 1108 O 118.06 1.50926 -2.25685 0
M  V30 1109 C 116.516 -0.7487 -3.52026 0
M  V30 1110 C 116.124 -2.21264 -3.89546 0
M  V30 1111 C 117.868 -0.413487 -4.22481 0
M  V30 1112 C 115.775 -2.45763 -5.37917 0
M  V30 1113 H 114.705 -0.163486 -0.736063 0
M  V30 1114 H 117.356 -1.03999 -1.51183 0
M  V30 1115 H 115.738 -0.0853727 -3.95908 0
M  V30 1116 H 116.912 -2.91736 -3.56689 0
M  V30 1117 H 115.227 -2.5119 -3.32103 0
M  V30 1118 H 117.824 -0.574017 -5.3161 0
M  V30 1119 H 118.167 0.644492 -4.11281 0
M  V30 1120 H 118.7 -1.03251 -3.84167 0
M  V30 1121 H 115.439 -3.50168 -5.54132 0
M  V30 1122 H 114.959 -1.79864 -5.72197 0
M  V30 1123 H 116.638 -2.29471 -6.0494 0
M  V30 1124 N 116.77 1.45427 -0.607355 0
M  V30 1125 C 117.998 2.06614 -0.108814 0
M  V30 1126 C 118.413 1.45204 1.2067 0
M  V30 1127 O 117.77 0.566132 1.73497 0
M  V30 1128 C 117.821 3.61481 0.0375347 0
M  V30 1129 O 117.542 4.20598 -1.22593 0
M  V30 1130 C 119.043 4.39652 0.567561 0
M  V30 1131 H 116.263 0.66747 -0.0687351 0
M  V30 1132 H 118.807 1.86675 -0.835022 0
M  V30 1133 H 116.962 3.80762 0.714068 0
M  V30 1134 H 117.376 5.1377 -1.05547 0
M  V30 1135 H 118.85 5.48518 0.61905 0
M  V30 1136 H 119.327 4.09417 1.58978 0
M  V30 1137 H 119.933 4.25234 -0.0749202 0
M  V30 1138 N 118.248 0.346503 1.53744 0
M  V30 1139 C 119.478 -0.250047 2.05081 0
M  V30 1140 C 119.886 -1.44529 1.22098 0
M  V30 1141 O 119.229 -1.81992 0.249917 0
M  V30 1142 C 119.291 -0.725934 3.52094 0
M  V30 1143 C 118.955 0.350053 4.55657 0
M  V30 1144 C 119.952 1.19372 5.0601 0
M  V30 1145 C 117.637 0.504827 4.99757 0
M  V30 1146 C 119.631 2.17768 5.99046 0
M  V30 1147 C 117.318 1.49218 5.92602 0
M  V30 1148 C 118.316 2.32706 6.42135 0
M  V30 1149 O 118.004 3.2976 7.33153 0
M  V30 1150 H 117.736 -0.0515469 0.674032 0
M  V30 1151 H 120.29 0.497559 1.99282 0
M  V30 1152 H 118.52 -1.52483 3.55367 0
M  V30 1153 H 120.209 -1.24336 3.86388 0
M  V30 1154 H 120.975 1.08525 4.72702 0
M  V30 1155 H 116.854 -0.135178 4.60802 0
M  V30 1156 H 120.398 2.82971 6.37631 0
M  V30 1157 H 116.295 1.6012 6.25325 0
M  V30 1158 H 117.063 3.25265 7.51096 0
M  V30 1159 N 119.726 -1.57421 0.075193 0
M  V30 1160 C 121.003 -1.85029 -0.634329 0
M  V30 1161 C 121.383 -0.968305 -1.87582 0
M  V30 1162 O 120.731 -0.0354749 -2.28472 0
M  V30 1163 C 120.941 -3.35286 -0.968742 0
M  V30 1164 C 122.289 -4.02875 -1.34077 0
M  V30 1165 O 123.313 -3.40051 -1.06037 0
M  V30 1166 O 122.172 -5.13691 -1.86506 0
M  V30 1167 H 119.266 -0.7645 -0.315387 0
M  V30 1168 H 121.812 -1.69366 0.106382 0
M  V30 1169 H 120.584 -3.91203 -0.0871376 0
M  V30 1170 H 120.207 -3.56223 -1.7661 0
M  V30 1171 N 121.204 0.198386 -1.56346 0
M  V30 1172 C 122.432 0.935572 -1.84539 0
M  V30 1173 C 122.847 1.76989 -0.657281 0
M  V30 1174 O 122.204 1.78626 0.374043 0
M  V30 1175 C 122.255 1.8344 -3.11499 0
M  V30 1176 O 121.976 1.03377 -4.25728 0
M  V30 1177 C 123.477 2.68355 -3.52846 0
M  V30 1178 H 120.697 0.273126 -0.612897 0
M  V30 1179 H 123.241 0.20663 -2.03453 0
M  V30 1180 H 121.396 2.51701 -2.94492 0
M  V30 1181 H 121.81 1.64599 -4.98003 0
M  V30 1182 H 123.284 3.27085 -4.44657 0
M  V30 1183 H 123.761 3.41901 -2.75681 0
M  V30 1184 H 124.367 2.05471 -3.72373 0
M  V30 1185 N 122.682 1.50554 0.465978 0
M  V30 1186 C 123.612 1.72722 1.57128 0
M  V30 1187 C 124.593 0.576294 1.6004 0
M  V30 1188 O 125.778 0.81598 1.76225 0
M  V30 1189 C 122.908 1.82605 2.95419 0
M  V30 1190 C 121.862 2.97835 3.07373 0
M  V30 1191 C 121.188 2.92867 4.47363 0
M  V30 1192 C 122.488 4.38265 2.84114 0
M  V30 1193 H 124.182 2.65267 1.38829 0
M  V30 1194 H 121.728 1.2765 0.666441 0
M  V30 1195 H 123.681 1.96698 3.72677 0
M  V30 1196 H 122.405 0.866858 3.14886 0
M  V30 1197 H 121.064 2.83401 2.3255 0
M  V30 1198 H 120.712 1.94783 4.63755 0
M  V30 1199 H 120.412 3.70227 4.56296 0
M  V30 1200 H 121.936 3.09015 5.26633 0
M  V30 1201 H 123.35 4.53198 3.51118 0
M  V30 1202 H 121.747 5.17115 3.04487 0
M  V30 1203 H 122.817 4.50281 1.7993 0
M  V30 1204 N 124.16 -0.719506 1.40217 0
M  V30 1205 C 125.385 -1.51371 1.4178 0
M  V30 1206 C 125.81 -1.88091 0.0182355 0
M  V30 1207 O 125.168 -1.52997 -0.972707 0
M  V30 1208 C 125.216 -2.768 2.31115 0
M  V30 1209 O 124.32 -3.73349 1.7517 0
M  V30 1210 H 123.661 -0.456529 0.482159 0
M  V30 1211 H 126.191 -0.88644 1.844 0
M  V30 1212 H 126.201 -3.25371 2.46167 0
M  V30 1213 H 124.876 -2.49407 3.3282 0
M  V30 1214 H 123.453 -3.32179 1.69444 0
M  V30 1215 N 125.638 -1.25649 -0.95132 0
M  V30 1216 C 126.601 -1.06399 -2.03007 0
M  V30 1217 C 127.601 -0.0156794 -1.60792 0
M  V30 1218 O 128.791 -0.25817 -1.72276 0
M  V30 1219 C 125.923 -0.616184 -3.35285 0
M  V30 1220 H 127.116 -2.02164 -2.21517 0
M  V30 1221 H 124.669 -1.08103 -1.12887 0
M  V30 1222 H 125.404 0.343917 -3.22471 0
M  V30 1223 H 125.189 -1.37301 -3.67275 0
M  V30 1224 H 126.679 -0.503032 -4.14559 0
M  V30 1225 N 127.117 1.15442 -1.07289 0
M  V30 1226 C 128.049 2.19773 -0.650585 0
M  V30 1227 C 129.062 1.60076 0.296572 0
M  V30 1228 O 130.251 1.78293 0.0859905 0
M  V30 1229 C 127.351 3.38838 0.0650398 0
M  V30 1230 C 126.524 4.2808 -0.898141 0
M  V30 1231 C 125.583 5.2574 -0.219926 0
M  V30 1232 O 124.609 5.62654 -0.860773 0
M  V30 1233 N 125.811 5.71205 1.03466 0
M  V30 1234 H 128.576 2.56622 -1.54808 0
M  V30 1235 H 126.137 1.30551 -0.957494 0
M  V30 1236 H 128.129 4.01222 0.529415 0
M  V30 1237 H 126.699 3.00409 0.864466 0
M  V30 1238 H 125.919 3.62804 -1.54165 0
M  V30 1239 H 127.207 4.84577 -1.5512 0
M  V30 1240 H 126.605 5.43325 1.57526 0
M  V30 1241 H 125.162 6.35633 1.44272 0
M  V30 1242 N 128.595 0.856903 1.32268 0
M  V30 1243 C 129.558 0.308171 2.27119 0
M  V30 1244 C 130.558 -0.533421 1.51695 0
M  V30 1245 O 131.748 -0.344607 1.70757 0
M  V30 1246 C 128.88 -0.563757 3.36206 0
M  V30 1247 H 130.073 1.14535 2.77167 0
M  V30 1248 H 127.626 0.631421 1.42978 0
M  V30 1249 H 128.361 -1.42266 2.91429 0
M  V30 1250 H 128.146 0.0386749 3.92081 0
M  V30 1251 H 129.636 -0.940386 4.06874 0
M  V30 1252 N 130.073 -1.45103 0.615059 0
M  V30 1253 C 131.005 -2.28786 -0.13762 0
M  V30 1254 C 132.018 -1.40376 -0.824525 0
M  V30 1255 O 133.207 -1.64681 -0.688662 0
M  V30 1256 C 130.307 -3.16322 -1.21628 0
M  V30 1257 C 129.48 -4.33054 -0.615039 0
M  V30 1258 C 128.539 -5.01743 -1.58556 0
M  V30 1259 O 127.565 -5.58293 -1.10895 0
M  V30 1260 N 128.767 -5.01714 -2.91998 0
M  V30 1261 H 131.532 -2.94025 0.580483 0
M  V30 1262 H 129.093 -1.55373 0.45507 0
M  V30 1263 H 131.085 -3.59139 -1.86552 0
M  V30 1264 H 129.655 -2.52943 -1.83681 0
M  V30 1265 H 128.875 -3.93627 0.21245 0
M  V30 1266 H 130.163 -5.08431 -0.193704 0
M  V30 1267 H 129.561 -4.57075 -3.33316 0
M  V30 1268 H 128.118 -5.48371 -3.52325 0
M  V30 1269 N 131.551 -0.354651 -1.53558 0
M  V30 1270 C 132.483 0.5315 -2.22952 0
M  V30 1271 C 133.496 1.05503 -1.23988 0
M  V30 1272 O 134.685 0.963279 -1.50277 0
M  V30 1273 C 131.785 1.74538 -2.90499 0
M  V30 1274 C 130.958 1.35524 -4.15875 0
M  V30 1275 C 130.017 2.42999 -4.66731 0
M  V30 1276 O 129.043 2.05844 -5.30676 0
M  V30 1277 N 130.245 3.74423 -4.43608 0
M  V30 1278 H 133.01 -0.0628615 -2.99634 0
M  V30 1279 H 130.571 -0.179302 -1.60904 0
M  V30 1280 H 132.563 2.45892 -3.21433 0
M  V30 1281 H 131.133 2.24686 -2.17336 0
M  V30 1282 H 130.353 0.471998 -3.91364 0
M  V30 1283 H 131.641 1.07071 -4.97406 0
M  V30 1284 H 131.039 4.07391 -3.92491 0
M  V30 1285 H 129.596 4.41913 -4.7912 0
M  V30 1286 N 133.029 1.57378 -0.0835403 0
M  V30 1287 C 134.306 1.85363 0.624507 0
M  V30 1288 C 134.686 0.978239 1.87066 0
M  V30 1289 O 134.034 0.0475908 2.2845 0
M  V30 1290 C 134.244 3.35795 0.950947 0
M  V30 1291 C 135.592 4.03581 1.31939 0
M  V30 1292 O 136.616 3.40609 1.04232 0
M  V30 1293 O 135.475 5.14672 1.83779 0
M  V30 1294 H 132.569 0.766162 0.311329 0
M  V30 1295 H 135.115 1.69307 -0.115362 0
M  V30 1296 H 133.887 3.91244 0.0663899 0
M  V30 1297 H 133.51 3.57154 1.74719 0
M  V30 1298 N 134.507 -0.190092 1.56449 0
M  V30 1299 C 135.755 -0.907908 1.80559 0
M  V30 1300 C 136.076 -1.83583 0.657438 0
M  V30 1301 O 135.346 -1.93203 -0.323924 0
M  V30 1302 H 133.926 -0.338247 0.666032 0
M  V30 1303 H 136.588 -0.194403 1.93928 0
M  V30 1304 H 135.684 -1.49604 2.73907 0
M  V30 1305 N 135.985 -1.50799 -0.457987 0
M  V30 1306 C 137.396 -1.55152 -1.0385 0
M  V30 1307 C 137.747 -0.362719 -1.92818 0
M  V30 1308 O 136.872 0.522915 -2.09987 0
M  V30 1309 C 137.467 -2.81173 -1.89017 0
M  V30 1310 C 136.026 -2.88164 -2.42154 0
M  V30 1311 C 135.173 -2.49591 -1.20829 0
M  V30 1312 H 138.124 -1.56874 -0.240068 0
M  V30 1313 H 138.145 -2.63769 -2.74238 0
M  V30 1314 H 137.657 -3.67677 -1.24238 0
M  V30 1315 H 135.758 -2.06042 -3.10447 0
M  V30 1316 H 135.871 -3.91356 -2.76364 0
M  V30 1317 H 134.235 -2.02322 -1.54719 0
M  V30 1318 H 135.018 -3.38418 -0.576927 0
M  V30 1319 N 137.463 0.71206 -1.40597 0
M  V30 1320 C 138.703 1.48438 -1.40519 0
M  V30 1321 C 139.067 1.91998 -0.00767611 0
M  V30 1322 O 140.268 2.6854 0.118239 0
M  V30 1323 C 138.539 2.67514 -2.37004 0
M  V30 1324 S 140.098 3.56875 -2.55315 0
M  V30 1325 H 136.916 0.507457 -0.498005 0
M  V30 1326 H 139.518 0.832355 -1.76896 0
M  V30 1327 H 138.222 2.33689 -3.37368 0
M  V30 1328 H 137.753 3.37625 -2.01923 0
M  V30 1329 H 139.768 4.62081 -1.8082 0
M  V30 1330 N 138.941 1.26152 0.944643 0
M  V30 1331 C 140.169 1.14259 1.72489 0
M  V30 1332 C 140.584 -0.302555 1.8636 0
M  V30 1333 O 139.941 -1.20741 1.36849 0
M  V30 1334 C 139.992 1.80266 3.13347 0
M  V30 1335 O 139.713 3.19133 3.00143 0
M  V30 1336 C 141.214 1.74283 4.07603 0
M  V30 1337 H 138.434 0.398051 0.540181 0
M  V30 1338 H 140.978 1.66706 1.18446 0
M  V30 1339 H 139.133 1.31766 3.64303 0
M  V30 1340 H 139.547 3.51744 3.89071 0
M  V30 1341 H 141.021 2.25111 5.04013 0
M  V30 1342 H 141.498 0.708631 4.33446 0
M  V30 1343 H 142.104 2.22319 3.62567 0
M  V30 1344 N 140.419 -1.14872 1.07899 0
M  V30 1345 C 141.83 -1.67367 0.827363 0
M  V30 1346 C 142.181 -1.85236 -0.646693 0
M  V30 1347 O 141.306 -1.55974 -1.50004 0
M  V30 1348 C 141.901 -3.04016 1.49532 0
M  V30 1349 C 140.46 -3.53566 1.29106 0
M  V30 1350 C 139.607 -2.29161 1.56143 0
M  V30 1351 H 142.558 -0.990083 1.24028 0
M  V30 1352 H 142.579 -3.69219 0.919643 0
M  V30 1353 H 142.091 -2.90978 2.56814 0
M  V30 1354 H 140.192 -3.71835 0.238713 0
M  V30 1355 H 140.305 -4.34661 2.01511 0
M  V30 1356 H 138.669 -2.34978 0.982717 0
M  V30 1357 H 139.452 -2.18705 2.64619 0
M  V30 1358 N 141.898 -0.863906 -1.31812 0
M  V30 1359 C 143.314 -0.555004 -1.49639 0
M  V30 1360 C 143.514 0.912266 -1.79666 0
M  V30 1361 O 142.57 1.69479 -1.87171 0
M  V30 1362 C 143.883 -1.44998 -2.63431 0
M  V30 1363 C 145.431 -1.45138 -2.77316 0
M  V30 1364 C 145.906 -2.33179 -3.94197 0
M  V30 1365 N 147.397 -2.31025 -4.01474 0
M  V30 1366 C 148.132 -2.95871 -4.9117 0
M  V30 1367 N 147.628 -3.69863 -5.8581 0
M  V30 1368 N 149.421 -2.85211 -4.84367 0
M  V30 1369 H 141.572 -1.81339 -1.10589 0
M  V30 1370 H 143.835 -0.77505 -0.545895 0
M  V30 1371 H 143.541 -2.49377 -2.48 0
M  V30 1372 H 143.415 -1.14409 -3.59431 0
M  V30 1373 H 145.802 -0.415201 -2.92164 0
M  V30 1374 H 145.883 -1.79747 -1.82001 0
M  V30 1375 H 145.527 -3.3687 -3.80107 0
M  V30 1376 H 145.457 -1.95897 -4.88807 0
M  V30 1377 H 147.948 -1.77238 -3.33759 0
M  V30 1378 H 148.261 -4.16486 -6.50968 0
M  V30 1379 H 146.606 -3.73971 -5.85808 0
M  V30 1380 H 149.797 -2.26948 -4.09405 0
M  V30 1381 H 149.97 -3.36027 -5.54066 0
M  V30 1382 N 143.376 1.44774 -0.622745 0
M  V30 1383 C 144.792 1.56986 -0.287652 0
M  V30 1384 C 144.992 1.61167 1.20944 0
M  V30 1385 O 144.048 1.55015 1.99315 0
M  V30 1386 C 145.361 2.84551 -0.972188 0
M  V30 1387 C 146.909 2.9825 -0.949536 0
M  V30 1388 C 147.384 4.28605 -1.61437 0
M  V30 1389 N 148.875 4.35399 -1.58057 0
M  V30 1390 C 149.61 5.34964 -2.064 0
M  V30 1391 N 149.106 6.40981 -2.62897 0
M  V30 1392 N 150.899 5.26419 -1.97078 0
M  V30 1393 H 143.05 1.40304 -1.59463 0
M  V30 1394 H 145.313 0.671794 -0.668878 0
M  V30 1395 H 145.019 2.87417 -2.02693 0
M  V30 1396 H 144.893 3.73807 -0.504771 0
M  V30 1397 H 147.28 2.94941 0.0967067 0
M  V30 1398 H 147.361 2.10364 -1.45536 0
M  V30 1399 H 147.005 4.32672 -2.66002 0
M  V30 1400 H 146.935 5.15334 -1.08344 0
M  V30 1401 H 149.426 3.59397 -1.16801 0
M  V30 1402 H 149.739 7.13225 -2.97539 0
M  V30 1403 H 148.084 6.4169 -2.66943 0
M  V30 1404 H 151.275 4.42504 -1.52669 0
M  V30 1405 H 151.448 6.03861 -2.35066 0
M  V30 1406 N 144.854 0.36279 1.53368 0
M  V30 1407 C 146.094 -0.227882 2.03126 0
M  V30 1408 C 146.458 -1.4622 1.24434 0
M  V30 1409 O 147.659 -2.12831 1.64184 0
M  V30 1410 C 145.93 -0.515427 3.53664 0
M  V30 1411 S 147.489 -1.08017 4.25297 0
M  V30 1412 H 144.307 -0.0665377 0.70788 0
M  V30 1413 H 146.909 0.50501 1.88865 0
M  V30 1414 H 145.613 0.390436 4.08539 0
M  V30 1415 H 145.144 -1.27747 3.72081 0
M  V30 1416 H 147.159 -2.36462 4.36234 0
M  V30 1417 N 146.332 -1.57332 0.0918853 0
M  V30 1418 C 147.262 -2.16872 -0.865371 0
M  V30 1419 C 148.243 -1.10118 -1.29646 0
M  V30 1420 O 149.428 -1.38242 -1.36392 0
M  V30 1421 C 146.558 -2.74649 -2.12569 0
M  V30 1422 C 145.512 -3.86747 -1.83333 0
M  V30 1423 C 144.838 -4.31212 -3.16166 0
M  V30 1424 C 146.138 -5.10089 -1.1228 0
M  V30 1425 H 147.832 -2.97114 -0.369307 0
M  V30 1426 H 145.378 -1.42918 -0.176194 0
M  V30 1427 H 147.331 -3.14952 -2.7997 0
M  V30 1428 H 146.055 -1.91657 -2.64452 0
M  V30 1429 H 144.714 -3.46978 -1.18331 0
M  V30 1430 H 144.362 -3.45115 -3.6593 0
M  V30 1431 H 144.062 -5.06788 -2.97388 0
M  V30 1432 H 145.586 -4.74146 -3.84731 0
M  V30 1433 H 147 -5.47582 -1.69785 0
M  V30 1434 H 145.397 -5.91073 -1.03693 0
M  V30 1435 H 146.467 -4.84786 -0.105041 0
M  V30 1436 N 147.81 0.181792 -1.56548 0
M  V30 1437 C 149.058 0.89832 -1.81038 0
M  V30 1438 C 149.379 1.83232 -0.667164 0
M  V30 1439 O 148.649 1.93372 0.313673 0
M  V30 1440 H 147.229 0.33471 -0.667816 0
M  V30 1441 H 149.891 0.184116 -1.94028 0
M  V30 1442 H 148.987 1.4815 -2.74696 0
M  V30 1443 N 149.288 1.51039 0.449983 0
M  V30 1444 C 150.513 1.6715 1.22783 0
M  V30 1445 C 150.938 0.363081 1.84563 0
M  V30 1446 O 150.296 -0.675433 1.68249 0
M  V30 1447 C 150.344 2.77985 2.29689 0
M  V30 1448 O 149.448 2.40707 3.34864 0
M  V30 1449 H 148.789 0.557746 0.360299 0
M  V30 1450 H 151.319 1.97535 0.533005 0
M  V30 1451 H 151.329 3.01693 2.74673 0
M  V30 1452 H 150.004 3.72935 1.84098 0
M  V30 1453 H 148.581 2.27523 2.95445 0
M  V30 1454 N 150.766 -0.704594 1.40972 0
M  V30 1455 C 151.696 -1.83124 1.44872 0
M  V30 1456 C 152.677 -1.67281 0.30838 0
M  V30 1457 O 153.862 -1.87149 0.518556 0
M  V30 1458 C 150.992 -3.21181 1.32136 0
M  V30 1459 C 149.946 -3.51714 2.43888 0
M  V30 1460 C 149.272 -4.89032 2.16222 0
M  V30 1461 C 150.572 -3.516 3.86232 0
M  V30 1462 H 152.266 -1.80117 2.39161 0
M  V30 1463 H 149.812 -0.865145 1.15114 0
M  V30 1464 H 151.765 -3.99702 1.33479 0
M  V30 1465 H 150.489 -3.24791 0.343279 0
M  V30 1466 H 149.148 -2.75539 2.41813 0
M  V30 1467 H 148.796 -4.89256 1.16778 0
M  V30 1468 H 148.496 -5.10426 2.911 0
M  V30 1469 H 150.02 -5.69873 2.19265 0
M  V30 1470 H 151.434 -4.2014 3.9007 0
M  V30 1471 H 149.831 -3.84523 4.60719 0
M  V30 1472 H 150.901 -2.50757 4.15029 0
M  V30 1473 N 152.244 -1.26651 -0.937939 0
M  V30 1474 C 153.49 -1.12553 -1.687 0
M  V30 1475 C 153.823 0.329782 -1.91379 0
M  V30 1476 O 153.098 1.24202 -1.4968 0
M  V30 1477 C 153.381 -1.89862 -3.05981 0
M  V30 1478 C 153.234 -3.43318 -2.90607 0
M  V30 1479 C 154.553 -1.69499 -4.0615 0
M  V30 1480 H 151.672 -0.410257 -0.612257 0
M  V30 1481 H 154.314 -1.55685 -1.08913 0
M  V30 1482 H 152.464 -1.53204 -3.57017 0
M  V30 1483 H 154.136 -3.89747 -2.46769 0
M  V30 1484 H 152.379 -3.70179 -2.26164 0
M  V30 1485 H 153.05 -3.92642 -3.8799 0
M  V30 1486 H 155.526 -2.01442 -3.64088 0
M  V30 1487 H 154.402 -2.26002 -5.00214 0
M  V30 1488 H 154.663 -0.640365 -4.37438 0
M  V30 1489 N 153.722 1.14298 -1.08507 0
M  V30 1490 C 154.969 1.85359 -0.815373 0
M  V30 1491 C 155.297 1.83001 0.658865 0
M  V30 1492 O 154.552 1.25655 1.50031 0
M  V30 1493 C 154.851 3.33547 -1.28379 0
M  V30 1494 C 154.517 3.56093 -2.76602 0
M  V30 1495 C 153.179 3.61955 -3.17084 0
M  V30 1496 C 155.531 3.64834 -3.72217 0
M  V30 1497 C 152.859 3.74082 -4.51973 0
M  V30 1498 C 155.211 3.78487 -5.06883 0
M  V30 1499 C 153.875 3.82598 -5.46969 0
M  V30 1500 H 153.145 0.678276 -0.298366 0
M  V30 1501 H 155.792 1.35002 -1.35819 0
M  V30 1502 H 154.097 3.86191 -0.660593 0
M  V30 1503 H 155.794 3.86959 -1.05186 0
M  V30 1504 H 152.384 3.52179 -2.4427 0
M  V30 1505 H 156.568 3.59595 -3.42061 0
M  V30 1506 H 151.824 3.75527 -4.82483 0
M  V30 1507 H 155.998 3.84193 -5.80834 0
M  V30 1508 H 153.625 3.91747 -6.51489 0
M  V30 1509 N 155.201 0.870884 1.31352 0
M  V30 1510 C 156.612 0.534714 1.78879 0
M  V30 1511 C 156.963 -0.948423 1.71754 0
M  V30 1512 O 156.088 -1.74055 1.28584 0
M  V30 1513 C 156.683 0.963839 3.24801 0
M  V30 1514 C 155.242 0.679311 3.70219 0
M  V30 1515 C 154.389 1.15465 2.52117 0
M  V30 1516 H 157.34 1.05651 1.18421 0
M  V30 1517 H 157.361 0.286892 3.79417 0
M  V30 1518 H 156.873 2.04332 3.29955 0
M  V30 1519 H 154.974 -0.388769 3.70566 0
M  V30 1520 H 155.087 1.25698 4.62317 0
M  V30 1521 H 153.451 0.574383 2.48139 0
M  V30 1522 H 154.234 2.24157 2.60016 0
M  V30 1523 N 156.679 -1.44442 0.630414 0
M  V30 1524 C 158.095 -1.56832 0.295973 0
M  V30 1525 C 158.295 -1.61806 -1.20088 0
M  V30 1526 O 157.351 -1.5607 -1.9849 0
M  V30 1527 C 158.664 -2.84031 0.987264 0
M  V30 1528 C 160.212 -2.97742 0.96534 0
M  V30 1529 C 160.687 -4.27743 1.63708 0
M  V30 1530 N 162.178 -4.34555 1.60364 0
M  V30 1531 C 162.913 -5.33862 2.09234 0
M  V30 1532 N 162.409 -6.39578 2.66292 0
M  V30 1533 N 164.202 -5.25366 1.99867 0
M  V30 1534 H 156.353 -1.39457 1.60205 0
M  V30 1535 H 158.616 -0.668237 0.672431 0
M  V30 1536 H 158.322 -2.86338 2.04215 0
M  V30 1537 H 158.196 -3.73534 0.524588 0
M  V30 1538 H 160.583 -2.94989 -0.0810639 0
M  V30 1539 H 160.664 -2.09589 1.4665 0
M  V30 1540 H 160.308 -4.31255 2.68293 0
M  V30 1541 H 160.238 -5.14752 1.11076 0
M  V30 1542 H 162.729 -3.58772 1.18705 0
M  V30 1543 H 163.042 -7.11637 3.01317 0
M  V30 1544 H 161.387 -6.40265 2.70343 0
M  V30 1545 H 164.578 -4.41688 1.55013 0
M  V30 1546 H 164.751 -6.02606 2.38265 0
M  V30 1547 N 158.157 -0.370918 -1.53173 0
M  V30 1548 C 159.104 0.473035 -2.259 0
M  V30 1549 C 160.074 1.07311 -1.26781 0
M  V30 1550 O 161.259 1.1046 -1.55574 0
M  V30 1551 C 158.399 1.60405 -3.05556 0
M  V30 1552 C 157.512 1.02863 -4.19575 0
M  V30 1553 C 156.647 2.12918 -4.86661 0
M  V30 1554 C 155.686 1.52869 -5.92704 0
M  V30 1555 N 154.823 2.56779 -6.53459 0
M  V30 1556 H 159.663 -0.153649 -2.97604 0
M  V30 1557 H 157.2 -0.0875946 -1.46839 0
M  V30 1558 H 159.158 2.27034 -3.50016 0
M  V30 1559 H 157.788 2.20131 -2.36097 0
M  V30 1560 H 156.84 0.252465 -3.79561 0
M  V30 1561 H 158.152 0.549642 -4.95762 0
M  V30 1562 H 157.306 2.87356 -5.34333 0
M  V30 1563 H 156.045 2.6417 -4.09958 0
M  V30 1564 H 155.05 0.769479 -5.44389 0
M  V30 1565 H 156.275 1.02435 -6.7133 0
M  V30 1566 H 154.221 3.07235 -5.79606 0
M  V30 1567 H 154.138 2.13583 -7.25202 0
M  V30 1568 H 155.406 3.30903 -7.05779 0
M  V30 1569 N 159.635 1.57281 -0.100228 0
M  V30 1570 C 160.565 2.17328 0.853857 0
M  V30 1571 C 161.546 1.10804 1.2906 0
M  V30 1572 O 162.731 1.38963 1.35657 0
M  V30 1573 C 159.861 2.75772 2.11109 0
M  V30 1574 C 158.815 3.87713 1.81279 0
M  V30 1575 C 158.141 4.32882 3.13874 0
M  V30 1576 C 159.441 5.10677 1.09574 0
M  V30 1577 H 161.135 2.97305 0.353545 0
M  V30 1578 H 158.681 1.43009 0.168612 0
M  V30 1579 H 160.634 3.16433 2.78296 0
M  V30 1580 H 159.358 1.93057 2.63432 0
M  V30 1581 H 158.017 3.476 1.16489 0
M  V30 1582 H 157.665 3.47051 3.64095 0
M  V30 1583 H 157.365 5.08358 2.94696 0
M  V30 1584 H 158.889 4.7618 3.82211 0
M  V30 1585 H 160.303 5.48474 1.66879 0
M  V30 1586 H 158.7 5.91615 1.00557 0
M  V30 1587 H 159.77 4.84835 0.0793299 0
M  V30 1588 N 161.113 -0.173488 1.56642 0
M  V30 1589 C 162.045 -1.23935 1.92802 0
M  V30 1590 C 163.058 -1.40589 0.820889 0
M  V30 1591 O 164.247 -1.40631 1.09933 0
M  V30 1592 C 161.347 -2.60837 2.16373 0
M  V30 1593 C 160.52 -2.6551 3.47596 0
M  V30 1594 C 159.579 -3.8376 3.60021 0
M  V30 1595 O 158.605 -3.69859 4.32658 0
M  V30 1596 N 159.807 -5.00127 2.94709 0
M  V30 1597 H 162.572 -0.932236 2.84832 0
M  V30 1598 H 160.133 -0.363268 1.57772 0
M  V30 1599 H 162.125 -3.38407 2.21952 0
M  V30 1600 H 160.695 -2.83948 1.30738 0
M  V30 1601 H 159.915 -1.74052 3.53694 0
M  V30 1602 H 161.203 -2.65641 4.33949 0
M  V30 1603 H 160.601 -5.14322 2.35563 0
M  V30 1604 H 159.158 -5.75567 3.05886 0
M  V30 1605 N 162.591 -1.51276 -0.441967 0
M  V30 1606 C 163.839 -1.63392 -1.18943 0
M  V30 1607 C 164.16 -0.350159 -1.9183 0
M  V30 1608 O 163.43 0.633784 -1.85364 0
M  V30 1609 H 162.01 -0.602164 -0.442049 0
M  V30 1610 H 164.672 -1.88186 -0.507165 0
M  V30 1611 H 163.768 -2.45934 -1.92154 0
M  V30 1612 N 164.069 0.697108 -1.41344 0
M  V30 1613 C 165.485 1.00751 -1.2378 0
M  V30 1614 C 165.685 2.01105 -0.126066 0
M  V30 1615 O 164.741 2.47295 0.51004 0
M  V30 1616 C 166.054 1.53359 -2.58653 0
M  V30 1617 C 167.602 1.6525 -2.65822 0
M  V30 1618 C 168.077 2.2126 -4.01009 0
M  V30 1619 N 169.568 2.28622 -4.02847 0
M  V30 1620 C 170.303 2.72984 -5.04249 0
M  V30 1621 N 169.799 3.16962 -6.16041 0
M  V30 1622 N 171.592 2.72534 -4.91611 0
M  V30 1623 H 163.743 0.0322662 -2.12375 0
M  V30 1624 H 166.006 0.0768853 -0.944877 0
M  V30 1625 H 165.712 0.870773 -3.4075 0
M  V30 1626 H 165.586 2.51597 -2.81032 0
M  V30 1627 H 167.973 2.30644 -1.84086 0
M  V30 1628 H 168.054 0.655614 -2.47256 0
M  V30 1629 H 167.698 1.56482 -4.83193 0
M  V30 1630 H 167.628 3.21698 -4.16915 0
M  V30 1631 H 170.119 1.97585 -3.22131 0
M  V30 1632 H 170.432 3.49434 -6.89287 0
M  V30 1633 H 168.777 3.14875 -6.1958 0
M  V30 1634 H 171.968 2.37525 -4.0336 0
M  V30 1635 H 172.141 3.06789 -5.70775 0
M  V30 1636 N 165.547 1.27147 0.931209 0
M  V30 1637 C 166.958 1.12044 1.49342 0
M  V30 1638 C 167.309 -0.295795 1.93957 0
M  V30 1639 O 166.434 -1.18835 1.80852 0
M  V30 1640 C 167.029 2.02781 2.71414 0
M  V30 1641 C 165.588 1.91794 3.2387 0
M  V30 1642 C 164.735 1.95543 1.96617 0
M  V30 1643 H 167.686 1.40091 0.745672 0
M  V30 1644 H 167.707 1.58156 3.46074 0
M  V30 1645 H 167.219 3.05848 2.38911 0
M  V30 1646 H 165.32 0.916992 3.6114 0
M  V30 1647 H 165.433 2.77852 3.90302 0
M  V30 1648 H 163.797 1.39722 2.12955 0
M  V30 1649 H 164.58 3.00259 1.66432 0
M  V30 1650 N 167.025 -1.13721 1.09112 0
M  V30 1651 C 168.25 -1.89314 0.847053 0
M  V30 1652 C 168.675 -1.78416 -0.595774 0
M  V30 1653 O 168.033 -1.12942 -1.41823 0
M  V30 1654 C 168.081 -3.3701 1.28284 0
M  V30 1655 O 167.185 -4.10054 0.439267 0
M  V30 1656 H 166.526 -0.588745 0.307044 0
M  V30 1657 H 169.056 -1.43902 1.45442 0
M  V30 1658 H 169.066 -3.87834 1.26683 0
M  V30 1659 H 167.741 -3.4426 2.33363 0
M  V30 1660 H 166.318 -3.69266 0.519312 0
M  V30 1661 N 168.503 -0.877838 -1.30888 0
M  V30 1662 C 169.914 -0.544193 -1.78593 0
M  V30 1663 C 170.265 0.939301 -1.72254 0
M  V30 1664 O 169.39 1.7337 -1.29505 0
M  V30 1665 C 169.985 -0.98105 -3.24285 0
M  V30 1666 C 168.544 -0.698935 -3.69854 0
M  V30 1667 C 167.691 -1.168 -2.51502 0
M  V30 1668 H 170.642 -1.06278 -1.17859 0
M  V30 1669 H 170.663 -0.307009 -3.79259 0
M  V30 1670 H 170.175 -2.06079 -3.28866 0
M  V30 1671 H 168.276 0.369112 -3.70767 0
M  V30 1672 H 168.389 -1.28148 -4.61644 0
M  V30 1673 H 166.753 -0.587535 -2.47831 0
M  V30 1674 H 167.536 -2.25533 -2.58824 0
M  V30 1675 N 169.982 1.44106 -0.638065 0
M  V30 1676 C 171.23 2.01579 -0.145043 0
M  V30 1677 C 171.551 1.50496 1.24 0
M  V30 1678 O 170.821 0.711374 1.82527 0
M  V30 1679 H 169.401 0.745282 -0.05063 0
M  V30 1680 H 172.063 1.76516 -0.826327 0
M  V30 1681 H 171.159 3.11877 -0.118039 0
M  V30 1682 N 171.46 0.379036 1.52974 0
M  V30 1683 C 172.871 -0.0972525 1.86447 0
M  V30 1684 C 173.222 -1.47027 1.29914 0
M  V30 1685 O 172.347 -2.07135 0.626433 0
M  V30 1686 C 172.942 -0.183248 3.38304 0
M  V30 1687 C 171.501 -0.603812 3.71525 0
M  V30 1688 C 170.648 0.240632 2.76254 0
M  V30 1689 H 173.599 0.597316 1.4703 0
M  V30 1690 H 173.62 -1.00432 3.67006 0
M  V30 1691 H 173.132 0.816191 3.79421 0
M  V30 1692 H 171.233 -1.61099 3.35973 0
M  V30 1693 H 171.346 -0.369086 4.77676 0
M  V30 1694 H 169.71 -0.292548 2.53014 0
M  V30 1695 H 170.493 1.23786 3.20206 0
M  V30 1696 N 172.938 -1.57226 0.108567 0
M  V30 1697 C 174.349 -1.8195 -0.418464 0
M  V30 1698 C 174.7 -1.02508 -1.67292 0
M  V30 1699 O 173.825 -0.258496 -2.14851 0
M  V30 1700 C 174.42 -3.30028 -0.765979 0
M  V30 1701 C 172.979 -3.55469 -1.23769 0
M  V30 1702 C 172.126 -2.7625 -0.241106 0
M  V30 1703 H 175.077 -1.55149 0.33384 0
M  V30 1704 H 175.098 -3.44086 -1.62434 0
M  V30 1705 H 174.61 -3.87821 0.147219 0
M  V30 1706 H 172.711 -3.03022 -2.16814 0
M  V30 1707 H 172.824 -4.6408 -1.19022 0
M  V30 1708 H 171.188 -2.44133 -0.72602 0
M  V30 1709 H 171.971 -3.36797 0.665007 0
M  V30 1710 N 174.416 0.165178 -1.56732 0
M  V30 1711 C 175.379 1.18822 -1.95995 0
M  V30 1712 C 176.379 1.3685 -0.84431 0
M  V30 1713 O 177.569 1.34152 -1.11126 0
M  V30 1714 C 174.701 2.5521 -2.26011 0
M  V30 1715 H 175.894 0.851825 -2.87548 0
M  V30 1716 H 173.447 0.407857 -1.50885 0
M  V30 1717 H 174.182 2.93852 -1.37191 0
M  V30 1718 H 173.967 2.43489 -3.07336 0
M  V30 1719 H 175.457 3.28927 -2.57288 0
M  V30 1720 N 175.894 1.51508 0.433938 0
M  V30 1721 C 177.305 1.56784 1.01369 0
M  V30 1722 C 177.656 0.393349 1.92217 0
M  V30 1723 O 176.781 -0.489441 2.10792 0
M  V30 1724 C 177.376 2.84144 1.8452 0
M  V30 1725 C 175.935 2.9198 2.37539 0
M  V30 1726 C 175.082 2.51482 1.16843 0
M  V30 1727 H 178.033 1.57236 0.215081 0
M  V30 1728 H 178.054 2.68098 2.70007 0
M  V30 1729 H 177.566 3.69607 1.18373 0
M  V30 1730 H 175.667 2.10955 3.0713 0
M  V30 1731 H 175.78 3.95704 2.70103 0
M  V30 1732 H 174.144 2.04758 1.51481 0
M  V30 1733 H 174.927 3.39293 0.523015 0
M  V30 1734 N 177.372 -0.689602 1.41712 0
M  V30 1735 C 178.282 -1.83314 1.46401 0
M  V30 1736 C 179.298 -1.7036 0.35405 0
M  V30 1737 O 180.474 -1.92171 0.602692 0
M  V30 1738 C 177.539 -3.19344 1.34982 0
M  V30 1739 C 176.6 -3.44363 2.56344 0
M  V30 1740 C 175.833 -4.73904 2.45461 0
M  V30 1741 O 176.056 -5.508 1.48241 0
M  V30 1742 O 174.99 -4.99839 3.35328 0
M  V30 1743 H 178.816 -1.82314 2.42889 0
M  V30 1744 H 176.401 -0.843438 1.23315 0
M  V30 1745 H 178.283 -4.00547 1.3092 0
M  V30 1746 H 176.958 -3.21014 0.41612 0
M  V30 1747 H 175.865 -2.63067 2.65982 0
M  V30 1748 H 177.198 -3.47512 3.48563 0
M  V30 1749 N 178.85 -1.27639 -0.924453 0
M  V30 1750 C 179.782 -1.06442 -2.02985 0
M  V30 1751 C 180.795 -0.0194771 -1.62788 0
M  V30 1752 O 181.984 -0.261388 -1.76576 0
M  V30 1753 C 179.084 -0.59327 -3.33667 0
M  V30 1754 C 178.257 -1.71123 -4.02537 0
M  V30 1755 C 177.316 -1.23527 -5.11495 0
M  V30 1756 O 176.342 -1.93553 -5.35281 0
M  V30 1757 N 177.544 -0.0926678 -5.80426 0
M  V30 1758 H 180.309 -2.01633 -2.2173 0
M  V30 1759 H 177.87 -1.19248 -1.09505 0
M  V30 1760 H 179.862 -0.258686 -4.03872 0
M  V30 1761 H 178.432 0.265502 -3.1147 0
M  V30 1762 H 177.652 -2.21593 -3.26022 0
M  V30 1763 H 178.94 -2.46145 -4.45298 0
M  V30 1764 H 178.338 0.491741 -5.63559 0
M  V30 1765 H 176.895 0.182714 -6.51544 0
M  V30 1766 N 180.328 1.1314 -1.09713 0
M  V30 1767 C 181.258 2.20748 -0.761102 0
M  V30 1768 C 182.239 1.68061 0.262566 0
M  V30 1769 O 183.424 1.93765 0.129977 0
M  V30 1770 C 180.554 3.46812 -0.184054 0
M  V30 1771 C 179.508 4.12606 -1.13757 0
M  V30 1772 C 178.834 5.33031 -0.422083 0
M  V30 1773 C 180.134 4.59603 -2.48118 0
M  V30 1774 H 181.828 2.49113 -1.66082 0
M  V30 1775 H 179.374 1.19734 -0.799987 0
M  V30 1776 H 181.327 4.21353 0.0631215 0
M  V30 1777 H 180.051 3.17851 0.750868 0
M  V30 1778 H 178.71 3.40036 -1.37007 0
M  V30 1779 H 178.358 5.00335 0.517072 0
M  V30 1780 H 178.058 5.77999 -1.05788 0
M  V30 1781 H 179.582 6.10325 -0.183277 0
M  V30 1782 H 180.996 5.25552 -2.29059 0
M  V30 1783 H 179.393 5.15321 -3.07514 0
M  V30 1784 H 180.463 3.73971 -3.08665 0
M  V30 1785 N 181.806 0.884767 1.30421 0
M  V30 1786 C 182.736 0.367574 2.30589 0
M  V30 1787 C 183.717 -0.549464 1.60981 0
M  V30 1788 O 184.902 -0.46336 1.88591 0
M  V30 1789 C 182.032 -0.418944 3.44764 0
M  V30 1790 C 180.986 0.406316 4.26067 0
M  V30 1791 C 180.312 -0.506793 5.32293 0
M  V30 1792 C 181.612 1.64832 4.95608 0
M  V30 1793 H 183.306 1.20462 2.74097 0
M  V30 1794 H 180.852 0.580695 1.31772 0
M  V30 1795 H 182.805 -0.791395 4.13902 0
M  V30 1796 H 181.529 -1.28964 3.0006 0
M  V30 1797 H 180.188 0.760903 3.58617 0
M  V30 1798 H 179.836 -1.37519 4.83836 0
M  V30 1799 H 179.536 0.0415828 5.87585 0
M  V30 1800 H 181.06 -0.875764 6.04287 0
M  V30 1801 H 182.474 1.34646 5.57264 0
M  V30 1802 H 180.871 2.13688 5.60765 0
M  V30 1803 H 181.941 2.39284 4.21748 0
M  V30 1804 N 183.284 -1.43765 0.645699 0
M  V30 1805 C 184.509 -2.06767 0.161883 0
M  V30 1806 C 184.934 -1.48034 -1.16049 0
M  V30 1807 O 184.292 -0.587369 -1.71522 0
M  V30 1808 C 184.34 -3.60519 0.0762003 0
M  V30 1809 O 183.444 -4.00982 -0.963721 0
M  V30 1810 H 182.785 -0.657675 0.091429 0
M  V30 1811 H 185.315 -1.84397 0.886499 0
M  V30 1812 H 185.325 -4.07853 -0.109604 0
M  V30 1813 H 184 -4.02646 1.04157 0
M  V30 1814 H 182.577 -3.65253 -0.751312 0
M  V30 1815 N 184.763 -0.387143 -1.52771 0
M  V30 1816 C 185.695 0.484089 -2.2403 0
M  V30 1817 C 186.708 1.02849 -1.26198 0
M  V30 1818 O 187.897 0.931186 -1.52286 0
M  V30 1819 C 184.997 1.68337 -2.94136 0
M  V30 1820 C 184.17 1.26672 -4.18656 0
M  V30 1821 C 183.229 2.33045 -4.7178 0
M  V30 1822 O 182.255 1.94541 -5.34923 0
M  V30 1823 N 183.457 3.64929 -4.5145 0
M  V30 1824 H 186.222 -0.126404 -2.99433 0
M  V30 1825 H 183.783 -0.213392 -1.60488 0
M  V30 1826 H 185.775 2.39019 -3.26577 0
M  V30 1827 H 184.345 2.20025 -2.22053 0
M  V30 1828 H 183.565 0.388878 -3.92277 0
M  V30 1829 H 184.853 0.964964 -4.99566 0
M  V30 1830 H 184.251 3.98974 -4.01044 0
M  V30 1831 H 182.808 4.31651 -4.88386 0
M  V30 1832 N 186.241 1.57166 -0.116904 0
M  V30 1833 C 187.204 2.14039 0.819742 0
M  V30 1834 C 188.204 1.07477 1.19605 0
M  V30 1835 O 189.394 1.33263 1.1219 0
M  V30 1836 C 186.526 2.67891 2.10826 0
M  V30 1837 H 187.719 2.98128 0.325511 0
M  V30 1838 H 185.272 1.55739 0.132312 0
M  V30 1839 H 186.007 1.87384 2.64685 0
M  V30 1840 H 185.792 3.45823 1.84793 0
M  V30 1841 H 187.282 3.11809 2.77785 0
M  V30 1842 N 187.719 -0.156864 1.56817 0
M  V30 1843 C 189.135 -0.50916 1.5126 0
M  V30 1844 C 189.335 -1.83897 0.823658 0
M  V30 1845 O 188.391 -2.49469 0.390055 0
M  V30 1846 C 189.704 -0.52857 2.96018 0
M  V30 1847 C 191.252 -0.614771 3.06903 0
M  V30 1848 C 191.727 -0.664938 4.53147 0
M  V30 1849 N 193.218 -0.727433 4.57452 0
M  V30 1850 C 193.953 -0.787067 5.67973 0
M  V30 1851 N 193.449 -0.806649 6.88088 0
M  V30 1852 N 195.242 -0.827195 5.5598 0
M  V30 1853 H 187.393 0.714935 2.00006 0
M  V30 1854 H 189.656 0.259526 0.911784 0
M  V30 1855 H 189.362 0.380154 3.49639 0
M  V30 1856 H 189.236 -1.36998 3.51442 0
M  V30 1857 H 191.623 -1.51392 2.53307 0
M  V30 1858 H 191.704 0.253597 2.5454 0
M  V30 1859 H 191.348 0.230011 5.07379 0
M  V30 1860 H 191.278 -1.54966 5.03282 0
M  V30 1861 H 193.769 -0.719998 3.70978 0
M  V30 1862 H 194.082 -0.853727 7.6807 0
M  V30 1863 H 192.427 -0.774687 6.90669 0
M  V30 1864 H 195.618 -0.808998 4.61056 0
M  V30 1865 H 195.791 -0.870206 6.4213 0
M  V30 1866 N 189.197 -1.51736 -0.425897 0
M  V30 1867 C 190.474 -1.55519 -1.1863 0
M  V30 1868 C 190.854 -0.326219 -2.08564 0
M  V30 1869 O 190.202 0.688012 -2.17896 0
M  V30 1870 C 190.412 -2.87521 -1.9782 0
M  V30 1871 C 191.76 -3.39899 -2.54468 0
M  V30 1872 O 192.784 -2.89148 -2.08019 0
M  V30 1873 O 191.643 -4.2848 -3.39215 0
M  V30 1874 H 188.737 -0.625739 -0.540721 0
M  V30 1875 H 191.283 -1.64055 -0.434038 0
M  V30 1876 H 190.055 -3.68422 -1.31836 0
M  V30 1877 H 189.678 -2.822 -2.80088 0
M  V30 1878 N 190.675 0.682077 -1.42076 0
M  V30 1879 C 191.922 1.44215 -1.42156 0
M  V30 1880 C 192.25 1.94468 -0.0354186 0
M  V30 1881 O 191.505 1.70816 0.955002 0
M  V30 1882 C 191.804 2.66036 -2.38662 0
M  V30 1883 C 191.47 2.34366 -3.85206 0
M  V30 1884 C 190.132 2.25439 -4.25124 0
M  V30 1885 C 192.484 2.08513 -4.77673 0
M  V30 1886 C 189.812 1.88775 -5.55501 0
M  V30 1887 C 192.164 1.73354 -6.08384 0
M  V30 1888 C 190.828 1.62933 -6.47309 0
M  V30 1889 H 190.098 0.527718 -0.520187 0
M  V30 1890 H 192.745 0.778387 -1.74967 0
M  V30 1891 H 191.05 3.3741 -1.99152 0
M  V30 1892 H 192.747 3.24205 -2.35991 0
M  V30 1893 H 189.337 2.42213 -3.53597 0
M  V30 1894 H 193.521 2.14346 -4.47626 0
M  V30 1895 H 188.777 1.7927 -5.84527 0
M  V30 1896 H 192.951 1.52373 -6.79526 0
M  V30 1897 H 190.578 1.34292 -7.48244 0
M  V30 1898 N 192.153 1.28127 0.917671 0
M  V30 1899 C 193.402 1.14432 1.66097 0
M  V30 1900 C 193.715 -0.307247 1.93172 0
M  V30 1901 O 194.921 -0.565259 2.65551 0
M  V30 1902 C 193.377 2.00015 2.99202 0
M  V30 1903 C 192.985 3.49889 2.79789 0
M  V30 1904 C 194.729 1.94996 3.77064 0
M  V30 1905 C 192.636 4.27636 4.08511 0
M  V30 1906 H 191.566 0.424662 0.62304 0
M  V30 1907 H 194.217 1.52628 1.01868 0
M  V30 1908 H 192.599 1.54672 3.64544 0
M  V30 1909 H 193.773 4.03162 2.23152 0
M  V30 1910 H 192.088 3.56392 2.15345 0
M  V30 1911 H 194.685 2.50354 4.72469 0
M  V30 1912 H 195.028 0.925819 4.05875 0
M  V30 1913 H 195.561 2.38287 3.18534 0
M  V30 1914 H 192.3 5.30615 3.84874 0
M  V30 1915 H 191.82 3.79137 4.64774 0
M  V30 1916 H 193.499 4.37346 4.76799 0
M  V30 1917 N 193.631 -1.12557 1.10312 0
M  V30 1918 C 194.579 -2.20325 0.745629 0
M  V30 1919 C 195.573 -1.67429 -0.25763 0
M  V30 1920 O 196.779 -1.79612 -0.118132 0
M  V30 1921 H 193.154 -0.718118 0.223182 0
M  V30 1922 H 195.125 -2.47733 1.66346 0
M  V30 1923 C 193.874 -3.47168 0.192262 0
M  V30 1924 H 193.197 -3.88215 0.955475 0
M  V30 1925 H 194.637 -4.23995 -0.0198274 0
M  V30 1926 C 193.096 -3.19298 -1.07472 0
M  V30 1927 O 193.626 -3.3891 -2.15645 0
M  V30 1928 N 191.832 -2.73113 -0.992847 0
M  V30 1929 H 191.379 -2.57354 -0.112474 0
M  V30 1930 H 191.337 -2.54842 -1.84127 0
M  V30 1931 N 195.109 -0.891671 -1.2995 0
M  V30 1932 C 196.041 -0.320695 -2.26945 0
M  V30 1933 C 197.054 0.528497 -1.53983 0
M  V30 1934 O 198.243 0.346959 -1.75096 0
M  V30 1935 C 195.343 0.562066 -3.34207 0
M  V30 1936 C 194.516 -0.259576 -4.36629 0
M  V30 1937 C 193.575 0.554739 -5.23268 0
M  V30 1938 O 192.601 -0.0249311 -5.69195 0
M  V30 1939 N 193.803 1.8625 -5.4981 0
M  V30 1940 H 196.568 -1.15432 -2.76578 0
M  V30 1941 H 194.129 -0.755336 -1.432 0
M  V30 1942 H 196.121 1.11304 -3.89093 0
M  V30 1943 H 194.691 1.29637 -2.84452 0
M  V30 1944 H 193.911 -0.991986 -3.81514 0
M  V30 1945 H 195.199 -0.822564 -5.02107 0
M  V30 1946 H 194.597 2.35628 -5.14292 0
M  V30 1947 H 193.154 2.36078 -6.07545 0
M  V30 1948 N 196.587 1.43421 -0.653314 0
M  V30 1949 C 197.817 2.05864 -0.174238 0
M  V30 1950 C 198.225 1.49052 1.16534 0
M  V30 1951 O 197.568 0.616481 1.73047 0
M  V30 1952 C 197.63 3.59499 -0.00875873 0
M  V30 1953 C 197.294 4.38893 -1.27364 0
M  V30 1954 C 198.291 4.70947 -2.20239 0
M  V30 1955 C 195.976 4.789 -1.51525 0
M  V30 1956 C 197.97 5.41916 -3.35568 0
M  V30 1957 C 195.657 5.49614 -2.67147 0
M  V30 1958 C 196.655 5.81044 -3.58994 0
M  V30 1959 O 196.343 6.50313 -4.72597 0
M  V30 1960 H 196.075 0.670345 -0.0872549 0
M  V30 1961 H 198.629 1.84913 -0.894226 0
M  V30 1962 H 196.859 3.79025 0.7666 0
M  V30 1963 H 198.548 4.0364 0.427687 0
M  V30 1964 H 199.314 4.40558 -2.02815 0
M  V30 1965 H 195.193 4.53843 -0.809158 0
M  V30 1966 H 198.737 5.66365 -4.07279 0
M  V30 1967 H 194.634 5.79419 -2.84505 0
M  V30 1968 H 195.402 6.68795 -4.71864 0
M  V30 1969 N 198.065 0.39524 1.52563 0
M  V30 1970 C 199.295 -0.184675 2.05773 0
M  V30 1971 C 199.703 -1.40571 1.26635 0
M  V30 1972 O 199.046 -1.81105 0.30769 0
M  V30 1973 C 199.108 -0.613551 3.54226 0
M  V30 1974 C 198.772 0.49484 4.54313 0
M  V30 1975 C 199.769 1.3541 5.01956 0
M  V30 1976 C 197.454 0.663565 4.97898 0
M  V30 1977 C 199.448 2.36716 5.91814 0
M  V30 1978 C 197.135 1.67996 5.87555 0
M  V30 1979 C 198.133 2.53017 6.34406 0
M  V30 1980 O 197.821 3.52917 7.22291 0
M  V30 1981 H 197.553 -0.030077 0.675331 0
M  V30 1982 H 200.107 0.560708 1.97599 0
M  V30 1983 H 198.337 -1.411 3.60038 0
M  V30 1984 H 200.026 -1.11981 3.90148 0
M  V30 1985 H 200.792 1.23509 4.6901 0
M  V30 1986 H 196.671 0.0114913 4.60999 0
M  V30 1987 H 200.215 3.03113 6.28306 0
M  V30 1988 H 196.112 1.79933 6.19915 0
M  V30 1989 H 196.88 3.48996 7.40367 0
M  V30 1990 N 199.544 -1.57102 0.125237 0
M  V30 1991 C 200.769 -2.0019 -0.542101 0
M  V30 1992 C 201.194 -1.00449 -1.59034 0
M  V30 1993 O 200.552 0.0229423 -1.81285 0
M  V30 1994 C 200.6 -3.42129 -1.13929 0
M  V30 1995 O 199.704 -3.45307 -2.2547 0
M  V30 1996 H 199.045 -0.650171 -0.134812 0
M  V30 1997 H 201.575 -2.03461 0.215553 0
M  V30 1998 H 201.585 -3.80471 -1.4733 0
M  V30 1999 H 200.26 -4.14237 -0.371531 0
M  V30 2000 H 198.837 -3.1879 -1.93462 0
M  V30 2001 N 201.022 0.148545 -1.56898 0
M  V30 2002 C 202.247 0.880385 -1.87787 0
M  V30 2003 C 202.672 1.74018 -0.714093 0
M  V30 2004 O 202.03 1.78153 0.336343 0
M  V30 2005 C 202.078 1.71422 -3.17249 0
M  V30 2006 O 201.182 2.8183 -3.01074 0
M  V30 2007 H 200.523 0.245301 -0.617028 0
M  V30 2008 H 203.053 0.139826 -2.04122 0
M  V30 2009 H 203.063 2.10954 -3.49231 0
M  V30 2010 H 201.738 1.08284 -4.01556 0
M  V30 2011 H 200.315 2.45715 -2.80497 0
M  V30 2012 N 202.5 1.5196 0.417844 0
M  V30 2013 C 203.749 1.6482 1.16264 0
M  V30 2014 C 204.062 0.379886 1.91876 0
M  V30 2015 O 205.268 0.388154 2.68711 0
M  V30 2016 C 203.724 2.91161 2.1155 0
M  V30 2017 C 203.332 4.25068 1.41495 0
M  V30 2018 C 205.076 3.13383 2.86341 0
M  V30 2019 C 202.983 5.42541 2.35379 0
M  V30 2020 H 201.913 0.613954 0.437694 0
M  V30 2021 H 204.564 1.78442 0.427871 0
M  V30 2022 H 202.946 2.71218 2.88543 0
M  V30 2023 H 204.12 4.55463 0.699263 0
M  V30 2024 H 202.435 4.0888 0.787792 0
M  V30 2025 H 205.032 3.98324 3.5671 0
M  V30 2026 H 205.375 2.27256 3.48798 0
M  V30 2027 H 205.908 3.33757 2.1645 0
M  V30 2028 H 202.647 6.30987 1.77582 0
M  V30 2029 H 202.167 5.16497 3.04945 0
M  V30 2030 H 203.846 5.75272 2.96093 0
M  V30 2031 N 203.978 -0.674533 1.42435 0
M  V30 2032 C 204.925 -1.78807 1.45934 0
M  V30 2033 C 205.895 -1.63157 0.311271 0
M  V30 2034 O 207.08 -1.83707 0.515383 0
M  V30 2035 C 204.22 -3.16839 1.36773 0
M  V30 2036 C 203.333 -3.43774 2.61617 0
M  V30 2037 C 202.468 -4.71536 2.44597 0
M  V30 2038 C 201.507 -4.91505 3.64814 0
M  V30 2039 N 200.644 -6.10508 3.46734 0
M  V30 2040 H 205.484 -1.75151 2.41093 0
M  V30 2041 H 203.021 -0.85504 1.19697 0
M  V30 2042 H 204.979 -3.96606 1.29459 0
M  V30 2043 H 203.609 -3.19619 0.452089 0
M  V30 2044 H 202.661 -2.58259 2.79297 0
M  V30 2045 H 203.973 -3.54423 3.50978 0
M  V30 2046 H 203.127 -5.59393 2.3487 0
M  V30 2047 H 201.866 -4.6317 1.52726 0
M  V30 2048 H 200.871 -4.0209 3.74972 0
M  V30 2049 H 202.096 -5.01716 4.57665 0
M  V30 2050 H 200.042 -6.03315 2.5758 0
M  V30 2051 H 199.959 -6.2202 4.29682 0
M  V30 2052 H 201.227 -7.01044 3.40819 0
M  V30 2053 N 205.456 -1.28612 -0.910864 0
M  V30 2054 C 206.872 -1.06381 -1.18976 0
M  V30 2055 C 207.072 0.191998 -2.00583 0
M  V30 2056 O 206.128 0.892869 -2.36187 0
M  V30 2057 C 207.441 -2.31295 -1.92154 0
M  V30 2058 C 208.989 -2.36503 -2.05025 0
M  V30 2059 C 209.464 -3.61191 -2.81612 0
M  V30 2060 N 210.955 -3.61847 -2.89172 0
M  V30 2061 C 211.69 -4.55004 -3.4894 0
M  V30 2062 N 211.186 -5.58482 -4.09963 0
M  V30 2063 N 212.979 -4.42594 -3.46506 0
M  V30 2064 H 205.13 -2.09221 -0.366094 0
M  V30 2065 H 207.393 -0.921003 -0.224629 0
M  V30 2066 H 207.099 -3.228 -1.39618 0
M  V30 2067 H 206.973 -2.37934 -2.9269 0
M  V30 2068 H 209.36 -1.45494 -2.5674 0
M  V30 2069 H 209.441 -2.33857 -1.03657 0
M  V30 2070 H 209.085 -4.52545 -2.30576 0
M  V30 2071 H 209.015 -3.61092 -3.83302 0
M  V30 2072 H 211.506 -2.87022 -2.45819 0
M  V30 2073 H 211.819 -6.25704 -4.53557 0
M  V30 2074 H 210.164 -5.62305 -4.08459 0
M  V30 2075 H 213.355 -3.60953 -2.98045 0
M  V30 2076 H 213.528 -5.15381 -3.92793 0
M  V30 2077 N 206.934 1.1197 -1.10907 0
M  V30 2078 C 208.159 1.87942 -0.877064 0
M  V30 2079 C 208.584 1.79341 0.567314 0
M  V30 2080 O 207.942 1.15184 1.40009 0
M  V30 2081 C 207.99 3.34926 -1.33629 0
M  V30 2082 O 207.094 4.09303 -0.504447 0
M  V30 2083 H 206.435 0.583785 -0.316371 0
M  V30 2084 H 208.965 1.4157 -1.47712 0
M  V30 2085 H 208.975 3.8577 -1.32837 0
M  V30 2086 H 207.65 3.40504 -2.3881 0
M  V30 2087 H 206.227 3.68393 -0.577993 0
M  V30 2088 N 208.412 0.89855 1.29475 0
M  V30 2089 C 209.66 0.522847 1.9522 0
M  V30 2090 C 209.981 -0.93371 1.71192 0
M  V30 2091 O 209.251 -1.65823 1.04305 0
M  V30 2092 H 207.831 0.190366 0.722336 0
M  V30 2093 H 210.493 1.14459 1.5775 0
M  V30 2094 H 209.589 0.704476 3.04045 0
M  V30 2095 N 209.89 -1.43072 0.660911 0
M  V30 2096 C 211.115 -2.06584 0.183805 0
M  V30 2097 C 211.54 -1.49257 -1.14472 0
M  V30 2098 O 210.898 -0.605528 -1.70889 0
M  V30 2099 C 210.946 -3.60418 0.114434 0
M  V30 2100 O 210.05 -4.01981 -0.921137 0
M  V30 2101 H 209.391 -0.656669 0.0983994 0
M  V30 2102 H 211.921 -1.83447 0.906006 0
M  V30 2103 H 211.931 -4.07946 -0.0663394 0
M  V30 2104 H 210.606 -4.01519 1.08422 0
M  V30 2105 H 209.183 -3.66029 -0.71253 0
M  V30 2106 N 211.368 -0.403325 -1.52352 0
M  V30 2107 C 212.3 0.4603 -2.2453 0
M  V30 2108 C 213.313 1.01505 -1.27282 0
M  V30 2109 O 214.502 0.914982 -1.53266 0
M  V30 2110 C 211.602 1.65208 -2.95905 0
M  V30 2111 C 210.775 1.22224 -4.19976 0
M  V30 2112 C 209.834 2.28028 -4.74226 0
M  V30 2113 O 208.86 1.88857 -5.36956 0
M  V30 2114 N 210.062 3.6012 -4.55295 0
M  V30 2115 H 212.827 -0.158156 -2.99282 0
M  V30 2116 H 210.388 -0.230402 -1.60252 0
M  V30 2117 H 212.38 2.35541 -3.29093 0
M  V30 2118 H 210.95 2.17658 -2.24374 0
M  V30 2119 H 210.17 0.34725 -3.92668 0
M  V30 2120 H 211.458 0.911924 -5.00561 0
M  V30 2121 H 210.856 3.94698 -4.05253 0
M  V30 2122 H 209.413 4.26447 -4.92936 0
M  V30 2123 N 212.846 1.57033 -0.133567 0
M  V30 2124 C 213.809 2.14897 0.796995 0
M  V30 2125 C 214.809 1.0874 1.18458 0
M  V30 2126 O 215.999 1.34446 1.1077 0
M  V30 2127 C 213.131 2.70112 2.07973 0
M  V30 2128 H 214.324 2.98457 0.293873 0
M  V30 2129 H 211.877 1.55871 0.115787 0
M  V30 2130 H 212.612 1.9018 2.62682 0
M  V30 2131 H 212.397 3.47764 1.81115 0
M  V30 2132 H 213.887 3.14738 2.74462 0
M  V30 2133 N 214.325 -0.140222 1.56975 0
M  V30 2134 C 215.275 -1.17827 1.95194 0
M  V30 2135 C 216.259 -1.38195 0.824075 0
M  V30 2136 O 217.451 -1.39643 1.0876 0
M  V30 2137 C 214.58 -2.51024 2.34184 0
M  V30 2138 C 213.666 -2.3422 3.53556 0
M  V30 2139 N 214.057 -1.87185 4.69889 0
M  V30 2140 C 212.355 -2.64949 3.58773 0
M  V30 2141 C 213.056 -1.83586 5.5197 0
M  V30 2142 N 212.032 -2.2715 4.93866 0
M  V30 2143 H 215.834 -0.806817 2.82609 0
M  V30 2144 H 213.348 -0.348208 1.58623 0
M  V30 2145 H 215.345 -3.26074 2.59772 0
M  V30 2146 H 214.005 -2.88945 1.48124 0
M  V30 2147 H 215.016 -1.57048 4.93514 0
M  V30 2148 H 211.693 -3.067 2.8327 0
M  V30 2149 H 213.083 -1.48655 6.55249 0
M  V30 2150 N 215.803 -1.52179 -0.40978 0
M  V30 2151 C 216.713 -1.78364 -1.52392 0
M  V30 2152 C 217.729 -0.669183 -1.60617 0
M  V30 2153 O 218.905 -0.954518 -1.77344 0
M  V30 2154 C 215.97 -1.92822 -2.88133 0
M  V30 2155 C 215.031 -3.16725 -2.898 0
M  V30 2156 C 214.264 -3.30483 -4.19067 0
M  V30 2157 O 214.487 -2.49522 -5.12928 0
M  V30 2158 O 213.421 -4.2363 -4.27576 0
M  V30 2159 H 217.247 -2.72931 -1.33201 0
M  V30 2160 H 214.832 -1.37016 -0.59557 0
M  V30 2161 H 216.714 -2.04157 -3.68643 0
M  V30 2162 H 215.389 -1.01444 -3.07393 0
M  V30 2163 H 214.296 -3.10848 -2.08146 0
M  V30 2164 H 215.629 -4.07881 -2.75489 0
M  V30 2165 N 217.281 0.66697 -1.42791 0
M  V30 2166 C 218.213 1.7925 -1.42836 0
M  V30 2167 C 219.226 1.59496 -0.326333 0
M  V30 2168 O 220.415 1.6847 -0.589916 0
M  V30 2169 C 217.515 3.16476 -1.21229 0
M  V30 2170 C 216.688 3.63011 -2.44013 0
M  V30 2171 C 215.747 4.78993 -2.17834 0
M  V30 2172 O 214.773 4.89137 -2.91091 0
M  V30 2173 N 215.975 5.68248 -1.18635 0
M  V30 2174 H 218.74 1.79695 -2.39854 0
M  V30 2175 H 216.301 0.850338 -1.37771 0
M  V30 2176 H 218.293 3.91734 -1.01621 0
M  V30 2177 H 216.863 3.10884 -0.32706 0
M  V30 2178 H 216.083 2.78346 -2.79137 0
M  V30 2179 H 217.371 3.90845 -3.25757 0
M  V30 2180 H 216.769 5.62712 -0.580615 0
M  V30 2181 H 215.326 6.43285 -1.05013 0
M  V30 2182 N 218.759 1.29093 0.90403 0
M  V30 2183 C 220.175 1.07011 1.1841 0
M  V30 2184 C 220.375 -0.181358 2.00682 0
M  V30 2185 O 219.431 -0.880331 2.36657 0
M  V30 2186 C 220.744 2.32311 1.90924 0
M  V30 2187 C 222.292 2.37587 2.03768 0
M  V30 2188 C 222.767 3.62679 2.79693 0
M  V30 2189 N 224.258 3.63376 2.87249 0
M  V30 2190 C 224.993 4.56848 3.46522 0
M  V30 2191 N 224.489 5.60648 4.06996 0
M  V30 2192 N 226.282 4.44426 3.44154 0
M  V30 2193 H 218.433 2.09412 0.354993 0
M  V30 2194 H 220.696 0.922181 0.219742 0
M  V30 2195 H 220.402 3.23536 1.37905 0
M  V30 2196 H 220.276 2.39483 2.91424 0
M  V30 2197 H 222.663 1.46853 2.55965 0
M  V30 2198 H 222.744 2.34403 1.02415 0
M  V30 2199 H 222.388 4.53762 2.28173 0
M  V30 2200 H 222.318 3.63119 3.81381 0
M  V30 2201 H 224.809 2.88321 2.44293 0
M  V30 2202 H 225.122 6.28101 4.50232 0
M  V30 2203 H 223.467 5.64463 4.05471 0
M  V30 2204 H 226.658 3.62529 2.96126 0
M  V30 2205 H 226.831 5.17457 3.90054 0
M  V30 2206 N 220.237 -1.11381 1.11499 0
M  V30 2207 C 221.167 -2.19509 0.796125 0
M  V30 2208 C 222.148 -1.68458 -0.235796 0
M  V30 2209 O 223.333 -1.93947 -0.0991344 0
M  V30 2210 C 220.463 -3.46475 0.239205 0
M  V30 2211 C 219.417 -4.10744 1.20307 0
M  V30 2212 C 218.743 -5.32293 0.50683 0
M  V30 2213 C 220.043 -4.55597 2.55399 0
M  V30 2214 H 221.737 -2.46439 1.70024 0
M  V30 2215 H 219.283 -1.18446 0.818935 0
M  V30 2216 H 221.236 -4.214 0.00392006 0
M  V30 2217 H 219.96 -3.19006 -0.700206 0
M  V30 2218 H 218.619 -3.37813 1.42399 0
M  V30 2219 H 218.267 -5.01095 -0.437408 0
M  V30 2220 H 217.967 -5.76243 1.1497 0
M  V30 2221 H 219.491 -6.09956 0.280351 0
M  V30 2222 H 220.905 -5.21841 2.37391 0
M  V30 2223 H 219.302 -5.10363 3.15673 0
M  V30 2224 H 220.372 -3.69013 3.14575 0
M  V30 2225 N 221.715 -0.905404 -1.28997 0
M  V30 2226 C 222.647 -0.344748 -2.26592 0
M  V30 2227 C 223.66 0.512135 -1.54535 0
M  V30 2228 O 224.849 0.328368 -1.75454 0
M  V30 2229 C 221.949 0.526587 -3.34784 0
M  V30 2230 C 221.122 -0.305871 -4.36329 0
M  V30 2231 C 220.181 0.499209 -5.23827 0
M  V30 2232 O 219.207 -0.0853004 -5.69136 0
M  V30 2233 N 220.409 1.80408 -5.51755 0
M  V30 2234 H 223.174 -1.18359 -2.75338 0
M  V30 2235 H 220.735 -0.770481 -1.42391 0
M  V30 2236 H 222.727 1.07171 -3.90252 0
M  V30 2237 H 221.297 1.26613 -2.85811 0
M  V30 2238 H 220.517 -1.0324 -3.80441 0
M  V30 2239 H 221.805 -0.875773 -5.01206 0
M  V30 2240 H 221.203 2.3016 -5.16762 0
M  V30 2241 H 219.76 2.29621 -6.10014 0
M  V30 2242 N 223.193 1.4272 -0.668489 0
M  V30 2243 C 224.103 2.34596 0.0139753 0
M  V30 2244 C 225.119 1.5474 0.795703 0
M  V30 2245 O 226.295 1.87334 0.739466 0
M  V30 2246 C 223.36 3.33202 0.957982 0
M  V30 2247 C 222.421 4.28957 0.17149 0
M  V30 2248 C 221.654 5.22853 1.07053 0
M  V30 2249 O 221.877 5.21531 2.31001 0
M  V30 2250 O 220.811 5.9952 0.534727 0
M  V30 2251 H 224.637 2.9448 -0.742661 0
M  V30 2252 H 222.222 1.43117 -0.428705 0
M  V30 2253 H 224.104 3.93796 1.50008 0
M  V30 2254 H 222.779 2.758 1.69458 0
M  V30 2255 H 221.686 3.71796 -0.414558 0
M  V30 2256 H 223.019 4.89383 -0.52586 0
M  V30 2257 N 224.671 0.411399 1.52136 0
M  V30 2258 C 225.917 -0.163888 2.02137 0
M  V30 2259 C 226.25 -1.44597 1.29636 0
M  V30 2260 O 225.525 -1.90272 0.403353 0
M  V30 2261 C 225.808 -0.40927 3.57767 0
M  V30 2262 C 225.661 0.889643 4.40914 0
M  V30 2263 C 226.98 -1.19042 4.23694 0
M  V30 2264 H 224.099 -0.0580896 0.734707 0
M  V30 2265 H 226.741 0.54531 1.82007 0
M  V30 2266 H 224.891 -1.0134 3.7505 0
M  V30 2267 H 226.563 1.52575 4.35337 0
M  V30 2268 H 224.806 1.50011 4.07037 0
M  V30 2269 H 225.477 0.672314 5.4789 0
M  V30 2270 H 227.953 -0.678942 4.10524 0
M  V30 2271 H 226.829 -1.33086 5.32522 0
M  V30 2272 H 227.09 -2.21166 3.82803 0
M  V30 2273 N 226.149 -1.5696 0.141893 0
M  V30 2274 C 227.059 -2.20066 -0.812905 0
M  V30 2275 C 228.075 -1.18344 -1.27557 0
M  V30 2276 O 229.251 -1.50902 -1.33381 0
M  V30 2277 C 226.316 -2.80583 -2.03652 0
M  V30 2278 C 225.377 -3.97414 -1.62359 0
M  V30 2279 C 224.61 -4.55036 -2.78887 0
M  V30 2280 O 224.833 -4.11538 -3.94959 0
M  V30 2281 O 223.767 -5.45376 -2.54653 0
M  V30 2282 H 227.593 -3.02157 -0.305746 0
M  V30 2283 H 225.178 -1.49159 -0.0848799 0
M  V30 2284 H 227.06 -3.19067 -2.75272 0
M  V30 2285 H 225.735 -2.01508 -2.5333 0
M  V30 2286 H 224.642 -3.63656 -0.877775 0
M  V30 2287 H 225.975 -4.77994 -1.17401 0
M  V30 2288 N 227.627 0.131896 -1.57047 0
M  V30 2289 C 228.59 1.14638 -1.98471 0
M  V30 2290 C 229.59 1.35029 -0.873148 0
M  V30 2291 O 230.78 1.31764 -1.13946 0
M  V30 2292 C 227.912 2.50358 -2.31373 0
M  V30 2293 H 229.105 0.79064 -2.8929 0
M  V30 2294 H 226.658 0.375761 -1.51716 0
M  V30 2295 H 227.393 2.90876 -1.43393 0
M  V30 2296 H 227.178 2.36915 -3.12432 0
M  V30 2297 H 228.668 3.23395 -2.64207 0
M  V30 2298 N 229.106 1.52395 0.401703 0
M  V30 2299 C 230.016 1.7917 1.51444 0
M  V30 2300 C 231.032 0.677691 1.6026 0
M  V30 2301 O 232.208 0.963909 1.76835 0
M  V30 2302 C 229.273 1.94347 2.87107 0
M  V30 2303 C 228.334 3.18257 2.88116 0
M  V30 2304 C 227.567 3.32701 4.17308 0
M  V30 2305 O 227.79 2.52238 5.11598 0
M  V30 2306 O 226.724 4.25891 4.25324 0
M  V30 2307 H 230.55 2.73633 1.31752 0
M  V30 2308 H 228.135 1.3733 0.588296 0
M  V30 2309 H 230.017 2.06109 3.67555 0
M  V30 2310 H 228.692 1.03073 3.06851 0
M  V30 2311 H 227.599 3.11947 2.06494 0
M  V30 2312 H 228.932 4.09336 2.73322 0
M  V30 2313 N 230.584 -0.659388 1.43143 0
M  V30 2314 C 231.83 -1.42145 1.44647 0
M  V30 2315 C 232.163 -1.9408 0.0681907 0
M  V30 2316 O 231.438 -1.71899 -0.910007 0
M  V30 2317 C 231.721 -2.60735 2.48373 0
M  V30 2318 C 231.574 -2.14332 3.95451 0
M  V30 2319 C 232.893 -3.62951 2.48906 0
M  V30 2320 H 230.012 -0.51552 0.526696 0
M  V30 2321 H 232.654 -0.748069 1.74654 0
M  V30 2322 H 230.804 -3.18184 2.22916 0
M  V30 2323 H 232.476 -1.61932 4.31944 0
M  V30 2324 H 230.719 -1.4576 4.08578 0
M  V30 2325 H 231.39 -2.99583 4.63631 0
M  V30 2326 H 233.866 -3.1525 2.71582 0
M  V30 2327 H 232.742 -4.43487 3.23435 0
M  V30 2328 H 233.003 -4.15126 1.52061 0
M  V30 2329 N 232.062 -1.29571 -0.897171 0
M  V30 2330 C 233.025 -1.14913 -1.98312 0
M  V30 2331 C 234.025 -0.0838629 -1.60581 0
M  V30 2332 O 235.215 -0.331006 -1.71026 0
M  V30 2333 C 232.347 -0.757835 -3.3237 0
M  V30 2334 H 233.54 -2.11377 -2.12743 0
M  V30 2335 H 231.093 -1.12793 -1.08201 0
M  V30 2336 H 231.828 0.206837 -3.2364 0
M  V30 2337 H 231.613 -1.52755 -3.61121 0
M  V30 2338 H 233.103 -0.678408 -4.12053 0
M  V30 2339 N 233.54 1.10788 -1.12088 0
M  V30 2340 C 234.503 2.15207 -0.788577 0
M  V30 2341 C 235.503 1.59609 0.195317 0
M  V30 2342 O 236.693 1.74174 -0.0300193 0
M  V30 2343 C 233.825 3.4047 -0.171174 0
M  V30 2344 H 235.018 2.46116 -1.71368 0
M  V30 2345 H 232.571 1.26089 -0.923652 0
M  V30 2346 H 233.306 3.15176 0.763832 0
M  V30 2347 H 233.091 3.82109 -0.879514 0
M  V30 2348 H 234.581 4.17576 0.04496 0
M  V30 2349 N 235.018 0.912232 1.28515 0
M  V30 2350 C 236.246 0.560416 1.99166 0
M  V30 2351 C 236.661 -0.857927 1.68182 0
M  V30 2352 O 236.018 -1.56805 0.933733 0
M  V30 2353 C 236.069 0.758142 3.53461 0
M  V30 2354 O 235.79 2.12067 3.83352 0
M  V30 2355 C 237.291 0.412954 4.41372 0
M  V30 2356 H 234.511 0.213805 0.636026 0
M  V30 2357 H 237.055 1.22502 1.63749 0
M  V30 2358 H 235.21 0.140556 3.87145 0
M  V30 2359 H 235.624 2.15923 4.77993 0
M  V30 2360 H 237.098 0.60208 5.48707 0
M  V30 2361 H 237.575 -0.65073 4.34353 0
M  V30 2362 H 238.181 1.00802 4.13182 0
M  V30 2363 N 236.496 -1.42363 0.676048 0
M  V30 2364 C 237.744 -2.01123 0.198437 0
M  V30 2365 C 238.065 -1.53731 -1.19966 0
M  V30 2366 O 237.335 -0.759518 -1.80577 0
M  V30 2367 H 235.915 -0.743678 0.0703721 0
M  V30 2368 H 238.577 -1.74263 0.872837 0
M  V30 2369 H 237.673 -3.11454 0.200686 0
M  V30 2370 N 237.974 -0.419461 -1.51915 0
M  V30 2371 C 239.202 0.152136 -2.0634 0
M  V30 2372 C 239.617 1.37988 -1.28859 0
M  V30 2373 O 238.974 1.79243 -0.343232 0
M  V30 2374 C 239.025 0.492266 -3.58133 0
M  V30 2375 O 238.746 -0.686736 -4.32684 0
M  V30 2376 C 240.247 1.11648 -4.2901 0
M  V30 2377 H 237.467 0.0158325 -0.670813 0
M  V30 2378 H 240.011 -0.593394 -1.95702 0
M  V30 2379 H 238.166 1.18769 -3.68745 0
M  V30 2380 H 238.58 -0.400341 -5.2297 0
M  V30 2381 H 240.054 1.3046 -5.36362 0
M  V30 2382 H 240.531 2.09251 -3.86148 0
M  V30 2383 H 241.137 0.460958 -4.22795 0
M  V30 2384 N 239.452 1.56882 -0.150215 0
M  V30 2385 C 240.682 2.00302 0.506213 0
M  V30 2386 C 241.09 1.02934 1.58749 0
M  V30 2387 O 240.433 0.0188384 1.8369 0
M  V30 2388 C 240.495 3.40156 1.16337 0
M  V30 2389 C 240.159 4.56439 0.226311 0
M  V30 2390 C 241.156 5.17012 -0.547265 0
M  V30 2391 C 238.841 5.02136 0.128279 0
M  V30 2392 C 240.835 6.21693 -1.40629 0
M  V30 2393 C 238.522 6.06672 -0.734345 0
M  V30 2394 C 239.52 6.6632 -1.50023 0
M  V30 2395 O 239.208 7.68831 -2.34848 0
M  V30 2396 H 238.94 0.662182 0.135984 0
M  V30 2397 H 241.494 2.03961 -0.242746 0
M  V30 2398 H 239.724 3.33346 1.96004 0
M  V30 2399 H 241.413 3.67663 1.71985 0
M  V30 2400 H 242.179 4.82603 -0.48158 0
M  V30 2401 H 238.058 4.55435 0.714157 0
M  V30 2402 H 241.602 6.68179 -2.00455 0
M  V30 2403 H 237.499 6.40507 -0.801309 0
M  V30 2404 H 238.267 7.86065 -2.28131 0
M  V30 2405 N 240.93 -0.123565 1.57115 0
M  V30 2406 C 241.862 -1.17739 1.96648 0
M  V30 2407 C 242.875 -1.37906 0.865201 0
M  V30 2408 O 244.064 -1.37062 1.14351 0
M  V30 2409 C 241.164 -2.53821 2.24562 0
M  V30 2410 C 240.337 -2.54317 3.55867 0
M  V30 2411 C 239.396 -3.72112 3.72047 0
M  V30 2412 O 238.422 -3.55907 4.44206 0
M  V30 2413 N 239.624 -4.90498 3.10471 0
M  V30 2414 H 242.389 -0.841147 2.87654 0
M  V30 2415 H 239.95 -0.31289 1.58848 0
M  V30 2416 H 241.942 -3.31175 2.32606 0
M  V30 2417 H 240.512 -2.79645 1.39705 0
M  V30 2418 H 239.732 -1.62711 3.59053 0
M  V30 2419 H 241.02 -2.51701 4.42181 0
M  V30 2420 H 240.418 -5.06567 2.51806 0
M  V30 2421 H 238.975 -5.65544 3.24043 0
M  V30 2422 N 242.408 -1.52605 -0.393616 0
M  V30 2423 C 243.338 -1.80022 -1.48709 0
M  V30 2424 C 244.319 -0.651995 -1.57108 0
M  V30 2425 O 245.504 -0.89913 -1.72132 0
M  V30 2426 C 242.634 -1.96492 -2.86371 0
M  V30 2427 C 241.588 -3.12161 -2.92813 0
M  V30 2428 C 240.914 -3.13877 -4.3288 0
M  V30 2429 C 242.214 -4.51322 -2.6288 0
M  V30 2430 H 243.908 -2.71589 -1.26015 0
M  V30 2431 H 241.454 -1.30684 -0.604778 0
M  V30 2432 H 243.407 -2.14255 -3.62867 0
M  V30 2433 H 242.131 -1.01611 -3.10391 0
M  V30 2434 H 240.79 -2.94173 -2.18764 0
M  V30 2435 H 240.438 -2.16687 -4.53933 0
M  V30 2436 H 240.138 -3.91576 -4.38112 0
M  V30 2437 H 241.662 -3.33789 -5.1129 0
M  V30 2438 H 243.076 -4.69435 -3.29096 0
M  V30 2439 H 241.473 -5.31053 -2.79468 0
M  V30 2440 H 242.543 -4.58353 -1.58242 0
M  V30 2441 N 243.887 0.651787 -1.4349 0
M  V30 2442 C 245.303 0.96762 -1.26922 0
M  V30 2443 C 245.503 2.00602 -0.189982 0
M  V30 2444 O 244.559 2.48793 0.431107 0
M  V30 2445 C 245.872 1.45052 -2.63401 0
M  V30 2446 C 247.42 1.5671 -2.70945 0
M  V30 2447 C 247.895 2.0839 -4.07845 0
M  V30 2448 N 249.386 2.1569 -4.09917 0
M  V30 2449 C 250.121 2.56804 -5.12679 0
M  V30 2450 N 249.617 2.97203 -6.25813 0
M  V30 2451 N 251.41 2.56756 -5.00033 0
M  V30 2452 H 243.561 -0.0353158 -2.12371 0
M  V30 2453 H 245.824 0.0467858 -0.946845 0
M  V30 2454 H 245.53 0.761926 -3.43348 0
M  V30 2455 H 245.404 2.42529 -2.88894 0
M  V30 2456 H 247.791 2.2467 -1.9133 0
M  V30 2457 H 247.872 0.57662 -2.49216 0
M  V30 2458 H 247.516 1.41031 -4.87927 0
M  V30 2459 H 247.446 3.08271 -4.26938 0
M  V30 2460 H 249.937 1.87237 -3.28254 0
M  V30 2461 H 250.25 3.27328 -7.00055 0
M  V30 2462 H 248.595 2.95004 -6.29283 0
M  V30 2463 H 251.786 2.24572 -4.10713 0
M  V30 2464 H 251.959 2.88475 -5.80247 0
M  V30 2465 N 245.365 1.30045 0.890287 0
M  V30 2466 C 246.275 1.17885 2.02831 0
M  V30 2467 C 247.291 0.0999609 1.73713 0
M  V30 2468 O 248.467 0.313867 1.98939 0
M  V30 2469 C 245.532 0.866079 3.35708 0
M  V30 2470 C 244.593 2.02979 3.78283 0
M  V30 2471 C 243.826 1.73184 5.0482 0
M  V30 2472 O 244.049 0.657237 5.66601 0
M  V30 2473 O 242.983 2.58267 5.43674 0
M  V30 2474 H 246.809 2.13474 2.16015 0
M  V30 2475 H 244.394 1.09587 1.01543 0
M  V30 2476 H 246.276 0.706623 4.15433 0
M  V30 2477 H 244.951 -0.0599443 3.23644 0
M  V30 2478 H 243.858 2.24454 2.99285 0
M  V30 2479 H 245.191 2.93734 3.94944 0
M  V30 2480 N 246.843 -1.10192 1.12674 0
M  V30 2481 C 248.068 -1.86523 0.906853 0
M  V30 2482 C 248.493 -1.80221 -0.538711 0
M  V30 2483 O 247.851 -1.17396 -1.38158 0
M  V30 2484 C 247.899 -3.32758 1.3894 0
M  V30 2485 O 247.003 -4.08449 0.5695 0
M  V30 2486 H 246.344 -0.578678 0.325619 0
M  V30 2487 H 248.874 -1.39203 1.49946 0
M  V30 2488 H 248.884 -3.83608 1.38958 0
M  V30 2489 H 247.559 -3.36661 2.44197 0
M  V30 2490 H 246.136 -3.67427 0.636528 0
M  V30 2491 N 248.321 -0.919034 -1.28029 0
M  V30 2492 C 249.231 -0.416756 -2.30869 0
M  V30 2493 C 250.247 0.498235 -1.66714 0
M  V30 2494 O 251.423 0.383144 -1.97722 0
M  V30 2495 C 248.488 0.330274 -3.45123 0
M  V30 2496 C 247.549 -0.618578 -4.2482 0
M  V30 2497 C 246.782 0.0928959 -5.33619 0
M  V30 2498 O 247.005 1.31375 -5.55065 0
M  V30 2499 O 245.939 -0.574499 -5.99152 0
M  V30 2500 H 249.765 -1.27043 -2.75851 0
M  V30 2501 H 247.35 -0.684052 -1.3282 0
M  V30 2502 H 249.232 0.751972 -4.14636 0
M  V30 2503 H 247.907 1.1597 -3.02213 0
M  V30 2504 H 246.814 -1.08978 -3.57875 0
M  V30 2505 H 248.147 -1.41497 -4.71423 0
M  V30 2506 N 249.799 1.42003 -0.683588 0
M  V30 2507 C 250.729 2.33487 -0.024866 0
M  V30 2508 C 251.71 1.51163 0.779975 0
M  V30 2509 O 252.895 1.79739 0.735362 0
M  V30 2510 C 250.025 3.3487 0.920836 0
M  V30 2511 C 248.979 4.27414 0.223958 0
M  V30 2512 C 248.305 5.19074 1.2832 0
M  V30 2513 C 249.605 5.14445 -0.90242 0
M  V30 2514 H 251.299 2.88819 -0.788921 0
M  V30 2515 H 248.845 1.38873 -0.38083 0
M  V30 2516 H 250.798 3.97787 1.39081 0
M  V30 2517 H 249.522 2.77861 1.71642 0
M  V30 2518 H 248.181 3.65904 -0.225864 0
M  V30 2519 H 247.829 4.58387 2.071 0
M  V30 2520 H 247.529 5.81822 0.821995 0
M  V30 2521 H 249.053 5.84867 1.75392 0
M  V30 2522 H 250.467 5.70998 -0.513272 0
M  V30 2523 H 248.864 5.86072 -1.28997 0
M  V30 2524 H 249.934 4.52322 -1.74737 0
M  V30 2525 N 251.277 0.427512 1.51691 0
M  V30 2526 C 252.523 -0.142439 2.02299 0
M  V30 2527 C 252.856 -1.43214 1.31162 0
M  V30 2528 O 252.131 -1.89833 0.423511 0
M  V30 2529 C 252.414 -0.371301 3.58181 0
M  V30 2530 C 252.267 0.936358 4.39946 0
M  V30 2531 C 253.586 -1.14542 4.24933 0
M  V30 2532 H 250.705 -0.0502937 0.735282 0
M  V30 2533 H 253.347 0.564584 1.81418 0
M  V30 2534 H 251.497 -0.973559 3.76104 0
M  V30 2535 H 253.169 1.57184 4.33694 0
M  V30 2536 H 251.412 1.5432 4.05423 0
M  V30 2537 H 252.083 0.730388 5.47147 0
M  V30 2538 H 254.559 -0.635362 4.11221 0
M  V30 2539 H 253.435 -1.27431 5.33903 0
M  V30 2540 H 253.696 -2.17093 3.85127 0
M  V30 2541 N 252.755 -1.56801 0.158532 0
M  V30 2542 C 254.002 -1.9649 -0.489679 0
M  V30 2543 C 254.33 -1.04394 -1.6411 0
M  V30 2544 O 253.585 -0.0754401 -1.95555 0
M  V30 2545 C 253.884 -3.4235 -1.02623 0
M  V30 2546 C 253.55 -4.50899 0.00794526 0
M  V30 2547 C 252.212 -4.80312 0.292207 0
M  V30 2548 C 254.564 -5.16333 0.710584 0
M  V30 2549 C 251.892 -5.72461 1.28472 0
M  V30 2550 C 254.244 -6.09553 1.69199 0
M  V30 2551 C 252.908 -6.37339 1.98383 0
M  V30 2552 H 252.178 -0.719009 -0.179186 0
M  V30 2553 H 254.825 -1.8989 0.247798 0
M  V30 2554 H 253.13 -3.45838 -1.84128 0
M  V30 2555 H 254.827 -3.70393 -1.53656 0
M  V30 2556 H 251.417 -4.28015 -0.22379 0
M  V30 2557 H 255.601 -4.93732 0.504174 0
M  V30 2558 H 250.857 -5.92278 1.51714 0
M  V30 2559 H 255.031 -6.59327 2.24189 0
M  V30 2560 H 252.658 -7.08546 2.7544 0
M  V30 2561 N 254.233 0.115231 -1.57178 0
M  V30 2562 C 255.481 0.820727 -1.84685 0
M  V30 2563 C 255.802 1.80237 -0.744279 0
M  V30 2564 O 255.072 1.94529 0.231375 0
M  V30 2565 H 253.652 0.306084 -0.681411 0
M  V30 2566 H 256.314 0.101656 -1.94635 0
M  V30 2567 H 255.41 1.36366 -2.80733 0
M  V30 2568 N 255.711 1.52812 0.385517 0
M  V30 2569 C 256.674 1.77188 1.45386 0
M  V30 2570 C 257.674 0.641953 1.4743 0
M  V30 2571 O 258.864 0.910033 1.4854 0
M  V30 2572 C 255.996 1.87582 2.8465 0
M  V30 2573 H 257.189 2.72583 1.25054 0
M  V30 2574 H 254.742 1.43586 0.617467 0
M  V30 2575 H 255.477 0.941849 3.10322 0
M  V30 2576 H 255.262 2.69748 2.84567 0
M  V30 2577 H 256.752 2.08102 3.62054 0
M  V30 2578 N 257.189 -0.644168 1.43834 0
M  V30 2579 C 258.136 -1.75671 1.49694 0
M  V30 2580 C 259.106 -1.6246 0.345809 0
M  V30 2581 O 260.291 -1.82573 0.554234 0
M  V30 2582 C 257.431 -3.13867 1.43463 0
M  V30 2583 C 256.544 -3.38147 2.6885 0
M  V30 2584 C 255.679 -4.66241 2.54544 0
M  V30 2585 C 254.718 -4.83657 3.75157 0
M  V30 2586 N 253.855 -6.03016 3.59605 0
M  V30 2587 H 258.695 -1.69998 2.44754 0
M  V30 2588 H 256.232 -0.829458 1.21484 0
M  V30 2589 H 258.19 -3.9377 1.37843 0
M  V30 2590 H 256.82 -3.18588 0.519783 0
M  V30 2591 H 255.872 -2.52276 2.84712 0
M  V30 2592 H 257.184 -3.46899 3.58417 0
M  V30 2593 H 256.338 -5.54285 2.46683 0
M  V30 2594 H 255.077 -4.59826 1.62516 0
M  V30 2595 H 254.082 -3.94046 3.83416 0
M  V30 2596 H 255.307 -4.91896 4.68204 0
M  V30 2597 H 253.253 -5.97715 2.7032 0
M  V30 2598 H 253.17 -6.12766 4.42779 0
M  V30 2599 H 254.438 -6.93657 3.55613 0
M  V30 2600 N 258.668 -1.30515 -0.883378 0
M  V30 2601 C 259.6 -1.12846 -1.99496 0
M  V30 2602 C 260.613 -0.0712571 -1.62644 0
M  V30 2603 O 261.802 -0.317432 -1.75655 0
M  V30 2604 C 258.902 -0.699123 -3.3161 0
M  V30 2605 C 258.075 -1.83842 -3.96889 0
M  V30 2606 C 257.134 -1.39737 -5.07307 0
M  V30 2607 O 256.16 -2.10485 -5.28852 0
M  V30 2608 N 257.362 -0.277279 -5.79837 0
M  V30 2609 H 260.127 -2.08585 -2.15203 0
M  V30 2610 H 257.688 -1.22672 -1.05656 0
M  V30 2611 H 259.68 -0.387044 -4.02845 0
M  V30 2612 H 258.25 0.166276 -3.12157 0
M  V30 2613 H 257.47 -2.31853 -3.18807 0
M  V30 2614 H 258.758 -2.60187 -4.37241 0
M  V30 2615 H 258.156 0.3122 -5.64838 0
M  V30 2616 H 256.713 -0.0246623 -6.51795 0
M  V30 2617 N 260.146 1.09593 -1.13257 0
M  V30 2618 C 261.109 2.14359 -0.811358 0
M  V30 2619 C 262.109 1.59808 0.178377 0
M  V30 2620 O 263.299 1.74132 -0.0484911 0
M  V30 2621 C 260.431 3.40269 -0.207276 0
M  V30 2622 H 261.624 2.44284 -1.73969 0
M  V30 2623 H 259.177 1.25102 -0.936973 0
M  V30 2624 H 259.912 3.15969 0.73036 0
M  V30 2625 H 259.697 3.81154 -0.919992 0
M  V30 2626 H 261.187 4.176 0.000667944 0
M  V30 2627 N 261.624 0.925811 1.2754 0
M  V30 2628 C 262.87 0.575575 1.95086 0
M  V30 2629 C 263.225 -0.873246 1.71441 0
M  V30 2630 O 262.518 -1.61443 1.03183 0
M  V30 2631 C 262.712 0.835296 3.47502 0
M  V30 2632 C 262.541 2.30781 3.85967 0
M  V30 2633 C 261.311 2.96017 4.09514 0
M  V30 2634 C 263.509 3.28519 3.95702 0
M  V30 2635 N 261.491 4.3344 4.34744 0
M  V30 2636 C 262.862 4.51146 4.25285 0
M  V30 2637 C 264.917 3.23753 3.7827 0
M  V30 2638 C 263.62 5.69606 4.39251 0
M  V30 2639 C 265.646 4.41523 3.9346 0
M  V30 2640 C 265.008 5.62928 4.23428 0
M  V30 2641 H 261.107 0.260711 0.737261 0
M  V30 2642 H 263.691 1.19204 1.53943 0
M  V30 2643 H 261.862 0.248005 3.87607 0
M  V30 2644 H 263.594 0.447878 4.02214 0
M  V30 2645 H 260.349 2.46695 4.04275 0
M  V30 2646 H 260.773 5.04528 4.5142 0
M  V30 2647 H 265.415 2.3096 3.54143 0
M  V30 2648 H 263.133 6.62866 4.62205 0
M  V30 2649 H 266.719 4.39351 3.81394 0
M  V30 2650 H 265.599 6.52538 4.34929 0
M  V30 2651 N 263.102 -1.41638 0.69111 0
M  V30 2652 C 264.518 -1.55435 0.362224 0
M  V30 2653 C 264.718 -1.66754 -1.13117 0
M  V30 2654 O 263.774 -1.64348 -1.91692 0
M  V30 2655 C 265.087 -2.79588 1.10684 0
M  V30 2656 C 266.635 -2.9338 1.09075 0
M  V30 2657 C 267.11 -4.20414 1.81703 0
M  V30 2658 N 268.601 -4.27362 1.7865 0
M  V30 2659 C 269.336 -5.24507 2.31689 0
M  V30 2660 N 268.832 -6.27708 2.93179 0
M  V30 2661 N 270.625 -5.16416 2.2197 0
M  V30 2662 H 262.776 -1.32536 1.65976 0
M  V30 2663 H 265.039 -0.639115 0.700168 0
M  V30 2664 H 264.745 -2.77419 2.16175 0
M  V30 2665 H 264.619 -3.70973 0.682545 0
M  V30 2666 H 267.006 -2.95067 0.0441238 0
M  V30 2667 H 267.087 -2.0318 1.55407 0
M  V30 2668 H 266.731 -4.19488 2.86343 0
M  V30 2669 H 266.661 -5.09578 1.32808 0
M  V30 2670 H 269.152 -3.53415 1.33815 0
M  V30 2671 H 269.465 -6.98217 3.31229 0
M  V30 2672 H 267.81 -6.28223 2.97255 0
M  V30 2673 H 271.001 -4.34716 1.73607 0
M  V30 2674 H 271.174 -5.91958 2.63609 0
M  V30 2675 N 264.58 -0.43555 -1.51462 0
M  V30 2676 C 265.528 0.391205 -2.29287 0
M  V30 2677 C 266.522 1.02247 -1.35062 0
M  V30 2678 O 267.728 0.957646 -1.52411 0
M  V30 2679 H 264.103 0.144968 -0.737895 0
M  V30 2680 H 266.074 -0.286051 -2.97026 0
M  V30 2681 C 264.823 1.48096 -3.14583 0
M  V30 2682 H 264.146 1.00457 -3.86973 0
M  V30 2683 H 265.586 2.03273 -3.72097 0
M  V30 2684 C 264.045 2.46321 -2.29843 0
M  V30 2685 O 264.575 3.50815 -1.95682 0
M  V30 2686 N 262.781 2.17166 -1.931 0
M  V30 2687 H 262.328 1.32218 -2.21079 0
M  V30 2688 H 262.286 2.83127 -1.36698 0
M  V30 2689 N 266.058 1.56714 -0.166846 0
M  V30 2690 C 267.021 2.16539 0.751232 0
M  V30 2691 C 268.021 1.11228 1.16125 0
M  V30 2692 O 269.211 1.36765 1.07894 0
M  V30 2693 C 266.343 2.74462 2.02196 0
M  V30 2694 H 267.536 2.99013 0.230499 0
M  V30 2695 H 265.089 1.56081 0.0826982 0
M  V30 2696 H 265.824 1.95709 2.58589 0
M  V30 2697 H 265.609 3.51527 1.73698 0
M  V30 2698 H 267.099 3.20489 2.67725 0
M  V30 2699 N 267.536 -0.106894 1.57237 0
M  V30 2700 C 268.947 -0.662723 1.74542 0
M  V30 2701 C 269.298 -1.7971 0.787319 0
M  V30 2702 O 268.423 -2.16368 -0.0369636 0
M  V30 2703 C 269.018 -1.20896 3.16496 0
M  V30 2704 C 267.577 -1.71096 3.35266 0
M  V30 2705 C 266.724 -0.615642 2.7038 0
M  V30 2706 H 269.675 0.119106 1.58252 0
M  V30 2707 H 269.696 -2.07847 3.18716 0
M  V30 2708 H 269.208 -0.383122 3.86204 0
M  V30 2709 H 267.309 -2.56119 2.70618 0
M  V30 2710 H 267.422 -1.81208 4.43509 0
M  V30 2711 H 265.786 -1.05222 2.31949 0
M  V30 2712 H 266.569 0.199419 3.4272 0
M  V30 2713 N 269.014 -1.53014 -0.377408 0
M  V30 2714 C 270.43 -1.42523 -0.718281 0
M  V30 2715 C 270.63 -0.55487 -1.9371 0
M  V30 2716 O 269.686 -0.0327593 -2.52479 0
M  V30 2717 C 270.999 -2.85546 -0.942539 0
M  V30 2718 C 272.547 -2.95101 -1.04329 0
M  V30 2719 C 273.022 -4.3916 -1.3001 0
M  V30 2720 N 274.513 -4.42536 -1.36806 0
M  V30 2721 C 275.248 -5.51097 -1.58364 0
M  V30 2722 N 274.744 -6.69724 -1.77317 0
M  V30 2723 N 276.537 -5.38657 -1.60638 0
M  V30 2724 H 268.688 -2.08116 0.424426 0
M  V30 2725 H 270.951 -0.939352 0.127759 0
M  V30 2726 H 270.657 -3.51499 -0.118929 0
M  V30 2727 H 270.531 -3.28493 -1.85397 0
M  V30 2728 H 272.918 -2.29309 -1.85745 0
M  V30 2729 H 272.999 -2.55566 -0.109505 0
M  V30 2730 H 272.643 -5.05521 -0.490991 0
M  V30 2731 H 272.573 -4.76258 -2.24691 0
M  V30 2732 H 275.064 -3.57039 -1.23821 0
M  V30 2733 H 275.377 -7.48233 -1.93306 0
M  V30 2734 H 273.722 -6.72732 -1.74518 0
M  V30 2735 H 276.913 -4.44948 -1.45391 0
M  V30 2736 H 277.086 -6.2333 -1.77098 0
M  V30 2737 N 270.492 0.636531 -1.44174 0
M  V30 2738 C 271.732 1.40781 -1.48189 0
M  V30 2739 C 272.096 1.91688 -0.10944 0
M  V30 2740 O 273.297 2.68789 -0.0242741 0
M  V30 2741 C 271.568 2.54575 -2.50851 0
M  V30 2742 S 273.127 3.4284 -2.73873 0
M  V30 2743 H 269.945 0.480345 -0.524204 0
M  V30 2744 H 272.547 0.737416 -1.81059 0
M  V30 2745 H 271.251 2.15478 -3.49281 0
M  V30 2746 H 270.782 3.26447 -2.19536 0
M  V30 2747 H 272.797 4.51846 -2.05059 0
M  V30 2748 N 271.97 1.30982 0.876444 0
M  V30 2749 C 273.216 1.20474 1.63138 0
M  V30 2750 C 273.549 -0.238096 1.92735 0
M  V30 2751 O 272.824 -1.1692 1.55435 0
M  V30 2752 C 273.107 2.04244 2.96574 0
M  V30 2753 C 272.96 3.56793 2.73896 0
M  V30 2754 C 274.279 1.88684 3.97601 0
M  V30 2755 H 271.398 0.439001 0.591985 0
M  V30 2756 H 274.04 1.60704 1.01361 0
M  V30 2757 H 272.19 1.70063 3.493 0
M  V30 2758 H 273.862 4.01077 2.27892 0
M  V30 2759 H 272.105 3.80548 2.08245 0
M  V30 2760 H 272.776 4.10706 3.68815 0
M  V30 2761 H 275.252 2.18584 3.54062 0
M  V30 2762 H 274.128 2.4961 4.88862 0
M  V30 2763 H 274.389 0.848343 4.33884 0
M  V30 2764 N 273.449 -1.08991 1.13837 0
M  V30 2765 C 274.697 -1.80899 0.901098 0
M  V30 2766 C 275.018 -1.86356 -0.574134 0
M  V30 2767 O 274.288 -1.35235 -1.41733 0
M  V30 2768 H 272.868 -0.669966 0.330386 0
M  V30 2769 H 275.53 -1.318 1.43578 0
M  V30 2770 H 274.626 -2.83929 1.29578 0
M  V30 2771 N 274.927 -0.932562 -1.27047 0
M  V30 2772 C 276.343 -0.633544 -1.46487 0
M  V30 2773 C 276.543 0.815746 -1.84249 0
M  V30 2774 O 275.599 1.59319 -1.95892 0
M  V30 2775 C 276.912 -1.58758 -2.55375 0
M  V30 2776 C 278.46 -1.59634 -2.69232 0
M  V30 2777 C 278.935 -2.53747 -3.81283 0
M  V30 2778 N 280.426 -2.51982 -3.88664 0
M  V30 2779 C 281.161 -3.21491 -4.74796 0
M  V30 2780 N 280.657 -4.00395 -5.65381 0
M  V30 2781 N 282.45 -3.10485 -4.68568 0
M  V30 2782 H 274.601 -1.86946 -1.00821 0
M  V30 2783 H 276.864 -0.802897 -0.504044 0
M  V30 2784 H 276.57 -2.62172 -2.34432 0
M  V30 2785 H 276.444 -1.33301 -3.52861 0
M  V30 2786 H 278.831 -0.569488 -2.89553 0
M  V30 2787 H 278.912 -1.89142 -1.72218 0
M  V30 2788 H 278.556 -3.56545 -3.61715 0
M  V30 2789 H 278.486 -2.21532 -4.77735 0
M  V30 2790 H 280.977 -1.94681 -3.23895 0
M  V30 2791 H 281.29 -4.50406 -6.27976 0
M  V30 2792 H 279.635 -4.04498 -5.65161 0
M  V30 2793 H 282.826 -2.48331 -3.96799 0
M  V30 2794 H 282.999 -3.64925 -5.35475 0
M  V30 2795 N 276.405 1.4127 -0.698611 0
M  V30 2796 C 277.654 2.00408 -0.227949 0
M  V30 2797 C 277.967 1.55981 1.18023 0
M  V30 2798 O 279.173 2.07699 1.74852 0
M  V30 2799 C 277.629 3.58129 -0.356636 0
M  V30 2800 C 277.237 4.11536 -1.77037 0
M  V30 2801 C 278.981 4.24466 0.0540969 0
M  V30 2802 C 276.888 5.61701 -1.85055 0
M  V30 2803 H 275.818 0.749586 -0.0814657 0
M  V30 2804 H 278.469 1.61713 -0.867249 0
M  V30 2805 H 276.851 3.94442 0.350965 0
M  V30 2806 H 278.025 3.86636 -2.50698 0
M  V30 2807 H 276.34 3.57736 -2.13105 0
M  V30 2808 H 278.937 5.34698 0.0146723 0
M  V30 2809 H 279.28 4.01687 1.09332 0
M  V30 2810 H 279.813 3.93198 -0.603337 0
M  V30 2811 H 276.552 5.89312 -2.8704 0
M  V30 2812 H 276.072 5.88519 -1.15783 0
M  V30 2813 H 277.751 6.26524 -1.61484 0
M  V30 2814 N 277.883 0.443576 1.51229 0
M  V30 2815 C 278.815 -0.400608 2.25672 0
M  V30 2816 C 279.828 -0.980945 1.29928 0
M  V30 2817 O 281.017 -0.874024 1.55638 0
M  V30 2818 C 278.117 -1.57304 3.00181 0
M  V30 2819 C 277.29 -1.11046 4.23069 0
M  V30 2820 C 276.349 -2.15374 4.80105 0
M  V30 2821 O 275.375 -1.74554 5.41774 0
M  V30 2822 N 276.577 -3.47922 4.64683 0
M  V30 2823 H 279.342 0.23745 2.98758 0
M  V30 2824 H 276.903 0.272809 1.59585 0
M  V30 2825 H 278.895 -2.26733 3.35223 0
M  V30 2826 H 277.465 -2.11632 2.30066 0
M  V30 2827 H 276.685 -0.243019 3.9345 0
M  V30 2828 H 277.973 -0.778888 5.02803 0
M  V30 2829 H 277.371 -3.83815 4.15575 0
M  V30 2830 H 275.928 -4.13228 5.0407 0
M  V30 2831 N 279.361 -1.56624 0.175154 0
M  V30 2832 C 280.607 -1.98061 -0.462976 0
M  V30 2833 C 280.962 -1.05949 -1.60601 0
M  V30 2834 O 280.255 -0.0999027 -1.91339 0
M  V30 2835 C 280.449 -3.43419 -0.989864 0
M  V30 2836 C 280.278 -4.49587 0.100583 0
M  V30 2837 C 279.048 -5.02281 0.551539 0
M  V30 2838 C 281.246 -5.06322 0.902369 0
M  V30 2839 N 279.228 -5.92088 1.62189 0
M  V30 2840 C 280.599 -5.92607 1.82256 0
M  V30 2841 C 282.654 -4.88811 0.947019 0
M  V30 2842 C 281.357 -6.63254 2.78364 0
M  V30 2843 C 283.383 -5.60182 1.89606 0
M  V30 2844 C 282.745 -6.46197 2.80372 0
M  V30 2845 H 278.844 -0.769833 -0.137409 0
M  V30 2846 H 281.428 -1.9273 0.276256 0
M  V30 2847 H 279.599 -3.49288 -1.6986 0
M  V30 2848 H 281.331 -3.7186 -1.59694 0
M  V30 2849 H 278.086 -4.73367 0.148537 0
M  V30 2850 H 278.51 -6.41696 2.15767 0
M  V30 2851 H 283.152 -4.22004 0.259304 0
M  V30 2852 H 280.87 -7.29271 3.48122 0
M  V30 2853 H 284.456 -5.48617 1.93676 0
M  V30 2854 H 283.336 -7.00453 3.52612 0
M  V30 2855 N 280.839 0.0985539 -1.57292 0
M  V30 2856 C 282.087 0.801092 -1.85545 0
M  V30 2857 C 282.408 1.79438 -0.763353 0
M  V30 2858 O 281.678 1.94763 0.21073 0
M  V30 2859 H 280.258 0.29884 -0.684619 0
M  V30 2860 H 282.92 0.0810064 -1.94732 0
M  V30 2861 H 282.016 1.3338 -2.82163 0
M  V30 2862 N 282.317 1.53212 0.369288 0
M  V30 2863 C 283.264 1.79388 1.45219 0
M  V30 2864 C 284.234 0.638059 1.53356 0
M  V30 2865 O 285.419 0.879852 1.69302 0
M  V30 2866 C 282.559 1.98623 2.82211 0
M  V30 2867 C 281.672 3.26337 2.8307 0
M  V30 2868 C 280.807 3.35779 4.11614 0
M  V30 2869 C 279.846 4.5754 4.06601 0
M  V30 2870 N 278.983 4.64155 5.26787 0
M  V30 2871 H 283.823 2.71794 1.22198 0
M  V30 2872 H 281.36 1.34642 0.592444 0
M  V30 2873 H 283.318 2.07761 3.61789 0
M  V30 2874 H 281.948 1.09558 3.03639 0
M  V30 2875 H 281 3.26171 1.95747 0
M  V30 2876 H 282.312 4.15988 2.75237 0
M  V30 2877 H 281.466 3.44208 4.99606 0
M  V30 2878 H 280.205 2.44137 4.22195 0
M  V30 2879 H 279.21 4.49215 3.16996 0
M  V30 2880 H 280.435 5.50519 3.97625 0
M  V30 2881 H 278.381 3.75413 5.3796 0
M  V30 2882 H 278.298 5.47706 5.21109 0
M  V30 2883 H 279.566 4.76863 6.16621 0
M  V30 2884 N 283.795 -0.628877 1.44509 0
M  V30 2885 C 284.725 -1.75187 1.54376 0
M  V30 2886 C 285.706 -1.65411 0.396618 0
M  V30 2887 O 286.891 -1.84137 0.617031 0
M  V30 2888 C 284.021 -3.13725 1.48976 0
M  V30 2889 C 282.975 -3.38291 2.62189 0
M  V30 2890 C 282.301 -4.76883 2.41841 0
M  V30 2891 C 283.601 -3.30632 4.04326 0
M  V30 2892 H 285.295 -1.67187 2.48373 0
M  V30 2893 H 282.841 -0.802909 1.19538 0
M  V30 2894 H 284.794 -3.92064 1.54478 0
M  V30 2895 H 283.518 -3.22515 0.514961 0
M  V30 2896 H 282.177 -2.62334 2.56079 0
M  V30 2897 H 281.825 -4.82378 1.42548 0
M  V30 2898 H 281.525 -4.94278 3.17747 0
M  V30 2899 H 283.049 -5.57449 2.49165 0
M  V30 2900 H 284.463 -3.98873 4.11793 0
M  V30 2901 H 282.86 -3.59561 4.80454 0
M  V30 2902 H 283.93 -2.28404 4.27738 0
M  V30 2903 N 285.273 -1.31445 -0.869486 0
M  V30 2904 C 286.205 -1.14955 -1.98287 0
M  V30 2905 C 287.218 -0.0885037 -1.62559 0
M  V30 2906 O 288.407 -0.336044 -1.75308 0
M  V30 2907 C 285.507 -0.734255 -3.3085 0
M  V30 2908 C 284.68 -1.88042 -3.94917 0
M  V30 2909 C 283.739 -1.4511 -5.05796 0
M  V30 2910 O 282.765 -2.16082 -5.2659 0
M  V30 2911 N 283.967 -0.338763 -5.79511 0
M  V30 2912 H 286.732 -2.10856 -2.12979 0
M  V30 2913 H 284.293 -1.23786 -1.04349 0
M  V30 2914 H 286.285 -0.42975 -4.02412 0
M  V30 2915 H 284.855 0.133158 -3.12316 0
M  V30 2916 H 284.075 -2.35222 -3.1633 0
M  V30 2917 H 285.363 -2.6481 -4.34457 0
M  V30 2918 H 284.761 0.252274 -5.65137 0
M  V30 2919 H 283.318 -0.0937925 -6.51733 0
M  V30 2920 N 286.751 1.08385 -1.14413 0
M  V30 2921 C 287.997 1.81044 -0.913834 0
M  V30 2922 C 288.33 1.86004 0.558209 0
M  V30 2923 O 287.605 1.33606 1.4135 0
M  V30 2924 C 287.888 3.26648 -1.51569 0
M  V30 2925 C 287.741 3.29895 -3.0576 0
M  V30 2926 C 289.06 4.23629 -1.19273 0
M  V30 2927 H 286.179 0.65727 -0.333414 0
M  V30 2928 H 288.821 1.26896 -1.41412 0
M  V30 2929 H 286.971 3.72889 -1.09023 0
M  V30 2930 H 288.643 2.91977 -3.57137 0
M  V30 2931 H 286.886 2.69163 -3.40197 0
M  V30 2932 H 287.557 4.32516 -3.42977 0
M  V30 2933 H 290.033 3.85727 -1.56057 0
M  V30 2934 H 288.909 5.23822 -1.64017 0
M  V30 2935 H 289.17 4.41968 -0.108068 0
M  V30 2936 N 288.23 0.939286 1.26551 0
M  V30 2937 C 289.477 0.585847 1.9384 0
M  V30 2938 C 289.805 -0.874784 1.73718 0
M  V30 2939 O 289.06 -1.64092 1.06642 0
M  V30 2940 C 289.359 0.872106 3.46596 0
M  V30 2941 C 289.025 2.31632 3.86856 0
M  V30 2942 C 287.687 2.71111 3.97558 0
M  V30 2943 C 290.039 3.25494 4.07066 0
M  V30 2944 C 287.367 4.03553 4.25866 0
M  V30 2945 C 289.719 4.57531 4.36862 0
M  V30 2946 C 288.383 4.96828 4.45778 0
M  V30 2947 H 287.653 0.214377 0.709312 0
M  V30 2948 H 290.3 1.18544 1.50398 0
M  V30 2949 H 288.605 0.18996 3.91339 0
M  V30 2950 H 290.302 0.577442 3.96821 0
M  V30 2951 H 286.892 2.00008 3.79071 0
M  V30 2952 H 291.076 2.9619 3.98227 0
M  V30 2953 H 286.332 4.33665 4.30981 0
M  V30 2954 H 290.506 5.30254 4.51446 0
M  V30 2955 H 288.133 5.99482 4.67468 0
M  V30 2956 N 289.708 -1.40897 0.706093 0
M  V30 2957 C 290.985 -1.94868 0.169099 0
M  V30 2958 C 291.365 -1.64485 -1.32318 0
M  V30 2959 O 290.713 -0.95744 -2.07474 0
M  V30 2960 C 290.923 -3.45798 0.471654 0
M  V30 2961 C 292.271 -4.22663 0.405127 0
M  V30 2962 O 293.295 -3.53865 0.407168 0
M  V30 2963 O 292.154 -5.45216 0.374383 0
M  V30 2964 H 289.248 -0.82673 0.0211352 0
M  V30 2965 H 291.794 -1.50558 0.782976 0
M  V30 2966 H 290.566 -3.61235 1.50416 0
M  V30 2967 H 290.189 -3.97225 -0.172666 0
M  V30 2968 N 291.186 -0.45159 -1.50991 0
M  V30 2969 C 292.149 0.341117 -2.26647 0
M  V30 2970 C 293.149 0.937422 -1.30649 0
M  V30 2971 O 294.339 0.809644 -1.54241 0
M  V30 2972 C 291.471 1.48398 -3.06905 0
M  V30 2973 H 292.664 -0.322117 -2.98165 0
M  V30 2974 H 290.217 -0.205122 -1.54948 0
M  V30 2975 H 290.952 2.18284 -2.39838 0
M  V30 2976 H 290.737 1.06241 -3.77432 0
M  V30 2977 H 292.227 2.04367 -3.64176 0
M  V30 2978 N 292.664 1.56529 -0.183458 0
M  V30 2979 C 294.08 1.58664 0.172554 0
M  V30 2980 C 294.28 1.19925 1.61926 0
M  V30 2981 O 293.336 0.916534 2.35278 0
M  V30 2982 C 294.649 3.00463 -0.119262 0
M  V30 2983 C 296.197 3.12945 -0.0584396 0
M  V30 2984 C 296.672 4.56857 -0.323408 0
M  V30 2985 N 298.163 4.62403 -0.271612 0
M  V30 2986 C 298.898 5.71626 -0.450639 0
M  V30 2987 N 298.394 6.89362 -0.689384 0
M  V30 2988 N 300.187 5.60775 -0.385701 0
M  V30 2989 H 292.338 1.79994 -1.12765 0
M  V30 2990 H 294.601 0.834808 -0.449222 0
M  V30 2991 H 294.307 3.33326 -1.12192 0
M  V30 2992 H 294.181 3.72659 0.583544 0
M  V30 2993 H 296.568 2.79902 0.934805 0
M  V30 2994 H 296.649 2.4316 -0.794144 0
M  V30 2995 H 296.293 4.9061 -1.31392 0
M  V30 2996 H 296.223 5.24816 0.43305 0
M  V30 2997 H 298.714 3.77785 -0.0932256 0
M  V30 2998 H 299.027 7.68489 -0.815113 0
M  V30 2999 H 297.372 6.91196 -0.726142 0
M  V30 3000 H 300.563 4.67674 -0.199687 0
M  V30 3001 H 300.736 6.4584 -0.528646 0
M  V30 3002 N 294.142 -0.090211 1.57342 0
M  V30 3003 C 295.419 -0.824761 1.77361 0
M  V30 3004 C 295.799 -1.96698 0.76637 0
M  V30 3005 O 295.147 -2.27586 -0.204179 0
M  V30 3006 C 295.357 -1.31481 3.23286 0
M  V30 3007 C 296.705 -1.75563 3.86604 0
M  V30 3008 O 297.729 -1.41093 3.27065 0
M  V30 3009 O 296.588 -2.39317 4.91314 0
M  V30 3010 H 293.682 -0.393776 0.727234 0
M  V30 3011 H 296.228 -0.0717138 1.69548 0
M  V30 3012 H 295 -0.496671 3.88135 0
M  V30 3013 H 294.623 -2.12973 3.35751 0
M  V30 3014 N 295.62 -1.53406 -0.361157 0
M  V30 3015 C 296.86 -1.71507 -1.11197 0
M  V30 3016 C 297.224 -0.459337 -1.86425 0
M  V30 3017 O 298.425 -0.517102 -2.63779 0
M  V30 3018 C 296.696 -2.93307 -2.0422 0
M  V30 3019 S 298.255 -3.32135 -2.86761 0
M  V30 3020 H 295.073 -0.603448 -0.375995 0
M  V30 3021 H 297.675 -1.91516 -0.392642 0
M  V30 3022 H 296.379 -3.82891 -1.47724 0
M  V30 3023 H 295.91 -2.75712 -2.80618 0
M  V30 3024 H 297.925 -2.84493 -4.06544 0
M  V30 3025 N 297.098 0.621204 -1.44841 0
M  V30 3026 C 298.514 0.94048 -1.28946 0
M  V30 3027 C 298.714 2.00154 -0.23249 0
M  V30 3028 O 297.77 2.49651 0.378237 0
M  V30 3029 C 299.083 1.39433 -2.66419 0
M  V30 3030 C 300.631 1.50927 -2.74208 0
M  V30 3031 C 301.106 1.99692 -4.12174 0
M  V30 3032 N 302.597 2.06947 -4.144 0
M  V30 3033 C 303.332 2.45871 -5.1801 0
M  V30 3034 N 302.828 2.83862 -6.31977 0
M  V30 3035 N 304.621 2.46092 -5.05366 0
M  V30 3036 H 296.772 -0.0803548 -2.12248 0
M  V30 3037 H 299.035 0.0266913 -0.947624 0
M  V30 3038 H 298.741 0.688925 -3.44887 0
M  V30 3039 H 298.615 2.36347 -2.93973 0
M  V30 3040 H 301.002 2.20561 -1.96053 0
M  V30 3041 H 301.083 0.523627 -2.50383 0
M  V30 3042 H 300.727 1.30649 -4.90809 0
M  V30 3043 H 300.657 2.99146 -4.33381 0
M  V30 3044 H 303.148 1.80232 -3.32152 0
M  V30 3045 H 303.461 3.12405 -7.0684 0
M  V30 3046 H 301.806 2.8159 -6.35399 0
M  V30 3047 H 304.997 2.1581 -4.15384 0
M  V30 3048 H 305.17 2.76102 -5.86235 0
M  V30 3049 N 298.576 1.31904 0.862503 0
M  V30 3050 C 299.801 1.25135 1.65397 0
M  V30 3051 C 300.226 -0.179 1.87246 0
M  V30 3052 O 299.584 -1.1277 1.4196 0
M  V30 3053 C 299.632 2.00832 2.99498 0
M  V30 3054 O 298.736 1.35075 3.89652 0
M  V30 3055 H 298.077 0.431655 0.504549 0
M  V30 3056 H 300.607 1.74094 1.07483 0
M  V30 3057 H 300.617 2.10709 3.49379 0
M  V30 3058 H 299.292 3.04847 2.82916 0
M  V30 3059 H 297.869 1.33696 3.48109 0
M  V30 3060 N 300.054 -1.07777 1.14986 0
M  V30 3061 C 301.017 -2.13041 0.845358 0
M  V30 3062 C 302.017 -1.60071 -0.152931 0
M  V30 3063 O 303.207 -1.74033 0.0761879 0
M  V30 3064 C 300.339 -3.39896 0.261383 0
M  V30 3065 H 301.532 -2.41485 1.77834 0
M  V30 3066 H 299.085 -1.23595 0.956757 0
M  V30 3067 H 299.82 -3.17091 -0.68 0
M  V30 3068 H 299.605 -3.79642 0.980514 0
M  V30 3069 H 301.095 -4.17548 0.0657687 0
M  V30 3070 N 301.532 -0.945985 -1.26051 0
M  V30 3071 C 302.464 -0.416662 -2.25381 0
M  V30 3072 C 303.477 0.462712 -1.56086 0
M  V30 3073 O 304.666 0.272383 -1.7641 0
M  V30 3074 C 301.766 0.419812 -3.3629 0
M  V30 3075 C 300.939 -0.444531 -4.35135 0
M  V30 3076 C 299.998 0.332305 -5.2515 0
M  V30 3077 O 299.024 -0.266324 -5.68577 0
M  V30 3078 N 300.226 1.62763 -5.57215 0
M  V30 3079 H 302.991 -1.27059 -2.71433 0
M  V30 3080 H 300.552 -0.815392 -1.39868 0
M  V30 3081 H 302.544 0.947013 -3.93464 0
M  V30 3082 H 301.114 1.17456 -2.89694 0
M  V30 3083 H 300.334 -1.15291 -3.76964 0
M  V30 3084 H 301.622 -1.03478 -4.98166 0
M  V30 3085 H 301.02 2.13603 -5.23823 0
M  V30 3086 H 299.577 2.10097 -6.17011 0
M  V30 3087 N 303.011 1.40521 -0.713556 0
M  V30 3088 C 303.921 2.34522 -0.0606667 0
M  V30 3089 C 304.937 1.57193 0.74607 0
M  V30 3090 O 306.113 1.89591 0.679493 0
M  V30 3091 C 303.178 3.36081 0.851491 0
M  V30 3092 C 302.239 4.29286 0.0349339 0
M  V30 3093 C 301.472 5.25994 0.903649 0
M  V30 3094 O 301.695 5.28616 2.14292 0
M  V30 3095 O 300.629 6.00918 0.343723 0
M  V30 3096 H 304.455 2.91968 -0.835972 0
M  V30 3097 H 302.04 1.41681 -0.47402 0
M  V30 3098 H 303.922 3.98369 1.37404 0
M  V30 3099 H 302.597 2.81052 1.60598 0
M  V30 3100 H 301.504 3.70289 -0.532633 0
M  V30 3101 H 302.837 4.87462 -0.681287 0
M  V30 3102 N 304.489 0.459591 1.5075 0
M  V30 3103 C 305.422 -0.386257 2.24907 0
M  V30 3104 C 306.4 -1.006 1.27744 0
M  V30 3105 O 307.584 -1.04416 1.56938 0
M  V30 3106 C 304.711 -1.54021 3.01654 0
M  V30 3107 C 303.757 -1.03898 4.13651 0
M  V30 3108 S 304.59 0.0370501 5.35487 0
M  V30 3109 C 305.746 -1.12105 6.15779 0
M  V30 3110 H 305.979 0.243272 2.96303 0
M  V30 3111 H 303.512 0.244339 1.52454 0
M  V30 3112 H 305.47 -2.20163 3.46466 0
M  V30 3113 H 304.131 -2.14121 2.29806 0
M  V30 3114 H 303.324 -1.90254 4.66711 0
M  V30 3115 H 302.926 -0.45545 3.71216 0
M  V30 3116 H 305.218 -2.03501 6.46215 0
M  V30 3117 H 306.161 -0.62995 7.05292 0
M  V30 3118 H 306.569 -1.36967 5.47631 0
M  V30 3119 N 305.967 -1.56429 0.191757 0
M  V30 3120 C 307.214 -1.97485 -0.447891 0
M  V30 3121 C 307.542 -1.07852 -1.61859 0
M  V30 3122 O 306.797 -0.116903 -1.95351 0
M  V30 3123 C 307.096 -3.44449 -0.953384 0
M  V30 3124 C 306.762 -4.50781 0.103586 0
M  V30 3125 C 305.424 -4.79584 0.394023 0
M  V30 3126 C 307.776 -5.1471 0.819946 0
M  V30 3127 C 305.104 -5.69607 1.40585 0
M  V30 3128 C 307.456 -6.05827 1.8209 0
M  V30 3129 C 306.12 -6.32987 2.11857 0
M  V30 3130 H 305.39 -0.722648 -0.163895 0
M  V30 3131 H 308.037 -1.89322 0.28802 0
M  V30 3132 H 306.342 -3.49666 -1.76751 0
M  V30 3133 H 308.039 -3.73569 -1.45765 0
M  V30 3134 H 304.629 -4.28394 -0.132951 0
M  V30 3135 H 308.813 -4.92552 0.608789 0
M  V30 3136 H 304.069 -5.88926 1.64243 0
M  V30 3137 H 308.243 -6.54424 2.38123 0
M  V30 3138 H 305.87 -7.02544 2.90407 0
M  V30 3139 N 307.445 0.0818655 -1.57387 0
M  V30 3140 C 308.673 0.796108 -1.9097 0
M  V30 3141 C 309.088 1.71626 -0.786757 0
M  V30 3142 O 308.445 1.80908 0.240513 0
M  V30 3143 C 308.496 1.59829 -3.24248 0
M  V30 3144 O 308.217 0.715131 -4.32224 0
M  V30 3145 C 309.718 2.41442 -3.7178 0
M  V30 3146 H 306.938 0.22691 -0.631469 0
M  V30 3147 H 309.482 0.0551439 -2.04426 0
M  V30 3148 H 307.637 2.29163 -3.12351 0
M  V30 3149 H 308.051 1.27205 -5.08841 0
M  V30 3150 H 309.525 2.932 -4.67694 0
M  V30 3151 H 310.002 3.2051 -3.00283 0
M  V30 3152 H 310.608 1.77283 -3.86589 0
M  V30 3153 N 308.923 1.53595 0.353017 0
M  V30 3154 C 310.153 1.74058 1.11299 0
M  V30 3155 C 310.561 0.475205 1.83135 0
M  V30 3156 O 309.904 -0.562344 1.74881 0
M  V30 3157 C 309.966 2.85994 2.17825 0
M  V30 3158 C 309.63 4.25923 1.65647 0
M  V30 3159 C 310.627 5.07829 1.11383 0
M  V30 3160 C 308.312 4.72377 1.7078 0
M  V30 3161 C 310.306 6.34285 0.629439 0
M  V30 3162 C 307.993 5.98808 1.21953 0
M  V30 3163 C 308.991 6.79594 0.681265 0
M  V30 3164 O 308.679 8.03651 0.200248 0
M  V30 3165 H 308.411 0.585327 0.338183 0
M  V30 3166 H 310.965 2.01186 0.413927 0
M  V30 3167 H 309.195 2.54368 2.91262 0
M  V30 3168 H 310.884 2.94515 2.79313 0
M  V30 3169 H 311.65 4.73107 1.06746 0
M  V30 3170 H 307.529 4.0956 2.11617 0
M  V30 3171 H 311.073 6.97288 0.208636 0
M  V30 3172 H 306.97 6.33026 1.26287 0
M  V30 3173 H 307.738 8.1788 0.318416 0
M  V30 3174 N 310.401 -0.613514 1.45168 0
M  V30 3175 C 311.65 -1.36874 1.4815 0
M  V30 3176 C 311.963 -1.952 0.124982 0
M  V30 3177 O 313.169 -2.71481 0.0324176 0
M  V30 3178 C 311.625 -2.47905 2.60904 0
M  V30 3179 C 311.233 -1.96016 4.02842 0
M  V30 3180 C 312.977 -3.24965 2.73126 0
M  V30 3181 C 310.884 -3.04494 5.06988 0
M  V30 3182 H 309.814 -0.514428 0.551253 0
M  V30 3183 H 312.465 -0.658182 1.7129 0
M  V30 3184 H 310.847 -3.21618 2.31037 0
M  V30 3185 H 312.021 -1.29051 4.4236 0
M  V30 3186 H 310.336 -1.31719 3.95018 0
M  V30 3187 H 312.933 -4.05865 3.48106 0
M  V30 3188 H 313.276 -3.75588 1.79553 0
M  V30 3189 H 313.809 -2.5835 3.0249 0
M  V30 3190 H 310.548 -2.58795 6.0225 0
M  V30 3191 H 310.068 -3.70044 4.72046 0
M  V30 3192 H 311.747 -3.68976 5.31475 0
M  V30 3193 N 311.879 -1.3236 -0.855495 0
M  V30 3194 C 313.119 -1.24187 -1.62348 0
M  V30 3195 C 313.483 0.193597 -1.91021 0
M  V30 3196 O 314.684 0.39904 -2.65822 0
M  V30 3197 C 312.955 -2.07661 -2.90881 0
M  V30 3198 S 314.514 -2.16505 -3.81669 0
M  V30 3199 H 311.332 -0.442076 -0.556857 0
M  V30 3200 H 313.934 -1.67198 -1.01317 0
M  V30 3201 H 312.638 -3.11018 -2.67761 0
M  V30 3202 H 312.169 -1.65425 -3.56929 0
M  V30 3203 H 314.184 -1.31394 -4.78487 0
M  V30 3204 N 313.357 1.07166 -1.15556 0
M  V30 3205 C 314.305 2.16517 -0.8499 0
M  V30 3206 C 315.299 1.68468 0.177454 0
M  V30 3207 O 316.505 1.79971 0.0323026 0
M  V30 3208 H 312.88 0.706652 -0.25719 0
M  V30 3209 H 314.851 2.39514 -1.77976 0
M  V30 3210 C 313.6 3.45855 -0.357682 0
M  V30 3211 H 312.923 3.83214 -1.13961 0
M  V30 3212 H 314.363 4.23607 -0.182489 0
M  V30 3213 C 312.822 3.24062 0.921152 0
M  V30 3214 O 313.352 3.48813 1.9923 0
M  V30 3215 N 311.558 2.77539 0.86141 0
M  V30 3216 H 311.105 2.57598 -0.0104408 0
M  V30 3217 H 311.063 2.63337 1.71758 0
M  V30 3218 N 314.835 0.952656 1.25548 0
M  V30 3219 C 315.785 0.442033 2.23674 0
M  V30 3220 C 316.769 -0.467632 1.53955 0
M  V30 3221 O 317.961 -0.301006 1.74422 0
M  V30 3222 C 315.09 -0.280816 3.4215 0
M  V30 3223 C 314.176 0.646803 4.19139 0
M  V30 3224 N 314.567 1.77759 4.73535 0
M  V30 3225 C 312.865 0.454617 4.43677 0
M  V30 3226 C 313.566 2.35658 5.31827 0
M  V30 3227 N 312.542 1.64333 5.18166 0
M  V30 3228 H 316.344 1.30505 2.63336 0
M  V30 3229 H 313.858 0.809904 1.40763 0
M  V30 3230 H 315.855 -0.663747 4.11582 0
M  V30 3231 H 314.515 -1.14046 3.04012 0
M  V30 3232 H 315.526 2.15949 4.7073 0
M  V30 3233 H 312.203 -0.362312 4.15925 0
M  V30 3234 H 313.593 3.30998 5.84713 0
M  V30 3235 N 316.313 -1.40141 0.720998 0
M  V30 3236 C 317.562 -2.0002 0.259804 0
M  V30 3237 C 317.875 -1.57839 -1.15526 0
M  V30 3238 O 319.081 -2.10455 -1.71525 0
M  V30 3239 C 317.537 -3.57516 0.413566 0
M  V30 3240 C 317.145 -4.08667 1.83562 0
M  V30 3241 C 318.889 -4.24498 0.0134387 0
M  V30 3242 C 316.796 -5.58686 1.93968 0
M  V30 3243 H 315.726 -0.748195 0.0933806 0
M  V30 3244 H 318.377 -1.60313 0.892866 0
M  V30 3245 H 316.759 -3.9495 -0.288169 0
M  V30 3246 H 317.933 -3.82598 2.56817 0
M  V30 3247 H 316.248 -3.543 2.1877 0
M  V30 3248 H 318.845 -5.34654 0.0703954 0
M  V30 3249 H 319.188 -4.03375 -1.02927 0
M  V30 3250 H 319.721 -3.92188 0.665815 0
M  V30 3251 H 316.46 -5.8467 2.96379 0
M  V30 3252 H 315.98 -5.86602 1.25131 0
M  V30 3253 H 317.659 -6.23875 1.71431 0
M  V30 3254 N 317.792 -0.46758 -1.50504 0
M  V30 3255 C 318.739 0.328413 -2.28452 0
M  V30 3256 C 319.709 0.990313 -1.33349 0
M  V30 3257 O 320.894 1.00343 -1.62284 0
M  V30 3258 C 318.034 1.40648 -3.15138 0
M  V30 3259 C 317.147 0.759709 -4.25267 0
M  V30 3260 C 316.282 1.81537 -4.99217 0
M  V30 3261 C 315.321 1.14866 -6.01226 0
M  V30 3262 N 314.458 2.14702 -6.68467 0
M  V30 3263 H 319.298 -0.342603 -2.96024 0
M  V30 3264 H 316.835 -0.180801 -1.45985 0
M  V30 3265 H 318.793 2.04315 -3.63746 0
M  V30 3266 H 317.423 2.04671 -2.49619 0
M  V30 3267 H 316.475 0.0105671 -3.80399 0
M  V30 3268 H 317.787 0.233243 -4.98254 0
M  V30 3269 H 316.941 2.52793 -5.51526 0
M  V30 3270 H 315.68 2.37564 -4.25928 0
M  V30 3271 H 314.685 0.42171 -5.4818 0
M  V30 3272 H 315.91 0.595334 -6.76485 0
M  V30 3273 H 313.856 2.69752 -5.97972 0
M  V30 3274 H 313.773 1.6703 -7.37317 0
M  V30 3275 H 315.041 2.85348 -7.25394 0
M  V30 3276 N 319.27 1.56325 -0.20005 0
M  V30 3277 C 320.5 2.01811 0.442232 0
M  V30 3278 C 320.908 1.07932 1.55394 0
M  V30 3279 O 320.251 0.0772685 1.83537 0
M  V30 3280 C 320.313 3.43685 1.05457 0
M  V30 3281 C 319.977 4.56928 0.0809833 0
M  V30 3282 C 320.974 5.15009 -0.711471 0
M  V30 3283 C 318.659 5.0229 -0.0315364 0
M  V30 3284 C 320.653 6.16904 -1.60336 0
M  V30 3285 C 318.34 6.04028 -0.926981 0
M  V30 3286 C 319.338 6.6121 -1.71146 0
M  V30 3287 O 319.026 7.60971 -2.59189 0
M  V30 3288 H 318.758 0.666173 0.114848 0
M  V30 3289 H 321.312 2.03085 -0.307511 0
M  V30 3290 H 319.542 3.39413 1.85299 0
M  V30 3291 H 321.231 3.72948 1.60201 0
M  V30 3292 H 321.997 4.80827 -0.634873 0
M  V30 3293 H 317.876 4.57476 0.568902 0
M  V30 3294 H 321.42 6.61464 -2.21611 0
M  V30 3295 H 317.317 6.37634 -1.00468 0
M  V30 3296 H 318.085 7.7841 -2.53023 0
M  V30 3297 N 320.748 -0.0735177 1.57428 0
M  V30 3298 C 321.711 -1.07192 2.02589 0
M  V30 3299 C 322.711 -1.31695 0.922661 0
M  V30 3300 O 323.901 -1.27445 1.18758 0
M  V30 3301 C 321.033 -2.41599 2.40506 0
M  V30 3302 H 322.226 -0.682727 2.92025 0
M  V30 3303 H 319.779 -0.319193 1.53006 0
M  V30 3304 H 320.514 -2.85354 1.5409 0
M  V30 3305 H 320.299 -2.25156 3.21009 0
M  V30 3306 H 321.789 -3.13367 2.76027 0
M  V30 3307 N 322.226 -1.5378 -0.344866 0
M  V30 3308 C 323.454 -1.74899 -1.10534 0
M  V30 3309 C 323.869 -0.487534 -1.82397 0
M  V30 3310 O 323.226 0.540741 -1.74305 0
M  V30 3311 C 323.277 -2.92822 -2.11984 0
M  V30 3312 O 322.998 -4.14089 -1.43044 0
M  V30 3313 C 324.499 -3.25982 -3.00417 0
M  V30 3314 H 321.719 -0.584426 -0.329678 0
M  V30 3315 H 324.263 -2.006 -0.397474 0
M  V30 3316 H 322.418 -2.69457 -2.78338 0
M  V30 3317 H 322.832 -4.80272 -2.10805 0
M  V30 3318 H 324.306 -4.11848 -3.67539 0
M  V30 3319 H 324.783 -2.42228 -3.66363 0
M  V30 3320 H 325.389 -3.51349 -2.39654 0
M  V30 3321 N 323.704 0.605807 -1.45491 0
M  V30 3322 C 324.652 1.73754 -1.54636 0
M  V30 3323 C 325.646 1.64207 -0.416219 0
M  V30 3324 O 326.852 1.69979 -0.592199 0
M  V30 3325 H 323.227 0.574073 -0.485741 0
M  V30 3326 H 325.198 1.63169 -2.49837 0
M  V30 3327 C 323.947 3.12135 -1.53189 0
M  V30 3328 H 323.27 3.20141 -2.39478 0
M  V30 3329 H 324.71 3.91147 -1.63645 0
M  V30 3330 C 323.169 3.35921 -0.256616 0
M  V30 3331 O 323.699 3.96194 0.662798 0
M  V30 3332 N 321.905 2.90204 -0.151751 0
M  V30 3333 H 321.452 2.41336 -0.90081 0
M  V30 3334 H 321.41 3.06492 0.700699 0
M  V30 3335 N 325.182 1.32811 0.848464 0
M  V30 3336 C 326.598 1.11937 1.13764 0
M  V30 3337 C 326.798 -0.0960789 2.01271 0
M  V30 3338 O 325.854 -0.779165 2.40178 0
M  V30 3339 C 327.167 2.402 1.809 0
M  V30 3340 C 328.715 2.46016 1.93508 0
M  V30 3341 C 329.19 3.74215 2.64059 0
M  V30 3342 N 330.681 3.75232 2.71579 0
M  V30 3343 C 331.416 4.71134 3.26833 0
M  V30 3344 N 330.912 5.77406 3.8285 0
M  V30 3345 N 332.705 4.58623 3.24995 0
M  V30 3346 H 324.856 2.1073 0.265855 0
M  V30 3347 H 327.119 0.930671 0.180431 0
M  V30 3348 H 326.825 3.29093 1.24058 0
M  V30 3349 H 326.699 2.51628 2.81004 0
M  V30 3350 H 329.086 1.57577 2.49506 0
M  V30 3351 H 329.167 2.38536 0.923811 0
M  V30 3352 H 328.811 4.63031 2.08722 0
M  V30 3353 H 328.741 3.78968 3.65637 0
M  V30 3354 H 331.232 2.98423 2.31845 0
M  V30 3355 H 331.545 6.46632 4.23187 0
M  V30 3356 H 329.89 5.81152 3.81165 0
M  V30 3357 H 333.081 3.74762 2.80484 0
M  V30 3358 H 333.254 5.33535 3.67756 0
M  V30 3359 N 326.66 -1.06551 1.16123 0
M  V30 3360 C 327.908 -1.78947 0.939267 0
M  V30 3361 C 328.229 -1.87532 -0.534476 0
M  V30 3362 O 327.499 -1.38211 -1.38833 0
M  V30 3363 H 326.079 -0.662807 0.344523 0
M  V30 3364 H 328.741 -1.28725 1.46342 0
M  V30 3365 H 327.837 -2.81117 1.35572 0
M  V30 3366 N 328.138 -0.959301 -1.25041 0
M  V30 3367 C 329.086 -0.474437 -2.2771 0
M  V30 3368 C 330.08 0.457697 -1.631 0
M  V30 3369 O 331.286 0.333912 -1.76876 0
M  V30 3370 H 327.661 -0.134936 -0.739795 0
M  V30 3371 H 329.632 -1.35251 -2.65988 0
M  V30 3372 C 328.381 0.227884 -3.46952 0
M  V30 3373 H 327.704 -0.480248 -3.96905 0
M  V30 3374 H 329.144 0.531091 -4.20661 0
M  V30 3375 C 327.603 1.452 -3.04004 0
M  V30 3376 O 328.133 2.54949 -3.10426 0
M  V30 3377 N 326.339 1.31502 -2.59144 0
M  V30 3378 H 325.886 0.422065 -2.54119 0
M  V30 3379 H 325.844 2.13521 -2.30773 0
M  V30 3380 N 329.616 1.39756 -0.72842 0
M  V30 3381 C 330.546 2.33289 -0.0991354 0
M  V30 3382 C 331.527 1.53568 0.731489 0
M  V30 3383 O 332.712 1.81987 0.677807 0
M  V30 3384 C 329.842 3.3763 0.813834 0
M  V30 3385 C 328.796 4.2791 0.0878663 0
M  V30 3386 C 328.122 5.22894 1.11741 0
M  V30 3387 C 329.422 5.11314 -1.06563 0
M  V30 3388 H 331.116 2.86163 -0.880408 0
M  V30 3389 H 328.662 1.37591 -0.424819 0
M  V30 3390 H 330.615 4.0201 1.26355 0
M  V30 3391 H 329.339 2.83181 1.62715 0
M  V30 3392 H 327.998 3.65 -0.342159 0
M  V30 3393 H 327.646 4.64744 1.92412 0
M  V30 3394 H 327.346 5.84143 0.636477 0
M  V30 3395 H 328.87 5.90151 1.56697 0
M  V30 3396 H 330.284 5.69076 -0.694671 0
M  V30 3397 H 328.681 5.81671 -1.47577 0
M  V30 3398 H 329.751 4.46534 -1.89038 0
M  V30 3399 N 331.094 0.475555 1.50254 0
M  V30 3400 C 332.51 0.12997 1.5907 0
M  V30 3401 C 332.71 -1.36385 1.48328 0
M  V30 3402 O 331.766 -2.13754 1.34407 0
M  V30 3403 C 333.079 0.684139 2.92814 0
M  V30 3404 C 334.627 0.647965 3.0622 0
M  V30 3405 C 335.102 1.17975 4.42545 0
M  V30 3406 N 336.593 1.13936 4.48969 0
M  V30 3407 C 337.328 1.52129 5.52851 0
M  V30 3408 N 336.824 1.97793 6.63965 0
M  V30 3409 N 338.617 1.43704 5.4342 0
M  V30 3410 H 330.768 1.44706 1.55479 0
M  V30 3411 H 333.031 0.598691 0.735033 0
M  V30 3412 H 332.737 1.73079 3.06164 0
M  V30 3413 H 332.611 0.130204 3.76975 0
M  V30 3414 H 334.998 -0.38979 2.92514 0
M  V30 3415 H 335.079 1.23876 2.23805 0
M  V30 3416 H 334.723 2.21616 4.57 0
M  V30 3417 H 334.653 0.565138 5.23559 0
M  V30 3418 H 337.144 0.804488 3.69238 0
M  V30 3419 H 337.457 2.25072 7.39299 0
M  V30 3420 H 335.802 2.01749 6.65073 0
M  V30 3421 H 338.993 1.07867 4.55502 0
M  V30 3422 H 339.166 1.73794 6.24259 0
M  V30 3423 N 332.573 -1.56217 0.208337 0
M  V30 3424 C 333.798 -2.02782 -0.435222 0
M  V30 3425 C 334.223 -1.08738 -1.53485 0
M  V30 3426 O 333.581 -0.0731855 -1.81152 0
M  V30 3427 C 333.629 -3.47687 -0.956335 0
M  V30 3428 O 332.733 -3.56773 -2.06849 0
M  V30 3429 H 332.074 -0.656403 -0.100158 0
M  V30 3430 H 334.604 -2.02033 0.3231 0
M  V30 3431 H 334.614 -3.87745 -1.26955 0
M  V30 3432 H 333.289 -4.15624 -0.15143 0
M  V30 3433 H 331.866 -3.28597 -1.76292 0
M  V30 3434 N 334.051 0.0651679 -1.57465 0
M  V30 3435 C 335.014 1.06117 -2.03155 0
M  V30 3436 C 336.014 1.31204 -0.929632 0
M  V30 3437 O 337.204 1.26813 -1.19432 0
M  V30 3438 C 334.336 2.4032 -2.41783 0
M  V30 3439 H 335.529 0.667231 -2.92383 0
M  V30 3440 H 333.082 0.311075 -1.53173 0
M  V30 3441 H 333.817 2.84532 -1.55601 0
M  V30 3442 H 333.602 2.23451 -3.22199 0
M  V30 3443 H 335.092 3.11898 -2.77685 0
M  V30 3444 N 335.529 1.53961 0.336706 0
M  V30 3445 C 336.778 1.70751 1.07363 0
M  V30 3446 C 337.091 0.481061 1.89592 0
M  V30 3447 O 338.297 0.530046 2.66276 0
M  V30 3448 C 336.753 3.01965 1.95818 0
M  V30 3449 C 336.361 4.31971 1.18764 0
M  V30 3450 C 338.105 3.28121 2.69327 0
M  V30 3451 C 336.012 5.54255 2.06289 0
M  V30 3452 H 334.942 0.636292 0.404535 0
M  V30 3453 H 337.593 1.80459 0.332681 0
M  V30 3454 H 335.975 2.86132 2.7376 0
M  V30 3455 H 337.149 4.5853 0.456849 0
M  V30 3456 H 335.464 4.12481 0.569946 0
M  V30 3457 H 338.061 4.16673 3.35094 0
M  V30 3458 H 338.404 2.45426 3.36261 0
M  V30 3459 H 338.937 3.44762 1.98454 0
M  V30 3460 H 335.676 6.39513 1.43885 0
M  V30 3461 H 335.196 5.31935 2.77138 0
M  V30 3462 H 336.875 5.90159 2.65182 0
M  V30 3463 N 337.007 -0.598083 1.45811 0
M  V30 3464 C 338.235 -1.38322 1.53866 0
M  V30 3465 C 338.65 -1.87992 0.174479 0
M  V30 3466 O 338.007 -1.62756 -0.825627 0
M  V30 3467 C 338.058 -2.58125 2.53089 0
M  V30 3468 O 337.779 -2.10516 3.84206 0
M  V30 3469 C 339.28 -3.50869 2.70935 0
M  V30 3470 H 336.5 -0.423093 0.520801 0
M  V30 3471 H 339.044 -0.728527 1.91083 0
M  V30 3472 H 337.199 -3.19615 2.18917 0
M  V30 3473 H 337.613 -2.88425 4.38077 0
M  V30 3474 H 339.087 -4.31451 3.44317 0
M  V30 3475 H 339.564 -4.01822 1.77301 0
M  V30 3476 H 340.17 -2.95225 3.06141 0
M  V30 3477 N 338.485 -1.33259 -0.841409 0
M  V30 3478 C 339.731 -1.24757 -1.59886 0
M  V30 3479 C 340.064 0.186913 -1.93298 0
M  V30 3480 O 339.339 1.12757 -1.5848 0
M  V30 3481 C 339.622 -2.12036 -2.91055 0
M  V30 3482 C 339.475 -3.63929 -2.6434 0
M  V30 3483 C 340.794 -1.9916 -3.92458 0
M  V30 3484 H 337.913 -0.454542 -0.580138 0
M  V30 3485 H 340.555 -1.63335 -0.970647 0
M  V30 3486 H 338.705 -1.79265 -3.44669 0
M  V30 3487 H 340.377 -4.06978 -2.17178 0
M  V30 3488 H 338.62 -3.85935 -1.98082 0
M  V30 3489 H 339.291 -4.20341 -3.57796 0
M  V30 3490 H 341.767 -2.27895 -3.48143 0
M  V30 3491 H 340.643 -2.62484 -4.82072 0
M  V30 3492 H 340.904 -0.963082 -4.31482 0
M  V30 3493 N 339.963 1.05934 -1.16686 0
M  V30 3494 C 341.21 1.788 -0.950622 0
M  V30 3495 C 341.538 1.87384 0.521305 0
M  V30 3496 O 340.793 1.36438 1.40297 0
M  V30 3497 C 341.092 3.23105 -1.52767 0
M  V30 3498 C 340.758 3.34594 -3.02254 0
M  V30 3499 C 339.42 3.37437 -3.43059 0
M  V30 3500 C 341.772 3.36219 -3.98254 0
M  V30 3501 C 339.1 3.39525 -4.78477 0
M  V30 3502 C 341.452 3.39845 -5.33562 0
M  V30 3503 C 340.116 3.40971 -5.73842 0
M  V30 3504 H 339.386 0.654275 -0.347857 0
M  V30 3505 H 342.033 1.24555 -1.45459 0
M  V30 3506 H 340.338 3.80227 -0.94524 0
M  V30 3507 H 342.035 3.7809 -1.336 0
M  V30 3508 H 338.625 3.3309 -2.6972 0
M  V30 3509 H 342.809 3.33231 -3.67792 0
M  V30 3510 H 338.065 3.38703 -5.09009 0
M  V30 3511 H 342.239 3.4005 -6.07733 0
M  V30 3512 H 339.866 3.42342 -6.78753 0
M  V30 3513 N 341.441 0.965919 1.2453 0
M  V30 3514 C 342.852 0.665929 1.7442 0
M  V30 3515 C 343.203 -0.818407 1.78316 0
M  V30 3516 O 342.328 -1.64037 1.41141 0
M  V30 3517 C 342.923 1.20211 3.16757 0
M  V30 3518 C 341.482 0.952059 3.6416 0
M  V30 3519 C 340.629 1.33848 2.42858 0
M  V30 3520 H 343.58 1.14144 1.10258 0
M  V30 3521 H 343.601 0.567544 3.76244 0
M  V30 3522 H 343.113 2.28244 3.13889 0
M  V30 3523 H 341.214 -0.112821 3.72429 0
M  V30 3524 H 341.327 1.59645 4.51719 0
M  V30 3525 H 339.691 0.756864 2.43195 0
M  V30 3526 H 340.474 2.42827 2.42673 0
M  V30 3527 N 342.919 -1.39368 0.735821 0
M  V30 3528 C 343.851 -2.2913 0.0567723 0
M  V30 3529 C 344.864 -1.46859 -0.702589 0
M  V30 3530 O 346.053 -1.69925 -0.546616 0
M  V30 3531 C 343.153 -3.25492 -0.943823 0
M  V30 3532 C 342.326 -4.36709 -0.24581 0
M  V30 3533 C 341.385 -5.13376 -1.15463 0
M  V30 3534 O 340.411 -5.65683 -0.631803 0
M  V30 3535 N 341.613 -5.24656 -2.48427 0
M  V30 3536 H 344.378 -2.88047 0.827582 0
M  V30 3537 H 341.939 -1.50957 0.585112 0
M  V30 3538 H 343.931 -3.73657 -1.55443 0
M  V30 3539 H 342.501 -2.676 -1.61583 0
M  V30 3540 H 341.721 -3.9041 0.545286 0
M  V30 3541 H 343.009 -5.08244 0.237891 0
M  V30 3542 H 342.407 -4.83679 -2.93379 0
M  V30 3543 H 340.964 -5.76258 -3.04582 0
M  V30 3544 N 344.397 -0.483516 -1.5 0
M  V30 3545 C 345.813 -0.138404 -1.58999 0
M  V30 3546 C 346.013 1.35597 -1.4905 0
M  V30 3547 O 345.069 2.13039 -1.35539 0
M  V30 3548 C 346.382 -0.699658 -2.92447 0
M  V30 3549 C 347.93 -0.664195 -3.05872 0
M  V30 3550 C 348.405 -1.20321 -4.41913 0
M  V30 3551 N 349.896 -1.16315 -4.48358 0
M  V30 3552 C 350.631 -1.55058 -5.52037 0
M  V30 3553 N 350.127 -2.01311 -6.62907 0
M  V30 3554 N 351.92 -1.46584 -5.42651 0
M  V30 3555 H 344.071 -1.45529 -1.5471 0
M  V30 3556 H 346.334 -0.60258 -0.731848 0
M  V30 3557 H 346.04 -1.747 -3.05242 0
M  V30 3558 H 345.914 -0.150194 -3.76901 0
M  V30 3559 H 348.301 0.374272 -2.92717 0
M  V30 3560 H 348.382 -1.25061 -2.23144 0
M  V30 3561 H 348.026 -2.24037 -4.55818 0
M  V30 3562 H 347.956 -0.592896 -5.23252 0
M  V30 3563 H 350.447 -0.824058 -3.68806 0
M  V30 3564 H 350.76 -2.2899 -7.38095 0
M  V30 3565 H 349.105 -2.05273 -6.63994 0
M  V30 3566 H 352.296 -1.10281 -4.54924 0
M  V30 3567 H 352.469 -1.77103 -6.23329 0
M  V30 3568 N 345.875 1.56104 -0.216619 0
M  V30 3569 C 347.115 2.00074 0.418322 0
M  V30 3570 C 347.479 1.10098 1.57297 0
M  V30 3571 O 348.68 1.43393 2.27359 0
M  V30 3572 C 346.951 3.47231 0.846477 0
M  V30 3573 S 348.51 4.13223 1.47622 0
M  V30 3574 H 345.328 0.698457 0.132962 0
M  V30 3575 H 347.93 1.92784 -0.324748 0
M  V30 3576 H 346.634 4.104 -0.0036319 0
M  V30 3577 H 346.165 3.58384 1.62248 0
M  V30 3578 H 348.18 4.12005 2.76526 0
M  V30 3579 N 347.353 -0.0568162 1.57498 0
M  V30 3580 C 348.764 -0.606858 1.76562 0
M  V30 3581 C 349.115 -1.77114 0.844094 0
M  V30 3582 O 348.24 -2.16376 0.0318911 0
M  V30 3583 C 348.835 -1.10766 3.20182 0
M  V30 3584 C 347.394 -1.60344 3.40539 0
M  V30 3585 C 346.541 -0.529311 2.72201 0
M  V30 3586 H 349.492 0.169393 1.57793 0
M  V30 3587 H 349.513 -1.97602 3.25167 0
M  V30 3588 H 349.025 -0.26006 3.87228 0
M  V30 3589 H 347.126 -2.47379 2.78629 0
M  V30 3590 H 347.239 -1.67006 4.4905 0
M  V30 3591 H 345.603 -0.977893 2.35179 0
M  V30 3592 H 346.386 0.308352 3.41912 0
M  V30 3593 N 348.832 -1.54138 -0.328536 0
M  V30 3594 C 350.08 -1.71765 -1.06496 0
M  V30 3595 C 350.401 -0.49149 -1.88704 0
M  V30 3596 O 349.671 0.494539 -1.89555 0
M  V30 3597 H 348.251 -0.633295 -0.396164 0
M  V30 3598 H 350.913 -1.91429 -0.366176 0
M  V30 3599 H 350.009 -2.5951 -1.73381 0
M  V30 3600 N 350.31 0.590341 -1.46126 0
M  V30 3601 C 351.726 0.912917 -1.30912 0
M  V30 3602 C 351.926 1.99616 -0.274893 0
M  V30 3603 O 350.982 2.50397 0.325197 0
M  V30 3604 C 352.295 1.3375 -2.69317 0
M  V30 3605 C 353.843 1.45077 -2.77348 0
M  V30 3606 C 354.318 1.90904 -4.16317 0
M  V30 3607 N 355.809 1.9811 -4.18696 0
M  V30 3608 C 356.544 2.34828 -5.23109 0
M  V30 3609 N 356.04 2.70393 -6.37856 0
M  V30 3610 N 357.833 2.35317 -5.10473 0
M  V30 3611 H 349.984 -0.125358 -2.1203 0
M  V30 3612 H 352.247 0.00658481 -0.947977 0
M  V30 3613 H 351.953 0.615614 -3.4627 0
M  V30 3614 H 351.827 2.30058 -2.9892 0
M  V30 3615 H 354.214 2.16353 -2.00687 0
M  V30 3616 H 354.295 0.4704 -2.51438 0
M  V30 3617 H 353.939 1.20209 -4.9347 0
M  V30 3618 H 353.869 2.89886 -4.39629 0
M  V30 3619 H 356.36 1.73146 -3.359 0
M  V30 3620 H 356.673 2.97341 -7.13308 0
M  V30 3621 H 355.018 2.68048 -6.41229 0
M  V30 3622 H 358.209 2.0695 -4.19868 0
M  V30 3623 H 358.382 2.63605 -5.9196 0
M  V30 3624 N 351.788 1.33704 0.83433 0
M  V30 3625 C 353.036 1.25169 1.58673 0
M  V30 3626 C 353.357 -0.18127 1.94156 0
M  V30 3627 O 352.627 -1.11113 1.6134 0
M  V30 3628 H 351.207 0.4603 0.58833 0
M  V30 3629 H 353.869 1.67478 0.996847 0
M  V30 3630 H 352.965 1.84856 2.51465 0
M  V30 3631 N 353.266 -1.05314 1.17247 0
M  V30 3632 C 354.543 -1.75184 0.87005 0
M  V30 3633 C 354.923 -2.01481 -0.629965 0
M  V30 3634 O 354.271 -1.64988 -1.58086 0
M  V30 3635 C 354.481 -3.04594 1.70363 0
M  V30 3636 C 355.829 -3.78567 1.92281 0
M  V30 3637 O 356.853 -3.14461 1.67311 0
M  V30 3638 O 355.712 -4.93755 2.3424 0
M  V30 3639 H 352.806 -0.761729 0.322021 0
M  V30 3640 H 355.352 -1.11493 1.27935 0
M  V30 3641 H 354.124 -2.81201 2.72106 0
M  V30 3642 H 353.747 -3.76022 1.29202 0
M  V30 3643 N 354.744 -0.972509 -1.24016 0
M  V30 3644 C 355.991 -0.637034 -1.92219 0
M  V30 3645 C 356.319 0.828418 -1.75976 0
M  V30 3646 O 355.574 1.61206 -1.10955 0
M  V30 3647 C 355.873 -0.963694 -3.44162 0
M  V30 3648 C 355.539 -2.41807 -3.80579 0
M  V30 3649 C 354.201 -2.81556 -3.9023 0
M  V30 3650 C 356.553 -3.36172 -3.98293 0
M  V30 3651 C 353.881 -4.14702 -4.15017 0
M  V30 3652 C 356.233 -4.68952 -4.24578 0
M  V30 3653 C 354.897 -5.08472 -4.32449 0
M  V30 3654 H 354.167 -0.233107 -0.703379 0
M  V30 3655 H 356.814 -1.2249 -1.47202 0
M  V30 3656 H 355.119 -0.29365 -3.90698 0
M  V30 3657 H 356.816 -0.682449 -3.9515 0
M  V30 3658 H 353.406 -2.09988 -3.73635 0
M  V30 3659 H 357.59 -3.06644 -3.90234 0
M  V30 3660 H 352.846 -4.4494 -4.19331 0
M  V30 3661 H 357.02 -5.42037 -4.37229 0
M  V30 3662 H 354.647 -6.11665 -4.51409 0
M  V30 3663 N 356.222 1.38976 -0.743202 0
M  V30 3664 C 357.638 1.53984 -0.419664 0
M  V30 3665 C 357.838 1.70837 1.0685 0
M  V30 3666 O 356.894 1.7135 1.8546 0
M  V30 3667 C 358.207 2.75287 -1.20985 0
M  V30 3668 C 359.755 2.89129 -1.19889 0
M  V30 3669 C 360.23 4.13381 -1.97181 0
M  V30 3670 N 361.721 4.20437 -1.94389 0
M  V30 3671 C 362.456 5.15547 -2.50996 0
M  V30 3672 N 361.952 6.16395 -3.16274 0
M  V30 3673 N 363.745 5.07822 -2.40984 0
M  V30 3674 H 355.896 1.26285 -1.7078 0
M  V30 3675 H 358.159 0.612689 -0.723406 0
M  V30 3676 H 357.865 2.69204 -2.26323 0
M  V30 3677 H 357.739 3.68184 -0.819759 0
M  V30 3678 H 360.126 2.947 -0.153606 0
M  V30 3679 H 360.207 1.97272 -1.62841 0
M  V30 3680 H 359.851 4.08572 -3.01714 0
M  V30 3681 H 359.781 5.04298 -1.51629 0
M  V30 3682 H 362.272 3.48205 -1.46839 0
M  V30 3683 H 362.585 6.85443 -3.56915 0
M  V30 3684 H 360.93 6.16758 -3.20367 0
M  V30 3685 H 364.121 4.27973 -1.89622 0
M  V30 3686 H 364.294 5.81767 -2.85397 0
M  V30 3687 N 357.7 0.491464 1.49741 0
M  V30 3688 C 358.949 -0.0582189 2.01616 0
M  V30 3689 C 359.262 -1.38927 1.3769 0
M  V30 3690 O 360.468 -2.02509 1.80838 0
M  V30 3691 C 358.924 -0.154235 3.59569 0
M  V30 3692 C 358.532 1.1696 4.32463 0
M  V30 3693 C 360.276 -0.65479 4.1942 0
M  V30 3694 C 358.183 1.03627 5.8225 0
M  V30 3695 H 357.113 -0.0255317 0.753568 0
M  V30 3696 H 359.764 0.629445 1.72367 0
M  V30 3697 H 358.146 -0.906138 3.85493 0
M  V30 3698 H 359.32 1.93405 4.18248 0
M  V30 3699 H 357.635 1.60285 3.84315 0
M  V30 3700 H 360.232 -0.771903 5.29099 0
M  V30 3701 H 360.575 -1.65127 3.8215 0
M  V30 3702 H 361.108 0.040304 3.9778 0
M  V30 3703 H 357.847 2.00672 6.24028 0
M  V30 3704 H 357.367 0.312546 5.98985 0
M  V30 3705 H 359.046 0.711114 6.4308 0
M  V30 3706 N 359.178 -1.55987 0.224894 0
M  V30 3707 C 360.424 -1.99433 -0.39973 0
M  V30 3708 C 360.779 -1.11004 -1.57149 0
M  V30 3709 O 360.072 -0.160725 -1.90925 0
M  V30 3710 C 360.266 -3.46394 -0.880106 0
M  V30 3711 C 360.095 -4.4904 0.243565 0
M  V30 3712 C 358.865 -5.00272 0.711056 0
M  V30 3713 C 361.063 -5.03195 1.06299 0
M  V30 3714 N 359.045 -5.86628 1.80944 0
M  V30 3715 C 360.416 -5.86508 2.01017 0
M  V30 3716 C 362.471 -4.8555 1.10205 0
M  V30 3717 C 361.174 -6.54062 2.99324 0
M  V30 3718 C 363.2 -5.53866 2.07332 0
M  V30 3719 C 362.562 -6.3695 3.00789 0
M  V30 3720 H 358.661 -0.773815 -0.112847 0
M  V30 3721 H 361.245 -1.91754 0.337432 0
M  V30 3722 H 359.416 -3.54515 -1.58662 0
M  V30 3723 H 361.148 -3.76752 -1.47783 0
M  V30 3724 H 357.903 -4.72655 0.29906 0
M  V30 3725 H 358.327 -6.34507 2.36073 0
M  V30 3726 H 362.969 -4.20966 0.39343 0
M  V30 3727 H 360.687 -7.17827 3.71147 0
M  V30 3728 H 364.273 -5.42178 2.11032 0
M  V30 3729 H 363.153 -6.8888 3.74718 0
M  V30 3730 N 360.656 0.0484629 -1.57525 0
M  V30 3731 C 361.604 1.07359 -2.06341 0
M  V30 3732 C 362.598 1.3865 -0.973269 0
M  V30 3733 O 363.804 1.37783 -1.15827 0
M  V30 3734 H 360.179 0.363662 -0.65822 0
M  V30 3735 H 362.15 0.635916 -2.91545 0
M  V30 3736 C 360.899 2.37198 -2.54229 0
M  V30 3737 H 360.222 2.13977 -3.37719 0
M  V30 3738 H 361.662 3.07319 -2.92115 0
M  V30 3739 C 360.121 3.04805 -1.43511 0
M  V30 3740 O 360.651 3.93848 -0.79034 0
M  V30 3741 N 358.857 2.65811 -1.17444 0
M  V30 3742 H 358.404 1.93488 -1.70059 0
M  V30 3743 H 358.362 3.11366 -0.435737 0
M  V30 3744 N 362.134 1.5431 0.320358 0
M  V30 3745 C 363.359 1.76954 1.08175 0
M  V30 3746 C 363.784 0.518193 1.80821 0
M  V30 3747 O 363.142 -0.530411 1.73368 0
M  V30 3748 C 363.19 2.96451 2.05303 0
M  V30 3749 O 362.294 2.68221 3.13259 0
M  V30 3750 H 361.635 0.586275 0.311733 0
M  V30 3751 H 364.165 2.01342 0.363676 0
M  V30 3752 H 364.175 3.23887 2.48116 0
M  V30 3753 H 362.85 3.87196 1.51829 0
M  V30 3754 H 361.427 2.51744 2.75099 0
M  V30 3755 N 363.613 -0.582584 1.46437 0
M  V30 3756 C 364.545 -1.70618 1.53043 0
M  V30 3757 C 365.558 -1.57322 0.418769 0
M  V30 3758 O 366.747 -1.64744 0.687136 0
M  V30 3759 C 363.847 -3.08869 1.39474 0
M  V30 3760 C 363.02 -3.48166 2.64762 0
M  V30 3761 C 362.079 -4.65478 2.4539 0
M  V30 3762 O 361.105 -4.71333 3.19114 0
M  V30 3763 N 362.307 -5.60365 1.51564 0
M  V30 3764 H 365.072 -1.65405 2.49923 0
M  V30 3765 H 362.633 -0.768567 1.42494 0
M  V30 3766 H 364.625 -3.85143 1.24287 0
M  V30 3767 H 363.195 -3.08449 0.507758 0
M  V30 3768 H 362.415 -2.61598 2.9489 0
M  V30 3769 H 363.703 -3.71188 3.4799 0
M  V30 3770 H 363.101 -5.5837 0.907705 0
M  V30 3771 H 361.658 -6.36068 1.4234 0
M  V30 3772 N 365.091 -1.34144 -0.827227 0
M  V30 3773 C 366.021 -1.28005 -1.95287 0
M  V30 3774 C 367.002 -0.158321 -1.69362 0
M  V30 3775 O 368.187 -0.349987 -1.9102 0
M  V30 3776 C 365.317 -1.03036 -3.31664 0
M  V30 3777 C 364.271 -2.11628 -3.72019 0
M  V30 3778 C 363.597 -1.71854 -5.0633 0
M  V30 3779 C 364.897 -3.53417 -3.8457 0
M  V30 3780 H 366.591 -2.22187 -2.00682 0
M  V30 3781 H 364.137 -1.0696 -0.964135 0
M  V30 3782 H 366.09 -0.973863 -4.09993 0
M  V30 3783 H 364.814 -0.0529391 -3.26557 0
M  V30 3784 H 363.473 -2.16339 -2.95961 0
M  V30 3785 H 363.121 -0.727841 -4.97706 0
M  V30 3786 H 362.821 -2.44531 -5.34302 0
M  V30 3787 H 364.345 -1.67692 -5.87122 0
M  V30 3788 H 365.759 -3.51142 -4.5318 0
M  V30 3789 H 364.156 -4.24679 -4.2399 0
M  V30 3790 H 365.226 -3.91072 -2.86689 0
M  V30 3791 N 366.569 1.04691 -1.17803 0
M  V30 3792 C 367.815 1.78045 -0.970969 0
M  V30 3793 C 368.148 1.87686 0.498751 0
M  V30 3794 O 367.423 1.38035 1.37027 0
M  V30 3795 C 367.706 3.2166 -1.61884 0
M  V30 3796 C 367.559 3.20001 -3.161 0
M  V30 3797 C 368.878 4.1962 -1.3269 0
M  V30 3798 H 365.997 0.64633 -0.354155 0
M  V30 3799 H 368.639 1.22333 -1.45378 0
M  V30 3800 H 366.789 3.69232 -1.20831 0
M  V30 3801 H 368.461 2.80467 -3.66246 0
M  V30 3802 H 366.704 2.58203 -3.48588 0
M  V30 3803 H 367.375 4.21386 -3.56564 0
M  V30 3804 H 369.851 3.80567 -1.68249 0
M  V30 3805 H 368.727 5.18339 -1.80599 0
M  V30 3806 H 368.988 4.414 -0.248622 0
M  V30 3807 N 368.047 0.979072 1.23499 0
M  V30 3808 C 369.463 0.687475 1.44034 0
M  V30 3809 C 369.663 -0.746801 1.8715 0
M  V30 3810 O 368.719 -1.51939 2.0167 0
M  V30 3811 C 370.032 1.68127 2.49307 0
M  V30 3812 C 371.58 1.69516 2.63122 0
M  V30 3813 C 372.055 2.67723 3.71603 0
M  V30 3814 N 373.546 2.66233 3.79044 0
M  V30 3815 C 374.281 3.38891 4.62537 0
M  V30 3816 N 373.777 4.21103 5.50131 0
M  V30 3817 N 375.57 3.27661 4.56721 0
M  V30 3818 H 367.721 1.90559 0.938135 0
M  V30 3819 H 369.984 0.821051 0.473897 0
M  V30 3820 H 369.69 2.70693 2.2454 0
M  V30 3821 H 369.564 1.46306 3.4767 0
M  V30 3822 H 371.951 0.676561 2.8724 0
M  V30 3823 H 372.032 1.95404 1.65079 0
M  V30 3824 H 371.676 3.69724 3.48233 0
M  V30 3825 H 371.606 2.39111 4.69184 0
M  V30 3826 H 374.097 2.06568 3.16446 0
M  V30 3827 H 374.41 4.73403 6.10827 0
M  V30 3828 H 372.755 4.25195 5.49759 0
M  V30 3829 H 375.946 2.62887 3.87309 0
M  V30 3830 H 376.119 3.84547 5.21562 0
M  V30 3831 N 369.525 -1.3858 0.750561 0
M  V30 3832 C 370.755 -2.04175 0.31564 0
M  V30 3833 C 371.163 -1.56726 -1.05989 0
M  V30 3834 O 370.506 -0.734225 -1.68389 0
M  V30 3835 C 370.568 -3.58585 0.256389 0
M  V30 3836 C 370.232 -4.29077 1.57296 0
M  V30 3837 C 371.229 -4.54656 2.52159 0
M  V30 3838 C 368.914 -4.67324 1.84156 0
M  V30 3839 C 370.908 -5.17512 3.72103 0
M  V30 3840 C 368.595 -5.29905 3.04374 0
M  V30 3841 C 369.593 -5.54933 3.98168 0
M  V30 3842 O 369.281 -6.16212 5.16273 0
M  V30 3843 H 369.013 -0.662742 0.133226 0
M  V30 3844 H 371.567 -1.78313 1.01948 0
M  V30 3845 H 369.797 -3.83406 -0.503677 0
M  V30 3846 H 371.486 -4.05628 -0.148612 0
M  V30 3847 H 372.252 -4.25539 2.32683 0
M  V30 3848 H 368.131 -4.47191 1.11988 0
M  V30 3849 H 371.675 -5.36963 4.45327 0
M  V30 3850 H 367.572 -5.58444 3.23745 0
M  V30 3851 H 368.34 -6.34701 5.16815 0
M  V30 3852 N 371.003 -0.499398 -1.49478 0
M  V30 3853 C 371.966 0.268838 -2.27618 0
M  V30 3854 C 372.966 0.895383 -1.33565 0
M  V30 3855 O 374.156 0.760164 -1.56739 0
M  V30 3856 C 371.288 1.38559 -3.11471 0
M  V30 3857 H 372.481 -0.416812 -2.96989 0
M  V30 3858 H 370.034 -0.254313 -1.54217 0
M  V30 3859 H 370.769 2.10544 -2.46661 0
M  V30 3860 H 370.554 0.941797 -3.80621 0
M  V30 3861 H 372.044 1.92678 -3.70493 0
M  V30 3862 N 372.481 1.55866 -0.233164 0
M  V30 3863 C 373.729 1.9821 0.394593 0
M  V30 3864 C 374.05 1.12234 1.59463 0
M  V30 3865 O 373.32 0.201981 1.94856 0
M  V30 3866 H 371.9 0.732034 0.148778 0
M  V30 3867 H 374.562 1.92107 -0.32876 0
M  V30 3868 H 373.658 3.03845 0.713063 0
M  V30 3869 N 373.959 -0.0401083 1.57549 0
M  V30 3870 C 375.189 -0.744115 1.92734 0
M  V30 3871 C 375.597 -1.70005 0.830348 0
M  V30 3872 O 374.94 -1.82576 -0.20286 0
M  V30 3873 C 375.002 -1.56516 3.2364 0
M  V30 3874 C 374.666 -0.7752 4.50377 0
M  V30 3875 C 375.663 -0.0803326 5.19838 0
M  V30 3876 C 373.348 -0.733002 4.96923 0
M  V30 3877 C 375.342 0.646154 6.34116 0
M  V30 3878 C 373.029 -0.00276321 6.111 0
M  V30 3879 C 374.027 0.685585 6.7955 0
M  V30 3880 O 373.715 1.40399 7.91545 0
M  V30 3881 H 373.447 -0.214861 0.640945 0
M  V30 3882 H 376.001 -0.00503675 2.05399 0
M  V30 3883 H 374.231 -2.3478 3.07271 0
M  V30 3884 H 375.92 -2.15076 3.44234 0
M  V30 3885 H 376.686 -0.104035 4.84888 0
M  V30 3886 H 372.565 -1.25827 4.43496 0
M  V30 3887 H 376.109 1.18398 6.87479 0
M  V30 3888 H 372.006 0.0229012 6.45496 0
M  V30 3889 H 372.774 1.31653 8.07843 0
M  V30 3890 N 375.437 -1.54477 -0.31217 0
M  V30 3891 C 376.853 -1.45442 -0.657185 0
M  V30 3892 C 377.053 -0.63653 -1.91182 0
M  V30 3893 O 376.109 -0.139815 -2.52113 0
M  V30 3894 C 377.422 -2.89287 -0.82058 0
M  V30 3895 C 378.97 -2.9926 -0.917188 0
M  V30 3896 C 379.445 -4.44279 -1.11267 0
M  V30 3897 N 380.936 -4.4794 -1.17914 0
M  V30 3898 C 381.671 -5.57318 -1.34848 0
M  V30 3899 N 381.167 -6.76642 -1.48752 0
M  V30 3900 N 382.96 -5.44986 -1.37647 0
M  V30 3901 H 375.111 -2.06129 0.512313 0
M  V30 3902 H 377.374 -0.933088 0.167485 0
M  V30 3903 H 377.08 -3.51687 0.0302604 0
M  V30 3904 H 376.954 -3.36061 -1.71298 0
M  V30 3905 H 379.341 -2.36981 -1.75852 0
M  V30 3906 H 379.422 -2.558 -0.00101257 0
M  V30 3907 H 379.066 -5.07149 -0.27614 0
M  V30 3908 H 378.996 -4.85359 -2.04289 0
M  V30 3909 H 381.487 -3.61969 -1.08567 0
M  V30 3910 H 381.8 -7.55758 -1.61397 0
M  V30 3911 H 380.145 -6.79529 -1.45828 0
M  V30 3912 H 383.336 -4.50715 -1.26388 0
M  V30 3913 H 383.509 -6.3028 -1.50501 0
M  V30 3914 N 376.915 0.57481 -1.46744 0
M  V30 3915 C 377.847 1.69804 -1.53946 0
M  V30 3916 C 378.86 1.57098 -0.427106 0
M  V30 3917 O 380.049 1.64378 -0.695863 0
M  V30 3918 C 377.149 3.08125 -1.4111 0
M  V30 3919 C 376.322 3.46757 -2.66605 0
M  V30 3920 C 375.381 4.6417 -2.47855 0
M  V30 3921 O 374.407 4.69634 -3.21609 0
M  V30 3922 N 375.609 5.59553 -1.54534 0
M  V30 3923 H 378.374 1.64077 -2.50796 0
M  V30 3924 H 375.935 0.761 -1.429 0
M  V30 3925 H 377.927 3.84478 -1.26328 0
M  V30 3926 H 376.497 3.08175 -0.524109 0
M  V30 3927 H 375.717 2.6003 -2.96274 0
M  V30 3928 H 377.005 3.69337 -3.49954 0
M  V30 3929 H 376.403 5.57881 -0.937304 0
M  V30 3930 H 374.96 6.35304 -1.45711 0
M  V30 3931 N 378.394 1.34581 0.820102 0
M  V30 3932 C 379.326 1.22236 1.93884 0
M  V30 3933 C 380.339 0.148776 1.62119 0
M  V30 3934 O 381.528 0.400877 1.7394 0
M  V30 3935 C 378.628 0.856542 3.27897 0
M  V30 3936 C 377.801 2.02569 3.87666 0
M  V30 3937 C 376.86 1.63782 5.00062 0
M  V30 3938 O 375.886 2.35477 5.18208 0
M  V30 3939 N 377.088 0.553611 5.77854 0
M  V30 3940 H 379.853 2.18615 2.05006 0
M  V30 3941 H 377.414 1.27573 0.99683 0
M  V30 3942 H 379.406 0.578806 4.0054 0
M  V30 3943 H 377.976 -0.0171518 3.12595 0
M  V30 3944 H 377.196 2.468 3.07382 0
M  V30 3945 H 378.484 2.80752 4.24329 0
M  V30 3946 H 377.882 -0.0423528 5.65684 0
M  V30 3947 H 376.439 0.335614 6.50935 0
M  V30 3948 N 379.872 -1.04064 1.18357 0
M  V30 3949 C 381.149 -1.74252 0.888581 0
M  V30 3950 C 381.529 -2.02138 -0.60856 0
M  V30 3951 O 380.877 -1.66656 -1.56327 0
M  V30 3952 C 381.087 -3.0277 1.73584 0
M  V30 3953 C 382.435 -3.76506 1.96286 0
M  V30 3954 O 383.459 -3.12668 1.70637 0
M  V30 3955 O 382.318 -4.91243 2.39464 0
M  V30 3956 H 379.412 -0.758271 0.330082 0
M  V30 3957 H 381.958 -1.1013 1.2911 0
M  V30 3958 H 380.73 -2.78299 2.75073 0
M  V30 3959 H 380.353 -3.74631 1.33183 0
M  V30 3960 N 381.35 -0.985608 -1.22978 0
M  V30 3961 C 382.598 -0.656087 -1.91154 0
M  V30 3962 C 382.919 0.813561 -1.77218 0
M  V30 3963 O 382.189 1.58244 -1.1548 0
M  V30 3964 H 380.769 -0.239674 -0.707506 0
M  V30 3965 H 383.431 -1.25054 -1.49491 0
M  V30 3966 H 382.527 -0.912253 -2.9847 0
M  V30 3967 N 382.828 1.3818 -0.7579 0
M  V30 3968 C 384.053 2.04827 -0.325679 0
M  V30 3969 C 384.478 1.56788 1.03919 0
M  V30 3970 O 383.836 0.721811 1.66312 0
M  V30 3971 C 383.884 3.58774 -0.362447 0
M  V30 3972 O 382.988 4.07372 0.642033 0
M  V30 3973 H 382.329 0.64833 -0.143402 0
M  V30 3974 H 384.859 1.7677 -1.03023 0
M  V30 3975 H 384.869 4.07434 -0.214844 0
M  V30 3976 H 383.544 3.93096 -1.35824 0
M  V30 3977 H 382.121 3.70068 0.458688 0
M  V30 3978 N 384.306 0.507319 1.49211 0
M  V30 3979 C 385.552 -0.0350047 2.0277 0
M  V30 3980 C 385.885 -1.3606 1.38569 0
M  V30 3981 O 385.16 -1.87321 0.523542 0
M  V30 3982 C 385.443 -0.180916 3.59645 0
M  V30 3983 C 385.296 1.16825 4.34364 0
M  V30 3984 C 386.615 -0.918558 4.30407 0
M  V30 3985 H 383.734 -0.0112473 0.736914 0
M  V30 3986 H 386.376 0.659956 1.7817 0
M  V30 3987 H 384.526 -0.772826 3.80736 0
M  V30 3988 H 386.198 1.79952 4.24753 0
M  V30 3989 H 384.441 1.75594 3.96673 0
M  V30 3990 H 385.112 1.01939 5.42506 0
M  V30 3991 H 387.588 -0.41649 4.1401 0
M  V30 3992 H 386.464 -0.989505 5.39907 0
M  V30 3993 H 386.725 -1.96373 3.96093 0
M  V30 3994 N 385.784 -1.5574 0.241426 0
M  V30 3995 C 387.2 -1.59196 -0.113548 0
M  V30 3996 C 387.4 -1.25852 -1.57364 0
M  V30 3997 O 386.456 -1.00322 -2.31715 0
M  V30 3998 C 387.769 -2.99814 0.230695 0
M  V30 3999 C 389.317 -3.12513 0.174547 0
M  V30 4000 C 389.792 -4.55342 0.492744 0
M  V30 4001 N 391.283 -4.61076 0.443043 0
M  V30 4002 C 392.018 -5.6956 0.662484 0
M  V30 4003 N 391.514 -6.86328 0.944761 0
M  V30 4004 N 393.307 -5.58957 0.593564 0
M  V30 4005 H 385.458 -1.75685 1.19368 0
M  V30 4006 H 387.721 -0.81756 0.479896 0
M  V30 4007 H 387.427 -3.28932 1.24485 0
M  V30 4008 H 387.301 -3.74568 -0.444833 0
M  V30 4009 H 389.688 -2.83179 -0.830277 0
M  V30 4010 H 389.769 -2.40045 0.883845 0
M  V30 4011 H 389.413 -4.85396 1.4951 0
M  V30 4012 H 389.343 -5.26062 -0.23797 0
M  V30 4013 H 391.834 -3.77179 0.233374 0
M  V30 4014 H 392.147 -7.64935 1.09977 0
M  V30 4015 H 390.492 -6.88025 0.982175 0
M  V30 4016 H 393.683 -4.66611 0.373123 0
M  V30 4017 H 393.856 -6.43433 0.767981 0
M  V30 4018 N 387.262 0.0317525 -1.57568 0
M  V30 4019 C 388.51 0.721676 -1.88776 0
M  V30 4020 C 388.831 1.76039 -0.838772 0
M  V30 4021 O 388.101 1.95482 0.127935 0
M  V30 4022 H 386.681 0.269534 -0.696678 0
M  V30 4023 H 389.343 -0.00165879 -1.949 0
M  V30 4024 H 388.439 1.21293 -2.87566 0
M  V30 4025 N 388.74 1.54641 0.303973 0
M  V30 4026 C 390.017 1.64455 1.05896 0
M  V30 4027 C 390.397 0.490923 2.05312 0
M  V30 4028 O 389.745 -0.512685 2.22674 0
M  V30 4029 C 389.955 3.02331 1.74347 0
M  V30 4030 C 391.303 3.59045 2.26653 0
M  V30 4031 O 392.327 3.04764 1.84384 0
M  V30 4032 O 391.186 4.54081 3.04093 0
M  V30 4033 H 388.28 0.666729 0.489287 0
M  V30 4034 H 390.826 1.66986 0.302298 0
M  V30 4035 H 389.598 3.77734 1.02142 0
M  V30 4036 H 389.221 3.03565 2.56777 0
M  V30 4037 N 390.218 -0.567019 1.47046 0
M  V30 4038 C 391.629 -1.14916 1.47143 0
M  V30 4039 C 391.98 -1.94954 0.220767 0
M  V30 4040 O 391.105 -2.05602 -0.67505 0
M  V30 4041 C 391.7 -2.09069 2.666 0
M  V30 4042 C 390.259 -2.62575 2.69687 0
M  V30 4043 C 389.406 -1.38755 2.40088 0
M  V30 4044 H 392.357 -0.354126 1.54699 0
M  V30 4045 H 392.378 -2.92789 2.43011 0
M  V30 4046 H 391.89 -1.50789 3.57609 0
M  V30 4047 H 389.991 -3.24681 1.82792 0
M  V30 4048 H 390.104 -3.04239 3.70102 0
M  V30 4049 H 388.468 -1.69098 1.90468 0
M  V30 4050 H 389.251 -0.822822 3.33293 0
M  V30 4051 N 391.696 -1.35014 -0.812953 0
M  V30 4052 C 392.659 -1.27292 -1.90602 0
M  V30 4053 C 393.659 -0.185817 -1.59723 0
M  V30 4054 O 394.849 -0.439102 -1.68575 0
M  V30 4055 C 391.981 -0.967676 -3.26877 0
M  V30 4056 H 393.174 -2.24479 -1.9887 0
M  V30 4057 H 390.727 -1.19446 -1.00808 0
M  V30 4058 H 391.462 0.0005954 -3.243 0
M  V30 4059 H 391.247 -1.75412 -3.50675 0
M  V30 4060 H 392.737 -0.939085 -4.06904 0
M  V30 4061 N 393.175 1.03435 -1.18907 0
M  V30 4062 C 394.123 2.13703 -0.918353 0
M  V30 4063 C 395.117 1.68947 0.123767 0
M  V30 4064 O 396.323 1.79983 -0.0249701 0
M  V30 4065 H 392.698 0.698112 -0.279542 0
M  V30 4066 H 394.669 2.33731 -1.85506 0
M  V30 4067 C 393.418 3.44542 -0.467532 0
M  V30 4068 H 392.741 3.79394 -1.26095 0
M  V30 4069 H 394.181 4.22812 -0.317164 0
M  V30 4070 C 392.64 3.26829 0.817588 0
M  V30 4071 O 393.17 3.54975 1.88031 0
M  V30 4072 N 391.376 2.80139 0.772677 0
M  V30 4073 H 390.923 2.57434 -0.0923883 0
M  V30 4074 H 390.881 2.68668 1.63294 0
M  V30 4075 N 394.653 0.992116 1.22453 0
M  V30 4076 C 395.899 0.668523 1.91464 0
M  V30 4077 C 396.232 -0.797313 1.77078 0
M  V30 4078 O 395.507 -1.5765 1.13916 0
M  V30 4079 C 395.79 1.07424 3.43703 0
M  V30 4080 C 395.643 2.59857 3.67143 0
M  V30 4081 C 396.962 0.626891 4.35612 0
M  V30 4082 H 394.081 0.244341 0.695318 0
M  V30 4083 H 396.723 1.2355 1.44345 0
M  V30 4084 H 394.873 0.591816 3.83966 0
M  V30 4085 H 396.545 3.15764 3.3629 0
M  V30 4086 H 394.788 3.01961 3.11451 0
M  V30 4087 H 395.459 2.83296 4.73759 0
M  V30 4088 H 397.935 1.04125 4.02861 0
M  V30 4089 H 396.811 0.939076 5.40807 0
M  V30 4090 H 397.072 -0.472457 4.39568 0
M  V30 4091 N 396.131 -1.37776 0.765217 0
M  V30 4092 C 397.041 -2.34135 0.147666 0
M  V30 4093 C 398.057 -1.59854 -0.687215 0
M  V30 4094 O 399.233 -1.91983 -0.608659 0
M  V30 4095 C 396.298 -3.3901 -0.72617 0
M  V30 4096 C 395.359 -4.2912 0.124417 0
M  V30 4097 C 394.592 -5.28986 -0.707807 0
M  V30 4098 O 394.815 -5.36205 -1.94525 0
M  V30 4099 O 393.749 -6.01779 -0.12046 0
M  V30 4100 H 397.575 -2.88664 0.943758 0
M  V30 4101 H 395.16 -1.39824 0.526277 0
M  V30 4102 H 397.042 -4.03195 -1.22524 0
M  V30 4103 H 395.717 -2.86819 -1.50056 0
M  V30 4104 H 394.624 -3.68057 0.669696 0
M  V30 4105 H 395.957 -4.84598 0.861736 0
M  V30 4106 N 397.609 -0.515225 -1.4894 0
M  V30 4107 C 398.858 0.0261361 -2.01683 0
M  V30 4108 C 399.171 1.36719 -1.39883 0
M  V30 4109 O 400.377 1.99606 -1.84037 0
M  V30 4110 C 398.833 0.0970111 -3.59769 0
M  V30 4111 C 398.441 -1.23825 -4.30548 0
M  V30 4112 C 400.185 0.587981 -4.20408 0
M  V30 4113 C 398.092 -1.12877 -5.80528 0
M  V30 4114 H 397.022 0.0135398 -0.753878 0
M  V30 4115 H 399.673 -0.656787 -1.71343 0
M  V30 4116 H 398.055 0.844694 -3.86886 0
M  V30 4117 H 399.229 -2.00034 -4.15118 0
M  V30 4118 H 397.544 -1.66379 -3.81716 0
M  V30 4119 H 400.141 0.68763 -5.3026 0
M  V30 4120 H 400.484 1.59026 -3.84729 0
M  V30 4121 H 401.017 -0.103582 -3.97665 0
M  V30 4122 H 397.756 -2.10575 -6.20756 0
M  V30 4123 H 397.276 -0.407799 -5.98412 0
M  V30 4124 H 398.955 -0.813332 -6.41868 0
M  V30 4125 N 399.087 1.5561 -0.249682 0
M  V30 4126 C 400.315 2.03411 0.378352 0
M  V30 4127 C 400.73 1.12886 1.51335 0
M  V30 4128 O 400.087 0.143833 1.81932 0
M  V30 4129 C 400.138 3.50537 0.88351 0
M  V30 4130 O 399.859 4.37614 -0.20626 0
M  V30 4131 C 401.36 4.14113 1.58195 0
M  V30 4132 H 398.58 0.664994 0.08958 0
M  V30 4133 H 401.124 2.01044 -0.374357 0
M  V30 4134 H 399.279 3.5343 1.58639 0
M  V30 4135 H 399.693 5.24199 0.177782 0
M  V30 4136 H 401.167 5.18741 1.8871 0
M  V30 4137 H 401.644 3.60767 2.50487 0
M  V30 4138 H 402.25 4.15151 0.923573 0
M  V30 4139 N 400.565 -0.0233959 1.57583 0
M  V30 4140 C 401.475 -1.03907 2.10334 0
M  V30 4141 C 402.491 -1.39257 1.04323 0
M  V30 4142 O 403.667 -1.48462 1.36091 0
M  V30 4143 C 400.732 -2.31938 2.57693 0
M  V30 4144 C 399.793 -2.03117 3.78209 0
M  V30 4145 C 399.026 -3.25043 4.233 0
M  V30 4146 O 399.249 -4.35916 3.67876 0
M  V30 4147 O 398.183 -3.10411 5.15683 0
M  V30 4148 H 402.009 -0.620748 2.97288 0
M  V30 4149 H 399.594 -0.240743 1.47448 0
M  V30 4150 H 401.476 -3.07196 2.88458 0
M  V30 4151 H 400.151 -2.73055 1.73847 0
M  V30 4152 H 399.058 -1.25408 3.52454 0
M  V30 4153 H 400.391 -1.66852 4.63056 0
M  V30 4154 N 402.043 -1.548 -0.295768 0
M  V30 4155 C 402.973 -1.89115 -1.36959 0
M  V30 4156 C 403.954 -0.75059 -1.52644 0
M  V30 4157 O 405.139 -1.00678 -1.66065 0
M  V30 4158 C 402.269 -2.14307 -2.73295 0
M  V30 4159 C 401.223 -3.30151 -2.72368 0
M  V30 4160 C 400.549 -3.40772 -4.12042 0
M  V30 4161 C 401.849 -4.67126 -2.33646 0
M  V30 4162 H 403.543 -2.79053 -1.08488 0
M  V30 4163 H 401.089 -1.34266 -0.520443 0
M  V30 4164 H 403.042 -2.36898 -3.48507 0
M  V30 4165 H 401.766 -1.21145 -3.03301 0
M  V30 4166 H 400.425 -3.0749 -1.99613 0
M  V30 4167 H 400.073 -2.45117 -4.39234 0
M  V30 4168 H 399.773 -4.18645 -4.12322 0
M  V30 4169 H 401.297 -3.6563 -4.89027 0
M  V30 4170 H 402.711 -4.89414 -2.98575 0
M  V30 4171 H 401.108 -5.47751 -2.45129 0
M  V30 4172 H 402.178 -4.67489 -1.28772 0
M  V30 4173 N 403.521 0.559213 -1.47345 0
M  V30 4174 C 404.761 1.32728 -1.55444 0
M  V30 4175 C 405.125 1.90838 -0.210895 0
M  V30 4176 O 406.326 2.68282 -0.166719 0
M  V30 4177 C 404.597 2.4092 -2.63993 0
M  V30 4178 S 406.156 3.2784 -2.91661 0
M  V30 4179 H 402.974 0.451883 -0.548929 0
M  V30 4180 H 405.576 0.640404 -1.84714 0
M  V30 4181 H 404.28 1.9666 -3.60212 0
M  V30 4182 H 403.811 3.14351 -2.36531 0
M  V30 4183 H 405.826 4.40341 -2.28722 0
M  V30 4184 N 404.999 1.35443 0.805782 0
M  V30 4185 C 406.248 1.28097 1.55801 0
M  V30 4186 C 406.561 -0.142428 1.95081 0
M  V30 4187 O 407.767 -0.33817 2.69386 0
M  V30 4188 C 406.223 2.24653 2.81174 0
M  V30 4189 C 405.831 3.72342 2.49129 0
M  V30 4190 C 407.575 2.2625 3.59181 0
M  V30 4191 C 405.482 4.60719 3.70799 0
M  V30 4192 H 404.412 0.475937 0.584808 0
M  V30 4193 H 407.063 1.60712 0.885661 0
M  V30 4194 H 405.445 1.85011 3.50124 0
M  V30 4195 H 406.619 4.20624 1.88181 0
M  V30 4196 H 404.934 3.73361 1.84366 0
M  V30 4197 H 407.531 2.89495 4.49552 0
M  V30 4198 H 407.874 1.26647 3.96568 0
M  V30 4199 H 408.407 2.64426 2.97193 0
M  V30 4200 H 405.146 5.61324 3.3852 0
M  V30 4201 H 404.666 4.17163 4.3097 0
M  V30 4202 H 406.345 4.76182 4.38018 0
M  V30 4203 N 406.477 -1.02803 1.19454 0
M  V30 4204 C 407.409 -2.11181 0.890807 0
M  V30 4205 C 408.422 -1.6238 -0.116829 0
M  V30 4206 O 409.611 -1.78144 0.112694 0
M  V30 4207 C 406.711 -3.37461 0.311942 0
M  V30 4208 C 405.884 -4.15446 1.36834 0
M  V30 4209 C 404.943 -5.20039 0.802864 0
M  V30 4210 O 403.969 -5.49602 1.48077 0
M  V30 4211 N 405.171 -5.79165 -0.393417 0
M  V30 4212 H 407.936 -2.37827 1.82369 0
M  V30 4213 H 405.497 -1.19101 1.09666 0
M  V30 4214 H 407.489 -4.0462 -0.0802225 0
M  V30 4215 H 406.059 -3.08156 -0.52524 0
M  V30 4216 H 405.279 -3.43423 1.93531 0
M  V30 4217 H 406.567 -4.64335 2.08015 0
M  V30 4218 H 405.965 -5.57466 -0.961658 0
M  V30 4219 H 404.522 -6.47729 -0.727351 0
M  V30 4220 N 407.956 -0.998596 -1.21925 0
M  V30 4221 C 408.906 -0.524743 -2.21879 0
M  V30 4222 C 409.89 0.41017 -1.55584 0
M  V30 4223 O 411.082 0.236063 -1.75419 0
M  V30 4224 C 408.211 0.153636 -3.42956 0
M  V30 4225 C 407.297 -0.801918 -4.16449 0
M  V30 4226 N 407.688 -1.95211 -4.66611 0
M  V30 4227 C 405.986 -0.618972 -4.41684 0
M  V30 4228 C 406.687 -2.55234 -5.22715 0
M  V30 4229 N 405.663 -1.83451 -5.1171 0
M  V30 4230 H 409.465 -1.40189 -2.58311 0
M  V30 4231 H 406.979 -0.86159 -1.3766 0
M  V30 4232 H 408.976 0.510534 -4.13762 0
M  V30 4233 H 407.636 1.02684 -3.08036 0
M  V30 4234 H 408.647 -2.33271 -4.62391 0
M  V30 4235 H 405.324 0.207694 -4.16983 0
M  V30 4236 H 406.714 -3.52471 -5.72026 0
M  V30 4237 N 409.434 1.37368 -0.772513 0
M  V30 4238 C 410.682 1.99279 -0.336516 0
M  V30 4239 C 411.003 1.6163 1.09091 0
M  V30 4240 O 410.273 0.882109 1.74916 0
M  V30 4241 H 408.853 0.737063 -0.121435 0
M  V30 4242 H 411.515 1.67836 -0.990809 0
M  V30 4243 H 410.611 3.09332 -0.414763 0
M  V30 4244 N 410.912 0.523116 1.48665 0
M  V30 4245 C 412.158 -0.00540031 2.03399 0
M  V30 4246 C 412.513 -1.3264 1.39372 0
M  V30 4247 O 411.806 -1.84184 0.527916 0
M  V30 4248 C 412 -0.191671 3.56886 0
M  V30 4249 C 411.829 1.10972 4.35793 0
M  V30 4250 C 410.599 1.66769 4.76987 0
M  V30 4251 C 412.797 2.01861 4.73029 0
M  V30 4252 N 410.779 2.91268 5.40404 0
M  V30 4253 C 412.15 3.10937 5.36394 0
M  V30 4254 C 414.205 2.02271 4.54962 0
M  V30 4255 C 412.908 4.20478 5.83601 0
M  V30 4256 C 414.934 3.10802 5.03146 0
M  V30 4257 C 414.296 4.18597 5.6653 0
M  V30 4258 H 410.395 0.0393531 0.781009 0
M  V30 4259 H 412.979 0.702876 1.8157 0
M  V30 4260 H 411.15 -0.869025 3.78553 0
M  V30 4261 H 412.882 -0.719177 3.98259 0
M  V30 4262 H 409.637 1.20996 4.57883 0
M  V30 4263 H 410.061 3.54635 5.76683 0
M  V30 4264 H 414.703 1.2023 4.05345 0
M  V30 4265 H 412.421 5.03303 6.32228 0
M  V30 4266 H 416.007 3.12166 4.90962 0
M  V30 4267 H 414.887 5.01193 6.03138 0
M  V30 4268 N 412.39 -1.55475 0.257931 0
M  V30 4269 C 413.618 -2.03609 -0.367559 0
M  V30 4270 C 414.033 -1.13687 -1.50734 0
M  V30 4271 O 413.39 -0.153479 -1.81853 0
M  V30 4272 C 413.441 -3.51001 -0.864908 0
M  V30 4273 O 413.162 -4.37499 0.229465 0
M  V30 4274 C 414.663 -4.14946 -1.55997 0
M  V30 4275 H 411.883 -0.665459 -0.0860521 0
M  V30 4276 H 414.427 -2.00843 0.385014 0
M  V30 4277 H 412.582 -3.54266 -1.56762 0
M  V30 4278 H 412.996 -5.24286 -0.14998 0
M  V30 4279 H 414.47 -5.19735 -1.85956 0
M  V30 4280 H 414.947 -3.6209 -2.4857 0
M  V30 4281 H 415.553 -4.15635 -0.901543 0
M  V30 4282 N 413.868 0.0150385 -1.57593 0
M  V30 4283 C 415.279 0.559832 -1.78109 0
M  V30 4284 C 415.63 1.74814 -0.890756 0
M  V30 4285 O 414.755 2.16216 -0.0892482 0
M  V30 4286 C 415.35 1.02238 -3.23006 0
M  V30 4287 C 413.909 1.51258 -3.44671 0
M  V30 4288 C 413.056 0.456955 -2.73509 0
M  V30 4289 H 416.007 -0.211169 -1.57289 0
M  V30 4290 H 416.028 1.88912 -3.30292 0
M  V30 4291 H 415.54 0.157302 -3.87781 0
M  V30 4292 H 413.641 2.39905 -2.8509 0
M  V30 4293 H 413.754 1.55042 -4.5332 0
M  V30 4294 H 412.118 0.915196 -2.37689 0
M  V30 4295 H 412.901 -0.398896 -3.40975 0
M  V30 4296 N 415.346 1.54954 0.287554 0
M  V30 4297 C 416.594 1.74528 1.01904 0
M  V30 4298 C 416.915 0.541349 1.87335 0
M  V30 4299 O 416.185 -0.444108 1.908 0
M  V30 4300 H 414.765 0.643576 0.379235 0
M  V30 4301 H 417.427 1.92333 0.315294 0
M  V30 4302 H 416.523 2.64015 1.6644 0
M  V30 4303 N 416.824 -0.551391 1.4764 0
M  V30 4304 C 417.772 -1.67896 1.60978 0
M  V30 4305 C 418.766 -1.62549 0.476877 0
M  V30 4306 O 419.972 -1.67664 0.654878 0
M  V30 4307 H 416.347 -0.555649 0.506713 0
M  V30 4308 H 418.318 -1.53784 2.55721 0
M  V30 4309 C 417.067 -3.06234 1.64669 0
M  V30 4310 H 416.39 -3.11033 2.51194 0
M  V30 4311 H 417.83 -3.84804 1.7805 0
M  V30 4312 C 416.289 -3.34737 0.381115 0
M  V30 4313 O 416.819 -3.98381 -0.515297 0
M  V30 4314 N 415.025 -2.8944 0.259354 0
M  V30 4315 H 414.572 -2.37827 0.98976 0
M  V30 4316 H 414.53 -3.08882 -0.586464 0
M  V30 4317 N 418.302 -1.35869 -0.798587 0
M  V30 4318 C 419.55 -1.29332 -1.55298 0
M  V30 4319 C 419.871 0.129729 -1.94568 0
M  V30 4320 O 419.141 1.06796 -1.6423 0
M  V30 4321 H 417.721 -0.475737 -0.57592 0
M  V30 4322 H 420.383 -1.70062 -0.952093 0
M  V30 4323 H 419.479 -1.91458 -2.46476 0
M  V30 4324 N 419.78 1.02168 -1.19998 0
M  V30 4325 C 421.196 1.27969 -0.953737 0
M  V30 4326 C 421.396 1.98079 0.369703 0
M  V30 4327 O 420.452 2.27306 1.09947 0
M  V30 4328 C 421.765 2.11971 -2.13281 0
M  V30 4329 C 423.313 2.25255 -2.17323 0
M  V30 4330 C 423.788 3.12632 -3.34702 0
M  V30 4331 N 425.279 3.2022 -3.34684 0
M  V30 4332 C 426.014 3.88039 -4.22153 0
M  V30 4333 N 425.51 4.58027 -5.19791 0
M  V30 4334 N 427.303 3.84511 -4.10009 0
M  V30 4335 H 419.454 0.550794 -2.05134 0
M  V30 4336 H 421.717 0.305683 -0.897364 0
M  V30 4337 H 421.423 1.67785 -3.09097 0
M  V30 4338 H 421.297 3.12699 -2.10949 0
M  V30 4339 H 423.684 2.68667 -1.22073 0
M  V30 4340 H 423.765 1.24053 -2.23706 0
M  V30 4341 H 423.409 2.69926 -4.30235 0
M  V30 4342 H 423.339 4.13909 -3.25556 0
M  V30 4343 H 425.83 2.70382 -2.64012 0
M  V30 4344 H 426.143 5.07429 -5.82868 0
M  V30 4345 H 424.488 4.56869 -5.23733 0
M  V30 4346 H 427.679 3.28978 -3.33003 0
M  V30 4347 H 427.852 4.3709 -4.78389 0
M  V30 4348 N 421.258 1.00505 1.21394 0
M  V30 4349 C 422.505 0.687774 1.90462 0
M  V30 4350 C 422.833 -0.78147 1.7811 0
M  V30 4351 O 422.088 -1.58208 1.1519 0
M  V30 4352 C 422.387 1.0546 3.41486 0
M  V30 4353 C 422.053 2.51812 3.74034 0
M  V30 4354 C 420.715 2.91804 3.82628 0
M  V30 4355 C 423.067 3.46614 3.8924 0
M  V30 4356 C 420.395 4.2556 4.03876 0
M  V30 4357 C 422.747 4.80044 4.11995 0
M  V30 4358 C 421.411 5.19759 4.18816 0
M  V30 4359 H 420.681 0.251674 0.696951 0
M  V30 4360 H 423.328 1.26349 1.43903 0
M  V30 4361 H 421.633 0.397133 3.89782 0
M  V30 4362 H 423.33 0.786976 3.93202 0
M  V30 4363 H 419.92 2.1982 3.67936 0
M  V30 4364 H 424.104 3.16883 3.81967 0
M  V30 4365 H 419.36 4.55901 4.07387 0
M  V30 4366 H 423.534 5.53439 4.22704 0
M  V30 4367 H 421.161 6.23418 4.35033 0
M  V30 4368 N 422.737 -1.36956 0.779787 0
M  V30 4369 C 424.014 -1.93697 0.272156 0
M  V30 4370 C 424.394 -1.71267 -1.23413 0
M  V30 4371 O 423.742 -1.06607 -2.02107 0
M  V30 4372 C 423.952 -3.42812 0.654291 0
M  V30 4373 C 425.3 -4.19921 0.628602 0
M  V30 4374 O 426.324 -3.51209 0.594172 0
M  V30 4375 O 425.183 -5.42465 0.662864 0
M  V30 4376 H 422.277 -0.824447 0.0649286 0
M  V30 4377 H 424.823 -1.46196 0.861682 0
M  V30 4378 H 423.595 -3.52754 1.69353 0
M  V30 4379 H 423.218 -3.97582 0.0381369 0
M  V30 4380 N 424.215 -0.530993 -1.48385 0
M  V30 4381 C 425.461 0.00274135 -2.028 0
M  V30 4382 C 425.794 1.33838 -1.40716 0
M  V30 4383 O 425.069 1.86465 -0.553277 0
M  V30 4384 C 425.352 0.123676 -3.59888 0
M  V30 4385 C 425.205 -1.2372 -4.3245 0
M  V30 4386 C 426.524 0.849967 -4.31814 0
M  V30 4387 H 423.643 -0.000477758 -0.737 0
M  V30 4388 H 426.285 -0.688217 -1.77098 0
M  V30 4389 H 424.435 0.712157 -3.81917 0
M  V30 4390 H 426.107 -1.86687 -4.21836 0
M  V30 4391 H 424.35 -1.81882 -3.93829 0
M  V30 4392 H 425.021 -1.10557 -5.40815 0
M  V30 4393 H 427.497 0.350572 -4.14621 0
M  V30 4394 H 426.373 0.903486 -5.41413 0
M  V30 4395 H 426.634 1.90047 -3.99167 0
M  V30 4396 N 425.693 1.55336 -0.266172 0
M  V30 4397 C 426.623 2.25146 0.618981 0
M  V30 4398 C 427.604 1.23845 1.16604 0
M  V30 4399 O 428.789 1.52544 1.20183 0
M  V30 4400 C 425.919 2.96572 1.80728 0
M  V30 4401 C 424.873 4.04726 1.39215 0
M  V30 4402 C 424.199 4.63678 2.66283 0
M  V30 4403 C 425.499 5.19407 0.548942 0
M  V30 4404 H 427.193 2.99377 0.0368116 0
M  V30 4405 H 424.739 1.43991 0.0162651 0
M  V30 4406 H 426.692 3.44116 2.43232 0
M  V30 4407 H 425.416 2.19861 2.41514 0
M  V30 4408 H 424.075 3.57979 0.790351 0
M  V30 4409 H 423.723 3.83646 3.25308 0
M  V30 4410 H 423.423 5.367 2.39222 0
M  V30 4411 H 424.947 5.13967 3.29651 0
M  V30 4412 H 426.361 5.63059 1.07876 0
M  V30 4413 H 424.758 5.98936 0.373593 0
M  V30 4414 H 425.828 4.8295 -0.434394 0
M  V30 4415 N 427.171 -0.0066808 1.57599 0
M  V30 4416 C 428.582 -0.550379 1.78403 0
M  V30 4417 C 428.933 -1.74339 0.900014 0
M  V30 4418 O 428.058 -2.16166 0.100713 0
M  V30 4419 C 428.653 -1.00523 3.23544 0
M  V30 4420 C 427.212 -1.49428 3.45468 0
M  V30 4421 C 426.359 -0.442444 2.73748 0
M  V30 4422 H 429.31 0.219508 1.57175 0
M  V30 4423 H 429.331 -1.87157 3.31289 0
M  V30 4424 H 428.843 -0.136735 3.87859 0
M  V30 4425 H 426.944 -2.3839 2.86358 0
M  V30 4426 H 427.057 -1.52635 4.54136 0
M  V30 4427 H 425.421 -0.902578 2.38171 0
M  V30 4428 H 426.204 0.416973 3.40758 0
M  V30 4429 N 428.649 -1.55105 -0.279332 0
M  V30 4430 C 429.579 -1.90557 -1.34945 0
M  V30 4431 C 430.56 -0.766738 -1.51839 0
M  V30 4432 O 431.745 -1.02434 -1.64988 0
M  V30 4433 C 428.875 -2.17193 -2.71006 0
M  V30 4434 C 427.829 -3.33021 -2.68851 0
M  V30 4435 C 427.155 -3.45123 -4.08405 0
M  V30 4436 C 428.455 -4.69578 -2.28678 0
M  V30 4437 H 430.149 -2.80188 -1.05522 0
M  V30 4438 H 427.695 -1.34811 -0.506173 0
M  V30 4439 H 429.648 -2.40581 -3.45975 0
M  V30 4440 H 428.372 -1.24355 -3.01999 0
M  V30 4441 H 427.031 -3.0959 -1.9634 0
M  V30 4442 H 426.679 -2.49762 -4.3661 0
M  V30 4443 H 426.379 -4.22995 -4.07859 0
M  V30 4444 H 427.903 -3.70796 -4.85121 0
M  V30 4445 H 429.317 -4.92553 -2.93368 0
M  V30 4446 H 427.714 -5.5032 -2.39306 0
M  V30 4447 H 428.784 -4.68828 -1.23807 0
M  V30 4448 N 430.127 0.543554 -1.4793 0
M  V30 4449 C 431.057 1.65888 -1.64327 0
M  V30 4450 C 432.038 1.62818 -0.492383 0
M  V30 4451 O 433.223 1.80226 -0.723338 0
M  V30 4452 C 430.353 3.04506 -1.67013 0
M  V30 4453 C 429.307 3.2243 -2.81466 0
M  V30 4454 C 428.633 4.61972 -2.69233 0
M  V30 4455 C 429.933 3.06496 -4.22915 0
M  V30 4456 H 431.627 1.52421 -2.57698 0
M  V30 4457 H 429.173 0.731849 -1.24016 0
M  V30 4458 H 431.126 3.82391 -1.77074 0
M  V30 4459 H 429.85 3.18964 -0.70212 0
M  V30 4460 H 428.509 2.46957 -2.70938 0
M  V30 4461 H 428.157 4.73247 -1.7043 0
M  V30 4462 H 427.857 4.74911 -3.46025 0
M  V30 4463 H 429.381 5.41974 -2.81242 0
M  V30 4464 H 430.795 3.74186 -4.34348 0
M  V30 4465 H 429.192 3.30938 -5.006 0
M  V30 4466 H 430.262 2.03077 -4.40327 0
M  V30 4467 N 431.605 1.3629 0.791371 0
M  V30 4468 C 432.535 1.33137 1.91825 0
M  V30 4469 C 433.516 0.203168 1.68882 0
M  V30 4470 O 434.701 0.400509 1.90025 0
M  V30 4471 C 431.831 1.11793 3.28816 0
M  V30 4472 C 430.785 2.21417 3.66277 0
M  V30 4473 C 430.111 1.85218 5.01596 0
M  V30 4474 C 431.411 3.63489 3.75064 0
M  V30 4475 H 433.105 2.2743 1.9472 0
M  V30 4476 H 430.651 1.09479 0.935437 0
M  V30 4477 H 432.604 1.08222 4.07266 0
M  V30 4478 H 431.328 0.139501 3.26302 0
M  V30 4479 H 429.987 2.2411 2.90121 0
M  V30 4480 H 429.635 0.859544 4.95602 0
M  V30 4481 H 429.335 2.58611 5.27631 0
M  V30 4482 H 430.859 1.832 5.82469 0
M  V30 4483 H 432.273 3.63034 4.43711 0
M  V30 4484 H 430.67 4.35771 4.12582 0
M  V30 4485 H 431.74 3.98536 2.76219 0
M  V30 4486 N 433.083 -1.0153 1.20538 0
M  V30 4487 C 434.015 -2.10224 0.913155 0
M  V30 4488 C 435.028 -1.62495 -0.0995998 0
M  V30 4489 O 436.217 -1.78014 0.131582 0
M  V30 4490 C 433.317 -3.37111 0.347717 0
M  V30 4491 C 432.49 -4.13971 1.41233 0
M  V30 4492 C 431.549 -5.19158 0.857976 0
M  V30 4493 O 430.575 -5.48 1.53897 0
M  V30 4494 N 431.777 -5.7955 -0.331966 0
M  V30 4495 H 434.542 -2.35879 1.84881 0
M  V30 4496 H 432.103 -1.17931 1.10923 0
M  V30 4497 H 434.095 -4.04683 -0.0373026 0
M  V30 4498 H 432.665 -3.08696 -0.492527 0
M  V30 4499 H 431.885 -3.41351 1.97163 0
M  V30 4500 H 433.173 -4.62103 2.12928 0
M  V30 4501 H 432.571 -5.58455 -0.902478 0
M  V30 4502 H 431.128 -6.48464 -0.65861 0
M  V30 4503 N 434.561 -1.01147 -1.20859 0
M  V30 4504 C 435.524 -0.582224 -2.21682 0
M  V30 4505 C 436.524 0.344887 -1.57058 0
M  V30 4506 O 437.714 0.134281 -1.73682 0
M  V30 4507 C 434.846 0.150496 -3.40568 0
M  V30 4508 H 436.039 -1.47408 -2.61172 0
M  V30 4509 H 433.592 -0.800695 -1.34233 0
M  V30 4510 H 434.327 1.0575 -3.06574 0
M  V30 4511 H 434.112 -0.515444 -3.88697 0
M  V30 4512 H 435.602 0.438344 -4.15293 0
M  V30 4513 N 436.039 1.36541 -0.78704 0
M  V30 4514 C 437.45 1.81873 -0.421807 0
M  V30 4515 C 437.801 1.65487 1.05397 0
M  V30 4516 O 436.926 1.17448 1.81755 0
M  V30 4517 C 437.521 3.30192 -0.758841 0
M  V30 4518 C 436.08 3.73743 -0.446468 0
M  V30 4519 C 435.227 2.58844 -0.994728 0
M  V30 4520 H 438.178 1.24796 -0.98039 0
M  V30 4521 H 438.199 3.80468 -0.0490648 0
M  V30 4522 H 437.711 3.42087 -1.83299 0
M  V30 4523 H 435.812 3.6741 0.619739 0
M  V30 4524 H 435.925 4.69272 -0.965415 0
M  V30 4525 H 434.289 2.51245 -0.418087 0
M  V30 4526 H 435.072 2.73525 -2.07458 0
M  V30 4527 N 437.518 0.538854 1.48102 0
M  V30 4528 C 438.795 -0.0568108 1.95517 0
M  V30 4529 C 439.175 -1.50408 1.48124 0
M  V30 4530 O 438.523 -2.17133 0.711727 0
M  V30 4531 C 438.733 0.0696262 3.48931 0
M  V30 4532 C 440.081 -0.0851202 4.24515 0
M  V30 4533 O 441.105 -0.0037347 3.562 0
M  V30 4534 O 439.964 -0.257025 5.45895 0
M  V30 4535 H 437.058 -0.0743695 0.823649 0
M  V30 4536 H 439.604 0.604081 1.58584 0
M  V30 4537 H 438.376 1.07744 3.76174 0
M  V30 4538 H 437.999 -0.629714 3.92582 0
M  V30 4539 N 438.996 -1.55193 0.274407 0
M  V30 4540 C 439.906 -2.26164 -0.623473 0
M  V30 4541 C 440.922 -1.28729 -1.17068 0
M  V30 4542 O 442.098 -1.61663 -1.20112 0
M  V30 4543 C 439.163 -2.96833 -1.7914 0
M  V30 4544 C 438.224 -4.09745 -1.28093 0
M  V30 4545 C 437.457 -4.77034 -2.3932 0
M  V30 4546 O 437.68 -4.4353 -3.5866 0
M  V30 4547 O 436.614 -5.64996 -2.07516 0
M  V30 4548 H 440.44 -3.03661 -0.0485661 0
M  V30 4549 H 438.025 -1.49341 0.0418382 0
M  V30 4550 H 439.907 -3.41248 -2.4724 0
M  V30 4551 H 438.582 -2.22253 -2.35341 0
M  V30 4552 H 437.489 -3.69787 -0.566416 0
M  V30 4553 H 438.822 -4.86224 -0.764683 0
M  V30 4554 N 440.474 -0.00167713 -1.576 0
M  V30 4555 C 441.885 0.54091 -1.78693 0
M  V30 4556 C 442.236 1.7386 -0.909247 0
M  V30 4557 O 441.361 2.16109 -0.112176 0
M  V30 4558 C 441.956 0.98806 -3.24072 0
M  V30 4559 C 440.515 1.47594 -3.46256 0
M  V30 4560 C 439.662 0.42792 -2.73978 0
M  V30 4561 H 442.613 -0.22784 -1.57056 0
M  V30 4562 H 442.634 1.85398 -3.32277 0
M  V30 4563 H 442.146 0.116164 -3.87926 0
M  V30 4564 H 440.247 2.36868 -2.87618 0
M  V30 4565 H 440.36 1.50225 -4.54939 0
M  V30 4566 H 438.724 0.889934 -2.38647 0
M  V30 4567 H 439.507 -0.435038 -3.40532 0
M  V30 4568 N 441.952 1.55251 0.271103 0
M  V30 4569 C 443.363 1.66635 0.842007 0
M  V30 4570 C 443.714 0.594631 1.86972 0
M  V30 4571 O 442.839 -0.263532 2.14789 0
M  V30 4572 C 443.434 3.02082 1.53401 0
M  V30 4573 C 441.993 3.15487 2.05293 0
M  V30 4574 C 441.14 2.62438 0.895631 0
M  V30 4575 H 444.091 1.58629 0.0474117 0
M  V30 4576 H 444.112 2.95176 2.40107 0
M  V30 4577 H 443.624 3.80062 0.785786 0
M  V30 4578 H 441.725 2.42284 2.83071 0
M  V30 4579 H 441.838 4.22075 2.26693 0
M  V30 4580 H 440.202 2.19644 1.28953 0
M  V30 4581 H 440.985 3.42923 0.160878 0
M  V30 4582 N 443.43 -0.535701 1.48216 0
M  V30 4583 C 444.34 -1.66785 1.64985 0
M  V30 4584 C 445.356 -1.65654 0.532414 0
M  V30 4585 O 446.532 -1.8471 0.80275 0
M  V30 4586 C 443.597 -3.0326 1.68031 0
M  V30 4587 C 442.658 -3.1529 2.9136 0
M  V30 4588 C 441.891 -4.45255 2.94252 0
M  V30 4589 O 442.114 -5.32011 2.05719 0
M  V30 4590 O 441.048 -4.6153 3.86359 0
M  V30 4591 H 444.874 -1.55576 2.60825 0
M  V30 4592 H 442.459 -0.70815 1.31551 0
M  V30 4593 H 444.341 -3.84436 1.72589 0
M  V30 4594 H 443.016 -3.14805 0.753628 0
M  V30 4595 H 441.923 -2.3343 2.92337 0
M  V30 4596 H 443.256 -3.08658 3.83394 0
M  V30 4597 N 444.908 -1.36708 -0.784132 0
M  V30 4598 C 445.838 -1.34153 -1.91116 0
M  V30 4599 C 446.819 -0.212121 -1.68772 0
M  V30 4600 O 448.004 -0.410581 -1.8981 0
M  V30 4601 C 445.134 -1.13535 -3.28218 0
M  V30 4602 C 444.088 -2.23356 -3.65097 0
M  V30 4603 C 443.414 -1.87875 -5.00607 0
M  V30 4604 C 444.714 -3.65473 -3.73131 0
M  V30 4605 H 446.408 -2.28459 -1.93512 0
M  V30 4606 H 443.954 -1.09973 -0.929618 0
M  V30 4607 H 445.907 -1.10381 -4.06687 0
M  V30 4608 H 444.631 -0.156804 -3.26223 0
M  V30 4609 H 443.29 -2.25645 -2.88929 0
M  V30 4610 H 442.938 -0.885814 -4.95139 0
M  V30 4611 H 442.638 -2.61406 -5.26252 0
M  V30 4612 H 444.162 -1.86286 -5.81489 0
M  V30 4613 H 445.576 -3.65382 -4.41779 0
M  V30 4614 H 443.973 -4.37953 -4.10265 0
M  V30 4615 H 445.043 -3.99995 -2.74102 0
M  V30 4616 N 446.386 1.0089 -1.21074 0
M  V30 4617 C 447.633 1.74607 -1.0256 0
M  V30 4618 C 447.961 1.89426 0.44136 0
M  V30 4619 O 447.216 1.42266 1.34384 0
M  V30 4620 C 447.515 3.16335 -1.66334 0
M  V30 4621 C 447.181 3.21474 -3.16173 0
M  V30 4622 C 445.843 3.22583 -3.57062 0
M  V30 4623 C 448.195 3.19025 -4.12156 0
M  V30 4624 C 445.523 3.18925 -4.92446 0
M  V30 4625 C 447.875 3.16909 -5.47496 0
M  V30 4626 C 446.539 3.16326 -5.87787 0
M  V30 4627 H 445.809 0.638933 -0.375294 0
M  V30 4628 H 448.456 1.18274 -1.50611 0
M  V30 4629 H 446.761 3.75876 -1.10566 0
M  V30 4630 H 448.458 3.72083 -1.49516 0
M  V30 4631 H 445.048 3.2135 -2.83605 0
M  V30 4632 H 449.232 3.17332 -3.81595 0
M  V30 4633 H 444.488 3.16809 -5.22917 0
M  V30 4634 H 448.662 3.13968 -6.21609 0
M  V30 4635 H 446.289 3.13246 -6.92662 0
M  V30 4636 N 447.864 1.01787 1.20321 0
M  V30 4637 C 448.794 0.609625 2.25401 0
M  V30 4638 C 449.775 -0.375951 1.65893 0
M  V30 4639 O 450.96 -0.261101 1.92437 0
M  V30 4640 C 448.09 -0.0515995 3.47262 0
M  V30 4641 C 447.044 0.855095 4.19371 0
M  V30 4642 C 446.37 0.0595757 5.34667 0
M  V30 4643 C 447.67 2.16374 4.75373 0
M  V30 4644 H 449.364 1.48803 2.59804 0
M  V30 4645 H 446.91 0.716934 1.24884 0
M  V30 4646 H 448.863 -0.348764 4.19954 0
M  V30 4647 H 447.587 -0.964726 3.12027 0
M  V30 4648 H 446.246 1.13628 3.48546 0
M  V30 4649 H 445.894 -0.85524 4.95676 0
M  V30 4650 H 445.594 0.663406 5.83843 0
M  V30 4651 H 447.118 -0.231105 6.10162 0
M  V30 4652 H 448.532 1.92885 5.39878 0
M  V30 4653 H 446.929 2.71853 5.34991 0
M  V30 4654 H 447.999 2.82589 3.94045 0
M  V30 4655 N 449.342 -1.36122 0.79427 0
M  V30 4656 C 450.272 -2.32551 0.210328 0
M  V30 4657 C 451.253 -1.56884 -0.657386 0
M  V30 4658 O 452.438 -1.85014 -0.590207 0
M  V30 4659 C 449.568 -3.41128 -0.651819 0
M  V30 4660 C 448.522 -4.27842 0.116395 0
M  V30 4661 C 447.848 -5.2763 -0.86666 0
M  V30 4662 C 449.148 -5.05647 1.30837 0
M  V30 4663 H 450.842 -2.81636 1.01594 0
M  V30 4664 H 448.388 -1.35407 0.489981 0
M  V30 4665 H 450.341 -4.07581 -1.07031 0
M  V30 4666 H 449.065 -2.90622 -1.49019 0
M  V30 4667 H 447.724 -3.62952 0.515915 0
M  V30 4668 H 447.372 -4.73395 -1.70019 0
M  V30 4669 H 447.072 -5.86514 -0.35705 0
M  V30 4670 H 448.596 -5.96955 -1.28361 0
M  V30 4671 H 450.01 -5.65113 0.965393 0
M  V30 4672 H 448.407 -5.73967 1.75161 0
M  V30 4673 H 449.477 -4.37006 2.10128 0
M  V30 4674 N 450.82 -0.546701 -1.47814 0
M  V30 4675 C 452.231 -0.110564 -1.86372 0
M  V30 4676 C 452.582 1.31678 -1.45449 0
M  V30 4677 O 451.707 1.98889 -0.852758 0
M  V30 4678 C 452.302 -0.193873 -3.38245 0
M  V30 4679 C 450.861 0.187164 -3.75934 0
M  V30 4680 C 450.008 -0.546166 -2.71868 0
M  V30 4681 H 452.959 -0.757022 -1.39481 0
M  V30 4682 H 452.98 0.590218 -3.75895 0
M  V30 4683 H 452.492 -1.23282 -3.67999 0
M  V30 4684 H 450.593 1.22762 -3.51796 0
M  V30 4685 H 450.706 -0.164083 -4.78819 0
M  V30 4686 H 449.07 0.00953904 -2.54698 0
M  V30 4687 H 449.853 -1.58606 -3.04465 0
M  V30 4688 N 452.299 1.55045 -0.282633 0
M  V30 4689 C 453.71 1.85473 0.213655 0
M  V30 4690 C 454.061 1.20465 1.54863 0
M  V30 4691 O 453.186 0.495676 2.10647 0
M  V30 4692 C 453.781 3.36496 0.394445 0
M  V30 4693 C 452.34 3.67022 0.834961 0
M  V30 4694 C 451.487 2.77218 -0.0674081 0
M  V30 4695 H 454.438 1.50478 -0.504202 0
M  V30 4696 H 454.459 3.60007 1.23186 0
M  V30 4697 H 453.971 3.83782 -0.577326 0
M  V30 4698 H 452.072 3.25241 1.81794 0
M  V30 4699 H 452.185 4.74433 0.667075 0
M  V30 4700 H 450.549 2.5069 0.450196 0
M  V30 4701 H 451.332 3.2732 -1.0352 0
M  V30 4702 N 453.777 0.010035 1.57597 0
M  V30 4703 C 454.687 -0.994226 2.12491 0
M  V30 4704 C 455.703 -1.37013 1.07254 0
M  V30 4705 O 456.879 -1.45542 1.3921 0
M  V30 4706 C 453.944 -2.2642 2.62555 0
M  V30 4707 C 453.005 -1.95049 3.82432 0
M  V30 4708 C 452.238 -3.15991 4.30099 0
M  V30 4709 O 452.461 -4.28015 3.7704 0
M  V30 4710 O 451.395 -2.99403 5.22151 0
M  V30 4711 H 455.221 -0.557549 2.98538 0
M  V30 4712 H 452.806 -0.209413 1.47925 0
M  V30 4713 H 454.688 -3.01009 2.9491 0
M  V30 4714 H 453.363 -2.69306 1.796 0
M  V30 4715 H 452.27 -1.17904 3.55034 0
M  V30 4716 H 453.603 -1.56992 4.66491 0
M  V30 4717 N 455.255 -1.55392 -0.262866 0
M  V30 4718 C 456.185 -1.91978 -1.32917 0
M  V30 4719 C 457.166 -0.7828 -1.51017 0
M  V30 4720 O 458.351 -1.04178 -1.63892 0
M  V30 4721 C 455.481 -2.20055 -2.68687 0
M  V30 4722 C 454.435 -3.35854 -2.65304 0
M  V30 4723 C 453.761 -3.49435 -4.04721 0
M  V30 4724 C 455.061 -4.71977 -2.23685 0
M  V30 4725 H 456.755 -2.81292 -1.02544 0
M  V30 4726 H 454.301 -1.3534 -0.491846 0
M  V30 4727 H 456.254 -2.44237 -3.43404 0
M  V30 4728 H 454.978 -1.27551 -3.00663 0
M  V30 4729 H 453.637 -3.11655 -1.93045 0
M  V30 4730 H 453.285 -2.54379 -4.33936 0
M  V30 4731 H 452.985 -4.27297 -4.0335 0
M  V30 4732 H 454.509 -3.7592 -4.81161 0
M  V30 4733 H 455.923 -4.95637 -2.88127 0
M  V30 4734 H 454.32 -5.52828 -2.33456 0
M  V30 4735 H 455.39 -4.70115 -1.18827 0
M  V30 4736 N 456.733 0.527833 -1.48498 0
M  V30 4737 C 457.979 1.28545 -1.56857 0
M  V30 4738 C 458.312 1.92678 -0.242651 0
M  V30 4739 O 457.587 1.79394 0.751545 0
M  V30 4740 C 457.87 2.37314 -2.70839 0
M  V30 4741 C 457.723 1.77858 -4.13142 0
M  V30 4742 C 459.042 3.39068 -2.80573 0
M  V30 4743 H 456.161 0.466006 -0.570971 0
M  V30 4744 H 458.803 0.587784 -1.8068 0
M  V30 4745 H 456.953 2.96821 -2.50658 0
M  V30 4746 H 458.625 1.22385 -4.44769 0
M  V30 4747 H 456.868 1.08383 -4.20042 0
M  V30 4748 H 457.539 2.56624 -4.88721 0
M  V30 4749 H 460.015 2.89518 -2.98862 0
M  V30 4750 H 458.891 4.12566 -3.6205 0
M  V30 4751 H 459.152 3.9975 -1.88818 0
M  V30 4752 N 458.211 1.37122 0.776871 0
M  V30 4753 C 459.141 1.35164 1.90402 0
M  V30 4754 C 460.122 0.221069 1.68657 0
M  V30 4755 O 461.307 0.420642 1.8959 0
M  V30 4756 C 458.437 1.15274 3.27611 0
M  V30 4757 C 457.391 2.25289 3.63908 0
M  V30 4758 C 456.717 1.90527 4.99603 0
M  V30 4759 C 458.017 3.67446 3.71188 0
M  V30 4760 H 459.711 2.29482 1.92297 0
M  V30 4761 H 457.257 1.10465 0.923773 0
M  V30 4762 H 459.21 1.12536 4.06096 0
M  V30 4763 H 457.934 0.174102 3.26136 0
M  V30 4764 H 456.593 2.27174 2.87728 0
M  V30 4765 H 456.241 0.91206 4.94662 0
M  V30 4766 H 455.941 2.64193 5.24858 0
M  V30 4767 H 457.465 1.89367 5.80493 0
M  V30 4768 H 458.879 3.67719 4.39836 0
M  V30 4769 H 457.276 4.40123 4.07936 0
M  V30 4770 H 458.346 4.01443 2.71977 0
M  V30 4771 N 459.689 -1.00246 1.21608 0
M  V30 4772 C 460.599 -2.12515 0.993709 0
M  V30 4773 C 461.615 -1.73913 -0.0549939 0
M  V30 4774 O 462.791 -2.00943 0.135619 0
M  V30 4775 C 459.856 -3.42083 0.563953 0
M  V30 4776 C 458.917 -3.94843 1.68516 0
M  V30 4777 C 458.15 -5.18226 1.27582 0
M  V30 4778 O 458.373 -5.70201 0.150506 0
M  V30 4779 O 457.307 -5.64497 2.0887 0
M  V30 4780 H 461.133 -2.34152 1.93407 0
M  V30 4781 H 458.718 -1.10891 1.00118 0
M  V30 4782 H 460.6 -4.20073 0.334194 0
M  V30 4783 H 459.275 -3.21828 -0.347665 0
M  V30 4784 H 458.182 -3.18068 1.96935 0
M  V30 4785 H 459.515 -4.19512 2.5743 0
M  V30 4786 N 461.167 -1.02423 -1.1978 0
M  V30 4787 C 462.413 -0.719051 -1.89625 0
M  V30 4788 C 462.746 0.750083 -1.7913 0
M  V30 4789 O 462.021 1.54574 -1.18056 0
M  V30 4790 C 462.304 -1.16499 -3.40735 0
M  V30 4791 C 462.157 -2.695 -3.60125 0
M  V30 4792 C 463.476 -0.742166 -4.33797 0
M  V30 4793 H 460.595 -0.26269 -0.688595 0
M  V30 4794 H 463.237 -1.27333 -1.41018 0
M  V30 4795 H 461.387 -0.69341 -3.82262 0
M  V30 4796 H 463.059 -3.24569 -3.278 0
M  V30 4797 H 461.302 -3.10113 -3.03336 0
M  V30 4798 H 461.973 -2.95757 -4.66081 0
M  V30 4799 H 464.449 -1.1477 -3.99959 0
M  V30 4800 H 463.325 -1.08213 -5.38127 0
M  V30 4801 H 463.586 0.355747 -4.40666 0
M  V30 4802 N 462.645 1.35699 -0.801477 0
M  V30 4803 C 464.056 1.81415 -0.441073 0
M  V30 4804 C 464.407 1.66595 1.03636 0
M  V30 4805 O 463.532 1.19369 1.80499 0
M  V30 4806 C 464.127 3.29369 -0.793819 0
M  V30 4807 C 462.686 3.73248 -0.486083 0
M  V30 4808 C 461.833 2.57775 -1.02213 0
M  V30 4809 H 464.784 1.23749 -0.993572 0
M  V30 4810 H 464.805 3.80395 -0.0894158 0
M  V30 4811 H 464.317 3.40123 -1.86917 0
M  V30 4812 H 462.418 3.68046 0.580735 0
M  V30 4813 H 462.531 4.68222 -1.01513 0
M  V30 4814 H 460.895 2.50788 -0.444712 0
M  V30 4815 H 461.678 2.71309 -2.10348 0
M  V30 4816 N 464.123 0.554532 1.47522 0
M  V30 4817 C 465.053 -0.182974 2.32782 0
M  V30 4818 C 466.034 -0.911377 1.43624 0
M  V30 4819 O 467.219 -0.892366 1.72483 0
M  V30 4820 C 464.349 -1.21513 3.25349 0
M  V30 4821 C 463.303 -0.603355 4.23726 0
M  V30 4822 C 462.629 -1.73995 5.05598 0
M  V30 4823 C 463.929 0.441121 5.20434 0
M  V30 4824 H 465.623 0.52882 2.94693 0
M  V30 4825 H 463.169 0.255759 1.41711 0
M  V30 4826 H 465.122 -1.73922 3.83835 0
M  V30 4827 H 463.846 -1.95683 2.61487 0
M  V30 4828 H 462.505 -0.10059 3.66462 0
M  V30 4829 H 462.153 -2.47063 4.38143 0
M  V30 4830 H 461.853 -1.3364 5.72201 0
M  V30 4831 H 463.377 -2.26735 5.66942 0
M  V30 4832 H 464.791 0.00319931 5.733 0
M  V30 4833 H 463.188 0.763402 5.95224 0
M  V30 4834 H 464.258 1.33799 4.66075 0
M  V30 4835 N 465.601 -1.54893 0.290851 0
M  V30 4836 C 466.511 -2.26812 -0.59945 0
M  V30 4837 C 467.527 -1.29963 -1.15696 0
M  V30 4838 O 468.703 -1.62928 -1.18391 0
M  V30 4839 C 465.768 -2.98716 -1.75982 0
M  V30 4840 C 464.829 -4.1108 -1.2374 0
M  V30 4841 C 464.062 -4.79546 -2.34246 0
M  V30 4842 O 464.285 -4.47309 -3.53936 0
M  V30 4843 O 463.219 -5.67165 -2.01512 0
M  V30 4844 H 467.045 -3.03696 -0.0163561 0
M  V30 4845 H 464.63 -1.49289 0.0576755 0
M  V30 4846 H 466.512 -3.43851 -2.43607 0
M  V30 4847 H 465.187 -2.24737 -2.3297 0
M  V30 4848 H 464.094 -3.70367 -0.527163 0
M  V30 4849 H 465.427 -4.87007 -0.71307 0
M  V30 4850 N 467.08 -0.0183926 -1.57589 0
M  V30 4851 C 468.03 0.975944 -2.06057 0
M  V30 4852 C 469.014 1.29204 -0.958908 0
M  V30 4853 O 470.206 1.27995 -1.22255 0
M  V30 4854 C 467.335 2.26194 -2.58247 0
M  V30 4855 C 466.421 1.97467 -3.75323 0
M  V30 4856 N 466.812 1.38968 -4.86335 0
M  V30 4857 C 465.11 2.27515 -3.83605 0
M  V30 4858 C 465.811 1.27131 -5.67638 0
M  V30 4859 N 464.787 1.76319 -5.14211 0
M  V30 4860 H 468.589 0.518444 -2.89291 0
M  V30 4861 H 466.103 0.18688 -1.61321 0
M  V30 4862 H 468.1 2.98289 -2.91255 0
M  V30 4863 H 466.76 2.7258 -1.76438 0
M  V30 4864 H 467.771 1.06608 -5.06809 0
M  V30 4865 H 464.448 2.76649 -3.12684 0
M  V30 4866 H 465.838 0.819882 -6.66879 0
M  V30 4867 N 468.558 1.5553 0.254621 0
M  V30 4868 C 469.969 1.67518 0.824286 0
M  V30 4869 C 470.32 0.614429 1.86331 0
M  V30 4870 O 469.445 -0.240736 2.15057 0
M  V30 4871 C 470.04 3.03692 1.50189 0
M  V30 4872 C 468.599 3.17646 2.01935 0
M  V30 4873 C 467.746 2.63373 0.867746 0
M  V30 4874 H 470.697 1.58671 0.0305843 0
M  V30 4875 H 470.718 2.97706 2.36962 0
M  V30 4876 H 470.23 3.80874 0.745431 0
M  V30 4877 H 468.331 2.45273 2.80485 0
M  V30 4878 H 468.444 4.24455 2.22204 0
M  V30 4879 H 466.808 2.20999 1.26616 0
M  V30 4880 H 467.591 3.43074 0.124498 0
M  V30 4881 N 470.036 -0.519951 1.48776 0
M  V30 4882 C 471.264 -1.29971 1.60982 0
M  V30 4883 C 471.679 -1.86803 0.273885 0
M  V30 4884 O 471.036 -1.66904 -0.738193 0
M  V30 4885 C 471.087 -2.44346 2.66415 0
M  V30 4886 O 470.808 -1.89855 3.94825 0
M  V30 4887 C 472.309 -3.36014 2.89153 0
M  V30 4888 H 469.529 -0.394891 0.542496 0
M  V30 4889 H 472.073 -0.626214 1.94676 0
M  V30 4890 H 470.228 -3.07562 2.35552 0
M  V30 4891 H 470.642 -2.64798 4.5275 0
M  V30 4892 H 472.116 -4.12593 3.66703 0
M  V30 4893 H 472.593 -3.91859 1.98351 0
M  V30 4894 H 473.199 -2.78582 3.21359 0
M  V30 4895 N 471.514 -1.37532 -0.769588 0
M  V30 4896 C 472.444 -1.36172 -1.89682 0
M  V30 4897 C 473.425 -0.23001 -1.68538 0
M  V30 4898 O 474.61 -0.43069 -1.89364 0
M  V30 4899 C 471.74 -1.1701 -3.26995 0
M  V30 4900 C 470.694 -2.27216 -3.62708 0
M  V30 4901 C 470.02 -1.93174 -4.98586 0
M  V30 4902 C 471.32 -3.6941 -3.69234 0
M  V30 4903 H 473.014 -2.30499 -1.91078 0
M  V30 4904 H 470.56 -1.10953 -0.917902 0
M  V30 4905 H 472.513 -1.14688 -4.05493 0
M  V30 4906 H 471.237 -0.191395 -3.26039 0
M  V30 4907 H 469.896 -2.28697 -2.86519 0
M  V30 4908 H 469.544 -0.938281 -4.94171 0
M  V30 4909 H 469.244 -2.66973 -5.23449 0
M  V30 4910 H 470.768 -1.92443 -5.79481 0
M  V30 4911 H 472.182 -3.70047 -4.37879 0
M  V30 4912 H 470.579 -4.4228 -4.05597 0
M  V30 4913 H 471.649 -4.0288 -2.69844 0
M  V30 4914 N 472.992 0.995999 -1.22138 0
M  V30 4915 C 473.902 2.11985 -1.00496 0
M  V30 4916 C 474.918 1.7394 0.0457701 0
M  V30 4917 O 476.094 2.00868 -0.146273 0
M  V30 4918 C 473.159 3.41779 -0.582086 0
M  V30 4919 C 472.22 3.93943 -1.70608 0
M  V30 4920 C 471.453 5.17542 -1.30328 0
M  V30 4921 O 471.676 5.70114 -0.180743 0
M  V30 4922 O 470.61 5.63382 -2.11861 0
M  V30 4923 H 474.436 2.33123 -1.94647 0
M  V30 4924 H 472.021 1.10358 -1.00705 0
M  V30 4925 H 473.903 4.1989 -0.356467 0
M  V30 4926 H 472.578 3.22007 0.330592 0
M  V30 4927 H 471.485 3.17019 -1.98619 0
M  V30 4928 H 472.818 4.18141 -2.59651 0
M  V30 4929 N 474.47 1.03057 1.19235 0
M  V30 4930 C 475.716 0.738841 1.89506 0
M  V30 4931 C 476.071 -0.724807 1.78225 0
M  V30 4932 O 475.364 -1.52118 1.16494 0
M  V30 4933 C 475.558 1.1268 3.39172 0
M  V30 4934 C 475.387 2.62662 3.65019 0
M  V30 4935 C 474.157 3.29658 3.82954 0
M  V30 4936 C 476.355 3.60873 3.66436 0
M  V30 4937 N 474.337 4.68726 3.96446 0
M  V30 4938 C 475.708 4.85566 3.8552 0
M  V30 4939 C 477.763 3.54647 3.49471 0
M  V30 4940 C 476.466 6.04783 3.89397 0
M  V30 4941 C 478.492 4.73281 3.54625 0
M  V30 4942 C 477.854 5.96789 3.74196 0
M  V30 4943 H 473.953 0.322256 0.712513 0
M  V30 4944 H 476.537 1.31822 1.43287 0
M  V30 4945 H 474.708 0.575612 3.84111 0
M  V30 4946 H 476.44 0.787145 3.96971 0
M  V30 4947 H 473.195 2.8007 3.81913 0
M  V30 4948 H 473.619 5.40971 4.07037 0
M  V30 4949 H 478.261 2.60143 3.33295 0
M  V30 4950 H 475.979 6.99654 4.04364 0
M  V30 4951 H 479.565 4.70094 3.42787 0
M  V30 4952 H 478.445 6.87051 3.78061 0
M  V30 4953 N 475.948 -1.35272 0.808662 0
M  V30 4954 C 477.195 -1.98709 0.390003 0
M  V30 4955 C 477.523 -1.64148 -1.04335 0
M  V30 4956 O 476.778 -0.897797 -1.73891 0
M  V30 4957 C 477.077 -3.53556 0.522798 0
M  V30 4958 C 476.743 -4.0799 1.91977 0
M  V30 4959 C 475.405 -4.22568 2.30195 0
M  V30 4960 C 477.757 -4.37442 2.83361 0
M  V30 4961 C 475.085 -4.63918 3.59162 0
M  V30 4962 C 477.437 -4.80232 4.11776 0
M  V30 4963 C 476.101 -4.93016 4.49991 0
M  V30 4964 H 475.371 -0.727127 0.142712 0
M  V30 4965 H 478.018 -1.6145 1.02985 0
M  V30 4966 H 476.323 -3.91287 -0.200494 0
M  V30 4967 H 478.02 -4.00598 0.179608 0
M  V30 4968 H 474.61 -3.97096 1.61284 0
M  V30 4969 H 478.794 -4.25731 2.55083 0
M  V30 4970 H 474.05 -4.72005 3.88615 0
M  V30 4971 H 478.224 -5.01982 4.82687 0
M  V30 4972 H 475.851 -5.24814 5.49976 0
M  V30 4973 N 477.426 -0.562348 -1.47226 0
M  V30 4974 C 478.389 0.172056 -2.28553 0
M  V30 4975 C 479.389 0.837928 -1.37242 0
M  V30 4976 O 480.579 0.693001 -1.59822 0
M  V30 4977 C 477.711 1.25223 -3.17068 0
M  V30 4978 H 478.904 -0.542401 -2.94954 0
M  V30 4979 H 476.457 -0.319493 -1.53 0
M  V30 4980 H 477.192 1.99892 -2.55369 0
M  V30 4981 H 476.977 0.779515 -3.84273 0
M  V30 4982 H 478.467 1.76791 -3.78332 0
M  V30 4983 N 478.904 1.54736 -0.299062 0
M  V30 4984 C 479.867 2.22127 0.565012 0
M  V30 4985 C 480.867 1.20669 1.06281 0
M  V30 4986 O 482.057 1.45417 0.959145 0
M  V30 4987 C 479.189 2.90611 1.78208 0
M  V30 4988 H 480.382 2.99891 -0.0237448 0
M  V30 4989 H 477.935 1.5622 -0.0498788 0
M  V30 4990 H 478.67 2.16921 2.41072 0
M  V30 4991 H 478.455 3.64984 1.43281 0
M  V30 4992 H 479.945 3.42026 2.396 0
M  V30 4993 N 480.382 0.0267497 1.57577 0
M  V30 4994 C 481.312 -0.954308 2.13108 0
M  V30 4995 C 482.293 -1.34088 1.04663 0
M  V30 4996 O 483.478 -1.41992 1.32484 0
M  V30 4997 C 480.608 -2.23744 2.65624 0
M  V30 4998 C 479.562 -1.99168 3.78835 0
M  V30 4999 C 478.888 -3.33726 4.17769 0
M  V30 5000 C 480.188 -1.33277 5.0501 0
M  V30 5001 H 481.882 -0.491848 2.95332 0
M  V30 5002 H 479.428 -0.23514 1.42067 0
M  V30 5003 H 481.381 -2.92754 3.03106 0
M  V30 5004 H 480.105 -2.72151 1.80558 0
M  V30 5005 H 478.764 -1.32577 3.41788 0
M  V30 5006 H 478.412 -3.79888 3.29688 0
M  V30 5007 H 478.112 -3.18089 4.94058 0
M  V30 5008 H 479.636 -4.04008 4.57832 0
M  V30 5009 H 481.05 -1.92283 5.40093 0
M  V30 5010 H 479.447 -1.28045 5.8628 0
M  V30 5011 H 480.517 -0.305411 4.83937 0
M  V30 5012 N 481.861 -1.55662 -0.24637 0
M  V30 5013 C 483.109 -1.77168 -0.972411 0
M  V30 5014 C 483.43 -0.590827 -1.85834 0
M  V30 5015 O 482.7 0.393365 -1.9191 0
M  V30 5016 H 481.28 -0.653405 -0.362038 0
M  V30 5017 H 483.942 -1.93101 -0.264189 0
M  V30 5018 H 483.038 -2.68335 -1.59382 0
M  V30 5019 N 483.339 0.512053 -1.4905 0
M  V30 5020 C 484.269 1.62365 -1.67809 0
M  V30 5021 C 485.25 1.61737 -0.526809 0
M  V30 5022 O 486.435 1.78651 -0.761404 0
M  V30 5023 C 483.565 3.00895 -1.73435 0
M  V30 5024 C 482.519 3.16387 -2.88242 0
M  V30 5025 C 481.845 4.56157 -2.78971 0
M  V30 5026 C 483.145 2.97457 -4.29321 0
M  V30 5027 H 484.839 1.46921 -2.60873 0
M  V30 5028 H 482.385 0.705379 -1.2554 0
M  V30 5029 H 484.338 3.78549 -1.85145 0
M  V30 5030 H 483.062 3.17403 -0.769619 0
M  V30 5031 H 481.721 2.41155 -2.76116 0
M  V30 5032 H 481.369 4.69525 -1.8043 0
M  V30 5033 H 481.069 4.67465 -3.5602 0
M  V30 5034 H 482.593 5.35886 -2.92675 0
M  V30 5035 H 484.007 3.64888 -4.42187 0
M  V30 5036 H 482.404 3.20245 -5.07507 0
M  V30 5037 H 483.474 1.93692 -4.44535 0
M  V30 5038 N 484.817 1.37938 0.762283 0
M  V30 5039 C 486.233 1.18945 1.06415 0
M  V30 5040 C 486.433 0.0321163 2.01474 0
M  V30 5041 O 485.489 -0.624844 2.44647 0
M  V30 5042 C 486.802 2.51218 1.65258 0
M  V30 5043 C 488.35 2.57824 1.7747 0
M  V30 5044 C 488.825 3.90251 2.39725 0
M  V30 5045 N 490.316 3.91744 2.47166 0
M  V30 5046 C 491.051 4.90966 2.96209 0
M  V30 5047 N 490.547 6.00585 3.45354 0
M  V30 5048 N 492.34 4.78363 2.9517 0
M  V30 5049 H 484.491 2.11994 0.131301 0
M  V30 5050 H 486.754 0.940262 0.120879 0
M  V30 5051 H 486.46 3.36317 1.02878 0
M  V30 5052 H 486.334 2.68989 2.64433 0
M  V30 5053 H 488.721 1.73126 2.3898 0
M  V30 5054 H 488.802 2.43928 0.770241 0
M  V30 5055 H 488.446 4.75368 1.78852 0
M  V30 5056 H 488.376 4.01454 3.40796 0
M  V30 5057 H 490.867 3.12563 2.12397 0
M  V30 5058 H 491.18 6.72236 3.81207 0
M  V30 5059 H 489.525 6.04217 3.43434 0
M  V30 5060 H 492.716 3.91841 2.56082 0
M  V30 5061 H 492.889 5.55843 3.33081 0
M  V30 5062 N 486.295 -0.989507 1.22664 0
M  V30 5063 C 487.541 -1.73298 1.06487 0
M  V30 5064 C 487.896 -1.88292 -0.395438 0
M  V30 5065 O 487.189 -1.41748 -1.28911 0
M  V30 5066 C 487.383 -3.13649 1.71345 0
M  V30 5067 C 487.212 -3.12341 3.23532 0
M  V30 5068 C 485.982 -3.18044 3.92653 0
M  V30 5069 C 488.18 -2.96226 4.20422 0
M  V30 5070 N 486.162 -3.06526 5.31898 0
M  V30 5071 C 487.533 -2.92773 5.4652 0
M  V30 5072 C 489.588 -2.80642 4.11271 0
M  V30 5073 C 488.291 -2.75332 6.64519 0
M  V30 5074 C 490.317 -2.64563 5.28924 0
M  V30 5075 C 489.679 -2.618 6.53942 0
M  V30 5076 H 485.778 -0.643643 0.444126 0
M  V30 5077 H 488.362 -1.17489 1.55256 0
M  V30 5078 H 486.533 -3.67694 1.25122 0
M  V30 5079 H 488.265 -3.76577 1.48229 0
M  V30 5080 H 485.02 -3.25861 3.43673 0
M  V30 5081 H 485.444 -3.04067 6.04874 0
M  V30 5082 H 490.086 -2.81574 3.15398 0
M  V30 5083 H 487.804 -2.73145 7.60538 0
M  V30 5084 H 491.39 -2.53482 5.23677 0
M  V30 5085 H 490.27 -2.49511 7.43447 0
M  V30 5086 N 487.773 -1.03688 -1.18687 0
M  V30 5087 C 489.003 -0.756819 -1.92239 0
M  V30 5088 C 489.411 0.689374 -1.76194 0
M  V30 5089 O 488.754 1.48126 -1.08648 0
M  V30 5090 C 488.816 -1.03851 -3.44173 0
M  V30 5091 C 488.48 -2.47785 -3.83994 0
M  V30 5092 C 489.477 -3.4595 -3.88091 0
M  V30 5093 C 487.162 -2.82397 -4.154 0
M  V30 5094 C 489.156 -4.76779 -4.23038 0
M  V30 5095 C 486.843 -4.13433 -4.50018 0
M  V30 5096 C 487.841 -5.10434 -4.53813 0
M  V30 5097 O 487.529 -6.39122 -4.87625 0
M  V30 5098 H 487.261 -0.275678 -0.617234 0
M  V30 5099 H 489.815 -1.38658 -1.51536 0
M  V30 5100 H 488.045 -0.351612 -3.85098 0
M  V30 5101 H 489.734 -0.746846 -3.9897 0
M  V30 5102 H 490.5 -3.20549 -3.63969 0
M  V30 5103 H 486.379 -2.07568 -4.11627 0
M  V30 5104 H 489.923 -5.52488 -4.25914 0
M  V30 5105 H 485.82 -4.38604 -4.736 0
M  V30 5106 H 486.588 -6.43715 -5.05542 0
M  V30 5107 N 489.251 1.34841 -0.815825 0
M  V30 5108 C 490.214 2.27959 -0.238185 0
M  V30 5109 C 491.214 1.49983 0.579816 0
M  V30 5110 O 492.404 1.69617 0.396953 0
M  V30 5111 C 489.536 3.34314 0.666876 0
M  V30 5112 H 490.729 2.80558 -1.05958 0
M  V30 5113 H 488.282 1.44852 -0.587156 0
M  V30 5114 H 489.017 2.86916 1.5116 0
M  V30 5115 H 488.802 3.92014 0.0819106 0
M  V30 5116 H 490.292 4.0379 1.06506 0
M  V30 5117 N 490.729 0.570148 1.46925 0
M  V30 5118 C 491.659 -0.158274 2.32963 0
M  V30 5119 C 492.64 -0.896093 1.44583 0
M  V30 5120 O 493.825 -0.874022 1.7342 0
M  V30 5121 C 490.955 -1.18055 3.26619 0
M  V30 5122 C 489.909 -0.558379 4.24342 0
M  V30 5123 C 489.235 -1.68623 5.07415 0
M  V30 5124 C 490.535 0.496295 5.19937 0
M  V30 5125 H 492.229 0.560046 2.94115 0
M  V30 5126 H 489.775 0.270775 1.41431 0
M  V30 5127 H 491.728 -1.69841 3.85658 0
M  V30 5128 H 490.452 -1.92899 2.63548 0
M  V30 5129 H 489.111 -0.0617157 3.66548 0
M  V30 5130 H 488.759 -2.42402 4.40738 0
M  V30 5131 H 488.459 -1.27564 5.73586 0
M  V30 5132 H 489.983 -2.20709 5.69315 0
M  V30 5133 H 491.397 0.0640052 5.73264 0
M  V30 5134 H 489.794 0.82649 5.94381 0
M  V30 5135 H 490.864 1.38735 4.6463 0
M  V30 5136 N 492.207 -1.54576 0.307264 0
M  V30 5137 C 493.618 -1.8579 -0.184121 0
M  V30 5138 C 493.969 -1.22914 -1.52927 0
M  V30 5139 O 493.094 -0.529126 -2.09831 0
M  V30 5140 C 493.689 -3.37081 -0.340862 0
M  V30 5141 C 492.248 -3.68304 -0.776465 0
M  V30 5142 C 491.395 -2.77076 0.111503 0
M  V30 5143 H 494.346 -1.49656 0.528078 0
M  V30 5144 H 494.367 -3.61922 -1.17443 0
M  V30 5145 H 493.879 -3.82815 0.638309 0
M  V30 5146 H 491.98 -3.28092 -1.76596 0
M  V30 5147 H 492.093 -4.75434 -0.591512 0
M  V30 5148 H 490.457 -2.51374 -0.410256 0
M  V30 5149 H 491.24 -3.25632 1.08714 0
M  V30 5150 N 493.685 -0.035106 -1.57561 0
M  V30 5151 C 494.648 0.929819 -2.09492 0
M  V30 5152 C 495.648 1.25026 -1.01119 0
M  V30 5153 O 496.838 1.18961 -1.27255 0
M  V30 5154 C 493.97 2.24457 -2.56577 0
M  V30 5155 H 495.163 0.479935 -2.96035 0
M  V30 5156 H 492.716 0.213033 -1.54841 0
M  V30 5157 H 493.451 2.74061 -1.73382 0
M  V30 5158 H 493.236 2.02508 -3.35757 0
M  V30 5159 H 494.726 2.93607 -2.96959 0
M  V30 5160 N 495.163 1.55791 0.238111 0
M  V30 5161 C 496.409 1.78297 0.966337 0
M  V30 5162 C 496.742 0.601903 1.84637 0
M  V30 5163 O 496.017 -0.399499 1.90353 0
M  V30 5164 C 496.3 3.10758 1.81939 0
M  V30 5165 C 496.153 4.39283 0.966958 0
M  V30 5166 C 497.472 3.39519 2.80027 0
M  V30 5167 H 494.591 0.648654 0.349882 0
M  V30 5168 H 497.233 1.88525 0.236253 0
M  V30 5169 H 495.383 3.02168 2.44185 0
M  V30 5170 H 497.055 4.59873 0.362514 0
M  V30 5171 H 495.298 4.32948 0.271669 0
M  V30 5172 H 495.969 5.28368 1.59784 0
M  V30 5173 H 498.445 3.48128 2.27917 0
M  V30 5174 H 497.321 4.33402 3.36829 0
M  V30 5175 H 497.582 2.60864 3.56934 0
M  V30 5176 N 496.642 -0.504142 1.49319 0
M  V30 5177 C 497.867 -1.28729 1.62615 0
M  V30 5178 C 498.292 -1.85752 0.296309 0
M  V30 5179 O 497.65 -1.65704 -0.735649 0
M  V30 5180 C 497.698 -2.39561 2.69524 0
M  V30 5181 O 496.802 -3.43324 2.28478 0
M  V30 5182 H 496.143 -0.380172 0.544395 0
M  V30 5183 H 498.673 -0.603872 1.95485 0
M  V30 5184 H 498.683 -2.8537 2.91595 0
M  V30 5185 H 497.358 -1.97423 3.66056 0
M  V30 5186 H 495.935 -3.03455 2.16725 0
M  V30 5187 N 498.12 -1.38341 -0.754957 0
M  V30 5188 C 499.068 -1.35573 -1.89005 0
M  V30 5189 C 500.062 -0.241824 -1.67665 0
M  V30 5190 O 501.268 -0.410785 -1.7525 0
M  V30 5191 H 497.643 -0.422898 -0.621821 0
M  V30 5192 H 499.614 -2.31359 -1.88455 0
M  V30 5193 C 498.363 -1.19631 -3.26471 0
M  V30 5194 H 497.686 -2.04605 -3.43477 0
M  V30 5195 H 499.126 -1.21748 -4.06144 0
M  V30 5196 C 497.585 0.0968705 -3.36761 0
M  V30 5197 O 498.115 1.07439 -3.87066 0
M  V30 5198 N 496.321 0.153242 -2.90196 0
M  V30 5199 H 495.868 -0.642908 -2.49448 0
M  V30 5200 H 495.826 1.01807 -2.9746 0
M  V30 5201 N 499.598 0.982988 -1.23187 0
M  V30 5202 C 500.531 2.07302 -0.953993 0
M  V30 5203 C 501.509 1.62249 0.106753 0
M  V30 5204 O 502.693 1.88481 -0.0269525 0
M  V30 5205 C 499.82 3.35873 -0.436716 0
M  V30 5206 C 498.866 3.99862 -1.48367 0
M  V30 5207 S 499.699 4.39443 -3.06023 0
M  V30 5208 C 500.855 5.7117 -2.55959 0
M  V30 5209 H 501.088 2.30554 -1.87702 0
M  V30 5210 H 498.621 1.11883 -1.06403 0
M  V30 5211 H 500.579 4.10244 -0.144872 0
M  V30 5212 H 499.24 3.10634 0.465351 0
M  V30 5213 H 498.433 4.92471 -1.07182 0
M  V30 5214 H 498.035 3.31857 -1.72473 0
M  V30 5215 H 500.327 6.47977 -1.97818 0
M  V30 5216 H 501.27 6.17194 -3.47098 0
M  V30 5217 H 501.678 5.29046 -1.96902 0
M  V30 5218 N 501.076 1.04316 1.18135 0
M  V30 5219 C 502.006 0.657299 2.24058 0
M  V30 5220 C 502.987 -0.340678 1.66654 0
M  V30 5221 O 504.172 -0.220223 1.92947 0
M  V30 5222 C 501.302 0.0220715 3.47293 0
M  V30 5223 C 500.256 0.943857 4.17463 0
M  V30 5224 C 499.582 0.172973 5.3442 0
M  V30 5225 C 500.882 2.26409 4.70677 0
M  V30 5226 H 502.576 1.5428 2.56589 0
M  V30 5227 H 500.122 0.743263 1.23335 0
M  V30 5228 H 502.075 -0.259607 4.206 0
M  V30 5229 H 500.799 -0.898323 3.14003 0
M  V30 5230 H 499.458 1.20996 3.46057 0
M  V30 5231 H 499.106 -0.749907 4.97379 0
M  V30 5232 H 498.806 0.787098 5.82304 0
M  V30 5233 H 500.33 -0.101628 6.10515 0
M  V30 5234 H 501.744 2.04294 5.35665 0
M  V30 5235 H 500.141 2.8314 5.29105 0
M  V30 5236 H 501.211 2.90883 3.87962 0
M  V30 5237 N 502.554 -1.34406 0.822964 0
M  V30 5238 C 503.484 -2.32052 0.259608 0
M  V30 5239 C 504.465 -1.58243 -0.623961 0
M  V30 5240 O 505.65 -1.86224 -0.55083 0
M  V30 5241 C 502.78 -3.42434 -0.579314 0
M  V30 5242 C 501.734 -4.27499 0.20712 0
M  V30 5243 C 501.06 -5.29349 -0.754547 0
M  V30 5244 C 502.36 -5.02758 1.41533 0
M  V30 5245 H 504.054 -2.79418 1.07545 0
M  V30 5246 H 501.6 -1.34338 0.518593 0
M  V30 5247 H 503.553 -4.0976 -0.983612 0
M  V30 5248 H 502.277 -2.93717 -1.4282 0
M  V30 5249 H 500.936 -3.61776 0.592787 0
M  V30 5250 H 500.584 -4.76895 -1.59939 0
M  V30 5251 H 500.284 -5.8714 -0.232561 0
M  V30 5252 H 501.808 -5.99544 -1.1567 0
M  V30 5253 H 503.222 -5.62938 1.08504 0
M  V30 5254 H 501.619 -5.70123 1.87296 0
M  V30 5255 H 502.689 -4.32451 2.1935 0
M  V30 5256 N 504.032 -0.577932 -1.46621 0
M  V30 5257 C 504.942 0.160651 -2.34049 0
M  V30 5258 C 505.958 0.890911 -1.49462 0
M  V30 5259 O 507.134 0.855166 -1.82343 0
M  V30 5260 C 504.199 1.16447 -3.26559 0
M  V30 5261 C 503.26 0.4394 -4.27045 0
M  V30 5262 C 502.493 1.3954 -5.15135 0
M  V30 5263 O 502.716 2.63162 -5.06065 0
M  V30 5264 O 501.65 0.908585 -5.95003 0
M  V30 5265 H 505.476 -0.557057 -2.98547 0
M  V30 5266 H 503.061 -0.338369 -1.45518 0
M  V30 5267 H 504.943 1.7434 -3.83645 0
M  V30 5268 H 503.618 1.86373 -2.64663 0
M  V30 5269 H 502.525 -0.181247 -3.73661 0
M  V30 5270 H 503.858 -0.218799 -4.91713 0
M  V30 5271 N 505.51 1.54411 -0.315457 0
M  V30 5272 C 506.759 1.99599 0.290395 0
M  V30 5273 C 507.072 1.20746 1.53882 0
M  V30 5274 O 508.278 1.56272 2.22017 0
M  V30 5275 C 506.734 3.5539 0.56797 0
M  V30 5276 C 506.342 4.43068 -0.662945 0
M  V30 5277 C 508.086 4.09067 1.13422 0
M  V30 5278 C 505.993 5.90317 -0.357722 0
M  V30 5279 H 504.923 0.745592 0.112286 0
M  V30 5280 H 507.574 1.78477 -0.426418 0
M  V30 5281 H 505.956 3.72468 1.34476 0
M  V30 5282 H 507.13 4.37765 -1.43869 0
M  V30 5283 H 505.445 4.00238 -1.14884 0
M  V30 5284 H 508.042 5.16663 1.37707 0
M  V30 5285 H 508.385 3.60552 2.08106 0
M  V30 5286 H 508.918 3.95589 0.418805 0
M  V30 5287 H 505.657 6.4301 -1.27351 0
M  V30 5288 H 505.177 5.98592 0.380472 0
M  V30 5289 H 506.856 6.4699 0.0354284 0
M  V30 5290 N 506.988 0.0434614 1.5754 0
M  V30 5291 C 508.236 -0.630786 1.92004 0
M  V30 5292 C 508.557 -1.71836 0.921807 0
M  V30 5293 O 507.827 -1.9587 -0.034522 0
M  V30 5294 H 506.407 -0.235988 0.708745 0
M  V30 5295 H 509.069 0.0946462 1.9467 0
M  V30 5296 H 508.165 -1.07434 2.93026 0
M  V30 5297 N 508.466 -1.55915 -0.229846 0
M  V30 5298 C 509.714 -1.7819 -0.953565 0
M  V30 5299 C 510.035 -0.610504 -1.85197 0
M  V30 5300 O 509.305 0.372988 -1.92316 0
M  V30 5301 H 507.885 -0.657208 -0.355087 0
M  V30 5302 H 510.547 -1.9337 -0.243693 0
M  V30 5303 H 509.643 -2.70011 -1.56527 0
M  V30 5304 N 509.944 0.496216 -1.49584 0
M  V30 5305 C 510.874 1.60576 -1.69521 0
M  V30 5306 C 511.855 1.61169 -0.543933 0
M  V30 5307 O 513.04 1.77834 -0.78031 0
M  V30 5308 C 510.17 2.99038 -1.76616 0
M  V30 5309 C 509.124 3.13312 -2.91581 0
M  V30 5310 C 508.45 4.53172 -2.83794 0
M  V30 5311 C 509.75 2.92886 -4.32452 0
M  V30 5312 H 511.444 1.44146 -2.62416 0
M  V30 5313 H 508.99 0.692024 -1.26282 0
M  V30 5314 H 510.943 3.76564 -1.8915 0
M  V30 5315 H 509.667 3.16568 -0.80324 0
M  V30 5316 H 508.326 2.38213 -2.78658 0
M  V30 5317 H 507.974 4.67585 -1.854 0
M  V30 5318 H 507.674 4.63662 -3.60958 0
M  V30 5319 H 509.198 5.32752 -2.98342 0
M  V30 5320 H 510.612 3.60178 -4.46032 0
M  V30 5321 H 509.009 3.14844 -5.10875 0
M  V30 5322 H 510.079 1.88966 -4.46565 0
M  V30 5323 N 511.423 1.38739 0.74761 0
M  V30 5324 C 512.333 1.38696 1.89211 0
M  V30 5325 C 513.349 0.283303 1.71678 0
M  V30 5326 O 514.525 0.522713 1.94498 0
M  V30 5327 C 511.59 1.21662 3.24653 0
M  V30 5328 C 510.651 2.41886 3.54669 0
M  V30 5329 C 509.884 2.25655 4.83648 0
M  V30 5330 O 510.107 1.25339 5.56459 0
M  V30 5331 O 509.041 3.14372 5.13277 0
M  V30 5332 H 512.867 2.35143 1.92202 0
M  V30 5333 H 510.452 1.19721 0.893708 0
M  V30 5334 H 512.334 1.14246 4.05618 0
M  V30 5335 H 511.009 0.283024 3.2246 0
M  V30 5336 H 509.916 2.54877 2.73841 0
M  V30 5337 H 511.249 3.33895 3.61628 0
M  V30 5338 N 512.901 -0.976442 1.23707 0
M  V30 5339 C 514.148 -1.71827 1.07153 0
M  V30 5340 C 514.476 -1.9053 -0.390982 0
M  V30 5341 O 513.731 -1.45779 -1.30564 0
M  V30 5342 C 514.03 -3.11814 1.74662 0
M  V30 5343 C 513.696 -3.12978 3.24585 0
M  V30 5344 C 512.358 -3.13003 3.6549 0
M  V30 5345 C 514.71 -3.07986 4.20469 0
M  V30 5346 C 512.038 -3.05757 5.00729 0
M  V30 5347 C 514.39 -3.02282 5.55705 0
M  V30 5348 C 513.054 -3.00631 5.95968 0
M  V30 5349 H 512.324 -0.628758 0.392102 0
M  V30 5350 H 514.971 -1.14239 1.53693 0
M  V30 5351 H 513.276 -3.72812 1.20492 0
M  V30 5352 H 514.973 -3.67989 1.59328 0
M  V30 5353 H 511.563 -3.13718 2.92026 0
M  V30 5354 H 515.747 -3.07103 3.89874 0
M  V30 5355 H 511.003 -3.02834 5.31132 0
M  V30 5356 H 515.177 -2.97376 6.29714 0
M  V30 5357 H 512.804 -2.94771 7.00724 0
M  V30 5358 N 514.379 -1.04941 -1.1758 0
M  V30 5359 C 515.79 -0.784501 -1.69418 0
M  V30 5360 C 516.141 0.693625 -1.8353 0
M  V30 5361 O 515.266 1.53925 -1.52106 0
M  V30 5362 C 515.861 -1.41746 -3.07723 0
M  V30 5363 C 514.42 -1.20066 -3.56737 0
M  V30 5364 C 513.567 -1.5026 -2.33061 0
M  V30 5365 H 516.518 -1.21469 -1.02133 0
M  V30 5366 H 516.539 -0.825381 -3.7144 0
M  V30 5367 H 516.051 -2.49325 -2.9742 0
M  V30 5368 H 514.152 -0.144006 -3.72322 0
M  V30 5369 H 514.265 -1.90384 -4.39648 0
M  V30 5370 H 512.629 -0.922598 -2.37403 0
M  V30 5371 H 513.412 -2.58967 -2.25368 0
M  V30 5372 N 515.857 1.33968 -0.830081 0
M  V30 5373 C 516.82 2.27694 -0.26235 0
M  V30 5374 C 517.82 1.50589 0.563876 0
M  V30 5375 O 519.01 1.70028 0.378941 0
M  V30 5376 C 516.142 3.35002 0.63138 0
M  V30 5377 H 517.335 2.79419 -1.08928 0
M  V30 5378 H 514.888 1.44221 -0.602486 0
M  V30 5379 H 515.623 2.88504 1.48109 0
M  V30 5380 H 515.408 3.92079 0.0403276 0
M  V30 5381 H 516.898 4.04897 1.02217 0
M  V30 5382 N 517.335 0.585699 1.46312 0
M  V30 5383 C 518.298 -0.135673 2.28798 0
M  V30 5384 C 519.298 -0.815988 1.38558 0
M  V30 5385 O 520.488 -0.667487 1.60904 0
M  V30 5386 C 517.62 -1.20163 3.1902 0
M  V30 5387 H 518.813 0.589257 2.94054 0
M  V30 5388 H 516.366 0.343794 1.52472 0
M  V30 5389 H 517.101 -1.95804 2.58517 0
M  V30 5390 H 516.886 -0.718282 3.85465 0
M  V30 5391 H 518.376 -1.70749 3.81096 0
M  V30 5392 N 518.813 -1.54241 0.323641 0
M  V30 5393 C 520.224 -1.85975 -0.164405 0
M  V30 5394 C 520.575 -1.24529 -1.51615 0
M  V30 5395 O 519.7 -0.551351 -2.09258 0
M  V30 5396 C 520.295 -3.37424 -0.305091 0
M  V30 5397 C 518.854 -3.69107 -0.737358 0
M  V30 5398 C 518.001 -2.76942 0.140884 0
M  V30 5399 H 520.952 -1.49088 0.543922 0
M  V30 5400 H 520.973 -3.63147 -1.13598 0
M  V30 5401 H 520.485 -3.82116 0.678876 0
M  V30 5402 H 518.586 -3.29947 -1.73107 0
M  V30 5403 H 518.699 -4.76035 -0.541053 0
M  V30 5404 H 517.063 -2.51795 -0.383572 0
M  V30 5405 H 517.846 -3.24461 1.12162 0
M  V30 5406 N 520.291 -0.0518155 -1.57515 0
M  V30 5407 C 521.538 0.621823 -1.92716 0
M  V30 5408 C 521.866 1.70813 -0.930229 0
M  V30 5409 O 521.121 1.95616 0.0573708 0
M  V30 5410 C 521.42 1.25607 -3.34601 0
M  V30 5411 C 521.086 0.297901 -4.49915 0
M  V30 5412 C 519.748 0.034243 -4.81188 0
M  V30 5413 C 522.1 -0.358738 -5.19964 0
M  V30 5414 C 519.428 -0.893479 -5.79857 0
M  V30 5415 C 521.78 -1.27466 -6.19625 0
M  V30 5416 C 520.444 -1.54698 -6.49326 0
M  V30 5417 H 519.714 0.227541 -0.705199 0
M  V30 5418 H 522.361 -0.118432 -1.91133 0
M  V30 5419 H 520.666 2.07161 -3.32553 0
M  V30 5420 H 522.363 1.78424 -3.59118 0
M  V30 5421 H 518.953 0.513581 -4.25512 0
M  V30 5422 H 523.137 -0.168133 -4.96015 0
M  V30 5423 H 518.393 -1.11193 -6.01204 0
M  V30 5424 H 522.567 -1.78953 -6.73015 0
M  V30 5425 H 520.194 -2.26748 -7.25596 0
M  V30 5426 N 521.769 1.56035 0.221574 0
M  V30 5427 C 522.994 1.83476 0.967026 0
M  V30 5428 C 523.419 0.632139 1.7716 0
M  V30 5429 O 522.777 -0.419082 1.7639 0
M  V30 5430 C 522.825 3.08907 1.86034 0
M  V30 5431 O 521.929 2.876 2.95567 0
M  V30 5432 H 521.27 0.604913 0.273817 0
M  V30 5433 H 523.8 2.03247 0.234893 0
M  V30 5434 H 523.81 3.3901 2.27016 0
M  V30 5435 H 522.485 3.96068 1.26898 0
M  V30 5436 H 521.062 2.6873 2.58532 0
M  V30 5437 N 523.247 -0.488276 1.49845 0
M  V30 5438 C 524.495 -1.23911 1.59657 0
M  V30 5439 C 524.816 -1.92816 0.291005 0
M  V30 5440 O 524.086 -1.83328 -0.690485 0
M  V30 5441 H 522.666 -0.460357 0.588286 0
M  V30 5442 H 525.328 -0.564794 1.86537 0
M  V30 5443 H 524.424 -1.99625 2.39909 0
M  V30 5444 N 524.725 -1.39134 -0.740242 0
M  V30 5445 C 525.971 -1.37278 -1.50088 0
M  V30 5446 C 526.326 0.0329967 -1.92372 0
M  V30 5447 O 525.619 0.998447 -1.63529 0
M  V30 5448 C 525.813 -2.27457 -2.75678 0
M  V30 5449 C 525.642 -3.76662 -2.45674 0
M  V30 5450 C 524.412 -4.45617 -2.38229 0
M  V30 5451 C 526.61 -4.6877 -2.11563 0
M  V30 5452 N 524.592 -5.80187 -2.00641 0
M  V30 5453 C 525.963 -5.91951 -1.84376 0
M  V30 5454 C 528.018 -4.56843 -1.97987 0
M  V30 5455 C 526.721 -7.04538 -1.4498 0
M  V30 5456 C 528.747 -5.69347 -1.59994 0
M  V30 5457 C 528.109 -6.91597 -1.33687 0
M  V30 5458 H 524.208 -0.557611 -0.548265 0
M  V30 5459 H 526.792 -1.74638 -0.860784 0
M  V30 5460 H 524.963 -1.92263 -3.37475 0
M  V30 5461 H 526.695 -2.16631 -3.41838 0
M  V30 5462 H 523.45 -3.98993 -2.5515 0
M  V30 5463 H 523.874 -6.51387 -1.84454 0
M  V30 5464 H 528.516 -3.62868 -2.16995 0
M  V30 5465 H 526.234 -7.98419 -1.24712 0
M  V30 5466 H 529.82 -5.62104 -1.50102 0
M  V30 5467 H 528.7 -7.77176 -1.04728 0
M  V30 5468 N 526.204 0.969867 -1.24223 0
M  V30 5469 C 527.434 1.74502 -1.106 0
M  V30 5470 C 527.842 1.86038 0.344483 0
M  V30 5471 O 527.185 1.3465 1.24961 0
M  V30 5472 C 527.247 3.18391 -1.66935 0
M  V30 5473 C 526.911 3.30334 -3.15798 0
M  V30 5474 C 527.908 3.15832 -4.12973 0
M  V30 5475 C 525.593 3.54644 -3.55715 0
M  V30 5476 C 527.587 3.25461 -5.48045 0
M  V30 5477 C 525.274 3.63912 -4.90929 0
M  V30 5478 C 526.272 3.49332 -5.86904 0
M  V30 5479 O 525.96 3.58251 -7.1966 0
M  V30 5480 H 525.692 0.554119 -0.387206 0
M  V30 5481 H 528.246 1.22646 -1.64764 0
M  V30 5482 H 526.476 3.71543 -1.07203 0
M  V30 5483 H 528.165 3.77707 -1.48634 0
M  V30 5484 H 528.931 2.96937 -3.83476 0
M  V30 5485 H 524.81 3.65059 -2.81519 0
M  V30 5486 H 528.354 3.13998 -6.22937 0
M  V30 5487 H 524.251 3.82319 -5.20098 0
M  V30 5488 H 525.019 3.7498 -7.27552 0
M  V30 5489 N 527.682 1.05563 1.17022 0
M  V30 5490 C 528.615 0.604197 2.20056 0
M  V30 5491 C 529.593 -0.369169 1.58354 0
M  V30 5492 O 530.777 -0.279898 1.8641 0
M  V30 5493 C 527.904 -0.115265 3.38504 0
M  V30 5494 C 526.95 0.813698 4.18666 0
M  V30 5495 S 527.783 2.30492 4.83357 0
M  V30 5496 C 528.939 1.59674 6.0519 0
M  V30 5497 H 529.172 1.47713 2.58008 0
M  V30 5498 H 526.705 0.867932 1.27696 0
M  V30 5499 H 528.663 -0.524162 4.0714 0
M  V30 5500 H 527.324 -0.964284 2.98932 0
M  V30 5501 H 526.517 0.256736 5.03346 0
M  V30 5502 H 526.119 1.16213 3.55486 0
M  V30 5503 H 528.411 0.898164 6.7152 0
M  V30 5504 H 529.354 2.42115 6.65422 0
M  V30 5505 H 529.762 1.08252 5.54023 0
M  V30 5506 N 529.16 -1.33526 0.837174 0
M  V30 5507 C 530.385 -2.0258 0.444545 0
M  V30 5508 C 530.81 -1.6258 -0.946006 0
M  V30 5509 O 530.168 -0.817548 -1.6182 0
M  V30 5510 C 530.216 -3.5605 0.571006 0
M  V30 5511 O 529.32 -4.10422 -0.403431 0
M  V30 5512 H 528.661 -0.638866 0.180958 0
M  V30 5513 H 531.191 -1.70462 1.13154 0
M  V30 5514 H 531.201 -4.05488 0.452024 0
M  V30 5515 H 529.876 -3.84509 1.58512 0
M  V30 5516 H 528.453 -3.72113 -0.242147 0
M  V30 5517 N 530.638 -0.59345 -1.46 0
M  V30 5518 C 531.866 -0.0890934 -2.06708 0
M  V30 5519 C 532.281 1.2205 -1.44046 0
M  V30 5520 O 531.638 1.74029 -0.549551 0
M  V30 5521 C 531.689 0.0720263 -3.61428 0
M  V30 5522 O 531.41 -1.18574 -4.21748 0
M  V30 5523 C 532.911 0.609487 -4.3909 0
M  V30 5524 H 530.131 -0.0623628 -0.668096 0
M  V30 5525 H 532.675 -0.817171 -1.87464 0
M  V30 5526 H 530.83 0.750369 -3.80063 0
M  V30 5527 H 531.244 -1.0064 -5.14754 0
M  V30 5528 H 532.718 0.671363 -5.47902 0
M  V30 5529 H 533.195 1.62878 -4.07882 0
M  V30 5530 H 533.801 -0.03434 -4.25286 0
M  V30 5531 N 532.116 1.54067 -0.331816 0
M  V30 5532 C 533.026 2.28322 0.539104 0
M  V30 5533 C 534.042 1.32985 1.1221 0
M  V30 5534 O 535.218 1.6601 1.1403 0
M  V30 5535 C 532.283 3.03277 1.68 0
M  V30 5536 C 531.344 4.14216 1.12798 0
M  V30 5537 C 530.577 4.85588 2.2145 0
M  V30 5538 O 530.8 4.56536 3.41952 0
M  V30 5539 O 529.734 5.72309 1.86404 0
M  V30 5540 H 533.56 3.03632 -0.0641692 0
M  V30 5541 H 531.145 1.49083 -0.0972365 0
M  V30 5542 H 533.027 3.50189 2.34405 0
M  V30 5543 H 531.702 2.30834 2.2693 0
M  V30 5544 H 530.609 3.71635 0.428782 0
M  V30 5545 H 531.942 4.88727 0.583698 0
M  V30 5546 N 533.594 0.0601682 1.57485 0
M  V30 5547 C 534.843 -0.611101 1.9222 0
M  V30 5548 C 535.156 -1.71469 0.941159 0
M  V30 5549 O 536.362 -2.44473 1.18089 0
M  V30 5550 C 534.818 -1.13832 3.41424 0
M  V30 5551 C 534.426 -0.0663596 4.47951 0
M  V30 5552 C 536.17 -1.78432 3.85178 0
M  V30 5553 C 534.077 -0.606965 5.88277 0
M  V30 5554 H 533.007 -0.232033 0.71741 0
M  V30 5555 H 535.658 0.130518 1.83035 0
M  V30 5556 H 534.04 -1.93254 3.45643 0
M  V30 5557 H 535.214 0.707682 4.55333 0
M  V30 5558 H 533.529 0.482715 4.13593 0
M  V30 5559 H 536.126 -2.1989 4.87394 0
M  V30 5560 H 536.469 -2.63966 3.21913 0
M  V30 5561 H 537.002 -1.05651 3.83514 0
M  V30 5562 H 533.741 0.21095 6.5516 0
M  V30 5563 H 533.261 -1.34879 5.84438 0
M  V30 5564 H 534.94 -1.08704 6.37803 0
M  V30 5565 N 535.072 -1.5615 -0.213296 0
M  V30 5566 C 536.32 -1.79191 -0.934612 0
M  V30 5567 C 536.641 -0.630112 -1.84539 0
M  V30 5568 O 535.911 0.35257 -1.92701 0
M  V30 5569 H 534.491 -0.660937 -0.348097 0
M  V30 5570 H 537.153 -1.93618 -0.22317 0
M  V30 5571 H 536.249 -2.71656 -1.53654 0
M  V30 5572 N 536.55 0.480323 -1.50102 0
M  V30 5573 C 537.778 1.25657 -1.64371 0
M  V30 5574 C 538.193 1.86011 -0.323316 0
M  V30 5575 O 537.55 1.68803 0.693682 0
M  V30 5576 C 537.601 2.37197 -2.728 0
M  V30 5577 O 537.322 1.7932 -3.9972 0
M  V30 5578 C 538.823 3.2823 -2.9796 0
M  V30 5579 H 536.043 0.380369 -0.552775 0
M  V30 5580 H 538.587 0.574379 -1.96268 0
M  V30 5581 H 536.742 3.01208 -2.43623 0
M  V30 5582 H 537.156 2.52701 -4.59611 0
M  V30 5583 H 538.63 4.02725 -3.77513 0
M  V30 5584 H 539.107 3.86462 -2.08671 0
M  V30 5585 H 539.713 2.69964 -3.28633 0
M  V30 5586 N 538.028 1.39524 0.732853 0
M  V30 5587 C 539.444 1.21176 1.03868 0
M  V30 5588 C 539.644 0.0748448 2.01361 0
M  V30 5589 O 538.7 -0.57281 2.45917 0
M  V30 5590 C 540.013 2.54667 1.59892 0
M  V30 5591 C 541.561 2.6153 1.71962 0
M  V30 5592 C 542.036 3.95248 2.31394 0
M  V30 5593 N 543.527 3.96899 2.38801 0
M  V30 5594 C 544.262 4.97138 2.85729 0
M  V30 5595 N 543.758 6.07775 3.32537 0
M  V30 5596 N 545.551 4.84516 2.84957 0
M  V30 5597 H 537.702 2.12225 0.086304 0
M  V30 5598 H 539.965 0.942614 0.100907 0
M  V30 5599 H 539.671 3.38423 0.95721 0
M  V30 5600 H 539.545 2.74538 2.58668 0
M  V30 5601 H 541.932 1.78156 2.35254 0
M  V30 5602 H 542.013 2.45507 0.718327 0
M  V30 5603 H 541.657 4.79054 1.68729 0
M  V30 5604 H 541.587 4.08593 3.32204 0
M  V30 5605 H 544.078 3.16998 2.05719 0
M  V30 5606 H 544.391 6.8017 3.66862 0
M  V30 5607 H 542.736 6.11366 3.30541 0
M  V30 5608 H 545.927 3.97185 2.47713 0
M  V30 5609 H 546.1 5.62783 3.21215 0
M  V30 5610 N 539.506 -0.963266 1.24736 0
M  V30 5611 C 540.454 -2.07985 1.04139 0
M  V30 5612 C 541.448 -1.69381 -0.0250556 0
M  V30 5613 O 542.654 -1.79531 0.129863 0
M  V30 5614 H 539.029 -0.680627 0.319768 0
M  V30 5615 H 541 -2.22517 1.98818 0
M  V30 5616 C 539.749 -3.4123 0.667615 0
M  V30 5617 H 539.072 -3.71397 1.48 0
M  V30 5618 H 540.512 -4.20244 0.563136 0
M  V30 5619 C 538.971 -3.3104 -0.625647 0
M  V30 5620 O 539.501 -3.65334 -1.67016 0
M  V30 5621 N 537.707 -2.84168 -0.608033 0
M  V30 5622 H 537.254 -2.56458 0.242323 0
M  V30 5623 H 537.212 -2.77732 -1.47352 0
M  V30 5624 N 540.985 -1.06182 -1.16461 0
M  V30 5625 C 541.915 -0.692861 -2.22984 0
M  V30 5626 C 542.896 0.314122 -1.67174 0
M  V30 5627 O 544.081 0.189499 -1.93273 0
M  V30 5628 C 541.211 -0.07732 -3.47214 0
M  V30 5629 C 540.165 -1.01015 -4.15909 0
M  V30 5630 C 539.491 -0.257973 -5.34077 0
M  V30 5631 C 540.791 -2.33868 -4.67015 0
M  V30 5632 H 542.485 -1.58343 -2.54102 0
M  V30 5633 H 540.031 -0.76279 -1.22137 0
M  V30 5634 H 541.984 0.19266 -4.20959 0
M  V30 5635 H 540.708 0.848254 -3.15392 0
M  V30 5636 H 539.367 -1.26486 -3.44088 0
M  V30 5637 H 539.015 0.670684 -4.98509 0
M  V30 5638 H 538.715 -0.879638 -5.80979 0
M  V30 5639 H 540.239 0.00448788 -6.106 0
M  V30 5640 H 541.653 -2.1279 -5.32347 0
M  V30 5641 H 540.05 -2.91522 -5.24533 0
M  V30 5642 H 541.12 -2.97019 -3.83286 0
M  V30 5643 N 542.463 1.3308 -0.844243 0
M  V30 5644 C 543.703 1.99414 -0.448697 0
M  V30 5645 C 544.067 1.65398 0.975058 0
M  V30 5646 O 545.268 2.24741 1.47461 0
M  V30 5647 C 543.539 3.51081 -0.669089 0
M  V30 5648 S 545.098 4.37241 -0.369564 0
M  V30 5649 H 541.916 0.690736 -0.168538 0
M  V30 5650 H 544.518 1.61977 -1.0947 0
M  V30 5651 H 543.222 3.73326 -1.70457 0
M  V30 5652 H 542.753 3.93399 -0.00913211 0
M  V30 5653 H 544.768 4.89568 0.808552 0
M  V30 5654 N 543.941 0.601185 1.45683 0
M  V30 5655 C 545.218 0.0261659 1.95582 0
M  V30 5656 C 545.598 -1.4399 1.5437 0
M  V30 5657 O 544.946 -2.13919 0.80318 0
M  V30 5658 C 545.156 0.217557 3.48321 0
M  V30 5659 C 546.504 0.0950076 4.24494 0
M  V30 5660 O 547.528 0.147345 3.55895 0
M  V30 5661 O 546.387 -0.025261 5.46494 0
M  V30 5662 H 543.481 -0.0393688 0.826062 0
M  V30 5663 H 546.027 0.670798 1.55879 0
M  V30 5664 H 544.799 1.23601 3.71266 0
M  V30 5665 H 544.422 -0.46264 3.94899 0
M  V30 5666 N 545.419 -1.53889 0.339982 0
M  V30 5667 C 546.83 -1.86139 -0.144671 0
M  V30 5668 C 547.181 -1.2613 -1.50285 0
M  V30 5669 O 546.306 -0.573515 -2.08662 0
M  V30 5670 C 546.901 -3.37728 -0.269285 0
M  V30 5671 C 545.46 -3.69868 -0.698168 0
M  V30 5672 C 544.607 -2.76777 0.170249 0
M  V30 5673 H 547.558 -1.48503 0.559704 0
M  V30 5674 H 547.579 -3.64331 -1.0974 0
M  V30 5675 H 547.091 -3.81375 0.719366 0
M  V30 5676 H 545.192 -3.31764 -1.69597 0
M  V30 5677 H 545.305 -4.76582 -0.490533 0
M  V30 5678 H 543.669 -2.52188 -0.356844 0
M  V30 5679 H 544.452 -3.23253 1.15597 0
M  V30 5680 N 546.897 -0.0685191 -1.57451 0
M  V30 5681 C 547.847 0.909895 -2.09057 0
M  V30 5682 C 548.831 1.26088 -0.999528 0
M  V30 5683 O 550.023 1.24041 -1.26265 0
M  V30 5684 C 547.152 2.17863 -2.65312 0
M  V30 5685 C 546.238 1.85427 -3.81415 0
M  V30 5686 N 546.629 1.23426 -4.9051 0
M  V30 5687 C 544.927 2.15196 -3.90649 0
M  V30 5688 C 545.628 1.09008 -5.71395 0
M  V30 5689 N 544.604 1.59871 -5.1956 0
M  V30 5690 H 548.406 0.426145 -2.90794 0
M  V30 5691 H 545.92 0.135462 -1.61834 0
M  V30 5692 H 547.917 2.88872 -3.00597 0
M  V30 5693 H 546.577 2.66829 -1.85021 0
M  V30 5694 H 547.588 0.904305 -5.09944 0
M  V30 5695 H 544.265 2.66562 -3.21327 0
M  V30 5696 H 545.655 0.607305 -6.6915 0
M  V30 5697 N 548.375 1.56261 0.205012 0
M  V30 5698 C 549.791 1.49623 0.555433 0
M  V30 5699 C 549.991 0.766719 1.86343 0
M  V30 5700 O 549.047 0.313158 2.50551 0
M  V30 5701 C 550.36 2.94253 0.619347 0
M  V30 5702 C 551.908 3.04868 0.708855 0
M  V30 5703 C 552.383 4.50888 0.803969 0
M  V30 5704 N 553.874 4.54999 0.867758 0
M  V30 5705 C 554.609 5.65284 0.96135 0
M  V30 5706 N 554.105 6.85282 1.01786 0
M  V30 5707 N 555.898 5.53174 0.997771 0
M  V30 5708 H 548.049 2.0211 -0.653094 0
M  V30 5709 H 550.312 0.919333 -0.231366 0
M  V30 5710 H 550.018 3.50643 -0.272458 0
M  V30 5711 H 549.892 3.47063 1.47741 0
M  V30 5712 H 552.279 2.48532 1.5911 0
M  V30 5713 H 552.36 2.55199 -0.175205 0
M  V30 5714 H 552.004 5.07846 -0.0738798 0
M  V30 5715 H 551.934 4.98279 1.70369 0
M  V30 5716 H 554.425 3.68588 0.833735 0
M  V30 5717 H 554.738 7.65081 1.08951 0
M  V30 5718 H 553.083 6.8796 0.986706 0
M  V30 5719 H 556.274 4.5835 0.950392 0
M  V30 5720 H 556.447 6.39151 1.06725 0
M  V30 5721 N 549.853 -0.472356 1.50355 0
M  V30 5722 C 551.083 -1.24603 1.64796 0
M  V30 5723 C 551.491 -1.86297 0.330156 0
M  V30 5724 O 550.834 -1.69934 -0.697728 0
M  V30 5725 C 550.896 -2.39578 2.68035 0
M  V30 5726 C 550.56 -1.98531 4.11624 0
M  V30 5727 C 551.557 -1.50856 4.97532 0
M  V30 5728 C 549.242 -2.0729 4.57532 0
M  V30 5729 C 551.236 -1.12481 6.27397 0
M  V30 5730 C 548.923 -1.68527 5.87403 0
M  V30 5731 C 549.921 -1.212 6.7216 0
M  V30 5732 O 549.609 -0.829728 7.99607 0
M  V30 5733 H 549.341 -0.383035 0.55701 0
M  V30 5734 H 551.895 -0.570392 1.97321 0
M  V30 5735 H 550.125 -3.10309 2.30749 0
M  V30 5736 H 551.814 -3.01544 2.71709 0
M  V30 5737 H 552.58 -1.43511 4.63281 0
M  V30 5738 H 548.459 -2.43076 3.91708 0
M  V30 5739 H 552.003 -0.754698 6.93506 0
M  V30 5740 H 547.9 -1.7553 6.21176 0
M  V30 5741 H 548.668 -0.958689 8.12866 0
M  V30 5742 N 551.331 -1.39911 -0.725443 0
M  V30 5743 C 552.279 -1.39552 -1.86086 0
M  V30 5744 C 553.273 -0.277334 -1.67114 0
M  V30 5745 O 554.479 -0.447865 -1.74339 0
M  V30 5746 H 550.854 -0.435993 -0.612711 0
M  V30 5747 H 552.825 -2.35305 -1.83505 0
M  V30 5748 C 551.574 -1.26529 -3.2386 0
M  V30 5749 H 550.897 -2.11845 -3.3906 0
M  V30 5750 H 552.337 -1.30336 -4.03471 0
M  V30 5751 C 550.796 0.0254168 -3.3689 0
M  V30 5752 O 551.326 0.992048 -3.89257 0
M  V30 5753 N 549.532 0.0916528 -2.90455 0
M  V30 5754 H 549.079 -0.695675 -2.48028 0
M  V30 5755 H 549.037 0.954745 -2.99553 0
M  V30 5756 N 552.809 0.956637 -1.25245 0
M  V30 5757 C 554.058 1.69537 -1.0927 0
M  V30 5758 C 554.371 1.92136 0.366503 0
M  V30 5759 O 555.577 2.63687 0.64665 0
M  V30 5760 C 554.033 3.05211 -1.9072 0
M  V30 5761 C 553.641 2.90416 -3.41119 0
M  V30 5762 C 555.385 3.82882 -1.83308 0
M  V30 5763 C 553.292 4.21468 -4.14872 0
M  V30 5764 H 552.222 0.635804 -0.405302 0
M  V30 5765 H 554.873 1.06513 -1.49423 0
M  V30 5766 H 553.255 3.69128 -1.43389 0
M  V30 5767 H 554.429 2.35444 -3.9611 0
M  V30 5768 H 552.744 2.26203 -3.49602 0
M  V30 5769 H 555.341 4.79944 -2.35706 0
M  V30 5770 H 555.684 4.0853 -0.800572 0
M  V30 5771 H 556.217 3.25711 -2.28379 0
M  V30 5772 H 552.956 4.01009 -5.18529 0
M  V30 5773 H 552.476 4.76213 -3.64665 0
M  V30 5774 H 554.155 4.90022 -4.22478 0
M  V30 5775 N 554.287 1.06798 1.15896 0
M  V30 5776 C 555.217 0.704677 2.22613 0
M  V30 5777 C 556.198 -0.305252 1.67339 0
M  V30 5778 O 557.383 -0.179247 1.93371 0
M  V30 5779 C 554.513 0.0957325 3.47168 0
M  V30 5780 C 553.467 1.0322 4.15367 0
M  V30 5781 C 552.793 0.286293 5.33933 0
M  V30 5782 C 554.093 2.36341 4.65768 0
M  V30 5783 H 555.787 1.59688 2.53259 0
M  V30 5784 H 553.333 0.769257 1.21731 0
M  V30 5785 H 555.286 -0.170333 4.21056 0
M  V30 5786 H 554.01 -0.831516 3.15838 0
M  V30 5787 H 552.669 1.28309 3.43413 0
M  V30 5788 H 552.317 -0.644237 4.98857 0
M  V30 5789 H 552.017 0.910436 5.80504 0
M  V30 5790 H 553.541 0.0278938 6.10594 0
M  V30 5791 H 554.955 2.1561 5.31211 0
M  V30 5792 H 553.352 2.94299 5.2298 0
M  V30 5793 H 554.422 2.99047 3.81705 0
M  V30 5794 N 555.766 -1.3263 0.851289 0
M  V30 5795 C 556.676 -2.32722 0.296268 0
M  V30 5796 C 557.692 -1.63901 -0.584162 0
M  V30 5797 O 558.868 -1.95465 -0.485334 0
M  V30 5798 C 555.933 -3.42942 -0.509103 0
M  V30 5799 C 554.994 -4.2746 0.397069 0
M  V30 5800 C 554.227 -5.32416 -0.36996 0
M  V30 5801 O 554.45 -5.47491 -1.6003 0
M  V30 5802 O 553.384 -6.01327 0.262493 0
M  V30 5803 H 557.21 -2.82078 1.12543 0
M  V30 5804 H 554.795 -1.36194 0.614135 0
M  V30 5805 H 556.677 -4.1017 -0.96634 0
M  V30 5806 H 555.352 -2.95781 -1.31512 0
M  V30 5807 H 554.259 -3.63053 0.902411 0
M  V30 5808 H 555.592 -4.78136 1.16818 0
M  V30 5809 N 557.244 -0.608902 -1.45362 0
M  V30 5810 C 558.521 -0.0365378 -1.95566 0
M  V30 5811 C 558.901 1.43169 -1.55131 0
M  V30 5812 O 558.249 2.1349 -0.814513 0
M  V30 5813 C 558.459 -0.236026 -3.48201 0
M  V30 5814 C 559.807 -0.117518 -4.24437 0
M  V30 5815 O 560.831 -0.166217 -3.55812 0
M  V30 5816 O 559.69 -0.00372127 -5.465 0
M  V30 5817 H 556.784 0.0349874 -0.82626 0
M  V30 5818 H 559.33 -0.679055 -1.55521 0
M  V30 5819 H 558.102 -1.25569 -3.70605 0
M  V30 5820 H 557.725 0.441691 -3.95139 0
M  V30 5821 N 558.722 1.53707 -0.348139 0
M  V30 5822 C 559.968 2.01286 0.247332 0
M  V30 5823 C 560.301 1.23546 1.49834 0
M  V30 5824 O 559.576 0.324331 1.91777 0
M  V30 5825 C 559.859 3.55768 0.556858 0
M  V30 5826 C 559.712 4.44216 -0.706564 0
M  V30 5827 C 561.031 4.1841 1.3646 0
M  V30 5828 H 558.15 0.731677 0.0884201 0
M  V30 5829 H 560.792 1.84106 -0.469584 0
M  V30 5830 H 558.942 3.70539 1.16761 0
M  V30 5831 H 560.614 4.41274 -1.34444 0
M  V30 5832 H 558.857 4.12892 -1.33052 0
M  V30 5833 H 559.528 5.50202 -0.445186 0
M  V30 5834 H 562.004 4.07365 0.848113 0
M  V30 5835 H 560.88 5.26563 1.54992 0
M  V30 5836 H 561.141 3.7333 2.36805 0
M  V30 5837 N 560.2 0.0768682 1.57412 0
M  V30 5838 C 561.163 -0.873949 2.11884 0
M  V30 5839 C 562.163 -1.22301 1.04398 0
M  V30 5840 O 563.353 -1.15545 1.30365 0
M  V30 5841 C 560.485 -2.17575 2.62438 0
M  V30 5842 H 561.678 -0.401278 2.97203 0
M  V30 5843 H 559.231 -0.171904 1.55352 0
M  V30 5844 H 559.966 -2.69368 1.80587 0
M  V30 5845 H 559.751 -1.93534 3.41009 0
M  V30 5846 H 561.241 -2.85631 3.04639 0
M  V30 5847 N 561.678 -1.56367 -0.196722 0
M  V30 5848 C 562.924 -1.80796 -0.918725 0
M  V30 5849 C 563.257 -0.650645 -1.82976 0
M  V30 5850 O 562.532 0.348889 -1.91345 0
M  V30 5851 C 562.815 -3.15472 -1.73636 0
M  V30 5852 C 562.668 -4.41693 -0.85015 0
M  V30 5853 C 563.987 -3.46824 -2.70927 0
M  V30 5854 H 561.106 -0.657702 -0.332561 0
M  V30 5855 H 563.748 -1.89086 -0.186186 0
M  V30 5856 H 561.898 -3.08536 -2.36088 0
M  V30 5857 H 563.57 -4.60673 -0.240459 0
M  V30 5858 H 561.813 -4.33517 -0.156785 0
M  V30 5859 H 562.484 -5.32419 -1.45719 0
M  V30 5860 H 564.96 -3.54049 -2.18607 0
M  V30 5861 H 563.836 -4.4218 -3.25219 0
M  V30 5862 H 564.097 -2.70236 -3.49893 0
M  V30 5863 N 563.156 0.464375 -1.50603 0
M  V30 5864 C 564.396 1.22573 -1.6357 0
M  V30 5865 C 564.76 1.89111 -0.331834 0
M  V30 5866 O 565.961 2.66679 -0.336999 0
M  V30 5867 C 564.232 2.23643 -2.7878 0
M  V30 5868 S 565.791 3.08628 -3.1192 0
M  V30 5869 H 562.609 0.416058 -0.576556 0
M  V30 5870 H 565.211 0.521637 -1.88412 0
M  V30 5871 H 563.915 1.73354 -3.7199 0
M  V30 5872 H 563.446 2.98672 -2.56044 0
M  V30 5873 H 565.461 4.24904 -2.56264 0
M  V30 5874 N 564.634 1.40294 0.718013 0
M  V30 5875 C 565.567 1.34767 1.84155 0
M  V30 5876 C 566.545 0.218455 1.61126 0
M  V30 5877 O 567.729 0.401716 1.8417 0
M  V30 5878 C 564.856 1.09676 3.20451 0
M  V30 5879 C 563.902 2.25016 3.62312 0
M  V30 5880 S 564.735 3.87397 3.69707 0
M  V30 5881 C 565.891 3.64565 5.08766 0
M  V30 5882 H 566.124 2.29851 1.88562 0
M  V30 5883 H 563.657 1.2655 0.884555 0
M  V30 5884 H 565.615 0.95885 3.99144 0
M  V30 5885 H 564.276 0.162502 3.13679 0
M  V30 5886 H 563.469 2.03097 4.61268 0
M  V30 5887 H 563.071 2.35098 2.90869 0
M  V30 5888 H 565.363 3.22882 5.95612 0
M  V30 5889 H 566.306 4.63043 5.35721 0
M  V30 5890 H 566.714 2.98303 4.79245 0
M  V30 5891 N 566.112 -0.949982 1.2575 0
M  V30 5892 C 567.389 -1.6718 1.01539 0
M  V30 5893 C 567.769 -2.06095 -0.456942 0
M  V30 5894 O 567.117 -1.77792 -1.43534 0
M  V30 5895 C 567.327 -2.8906 1.95564 0
M  V30 5896 C 568.675 -3.60909 2.23673 0
M  V30 5897 O 569.699 -2.9915 1.9336 0
M  V30 5898 O 568.558 -4.72127 2.75243 0
M  V30 5899 H 565.652 -0.731697 0.385419 0
M  V30 5900 H 568.198 -1.00249 1.36924 0
M  V30 5901 H 566.97 -2.57128 2.94959 0
M  V30 5902 H 566.593 -3.63719 1.60605 0
M  V30 5903 N 567.59 -1.07411 -1.15328 0
M  V30 5904 C 568.52 -0.716472 -2.22236 0
M  V30 5905 C 569.501 0.296373 -1.67498 0
M  V30 5906 O 570.686 0.168989 -1.93463 0
M  V30 5907 C 567.816 -0.114142 -3.47112 0
M  V30 5908 C 566.77 -1.05421 -4.14814 0
M  V30 5909 C 566.096 -0.314604 -5.33774 0
M  V30 5910 C 567.396 -2.38808 -4.64508 0
M  V30 5911 H 569.09 -1.61029 -2.52408 0
M  V30 5912 H 566.636 -0.775702 -1.21321 0
M  V30 5913 H 568.589 0.148001 -4.2114 0
M  V30 5914 H 567.313 0.814755 -3.16274 0
M  V30 5915 H 565.972 -1.30128 -3.42728 0
M  V30 5916 H 565.62 0.617772 -4.99192 0
M  V30 5917 H 565.32 -0.941209 -5.80013 0
M  V30 5918 H 566.844 -0.0602747 -6.1057 0
M  V30 5919 H 568.258 -2.18424 -5.3006 0
M  V30 5920 H 566.655 -2.97069 -5.21412 0
M  V30 5921 H 567.725 -3.01067 -3.80114 0
M  V30 5922 N 569.068 1.32177 -0.85831 0
M  V30 5923 C 570.345 1.91781 -0.384624 0
M  V30 5924 C 570.725 1.78171 1.13217 0
M  V30 5925 O 570.073 1.18209 1.95548 0
M  V30 5926 C 570.283 3.38414 -0.853047 0
M  V30 5927 C 571.631 4.15542 -0.872359 0
M  V30 5928 O 572.655 3.47148 -0.797926 0
M  V30 5929 O 571.514 5.37678 -0.978009 0
M  V30 5930 H 568.608 0.819259 -0.112886 0
M  V30 5931 H 571.154 1.40923 -0.945453 0
M  V30 5932 H 569.926 3.4228 -1.89632 0
M  V30 5933 H 569.549 3.96683 -0.269874 0
M  V30 5934 N 570.547 0.616602 1.45037 0
M  V30 5935 C 571.775 0.121968 2.0654 0
M  V30 5936 C 572.19 -1.19743 1.45969 0
M  V30 5937 O 571.547 -1.73133 0.577168 0
M  V30 5938 C 571.598 -0.0145171 3.61497 0
M  V30 5939 O 571.319 1.25269 4.19809 0
M  V30 5940 C 572.82 -0.539555 4.40004 0
M  V30 5941 H 570.04 0.0729837 0.667019 0
M  V30 5942 H 572.584 0.846891 1.8614 0
M  V30 5943 H 570.739 -0.689809 3.81209 0
M  V30 5944 H 571.153 1.08816 5.13088 0
M  V30 5945 H 572.627 -0.584112 5.48901 0
M  V30 5946 H 573.104 -1.56368 4.10421 0
M  V30 5947 H 573.71 0.101995 4.25178 0
M  V30 5948 N 572.025 -1.5352 0.356285 0
M  V30 5949 C 573.441 -1.59599 0.00485267 0
M  V30 5950 C 573.641 -1.37179 -1.47595 0
M  V30 5951 O 572.697 -1.17234 -2.23635 0
M  V30 5952 C 574.01 -2.97277 0.452454 0
M  V30 5953 C 575.558 -3.10357 0.405881 0
M  V30 5954 C 576.033 -4.50432 0.829148 0
M  V30 5955 N 577.524 -4.5652 0.783838 0
M  V30 5956 C 578.259 -5.63077 1.08315 0
M  V30 5957 N 577.755 -6.77429 1.45126 0
M  V30 5958 N 579.548 -5.53014 1.00655 0
M  V30 5959 H 571.699 -1.66346 1.32071 0
M  V30 5960 H 573.962 -0.77971 0.539218 0
M  V30 5961 H 573.668 -3.18792 1.48542 0
M  V30 5962 H 573.542 -3.76836 -0.165762 0
M  V30 5963 H 575.929 -2.88558 -0.617934 0
M  V30 5964 H 576.01 -2.32828 1.05947 0
M  V30 5965 H 575.654 -4.72968 1.85103 0
M  V30 5966 H 575.584 -5.26378 0.152906 0
M  V30 5967 H 578.075 -3.74408 0.512513 0
M  V30 5968 H 578.388 -7.54669 1.66415 0
M  V30 5969 H 576.733 -6.78844 1.48983 0
M  V30 5970 H 579.924 -4.62557 0.718215 0
M  V30 5971 H 580.097 -6.35964 1.24315 0
M  V30 5972 N 573.503 -0.0852151 -1.57369 0
M  V30 5973 C 574.731 0.58946 -1.98325 0
M  V30 5974 C 575.146 1.62333 -0.96403 0
M  V30 5975 O 574.503 1.82438 0.0476395 0
M  V30 5976 C 574.554 1.24604 -3.39347 0
M  V30 5977 O 574.275 0.253532 -4.37366 0
M  V30 5978 C 575.776 2.00726 -3.95252 0
M  V30 5979 H 572.996 0.158783 -0.651942 0
M  V30 5980 H 575.54 -0.161584 -2.03861 0
M  V30 5981 H 573.695 1.94808 -3.34856 0
M  V30 5982 H 574.109 0.726207 -5.19448 0
M  V30 5983 H 575.583 2.42039 -4.96106 0
M  V30 5984 H 576.06 2.86919 -3.32527 0
M  V30 5985 H 576.666 1.3536 -4.03185 0
M  V30 5986 N 574.981 1.5647 0.188427 0
M  V30 5987 C 576.209 1.85131 0.923803 0
M  V30 5988 C 576.624 0.668537 1.76567 0
M  V30 5989 O 575.981 -0.362662 1.7886 0
M  V30 5990 C 576.032 3.12661 1.81453 0
M  V30 5991 O 575.753 4.26378 1.00665 0
M  V30 5992 C 577.254 3.54548 2.66103 0
M  V30 5993 H 574.474 0.614624 0.269218 0
M  V30 5994 H 577.018 2.03581 0.193671 0
M  V30 5995 H 575.173 2.96088 2.49821 0
M  V30 5996 H 575.587 4.99041 1.61425 0
M  V30 5997 H 577.061 4.4673 3.24247 0
M  V30 5998 H 577.538 2.77853 3.40139 0
M  V30 5999 H 578.144 3.73674 2.03096 0
M  V30 6000 N 576.459 -0.456382 1.50847 0
M  V30 6001 C 577.684 -1.2349 1.66628 0
M  V30 6002 C 578.109 -1.84715 0.355254 0
M  V30 6003 O 577.467 -1.67961 -0.682559 0
M  V30 6004 C 577.515 -2.30865 2.77009 0
M  V30 6005 O 576.619 -3.35882 2.39285 0
M  V30 6006 H 575.96 -0.36266 0.556214 0
M  V30 6007 H 578.49 -0.541374 1.97308 0
M  V30 6008 H 578.5 -2.75949 3.00526 0
M  V30 6009 H 577.175 -1.85677 3.72152 0
M  V30 6010 H 575.752 -2.96406 2.26269 0
M  V30 6011 N 577.937 -1.40673 -0.710563 0
M  V30 6012 C 579.162 -1.42741 -1.50465 0
M  V30 6013 C 579.587 -0.0302116 -1.88076 0
M  V30 6014 O 578.945 0.962945 -1.53613 0
M  V30 6015 C 578.993 -2.32873 -2.75322 0
M  V30 6016 O 578.097 -1.77544 -3.72226 0
M  V30 6017 H 577.438 -0.485056 -0.45345 0
M  V30 6018 H 579.968 -1.84961 -0.874681 0
M  V30 6019 H 579.978 -2.48233 -3.23797 0
M  V30 6020 H 578.653 -3.34401 -2.47283 0
M  V30 6021 H 577.23 -1.71556 -3.31093 0
M  V30 6022 N 579.415 0.9433 -1.26252 0
M  V30 6023 C 580.345 2.05902 -1.10122 0
M  V30 6024 C 581.326 1.70099 -0.00700552 0
M  V30 6025 O 582.511 1.93377 -0.178641 0
M  V30 6026 C 579.641 3.39516 -0.731175 0
M  V30 6027 C 578.595 3.89372 -1.77688 0
M  V30 6028 C 577.921 5.19613 -1.26122 0
M  V30 6029 C 579.221 4.14489 -3.17799 0
M  V30 6030 H 580.915 2.19655 -2.03451 0
M  V30 6031 H 578.461 1.05548 -0.979576 0
M  V30 6032 H 580.414 4.17031 -0.605215 0
M  V30 6033 H 579.138 3.25733 0.23782 0
M  V30 6034 H 577.797 3.14036 -1.89148 0
M  V30 6035 H 577.445 5.02208 -0.282128 0
M  V30 6036 H 577.145 5.53939 -1.96023 0
M  V30 6037 H 578.669 5.99713 -1.14789 0
M  V30 6038 H 580.083 4.82625 -3.09428 0
M  V30 6039 H 578.48 4.60094 -3.85271 0
M  V30 6040 H 579.55 3.20347 -3.64014 0
M  V30 6041 N 580.893 1.08022 1.14757 0
M  V30 6042 C 582.139 0.818552 1.86202 0
M  V30 6043 C 582.494 -0.648563 1.81139 0
M  V30 6044 O 581.787 -1.4704 1.22841 0
M  V30 6045 C 581.981 1.26964 3.34088 0
M  V30 6046 C 581.81 2.77907 3.5355 0
M  V30 6047 C 580.58 3.45604 3.68627 0
M  V30 6048 C 582.778 3.7609 3.50801 0
M  V30 6049 N 580.76 4.85119 3.76209 0
M  V30 6050 C 582.131 5.0148 3.64579 0
M  V30 6051 C 584.186 3.6915 3.34115 0
M  V30 6052 C 582.889 6.20755 3.63395 0
M  V30 6053 C 584.915 4.87896 3.34233 0
M  V30 6054 C 584.277 6.12123 3.48547 0
M  V30 6055 H 580.376 0.352186 0.698204 0
M  V30 6056 H 582.96 1.37781 1.37567 0
M  V30 6057 H 581.131 0.738008 3.81324 0
M  V30 6058 H 582.863 0.954806 3.93275 0
M  V30 6059 H 579.618 2.96016 3.69691 0
M  V30 6060 H 580.042 5.57748 3.83726 0
M  V30 6061 H 584.684 2.74045 3.21961 0
M  V30 6062 H 582.402 7.16175 3.74326 0
M  V30 6063 H 585.988 4.8421 3.2254 0
M  V30 6064 H 584.868 7.02468 3.48581 0
M  V30 6065 N 582.371 -1.3172 0.865308 0
M  V30 6066 C 583.318 -2.2863 0.315736 0
M  V30 6067 C 584.288 -1.55524 -0.583213 0
M  V30 6068 O 585.473 -1.83694 -0.51585 0
M  V30 6069 C 582.613 -3.41735 -0.480773 0
M  V30 6070 C 581.726 -4.297 0.445167 0
M  V30 6071 C 580.861 -5.29944 -0.365012 0
M  V30 6072 C 579.9 -6.09554 0.557651 0
M  V30 6073 N 579.037 -7.01768 -0.215994 0
M  V30 6074 H 583.877 -2.75026 1.14736 0
M  V30 6075 H 581.414 -1.35302 0.577209 0
M  V30 6076 H 583.372 -4.06045 -0.958306 0
M  V30 6077 H 582.002 -2.96461 -1.27714 0
M  V30 6078 H 581.054 -3.65875 1.04113 0
M  V30 6079 H 582.366 -4.85295 1.15284 0
M  V30 6080 H 581.52 -5.99908 -0.905255 0
M  V30 6081 H 580.259 -4.74994 -1.106 0
M  V30 6082 H 579.264 -5.38485 1.10969 0
M  V30 6083 H 580.489 -6.66591 1.29742 0
M  V30 6084 H 578.435 -6.49232 -0.939878 0
M  V30 6085 H 578.352 -7.54762 0.432431 0
M  V30 6086 H 579.62 -7.76002 -0.737618 0
M  V30 6087 N 583.85 -0.624285 -1.44708 0
M  V30 6088 C 585.127 -0.0572781 -1.95516 0
M  V30 6089 C 585.507 1.41516 -1.56641 0
M  V30 6090 O 584.855 2.12614 -0.837111 0
M  V30 6091 C 585.065 -0.272944 -3.47931 0
M  V30 6092 C 586.413 -0.162529 -4.24289 0
M  V30 6093 O 587.437 -0.203946 -3.55616 0
M  V30 6094 O 586.296 -0.0616847 -5.46465 0
M  V30 6095 H 583.389 0.0262219 -0.826584 0
M  V30 6096 H 585.936 -0.695512 -1.54793 0
M  V30 6097 H 584.707 -1.29492 -3.69253 0
M  V30 6098 H 584.331 0.399756 -3.95585 0
M  V30 6099 N 585.328 1.53329 -0.364422 0
M  V30 6100 C 586.275 2.25698 0.482607 0
M  V30 6101 C 587.245 1.26325 1.07848 0
M  V30 6102 O 588.43 1.55104 1.11119 0
M  V30 6103 C 585.57 3.04873 1.61699 0
M  V30 6104 C 584.683 4.19135 1.0464 0
M  V30 6105 C 583.818 4.85754 2.14979 0
M  V30 6106 C 582.857 5.9205 1.5538 0
M  V30 6107 N 581.994 6.52365 2.59547 0
M  V30 6108 H 586.834 2.97666 -0.141032 0
M  V30 6109 H 584.371 1.46875 -0.0813692 0
M  V30 6110 H 586.329 3.49051 2.28516 0
M  V30 6111 H 584.959 2.35162 2.2113 0
M  V30 6112 H 584.011 3.79451 0.268553 0
M  V30 6113 H 585.323 4.95525 0.570653 0
M  V30 6114 H 584.477 5.3311 2.89619 0
M  V30 6115 H 583.216 4.08834 2.65906 0
M  V30 6116 H 582.221 5.44058 0.792549 0
M  V30 6117 H 583.446 6.7089 1.0528 0
M  V30 6118 H 581.392 5.78298 3.09689 0
M  V30 6119 H 581.309 7.2429 2.16655 0
M  V30 6120 H 582.577 7.0437 3.33892 0
M  V30 6121 N 586.806 0.0935595 1.57322 0
M  V30 6122 C 587.769 -0.851426 2.12799 0
M  V30 6123 C 588.769 -1.21187 1.0569 0
M  V30 6124 O 589.959 -1.14156 1.31583 0
M  V30 6125 C 587.091 -2.14779 2.64731 0
M  V30 6126 H 588.284 -0.369733 2.97612 0
M  V30 6127 H 585.837 -0.155417 1.55525 0
M  V30 6128 H 586.572 -2.67437 1.83434 0
M  V30 6129 H 586.357 -1.89907 3.43042 0
M  V30 6130 H 587.847 -2.82383 3.07651 0
M  V30 6131 N 588.284 -1.56567 -0.180126 0
M  V30 6132 C 589.247 -1.94852 -1.20686 0
M  V30 6133 C 590.247 -0.831212 -1.3765 0
M  V30 6134 O 591.437 -1.09841 -1.35206 0
M  V30 6135 C 588.569 -2.23565 -2.57355 0
M  V30 6136 H 589.762 -2.86722 -0.879225 0
M  V30 6137 H 587.315 -1.50489 -0.422237 0
M  V30 6138 H 588.05 -1.34381 -2.95148 0
M  V30 6139 H 587.835 -3.04999 -2.46411 0
M  V30 6140 H 589.325 -2.54137 -3.31367 0
M  V30 6141 N 589.762 0.448376 -1.51087 0
M  V30 6142 C 591.008 1.20049 -1.6345 0
M  V30 6143 C 591.341 1.91121 -0.344444 0
M  V30 6144 O 590.616 1.83125 0.655396 0
M  V30 6145 C 590.899 2.22624 -2.83038 0
M  V30 6146 C 590.752 1.55708 -4.21989 0
M  V30 6147 C 592.071 3.23718 -2.98152 0
M  V30 6148 H 589.19 0.435085 -0.59487 0
M  V30 6149 H 591.832 0.491183 -1.83541 0
M  V30 6150 H 589.982 2.83117 -2.66039 0
M  V30 6151 H 591.654 0.986367 -4.50631 0
M  V30 6152 H 589.897 0.859647 -4.25197 0
M  V30 6153 H 590.568 2.30357 -5.01637 0
M  V30 6154 H 593.044 2.73269 -3.13788 0
M  V30 6155 H 591.92 3.92795 -3.83411 0
M  V30 6156 H 592.181 3.89179 -2.09743 0
M  V30 6157 N 591.24 1.41047 0.703093 0
M  V30 6158 C 592.15 1.44645 1.84703 0
M  V30 6159 C 593.166 0.337778 1.7069 0
M  V30 6160 O 594.342 0.584327 1.92737 0
M  V30 6161 C 591.407 1.31928 3.20618 0
M  V30 6162 C 590.468 2.53047 3.46794 0
M  V30 6163 C 589.701 2.40927 4.76224 0
M  V30 6164 O 589.924 1.42978 5.5219 0
M  V30 6165 O 588.858 3.30543 5.03016 0
M  V30 6166 H 592.684 2.41139 1.84624 0
M  V30 6167 H 590.269 1.22504 0.855167 0
M  V30 6168 H 592.151 1.27092 4.01778 0
M  V30 6169 H 590.826 0.385469 3.21397 0
M  V30 6170 H 589.733 2.6346 2.65593 0
M  V30 6171 H 591.066 3.45231 3.50822 0
M  V30 6172 N 592.718 -0.936591 1.26751 0
M  V30 6173 C 593.967 -1.67778 1.11953 0
M  V30 6174 C 594.28 -1.92694 -0.33589 0
M  V30 6175 O 595.486 -2.64682 -0.604618 0
M  V30 6176 C 593.942 -3.02138 1.95551 0
M  V30 6177 C 593.55 -2.84953 3.45696 0
M  V30 6178 C 595.294 -3.79917 1.89377 0
M  V30 6179 C 593.201 -4.14814 4.21525 0
M  V30 6180 H 592.131 -0.629275 0.415366 0
M  V30 6181 H 594.782 -1.04122 1.51099 0
M  V30 6182 H 593.164 -3.668 1.49243 0
M  V30 6183 H 594.338 -2.29112 3.99805 0
M  V30 6184 H 592.653 -2.20612 3.53156 0
M  V30 6185 H 595.25 -4.76134 2.43312 0
M  V30 6186 H 595.593 -4.07204 0.865464 0
M  V30 6187 H 596.126 -3.22037 2.33532 0
M  V30 6188 H 592.865 -3.92709 5.24843 0
M  V30 6189 H 592.385 -4.70352 3.72195 0
M  V30 6190 H 594.064 -4.83239 4.3022 0
M  V30 6191 N 594.196 -1.08629 -1.14182 0
M  V30 6192 C 595.144 -0.71284 -2.21408 0
M  V30 6193 C 596.138 0.282457 -1.67029 0
M  V30 6194 O 597.344 0.144783 -1.79417 0
M  V30 6195 H 593.719 -0.212497 -0.721352 0
M  V30 6196 H 595.69 -1.6265 -2.50175 0
M  V30 6197 C 594.439 -0.140704 -3.47415 0
M  V30 6198 H 593.762 -0.897739 -3.8959 0
M  V30 6199 H 595.202 0.0827677 -4.23919 0
M  V30 6200 C 593.661 1.122 -3.17668 0
M  V30 6201 O 594.191 2.20652 -3.35672 0
M  V30 6202 N 592.397 1.03328 -2.71609 0
M  V30 6203 H 591.944 0.150666 -2.57159 0
M  V30 6204 H 591.902 1.8789 -2.52081 0
M  V30 6205 N 595.674 1.31259 -0.872281 0
M  V30 6206 C 596.92 1.96913 -0.485083 0
M  V30 6207 C 597.253 1.68774 0.960667 0
M  V30 6208 O 596.528 0.985495 1.67685 0
M  V30 6209 C 596.811 3.52299 -0.745502 0
M  V30 6210 C 596.664 3.90002 -2.24095 0
M  V30 6211 C 597.983 4.39582 -0.213516 0
M  V30 6212 H 595.102 0.715252 -0.177716 0
M  V30 6213 H 597.744 1.55347 -1.09395 0
M  V30 6214 H 595.894 3.87835 -0.227276 0
M  V30 6215 H 597.566 3.64555 -2.82661 0
M  V30 6216 H 595.809 3.38526 -2.71261 0
M  V30 6217 H 596.48 4.98352 -2.37381 0
M  V30 6218 H 598.956 4.10882 -0.656902 0
M  V30 6219 H 597.832 5.47251 -0.42516 0
M  V30 6220 H 598.093 4.33158 0.884666 0
M  V30 6221 N 597.152 0.631951 1.44375 0
M  V30 6222 C 598.115 -0.0628142 2.29114 0
M  V30 6223 C 599.115 -0.771494 1.41084 0
M  V30 6224 O 600.305 -0.615959 1.62947 0
M  V30 6225 C 597.437 -1.09953 3.22681 0
M  V30 6226 H 598.63 0.682509 2.92031 0
M  V30 6227 H 596.183 0.392128 1.51301 0
M  V30 6228 H 596.918 -1.87481 2.64616 0
M  V30 6229 H 596.703 -0.595286 3.87555 0
M  V30 6230 H 598.193 -1.58538 3.86336 0
M  V30 6231 N 598.631 -1.53133 0.372548 0
M  V30 6232 C 599.877 -2.01654 -0.215277 0
M  V30 6233 C 600.21 -1.25914 -1.47849 0
M  V30 6234 O 599.485 -0.3548 -1.91237 0
M  V30 6235 C 599.768 -3.56609 -0.500187 0
M  V30 6236 C 599.621 -4.43036 0.777145 0
M  V30 6237 C 600.94 -4.20528 -1.29786 0
M  V30 6238 H 598.059 -0.732991 -0.0767686 0
M  V30 6239 H 600.701 -1.83335 0.498814 0
M  V30 6240 H 598.851 -3.7235 -1.10852 0
M  V30 6241 H 600.523 -4.39079 1.41447 0
M  V30 6242 H 598.766 -4.10723 1.39604 0
M  V30 6243 H 599.437 -5.49424 0.532662 0
M  V30 6244 H 601.913 -4.08663 -0.783198 0
M  V30 6245 H 600.789 -5.28962 -1.46596 0
M  V30 6246 H 601.05 -3.77051 -2.30836 0
M  V30 6247 N 600.109 -0.101901 -1.5727 0
M  V30 6248 C 601.039 0.851544 -2.17419 0
M  V30 6249 C 602.02 1.28942 -1.10941 0
M  V30 6250 O 603.205 1.35509 -1.39107 0
M  V30 6251 C 600.335 2.10816 -2.75996 0
M  V30 6252 C 599.289 1.80867 -3.87906 0
M  V30 6253 C 598.615 3.13413 -4.33216 0
M  V30 6254 C 599.915 1.0903 -5.10793 0
M  V30 6255 H 601.609 0.350381 -2.97343 0
M  V30 6256 H 599.155 0.16709 -1.43027 0
M  V30 6257 H 601.108 2.77959 -3.16729 0
M  V30 6258 H 599.832 2.63227 -1.93337 0
M  V30 6259 H 598.491 1.16119 -3.47724 0
M  V30 6260 H 598.139 3.63725 -3.47438 0
M  V30 6261 H 597.839 2.94155 -5.08671 0
M  V30 6262 H 599.363 3.81704 -4.76586 0
M  V30 6263 H 600.777 1.66295 -5.48652 0
M  V30 6264 H 599.174 0.99927 -5.91722 0
M  V30 6265 H 600.244 0.0741704 -4.84843 0
M  V30 6266 N 601.587 1.56661 0.17182 0
M  V30 6267 C 602.537 1.92781 1.21736 0
M  V30 6268 C 603.521 0.796065 1.39827 0
M  V30 6269 O 604.713 1.05924 1.41806 0
M  V30 6270 C 601.842 2.29079 2.55691 0
M  V30 6271 C 600.928 3.48765 2.41296 0
M  V30 6272 N 601.319 4.66022 1.96614 0
M  V30 6273 C 599.617 3.53362 2.72124 0
M  V30 6274 C 600.318 5.48159 1.94669 0
M  V30 6275 N 599.294 4.89189 2.37054 0
M  V30 6276 H 603.096 2.80926 0.863592 0
M  V30 6277 H 600.61 1.57889 0.380096 0
M  V30 6278 H 602.607 2.5315 3.31241 0
M  V30 6279 H 601.267 1.42272 2.91871 0
M  V30 6280 H 602.278 4.9025 1.66959 0
M  V30 6281 H 598.955 2.77033 3.12345 0
M  V30 6282 H 600.345 6.52121 1.61826 0
M  V30 6283 N 603.065 -0.440357 1.51323 0
M  V30 6284 C 604.29 -1.21716 1.67928 0
M  V30 6285 C 604.715 -1.84328 0.374826 0
M  V30 6286 O 604.073 -1.68675 -0.664706 0
M  V30 6287 C 604.121 -2.27914 2.79442 0
M  V30 6288 O 603.225 -3.33325 2.42834 0
M  V30 6289 H 602.566 -0.35674 0.560029 0
M  V30 6290 H 605.096 -0.520417 1.97871 0
M  V30 6291 H 605.106 -2.72746 3.03436 0
M  V30 6292 H 603.781 -1.8172 3.741 0
M  V30 6293 H 602.358 -2.9399 2.294 0
M  V30 6294 N 604.543 -1.41418 -0.695603 0
M  V30 6295 C 605.773 -1.43921 -1.48224 0
M  V30 6296 C 606.181 -0.0428855 -1.89151 0
M  V30 6297 O 605.524 0.948138 -1.5734 0
M  V30 6298 C 605.586 -2.28466 -2.77567 0
M  V30 6299 C 605.25 -3.76629 -2.58844 0
M  V30 6300 C 606.247 -4.6879 -2.24793 0
M  V30 6301 C 603.932 -4.2067 -2.74485 0
M  V30 6302 C 605.926 -6.02981 -2.06622 0
M  V30 6303 C 603.613 -5.54926 -2.55931 0
M  V30 6304 C 604.611 -6.45897 -2.2205 0
M  V30 6305 O 604.299 -7.77675 -2.03657 0
M  V30 6306 H 604.031 -0.492252 -0.463318 0
M  V30 6307 H 606.585 -1.86347 -0.863952 0
M  V30 6308 H 604.815 -1.80853 -3.41802 0
M  V30 6309 H 606.504 -2.2267 -3.39371 0
M  V30 6310 H 607.27 -4.36055 -2.12323 0
M  V30 6311 H 603.149 -3.50167 -2.9984 0
M  V30 6312 H 606.693 -6.73951 -1.80099 0
M  V30 6313 H 602.59 -5.8724 -2.67991 0
M  V30 6314 H 603.358 -7.88819 -2.1842 0
M  V30 6315 N 606.021 0.929856 -1.27246 0
M  V30 6316 C 606.953 2.03434 -1.0558 0
M  V30 6317 C 607.966 1.62795 -0.0125762 0
M  V30 6318 O 609.155 1.76685 -0.2539 0
M  V30 6319 C 606.255 3.33915 -0.57912 0
M  V30 6320 C 605.428 4.03259 -1.69415 0
M  V30 6321 C 604.487 5.12014 -1.21357 0
M  V30 6322 O 603.513 5.36097 -1.91282 0
M  V30 6323 N 604.715 5.8046 -0.0680622 0
M  V30 6324 H 607.48 2.22583 -2.00691 0
M  V30 6325 H 605.041 1.1001 -1.18783 0
M  V30 6326 H 607.033 4.03978 -0.241563 0
M  V30 6327 H 605.603 3.11355 0.278703 0
M  V30 6328 H 604.823 3.26958 -2.20209 0
M  V30 6329 H 606.111 4.46337 -2.44255 0
M  V30 6330 H 605.509 5.63345 0.515626 0
M  V30 6331 H 604.066 6.51461 0.210332 0
M  V30 6332 N 607.499 1.09233 1.13605 0
M  V30 6333 C 608.429 0.751738 2.21068 0
M  V30 6334 C 609.41 -0.269688 1.67948 0
M  V30 6335 O 610.595 -0.13819 1.93708 0
M  V30 6336 C 607.725 0.16935 3.46887 0
M  V30 6337 C 606.679 1.12007 4.13084 0
M  V30 6338 C 606.005 0.399483 5.33206 0
M  V30 6339 C 607.305 2.46168 4.6065 0
M  V30 6340 H 608.999 1.65024 2.49815 0
M  V30 6341 H 606.545 0.794905 1.20072 0
M  V30 6342 H 608.498 -0.0809824 4.21322 0
M  V30 6343 H 607.222 -0.764335 3.1753 0
M  V30 6344 H 605.881 1.35564 3.40614 0
M  V30 6345 H 605.529 -0.538277 5.00112 0
M  V30 6346 H 605.229 1.03337 5.78442 0
M  V30 6347 H 606.753 0.157403 6.10397 0
M  V30 6348 H 608.167 2.26829 5.26518 0
M  V30 6349 H 606.564 3.05326 5.1662 0
M  V30 6350 H 607.634 3.07076 3.75276 0
M  V30 6351 N 608.977 -1.30795 0.87923 0
M  V30 6352 C 609.94 -2.26563 0.346676 0
M  V30 6353 C 610.94 -1.52578 -0.507597 0
M  V30 6354 O 612.13 -1.71318 -0.315575 0
M  V30 6355 C 609.262 -3.37115 -0.506611 0
M  V30 6356 H 610.455 -2.75183 1.19223 0
M  V30 6357 H 608.008 -1.41886 0.655598 0
M  V30 6358 H 608.743 -2.93802 -1.37299 0
M  V30 6359 H 608.528 -3.91959 0.105218 0
M  V30 6360 H 610.018 -4.08412 -0.871192 0
M  V30 6361 N 610.455 -0.639598 -1.44038 0
M  V30 6362 C 611.402 0.0602458 -2.30721 0
M  V30 6363 C 612.372 0.828352 -1.43971 0
M  V30 6364 O 613.557 0.807693 -1.72861 0
M  V30 6365 C 610.697 1.03008 -3.29368 0
M  V30 6366 C 609.81 0.259502 -4.3122 0
M  V30 6367 C 608.945 1.22191 -5.16955 0
M  V30 6368 C 607.984 0.440978 -6.10509 0
M  V30 6369 N 607.121 1.35428 -6.88915 0
M  V30 6370 H 611.961 -0.684867 -2.90023 0
M  V30 6371 H 609.498 -0.349509 -1.42888 0
M  V30 6372 H 611.456 1.60583 -3.85057 0
M  V30 6373 H 610.086 1.74222 -2.71747 0
M  V30 6374 H 609.138 -0.432317 -3.77935 0
M  V30 6375 H 610.45 -0.348347 -4.97582 0
M  V30 6376 H 609.604 1.86873 -5.77203 0
M  V30 6377 H 608.343 1.86367 -4.50687 0
M  V30 6378 H 607.348 -0.219279 -5.49363 0
M  V30 6379 H 608.573 -0.196192 -6.78817 0
M  V30 6380 H 606.519 1.9831 -6.25307 0
M  V30 6381 H 606.436 0.800657 -7.51748 0
M  V30 6382 H 607.704 1.98967 -7.53679 0
M  V30 6383 N 611.933 1.52934 -0.380664 0
M  V30 6384 C 613.179 2.01765 0.20458 0
M  V30 6385 C 613.512 1.26696 1.47179 0
M  V30 6386 O 612.787 0.364936 1.91046 0
M  V30 6387 C 613.07 3.56869 0.481269 0
M  V30 6388 C 612.923 4.42617 -0.800629 0
M  V30 6389 C 614.242 4.2121 1.27554 0
M  V30 6390 H 611.361 0.733388 0.0728803 0
M  V30 6391 H 614.003 1.83068 -0.50853 0
M  V30 6392 H 612.153 3.72932 1.08875 0
M  V30 6393 H 613.825 4.38323 -1.43773 0
M  V30 6394 H 612.068 4.09977 -1.4178 0
M  V30 6395 H 612.739 5.49134 -0.561791 0
M  V30 6396 H 615.215 4.09072 0.761514 0
M  V30 6397 H 614.091 5.29732 1.43788 0
M  V30 6398 H 614.352 3.78269 2.28833 0
M  V30 6399 N 613.412 0.11024 1.57214 0
M  V30 6400 C 614.64 -0.557834 1.99238 0
M  V30 6401 C 615.055 -1.60778 0.989734 0
M  V30 6402 O 614.412 -1.82491 -0.0186092 0
M  V30 6403 C 614.463 -1.19189 3.41286 0
M  V30 6404 O 614.184 -0.183919 4.37714 0
M  V30 6405 C 615.685 -1.94413 3.98395 0
M  V30 6406 H 612.905 -0.148392 0.654386 0
M  V30 6407 H 615.449 0.193996 2.03578 0
M  V30 6408 H 613.604 -1.89456 3.37913 0
M  V30 6409 H 614.018 -0.643475 5.20538 0
M  V30 6410 H 615.492 -2.34116 4.99894 0
M  V30 6411 H 615.969 -2.81592 3.3705 0
M  V30 6412 H 616.575 -1.28928 4.05287 0
M  V30 6413 N 614.89 -1.56749 -0.16351 0
M  V30 6414 C 616.139 -1.81626 -0.877211 0
M  V30 6415 C 616.452 -0.688791 -1.83071 0
M  V30 6416 O 617.658 -0.822697 -2.58735 0
M  V30 6417 C 616.114 -3.21858 -1.61045 0
M  V30 6418 C 615.722 -4.42494 -0.700195 0
M  V30 6419 C 617.466 -3.56021 -2.31192 0
M  V30 6420 C 615.373 -5.73748 -1.43412 0
M  V30 6421 H 614.303 -0.67731 -0.331312 0
M  V30 6422 H 616.954 -1.83039 -0.13006 0
M  V30 6423 H 615.336 -3.14784 -2.40264 0
M  V30 6424 H 616.51 -4.60766 0.0555849 0
M  V30 6425 H 614.825 -4.1626 -0.10799 0
M  V30 6426 H 617.422 -4.51333 -2.8671 0
M  V30 6427 H 617.765 -2.81277 -3.06902 0
M  V30 6428 H 618.298 -3.64682 -1.58909 0
M  V30 6429 H 615.037 -6.51543 -0.719186 0
M  V30 6430 H 614.557 -5.5944 -2.16302 0
M  V30 6431 H 616.236 -6.15975 -1.9795 0
M  V30 6432 N 616.368 0.432326 -1.51554 0
M  V30 6433 C 617.614 1.18309 -1.64714 0
M  V30 6434 C 617.947 1.90745 -0.364696 0
M  V30 6435 O 617.222 1.8381 0.635936 0
M  V30 6436 C 617.505 2.1961 -2.85383 0
M  V30 6437 C 617.358 1.51223 -4.23617 0
M  V30 6438 C 618.677 3.20538 -3.01569 0
M  V30 6439 H 615.796 0.428751 -0.599451 0
M  V30 6440 H 618.438 0.471689 -1.84052 0
M  V30 6441 H 616.588 2.8028 -2.69027 0
M  V30 6442 H 618.26 0.938516 -4.51652 0
M  V30 6443 H 616.503 0.814501 -4.26085 0
M  V30 6444 H 617.174 2.25024 -5.04052 0
M  V30 6445 H 619.65 2.69926 -3.16669 0
M  V30 6446 H 618.526 3.88706 -3.87555 0
M  V30 6447 H 618.787 3.86933 -2.13859 0
M  V30 6448 N 617.846 1.41785 0.688094 0
M  V30 6449 C 619.123 1.32031 1.44316 0
M  V30 6450 C 619.503 -0.0486079 2.11044 0
M  V30 6451 O 618.851 -1.06332 2.02252 0
M  V30 6452 C 619.061 2.47906 2.45649 0
M  V30 6453 C 620.409 2.89415 3.10683 0
M  V30 6454 O 621.433 2.477 2.55975 0
M  V30 6455 O 620.292 3.61573 4.09789 0
M  V30 6456 H 617.386 0.519994 0.643067 0
M  V30 6457 H 619.932 1.53765 0.71794 0
M  V30 6458 H 618.704 3.39222 1.95048 0
M  V30 6459 H 618.327 2.28089 3.25671 0
M  V30 6460 N 619.324 -0.923095 1.27737 0
M  V30 6461 C 620.274 -2.01061 1.0751 0
M  V30 6462 C 621.258 -1.609 0.00165451 0
M  V30 6463 O 622.45 -1.75618 0.220724 0
M  V30 6464 C 619.579 -3.35467 0.729162 0
M  V30 6465 C 618.665 -3.82059 1.84098 0
M  V30 6466 N 619.056 -4.01115 3.08124 0
M  V30 6467 C 617.354 -4.11135 1.7287 0
M  V30 6468 C 618.055 -4.39989 3.80506 0
M  V30 6469 N 617.031 -4.47721 3.08297 0
M  V30 6470 H 620.833 -2.13832 2.01626 0
M  V30 6471 H 618.347 -1.11027 1.18519 0
M  V30 6472 H 620.344 -4.13049 0.565355 0
M  V30 6473 H 619.004 -3.24056 -0.204334 0
M  V30 6474 H 620.015 -3.87294 3.43836 0
M  V30 6475 H 616.692 -4.08412 0.866352 0
M  V30 6476 H 618.082 -4.62773 4.87125 0
M  V30 6477 N 620.802 -1.09834 -1.13024 0
M  V30 6478 C 621.752 -0.710899 -2.16634 0
M  V30 6479 C 622.736 0.276836 -1.58501 0
M  V30 6480 O 623.928 0.0865457 -1.76788 0
M  V30 6481 C 621.057 -0.137574 -3.43024 0
M  V30 6482 C 620.143 -1.15198 -4.08155 0
M  V30 6483 N 620.534 -2.34054 -4.48388 0
M  V30 6484 C 618.832 -0.991074 -4.34849 0
M  V30 6485 C 619.533 -2.98616 -4.99203 0
M  V30 6486 N 618.509 -2.26159 -4.94321 0
M  V30 6487 H 622.311 -1.61576 -2.455 0
M  V30 6488 H 619.825 -0.975158 -1.29863 0
M  V30 6489 H 621.822 0.158031 -4.166 0
M  V30 6490 H 620.482 0.762088 -3.1563 0
M  V30 6491 H 621.493 -2.7162 -4.40957 0
M  V30 6492 H 618.17 -0.146448 -4.17243 0
M  V30 6493 H 619.56 -3.99683 -5.40096 0
M  V30 6494 N 622.28 1.30327 -0.886154 0
M  V30 6495 C 623.243 2.26376 -0.358687 0
M  V30 6496 C 624.243 1.52845 0.499498 0
M  V30 6497 O 625.433 1.71483 0.306485 0
M  V30 6498 C 622.565 3.37379 0.488726 0
M  V30 6499 H 623.758 2.74547 -1.20681 0
M  V30 6500 H 621.311 1.41536 -0.663113 0
M  V30 6501 H 622.046 2.94526 1.35739 0
M  V30 6502 H 621.831 3.91897 -0.126003 0
M  V30 6503 H 623.321 4.08868 0.84952 0
M  V30 6504 N 623.758 0.647228 1.43697 0
M  V30 6505 C 624.721 -0.0385101 2.29168 0
M  V30 6506 C 625.721 -0.756487 1.41894 0
M  V30 6507 O 626.911 -0.598641 1.63591 0
M  V30 6508 C 624.043 -1.06524 3.23829 0
M  V30 6509 H 625.236 0.713445 2.9129 0
M  V30 6510 H 622.789 0.408153 1.50877 0
M  V30 6511 H 623.524 -1.84664 2.66589 0
M  V30 6512 H 623.309 -0.554147 3.88164 0
M  V30 6513 H 624.799 -1.54432 3.87996 0
M  V30 6514 N 625.236 -1.5273 0.388769 0
M  V30 6515 C 626.464 -2.05992 -0.193677 0
M  V30 6516 C 626.879 -1.26053 -1.40557 0
M  V30 6517 O 626.236 -0.307049 -1.79898 0
M  V30 6518 C 626.287 -3.57068 -0.564321 0
M  V30 6519 O 626.008 -4.3398 0.599422 0
M  V30 6520 C 627.509 -4.26674 -1.20269 0
M  V30 6521 H 624.729 -0.670358 -0.0293445 0
M  V30 6522 H 627.273 -1.96857 0.553844 0
M  V30 6523 H 625.428 -3.66277 -1.26174 0
M  V30 6524 H 625.842 -5.2367 0.294895 0
M  V30 6525 H 627.316 -5.33625 -1.4124 0
M  V30 6526 H 627.793 -3.81854 -2.16989 0
M  V30 6527 H 628.399 -4.2178 -0.546047 0
M  V30 6528 N 626.714 -0.118576 -1.57153 0
M  V30 6529 C 627.677 0.817464 -2.14127 0
M  V30 6530 C 628.677 1.1949 -1.07604 0
M  V30 6531 O 629.867 1.12048 -1.33382 0
M  V30 6532 C 626.999 2.10541 -2.68115 0
M  V30 6533 H 628.192 0.322339 -2.98163 0
M  V30 6534 H 625.745 0.130655 -1.55753 0
M  V30 6535 H 626.48 2.64485 -1.87665 0
M  V30 6536 H 626.265 1.84425 -3.4602 0
M  V30 6537 H 627.755 2.77453 -3.12105 0
M  V30 6538 N 628.193 1.56834 0.155195 0
M  V30 6539 C 629.418 1.87412 0.888337 0
M  V30 6540 C 629.843 0.70671 1.74319 0
M  V30 6541 O 629.201 -0.343892 1.78009 0
M  V30 6542 C 629.249 3.1652 1.72765 0
M  V30 6543 O 628.353 2.99877 2.83103 0
M  V30 6544 H 627.694 0.615983 0.247914 0
M  V30 6545 H 630.224 2.04061 0.148478 0
M  V30 6546 H 630.234 3.48334 2.12433 0
M  V30 6547 H 628.909 4.01094 1.09985 0
M  V30 6548 H 627.486 2.79453 2.46902 0
M  V30 6549 N 629.671 -0.424282 1.51781 0
M  V30 6550 C 630.918 -1.1726 1.65095 0
M  V30 6551 C 631.246 -1.90881 0.373477 0
M  V30 6552 O 630.501 -1.84835 -0.642997 0
M  V30 6553 C 630.8 -2.20418 2.81337 0
M  V30 6554 C 630.466 -1.63715 4.20129 0
M  V30 6555 C 629.128 -1.47975 4.57883 0
M  V30 6556 C 631.48 -1.22157 5.06682 0
M  V30 6557 C 628.808 -0.891703 5.79884 0
M  V30 6558 C 631.16 -0.647767 6.29275 0
M  V30 6559 C 629.824 -0.477371 6.65791 0
M  V30 6560 H 629.094 -0.429085 0.604125 0
M  V30 6561 H 631.741 -0.461852 1.85847 0
M  V30 6562 H 630.046 -2.97581 2.54859 0
M  V30 6563 H 631.743 -2.78163 2.88836 0
M  V30 6564 H 628.333 -1.76946 3.90369 0
M  V30 6565 H 632.517 -1.33133 4.7811 0
M  V30 6566 H 627.773 -0.747563 6.06813 0
M  V30 6567 H 631.947 -0.317291 6.95677 0
M  V30 6568 H 629.574 -0.0195936 7.60197 0
M  V30 6569 N 631.149 -1.42148 -0.680565 0
M  V30 6570 C 632.082 -1.39602 -1.80517 0
M  V30 6571 C 633.06 -0.261098 -1.6049 0
M  V30 6572 O 634.244 -0.450404 -1.8304 0
M  V30 6573 C 631.371 -1.18134 -3.1743 0
M  V30 6574 C 630.417 -2.34543 -3.56219 0
M  V30 6575 S 631.25 -3.97063 -3.59306 0
M  V30 6576 C 632.406 -3.77926 -4.98921 0
M  V30 6577 H 632.639 -2.3477 -1.82402 0
M  V30 6578 H 630.172 -1.28851 -0.850691 0
M  V30 6579 H 632.13 -1.06434 -3.96462 0
M  V30 6580 H 630.791 -0.245611 -3.13138 0
M  V30 6581 H 629.984 -2.15255 -4.55721 0
M  V30 6582 H 629.586 -2.42728 -2.84533 0
M  V30 6583 H 631.878 -3.3856 -5.86842 0
M  V30 6584 H 632.821 -4.77084 -5.23256 0
M  V30 6585 H 633.229 -3.10904 -4.71167 0
M  V30 6586 N 632.627 0.916307 -1.28225 0
M  V30 6587 C 633.574 2.01841 -1.11932 0
M  V30 6588 C 634.544 1.66091 -0.0171604 0
M  V30 6589 O 635.729 1.89934 -0.181617 0
M  V30 6590 C 632.869 3.36065 -0.784504 0
M  V30 6591 C 631.982 3.847 -1.96544 0
M  V30 6592 C 631.117 5.07423 -1.57149 0
M  V30 6593 C 630.156 5.48384 -2.71922 0
M  V30 6594 N 629.293 6.62298 -2.33037 0
M  V30 6595 H 634.133 2.1511 -2.06232 0
M  V30 6596 H 631.67 1.05366 -1.02647 0
M  V30 6597 H 633.628 4.13272 -0.571148 0
M  V30 6598 H 632.258 3.22571 0.121565 0
M  V30 6599 H 631.31 3.03673 -2.291 0
M  V30 6600 H 632.622 4.1102 -2.82603 0
M  V30 6601 H 631.776 5.92165 -1.32004 0
M  V30 6602 H 630.515 4.82906 -0.682153 0
M  V30 6603 H 629.52 4.62184 -2.97768 0
M  V30 6604 H 630.745 5.7489 -3.61494 0
M  V30 6605 H 628.691 6.39416 -1.4657 0
M  V30 6606 H 628.608 6.8833 -3.12631 0
M  V30 6607 H 629.876 7.50352 -2.11169 0
M  V30 6608 N 634.105 1.10431 1.1244 0
M  V30 6609 C 635.055 0.722378 2.16254 0
M  V30 6610 C 636.039 -0.268427 1.58645 0
M  V30 6611 O 637.231 -0.077169 1.76832 0
M  V30 6612 C 634.36 0.155763 3.42946 0
M  V30 6613 C 633.446 1.17361 4.07538 0
M  V30 6614 N 633.837 2.36429 4.47141 0
M  V30 6615 C 632.135 1.01412 4.34317 0
M  V30 6616 C 632.836 3.01259 4.97612 0
M  V30 6617 N 631.812 2.28777 4.93115 0
M  V30 6618 H 635.614 1.62876 2.4464 0
M  V30 6619 H 633.128 0.982031 1.29344 0
M  V30 6620 H 635.125 -0.135936 4.16678 0
M  V30 6621 H 633.785 -0.745339 3.1603 0
M  V30 6622 H 634.796 2.73954 4.39511 0
M  V30 6623 H 631.473 0.168574 4.1716 0
M  V30 6624 H 632.863 4.02541 5.37968 0
M  V30 6625 N 635.583 -1.29855 0.893053 0
M  V30 6626 C 636.513 -2.3035 0.382249 0
M  V30 6627 C 637.494 -1.61328 -0.539203 0
M  V30 6628 O 638.679 -1.88882 -0.451342 0
M  V30 6629 C 635.809 -3.45024 -0.396983 0
M  V30 6630 C 634.763 -4.258 0.433437 0
M  V30 6631 C 634.089 -5.32605 -0.472889 0
M  V30 6632 C 635.389 -4.94549 1.67984 0
M  V30 6633 H 637.083 -2.73325 1.22205 0
M  V30 6634 H 634.629 -1.314 0.589073 0
M  V30 6635 H 636.582 -4.14398 -0.765024 0
M  V30 6636 H 635.306 -3.00875 -1.2705 0
M  V30 6637 H 633.965 -3.58125 0.783723 0
M  V30 6638 H 633.613 -4.84702 -1.34435 0
M  V30 6639 H 633.313 -5.87547 0.0789958 0
M  V30 6640 H 634.837 -6.04832 -0.837269 0
M  V30 6641 H 636.251 -5.56395 1.38192 0
M  V30 6642 H 634.648 -5.59393 2.17254 0
M  V30 6643 H 635.718 -4.20215 2.41965 0
M  V30 6644 N 637.061 -0.65484 -1.43351 0
M  V30 6645 C 637.971 0.0363603 -2.34572 0
M  V30 6646 C 638.987 0.810432 -1.53974 0
M  V30 6647 O 640.163 0.757308 -1.86619 0
M  V30 6648 C 637.228 0.989733 -3.32273 0
M  V30 6649 C 636.289 0.212414 -4.28774 0
M  V30 6650 C 635.522 1.12038 -5.21808 0
M  V30 6651 O 635.745 2.35967 -5.19303 0
M  V30 6652 O 634.679 0.59191 -5.98982 0
M  V30 6653 H 638.505 -0.714527 -2.95175 0
M  V30 6654 H 636.09 -0.415029 -1.4352 0
M  V30 6655 H 637.972 1.53759 -3.92347 0
M  V30 6656 H 636.647 1.72082 -2.74171 0
M  V30 6657 H 635.554 -0.379062 -3.72175 0
M  V30 6658 H 636.887 -0.479138 -4.89862 0
M  V30 6659 N 638.539 1.52521 -0.396863 0
M  V30 6660 C 639.487 2.28217 0.44943 0
M  V30 6661 C 640.481 1.32416 1.05652 0
M  V30 6662 O 641.687 1.49925 0.996124 0
M  V30 6663 H 638.062 0.733966 0.1637 0
M  V30 6664 H 640.033 2.97658 -0.210367 0
M  V30 6665 C 638.782 3.10713 1.56054 0
M  V30 6666 H 638.105 3.84291 1.10273 0
M  V30 6667 H 639.545 3.66803 2.12677 0
M  V30 6668 C 638.004 2.23499 2.52091 0
M  V30 6669 O 638.534 1.8669 3.55682 0
M  V30 6670 N 636.74 1.8751 2.2201 0
M  V30 6671 H 636.287 2.17643 1.37802 0
M  V30 6672 H 636.245 1.29448 2.86514 0
M  V30 6673 N 640.017 0.126909 1.57088 0
M  V30 6674 C 640.927 -0.833867 2.1928 0
M  V30 6675 C 641.943 -1.2868 1.17122 0
M  V30 6676 O 643.119 -1.34815 1.49622 0
M  V30 6677 C 640.184 -2.0632 2.78627 0
M  V30 6678 C 639.245 -1.66143 3.95847 0
M  V30 6679 C 638.478 -2.83217 4.52354 0
M  V30 6680 O 638.701 -3.98868 4.0775 0
M  V30 6681 O 637.635 -2.59846 5.42922 0
M  V30 6682 H 641.461 -0.334564 3.01852 0
M  V30 6683 H 639.046 -0.0991091 1.49071 0
M  V30 6684 H 640.928 -2.78304 3.16425 0
M  V30 6685 H 639.603 -2.55242 1.99082 0
M  V30 6686 H 638.51 -0.912435 3.62802 0
M  V30 6687 H 639.843 -1.21957 4.76852 0
M  V30 6688 N 641.495 -1.56914 -0.146875 0
M  V30 6689 C 642.427 -1.94878 -1.20645 0
M  V30 6690 C 643.44 -0.844633 -1.39175 0
M  V30 6691 O 644.629 -1.12304 -1.38744 0
M  V30 6692 C 641.729 -2.20769 -2.57127 0
M  V30 6693 C 640.902 -3.52053 -2.59572 0
M  V30 6694 C 639.961 -3.66482 -3.77594 0
M  V30 6695 O 638.987 -4.38873 -3.62462 0
M  V30 6696 N 640.189 -3.03156 -4.95052 0
M  V30 6697 H 642.954 -2.86374 -0.883757 0
M  V30 6698 H 640.515 -1.58366 -0.336436 0
M  V30 6699 H 642.507 -2.27664 -3.34591 0
M  V30 6700 H 641.077 -1.35538 -2.81688 0
M  V30 6701 H 640.297 -3.56598 -1.68023 0
M  V30 6702 H 641.585 -4.38396 -2.58238 0
M  V30 6703 H 640.983 -2.44258 -5.10249 0
M  V30 6704 H 639.54 -3.15611 -5.70292 0
M  V30 6705 N 642.974 0.416227 -1.52004 0
M  V30 6706 C 643.921 1.50666 -1.74838 0
M  V30 6707 C 644.891 1.55245 -0.590599 0
M  V30 6708 O 646.076 1.71928 -0.827374 0
M  V30 6709 C 643.216 2.88185 -1.89851 0
M  V30 6710 C 642.329 2.92971 -3.17478 0
M  V30 6711 C 641.464 4.21745 -3.22962 0
M  V30 6712 C 640.503 4.20478 -4.4482 0
M  V30 6713 N 639.64 5.40811 -4.47736 0
M  V30 6714 H 644.48 1.30498 -2.67907 0
M  V30 6715 H 642.017 0.633568 -1.32757 0
M  V30 6716 H 643.975 3.68007 -1.96537 0
M  V30 6717 H 642.605 3.06865 -1.00169 0
M  V30 6718 H 641.657 2.05684 -3.19997 0
M  V30 6719 H 642.969 2.87899 -4.07328 0
M  V30 6720 H 642.123 5.09954 -3.28682 0
M  V30 6721 H 640.862 4.29503 -2.31038 0
M  V30 6722 H 639.867 3.30659 -4.39254 0
M  V30 6723 H 641.092 4.14366 -5.38031 0
M  V30 6724 H 639.038 5.4925 -3.58692 0
M  V30 6725 H 638.955 5.37705 -5.31422 0
M  V30 6726 H 640.223 6.30993 -4.57676 0
M  V30 6727 N 644.452 1.42507 0.673017 0
M  V30 6728 C 645.415 1.4582 1.76831 0
M  V30 6729 C 646.415 0.345542 1.57043 0
M  V30 6730 O 647.605 0.606447 1.63303 0
M  V30 6731 C 644.737 1.29158 3.15485 0
M  V30 6732 H 645.93 2.43345 1.7528 0
M  V30 6733 H 643.483 1.28981 0.882817 0
M  V30 6734 H 644.218 0.325626 3.22661 0
M  V30 6735 H 644.003 2.09797 3.31252 0
M  V30 6736 H 645.493 1.34363 3.95394 0
M  V30 6737 N 645.93 -0.909495 1.28709 0
M  V30 6738 C 647.346 -1.18862 1.06508 0
M  V30 6739 C 647.546 -2.00604 -0.189864 0
M  V30 6740 O 646.602 -2.36281 -0.890355 0
M  V30 6741 C 647.915 -1.91908 2.31499 0
M  V30 6742 C 649.463 -2.04773 2.36721 0
M  V30 6743 C 649.938 -2.81228 3.6149 0
M  V30 6744 N 651.429 -2.88787 3.62155 0
M  V30 6745 C 652.164 -3.48455 4.55375 0
M  V30 6746 N 651.66 -4.09369 5.58918 0
M  V30 6747 N 653.453 -3.46035 4.42963 0
M  V30 6748 H 645.604 -0.363867 2.0926 0
M  V30 6749 H 647.867 -0.223649 0.921241 0
M  V30 6750 H 647.573 -1.39275 3.22948 0
M  V30 6751 H 647.447 -2.92436 2.38245 0
M  V30 6752 H 649.834 -2.56585 1.45767 0
M  V30 6753 H 649.915 -1.03408 2.33967 0
M  V30 6754 H 649.559 -2.30094 4.5279 0
M  V30 6755 H 649.489 -3.82917 3.61499 0
M  V30 6756 H 651.98 -2.45514 2.87283 0
M  V30 6757 H 652.293 -4.52891 6.26187 0
M  V30 6758 H 650.638 -4.0786 5.62739 0
M  V30 6759 H 653.829 -2.9766 3.6127 0
M  V30 6760 H 654.002 -3.92244 5.15799 0
M  V30 6761 N 647.408 -1.11026 -1.11852 0
M  V30 6762 C 648.656 -0.854769 -1.83134 0
M  V30 6763 C 648.977 0.621375 -1.84835 0
M  V30 6764 O 648.247 1.45129 -1.31584 0
M  V30 6765 H 646.827 -0.313229 -0.678157 0
M  V30 6766 H 649.489 -1.40178 -1.35411 0
M  V30 6767 H 648.585 -1.22311 -2.87135 0
M  V30 6768 N 648.886 1.2938 -0.899927 0
M  V30 6769 C 650.134 1.95164 -0.524924 0
M  V30 6770 C 650.455 1.71292 0.931888 0
M  V30 6771 O 649.725 1.04481 1.65712 0
M  V30 6772 H 648.305 0.722133 -0.191135 0
M  V30 6773 H 650.967 1.57628 -1.14627 0
M  V30 6774 H 650.063 3.0397 -0.707711 0
M  V30 6775 N 650.364 0.662433 1.43002 0
M  V30 6776 C 651.604 0.183312 2.03576 0
M  V30 6777 C 651.968 -1.18354 1.51183 0
M  V30 6778 O 653.169 -1.7566 2.03462 0
M  V30 6779 C 651.44 0.202908 3.56824 0
M  V30 6780 S 652.999 -0.20702 4.38311 0
M  V30 6781 H 649.817 0.0765001 0.706872 0
M  V30 6782 H 652.419 0.872827 1.74934 0
M  V30 6783 H 651.123 1.20028 3.92456 0
M  V30 6784 H 650.654 -0.506845 3.90121 0
M  V30 6785 H 652.669 -1.44358 4.74737 0
M  V30 6786 N 651.842 -1.52309 0.404946 0
M  V30 6787 C 653.253 -1.86585 -0.0655926 0
M  V30 6788 C 653.604 -1.3239 -1.44801 0
M  V30 6789 O 652.729 -0.6615 -2.06042 0
M  V30 6790 C 653.324 -3.38566 -0.125801 0
M  V30 6791 C 651.883 -3.72497 -0.540666 0
M  V30 6792 C 651.03 -2.75806 0.287487 0
M  V30 6793 H 653.981 -1.45995 0.622185 0
M  V30 6794 H 654.002 -3.68658 -0.941888 0
M  V30 6795 H 653.514 -3.77981 0.880473 0
M  V30 6796 H 651.615 -3.38659 -1.55373 0
M  V30 6797 H 651.728 -4.78234 -0.287956 0
M  V30 6798 H 650.092 -2.53474 -0.249561 0
M  V30 6799 H 650.875 -3.18059 1.29203 0
M  V30 6800 N 653.32 -0.135238 -1.57019 0
M  V30 6801 C 654.283 0.794707 -2.14981 0
M  V30 6802 C 655.283 1.18342 -1.08866 0
M  V30 6803 O 656.473 1.10627 -1.34563 0
M  V30 6804 C 653.605 2.07685 -2.70333 0
M  V30 6805 H 654.798 0.290696 -2.98488 0
M  V30 6806 H 652.351 0.114128 -1.55883 0
M  V30 6807 H 653.086 2.6248 -1.9046 0
M  V30 6808 H 652.871 1.80745 -3.47957 0
M  V30 6809 H 654.361 2.74127 -3.1503 0
M  V30 6810 N 654.798 1.5699 0.138552 0
M  V30 6811 C 656.075 1.74741 0.87891 0
M  V30 6812 C 656.455 0.705522 1.98961 0
M  V30 6813 O 655.803 -0.274066 2.2685 0
M  V30 6814 C 656.013 3.1909 1.4136 0
M  V30 6815 C 657.361 3.81023 1.87368 0
M  V30 6816 O 658.385 3.22571 1.51084 0
M  V30 6817 O 657.244 4.83722 2.54312 0
M  V30 6818 H 654.338 0.714781 0.415953 0
M  V30 6819 H 656.884 1.69248 0.123817 0
M  V30 6820 H 655.656 3.86424 0.61579 0
M  V30 6821 H 655.279 3.29043 2.23196 0
M  V30 6822 N 656.276 -0.40816 1.52223 0
M  V30 6823 C 657.522 -1.15347 1.67531 0
M  V30 6824 C 657.877 -1.8818 0.400748 0
M  V30 6825 O 657.17 -1.81803 -0.604845 0
M  V30 6826 C 657.364 -2.17422 2.83659 0
M  V30 6827 C 657.193 -1.54611 4.22286 0
M  V30 6828 C 655.963 -1.31841 4.87797 0
M  V30 6829 C 658.161 -1.00648 5.04355 0
M  V30 6830 N 656.143 -0.649338 6.10456 0
M  V30 6831 C 657.514 -0.464384 6.18258 0
M  V30 6832 C 659.569 -0.901041 4.89679 0
M  V30 6833 C 658.272 0.172825 7.19092 0
M  V30 6834 C 660.298 -0.277684 5.90748 0
M  V30 6835 C 659.66 0.253734 7.03943 0
M  V30 6836 H 655.759 -0.408722 0.666686 0
M  V30 6837 H 658.343 -0.445713 1.8953 0
M  V30 6838 H 656.514 -2.85554 2.63274 0
M  V30 6839 H 658.246 -2.84321 2.87999 0
M  V30 6840 H 655.001 -1.58819 4.46176 0
M  V30 6841 H 655.425 -0.3314 6.76188 0
M  V30 6842 H 660.067 -1.29772 4.02392 0
M  V30 6843 H 657.785 0.581564 8.06005 0
M  V30 6844 H 661.371 -0.197605 5.81464 0
M  V30 6845 H 660.251 0.728482 7.80809 0
M  V30 6846 N 657.755 -1.42862 -0.66545 0
M  V30 6847 C 658.718 -1.46756 -1.76055 0
M  V30 6848 C 659.718 -0.353866 -1.56858 0
M  V30 6849 O 660.908 -0.615099 -1.62979 0
M  V30 6850 C 658.04 -1.30829 -3.14796 0
M  V30 6851 H 659.233 -2.44271 -1.73987 0
M  V30 6852 H 656.786 -1.29447 -0.875965 0
M  V30 6853 H 657.521 -0.342733 -3.22484 0
M  V30 6854 H 657.306 -2.11551 -3.30134 0
M  V30 6855 H 658.796 -1.36458 -3.94676 0
M  V30 6856 N 659.233 0.902656 -1.29189 0
M  V30 6857 C 660.479 1.6555 -1.18172 0
M  V30 6858 C 660.834 1.90569 0.264788 0
M  V30 6859 O 660.127 1.50292 1.1884 0
M  V30 6860 C 660.321 3.011 -1.92545 0
M  V30 6861 C 660.15 2.89312 -3.4428 0
M  V30 6862 C 658.92 2.90239 -4.1363 0
M  V30 6863 C 661.118 2.6656 -4.3983 0
M  V30 6864 N 659.1 2.69156 -5.5175 0
M  V30 6865 C 660.471 2.54429 -5.6539 0
M  V30 6866 C 662.526 2.51644 -4.29627 0
M  V30 6867 C 661.229 2.289 -6.81907 0
M  V30 6868 C 663.255 2.27498 -5.45892 0
M  V30 6869 C 662.617 2.16129 -6.70423 0
M  V30 6870 H 658.716 0.611519 -0.48741 0
M  V30 6871 H 661.3 1.06514 -1.62981 0
M  V30 6872 H 659.471 3.58202 -1.50154 0
M  V30 6873 H 661.203 3.65471 -1.73818 0
M  V30 6874 H 657.958 3.01412 -3.65305 0
M  V30 6875 H 658.382 2.61676 -6.24383 0
M  V30 6876 H 663.024 2.59178 -3.34045 0
M  V30 6877 H 660.742 2.20104 -7.77547 0
M  V30 6878 H 664.328 2.16805 -5.39895 0
M  V30 6879 H 663.208 1.97703 -7.5887 0
M  V30 6880 N 660.711 1.11618 1.11262 0
M  V30 6881 C 661.96 0.860934 1.82403 0
M  V30 6882 C 662.273 -0.615303 1.8567 0
M  V30 6883 O 663.479 -0.986861 2.52929 0
M  V30 6884 C 661.935 1.49048 3.27586 0
M  V30 6885 C 661.543 3.00089 3.32642 0
M  V30 6886 C 663.287 1.31515 4.03614 0
M  V30 6887 C 661.194 3.56019 4.72234 0
M  V30 6888 H 660.124 0.318423 0.683464 0
M  V30 6889 H 662.775 1.34165 1.25188 0
M  V30 6890 H 661.157 0.937434 3.84744 0
M  V30 6891 H 662.331 3.61813 2.85356 0
M  V30 6892 H 660.646 3.16919 2.70096 0
M  V30 6893 H 663.243 1.70732 5.0671 0
M  V30 6894 H 663.586 0.257917 4.155 0
M  V30 6895 H 664.119 1.83694 3.52848 0
M  V30 6896 H 660.858 4.61463 4.65545 0
M  V30 6897 H 660.378 2.99066 5.19923 0
M  V30 6898 H 662.057 3.54568 5.41193 0
M  V30 6899 N 662.189 -1.289 0.906776 0
M  V30 6900 C 663.435 -1.95558 0.53712 0
M  V30 6901 C 663.768 -1.71262 -0.915582 0
M  V30 6902 O 663.043 -1.02961 -1.65013 0
M  V30 6903 C 663.326 -3.50198 0.838645 0
M  V30 6904 C 663.179 -3.83923 2.34357 0
M  V30 6905 C 664.498 -4.38861 0.329988 0
M  V30 6906 H 661.617 -0.710289 0.196617 0
M  V30 6907 H 664.259 -1.52392 1.13475 0
M  V30 6908 H 662.409 -3.87096 0.330024 0
M  V30 6909 H 664.081 -3.56933 2.92227 0
M  V30 6910 H 662.324 -3.31215 2.80141 0
M  V30 6911 H 662.995 -4.91883 2.5051 0
M  V30 6912 H 665.471 -4.08996 0.765609 0
M  V30 6913 H 664.347 -5.45931 0.570105 0
M  V30 6914 H 664.608 -4.35352 -0.769511 0
M  V30 6915 N 663.667 -0.670007 -1.42649 0
M  V30 6916 C 665.078 -0.268118 -1.84765 0
M  V30 6917 C 665.429 1.18877 -1.56086 0
M  V30 6918 O 664.554 1.90947 -1.01825 0
M  V30 6919 C 665.149 -0.47984 -3.35385 0
M  V30 6920 C 663.708 -0.132116 -3.76168 0
M  V30 6921 C 662.855 -0.774611 -2.66261 0
M  V30 6922 H 665.806 -0.872509 -1.32563 0
M  V30 6923 H 665.827 0.269522 -3.79544 0
M  V30 6924 H 665.339 -1.54026 -3.56227 0
M  V30 6925 H 663.44 0.92505 -3.60934 0
M  V30 6926 H 663.553 -0.569294 -4.75706 0
M  V30 6927 H 661.917 -0.206353 -2.53863 0
M  V30 6928 H 662.7 -1.83839 -2.89928 0
M  V30 6929 N 665.145 1.52092 -0.413018 0
M  V30 6930 C 666.556 1.86617 0.0556967 0
M  V30 6931 C 666.907 1.33156 1.44097 0
M  V30 6932 O 666.032 0.672417 2.05688 0
M  V30 6933 C 666.627 3.38628 0.107844 0
M  V30 6934 C 665.186 3.72778 0.520904 0
M  V30 6935 C 664.333 2.75649 -0.302109 0
M  V30 6936 H 667.284 1.45663 -0.629919 0
M  V30 6937 H 667.305 3.69152 0.922324 0
M  V30 6938 H 666.817 3.77508 -0.900506 0
M  V30 6939 H 664.918 3.39478 1.53575 0
M  V30 6940 H 665.031 4.7838 0.262591 0
M  V30 6941 H 663.395 2.53603 0.236115 0
M  V30 6942 H 664.178 3.17369 -1.30888 0
M  V30 6943 N 666.623 0.143563 1.56945 0
M  V30 6944 C 667.872 -0.50835 1.95189 0
M  V30 6945 C 668.185 -1.66239 1.03073 0
M  V30 6946 O 669.391 -2.3787 1.30882 0
M  V30 6947 C 667.847 -0.955735 3.46978 0
M  V30 6948 C 667.455 0.171183 4.47673 0
M  V30 6949 C 669.199 -1.57763 3.94095 0
M  V30 6950 C 667.106 -0.294279 5.90667 0
M  V30 6951 H 666.036 -0.193679 0.728701 0
M  V30 6952 H 668.687 0.227357 1.82086 0
M  V30 6953 H 667.069 -1.7466 3.55401 0
M  V30 6954 H 668.243 0.948049 4.50942 0
M  V30 6955 H 666.558 0.701273 4.10452 0
M  V30 6956 H 669.155 -1.93745 4.98364 0
M  V30 6957 H 669.498 -2.46531 3.35452 0
M  V30 6958 H 670.031 -0.851728 3.88575 0
M  V30 6959 H 666.77 0.557939 6.53121 0
M  V30 6960 H 666.29 -1.0371 5.90766 0
M  V30 6961 H 667.969 -0.747426 6.42668 0
M  V30 6962 N 668.101 -1.57061 -0.130224 0
M  V30 6963 C 669.326 -1.88802 -0.858409 0
M  V30 6964 C 669.751 -0.734353 -1.73173 0
M  V30 6965 O 669.109 0.315529 -1.78533 0
M  V30 6966 C 669.157 -3.19228 -1.67708 0
M  V30 6967 O 668.261 -3.04343 -2.78297 0
M  V30 6968 H 667.602 -0.619849 -0.238083 0
M  V30 6969 H 670.132 -2.04271 -0.115995 0
M  V30 6970 H 670.142 -3.51669 -2.06864 0
M  V30 6971 H 668.817 -4.02793 -1.0359 0
M  V30 6972 H 667.394 -2.83346 -2.42425 0
M  V30 6973 N 669.579 0.400081 -1.52437 0
M  V30 6974 C 670.827 1.14392 -1.6661 0
M  V30 6975 C 671.148 1.90792 -0.402927 0
M  V30 6976 O 670.418 1.87042 0.582425 0
M  V30 6977 H 668.998 0.425275 -0.614125 0
M  V30 6978 H 671.66 0.455076 -1.89513 0
M  V30 6979 H 670.756 1.85298 -2.51139 0
M  V30 6980 N 671.057 1.43213 0.657864 0
M  V30 6981 C 672.282 1.48227 1.45064 0
M  V30 6982 C 672.707 0.0999939 1.87834 0
M  V30 6983 O 672.065 -0.905269 1.57081 0
M  V30 6984 C 672.113 2.42931 2.6649 0
M  V30 6985 O 671.217 1.91237 3.6538 0
M  V30 6986 H 670.558 0.501551 0.435135 0
M  V30 6987 H 673.088 1.8808 0.805431 0
M  V30 6988 H 673.098 2.6008 3.1436 0
M  V30 6989 H 671.773 3.43348 2.34701 0
M  V30 6990 H 670.35 1.83726 3.24498 0
M  V30 6991 N 672.536 -0.895792 1.29666 0
M  V30 6992 C 673.466 -2.01673 1.17688 0
M  V30 6993 C 674.447 -1.69955 0.0701317 0
M  V30 6994 O 675.632 -1.9258 0.250289 0
M  V30 6995 C 672.762 -3.36568 0.856681 0
M  V30 6996 C 671.716 -3.82509 1.92017 0
M  V30 6997 C 671.042 -5.14574 1.4532 0
M  V30 6998 C 672.342 -4.02409 3.32963 0
M  V30 6999 H 674.036 -2.11953 2.11463 0
M  V30 7000 H 671.582 -1.01839 1.01807 0
M  V30 7001 H 673.535 -4.14498 0.759577 0
M  V30 7002 H 672.259 -3.26391 -0.116763 0
M  V30 7003 H 670.918 -3.068 2.00673 0
M  V30 7004 H 670.566 -5.00815 0.468325 0
M  V30 7005 H 670.266 -5.46283 2.16447 0
M  V30 7006 H 671.79 -5.9504 1.36968 0
M  V30 7007 H 673.204 -4.70808 3.27127 0
M  V30 7008 H 671.601 -4.45478 4.02082 0
M  V30 7009 H 672.671 -3.06616 3.75652 0
M  V30 7010 N 674.014 -1.12206 -1.10668 0
M  V30 7011 C 675.242 -0.898635 -1.86366 0
M  V30 7012 C 675.657 0.551991 -1.80551 0
M  V30 7013 O 675.014 1.38152 -1.19249 0
M  V30 7014 C 675.065 -1.36199 -3.34861 0
M  V30 7015 O 674.786 -2.75576 -3.40573 0
M  V30 7016 C 676.287 -1.17515 -4.2744 0
M  V30 7017 H 673.507 -0.321281 -0.589084 0
M  V30 7018 H 676.051 -1.49142 -1.39918 0
M  V30 7019 H 674.206 -0.81249 -3.78784 0
M  V30 7020 H 674.62 -2.95851 -4.33096 0
M  V30 7021 H 676.094 -1.54827 -5.29842 0
M  V30 7022 H 676.571 -0.115486 -4.39048 0
M  V30 7023 H 677.177 -1.71203 -3.89319 0
M  V30 7024 N 675.492 1.28418 -0.913599 0
M  V30 7025 C 676.903 1.77024 -0.593237 0
M  V30 7026 C 677.254 1.74779 0.891441 0
M  V30 7027 O 676.379 1.34237 1.69733 0
M  V30 7028 C 676.974 3.21456 -1.07011 0
M  V30 7029 C 675.533 3.67786 -0.800664 0
M  V30 7030 C 674.68 2.48185 -1.23691 0
M  V30 7031 H 677.631 1.14883 -1.09487 0
M  V30 7032 H 677.652 3.78269 -0.411481 0
M  V30 7033 H 677.164 3.23058 -2.1507 0
M  V30 7034 H 675.265 3.71644 0.266725 0
M  V30 7035 H 675.378 4.57934 -1.4083 0
M  V30 7036 H 673.742 2.46116 -0.655655 0
M  V30 7037 H 674.525 2.52506 -2.32585 0
M  V30 7038 N 676.97 0.677563 1.42291 0
M  V30 7039 C 678.216 0.201272 2.01799 0
M  V30 7040 C 678.549 -1.19004 1.53465 0
M  V30 7041 O 677.824 -1.79953 0.738039 0
M  V30 7042 C 678.107 0.238968 3.59306 0
M  V30 7043 C 677.96 1.66594 4.17812 0
M  V30 7044 C 679.279 -0.411287 4.38174 0
M  V30 7045 H 676.398 0.0746114 0.733214 0
M  V30 7046 H 679.04 0.862872 1.69276 0
M  V30 7047 H 677.19 -0.324368 3.87144 0
M  V30 7048 H 678.862 2.28173 4.00917 0
M  V30 7049 H 677.105 2.20576 3.73536 0
M  V30 7050 H 677.776 1.64398 5.26951 0
M  V30 7051 H 680.252 0.0682804 4.16044 0
M  V30 7052 H 679.128 -0.354286 5.47755 0
M  V30 7053 H 679.389 -1.4893 4.1626 0
M  V30 7054 N 678.448 -1.51871 0.421078 0
M  V30 7055 C 679.695 -2.01938 -0.15079 0
M  V30 7056 C 680.023 -1.30611 -1.44121 0
M  V30 7057 O 679.278 -0.404631 -1.91471 0
M  V30 7058 C 679.577 -3.54764 -0.433292 0
M  V30 7059 C 679.243 -4.44288 0.76936 0
M  V30 7060 C 677.905 -4.68477 1.09921 0
M  V30 7061 C 680.257 -4.96915 1.57242 0
M  V30 7062 C 677.585 -5.4254 2.2331 0
M  V30 7063 C 679.937 -5.7222 2.69716 0
M  V30 7064 C 678.601 -5.94678 3.03174 0
M  V30 7065 H 677.871 -0.738943 -0.0551781 0
M  V30 7066 H 680.518 -1.82977 0.564945 0
M  V30 7067 H 678.823 -3.71968 -1.23074 0
M  V30 7068 H 680.52 -3.91023 -0.888922 0
M  V30 7069 H 677.11 -4.25646 0.502305 0
M  V30 7070 H 681.294 -4.78125 1.3308 0
M  V30 7071 H 676.55 -5.58146 2.49565 0
M  V30 7072 H 680.724 -6.11992 3.32323 0
M  V30 7073 H 678.351 -6.51848 3.9115 0
M  V30 7074 N 679.926 -0.151884 -1.56866 0
M  V30 7075 C 680.876 0.797799 -2.13586 0
M  V30 7076 C 681.86 1.20613 -1.06496 0
M  V30 7077 O 683.052 1.17173 -1.32663 0
M  V30 7078 C 680.181 2.03493 -2.76488 0
M  V30 7079 C 679.267 1.64948 -3.90708 0
M  V30 7080 N 679.658 0.972513 -4.96363 0
M  V30 7081 C 677.956 1.94186 -4.01507 0
M  V30 7082 C 678.657 0.785661 -5.7637 0
M  V30 7083 N 677.633 1.32105 -5.27304 0
M  V30 7084 H 681.435 0.271403 -2.92644 0
M  V30 7085 H 678.949 0.049487 -1.62325 0
M  V30 7086 H 680.946 2.72532 -3.15487 0
M  V30 7087 H 679.606 2.56646 -1.98904 0
M  V30 7088 H 680.617 0.632724 -5.1402 0
M  V30 7089 H 677.294 2.49154 -3.35005 0
M  V30 7090 H 678.684 0.251749 -6.71428 0
M  V30 7091 N 681.404 1.57128 0.121893 0
M  V30 7092 C 682.336 1.96773 1.17529 0
M  V30 7093 C 683.349 0.866668 1.37814 0
M  V30 7094 O 684.538 1.14497 1.3694 0
M  V30 7095 C 681.638 2.24832 2.53582 0
M  V30 7096 C 680.811 3.56138 2.53939 0
M  V30 7097 C 679.87 3.72443 3.71716 0
M  V30 7098 O 678.896 4.44584 3.55434 0
M  V30 7099 N 680.098 3.10993 4.90167 0
M  V30 7100 H 682.863 2.87743 0.838086 0
M  V30 7101 H 680.424 1.58881 0.311199 0
M  V30 7102 H 682.416 2.32958 3.30927 0
M  V30 7103 H 680.986 1.40002 2.79496 0
M  V30 7104 H 680.206 3.59226 1.62329 0
M  V30 7105 H 681.494 4.42448 2.51231 0
M  V30 7106 H 680.892 2.52345 5.06299 0
M  V30 7107 H 679.449 3.24644 5.65198 0
M  V30 7108 N 682.882 -0.391992 1.52647 0
M  V30 7109 C 683.792 -1.503 1.80131 0
M  V30 7110 C 684.808 -1.59825 0.687882 0
M  V30 7111 O 685.984 -1.76218 0.975149 0
M  V30 7112 C 683.049 -2.85863 1.96171 0
M  V30 7113 C 682.11 -2.86084 3.20085 0
M  V30 7114 C 681.343 -4.15181 3.35351 0
M  V30 7115 O 681.566 -5.09981 2.55491 0
M  V30 7116 O 680.5 -4.22603 4.28591 0
M  V30 7117 H 684.326 -1.30007 2.74466 0
M  V30 7118 H 681.911 -0.579539 1.37701 0
M  V30 7119 H 683.793 -3.66236 2.08445 0
M  V30 7120 H 682.468 -3.06189 1.05025 0
M  V30 7121 H 681.375 -2.04504 3.13256 0
M  V30 7122 H 682.708 -2.7071 4.11068 0
M  V30 7123 N 684.36 -1.4356 -0.65026 0
M  V30 7124 C 685.293 -1.434 -1.77515 0
M  V30 7125 C 686.271 -0.295082 -1.599 0
M  V30 7126 O 687.455 -0.489128 -1.82043 0
M  V30 7127 C 684.582 -1.2484 -3.14853 0
M  V30 7128 C 683.628 -2.42046 -3.51163 0
M  V30 7129 S 684.461 -4.04595 -3.50803 0
M  V30 7130 C 685.617 -3.88424 -4.90793 0
M  V30 7131 H 685.85 -2.38586 -1.77381 0
M  V30 7132 H 683.383 -1.30627 -0.823169 0
M  V30 7133 H 685.341 -1.14819 -3.94115 0
M  V30 7134 H 684.002 -0.311977 -3.12547 0
M  V30 7135 H 683.195 -2.24873 -4.51052 0
M  V30 7136 H 682.797 -2.48708 -2.79321 0
M  V30 7137 H 685.089 -3.50932 -5.79528 0
M  V30 7138 H 686.032 -4.88076 -5.13018 0
M  V30 7139 H 686.44 -3.20829 -4.64467 0
M  V30 7140 N 685.838 0.888903 -1.30139 0
M  V30 7141 C 687.084 1.6428 -1.18912 0
M  V30 7142 C 687.417 1.92499 0.256477 0
M  V30 7143 O 686.692 1.54312 1.18397 0
M  V30 7144 C 686.975 2.9851 -2.01405 0
M  V30 7145 C 686.828 2.77288 -3.54163 0
M  V30 7146 C 688.147 3.99383 -1.84882 0
M  V30 7147 H 685.266 0.596148 -0.433333 0
M  V30 7148 H 687.908 1.0289 -1.5973 0
M  V30 7149 H 686.058 3.50907 -1.66722 0
M  V30 7150 H 687.73 2.31709 -3.98884 0
M  V30 7151 H 685.973 2.11867 -3.78543 0
M  V30 7152 H 686.644 3.72717 -4.07168 0
M  V30 7153 H 689.12 3.56132 -2.15196 0
M  V30 7154 H 687.996 4.91222 -2.44934 0
M  V30 7155 H 688.257 4.34674 -0.806902 0
M  V30 7156 N 687.317 1.12792 1.10072 0
M  V30 7157 C 688.265 0.794523 2.18609 0
M  V30 7158 C 689.259 -0.220271 1.67962 0
M  V30 7159 O 690.465 -0.0780938 1.79831 0
M  V30 7160 H 686.84 0.239123 0.712969 0
M  V30 7161 H 688.811 1.71823 2.43966 0
M  V30 7162 C 687.56 0.269548 3.46654 0
M  V30 7163 H 686.883 1.04171 3.8599 0
M  V30 7164 H 688.323 0.0746242 4.23934 0
M  V30 7165 C 686.782 -1.00333 3.21613 0
M  V30 7166 O 687.312 -2.08042 3.4363 0
M  V30 7167 N 685.518 -0.931763 2.75257 0
M  V30 7168 H 685.065 -0.0551197 2.57541 0
M  V30 7169 H 685.023 -1.78405 2.58881 0
M  V30 7170 N 688.795 -1.27931 0.920396 0
M  V30 7171 C 690.025 -1.98516 0.572256 0
M  V30 7172 C 690.433 -1.68912 -0.852375 0
M  V30 7173 O 689.776 -0.94203 -1.57707 0
M  V30 7174 C 689.838 -3.5243 0.709485 0
M  V30 7175 C 689.502 -4.0564 2.10489 0
M  V30 7176 C 690.499 -4.1897 3.07831 0
M  V30 7177 C 688.184 -4.40168 2.41986 0
M  V30 7178 C 690.178 -4.66093 4.34783 0
M  V30 7179 C 687.865 -4.86983 3.69176 0
M  V30 7180 C 688.863 -4.99903 4.65388 0
M  V30 7181 O 688.551 -5.45694 5.90316 0
M  V30 7182 H 688.283 -0.64047 0.216274 0
M  V30 7183 H 690.837 -1.6393 1.23758 0
M  V30 7184 H 689.067 -3.86698 -0.0129263 0
M  V30 7185 H 690.756 -4.04233 0.367474 0
M  V30 7186 H 691.522 -3.92562 2.84816 0
M  V30 7187 H 687.401 -4.29358 1.67846 0
M  V30 7188 H 690.945 -4.76092 5.09884 0
M  V30 7189 H 686.842 -5.12832 3.92012 0
M  V30 7190 H 687.61 -5.63965 5.932 0
M  V30 7191 N 690.273 -0.685099 -1.4193 0
M  V30 7192 C 691.52 -0.211658 -2.01391 0
M  V30 7193 C 691.848 1.18526 -1.54214 0
M  V30 7194 O 691.103 1.81189 -0.739519 0
M  V30 7195 C 691.402 -0.206154 -3.56805 0
M  V30 7196 C 691.068 -1.54915 -4.23453 0
M  V30 7197 C 689.73 -1.91684 -4.41373 0
M  V30 7198 C 692.082 -2.43317 -4.60919 0
M  V30 7199 C 689.41 -3.16461 -4.94034 0
M  V30 7200 C 691.762 -3.67415 -5.14965 0
M  V30 7201 C 690.426 -4.04341 -5.31098 0
M  V30 7202 H 689.696 -0.0774511 -0.736941 0
M  V30 7203 H 692.343 -0.882121 -1.69973 0
M  V30 7204 H 690.648 0.547841 -3.87951 0
M  V30 7205 H 692.345 0.17753 -4.00607 0
M  V30 7206 H 688.935 -1.25314 -4.09871 0
M  V30 7207 H 693.119 -2.16192 -4.46738 0
M  V30 7208 H 688.375 -3.45078 -5.04709 0
M  V30 7209 H 692.549 -4.3611 -5.42938 0
M  V30 7210 H 690.176 -5.01101 -5.71666 0
M  V30 7211 N 691.751 1.51645 -0.429126 0
M  V30 7212 C 692.681 2.30434 0.377148 0
M  V30 7213 C 693.662 1.35493 1.02838 0
M  V30 7214 O 694.847 1.6441 1.03359 0
M  V30 7215 C 691.977 3.14038 1.48315 0
M  V30 7216 C 690.931 4.1719 0.955855 0
M  V30 7217 C 690.257 4.89263 2.15698 0
M  V30 7218 C 691.557 5.223 -0.00402136 0
M  V30 7219 H 693.251 2.98085 -0.280336 0
M  V30 7220 H 690.797 1.43354 -0.136265 0
M  V30 7221 H 692.75 3.67933 2.05435 0
M  V30 7222 H 691.474 2.44193 2.16881 0
M  V30 7223 H 690.133 3.64335 0.406929 0
M  V30 7224 H 689.781 4.15929 2.82864 0
M  V30 7225 H 689.481 5.59009 1.81059 0
M  V30 7226 H 691.005 5.45978 2.73387 0
M  V30 7227 H 692.419 5.71315 0.476607 0
M  V30 7228 H 690.816 5.99525 -0.26258 0
M  V30 7229 H 691.886 4.75638 -0.943236 0
M  V30 7230 N 693.229 0.160201 1.56784 0
M  V30 7231 C 694.454 -0.497373 2.01348 0
M  V30 7232 C 694.879 -1.56757 1.03966 0
M  V30 7233 O 694.237 -1.81292 0.0174455 0
M  V30 7234 C 694.285 -1.0628 3.44582 0
M  V30 7235 O 693.389 -2.17723 3.50244 0
M  V30 7236 H 692.73 -0.120295 0.653012 0
M  V30 7237 H 695.26 0.260821 2.02931 0
M  V30 7238 H 695.27 -1.38819 3.83658 0
M  V30 7239 H 693.945 -0.279166 4.14962 0
M  V30 7240 H 692.522 -1.86313 3.2302 0
M  V30 7241 N 694.707 -1.5719 -0.113559 0
M  V30 7242 C 696.118 -1.74259 -0.670116 0
M  V30 7243 C 696.469 -0.779694 -1.80042 0
M  V30 7244 O 695.594 0.0461353 -2.16351 0
M  V30 7245 C 696.189 -3.15981 -1.22236 0
M  V30 7246 C 694.748 -3.34537 -1.72516 0
M  V30 7247 C 693.895 -2.70116 -0.627098 0
M  V30 7248 H 696.846 -1.58301 0.112396 0
M  V30 7249 H 696.867 -3.17832 -2.09197 0
M  V30 7250 H 696.379 -3.86038 -0.39949 0
M  V30 7251 H 694.48 -2.6953 -2.57263 0
M  V30 7252 H 694.593 -4.42737 -1.83086 0
M  V30 7253 H 692.957 -2.31501 -1.06204 0
M  V30 7254 H 693.74 -3.42802 0.184889 0
M  V30 7255 N 696.185 0.383891 -1.52853 0
M  V30 7256 C 697.148 1.45197 -1.77343 0
M  V30 7257 C 698.148 1.47362 -0.643522 0
M  V30 7258 O 699.338 1.48443 -0.911613 0
M  V30 7259 C 696.47 2.8445 -1.87885 0
M  V30 7260 H 697.663 1.24764 -2.72716 0
M  V30 7261 H 695.216 0.615939 -1.43652 0
M  V30 7262 H 695.951 3.10222 -0.94515 0
M  V30 7263 H 695.736 2.8428 -2.70051 0
M  V30 7264 H 697.226 3.61832 -2.08488 0
M  V30 7265 N 697.663 1.43903 0.642637 0
M  V30 7266 C 698.91 1.46079 1.40239 0
M  V30 7267 C 699.238 0.0890335 1.94296 0
M  V30 7268 O 698.493 -0.907533 1.73385 0
M  V30 7269 C 698.792 2.45907 2.59354 0
M  V30 7270 C 698.458 3.91522 2.23654 0
M  V30 7271 C 697.12 4.31179 2.1363 0
M  V30 7272 C 699.472 4.83242 1.95261 0
M  V30 7273 C 696.8 5.60495 1.73384 0
M  V30 7274 C 699.152 6.12933 1.56511 0
M  V30 7275 C 697.816 6.51556 1.4502 0
M  V30 7276 H 697.086 0.534542 0.513172 0
M  V30 7277 H 699.733 1.77047 0.72984 0
M  V30 7278 H 698.038 2.08381 3.3179 0
M  V30 7279 H 699.735 2.44842 3.17574 0
M  V30 7280 H 696.325 3.60142 2.32369 0
M  V30 7281 H 700.509 4.53367 2.0192 0
M  V30 7282 H 695.765 5.89249 1.63082 0
M  V30 7283 H 699.939 6.83469 1.33576 0
M  V30 7284 H 697.566 7.51663 1.13606 0
M  V30 7285 N 699.141 -0.881989 1.30609 0
M  V30 7286 C 700.557 -1.16576 1.09005 0
M  V30 7287 C 700.757 -2.00961 -0.14727 0
M  V30 7288 O 699.813 -2.38117 -0.840036 0
M  V30 7289 C 701.126 -1.86954 2.35518 0
M  V30 7290 C 702.674 -1.99706 2.41011 0
M  V30 7291 C 703.149 -2.73497 3.67374 0
M  V30 7292 N 704.64 -2.8104 3.68199 0
M  V30 7293 C 705.375 -3.38718 4.62664 0
M  V30 7294 N 704.871 -3.97421 5.67475 0
M  V30 7295 N 706.664 -3.36561 4.50203 0
M  V30 7296 H 698.815 -0.319398 2.09985 0
M  V30 7297 H 701.078 -0.204058 0.925778 0
M  V30 7298 H 700.784 -1.32393 3.2583 0
M  V30 7299 H 700.658 -2.87317 2.44395 0
M  V30 7300 H 703.045 -2.53436 1.51176 0
M  V30 7301 H 703.126 -0.984218 2.36108 0
M  V30 7302 H 702.77 -2.20438 4.57569 0
M  V30 7303 H 702.7 -3.75163 3.6954 0
M  V30 7304 H 705.191 -2.39365 2.92426 0
M  V30 7305 H 705.504 -4.39507 6.35652 0
M  V30 7306 H 703.849 -3.95832 5.71264 0
M  V30 7307 H 707.04 -2.8993 3.67503 0
M  V30 7308 H 707.213 -3.81215 5.24003 0
M  V30 7309 N 700.619 -1.13374 -1.09472 0
M  V30 7310 C 701.849 -0.917019 -1.85133 0
M  V30 7311 C 702.257 0.537568 -1.81402 0
M  V30 7312 O 701.6 1.38385 -1.20811 0
M  V30 7313 C 701.662 -1.32646 -3.34134 0
M  V30 7314 C 701.326 -2.79437 -3.61613 0
M  V30 7315 C 702.323 -3.77596 -3.57375 0
M  V30 7316 C 700.008 -3.16586 -3.89973 0
M  V30 7317 C 702.002 -5.10916 -3.81108 0
M  V30 7318 C 699.689 -4.50085 -4.13361 0
M  V30 7319 C 700.687 -5.47059 -4.0892 0
M  V30 7320 O 700.375 -6.78149 -4.31705 0
M  V30 7321 H 700.107 -0.326997 -0.591649 0
M  V30 7322 H 702.661 -1.51002 -1.39239 0
M  V30 7323 H 700.891 -0.676719 -3.80733 0
M  V30 7324 H 702.58 -1.08229 -3.91205 0
M  V30 7325 H 703.346 -3.50242 -3.35493 0
M  V30 7326 H 699.225 -2.41707 -3.92554 0
M  V30 7327 H 702.769 -5.86597 -3.77558 0
M  V30 7328 H 698.666 -4.77163 -4.34724 0
M  V30 7329 H 699.434 -6.84244 -4.49168 0
M  V30 7330 N 702.098 1.27442 -0.927168 0
M  V30 7331 C 703.03 2.25975 -0.383158 0
M  V30 7332 C 704.043 1.55382 0.485832 0
M  V30 7333 O 705.232 1.75986 0.298541 0
M  V30 7334 C 702.332 3.35629 0.469688 0
M  V30 7335 C 701.505 4.35747 -0.379886 0
M  V30 7336 C 700.564 5.24598 0.410227 0
M  V30 7337 O 699.59 5.68909 -0.181888 0
M  V30 7338 N 700.792 5.54737 1.71017 0
M  V30 7339 H 703.557 2.7329 -1.23015 0
M  V30 7340 H 701.118 1.41063 -0.794539 0
M  V30 7341 H 703.11 3.92015 1.00532 0
M  V30 7342 H 701.68 2.87919 1.21744 0
M  V30 7343 H 700.9 3.78634 -1.09682 0
M  V30 7344 H 702.188 4.99648 -0.960717 0
M  V30 7345 H 701.586 5.20594 2.21356 0
M  V30 7346 H 700.143 6.13824 2.19234 0
M  V30 7347 N 703.576 0.692616 1.41565 0
M  V30 7348 C 704.987 0.297478 1.84315 0
M  V30 7349 C 705.338 -1.16379 1.57957 0
M  V30 7350 O 704.463 -1.89303 1.0485 0
M  V30 7351 C 705.058 0.533136 3.34579 0
M  V30 7352 C 703.617 0.191944 3.7591 0
M  V30 7353 C 702.764 0.816873 2.64995 0
M  V30 7354 H 705.715 0.893488 1.31158 0
M  V30 7355 H 705.736 -0.209105 3.79925 0
M  V30 7356 H 705.248 1.59674 3.53731 0
M  V30 7357 H 703.349 -0.867512 3.6236 0
M  V30 7358 H 703.462 0.644902 4.7474 0
M  V30 7359 H 701.826 0.246715 2.53502 0
M  V30 7360 H 702.609 1.88429 2.86966 0
M  V30 7361 N 705.054 -1.51416 0.437162 0
M  V30 7362 C 706.331 -1.94682 -0.189292 0
M  V30 7363 C 706.711 -1.37581 -1.60108 0
M  V30 7364 O 706.059 -0.562815 -2.2146 0
M  V30 7365 C 706.269 -3.48599 -0.167201 0
M  V30 7366 C 707.617 -4.2296 -0.372856 0
M  V30 7367 O 708.641 -3.55354 -0.245323 0
M  V30 7368 O 707.5 -5.42895 -0.626693 0
M  V30 7369 H 704.594 -0.816708 -0.130063 0
M  V30 7370 H 707.14 -1.62316 0.495128 0
M  V30 7371 H 705.912 -3.82616 0.81981 0
M  V30 7372 H 705.535 -3.87406 -0.894537 0
M  V30 7373 N 706.532 -0.168513 -1.56696 0
M  V30 7374 C 707.943 0.348694 -1.83415 0
M  V30 7375 C 708.294 1.63257 -1.0882 0
M  V30 7376 O 707.419 2.13707 -0.340333 0
M  V30 7377 C 708.014 0.639423 -3.32711 0
M  V30 7378 C 706.573 1.10108 -3.59935 0
M  V30 7379 C 705.72 0.135464 -2.76969 0
M  V30 7380 H 708.671 -0.392829 -1.53761 0
M  V30 7381 H 708.692 1.49179 -3.50037 0
M  V30 7382 H 708.204 -0.295173 -3.86976 0
M  V30 7383 H 706.305 2.05088 -3.11079 0
M  V30 7384 H 706.418 1.01218 -4.68286 0
M  V30 7385 H 704.782 0.632286 -2.46727 0
M  V30 7386 H 705.565 -0.793104 -3.34013 0
M  V30 7387 N 708.01 1.57248 0.105221 0
M  V30 7388 C 709.256 1.86719 0.806692 0
M  V30 7389 C 709.611 0.758061 1.76837 0
M  V30 7390 O 708.904 -0.240812 1.90081 0
M  V30 7391 C 709.098 3.20437 1.58287 0
M  V30 7392 C 708.927 4.44252 0.697864 0
M  V30 7393 C 707.697 5.04104 0.347444 0
M  V30 7394 C 709.895 5.14299 0.00933014 0
M  V30 7395 N 707.877 6.1146 -0.546786 0
M  V30 7396 C 709.248 6.15528 -0.74336 0
M  V30 7397 C 711.303 4.97857 -0.0656505 0
M  V30 7398 C 710.006 7.02091 -1.56401 0
M  V30 7399 C 712.032 5.84919 -0.873167 0
M  V30 7400 C 711.394 6.8566 -1.61401 0
M  V30 7401 H 707.493 0.73329 0.271679 0
M  V30 7402 H 710.077 1.94575 0.0697152 0
M  V30 7403 H 708.248 3.13651 2.29079 0
M  V30 7404 H 709.98 3.37668 2.23075 0
M  V30 7405 H 706.735 4.68505 0.692817 0
M  V30 7406 H 707.159 6.69779 -0.986157 0
M  V30 7407 H 711.801 4.19919 0.492768 0
M  V30 7408 H 709.519 7.79427 -2.13353 0
M  V30 7409 H 713.105 5.74259 -0.933724 0
M  V30 7410 H 711.985 7.5186 -2.2288 0
M  V30 7411 N 709.488 -0.375779 1.53054 0
M  V30 7412 C 710.435 -1.45978 1.78771 0
M  V30 7413 C 711.405 -1.53625 0.631552 0
M  V30 7414 O 712.59 -1.69674 0.872667 0
M  V30 7415 C 709.73 -2.8305 1.97425 0
M  V30 7416 C 708.843 -2.84451 3.25134 0
M  V30 7417 C 707.978 -4.13034 3.34031 0
M  V30 7418 C 707.017 -4.08536 4.55812 0
M  V30 7419 N 706.154 -5.2875 4.61918 0
M  V30 7420 H 710.994 -1.23349 2.71273 0
M  V30 7421 H 708.531 -0.598147 1.3439 0
M  V30 7422 H 710.489 -3.62666 2.06225 0
M  V30 7423 H 709.119 -3.04101 1.0827 0
M  V30 7424 H 708.171 -1.97127 3.25338 0
M  V30 7425 H 709.483 -2.76998 4.14818 0
M  V30 7426 H 708.637 -5.0106 3.42087 0
M  V30 7427 H 707.376 -4.23226 2.42345 0
M  V30 7428 H 706.381 -3.18897 4.47867 0
M  V30 7429 H 707.606 -3.99955 5.48828 0
M  V30 7430 H 705.552 -5.39547 3.73129 0
M  V30 7431 H 705.469 -5.23426 5.45492 0
M  V30 7432 H 706.737 -6.18637 4.74245 0
M  V30 7433 N 710.966 -1.44241 -0.634997 0
M  V30 7434 C 712.214 -1.46531 -1.39187 0
M  V30 7435 C 712.535 -0.0976441 -1.94755 0
M  V30 7436 O 711.805 0.869528 -1.75545 0
M  V30 7437 H 710.385 -0.539544 -0.516625 0
M  V30 7438 H 713.047 -1.79989 -0.747655 0
M  V30 7439 H 712.143 -2.18848 -2.22513 0
M  V30 7440 N 712.444 0.87505 -1.31075 0
M  V30 7441 C 713.669 1.66583 -1.23551 0
M  V30 7442 C 714.094 1.87067 0.19686 0
M  V30 7443 O 713.452 1.40877 1.1412 0
M  V30 7444 C 713.5 3.01401 -1.97965 0
M  V30 7445 O 712.604 3.90923 -1.31351 0
M  V30 7446 H 711.945 0.508645 -0.426821 0
M  V30 7447 H 714.475 1.09139 -1.7306 0
M  V30 7448 H 714.485 3.51374 -2.07366 0
M  V30 7449 H 713.16 2.85812 -3.02133 0
M  V30 7450 H 711.737 3.49369 -1.30368 0
M  V30 7451 N 713.922 1.13953 1.08869 0
M  V30 7452 C 714.885 0.824991 2.13838 0
M  V30 7453 C 715.885 -0.168198 1.59918 0
M  V30 7454 O 717.075 0.0595778 1.74098 0
M  V30 7455 C 714.207 0.228938 3.4013 0
M  V30 7456 H 715.4 1.75521 2.43171 0
M  V30 7457 H 712.953 0.94492 1.24503 0
M  V30 7458 H 713.688 -0.710227 3.16427 0
M  V30 7459 H 713.473 0.944243 3.80561 0
M  V30 7460 H 714.963 0.0259223 4.17592 0
M  V30 7461 N 715.4 -1.26948 0.933913 0
M  V30 7462 C 716.363 -2.24889 0.442457 0
M  V30 7463 C 717.363 -1.54594 -0.442426 0
M  V30 7464 O 718.553 -1.72502 -0.242629 0
M  V30 7465 C 715.685 -3.3896 -0.363173 0
M  V30 7466 H 716.878 -2.69879 1.30787 0
M  V30 7467 H 714.431 -1.38978 0.715187 0
M  V30 7468 H 715.166 -2.99361 -1.24714 0
M  V30 7469 H 714.951 -3.9116 0.271366 0
M  V30 7470 H 716.441 -4.11739 -0.697186 0
M  V30 7471 N 716.879 -0.700114 -1.41195 0
M  V30 7472 C 717.826 -0.0376652 -2.30769 0
M  V30 7473 C 718.796 0.766544 -1.47354 0
M  V30 7474 O 719.981 0.73365 -1.76131 0
M  V30 7475 C 717.121 0.889452 -3.33441 0
M  V30 7476 C 716.234 0.076373 -4.31932 0
M  V30 7477 C 715.369 1.00155 -5.21673 0
M  V30 7478 C 714.408 0.181644 -6.1183 0
M  V30 7479 N 713.545 1.06087 -6.94039 0
M  V30 7480 H 718.385 -0.80726 -2.86858 0
M  V30 7481 H 715.922 -0.409798 -1.41277 0
M  V30 7482 H 717.88 1.44107 -3.91522 0
M  V30 7483 H 716.51 1.6254 -2.78892 0
M  V30 7484 H 715.562 -0.592223 -3.75762 0
M  V30 7485 H 716.874 -0.559076 -4.95657 0
M  V30 7486 H 716.028 1.62223 -5.8461 0
M  V30 7487 H 714.767 1.67085 -4.58186 0
M  V30 7488 H 713.772 -0.452085 -5.47938 0
M  V30 7489 H 714.997 -0.483925 -6.77374 0
M  V30 7490 H 712.943 1.7161 -6.33156 0
M  V30 7491 H 712.86 0.481094 -7.54468 0
M  V30 7492 H 714.128 1.66822 -7.6144 0
M  V30 7493 N 718.357 1.51182 -0.445186 0
M  V30 7494 C 719.605 2.01753 0.11841 0
M  V30 7495 C 719.926 1.33087 1.42523 0
M  V30 7496 O 719.196 0.467891 1.9023 0
M  V30 7497 H 717.776 0.745536 0.0467492 0
M  V30 7498 H 720.438 1.85765 -0.589688 0
M  V30 7499 H 719.534 3.10762 0.288665 0
M  V30 7500 N 719.835 0.176821 1.56605 0
M  V30 7501 C 721.063 -0.472828 2.01425 0
M  V30 7502 C 721.478 -1.56436 1.05703 0
M  V30 7503 O 720.835 -1.82405 0.058808 0
M  V30 7504 C 720.886 -1.04607 3.46034 0
M  V30 7505 O 720.607 0.00189608 4.381 0
M  V30 7506 C 722.108 -1.7734 4.06282 0
M  V30 7507 H 719.328 -0.120503 0.660091 0
M  V30 7508 H 721.872 0.280166 2.02572 0
M  V30 7509 H 720.027 -1.74953 3.45645 0
M  V30 7510 H 720.441 -0.422118 5.22799 0
M  V30 7511 H 721.915 -2.12703 5.09374 0
M  V30 7512 H 722.392 -2.67043 3.4869 0
M  V30 7513 H 722.998 -1.11623 4.10391 0
M  V30 7514 N 721.313 -1.57302 -0.09688 0
M  V30 7515 C 722.561 -1.8563 -0.799117 0
M  V30 7516 C 722.882 -0.765263 -1.79356 0
M  V30 7517 O 722.152 0.208657 -1.94786 0
M  V30 7518 H 720.732 -0.684937 -0.298111 0
M  V30 7519 H 723.394 -1.9474 -0.0789341 0
M  V30 7520 H 722.49 -2.82305 -1.3308 0
M  V30 7521 N 722.791 0.367657 -1.53252 0
M  V30 7522 C 724.04 1.10782 -1.68554 0
M  V30 7523 C 724.353 1.90523 -0.442765 0
M  V30 7524 O 725.559 2.6729 -0.47629 0
M  V30 7525 C 724.015 2.01863 -2.97959 0
M  V30 7526 C 723.623 1.27443 -4.29491 0
M  V30 7527 C 725.367 2.75883 -3.22628 0
M  V30 7528 C 723.274 2.17414 -5.49987 0
M  V30 7529 H 722.204 0.417272 -0.628013 0
M  V30 7530 H 724.855 0.368971 -1.79752 0
M  V30 7531 H 723.237 2.7947 -2.80558 0
M  V30 7532 H 724.411 0.549138 -4.57516 0
M  V30 7533 H 722.726 0.652935 -4.11249 0
M  V30 7534 H 725.323 3.43421 -4.09837 0
M  V30 7535 H 725.666 3.41138 -2.38601 0
M  V30 7536 H 726.199 2.0536 -3.40693 0
M  V30 7537 H 722.938 1.5674 -6.36485 0
M  V30 7538 H 722.458 2.87799 -5.26243 0
M  V30 7539 H 724.137 2.77019 -5.84696 0
M  V30 7540 N 724.269 1.44576 0.627338 0
M  V30 7541 C 725.497 1.51048 1.41394 0
M  V30 7542 C 725.912 0.136568 1.88305 0
M  V30 7543 O 725.269 -0.858251 1.6106 0
M  V30 7544 C 725.32 2.47837 2.63172 0
M  V30 7545 O 725.041 3.79887 2.18215 0
M  V30 7546 C 726.542 2.63811 3.56257 0
M  V30 7547 H 723.762 0.512171 0.4335 0
M  V30 7548 H 726.306 1.89576 0.766878 0
M  V30 7549 H 724.461 2.12433 3.23961 0
M  V30 7550 H 724.875 4.32177 2.97192 0
M  V30 7551 H 726.349 3.35554 4.38301 0
M  V30 7552 H 726.826 1.69169 4.05313 0
M  V30 7553 H 727.432 3.0013 3.01333 0
M  V30 7554 N 725.747 -0.868086 1.31537 0
M  V30 7555 C 727.163 -1.15414 1.10235 0
M  V30 7556 C 727.363 -2.01106 -0.125947 0
M  V30 7557 O 726.419 -2.38994 -0.814734 0
M  V30 7558 C 727.732 -1.84445 2.37488 0
M  V30 7559 C 729.28 -1.97139 2.43116 0
M  V30 7560 C 729.755 -2.69585 3.70254 0
M  V30 7561 N 731.246 -2.77119 3.71159 0
M  V30 7562 C 731.981 -3.33791 4.6623 0
M  V30 7563 N 731.477 -3.9138 5.71659 0
M  V30 7564 N 733.27 -3.31767 4.53747 0
M  V30 7565 H 725.421 -0.297109 2.10312 0
M  V30 7566 H 727.684 -0.194227 0.92789 0
M  V30 7567 H 727.39 -1.2893 3.27215 0
M  V30 7568 H 727.264 -2.84709 2.47428 0
M  V30 7569 H 729.651 -2.51818 1.53856 0
M  V30 7570 H 729.732 -0.95912 2.37138 0
M  V30 7571 H 729.376 -2.15572 4.59881 0
M  V30 7572 H 729.306 -3.71223 3.73499 0
M  V30 7573 H 731.797 -2.3625 2.94948 0
M  V30 7574 H 732.11 -4.3274 6.40278 0
M  V30 7575 H 730.455 -3.8975 5.7543 0
M  V30 7576 H 733.646 -2.86016 3.70557 0
M  V30 7577 H 733.819 -3.75636 5.28017 0
M  V30 7578 N 727.225 -1.14528 -1.08264 0
M  V30 7579 C 728.172 -0.833556 -2.15222 0
M  V30 7580 C 729.142 0.209539 -1.64773 0
M  V30 7581 O 730.327 0.0791388 -1.90636 0
M  V30 7582 C 727.467 -0.318799 -3.43624 0
M  V30 7583 C 726.58 -1.42237 -4.07913 0
M  V30 7584 C 725.715 -0.864704 -5.24115 0
M  V30 7585 C 724.754 -1.94585 -5.80347 0
M  V30 7586 N 723.891 -1.40525 -6.87893 0
M  V30 7587 H 728.731 -1.74965 -2.41228 0
M  V30 7588 H 726.268 -0.873169 -1.18381 0
M  V30 7589 H 728.226 -0.00213088 -4.172 0
M  V30 7590 H 726.856 0.560397 -3.17898 0
M  V30 7591 H 725.908 -1.8554 -3.32083 0
M  V30 7592 H 727.22 -2.23901 -4.45724 0
M  V30 7593 H 726.374 -0.500025 -6.04636 0
M  V30 7594 H 725.113 -0.0171219 -4.87697 0
M  V30 7595 H 724.118 -2.31946 -4.98479 0
M  V30 7596 H 725.343 -2.79704 -6.18823 0
M  V30 7597 H 723.289 -0.579873 -6.53432 0
M  V30 7598 H 723.206 -2.15825 -7.24538 0
M  V30 7599 H 724.474 -1.06852 -7.72142 0
M  V30 7600 N 728.703 1.26451 -0.940633 0
M  V30 7601 C 729.65 2.264 -0.448497 0
M  V30 7602 C 730.62 1.5866 0.491546 0
M  V30 7603 O 731.805 1.86389 0.407874 0
M  V30 7604 C 728.945 3.43956 0.280715 0
M  V30 7605 C 728.058 4.26374 -0.694937 0
M  V30 7606 C 727.193 5.31171 0.0554186 0
M  V30 7607 C 726.232 6.05266 -0.912091 0
M  V30 7608 N 725.369 7.01833 -0.193524 0
M  V30 7609 H 730.209 2.67869 -1.30576 0
M  V30 7610 H 727.746 1.31707 -0.655112 0
M  V30 7611 H 729.704 4.10941 0.71994 0
M  V30 7612 H 728.334 3.03403 1.10212 0
M  V30 7613 H 727.386 3.59183 -1.25267 0
M  V30 7614 H 728.698 4.77748 -1.43382 0
M  V30 7615 H 727.852 6.04166 0.553951 0
M  V30 7616 H 726.591 4.80634 0.827183 0
M  V30 7617 H 725.596 5.31099 -1.42175 0
M  V30 7618 H 726.821 6.57893 -1.68385 0
M  V30 7619 H 724.767 6.53607 0.559758 0
M  V30 7620 H 724.684 7.50957 -0.871744 0
M  V30 7621 H 725.952 7.78983 0.283932 0
M  V30 7622 N 730.181 0.707592 1.40822 0
M  V30 7623 C 731.409 0.253073 2.05346 0
M  V30 7624 C 731.824 -1.10218 1.53289 0
M  V30 7625 O 731.181 -1.69112 0.686105 0
M  V30 7626 C 731.232 0.215411 3.60858 0
M  V30 7627 O 730.953 1.51714 4.10992 0
M  V30 7628 C 732.454 -0.258636 4.42545 0
M  V30 7629 H 729.674 0.115256 0.661027 0
M  V30 7630 H 732.218 0.963555 1.80377 0
M  V30 7631 H 730.373 -0.445978 3.84824 0
M  V30 7632 H 730.787 1.41226 5.05129 0
M  V30 7633 H 732.261 -0.233849 5.51504 0
M  V30 7634 H 732.738 -1.2995 4.19535 0
M  V30 7635 H 733.344 0.372186 4.23668 0
M  V30 7636 N 731.66 -1.50943 0.453197 0
M  V30 7637 C 732.907 -2.02212 -0.107922 0
M  V30 7638 C 733.235 -1.33639 -1.41318 0
M  V30 7639 O 732.49 -0.445154 -1.9057 0
M  V30 7640 C 732.789 -3.55603 -0.357944 0
M  V30 7641 C 732.455 -4.42556 0.863427 0
M  V30 7642 C 731.117 -4.6604 1.19834 0
M  V30 7643 C 733.469 -4.93468 1.67747 0
M  V30 7644 C 730.797 -5.37681 2.34768 0
M  V30 7645 C 733.149 -5.6637 2.81793 0
M  V30 7646 C 731.813 -5.88113 3.1572 0
M  V30 7647 H 731.083 -0.739947 -0.0394916 0
M  V30 7648 H 733.73 -1.81738 0.60363 0
M  V30 7649 H 732.035 -3.74495 -1.15156 0
M  V30 7650 H 733.732 -3.92821 -0.805781 0
M  V30 7651 H 730.322 -4.24485 0.592478 0
M  V30 7652 H 734.506 -4.75194 1.43192 0
M  V30 7653 H 729.762 -5.52727 2.61348 0
M  V30 7654 H 733.936 -6.04806 3.45229 0
M  V30 7655 H 731.563 -6.43404 4.04889 0
M  V30 7656 N 733.138 -0.185124 -1.56509 0
M  V30 7657 C 734.085 0.739729 -2.18624 0
M  V30 7658 C 735.055 1.217 -1.13042 0
M  V30 7659 O 736.24 1.28268 -1.41251 0
M  V30 7660 C 733.38 1.95787 -2.84186 0
M  V30 7661 C 732.493 1.52289 -4.04267 0
M  V30 7662 C 731.628 2.69576 -4.57714 0
M  V30 7663 C 730.667 2.22636 -5.70175 0
M  V30 7664 N 729.804 3.33065 -6.18071 0
M  V30 7665 H 734.644 0.203269 -2.97306 0
M  V30 7666 H 732.181 0.0885946 -1.46833 0
M  V30 7667 H 734.139 2.67253 -3.20361 0
M  V30 7668 H 732.769 2.4678 -2.08085 0
M  V30 7669 H 731.821 0.704458 -3.7382 0
M  V30 7670 H 733.133 1.13843 -4.85635 0
M  V30 7671 H 732.287 3.4918 -4.96143 0
M  V30 7672 H 731.026 3.1129 -3.75433 0
M  V30 7673 H 730.031 1.41483 -5.31284 0
M  V30 7674 H 731.256 1.81964 -6.54267 0
M  V30 7675 H 729.202 3.74328 -5.38715 0
M  V30 7676 H 729.119 2.98756 -6.94464 0
M  V30 7677 H 730.387 4.12912 -6.61153 0
M  V30 7678 N 734.616 1.57351 0.0885366 0
M  V30 7679 C 735.526 2.05858 1.12516 0
M  V30 7680 C 736.542 0.984758 1.43452 0
M  V30 7681 O 737.718 1.29836 1.53963 0
M  V30 7682 C 734.783 2.47882 2.42395 0
M  V30 7683 C 733.844 3.69487 2.18582 0
M  V30 7684 C 733.077 4.09497 3.42268 0
M  V30 7685 O 733.3 3.49536 4.50755 0
M  V30 7686 O 732.234 5.02406 3.31469 0
M  V30 7687 H 736.06 2.94467 0.743146 0
M  V30 7688 H 733.645 1.46326 0.301507 0
M  V30 7689 H 735.527 2.75509 3.18862 0
M  V30 7690 H 734.202 1.62408 2.8001 0
M  V30 7691 H 733.109 3.46967 1.39875 0
M  V30 7692 H 734.442 4.55761 1.85857 0
M  V30 7693 N 736.094 -0.359525 1.53444 0
M  V30 7694 C 737.34 -1.10315 1.70172 0
M  V30 7695 C 737.673 -1.88788 0.455287 0
M  V30 7696 O 736.948 -1.86635 -0.547514 0
M  V30 7697 C 737.231 -2.05744 2.95536 0
M  V30 7698 C 737.084 -1.3084 4.3035 0
M  V30 7699 C 738.403 -3.05784 3.16518 0
M  V30 7700 H 735.522 -0.399662 0.619225 0
M  V30 7701 H 738.164 -0.383338 1.86093 0
M  V30 7702 H 736.314 -2.67125 2.82093 0
M  V30 7703 H 737.986 -0.721959 4.55615 0
M  V30 7704 H 736.229 -0.610283 4.29486 0
M  V30 7705 H 736.9 -2.00718 5.14214 0
M  V30 7706 H 739.376 -2.5451 3.29187 0
M  V30 7707 H 738.252 -3.69772 4.05659 0
M  V30 7708 H 738.513 -3.76289 2.32076 0
M  V30 7709 N 737.572 -1.44907 -0.619662 0
M  V30 7710 C 738.535 -1.52282 -1.71297 0
M  V30 7711 C 739.535 -0.40359 -1.55653 0
M  V30 7712 O 740.725 -0.666638 -1.6094 0
M  V30 7713 C 737.857 -1.40778 -3.10474 0
M  V30 7714 H 739.05 -2.49683 -1.66128 0
M  V30 7715 H 736.603 -1.32168 -0.834339 0
M  V30 7716 H 737.338 -0.445156 -3.2123 0
M  V30 7717 H 737.123 -2.21947 -3.23237 0
M  V30 7718 H 738.613 -1.48946 -3.90135 0
M  V30 7719 N 739.05 0.861098 -1.31996 0
M  V30 7720 C 739.998 1.99052 -1.20337 0
M  V30 7721 C 740.992 1.69045 -0.109623 0
M  V30 7722 O 742.198 1.77931 -0.272117 0
M  V30 7723 H 738.573 0.653064 -0.372843 0
M  V30 7724 H 740.544 2.06015 -2.15872 0
M  V30 7725 C 739.293 3.34846 -0.936663 0
M  V30 7726 H 738.616 3.58462 -1.77045 0
M  V30 7727 H 740.056 4.1444 -0.895302 0
M  V30 7728 C 738.515 3.34965 0.360607 0
M  V30 7729 O 739.045 3.7745 1.37456 0
M  V30 7730 N 737.251 2.88101 0.380296 0
M  V30 7731 H 736.798 2.53721 -0.445351 0
M  V30 7732 H 736.756 2.88563 1.24816 0
M  V30 7733 N 740.528 1.15101 1.07655 0
M  V30 7734 C 741.491 0.847625 2.12951 0
M  V30 7735 C 742.491 -0.151227 1.60087 0
M  V30 7736 O 743.681 0.0780399 1.74025 0
M  V30 7737 C 740.813 0.265 3.39868 0
M  V30 7738 H 742.006 1.7809 2.41296 0
M  V30 7739 H 739.559 0.958072 1.23494 0
M  V30 7740 H 740.294 -0.676625 3.17163 0
M  V30 7741 H 740.079 0.984554 3.79538 0
M  V30 7742 H 741.569 0.0702121 4.17541 0
M  V30 7743 N 742.006 -1.2595 0.947325 0
M  V30 7744 C 743.252 -1.9375 0.599064 0
M  V30 7745 C 743.585 -1.74088 -0.860632 0
M  V30 7746 O 742.86 -1.08158 -1.61654 0
M  V30 7747 C 743.143 -3.47353 0.949634 0
M  V30 7748 C 742.996 -3.76273 2.46452 0
M  V30 7749 C 744.315 -4.37589 0.469442 0
M  V30 7750 H 741.434 -0.703674 0.219115 0
M  V30 7751 H 744.076 -1.48705 1.18266 0
M  V30 7752 H 742.226 -3.8585 0.453008 0
M  V30 7753 H 743.898 -3.47455 3.03435 0
M  V30 7754 H 742.141 -3.22135 2.90537 0
M  V30 7755 H 742.812 -4.83664 2.66032 0
M  V30 7756 H 745.288 -4.06353 0.89534 0
M  V30 7757 H 744.164 -5.43841 0.7435 0
M  V30 7758 H 744.425 -4.37579 -0.630618 0
M  V30 7759 N 743.484 -0.715051 -1.40445 0
M  V30 7760 C 744.431 -0.0621393 -2.30716 0
M  V30 7761 C 745.401 0.750871 -1.48159 0
M  V30 7762 O 746.586 0.714928 -1.76899 0
M  V30 7763 C 743.726 0.854036 -3.34365 0
M  V30 7764 C 742.839 0.0305565 -4.31989 0
M  V30 7765 C 741.974 0.946162 -5.22706 0
M  V30 7766 C 741.013 0.116741 -6.11989 0
M  V30 7767 N 740.15 0.987194 -6.95125 0
M  V30 7768 H 744.99 -0.83764 -2.85985 0
M  V30 7769 H 742.527 -0.424759 -1.40834 0
M  V30 7770 H 744.485 1.39946 -3.93028 0
M  V30 7771 H 743.115 1.59572 -2.806 0
M  V30 7772 H 742.167 -0.632044 -3.75112 0
M  V30 7773 H 743.479 -0.611615 -4.95036 0
M  V30 7774 H 742.633 1.56014 -5.86297 0
M  V30 7775 H 741.372 1.62216 -4.59932 0
M  V30 7776 H 740.377 -0.510176 -5.47428 0
M  V30 7777 H 741.602 -0.555742 -6.76822 0
M  V30 7778 H 739.548 1.64885 -6.3494 0
M  V30 7779 H 739.465 0.401046 -7.54936 0
M  V30 7780 H 740.733 1.58737 -7.63166 0
M  V30 7781 N 744.962 1.50701 -0.461195 0
M  V30 7782 C 746.211 2.01458 0.0988277 0
M  V30 7783 C 746.524 1.34863 1.41673 0
M  V30 7784 O 747.73 1.76721 2.06111 0
M  V30 7785 C 746.186 3.59186 0.226648 0
M  V30 7786 C 745.794 4.34732 -1.08223 0
M  V30 7787 C 747.538 4.18015 0.73916 0
M  V30 7788 C 745.445 5.8422 -0.918747 0
M  V30 7789 H 744.375 0.7529 0.040709 0
M  V30 7790 H 747.026 1.736 -0.594589 0
M  V30 7791 H 745.408 3.83589 0.983621 0
M  V30 7792 H 746.582 4.22059 -1.84939 0
M  V30 7793 H 744.897 3.87466 -1.52509 0
M  V30 7794 H 747.494 5.27436 0.878347 0
M  V30 7795 H 747.837 3.78746 1.72793 0
M  V30 7796 H 748.37 3.9778 0.0398469 0
M  V30 7797 H 745.109 6.27944 -1.88059 0
M  V30 7798 H 744.629 5.99493 -0.191801 0
M  V30 7799 H 746.308 6.44382 -0.581405 0
M  V30 7800 N 746.441 0.193421 1.56409 0
M  V30 7801 C 747.666 -0.454552 2.02358 0
M  V30 7802 C 748.091 -1.54516 1.07268 0
M  V30 7803 O 747.449 -1.81214 0.0558962 0
M  V30 7804 C 747.497 -0.989469 3.46759 0
M  V30 7805 O 746.601 -2.10244 3.54783 0
M  V30 7806 H 745.942 -0.106417 0.655417 0
M  V30 7807 H 748.472 0.303807 2.02332 0
M  V30 7808 H 748.482 -1.30649 3.86516 0
M  V30 7809 H 747.157 -0.191083 4.15461 0
M  V30 7810 H 745.734 -1.79419 3.26899 0
M  V30 7811 N 747.919 -1.57396 -0.0801906 0
M  V30 7812 C 748.882 -2.02133 -1.0805 0
M  V30 7813 C 749.882 -0.91707 -1.32085 0
M  V30 7814 O 751.072 -1.18217 -1.27947 0
M  V30 7815 C 748.204 -2.39479 -2.42616 0
M  V30 7816 H 749.397 -2.91733 -0.6951 0
M  V30 7817 H 746.95 -1.52869 -0.325677 0
M  V30 7818 H 747.685 -1.52879 -2.86004 0
M  V30 7819 H 747.47 -3.20052 -2.26515 0
M  V30 7820 H 748.96 -2.74697 -3.14534 0
M  V30 7821 N 749.397 0.351382 -1.53633 0
M  V30 7822 C 750.622 1.11718 -1.74739 0
M  V30 7823 C 751.047 1.81829 -0.481657 0
M  V30 7824 O 750.405 1.72264 0.565233 0
M  V30 7825 C 750.453 2.11234 -2.92254 0
M  V30 7826 O 749.557 3.186 -2.61855 0
M  V30 7827 H 748.898 0.323482 -0.579875 0
M  V30 7828 H 751.428 0.404167 -2.00568 0
M  V30 7829 H 751.438 2.54591 -3.18822 0
M  V30 7830 H 750.113 1.59599 -3.84058 0
M  V30 7831 H 748.69 2.80115 -2.4615 0
M  V30 7832 N 750.875 1.45233 0.611969 0
M  V30 7833 C 751.805 1.5641 1.73373 0
M  V30 7834 C 752.786 0.415896 1.64937 0
M  V30 7835 O 753.971 0.638478 1.83404 0
M  V30 7836 C 751.101 1.52627 3.11965 0
M  V30 7837 C 750.055 2.66119 3.35208 0
M  V30 7838 C 749.381 2.4739 4.74028 0
M  V30 7839 C 750.681 4.08157 3.25891 0
M  V30 7840 H 752.375 2.50307 1.64277 0
M  V30 7841 H 749.921 1.20467 0.788904 0
M  V30 7842 H 751.874 1.59043 3.90235 0
M  V30 7843 H 750.598 0.552564 3.21892 0
M  V30 7844 H 749.257 2.59123 2.59327 0
M  V30 7845 H 748.905 1.48168 4.80682 0
M  V30 7846 H 748.605 3.23494 4.90536 0
M  V30 7847 H 750.129 2.55653 5.54503 0
M  V30 7848 H 751.543 4.1642 3.9404 0
M  V30 7849 H 749.94 4.84617 3.5393 0
M  V30 7850 H 751.01 4.30374 2.23397 0
M  V30 7851 N 752.353 -0.854086 1.3245 0
M  V30 7852 C 753.286 -1.96654 1.15768 0
M  V30 7853 C 754.264 -1.625 0.0569975 0
M  V30 7854 O 755.448 -1.87254 0.216412 0
M  V30 7855 C 752.575 -3.29776 0.772361 0
M  V30 7856 C 751.621 -3.82909 1.87837 0
M  V30 7857 S 752.454 -4.0643 3.48675 0
M  V30 7858 C 753.61 -5.42526 3.12116 0
M  V30 7859 H 753.843 -2.10504 2.09942 0
M  V30 7860 H 751.376 -1.00612 1.17118 0
M  V30 7861 H 753.334 -4.06706 0.556809 0
M  V30 7862 H 751.995 -3.13739 -0.150519 0
M  V30 7863 H 751.188 -4.79192 1.56177 0
M  V30 7864 H 750.79 -3.12825 2.0498 0
M  V30 7865 H 753.082 -6.24792 2.61996 0
M  V30 7866 H 754.025 -5.79148 4.07422 0
M  V30 7867 H 754.433 -5.06556 2.49121 0
M  V30 7868 N 753.831 -1.1567 -1.07043 0
M  V30 7869 C 755.079 -0.931673 -1.79344 0
M  V30 7870 C 755.4 0.542421 -1.87304 0
M  V30 7871 O 754.67 1.39418 -1.37621 0
M  V30 7872 H 753.25 -0.34171 -0.664262 0
M  V30 7873 H 755.912 -1.45795 -1.29344 0
M  V30 7874 H 755.008 -1.34379 -2.81689 0
M  V30 7875 N 755.309 1.25446 -0.953992 0
M  V30 7876 C 756.537 1.97215 -0.625595 0
M  V30 7877 C 756.952 1.70911 0.802168 0
M  V30 7878 O 756.309 0.984782 1.5365 0
M  V30 7879 C 756.36 3.50777 -0.873943 0
M  V30 7880 O 756.081 3.76173 -2.24556 0
M  V30 7881 C 757.582 4.39776 -0.557845 0
M  V30 7882 H 754.802 0.628652 -0.2346 0
M  V30 7883 H 757.346 1.59632 -1.27819 0
M  V30 7884 H 755.501 3.86474 -0.267765 0
M  V30 7885 H 755.915 4.70636 -2.31522 0
M  V30 7886 H 757.389 5.46431 -0.782157 0
M  V30 7887 H 757.866 4.36257 0.507573 0
M  V30 7888 H 758.472 4.09644 -1.14332 0
M  V30 7889 N 756.787 0.722489 1.40064 0
M  V30 7890 C 758.033 0.265371 2.01056 0
M  V30 7891 C 758.366 -1.14062 1.57174 0
M  V30 7892 O 757.641 -1.77514 0.794916 0
M  V30 7893 C 757.924 0.353157 3.58364 0
M  V30 7894 C 757.777 1.79802 4.123 0
M  V30 7895 C 759.096 -0.271677 4.39261 0
M  V30 7896 H 756.215 0.0979002 0.730469 0
M  V30 7897 H 758.857 0.916289 1.66446 0
M  V30 7898 H 757.007 -0.201037 3.87979 0
M  V30 7899 H 758.679 2.40813 3.93455 0
M  V30 7900 H 756.922 2.32348 3.66329 0
M  V30 7901 H 757.593 1.81079 5.21454 0
M  V30 7902 H 760.069 0.200607 4.15616 0
M  V30 7903 H 758.945 -0.179843 5.48605 0
M  V30 7904 H 759.206 -1.35611 4.20787 0
M  V30 7905 N 758.265 -1.50454 0.469181 0
M  V30 7906 C 759.198 -2.25149 -0.371928 0
M  V30 7907 C 760.176 -1.28382 -0.997845 0
M  V30 7908 O 761.36 -1.57599 -1.03415 0
M  V30 7909 C 758.487 -3.02629 -1.52097 0
M  V30 7910 C 757.533 -4.14305 -1.01262 0
M  V30 7911 S 758.366 -5.35453 0.0711459 0
M  V30 7912 C 759.522 -6.1648 -1.08181 0
M  V30 7913 H 759.755 -2.96142 0.262134 0
M  V30 7914 H 757.288 -1.52296 0.254042 0
M  V30 7915 H 759.246 -3.47861 -2.17952 0
M  V30 7916 H 757.907 -2.31165 -2.12654 0
M  V30 7917 H 757.1 -4.67913 -1.87278 0
M  V30 7918 H 756.702 -3.71499 -0.431804 0
M  V30 7919 H 758.994 -6.47497 -1.99382 0
M  V30 7920 H 759.937 -7.05679 -0.585028 0
M  V30 7921 H 760.345 -5.48492 -1.33478 0
M  V30 7922 N 759.743 -0.201713 -1.56304 0
M  V30 7923 C 760.706 0.702811 -2.18159 0
M  V30 7924 C 761.706 1.13619 -1.13787 0
M  V30 7925 O 762.896 1.0482 -1.39134 0
M  V30 7926 C 760.028 1.96032 -2.78898 0
M  V30 7927 H 761.221 0.163836 -2.99452 0
M  V30 7928 H 758.774 0.04791 -1.56227 0
M  V30 7929 H 759.509 2.54165 -2.01421 0
M  V30 7930 H 759.294 1.65824 -3.55309 0
M  V30 7931 H 760.784 2.60519 -3.26373 0
M  V30 7932 N 761.222 1.57436 0.0718424 0
M  V30 7933 C 762.169 2.03686 1.08539 0
M  V30 7934 C 763.139 0.917474 1.38462 0
M  V30 7935 O 764.324 1.18513 1.4953 0
M  V30 7936 C 761.464 2.48566 2.39393 0
M  V30 7937 C 760.577 3.74122 2.16001 0
M  V30 7938 C 759.712 4.07786 3.40418 0
M  V30 7939 C 758.751 5.26383 3.1239 0
M  V30 7940 N 757.888 5.55685 4.29138 0
M  V30 7941 H 762.728 2.90043 0.684018 0
M  V30 7942 H 760.265 1.43438 0.326183 0
M  V30 7943 H 762.223 2.72639 3.15791 0
M  V30 7944 H 760.853 1.65186 2.77333 0
M  V30 7945 H 759.905 3.57389 1.30296 0
M  V30 7946 H 761.217 4.60659 1.91298 0
M  V30 7947 H 760.371 4.32759 4.25211 0
M  V30 7948 H 759.11 3.19817 3.68197 0
M  V30 7949 H 758.115 5.01206 2.25993 0
M  V30 7950 H 759.34 6.1597 2.85934 0
M  V30 7951 H 757.286 4.70675 4.56948 0
M  V30 7952 H 757.203 6.3664 4.07708 0
M  V30 7953 H 758.471 5.85209 5.14928 0
M  V30 7954 N 762.7 -0.34323 1.53817 0
M  V30 7955 C 764.116 -0.686355 1.44088 0
M  V30 7956 C 764.316 -1.92426 0.597882 0
M  V30 7957 O 763.372 -2.52343 0.0889918 0
M  V30 7958 C 764.685 -0.878698 2.87575 0
M  V30 7959 C 766.233 -0.977296 2.97352 0
M  V30 7960 C 766.708 -1.20195 4.41947 0
M  V30 7961 N 768.199 -1.26915 4.45474 0
M  V30 7962 C 768.934 -1.46049 5.54488 0
M  V30 7963 N 768.43 -1.62354 6.73508 0
M  V30 7964 N 770.223 -1.48599 5.42102 0
M  V30 7965 H 762.374 0.470679 2.07119 0
M  V30 7966 H 764.637 0.148652 0.936273 0
M  V30 7967 H 764.343 -0.040602 3.51677 0
M  V30 7968 H 764.217 -1.78034 3.32541 0
M  V30 7969 H 766.604 -1.80591 2.3339 0
M  V30 7970 H 766.685 -0.0525498 2.55746 0
M  V30 7971 H 766.329 -0.378262 5.06489 0
M  V30 7972 H 766.259 -2.14027 4.81145 0
M  V30 7973 H 768.75 -1.15837 3.59708 0
M  V30 7974 H 769.063 -1.76591 7.52353 0
M  V30 7975 H 767.408 -1.5949 6.76453 0
M  V30 7976 H 770.599 -1.35443 4.48077 0
M  V30 7977 H 770.772 -1.6317 6.2712 0
M  V30 7978 N 764.178 -1.45556 -0.604258 0
M  V30 7979 C 765.424 -1.49968 -1.36519 0
M  V30 7980 C 765.757 -0.142236 -1.93678 0
M  V30 7981 O 765.032 0.843717 -1.75247 0
M  V30 7982 C 765.315 -2.58146 -2.51063 0
M  V30 7983 C 765.168 -4.03346 -1.99078 0
M  V30 7984 C 766.487 -2.62581 -3.53184 0
M  V30 7985 H 763.606 -0.545993 -0.495036 0
M  V30 7986 H 766.248 -1.77382 -0.680845 0
M  V30 7987 H 764.398 -2.34901 -3.09441 0
M  V30 7988 H 766.07 -4.37811 -1.45323 0
M  V30 7989 H 764.313 -4.13845 -1.30055 0
M  V30 7990 H 764.984 -4.74731 -2.81664 0
M  V30 7991 H 767.46 -2.83419 -3.04652 0
M  V30 7992 H 766.336 -3.40131 -4.30816 0
M  V30 7993 H 766.597 -1.67798 -4.09019 0
M  V30 7994 N 765.656 0.84705 -1.32902 0
M  V30 7995 C 766.603 1.95624 -1.22473 0
M  V30 7996 C 767.573 1.65767 -0.105178 0
M  V30 7997 O 768.758 1.88704 -0.282042 0
M  V30 7998 C 765.898 3.31434 -0.961542 0
M  V30 7999 C 765.011 3.73741 -2.1666 0
M  V30 8000 C 764.146 4.98379 -1.83825 0
M  V30 8001 C 763.185 5.33199 -3.00609 0
M  V30 8002 N 762.322 6.49014 -2.67816 0
M  V30 8003 H 767.162 2.03875 -2.17345 0
M  V30 8004 H 764.699 0.997764 -1.08088 0
M  V30 8005 H 766.657 4.09663 -0.789411 0
M  V30 8006 H 765.287 3.22762 -0.0495938 0
M  V30 8007 H 764.339 2.91102 -2.44875 0
M  V30 8008 H 765.651 3.95462 -3.03993 0
M  V30 8009 H 764.805 5.84336 -1.63208 0
M  V30 8010 H 763.544 4.78611 -0.937172 0
M  V30 8011 H 762.549 4.4575 -3.21849 0
M  V30 8012 H 763.774 5.5492 -3.9146 0
M  V30 8013 H 761.72 6.30748 -1.80258 0
M  V30 8014 H 761.637 6.7079 -3.48679 0
M  V30 8015 H 762.905 7.38103 -2.50647 0
M  V30 8016 N 767.134 1.16236 1.06428 0
M  V30 8017 C 768.097 0.870163 2.1204 0
M  V30 8018 C 769.097 -0.134239 1.60239 0
M  V30 8019 O 770.287 0.0964932 1.73933 0
M  V30 8020 C 767.419 0.301033 3.39568 0
M  V30 8021 H 768.612 1.8064 2.39394 0
M  V30 8022 H 766.165 0.971116 1.2247 0
M  V30 8023 H 766.9 -0.642948 3.17863 0
M  V30 8024 H 766.685 1.02475 3.78472 0
M  V30 8025 H 768.175 0.114494 4.17443 0
M  V30 8026 N 768.612 -1.24939 0.960631 0
M  V30 8027 C 769.84 -1.96881 0.636045 0
M  V30 8028 C 770.255 -1.71334 -0.793093 0
M  V30 8029 O 769.612 -0.992917 -1.53125 0
M  V30 8030 C 769.663 -3.50309 0.892533 0
M  V30 8031 O 769.384 -3.74977 2.26548 0
M  V30 8032 C 770.885 -4.39474 0.581159 0
M  V30 8033 H 768.105 -0.627399 0.237931 0
M  V30 8034 H 770.649 -1.58952 1.28664 0
M  V30 8035 H 768.804 -3.86326 0.288257 0
M  V30 8036 H 769.218 -4.69401 2.34014 0
M  V30 8037 H 770.692 -5.46008 0.811125 0
M  V30 8038 H 771.169 -4.3652 -0.48443 0
M  V30 8039 H 771.775 -4.09032 1.16502 0
M  V30 8040 N 770.09 -0.729906 -1.39679 0
M  V30 8041 C 771.339 -0.272534 -1.9985 0
M  V30 8042 C 771.652 1.14519 -1.58571 0
M  V30 8043 O 772.858 1.70182 -2.11543 0
M  V30 8044 C 771.314 -0.436322 -3.57245 0
M  V30 8045 C 770.922 -1.86161 -4.0749 0
M  V30 8046 C 772.666 -0.0404679 -4.24481 0
M  V30 8047 C 770.573 -1.97522 -5.5744 0
M  V30 8048 H 769.503 -0.0981428 -0.747585 0
M  V30 8049 H 772.154 -0.903056 -1.59741 0
M  V30 8050 H 770.536 0.263015 -3.95126 0
M  V30 8051 H 771.71 -2.59248 -3.80955 0
M  V30 8052 H 770.025 -2.21021 -3.529 0
M  V30 8053 H 772.622 -0.104437 -5.34598 0
M  V30 8054 H 772.965 1.00357 -4.04023 0
M  V30 8055 H 773.498 -0.690774 -3.91757 0
M  V30 8056 H 770.237 -3.00096 -5.82771 0
M  V30 8057 H 769.757 -1.28864 -5.85794 0
M  V30 8058 H 771.436 -1.754 -6.22771 0
M  V30 8059 N 771.568 1.50203 -0.477153 0
M  V30 8060 C 772.498 2.31517 0.303646 0
M  V30 8061 C 773.479 1.38696 0.984753 0
M  V30 8062 O 774.664 1.67615 0.980758 0
M  V30 8063 C 771.794 3.18598 1.38249 0
M  V30 8064 C 770.748 4.2002 0.822645 0
M  V30 8065 C 770.074 4.95878 2.00024 0
M  V30 8066 C 771.374 5.22023 -0.170185 0
M  V30 8067 H 773.068 2.97042 -0.375027 0
M  V30 8068 H 770.614 1.42848 -0.181802 0
M  V30 8069 H 772.567 3.74282 1.93625 0
M  V30 8070 H 771.291 2.5097 2.09002 0
M  V30 8071 H 769.95 3.65445 0.290813 0
M  V30 8072 H 769.598 4.24717 2.69489 0
M  V30 8073 H 769.298 5.64487 1.63183 0
M  V30 8074 H 770.822 5.54399 2.55878 0
M  V30 8075 H 772.236 5.72543 0.294606 0
M  V30 8076 H 770.633 5.98386 -0.453181 0
M  V30 8077 H 771.703 4.72396 -1.09408 0
M  V30 8078 N 773.046 0.209999 1.56195 0
M  V30 8079 C 774.276 -0.429373 2.02089 0
M  V30 8080 C 774.684 -1.54703 1.0892 0
M  V30 8081 O 774.027 -1.83485 0.0889535 0
M  V30 8082 C 774.089 -1.03266 3.44349 0
M  V30 8083 C 773.753 -0.0518873 4.56971 0
M  V30 8084 C 774.75 0.744249 5.14545 0
M  V30 8085 C 772.435 0.0635185 5.0226 0
M  V30 8086 C 774.429 1.64261 6.15871 0
M  V30 8087 C 772.116 0.965423 6.03426 0
M  V30 8088 C 773.114 1.75352 6.60106 0
M  V30 8089 O 772.802 2.64029 7.59305 0
M  V30 8090 H 772.534 -0.110604 0.66689 0
M  V30 8091 H 775.088 0.320436 2.02885 0
M  V30 8092 H 773.318 -1.83134 3.40586 0
M  V30 8093 H 775.007 -1.57823 3.73961 0
M  V30 8094 H 775.773 0.665476 4.80413 0
M  V30 8095 H 771.652 -0.539762 4.57829 0
M  V30 8096 H 775.196 2.25819 6.60039 0
M  V30 8097 H 771.093 1.04526 6.36981 0
M  V30 8098 H 771.861 2.57974 7.76783 0
M  V30 8099 N 774.524 -1.57472 -0.0634922 0
M  V30 8100 C 775.772 -1.87283 -0.759563 0
M  V30 8101 C 776.093 -0.803135 -1.77693 0
M  V30 8102 O 775.363 0.167293 -1.95184 0
M  V30 8103 H 773.943 -0.691106 -0.283516 0
M  V30 8104 H 776.605 -1.94864 -0.0376091 0
M  V30 8105 H 775.701 -2.85064 -1.27062 0
M  V30 8106 N 776.003 0.335068 -1.53997 0
M  V30 8107 C 777.228 1.09859 -1.75914 0
M  V30 8108 C 777.653 1.81308 -0.500915 0
M  V30 8109 O 777.011 1.72854 0.54693 0
M  V30 8110 C 777.059 2.08122 -2.94478 0
M  V30 8111 O 776.163 3.15805 -2.65219 0
M  V30 8112 H 775.504 0.317313 -0.583274 0
M  V30 8113 H 778.034 0.382872 -2.00986 0
M  V30 8114 H 778.044 2.51195 -3.21504 0
M  V30 8115 H 776.719 1.55517 -3.8573 0
M  V30 8116 H 775.296 2.77489 -2.49107 0
M  V30 8117 N 777.481 1.45874 0.596531 0
M  V30 8118 C 778.391 1.57947 1.73464 0
M  V30 8119 C 779.407 0.463461 1.67714 0
M  V30 8120 O 780.583 0.725685 1.87872 0
M  V30 8121 C 777.648 1.55348 3.09948 0
M  V30 8122 C 776.709 2.78074 3.27068 0
M  V30 8123 C 775.942 2.75589 4.57041 0
M  V30 8124 O 776.165 1.83545 5.40063 0
M  V30 8125 O 775.099 3.66945 4.77111 0
M  V30 8126 H 778.925 2.54169 1.66228 0
M  V30 8127 H 776.51 1.2851 0.76194 0
M  V30 8128 H 778.392 1.56545 3.91244 0
M  V30 8129 H 777.067 0.622811 3.17652 0
M  V30 8130 H 775.974 2.82435 2.45319 0
M  V30 8131 H 777.307 3.70303 3.24248 0
M  V30 8132 N 778.959 -0.83999 1.33349 0
M  V30 8133 C 780.187 -1.62728 1.27778 0
M  V30 8134 C 780.602 -1.88191 -0.151505 0
M  V30 8135 O 779.959 -1.46128 -1.09329 0
M  V30 8136 C 780.01 -2.97813 2.04913 0
M  V30 8137 O 779.731 -2.73469 3.42266 0
M  V30 8138 C 781.232 -3.92245 2.0654 0
M  V30 8139 H 778.452 -0.506374 0.440257 0
M  V30 8140 H 780.996 -1.04637 1.75703 0
M  V30 8141 H 779.151 -3.52509 1.60674 0
M  V30 8142 H 779.565 -3.59483 3.81932 0
M  V30 8143 H 781.039 -4.84249 2.64966 0
M  V30 8144 H 781.516 -4.26332 1.05537 0
M  V30 8145 H 782.122 -3.43487 2.50793 0
M  V30 8146 N 780.437 -1.16799 -1.0581 0
M  V30 8147 C 781.685 -0.950642 -1.78346 0
M  V30 8148 C 782.006 0.522524 -1.87869 0
M  V30 8149 O 781.276 1.3795 -1.39092 0
M  V30 8150 H 779.856 -0.348736 -0.6606 0
M  V30 8151 H 782.518 -1.47158 -1.27791 0
M  V30 8152 H 781.614 -1.37359 -2.80248 0
M  V30 8153 N 781.915 1.24427 -0.967243 0
M  V30 8154 C 783.331 1.44684 -0.6737 0
M  V30 8155 C 783.531 1.86429 0.764625 0
M  V30 8156 O 782.587 2.00211 1.53857 0
M  V30 8157 C 783.9 2.509 -1.6574 0
M  V30 8158 C 785.448 2.64728 -1.66998 0
M  V30 8159 C 785.923 3.7414 -2.64165 0
M  V30 8160 N 787.414 3.81567 -2.62604 0
M  V30 8161 C 788.149 4.6575 -3.34462 0
M  V30 8162 N 787.645 5.54124 -4.15835 0
M  V30 8163 N 789.438 4.59827 -3.23288 0
M  V30 8164 H 781.589 0.956276 -1.89655 0
M  V30 8165 H 783.852 0.48171 -0.816492 0
M  V30 8166 H 783.558 2.27113 -2.68538 0
M  V30 8167 H 783.432 3.4905 -1.42981 0
M  V30 8168 H 785.819 2.87872 -0.649121 0
M  V30 8169 H 785.9 1.66936 -1.93819 0
M  V30 8170 H 785.544 3.51745 -3.66384 0
M  V30 8171 H 785.474 4.71444 -2.34623 0
M  V30 8172 H 787.965 3.18403 -2.03539 0
M  V30 8173 H 788.278 6.15316 -4.67553 0
M  V30 8174 H 786.623 5.53791 -4.19929 0
M  V30 8175 H 789.814 3.898 -2.59179 0
M  V30 8176 H 789.987 5.25208 -3.79553 0
M  V30 8177 N 783.393 0.737304 1.3929 0
M  V30 8178 C 784.356 0.10731 2.28949 0
M  V30 8179 C 785.356 -0.664716 1.46418 0
M  V30 8180 O 786.546 -0.493392 1.67067 0
M  V30 8181 C 783.678 -0.857145 3.29948 0
M  V30 8182 H 784.871 0.89725 2.86163 0
M  V30 8183 H 782.424 0.503279 1.47976 0
M  V30 8184 H 783.159 -1.67336 2.77794 0
M  V30 8185 H 782.944 -0.306167 3.90903 0
M  V30 8186 H 784.434 -1.29444 3.97031 0
M  V30 8187 N 784.871 -1.49948 0.485112 0
M  V30 8188 C 785.803 -2.26691 -0.338222 0
M  V30 8189 C 786.816 -1.32584 -0.944742 0
M  V30 8190 O 788.005 -1.57989 -0.830772 0
M  V30 8191 C 785.105 -3.04405 -1.48966 0
M  V30 8192 C 784.278 -4.25971 -0.993371 0
M  V30 8193 C 783.337 -4.85861 -2.02052 0
M  V30 8194 O 782.363 -5.46382 -1.59547 0
M  V30 8195 N 783.565 -4.74101 -3.34975 0
M  V30 8196 H 786.33 -2.97989 0.319748 0
M  V30 8197 H 783.891 -1.58772 0.316714 0
M  V30 8198 H 785.883 -3.41348 -2.17403 0
M  V30 8199 H 784.453 -2.35815 -2.05207 0
M  V30 8200 H 783.673 -3.93971 -0.134424 0
M  V30 8201 H 784.961 -5.0476 -0.639934 0
M  V30 8202 H 784.359 -4.26002 -3.72208 0
M  V30 8203 H 782.916 -5.15274 -3.9917 0
M  V30 8204 N 786.349 -0.21828 -1.56081 0
M  V30 8205 C 787.574 0.422302 -2.03055 0
M  V30 8206 C 787.999 1.5279 -1.09713 0
M  V30 8207 O 787.357 1.81102 -0.0847187 0
M  V30 8208 C 787.405 0.934177 -3.48289 0
M  V30 8209 O 786.509 2.04574 -3.58083 0
M  V30 8210 H 785.85 0.0959764 -0.657027 0
M  V30 8211 H 788.38 -0.335958 -2.01823 0
M  V30 8212 H 788.39 1.24484 -3.88546 0
M  V30 8213 H 787.065 0.124963 -4.15712 0
M  V30 8214 H 785.642 1.74196 -3.29712 0
M  V30 8215 N 787.827 1.57504 0.0551401 0
M  V30 8216 C 789.057 1.92015 0.762472 0
M  V30 8217 C 789.465 0.814088 1.7079 0
M  V30 8218 O 788.808 -0.220273 1.82375 0
M  V30 8219 C 788.87 3.22132 1.59598 0
M  V30 8220 C 788.534 4.49617 0.818141 0
M  V30 8221 C 789.531 5.19738 0.129933 0
M  V30 8222 C 787.216 4.96201 0.780387 0
M  V30 8223 C 789.21 6.34704 -0.585616 0
M  V30 8224 C 786.897 6.11069 0.0610756 0
M  V30 8225 C 787.895 6.80174 -0.62071 0
M  V30 8226 O 787.583 7.92849 -1.3284 0
M  V30 8227 H 787.315 0.638866 0.220967 0
M  V30 8228 H 789.869 2.05385 0.0246362 0
M  V30 8229 H 788.099 3.05016 2.37701 0
M  V30 8230 H 789.788 3.42166 2.18351 0
M  V30 8231 H 790.554 4.84767 0.150299 0
M  V30 8232 H 786.433 4.42275 1.30054 0
M  V30 8233 H 789.977 6.88578 -1.11833 0
M  V30 8234 H 785.874 6.45488 0.0386945 0
M  V30 8235 H 786.642 8.09062 -1.23938 0
M  V30 8236 N 789.305 -0.326896 1.54172 0
M  V30 8237 C 790.268 -1.38515 1.8261 0
M  V30 8238 C 791.268 -1.44872 0.697771 0
M  V30 8239 O 792.458 -1.44957 0.966078 0
M  V30 8240 C 789.59 -2.77281 1.98313 0
M  V30 8241 H 790.783 -1.14556 2.77159 0
M  V30 8242 H 788.336 -0.562199 1.45839 0
M  V30 8243 H 789.071 -3.065 1.05964 0
M  V30 8244 H 788.856 -2.74061 2.80416 0
M  V30 8245 H 790.346 -3.53845 2.21773 0
M  V30 8246 N 790.784 -1.46188 -0.588786 0
M  V30 8247 C 791.716 -1.52319 -1.71265 0
M  V30 8248 C 792.729 -0.412096 -1.57498 0
M  V30 8249 O 793.918 -0.680146 -1.65034 0
M  V30 8250 C 791.018 -1.38164 -3.09458 0
M  V30 8251 C 790.191 -2.63284 -3.49286 0
M  V30 8252 C 789.25 -2.43415 -4.66514 0
M  V30 8253 O 788.276 -3.17113 -4.72682 0
M  V30 8254 N 789.478 -1.49187 -5.61002 0
M  V30 8255 H 792.243 -2.49219 -1.66463 0
M  V30 8256 H 789.804 -1.42167 -0.774601 0
M  V30 8257 H 791.796 -1.22653 -3.85666 0
M  V30 8258 H 790.366 -0.494678 -3.08661 0
M  V30 8259 H 789.586 -2.93779 -2.62845 0
M  V30 8260 H 790.874 -3.46413 -3.7266 0
M  V30 8261 H 790.272 -0.884027 -5.5875 0
M  V30 8262 H 788.829 -1.39642 -6.36666 0
M  V30 8263 N 792.262 0.832906 -1.33792 0
M  V30 8264 C 793.194 1.95042 -1.2038 0
M  V30 8265 C 794.207 1.62253 -0.133299 0
M  V30 8266 O 795.396 1.74315 -0.384261 0
M  V30 8267 C 792.496 3.287 -0.825215 0
M  V30 8268 C 791.669 3.89581 -1.98861 0
M  V30 8269 C 790.728 5.01602 -1.59003 0
M  V30 8270 O 789.754 5.20431 -2.30522 0
M  V30 8271 N 790.956 5.78356 -0.498446 0
M  V30 8272 H 793.721 2.07083 -2.16649 0
M  V30 8273 H 791.282 1.00896 -1.26616 0
M  V30 8274 H 793.274 4.01074 -0.540559 0
M  V30 8275 H 791.844 3.12565 0.0469796 0
M  V30 8276 H 791.064 3.09723 -2.43856 0
M  V30 8277 H 792.352 4.26989 -2.76691 0
M  V30 8278 H 791.75 5.65618 0.0963297 0
M  V30 8279 H 790.307 6.51226 -0.273485 0
M  V30 8280 N 793.74 1.17359 1.05189 0
M  V30 8281 C 794.67 0.91365 2.14883 0
M  V30 8282 C 795.651 -0.144365 1.69486 0
M  V30 8283 O 796.836 0.00587861 1.94199 0
M  V30 8284 C 793.966 0.426196 3.44675 0
M  V30 8285 C 792.92 1.4234 4.03638 0
M  V30 8286 C 792.246 0.793902 5.28773 0
M  V30 8287 C 793.546 2.7966 4.41121 0
M  V30 8288 H 795.24 1.831 2.36885 0
M  V30 8289 H 792.786 0.881781 1.13845 0
M  V30 8290 H 794.739 0.231767 4.20762 0
M  V30 8291 H 793.463 -0.526693 3.22325 0
M  V30 8292 H 792.122 1.60457 3.2962 0
M  V30 8293 H 791.77 -0.165824 5.02727 0
M  V30 8294 H 791.47 1.45959 5.69183 0
M  V30 8295 H 792.994 0.609747 6.07548 0
M  V30 8296 H 794.408 2.6526 5.08242 0
M  V30 8297 H 792.805 3.42807 4.92548 0
M  V30 8298 H 793.875 3.34068 3.51464 0
M  V30 8299 N 795.218 -1.23913 0.973828 0
M  V30 8300 C 796.466 -1.91771 0.637817 0
M  V30 8301 C 796.787 -1.76434 -0.830435 0
M  V30 8302 O 796.057 -1.13965 -1.59339 0
M  V30 8303 H 794.637 -0.709761 0.232912 0
M  V30 8304 H 797.299 -1.50677 1.23622 0
M  V30 8305 H 796.395 -2.99327 0.883731 0
M  V30 8306 N 796.696 -0.74468 -1.38897 0
M  V30 8307 C 798.112 -0.421302 -1.53939 0
M  V30 8308 C 798.312 1.06668 -1.70951 0
M  V30 8309 O 797.368 1.85278 -1.71547 0
M  V30 8310 C 798.681 -1.21278 -2.75159 0
M  V30 8311 C 800.229 -1.20196 -2.89001 0
M  V30 8312 C 800.704 -1.97621 -4.13171 0
M  V30 8313 N 802.195 -1.94836 -4.2023 0
M  V30 8314 C 802.93 -2.51545 -5.15279 0
M  V30 8315 N 802.426 -3.1693 -6.16058 0
M  V30 8316 N 804.219 -2.41524 -5.07565 0
M  V30 8317 H 796.37 -1.70914 -1.26103 0
M  V30 8318 H 798.633 -0.724058 -0.611919 0
M  V30 8319 H 798.339 -2.26609 -2.68963 0
M  V30 8320 H 798.213 -0.823677 -3.68097 0
M  V30 8321 H 800.6 -0.156742 -2.94683 0
M  V30 8322 H 800.681 -1.63051 -1.97099 0
M  V30 8323 H 800.325 -3.02149 -4.0825 0
M  V30 8324 H 800.255 -1.52166 -5.04136 0
M  V30 8325 H 802.746 -1.4721 -3.48048 0
M  V30 8326 H 803.059 -3.57644 -6.85062 0
M  V30 8327 H 801.404 -3.21023 -6.16417 0
M  V30 8328 H 804.595 -1.90077 -4.27771 0
M  V30 8329 H 804.768 -2.86016 -5.81462 0
M  V30 8330 N 798.174 1.49689 -0.493057 0
M  V30 8331 C 799.104 2.31826 0.279073 0
M  V30 8332 C 800.085 1.39733 0.969987 0
M  V30 8333 O 801.27 1.68646 0.962925 0
M  V30 8334 C 798.4 3.20046 1.34862 0
M  V30 8335 C 797.354 4.20869 0.77805 0
M  V30 8336 C 796.68 4.97971 1.94753 0
M  V30 8337 C 797.98 5.21813 -0.225543 0
M  V30 8338 H 799.674 2.96627 -0.406512 0
M  V30 8339 H 797.22 1.42647 -0.196943 0
M  V30 8340 H 799.173 3.76315 1.89645 0
M  V30 8341 H 797.897 2.53172 2.06328 0
M  V30 8342 H 796.556 3.65733 0.252036 0
M  V30 8343 H 796.204 4.27552 2.64969 0
M  V30 8344 H 795.904 5.66186 1.57187 0
M  V30 8345 H 797.428 5.57082 2.49984 0
M  V30 8346 H 798.842 5.72823 0.233864 0
M  V30 8347 H 797.239 5.97872 -0.516622 0
M  V30 8348 H 798.309 4.71209 -1.14412 0
M  V30 8349 N 799.652 0.226554 1.55963 0
M  V30 8350 C 800.899 -0.403789 1.98433 0
M  V30 8351 C 801.227 -1.59416 1.1143 0
M  V30 8352 O 800.482 -1.95042 0.160389 0
M  V30 8353 C 800.781 -0.87642 3.46488 0
M  V30 8354 C 800.447 0.203973 4.50438 0
M  V30 8355 C 799.109 0.500754 4.78587 0
M  V30 8356 C 801.461 0.934396 5.12756 0
M  V30 8357 C 798.789 1.53239 5.66334 0
M  V30 8358 C 801.141 1.9554 6.0162 0
M  V30 8359 C 799.805 2.25905 6.28111 0
M  V30 8360 H 799.075 -0.147757 0.726119 0
M  V30 8361 H 801.722 0.330121 1.88633 0
M  V30 8362 H 800.027 -1.68918 3.53517 0
M  V30 8363 H 801.724 -1.37407 3.76723 0
M  V30 8364 H 798.314 -0.0374917 4.28584 0
M  V30 8365 H 802.498 0.718355 4.91074 0
M  V30 8366 H 797.754 1.77321 5.85122 0
M  V30 8367 H 801.928 2.52642 6.48957 0
M  V30 8368 H 799.555 3.05985 6.959 0
M  V30 8369 N 801.13 -1.57531 -0.0467866 0
M  V30 8370 C 802.546 -1.54451 -0.402107 0
M  V30 8371 C 802.746 -0.950275 -1.77685 0
M  V30 8372 O 801.802 -0.563602 -2.4613 0
M  V30 8373 C 803.115 -2.9899 -0.320212 0
M  V30 8374 C 804.663 -3.10452 -0.398588 0
M  V30 8375 C 805.138 -4.56689 -0.346335 0
M  V30 8376 N 806.629 -4.6142 -0.405666 0
M  V30 8377 C 807.364 -5.72087 -0.387845 0
M  V30 8378 N 806.86 -6.92045 -0.32336 0
M  V30 8379 N 808.653 -5.60404 -0.436263 0
M  V30 8380 H 800.804 -1.94515 0.853087 0
M  V30 8381 H 803.067 -0.891397 0.322669 0
M  V30 8382 H 802.773 -3.46124 0.623794 0
M  V30 8383 H 802.647 -3.60164 -1.1208 0
M  V30 8384 H 805.034 -2.63276 -1.33302 0
M  V30 8385 H 805.115 -2.52142 0.431026 0
M  V30 8386 H 804.759 -5.04527 0.584356 0
M  V30 8387 H 804.689 -5.12889 -1.19382 0
M  V30 8388 H 807.18 -3.75105 -0.458737 0
M  V30 8389 H 807.493 -7.7216 -0.314375 0
M  V30 8390 H 805.838 -6.94396 -0.28967 0
M  V30 8391 H 809.029 -4.65586 -0.48451 0
M  V30 8392 H 809.202 -6.46645 -0.418907 0
M  V30 8393 N 802.608 0.318715 -1.54344 0
M  V30 8394 C 803.555 1.39242 -1.84066 0
M  V30 8395 C 804.525 1.51175 -0.688134 0
M  V30 8396 O 805.71 1.66318 -0.935039 0
M  V30 8397 C 802.85 2.75528 -2.07794 0
M  V30 8398 C 801.963 2.72187 -3.35467 0
M  V30 8399 C 801.098 4.00352 -3.4913 0
M  V30 8400 C 800.137 3.91338 -4.7066 0
M  V30 8401 N 799.274 5.11242 -4.81224 0
M  V30 8402 H 804.114 1.13196 -2.75664 0
M  V30 8403 H 801.651 0.547857 -1.36517 0
M  V30 8404 H 803.609 3.54763 -2.19543 0
M  V30 8405 H 802.239 2.99873 -1.19482 0
M  V30 8406 H 801.291 1.84917 -3.3243 0
M  V30 8407 H 802.603 2.61411 -4.24812 0
M  V30 8408 H 801.757 4.88019 -3.60448 0
M  V30 8409 H 800.496 4.1394 -2.57886 0
M  V30 8410 H 799.501 3.02055 -4.59394 0
M  V30 8411 H 800.726 3.7931 -5.63294 0
M  V30 8412 H 798.672 5.25327 -3.92897 0
M  V30 8413 H 798.589 5.0282 -5.64543 0
M  V30 8414 H 799.857 6.0061 -4.96879 0
M  V30 8415 N 804.086 1.46499 0.581025 0
M  V30 8416 C 805.049 1.5677 1.672 0
M  V30 8417 C 806.049 0.444716 1.54528 0
M  V30 8418 O 807.239 0.709074 1.59116 0
M  V30 8419 C 804.371 1.4896 3.06633 0
M  V30 8420 H 805.564 2.54 1.5945 0
M  V30 8421 H 803.117 1.34334 0.799003 0
M  V30 8422 H 803.852 0.530168 3.19937 0
M  V30 8423 H 803.637 2.30439 3.17239 0
M  V30 8424 H 805.127 1.59237 3.86048 0
M  V30 8425 N 805.565 -0.825799 1.34232 0
M  V30 8426 C 806.812 -1.58185 1.26427 0
M  V30 8427 C 807.14 -1.93786 -0.166533 0
M  V30 8428 O 806.395 -1.59986 -1.12707 0
M  V30 8429 C 806.694 -2.89362 2.09772 0
M  V30 8430 C 806.36 -2.73066 3.58812 0
M  V30 8431 C 805.022 -2.68329 3.99441 0
M  V30 8432 C 807.374 -2.56946 4.53462 0
M  V30 8433 C 804.702 -2.4539 5.32917 0
M  V30 8434 C 807.054 -2.35538 5.87115 0
M  V30 8435 C 805.718 -2.29212 6.26912 0
M  V30 8436 H 804.988 -0.57884 0.462629 0
M  V30 8437 H 807.635 -0.955714 1.65947 0
M  V30 8438 H 805.94 -3.56251 1.63071 0
M  V30 8439 H 807.637 -3.4694 2.01081 0
M  V30 8440 H 804.227 -2.77591 3.26559 0
M  V30 8441 H 808.411 -2.59631 4.22972 0
M  V30 8442 H 803.667 -2.38947 5.62774 0
M  V30 8443 H 807.841 -2.22051 6.6005 0
M  V30 8444 H 805.468 -2.11197 7.30274 0
M  V30 8445 N 807.043 -1.17915 -1.04565 0
M  V30 8446 C 808.32 -0.881187 -1.74627 0
M  V30 8447 C 808.7 0.617123 -2.01878 0
M  V30 8448 O 808.048 1.57032 -1.65991 0
M  V30 8449 C 808.258 -1.72299 -3.03503 0
M  V30 8450 C 809.606 -1.94688 -3.77335 0
M  V30 8451 O 810.63 -1.6931 -3.13389 0
M  V30 8452 O 809.489 -2.37379 -4.92253 0
M  V30 8453 H 806.583 -0.326864 -0.759664 0
M  V30 8454 H 809.129 -1.28642 -1.10676 0
M  V30 8455 H 807.901 -2.73891 -2.79462 0
M  V30 8456 H 807.524 -1.31593 -3.75192 0
M  V30 8457 N 808.521 1.23394 -0.980386 0
M  V30 8458 C 809.932 1.73631 -0.686239 0
M  V30 8459 C 810.283 1.79259 0.797541 0
M  V30 8460 O 809.408 1.43046 1.62379 0
M  V30 8461 C 810.003 3.15332 -1.239 0
M  V30 8462 C 808.562 3.63024 -0.994494 0
M  V30 8463 C 807.709 2.41279 -1.36673 0
M  V30 8464 H 810.66 1.08918 -1.15423 0
M  V30 8465 H 810.681 3.75556 -0.611414 0
M  V30 8466 H 810.193 3.11204 -2.31892 0
M  V30 8467 H 808.294 3.72535 0.0693492 0
M  V30 8468 H 808.407 4.49825 -1.64906 0
M  V30 8469 H 806.771 2.42295 -0.785195 0
M  V30 8470 H 807.554 2.39822 -2.45642 0
M  V30 8471 N 809.999 0.752036 1.385 0
M  V30 8472 C 811.415 0.42946 1.53713 0
M  V30 8473 C 811.615 -1.0576 1.71514 0
M  V30 8474 O 810.671 -1.84366 1.72527 0
M  V30 8475 C 811.984 1.22735 2.74511 0
M  V30 8476 C 813.532 1.21727 2.8836 0
M  V30 8477 C 814.007 1.99809 4.12117 0
M  V30 8478 N 815.498 1.97062 4.19191 0
M  V30 8479 C 816.233 2.54274 5.13938 0
M  V30 8480 N 815.729 3.20193 6.14368 0
M  V30 8481 N 817.522 2.44212 5.06277 0
M  V30 8482 H 809.673 1.71581 1.25195 0
M  V30 8483 H 811.936 0.727293 0.60807 0
M  V30 8484 H 811.642 2.28032 2.67758 0
M  V30 8485 H 811.516 0.843186 3.67655 0
M  V30 8486 H 813.903 0.172367 2.94596 0
M  V30 8487 H 813.984 1.64094 1.96232 0
M  V30 8488 H 813.628 3.0431 4.06642 0
M  V30 8489 H 813.558 1.54837 5.03322 0
M  V30 8490 H 816.049 1.49054 3.47263 0
M  V30 8491 H 816.362 3.61272 6.83156 0
M  V30 8492 H 814.707 3.24287 6.14705 0
M  V30 8493 H 817.898 1.92343 4.26757 0
M  V30 8494 H 818.071 2.89096 5.79937 0
M  V30 8495 N 811.477 -1.49425 0.500989 0
M  V30 8496 C 812.723 -2.02753 -0.0436 0
M  V30 8497 C 813.056 -1.37991 -1.36646 0
M  V30 8498 O 812.331 -0.515597 -1.87542 0
M  V30 8499 C 812.614 -3.59565 -0.19616 0
M  V30 8500 C 812.467 -4.34855 1.14982 0
M  V30 8501 C 813.786 -4.30014 -0.936795 0
M  V30 8502 H 810.905 -0.73686 -0.0143711 0
M  V30 8503 H 813.547 -1.78448 0.652397 0
M  V30 8504 H 811.697 -3.80405 -0.788959 0
M  V30 8505 H 813.369 -4.25512 1.7815 0
M  V30 8506 H 811.612 -3.97414 1.73911 0
M  V30 8507 H 812.283 -5.42933 0.996385 0
M  V30 8508 H 814.759 -4.1383 -0.434036 0
M  V30 8509 H 813.635 -5.39483 -1.01238 0
M  V30 8510 H 813.896 -3.95257 -1.9805 0
M  V30 8511 N 812.955 -0.234822 -1.55841 0
M  V30 8512 C 813.885 0.664217 -2.23854 0
M  V30 8513 C 814.866 1.19076 -1.2147 0
M  V30 8514 O 816.051 1.23232 -1.50091 0
M  V30 8515 C 813.181 1.86666 -2.9287 0
M  V30 8516 C 812.135 1.47341 -4.01839 0
M  V30 8517 C 811.461 2.75571 -4.58219 0
M  V30 8518 C 812.761 0.653479 -5.18196 0
M  V30 8519 H 814.455 0.0971213 -2.99242 0
M  V30 8520 H 812.001 0.0452724 -1.43929 0
M  V30 8521 H 813.954 2.50116 -3.39146 0
M  V30 8522 H 812.678 2.45894 -2.1495 0
M  V30 8523 H 811.337 0.862314 -3.56314 0
M  V30 8524 H 810.985 3.32971 -3.77014 0
M  V30 8525 H 810.685 2.49987 -5.31771 0
M  V30 8526 H 812.209 3.39939 -5.07221 0
M  V30 8527 H 813.623 1.19198 -5.60771 0
M  V30 8528 H 812.02 0.494188 -5.98062 0
M  V30 8529 H 813.09 -0.337004 -4.83728 0
M  V30 8530 N 814.433 1.57553 0.0384317 0
M  V30 8531 C 815.673 1.90687 0.736069 0
M  V30 8532 C 816.037 0.832381 1.73019 0
M  V30 8533 O 817.238 1.04777 2.47538 0
M  V30 8534 C 815.509 3.28994 1.39635 0
M  V30 8535 S 817.068 3.83944 2.12444 0
M  V30 8536 H 813.886 0.667799 0.244059 0
M  V30 8537 H 816.488 1.95498 -0.00901643 0
M  V30 8538 H 815.192 4.05067 0.659465 0
M  V30 8539 H 814.723 3.27463 2.18018 0
M  V30 8540 H 816.738 3.61916 3.39457 0
M  V30 8541 N 815.911 -0.310526 1.54511 0
M  V30 8542 C 816.844 -1.40693 1.79668 0
M  V30 8543 C 817.822 -1.49159 0.64734 0
M  V30 8544 O 819.006 -1.66367 0.886239 0
M  V30 8545 C 816.133 -2.78685 1.92491 0
M  V30 8546 C 815.179 -2.87688 3.14861 0
M  V30 8547 S 816.012 -2.50759 4.7316 0
M  V30 8548 C 817.168 -3.90797 4.88906 0
M  V30 8549 H 817.401 -1.19142 2.72383 0
M  V30 8550 H 814.934 -0.508103 1.458 0
M  V30 8551 H 816.892 -3.58168 2.00563 0
M  V30 8552 H 815.553 -2.9751 1.00731 0
M  V30 8553 H 814.746 -3.8888 3.20607 0
M  V30 8554 H 814.348 -2.16189 3.05186 0
M  V30 8555 H 816.64 -4.85693 4.72344 0
M  V30 8556 H 817.583 -3.90027 5.91003 0
M  V30 8557 H 817.991 -3.80357 4.1712 0
M  V30 8558 N 817.389 -1.46805 -0.573248 0
M  V30 8559 C 818.666 -1.43082 -1.33368 0
M  V30 8560 C 819.046 -0.119252 -2.10763 0
M  V30 8561 O 818.394 0.899239 -2.10062 0
M  V30 8562 C 818.604 -2.66643 -2.25172 0
M  V30 8563 C 819.952 -3.13188 -2.86702 0
M  V30 8564 O 820.976 -2.67258 -2.35482 0
M  V30 8565 O 819.835 -3.92994 -3.79761 0
M  V30 8566 H 816.929 -0.569451 -0.599712 0
M  V30 8567 H 819.475 -1.58984 -0.59348 0
M  V30 8568 H 818.247 -3.53649 -1.67475 0
M  V30 8569 H 817.87 -2.53247 -3.06516 0
M  V30 8570 N 818.867 0.818669 -1.34668 0
M  V30 8571 C 819.777 1.9616 -1.2868 0
M  V30 8572 C 820.793 1.72918 -0.193742 0
M  V30 8573 O 821.969 1.96951 -0.420975 0
M  V30 8574 C 819.034 3.30534 -1.04633 0
M  V30 8575 C 818.095 3.66755 -2.23136 0
M  V30 8576 C 817.328 4.94717 -2.00227 0
M  V30 8577 O 817.551 5.62218 -0.96264 0
M  V30 8578 O 816.485 5.28915 -2.87286 0
M  V30 8579 H 820.311 2.04157 -2.24842 0
M  V30 8580 H 817.896 0.954691 -1.14917 0
M  V30 8581 H 819.778 4.11005 -0.930216 0
M  V30 8582 H 818.453 3.23495 -0.115139 0
M  V30 8583 H 817.36 2.8671 -2.40308 0
M  V30 8584 H 818.693 3.78484 -3.1466 0
M  V30 8585 N 820.346 1.18468 1.03938 0
M  V30 8586 C 821.576 1.0043 1.80547 0
M  V30 8587 C 821.984 -0.450407 1.83761 0
M  V30 8588 O 821.327 -1.32463 1.27276 0
M  V30 8589 C 821.389 1.48437 3.27424 0
M  V30 8590 C 821.053 2.96372 3.47869 0
M  V30 8591 C 822.05 3.94217 3.38953 0
M  V30 8592 C 819.735 3.34831 3.74424 0
M  V30 8593 C 821.729 5.28517 3.56298 0
M  V30 8594 C 819.416 4.69294 3.91416 0
M  V30 8595 C 820.414 5.65946 3.82354 0
M  V30 8596 O 820.102 6.97974 3.98858 0
M  V30 8597 H 819.834 0.354853 0.575374 0
M  V30 8598 H 822.388 1.57473 1.31876 0
M  V30 8599 H 820.618 0.857601 3.7707 0
M  V30 8600 H 822.307 1.2677 3.85596 0
M  V30 8601 H 823.073 3.6585 3.184 0
M  V30 8602 H 818.952 2.60161 3.80575 0
M  V30 8603 H 822.496 6.03943 3.49141 0
M  V30 8604 H 818.393 4.97361 4.11463 0
M  V30 8605 H 819.161 7.04895 4.1601 0
M  V30 8606 N 821.824 -1.22873 0.986916 0
M  V30 8607 C 823.101 -1.86939 0.575589 0
M  V30 8608 C 823.481 -1.88656 -0.947205 0
M  V30 8609 O 822.829 -1.3728 -1.82665 0
M  V30 8610 C 823.039 -3.28117 1.18914 0
M  V30 8611 C 824.387 -4.04659 1.28593 0
M  V30 8612 O 825.411 -3.3736 1.14308 0
M  V30 8613 O 824.27 -5.25112 1.51391 0
M  V30 8614 H 821.364 -0.803748 0.194724 0
M  V30 8615 H 823.91 -1.30698 1.08241 0
M  V30 8616 H 822.682 -3.21468 2.231 0
M  V30 8617 H 822.305 -3.91956 0.667535 0
M  V30 8618 N 823.302 -0.75937 -1.38099 0
M  V30 8619 C 824.548 -0.318584 -2.00282 0
M  V30 8620 C 824.881 1.09854 -1.60143 0
M  V30 8621 O 824.156 1.75344 -0.841702 0
M  V30 8622 C 824.439 -0.448047 -3.57302 0
M  V30 8623 C 824.292 -1.9067 -4.07388 0
M  V30 8624 C 825.611 0.155119 -4.39827 0
M  V30 8625 H 822.73 -0.117233 -0.727616 0
M  V30 8626 H 825.372 -0.960097 -1.63958 0
M  V30 8627 H 823.522 0.0981003 -3.88376 0
M  V30 8628 H 825.194 -2.5116 -3.86932 0
M  V30 8629 H 823.437 -2.41979 -3.6004 0
M  V30 8630 H 824.108 -1.94841 -5.1647 0
M  V30 8631 H 826.584 -0.31073 -4.14938 0
M  V30 8632 H 825.46 0.0343264 -5.48889 0
M  V30 8633 H 825.721 1.24407 -4.24235 0
M  V30 8634 N 824.78 1.49157 -0.508906 0
M  V30 8635 C 826.026 2.02773 0.0328469 0
M  V30 8636 C 826.359 1.38714 1.35912 0
M  V30 8637 O 825.634 0.525536 1.87266 0
M  V30 8638 C 825.917 3.59664 0.177088 0
M  V30 8639 C 825.77 4.34239 -1.17287 0
M  V30 8640 C 827.089 4.30505 0.913977 0
M  V30 8641 H 824.208 0.736926 0.0104631 0
M  V30 8642 H 826.85 1.781 -0.661851 0
M  V30 8643 H 825 3.80818 0.768774 0
M  V30 8644 H 826.672 4.24561 -1.80404 0
M  V30 8645 H 824.915 3.96486 -1.76016 0
M  V30 8646 H 825.586 5.42397 -1.02516 0
M  V30 8647 H 828.062 4.14054 0.412084 0
M  V30 8648 H 826.938 5.40012 0.983759 0
M  V30 8649 H 827.199 3.96302 1.95951 0
M  V30 8650 N 826.258 0.243083 1.55714 0
M  V30 8651 C 827.483 -0.389944 2.03701 0
M  V30 8652 C 827.908 -1.51025 1.12129 0
M  V30 8653 O 827.266 -1.80944 0.11352 0
M  V30 8654 C 827.314 -0.878649 3.49731 0
M  V30 8655 O 826.418 -1.98851 3.61292 0
M  V30 8656 H 825.759 -0.0855115 0.658471 0
M  V30 8657 H 828.289 0.368023 2.01263 0
M  V30 8658 H 828.299 -1.18287 3.90477 0
M  V30 8659 H 826.974 -0.0588107 4.15858 0
M  V30 8660 H 825.551 -1.68928 3.32442 0
M  V30 8661 N 827.736 -1.57571 -0.0300757 0
M  V30 8662 C 828.666 -2.0953 -1.03051 0
M  V30 8663 C 829.647 -0.99761 -1.37774 0
M  V30 8664 O 830.832 -1.27279 -1.46676 0
M  V30 8665 C 827.962 -2.57385 -2.33174 0
M  V30 8666 C 826.916 -3.71409 -2.12696 0
M  V30 8667 C 826.242 -4.05467 -3.4857 0
M  V30 8668 C 827.542 -4.99877 -1.51396 0
M  V30 8669 H 829.236 -2.93367 -0.597999 0
M  V30 8670 H 826.782 -1.41127 -0.286203 0
M  V30 8671 H 828.735 -2.92355 -3.03491 0
M  V30 8672 H 827.459 -1.70629 -2.78484 0
M  V30 8673 H 826.118 -3.36786 -1.44813 0
M  V30 8674 H 825.766 -3.15779 -3.91526 0
M  V30 8675 H 825.466 -4.82269 -3.35694 0
M  V30 8676 H 826.99 -4.4297 -4.2025 0
M  V30 8677 H 828.404 -5.3281 -2.11629 0
M  V30 8678 H 826.801 -5.81283 -1.49098 0
M  V30 8679 H 827.871 -4.82522 -0.479676 0
M  V30 8680 N 829.214 0.302327 -1.54673 0
M  V30 8681 C 830.124 1.39542 -1.88587 0
M  V30 8682 C 831.14 1.55543 -0.779895 0
M  V30 8683 O 832.316 1.70233 -1.07623 0
M  V30 8684 C 829.381 2.7394 -2.12504 0
M  V30 8685 C 828.442 2.66935 -3.3622 0
M  V30 8686 C 827.675 3.94923 -3.58987 0
M  V30 8687 O 827.898 4.94218 -2.84789 0
M  V30 8688 O 826.832 3.96896 -4.52501 0
M  V30 8689 H 830.658 1.13784 -2.81579 0
M  V30 8690 H 828.243 0.49827 -1.40846 0
M  V30 8691 H 830.125 3.5346 -2.29443 0
M  V30 8692 H 828.8 2.99544 -1.22698 0
M  V30 8693 H 827.707 1.85892 -3.24646 0
M  V30 8694 H 829.04 2.46283 -4.26152 0
M  V30 8695 N 830.692 1.47107 0.565454 0
M  V30 8696 C 831.642 1.55384 1.66852 0
M  V30 8697 C 832.626 0.413369 1.55499 0
M  V30 8698 O 833.818 0.66281 1.64121 0
M  V30 8699 C 830.947 1.5634 3.05635 0
M  V30 8700 C 830.033 2.75742 3.22222 0
M  V30 8701 N 830.424 4.00515 3.08903 0
M  V30 8702 C 828.722 2.7233 3.53203 0
M  V30 8703 C 829.423 4.80435 3.27959 0
M  V30 8704 N 828.399 4.1261 3.53913 0
M  V30 8705 H 832.201 2.49635 1.55111 0
M  V30 8706 H 829.715 1.42986 0.769982 0
M  V30 8707 H 831.712 1.60359 3.84825 0
M  V30 8708 H 830.372 0.631785 3.18494 0
M  V30 8709 H 831.383 4.31501 2.86404 0
M  V30 8710 H 828.06 1.8827 3.7264 0
M  V30 8711 H 829.45 5.89334 3.22699 0
M  V30 8712 N 832.17 -0.811516 1.35101 0
M  V30 8713 C 833.08 -1.95475 1.29718 0
M  V30 8714 C 834.096 -1.72813 0.202909 0
M  V30 8715 O 835.272 -1.96725 0.431414 0
M  V30 8716 C 832.337 -3.29975 1.06385 0
M  V30 8717 C 831.398 -3.65566 2.25077 0
M  V30 8718 C 830.631 -4.93648 2.02848 0
M  V30 8719 O 830.854 -5.617 0.992442 0
M  V30 8720 O 829.788 -5.27384 2.90087 0
M  V30 8721 H 833.614 -2.02961 2.25921 0
M  V30 8722 H 831.199 -0.948583 1.15422 0
M  V30 8723 H 833.081 -4.10506 0.951999 0
M  V30 8724 H 831.756 -3.2343 0.132294 0
M  V30 8725 H 830.663 -2.85432 2.41825 0
M  V30 8726 H 831.996 -3.7681 3.16662 0
M  V30 8727 N 833.648 -1.19017 -1.03309 0
M  V30 8728 C 834.876 -1.01534 -1.80273 0
M  V30 8729 C 835.291 0.43605 -1.83696 0
M  V30 8730 O 834.648 1.30288 -1.27794 0
M  V30 8731 C 834.699 -1.5722 -3.25522 0
M  V30 8732 O 834.42 -2.96677 -3.22358 0
M  V30 8733 C 835.921 -1.4446 -4.19102 0
M  V30 8734 H 833.141 -0.358094 -0.567459 0
M  V30 8735 H 835.685 -1.57738 -1.3015 0
M  V30 8736 H 833.84 -1.05174 -3.7285 0
M  V30 8737 H 834.254 -3.22795 -4.13405 0
M  V30 8738 H 835.728 -1.88209 -5.18923 0
M  V30 8739 H 836.205 -0.394471 -4.37425 0
M  V30 8740 H 836.811 -1.95616 -3.77643 0
M  V30 8741 N 835.127 1.22348 -0.993418 0
M  V30 8742 C 836.057 2.26584 -0.564088 0
M  V30 8743 C 837.038 1.65102 0.409298 0
M  V30 8744 O 838.223 1.91872 0.299819 0
M  V30 8745 C 835.353 3.47087 0.121554 0
M  V30 8746 C 834.307 4.21009 -0.770429 0
M  V30 8747 C 833.633 5.34678 0.0481586 0
M  V30 8748 C 834.933 4.79636 -2.06752 0
M  V30 8749 H 836.627 2.62749 -1.43538 0
M  V30 8750 H 834.173 1.26303 -0.691628 0
M  V30 8751 H 836.126 4.19166 0.433303 0
M  V30 8752 H 834.85 3.1002 1.0274 0
M  V30 8753 H 833.509 3.50764 -1.06583 0
M  V30 8754 H 833.157 4.93852 0.954933 0
M  V30 8755 H 832.857 5.85061 -0.545641 0
M  V30 8756 H 834.381 6.09573 0.353991 0
M  V30 8757 H 835.795 5.43654 -1.81969 0
M  V30 8758 H 834.192 5.4036 -2.61019 0
M  V30 8759 H 835.262 3.99659 -2.74592 0
M  V30 8760 N 836.605 0.766683 1.37694 0
M  V30 8761 C 837.851 0.329201 2.0011 0
M  V30 8762 C 838.184 -1.09004 1.60723 0
M  V30 8763 O 837.459 -1.74895 0.850989 0
M  V30 8764 C 837.742 0.466989 3.57059 0
M  V30 8765 C 837.595 1.92828 4.06371 0
M  V30 8766 C 838.914 -0.131792 4.39903 0
M  V30 8767 H 836.033 0.12109 0.726984 0
M  V30 8768 H 838.675 0.968779 1.63446 0
M  V30 8769 H 836.825 -0.0775023 3.88423 0
M  V30 8770 H 838.497 2.53208 3.85595 0
M  V30 8771 H 836.74 2.43884 3.58752 0
M  V30 8772 H 837.411 1.97577 5.15429 0
M  V30 8773 H 839.887 0.332731 4.14768 0
M  V30 8774 H 838.763 -0.005217 5.489 0
M  V30 8775 H 839.024 -1.22156 4.24889 0
M  V30 8776 N 838.083 -1.48885 0.516809 0
M  V30 8777 C 839.013 -2.32241 -0.242157 0
M  V30 8778 C 839.994 -1.41258 -0.947633 0
M  V30 8779 O 841.179 -1.70156 -0.935973 0
M  V30 8780 C 838.309 -3.22151 -1.29754 0
M  V30 8781 C 837.263 -4.22053 -0.710995 0
M  V30 8782 C 836.589 -5.01007 -1.86806 0
M  V30 8783 C 837.889 -5.21388 0.30853 0
M  V30 8784 H 839.583 -2.95943 0.453651 0
M  V30 8785 H 837.129 -1.42316 0.219612 0
M  V30 8786 H 839.082 -3.79284 -1.83634 0
M  V30 8787 H 837.806 -2.56423 -2.02274 0
M  V30 8788 H 836.465 -3.66087 -0.193819 0
M  V30 8789 H 836.113 -4.31713 -2.58133 0
M  V30 8790 H 835.813 -5.68615 -1.48159 0
M  V30 8791 H 837.337 -5.60989 -2.4109 0
M  V30 8792 H 838.751 -5.73122 -0.142703 0
M  V30 8793 H 837.148 -5.96975 0.611673 0
M  V30 8794 H 838.218 -4.69329 1.21894 0
M  V30 8795 N 839.561 -0.251338 -1.55583 0
M  V30 8796 C 840.807 0.37272 -1.99346 0
M  V30 8797 C 841.14 1.57266 -1.13934 0
M  V30 8798 O 840.415 1.9343 -0.20377 0
M  V30 8799 C 840.698 0.778245 -3.5159 0
M  V30 8800 C 840.551 -0.427394 -4.47765 0
M  V30 8801 C 841.87 1.62358 -4.09057 0
M  V30 8802 H 838.989 0.134002 -0.724715 0
M  V30 8803 H 841.631 -0.353536 -1.86682 0
M  V30 8804 H 839.781 1.39704 -3.62512 0
M  V30 8805 H 841.453 -1.06586 -4.48818 0
M  V30 8806 H 839.696 -1.06972 -4.20404 0
M  V30 8807 H 840.367 -0.10025 -5.51909 0
M  V30 8808 H 842.843 1.1012 -4.01264 0
M  V30 8809 H 841.719 1.87617 -5.1584 0
M  V30 8810 H 841.98 2.59688 -3.57791 0
M  V30 8811 N 841.039 1.57585 0.0217189 0
M  V30 8812 C 842.285 1.89887 0.712099 0
M  V30 8813 C 842.618 0.849971 1.74611 0
M  V30 8814 O 841.893 -0.13407 1.94037 0
M  V30 8815 C 842.176 3.32815 1.37499 0
M  V30 8816 C 842.029 4.48405 0.353993 0
M  V30 8817 C 843.348 3.74786 2.30703 0
M  V30 8818 H 840.467 0.690588 0.257405 0
M  V30 8819 H 843.109 1.89983 -0.0251145 0
M  V30 8820 H 841.259 3.32863 2.00335 0
M  V30 8821 H 842.931 4.60491 -0.273015 0
M  V30 8822 H 841.174 4.32573 -0.32599 0
M  V30 8823 H 841.845 5.45316 0.85644 0
M  V30 8824 H 844.321 3.76151 1.77904 0
M  V30 8825 H 843.197 4.75585 2.74061 0
M  V30 8826 H 843.458 3.07449 3.17691 0
M  V30 8827 N 842.517 -0.29412 1.54831 0
M  V30 8828 C 843.745 -1.04724 1.78439 0
M  V30 8829 C 844.16 -1.80695 0.547239 0
M  V30 8830 O 843.517 -1.75989 -0.483141 0
M  V30 8831 C 843.568 -2.02242 2.99634 0
M  V30 8832 O 843.289 -1.29352 4.18568 0
M  V30 8833 C 844.79 -2.89537 3.35683 0
M  V30 8834 H 842.01 -0.310285 0.594949 0
M  V30 8835 H 844.554 -0.331306 2.01798 0
M  V30 8836 H 842.709 -2.69328 2.78462 0
M  V30 8837 H 843.123 -1.94901 4.86943 0
M  V30 8838 H 844.597 -3.538 4.23709 0
M  V30 8839 H 845.074 -3.58201 2.54143 0
M  V30 8840 H 845.68 -2.27973 3.59038 0
M  V30 8841 N 843.995 -1.47404 -0.557645 0
M  V30 8842 C 845.22 -1.57868 -1.34508 0
M  V30 8843 C 845.645 -0.229151 -1.86699 0
M  V30 8844 O 845.003 0.794908 -1.62944 0
M  V30 8845 C 845.051 -2.60712 -2.49122 0
M  V30 8846 O 844.155 -2.15952 -3.51338 0
M  V30 8847 H 843.496 -0.530335 -0.399551 0
M  V30 8848 H 846.026 -1.93181 -0.673954 0
M  V30 8849 H 846.036 -2.81118 -2.95697 0
M  V30 8850 H 844.711 -3.58701 -2.10491 0
M  V30 8851 H 843.288 -2.05644 -3.11071 0
M  V30 8852 N 845.473 0.80434 -1.35529 0
M  V30 8853 C 846.701 1.59283 -1.32048 0
M  V30 8854 C 847.116 1.88527 0.101556 0
M  V30 8855 O 846.473 1.48975 1.05417 0
M  V30 8856 C 846.524 2.92276 -2.12737 0
M  V30 8857 O 846.245 2.64299 -3.49396 0
M  V30 8858 C 847.746 3.86631 -2.16867 0
M  V30 8859 H 844.966 0.494523 -0.453528 0
M  V30 8860 H 847.51 0.999415 -1.78415 0
M  V30 8861 H 845.665 3.48125 -1.69964 0
M  V30 8862 H 846.079 3.4923 -3.91329 0
M  V30 8863 H 847.553 4.77053 -2.77712 0
M  V30 8864 H 848.03 4.23384 -1.16803 0
M  V30 8865 H 848.636 3.36717 -2.59811 0
M  V30 8866 N 846.951 1.19563 1.02676 0
M  V30 8867 C 848.198 0.999568 1.7611 0
M  V30 8868 C 848.526 -0.469432 1.8875 0
M  V30 8869 O 847.781 -1.36481 1.40255 0
M  V30 8870 C 848.08 1.61619 3.18769 0
M  V30 8871 C 847.746 3.11366 3.26132 0
M  V30 8872 C 846.408 3.52234 3.27848 0
M  V30 8873 C 848.76 4.07374 3.25109 0
M  V30 8874 C 846.088 4.87658 3.26201 0
M  V30 8875 C 848.44 5.42731 3.25002 0
M  V30 8876 C 847.104 5.83027 3.25017 0
M  V30 8877 H 846.374 0.365768 0.644434 0
M  V30 8878 H 849.021 1.48838 1.20497 0
M  V30 8879 H 847.326 1.04974 3.77476 0
M  V30 8880 H 849.023 1.43975 3.74262 0
M  V30 8881 H 845.613 2.78804 3.25525 0
M  V30 8882 H 849.797 3.76842 3.22961 0
M  V30 8883 H 845.053 5.18156 3.24537 0
M  V30 8884 H 849.227 6.16879 3.23161 0
M  V30 8885 H 846.854 6.87936 3.23494 0
M  V30 8886 N 848.429 -1.21819 0.999893 0
M  V30 8887 C 849.677 -1.90375 0.678351 0
M  V30 8888 C 849.998 -1.78155 -0.792824 0
M  V30 8889 O 849.268 -1.17319 -1.56885 0
M  V30 8890 H 847.848 -0.704661 0.247915 0
M  V30 8891 H 850.51 -1.48021 1.2679 0
M  V30 8892 H 849.606 -2.97385 0.947023 0
M  V30 8893 N 849.908 -0.773975 -1.37286 0
M  V30 8894 C 850.856 -0.149581 -2.32119 0
M  V30 8895 C 851.85 0.682457 -1.55045 0
M  V30 8896 O 853.056 0.579269 -1.70424 0
M  V30 8897 H 849.431 -0.0295857 -0.751418 0
M  V30 8898 H 851.402 -0.965117 -2.82362 0
M  V30 8899 C 850.151 0.713409 -3.40302 0
M  V30 8900 H 849.474 0.0825416 -3.99715 0
M  V30 8901 H 850.914 1.11723 -4.09016 0
M  V30 8902 C 849.373 1.86498 -2.80571 0
M  V30 8903 O 849.903 2.9606 -2.71498 0
M  V30 8904 N 848.109 1.66629 -2.38082 0
M  V30 8905 H 847.656 0.775145 -2.45661 0
M  V30 8906 H 847.614 2.43845 -1.98461 0
M  V30 8907 N 851.386 1.48609 -0.524698 0
M  V30 8908 C 852.634 2.02097 0.0112991 0
M  V30 8909 C 852.955 1.40455 1.35268 0
M  V30 8910 O 852.225 0.56807 1.87483 0
M  V30 8911 H 850.805 0.746966 0.00716426 0
M  V30 8912 H 853.467 1.82378 -0.687329 0
M  V30 8913 H 852.563 3.11855 0.123531 0
M  V30 8914 N 852.864 0.259585 1.55447 0
M  V30 8915 C 854.141 -0.412595 1.91199 0
M  V30 8916 C 854.521 -1.74909 1.18194 0
M  V30 8917 O 853.869 -2.26474 0.303603 0
M  V30 8918 C 854.079 -0.568195 3.44344 0
M  V30 8919 C 855.427 -0.858253 4.15836 0
M  V30 8920 O 856.451 -0.653588 3.50152 0
M  V30 8921 O 855.31 -1.24874 5.32042 0
M  V30 8922 H 852.404 -0.223403 0.796254 0
M  V30 8923 H 854.95 0.30459 1.66944 0
M  V30 8924 H 853.722 0.372989 3.89518 0
M  V30 8925 H 853.345 -1.33544 3.74502 0
M  V30 8926 N 854.342 -1.57594 -0.0133615 0
M  V30 8927 C 855.753 -1.78168 -0.557937 0
M  V30 8928 C 856.104 -0.892616 -1.74719 0
M  V30 8929 O 855.229 -0.0915491 -2.16206 0
M  V30 8930 C 855.824 -3.23115 -1.01894 0
M  V30 8931 C 854.383 -3.44831 -1.50892 0
M  V30 8932 C 853.53 -2.73558 -0.454044 0
M  V30 8933 H 856.481 -1.57266 0.212843 0
M  V30 8934 H 856.502 -3.30493 -1.8856 0
M  V30 8935 H 856.014 -3.87798 -0.153175 0
M  V30 8936 H 854.115 -2.85345 -2.39602 0
M  V30 8937 H 854.228 -4.53485 -1.54559 0
M  V30 8938 H 852.592 -2.37787 -0.912666 0
M  V30 8939 H 853.375 -3.40932 0.402524 0
M  V30 8940 N 855.82 0.285905 -1.54985 0
M  V30 8941 C 857.231 0.857869 -1.65824 0
M  V30 8942 C 857.582 1.87531 -0.576763 0
M  V30 8943 O 856.707 2.14528 0.284016 0
M  V30 8944 C 857.302 1.56277 -3.00604 0
M  V30 8945 C 855.861 2.08294 -3.13513 0
M  V30 8946 C 855.008 0.920633 -2.61571 0
M  V30 8947 H 857.959 0.0625463 -1.58577 0
M  V30 8948 H 857.98 2.42912 -2.92872 0
M  V30 8949 H 857.492 0.822017 -3.79295 0
M  V30 8950 H 855.593 2.8537 -2.39572 0
M  V30 8951 H 855.706 2.3071 -4.19892 0
M  V30 8952 H 854.07 1.31043 -2.18403 0
M  V30 8953 H 854.853 0.193594 -3.42754 0
M  V30 8954 N 857.298 1.47698 0.54982 0
M  V30 8955 C 858.208 1.63386 1.68351 0
M  V30 8956 C 859.224 0.516583 1.66155 0
M  V30 8957 O 860.4 0.785088 1.85468 0
M  V30 8958 C 857.465 1.6513 3.04849 0
M  V30 8959 C 856.526 2.88338 3.18056 0
M  V30 8960 C 855.759 2.8999 4.48042 0
M  V30 8961 O 855.982 2.00633 5.3395 0
M  V30 8962 O 854.916 3.81938 4.65196 0
M  V30 8963 H 858.742 2.59329 1.58057 0
M  V30 8964 H 856.327 1.30869 0.72067 0
M  V30 8965 H 858.209 1.68913 3.86065 0
M  V30 8966 H 856.884 0.723555 3.1551 0
M  V30 8967 H 855.791 2.90097 2.36209 0
M  V30 8968 H 857.124 3.80431 3.12302 0
M  V30 8969 N 858.776 -0.797141 1.35954 0
M  V30 8970 C 859.724 -1.93084 1.29697 0
M  V30 8971 C 860.718 -1.68329 0.190152 0
M  V30 8972 O 861.924 -1.7643 0.3567 0
M  V30 8973 H 858.299 -0.634531 0.403577 0
M  V30 8974 H 860.27 -1.95481 2.25455 0
M  V30 8975 C 859.019 -3.29996 1.09536 0
M  V30 8976 H 858.342 -3.49607 1.93946 0
M  V30 8977 H 859.782 -4.09696 1.09202 0
M  V30 8978 C 858.241 -3.36304 -0.200381 0
M  V30 8979 O 858.771 -3.83579 -1.19291 0
M  V30 8980 N 856.977 -2.89587 -0.242406 0
M  V30 8981 H 856.524 -2.51307 0.565897 0
M  V30 8982 H 856.482 -2.94189 -1.10906 0
M  V30 8983 N 860.254 -1.20106 -1.0204 0
M  V30 8984 C 861.502 -1.0069 -1.75231 0
M  V30 8985 C 861.823 0.462491 -1.89436 0
M  V30 8986 O 861.093 1.33455 -1.4341 0
M  V30 8987 H 859.673 -0.369576 -0.649171 0
M  V30 8988 H 862.335 -1.51149 -1.23044 0
M  V30 8989 H 861.431 -1.46205 -2.75736 0
M  V30 8990 N 861.732 1.21287 -1.00634 0
M  V30 8991 C 862.642 2.27388 -0.577226 0
M  V30 8992 C 863.658 1.69791 0.380399 0
M  V30 8993 O 864.834 1.99918 0.2439 0
M  V30 8994 C 861.899 3.46588 0.0880532 0
M  V30 8995 C 860.96 4.19453 -0.914222 0
M  V30 8996 C 860.193 5.32962 -0.280596 0
M  V30 8997 O 860.416 5.62895 0.922265 0
M  V30 8998 O 859.35 5.93666 -0.992196 0
M  V30 8999 H 863.176 2.66289 -1.46028 0
M  V30 9000 H 860.761 1.2771 -0.775283 0
M  V30 9001 H 862.643 4.18881 0.460094 0
M  V30 9002 H 861.318 3.09585 0.945461 0
M  V30 9003 H 860.225 3.49376 -1.33744 0
M  V30 9004 H 861.558 4.6037 -1.74126 0
M  V30 9005 N 863.21 0.781244 1.36873 0
M  V30 9006 C 864.435 0.360398 2.04245 0
M  V30 9007 C 864.86 -1.01242 1.58529 0
M  V30 9008 O 864.218 -1.65063 0.749936 0
M  V30 9009 C 864.266 0.42329 3.58107 0
M  V30 9010 O 863.37 -0.572796 4.08403 0
M  V30 9011 H 862.711 0.154386 0.645803 0
M  V30 9012 H 865.241 1.06008 1.74996 0
M  V30 9013 H 865.251 0.283967 4.07011 0
M  V30 9014 H 863.926 1.42477 3.90734 0
M  V30 9015 H 862.503 -0.395809 3.70793 0
M  V30 9016 N 864.689 -1.48329 0.532571 0
M  V30 9017 C 865.936 -2.025 -0.000582356 0
M  V30 9018 C 866.264 -1.40942 -1.34036 0
M  V30 9019 O 865.519 -0.545545 -1.87942 0
M  V30 9020 C 865.818 -3.57 -0.168943 0
M  V30 9021 C 865.484 -4.37357 1.0968 0
M  V30 9022 C 864.146 -4.59033 1.44369 0
M  V30 9023 C 866.498 -4.83882 1.93669 0
M  V30 9024 C 863.826 -5.24481 2.62939 0
M  V30 9025 C 866.178 -5.50637 3.11419 0
M  V30 9026 C 864.842 -5.70551 3.46451 0
M  V30 9027 H 864.112 -0.741 -0.000213099 0
M  V30 9028 H 866.759 -1.78282 0.699117 0
M  V30 9029 H 865.064 -3.80072 -0.951429 0
M  V30 9030 H 866.761 -3.9654 -0.596422 0
M  V30 9031 H 863.351 -4.20748 0.816655 0
M  V30 9032 H 867.535 -4.66936 1.6818 0
M  V30 9033 H 862.791 -5.38096 2.9028 0
M  V30 9034 H 866.965 -5.85655 3.76803 0
M  V30 9035 H 864.592 -6.21037 4.38425 0
M  V30 9036 N 866.167 -0.267825 -1.55308 0
M  V30 9037 C 867.13 0.60965 -2.20943 0
M  V30 9038 C 868.13 1.0869 -1.18504 0
M  V30 9039 O 869.32 0.988248 -1.43455 0
M  V30 9040 C 866.452 1.84027 -2.86961 0
M  V30 9041 H 867.645 0.0366806 -2.99878 0
M  V30 9042 H 865.198 -0.0183941 -1.56289 0
M  V30 9043 H 865.933 2.45394 -2.1202 0
M  V30 9044 H 865.718 1.50605 -3.62023 0
M  V30 9045 H 867.208 2.46442 -3.37129 0
M  V30 9046 N 867.645 1.57599 0.00500368 0
M  V30 9047 C 868.608 2.07058 0.982832 0
M  V30 9048 C 869.608 0.979045 1.27559 0
M  V30 9049 O 870.798 1.24187 1.22161 0
M  V30 9050 C 867.93 2.50782 2.30914 0
M  V30 9051 H 869.123 2.94718 0.555119 0
M  V30 9052 H 866.676 1.54249 0.25237 0
M  V30 9053 H 867.411 1.66351 2.78385 0
M  V30 9054 H 867.196 3.30495 2.10987 0
M  V30 9055 H 868.686 2.89391 3.0107 0
M  V30 9056 N 869.123 -0.277682 1.55134 0
M  V30 9057 C 870.086 -1.32635 1.86924 0
M  V30 9058 C 871.086 -1.42578 0.743507 0
M  V30 9059 O 872.276 -1.4181 1.01171 0
M  V30 9060 C 869.408 -2.70832 2.07034 0
M  V30 9061 H 870.601 -1.0568 2.80663 0
M  V30 9062 H 868.154 -0.515517 1.47554 0
M  V30 9063 H 868.889 -3.02974 1.15661 0
M  V30 9064 H 868.674 -2.65001 2.88993 0
M  V30 9065 H 870.164 -3.46611 2.32918 0
M  V30 9066 N 870.601 -1.47988 -0.541979 0
M  V30 9067 C 871.531 -1.64503 -1.65713 0
M  V30 9068 C 872.512 -0.494116 -1.62765 0
M  V30 9069 O 873.697 -0.725256 -1.80149 0
M  V30 9070 C 870.827 -1.67337 -3.04328 0
M  V30 9071 C 869.781 -2.81809 -3.2213 0
M  V30 9072 C 869.107 -2.69724 -4.61685 0
M  V30 9073 C 870.407 -4.23241 -3.06046 0
M  V30 9074 H 872.101 -2.5786 -1.52147 0
M  V30 9075 H 869.647 -1.24094 -0.730529 0
M  V30 9076 H 871.6 -1.77481 -3.82202 0
M  V30 9077 H 870.324 -0.705514 -3.18889 0
M  V30 9078 H 868.983 -2.71201 -2.46669 0
M  V30 9079 H 868.631 -1.70934 -4.73065 0
M  V30 9080 H 868.331 -3.4653 -4.74543 0
M  V30 9081 H 869.855 -2.81818 -5.41674 0
M  V30 9082 H 871.269 -4.34746 -3.73723 0
M  V30 9083 H 869.666 -5.00952 -3.30405 0
M  V30 9084 H 870.736 -4.40543 -2.02609 0
M  V30 9085 N 872.079 0.78992 -1.36375 0
M  V30 9086 C 873.012 1.90907 -1.25019 0
M  V30 9087 C 873.99 1.62043 -0.134463 0
M  V30 9088 O 875.174 1.86008 -0.305506 0
M  V30 9089 C 872.301 3.25716 -0.928822 0
M  V30 9090 C 871.347 3.73511 -2.05892 0
M  V30 9091 S 872.18 3.89332 -3.6767 0
M  V30 9092 C 873.336 5.27017 -3.37645 0
M  V30 9093 H 873.569 2.00247 -2.19746 0
M  V30 9094 H 871.102 0.949097 -1.21785 0
M  V30 9095 H 873.06 4.03586 -0.750219 0
M  V30 9096 H 871.721 3.141 0.000658424 0
M  V30 9097 H 870.914 4.71195 -1.78862 0
M  V30 9098 H 870.516 3.02688 -2.19672 0
M  V30 9099 H 872.808 6.1158 -2.91507 0
M  V30 9100 H 873.751 5.5905 -4.3459 0
M  V30 9101 H 874.159 4.94093 -2.73006 0
M  V30 9102 N 873.557 1.20646 1.01402 0
M  V30 9103 C 874.467 0.973385 2.13453 0
M  V30 9104 C 875.483 -0.0715865 1.73853 0
M  V30 9105 O 876.659 0.116438 2.01063 0
M  V30 9106 C 873.724 0.531285 3.42605 0
M  V30 9107 C 872.785 1.64741 3.96433 0
M  V30 9108 C 872.018 1.22631 5.1942 0
M  V30 9109 O 872.241 0.0960891 5.70319 0
M  V30 9110 O 871.175 2.03474 5.66465 0
M  V30 9111 H 875.001 1.91164 2.35987 0
M  V30 9112 H 872.586 0.990553 1.11841 0
M  V30 9113 H 874.468 0.294095 4.20373 0
M  V30 9114 H 873.143 -0.378358 3.21481 0
M  V30 9115 H 872.05 1.93891 3.19933 0
M  V30 9116 H 873.383 2.53415 4.2195 0
M  V30 9117 N 875.035 -1.20752 1.01276 0
M  V30 9118 C 875.968 -2.22091 0.524472 0
M  V30 9119 C 876.946 -1.5692 -0.426017 0
M  V30 9120 O 878.13 -1.8528 -0.346919 0
M  V30 9121 C 875.257 -3.37868 -0.237224 0
M  V30 9122 C 874.303 -4.21327 0.662236 0
M  V30 9123 S 875.136 -4.91352 2.12916 0
M  V30 9124 C 876.292 -6.10553 1.37752 0
M  V30 9125 H 876.525 -2.63166 1.38315 0
M  V30 9126 H 874.058 -1.30742 0.821332 0
M  V30 9127 H 876.016 -4.04985 -0.670599 0
M  V30 9128 H 874.677 -2.95261 -1.07143 0
M  V30 9129 H 873.87 -5.03944 0.0751085 0
M  V30 9130 H 873.472 -3.59445 1.03322 0
M  V30 9131 H 875.764 -6.74322 0.655491 0
M  V30 9132 H 876.707 -6.73717 2.17969 0
M  V30 9133 H 877.115 -5.57566 0.882088 0
M  V30 9134 N 876.513 -0.788492 -1.36457 0
M  V30 9135 C 877.738 -0.371224 -2.04051 0
M  V30 9136 C 878.163 1.004 -1.59064 0
M  V30 9137 O 877.521 1.64663 -0.758679 0
M  V30 9138 C 877.569 -0.442275 -3.57877 0
M  V30 9139 O 876.673 0.55113 -4.08701 0
M  V30 9140 H 876.014 -0.157808 -0.644975 0
M  V30 9141 H 878.544 -1.06935 -1.74431 0
M  V30 9142 H 878.554 -0.305548 -4.06854 0
M  V30 9143 H 877.229 -1.44547 -3.89973 0
M  V30 9144 H 875.806 0.37614 -3.70998 0
M  V30 9145 N 877.991 1.48044 -0.54043 0
M  V30 9146 C 879.239 2.02097 -0.0101367 0
M  V30 9147 C 879.56 1.41881 1.33771 0
M  V30 9148 O 878.83 0.587923 1.8687 0
M  V30 9149 H 877.41 0.747 -0.000758716 0
M  V30 9150 H 880.072 1.81639 -0.706634 0
M  V30 9151 H 879.168 3.11969 0.0904474 0
M  V30 9152 N 879.47 0.276058 1.55163 0
M  V30 9153 C 880.881 -0.221516 1.85381 0
M  V30 9154 C 881.232 -1.55372 1.19808 0
M  V30 9155 O 880.357 -2.10855 0.486742 0
M  V30 9156 C 880.952 -0.408706 3.36326 0
M  V30 9157 C 879.511 -0.850512 3.66665 0
M  V30 9158 C 878.658 0.055656 2.77244 0
M  V30 9159 H 881.609 0.497819 1.5069 0
M  V30 9160 H 881.63 -1.24711 3.59482 0
M  V30 9161 H 881.142 0.561052 3.84023 0
M  V30 9162 H 879.243 -1.83171 3.24468 0
M  V30 9163 H 879.356 -0.687181 4.74146 0
M  V30 9164 H 877.72 -0.460819 2.50497 0
M  V30 9165 H 878.503 1.02131 3.27756 0
M  V30 9166 N 880.948 -1.576 0.00335426 0
M  V30 9167 C 882.178 -1.94713 -0.690682 0
M  V30 9168 C 882.586 -0.876915 -1.67651 0
M  V30 9169 O 881.929 0.152434 -1.83066 0
M  V30 9170 C 881.991 -3.27833 -1.47532 0
M  V30 9171 C 881.655 -4.52344 -0.650704 0
M  V30 9172 C 882.652 -5.19862 0.0630537 0
M  V30 9173 C 880.337 -4.98755 -0.595687 0
M  V30 9174 C 882.331 -6.32093 0.820779 0
M  V30 9175 C 880.018 -6.10875 0.165761 0
M  V30 9176 C 881.016 -6.77401 0.872724 0
M  V30 9177 O 880.704 -7.87372 1.62174 0
M  V30 9178 H 880.436 -0.646627 -0.197104 0
M  V30 9179 H 882.99 -2.05335 0.0516082 0
M  V30 9180 H 881.22 -3.13628 -2.26217 0
M  V30 9181 H 882.909 -3.50034 -2.05501 0
M  V30 9182 H 883.675 -4.84991 0.0297223 0
M  V30 9183 H 879.554 -4.46797 -1.13549 0
M  V30 9184 H 883.098 -6.83953 1.37312 0
M  V30 9185 H 878.995 -6.45187 0.200901 0
M  V30 9186 H 879.763 -8.03905 1.5388 0
M  V30 9187 N 882.426 0.269451 -1.5528 0
M  V30 9188 C 883.374 1.35303 -1.89198 0
M  V30 9189 C 884.368 1.50956 -0.768671 0
M  V30 9190 O 885.574 1.52699 -0.953054 0
M  V30 9191 H 881.949 0.452591 -0.600554 0
M  V30 9192 H 883.92 1.03949 -2.79709 0
M  V30 9193 C 882.669 2.70585 -2.18356 0
M  V30 9194 H 881.992 2.59332 -3.04281 0
M  V30 9195 H 883.432 3.45335 -2.46007 0
M  V30 9196 C 881.891 3.21954 -0.992327 0
M  V30 9197 O 882.421 4.01048 -0.228769 0
M  V30 9198 N 880.627 2.79682 -0.789062 0
M  V30 9199 H 880.174 2.15475 -1.41167 0
M  V30 9200 H 880.132 3.14399 0.00634776 0
M  V30 9201 N 883.904 1.48273 0.534124 0
M  V30 9202 C 885.129 1.59988 1.31979 0
M  V30 9203 C 885.554 0.258824 1.86311 0
M  V30 9204 O 884.912 -0.768885 1.64188 0
M  V30 9205 C 884.96 2.64642 2.44943 0
M  V30 9206 O 884.064 2.21515 3.47858 0
M  V30 9207 H 883.405 0.536625 0.391063 0
M  V30 9208 H 885.935 1.94229 0.643135 0
M  V30 9209 H 885.945 2.85786 2.91187 0
M  V30 9210 H 884.62 3.62004 2.04758 0
M  V30 9211 H 883.197 2.10567 3.0776 0
M  V30 9212 N 885.382 -0.782676 1.36792 0
M  V30 9213 C 886.607 -1.57676 1.34733 0
M  V30 9214 C 887.032 -1.87979 -0.0675253 0
M  V30 9215 O 886.39 -1.48404 -1.04144 0
M  V30 9216 C 886.438 -2.87047 2.18257 0
M  V30 9217 O 885.542 -3.80946 1.57969 0
M  V30 9218 H 884.883 -0.478034 0.460846 0
M  V30 9219 H 887.413 -0.969578 1.80168 0
M  V30 9220 H 887.423 -3.36254 2.31079 0
M  V30 9221 H 886.098 -2.64319 3.21104 0
M  V30 9222 H 884.675 -3.39558 1.54126 0
M  V30 9223 N 886.86 -1.21182 -1.00761 0
M  V30 9224 C 888.271 -1.02652 -1.55947 0
M  V30 9225 C 888.622 0.414466 -1.91772 0
M  V30 9226 O 887.747 1.29727 -1.73204 0
M  V30 9227 C 888.342 -1.85713 -2.83366 0
M  V30 9228 C 886.901 -1.71523 -3.35048 0
M  V30 9229 C 886.048 -1.83087 -2.08265 0
M  V30 9230 H 888.999 -1.35242 -0.830379 0
M  V30 9231 H 889.02 -1.36583 -3.55141 0
M  V30 9232 H 888.532 -2.90584 -2.5726 0
M  V30 9233 H 886.633 -0.693257 -3.66094 0
M  V30 9234 H 886.746 -2.53333 -4.06644 0
M  V30 9235 H 885.11 -1.26367 -2.21141 0
M  V30 9236 H 885.893 -2.8946 -1.84575 0
M  V30 9237 N 888.338 1.20213 -1.01915 0
M  V30 9238 C 889.754 1.41696 -0.734459 0
M  V30 9239 C 889.954 1.89504 0.684867 0
M  V30 9240 O 889.01 2.06556 1.45227 0
M  V30 9241 C 890.323 2.43644 -1.76233 0
M  V30 9242 C 891.871 2.57406 -1.78076 0
M  V30 9243 C 892.346 3.626 -2.79796 0
M  V30 9244 N 893.837 3.70086 -2.78551 0
M  V30 9245 C 894.572 4.51145 -3.53915 0
M  V30 9246 N 894.068 5.35988 -4.38963 0
M  V30 9247 N 895.861 4.45702 -3.425 0
M  V30 9248 H 888.012 0.874976 -1.93541 0
M  V30 9249 H 890.275 0.446647 -0.836188 0
M  V30 9250 H 889.981 2.15519 -2.77929 0
M  V30 9251 H 889.855 3.42672 -1.57657 0
M  V30 9252 H 892.242 2.8486 -0.770634 0
M  V30 9253 H 892.323 1.58565 -2.00725 0
M  V30 9254 H 891.967 3.35889 -3.80973 0
M  V30 9255 H 891.897 4.61069 -2.54407 0
M  V30 9256 H 894.388 3.09484 -2.1686 0
M  V30 9257 H 894.701 5.94932 -4.9323 0
M  V30 9258 H 893.046 5.35482 -4.4304 0
M  V30 9259 H 896.237 3.78456 -2.75478 0
M  V30 9260 H 896.41 5.08637 -4.01487 0
M  V30 9261 N 889.816 0.795718 1.36037 0
M  V30 9262 C 891.227 0.433379 1.816 0
M  V30 9263 C 891.578 -1.04341 1.66155 0
M  V30 9264 O 890.703 -1.81004 1.18603 0
M  V30 9265 C 891.298 0.77985 3.29703 0
M  V30 9266 C 889.857 0.470256 3.73451 0
M  V30 9267 C 889.004 1.01119 2.58206 0
M  V30 9268 H 891.955 0.988317 1.24169 0
M  V30 9269 H 891.976 0.0732898 3.80429 0
M  V30 9270 H 891.488 1.85473 3.40913 0
M  V30 9271 H 889.589 -0.596332 3.67797 0
M  V30 9272 H 889.702 0.995276 4.68648 0
M  V30 9273 H 888.066 0.434077 2.50974 0
M  V30 9274 H 888.849 2.09196 2.72198 0
M  V30 9275 N 891.294 -1.47756 0.548274 0
M  V30 9276 C 892.204 -2.33678 -0.207773 0
M  V30 9277 C 893.22 -1.47636 -0.920843 0
M  V30 9278 O 894.396 -1.80583 -0.89173 0
M  V30 9279 C 891.461 -3.24147 -1.23003 0
M  V30 9280 C 890.522 -4.26073 -0.52535 0
M  V30 9281 C 889.755 -5.12219 -1.4989 0
M  V30 9282 O 889.978 -5.0066 -2.73305 0
M  V30 9283 O 888.912 -5.93051 -1.02828 0
M  V30 9284 H 892.738 -2.99609 0.496794 0
M  V30 9285 H 890.323 -1.4617 0.308982 0
M  V30 9286 H 892.205 -3.80055 -1.82034 0
M  V30 9287 H 890.88 -2.60855 -1.91668 0
M  V30 9288 H 889.787 -3.7395 0.105927 0
M  V30 9289 H 891.12 -4.92054 0.119686 0
M  V30 9290 N 892.772 -0.284283 -1.55015 0
M  V30 9291 C 893.704 0.63258 -2.20298 0
M  V30 9292 C 894.717 1.11045 -1.1905 0
M  V30 9293 O 895.906 1.03078 -1.4573 0
M  V30 9294 C 893.006 1.87599 -2.82241 0
M  V30 9295 C 892.179 1.5434 -4.09265 0
M  V30 9296 C 891.238 2.64023 -4.55169 0
M  V30 9297 O 890.264 2.29821 -5.20741 0
M  V30 9298 N 891.466 3.94255 -4.26079 0
M  V30 9299 H 894.231 0.0737928 -2.99609 0
M  V30 9300 H 891.792 -0.105767 -1.61554 0
M  V30 9301 H 893.784 2.60289 -3.0989 0
M  V30 9302 H 892.354 2.3436 -2.06868 0
M  V30 9303 H 891.574 0.649912 -3.88806 0
M  V30 9304 H 892.862 1.29634 -4.92009 0
M  V30 9305 H 892.26 4.24859 -3.73512 0
M  V30 9306 H 890.817 4.63295 -4.58477 0
M  V30 9307 N 894.251 1.57596 -0.0117121 0
M  V30 9308 C 895.201 2.05641 0.98467 0
M  V30 9309 C 896.185 0.953422 1.2961 0
M  V30 9310 O 897.377 1.21712 1.28512 0
M  V30 9311 C 894.506 2.57285 2.27286 0
M  V30 9312 C 893.592 3.74483 1.99057 0
M  V30 9313 N 893.983 4.85741 1.41029 0
M  V30 9314 C 892.281 3.82637 2.2914 0
M  V30 9315 C 892.982 5.67094 1.29536 0
M  V30 9316 N 891.958 5.13459 1.78497 0
M  V30 9317 H 895.76 2.89069 0.530702 0
M  V30 9318 H 893.274 1.6124 0.193717 0
M  V30 9319 H 895.271 2.89988 2.99521 0
M  V30 9320 H 893.931 1.75281 2.73325 0
M  V30 9321 H 894.942 5.06352 1.08756 0
M  V30 9322 H 891.619 3.11509 2.77972 0
M  V30 9323 H 893.009 6.66525 0.848144 0
M  V30 9324 N 895.729 -0.261212 1.5542 0
M  V30 9325 C 896.676 -1.32315 1.89107 0
M  V30 9326 C 897.646 -1.48517 0.743767 0
M  V30 9327 O 898.831 -1.62733 0.996123 0
M  V30 9328 C 895.971 -2.67626 2.17877 0
M  V30 9329 C 895.084 -2.59549 3.45338 0
M  V30 9330 C 894.219 -3.87118 3.63748 0
M  V30 9331 C 893.258 -3.736 4.8486 0
M  V30 9332 N 892.395 -4.93029 4.99867 0
M  V30 9333 H 897.235 -1.02886 2.79675 0
M  V30 9334 H 894.772 -0.496812 1.38456 0
M  V30 9335 H 896.73 -3.4637 2.32559 0
M  V30 9336 H 895.36 -2.95232 1.30529 0
M  V30 9337 H 894.412 -1.72452 3.39064 0
M  V30 9338 H 895.724 -2.45465 4.34222 0
M  V30 9339 H 894.878 -4.74305 3.78312 0
M  V30 9340 H 893.617 -4.04084 2.73071 0
M  V30 9341 H 892.622 -2.84797 4.70288 0
M  V30 9342 H 893.847 -3.58143 5.76984 0
M  V30 9343 H 891.793 -5.10383 4.12123 0
M  V30 9344 H 891.71 -4.81521 5.82815 0
M  V30 9345 H 892.978 -5.81754 5.18828 0
M  V30 9346 N 897.207 -1.48554 -0.526253 0
M  V30 9347 C 898.432 -1.60686 -1.31129 0
M  V30 9348 C 898.857 -0.268701 -1.86171 0
M  V30 9349 O 898.215 0.760167 -1.64594 0
M  V30 9350 C 898.263 -2.65938 -2.43536 0
M  V30 9351 O 897.367 -2.23356 -3.46678 0
M  V30 9352 H 896.708 -0.538691 -0.388211 0
M  V30 9353 H 899.238 -1.94567 -0.632826 0
M  V30 9354 H 899.248 -2.87327 -2.89668 0
M  V30 9355 H 897.923 -3.63085 -2.02835 0
M  V30 9356 H 896.5 -2.12196 -3.06639 0
M  V30 9357 N 898.685 0.775411 -1.37205 0
M  V30 9358 C 899.915 1.56219 -1.352 0
M  V30 9359 C 900.323 1.89087 0.065456 0
M  V30 9360 O 899.666 1.51655 1.03665 0
M  V30 9361 C 899.728 2.9019 -2.12203 0
M  V30 9362 C 899.392 2.79978 -3.61195 0
M  V30 9363 C 900.389 2.51258 -4.55154 0
M  V30 9364 C 898.074 2.98115 -4.04268 0
M  V30 9365 C 900.068 2.40798 -5.90165 0
M  V30 9366 C 897.755 2.87276 -5.39366 0
M  V30 9367 C 898.753 2.58657 -6.32128 0
M  V30 9368 O 898.441 2.47838 -7.64743 0
M  V30 9369 H 898.173 0.490735 -0.464925 0
M  V30 9370 H 900.727 0.969201 -1.81096 0
M  V30 9371 H 898.957 3.51594 -1.60992 0
M  V30 9372 H 900.646 3.51561 -2.02879 0
M  V30 9373 H 901.412 2.36935 -4.23186 0
M  V30 9374 H 897.291 3.19392 -3.3243 0
M  V30 9375 H 900.835 2.18381 -6.62537 0
M  V30 9376 H 896.732 3.01166 -5.70937 0
M  V30 9377 H 897.5 2.63215 -7.75023 0
M  V30 9378 N 900.163 1.21714 1.00117 0
M  V30 9379 C 901.11 0.979837 2.08968 0
M  V30 9380 C 902.08 -0.0955324 1.65825 0
M  V30 9381 O 903.265 0.0523742 1.90728 0
M  V30 9382 C 900.405 0.554758 3.40612 0
M  V30 9383 C 899.518 1.69999 3.97145 0
M  V30 9384 C 898.653 1.2237 5.16913 0
M  V30 9385 C 897.692 2.34101 5.65564 0
M  V30 9386 N 896.829 1.87579 6.76579 0
M  V30 9387 H 901.669 1.91167 2.28602 0
M  V30 9388 H 899.206 0.952645 1.12085 0
M  V30 9389 H 901.164 0.289526 4.16194 0
M  V30 9390 H 899.794 -0.340073 3.21004 0
M  V30 9391 H 898.846 2.07976 3.18512 0
M  V30 9392 H 900.158 2.54074 4.29241 0
M  V30 9393 H 899.312 0.915358 5.99755 0
M  V30 9394 H 898.051 0.353045 4.8642 0
M  V30 9395 H 897.056 2.65734 4.81316 0
M  V30 9396 H 898.281 3.21669 5.98085 0
M  V30 9397 H 896.227 1.02863 6.47885 0
M  V30 9398 H 896.144 2.65225 7.07949 0
M  V30 9399 H 897.412 1.5979 7.62947 0
M  V30 9400 N 901.641 -1.19671 1.02551 0
M  V30 9401 C 902.89 -1.88591 0.715272 0
M  V30 9402 C 903.203 -1.80274 -0.758982 0
M  V30 9403 O 904.409 -2.44413 -1.18213 0
M  V30 9404 C 902.865 -3.38264 1.22905 0
M  V30 9405 C 902.473 -3.55146 2.73084 0
M  V30 9406 C 904.217 -4.12683 0.994649 0
M  V30 9407 C 902.124 -4.98693 3.17897 0
M  V30 9408 H 901.054 -0.706326 0.263857 0
M  V30 9409 H 903.705 -1.35322 1.23936 0
M  V30 9410 H 902.087 -3.9091 0.632892 0
M  V30 9411 H 903.261 -3.12845 3.38326 0
M  V30 9412 H 901.576 -2.94112 2.94766 0
M  V30 9413 H 904.173 -5.18536 1.30478 0
M  V30 9414 H 904.516 -4.16243 -0.0686466 0
M  V30 9415 H 905.049 -3.66164 1.55464 0
M  V30 9416 H 901.788 -5.00293 4.23542 0
M  V30 9417 H 901.308 -5.4177 2.57381 0
M  V30 9418 H 902.987 -5.67327 3.11045 0
M  V30 9419 N 903.119 -0.802921 -1.35613 0
M  V30 9420 C 904.535 -0.486214 -1.52014 0
M  V30 9421 C 904.735 0.993219 -1.75321 0
M  V30 9422 O 903.791 1.77835 -1.79251 0
M  V30 9423 C 905.104 -1.32839 -2.69767 0
M  V30 9424 C 906.652 -1.32346 -2.83643 0
M  V30 9425 C 907.127 -2.14967 -4.04417 0
M  V30 9426 N 908.618 -2.12484 -4.11588 0
M  V30 9427 C 909.353 -2.73173 -5.04147 0
M  V30 9428 N 908.849 -3.42774 -6.02061 0
M  V30 9429 N 910.642 -2.62834 -4.96865 0
M  V30 9430 H 902.793 -1.76109 -1.18741 0
M  V30 9431 H 905.056 -0.74936 -0.580658 0
M  V30 9432 H 904.762 -2.37813 -2.5911 0
M  V30 9433 H 904.636 -0.979058 -3.64272 0
M  V30 9434 H 907.023 -0.281586 -2.93753 0
M  V30 9435 H 907.104 -1.71264 -1.90006 0
M  V30 9436 H 906.748 -3.19193 -3.95068 0
M  V30 9437 H 906.678 -1.73411 -4.97228 0
M  V30 9438 H 909.169 -1.61839 -3.41492 0
M  V30 9439 H 909.482 -3.86378 -6.69277 0
M  V30 9440 H 907.827 -3.46878 -6.02246 0
M  V30 9441 H 911.018 -2.08049 -4.19325 0
M  V30 9442 H 911.191 -3.10421 -5.68808 0
M  V30 9443 N 904.597 1.47463 -0.556102 0
M  V30 9444 C 905.844 2.02475 -0.0316337 0
M  V30 9445 C 906.172 1.43057 1.31777 0
M  V30 9446 O 905.427 0.575376 1.87051 0
M  V30 9447 C 905.726 3.57224 0.112126 0
M  V30 9448 C 905.392 4.35557 -1.16624 0
M  V30 9449 C 904.054 4.56678 -1.51654 0
M  V30 9450 C 906.406 4.8074 -2.01342 0
M  V30 9451 C 903.734 5.20231 -2.7125 0
M  V30 9452 C 906.086 5.45613 -3.2014 0
M  V30 9453 C 904.75 5.64967 -3.55484 0
M  V30 9454 H 904.02 0.74091 -0.0115756 0
M  V30 9455 H 906.667 1.77148 -0.727392 0
M  V30 9456 H 904.972 3.81538 0.890842 0
M  V30 9457 H 906.669 3.97438 0.533261 0
M  V30 9458 H 903.259 4.19395 -0.883489 0
M  V30 9459 H 907.443 4.64201 -1.75587 0
M  V30 9460 H 902.699 5.3341 -2.98804 0
M  V30 9461 H 906.873 5.79587 -3.86073 0
M  V30 9462 H 904.5 6.13984 -4.4825 0
M  V30 9463 N 906.075 0.2925 1.54862 0
M  V30 9464 C 907.023 -0.603186 2.24643 0
M  V30 9465 C 908.017 -1.1439 1.24946 0
M  V30 9466 O 909.223 -1.09552 1.42823 0
M  V30 9467 H 905.598 -0.213105 0.721173 0
M  V30 9468 H 907.569 0.00799278 2.98399 0
M  V30 9469 C 906.318 -1.76769 2.99413 0
M  V30 9470 H 905.641 -1.36084 3.75927 0
M  V30 9471 H 907.081 -2.37066 3.51533 0
M  V30 9472 C 905.54 -2.66669 2.05886 0
M  V30 9473 O 906.07 -3.67525 1.62136 0
M  V30 9474 N 904.276 -2.34216 1.7202 0
M  V30 9475 H 903.823 -1.52246 2.07795 0
M  V30 9476 H 903.781 -2.94635 1.09717 0
M  V30 9477 N 907.553 -1.57587 0.0200696 0
M  V30 9478 C 908.778 -1.96124 -0.674547 0
M  V30 9479 C 909.203 -0.896068 -1.65385 0
M  V30 9480 O 908.561 0.143925 -1.80728 0
M  V30 9481 C 908.609 -3.3376 -1.36517 0
M  V30 9482 O 907.713 -3.29483 -2.48022 0
M  V30 9483 H 907.054 -0.639719 -0.177919 0
M  V30 9484 H 909.584 -2.04447 0.0792317 0
M  V30 9485 H 909.594 -3.69785 -1.72403 0
M  V30 9486 H 908.269 -4.10832 -0.647265 0
M  V30 9487 H 906.846 -3.05162 -2.14314 0
M  V30 9488 N 909.032 0.252966 -1.55557 0
M  V30 9489 C 910.281 0.979736 -1.76307 0
M  V30 9490 C 910.594 1.86714 -0.582871 0
M  V30 9491 O 911.8 2.6302 -0.673247 0
M  V30 9492 C 910.256 1.79205 -3.12112 0
M  V30 9493 C 909.864 0.952333 -4.37761 0
M  V30 9494 C 911.608 2.51191 -3.42203 0
M  V30 9495 C 909.515 1.76018 -5.64599 0
M  V30 9496 H 908.445 0.369538 -0.657235 0
M  V30 9497 H 911.096 0.234619 -1.81994 0
M  V30 9498 H 909.478 2.57888 -3.00515 0
M  V30 9499 H 910.652 0.208251 -4.60329 0
M  V30 9500 H 908.967 0.346082 -4.14959 0
M  V30 9501 H 911.564 3.12074 -4.34182 0
M  V30 9502 H 911.907 3.22499 -2.63249 0
M  V30 9503 H 912.44 1.79523 -3.54988 0
M  V30 9504 H 909.179 1.09095 -6.46358 0
M  V30 9505 H 908.699 2.4797 -5.46142 0
M  V30 9506 H 910.378 2.32884 -6.03634 0
M  V30 9507 N 910.51 1.48831 0.518367 0
M  V30 9508 C 911.735 1.61379 1.30275 0
M  V30 9509 C 912.16 0.278571 1.86026 0
M  V30 9510 O 911.518 -0.751427 1.64995 0
M  V30 9511 C 911.566 2.67225 2.42122 0
M  V30 9512 O 910.67 2.25192 3.45489 0
M  V30 9513 H 910.011 0.540742 0.385349 0
M  V30 9514 H 912.541 1.949 0.622498 0
M  V30 9515 H 912.551 2.88859 2.8814 0
M  V30 9516 H 911.226 3.64155 2.00907 0
M  V30 9517 H 909.803 2.13819 3.05509 0
M  V30 9518 N 911.988 -0.768124 1.37614 0
M  V30 9519 C 913.228 -1.53979 1.34424 0
M  V30 9520 C 913.592 -1.91874 -0.0696803 0
M  V30 9521 O 914.793 -2.67845 -0.22633 0
M  V30 9522 C 913.064 -2.76845 2.26034 0
M  V30 9523 S 914.623 -3.66871 2.4073 0
M  V30 9524 H 911.441 -0.527108 0.477157 0
M  V30 9525 H 914.043 -0.902945 1.73399 0
M  V30 9526 H 912.747 -2.47091 3.2768 0
M  V30 9527 H 912.278 -3.45486 1.88157 0
M  V30 9528 H 914.293 -4.6899 1.62057 0
M  V30 9529 N 913.466 -1.22244 -0.994698 0
M  V30 9530 C 914.691 -1.07299 -1.77487 0
M  V30 9531 C 915.116 0.372302 -1.84379 0
M  V30 9532 O 914.474 1.2689 -1.29494 0
M  V30 9533 C 914.522 -1.68675 -3.18718 0
M  V30 9534 O 913.626 -0.939202 -4.01563 0
M  V30 9535 H 912.967 -0.376979 -0.546611 0
M  V30 9536 H 915.497 -1.62003 -1.24965 0
M  V30 9537 H 915.507 -1.73324 -3.69354 0
M  V30 9538 H 914.182 -2.73849 -3.13017 0
M  V30 9539 H 912.759 -0.968583 -3.60101 0
M  V30 9540 N 914.944 1.19125 -1.03184 0
M  V30 9541 C 916.221 1.84674 -0.644574 0
M  V30 9542 C 916.601 1.92042 0.876534 0
M  V30 9543 O 915.949 1.43965 1.77444 0
M  V30 9544 C 916.159 3.23477 -1.3101 0
M  V30 9545 C 917.507 3.99608 -1.43524 0
M  V30 9546 O 918.531 3.32886 -1.2675 0
M  V30 9547 O 917.39 5.19132 -1.70776 0
M  V30 9548 H 914.484 0.795968 -0.22442 0
M  V30 9549 H 917.03 1.2659 -1.13018 0
M  V30 9550 H 915.802 3.12967 -2.34878 0
M  V30 9551 H 915.425 3.89209 -0.812547 0
M  V30 9552 N 916.422 0.810101 1.35185 0
M  V30 9553 C 917.833 0.452616 1.81131 0
M  V30 9554 C 918.184 -1.02573 1.67252 0
M  V30 9555 O 917.309 -1.79735 1.20516 0
M  V30 9556 C 917.904 0.814775 3.28857 0
M  V30 9557 C 916.463 0.509839 3.72931 0
M  V30 9558 C 915.61 1.03852 2.57119 0
M  V30 9559 H 918.561 1.00143 1.23114 0
M  V30 9560 H 918.582 0.113635 3.8033 0
M  V30 9561 H 918.094 1.89078 3.38926 0
M  V30 9562 H 916.195 -0.557289 3.68409 0
M  V30 9563 H 916.308 1.04493 4.67566 0
M  V30 9564 H 914.672 0.460671 2.50499 0
M  V30 9565 H 915.455 2.12071 2.69964 0
M  V30 9566 N 917.9 -1.47166 0.563914 0
M  V30 9567 C 918.83 -2.32894 -0.168148 0
M  V30 9568 C 919.811 -1.44202 -0.902214 0
M  V30 9569 O 920.996 -1.73048 -0.881365 0
M  V30 9570 C 918.126 -3.26116 -1.19439 0
M  V30 9571 C 917.08 -4.24101 -0.576363 0
M  V30 9572 C 916.406 -5.06696 -1.70772 0
M  V30 9573 C 917.706 -5.20142 0.47425 0
M  V30 9574 H 919.4 -2.9435 0.547573 0
M  V30 9575 H 916.946 -1.41545 0.264778 0
M  V30 9576 H 918.899 -3.84935 -1.71474 0
M  V30 9577 H 917.623 -2.62728 -1.94014 0
M  V30 9578 H 916.282 -3.66519 -0.0772534 0
M  V30 9579 H 915.93 -4.39707 -2.44268 0
M  V30 9580 H 915.63 -5.7304 -1.29994 0
M  V30 9581 H 917.154 -5.68375 -2.2312 0
M  V30 9582 H 918.568 -5.73286 0.0397035 0
M  V30 9583 H 916.965 -5.94726 0.801287 0
M  V30 9584 H 918.035 -4.65214 1.36764 0
M  V30 9585 N 919.378 -0.300708 -1.54705 0
M  V30 9586 C 920.624 0.309111 -2.0043 0
M  V30 9587 C 920.957 1.53562 -1.1888 0
M  V30 9588 O 920.232 1.92683 -0.265205 0
M  V30 9589 C 920.515 0.665995 -3.53888 0
M  V30 9590 C 920.368 -0.56963 -4.46178 0
M  V30 9591 C 921.687 1.49262 -4.14016 0
M  V30 9592 H 918.806 0.110878 -0.728612 0
M  V30 9593 H 921.448 -0.412748 -1.85463 0
M  V30 9594 H 919.598 1.281 -3.66773 0
M  V30 9595 H 921.27 -1.20811 -4.45199 0
M  V30 9596 H 919.513 -1.20292 -4.16788 0
M  V30 9597 H 920.184 -0.275785 -5.51311 0
M  V30 9598 H 922.66 0.972979 -4.04564 0
M  V30 9599 H 921.536 1.71111 -5.21548 0
M  V30 9600 H 921.797 2.48174 -3.65872 0
M  V30 9601 N 920.856 1.57574 -0.0284266 0
M  V30 9602 C 922.081 1.96479 0.664137 0
M  V30 9603 C 922.506 0.904826 1.64908 0
M  V30 9604 O 921.864 -0.134339 1.80802 0
M  V30 9605 C 921.912 3.34479 1.34745 0
M  V30 9606 O 921.016 3.30794 2.46271 0
M  V30 9607 H 920.357 0.640654 0.174524 0
M  V30 9608 H 922.887 2.04402 -0.0900729 0
M  V30 9609 H 922.897 3.70694 1.7044 0
M  V30 9610 H 921.572 4.1117 0.625468 0
M  V30 9611 H 920.149 3.06294 2.12693 0
M  V30 9612 N 922.334 -0.244713 1.55689 0
M  V30 9613 C 923.559 -0.994157 1.8202 0
M  V30 9614 C 923.984 -1.78079 0.60577 0
M  V30 9615 O 923.342 -1.75748 -0.445221 0
M  V30 9616 C 923.39 -1.90599 3.06111 0
M  V30 9617 O 922.494 -2.99804 2.8318 0
M  V30 9618 H 921.835 -0.282767 0.600782 0
M  V30 9619 H 924.365 -0.26504 2.02876 0
M  V30 9620 H 924.375 -2.32023 3.35603 0
M  V30 9621 H 923.05 -1.32763 3.9414 0
M  V30 9622 H 921.627 -2.62493 2.64862 0
M  V30 9623 N 923.813 -1.49104 -0.510467 0
M  V30 9624 C 925.059 -1.59322 -1.26444 0
M  V30 9625 C 925.414 -0.27219 -1.90465 0
M  V30 9626 O 924.707 0.726762 -1.77281 0
M  V30 9627 C 924.901 -2.68259 -2.36161 0
M  V30 9628 C 924.73 -4.10827 -1.82897 0
M  V30 9629 C 923.5 -4.77732 -1.64623 0
M  V30 9630 C 925.698 -4.96367 -1.34625 0
M  V30 9631 N 923.68 -6.04646 -1.06189 0
M  V30 9632 C 925.051 -6.13685 -0.882656 0
M  V30 9633 C 927.106 -4.8244 -1.2311 0
M  V30 9634 C 925.809 -7.18609 -0.315306 0
M  V30 9635 C 927.835 -5.87504 -0.677726 0
M  V30 9636 C 927.197 -7.04043 -0.224308 0
M  V30 9637 H 923.296 -0.637429 -0.453 0
M  V30 9638 H 925.88 -1.8607 -0.573237 0
M  V30 9639 H 924.051 -2.433 -3.02753 0
M  V30 9640 H 925.783 -2.68052 -3.032 0
M  V30 9641 H 922.538 -4.34377 -1.88716 0
M  V30 9642 H 922.962 -6.72383 -0.78927 0
M  V30 9643 H 927.604 -3.92663 -1.56766 0
M  V30 9644 H 925.322 -8.08093 0.0335425 0
M  V30 9645 H 928.908 -5.78785 -0.591535 0
M  V30 9646 H 927.788 -7.83952 0.197212 0
M  V30 9647 N 925.291 0.760815 -1.38019 0
M  V30 9648 C 926.707 1.06289 -1.19058 0
M  V30 9649 C 926.907 2.01471 -0.0342603 0
M  V30 9650 O 925.963 2.44713 0.62224 0
M  V30 9651 C 927.276 1.6499 -2.51394 0
M  V30 9652 C 928.824 1.77196 -2.58013 0
M  V30 9653 C 929.299 2.3931 -3.90506 0
M  V30 9654 N 930.79 2.46749 -3.92007 0
M  V30 9655 C 931.525 2.95687 -4.91281 0
M  V30 9656 N 931.021 3.44715 -6.00952 0
M  V30 9657 N 932.814 2.94661 -4.78677 0
M  V30 9658 H 924.965 0.129045 -2.12008 0
M  V30 9659 H 927.228 0.119878 -0.94039 0
M  V30 9660 H 926.934 1.0252 -3.36426 0
M  V30 9661 H 926.808 2.64146 -2.6927 0
M  V30 9662 H 929.195 2.38796 -1.7338 0
M  V30 9663 H 929.276 0.767645 -2.4401 0
M  V30 9664 H 928.92 1.78346 -4.75558 0
M  V30 9665 H 928.85 3.40369 -4.01817 0
M  V30 9666 H 931.341 2.12064 -3.12789 0
M  V30 9667 H 931.654 3.80492 -6.72641 0
M  V30 9668 H 929.999 3.42791 -6.04582 0
M  V30 9669 H 933.19 2.55665 -3.92113 0
M  V30 9670 H 933.363 3.32489 -5.56197 0
M  V30 9671 N 926.769 1.22769 0.988202 0
M  V30 9672 C 928.185 0.988665 1.2529 0
M  V30 9673 C 928.385 -0.314938 1.99024 0
M  V30 9674 O 927.441 -1.03637 2.30251 0
M  V30 9675 C 928.754 2.19046 2.06009 0
M  V30 9676 C 930.302 2.23452 2.19176 0
M  V30 9677 C 930.777 3.43196 3.03283 0
M  V30 9678 N 932.268 3.43387 3.10869 0
M  V30 9679 C 933.003 4.32693 3.7625 0
M  V30 9680 N 932.499 5.32224 4.43519 0
M  V30 9681 N 934.292 4.20457 3.73058 0
M  V30 9682 H 926.443 2.06575 0.494014 0
M  V30 9683 H 928.706 0.905452 0.28082 0
M  V30 9684 H 928.412 3.13607 1.59197 0
M  V30 9685 H 928.286 2.19492 3.06763 0
M  V30 9686 H 930.673 1.29436 2.65199 0
M  V30 9687 H 930.754 2.27042 1.17836 0
M  V30 9688 H 930.398 4.37515 2.57959 0
M  V30 9689 H 930.328 3.36847 4.04774 0
M  V30 9690 H 932.819 2.71368 2.62998 0
M  V30 9691 H 933.132 5.9664 4.91163 0
M  V30 9692 H 931.477 5.36133 4.42252 0
M  V30 9693 H 934.668 3.41949 3.19669 0
M  V30 9694 H 934.841 4.90261 4.23731 0
M  V30 9695 N 928.247 -1.18576 1.03814 0
M  V30 9696 C 929.194 -2.2212 0.626988 0
M  V30 9697 C 930.164 -1.62064 -0.363912 0
M  V30 9698 O 931.349 -1.89041 -0.258469 0
M  V30 9699 C 928.489 -3.45099 -0.00650133 0
M  V30 9700 C 927.602 -4.19503 1.03156 0
M  V30 9701 C 926.737 -5.29932 0.366852 0
M  V30 9702 C 925.776 -5.96104 1.39018 0
M  V30 9703 N 924.913 -6.98076 0.750625 0
M  V30 9704 H 929.753 -2.56646 1.51449 0
M  V30 9705 H 927.29 -1.26084 0.757702 0
M  V30 9706 H 929.248 -4.15363 -0.391108 0
M  V30 9707 H 927.878 -3.11201 -0.857536 0
M  V30 9708 H 926.93 -3.48092 1.53414 0
M  V30 9709 H 928.242 -4.64843 1.80893 0
M  V30 9710 H 927.396 -6.06657 -0.0720979 0
M  V30 9711 H 926.135 -4.85687 -0.442631 0
M  V30 9712 H 925.14 -5.18122 1.8393 0
M  V30 9713 H 926.365 -6.42432 2.20132 0
M  V30 9714 H 924.311 -6.55989 -0.0385981 0
M  V30 9715 H 924.228 -7.41655 1.46574 0
M  V30 9716 H 925.496 -7.78776 0.335986 0
M  V30 9717 N 929.725 -0.817259 -1.34754 0
M  V30 9718 C 931.141 -0.502309 -1.51489 0
M  V30 9719 C 931.341 0.974568 -1.76364 0
M  V30 9720 O 930.397 1.75924 -1.81127 0
M  V30 9721 C 931.71 -1.35693 -2.68343 0
M  V30 9722 C 933.258 -1.35347 -2.82224 0
M  V30 9723 C 933.733 -2.19244 -4.02114 0
M  V30 9724 N 935.224 -2.16837 -4.09311 0
M  V30 9725 C 935.959 -2.78505 -5.01221 0
M  V30 9726 N 935.455 -3.4914 -5.98392 0
M  V30 9727 N 937.248 -2.68089 -4.94049 0
M  V30 9728 H 929.399 -1.77359 -1.16866 0
M  V30 9729 H 931.662 -0.755476 -0.572678 0
M  V30 9730 H 931.368 -2.40548 -2.56573 0
M  V30 9731 H 931.242 -1.01764 -3.63213 0
M  V30 9732 H 933.629 -0.312727 -2.93438 0
M  V30 9733 H 933.71 -1.7327 -1.88179 0
M  V30 9734 H 933.354 -3.23365 -3.9166 0
M  V30 9735 H 933.284 -1.78675 -4.95361 0
M  V30 9736 H 935.775 -1.65452 -3.39756 0
M  V30 9737 H 936.088 -3.93455 -6.65141 0
M  V30 9738 H 934.433 -3.53246 -5.98533 0
M  V30 9739 H 937.624 -2.12485 -4.17094 0
M  V30 9740 H 937.797 -3.16436 -5.65484 0
M  V30 9741 N 931.203 1.46865 -0.571711 0
M  V30 9742 C 932.15 2.30189 0.167808 0
M  V30 9743 C 933.12 1.3995 0.89461 0
M  V30 9744 O 934.305 1.68905 0.887451 0
M  V30 9745 C 931.445 3.24205 1.1826 0
M  V30 9746 C 930.558 4.2954 0.460376 0
M  V30 9747 C 929.693 5.10693 1.46173 0
M  V30 9748 C 928.732 6.07788 0.725291 0
M  V30 9749 N 927.869 6.81847 1.67417 0
M  V30 9750 H 932.709 2.92902 -0.548831 0
M  V30 9751 H 930.246 1.44362 -0.282474 0
M  V30 9752 H 932.204 3.77147 1.7837 0
M  V30 9753 H 930.834 2.63324 1.86709 0
M  V30 9754 H 929.886 3.79541 -0.255546 0
M  V30 9755 H 931.198 4.98665 -0.115855 0
M  V30 9756 H 930.352 5.67857 2.13595 0
M  V30 9757 H 929.091 4.41502 2.07188 0
M  V30 9758 H 928.096 5.49787 0.037228 0
M  V30 9759 H 929.321 6.78993 0.120678 0
M  V30 9760 H 927.267 6.15376 2.27263 0
M  V30 9761 H 927.184 7.47195 1.15046 0
M  V30 9762 H 928.452 7.43577 2.33908 0
M  V30 9763 N 932.681 0.308908 1.54543 0
M  V30 9764 C 933.591 -0.572939 2.27496 0
M  V30 9765 C 934.607 -1.14171 1.31305 0
M  V30 9766 O 935.783 -1.16481 1.64299 0
M  V30 9767 C 932.848 -1.72483 3.0075 0
M  V30 9768 C 931.909 -1.18934 4.12496 0
M  V30 9769 C 931.142 -2.28634 4.82247 0
M  V30 9770 O 931.365 -3.48691 4.5141 0
M  V30 9771 O 930.299 -1.94879 5.69478 0
M  V30 9772 H 934.125 0.0190877 3.03694 0
M  V30 9773 H 931.71 0.0750943 1.49211 0
M  V30 9774 H 933.592 -2.39578 3.46671 0
M  V30 9775 H 932.267 -2.30332 2.2744 0
M  V30 9776 H 931.174 -0.483904 3.70957 0
M  V30 9777 H 932.507 -0.656185 4.87806 0
M  V30 9778 N 934.159 -1.57557 0.0367827 0
M  V30 9779 C 935.384 -1.96828 -0.653707 0
M  V30 9780 C 935.809 -0.913559 -1.64425 0
M  V30 9781 O 935.167 0.124749 -1.8087 0
M  V30 9782 C 935.215 -3.35189 -1.32969 0
M  V30 9783 O 934.319 -3.32095 -2.44513 0
M  V30 9784 H 933.66 -0.64157 -0.171124 0
M  V30 9785 H 936.19 -2.04351 0.100912 0
M  V30 9786 H 936.2 -3.71593 -1.68472 0
M  V30 9787 H 934.875 -4.11496 -0.603654 0
M  V30 9788 H 933.452 -3.07418 -2.11065 0
M  V30 9789 N 935.637 0.236453 -1.55816 0
M  V30 9790 C 936.862 0.98449 -1.82545 0
M  V30 9791 C 937.287 1.77755 -0.615206 0
M  V30 9792 O 936.645 1.75982 0.435895 0
M  V30 9793 C 936.693 1.88973 -3.07118 0
M  V30 9794 O 935.797 2.98298 -2.84766 0
M  V30 9795 H 935.138 0.279577 -0.602273 0
M  V30 9796 H 937.668 0.254277 -2.03014 0
M  V30 9797 H 937.678 2.3024 -3.36829 0
M  V30 9798 H 936.353 1.30671 -3.94839 0
M  V30 9799 H 934.93 2.61085 -2.6625 0
M  V30 9800 N 937.115 1.49373 0.502552 0
M  V30 9801 C 938.063 1.66411 1.62512 0
M  V30 9802 C 939.057 0.530062 1.60893 0
M  V30 9803 O 940.263 0.709648 1.65421 0
M  V30 9804 H 936.638 0.524707 0.538689 0
M  V30 9805 H 938.609 2.60639 1.45293 0
M  V30 9806 C 937.358 1.74648 3.00655 0
M  V30 9807 H 936.681 2.61285 3.02606 0
M  V30 9808 H 938.121 1.90605 3.78742 0
M  V30 9809 C 936.58 0.490963 3.33303 0
M  V30 9810 O 937.11 -0.384039 3.9986 0
M  V30 9811 N 935.316 0.354375 2.88431 0
M  V30 9812 H 934.863 1.06742 2.34444 0
M  V30 9813 H 934.821 -0.484593 3.10643 0
M  V30 9814 N 938.594 -0.753485 1.38421 0
M  V30 9815 C 939.822 -1.54272 1.37868 0
M  V30 9816 C 940.237 -1.88774 -0.0315155 0
M  V30 9817 O 939.594 -1.52785 -0.998148 0
M  V30 9818 C 939.645 -2.84179 2.23438 0
M  V30 9819 O 939.366 -2.51149 3.58965 0
M  V30 9820 C 940.867 -3.78316 2.31067 0
M  V30 9821 H 938.087 -0.47735 0.47157 0
M  V30 9822 H 940.631 -0.932509 1.82001 0
M  V30 9823 H 938.786 -3.41577 1.82767 0
M  V30 9824 H 939.2 -3.34466 4.04021 0
M  V30 9825 H 940.674 -4.66418 2.95226 0
M  V30 9826 H 941.151 -4.18757 1.32436 0
M  V30 9827 H 941.757 -3.26842 2.72129 0
M  V30 9828 N 940.072 -1.23292 -0.981677 0
M  V30 9829 C 941.349 -0.972514 -1.6971 0
M  V30 9830 C 941.729 0.509244 -2.04866 0
M  V30 9831 O 941.077 1.48013 -1.74082 0
M  V30 9832 C 941.287 -1.88144 -2.93943 0
M  V30 9833 C 942.635 -2.14416 -3.66485 0
M  V30 9834 O 943.659 -1.85684 -3.03974 0
M  V30 9835 O 942.518 -2.63139 -4.78978 0
M  V30 9836 H 939.612 -0.366673 -0.741269 0
M  V30 9837 H 942.158 -1.34328 -1.03701 0
M  V30 9838 H 940.93 -2.8832 -2.64551 0
M  V30 9839 H 940.553 -1.51296 -3.67689 0
M  V30 9840 N 941.55 1.18024 -1.04442 0
M  V30 9841 C 942.775 1.92573 -0.770097 0
M  V30 9842 C 943.2 1.75871 0.667169 0
M  V30 9843 O 942.558 1.07136 1.46258 0
M  V30 9844 C 942.606 3.41904 -1.14602 0
M  V30 9845 O 941.71 4.11491 -0.273712 0
M  V30 9846 H 941.051 0.600636 -0.283076 0
M  V30 9847 H 943.581 1.49645 -1.39526 0
M  V30 9848 H 943.591 3.92623 -1.10956 0
M  V30 9849 H 942.266 3.53382 -2.19304 0
M  V30 9850 H 940.843 3.71059 -0.370124 0
M  V30 9851 N 943.028 0.824394 1.34319 0
M  V30 9852 C 943.991 0.252696 2.27803 0
M  V30 9853 C 944.991 -0.570254 1.50349 0
M  V30 9854 O 946.181 -0.386145 1.69866 0
M  V30 9855 C 943.313 -0.645575 3.34731 0
M  V30 9856 H 944.506 1.07742 2.79878 0
M  V30 9857 H 942.059 0.596367 1.44475 0
M  V30 9858 H 942.794 -1.4933 2.87873 0
M  V30 9859 H 942.579 -0.0569478 3.92059 0
M  V30 9860 H 944.069 -1.03933 4.0446 0
M  V30 9861 N 944.506 -1.46559 0.579492 0
M  V30 9862 C 945.754 -2.02 0.0637157 0
M  V30 9863 C 946.075 -1.45378 -1.29962 0
M  V30 9864 O 945.345 -0.637262 -1.85245 0
M  V30 9865 H 943.925 -0.746717 0.0205638 0
M  V30 9866 H 946.587 -1.79702 0.754544 0
M  V30 9867 H 945.683 -3.12099 -0.00770254 0
M  V30 9868 N 945.984 -0.3171 -1.54377 0
M  V30 9869 C 946.947 0.53905 -2.22771 0
M  V30 9870 C 947.947 1.04865 -1.21901 0
M  V30 9871 O 949.137 0.942108 -1.46526 0
M  V30 9872 C 946.269 1.74804 -2.92671 0
M  V30 9873 H 947.462 -0.0587417 -2.99842 0
M  V30 9874 H 945.015 -0.068107 -1.56152 0
M  V30 9875 H 945.75 2.38524 -2.1972 0
M  V30 9876 H 945.535 1.39011 -3.66631 0
M  V30 9877 H 947.025 2.35592 -3.44799 0
M  V30 9878 N 947.462 1.57535 -0.0451378 0
M  V30 9879 C 948.392 2.14208 0.929372 0
M  V30 9880 C 949.373 1.06221 1.32858 0
M  V30 9881 O 950.558 1.34132 1.40436 0
M  V30 9882 C 947.688 2.68217 2.20629 0
M  V30 9883 C 946.642 3.81134 1.94734 0
M  V30 9884 C 945.968 4.21636 3.28828 0
M  V30 9885 C 947.268 5.06531 1.27374 0
M  V30 9886 H 948.962 2.95886 0.457348 0
M  V30 9887 H 946.508 1.42332 0.218544 0
M  V30 9888 H 948.461 3.06502 2.89196 0
M  V30 9889 H 947.185 1.83722 2.70026 0
M  V30 9890 H 945.844 3.43312 1.28579 0
M  V30 9891 H 945.492 3.34099 3.76014 0
M  V30 9892 H 945.192 4.97736 3.12302 0
M  V30 9893 H 946.716 4.62516 3.98637 0
M  V30 9894 H 948.13 5.423 1.85967 0
M  V30 9895 H 946.527 5.87735 1.21194 0
M  V30 9896 H 947.597 4.84261 0.248913 0
M  V30 9897 N 948.94 -0.228186 1.55939 0
M  V30 9898 C 950.188 -0.951668 1.78291 0
M  V30 9899 C 950.509 -1.85132 0.612474 0
M  V30 9900 O 949.779 -1.92356 -0.370942 0
M  V30 9901 H 948.359 -0.354388 0.657585 0
M  V30 9902 H 951.021 -0.241635 1.93396 0
M  V30 9903 H 950.117 -1.56239 2.70177 0
M  V30 9904 N 950.418 -1.49637 -0.494624 0
M  V30 9905 C 951.646 -1.63164 -1.2722 0
M  V30 9906 C 952.061 -0.305552 -1.86311 0
M  V30 9907 O 951.418 0.709758 -1.68133 0
M  V30 9908 C 951.469 -2.70524 -2.39789 0
M  V30 9909 O 951.19 -3.97991 -1.83126 0
M  V30 9910 C 952.691 -2.94814 -3.31058 0
M  V30 9911 H 949.911 -0.54912 -0.385627 0
M  V30 9912 H 952.455 -1.95711 -0.593081 0
M  V30 9913 H 950.61 -2.40738 -3.03519 0
M  V30 9914 H 951.024 -4.57179 -2.57075 0
M  V30 9915 H 952.498 -3.73653 -4.06309 0
M  V30 9916 H 952.975 -2.04974 -3.88436 0
M  V30 9917 H 953.581 -3.26042 -2.73088 0
M  V30 9918 N 951.896 0.746133 -1.38819 0
M  V30 9919 C 952.826 1.87344 -1.39372 0
M  V30 9920 C 953.807 1.68123 -0.258583 0
M  V30 9921 O 954.992 1.88606 -0.462769 0
M  V30 9922 C 952.122 3.24962 -1.22543 0
M  V30 9923 C 951.076 3.58799 -2.33339 0
M  V30 9924 C 950.402 4.95235 -2.01609 0
M  V30 9925 C 951.702 3.62911 -3.75624 0
M  V30 9926 H 953.396 1.87138 -2.33709 0
M  V30 9927 H 950.942 0.898937 -1.12495 0
M  V30 9928 H 952.895 4.03488 -1.21554 0
M  V30 9929 H 951.619 3.25667 -0.246707 0
M  V30 9930 H 950.278 2.82596 -2.33527 0
M  V30 9931 H 949.926 4.92508 -1.02202 0
M  V30 9932 H 949.626 5.18843 -2.75819 0
M  V30 9933 H 951.15 5.76131 -2.02251 0
M  V30 9934 H 952.564 4.31535 -3.77426 0
M  V30 9935 H 950.961 3.98031 -4.491 0
M  V30 9936 H 952.031 2.62967 -4.07402 0
M  V30 9937 N 953.375 1.23811 0.975125 0
M  V30 9938 C 954.791 1.0019 1.24234 0
M  V30 9939 C 954.991 -0.293811 1.99346 0
M  V30 9940 O 954.047 -1.01189 2.31337 0
M  V30 9941 C 955.36 2.21218 2.03674 0
M  V30 9942 C 956.908 2.25764 2.16793 0
M  V30 9943 C 957.383 3.46394 2.99626 0
M  V30 9944 N 958.874 3.46665 3.07209 0
M  V30 9945 C 959.609 4.3666 3.71639 0
M  V30 9946 N 959.105 5.36899 4.37849 0
M  V30 9947 N 960.898 4.2439 3.68578 0
M  V30 9948 H 953.049 2.07087 0.472076 0
M  V30 9949 H 955.312 0.90838 0.271201 0
M  V30 9950 H 955.018 3.15277 1.55862 0
M  V30 9951 H 954.892 2.22733 3.04417 0
M  V30 9952 H 957.279 1.32242 2.63811 0
M  V30 9953 H 957.36 2.28279 1.15422 0
M  V30 9954 H 957.004 4.40227 2.53304 0
M  V30 9955 H 956.934 3.41121 4.01178 0
M  V30 9956 H 959.425 2.74142 2.60105 0
M  V30 9957 H 959.738 6.01816 4.84807 0
M  V30 9958 H 958.083 5.40793 4.36541 0
M  V30 9959 H 961.274 3.4532 3.16025 0
M  V30 9960 H 961.447 4.94727 4.18508 0
M  V30 9961 N 954.853 -1.17469 1.05066 0
M  V30 9962 C 956.1 -1.87698 0.759987 0
M  V30 9963 C 956.428 -1.80964 -0.712902 0
M  V30 9964 O 955.683 -1.21146 -1.53695 0
M  V30 9965 C 955.982 -3.37211 1.18421 0
M  V30 9966 C 955.648 -3.64148 2.65909 0
M  V30 9967 C 954.31 -3.71209 3.06199 0
M  V30 9968 C 956.662 -3.75724 3.61222 0
M  V30 9969 C 953.99 -3.87334 4.40669 0
M  V30 9970 C 956.342 -3.93368 4.95424 0
M  V30 9971 C 955.006 -3.98667 5.3537 0
M  V30 9972 H 954.276 -0.686835 0.278099 0
M  V30 9973 H 956.923 -1.38975 1.31751 0
M  V30 9974 H 955.228 -3.87982 0.545654 0
M  V30 9975 H 956.925 -3.89911 0.936518 0
M  V30 9976 H 953.515 -3.59276 2.33707 0
M  V30 9977 H 957.699 -3.69591 3.31235 0
M  V30 9978 H 952.955 -3.89685 4.71122 0
M  V30 9979 H 957.129 -4.01267 5.69173 0
M  V30 9980 H 954.756 -4.10915 6.39572 0
M  V30 9981 N 956.331 -0.831506 -1.3388 0
M  V30 9982 C 957.571 -0.429648 -1.99833 0
M  V30 9983 C 957.935 0.990796 -1.6446 0
M  V30 9984 O 959.136 1.49599 -2.23324 0
M  V30 9985 C 957.407 -0.635558 -3.51704 0
M  V30 9986 S 958.966 -0.327824 -4.37574 0
M  V30 9987 H 955.784 -0.161939 -0.692313 0
M  V30 9988 H 958.386 -1.07919 -1.63015 0
M  V30 9989 H 957.09 -1.66887 -3.74936 0
M  V30 9990 H 956.621 0.0284073 -3.9339 0
M  V30 9991 H 958.636 0.855231 -4.88774 0
M  V30 9992 N 957.809 1.4625 -0.587256 0
M  V30 9993 C 959.055 2.02662 -0.0746851 0
M  V30 9994 C 959.388 1.45723 1.28368 0
M  V30 9995 O 958.663 0.624062 1.84216 0
M  V30 9996 C 958.946 3.60097 -0.0138109 0
M  V30 9997 C 958.799 4.27412 -1.4014 0
M  V30 9998 C 960.118 4.34744 0.684491 0
M  V30 9999 H 957.237 0.736444 -0.0286144 0
M  V30 10000 H 959.879 1.74341 -0.755328 0
M  V30 10001 H 958.029 3.84357 0.56583 0
M  V30 10002 H 959.701 4.14401 -2.02656 0
M  V30 10003 H 957.944 3.86598 -1.96785 0
M  V30 10004 H 958.615 5.362 -1.31124 0
M  V30 10005 H 961.091 4.15657 0.192023 0
M  V30 10006 H 959.967 5.44468 0.696127 0
M  V30 10007 H 960.228 4.06132 1.74669 0
M  V30 10008 N 959.287 0.325282 1.54207 0
M  V30 10009 C 960.534 -0.276775 2.006 0
M  V30 10010 C 960.862 -1.52007 1.21343 0
M  V30 10011 O 960.117 -1.93627 0.284104 0
M  V30 10012 C 960.416 -0.654292 3.5136 0
M  V30 10013 C 960.082 0.490023 4.48229 0
M  V30 10014 C 958.744 0.804104 4.74434 0
M  V30 10015 C 961.096 1.2586 5.05775 0
M  V30 10016 C 958.424 1.88945 5.55443 0
M  V30 10017 C 960.776 2.33405 5.87967 0
M  V30 10018 C 959.44 2.65393 6.12473 0
M  V30 10019 H 958.71 -0.101279 0.734046 0
M  V30 10020 H 961.357 0.449416 1.86152 0
M  V30 10021 H 959.662 -1.46093 3.63544 0
M  V30 10022 H 961.359 -1.13171 3.84699 0
M  V30 10023 H 957.949 0.235147 4.27954 0
M  V30 10024 H 962.133 1.02921 4.85511 0
M  V30 10025 H 957.389 2.14174 5.7266 0
M  V30 10026 H 961.563 2.93402 6.31576 0
M  V30 10027 H 959.19 3.49622 6.75032 0
M  V30 10028 N 960.765 -1.57509 0.0534917 0
M  V30 10029 C 962.013 -1.92402 -0.618548 0
M  V30 10030 C 962.334 -0.93273 -1.71246 0
M  V30 10031 O 961.604 0.0220495 -1.95888 0
M  V30 10032 H 960.184 -0.710233 -0.23147 0
M  V30 10033 H 962.846 -1.94606 0.10704 0
M  V30 10034 H 961.942 -2.93704 -1.05566 0
M  V30 10035 N 962.243 0.219913 -1.56058 0
M  V30 10036 C 963.173 1.27572 -1.9557 0
M  V30 10037 C 964.154 1.48801 -0.824148 0
M  V30 10038 O 965.339 1.60957 -1.08658 0
M  V30 10039 C 962.469 2.62517 -2.27381 0
M  V30 10040 C 961.423 2.55941 -3.43042 0
M  V30 10041 C 960.749 3.94931 -3.60463 0
M  V30 10042 C 962.049 2.10584 -4.77966 0
M  V30 10043 H 963.743 0.947482 -2.84013 0
M  V30 10044 H 961.289 0.454337 -1.36645 0
M  V30 10045 H 963.242 3.36538 -2.53615 0
M  V30 10046 H 961.966 2.97031 -1.35794 0
M  V30 10047 H 960.625 1.84377 -3.1686 0
M  V30 10048 H 960.273 4.26756 -2.66249 0
M  V30 10049 H 959.973 3.91413 -4.38258 0
M  V30 10050 H 961.497 4.70611 -3.89046 0
M  V30 10051 H 962.911 2.74349 -5.03394 0
M  V30 10052 H 961.308 2.18122 -5.59055 0
M  V30 10053 H 962.378 1.05818 -4.73213 0
M  V30 10054 N 963.721 1.49897 0.486681 0
M  V30 10055 C 964.969 1.59789 1.23742 0
M  V30 10056 C 965.29 0.293056 1.92785 0
M  V30 10057 O 964.56 -0.688534 1.83401 0
M  V30 10058 H 963.14 0.588775 0.459731 0
M  V30 10059 H 965.802 1.86597 0.562808 0
M  V30 10060 H 964.898 2.40121 1.9937 0
M  V30 10061 N 965.199 -0.738761 1.39212 0
M  V30 10062 C 966.424 -1.5331 1.39681 0
M  V30 10063 C 966.849 -1.88098 -0.00768715 0
M  V30 10064 O 966.207 -1.51642 -0.993699 0
M  V30 10065 C 966.255 -2.79958 2.27279 0
M  V30 10066 O 965.359 -3.75727 1.70008 0
M  V30 10067 H 964.7 -0.463131 0.475821 0
M  V30 10068 H 967.23 -0.911768 1.83161 0
M  V30 10069 H 967.24 -3.28732 2.41659 0
M  V30 10070 H 965.915 -2.5397 3.29351 0
M  V30 10071 H 964.492 -3.34483 1.64851 0
M  V30 10072 N 966.677 -1.24326 -0.968545 0
M  V30 10073 C 968.093 -1.00847 -1.23701 0
M  V30 10074 C 968.293 0.283235 -1.99499 0
M  V30 10075 O 967.349 0.999607 -2.31871 0
M  V30 10076 C 968.662 -2.22295 -2.02498 0
M  V30 10077 C 970.21 -2.26911 -2.15593 0
M  V30 10078 C 970.685 -3.47978 -2.97784 0
M  V30 10079 N 972.176 -3.48289 -3.05367 0
M  V30 10080 C 972.911 -4.38625 -3.69318 0
M  V30 10081 N 972.407 -5.39213 -4.34995 0
M  V30 10082 N 974.2 -4.26339 -3.66322 0
M  V30 10083 H 966.351 -2.07335 -0.461087 0
M  V30 10084 H 968.614 -0.909805 -0.26638 0
M  V30 10085 H 968.32 -3.161 -1.54188 0
M  V30 10086 H 968.194 -2.24344 -3.03232 0
M  V30 10087 H 970.581 -1.33639 -2.63106 0
M  V30 10088 H 970.662 -2.28888 -1.14209 0
M  V30 10089 H 970.306 -4.41564 -2.50965 0
M  V30 10090 H 970.236 -3.43244 -3.99364 0
M  V30 10091 H 972.727 -2.75517 -2.58648 0
M  V30 10092 H 973.04 -6.04378 -4.81608 0
M  V30 10093 H 971.385 -5.43101 -4.33667 0
M  V30 10094 H 974.576 -3.46991 -3.14189 0
M  V30 10095 H 974.749 -4.9694 -4.15878 0
M  V30 10096 N 968.156 1.1691 -1.05688 0
M  V30 10097 C 969.119 2.19297 -0.666433 0
M  V30 10098 C 970.119 1.5826 0.284674 0
M  V30 10099 O 971.309 1.74068 0.0678757 0
M  V30 10100 C 968.441 3.40894 0.0203656 0
M  V30 10101 H 969.634 2.55354 -1.57272 0
M  V30 10102 H 967.187 1.31078 -0.851359 0
M  V30 10103 H 967.922 3.10388 0.939686 0
M  V30 10104 H 967.707 3.86446 -0.663464 0
M  V30 10105 H 969.197 4.16664 0.279475 0
M  V30 10106 N 969.634 0.838594 1.33437 0
M  V30 10107 C 970.864 0.446995 2.01707 0
M  V30 10108 C 971.272 -0.956335 1.63251 0
M  V30 10109 O 970.615 -1.63289 0.841566 0
M  V30 10110 C 970.677 0.487707 3.56176 0
M  V30 10111 C 970.341 1.8471 4.18009 0
M  V30 10112 C 971.338 2.81028 4.374 0
M  V30 10113 C 969.023 2.13987 4.54439 0
M  V30 10114 C 971.017 4.04785 4.92369 0
M  V30 10115 C 968.704 3.38 5.09116 0
M  V30 10116 C 969.702 4.33216 5.28027 0
M  V30 10117 O 969.39 5.55036 5.81541 0
M  V30 10118 H 969.122 0.175799 0.652741 0
M  V30 10119 H 971.676 1.13265 1.71348 0
M  V30 10120 H 969.906 -0.254719 3.8586 0
M  V30 10121 H 971.595 0.113971 4.0574 0
M  V30 10122 H 972.361 2.5971 4.09604 0
M  V30 10123 H 968.24 1.40668 4.39014 0
M  V30 10124 H 971.784 4.79114 5.07046 0
M  V30 10125 H 967.681 3.59175 5.36343 0
M  V30 10126 H 968.449 5.56772 5.99956 0
M  V30 10127 N 971.112 -1.45937 0.595003 0
M  V30 10128 C 972.523 -1.85908 0.171779 0
M  V30 10129 C 972.874 -1.497 -1.26824 0
M  V30 10130 O 971.999 -0.917688 -1.95978 0
M  V30 10131 C 972.594 -3.37425 0.304976 0
M  V30 10132 C 971.153 -3.76346 -0.0634635 0
M  V30 10133 C 970.3 -2.69926 0.635255 0
M  V30 10134 H 973.251 -1.36916 0.802471 0
M  V30 10135 H 973.272 -3.77632 -0.466313 0
M  V30 10136 H 972.784 -3.63747 1.35314 0
M  V30 10137 H 970.885 -3.55642 -1.11129 0
M  V30 10138 H 970.998 -4.78021 0.321419 0
M  V30 10139 H 969.362 -2.54592 0.0742054 0
M  V30 10140 H 970.145 -2.99086 1.68531 0
M  V30 10141 N 972.59 -0.333456 -1.54032 0
M  V30 10142 C 973.54 0.543745 -2.21421 0
M  V30 10143 C 974.524 1.07396 -1.19812 0
M  V30 10144 O 975.716 1.00934 -1.45401 0
M  V30 10145 C 972.845 1.69925 -2.98296 0
M  V30 10146 C 971.931 1.18345 -4.07253 0
M  V30 10147 N 972.322 0.388098 -5.04309 0
M  V30 10148 C 970.62 1.46128 -4.21382 0
M  V30 10149 C 971.321 0.109383 -5.81597 0
M  V30 10150 N 970.297 0.69825 -5.39097 0
M  V30 10151 H 974.099 -0.0711018 -2.93814 0
M  V30 10152 H 971.613 -0.139807 -1.61797 0
M  V30 10153 H 973.61 2.33954 -3.45067 0
M  V30 10154 H 972.27 2.31747 -2.27428 0
M  V30 10155 H 973.281 0.0300645 -5.17891 0
M  V30 10156 H 969.958 2.08463 -3.61731 0
M  V30 10157 H 971.348 -0.531554 -6.69794 0
M  V30 10158 N 974.068 1.57479 -0.061844 0
M  V30 10159 C 975.315 1.93108 0.60954 0
M  V30 10160 C 975.643 0.941086 1.70217 0
M  V30 10161 O 974.898 -0.044914 1.95648 0
M  V30 10162 C 975.197 3.35394 1.23474 0
M  V30 10163 C 974.863 4.50095 0.269247 0
M  V30 10164 C 973.525 4.812 0.00360316 0
M  V30 10165 C 975.877 5.19725 -0.391839 0
M  V30 10166 C 973.205 5.79276 -0.930383 0
M  V30 10167 C 975.557 6.18801 -1.31408 0
M  V30 10168 C 974.221 6.48328 -1.58829 0
M  V30 10169 H 973.491 0.706634 0.223046 0
M  V30 10170 H 976.138 1.91054 -0.1306 0
M  V30 10171 H 974.443 3.33866 2.05039 0
M  V30 10172 H 976.14 3.60247 1.76134 0
M  V30 10173 H 972.73 4.2583 0.486477 0
M  V30 10174 H 976.914 4.95898 -0.199713 0
M  V30 10175 H 972.17 6.00484 -1.15019 0
M  V30 10176 H 976.344 6.71862 -1.83234 0
M  V30 10177 H 973.971 7.24137 -2.31363 0
M  V30 10178 N 975.546 -0.211634 1.56173 0
M  V30 10179 C 976.786 -0.941505 1.81425 0
M  V30 10180 C 977.15 -1.8113 0.636862 0
M  V30 10181 O 978.351 -2.57568 0.768907 0
M  V30 10182 C 976.622 -1.75002 3.11623 0
M  V30 10183 S 978.181 -2.53418 3.58225 0
M  V30 10184 H 974.999 -0.316088 0.636875 0
M  V30 10185 H 977.601 -0.206244 1.94409 0
M  V30 10186 H 976.305 -1.10136 3.95346 0
M  V30 10187 H 975.836 -2.5274 3.01473 0
M  V30 10188 H 977.851 -3.77234 3.22349 0
M  V30 10189 N 977.024 -1.50153 -0.478725 0
M  V30 10190 C 977.987 -1.67916 -1.56003 0
M  V30 10191 C 978.987 -0.550111 -1.51097 0
M  V30 10192 O 980.177 -0.817001 -1.53853 0
M  V30 10193 C 977.309 -1.6973 -2.95643 0
M  V30 10194 H 978.502 -2.6438 -1.41573 0
M  V30 10195 H 976.055 -1.39519 -0.704565 0
M  V30 10196 H 976.79 -0.749306 -3.15525 0
M  V30 10197 H 976.575 -2.51745 -3.00611 0
M  V30 10198 H 978.065 -1.85453 -3.74162 0
M  V30 10199 N 978.502 0.731368 -1.39602 0
M  V30 10200 C 979.749 1.491 -1.37024 0
M  V30 10201 C 980.077 1.94473 0.0326423 0
M  V30 10202 O 979.332 1.6737 1.01418 0
M  V30 10203 C 979.631 2.74224 -2.29208 0
M  V30 10204 C 979.297 2.477 -3.7677 0
M  V30 10205 C 977.959 2.40175 -4.16976 0
M  V30 10206 C 980.311 2.25098 -4.70086 0
M  V30 10207 C 977.639 2.08095 -5.48556 0
M  V30 10208 C 979.991 1.94534 -6.01946 0
M  V30 10209 C 978.655 1.85481 -6.41212 0
M  V30 10210 H 977.925 0.545595 -0.501405 0
M  V30 10211 H 980.572 0.839127 -1.72136 0
M  V30 10212 H 978.877 3.44171 -1.87225 0
M  V30 10213 H 980.574 3.32264 -2.24504 0
M  V30 10214 H 977.164 2.54436 -3.44906 0
M  V30 10215 H 981.348 2.29876 -4.39853 0
M  V30 10216 H 976.604 1.99611 -5.77897 0
M  V30 10217 H 980.778 1.76054 -6.73779 0
M  V30 10218 H 978.405 1.60389 -7.43088 0
M  V30 10219 N 979.98 1.24838 0.961938 0
M  V30 10220 C 980.943 1.04674 2.03902 0
M  V30 10221 C 981.943 0.00204674 1.608 0
M  V30 10222 O 983.133 0.243555 1.72489 0
M  V30 10223 C 980.265 0.587736 3.35795 0
M  V30 10224 H 981.458 2.00278 2.23223 0
M  V30 10225 H 979.011 1.07142 1.138 0
M  V30 10226 H 979.746 -0.371244 3.22168 0
M  V30 10227 H 979.531 1.34182 3.68426 0
M  V30 10228 H 981.021 0.467867 4.14971 0
M  V30 10229 N 981.458 -1.16348 1.06306 0
M  V30 10230 C 982.874 -1.38873 0.786543 0
M  V30 10231 C 983.074 -1.91915 -0.614061 0
M  V30 10232 O 982.13 -2.11804 -1.3746 0
M  V30 10233 C 983.443 -2.36936 1.85154 0
M  V30 10234 C 984.991 -2.5062 1.87506 0
M  V30 10235 C 985.466 -3.51965 2.9306 0
M  V30 10236 N 986.957 -3.59492 2.92095 0
M  V30 10237 C 987.692 -4.37699 3.70415 0
M  V30 10238 N 987.188 -5.19327 4.58553 0
M  V30 10239 N 988.981 -4.32683 3.58806 0
M  V30 10240 H 981.132 -0.802542 1.96655 0
M  V30 10241 H 983.395 -0.415304 0.852189 0
M  V30 10242 H 983.101 -2.05056 2.85736 0
M  V30 10243 H 982.975 -3.36585 1.70267 0
M  V30 10244 H 985.362 -2.81804 0.875827 0
M  V30 10245 H 985.443 -1.51006 2.06472 0
M  V30 10246 H 985.087 -3.21518 3.93177 0
M  V30 10247 H 985.017 -4.51309 2.71344 0
M  V30 10248 H 987.508 -3.01222 2.28197 0
M  V30 10249 H 987.821 -5.76216 5.1497 0
M  V30 10250 H 986.166 -5.1867 4.62608 0
M  V30 10251 H 989.357 -3.67971 2.89335 0
M  V30 10252 H 989.53 -4.93386 4.20088 0
M  V30 10253 N 982.937 -0.845659 -1.3299 0
M  V30 10254 C 983.9 -0.288905 -2.27372 0
M  V30 10255 C 984.9 0.546263 -1.51237 0
M  V30 10256 O 986.09 0.359072 -1.70459 0
M  V30 10257 C 983.222 0.59224 -3.35716 0
M  V30 10258 H 984.415 -1.12181 -2.78128 0
M  V30 10259 H 981.968 -0.619276 -1.43508 0
M  V30 10260 H 982.703 1.44732 -2.90212 0
M  V30 10261 H 982.488 -0.00543255 -3.921 0
M  V30 10262 H 983.978 0.974848 -4.06062 0
M  V30 10263 N 984.415 1.45619 -0.602734 0
M  V30 10264 C 985.661 2.02572 -0.0961759 0
M  V30 10265 C 985.994 1.47076 1.26815 0
M  V30 10266 O 985.269 0.643566 1.83544 0
M  V30 10267 C 985.552 3.60062 -0.0520032 0
M  V30 10268 C 985.405 4.25901 -1.44665 0
M  V30 10269 C 986.724 4.35446 0.638342 0
M  V30 10270 H 983.843 0.736099 -0.0364238 0
M  V30 10271 H 986.485 1.7353 -0.773776 0
M  V30 10272 H 984.635 3.84936 0.525032 0
M  V30 10273 H 986.307 4.12228 -2.0704 0
M  V30 10274 H 984.55 3.84489 -2.00874 0
M  V30 10275 H 985.221 5.34779 -1.36803 0
M  V30 10276 H 987.697 4.15837 0.147926 0
M  V30 10277 H 986.573 5.45176 0.63834 0
M  V30 10278 H 986.834 4.07962 1.70351 0
M  V30 10279 N 985.893 0.34162 1.53853 0
M  V30 10280 C 987.17 -0.310664 1.93117 0
M  V30 10281 C 987.55 -1.68398 1.273 0
M  V30 10282 O 986.898 -2.24546 0.423225 0
M  V30 10283 C 987.108 -0.384867 3.46871 0
M  V30 10284 C 988.456 -0.636621 4.198 0
M  V30 10285 O 989.48 -0.467061 3.53125 0
M  V30 10286 O 988.339 -0.964962 5.37913 0
M  V30 10287 H 985.433 -0.180881 0.806977 0
M  V30 10288 H 987.979 0.392656 1.65095 0
M  V30 10289 H 986.751 0.57894 3.86994 0
M  V30 10290 H 986.374 -1.13505 3.81054 0
M  V30 10291 N 987.371 -1.57444 0.0701946 0
M  V30 10292 C 988.599 -1.97754 -0.608358 0
M  V30 10293 C 989.014 -0.948496 -1.63245 0
M  V30 10294 O 988.371 0.065046 -1.82384 0
M  V30 10295 C 988.422 -3.38142 -1.27836 0
M  V30 10296 O 988.143 -4.37104 -0.295255 0
M  V30 10297 C 989.644 -3.93318 -2.04489 0
M  V30 10298 H 986.864 -0.650398 -0.164997 0
M  V30 10299 H 989.408 -2.04006 0.142124 0
M  V30 10300 H 987.563 -3.32982 -1.97994 0
M  V30 10301 H 987.977 -5.18732 -0.77574 0
M  V30 10302 H 989.451 -4.93774 -2.46762 0
M  V30 10303 H 989.928 -3.29774 -2.90079 0
M  V30 10304 H 990.534 -4.01875 -1.39201 0
M  V30 10305 N 988.849 0.203349 -1.56283 0
M  V30 10306 C 990.265 0.55384 -1.49682 0
M  V30 10307 C 990.465 1.86261 -0.768701 0
M  V30 10308 O 989.521 2.50517 -0.315824 0
M  V30 10309 C 990.834 0.616216 -2.94318 0
M  V30 10310 C 992.382 0.705611 -3.04943 0
M  V30 10311 C 992.857 0.79917 -4.50974 0
M  V30 10312 N 994.348 0.862916 -4.55091 0
M  V30 10313 C 995.083 0.955334 -5.65386 0
M  V30 10314 N 994.579 1.01057 -6.8539 0
M  V30 10315 N 996.372 0.991884 -5.53279 0
M  V30 10316 H 988.523 -0.655244 -2.0204 0
M  V30 10317 H 990.786 -0.232344 -0.919087 0
M  V30 10318 H 990.492 -0.27619 -3.50614 0
M  V30 10319 H 990.366 1.47371 -3.4722 0
M  V30 10320 H 992.753 1.58845 -2.48701 0
M  V30 10321 H 992.834 -0.177921 -2.5518 0
M  V30 10322 H 992.478 -0.0792841 -5.07838 0
M  V30 10323 H 992.408 1.69838 -4.9846 0
M  V30 10324 H 994.899 0.829812 -3.68677 0
M  V30 10325 H 995.212 1.08137 -7.65197 0
M  V30 10326 H 993.557 0.979384 -6.88065 0
M  V30 10327 H 996.748 0.945514 -4.58451 0
M  V30 10328 H 996.921 1.06045 -6.39264 0
M  V30 10329 N 990.327 1.50405 0.470755 0
M  V30 10330 C 991.257 1.72222 1.57676 0
M  V30 10331 C 992.238 0.57121 1.60222 0
M  V30 10332 O 993.423 0.810381 1.76484 0
M  V30 10333 C 990.553 1.81666 2.95998 0
M  V30 10334 C 989.507 2.96857 3.08318 0
M  V30 10335 C 988.833 2.91445 4.4829 0
M  V30 10336 C 990.133 4.37361 2.85504 0
M  V30 10337 H 991.827 2.64825 1.39671 0
M  V30 10338 H 989.373 1.27438 0.67049 0
M  V30 10339 H 991.326 1.95514 3.73299 0
M  V30 10340 H 990.05 0.856856 3.1516 0
M  V30 10341 H 988.709 2.82661 2.33449 0
M  V30 10342 H 988.357 1.93309 4.64371 0
M  V30 10343 H 988.057 3.68776 4.57469 0
M  V30 10344 H 989.581 3.07341 5.27611 0
M  V30 10345 H 990.995 4.52081 3.52555 0
M  V30 10346 H 989.392 5.16145 3.06127 0
M  V30 10347 H 990.462 4.49708 1.81359 0
M  V30 10348 N 991.805 -0.723954 1.39988 0
M  V30 10349 C 992.715 -1.86829 1.41887 0
M  V30 10350 C 993.731 -1.71173 0.312401 0
M  V30 10351 O 994.907 -1.93583 0.555651 0
M  V30 10352 C 991.972 -3.22541 1.27154 0
M  V30 10353 C 991.033 -3.50512 2.47871 0
M  V30 10354 C 990.266 -4.79749 2.33831 0
M  V30 10355 O 990.489 -5.54251 1.34765 0
M  V30 10356 O 989.423 -5.07868 3.23039 0
M  V30 10357 H 993.249 -1.88183 2.38371 0
M  V30 10358 H 990.834 -0.873259 1.21221 0
M  V30 10359 H 992.716 -4.0362 1.21114 0
M  V30 10360 H 991.391 -3.21933 0.337715 0
M  V30 10361 H 990.298 -2.69475 2.59488 0
M  V30 10362 H 991.631 -3.55909 3.39985 0
M  V30 10363 N 993.283 -1.25346 -0.955304 0
M  V30 10364 C 994.193 -1.07412 -2.08566 0
M  V30 10365 C 995.209 -0.0114424 -1.73996 0
M  V30 10366 O 996.385 -0.212236 -2.00279 0
M  V30 10367 C 993.45 -0.694141 -3.3968 0
M  V30 10368 C 992.511 -1.83468 -3.88121 0
M  V30 10369 C 991.744 -1.47274 -5.12978 0
M  V30 10370 O 991.967 -0.368086 -5.69211 0
M  V30 10371 O 990.901 -2.30269 -5.56111 0
M  V30 10372 H 994.727 -2.02206 -2.26598 0
M  V30 10373 H 992.312 -1.04279 -1.06988 0
M  V30 10374 H 994.194 -0.494325 -4.18491 0
M  V30 10375 H 992.869 0.224545 -3.2292 0
M  V30 10376 H 991.776 -2.08935 -3.10318 0
M  V30 10377 H 993.109 -2.73258 -4.09379 0
M  V30 10378 N 994.761 1.15782 -1.06922 0
M  V30 10379 C 995.691 2.22538 -0.707045 0
M  V30 10380 C 996.672 1.67371 0.303471 0
M  V30 10381 O 997.857 1.9339 0.177189 0
M  V30 10382 C 994.987 3.47158 -0.0994269 0
M  V30 10383 C 993.941 4.15257 -1.03661 0
M  V30 10384 C 993.267 5.33902 -0.291974 0
M  V30 10385 C 994.567 4.65516 -2.36837 0
M  V30 10386 H 996.261 2.53089 -1.59958 0
M  V30 10387 H 993.807 1.21649 -0.770552 0
M  V30 10388 H 995.76 4.21073 0.165852 0
M  V30 10389 H 994.484 3.15926 0.828155 0
M  V30 10390 H 993.143 3.43276 -1.28674 0
M  V30 10391 H 992.791 4.98926 0.638928 0
M  V30 10392 H 992.491 5.80407 -0.916613 0
M  V30 10393 H 994.015 6.1059 -0.0343915 0
M  V30 10394 H 995.429 5.30981 -2.16175 0
M  V30 10395 H 993.826 5.22666 -2.94856 0
M  V30 10396 H 994.896 3.81387 -2.99453 0
M  V30 10397 N 996.239 0.8527 1.3254 0
M  V30 10398 C 997.487 0.454224 1.96929 0
M  V30 10399 C 997.808 -0.993034 1.67821 0
M  V30 10400 O 997.078 -1.69371 0.984393 0
M  V30 10401 H 995.658 0.164977 0.728554 0
M  V30 10402 H 998.32 1.0887 1.61658 0
M  V30 10403 H 997.416 0.597667 3.06324 0
M  V30 10404 N 997.718 -1.45297 0.610449 0
M  V30 10405 C 998.966 -2.01819 0.106548 0
M  V30 10406 C 999.287 -1.48102 -1.26849 0
M  V30 10407 O 998.557 -0.676411 -1.83852 0
M  V30 10408 H 997.137 -0.746113 0.0363982 0
M  V30 10409 H 999.799 -1.78061 0.792491 0
M  V30 10410 H 998.895 -3.12045 0.0585 0
M  V30 10411 N 999.196 -0.349774 -1.5367 0
M  V30 10412 C 1000.11 0.512421 -2.28935 0
M  V30 10413 C 1001.12 1.1065 -1.34286 0
M  V30 10414 O 1002.3 1.12084 -1.67329 0
M  V30 10415 C 999.363 1.64449 -3.05217 0
M  V30 10416 C 998.424 1.07956 -4.15505 0
M  V30 10417 C 997.657 2.15768 -4.88139 0
M  V30 10418 O 997.88 3.366 -4.60496 0
M  V30 10419 O 996.814 1.79712 -5.74445 0
M  V30 10420 H 1000.64 -0.0996001 -3.03537 0
M  V30 10421 H 998.225 -0.114629 -1.4896 0
M  V30 10422 H 1000.11 2.30302 -3.52901 0
M  V30 10423 H 998.782 2.24221 -2.33467 0
M  V30 10424 H 997.689 0.385381 -3.7211 0
M  V30 10425 H 999.022 0.526621 -4.89375 0
M  V30 10426 N 1000.67 1.57404 -0.0785433 0
M  V30 10427 C 1002.09 1.57158 0.2781 0
M  V30 10428 C 1002.29 1.08847 1.69572 0
M  V30 10429 O 1001.35 0.757407 2.40873 0
M  V30 10430 C 1002.66 3.00589 0.0816067 0
M  V30 10431 C 1004.21 3.12637 0.150627 0
M  V30 10432 C 1004.68 4.57997 -0.0176685 0
M  V30 10433 N 1006.17 4.63185 0.0377145 0
M  V30 10434 C 1006.91 5.7336 -0.0679907 0
M  V30 10435 N 1006.4 6.92426 -0.227598 0
M  V30 10436 N 1008.2 5.62099 -0.0104424 0
M  V30 10437 H 1000.35 1.87121 -1.00496 0
M  V30 10438 H 1002.61 0.862937 -0.392484 0
M  V30 10439 H 1002.32 3.40072 -0.896869 0
M  V30 10440 H 1002.19 3.67931 0.831046 0
M  V30 10441 H 1004.58 2.73037 1.11959 0
M  V30 10442 H 1004.66 2.4792 -0.630028 0
M  V30 10443 H 1004.3 4.98288 -0.983431 0
M  V30 10444 H 1004.23 5.20754 0.782475 0
M  V30 10445 H 1006.72 3.77564 0.159208 0
M  V30 10446 H 1007.04 7.72217 -0.300217 0
M  V30 10447 H 1005.38 6.94502 -0.263049 0
M  V30 10448 H 1008.57 4.67964 0.112999 0
M  V30 10449 H 1008.75 6.47928 -0.0962747 0
M  V30 10450 N 1002.15 -0.195058 1.56388 0
M  V30 10451 C 1003.08 -1.24444 1.97575 0
M  V30 10452 C 1004.06 -1.47471 0.847717 0
M  V30 10453 O 1005.25 -1.59208 1.11205 0
M  V30 10454 C 1002.38 -2.58866 2.31529 0
M  V30 10455 C 1001.33 -2.50451 3.47071 0
M  V30 10456 C 1000.66 -3.89146 3.667 0
M  V30 10457 C 1001.96 -2.02953 4.81256 0
M  V30 10458 H 1003.65 -0.902178 2.85484 0
M  V30 10459 H 1001.2 -0.43254 1.3735 0
M  V30 10460 H 1003.15 -3.3246 2.58936 0
M  V30 10461 H 1001.87 -2.94833 1.40502 0
M  V30 10462 H 1000.53 -1.79313 3.19754 0
M  V30 10463 H 1000.18 -4.22466 2.73004 0
M  V30 10464 H 999.882 -3.84391 4.44429 0
M  V30 10465 H 1001.41 -4.64363 3.96484 0
M  V30 10466 H 1002.82 -2.66306 5.07695 0
M  V30 10467 H 1001.22 -2.092 5.62455 0
M  V30 10468 H 1002.29 -0.982757 4.74837 0
M  V30 10469 N 1003.63 -1.50653 -0.462772 0
M  V30 10470 C 1004.56 -1.73056 -1.5676 0
M  V30 10471 C 1005.54 -0.579699 -1.59917 0
M  V30 10472 O 1006.73 -0.819729 -1.76051 0
M  V30 10473 C 1003.86 -1.83234 -2.9503 0
M  V30 10474 C 1002.81 -2.98488 -3.06739 0
M  V30 10475 C 1002.14 -2.93818 -4.46738 0
M  V30 10476 C 1003.44 -4.38869 -2.83181 0
M  V30 10477 H 1005.13 -2.65562 -1.38265 0
M  V30 10478 H 1002.68 -1.27792 -0.663722 0
M  V30 10479 H 1004.63 -1.97491 -3.72257 0
M  V30 10480 H 1003.35 -0.873558 -3.14701 0
M  V30 10481 H 1002.01 -2.83895 -2.31946 0
M  V30 10482 H 1001.66 -1.95769 -4.63339 0
M  V30 10483 H 1001.36 -3.71197 -4.55507 0
M  V30 10484 H 1002.88 -3.10135 -5.25974 0
M  V30 10485 H 1004.3 -4.53945 -3.50153 0
M  V30 10486 H 1002.69 -5.17762 -3.03386 0
M  V30 10487 H 1003.76 -4.50663 -1.78972 0
M  V30 10488 N 1005.11 0.71652 -1.4037 0
M  V30 10489 C 1006.04 1.84138 -1.36477 0
M  V30 10490 C 1007.05 1.6054 -0.27033 0
M  V30 10491 O 1008.24 1.70431 -0.530612 0
M  V30 10492 C 1005.34 3.20523 -1.10082 0
M  V30 10493 C 1004.52 3.71326 -2.31162 0
M  V30 10494 C 1003.57 4.86322 -2.00942 0
M  V30 10495 O 1002.6 4.99022 -2.73799 0
M  V30 10496 N 1003.8 5.72051 -0.986812 0
M  V30 10497 H 1006.57 1.87977 -2.3342 0
M  V30 10498 H 1004.13 0.89802 -1.34712 0
M  V30 10499 H 1006.12 3.95049 -0.878526 0
M  V30 10500 H 1004.69 3.11838 -0.21809 0
M  V30 10501 H 1003.91 2.87941 -2.69227 0
M  V30 10502 H 1005.2 4.02003 -3.11883 0
M  V30 10503 H 1004.6 5.64399 -0.383381 0
M  V30 10504 H 1003.15 6.46565 -0.824419 0
M  V30 10505 N 1006.59 1.25851 0.948643 0
M  V30 10506 C 1007.52 1.09248 2.06367 0
M  V30 10507 C 1008.5 -0.000205168 1.701 0
M  V30 10508 O 1009.68 0.170442 1.93451 0
M  V30 10509 C 1006.81 0.716777 3.39823 0
M  V30 10510 C 1005.77 1.76036 3.90122 0
M  V30 10511 C 1005.09 1.23918 5.20143 0
M  V30 10512 C 1006.39 3.16039 4.15833 0
M  V30 10513 H 1008.09 2.02518 2.20515 0
M  V30 10514 H 1005.63 0.975093 1.05962 0
M  V30 10515 H 1007.59 0.587531 4.17284 0
M  V30 10516 H 1006.31 -0.251626 3.25629 0
M  V30 10517 H 1004.97 1.87815 3.14835 0
M  V30 10518 H 1004.62 0.260836 5.02323 0
M  V30 10519 H 1004.32 1.93673 5.54765 0
M  V30 10520 H 1005.84 1.12245 6.00194 0
M  V30 10521 H 1007.25 3.0738 4.83933 0
M  V30 10522 H 1005.65 3.83317 4.61723 0
M  V30 10523 H 1006.72 3.62652 3.21887 0
M  V30 10524 N 1008.06 -1.15214 1.07534 0
M  V30 10525 C 1009.31 -1.85676 0.79805 0
M  V30 10526 C 1009.63 -1.82837 -0.677919 0
M  V30 10527 O 1008.9 -1.27059 -1.49107 0
M  V30 10528 H 1007.48 -0.687468 0.292227 0
M  V30 10529 H 1010.15 -1.39658 1.35947 0
M  V30 10530 H 1009.24 -2.9076 1.13423 0
M  V30 10531 N 1009.54 -0.859717 -1.32086 0
M  V30 10532 C 1010.47 -0.265258 -2.2766 0
M  V30 10533 C 1011.49 0.565889 -1.52648 0
M  V30 10534 O 1012.68 0.389554 -1.74197 0
M  V30 10535 C 1009.78 0.643397 -3.32737 0
M  V30 10536 C 1008.95 -0.153024 -4.37132 0
M  V30 10537 C 1008.01 0.682176 -5.21759 0
M  V30 10538 O 1007.03 0.113878 -5.69086 0
M  V30 10539 N 1008.24 1.99602 -5.45105 0
M  V30 10540 H 1011 -1.08653 -2.79311 0
M  V30 10541 H 1008.56 -0.720191 -1.45 0
M  V30 10542 H 1010.55 1.20759 -3.86263 0
M  V30 10543 H 1009.12 1.36535 -2.81206 0
M  V30 10544 H 1008.34 -0.898657 -3.8382 0
M  V30 10545 H 1009.63 -0.699877 -5.03963 0
M  V30 10546 H 1009.03 2.481 -5.08393 0
M  V30 10547 H 1007.59 2.50823 -6.01607 0
M  V30 10548 N 1011.02 1.44971 -0.618145 0
M  V30 10549 C 1012.27 2.0176 -0.11725 0
M  V30 10550 C 1012.59 1.48773 1.26062 0
M  V30 10551 O 1011.86 0.686152 1.83491 0
M  V30 10552 H 1010.44 0.745909 -0.0403545 0
M  V30 10553 H 1013.1 1.77638 -0.801923 0
M  V30 10554 H 1012.2 3.1201 -0.0750477 0
M  V30 10555 N 1012.5 0.357919 1.53482 0
M  V30 10556 C 1013.78 -0.290164 1.93436 0
M  V30 10557 C 1014.16 -1.67039 1.29079 0
M  V30 10558 O 1013.5 -2.24085 0.447017 0
M  V30 10559 C 1013.71 -0.348055 3.4726 0
M  V30 10560 C 1015.06 -0.59206 4.20452 0
M  V30 10561 O 1016.09 -0.429581 3.536 0
M  V30 10562 O 1014.94 -0.907855 5.38907 0
M  V30 10563 H 1012.04 -0.172312 0.80885 0
M  V30 10564 H 1014.58 0.410144 1.64669 0
M  V30 10565 H 1013.36 0.619953 3.86358 0
M  V30 10566 H 1012.98 -1.09457 3.82237 0
M  V30 10567 N 1013.98 -1.5736 0.0868897 0
M  V30 10568 C 1014.89 -2.17087 -0.889402 0
M  V30 10569 C 1015.9 -1.13809 -1.31619 0
M  V30 10570 O 1017.08 -1.46143 -1.38579 0
M  V30 10571 C 1014.14 -2.73286 -2.13344 0
M  V30 10572 C 1013.2 -3.91491 -1.76164 0
M  V30 10573 C 1012.44 -4.45 -2.94637 0
M  V30 10574 O 1012.66 -3.97467 -4.09116 0
M  V30 10575 O 1011.59 -5.36133 -2.73579 0
M  V30 10576 H 1015.42 -3.00902 -0.411275 0
M  V30 10577 H 1013.01 -1.4877 -0.137015 0
M  V30 10578 H 1014.89 -3.0924 -2.86266 0
M  V30 10579 H 1013.56 -1.92521 -2.60225 0
M  V30 10580 H 1012.47 -3.60363 -1.00447 0
M  V30 10581 H 1013.8 -4.73593 -1.34053 0
M  V30 10582 N 1015.45 0.186762 -1.56489 0
M  V30 10583 C 1016.38 1.23395 -1.98232 0
M  V30 10584 C 1017.37 1.4702 -0.855526 0
M  V30 10585 O 1018.55 1.58616 -1.12048 0
M  V30 10586 C 1015.68 2.57635 -2.32898 0
M  V30 10587 C 1014.63 2.48607 -3.48394 0
M  V30 10588 C 1013.96 3.87196 -3.68759 0
M  V30 10589 C 1015.26 2.00398 -4.82325 0
M  V30 10590 H 1016.95 0.887026 -2.85958 0
M  V30 10591 H 1014.5 0.42525 -1.37578 0
M  V30 10592 H 1016.45 3.31082 -2.60696 0
M  V30 10593 H 1015.18 2.94084 -1.42064 0
M  V30 10594 H 1013.84 1.77615 -3.207 0
M  V30 10595 H 1013.48 4.21012 -2.75241 0
M  V30 10596 H 1013.18 3.82029 -4.46462 0
M  V30 10597 H 1014.71 4.62253 -3.98941 0
M  V30 10598 H 1016.12 2.6361 -5.091 0
M  V30 10599 H 1014.52 2.06214 -5.63556 0
M  V30 10600 H 1015.59 0.957562 -4.75351 0
M  V30 10601 N 1016.93 1.50896 0.454776 0
M  V30 10602 C 1018.17 1.64347 1.21529 0
M  V30 10603 C 1018.54 0.343869 1.88896 0
M  V30 10604 O 1019.74 0.353973 2.66459 0
M  V30 10605 C 1018.01 2.80199 2.21864 0
M  V30 10606 S 1019.57 3.13879 3.06636 0
M  V30 10607 H 1016.39 0.579193 0.412379 0
M  V30 10608 H 1018.99 1.88741 0.509629 0
M  V30 10609 H 1017.69 3.73086 1.70982 0
M  V30 10610 H 1017.22 2.57941 2.97036 0
M  V30 10611 H 1019.24 2.58964 4.23264 0
M  V30 10612 N 1018.41 -0.709066 1.40748 0
M  V30 10613 C 1019.66 -1.46611 1.39103 0
M  V30 10614 C 1019.98 -1.95 -0.00365366 0
M  V30 10615 O 1019.25 -1.70791 -0.959541 0
M  V30 10616 H 1017.83 -0.543954 0.511979 0
M  V30 10617 H 1020.49 -0.840141 1.75863 0
M  V30 10618 H 1019.59 -2.33581 2.06994 0
M  V30 10619 N 1019.89 -1.26353 -0.941956 0
M  V30 10620 C 1020.82 -1.03634 -2.04432 0
M  V30 10621 C 1021.83 0.00295864 -1.628 0
M  V30 10622 O 1023.02 -0.237029 -1.76919 0
M  V30 10623 C 1020.12 -0.547231 -3.34453 0
M  V30 10624 C 1019.3 -1.65559 -4.04857 0
M  V30 10625 C 1018.36 -1.16466 -5.13149 0
M  V30 10626 O 1017.38 -1.86158 -5.37898 0
M  V30 10627 N 1018.58 -0.0126703 -5.80499 0
M  V30 10628 H 1021.35 -1.98558 -2.24488 0
M  V30 10629 H 1018.91 -1.17728 -1.11138 0
M  V30 10630 H 1020.9 -0.203004 -4.04191 0
M  V30 10631 H 1019.47 0.308401 -3.11075 0
M  V30 10632 H 1018.69 -2.17079 -3.29044 0
M  V30 10633 H 1019.98 -2.39985 -4.48647 0
M  V30 10634 H 1019.38 0.569358 -5.62828 0
M  V30 10635 H 1017.93 0.272486 -6.5123 0
M  V30 10636 N 1021.37 1.14642 -1.08144 0
M  V30 10637 C 1022.28 2.23257 -0.720668 0
M  V30 10638 C 1023.29 1.71866 0.271648 0
M  V30 10639 O 1024.47 2.01064 0.116266 0
M  V30 10640 C 1021.53 3.46447 -0.132542 0
M  V30 10641 C 1020.6 4.12789 -1.17913 0
M  V30 10642 C 1019.83 5.30099 -0.618971 0
M  V30 10643 O 1020.05 5.6762 0.562418 0
M  V30 10644 O 1018.99 5.86154 -1.36774 0
M  V30 10645 H 1022.81 2.56463 -1.62667 0
M  V30 10646 H 1020.4 1.22521 -0.854932 0
M  V30 10647 H 1022.28 4.20959 0.19277 0
M  V30 10648 H 1020.95 3.14971 0.746662 0
M  V30 10649 H 1019.86 3.40163 -1.55693 0
M  V30 10650 H 1021.19 4.48365 -2.03051 0
M  V30 10651 N 1022.85 0.866709 1.31628 0
M  V30 10652 C 1023.76 0.323408 2.3236 0
M  V30 10653 C 1024.77 -0.564995 1.64572 0
M  V30 10654 O 1025.95 -0.462489 1.96018 0
M  V30 10655 C 1023.01 -0.469045 3.43513 0
M  V30 10656 C 1022.07 0.446928 4.26967 0
M  V30 10657 C 1021.31 -0.307799 5.32812 0
M  V30 10658 O 1021.53 -1.5363 5.49321 0
M  V30 10659 O 1020.46 0.332653 6.0098 0
M  V30 10660 H 1024.29 1.15827 2.80745 0
M  V30 10661 H 1021.87 0.629987 1.35468 0
M  V30 10662 H 1023.76 -0.918405 4.1127 0
M  V30 10663 H 1022.43 -1.28051 2.97296 0
M  V30 10664 H 1021.34 0.944719 3.61975 0
M  V30 10665 H 1022.67 1.2239 4.76741 0
M  V30 10666 N 1024.32 -1.44642 0.625825 0
M  V30 10667 C 1025.29 -2.29085 -0.072526 0
M  V30 10668 C 1026.29 -1.40755 -0.777467 0
M  V30 10669 O 1027.48 -1.62684 -0.622861 0
M  V30 10670 C 1024.61 -3.22212 -1.1132 0
M  V30 10671 H 1025.8 -2.92317 0.670124 0
M  V30 10672 H 1023.35 -1.51466 0.38571 0
M  V30 10673 H 1024.09 -2.63819 -1.88601 0
M  V30 10674 H 1023.87 -3.87299 -0.611709 0
M  V30 10675 H 1025.36 -3.8566 -1.60175 0
M  V30 10676 N 1025.8 -0.366053 -1.5329 0
M  V30 10677 C 1027.05 0.223493 -2.01263 0
M  V30 10678 C 1027.38 1.48736 -1.25331 0
M  V30 10679 O 1026.63 1.92805 -0.335341 0
M  V30 10680 C 1026.93 0.560906 -3.52971 0
M  V30 10681 C 1026.6 -0.60869 -4.46773 0
M  V30 10682 C 1025.26 -0.929609 -4.72135 0
M  V30 10683 C 1027.61 -1.39225 -5.02261 0
M  V30 10684 C 1024.94 -2.03606 -5.50238 0
M  V30 10685 C 1027.29 -2.48912 -5.81572 0
M  V30 10686 C 1025.95 -2.81538 -6.05221 0
M  V30 10687 H 1025.22 0.0817818 -0.736473 0
M  V30 10688 H 1027.87 -0.498613 -1.84895 0
M  V30 10689 H 1026.18 1.36403 -3.67289 0
M  V30 10690 H 1027.87 1.02931 -3.87564 0
M  V30 10691 H 1024.46 -0.348529 -4.27181 0
M  V30 10692 H 1028.65 -1.15757 -4.82612 0
M  V30 10693 H 1023.9 -2.29281 -5.6678 0
M  V30 10694 H 1028.08 -3.10044 -6.23575 0
M  V30 10695 H 1025.7 -3.67396 -6.65525 0
M  V30 10696 N 1027.28 1.57312 -0.0952337 0
M  V30 10697 C 1028.7 1.57445 0.261416 0
M  V30 10698 C 1028.9 1.10639 1.68408 0
M  V30 10699 O 1027.95 0.782912 2.40056 0
M  V30 10700 C 1029.26 3.00659 0.0497206 0
M  V30 10701 C 1030.81 3.1278 0.117459 0
M  V30 10702 C 1031.29 4.57952 -0.0662441 0
M  V30 10703 N 1032.78 4.63199 -0.0114146 0
M  V30 10704 C 1033.51 5.73255 -0.128799 0
M  V30 10705 N 1033.01 6.92146 -0.301026 0
M  V30 10706 N 1034.8 5.62056 -0.0700599 0
M  V30 10707 H 1026.95 1.86045 -1.02475 0
M  V30 10708 H 1029.22 0.858726 -0.401614 0
M  V30 10709 H 1028.92 3.39102 -0.932888 0
M  V30 10710 H 1028.8 3.68792 0.791975 0
M  V30 10711 H 1031.18 2.74209 1.09057 0
M  V30 10712 H 1031.26 2.47238 -0.656288 0
M  V30 10713 H 1030.91 4.97217 -1.03623 0
M  V30 10714 H 1030.84 5.21555 0.727198 0
M  V30 10715 H 1033.33 3.77712 0.119154 0
M  V30 10716 H 1033.64 7.71855 -0.382104 0
M  V30 10717 H 1031.99 6.94184 -0.336695 0
M  V30 10718 H 1035.18 4.68057 0.0633587 0
M  V30 10719 H 1035.35 6.4779 -0.164991 0
M  V30 10720 N 1028.76 -0.17846 1.56586 0
M  V30 10721 C 1030.01 -0.894464 1.81228 0
M  V30 10722 C 1030.33 -1.83089 0.671062 0
M  V30 10723 O 1029.6 -1.93439 -0.309557 0
M  V30 10724 H 1028.18 -0.333288 0.668527 0
M  V30 10725 H 1030.84 -0.179986 1.94067 0
M  V30 10726 H 1029.93 -1.47565 2.75011 0
M  V30 10727 N 1030.24 -1.51135 -0.446768 0
M  V30 10728 C 1031.48 -1.64542 -1.19573 0
M  V30 10729 C 1031.84 -0.352728 -1.89139 0
M  V30 10730 O 1031.13 0.650917 -1.80204 0
M  V30 10731 C 1031.32 -2.78034 -2.2457 0
M  V30 10732 C 1031.15 -4.18214 -1.65308 0
M  V30 10733 C 1029.92 -4.84284 -1.44212 0
M  V30 10734 C 1032.12 -5.01631 -1.13451 0
M  V30 10735 N 1030.1 -6.08606 -0.804486 0
M  V30 10736 C 1031.47 -6.16876 -0.621577 0
M  V30 10737 C 1033.53 -4.87227 -1.02537 0
M  V30 10738 C 1032.23 -7.19299 -0.0102361 0
M  V30 10739 C 1034.26 -5.8985 -0.427936 0
M  V30 10740 C 1033.62 -7.04361 0.0745026 0
M  V30 10741 H 1029.72 -0.656068 -0.425556 0
M  V30 10742 H 1032.3 -1.88334 -0.493802 0
M  V30 10743 H 1030.47 -2.55922 -2.92162 0
M  V30 10744 H 1032.21 -2.8067 -2.91558 0
M  V30 10745 H 1028.96 -4.4199 -1.70123 0
M  V30 10746 H 1029.38 -6.75126 -0.503379 0
M  V30 10747 H 1034.03 -3.98959 -1.39971 0
M  V30 10748 H 1031.74 -8.07224 0.376252 0
M  V30 10749 H 1035.33 -5.80773 -0.34552 0
M  V30 10750 H 1034.21 -7.8241 0.529535 0
M  V30 10751 N 1031.71 0.701592 -1.41122 0
M  V30 10752 C 1032.68 1.79733 -1.42227 0
M  V30 10753 C 1033.68 1.57708 -0.313831 0
M  V30 10754 O 1034.87 1.64492 -0.573423 0
M  V30 10755 C 1032 3.18024 -1.22775 0
M  V30 10756 H 1033.19 1.80148 -2.39764 0
M  V30 10757 H 1030.74 0.908624 -1.27176 0
M  V30 10758 H 1031.48 3.23252 -0.260552 0
M  V30 10759 H 1031.26 3.35411 -2.0308 0
M  V30 10760 H 1032.75 3.98021 -1.2637 0
M  V30 10761 N 1033.19 1.2685 0.935242 0
M  V30 10762 C 1034.12 1.04717 2.0388 0
M  V30 10763 C 1035.14 0.00567507 1.62799 0
M  V30 10764 O 1036.33 0.246408 1.76791 0
M  V30 10765 C 1033.43 0.56496 3.34158 0
M  V30 10766 C 1032.6 1.67704 4.03973 0
M  V30 10767 C 1031.66 1.19186 5.12524 0
M  V30 10768 O 1030.68 1.89008 5.36903 0
M  V30 10769 N 1031.89 0.0434554 5.80484 0
M  V30 10770 H 1034.65 1.99746 2.23431 0
M  V30 10771 H 1032.21 1.18316 1.10512 0
M  V30 10772 H 1034.2 0.224436 4.04077 0
M  V30 10773 H 1032.77 -0.291899 3.11234 0
M  V30 10774 H 1031.99 2.18821 3.27889 0
M  V30 10775 H 1033.28 2.42361 4.47368 0
M  V30 10776 H 1032.68 -0.539502 5.63122 0
M  V30 10777 H 1031.24 -0.237946 6.51366 0
M  V30 10778 N 1034.67 -1.14067 1.0875 0
M  V30 10779 C 1035.63 -2.17453 0.724341 0
M  V30 10780 C 1036.63 -1.58959 -0.242614 0
M  V30 10781 O 1037.82 -1.74186 -0.0217008 0
M  V30 10782 C 1034.96 -3.40828 0.0700236 0
M  V30 10783 H 1036.15 -2.51094 1.63987 0
M  V30 10784 H 1033.7 -1.28775 0.885813 0
M  V30 10785 H 1034.44 -3.1277 -0.857061 0
M  V30 10786 H 1034.22 -3.84551 0.76569 0
M  V30 10787 H 1035.71 -4.17258 -0.168905 0
M  V30 10788 N 1036.15 -0.873678 -1.31166 0
M  V30 10789 C 1037.11 -0.337069 -2.26708 0
M  V30 10790 C 1038.11 0.51406 -1.52362 0
M  V30 10791 O 1039.3 0.322834 -1.71182 0
M  V30 10792 C 1036.43 0.520897 -3.36897 0
M  V30 10793 H 1037.63 -1.18056 -2.75686 0
M  V30 10794 H 1035.18 -0.649577 -1.42163 0
M  V30 10795 H 1035.91 1.38543 -2.93217 0
M  V30 10796 H 1035.7 -0.0886015 -3.92 0
M  V30 10797 H 1037.19 0.888497 -4.08039 0
M  V30 10798 N 1037.63 1.44308 -0.633487 0
M  V30 10799 C 1038.87 2.02023 -0.138917 0
M  V30 10800 C 1039.2 1.49841 1.24008 0
M  V30 10801 O 1038.46 0.673718 1.83738 0
M  V30 10802 C 1038.76 3.57316 -0.0773886 0
M  V30 10803 C 1038.42 4.28762 -1.39548 0
M  V30 10804 C 1037.08 4.47997 -1.75648 0
M  V30 10805 C 1039.44 4.69391 -2.26542 0
M  V30 10806 C 1036.76 5.05121 -2.98445 0
M  V30 10807 C 1039.12 5.27876 -3.48612 0
M  V30 10808 C 1037.78 5.45329 -3.84932 0
M  V30 10809 H 1037.05 0.739254 -0.0508333 0
M  V30 10810 H 1039.7 1.73043 -0.820271 0
M  V30 10811 H 1038 3.85724 0.687345 0
M  V30 10812 H 1039.7 3.99706 0.321837 0
M  V30 10813 H 1036.29 4.14122 -1.10456 0
M  V30 10814 H 1040.47 4.54241 -1.99946 0
M  V30 10815 H 1035.73 5.16821 -3.26658 0
M  V30 10816 H 1039.9 5.58307 -4.16253 0
M  V30 10817 H 1037.53 5.8936 -4.80166 0
M  V30 10818 N 1039.1 0.374177 1.53094 0
M  V30 10819 C 1040.04 -0.503065 2.23611 0
M  V30 10820 C 1041.05 -1.03915 1.25321 0
M  V30 10821 O 1042.24 -0.944064 1.51492 0
M  V30 10822 C 1039.34 -1.70825 2.92698 0
M  V30 10823 C 1038.51 -1.30217 4.17567 0
M  V30 10824 C 1037.57 -2.37036 4.69788 0
M  V30 10825 O 1036.6 -1.99069 5.33254 0
M  V30 10826 N 1037.8 -3.68743 4.4834 0
M  V30 10827 H 1040.56 0.101013 2.9953 0
M  V30 10828 H 1038.12 0.199778 1.60663 0
M  V30 10829 H 1040.12 -2.41779 3.24538 0
M  V30 10830 H 1038.69 -2.219 2.2018 0
M  V30 10831 H 1037.91 -0.422121 3.91933 0
M  V30 10832 H 1039.19 -1.00728 4.9873 0
M  V30 10833 H 1038.59 -4.0236 3.97647 0
M  V30 10834 H 1037.15 -4.35776 4.84709 0
M  V30 10835 N 1040.58 -1.57259 0.103575 0
M  V30 10836 C 1041.55 -2.13337 -0.837859 0
M  V30 10837 C 1042.55 -1.06459 -1.20512 0
M  V30 10838 O 1043.74 -1.32307 -1.13316 0
M  V30 10839 C 1040.87 -2.66093 -2.13089 0
M  V30 10840 H 1042.06 -2.97842 -0.350775 0
M  V30 10841 H 1039.61 -1.55621 -0.145511 0
M  V30 10842 H 1040.35 -1.85133 -2.66264 0
M  V30 10843 H 1040.13 -3.44244 -1.87719 0
M  V30 10844 H 1041.62 -3.09443 -2.80419 0
M  V30 10845 N 1042.06 0.170153 -1.56679 0
M  V30 10846 C 1043.02 1.19443 -1.95617 0
M  V30 10847 C 1044.02 1.37118 -0.83996 0
M  V30 10848 O 1045.21 1.34504 -1.10699 0
M  V30 10849 C 1042.35 2.55926 -2.25199 0
M  V30 10850 H 1043.54 0.86095 -2.87276 0
M  V30 10851 H 1041.09 0.412646 -1.50755 0
M  V30 10852 H 1041.83 2.94286 -1.36257 0
M  V30 10853 H 1041.61 2.44464 -3.06562 0
M  V30 10854 H 1043.1 3.29742 -2.56242 0
M  V30 10855 N 1043.54 1.5137 0.438746 0
M  V30 10856 C 1044.78 1.65627 1.19779 0
M  V30 10857 C 1045.14 0.363885 1.8852 0
M  V30 10858 O 1046.34 0.382215 2.66069 0
M  V30 10859 C 1044.61 2.82536 2.18879 0
M  V30 10860 S 1046.17 3.17113 3.0329 0
M  V30 10861 H 1042.99 0.583535 0.406212 0
M  V30 10862 H 1045.59 1.89271 0.489582 0
M  V30 10863 H 1044.3 3.74879 1.67015 0
M  V30 10864 H 1043.83 2.61077 2.94283 0
M  V30 10865 H 1045.84 2.63439 4.20493 0
M  V30 10866 N 1045.02 -0.694098 1.41492 0
M  V30 10867 C 1045.93 -1.83778 1.45818 0
M  V30 10868 C 1046.94 -1.70471 0.348639 0
M  V30 10869 O 1048.12 -1.92361 0.596588 0
M  V30 10870 C 1045.18 -3.19771 1.33967 0
M  V30 10871 C 1044.24 -3.45175 2.5525 0
M  V30 10872 C 1043.48 -4.74681 2.43955 0
M  V30 10873 O 1043.7 -5.51268 1.46491 0
M  V30 10874 O 1042.63 -5.00901 3.33739 0
M  V30 10875 H 1046.46 -1.83084 2.42309 0
M  V30 10876 H 1044.05 -0.847349 1.23046 0
M  V30 10877 H 1045.93 -4.00961 1.29648 0
M  V30 10878 H 1044.6 -3.21145 0.405926 0
M  V30 10879 H 1043.51 -2.6391 2.65146 0
M  V30 10880 H 1044.84 -3.48617 3.47458 0
M  V30 10881 N 1046.49 -1.27344 -0.928501 0
M  V30 10882 C 1047.72 -1.16447 -1.7102 0
M  V30 10883 C 1048.14 0.278799 -1.8673 0
M  V30 10884 O 1047.49 1.18989 -1.38376 0
M  V30 10885 C 1047.55 -1.84242 -3.11026 0
M  V30 10886 O 1047.27 -3.2293 -2.96054 0
M  V30 10887 C 1048.77 -1.7946 -4.05351 0
M  V30 10888 H 1045.99 -0.404898 -0.535069 0
M  V30 10889 H 1048.53 -1.68201 -1.16313 0
M  V30 10890 H 1046.69 -1.36395 -3.62595 0
M  V30 10891 H 1047.1 -3.5667 -3.8456 0
M  V30 10892 H 1048.57 -2.31511 -5.01105 0
M  V30 10893 H 1049.05 -0.763771 -4.32508 0
M  V30 10894 H 1049.66 -2.26918 -3.59706 0
M  V30 10895 N 1047.97 1.13488 -1.09353 0
M  V30 10896 C 1049.22 1.84748 -0.829126 0
M  V30 10897 C 1049.55 1.83485 0.645247 0
M  V30 10898 O 1048.8 1.26767 1.49093 0
M  V30 10899 C 1049.1 3.32584 -1.30854 0
M  V30 10900 C 1048.77 3.54028 -2.7924 0
M  V30 10901 C 1047.43 3.59588 -3.19765 0
M  V30 10902 C 1049.78 3.62058 -3.74918 0
M  V30 10903 C 1047.11 3.70712 -4.54741 0
M  V30 10904 C 1049.46 3.7471 -5.09682 0
M  V30 10905 C 1048.13 3.78523 -5.49797 0
M  V30 10906 H 1047.4 0.67604 -0.303399 0
M  V30 10907 H 1050.04 1.33989 -1.36818 0
M  V30 10908 H 1048.35 3.85689 -0.689275 0
M  V30 10909 H 1050.04 3.86166 -1.08059 0
M  V30 10910 H 1046.63 3.50354 -2.4688 0
M  V30 10911 H 1050.82 3.57043 -3.44723 0
M  V30 10912 H 1046.07 3.71931 -4.8526 0
M  V30 10913 H 1050.25 3.79866 -5.83674 0
M  V30 10914 H 1047.88 3.86895 -6.54382 0
M  V30 10915 N 1049.45 0.880621 1.30701 0
M  V30 10916 C 1050.69 0.503519 1.98101 0
M  V30 10917 C 1051.06 -0.929075 1.68024 0
M  V30 10918 O 1052.26 -1.41208 2.28722 0
M  V30 10919 C 1050.53 0.765652 3.49102 0
M  V30 10920 S 1052.09 0.490001 4.36056 0
M  V30 10921 H 1048.9 0.187522 0.685825 0
M  V30 10922 H 1051.51 1.13895 1.58897 0
M  V30 10923 H 1050.21 1.80688 3.68484 0
M  V30 10924 H 1049.74 0.117616 3.93224 0
M  V30 10925 H 1051.76 -0.673236 4.91612 0
M  V30 10926 N 1050.93 -1.4397 0.641131 0
M  V30 10927 C 1052.18 -2.02246 0.14985 0
M  V30 10928 C 1052.51 -1.50387 -1.22871 0
M  V30 10929 O 1051.78 -0.692003 -1.81773 0
M  V30 10930 C 1052.07 -3.59798 0.147449 0
M  V30 10931 C 1051.92 -4.21916 1.55907 0
M  V30 10932 C 1053.24 -4.36985 -0.522667 0
M  V30 10933 H 1050.36 -0.734875 0.0559274 0
M  V30 10934 H 1053 -1.71418 0.819513 0
M  V30 10935 H 1051.15 -3.86193 -0.422789 0
M  V30 10936 H 1052.82 -4.06594 2.17896 0
M  V30 10937 H 1051.06 -3.79028 2.10998 0
M  V30 10938 H 1051.74 -5.30964 1.50934 0
M  V30 10939 H 1054.21 -4.16083 -0.0376226 0
M  V30 10940 H 1053.09 -5.46676 -0.493572 0
M  V30 10941 H 1053.35 -4.12335 -1.59475 0
M  V30 10942 N 1052.41 -0.382291 -1.52893 0
M  V30 10943 C 1053.66 0.201734 -2.01091 0
M  V30 10944 C 1053.98 1.47905 -1.2708 0
M  V30 10945 O 1053.25 1.92002 -0.38883 0
M  V30 10946 H 1051.83 0.0775373 -0.742965 0
M  V30 10947 H 1054.49 -0.512369 -1.88045 0
M  V30 10948 H 1053.58 0.416919 -3.09303 0
M  V30 10949 N 1053.89 1.57202 -0.111913 0
M  V30 10950 C 1054.8 2.18475 0.854753 0
M  V30 10951 C 1055.81 1.15888 1.29792 0
M  V30 10952 O 1056.99 1.48329 1.36237 0
M  V30 10953 C 1054.05 2.76645 2.0897 0
M  V30 10954 C 1053.11 3.94244 1.69913 0
M  V30 10955 C 1052.35 4.49631 2.8752 0
M  V30 10956 O 1052.57 4.03926 4.02741 0
M  V30 10957 O 1051.5 5.40417 2.65015 0
M  V30 10958 H 1055.33 3.01519 0.363352 0
M  V30 10959 H 1052.91 1.4897 0.113329 0
M  V30 10960 H 1054.8 3.13755 2.81311 0
M  V30 10961 H 1053.47 1.96637 2.5713 0
M  V30 10962 H 1052.38 3.61915 0.947013 0
M  V30 10963 H 1053.71 4.75666 1.26501 0
M  V30 10964 N 1055.36 -0.161842 1.56767 0
M  V30 10965 C 1056.64 -0.904754 1.73417 0
M  V30 10966 C 1057.02 -1.99987 0.675908 0
M  V30 10967 O 1056.37 -2.26419 -0.307712 0
M  V30 10968 C 1056.58 -1.46082 3.16956 0
M  V30 10969 C 1057.93 -1.93004 3.78199 0
M  V30 10970 O 1058.95 -1.55856 3.20293 0
M  V30 10971 O 1057.81 -2.61465 4.79894 0
M  V30 10972 H 1054.9 -0.426518 0.708528 0
M  V30 10973 H 1057.45 -0.148928 1.69045 0
M  V30 10974 H 1056.22 -0.673087 3.85468 0
M  V30 10975 H 1055.84 -2.28056 3.25693 0
M  V30 10976 N 1056.84 -1.516 -0.430713 0
M  V30 10977 C 1057.8 -1.72794 -1.50582 0
M  V30 10978 C 1058.8 -0.597903 -1.49271 0
M  V30 10979 O 1059.99 -0.865535 -1.51176 0
M  V30 10980 C 1057.13 -1.79049 -2.90093 0
M  V30 10981 H 1058.32 -2.68751 -1.33091 0
M  V30 10982 H 1055.87 -1.4169 -0.659822 0
M  V30 10983 H 1056.61 -0.849309 -3.12981 0
M  V30 10984 H 1056.39 -2.61181 -2.92449 0
M  V30 10985 H 1057.88 -1.97262 -3.68072 0
M  V30 10986 N 1058.32 0.686584 -1.41858 0
M  V30 10987 C 1059.27 1.80038 -1.44413 0
M  V30 10988 C 1060.24 1.63415 -0.297427 0
M  V30 10989 O 1061.42 1.84138 -0.499789 0
M  V30 10990 C 1058.56 3.17988 -1.34082 0
M  V30 10991 C 1057.67 3.45979 -2.58693 0
M  V30 10992 C 1056.81 4.73592 -2.4059 0
M  V30 10993 C 1055.85 4.94581 -3.60633 0
M  V30 10994 N 1054.99 6.13426 -3.41545 0
M  V30 10995 H 1059.83 1.77189 -2.396 0
M  V30 10996 H 1057.36 0.865158 -1.18968 0
M  V30 10997 H 1059.32 3.97689 -1.26092 0
M  V30 10998 H 1057.95 3.1999 -0.424975 0
M  V30 10999 H 1057 2.60617 -2.77097 0
M  V30 11000 H 1058.31 3.57386 -3.47961 0
M  V30 11001 H 1057.47 5.61364 -2.30119 0
M  V30 11002 H 1056.21 4.64448 -1.48794 0
M  V30 11003 H 1055.21 4.05254 -3.71549 0
M  V30 11004 H 1056.44 5.05578 -4.53395 0
M  V30 11005 H 1054.38 6.05477 -2.52456 0
M  V30 11006 H 1054.3 6.25641 -4.24393 0
M  V30 11007 H 1055.57 7.03908 -3.34864 0
M  V30 11008 N 1059.8 1.27835 0.921735 0
M  V30 11009 C 1060.76 1.11108 2.00469 0
M  V30 11010 C 1061.76 0.053203 1.60712 0
M  V30 11011 O 1062.95 0.298308 1.71627 0
M  V30 11012 C 1060.08 0.694269 3.33755 0
M  V30 11013 H 1061.28 2.07279 2.16738 0
M  V30 11014 H 1058.83 1.10708 1.10333 0
M  V30 11015 H 1059.56 -0.268561 3.23186 0
M  V30 11016 H 1059.35 1.45836 3.6397 0
M  V30 11017 H 1060.84 0.59965 4.13272 0
M  V30 11018 N 1061.28 -1.12907 1.09954 0
M  V30 11019 C 1062.24 -2.16673 0.747364 0
M  V30 11020 C 1063.24 -1.59208 -0.225741 0
M  V30 11021 O 1064.43 -1.742 -0.00322482 0
M  V30 11022 C 1061.56 -3.40735 0.106169 0
M  V30 11023 H 1062.75 -2.49341 1.6664 0
M  V30 11024 H 1060.31 -1.27828 0.899421 0
M  V30 11025 H 1061.04 -3.13661 -0.82384 0
M  V30 11026 H 1060.83 -3.83717 0.806434 0
M  V30 11027 H 1062.32 -4.17414 -0.12464 0
M  V30 11028 N 1062.75 -0.88754 -1.30232 0
M  V30 11029 C 1063.72 -0.361095 -2.26338 0
M  V30 11030 C 1064.72 0.497871 -1.52898 0
M  V30 11031 O 1065.91 0.30466 -1.71515 0
M  V30 11032 C 1063.04 0.485135 -3.3743 0
M  V30 11033 H 1064.23 -1.20973 -2.74419 0
M  V30 11034 H 1061.78 -0.664619 -1.41466 0
M  V30 11035 H 1062.52 1.35425 -2.9467 0
M  V30 11036 H 1062.3 -0.130173 -3.91884 0
M  V30 11037 H 1063.79 0.845169 -4.08958 0
M  V30 11038 N 1064.23 1.43628 -0.648757 0
M  V30 11039 C 1065.65 1.56442 -0.315921 0
M  V30 11040 C 1065.85 1.63322 1.18018 0
M  V30 11041 O 1064.9 1.58585 1.96487 0
M  V30 11042 C 1066.22 2.82751 -1.02335 0
M  V30 11043 C 1067.77 2.96488 -1.00318 0
M  V30 11044 C 1068.24 4.25623 -1.69142 0
M  V30 11045 N 1069.73 4.32477 -1.65885 0
M  V30 11046 C 1070.47 5.31154 -2.16016 0
M  V30 11047 N 1069.96 6.36135 -2.74415 0
M  V30 11048 N 1071.76 5.22778 -2.06541 0
M  V30 11049 H 1063.91 1.37405 -1.61968 0
M  V30 11050 H 1066.17 0.65962 -0.680886 0
M  V30 11051 H 1065.88 2.83714 -2.07844 0
M  V30 11052 H 1065.75 3.72836 -0.572114 0
M  V30 11053 H 1068.14 2.95068 0.0434919 0
M  V30 11054 H 1068.22 2.07704 -1.49307 0
M  V30 11055 H 1067.86 4.27804 -2.73763 0
M  V30 11056 H 1067.79 5.13296 -1.17622 0
M  V30 11057 H 1070.28 3.57232 -1.23264 0
M  V30 11058 H 1070.6 7.07743 -3.10355 0
M  V30 11059 H 1068.94 6.36771 -2.78474 0
M  V30 11060 H 1072.13 4.39678 -1.60625 0
M  V30 11061 H 1072.3 5.99523 -2.45919 0
M  V30 11062 N 1065.71 0.390394 1.52688 0
M  V30 11063 C 1066.99 -0.249068 1.94008 0
M  V30 11064 C 1067.37 -1.64263 1.32593 0
M  V30 11065 O 1066.72 -2.23086 0.494448 0
M  V30 11066 C 1066.93 -0.274318 3.4792 0
M  V30 11067 C 1068.27 -0.502743 4.21613 0
M  V30 11068 O 1069.3 -0.35448 3.54432 0
M  V30 11069 O 1068.16 -0.79334 5.40711 0
M  V30 11070 H 1065.25 -0.155116 0.812323 0
M  V30 11071 H 1067.8 0.44498 1.63762 0
M  V30 11072 H 1066.57 0.701766 3.84956 0
M  V30 11073 H 1066.19 -1.01324 3.84473 0
M  V30 11074 N 1067.19 -1.57141 0.120249 0
M  V30 11075 C 1068.44 -1.94413 -0.53727 0
M  V30 11076 C 1068.75 -1.00594 -1.67751 0
M  V30 11077 O 1069.96 -1.27336 -2.39787 0
M  V30 11078 C 1068.41 -3.45521 -1.00714 0
M  V30 11079 C 1068.02 -4.47878 0.104706 0
M  V30 11080 C 1069.76 -3.9171 -1.63596 0
M  V30 11081 C 1067.67 -5.90165 -0.381932 0
M  V30 11082 H 1066.6 -0.725745 -0.204475 0
M  V30 11083 H 1069.25 -1.82404 0.200302 0
M  V30 11084 H 1067.63 -3.52769 -1.79917 0
M  V30 11085 H 1068.81 -4.523 0.881002 0
M  V30 11086 H 1067.12 -4.11448 0.640264 0
M  V30 11087 H 1069.72 -4.95433 -2.01122 0
M  V30 11088 H 1070.06 -3.31756 -2.51483 0
M  V30 11089 H 1070.6 -3.87268 -0.909319 0
M  V30 11090 H 1067.34 -6.53877 0.460921 0
M  V30 11091 H 1066.86 -5.89161 -1.12468 0
M  V30 11092 H 1068.53 -6.41488 -0.842748 0
M  V30 11093 N 1068.67 0.153526 -1.5685 0
M  V30 11094 C 1069.91 0.867232 -1.8299 0
M  V30 11095 C 1070.24 1.81462 -0.700125 0
M  V30 11096 O 1069.5 1.93207 0.311348 0
M  V30 11097 C 1069.8 1.68066 -3.15418 0
M  V30 11098 C 1069.46 0.880635 -4.42217 0
M  V30 11099 C 1068.12 0.659899 -4.76654 0
M  V30 11100 C 1070.48 0.320698 -5.20212 0
M  V30 11101 C 1067.8 -0.131588 -5.86552 0
M  V30 11102 C 1070.16 -0.457794 -6.30941 0
M  V30 11103 C 1068.82 -0.689168 -6.63933 0
M  V30 11104 H 1068.09 0.317343 -0.669608 0
M  V30 11105 H 1070.74 0.131208 -1.9105 0
M  V30 11106 H 1069.04 2.4866 -3.02779 0
M  V30 11107 H 1070.74 2.23623 -3.32857 0
M  V30 11108 H 1067.33 1.06274 -4.15215 0
M  V30 11109 H 1071.51 0.47853 -4.93988 0
M  V30 11110 H 1066.77 -0.320413 -6.1056 0
M  V30 11111 H 1070.94 -0.898839 -6.90575 0
M  V30 11112 H 1068.57 -1.30433 -7.48927 0
M  V30 11113 N 1070.14 1.51827 0.422667 0
M  V30 11114 C 1071.37 1.69337 1.19748 0
M  V30 11115 C 1071.79 0.396312 1.83878 0
M  V30 11116 O 1071.15 -0.644976 1.6944 0
M  V30 11117 C 1071.2 2.82082 2.24637 0
M  V30 11118 O 1070.3 2.46708 3.30468 0
M  V30 11119 H 1069.65 0.564154 0.35018 0
M  V30 11120 H 1072.18 1.98465 0.497289 0
M  V30 11121 H 1072.19 3.06599 2.69186 0
M  V30 11122 H 1070.86 3.76195 1.77341 0
M  V30 11123 H 1069.44 2.32815 2.91293 0
M  V30 11124 N 1071.62 -0.679052 1.4222 0
M  V30 11125 C 1073.03 -1.25953 1.37815 0
M  V30 11126 C 1073.38 -1.96077 0.0693215 0
M  V30 11127 O 1072.51 -1.99765 -0.832047 0
M  V30 11128 C 1073.1 -2.29063 2.49631 0
M  V30 11129 C 1071.66 -2.82647 2.48571 0
M  V30 11130 C 1070.81 -1.56909 2.28637 0
M  V30 11131 H 1073.76 -0.472714 1.51496 0
M  V30 11132 H 1073.78 -3.10708 2.19638 0
M  V30 11133 H 1073.29 -1.77996 3.44876 0
M  V30 11134 H 1071.4 -3.37846 1.57132 0
M  V30 11135 H 1071.51 -3.31952 3.45463 0
M  V30 11136 H 1069.87 -1.83323 1.76819 0
M  V30 11137 H 1070.66 -1.07814 3.25931 0
M  V30 11138 N 1073.1 -1.28322 -0.914942 0
M  V30 11139 C 1074.05 -1.12146 -2.01722 0
M  V30 11140 C 1075.02 -0.0189279 -1.66089 0
M  V30 11141 O 1076.2 -0.183638 -1.89914 0
M  V30 11142 C 1073.34 -0.78808 -3.35981 0
M  V30 11143 C 1072.46 -1.96954 -3.84491 0
M  V30 11144 C 1071.59 -1.57688 -5.07255 0
M  V30 11145 C 1070.63 -2.72506 -5.48094 0
M  V30 11146 N 1069.77 -2.33741 -6.62049 0
M  V30 11147 H 1074.61 -2.06461 -2.1489 0
M  V30 11148 H 1072.14 -1.0276 -1.05256 0
M  V30 11149 H 1074.1 -0.575546 -4.13211 0
M  V30 11150 H 1072.73 0.118132 -3.22584 0
M  V30 11151 H 1071.78 -2.29423 -3.03429 0
M  V30 11152 H 1073.1 -2.8304 -4.10719 0
M  V30 11153 H 1072.25 -1.32634 -5.92025 0
M  V30 11154 H 1070.99 -0.687291 -4.82833 0
M  V30 11155 H 1069.99 -2.9826 -4.61867 0
M  V30 11156 H 1071.22 -3.62106 -5.74505 0
M  V30 11157 H 1069.16 -1.4725 -6.3926 0
M  V30 11158 H 1069.08 -3.13364 -6.87997 0
M  V30 11159 H 1070.35 -2.11968 -7.50127 0
M  V30 11160 N 1074.58 1.12322 -1.10551 0
M  V30 11161 C 1075.99 1.35858 -0.837543 0
M  V30 11162 C 1076.19 1.94062 0.54241 0
M  V30 11163 O 1075.25 2.1676 1.29505 0
M  V30 11164 C 1076.56 2.299 -1.9382 0
M  V30 11165 C 1078.11 2.43488 -1.96679 0
M  V30 11166 C 1078.59 3.40846 -3.05922 0
M  V30 11167 N 1080.08 3.48404 -3.05236 0
M  V30 11168 C 1080.81 4.2365 -3.86405 0
M  V30 11169 N 1080.31 5.01951 -4.77512 0
M  V30 11170 N 1082.1 4.19068 -3.74618 0
M  V30 11171 H 1074.25 0.729002 -1.99498 0
M  V30 11172 H 1076.52 0.38339 -0.867016 0
M  V30 11173 H 1076.22 1.94309 -2.9315 0
M  V30 11174 H 1076.1 3.30033 -1.82641 0
M  V30 11175 H 1078.48 2.78359 -0.979813 0
M  V30 11176 H 1078.56 1.43239 -2.11934 0
M  V30 11177 H 1078.21 3.06704 -4.04839 0
M  V30 11178 H 1078.14 4.40927 -2.87907 0
M  V30 11179 H 1080.63 2.92545 -2.39219 0
M  V30 11180 H 1080.94 5.56707 -5.36002 0
M  V30 11181 H 1079.29 5.01143 -4.8154 0
M  V30 11182 H 1082.48 3.5698 -3.02792 0
M  V30 11183 H 1082.65 4.77455 -4.38111 0
M  V30 11184 N 1076.06 0.894434 1.2976 0
M  V30 11185 C 1077.28 0.5322 2.00455 0
M  V30 11186 C 1077.71 -0.874427 1.66539 0
M  V30 11187 O 1077.06 -1.58113 0.887129 0
M  V30 11188 C 1077.11 0.725264 3.53231 0
M  V30 11189 O 1076.22 -0.224612 4.11788 0
M  V30 11190 H 1075.56 0.208562 0.630395 0
M  V30 11191 H 1078.09 1.20458 1.65382 0
M  V30 11192 H 1078.1 0.627889 4.0314 0
M  V30 11193 H 1076.77 1.75079 3.77253 0
M  V30 11194 H 1075.35 -0.0801361 3.72814 0
M  V30 11195 N 1077.53 -1.43282 0.656365 0
M  V30 11196 C 1078.78 -2.02603 0.179905 0
M  V30 11197 C 1079.14 -1.50875 -1.19393 0
M  V30 11198 O 1078.43 -0.6935 -1.78609 0
M  V30 11199 C 1078.62 -3.57148 0.134225 0
M  V30 11200 C 1078.45 -4.23872 1.50209 0
M  V30 11201 C 1077.22 -4.59812 2.09526 0
M  V30 11202 C 1079.42 -4.52674 2.44112 0
M  V30 11203 N 1077.4 -5.11624 3.39284 0
M  V30 11204 C 1078.77 -5.05839 3.58506 0
M  V30 11205 C 1080.83 -4.34645 2.42874 0
M  V30 11206 C 1079.53 -5.42872 4.71892 0
M  V30 11207 C 1081.56 -4.72742 3.55343 0
M  V30 11208 C 1080.92 -5.26043 4.68463 0
M  V30 11209 H 1077.02 -0.774177 0.110334 0
M  V30 11210 H 1079.6 -1.74413 0.865352 0
M  V30 11211 H 1077.77 -3.84896 -0.520575 0
M  V30 11212 H 1079.5 -4.03154 -0.3534 0
M  V30 11213 H 1076.26 -4.44958 1.62203 0
M  V30 11214 H 1076.68 -5.4198 4.05693 0
M  V30 11215 H 1081.33 -3.92708 1.56654 0
M  V30 11216 H 1079.04 -5.83752 5.58802 0
M  V30 11217 H 1082.63 -4.60485 3.55591 0
M  V30 11218 H 1081.51 -5.54975 5.54051 0
M  V30 11219 N 1079.01 -0.398486 -1.52479 0
M  V30 11220 C 1079.96 0.432212 -2.26717 0
M  V30 11221 C 1080.93 1.05007 -1.28696 0
M  V30 11222 O 1082.12 1.07636 -1.57541 0
M  V30 11223 C 1079.26 1.54868 -3.08399 0
M  V30 11224 C 1078.37 0.952779 -4.21362 0
M  V30 11225 C 1077.5 2.04106 -4.90423 0
M  V30 11226 C 1076.54 1.42153 -5.95364 0
M  V30 11227 N 1075.68 2.44951 -6.57984 0
M  V30 11228 H 1080.52 -0.207303 -2.97278 0
M  V30 11229 H 1078.06 -0.114066 -1.46657 0
M  V30 11230 H 1080.01 2.20684 -3.54054 0
M  V30 11231 H 1078.64 2.15837 -2.4003 0
M  V30 11232 H 1077.7 0.183962 -3.79955 0
M  V30 11233 H 1079.01 0.460131 -4.96673 0
M  V30 11234 H 1078.16 2.77672 -5.39429 0
M  V30 11235 H 1076.9 2.56733 -4.14656 0
M  V30 11236 H 1075.91 0.671161 -5.45688 0
M  V30 11237 H 1077.13 0.903093 -6.73068 0
M  V30 11238 H 1075.08 2.9673 -5.85053 0
M  V30 11239 H 1074.99 2.00468 -7.28937 0
M  V30 11240 H 1076.26 3.18119 -7.11632 0
M  V30 11241 N 1080.49 1.57075 -0.12858 0
M  V30 11242 C 1081.91 1.57964 0.227961 0
M  V30 11243 C 1082.11 1.14186 1.66023 0
M  V30 11244 O 1081.16 0.833655 2.38341 0
M  V30 11245 C 1082.48 3.00697 -0.0140648 0
M  V30 11246 C 1084.02 3.12958 0.0510876 0
M  V30 11247 C 1084.5 4.57709 -0.163368 0
M  V30 11248 N 1085.99 4.6307 -0.109663 0
M  V30 11249 C 1086.73 5.72853 -0.250366 0
M  V30 11250 N 1086.22 6.91351 -0.447772 0
M  V30 11251 N 1088.01 5.61781 -0.189265 0
M  V30 11252 H 1080.17 1.83829 -1.06398 0
M  V30 11253 H 1082.43 0.850014 -0.419739 0
M  V30 11254 H 1082.13 3.37047 -1.00461 0
M  V30 11255 H 1082.01 3.70389 0.713571 0
M  V30 11256 H 1084.4 2.7646 1.03216 0
M  V30 11257 H 1084.48 2.4579 -0.708583 0
M  V30 11258 H 1084.12 4.94907 -1.14146 0
M  V30 11259 H 1084.05 5.2298 0.616405 0
M  V30 11260 H 1086.54 3.7788 0.0390086 0
M  V30 11261 H 1086.85 7.70871 -0.54574 0
M  V30 11262 H 1085.2 6.93314 -0.483866 0
M  V30 11263 H 1088.39 4.68086 -0.0359374 0
M  V30 11264 H 1088.56 6.47294 -0.302359 0
M  V30 11265 N 1081.97 -0.145205 1.5693 0
M  V30 11266 C 1082.9 -1.20438 1.95006 0
M  V30 11267 C 1083.91 -1.39085 0.846114 0
M  V30 11268 O 1085.1 -1.38625 1.12452 0
M  V30 11269 C 1082.2 -2.56892 2.21043 0
M  V30 11270 C 1081.38 -2.59197 3.52329 0
M  V30 11271 C 1080.44 -3.77204 3.66884 0
M  V30 11272 O 1079.46 -3.61995 4.39259 0
M  V30 11273 N 1080.66 -4.9473 3.03682 0
M  V30 11274 H 1083.43 -0.880709 2.86467 0
M  V30 11275 H 1080.99 -0.334751 1.58401 0
M  V30 11276 H 1082.98 -3.34349 2.2802 0
M  V30 11277 H 1081.55 -2.81544 1.35838 0
M  V30 11278 H 1080.77 -1.67644 3.56776 0
M  V30 11279 H 1082.06 -2.57771 4.3867 0
M  V30 11280 H 1081.46 -5.09989 2.44801 0
M  V30 11281 H 1080.01 -5.69956 3.16218 0
M  V30 11282 N 1083.45 -1.52049 -0.414609 0
M  V30 11283 C 1084.86 -1.40729 -0.752822 0
M  V30 11284 C 1085.06 -0.507468 -1.95005 0
M  V30 11285 O 1084.12 0.0288189 -2.52484 0
M  V30 11286 C 1085.43 -2.83163 -1.01189 0
M  V30 11287 C 1086.98 -2.92469 -1.11494 0
M  V30 11288 C 1087.46 -4.35859 -1.4068 0
M  V30 11289 N 1088.95 -4.39069 -1.47557 0
M  V30 11290 C 1089.68 -5.47072 -1.71756 0
M  V30 11291 N 1089.18 -6.65201 -1.93595 0
M  V30 11292 N 1090.97 -5.3458 -1.73726 0
M  V30 11293 H 1083.12 -2.09089 0.373549 0
M  V30 11294 H 1085.38 -0.942188 0.104814 0
M  V30 11295 H 1085.09 -3.51104 -0.204609 0
M  V30 11296 H 1084.96 -3.23874 -1.93353 0
M  V30 11297 H 1087.35 -2.24711 -1.91282 0
M  V30 11298 H 1087.43 -2.55222 -0.171794 0
M  V30 11299 H 1087.08 -5.04174 -0.614119 0
M  V30 11300 H 1087.01 -4.70637 -2.36238 0
M  V30 11301 H 1089.5 -3.53913 -1.32491 0
M  V30 11302 H 1089.81 -7.43297 -2.11495 0
M  V30 11303 H 1088.16 -6.68276 -1.90871 0
M  V30 11304 H 1091.35 -4.41271 -1.56198 0
M  V30 11305 H 1091.52 -6.18826 -1.92246 0
M  V30 11306 N 1084.93 0.6715 -1.42579 0
M  V30 11307 C 1086.16 1.4576 -1.46416 0
M  V30 11308 C 1086.56 1.89051 -0.0749843 0
M  V30 11309 O 1085.91 1.58927 0.921296 0
M  V30 11310 C 1085.97 2.7365 -2.33144 0
M  V30 11311 C 1085.63 2.52414 -3.80968 0
M  V30 11312 C 1086.63 2.16804 -4.72538 0
M  V30 11313 C 1084.31 2.67306 -4.25268 0
M  V30 11314 C 1086.31 1.96358 -6.06401 0
M  V30 11315 C 1084 2.46475 -5.5919 0
M  V30 11316 C 1084.99 2.11055 -6.49573 0
M  V30 11317 O 1084.68 1.90428 -7.8102 0
M  V30 11318 H 1084.41 0.454896 -0.500045 0
M  V30 11319 H 1086.97 0.832198 -1.87786 0
M  V30 11320 H 1085.2 3.38684 -1.86629 0
M  V30 11321 H 1086.89 3.35543 -2.28398 0
M  V30 11322 H 1087.65 2.04891 -4.39596 0
M  V30 11323 H 1083.53 2.93854 -3.55206 0
M  V30 11324 H 1087.08 1.68634 -6.76911 0
M  V30 11325 H 1082.97 2.57985 -5.91704 0
M  V30 11326 H 1083.74 2.05 -7.92412 0
M  V30 11327 N 1086.4 1.28806 0.908124 0
M  V30 11328 C 1087.82 1.06634 1.18749 0
M  V30 11329 C 1088.02 -0.187729 2.00624 0
M  V30 11330 O 1087.08 -0.88784 2.36376 0
M  V30 11331 C 1088.39 2.31703 1.91661 0
M  V30 11332 C 1089.94 2.36939 2.04521 0
M  V30 11333 C 1090.41 3.61789 2.80843 0
M  V30 11334 N 1091.9 3.62462 2.88402 0
M  V30 11335 C 1092.64 4.55746 3.47971 0
M  V30 11336 N 1092.13 5.59353 4.08774 0
M  V30 11337 N 1093.93 4.43331 3.45564 0
M  V30 11338 H 1086.08 2.09299 0.36164 0
M  V30 11339 H 1088.34 0.921479 0.222668 0
M  V30 11340 H 1088.05 3.23096 1.38931 0
M  V30 11341 H 1087.92 2.38556 2.92183 0
M  V30 11342 H 1090.31 1.4604 2.5643 0
M  V30 11343 H 1090.39 2.34077 1.03159 0
M  V30 11344 H 1090.03 4.53035 2.29612 0
M  V30 11345 H 1089.96 3.61907 3.82532 0
M  V30 11346 H 1092.45 2.87544 2.45208 0
M  V30 11347 H 1092.77 6.26668 4.52224 0
M  V30 11348 H 1091.11 5.63173 4.07261 0
M  V30 11349 H 1094.3 3.61587 2.97276 0
M  V30 11350 H 1094.48 5.16216 3.91695 0
M  V30 11351 N 1087.88 -1.11734 1.11145 0
M  V30 11352 C 1088.81 -2.1976 0.789152 0
M  V30 11353 C 1089.79 -1.68382 -0.241143 0
M  V30 11354 O 1090.98 -1.93914 -0.105292 0
M  V30 11355 C 1088.11 -3.46549 0.228204 0
M  V30 11356 C 1087.06 -4.11123 1.19002 0
M  V30 11357 C 1086.39 -5.32451 0.489928 0
M  V30 11358 C 1087.69 -4.56406 2.53951 0
M  V30 11359 H 1089.38 -2.46978 1.69241 0
M  V30 11360 H 1086.93 -1.18705 0.81517 0
M  V30 11361 H 1088.88 -4.21399 -0.00945908 0
M  V30 11362 H 1087.6 -3.18782 -0.71033 0
M  V30 11363 H 1086.26 -3.38264 1.41326 0
M  V30 11364 H 1085.91 -5.00953 -0.453315 0
M  V30 11365 H 1085.61 -5.76605 1.1314 0
M  V30 11366 H 1087.14 -6.10042 0.260984 0
M  V30 11367 H 1088.55 -5.22592 2.35733 0
M  V30 11368 H 1086.95 -5.11363 3.14051 0
M  V30 11369 H 1088.02 -3.7001 3.13402 0
M  V30 11370 N 1089.36 -0.901303 -1.29284 0
M  V30 11371 C 1090.58 -0.542823 -2.0017 0
M  V30 11372 C 1091.01 0.865583 -1.67001 0
M  V30 11373 O 1090.37 1.5764 -0.895502 0
M  V30 11374 C 1090.42 -0.743987 -3.52842 0
M  V30 11375 O 1089.52 0.202771 -4.11901 0
M  V30 11376 H 1088.86 -0.211903 -0.62928 0
M  V30 11377 H 1091.39 -1.21333 -1.64741 0
M  V30 11378 H 1091.4 -0.64926 -4.02801 0
M  V30 11379 H 1090.08 -1.77077 -3.7632 0
M  V30 11380 H 1088.65 0.0603637 -3.72851 0
M  V30 11381 N 1090.84 1.42931 -0.663954 0
M  V30 11382 C 1091.8 2.29197 0.0117626 0
M  V30 11383 C 1092.8 1.42767 0.739875 0
M  V30 11384 O 1093.99 1.64278 0.579509 0
M  V30 11385 C 1091.12 3.2505 1.02738 0
M  V30 11386 H 1092.32 2.90438 -0.747391 0
M  V30 11387 H 1089.87 1.5039 -0.425733 0
M  V30 11388 H 1090.6 2.68726 1.8154 0
M  V30 11389 H 1090.39 3.88785 0.508809 0
M  V30 11390 H 1091.88 3.89771 1.49893 0
M  V30 11391 N 1092.32 0.406567 1.52266 0
M  V30 11392 C 1093.25 -0.45552 2.24628 0
M  V30 11393 C 1094.26 -1.01234 1.27497 0
M  V30 11394 O 1095.45 -0.911718 1.5346 0
M  V30 11395 C 1092.55 -1.64578 2.96256 0
M  V30 11396 C 1091.72 -1.2133 4.20235 0
M  V30 11397 C 1090.78 -2.27018 4.7471 0
M  V30 11398 O 1089.81 -1.87714 5.37357 0
M  V30 11399 N 1091.01 -3.5915 4.56061 0
M  V30 11400 H 1093.77 0.164525 2.99248 0
M  V30 11401 H 1091.34 0.233812 1.60203 0
M  V30 11402 H 1093.33 -2.3484 3.29594 0
M  V30 11403 H 1091.9 -2.1718 2.24837 0
M  V30 11404 H 1091.12 -0.338892 3.92741 0
M  V30 11405 H 1092.41 -0.901268 5.00754 0
M  V30 11406 H 1091.8 -3.93834 4.06092 0
M  V30 11407 H 1090.36 -4.25397 4.93843 0
M  V30 11408 N 1093.79 -1.57004 0.136909 0
M  V30 11409 C 1094.76 -2.15066 -0.792419 0
M  V30 11410 C 1095.76 -1.08991 -1.18226 0
M  V30 11411 O 1096.95 -1.34681 -1.10484 0
M  V30 11412 C 1094.08 -2.70554 -2.07397 0
M  V30 11413 H 1095.27 -2.98519 -0.28752 0
M  V30 11414 H 1092.83 -1.55895 -0.112469 0
M  V30 11415 H 1093.56 -1.90739 -2.62277 0
M  V30 11416 H 1093.35 -3.48149 -1.80374 0
M  V30 11417 H 1094.84 -3.15322 -2.73792 0
M  V30 11418 N 1095.27 0.136881 -1.57004 0
M  V30 11419 C 1096.18 1.18793 -2.023 0
M  V30 11420 C 1097.2 1.46412 -0.94018 0
M  V30 11421 O 1098.37 1.57883 -1.2504 0
M  V30 11422 C 1095.44 2.49903 -2.40311 0
M  V30 11423 C 1094.5 2.29841 -3.6259 0
M  V30 11424 C 1093.73 3.54699 -3.98779 0
M  V30 11425 O 1093.96 4.61291 -3.3551 0
M  V30 11426 O 1092.89 3.46761 -4.91976 0
M  V30 11427 H 1096.72 0.833345 -2.92043 0
M  V30 11428 H 1094.3 0.346361 -1.4533 0
M  V30 11429 H 1096.18 3.27183 -2.65574 0
M  V30 11430 H 1094.86 2.84872 -1.5372 0
M  V30 11431 H 1093.77 1.50478 -3.42501 0
M  V30 11432 H 1095.1 1.99784 -4.4983 0
M  V30 11433 N 1096.75 1.52266 0.40654 0
M  V30 11434 C 1098 1.66123 1.15097 0
M  V30 11435 C 1098.32 0.394836 1.90961 0
M  V30 11436 O 1097.59 -0.590349 1.86793 0
M  V30 11437 H 1096.17 0.612317 0.427875 0
M  V30 11438 H 1098.83 1.89318 0.463106 0
M  V30 11439 H 1097.93 2.50351 1.86361 0
M  V30 11440 N 1098.23 -0.663929 1.42933 0
M  V30 11441 C 1099.16 -1.78899 1.50058 0
M  V30 11442 C 1100.14 -1.66329 0.356164 0
M  V30 11443 O 1101.32 -1.85587 0.571944 0
M  V30 11444 C 1098.45 -3.17265 1.41281 0
M  V30 11445 C 1097.41 -3.44584 2.53861 0
M  V30 11446 C 1096.73 -4.82638 2.3014 0
M  V30 11447 C 1098.03 -3.40394 3.96143 0
M  V30 11448 H 1099.73 -1.73194 2.44222 0
M  V30 11449 H 1097.27 -0.83182 1.17545 0
M  V30 11450 H 1099.23 -3.95715 1.44872 0
M  V30 11451 H 1097.95 -3.23675 0.43616 0
M  V30 11452 H 1096.61 -2.685 2.49606 0
M  V30 11453 H 1096.26 -4.85711 1.30743 0
M  V30 11454 H 1095.96 -5.01879 3.056 0
M  V30 11455 H 1097.48 -5.63359 2.35497 0
M  V30 11456 H 1098.9 -4.08796 4.01943 0
M  V30 11457 H 1097.29 -3.7117 4.71543 0
M  V30 11458 H 1098.36 -2.38767 4.22041 0
M  V30 11459 N 1099.71 -1.29285 -0.901281 0
M  V30 11460 C 1100.64 -1.10086 -2.01032 0
M  V30 11461 C 1101.65 -0.0488364 -1.62727 0
M  V30 11462 O 1102.84 -0.293194 -1.76076 0
M  V30 11463 C 1099.94 -0.653357 -3.32542 0
M  V30 11464 C 1099.11 -1.78355 -3.99385 0
M  V30 11465 C 1098.17 -1.32733 -5.09184 0
M  V30 11466 O 1097.2 -2.03177 -5.31703 0
M  V30 11467 N 1098.4 -0.197345 -5.80164 0
M  V30 11468 H 1101.17 -2.056 -2.18057 0
M  V30 11469 H 1098.73 -1.21204 -1.07337 0
M  V30 11470 H 1100.72 -0.331491 -4.0334 0
M  V30 11471 H 1099.29 0.209278 -3.11899 0
M  V30 11472 H 1098.51 -2.27438 -3.21972 0
M  V30 11473 H 1099.8 -2.54137 -4.40785 0
M  V30 11474 H 1099.19 0.390011 -5.64354 0
M  V30 11475 H 1097.75 0.0651642 -6.51767 0
M  V30 11476 N 1101.18 1.11143 -1.11736 0
M  V30 11477 C 1102.11 2.19339 -0.800795 0
M  V30 11478 C 1103.1 1.68508 0.23221 0
M  V30 11479 O 1104.28 1.93967 0.0950063 0
M  V30 11480 C 1101.41 3.46424 -0.246579 0
M  V30 11481 C 1100.36 4.10487 -1.21181 0
M  V30 11482 C 1099.69 5.32183 -0.518158 0
M  V30 11483 C 1100.99 4.55052 -2.56368 0
M  V30 11484 H 1102.68 2.46077 -1.70548 0
M  V30 11485 H 1100.23 1.18271 -0.821454 0
M  V30 11486 H 1102.18 4.21398 -0.0128889 0
M  V30 11487 H 1100.91 3.19154 0.693415 0
M  V30 11488 H 1099.57 3.3751 -1.43118 0
M  V30 11489 H 1099.21 5.01187 0.426742 0
M  V30 11490 H 1098.91 5.75997 -1.16196 0
M  V30 11491 H 1100.44 6.09895 -0.293333 0
M  V30 11492 H 1101.85 5.21335 -2.38501 0
M  V30 11493 H 1100.25 5.0969 -3.16758 0
M  V30 11494 H 1101.32 3.68343 -3.1536 0
M  V30 11495 N 1102.66 0.908147 1.28804 0
M  V30 11496 C 1103.59 0.409106 2.29888 0
M  V30 11497 C 1104.57 -0.520338 1.61946 0
M  V30 11498 O 1105.76 -0.429268 1.89396 0
M  V30 11499 C 1102.89 -0.35669 3.45463 0
M  V30 11500 C 1101.84 0.4831 4.25265 0
M  V30 11501 C 1101.17 -0.4107 5.3312 0
M  V30 11502 C 1102.47 1.73744 4.92555 0
M  V30 11503 H 1104.16 1.25386 2.7188 0
M  V30 11504 H 1101.71 0.604368 1.30703 0
M  V30 11505 H 1103.66 -0.71661 4.15262 0
M  V30 11506 H 1102.39 -1.2353 3.02337 0
M  V30 11507 H 1101.04 0.825464 3.57186 0
M  V30 11508 H 1100.69 -1.28769 4.86238 0
M  V30 11509 H 1100.39 0.14756 5.87415 0
M  V30 11510 H 1101.92 -0.766626 6.05768 0
M  V30 11511 H 1103.33 1.44676 5.54745 0
M  V30 11512 H 1101.73 2.23767 5.5682 0
M  V30 11513 H 1102.8 2.46853 4.17363 0
M  V30 11514 N 1104.14 -1.42577 0.671525 0
M  V30 11515 C 1105.55 -1.84736 0.270084 0
M  V30 11516 C 1105.9 -1.56212 -1.18711 0
M  V30 11517 O 1105.03 -1.02028 -1.90838 0
M  V30 11518 C 1105.62 -3.35334 0.483409 0
M  V30 11519 C 1104.18 -3.76154 0.136119 0
M  V30 11520 C 1103.33 -2.66179 0.777444 0
M  V30 11521 H 1106.28 -1.3247 0.873919 0
M  V30 11522 H 1106.3 -3.79573 -0.265483 0
M  V30 11523 H 1105.81 -3.56063 1.54405 0
M  V30 11524 H 1103.91 -3.61033 -0.921209 0
M  V30 11525 H 1104.03 -4.75645 0.574356 0
M  V30 11526 H 1102.39 -2.53841 0.209055 0
M  V30 11527 H 1103.17 -2.89732 1.84148 0
M  V30 11528 N 1105.62 -0.414636 -1.52048 0
M  V30 11529 C 1106.87 0.159034 -2.01473 0
M  V30 11530 C 1107.19 1.45176 -1.30188 0
M  V30 11531 O 1106.46 1.91134 -0.429469 0
M  V30 11532 H 1105.04 0.0617604 -0.744443 0
M  V30 11533 H 1107.7 -0.552141 -1.86916 0
M  V30 11534 H 1106.8 0.351217 -3.10118 0
M  V30 11535 N 1107.1 1.56929 -0.145233 0
M  V30 11536 C 1108.03 2.19685 0.791263 0
M  V30 11537 C 1109.01 1.14455 1.25833 0
M  V30 11538 O 1110.19 1.42791 1.31622 0
M  V30 11539 C 1107.32 2.81705 2.03124 0
M  V30 11540 C 1106.28 3.92746 1.70101 0
M  V30 11541 C 1105.6 4.41694 3.01347 0
M  V30 11542 C 1106.9 5.13606 0.949025 0
M  V30 11543 H 1108.6 2.98196 0.26825 0
M  V30 11544 H 1106.14 1.43434 0.127584 0
M  V30 11545 H 1108.1 3.24273 2.69119 0
M  V30 11546 H 1106.82 2.00523 2.57795 0
M  V30 11547 H 1105.48 3.50794 1.06486 0
M  V30 11548 H 1105.13 3.57336 3.54006 0
M  V30 11549 H 1104.83 5.1659 2.80016 0
M  V30 11550 H 1106.35 4.86931 3.68416 0
M  V30 11551 H 1107.76 5.53029 1.51102 0
M  V30 11552 H 1106.16 5.94252 0.835711 0
M  V30 11553 H 1107.23 4.84863 -0.0595631 0
M  V30 11554 N 1108.58 -0.128553 1.57075 0
M  V30 11555 C 1109.82 -0.836536 1.83535 0
M  V30 11556 C 1110.14 -1.81491 0.7294 0
M  V30 11557 O 1111.34 -2.56838 0.880128 0
M  V30 11558 C 1109.8 -1.53836 3.25365 0
M  V30 11559 C 1109.41 -0.601454 4.43944 0
M  V30 11560 C 1111.15 -2.23204 3.61082 0
M  V30 11561 C 1109.06 -1.30596 5.768 0
M  V30 11562 H 1107.99 -0.316142 0.684522 0
M  V30 11563 H 1110.64 -0.0892555 1.83283 0
M  V30 11564 H 1109.02 -2.33192 3.20058 0
M  V30 11565 H 1110.2 0.158209 4.60528 0
M  V30 11566 H 1108.51 -0.0152393 4.16397 0
M  V30 11567 H 1111.11 -2.76585 4.57608 0
M  V30 11568 H 1111.45 -3.0056 2.88044 0
M  V30 11569 H 1111.98 -1.50746 3.68131 0
M  V30 11570 H 1108.72 -0.573874 6.52983 0
M  V30 11571 H 1108.24 -2.03787 5.6412 0
M  V30 11572 H 1109.92 -1.8418 6.20231 0
M  V30 11573 N 1110.05 -1.5248 -0.398459 0
M  V30 11574 C 1111 -1.72965 -1.4855 0
M  V30 11575 C 1111.99 -0.583628 -1.49942 0
M  V30 11576 O 1113.18 -0.841106 -1.55738 0
M  V30 11577 C 1110.31 -1.89339 -2.86366 0
M  V30 11578 C 1109.39 -3.09845 -2.8958 0
M  V30 11579 N 1109.79 -4.32365 -2.62477 0
M  V30 11580 C 1108.08 -3.09897 -3.20749 0
M  V30 11581 C 1108.78 -5.13908 -2.72532 0
M  V30 11582 N 1107.76 -4.49387 -3.05864 0
M  V30 11583 H 1111.56 -2.65327 -1.26406 0
M  V30 11584 H 1109.08 -1.50658 -0.606299 0
M  V30 11585 H 1111.07 -2.02134 -3.64619 0
M  V30 11586 H 1109.73 -0.981841 -3.095 0
M  V30 11587 H 1110.74 -4.60659 -2.36673 0
M  V30 11588 H 1107.42 -2.28518 -3.49408 0
M  V30 11589 H 1108.81 -6.21548 -2.55202 0
M  V30 11590 N 1111.53 0.65634 -1.43283 0
M  V30 11591 C 1112.78 1.41837 -1.44949 0
M  V30 11592 C 1113.11 1.94065 -0.0723212 0
M  V30 11593 O 1112.39 1.72092 0.906346 0
M  V30 11594 C 1112.67 2.60206 -2.48927 0
M  V30 11595 C 1112.52 2.1349 -3.95907 0
M  V30 11596 C 1113.84 3.62421 -2.49678 0
M  V30 11597 H 1110.96 0.514398 -0.527792 0
M  V30 11598 H 1113.6 0.74435 -1.74813 0
M  V30 11599 H 1111.75 3.17708 -2.23592 0
M  V30 11600 H 1113.42 1.61012 -4.32288 0
M  V30 11601 H 1111.67 1.4489 -4.08888 0
M  V30 11602 H 1112.34 2.98596 -4.64268 0
M  V30 11603 H 1114.81 3.14671 -2.72252 0
M  V30 11604 H 1113.69 4.42798 -3.24378 0
M  V30 11605 H 1113.95 4.14802 -1.52944 0
M  V30 11606 N 1113.01 1.29761 0.894412 0
M  V30 11607 C 1113.96 1.11962 1.98617 0
M  V30 11608 C 1114.94 0.0374952 1.60856 0
M  V30 11609 O 1116.14 0.259789 1.75083 0
M  V30 11610 C 1113.26 0.803708 3.3376 0
M  V30 11611 C 1112.35 1.92563 3.77863 0
M  V30 11612 N 1112.74 3.16983 3.94152 0
M  V30 11613 C 1111.04 1.81986 4.07182 0
M  V30 11614 C 1111.74 3.90212 4.31404 0
M  V30 11615 N 1110.72 3.18194 4.40742 0
M  V30 11616 H 1114.52 2.06339 2.09287 0
M  V30 11617 H 1112.03 1.20963 1.08359 0
M  V30 11618 H 1114.03 0.657223 4.11687 0
M  V30 11619 H 1112.69 -0.132098 3.24431 0
M  V30 11620 H 1113.7 3.52378 3.79539 0
M  V30 11621 H 1110.38 0.957112 4.06381 0
M  V30 11622 H 1111.77 4.97312 4.51808 0
M  V30 11623 N 1114.49 -1.10549 1.12324 0
M  V30 11624 C 1115.9 -1.34508 0.85905 0
M  V30 11625 C 1116.1 -1.94901 -0.511468 0
M  V30 11626 O 1115.16 -2.18793 -1.2604 0
M  V30 11627 C 1116.47 -2.26788 1.97453 0
M  V30 11628 C 1118.02 -2.40328 2.00528 0
M  V30 11629 C 1118.5 -3.35936 3.11305 0
M  V30 11630 N 1119.99 -3.43504 3.1074 0
M  V30 11631 C 1120.72 -4.17449 3.93096 0
M  V30 11632 N 1120.22 -4.9429 4.85437 0
M  V30 11633 N 1122.01 -4.13055 3.81237 0
M  V30 11634 H 1114.16 -0.697171 2.00632 0
M  V30 11635 H 1116.42 -0.369548 0.873005 0
M  V30 11636 H 1116.13 -1.89621 2.96204 0
M  V30 11637 H 1116 -3.27086 1.87869 0
M  V30 11638 H 1118.39 -2.76765 1.02397 0
M  V30 11639 H 1118.47 -1.39849 2.14186 0
M  V30 11640 H 1118.12 -3.00225 4.09667 0
M  V30 11641 H 1118.05 -4.36291 2.94886 0
M  V30 11642 H 1120.54 -2.88702 2.43843 0
M  V30 11643 H 1120.85 -5.48109 5.4479 0
M  V30 11644 H 1119.2 -4.93419 4.89452 0
M  V30 11645 H 1122.39 -3.52117 3.08433 0
M  V30 11646 H 1122.56 -4.70424 4.45651 0
M  V30 11647 N 1115.97 -0.914965 -1.28321 0
M  V30 11648 C 1117.38 -0.613297 -1.47346 0
M  V30 11649 C 1117.58 0.84106 -1.83108 0
M  V30 11650 O 1116.64 1.62004 -1.93678 0
M  V30 11651 C 1117.95 -1.55224 -2.57538 0
M  V30 11652 C 1119.5 -1.55909 -2.71407 0
M  V30 11653 C 1119.97 -2.48468 -3.84744 0
M  V30 11654 N 1121.46 -2.46602 -3.92099 0
M  V30 11655 C 1122.2 -3.14917 -4.79182 0
M  V30 11656 N 1121.7 -3.92566 -5.70845 0
M  V30 11657 N 1123.49 -3.03998 -4.72802 0
M  V30 11658 H 1115.64 -1.85539 -1.03388 0
M  V30 11659 H 1117.9 -0.795875 -0.515061 0
M  V30 11660 H 1117.61 -2.58917 -2.38023 0
M  V30 11661 H 1117.48 -1.28426 -3.54664 0
M  V30 11662 H 1119.87 -0.52953 -2.9031 0
M  V30 11663 H 1119.95 -1.86751 -1.74808 0
M  V30 11664 H 1119.59 -3.51526 -3.66595 0
M  V30 11665 H 1119.52 -2.14928 -4.80743 0
M  V30 11666 H 1122.02 -1.90199 -3.26547 0
M  V30 11667 H 1122.33 -4.41709 -6.34123 0
M  V30 11668 H 1120.67 -3.96671 -5.70681 0
M  V30 11669 H 1123.86 -2.42839 -4.00184 0
M  V30 11670 H 1124.04 -3.57511 -5.40454 0
M  V30 11671 N 1117.44 1.42219 -0.679077 0
M  V30 11672 C 1118.39 2.308 -0.00340316 0
M  V30 11673 C 1119.36 1.462 0.788334 0
M  V30 11674 O 1120.55 1.75023 0.759716 0
M  V30 11675 C 1117.69 3.32084 0.938854 0
M  V30 11676 C 1116.8 4.31772 0.140485 0
M  V30 11677 C 1115.93 5.20128 1.07888 0
M  V30 11678 C 1114.97 6.11493 0.27245 0
M  V30 11679 N 1114.11 6.92388 1.16378 0
M  V30 11680 H 1118.95 2.88024 -0.764587 0
M  V30 11681 H 1116.49 1.41869 -0.38878 0
M  V30 11682 H 1118.44 3.89339 1.49903 0
M  V30 11683 H 1117.07 2.76448 1.66662 0
M  V30 11684 H 1116.13 3.76599 -0.536376 0
M  V30 11685 H 1117.44 4.96432 -0.485433 0
M  V30 11686 H 1116.59 5.82137 1.70884 0
M  V30 11687 H 1115.33 4.55655 1.73868 0
M  V30 11688 H 1114.34 5.48549 -0.370693 0
M  V30 11689 H 1115.56 6.78017 -0.383315 0
M  V30 11690 H 1113.51 6.30538 1.8099 0
M  V30 11691 H 1113.42 7.5367 0.593043 0
M  V30 11692 H 1114.69 7.58879 1.78107 0
M  V30 11693 N 1118.92 0.422693 1.51826 0
M  V30 11694 C 1119.85 -0.440987 2.23899 0
M  V30 11695 C 1120.83 -1.03685 1.25252 0
M  V30 11696 O 1122.02 -1.08212 1.54345 0
M  V30 11697 C 1119.14 -1.61331 2.97809 0
M  V30 11698 C 1118.19 -1.13954 4.10995 0
M  V30 11699 S 1119.02 -0.0935426 5.35418 0
M  V30 11700 C 1120.18 -1.27087 6.12862 0
M  V30 11701 H 1120.41 0.170945 2.96808 0
M  V30 11702 H 1117.94 0.20709 1.53005 0
M  V30 11703 H 1119.9 -2.28546 3.40994 0
M  V30 11704 H 1118.56 -2.19662 2.24516 0
M  V30 11705 H 1117.76 -2.01578 4.61933 0
M  V30 11706 H 1117.36 -0.545838 3.69995 0
M  V30 11707 H 1119.65 -2.19199 6.4106 0
M  V30 11708 H 1120.59 -0.801752 7.03546 0
M  V30 11709 H 1121 -1.50281 5.44129 0
M  V30 11710 N 1120.4 -1.5685 0.153553 0
M  V30 11711 C 1121.65 -1.96334 -0.495915 0
M  V30 11712 C 1121.97 -1.03873 -1.64441 0
M  V30 11713 O 1121.23 -0.069231 -1.95578 0
M  V30 11714 C 1121.53 -3.42022 -1.0371 0
M  V30 11715 C 1121.19 -4.509 -0.00637049 0
M  V30 11716 C 1119.86 -4.80402 0.276956 0
M  V30 11717 C 1122.21 -5.16556 0.694187 0
M  V30 11718 C 1119.54 -5.72866 1.26653 0
M  V30 11719 C 1121.89 -6.10087 1.67263 0
M  V30 11720 C 1120.55 -6.37965 1.96359 0
M  V30 11721 H 1119.82 -0.718436 -0.181468 0
M  V30 11722 H 1122.47 -1.89968 0.241768 0
M  V30 11723 H 1120.77 -3.45252 -1.85225 0
M  V30 11724 H 1122.47 -3.69903 -1.54831 0
M  V30 11725 H 1119.06 -4.27942 -0.237378 0
M  V30 11726 H 1123.25 -4.9389 0.488496 0
M  V30 11727 H 1118.5 -5.92756 1.49833 0
M  V30 11728 H 1122.68 -6.60036 2.22094 0
M  V30 11729 H 1120.3 -7.09416 2.73189 0
M  V30 11730 N 1121.88 0.120221 -1.57141 0
M  V30 11731 C 1122.81 1.1732 -1.96898 0
M  V30 11732 C 1123.82 1.37722 -0.868134 0
M  V30 11733 O 1125.01 1.36818 -1.14643 0
M  V30 11734 C 1122.11 2.53343 -2.25102 0
M  V30 11735 C 1121.28 2.53559 -3.56408 0
M  V30 11736 C 1120.34 3.71319 -3.72838 0
M  V30 11737 O 1119.37 3.54961 -4.44962 0
M  V30 11738 N 1120.57 4.89836 -3.11514 0
M  V30 11739 H 1123.34 0.835023 -2.87832 0
M  V30 11740 H 1120.9 0.309508 -1.58914 0
M  V30 11741 H 1122.89 3.30679 -2.3331 0
M  V30 11742 H 1121.46 2.79347 -1.403 0
M  V30 11743 H 1120.68 1.61946 -3.59398 0
M  V30 11744 H 1121.97 2.5076 -4.42716 0
M  V30 11745 H 1121.37 5.0603 -2.52884 0
M  V30 11746 H 1119.92 5.64853 -3.25246 0
M  V30 11747 N 1123.36 1.52689 0.390367 0
M  V30 11748 C 1124.32 1.76726 1.45947 0
M  V30 11749 C 1125.32 0.637269 1.47633 0
M  V30 11750 O 1126.51 0.905312 1.48828 0
M  V30 11751 C 1123.64 1.86678 2.85244 0
M  V30 11752 H 1124.83 2.72185 1.25918 0
M  V30 11753 H 1122.39 1.4339 0.622023 0
M  V30 11754 H 1123.12 0.931991 3.10619 0
M  V30 11755 H 1122.91 2.68843 2.85422 0
M  V30 11756 H 1124.4 2.06952 3.62713 0
M  V30 11757 N 1124.83 -0.648732 1.43629 0
M  V30 11758 C 1126.06 -1.4362 1.48932 0
M  V30 11759 C 1126.48 -1.88487 0.108599 0
M  V30 11760 O 1125.83 -1.59768 -0.882066 0
M  V30 11761 C 1125.89 -2.66822 2.43903 0
M  V30 11762 O 1125.61 -2.2383 3.76606 0
M  V30 11763 C 1127.11 -3.60134 2.58493 0
M  V30 11764 H 1124.33 -0.441055 0.505679 0
M  V30 11765 H 1126.87 -0.794936 1.88417 0
M  V30 11766 H 1125.03 -3.27079 2.07601 0
M  V30 11767 H 1125.44 -3.03575 4.27718 0
M  V30 11768 H 1126.91 -4.43234 3.29011 0
M  V30 11769 H 1127.39 -4.07779 1.63134 0
M  V30 11770 H 1128 -3.05756 2.95624 0
M  V30 11771 N 1126.31 -1.30234 -0.887518 0
M  V30 11772 C 1127.56 -1.18277 -1.63381 0
M  V30 11773 C 1127.87 0.262079 -1.93836 0
M  V30 11774 O 1129.08 0.503127 -2.66797 0
M  V30 11775 C 1127.54 -2.06944 -2.94452 0
M  V30 11776 C 1127.14 -3.56323 -2.71547 0
M  V30 11777 C 1128.89 -2.03743 -3.7241 0
M  V30 11778 C 1126.8 -4.37054 -3.98419 0
M  V30 11779 H 1125.73 -0.439087 -0.612959 0
M  V30 11780 H 1128.38 -1.54964 -0.982779 0
M  V30 11781 H 1126.76 -1.63138 -3.60835 0
M  V30 11782 H 1127.93 -4.08261 -2.13681 0
M  V30 11783 H 1126.25 -3.61321 -2.06969 0
M  V30 11784 H 1128.84 -2.61312 -4.66497 0
M  V30 11785 H 1129.19 -1.02029 -4.03603 0
M  V30 11786 H 1129.72 -2.45657 -3.12886 0
M  V30 11787 H 1126.46 -5.39453 -3.72385 0
M  V30 11788 H 1125.98 -3.89881 -4.55799 0
M  V30 11789 H 1127.66 -4.48356 -4.66462 0
M  V30 11790 N 1127.79 1.09952 -1.12909 0
M  V30 11791 C 1129.21 1.34051 -0.866172 0
M  V30 11792 C 1129.41 1.95169 0.501125 0
M  V30 11793 O 1128.46 2.19458 1.24878 0
M  V30 11794 C 1129.78 2.25738 -1.98653 0
M  V30 11795 C 1131.32 2.39261 -2.01799 0
M  V30 11796 C 1131.8 3.3428 -3.13083 0
M  V30 11797 N 1133.29 3.41851 -3.12558 0
M  V30 11798 C 1134.02 4.15358 -3.95304 0
M  V30 11799 N 1133.52 4.91709 -4.88051 0
M  V30 11800 N 1135.31 4.11027 -3.83423 0
M  V30 11801 H 1127.46 0.686521 -2.00999 0
M  V30 11802 H 1129.73 0.364913 -0.874953 0
M  V30 11803 H 1129.43 1.88048 -2.97205 0
M  V30 11804 H 1129.31 3.26085 -1.89601 0
M  V30 11805 H 1131.69 2.76218 -1.03864 0
M  V30 11806 H 1131.78 1.38712 -2.14925 0
M  V30 11807 H 1131.42 2.98048 -4.11254 0
M  V30 11808 H 1131.35 4.34721 -2.97195 0
M  V30 11809 H 1133.84 2.87405 -2.45371 0
M  V30 11810 H 1134.15 5.45212 -5.47689 0
M  V30 11811 H 1132.5 4.90816 -4.92061 0
M  V30 11812 H 1135.69 3.50477 -3.10296 0
M  V30 11813 H 1135.86 4.68054 -4.4814 0
M  V30 11814 N 1129.27 0.921757 1.27833 0
M  V30 11815 C 1130.49 0.574599 1.99281 0
M  V30 11816 C 1130.92 -0.838905 1.68357 0
M  V30 11817 O 1130.28 -1.56196 0.920468 0
M  V30 11818 C 1130.32 0.800027 3.51613 0
M  V30 11819 O 1129.43 -0.137215 4.12172 0
M  V30 11820 H 1128.77 0.221887 0.625829 0
M  V30 11821 H 1131.3 1.23939 1.62789 0
M  V30 11822 H 1131.31 0.71326 4.01717 0
M  V30 11823 H 1129.98 1.83042 3.73455 0
M  V30 11824 H 1128.56 -0.00103872 3.729 0
M  V30 11825 N 1130.75 -1.41857 0.686609 0
M  V30 11826 C 1131.99 -2.01666 0.214118 0
M  V30 11827 C 1132.33 -1.5422 -1.18025 0
M  V30 11828 O 1131.6 -0.749482 -1.7948 0
M  V30 11829 C 1131.88 -3.59147 0.261841 0
M  V30 11830 C 1131.74 -4.16742 1.69251 0
M  V30 11831 C 1133.06 -4.38427 -0.383378 0
M  V30 11832 H 1130.17 -0.732724 0.0792785 0
M  V30 11833 H 1132.82 -1.68724 0.873633 0
M  V30 11834 H 1130.97 -3.87342 -0.29971 0
M  V30 11835 H 1132.64 -3.99456 2.30722 0
M  V30 11836 H 1130.88 -3.72124 2.2295 0
M  V30 11837 H 1131.55 -5.25894 1.6775 0
M  V30 11838 H 1134.03 -4.15992 0.0947701 0
M  V30 11839 H 1132.9 -5.4797 -0.319401 0
M  V30 11840 H 1133.17 -4.172 -1.46276 0
M  V30 11841 N 1132.22 -0.430739 -1.51599 0
M  V30 11842 C 1133.13 0.390347 -2.3133 0
M  V30 11843 C 1134.15 1.03376 -1.39962 0
M  V30 11844 O 1135.33 1.03057 -1.73035 0
M  V30 11845 C 1132.39 1.48039 -3.13505 0
M  V30 11846 C 1131.45 0.857792 -4.20643 0
M  V30 11847 C 1130.69 1.89589 -4.9889 0
M  V30 11848 O 1130.91 3.11717 -4.77691 0
M  V30 11849 O 1129.84 1.49009 -5.83164 0
M  V30 11850 H 1133.67 -0.260358 -3.02582 0
M  V30 11851 H 1131.25 -0.193428 -1.48143 0
M  V30 11852 H 1133.14 2.11272 -3.64612 0
M  V30 11853 H 1131.81 2.1153 -2.45024 0
M  V30 11854 H 1130.72 0.187592 -3.73629 0
M  V30 11855 H 1132.05 0.266474 -4.91478 0
M  V30 11856 N 1133.7 1.56767 -0.161869 0
M  V30 11857 C 1134.65 2.18807 0.789074 0
M  V30 11858 C 1135.64 1.14934 1.24445 0
M  V30 11859 O 1136.85 1.33154 1.2112 0
M  V30 11860 H 1133.23 0.700808 0.272713 0
M  V30 11861 H 1135.2 2.97419 0.241766 0
M  V30 11862 C 1133.95 2.83568 2.01207 0
M  V30 11863 H 1133.27 3.63219 1.67068 0
M  V30 11864 H 1134.71 3.3046 2.65654 0
M  V30 11865 C 1133.17 1.82846 2.82964 0
M  V30 11866 O 1133.7 1.30809 3.79805 0
M  V30 11867 N 1131.9 1.51815 2.47791 0
M  V30 11868 H 1131.45 1.94325 1.69103 0
M  V30 11869 H 1131.41 0.846742 3.02783 0
M  V30 11870 N 1135.18 -0.111886 1.57202 0
M  V30 11871 C 1136.11 -1.13796 2.03894 0
M  V30 11872 C 1137.09 -1.4277 0.924696 0
M  V30 11873 O 1138.28 -1.53089 1.19488 0
M  V30 11874 C 1135.41 -2.46229 2.44925 0
M  V30 11875 C 1134.36 -2.31702 3.59859 0
M  V30 11876 C 1133.69 -3.69161 3.86813 0
M  V30 11877 C 1134.99 -1.77158 4.91337 0
M  V30 11878 H 1136.68 -0.749581 2.89865 0
M  V30 11879 H 1134.23 -0.359126 1.3945 0
M  V30 11880 H 1136.18 -3.18267 2.76195 0
M  V30 11881 H 1134.9 -2.86971 1.55933 0
M  V30 11882 H 1133.56 -1.62112 3.28809 0
M  V30 11883 H 1133.21 -4.07401 2.95015 0
M  V30 11884 H 1132.91 -3.60292 4.6418 0
M  V30 11885 H 1134.43 -4.42693 4.20542 0
M  V30 11886 H 1135.85 -2.3902 5.21097 0
M  V30 11887 H 1134.25 -1.79091 5.72753 0
M  V30 11888 H 1135.32 -0.729675 4.79379 0
M  V30 11889 N 1136.66 -1.52894 -0.382264 0
M  V30 11890 C 1137.59 -1.74413 -1.48703 0
M  V30 11891 C 1138.6 -0.624663 -1.50339 0
M  V30 11892 O 1139.79 -0.900527 -1.54119 0
M  V30 11893 C 1136.89 -1.79387 -2.8753 0
M  V30 11894 C 1136.07 -3.08794 -3.09783 0
M  V30 11895 C 1135.12 -3.05226 -4.2863 0
M  V30 11896 O 1134.15 -3.79073 -4.24609 0
M  V30 11897 N 1135.35 -2.2488 -5.35172 0
M  V30 11898 H 1138.12 -2.69734 -1.30628 0
M  V30 11899 H 1135.68 -1.51465 -0.571842 0
M  V30 11900 H 1137.67 -1.74498 -3.65147 0
M  V30 11901 H 1136.24 -0.914233 -2.98932 0
M  V30 11902 H 1135.46 -3.27118 -2.19971 0
M  V30 11903 H 1136.75 -3.94347 -3.21509 0
M  V30 11904 H 1136.15 -1.64363 -5.41296 0
M  V30 11905 H 1134.7 -2.25825 -6.1143 0
M  V30 11906 N 1138.14 0.641106 -1.43971 0
M  V30 11907 C 1139.36 1.43324 -1.4991 0
M  V30 11908 C 1139.79 1.87705 -0.121908 0
M  V30 11909 O 1139.15 1.58127 0.886875 0
M  V30 11910 C 1139.19 2.63637 -2.46025 0
M  V30 11911 O 1138.3 3.63123 -1.95488 0
M  V30 11912 H 1137.64 0.429252 -0.506595 0
M  V30 11913 H 1140.17 0.783427 -1.89007 0
M  V30 11914 H 1140.18 3.11304 -2.63731 0
M  V30 11915 H 1138.85 2.30678 -3.46064 0
M  V30 11916 H 1137.43 3.22332 -1.87501 0
M  V30 11917 N 1139.62 1.30703 0.880598 0
M  V30 11918 C 1140.84 1.22843 1.67106 0
M  V30 11919 C 1141.27 -0.204788 1.86982 0
M  V30 11920 O 1140.62 -1.14716 1.40392 0
M  V30 11921 C 1140.67 1.96685 3.02237 0
M  V30 11922 O 1139.78 1.29693 3.91476 0
M  V30 11923 H 1139.12 0.424661 0.51045 0
M  V30 11924 H 1141.65 1.72596 1.09871 0
M  V30 11925 H 1141.66 2.05874 3.52249 0
M  V30 11926 H 1140.33 3.00919 2.8709 0
M  V30 11927 H 1138.91 1.28886 3.49918 0
M  V30 11928 N 1141.09 -1.09351 1.1349 0
M  V30 11929 C 1142.04 -2.16008 0.812981 0
M  V30 11930 C 1143.01 -1.64566 -0.225252 0
M  V30 11931 O 1144.2 -1.90552 -0.0973261 0
M  V30 11932 C 1141.34 -3.43913 0.285996 0
M  V30 11933 C 1140.45 -4.09251 1.38338 0
M  V30 11934 C 1139.58 -5.24916 0.814652 0
M  V30 11935 C 1138.62 -5.82178 1.89038 0
M  V30 11936 N 1137.76 -6.89203 1.33955 0
M  V30 11937 H 1142.6 -2.42887 1.72655 0
M  V30 11938 H 1140.14 -1.19209 0.861833 0
M  V30 11939 H 1142.09 -4.17183 -0.0376794 0
M  V30 11940 H 1140.72 -3.17349 -0.590707 0
M  V30 11941 H 1139.78 -3.33838 1.82363 0
M  V30 11942 H 1141.09 -4.4784 2.19638 0
M  V30 11943 H 1140.24 -6.05086 0.442306 0
M  V30 11944 H 1138.98 -4.87691 -0.029416 0
M  V30 11945 H 1137.99 -5.00669 2.27179 0
M  V30 11946 H 1139.21 -6.21464 2.73787 0
M  V30 11947 H 1137.16 -6.53956 0.517494 0
M  V30 11948 H 1137.07 -7.26565 2.08902 0
M  V30 11949 H 1138.34 -7.73126 0.994793 0
M  V30 11950 N 1142.57 -0.928524 -1.27343 0
M  V30 11951 C 1143.8 -0.58516 -1.98974 0
M  V30 11952 C 1144.22 0.829964 -1.68799 0
M  V30 11953 O 1143.58 1.55705 -0.928738 0
M  V30 11954 C 1143.63 -0.818662 -3.51184 0
M  V30 11955 O 1142.73 0.115355 -4.12239 0
M  V30 11956 H 1142.07 -0.225203 -0.624644 0
M  V30 11957 H 1144.6 -1.248 -1.6213 0
M  V30 11958 H 1144.61 -0.734554 -4.01333 0
M  V30 11959 H 1143.29 -1.8502 -3.72479 0
M  V30 11960 H 1141.86 -0.0187371 -3.72895 0
M  V30 11961 N 1144.05 1.41491 -0.694123 0
M  V30 11962 C 1145.28 2.05579 -0.233466 0
M  V30 11963 C 1145.69 1.5223 1.11675 0
M  V30 11964 O 1145.05 0.669937 1.69759 0
M  V30 11965 C 1145.1 3.61047 -0.180967 0
M  V30 11966 O 1144.82 4.12421 -1.47785 0
M  V30 11967 C 1146.32 4.42278 0.300853 0
M  V30 11968 H 1143.54 0.662097 -0.108943 0
M  V30 11969 H 1146.09 1.81288 -0.946299 0
M  V30 11970 H 1144.24 3.84381 0.482678 0
M  V30 11971 H 1144.66 5.06454 -1.364 0
M  V30 11972 H 1146.13 5.51256 0.286464 0
M  V30 11973 H 1146.61 4.18276 1.33948 0
M  V30 11974 H 1147.21 4.24004 -0.331741 0
M  V30 11975 N 1145.53 0.438773 1.51369 0
M  V30 11976 C 1146.94 0.0911416 1.5934 0
M  V30 11977 C 1147.14 -1.39962 1.44958 0
M  V30 11978 O 1146.2 -2.16968 1.29155 0
M  V30 11979 C 1147.51 0.612531 2.94395 0
M  V30 11980 C 1149.06 0.573098 3.07709 0
M  V30 11981 C 1149.54 1.07149 4.4529 0
M  V30 11982 N 1151.03 1.02953 4.51614 0
M  V30 11983 C 1151.76 1.38602 5.56397 0
M  V30 11984 N 1151.26 1.81543 6.68591 0
M  V30 11985 N 1153.05 1.30409 5.46763 0
M  V30 11986 H 1145.2 1.40872 1.58962 0
M  V30 11987 H 1147.46 0.580589 0.749414 0
M  V30 11988 H 1147.17 1.65562 3.10294 0
M  V30 11989 H 1147.04 0.0382375 3.77181 0
M  V30 11990 H 1149.43 -0.461006 2.91477 0
M  V30 11991 H 1149.51 1.18381 2.26759 0
M  V30 11992 H 1149.16 2.10406 4.62268 0
M  V30 11993 H 1149.09 0.437297 5.24781 0
M  V30 11994 H 1151.58 0.714208 3.7109 0
M  V30 11995 H 1151.89 2.06977 7.44567 0
M  V30 11996 H 1150.24 1.8547 6.69795 0
M  V30 11997 H 1153.43 0.967272 4.57997 0
M  V30 11998 H 1153.6 1.5852 6.28312 0
M  V30 11999 N 1147.01 -1.56678 0.170181 0
M  V30 12000 C 1147.97 -2.16698 -0.746622 0
M  V30 12001 C 1148.97 -1.11475 -1.15888 0
M  V30 12002 O 1150.16 -1.36994 -1.07602 0
M  V30 12003 C 1147.29 -2.74892 -2.01612 0
M  V30 12004 H 1148.48 -2.99061 -0.224135 0
M  V30 12005 H 1146.04 -1.56098 -0.0793761 0
M  V30 12006 H 1146.77 -1.96259 -2.58172 0
M  V30 12007 H 1146.56 -3.51896 -1.72949 0
M  V30 12008 H 1148.05 -3.21058 -2.67042 0
M  V30 12009 N 1148.48 0.103547 -1.57259 0
M  V30 12010 C 1149.71 0.82235 -1.89855 0
M  V30 12011 C 1150.13 1.72694 -0.76303 0
M  V30 12012 O 1149.48 1.8056 0.265421 0
M  V30 12013 C 1149.53 1.64282 -3.22015 0
M  V30 12014 O 1149.26 0.774628 -4.31197 0
M  V30 12015 C 1150.76 2.46543 -3.68418 0
M  V30 12016 H 1147.98 0.235591 -0.628282 0
M  V30 12017 H 1150.52 0.0833106 -2.0433 0
M  V30 12018 H 1148.68 2.33446 -3.09163 0
M  V30 12019 H 1149.09 1.34205 -5.0704 0
M  V30 12020 H 1150.56 2.99618 -4.63609 0
M  V30 12021 H 1151.04 3.24618 -2.95838 0
M  V30 12022 H 1151.65 1.82594 -3.84109 0
M  V30 12023 N 1149.96 1.53094 0.37415 0
M  V30 12024 C 1151.21 1.68082 1.11495 0
M  V30 12025 C 1151.52 0.434685 1.90709 0
M  V30 12026 O 1152.73 0.464956 2.67489 0
M  V30 12027 C 1151.19 2.97101 2.03124 0
M  V30 12028 C 1150.79 4.28947 1.29262 0
M  V30 12029 C 1152.54 3.21456 2.77248 0
M  V30 12030 C 1150.44 5.4906 2.19743 0
M  V30 12031 H 1149.37 0.626238 0.419931 0
M  V30 12032 H 1152.03 1.79594 0.376588 0
M  V30 12033 H 1150.41 2.79371 2.80656 0
M  V30 12034 H 1151.58 4.57279 0.568528 0
M  V30 12035 H 1149.9 4.10968 0.670362 0
M  V30 12036 H 1152.49 4.08377 3.45155 0
M  V30 12037 H 1152.84 2.37153 3.42146 0
M  V30 12038 H 1153.37 3.3982 2.06803 0
M  V30 12039 H 1150.11 6.35815 1.59437 0
M  V30 12040 H 1149.63 5.25019 2.90027 0
M  V30 12041 H 1151.31 5.83517 2.79495 0
M  V30 12042 N 1151.44 -0.633461 1.44309 0
M  V30 12043 C 1152.37 -1.75676 1.53819 0
M  V30 12044 C 1153.35 -1.65537 0.391365 0
M  V30 12045 O 1154.54 -1.84332 0.611181 0
M  V30 12046 C 1151.67 -3.14197 1.47979 0
M  V30 12047 C 1150.62 -3.39122 2.61113 0
M  V30 12048 C 1149.95 -4.77648 2.40325 0
M  V30 12049 C 1151.25 -3.31914 4.03274 0
M  V30 12050 H 1152.94 -1.67974 2.47841 0
M  V30 12051 H 1150.49 -0.8067 1.19283 0
M  V30 12052 H 1152.44 -3.92553 1.53233 0
M  V30 12053 H 1151.16 -3.22677 0.504718 0
M  V30 12054 H 1149.82 -2.63145 2.55245 0
M  V30 12055 H 1149.47 -4.82829 1.41016 0
M  V30 12056 H 1149.17 -4.95284 3.16177 0
M  V30 12057 H 1150.69 -5.58237 2.47394 0
M  V30 12058 H 1152.11 -4.00178 4.10524 0
M  V30 12059 H 1150.5 -3.61085 4.7931 0
M  V30 12060 H 1151.57 -2.29761 4.2701 0
M  V30 12061 N 1152.92 -1.31168 -0.873655 0
M  V30 12062 C 1154.16 -1.20821 -1.62881 0
M  V30 12063 C 1154.5 0.233994 -1.92785 0
M  V30 12064 O 1153.77 1.16588 -1.55684 0
M  V30 12065 C 1154.06 -2.04875 -2.96139 0
M  V30 12066 C 1153.91 -3.57375 -2.73136 0
M  V30 12067 C 1155.23 -1.8953 -3.97198 0
M  V30 12068 H 1152.35 -0.44026 -0.59105 0
M  V30 12069 H 1154.99 -1.6092 -1.01019 0
M  V30 12070 H 1153.14 -1.70806 -3.48938 0
M  V30 12071 H 1154.81 -4.01561 -2.27038 0
M  V30 12072 H 1153.05 -3.8099 -2.07434 0
M  V30 12073 H 1153.72 -4.1149 -3.6794 0
M  V30 12074 H 1156.2 -2.19337 -3.53596 0
M  V30 12075 H 1155.08 -2.5065 -4.8833 0
M  V30 12076 H 1155.34 -0.857576 -4.33703 0
M  V30 12077 N 1154.4 1.08748 -1.14068 0
M  V30 12078 C 1155.81 1.33125 -0.880341 0
M  V30 12079 C 1156.01 1.9569 0.480396 0
M  V30 12080 O 1155.07 2.2077 1.22543 0
M  V30 12081 C 1156.38 2.23618 -2.01036 0
M  V30 12082 C 1157.93 2.37108 -2.04326 0
M  V30 12083 C 1158.4 3.30941 -3.1661 0
M  V30 12084 N 1159.9 3.38517 -3.16166 0
M  V30 12085 C 1160.63 4.11142 -3.99687 0
M  V30 12086 N 1160.13 4.86505 -4.93239 0
M  V30 12087 N 1161.92 4.06938 -3.87761 0
M  V30 12088 H 1154.07 0.665164 -2.01716 0
M  V30 12089 H 1156.33 0.355612 -0.878774 0
M  V30 12090 H 1156.04 1.84885 -2.99183 0
M  V30 12091 H 1155.91 3.24056 -1.93049 0
M  V30 12092 H 1158.3 2.75101 -1.06787 0
M  V30 12093 H 1158.38 1.36424 -2.16384 0
M  V30 12094 H 1158.03 2.93669 -4.14392 0
M  V30 12095 H 1157.96 4.31545 -3.01789 0
M  V30 12096 H 1160.45 2.84786 -2.48405 0
M  V30 12097 H 1160.76 5.39372 -5.53441 0
M  V30 12098 H 1159.1 4.8557 -4.9724 0
M  V30 12099 H 1162.3 3.47166 -3.13996 0
M  V30 12100 H 1162.47 4.63275 -4.53079 0
M  V30 12101 N 1155.87 0.935264 1.26849 0
M  V30 12102 C 1156.8 0.457776 2.28969 0
M  V30 12103 C 1157.79 -0.48587 1.63013 0
M  V30 12104 O 1158.97 -0.388998 1.90264 0
M  V30 12105 C 1156.1 -0.283332 3.46142 0
M  V30 12106 C 1155.05 0.573196 4.24144 0
M  V30 12107 C 1154.38 -0.297525 5.33872 0
M  V30 12108 C 1155.68 1.84153 4.88759 0
M  V30 12109 H 1157.37 1.31125 2.69159 0
M  V30 12110 H 1154.92 0.631956 1.29392 0
M  V30 12111 H 1156.87 -0.628366 4.16689 0
M  V30 12112 H 1155.6 -1.1709 3.04889 0
M  V30 12113 H 1154.26 0.901043 3.55354 0
M  V30 12114 H 1153.9 -1.18427 4.8886 0
M  V30 12115 H 1153.6 0.272126 5.8697 0
M  V30 12116 H 1155.13 -0.637961 6.07258 0
M  V30 12117 H 1156.54 1.5641 5.51551 0
M  V30 12118 H 1154.94 2.35528 5.51948 0
M  V30 12119 H 1156.01 2.5565 4.12033 0
M  V30 12120 N 1157.35 -1.41121 0.701616 0
M  V30 12121 C 1158.63 -1.9492 0.162911 0
M  V30 12122 C 1159.01 -1.64064 -1.32839 0
M  V30 12123 O 1158.36 -0.950848 -2.07777 0
M  V30 12124 C 1158.57 -3.45946 0.460673 0
M  V30 12125 C 1159.92 -4.22789 0.391706 0
M  V30 12126 O 1160.94 -3.53993 0.395931 0
M  V30 12127 O 1159.8 -5.45332 0.357071 0
M  V30 12128 H 1156.89 -0.826793 0.0185103 0
M  V30 12129 H 1159.44 -1.50805 0.778192 0
M  V30 12130 H 1158.21 -3.61711 1.49269 0
M  V30 12131 H 1157.83 -3.97168 -0.185277 0
M  V30 12132 N 1158.83 -0.446794 -1.51134 0
M  V30 12133 C 1160.06 0.114893 -2.06581 0
M  V30 12134 C 1160.47 1.35642 -1.31327 0
M  V30 12135 O 1159.83 1.78595 -0.375506 0
M  V30 12136 C 1159.88 0.427589 -3.58962 0
M  V30 12137 O 1159.6 -0.764669 -4.31375 0
M  V30 12138 C 1161.1 1.03891 -4.30954 0
M  V30 12139 H 1158.32 0.00373031 -0.67099 0
M  V30 12140 H 1160.87 -0.628596 -1.94599 0
M  V30 12141 H 1159.02 1.12099 -3.70827 0
M  V30 12142 H 1159.44 -0.494605 -5.22163 0
M  V30 12143 H 1160.91 1.20764 -5.38628 0
M  V30 12144 H 1161.39 2.02252 -3.8986 0
M  V30 12145 H 1161.99 0.384623 -4.23557 0
M  V30 12146 N 1160.31 1.56586 -0.178487 0
M  V30 12147 C 1161.56 1.96709 0.4637 0
M  V30 12148 C 1161.88 1.06586 1.63292 0
M  V30 12149 O 1161.15 0.133683 1.95443 0
M  V30 12150 H 1159.73 0.726381 0.174299 0
M  V30 12151 H 1162.39 1.9314 -0.261345 0
M  V30 12152 H 1161.49 3.01164 0.818934 0
M  V30 12153 N 1161.79 -0.095206 1.57312 0
M  V30 12154 C 1163.03 -0.797142 1.85715 0
M  V30 12155 C 1163.36 -1.79275 0.767171 0
M  V30 12156 O 1162.63 -1.94808 -0.206584 0
M  V30 12157 H 1161.21 -0.297382 0.685254 0
M  V30 12158 H 1163.87 -0.0768617 1.94748 0
M  V30 12159 H 1162.96 -1.32779 2.82447 0
M  V30 12160 N 1163.26 -1.53291 -0.366026 0
M  V30 12161 C 1164.2 -1.75981 -1.46845 0
M  V30 12162 C 1165.21 -0.640574 -1.49668 0
M  V30 12163 O 1166.4 -0.916823 -1.53155 0
M  V30 12164 C 1163.5 -1.82426 -2.85611 0
M  V30 12165 C 1162.67 -3.12062 -3.0649 0
M  V30 12166 C 1161.73 -3.09755 -4.25368 0
M  V30 12167 O 1160.76 -3.83555 -4.20564 0
M  V30 12168 N 1161.96 -2.30544 -5.32757 0
M  V30 12169 H 1164.72 -2.71104 -1.2776 0
M  V30 12170 H 1162.28 -1.52063 -0.555745 0
M  V30 12171 H 1164.28 -1.78361 -3.63276 0
M  V30 12172 H 1162.85 -0.945888 -2.97946 0
M  V30 12173 H 1162.07 -3.29433 -2.16489 0
M  V30 12174 H 1163.35 -3.97735 -3.17308 0
M  V30 12175 H 1162.75 -1.70095 -5.39522 0
M  V30 12176 H 1161.31 -2.32298 -6.09 0
M  V30 12177 N 1164.74 0.6258 -1.44643 0
M  V30 12178 C 1165.65 1.76611 -1.5442 0
M  V30 12179 C 1166.67 1.68614 -0.429576 0
M  V30 12180 O 1167.84 1.89296 -0.687686 0
M  V30 12181 C 1164.91 3.13015 -1.49071 0
M  V30 12182 C 1163.97 3.32604 -2.71428 0
M  V30 12183 C 1163.2 4.62501 -2.66325 0
M  V30 12184 O 1163.43 5.43651 -1.72626 0
M  V30 12185 O 1162.36 4.84408 -3.57258 0
M  V30 12186 H 1166.19 1.71315 -2.50769 0
M  V30 12187 H 1163.77 0.787677 -1.26949 0
M  V30 12188 H 1165.65 3.94318 -1.48631 0
M  V30 12189 H 1164.33 3.18842 -0.558686 0
M  V30 12190 H 1163.24 2.50959 -2.77435 0
M  V30 12191 H 1164.57 3.31642 -3.63695 0
M  V30 12192 N 1166.22 1.31629 0.866686 0
M  V30 12193 C 1167.47 1.21263 1.61678 0
M  V30 12194 C 1167.79 -0.228562 1.93656 0
M  V30 12195 O 1167.06 -1.15014 1.58583 0
M  V30 12196 H 1165.64 0.445817 0.59938 0
M  V30 12197 H 1168.3 1.64998 1.03739 0
M  V30 12198 H 1167.4 1.78669 2.55898 0
M  V30 12199 N 1167.7 -1.08142 1.14644 0
M  V30 12200 C 1168.63 -2.17139 0.858667 0
M  V30 12201 C 1169.61 -1.69064 -0.187452 0
M  V30 12202 O 1170.8 -1.94151 -0.0435458 0
M  V30 12203 C 1167.93 -3.45648 0.33834 0
M  V30 12204 C 1166.88 -4.07129 1.32021 0
M  V30 12205 C 1166.21 -5.30623 0.659075 0
M  V30 12206 C 1167.51 -4.48095 2.68343 0
M  V30 12207 H 1169.2 -2.41468 1.77012 0
M  V30 12208 H 1166.75 -1.16052 0.852523 0
M  V30 12209 H 1168.7 -4.21216 0.124611 0
M  V30 12210 H 1167.42 -3.2088 -0.608553 0
M  V30 12211 H 1166.08 -3.33596 1.52016 0
M  V30 12212 H 1165.73 -5.02142 -0.293711 0
M  V30 12213 H 1165.43 -5.72714 1.31427 0
M  V30 12214 H 1166.95 -6.08903 0.454933 0
M  V30 12215 H 1168.37 -5.14828 2.5224 0
M  V30 12216 H 1166.76 -5.01113 3.30161 0
M  V30 12217 H 1167.83 -3.59852 3.25015 0
M  V30 12218 N 1169.18 -0.941978 -1.26351 0
M  V30 12219 C 1170.11 -0.409504 -2.25512 0
M  V30 12220 C 1171.12 0.467665 -1.55938 0
M  V30 12221 O 1172.31 0.277982 -1.76322 0
M  V30 12222 C 1169.41 0.430487 -3.36155 0
M  V30 12223 C 1168.58 -0.430714 -4.35274 0
M  V30 12224 C 1167.64 0.348976 -5.25042 0
M  V30 12225 O 1166.67 -0.24827 -5.68658 0
M  V30 12226 N 1167.87 1.64531 -5.56695 0
M  V30 12227 H 1170.64 -1.26196 -2.71836 0
M  V30 12228 H 1168.2 -0.810947 -1.40126 0
M  V30 12229 H 1170.19 0.959501 -3.93161 0
M  V30 12230 H 1168.76 1.18375 -2.8932 0
M  V30 12231 H 1167.98 -1.14093 -3.77328 0
M  V30 12232 H 1169.27 -1.01896 -4.98492 0
M  V30 12233 H 1168.67 2.15266 -5.23142 0
M  V30 12234 H 1167.22 2.12055 -6.16341 0
M  V30 12235 N 1170.66 1.40747 -0.709091 0
M  V30 12236 C 1171.89 2.05022 -0.254887 0
M  V30 12237 C 1172.29 1.5351 1.10595 0
M  V30 12238 O 1171.64 0.683912 1.70494 0
M  V30 12239 C 1171.7 3.59188 -0.149823 0
M  V30 12240 C 1171.36 4.33557 -1.44489 0
M  V30 12241 C 1172.36 4.61941 -2.3855 0
M  V30 12242 C 1170.04 4.72585 -1.70201 0
M  V30 12243 C 1172.04 5.2833 -3.56575 0
M  V30 12244 C 1169.73 5.38707 -2.88509 0
M  V30 12245 C 1170.72 5.66509 -3.81518 0
M  V30 12246 O 1170.41 6.31267 -4.97752 0
M  V30 12247 H 1170.14 0.666405 -0.113493 0
M  V30 12248 H 1172.7 1.81261 -0.966099 0
M  V30 12249 H 1170.93 3.81742 0.617276 0
M  V30 12250 H 1172.62 4.05008 0.268965 0
M  V30 12251 H 1173.38 4.32259 -2.19947 0
M  V30 12252 H 1169.26 4.50318 -0.986628 0
M  V30 12253 H 1172.81 5.49947 -4.2919 0
M  V30 12254 H 1168.7 5.67809 -3.07023 0
M  V30 12255 H 1169.47 6.49764 -4.97745 0
M  V30 12256 N 1172.13 0.454803 1.50895 0
M  V30 12257 C 1173.07 -0.383826 2.25963 0
M  V30 12258 C 1174.08 -0.971263 1.30653 0
M  V30 12259 O 1175.27 -0.862434 1.56283 0
M  V30 12260 C 1172.37 -1.55069 3.01342 0
M  V30 12261 C 1171.54 -1.07899 4.23883 0
M  V30 12262 C 1170.6 -2.118 4.81692 0
M  V30 12263 O 1169.63 -1.70523 5.43057 0
M  V30 12264 N 1170.83 -3.44459 4.67256 0
M  V30 12265 H 1173.59 0.259646 2.98573 0
M  V30 12266 H 1171.15 0.284661 1.59378 0
M  V30 12267 H 1173.15 -2.24236 3.36898 0
M  V30 12268 H 1171.72 -2.09917 2.31633 0
M  V30 12269 H 1170.94 -0.213773 3.9362 0
M  V30 12270 H 1172.22 -0.741501 5.03368 0
M  V30 12271 H 1171.62 -3.80716 4.18416 0
M  V30 12272 H 1170.18 -4.0947 5.07127 0
M  V30 12273 N 1173.61 -1.56489 0.186789 0
M  V30 12274 C 1175.02 -1.83809 -0.327265 0
M  V30 12275 C 1175.37 -1.10718 -1.61976 0
M  V30 12276 O 1174.5 -0.36525 -2.13295 0
M  V30 12277 C 1175.09 -3.33435 -0.600551 0
M  V30 12278 C 1173.65 -3.61195 -1.059 0
M  V30 12279 C 1172.8 -2.77108 -0.103131 0
M  V30 12280 H 1175.75 -1.53292 0.410747 0
M  V30 12281 H 1175.77 -3.51754 -1.45084 0
M  V30 12282 H 1175.28 -3.86605 0.340315 0
M  V30 12283 H 1173.38 -3.13451 -2.01443 0
M  V30 12284 H 1173.5 -4.69435 -0.957458 0
M  V30 12285 H 1171.86 -2.47448 -0.603449 0
M  V30 12286 H 1172.64 -3.33065 0.832031 0
M  V30 12287 N 1175.09 0.086862 -1.5736 0
M  V30 12288 C 1176.34 0.787281 -1.86135 0
M  V30 12289 C 1176.66 1.78866 -0.776667 0
M  V30 12290 O 1175.93 1.94915 0.19625 0
M  V30 12291 H 1174.51 0.293744 -0.686821 0
M  V30 12292 H 1177.17 0.0665326 -1.94786 0
M  V30 12293 H 1176.27 1.3128 -2.83147 0
M  V30 12294 N 1176.57 1.53483 0.357892 0
M  V30 12295 C 1177.84 1.60649 1.11585 0
M  V30 12296 C 1178.22 0.418789 2.06904 0
M  V30 12297 O 1177.57 -0.590279 2.20744 0
M  V30 12298 C 1177.78 2.96046 1.84818 0
M  V30 12299 C 1179.13 3.50895 2.39076 0
M  V30 12300 O 1180.15 2.98126 1.94934 0
M  V30 12301 O 1179.01 4.43163 3.19794 0
M  V30 12302 H 1176.11 0.649202 0.512315 0
M  V30 12303 H 1178.65 1.65826 0.360537 0
M  V30 12304 H 1177.43 3.73929 1.15296 0
M  V30 12305 H 1177.05 2.94395 2.6724 0
M  V30 12306 N 1178.05 -0.61812 1.44973 0
M  V30 12307 C 1179 -1.72346 1.49268 0
M  V30 12308 C 1179.98 -1.56889 0.357042 0
M  V30 12309 O 1181.17 -1.66404 0.603212 0
M  V30 12310 C 1178.3 -3.11073 1.4522 0
M  V30 12311 C 1177.39 -3.31953 2.63947 0
M  V30 12312 N 1177.78 -3.23141 3.89119 0
M  V30 12313 C 1176.08 -3.62791 2.59419 0
M  V30 12314 C 1176.78 -3.45066 4.683 0
M  V30 12315 N 1175.75 -3.68558 3.99582 0
M  V30 12316 H 1179.55 -1.6401 2.43881 0
M  V30 12317 H 1177.07 -0.821029 1.40117 0
M  V30 12318 H 1179.07 -3.90356 1.46381 0
M  V30 12319 H 1177.73 -3.20565 0.516555 0
M  V30 12320 H 1178.74 -3.01773 4.20896 0
M  V30 12321 H 1175.41 -3.79185 1.74713 0
M  V30 12322 H 1176.8 -3.43735 5.77318 0
M  V30 12323 N 1179.52 -1.32087 -0.859693 0
M  V30 12324 C 1180.77 -1.21716 -1.60836 0
M  V30 12325 C 1181.09 0.220904 -1.94349 0
M  V30 12326 O 1182.29 0.446422 -2.67805 0
M  V30 12327 C 1180.75 -2.13143 -2.89997 0
M  V30 12328 C 1180.36 -3.62003 -2.63928 0
M  V30 12329 C 1182.1 -2.11596 -3.68004 0
M  V30 12330 C 1180.01 -4.45407 -3.89059 0
M  V30 12331 H 1178.94 -0.45199 -0.603507 0
M  V30 12332 H 1181.59 -1.57013 -0.949687 0
M  V30 12333 H 1179.97 -1.70755 -3.57294 0
M  V30 12334 H 1181.14 -4.12701 -2.04974 0
M  V30 12335 H 1179.46 -3.6563 -1.99258 0
M  V30 12336 H 1182.06 -2.71149 -4.6085 0
M  V30 12337 H 1182.4 -1.10568 -4.01348 0
M  V30 12338 H 1182.93 -2.52238 -3.07605 0
M  V30 12339 H 1179.67 -5.4723 -3.60859 0
M  V30 12340 H 1179.19 -3.99462 -4.47427 0
M  V30 12341 H 1180.87 -4.58149 -4.56846 0
M  V30 12342 N 1181 1.07532 -1.15215 0
M  V30 12343 C 1182.25 1.79737 -0.924062 0
M  V30 12344 C 1182.57 1.87072 0.550356 0
M  V30 12345 O 1181.84 1.37029 1.4 0
M  V30 12346 H 1180.42 0.665704 -0.338891 0
M  V30 12347 H 1183.08 1.29961 -1.45245 0
M  V30 12348 H 1182.18 2.82256 -1.33184 0
M  V30 12349 N 1182.48 0.948665 1.2585 0
M  V30 12350 C 1183.73 0.601125 1.93686 0
M  V30 12351 C 1184.06 -0.858779 1.7418 0
M  V30 12352 O 1183.33 -1.61539 1.0833 0
M  V30 12353 C 1183.62 0.95333 3.47252 0
M  V30 12354 C 1183.47 2.46853 3.7601 0
M  V30 12355 C 1184.79 0.474098 4.37539 0
M  V30 12356 H 1181.91 0.219864 0.703441 0
M  V30 12357 H 1184.55 1.18424 1.48579 0
M  V30 12358 H 1182.7 0.457114 3.85801 0
M  V30 12359 H 1184.37 3.03804 3.47132 0
M  V30 12360 H 1182.62 2.9088 3.21825 0
M  V30 12361 H 1183.29 2.66547 4.83381 0
M  V30 12362 H 1185.76 0.899664 4.06258 0
M  V30 12363 H 1184.64 0.749287 5.43762 0
M  V30 12364 H 1184.9 -0.625961 4.37646 0
M  V30 12365 N 1183.96 -1.40369 0.716545 0
M  V30 12366 C 1185.2 -2.02728 0.2609 0
M  V30 12367 C 1185.56 -1.55591 -1.12496 0
M  V30 12368 O 1186.76 -2.1002 -1.67764 0
M  V30 12369 C 1185.03 -3.55789 0.338987 0
M  V30 12370 S 1186.59 -4.38782 -0.0395316 0
M  V30 12371 H 1183.41 -0.703437 0.103431 0
M  V30 12372 H 1186.01 -1.71474 0.938976 0
M  V30 12373 H 1184.72 -3.87587 1.34923 0
M  V30 12374 H 1184.25 -3.91772 -0.357536 0
M  V30 12375 H 1186.26 -4.79902 -1.26129 0
M  V30 12376 N 1185.44 -0.462799 -1.50652 0
M  V30 12377 C 1186.85 -0.00568907 -1.86699 0
M  V30 12378 C 1187.2 1.39641 -1.37822 0
M  V30 12379 O 1186.32 2.03366 -0.739679 0
M  V30 12380 C 1186.92 -0.00354783 -3.388 0
M  V30 12381 C 1185.48 0.398061 -3.74289 0
M  V30 12382 C 1184.62 -0.392574 -2.74507 0
M  V30 12383 H 1187.58 -0.677469 -1.43513 0
M  V30 12384 H 1187.6 0.800456 -3.71985 0
M  V30 12385 H 1187.11 -1.02414 -3.74344 0
M  V30 12386 H 1185.21 1.42331 -3.44344 0
M  V30 12387 H 1185.32 0.105168 -4.78985 0
M  V30 12388 H 1183.69 0.152608 -2.54242 0
M  V30 12389 H 1184.47 -1.41252 -3.12894 0
M  V30 12390 N 1186.91 1.56388 -0.195085 0
M  V30 12391 C 1188.33 1.8398 0.317513 0
M  V30 12392 C 1188.68 1.11575 1.61386 0
M  V30 12393 O 1187.8 0.376557 2.13099 0
M  V30 12394 C 1188.4 3.33749 0.582859 0
M  V30 12395 C 1186.96 3.61752 1.03983 0
M  V30 12396 C 1186.1 2.77159 0.088434 0
M  V30 12397 H 1189.05 1.53072 -0.418871 0
M  V30 12398 H 1189.07 3.52519 1.43216 0
M  V30 12399 H 1188.59 3.86419 -0.360813 0
M  V30 12400 H 1186.69 3.14515 1.99778 0
M  V30 12401 H 1186.8 4.69937 0.932549 0
M  V30 12402 H 1185.16 2.47765 0.590317 0
M  V30 12403 H 1185.95 3.32619 -0.849682 0
M  V30 12404 N 1188.39 -0.0785156 1.57404 0
M  V30 12405 C 1189.34 -1.11278 2.04255 0
M  V30 12406 C 1190.33 -1.40482 0.946633 0
M  V30 12407 O 1191.54 -1.39968 1.13177 0
M  V30 12408 H 1187.92 -0.376157 0.65116 0
M  V30 12409 H 1189.89 -0.691437 2.90279 0
M  V30 12410 C 1188.64 -2.42006 2.49656 0
M  V30 12411 H 1187.96 -2.20383 3.33574 0
M  V30 12412 H 1189.4 -3.12837 2.86197 0
M  V30 12413 C 1187.86 -3.07488 1.37669 0
M  V30 12414 O 1188.39 -3.95285 0.715036 0
M  V30 12415 N 1186.59 -2.68004 1.1235 0
M  V30 12416 H 1186.14 -1.96698 1.66336 0
M  V30 12417 H 1186.1 -3.12141 0.376238 0
M  V30 12418 N 1189.87 -1.5367 -0.349747 0
M  V30 12419 C 1191.29 -1.43796 -0.692457 0
M  V30 12420 C 1191.49 -0.58972 -1.92677 0
M  V30 12421 O 1190.54 -0.078294 -2.52379 0
M  V30 12422 C 1191.86 -2.872 -0.890881 0
M  V30 12423 C 1193.4 -2.96935 -0.989892 0
M  V30 12424 C 1193.88 -4.41433 -1.22068 0
M  V30 12425 N 1195.37 -4.44932 -1.28802 0
M  V30 12426 C 1196.1 -5.53864 -1.48398 0
M  V30 12427 N 1195.6 -6.72814 -1.65208 0
M  V30 12428 N 1197.39 -5.41467 -1.50896 0
M  V30 12429 H 1189.54 -2.07317 0.461895 0
M  V30 12430 H 1191.81 -0.936895 0.144681 0
M  V30 12431 H 1191.51 -3.51656 -0.0555095 0
M  V30 12432 H 1191.39 -3.31784 -1.79442 0
M  V30 12433 H 1193.77 -2.32622 -1.81579 0
M  V30 12434 H 1193.86 -2.55721 -0.0633906 0
M  V30 12435 H 1193.5 -5.06325 -0.399729 0
M  V30 12436 H 1193.43 -4.80233 -2.16064 0
M  V30 12437 H 1195.92 -3.59214 -1.17361 0
M  V30 12438 H 1196.23 -7.51598 -1.79779 0
M  V30 12439 H 1194.58 -6.7577 -1.62356 0
M  V30 12440 H 1197.77 -4.47498 -1.37342 0
M  V30 12441 H 1197.94 -6.26423 -1.65826 0
M  V30 12442 N 1191.35 0.610423 -1.45298 0
M  V30 12443 C 1192.76 1.19234 -1.43667 0
M  V30 12444 C 1193.11 1.95523 -0.162794 0
M  V30 12445 O 1192.24 2.03507 0.735789 0
M  V30 12446 C 1192.83 2.16892 -2.60276 0
M  V30 12447 C 1191.39 2.70465 -2.61774 0
M  V30 12448 C 1190.54 1.45821 -2.35863 0
M  V30 12449 H 1193.49 0.399895 -1.53579 0
M  V30 12450 H 1193.51 2.99875 -2.34212 0
M  V30 12451 H 1193.02 1.61339 -3.52975 0
M  V30 12452 H 1191.12 3.29965 -1.73072 0
M  V30 12453 H 1191.23 3.15092 -3.60907 0
M  V30 12454 H 1189.6 1.74678 -1.85364 0
M  V30 12455 H 1190.38 0.921403 -3.30704 0
M  V30 12456 N 1192.83 1.32541 0.852676 0
M  V30 12457 C 1194.07 1.22971 1.60383 0
M  V30 12458 C 1194.4 -0.208009 1.93887 0
M  V30 12459 O 1193.67 -1.13326 1.59794 0
M  V30 12460 H 1192.25 0.452149 0.594618 0
M  V30 12461 H 1194.91 1.66089 1.01983 0
M  V30 12462 H 1194 1.81373 2.53989 0
M  V30 12463 N 1194.3 -1.0692 1.15784 0
M  V30 12464 C 1195.23 -2.16216 0.881649 0
M  V30 12465 C 1196.22 -1.69253 -0.16951 0
M  V30 12466 O 1197.4 -1.94186 -0.0229511 0
M  V30 12467 C 1194.53 -3.4527 0.374982 0
M  V30 12468 C 1193.48 -4.05706 1.36332 0
M  V30 12469 C 1192.81 -5.29894 0.715317 0
M  V30 12470 C 1194.11 -4.45224 2.7308 0
M  V30 12471 H 1195.8 -2.39577 1.79563 0
M  V30 12472 H 1193.35 -1.15141 0.864784 0
M  V30 12473 H 1195.3 -4.2106 0.169279 0
M  V30 12474 H 1194.03 -3.21508 -0.574485 0
M  V30 12475 H 1192.69 -3.31965 1.55546 0
M  V30 12476 H 1192.33 -5.02425 -0.240436 0
M  V30 12477 H 1192.03 -5.71287 1.37494 0
M  V30 12478 H 1193.56 -6.08386 0.519489 0
M  V30 12479 H 1194.97 -5.12124 2.57686 0
M  V30 12480 H 1193.37 -4.97583 3.35457 0
M  V30 12481 H 1194.44 -3.56384 3.28813 0
M  V30 12482 N 1195.78 -0.955326 -1.25345 0
M  V30 12483 C 1197.03 -0.611388 -1.93365 0
M  V30 12484 C 1197.36 0.84953 -1.74633 0
M  V30 12485 O 1196.64 1.60962 -1.09185 0
M  V30 12486 C 1196.92 -0.971732 -3.46741 0
M  V30 12487 C 1196.77 -2.48843 -3.74696 0
M  V30 12488 C 1198.09 -0.497295 -4.37281 0
M  V30 12489 H 1195.21 -0.223591 -0.702265 0
M  V30 12490 H 1197.85 -1.1921 -1.47949 0
M  V30 12491 H 1196 -0.477568 -3.85554 0
M  V30 12492 H 1197.67 -3.05641 -3.45516 0
M  V30 12493 H 1195.92 -2.92582 -3.20278 0
M  V30 12494 H 1196.59 -2.69107 -4.8196 0
M  V30 12495 H 1199.06 -0.921196 -4.05775 0
M  V30 12496 H 1197.94 -0.778113 -5.43357 0
M  V30 12497 H 1198.2 0.602743 -4.37972 0
M  V30 12498 N 1197.26 1.39987 -0.723979 0
M  V30 12499 C 1198.17 2.3447 -0.0780936 0
M  V30 12500 C 1199.19 1.57744 0.734368 0
M  V30 12501 O 1200.36 1.90091 0.665385 0
M  V30 12502 C 1197.43 3.36705 0.826492 0
M  V30 12503 C 1196.49 4.293 0.00303036 0
M  V30 12504 C 1195.72 5.26651 0.864535 0
M  V30 12505 O 1195.95 5.30194 2.10357 0
M  V30 12506 O 1194.88 6.01157 0.299057 0
M  V30 12507 H 1198.71 2.91338 -0.857646 0
M  V30 12508 H 1196.29 1.41324 -0.484536 0
M  V30 12509 H 1198.17 3.9938 1.34439 0
M  V30 12510 H 1196.85 2.82237 1.58505 0
M  V30 12511 H 1195.75 3.69883 -0.560136 0
M  V30 12512 H 1197.09 4.86942 -0.717494 0
M  V30 12513 N 1198.74 0.470782 1.50404 0
M  V30 12514 C 1199.7 -0.312227 2.27063 0
M  V30 12515 C 1200.7 -0.920709 1.31832 0
M  V30 12516 O 1201.89 -0.789937 1.5526 0
M  V30 12517 C 1199.02 -1.44477 3.0877 0
M  V30 12518 H 1200.22 0.36006 2.97731 0
M  V30 12519 H 1197.77 0.224837 1.54674 0
M  V30 12520 H 1198.51 -2.15212 2.42599 0
M  V30 12521 H 1198.29 -1.01426 3.78755 0
M  V30 12522 H 1199.78 -1.99713 3.66749 0
M  V30 12523 N 1200.22 -1.56282 0.203376 0
M  V30 12524 C 1201.15 -2.2247 -0.709183 0
M  V30 12525 C 1202.13 -1.19046 -1.21499 0
M  V30 12526 O 1203.31 -1.47578 -1.26231 0
M  V30 12527 C 1200.44 -2.8905 -1.92529 0
M  V30 12528 C 1199.4 -3.98789 -1.55407 0
M  V30 12529 C 1198.72 -4.52574 -2.84747 0
M  V30 12530 C 1200.02 -5.16774 -0.75775 0
M  V30 12531 H 1201.72 -2.98986 -0.157392 0
M  V30 12532 H 1199.26 -1.43808 -0.0742613 0
M  V30 12533 H 1201.22 -3.34038 -2.56898 0
M  V30 12534 H 1199.94 -2.09952 -2.50175 0
M  V30 12535 H 1198.6 -3.54504 -0.933928 0
M  V30 12536 H 1198.25 -3.70229 -3.40499 0
M  V30 12537 H 1197.95 -5.26627 -2.6065 0
M  V30 12538 H 1199.47 -5.00269 -3.5009 0
M  V30 12539 H 1200.89 -5.58256 -1.30472 0
M  V30 12540 H 1199.28 -5.96945 -0.614583 0
M  V30 12541 H 1200.35 -4.84308 0.239476 0
M  V30 12542 N 1201.7 0.070167 -1.57444 0
M  V30 12543 C 1202.63 1.08351 -2.06839 0
M  V30 12544 C 1203.61 1.40269 -0.962224 0
M  V30 12545 O 1204.79 1.49867 -1.23505 0
M  V30 12546 C 1201.92 2.39649 -2.51368 0
M  V30 12547 C 1200.88 2.22079 -3.65875 0
M  V30 12548 C 1200.2 3.58776 -3.96464 0
M  V30 12549 C 1201.5 1.64069 -4.95862 0
M  V30 12550 H 1203.2 0.672465 -2.9175 0
M  V30 12551 H 1200.74 0.322027 -1.40353 0
M  V30 12552 H 1202.69 3.10833 -2.84537 0
M  V30 12553 H 1201.42 2.82736 -1.63487 0
M  V30 12554 H 1200.08 1.53337 -3.32992 0
M  V30 12555 H 1199.73 3.99436 -3.05712 0
M  V30 12556 H 1199.43 3.47859 -4.7357 0
M  V30 12557 H 1200.95 4.31387 -4.32131 0
M  V30 12558 H 1202.36 2.2512 -5.27251 0
M  V30 12559 H 1200.76 1.63843 -5.773 0
M  V30 12560 H 1201.83 0.60232 -4.81145 0
M  V30 12561 N 1203.17 1.53854 0.341593 0
M  V30 12562 C 1204.4 1.75447 1.10604 0
M  V30 12563 C 1204.82 0.493225 1.81518 0
M  V30 12564 O 1204.18 -0.554253 1.7262 0
M  V30 12565 C 1204.23 2.93593 2.09369 0
M  V30 12566 O 1203.33 2.63878 3.16926 0
M  V30 12567 H 1202.67 0.581923 0.319783 0
M  V30 12568 H 1205.2 2.00822 0.391388 0
M  V30 12569 H 1205.21 3.20437 2.52556 0
M  V30 12570 H 1203.89 3.85067 1.57151 0
M  V30 12571 H 1202.47 2.47929 2.78542 0
M  V30 12572 N 1204.65 -0.602709 1.4562 0
M  V30 12573 C 1206.07 -0.923983 1.30133 0
M  V30 12574 C 1206.27 -1.99842 0.25796 0
M  V30 12575 O 1205.32 -2.50112 -0.346414 0
M  V30 12576 C 1206.64 -1.36029 2.68173 0
M  V30 12577 C 1208.18 -1.47423 2.76108 0
M  V30 12578 C 1208.66 -1.94427 4.14683 0
M  V30 12579 N 1210.15 -2.01653 4.17002 0
M  V30 12580 C 1210.89 -2.39255 5.211 0
M  V30 12581 N 1210.38 -2.75791 6.3554 0
M  V30 12582 N 1212.17 -2.39636 5.08459 0
M  V30 12583 H 1204.33 0.107377 2.12128 0
M  V30 12584 H 1206.59 -0.0146216 0.947887 0
M  V30 12585 H 1206.29 -0.644949 3.45736 0
M  V30 12586 H 1206.17 -2.32584 2.96959 0
M  V30 12587 H 1208.56 -2.18047 1.98845 0
M  V30 12588 H 1208.64 -0.4917 2.5103 0
M  V30 12589 H 1208.28 -1.24389 4.92433 0
M  V30 12590 H 1208.21 -2.93603 4.37156 0
M  V30 12591 H 1210.7 -1.75988 3.3442 0
M  V30 12592 H 1211.01 -3.03378 7.10761 0
M  V30 12593 H 1209.36 -2.73475 6.38934 0
M  V30 12594 H 1212.55 -2.10502 4.18098 0
M  V30 12595 H 1212.72 -2.68614 5.89704 0
M  V30 12596 N 1206.13 -1.32992 -0.845635 0
M  V30 12597 C 1207.38 -1.24249 -1.60281 0
M  V30 12598 C 1207.71 0.193049 -1.93238 0
M  V30 12599 O 1206.98 1.1326 -1.58122 0
M  V30 12600 C 1207.27 -2.1111 -2.91727 0
M  V30 12601 C 1207.12 -3.63088 -2.65494 0
M  V30 12602 C 1208.44 -1.97913 -3.93089 0
M  V30 12603 H 1205.56 -0.452698 -0.581578 0
M  V30 12604 H 1208.2 -1.63026 -0.975828 0
M  V30 12605 H 1206.35 -1.78169 -3.45236 0
M  V30 12606 H 1208.02 -4.06287 -2.18469 0
M  V30 12607 H 1206.26 -3.85304 -1.99306 0
M  V30 12608 H 1206.94 -4.19202 -3.59129 0
M  V30 12609 H 1209.41 -2.26788 -3.48864 0
M  V30 12610 H 1208.29 -2.60952 -4.82903 0
M  V30 12611 H 1208.55 -0.949378 -4.31786 0
M  V30 12612 N 1207.61 1.06304 -1.1635 0
M  V30 12613 C 1208.52 2.17296 -0.884289 0
M  V30 12614 C 1209.53 1.73408 0.143414 0
M  V30 12615 O 1210.71 2.01373 -0.0331987 0
M  V30 12616 C 1207.77 3.44509 -0.389163 0
M  V30 12617 C 1206.84 4.02906 -1.48208 0
M  V30 12618 C 1206.07 5.24047 -1.01048 0
M  V30 12619 O 1206.29 5.70229 0.139821 0
M  V30 12620 O 1205.23 5.74394 -1.79876 0
M  V30 12621 H 1209.05 2.4369 -1.81243 0
M  V30 12622 H 1206.64 1.15841 -0.943459 0
M  V30 12623 H 1208.52 4.21229 -0.120018 0
M  V30 12624 H 1207.19 3.19642 0.510968 0
M  V30 12625 H 1206.1 3.27677 -1.80496 0
M  V30 12626 H 1207.43 4.32068 -2.35751 0
M  V30 12627 N 1209.09 0.96196 1.24836 0
M  V30 12628 C 1210.36 0.537809 1.88061 0
M  V30 12629 C 1210.74 -0.985023 1.8671 0
M  V30 12630 O 1210.09 -1.85394 1.33572 0
M  V30 12631 C 1210.3 1.12279 3.30446 0
M  V30 12632 C 1211.65 1.20414 4.07168 0
M  V30 12633 O 1212.67 1.07488 3.39595 0
M  V30 12634 O 1211.53 1.4078 5.28056 0
M  V30 12635 H 1208.63 0.178491 0.807509 0
M  V30 12636 H 1211.17 1.05586 1.32852 0
M  V30 12637 H 1209.94 2.16578 3.25898 0
M  V30 12638 H 1209.57 0.58843 3.93222 0
M  V30 12639 N 1210.56 -1.39601 0.731392 0
M  V30 12640 C 1211.97 -1.83424 0.348194 0
M  V30 12641 C 1212.33 -1.61106 -1.11979 0
M  V30 12642 O 1211.45 -1.1003 -1.86339 0
M  V30 12643 C 1212.05 -3.32982 0.6252 0
M  V30 12644 C 1210.6 -3.75238 0.295536 0
M  V30 12645 C 1209.75 -2.62642 0.88964 0
M  V30 12646 H 1212.7 -1.28644 0.929318 0
M  V30 12647 H 1212.72 -3.80357 -0.104254 0
M  V30 12648 H 1212.24 -3.49193 1.69368 0
M  V30 12649 H 1210.34 -3.64615 -0.767254 0
M  V30 12650 H 1210.45 -4.72781 0.775576 0
M  V30 12651 H 1208.81 -2.52726 0.316529 0
M  V30 12652 H 1209.6 -2.81661 1.96271 0
M  V30 12653 N 1212.04 -0.478751 -1.50152 0
M  V30 12654 C 1213.45 -0.0254907 -1.86683 0
M  V30 12655 C 1213.8 1.38171 -1.39295 0
M  V30 12656 O 1212.93 2.0257 -0.761207 0
M  V30 12657 C 1213.52 -0.0394819 -3.38777 0
M  V30 12658 C 1212.08 0.35834 -3.7469 0
M  V30 12659 C 1211.23 -0.421667 -2.74075 0
M  V30 12660 H 1214.18 -0.692653 -1.42787 0
M  V30 12661 H 1214.2 0.760957 -3.72813 0
M  V30 12662 H 1213.71 -1.06378 -3.73236 0
M  V30 12663 H 1211.82 1.38671 -3.45834 0
M  V30 12664 H 1211.93 0.0543589 -4.79069 0
M  V30 12665 H 1210.29 0.125634 -2.5439 0
M  V30 12666 H 1211.08 -1.44562 -3.11379 0
M  V30 12667 N 1213.52 1.56172 -0.211661 0
M  V30 12668 C 1214.48 2.18602 0.688906 0
M  V30 12669 C 1215.48 1.14508 1.12892 0
M  V30 12670 O 1216.67 1.39799 1.03932 0
M  V30 12671 C 1213.81 2.80141 1.94253 0
M  V30 12672 H 1215 2.9955 0.144765 0
M  V30 12673 H 1212.55 1.56254 0.0379615 0
M  V30 12674 H 1213.29 2.03035 2.52878 0
M  V30 12675 H 1213.07 3.56358 1.63558 0
M  V30 12676 H 1214.56 3.28026 2.58436 0
M  V30 12677 N 1215 -0.0618163 1.57479 0
M  V30 12678 C 1216.41 -0.612461 1.76368 0
M  V30 12679 C 1216.76 -1.77381 0.838466 0
M  V30 12680 O 1215.89 -2.16386 0.0250211 0
M  V30 12681 C 1216.48 -1.11782 3.19829 0
M  V30 12682 C 1215.04 -1.61424 3.40028 0
M  V30 12683 C 1214.19 -0.53795 2.72032 0
M  V30 12684 H 1217.14 0.164382 1.57846 0
M  V30 12685 H 1217.16 -1.98634 3.24538 0
M  V30 12686 H 1216.67 -0.272353 3.87143 0
M  V30 12687 H 1214.77 -2.48263 2.77842 0
M  V30 12688 H 1214.88 -1.68431 4.48517 0
M  V30 12689 H 1213.25 -0.985355 2.34868 0
M  V30 12690 H 1214.03 0.297495 3.42009 0
M  V30 12691 N 1216.48 -1.54033 -0.333429 0
M  V30 12692 C 1217.7 -1.75716 -1.09232 0
M  V30 12693 C 1218.12 -0.501076 -1.82029 0
M  V30 12694 O 1217.48 0.527772 -1.74702 0
M  V30 12695 C 1217.53 -2.9439 -2.09802 0
M  V30 12696 O 1217.25 -4.15141 -1.39963 0
M  V30 12697 C 1218.75 -3.28206 -2.97987 0
M  V30 12698 H 1215.97 -0.586859 -0.325326 0
M  V30 12699 H 1218.51 -2.0089 -0.382555 0
M  V30 12700 H 1216.67 -2.71518 -2.76327 0
M  V30 12701 H 1217.08 -4.81826 -2.0723 0
M  V30 12702 H 1218.56 -4.14568 -3.64469 0
M  V30 12703 H 1219.03 -2.44944 -3.64553 0
M  V30 12704 H 1219.64 -3.5312 -2.37036 0
M  V30 12705 N 1217.95 0.594978 -1.45938 0
M  V30 12706 C 1218.86 1.73296 -1.58132 0
M  V30 12707 C 1219.88 1.67665 -0.465245 0
M  V30 12708 O 1221.06 1.87794 -0.727684 0
M  V30 12709 C 1218.12 3.09783 -1.55677 0
M  V30 12710 C 1217.18 3.26772 -2.78422 0
M  V30 12711 C 1216.42 4.56748 -2.76075 0
M  V30 12712 O 1216.64 5.39867 -1.84119 0
M  V30 12713 O 1215.57 4.76721 -3.67452 0
M  V30 12714 H 1219.4 1.65957 -2.54346 0
M  V30 12715 H 1216.98 0.760572 -1.28591 0
M  V30 12716 H 1218.87 3.91077 -1.56961 0
M  V30 12717 H 1217.54 3.17585 -0.626191 0
M  V30 12718 H 1216.45 2.45018 -2.82696 0
M  V30 12719 H 1217.78 3.23853 -3.70648 0
M  V30 12720 N 1219.43 1.33438 0.838571 0
M  V30 12721 C 1220.84 1.22366 1.41009 0
M  V30 12722 C 1221.19 -0.157317 1.95568 0
M  V30 12723 O 1220.32 -1.05692 1.88834 0
M  V30 12724 C 1220.91 2.21542 2.56329 0
M  V30 12725 C 1219.47 2.14309 3.09433 0
M  V30 12726 C 1218.62 2.09012 1.82235 0
M  V30 12727 H 1221.57 1.45032 0.64431 0
M  V30 12728 H 1221.59 1.82332 3.33969 0
M  V30 12729 H 1221.1 3.22042 2.16589 0
M  V30 12730 H 1219.21 1.17113 3.53717 0
M  V30 12731 H 1219.32 3.04866 3.69586 0
M  V30 12732 H 1217.68 1.54492 2.02495 0
M  V30 12733 H 1218.47 3.11319 1.4469 0
M  V30 12734 N 1220.91 -1.05686 1.16912 0
M  V30 12735 C 1222.16 -1.78862 0.955839 0
M  V30 12736 C 1222.49 -1.87257 -0.514645 0
M  V30 12737 O 1221.76 -1.36869 -1.38193 0
M  V30 12738 C 1222.05 -3.23021 1.59152 0
M  V30 12739 C 1221.9 -3.22669 3.13376 0
M  V30 12740 C 1223.22 -4.2073 1.29128 0
M  V30 12741 H 1220.34 -0.64931 0.348663 0
M  V30 12742 H 1222.98 -1.23561 1.44335 0
M  V30 12743 H 1221.13 -3.70243 1.17697 0
M  V30 12744 H 1222.8 -2.83562 3.63855 0
M  V30 12745 H 1221.05 -2.61149 3.46386 0
M  V30 12746 H 1221.72 -4.24394 3.52979 0
M  V30 12747 H 1224.19 -3.8198 1.65017 0
M  V30 12748 H 1223.07 -5.19851 1.76198 0
M  V30 12749 H 1223.33 -4.41595 0.21119 0
M  V30 12750 N 1222.39 -0.968567 -1.24324 0
M  V30 12751 C 1223.35 -0.504307 -2.23583 0
M  V30 12752 C 1224.35 0.399626 -1.55755 0
M  V30 12753 O 1225.54 0.194966 -1.73106 0
M  V30 12754 C 1222.67 0.26956 -3.39833 0
M  V30 12755 H 1223.87 -1.3818 -2.6617 0
M  V30 12756 H 1221.42 -0.753241 -1.36952 0
M  V30 12757 H 1222.15 1.16411 -3.02686 0
M  V30 12758 H 1221.94 -0.379133 -3.90263 0
M  V30 12759 H 1223.43 0.583376 -4.13505 0
M  V30 12760 N 1223.87 1.39211 -0.738786 0
M  V30 12761 C 1225.11 2.00733 -0.288817 0
M  V30 12762 C 1225.45 1.58494 1.1222 0
M  V30 12763 O 1224.72 0.815579 1.76575 0
M  V30 12764 C 1225 3.57928 -0.394956 0
M  V30 12765 C 1224.86 4.10174 -1.84601 0
M  V30 12766 C 1226.18 4.39548 0.220395 0
M  V30 12767 H 1223.29 0.729276 -0.106418 0
M  V30 12768 H 1225.94 1.65365 -0.935652 0
M  V30 12769 H 1224.09 3.88188 0.155744 0
M  V30 12770 H 1225.76 3.90618 -2.45388 0
M  V30 12771 H 1224 3.63593 -2.36607 0
M  V30 12772 H 1224.67 5.19305 -1.87152 0
M  V30 12773 H 1227.15 4.15354 -0.249098 0
M  V30 12774 H 1226.02 5.48778 0.115806 0
M  V30 12775 H 1226.29 4.22341 1.30691 0
M  V30 12776 N 1225.34 0.486708 1.49896 0
M  V30 12777 C 1226.25 -0.304222 2.32619 0
M  V30 12778 C 1227.27 -0.981103 1.43702 0
M  V30 12779 O 1228.45 -0.965639 1.76741 0
M  V30 12780 C 1225.51 -1.36301 3.18783 0
M  V30 12781 C 1224.57 -0.701082 4.23537 0
M  V30 12782 C 1223.81 -1.70943 5.05583 0
M  V30 12783 O 1224.03 -2.93773 4.88931 0
M  V30 12784 O 1222.96 -1.27263 5.88292 0
M  V30 12785 H 1226.79 0.37248 3.01407 0
M  V30 12786 H 1224.37 0.248277 1.47323 0
M  V30 12787 H 1226.26 -1.97594 3.72202 0
M  V30 12788 H 1224.93 -2.0229 2.52706 0
M  V30 12789 H 1223.84 -0.0487926 3.74068 0
M  V30 12790 H 1225.17 -0.0838817 4.92129 0
M  V30 12791 N 1226.82 -1.56058 0.219941 0
M  V30 12792 C 1227.76 -2.17494 -0.723133 0
M  V30 12793 C 1228.77 -1.14356 -1.15873 0
M  V30 12794 O 1229.96 -1.41343 -1.09016 0
M  V30 12795 C 1227.06 -2.74242 -1.99109 0
M  V30 12796 C 1226.23 -4.02533 -1.71132 0
M  V30 12797 C 1225.29 -4.43862 -2.82618 0
M  V30 12798 O 1224.32 -5.10792 -2.51157 0
M  V30 12799 N 1225.52 -4.09412 -4.11537 0
M  V30 12800 H 1228.28 -2.99048 -0.197619 0
M  V30 12801 H 1225.84 -1.61853 0.0388738 0
M  V30 12802 H 1227.84 -2.98862 -2.7288 0
M  V30 12803 H 1226.41 -1.97 -2.42713 0
M  V30 12804 H 1225.63 -3.85786 -0.810128 0
M  V30 12805 H 1226.91 -4.86227 -1.49868 0
M  V30 12806 H 1226.31 -3.55624 -4.39941 0
M  V30 12807 H 1224.87 -4.38928 -4.81857 0
M  V30 12808 N 1228.3 0.053464 -1.57509 0
M  V30 12809 C 1229.23 1.06151 -2.07977 0
M  V30 12810 C 1230.21 1.3924 -0.977047 0
M  V30 12811 O 1231.4 1.48549 -1.25087 0
M  V30 12812 C 1228.53 2.36969 -2.53895 0
M  V30 12813 C 1227.48 2.18186 -3.6821 0
M  V30 12814 C 1226.81 3.54551 -4.00247 0
M  V30 12815 C 1228.11 1.588 -4.97574 0
M  V30 12816 H 1229.8 0.641483 -2.92447 0
M  V30 12817 H 1227.35 0.307122 -1.40687 0
M  V30 12818 H 1229.3 3.07797 -2.87817 0
M  V30 12819 H 1228.02 2.80986 -1.66476 0
M  V30 12820 H 1226.68 1.49796 -3.34599 0
M  V30 12821 H 1226.33 3.96171 -3.09932 0
M  V30 12822 H 1226.03 3.42816 -4.77232 0
M  V30 12823 H 1227.56 4.2678 -4.36682 0
M  V30 12824 H 1228.97 2.19515 -5.29609 0
M  V30 12825 H 1227.37 1.57711 -5.79006 0
M  V30 12826 H 1228.44 0.551254 -4.81756 0
M  V30 12827 N 1229.78 1.54207 0.325255 0
M  V30 12828 C 1230.69 1.86495 1.42326 0
M  V30 12829 C 1231.71 0.756718 1.56684 0
M  V30 12830 O 1232.88 1.05084 1.71812 0
M  V30 12831 C 1229.95 2.08414 2.77064 0
M  V30 12832 C 1229.01 3.32221 2.71897 0
M  V30 12833 C 1228.24 3.53085 4.00209 0
M  V30 12834 O 1228.46 2.77421 4.98391 0
M  V30 12835 O 1227.4 4.46559 4.0357 0
M  V30 12836 H 1231.22 2.79859 1.17951 0
M  V30 12837 H 1228.81 1.40091 0.519124 0
M  V30 12838 H 1230.69 2.24171 3.56827 0
M  V30 12839 H 1229.37 1.18238 3.01333 0
M  V30 12840 H 1228.27 3.21851 1.90691 0
M  V30 12841 H 1229.61 4.22449 2.52582 0
M  V30 12842 N 1231.26 -0.58723 1.46251 0
M  V30 12843 C 1232.2 -1.69662 1.56472 0
M  V30 12844 C 1233.17 -1.60978 0.409294 0
M  V30 12845 O 1234.36 -1.80257 0.625451 0
M  V30 12846 C 1231.5 -3.07996 1.55669 0
M  V30 12847 C 1230.61 -3.27337 2.81913 0
M  V30 12848 C 1229.75 -4.55894 2.72644 0
M  V30 12849 C 1228.79 -4.68562 3.93847 0
M  V30 12850 N 1227.92 -5.8844 3.82991 0
M  V30 12851 H 1232.76 -1.60262 2.51237 0
M  V30 12852 H 1230.3 -0.781148 1.24645 0
M  V30 12853 H 1232.26 -3.88058 1.53189 0
M  V30 12854 H 1230.89 -3.16303 0.6444 0
M  V30 12855 H 1229.94 -2.4091 2.94392 0
M  V30 12856 H 1231.25 -3.32567 3.71754 0
M  V30 12857 H 1230.41 -5.44178 2.68244 0
M  V30 12858 H 1229.15 -4.53094 1.80435 0
M  V30 12859 H 1228.15 -3.78696 3.98584 0
M  V30 12860 H 1229.38 -4.73144 4.87146 0
M  V30 12861 H 1227.32 -5.86647 2.93566 0
M  V30 12862 H 1227.24 -5.94919 4.66484 0
M  V30 12863 H 1228.51 -6.79168 3.82559 0
M  V30 12864 N 1232.74 -1.33881 -0.831482 0
M  V30 12865 C 1233.98 -1.25507 -1.58406 0
M  V30 12866 C 1234.3 0.177137 -1.94194 0
M  V30 12867 O 1233.57 1.10769 -1.61576 0
M  V30 12868 H 1232.15 -0.461551 -0.587349 0
M  V30 12869 H 1234.82 -1.6769 -0.99328 0
M  V30 12870 H 1233.91 -1.85391 -2.51071 0
M  V30 12871 N 1234.21 1.05064 -1.1747 0
M  V30 12872 C 1235.44 1.82299 -0.98903 0
M  V30 12873 C 1235.86 1.82441 0.457907 0
M  V30 12874 O 1235.22 1.23433 1.32793 0
M  V30 12875 C 1235.27 3.26239 -1.53624 0
M  V30 12876 O 1234.37 4.05507 -0.750857 0
M  V30 12877 H 1233.71 0.563601 -0.35107 0
M  V30 12878 H 1236.24 1.32386 -1.55997 0
M  V30 12879 H 1236.25 3.77038 -1.55906 0
M  V30 12880 H 1234.93 3.25451 -2.58949 0
M  V30 12881 H 1233.51 3.64227 -0.799548 0
M  V30 12882 N 1235.69 0.975146 1.23809 0
M  V30 12883 C 1237.1 0.678873 1.7392 0
M  V30 12884 C 1237.45 -0.805133 1.78919 0
M  V30 12885 O 1236.58 -1.62984 1.42356 0
M  V30 12886 C 1237.17 1.22562 3.15854 0
M  V30 12887 C 1235.73 0.979096 3.63443 0
M  V30 12888 C 1234.88 1.35649 2.41857 0
M  V30 12889 H 1237.83 1.14961 1.09406 0
M  V30 12890 H 1237.85 0.595489 3.75811 0
M  V30 12891 H 1237.36 2.30571 3.12184 0
M  V30 12892 H 1235.46 -0.0851407 3.72503 0
M  V30 12893 H 1235.58 1.62998 4.5052 0
M  V30 12894 H 1233.94 0.774916 2.42626 0
M  V30 12895 H 1234.72 2.44624 2.40861 0
M  V30 12896 N 1237.17 -1.38817 0.746158 0
M  V30 12897 C 1238.42 -1.99885 0.298425 0
M  V30 12898 C 1238.74 -1.59518 -1.12156 0
M  V30 12899 O 1238.01 -0.848568 -1.76568 0
M  V30 12900 H 1236.59 -0.739247 0.107347 0
M  V30 12901 H 1239.25 -1.69696 0.9586 0
M  V30 12902 H 1238.35 -3.10067 0.355656 0
M  V30 12903 N 1238.65 -0.49465 -1.49636 0
M  V30 12904 C 1239.9 0.0520143 -2.02033 0
M  V30 12905 C 1240.22 1.38071 -1.37701 0
M  V30 12906 O 1239.49 1.88589 -0.530181 0
M  V30 12907 H 1238.07 0.0222123 -0.74667 0
M  V30 12908 H 1240.73 -0.650445 -1.83726 0
M  V30 12909 H 1239.82 0.186337 -3.11543 0
M  V30 12910 N 1240.13 1.55939 -0.228214 0
M  V30 12911 C 1241.54 1.84612 0.278417 0
M  V30 12912 C 1241.89 1.14973 1.58983 0
M  V30 12913 O 1241.01 0.421673 2.12252 0
M  V30 12914 C 1241.61 3.3491 0.511935 0
M  V30 12915 C 1240.17 3.63876 0.962861 0
M  V30 12916 C 1239.31 2.77284 0.0296246 0
M  V30 12917 H 1242.26 1.52149 -0.451245 0
M  V30 12918 H 1242.29 3.55477 1.35707 0
M  V30 12919 H 1241.8 3.85567 -0.442697 0
M  V30 12920 H 1239.9 3.18682 1.93062 0
M  V30 12921 H 1240.01 4.71809 0.832659 0
M  V30 12922 H 1238.38 2.48961 0.53763 0
M  V30 12923 H 1239.16 3.30742 -0.920044 0
M  V30 12924 N 1241.6 -0.0451101 1.57535 0
M  V30 12925 C 1243.02 -0.59372 1.77008 0
M  V30 12926 C 1243.37 -1.76482 0.857233 0
M  V30 12927 O 1242.49 -2.16347 0.0479703 0
M  V30 12928 C 1243.09 -1.08383 3.20996 0
M  V30 12929 C 1241.65 -1.57808 3.41721 0
M  V30 12930 C 1240.79 -0.509067 2.72587 0
M  V30 12931 H 1243.74 0.181114 1.57663 0
M  V30 12932 H 1243.76 -1.95181 3.26626 0
M  V30 12933 H 1243.28 -0.231276 3.8741 0
M  V30 12934 H 1241.38 -2.45302 2.8046 0
M  V30 12935 H 1241.49 -1.63664 4.50279 0
M  V30 12936 H 1239.85 -0.960389 2.359 0
M  V30 12937 H 1240.64 0.333753 3.41674 0
M  V30 12938 N 1243.08 -1.54377 -0.317073 0
M  V30 12939 C 1244.49 -1.64062 -0.891105 0
M  V30 12940 C 1244.84 -0.538863 -1.88655 0
M  V30 12941 O 1243.97 0.32718 -2.13912 0
M  V30 12942 C 1244.56 -2.97395 -1.62302 0
M  V30 12943 C 1243.12 -3.09253 -2.14568 0
M  V30 12944 C 1242.27 -2.59664 -0.973146 0
M  V30 12945 H 1245.22 -1.58418 -0.0944829 0
M  V30 12946 H 1245.24 -2.87918 -2.48764 0
M  V30 12947 H 1244.75 -3.77562 -0.898268 0
M  V30 12948 H 1242.86 -2.33774 -2.90139 0
M  V30 12949 H 1242.97 -4.15159 -2.39123 0
M  V30 12950 H 1241.33 -2.15719 -1.35416 0
M  V30 12951 H 1242.12 -3.42294 -0.262611 0
M  V30 12952 N 1244.56 0.579466 -1.4656 0
M  V30 12953 C 1245.81 1.33492 -1.51738 0
M  V30 12954 C 1246.13 1.94241 -0.171926 0
M  V30 12955 O 1245.4 1.78737 0.801875 0
M  V30 12956 H 1243.98 0.49565 -0.558874 0
M  V30 12957 H 1246.64 0.678394 -1.82712 0
M  V30 12958 H 1245.74 2.13995 -2.27183 0
M  V30 12959 N 1246.04 1.3432 0.824371 0
M  V30 12960 C 1247.28 1.27792 1.58243 0
M  V30 12961 C 1247.64 -0.151189 1.91805 0
M  V30 12962 O 1246.93 -1.09708 1.57082 0
M  V30 12963 C 1247.13 2.1008 2.89139 0
M  V30 12964 C 1246.96 3.60848 2.68363 0
M  V30 12965 C 1245.73 4.3013 2.65172 0
M  V30 12966 C 1247.92 4.54878 2.39979 0
M  V30 12967 N 1245.91 5.66756 2.35927 0
M  V30 12968 C 1247.28 5.79497 2.20415 0
M  V30 12969 C 1249.33 4.43809 2.25695 0
M  V30 12970 C 1248.03 6.94293 1.88015 0
M  V30 12971 C 1250.06 5.58435 1.9469 0
M  V30 12972 C 1249.42 6.82071 1.75948 0
M  V30 12973 H 1245.52 0.522853 0.581505 0
M  V30 12974 H 1248.11 1.69017 0.96651 0
M  V30 12975 H 1246.28 1.71154 3.48656 0
M  V30 12976 H 1248.01 1.95208 3.54508 0
M  V30 12977 H 1244.76 3.82554 2.79194 0
M  V30 12978 H 1245.19 6.38817 2.24148 0
M  V30 12979 H 1249.83 3.48842 2.38891 0
M  V30 12980 H 1247.55 7.89242 1.73557 0
M  V30 12981 H 1251.13 5.51814 1.84372 0
M  V30 12982 H 1250.01 7.69268 1.52304 0
M  V30 12983 N 1247.52 -1.0444 1.18026 0
M  V30 12984 C 1248.76 -1.77838 0.974756 0
M  V30 12985 C 1249.1 -1.87792 -0.494755 0
M  V30 12986 O 1248.37 -1.38327 -1.36733 0
M  V30 12987 C 1248.65 -3.21315 1.62569 0
M  V30 12988 C 1248.51 -3.19327 3.16781 0
M  V30 12989 C 1249.83 -4.19337 1.33583 0
M  V30 12990 H 1246.94 -0.645575 0.35553 0
M  V30 12991 H 1249.59 -1.22023 1.45638 0
M  V30 12992 H 1247.74 -3.68974 1.21617 0
M  V30 12993 H 1249.41 -2.79687 3.66842 0
M  V30 12994 H 1247.65 -2.57461 3.49137 0
M  V30 12995 H 1248.32 -4.20626 3.5746 0
M  V30 12996 H 1250.8 -3.80208 1.69059 0
M  V30 12997 H 1249.67 -5.17953 1.81702 0
M  V30 12998 H 1249.94 -4.41346 0.258016 0
M  V30 12999 N 1248.99 -0.981699 -1.2329 0
M  V30 13000 C 1250.41 -0.690539 -1.43888 0
M  V30 13001 C 1250.61 0.742816 -1.87309 0
M  V30 13002 O 1249.67 1.5151 -2.01993 0
M  V30 13003 C 1250.98 -1.68657 -2.48948 0
M  V30 13004 C 1252.53 -1.70076 -2.62761 0
M  V30 13005 C 1253 -2.68513 -3.71032 0
M  V30 13006 N 1254.49 -2.67039 -3.78476 0
M  V30 13007 C 1255.23 -3.39874 -4.61815 0
M  V30 13008 N 1254.72 -4.22273 -5.49233 0
M  V30 13009 N 1256.52 -3.28633 -4.56023 0
M  V30 13010 H 1248.67 -1.90758 -0.934077 0
M  V30 13011 H 1250.93 -0.822058 -0.472149 0
M  V30 13012 H 1250.64 -2.7117 -2.23964 0
M  V30 13013 H 1250.51 -1.47045 -3.47358 0
M  V30 13014 H 1252.9 -0.682673 -2.87095 0
M  V30 13015 H 1252.98 -1.95754 -1.64663 0
M  V30 13016 H 1252.62 -3.70464 -3.47446 0
M  V30 13017 H 1252.55 -2.40109 -4.68674 0
M  V30 13018 H 1255.04 -2.07241 -3.16006 0
M  V30 13019 H 1255.36 -4.74702 -6.09818 0
M  V30 13020 H 1253.7 -4.26364 -5.48852 0
M  V30 13021 H 1256.89 -2.6371 -3.86749 0
M  V30 13022 H 1257.07 -3.85656 -5.20743 0
M  V30 13023 N 1250.47 1.3842 -0.753509 0
M  V30 13024 C 1251.75 1.94181 -0.235142 0
M  V30 13025 C 1252.13 1.68881 1.26659 0
M  V30 13026 O 1251.48 1.02731 2.04104 0
M  V30 13027 C 1251.69 3.43998 -0.588751 0
M  V30 13028 C 1253.04 4.21044 -0.548352 0
M  V30 13029 O 1254.06 3.52279 -0.52704 0
M  V30 13030 O 1252.92 5.43631 -0.559221 0
M  V30 13031 H 1250.01 0.825536 -0.0491834 0
M  V30 13032 H 1252.56 1.47813 -0.833626 0
M  V30 13033 H 1251.33 3.55921 -1.6259 0
M  V30 13034 H 1250.95 3.97582 0.0377429 0
M  V30 13035 N 1251.95 0.502579 1.49372 0
M  V30 13036 C 1253.36 0.055187 1.86618 0
M  V30 13037 C 1253.71 -1.35938 1.41476 0
M  V30 13038 O 1252.84 -2.01333 0.793338 0
M  V30 13039 C 1253.43 0.0933734 3.38671 0
M  V30 13040 C 1251.99 -0.298685 3.75213 0
M  V30 13041 C 1251.14 0.465216 2.7337 0
M  V30 13042 H 1254.09 0.715281 1.41667 0
M  V30 13043 H 1254.11 -0.701549 3.73977 0
M  V30 13044 H 1253.62 1.12303 3.71497 0
M  V30 13045 H 1251.72 -1.33151 3.47996 0
M  V30 13046 H 1251.84 0.0218637 4.79095 0
M  V30 13047 H 1250.2 -0.0851469 2.54558 0
M  V30 13048 H 1250.98 1.49498 3.09039 0
M  V30 13049 N 1253.43 -1.55816 0.23648 0
M  V30 13050 C 1254.84 -1.59159 -0.118601 0
M  V30 13051 C 1255.04 -1.25352 -1.57763 0
M  V30 13052 O 1254.1 -0.995863 -2.32032 0
M  V30 13053 C 1255.41 -2.99885 0.221175 0
M  V30 13054 C 1256.96 -3.12567 0.164624 0
M  V30 13055 C 1257.44 -4.55496 0.478285 0
M  V30 13056 N 1258.93 -4.61215 0.428402 0
M  V30 13057 C 1259.66 -5.69768 0.644398 0
M  V30 13058 N 1259.16 -6.86624 0.922966 0
M  V30 13059 N 1260.95 -5.59143 0.575814 0
M  V30 13060 H 1253.1 -1.76063 1.18809 0
M  V30 13061 H 1255.37 -0.819079 0.477297 0
M  V30 13062 H 1255.07 -3.29326 1.2344 0
M  V30 13063 H 1254.95 -3.74425 -0.456723 0
M  V30 13064 H 1257.33 -2.82914 -0.839263 0
M  V30 13065 H 1257.41 -2.40325 0.876219 0
M  V30 13066 H 1257.06 -4.85868 1.47968 0
M  V30 13067 H 1256.99 -5.25984 -0.254671 0
M  V30 13068 H 1259.48 -3.77251 0.221398 0
M  V30 13069 H 1259.79 -7.6528 1.07548 0
M  V30 13070 H 1258.14 -6.88333 0.960325 0
M  V30 13071 H 1261.33 -4.66727 0.358307 0
M  V30 13072 H 1261.5 -6.43674 0.747548 0
M  V30 13073 N 1254.91 0.036755 -1.57557 0
M  V30 13074 C 1255.84 1.03939 -2.09091 0
M  V30 13075 C 1256.82 1.38196 -0.991761 0
M  V30 13076 O 1258 1.47214 -1.26656 0
M  V30 13077 C 1255.13 2.34263 -2.56394 0
M  V30 13078 C 1254.09 2.14269 -3.70504 0
M  V30 13079 C 1253.41 3.50286 -4.03985 0
M  V30 13080 C 1254.71 1.53514 -4.9923 0
M  V30 13081 H 1256.41 0.610429 -2.93111 0
M  V30 13082 H 1253.95 0.292183 -1.41005 0
M  V30 13083 H 1255.91 3.04727 -2.91066 0
M  V30 13084 H 1254.63 2.79205 -1.69447 0
M  V30 13085 H 1253.29 1.46239 -3.36169 0
M  V30 13086 H 1252.94 3.92861 -3.14116 0
M  V30 13087 H 1252.64 3.37735 -4.80842 0
M  V30 13088 H 1254.16 4.22124 -4.41184 0
M  V30 13089 H 1255.57 2.13885 -5.31908 0
M  V30 13090 H 1253.97 1.51561 -5.80646 0
M  V30 13091 H 1255.04 0.500126 -4.82314 0
M  V30 13092 N 1256.39 1.54543 0.308881 0
M  V30 13093 C 1257.8 1.64532 0.882392 0
M  V30 13094 C 1258.15 0.54886 1.88367 0
M  V30 13095 O 1257.27 -0.315832 2.14083 0
M  V30 13096 C 1257.87 2.98251 1.60722 0
M  V30 13097 C 1256.43 3.10387 2.12925 0
M  V30 13098 C 1255.57 2.60176 0.959362 0
M  V30 13099 H 1258.52 1.58466 0.0860803 0
M  V30 13100 H 1258.55 2.89233 2.47233 0
M  V30 13101 H 1258.06 3.78033 0.878233 0
M  V30 13102 H 1256.16 2.35309 2.88895 0
M  V30 13103 H 1256.27 4.16421 2.36918 0
M  V30 13104 H 1254.64 2.16434 1.3427 0
M  V30 13105 H 1255.42 3.42429 0.244454 0
M  V30 13106 N 1257.86 -0.571685 1.46866 0
M  V30 13107 C 1259.27 -1.15383 1.46778 0
M  V30 13108 C 1259.63 -1.95023 0.214576 0
M  V30 13109 O 1258.75 -2.05386 -0.681574 0
M  V30 13110 C 1259.35 -2.09915 2.65935 0
M  V30 13111 C 1257.9 -2.6343 2.68852 0
M  V30 13112 C 1257.05 -1.39517 2.39646 0
M  V30 13113 H 1260 -0.359036 1.54585 0
M  V30 13114 H 1260.02 -2.9356 2.42081 0
M  V30 13115 H 1259.54 -1.51923 3.57129 0
M  V30 13116 H 1257.64 -3.2526 1.8176 0
M  V30 13117 H 1257.75 -3.05412 3.69134 0
M  V30 13118 H 1256.11 -1.69702 1.8993 0
M  V30 13119 H 1256.9 -0.833399 3.33031 0
M  V30 13120 N 1259.34 -1.34755 -0.817236 0
M  V30 13121 C 1260.58 -1.28786 -1.58725 0
M  V30 13122 C 1260.95 0.138807 -1.91498 0
M  V30 13123 O 1262.15 0.322743 -2.66855 0
M  V30 13124 C 1260.42 -2.15907 -2.84814 0
M  V30 13125 S 1261.98 -2.27347 -3.75311 0
M  V30 13126 H 1258.79 -0.457844 -0.543967 0
M  V30 13127 H 1261.4 -1.70031 -0.96487 0
M  V30 13128 H 1260.1 -3.18559 -2.58744 0
M  V30 13129 H 1259.63 -1.7558 -3.52044 0
M  V30 13130 H 1261.65 -1.45044 -4.74528 0
M  V30 13131 N 1260.82 1.03812 -1.18578 0
M  V30 13132 C 1262.05 1.80702 -1.00769 0
M  V30 13133 C 1262.46 1.83509 0.443833 0
M  V30 13134 O 1261.82 1.2724 1.30829 0
M  V30 13135 C 1261.87 3.26185 -1.55838 0
M  V30 13136 O 1261.59 3.23612 -2.95308 0
M  V30 13137 C 1263.09 4.1971 -1.42682 0
M  V30 13138 H 1260.31 0.568972 -0.355685 0
M  V30 13139 H 1262.86 1.30817 -1.57185 0
M  V30 13140 H 1261.01 3.73293 -1.03592 0
M  V30 13141 H 1261.43 4.14769 -3.2104 0
M  V30 13142 H 1262.9 5.19716 -1.86008 0
M  V30 13143 H 1263.38 4.37588 -0.375924 0
M  V30 13144 H 1263.98 3.78469 -1.94013 0
M  V30 13145 N 1262.3 0.988223 1.22768 0
M  V30 13146 C 1263.23 0.554478 2.26821 0
M  V30 13147 C 1264.21 -0.416293 1.64927 0
M  V30 13148 O 1265.39 -0.30795 1.91743 0
M  V30 13149 C 1262.52 -0.136266 3.47033 0
M  V30 13150 C 1261.48 0.752575 4.21332 0
M  V30 13151 C 1260.8 -0.0708236 5.34653 0
M  V30 13152 C 1262.1 2.04717 4.80508 0
M  V30 13153 H 1263.8 1.42423 2.63355 0
M  V30 13154 H 1261.34 0.686267 1.26595 0
M  V30 13155 H 1263.3 -0.451068 4.18979 0
M  V30 13156 H 1262.02 -1.04053 3.09581 0
M  V30 13157 H 1260.68 1.05095 3.51213 0
M  V30 13158 H 1260.33 -0.975859 4.93443 0
M  V30 13159 H 1260.03 0.520835 5.85287 0
M  V30 13160 H 1261.55 -0.379828 6.09417 0
M  V30 13161 H 1262.97 1.79663 5.44421 0
M  V30 13162 H 1261.36 2.58726 5.41462 0
M  V30 13163 H 1262.43 2.72896 4.00819 0
M  V30 13164 N 1263.78 -1.38018 0.760839 0
M  V30 13165 C 1265.19 -1.53437 0.439239 0
M  V30 13166 C 1265.39 -1.72184 -1.04666 0
M  V30 13167 O 1264.45 -1.73698 -1.83263 0
M  V30 13168 C 1265.76 -2.73724 1.24481 0
M  V30 13169 C 1267.31 -2.87579 1.23561 0
M  V30 13170 C 1267.78 -4.10836 2.02429 0
M  V30 13171 N 1269.27 -4.17928 1.99727 0
M  V30 13172 C 1270.01 -5.12309 2.57541 0
M  V30 13173 N 1269.51 -6.12317 3.24098 0
M  V30 13174 N 1271.3 -5.04712 2.47431 0
M  V30 13175 H 1263.45 -1.241 1.72375 0
M  V30 13176 H 1265.71 -0.603427 0.73115 0
M  V30 13177 H 1265.42 -2.663 2.29732 0
M  V30 13178 H 1265.29 -3.67111 0.866579 0
M  V30 13179 H 1267.68 -2.9448 0.191122 0
M  V30 13180 H 1267.76 -1.95183 1.6534 0
M  V30 13181 H 1267.4 -4.04696 3.06893 0
M  V30 13182 H 1267.33 -5.02326 1.58039 0
M  V30 13183 H 1269.83 -3.46307 1.51262 0
M  V30 13184 H 1270.14 -6.80842 3.65615 0
M  V30 13185 H 1268.48 -6.12628 3.28195 0
M  V30 13186 H 1271.67 -4.25524 1.95057 0
M  V30 13187 H 1271.85 -5.78085 2.92783 0
M  V30 13188 N 1265.25 -0.510493 -1.49103 0
M  V30 13189 C 1266.19 0.299697 -2.27232 0
M  V30 13190 C 1267.2 0.922102 -1.34168 0
M  V30 13191 O 1268.39 0.803836 -1.59376 0
M  V30 13192 C 1265.49 1.43778 -3.06889 0
M  V30 13193 C 1264.66 0.920927 -4.27595 0
M  V30 13194 C 1263.72 1.93777 -4.89221 0
M  V30 13195 O 1262.75 1.5025 -5.49011 0
M  V30 13196 N 1263.95 3.2688 -4.79718 0
M  V30 13197 H 1266.71 -0.37028 -2.97404 0
M  V30 13198 H 1264.27 -0.343617 -1.58212 0
M  V30 13199 H 1266.27 2.11577 -3.44988 0
M  V30 13200 H 1264.84 2.01175 -2.39264 0
M  V30 13201 H 1264.06 0.0675358 -3.94142 0
M  V30 13202 H 1265.34 0.554168 -5.05773 0
M  V30 13203 H 1264.74 3.64924 -4.32258 0
M  V30 13204 H 1263.3 3.90366 -5.21974 0
M  V30 13205 N 1266.73 1.55688 -0.24474 0
M  V30 13206 C 1267.69 2.20014 0.642382 0
M  V30 13207 C 1268.69 1.16877 1.10437 0
M  V30 13208 O 1269.88 1.41972 1.00943 0
M  V30 13209 C 1267.02 2.84198 1.88267 0
M  V30 13210 H 1268.21 2.9979 0.0811937 0
M  V30 13211 H 1265.76 1.56299 0.00480917 0
M  V30 13212 H 1266.5 2.08354 2.48514 0
M  V30 13213 H 1266.28 3.59747 1.55963 0
M  V30 13214 H 1267.77 3.33434 2.5142 0
M  V30 13215 N 1268.21 -0.0283989 1.57574 0
M  V30 13216 C 1269.14 -1.02828 2.09639 0
M  V30 13217 C 1270.12 -1.37668 0.999076 0
M  V30 13218 O 1271.31 -1.4654 1.27435 0
M  V30 13219 C 1268.44 -2.329 2.57633 0
M  V30 13220 C 1267.39 -2.12301 3.71635 0
M  V30 13221 C 1266.72 -3.48138 4.05837 0
M  V30 13222 C 1268.02 -1.50864 5.00037 0
M  V30 13223 H 1269.71 -0.594876 2.93431 0
M  V30 13224 H 1267.26 -0.284701 1.41158 0
M  V30 13225 H 1269.21 -3.03179 2.92678 0
M  V30 13226 H 1267.93 -2.78302 1.70926 0
M  V30 13227 H 1266.59 -1.44454 3.3694 0
M  V30 13228 H 1266.24 -3.9119 3.16195 0
M  V30 13229 H 1265.94 -3.3518 4.82626 0
M  V30 13230 H 1267.46 -4.19779 4.43417 0
M  V30 13231 H 1268.88 -2.11062 5.33035 0
M  V30 13232 H 1267.27 -1.48479 5.81441 0
M  V30 13233 H 1268.34 -0.474541 4.82572 0
M  V30 13234 N 1269.69 -1.54705 -0.300681 0
M  V30 13235 C 1270.92 -1.77993 -1.0548 0
M  V30 13236 C 1271.33 -0.539574 -1.80926 0
M  V30 13237 O 1270.69 0.490597 -1.75782 0
M  V30 13238 C 1270.74 -2.98774 -2.0351 0
M  V30 13239 O 1270.46 -4.18016 -1.31126 0
M  V30 13240 C 1271.96 -3.34452 -2.90958 0
M  V30 13241 H 1269.18 -0.593628 -0.312805 0
M  V30 13242 H 1271.72 -2.01656 -0.339858 0
M  V30 13243 H 1269.88 -2.77318 -2.70506 0
M  V30 13244 H 1270.29 -4.86113 -1.96963 0
M  V30 13245 H 1271.77 -4.22206 -3.55593 0
M  V30 13246 H 1272.24 -2.52622 -3.59275 0
M  V30 13247 H 1272.85 -3.58069 -2.29493 0
M  V30 13248 N 1271.17 0.563888 -1.47167 0
M  V30 13249 C 1272.41 1.32136 -1.53448 0
M  V30 13250 C 1272.74 1.9353 -0.19396 0
M  V30 13251 O 1272 1.78038 0.812456 0
M  V30 13252 C 1272.3 2.45678 -2.59571 0
M  V30 13253 C 1271.96 2.02157 -4.03043 0
M  V30 13254 C 1270.62 1.90003 -4.421 0
M  V30 13255 C 1272.98 1.68846 -4.93093 0
M  V30 13256 C 1270.3 1.42825 -5.6905 0
M  V30 13257 C 1272.66 1.2314 -6.20499 0
M  V30 13258 C 1271.32 1.09578 -6.58444 0
M  V30 13259 H 1270.59 0.483519 -0.561507 0
M  V30 13260 H 1273.24 0.633042 -1.80734 0
M  V30 13261 H 1271.54 3.20037 -2.26017 0
M  V30 13262 H 1273.24 3.03871 -2.61655 0
M  V30 13263 H 1269.83 2.12557 -3.7218 0
M  V30 13264 H 1274.01 1.77111 -4.63622 0
M  V30 13265 H 1269.27 1.30983 -5.97205 0
M  V30 13266 H 1273.44 0.964247 -6.89692 0
M  V30 13267 H 1271.07 0.727975 -7.56706 0
M  V30 13268 N 1272.64 1.35187 0.810078 0
M  V30 13269 C 1273.89 1.28264 1.56699 0
M  V30 13270 C 1274.22 -0.143906 1.93967 0
M  V30 13271 O 1273.47 -1.10832 1.61291 0
M  V30 13272 C 1273.77 2.13135 2.86894 0
M  V30 13273 C 1273.44 3.61974 2.6886 0
M  V30 13274 C 1272.1 4.02545 2.63649 0
M  V30 13275 C 1274.45 4.5643 2.51636 0
M  V30 13276 C 1271.78 5.35745 2.39154 0
M  V30 13277 C 1274.13 5.89824 2.2867 0
M  V30 13278 C 1272.8 6.29544 2.2188 0
M  V30 13279 H 1272.07 0.469353 0.573401 0
M  V30 13280 H 1274.71 1.67051 0.936282 0
M  V30 13281 H 1273.02 1.67218 3.54324 0
M  V30 13282 H 1274.72 2.05117 3.44569 0
M  V30 13283 H 1271.31 3.29777 2.73761 0
M  V30 13284 H 1275.49 4.25974 2.54677 0
M  V30 13285 H 1270.75 5.65524 2.32363 0
M  V30 13286 H 1274.92 6.62597 2.14333 0
M  V30 13287 H 1272.55 7.32689 2.0266 0
M  V30 13288 N 1274.12 -1.03182 1.19127 0
M  V30 13289 C 1275.05 -2.13301 0.94999 0
M  V30 13290 C 1276.03 -1.69707 -0.115577 0
M  V30 13291 O 1277.22 -1.94161 0.0388395 0
M  V30 13292 C 1274.35 -3.43902 0.484637 0
M  V30 13293 C 1273.3 -4.01164 1.4917 0
M  V30 13294 C 1272.63 -5.2735 0.883537 0
M  V30 13295 C 1273.93 -4.36311 2.87107 0
M  V30 13296 H 1275.62 -2.33743 1.87095 0
M  V30 13297 H 1273.17 -1.12332 0.900977 0
M  V30 13298 H 1275.12 -4.20308 0.30315 0
M  V30 13299 H 1273.85 -3.23173 -0.471909 0
M  V30 13300 H 1272.5 -3.26849 1.66028 0
M  V30 13301 H 1272.15 -5.02936 -0.0804712 0
M  V30 13302 H 1271.85 -5.66624 1.55599 0
M  V30 13303 H 1273.38 -6.06425 0.71278 0
M  V30 13304 H 1274.79 -5.03666 2.73848 0
M  V30 13305 H 1273.19 -4.86659 3.51117 0
M  V30 13306 H 1274.26 -3.45743 3.39985 0
M  V30 13307 N 1275.6 -0.99472 -1.22242 0
M  V30 13308 C 1276.88 -0.587481 -1.86569 0
M  V30 13309 C 1277.26 0.935174 -1.89256 0
M  V30 13310 O 1276.61 1.81787 -1.3844 0
M  V30 13311 C 1276.82 -1.21001 -3.27353 0
M  V30 13312 C 1278.16 -1.31167 -4.03832 0
M  V30 13313 O 1279.19 -1.16454 -3.36626 0
M  V30 13314 O 1278.05 -1.54731 -5.24138 0
M  V30 13315 H 1275.14 -0.199838 -0.802492 0
M  V30 13316 H 1277.69 -1.09071 -1.30006 0
M  V30 13317 H 1276.46 -2.25143 -3.20041 0
M  V30 13318 H 1276.08 -0.692479 -3.91523 0
M  V30 13319 N 1277.08 1.37613 -0.768148 0
M  V30 13320 C 1278.33 1.99023 -0.327543 0
M  V30 13321 C 1278.64 1.61669 1.10103 0
M  V30 13322 O 1279.85 2.16155 1.64284 0
M  V30 13323 C 1278.3 3.55906 -0.534674 0
M  V30 13324 C 1277.91 4.02201 -1.97327 0
M  V30 13325 C 1279.65 4.24208 -0.157512 0
M  V30 13326 C 1277.56 5.51781 -2.12819 0
M  V30 13327 H 1276.49 0.744595 -0.118722 0
M  V30 13328 H 1279.14 1.5719 -0.946764 0
M  V30 13329 H 1277.52 3.95701 0.153951 0
M  V30 13330 H 1278.7 3.73661 -2.69655 0
M  V30 13331 H 1277.01 3.46671 -2.30669 0
M  V30 13332 H 1279.61 5.34107 -0.251824 0
M  V30 13333 H 1279.95 4.06636 0.89177 0
M  V30 13334 H 1280.49 3.89703 -0.798546 0
M  V30 13335 H 1277.23 5.74274 -3.16053 0
M  V30 13336 H 1276.75 5.82017 -1.4497 0
M  V30 13337 H 1278.42 6.17697 -1.92508 0
M  V30 13338 N 1278.56 0.518393 1.4883 0
M  V30 13339 C 1279.78 -0.0162 2.06894 0
M  V30 13340 C 1280.2 -1.29222 1.37649 0
M  V30 13341 O 1279.56 -1.766 0.460288 0
M  V30 13342 C 1279.61 -0.255836 3.60594 0
M  V30 13343 O 1279.33 0.969612 4.27235 0
M  V30 13344 C 1280.83 -0.832117 4.3542 0
M  V30 13345 H 1278.05 0.0282877 0.670403 0
M  V30 13346 H 1280.59 0.720726 1.91379 0
M  V30 13347 H 1278.75 -0.942782 3.75753 0
M  V30 13348 H 1279.16 0.743172 5.19208 0
M  V30 13349 H 1280.64 -0.949279 5.43776 0
M  V30 13350 H 1281.11 -1.83421 3.99066 0
M  V30 13351 H 1281.72 -0.1821 4.2491 0
M  V30 13352 N 1280.03 -1.55556 0.252993 0
M  V30 13353 C 1281.26 -2.03945 -0.376965 0
M  V30 13354 C 1281.68 -1.13089 -1.50308 0
M  V30 13355 O 1281.04 -0.125039 -1.80868 0
M  V30 13356 C 1281.09 -3.50284 -0.856363 0
M  V30 13357 O 1280.19 -3.62551 -1.96546 0
M  V30 13358 H 1279.54 -0.659002 -0.081317 0
M  V30 13359 H 1282.07 -2.01024 0.380831 0
M  V30 13360 H 1282.08 -3.91222 -1.15798 0
M  V30 13361 H 1280.75 -4.15887 -0.0323302 0
M  V30 13362 H 1279.33 -3.33511 -1.66808 0
M  V30 13363 N 1281.51 0.0200419 -1.57587 0
M  V30 13364 C 1282.92 0.565484 -1.7793 0
M  V30 13365 C 1283.27 1.75096 -0.885201 0
M  V30 13366 O 1282.4 2.16243 -0.0823831 0
M  V30 13367 C 1282.99 1.03263 -3.2268 0
M  V30 13368 C 1281.55 1.52352 -3.44189 0
M  V30 13369 C 1280.7 0.465637 -2.73363 0
M  V30 13370 H 1283.65 -0.206174 -1.57355 0
M  V30 13371 H 1283.67 1.89959 -3.2969 0
M  V30 13372 H 1283.18 0.169613 -3.87729 0
M  V30 13373 H 1281.29 2.40809 -2.84327 0
M  V30 13374 H 1281.4 1.5648 -4.52825 0
M  V30 13375 H 1279.76 0.922738 -2.37398 0
M  V30 13376 H 1280.55 -0.388068 -3.411 0
M  V30 13377 N 1282.99 1.54862 0.292472 0
M  V30 13378 C 1284.4 1.65459 0.864891 0
M  V30 13379 C 1284.75 0.568808 1.87774 0
M  V30 13380 O 1283.88 -0.293107 2.14406 0
M  V30 13381 C 1284.47 2.99939 1.5755 0
M  V30 13382 C 1283.03 3.12628 2.09621 0
M  V30 13383 C 1282.18 2.61179 0.931713 0
M  V30 13384 H 1285.13 1.58549 0.0692679 0
M  V30 13385 H 1285.15 2.91839 2.44152 0
M  V30 13386 H 1284.66 3.78943 0.838088 0
M  V30 13387 H 1282.76 2.3836 2.86383 0
M  V30 13388 H 1282.88 4.18911 2.32488 0
M  V30 13389 H 1281.24 2.17846 1.31967 0
M  V30 13390 H 1282.02 3.42669 0.208121 0
M  V30 13391 N 1284.47 -0.556076 1.47464 0
M  V30 13392 C 1285.69 -1.3434 1.58011 0
M  V30 13393 C 1286.12 -1.86674 0.231138 0
M  V30 13394 O 1285.48 -1.63029 -0.793174 0
M  V30 13395 C 1285.52 -2.48844 2.60977 0
M  V30 13396 O 1284.63 -3.51108 2.16326 0
M  V30 13397 H 1283.97 -0.398986 0.53076 0
M  V30 13398 H 1286.5 -0.671898 1.93253 0
M  V30 13399 H 1286.51 -2.95398 2.81432 0
M  V30 13400 H 1285.18 -2.10109 3.58925 0
M  V30 13401 H 1283.76 -3.10852 2.05975 0
M  V30 13402 N 1285.95 -1.35615 -0.802897 0
M  V30 13403 C 1287.36 -1.26062 -1.37715 0
M  V30 13404 C 1287.71 0.105411 -1.95917 0
M  V30 13405 O 1286.83 1.00648 -1.91569 0
M  V30 13406 C 1287.43 -2.28261 -2.50365 0
M  V30 13407 C 1285.99 -2.22437 -3.03642 0
M  V30 13408 C 1285.14 -2.1377 -1.76629 0
M  V30 13409 H 1288.09 -1.46689 -0.605631 0
M  V30 13410 H 1288.11 -1.91122 -3.29017 0
M  V30 13411 H 1287.62 -3.27671 -2.07975 0
M  V30 13412 H 1285.72 -1.2645 -3.50487 0
M  V30 13413 H 1285.83 -3.14558 -3.61373 0
M  V30 13414 H 1284.2 -1.59806 -1.98328 0
M  V30 13415 H 1284.98 -3.15046 -1.36385 0
M  V30 13416 N 1287.43 1.02549 -1.19673 0
M  V30 13417 C 1288.36 2.10991 -0.8953 0
M  V30 13418 C 1289.37 1.62405 0.113373 0
M  V30 13419 O 1290.56 1.7812 -0.116485 0
M  V30 13420 C 1287.66 3.37394 -0.319124 0
M  V30 13421 C 1286.83 4.15154 -1.37718 0
M  V30 13422 C 1285.89 5.19867 -0.81393 0
M  V30 13423 O 1284.92 5.49285 -1.49246 0
M  V30 13424 N 1286.12 5.79248 0.381089 0
M  V30 13425 H 1288.88 2.37438 -1.82875 0
M  V30 13426 H 1286.45 1.18867 -1.09919 0
M  V30 13427 H 1288.44 4.04637 0.0716106 0
M  V30 13428 H 1287.01 3.08267 0.518681 0
M  V30 13429 H 1286.23 3.4301 -1.94262 0
M  V30 13430 H 1287.52 4.63892 -2.09003 0
M  V30 13431 H 1286.91 5.5767 0.949791 0
M  V30 13432 H 1285.47 6.47882 0.713563 0
M  V30 13433 N 1288.9 1.00119 1.21713 0
M  V30 13434 C 1289.83 0.578504 2.2622 0
M  V30 13435 C 1290.81 -0.398777 1.6536 0
M  V30 13436 O 1292 -0.287596 1.92059 0
M  V30 13437 C 1289.13 -0.0994508 3.47158 0
M  V30 13438 C 1288.08 0.79722 4.2051 0
M  V30 13439 C 1287.41 -0.0141125 5.34698 0
M  V30 13440 C 1288.71 2.09802 4.7831 0
M  V30 13441 H 1290.4 1.45208 2.6183 0
M  V30 13442 H 1287.95 0.699656 1.2586 0
M  V30 13443 H 1289.9 -0.406605 4.19434 0
M  V30 13444 H 1288.63 -1.00763 3.10667 0
M  V30 13445 H 1287.29 1.08814 3.50079 0
M  V30 13446 H 1286.93 -0.923468 4.9445 0
M  V30 13447 H 1286.63 0.582883 5.84702 0
M  V30 13448 H 1288.16 -0.31517 6.09786 0
M  V30 13449 H 1289.57 1.85427 5.42485 0
M  V30 13450 H 1287.97 2.64455 5.38687 0
M  V30 13451 H 1289.04 2.77132 3.97902 0
M  V30 13452 N 1290.38 -1.37203 0.775435 0
M  V30 13453 C 1291.31 -2.32819 0.17826 0
M  V30 13454 C 1292.29 -1.55963 -0.678944 0
M  V30 13455 O 1293.48 -1.84183 -0.615648 0
M  V30 13456 C 1290.61 -3.40198 -0.698768 0
M  V30 13457 C 1289.56 -4.27961 0.057423 0
M  V30 13458 C 1288.89 -5.26385 -0.93929 0
M  V30 13459 C 1290.19 -5.07402 1.23856 0
M  V30 13460 H 1291.88 -2.8301 0.977028 0
M  V30 13461 H 1289.43 -1.3607 0.471274 0
M  V30 13462 H 1291.38 -4.06067 -1.12637 0
M  V30 13463 H 1290.1 -2.88541 -1.53009 0
M  V30 13464 H 1288.76 -3.63628 0.465848 0
M  V30 13465 H 1288.41 -4.71007 -1.76527 0
M  V30 13466 H 1288.11 -5.85966 -0.437844 0
M  V30 13467 H 1289.64 -5.9513 -1.36576 0
M  V30 13468 H 1291.05 -5.6639 0.887423 0
M  V30 13469 H 1289.45 -5.76327 1.67234 0
M  V30 13470 H 1290.52 -4.3986 2.04085 0
M  V30 13471 N 1291.86 -0.526279 -1.48553 0
M  V30 13472 C 1293.28 -0.183886 -1.58537 0
M  V30 13473 C 1293.48 1.31272 -1.52872 0
M  V30 13474 O 1292.53 2.09069 -1.41585 0
M  V30 13475 C 1293.84 -0.78313 -2.90323 0
M  V30 13476 C 1295.39 -0.751527 -3.03844 0
M  V30 13477 C 1295.87 -1.32928 -4.38285 0
M  V30 13478 N 1297.36 -1.29109 -4.44843 0
M  V30 13479 C 1298.09 -1.70806 -5.47369 0
M  V30 13480 N 1297.59 -2.20215 -6.56869 0
M  V30 13481 N 1299.38 -1.62065 -5.3823 0
M  V30 13482 H 1291.53 -1.499 -1.50478 0
M  V30 13483 H 1293.8 -0.623294 -0.714289 0
M  V30 13484 H 1293.5 -1.83371 -3.00113 0
M  V30 13485 H 1293.38 -0.25808 -3.76316 0
M  V30 13486 H 1295.76 0.290282 -2.93669 0
M  V30 13487 H 1295.84 -1.314 -2.19471 0
M  V30 13488 H 1295.49 -2.37 -4.49214 0
M  V30 13489 H 1295.42 -0.742516 -5.21339 0
M  V30 13490 H 1297.91 -0.929348 -3.66294 0
M  V30 13491 H 1298.22 -2.50035 -7.31233 0
M  V30 13492 H 1296.57 -2.24206 -6.57842 0
M  V30 13493 H 1299.76 -1.23265 -4.51579 0
M  V30 13494 H 1299.93 -1.94883 -6.18001 0
M  V30 13495 N 1293.34 1.5542 -0.261239 0
M  V30 13496 C 1294.27 2.24949 0.626126 0
M  V30 13497 C 1295.25 1.23474 1.16997 0
M  V30 13498 O 1296.43 1.52161 1.20667 0
M  V30 13499 C 1293.56 2.95996 1.81669 0
M  V30 13500 C 1292.52 4.04282 1.40499 0
M  V30 13501 C 1291.84 4.62831 2.67753 0
M  V30 13502 C 1293.14 5.1923 0.56543 0
M  V30 13503 H 1294.84 2.99364 0.0463164 0
M  V30 13504 H 1292.38 1.43985 0.0208366 0
M  V30 13505 H 1294.34 3.43343 2.44323 0
M  V30 13506 H 1293.06 2.19093 2.42211 0
M  V30 13507 H 1291.72 3.57726 0.801712 0
M  V30 13508 H 1291.37 3.82611 3.26524 0
M  V30 13509 H 1291.07 5.35938 2.40925 0
M  V30 13510 H 1292.59 5.12918 3.31281 0
M  V30 13511 H 1294.01 5.62714 1.09663 0
M  V30 13512 H 1292.4 5.98814 0.392607 0
M  V30 13513 H 1293.47 4.83086 -0.419059 0
M  V30 13514 N 1294.82 -0.0116844 1.57596 0
M  V30 13515 C 1295.75 -1.00599 2.10718 0
M  V30 13516 C 1296.73 -1.36601 1.01362 0
M  V30 13517 O 1297.91 -1.4518 1.28982 0
M  V30 13518 C 1295.04 -2.30155 2.60089 0
M  V30 13519 C 1294 -2.08347 3.73866 0
M  V30 13520 C 1293.32 -3.43814 4.09507 0
M  V30 13521 C 1294.62 -1.45552 5.01609 0
M  V30 13522 H 1296.32 -0.563721 2.94045 0
M  V30 13523 H 1293.86 -0.269714 1.41452 0
M  V30 13524 H 1295.81 -3.00058 2.95877 0
M  V30 13525 H 1294.54 -2.76473 1.73868 0
M  V30 13526 H 1293.2 -1.40872 3.38453 0
M  V30 13527 H 1292.85 -3.87814 3.20326 0
M  V30 13528 H 1292.55 -3.30043 4.86154 0
M  V30 13529 H 1294.07 -4.15052 4.47844 0
M  V30 13530 H 1295.48 -2.05396 5.35243 0
M  V30 13531 H 1293.88 -1.42304 5.82983 0
M  V30 13532 H 1294.95 -0.423331 4.83049 0
M  V30 13533 N 1296.29 -1.55015 -0.284256 0
M  V30 13534 C 1297.52 -1.79431 -1.04016 0
M  V30 13535 C 1297.94 -0.560254 -1.79563 0
M  V30 13536 O 1297.3 0.489804 -1.74558 0
M  V30 13537 C 1297.35 -3.01162 -1.98328 0
M  V30 13538 O 1296.45 -2.75459 -3.06914 0
M  V30 13539 H 1295.79 -0.593391 -0.297965 0
M  V30 13540 H 1298.32 -2.02136 -0.316585 0
M  V30 13541 H 1298.33 -3.29589 -2.40489 0
M  V30 13542 H 1297.01 -3.90634 -1.42751 0
M  V30 13543 H 1295.59 -2.58096 -2.69148 0
M  V30 13544 N 1297.77 0.548248 -1.47757 0
M  V30 13545 C 1299 1.3302 -1.58472 0
M  V30 13546 C 1299.41 1.87292 -0.238186 0
M  V30 13547 O 1298.77 1.65465 0.76991 0
M  V30 13548 C 1298.82 2.49386 -2.61704 0
M  V30 13549 O 1298.54 1.97355 -3.9113 0
M  V30 13550 C 1300.04 3.41471 -2.82688 0
M  V30 13551 H 1297.26 0.405172 -0.534861 0
M  V30 13552 H 1299.81 0.663251 -1.93446 0
M  V30 13553 H 1297.96 3.12001 -2.29639 0
M  V30 13554 H 1298.38 2.7339 -4.47614 0
M  V30 13555 H 1299.85 4.19516 -3.58762 0
M  V30 13556 H 1300.33 3.95573 -1.90837 0
M  V30 13557 H 1300.93 2.84664 -3.15985 0
M  V30 13558 N 1299.25 1.36039 0.795694 0
M  V30 13559 C 1300.18 1.32528 1.92246 0
M  V30 13560 C 1301.16 0.197805 1.68946 0
M  V30 13561 O 1302.35 0.394474 1.90151 0
M  V30 13562 C 1299.48 1.10748 3.29169 0
M  V30 13563 C 1298.43 2.20253 3.66978 0
M  V30 13564 C 1297.76 1.83624 5.02181 0
M  V30 13565 C 1299.06 3.62296 3.76216 0
M  V30 13566 H 1300.75 2.2681 1.95442 0
M  V30 13567 H 1298.3 1.09181 0.938908 0
M  V30 13568 H 1300.25 1.06929 4.07608 0
M  V30 13569 H 1298.97 0.129141 3.26345 0
M  V30 13570 H 1297.63 2.23187 2.90832 0
M  V30 13571 H 1297.28 0.843804 4.95872 0
M  V30 13572 H 1296.98 2.56935 5.28449 0
M  V30 13573 H 1298.5 1.81349 5.83048 0
M  V30 13574 H 1299.92 3.61623 4.44861 0
M  V30 13575 H 1298.31 4.34459 4.13963 0
M  V30 13576 H 1299.38 3.97657 2.77483 0
M  V30 13577 N 1300.73 -1.01913 1.20215 0
M  V30 13578 C 1301.69 -2.08563 0.950481 0
M  V30 13579 C 1302.69 -1.60634 -0.0729659 0
M  V30 13580 O 1303.88 -1.73437 0.162826 0
M  V30 13581 C 1301.01 -3.38171 0.430453 0
M  V30 13582 H 1302.21 -2.32323 1.89647 0
M  V30 13583 H 1299.76 -1.18674 1.01716 0
M  V30 13584 H 1300.49 -3.20086 -0.521126 0
M  V30 13585 H 1300.28 -3.74284 1.1685 0
M  V30 13586 H 1301.77 -4.16702 0.273781 0
M  V30 13587 N 1302.21 -1.00763 -1.2118 0
M  V30 13588 C 1303.12 -0.579646 -2.27326 0
M  V30 13589 C 1304.13 0.378592 -1.69831 0
M  V30 13590 O 1305.31 0.241772 -1.99944 0
M  V30 13591 C 1302.37 0.0843648 -3.46597 0
M  V30 13592 C 1301.43 -0.918685 -4.19355 0
M  V30 13593 C 1300.67 -0.286267 -5.32932 0
M  V30 13594 O 1300.89 0.916274 -5.62993 0
M  V30 13595 O 1299.82 -0.998513 -5.9356 0
M  V30 13596 H 1303.65 -1.46311 -2.66133 0
M  V30 13597 H 1301.24 -0.776641 -1.27627 0
M  V30 13598 H 1303.12 0.455636 -4.18929 0
M  V30 13599 H 1301.79 0.942166 -3.09685 0
M  V30 13600 H 1300.7 -1.34116 -3.49233 0
M  V30 13601 H 1302.03 -1.74616 -4.60185 0
M  V30 13602 N 1303.68 1.3679 -0.7827 0
M  V30 13603 C 1304.59 2.33928 -0.17747 0
M  V30 13604 C 1305.61 1.60716 0.666802 0
M  V30 13605 O 1306.79 1.92742 0.584162 0
M  V30 13606 C 1303.85 3.39907 0.68294 0
M  V30 13607 C 1302.91 4.28926 -0.179053 0
M  V30 13608 C 1302.15 5.29844 0.640386 0
M  V30 13609 O 1302.37 5.38639 1.87681 0
M  V30 13610 O 1301.3 6.01884 0.0438164 0
M  V30 13611 H 1305.13 2.87439 -0.980441 0
M  V30 13612 H 1302.71 1.39142 -0.54404 0
M  V30 13613 H 1304.6 4.04722 1.17379 0
M  V30 13614 H 1303.27 2.88706 1.46391 0
M  V30 13615 H 1302.18 3.67174 -0.716512 0
M  V30 13616 H 1303.51 4.83461 -0.923377 0
M  V30 13617 N 1305.16 0.53415 1.48272 0
M  V30 13618 C 1306.57 0.0947592 1.86459 0
M  V30 13619 C 1306.92 -1.32906 1.44328 0
M  V30 13620 O 1306.05 -1.99605 0.835866 0
M  V30 13621 C 1306.64 0.16519 3.38397 0
M  V30 13622 C 1305.2 -0.219029 3.75762 0
M  V30 13623 C 1304.35 0.523097 2.72321 0
M  V30 13624 H 1307.3 0.74517 1.40117 0
M  V30 13625 H 1307.32 -0.622065 3.75381 0
M  V30 13626 H 1306.83 1.20157 3.69031 0
M  V30 13627 H 1304.94 -1.2574 3.50742 0
M  V30 13628 H 1305.05 0.123482 4.78941 0
M  V30 13629 H 1303.41 -0.0311323 2.54681 0
M  V30 13630 H 1304.2 1.56019 3.05799 0
M  V30 13631 N 1306.64 -1.55279 0.269478 0
M  V30 13632 C 1308.06 -1.59374 -0.0848147 0
M  V30 13633 C 1308.26 -1.2867 -1.55068 0
M  V30 13634 O 1307.31 -1.04486 -2.29867 0
M  V30 13635 C 1308.63 -2.99349 0.284735 0
M  V30 13636 C 1310.17 -3.12147 0.230887 0
M  V30 13637 C 1310.65 -4.54379 0.574795 0
M  V30 13638 N 1312.14 -4.60202 0.526136 0
M  V30 13639 C 1312.87 -5.68273 0.765109 0
M  V30 13640 N 1312.37 -6.84512 1.0684 0
M  V30 13641 N 1314.16 -5.57796 0.694287 0
M  V30 13642 H 1306.31 -1.73503 1.22517 0
M  V30 13643 H 1308.58 -0.808771 0.494564 0
M  V30 13644 H 1308.28 -3.26633 1.30398 0
M  V30 13645 H 1308.16 -3.75309 -0.377199 0
M  V30 13646 H 1310.54 -2.84631 -0.779064 0
M  V30 13647 H 1310.63 -2.38412 0.926998 0
M  V30 13648 H 1310.27 -4.8262 1.58241 0
M  V30 13649 H 1310.2 -5.26406 -0.143044 0
M  V30 13650 H 1312.69 -3.76696 0.301368 0
M  V30 13651 H 1313 -7.62826 1.23757 0
M  V30 13652 H 1311.35 -6.86141 1.10612 0
M  V30 13653 H 1314.54 -4.65862 0.457226 0
M  V30 13654 H 1314.71 -6.41943 0.883913 0
M  V30 13655 N 1308.12 0.00332656 -1.576 0
M  V30 13656 C 1309.03 1.01221 -2.1164 0
M  V30 13657 C 1310.04 1.37918 -1.06088 0
M  V30 13658 O 1311.22 1.46717 -1.37971 0
M  V30 13659 C 1308.29 2.28638 -2.60626 0
M  V30 13660 C 1307.35 1.98284 -3.80765 0
M  V30 13661 C 1306.58 3.19626 -4.27405 0
M  V30 13662 O 1306.8 4.31196 -3.73398 0
M  V30 13663 O 1305.74 3.03819 -5.19594 0
M  V30 13664 H 1309.56 0.582839 -2.98055 0
M  V30 13665 H 1307.15 0.221947 -1.47742 0
M  V30 13666 H 1309.03 3.03498 -2.92347 0
M  V30 13667 H 1307.7 2.70819 -1.7731 0
M  V30 13668 H 1306.61 1.2091 -3.54022 0
M  V30 13669 H 1307.94 1.60942 -4.65144 0
M  V30 13670 N 1309.6 1.55164 0.276031 0
M  V30 13671 C 1310.53 1.84243 1.36335 0
M  V30 13672 C 1311.54 0.726745 1.45679 0
M  V30 13673 O 1312.73 1.00456 1.4755 0
M  V30 13674 C 1309.83 1.98768 2.7449 0
M  V30 13675 C 1309 3.294 2.87775 0
M  V30 13676 C 1308.06 3.34029 4.06585 0
M  V30 13677 O 1307.09 4.07423 3.97486 0
M  V30 13678 N 1308.29 2.61213 5.18409 0
M  V30 13679 H 1311.06 2.78092 1.11736 0
M  V30 13680 H 1308.62 1.55044 0.466143 0
M  V30 13681 H 1310.61 1.99238 3.52259 0
M  V30 13682 H 1309.18 1.11799 2.91924 0
M  V30 13683 H 1308.4 3.41494 1.96914 0
M  V30 13684 H 1309.69 4.15558 2.93579 0
M  V30 13685 H 1309.08 2.01261 5.28687 0
M  V30 13686 H 1307.64 2.67409 5.9442 0
M  V30 13687 N 1311.07 -0.540404 1.48045 0
M  V30 13688 C 1312.01 -1.66164 1.57867 0
M  V30 13689 C 1313.02 -1.56058 0.463655 0
M  V30 13690 O 1314.21 -1.62709 0.734038 0
M  V30 13691 C 1311.31 -3.04748 1.48263 0
M  V30 13692 C 1310.48 -3.40441 2.74625 0
M  V30 13693 C 1309.54 -4.58259 2.58621 0
M  V30 13694 O 1308.57 -4.62 3.32482 0
M  V30 13695 N 1309.77 -5.55794 1.67551 0
M  V30 13696 H 1312.53 -1.58179 2.54557 0
M  V30 13697 H 1310.09 -0.727441 1.44637 0
M  V30 13698 H 1312.09 -3.81425 1.35267 0
M  V30 13699 H 1310.66 -3.06868 0.595892 0
M  V30 13700 H 1309.88 -2.53044 3.02262 0
M  V30 13701 H 1311.16 -3.61069 3.58478 0
M  V30 13702 H 1310.56 -5.55541 1.06725 0
M  V30 13703 H 1309.12 -6.3173 1.60499 0
M  V30 13704 N 1312.55 -1.36459 -0.788468 0
M  V30 13705 C 1313.46 -1.33017 -1.93245 0
M  V30 13706 C 1314.48 -0.232212 -1.72444 0
M  V30 13707 O 1315.65 -0.464743 -1.95965 0
M  V30 13708 C 1312.72 -1.1197 -3.28121 0
M  V30 13709 C 1311.78 -2.3125 -3.61693 0
M  V30 13710 C 1311.01 -2.11197 -4.90134 0
M  V30 13711 O 1311.24 -1.08764 -5.59934 0
M  V30 13712 O 1310.17 -2.98996 -5.22384 0
M  V30 13713 H 1314 -2.29333 -1.99098 0
M  V30 13714 H 1311.58 -1.17016 -0.928856 0
M  V30 13715 H 1313.46 -1.02154 -4.08831 0
M  V30 13716 H 1312.14 -0.187171 -3.23158 0
M  V30 13717 H 1311.05 -2.46635 -2.81286 0
M  V30 13718 H 1312.38 -3.23012 -3.71381 0
M  V30 13719 N 1314.03 1.01274 -1.20754 0
M  V30 13720 C 1314.96 2.11763 -0.983805 0
M  V30 13721 C 1315.94 1.69869 0.0885635 0
M  V30 13722 O 1317.13 1.94075 -0.0697239 0
M  V30 13723 C 1314.26 3.43087 -0.539287 0
M  V30 13724 C 1313.21 3.9874 -1.55534 0
M  V30 13725 C 1312.54 5.25877 -0.967322 0
M  V30 13726 C 1313.84 4.31688 -2.94012 0
M  V30 13727 H 1315.53 2.30737 -1.90789 0
M  V30 13728 H 1313.08 1.10884 -0.918734 0
M  V30 13729 H 1315.03 4.19773 -0.369979 0
M  V30 13730 H 1313.75 3.23883 0.420435 0
M  V30 13731 H 1312.41 3.24166 -1.71207 0
M  V30 13732 H 1312.06 5.03 0.000448307 0
M  V30 13733 H 1311.76 5.64077 -1.64594 0
M  V30 13734 H 1313.28 6.05215 -0.809167 0
M  V30 13735 H 1314.7 4.99246 -2.81827 0
M  V30 13736 H 1313.1 4.81011 -3.58815 0
M  V30 13737 H 1314.17 3.4029 -3.45442 0
M  V30 13738 N 1315.51 1.01404 1.20644 0
M  V30 13739 C 1316.42 0.591693 2.27016 0
M  V30 13740 C 1317.44 -0.36958 1.7003 0
M  V30 13741 O 1318.61 -0.231165 2.00069 0
M  V30 13742 C 1315.68 -0.0659827 3.46637 0
M  V30 13743 C 1314.74 0.940911 4.18862 0
M  V30 13744 C 1313.97 0.314526 5.32772 0
M  V30 13745 O 1314.19 -0.886404 5.63471 0
M  V30 13746 O 1313.13 1.02998 5.93022 0
M  V30 13747 H 1316.95 1.4772 2.65353 0
M  V30 13748 H 1314.54 0.783399 1.27213 0
M  V30 13749 H 1316.42 -0.433412 4.19165 0
M  V30 13750 H 1315.1 -0.925729 3.10181 0
M  V30 13751 H 1314 1.35966 3.48517 0
M  V30 13752 H 1315.34 1.77054 4.59252 0
M  V30 13753 N 1316.99 -1.36373 0.789944 0
M  V30 13754 C 1317.95 -2.28372 0.194639 0
M  V30 13755 C 1318.95 -1.48849 -0.608332 0
M  V30 13756 O 1320.14 -1.68829 -0.42925 0
M  V30 13757 C 1317.27 -3.3298 -0.730553 0
M  V30 13758 H 1318.47 -2.82529 1.00585 0
M  V30 13759 H 1316.02 -1.45946 0.559406 0
M  V30 13760 H 1316.75 -2.8398 -1.56608 0
M  V30 13761 H 1316.54 -3.91787 -0.156706 0
M  V30 13762 H 1318.03 -4.01684 -1.14192 0
M  V30 13763 N 1318.47 -0.542005 -1.47987 0
M  V30 13764 C 1319.4 0.202703 -2.32618 0
M  V30 13765 C 1320.38 0.923521 -1.42846 0
M  V30 13766 O 1321.56 0.906957 -1.7172 0
M  V30 13767 C 1318.69 1.24267 -3.24307 0
M  V30 13768 C 1317.65 0.639257 -4.23199 0
M  V30 13769 C 1316.97 1.78275 -5.04105 0
M  V30 13770 C 1318.27 -0.396982 -5.20789 0
M  V30 13771 H 1319.97 -0.503817 -2.95131 0
M  V30 13772 H 1317.51 -0.243736 -1.41922 0
M  V30 13773 H 1319.46 1.7717 -3.82347 0
M  V30 13774 H 1318.19 1.97893 -2.59819 0
M  V30 13775 H 1316.85 0.131655 -3.66364 0
M  V30 13776 H 1316.5 2.50768 -4.36032 0
M  V30 13777 H 1316.2 1.38487 -5.71047 0
M  V30 13778 H 1317.72 2.31533 -5.65 0
M  V30 13779 H 1319.13 0.0454057 -5.73282 0
M  V30 13780 H 1317.53 -0.712911 -5.9585 0
M  V30 13781 H 1318.6 -1.29843 -4.67193 0
M  V30 13782 N 1319.94 1.55134 -0.277709 0
M  V30 13783 C 1321.17 2.04519 0.344472 0
M  V30 13784 C 1321.59 1.15466 1.4849 0
M  V30 13785 O 1320.95 0.153798 1.80646 0
M  V30 13786 C 1321 3.51602 0.800527 0
M  V30 13787 O 1320.1 3.65632 1.90754 0
M  V30 13788 H 1319.44 0.660212 0.0708226 0
M  V30 13789 H 1321.97 2.00393 -0.412764 0
M  V30 13790 H 1321.98 3.93015 1.09559 0
M  V30 13791 H 1320.66 4.15886 -0.033838 0
M  V30 13792 H 1319.24 3.36122 1.61481 0
M  V30 13793 N 1321.42 0.00503138 1.57599 0
M  V30 13794 C 1322.35 -1.01302 2.05598 0
M  V30 13795 C 1323.37 -1.30388 0.974829 0
M  V30 13796 O 1324.56 -1.27275 1.25153 0
M  V30 13797 C 1321.66 -2.34654 2.44522 0
M  V30 13798 C 1320.83 -2.24436 3.7543 0
M  V30 13799 C 1319.89 -3.40517 4.01166 0
M  V30 13800 O 1318.91 -3.18479 4.71762 0
M  V30 13801 N 1320.12 -4.63532 3.49454 0
M  V30 13802 H 1322.88 -0.603656 2.93558 0
M  V30 13803 H 1320.44 -0.182248 1.60871 0
M  V30 13804 H 1322.43 -3.11093 2.5885 0
M  V30 13805 H 1321 -2.67315 1.62055 0
M  V30 13806 H 1320.22 -1.32875 3.71131 0
M  V30 13807 H 1321.51 -2.14786 4.61242 0
M  V30 13808 H 1320.91 -4.84334 2.92296 0
M  V30 13809 H 1319.47 -5.37221 3.69103 0
M  V30 13810 N 1322.9 -1.55308 -0.267798 0
M  V30 13811 C 1324.18 -1.66881 -1.02029 0
M  V30 13812 C 1324.56 -0.538708 -2.04111 0
M  V30 13813 O 1323.9 0.460575 -2.2381 0
M  V30 13814 C 1324.11 -3.06318 -1.67243 0
M  V30 13815 C 1325.46 -3.64237 -2.18212 0
M  V30 13816 O 1326.49 -3.08984 -1.77221 0
M  V30 13817 O 1325.35 -4.61055 -2.93413 0
M  V30 13818 H 1322.44 -0.677967 -0.473593 0
M  V30 13819 H 1324.99 -1.67646 -0.263242 0
M  V30 13820 H 1323.76 -3.80015 -0.932985 0
M  V30 13821 H 1323.38 -3.09475 -2.49622 0
M  V30 13822 N 1324.38 0.532545 -1.4833 0
M  V30 13823 C 1325.79 1.11451 -1.49785 0
M  V30 13824 C 1326.14 1.94386 -0.266207 0
M  V30 13825 O 1325.26 2.07121 0.62688 0
M  V30 13826 C 1325.86 2.0279 -2.71407 0
M  V30 13827 C 1324.42 2.56209 -2.75742 0
M  V30 13828 C 1323.57 1.33114 -2.43261 0
M  V30 13829 H 1326.52 0.317924 -1.55483 0
M  V30 13830 H 1326.54 2.87038 -2.49779 0
M  V30 13831 H 1326.05 1.42401 -3.61031 0
M  V30 13832 H 1324.15 3.20327 -1.9032 0
M  V30 13833 H 1324.26 2.95518 -3.77102 0
M  V30 13834 H 1322.63 1.64607 -1.94362 0
M  V30 13835 H 1323.41 0.744809 -3.35123 0
M  V30 13836 N 1325.86 1.36875 0.78122 0
M  V30 13837 C 1327.27 1.17467 1.08044 0
M  V30 13838 C 1327.47 0.00434799 2.015 0
M  V30 13839 O 1326.53 -0.658499 2.43762 0
M  V30 13840 C 1327.84 2.48917 1.68704 0
M  V30 13841 C 1329.39 2.55354 1.81007 0
M  V30 13842 C 1329.86 3.8691 2.45081 0
M  V30 13843 N 1331.35 3.88301 2.52541 0
M  V30 13844 C 1332.09 4.86837 3.02947 0
M  V30 13845 N 1331.59 5.95768 3.53598 0
M  V30 13846 N 1333.38 4.74249 3.01735 0
M  V30 13847 H 1325.53 2.11793 0.160503 0
M  V30 13848 H 1327.79 0.938507 0.133825 0
M  V30 13849 H 1327.5 3.34867 1.07503 0
M  V30 13850 H 1327.37 2.65319 2.68115 0
M  V30 13851 H 1329.76 1.69816 2.41343 0
M  V30 13852 H 1329.84 2.42843 0.803783 0
M  V30 13853 H 1329.48 4.72858 1.85386 0
M  V30 13854 H 1329.41 3.9672 3.46296 0
M  V30 13855 H 1331.91 3.09607 2.16684 0
M  V30 13856 H 1332.22 6.66918 3.90435 0
M  V30 13857 H 1330.56 5.99426 3.51728 0
M  V30 13858 H 1333.75 3.88275 2.61458 0
M  V30 13859 H 1333.93 5.512 3.40709 0
M  V30 13860 N 1327.33 -1.00632 1.21289 0
M  V30 13861 C 1328.75 -1.26744 0.969956 0
M  V30 13862 C 1328.95 -1.98534 -0.344449 0
M  V30 13863 O 1328.01 -2.28687 -1.07044 0
M  V30 13864 C 1329.32 -2.09238 2.15963 0
M  V30 13865 C 1330.87 -2.22469 2.20174 0
M  V30 13866 C 1331.34 -3.08344 3.38656 0
M  V30 13867 N 1332.83 -3.15932 3.38734 0
M  V30 13868 C 1333.57 -3.82632 4.2706 0
M  V30 13869 N 1333.06 -4.51371 5.25582 0
M  V30 13870 N 1334.86 -3.79259 4.14872 0
M  V30 13871 H 1327.01 -0.524626 2.05819 0
M  V30 13872 H 1329.27 -0.294231 0.901184 0
M  V30 13873 H 1328.98 -1.63835 3.11209 0
M  V30 13874 H 1328.85 -3.09987 2.14914 0
M  V30 13875 H 1331.24 -2.67091 1.25485 0
M  V30 13876 H 1331.32 -1.21194 2.25268 0
M  V30 13877 H 1330.96 -2.64425 4.33638 0
M  V30 13878 H 1330.89 -4.0973 3.30801 0
M  V30 13879 H 1333.38 -2.66998 2.67434 0
M  V30 13880 H 1333.7 -4.99966 5.89283 0
M  V30 13881 H 1332.04 -4.50162 5.29508 0
M  V30 13882 H 1335.23 -3.2471 3.37166 0
M  V30 13883 H 1335.41 -4.30963 4.83916 0
M  V30 13884 N 1328.81 -1.02043 -1.20104 0
M  V30 13885 C 1330.04 -0.730255 -1.93264 0
M  V30 13886 C 1330.45 0.71359 -1.75227 0
M  V30 13887 O 1329.79 1.49609 -1.06597 0
M  V30 13888 C 1329.85 -0.990978 -3.45572 0
M  V30 13889 C 1329.52 -2.4247 -3.87373 0
M  V30 13890 C 1330.52 -3.40569 -3.92822 0
M  V30 13891 C 1328.2 -2.76645 -4.19253 0
M  V30 13892 C 1330.19 -4.70904 -4.29568 0
M  V30 13893 C 1327.88 -4.07192 -4.55673 0
M  V30 13894 C 1328.88 -5.04132 -4.60804 0
M  V30 13895 O 1328.57 -6.32341 -4.96386 0
M  V30 13896 H 1328.3 -0.267146 -0.620974 0
M  V30 13897 H 1330.85 -1.36557 -1.53432 0
M  V30 13898 H 1329.08 -0.298508 -3.85546 0
M  V30 13899 H 1330.77 -0.691793 -3.99961 0
M  V30 13900 H 1331.54 -3.15503 -3.68352 0
M  V30 13901 H 1327.42 -2.01876 -4.14448 0
M  V30 13902 H 1330.96 -5.46566 -4.33487 0
M  V30 13903 H 1326.86 -4.32035 -4.796 0
M  V30 13904 H 1327.63 -6.36687 -5.14365 0
M  V30 13905 N 1330.29 1.35952 -0.797165 0
M  V30 13906 C 1331.2 2.33726 -0.202271 0
M  V30 13907 C 1332.22 1.61415 0.649719 0
M  V30 13908 O 1333.39 1.93351 0.563686 0
M  V30 13909 C 1330.46 3.40612 0.64685 0
M  V30 13910 C 1329.52 4.28712 -0.224536 0
M  V30 13911 C 1328.75 5.30493 0.584153 0
M  V30 13912 O 1328.97 5.40599 1.81957 0
M  V30 13913 O 1327.91 6.01897 -0.0200239 0
M  V30 13914 H 1331.73 2.86383 -1.01087 0
M  V30 13915 H 1329.32 1.38557 -0.558768 0
M  V30 13916 H 1331.2 4.05944 1.1308 0
M  V30 13917 H 1329.88 2.90243 1.43321 0
M  V30 13918 H 1328.78 3.66394 -0.755415 0
M  V30 13919 H 1330.12 4.82454 -0.974603 0
M  V30 13920 N 1331.77 0.549846 1.47697 0
M  V30 13921 C 1332.68 -0.205286 2.337 0
M  V30 13922 C 1333.69 -0.919271 1.47734 0
M  V30 13923 O 1334.87 -0.889808 1.80678 0
M  V30 13924 C 1331.94 -1.22658 3.24278 0
M  V30 13925 C 1331 -0.520815 4.26129 0
M  V30 13926 C 1330.23 -1.49345 5.12378 0
M  V30 13927 O 1330.45 -2.72772 5.00951 0
M  V30 13928 O 1329.39 -1.02197 5.93161 0
M  V30 13929 H 1333.21 0.499982 2.99556 0
M  V30 13930 H 1330.8 0.310538 1.46137 0
M  V30 13931 H 1332.68 -1.8163 3.80248 0
M  V30 13932 H 1331.35 -1.9139 2.61059 0
M  V30 13933 H 1330.26 0.109906 3.73939 0
M  V30 13934 H 1331.59 0.124922 4.92041 0
M  V30 13935 N 1333.25 -1.54984 0.285932 0
M  V30 13936 C 1334.49 -2.00848 -0.321162 0
M  V30 13937 C 1334.85 -1.17086 -1.52672 0
M  V30 13938 O 1334.14 -0.235523 -1.90147 0
M  V30 13939 C 1334.33 -3.49581 -0.7435 0
M  V30 13940 C 1334.16 -4.47738 0.419586 0
M  V30 13941 C 1332.93 -4.97096 0.906821 0
M  V30 13942 C 1335.13 -4.98636 1.25963 0
M  V30 13943 N 1333.11 -5.79076 2.03824 0
M  V30 13944 C 1334.48 -5.78169 2.23878 0
M  V30 13945 C 1336.54 -4.80852 1.29174 0
M  V30 13946 C 1335.24 -6.41813 3.2476 0
M  V30 13947 C 1337.27 -5.45303 2.28906 0
M  V30 13948 C 1336.63 -6.24656 3.25552 0
M  V30 13949 H 1332.73 -0.777647 -0.0823951 0
M  V30 13950 H 1335.31 -1.90282 0.412418 0
M  V30 13951 H 1333.48 -3.60468 -1.44628 0
M  V30 13952 H 1335.22 -3.82261 -1.32885 0
M  V30 13953 H 1331.97 -4.71117 0.484305 0
M  V30 13954 H 1332.4 -6.24754 2.6079 0
M  V30 13955 H 1337.04 -4.19097 0.558318 0
M  V30 13956 H 1334.76 -7.0271 3.99029 0
M  V30 13957 H 1338.34 -5.33479 2.32145 0
M  V30 13958 H 1337.22 -6.73645 4.01462 0
M  V30 13959 N 1334.72 -0.0133892 -1.57594 0
M  V30 13960 C 1335.67 0.97367 -2.09257 0
M  V30 13961 C 1336.64 1.33298 -0.990998 0
M  V30 13962 O 1337.83 1.42903 -1.26425 0
M  V30 13963 C 1334.97 2.25603 -2.61147 0
M  V30 13964 C 1334.08 1.95456 -3.85254 0
M  V30 13965 C 1333.21 3.17871 -4.25596 0
M  V30 13966 C 1332.25 2.83471 -5.42504 0
M  V30 13967 N 1331.39 3.98464 -5.78075 0
M  V30 13968 H 1336.23 0.526189 -2.93318 0
M  V30 13969 H 1333.77 0.248148 -1.44992 0
M  V30 13970 H 1335.73 3.00587 -2.89315 0
M  V30 13971 H 1334.36 2.67995 -1.7994 0
M  V30 13972 H 1333.41 1.10781 -3.63912 0
M  V30 13973 H 1334.72 1.6611 -4.70328 0
M  V30 13974 H 1333.87 4.0119 -4.55117 0
M  V30 13975 H 1332.61 3.50365 -3.39257 0
M  V30 13976 H 1331.62 1.98562 -5.12692 0
M  V30 13977 H 1332.84 2.5221 -6.30529 0
M  V30 13978 H 1330.79 4.3083 -4.94694 0
M  V30 13979 H 1330.71 3.72688 -6.57753 0
M  V30 13980 H 1331.97 4.82532 -6.12195 0
M  V30 13981 N 1336.2 1.55448 0.259558 0
M  V30 13982 C 1337.45 1.77868 0.986641 0
M  V30 13983 C 1337.8 0.580238 1.83442 0
M  V30 13984 O 1337.1 -0.426821 1.86785 0
M  V30 13985 C 1337.29 3.03292 1.89073 0
M  V30 13986 C 1337.12 4.35221 1.13194 0
M  V30 13987 C 1335.89 4.98233 0.842166 0
M  V30 13988 C 1338.09 5.11708 0.515735 0
M  V30 13989 N 1336.07 6.13873 0.0579998 0
M  V30 13990 C 1337.44 6.19856 -0.133613 0
M  V30 13991 C 1339.5 4.96083 0.424928 0
M  V30 13992 C 1338.2 7.1408 -0.865032 0
M  V30 13993 C 1340.22 5.90674 -0.292931 0
M  V30 13994 C 1339.59 6.98221 -0.930965 0
M  V30 13995 H 1335.69 0.702973 0.342569 0
M  V30 13996 H 1338.27 1.92943 0.260982 0
M  V30 13997 H 1336.44 2.89569 2.58852 0
M  V30 13998 H 1338.17 3.1406 2.55242 0
M  V30 13999 H 1334.93 4.59406 1.1508 0
M  V30 14000 H 1335.35 6.76235 -0.321806 0
M  V30 14001 H 1339.99 4.13025 0.903883 0
M  V30 14002 H 1337.71 7.96648 -1.35563 0
M  V30 14003 H 1341.3 5.80662 -0.363691 0
M  V30 14004 H 1340.18 7.70154 -1.47758 0
M  V30 14005 N 1337.68 -0.524672 1.4861 0
M  V30 14006 C 1338.93 -1.28021 1.56898 0
M  V30 14007 C 1339.26 -1.92948 0.245203 0
M  V30 14008 O 1338.51 -1.8013 -0.764966 0
M  V30 14009 C 1338.81 -2.3871 2.65993 0
M  V30 14010 C 1338.48 -1.914 4.08261 0
M  V30 14011 C 1337.14 -1.78215 4.46982 0
M  V30 14012 C 1339.49 -1.55713 4.97396 0
M  V30 14013 C 1336.82 -1.27687 5.72637 0
M  V30 14014 C 1339.17 -1.06645 6.23546 0
M  V30 14015 C 1337.83 -0.920818 6.61118 0
M  V30 14016 H 1337.1 -0.468461 0.57413 0
M  V30 14017 H 1339.75 -0.584901 1.82349 0
M  V30 14018 H 1338.06 -3.13932 2.34422 0
M  V30 14019 H 1339.75 -2.96827 2.6962 0
M  V30 14020 H 1336.34 -2.02614 3.77684 0
M  V30 14021 H 1340.53 -1.64757 4.68155 0
M  V30 14022 H 1335.78 -1.15103 6.00468 0
M  V30 14023 H 1339.96 -0.781048 6.92006 0
M  V30 14024 H 1337.58 -0.527091 7.5837 0
M  V30 14025 N 1339.16 -1.37287 -0.77395 0
M  V30 14026 C 1340.57 -1.18039 -1.0742 0
M  V30 14027 C 1340.77 -0.0150339 -2.01494 0
M  V30 14028 O 1339.83 0.645562 -2.44108 0
M  V30 14029 C 1341.14 -2.49808 -1.67382 0
M  V30 14030 C 1342.69 -2.5631 -1.7965 0
M  V30 14031 C 1343.17 -3.88204 -2.43025 0
M  V30 14032 N 1344.66 -3.89634 -2.50478 0
M  V30 14033 C 1345.39 -4.88437 -3.00361 0
M  V30 14034 N 1344.89 -5.97635 -3.50434 0
M  V30 14035 N 1346.68 -4.75843 -2.99215 0
M  V30 14036 H 1338.83 -2.11875 -0.149269 0
M  V30 14037 H 1341.1 -0.939203 -0.128846 0
M  V30 14038 H 1340.8 -3.35433 -1.05726 0
M  V30 14039 H 1340.68 -2.66737 -2.66704 0
M  V30 14040 H 1343.06 -1.71094 -2.40439 0
M  V30 14041 H 1343.14 -2.43266 -0.790894 0
M  V30 14042 H 1342.79 -4.73834 -1.82876 0
M  V30 14043 H 1342.72 -3.98551 -3.44187 0
M  V30 14044 H 1345.21 -3.10751 -2.15039 0
M  V30 14045 H 1345.52 -6.6898 -3.86893 0
M  V30 14046 H 1343.87 -6.01283 -3.48545 0
M  V30 14047 H 1347.06 -3.89656 -2.59395 0
M  V30 14048 H 1347.23 -5.52999 -3.37781 0
M  V30 14049 N 1340.64 0.999871 -1.21821 0
M  V30 14050 C 1341.88 1.75366 -1.05005 0
M  V30 14051 C 1342.24 1.87601 0.408656 0
M  V30 14052 O 1343.44 2.59593 0.697479 0
M  V30 14053 C 1341.71 3.12525 -1.73387 0
M  V30 14054 S 1343.27 4.0373 -1.71894 0
M  V30 14055 H 1340.09 0.603334 -0.376177 0
M  V30 14056 H 1342.69 1.19598 -1.5465 0
M  V30 14057 H 1341.4 3.01258 -2.78697 0
M  V30 14058 H 1340.93 3.73365 -1.23944 0
M  V30 14059 H 1342.94 4.90288 -0.763668 0
M  V30 14060 N 1342.11 1.02678 1.19562 0
M  V30 14061 C 1343.53 0.752027 1.70884 0
M  V30 14062 C 1343.88 -0.728523 1.82173 0
M  V30 14063 O 1343 -1.56799 1.49141 0
M  V30 14064 C 1343.6 1.35848 3.10372 0
M  V30 14065 C 1342.16 1.13236 3.58963 0
M  V30 14066 C 1341.3 1.45785 2.35886 0
M  V30 14067 H 1344.25 1.19497 1.04432 0
M  V30 14068 H 1344.27 0.754347 3.72948 0
M  V30 14069 H 1343.79 2.43604 3.02124 0
M  V30 14070 H 1341.89 0.0729271 3.72529 0
M  V30 14071 H 1342 1.81959 4.43202 0
M  V30 14072 H 1340.36 0.877125 2.3912 0
M  V30 14073 H 1341.15 2.54619 2.30269 0
M  V30 14074 N 1343.59 -1.35528 0.804364 0
M  V30 14075 C 1344.82 -2.03073 0.396091 0
M  V30 14076 C 1345.24 -1.60623 -0.992252 0
M  V30 14077 O 1344.59 -0.802718 -1.63898 0
M  V30 14078 C 1344.64 -3.58467 0.467301 0
M  V30 14079 O 1344.36 -3.99373 1.80091 0
M  V30 14080 C 1345.87 -4.4327 0.0515549 0
M  V30 14081 H 1343.09 -0.651346 0.161212 0
M  V30 14082 H 1345.63 -1.73195 1.08737 0
M  V30 14083 H 1343.78 -3.87001 -0.175703 0
M  V30 14084 H 1344.2 -4.94013 1.76214 0
M  V30 14085 H 1345.67 -5.51789 0.152499 0
M  V30 14086 H 1346.15 -4.27597 -1.00286 0
M  V30 14087 H 1346.76 -4.20027 0.667628 0
M  V30 14088 N 1345.07 -0.557671 -1.47404 0
M  V30 14089 C 1346 0.178019 -2.3282 0
M  V30 14090 C 1346.98 0.908318 -1.43818 0
M  V30 14091 O 1348.17 0.888693 -1.72673 0
M  V30 14092 C 1345.3 1.2082 -3.25607 0
M  V30 14093 C 1344.25 0.594335 -4.23853 0
M  V30 14094 C 1343.58 1.72919 -5.05968 0
M  V30 14095 C 1344.88 -0.452196 -5.20339 0
M  V30 14096 H 1346.57 -0.535091 -2.9458 0
M  V30 14097 H 1344.12 -0.258775 -1.41656 0
M  V30 14098 H 1346.07 1.73104 -3.84204 0
M  V30 14099 H 1344.79 1.95126 -2.61903 0
M  V30 14100 H 1343.45 0.0927898 -3.66483 0
M  V30 14101 H 1343.1 2.4613 -4.38668 0
M  V30 14102 H 1342.8 1.32422 -5.72484 0
M  V30 14103 H 1344.33 2.25527 -5.67424 0
M  V30 14104 H 1345.74 -0.0154011 -5.73298 0
M  V30 14105 H 1344.14 -0.776068 -5.95061 0
M  V30 14106 H 1345.21 -1.34791 -4.65789 0
M  V30 14107 N 1346.55 1.54831 -0.294147 0
M  V30 14108 C 1347.48 2.26226 0.57827 0
M  V30 14109 C 1348.46 1.25928 1.14351 0
M  V30 14110 O 1349.65 1.54687 1.17412 0
M  V30 14111 C 1346.78 2.99783 1.75349 0
M  V30 14112 C 1345.73 4.07171 1.31892 0
M  V30 14113 C 1345.06 4.68406 2.57876 0
M  V30 14114 C 1346.36 5.20313 0.455167 0
M  V30 14115 H 1348.05 2.99395 -0.0171936 0
M  V30 14116 H 1345.6 1.43997 -0.00970944 0
M  V30 14117 H 1347.55 3.48448 2.36986 0
M  V30 14118 H 1346.27 2.24181 2.37509 0
M  V30 14119 H 1344.93 3.59346 0.725653 0
M  V30 14120 H 1344.58 3.89451 3.18335 0
M  V30 14121 H 1344.28 5.40927 2.29502 0
M  V30 14122 H 1345.8 5.1983 3.20327 0
M  V30 14123 H 1347.22 5.64913 0.977026 0
M  V30 14124 H 1345.61 5.99512 0.265501 0
M  V30 14125 H 1346.68 4.82088 -0.521434 0
M  V30 14126 N 1348.03 0.0217466 1.57585 0
M  V30 14127 C 1348.94 -0.978407 2.13224 0
M  V30 14128 C 1349.95 -1.36212 1.08269 0
M  V30 14129 O 1351.13 -1.44504 1.40288 0
M  V30 14130 C 1348.19 -2.24462 2.6423 0
M  V30 14131 C 1347.26 -1.92201 3.83871 0
M  V30 14132 C 1346.49 -3.12786 4.32436 0
M  V30 14133 O 1346.71 -4.25201 3.8021 0
M  V30 14134 O 1345.65 -2.95514 5.24362 0
M  V30 14135 H 1349.47 -0.535347 2.98944 0
M  V30 14136 H 1347.06 -0.198414 1.48077 0
M  V30 14137 H 1348.94 -2.98809 2.97138 0
M  V30 14138 H 1347.61 -2.67964 1.81596 0
M  V30 14139 H 1346.52 -1.15262 3.55901 0
M  V30 14140 H 1347.85 -1.53521 4.67645 0
M  V30 14141 N 1349.51 -1.55583 -0.251311 0
M  V30 14142 C 1350.75 -1.77471 -0.981418 0
M  V30 14143 C 1351.08 -0.586228 -1.85141 0
M  V30 14144 O 1350.36 0.415623 -1.90007 0
M  V30 14145 C 1350.64 -3.09204 -1.84567 0
M  V30 14146 C 1350.5 -4.38448 -1.00417 0
M  V30 14147 C 1351.81 -3.37133 -2.82895 0
M  V30 14148 H 1348.93 -0.645664 -0.355369 0
M  V30 14149 H 1351.58 -1.88318 -0.252228 0
M  V30 14150 H 1349.73 -3.00087 -2.46738 0
M  V30 14151 H 1351.4 -4.5955 -0.40149 0
M  V30 14152 H 1349.64 -4.32703 -0.308365 0
M  V30 14153 H 1350.31 -5.26995 -1.64258 0
M  V30 14154 H 1352.79 -3.46183 -2.3086 0
M  V30 14155 H 1351.66 -4.30531 -3.40491 0
M  V30 14156 H 1351.92 -2.57829 -3.59133 0
M  V30 14157 N 1350.98 0.516783 -1.48886 0
M  V30 14158 C 1351.91 1.62897 -1.67292 0
M  V30 14159 C 1352.89 1.61903 -0.521671 0
M  V30 14160 O 1354.08 1.78892 -0.755728 0
M  V30 14161 C 1351.21 3.01444 -1.72478 0
M  V30 14162 C 1350.16 3.173 -2.87236 0
M  V30 14163 C 1349.49 4.5704 -2.77522 0
M  V30 14164 C 1350.79 2.98818 -4.28375 0
M  V30 14165 H 1352.48 1.47748 -2.60405 0
M  V30 14166 H 1350.03 0.709361 -1.25316 0
M  V30 14167 H 1351.98 3.79135 -1.83942 0
M  V30 14168 H 1350.71 3.17645 -0.759538 0
M  V30 14169 H 1349.37 2.4203 -2.75349 0
M  V30 14170 H 1349.01 4.70096 -1.78938 0
M  V30 14171 H 1348.71 4.68593 -3.54534 0
M  V30 14172 H 1350.24 5.36813 -2.90972 0
M  V30 14173 H 1351.65 3.66291 -4.41026 0
M  V30 14174 H 1350.05 3.21854 -5.06488 0
M  V30 14175 H 1351.12 1.95102 -4.43918 0
M  V30 14176 N 1352.46 1.37696 0.766659 0
M  V30 14177 C 1353.37 1.36075 1.91104 0
M  V30 14178 C 1354.39 0.259617 1.72052 0
M  V30 14179 O 1355.56 0.49586 1.952 0
M  V30 14180 C 1352.63 1.17176 3.26298 0
M  V30 14181 C 1351.69 2.36975 3.57968 0
M  V30 14182 C 1350.92 2.18968 4.86712 0
M  V30 14183 O 1351.15 1.17658 5.58133 0
M  V30 14184 O 1350.08 3.07269 5.17561 0
M  V30 14185 H 1353.91 2.32472 1.95424 0
M  V30 14186 H 1351.49 1.18478 0.910122 0
M  V30 14187 H 1353.37 1.08645 4.07154 0
M  V30 14188 H 1352.05 0.238559 3.2282 0
M  V30 14189 H 1350.95 2.51079 2.77327 0
M  V30 14190 H 1352.29 3.2888 3.66195 0
M  V30 14191 N 1353.94 -0.993397 1.22349 0
M  V30 14192 C 1354.87 -2.08543 0.950925 0
M  V30 14193 C 1355.88 -1.62648 -0.0702741 0
M  V30 14194 O 1357.07 -1.77748 0.16367 0
M  V30 14195 C 1354.17 -3.36429 0.408466 0
M  V30 14196 C 1353.35 -4.11356 1.48676 0
M  V30 14197 C 1352.41 -5.17526 0.951478 0
M  V30 14198 O 1351.43 -5.45135 1.63757 0
M  V30 14199 N 1352.63 -5.80055 -0.227378 0
M  V30 14200 H 1355.4 -2.32506 1.89106 0
M  V30 14201 H 1352.96 -1.15911 1.13032 0
M  V30 14202 H 1354.95 -4.04684 0.0356968 0
M  V30 14203 H 1353.52 -3.09534 -0.436767 0
M  V30 14204 H 1352.74 -3.37739 2.03288 0
M  V30 14205 H 1354.03 -4.58187 2.21228 0
M  V30 14206 H 1353.43 -5.59992 -0.801601 0
M  V30 14207 H 1351.98 -6.49546 -0.541538 0
M  V30 14208 N 1355.42 -1.03311 -1.19015 0
M  V30 14209 C 1356.66 -0.732039 -1.88805 0
M  V30 14210 C 1356.99 0.739688 -1.79886 0
M  V30 14211 O 1356.25 1.55476 -1.18851 0
M  V30 14212 C 1356.55 -1.13402 -3.38932 0
M  V30 14213 C 1356.21 -2.60473 -3.68055 0
M  V30 14214 C 1354.87 -3.00654 -3.75713 0
M  V30 14215 C 1357.23 -3.55604 -3.81045 0
M  V30 14216 C 1354.55 -4.3487 -3.93833 0
M  V30 14217 C 1356.91 -4.89529 -4.00679 0
M  V30 14218 C 1355.57 -5.29392 -4.06571 0
M  V30 14219 H 1354.84 -0.267872 -0.690888 0
M  V30 14220 H 1357.49 -1.29673 -1.40915 0
M  V30 14221 H 1355.79 -0.487997 -3.88749 0
M  V30 14222 H 1357.49 -0.878532 -3.91258 0
M  V30 14223 H 1354.08 -2.28348 -3.62706 0
M  V30 14224 H 1358.26 -3.25711 -3.74467 0
M  V30 14225 H 1353.52 -4.65285 -3.96636 0
M  V30 14226 H 1357.69 -5.63153 -4.09672 0
M  V30 14227 H 1355.32 -6.33402 -4.20364 0
M  V30 14228 N 1356.9 1.35099 -0.81154 0
M  V30 14229 C 1358.31 1.81082 -0.454543 0
M  V30 14230 C 1358.66 1.67361 1.02395 0
M  V30 14231 O 1357.78 1.20707 1.79607 0
M  V30 14232 C 1358.38 3.2877 -0.818274 0
M  V30 14233 C 1356.94 3.72877 -0.513808 0
M  V30 14234 C 1356.08 2.57008 -1.04125 0
M  V30 14235 H 1359.03 1.23007 -1.00274 0
M  V30 14236 H 1359.06 3.80318 -0.117683 0
M  V30 14237 H 1358.57 3.38725 -1.89439 0
M  V30 14238 H 1356.67 3.68468 0.553368 0
M  V30 14239 H 1356.78 4.67455 -1.0499 0
M  V30 14240 H 1355.15 2.5045 -0.463337 0
M  V30 14241 H 1355.93 2.69738 -2.12358 0
M  V30 14242 N 1358.37 0.56548 1.47106 0
M  V30 14243 C 1359.6 0.0476763 2.07345 0
M  V30 14244 C 1360.02 -1.24032 1.41413 0
M  V30 14245 O 1359.38 -1.74498 0.491941 0
M  V30 14246 C 1359.43 -0.122618 3.60391 0
M  V30 14247 O 1358.53 -1.18326 3.9506 0
M  V30 14248 H 1357.87 0.0550419 0.661715 0
M  V30 14249 H 1360.4 0.78352 1.89003 0
M  V30 14250 H 1360.41 -0.334227 4.06629 0
M  V30 14251 H 1359.09 0.81807 4.07775 0
M  V30 14252 H 1357.67 -0.951481 3.60557 0
M  V30 14253 N 1359.85 -1.54672 0.302354 0
M  V30 14254 C 1361.1 -2.00463 -0.306978 0
M  V30 14255 C 1361.43 -1.19043 -1.53435 0
M  V30 14256 O 1360.71 -0.267255 -1.92655 0
M  V30 14257 C 1360.99 -3.53958 -0.662229 0
M  V30 14258 C 1360.84 -4.46118 0.574378 0
M  V30 14259 C 1362.16 -4.14174 -1.48821 0
M  V30 14260 H 1359.28 -0.728729 -0.110102 0
M  V30 14261 H 1361.92 -1.85419 0.414722 0
M  V30 14262 H 1360.07 -3.66909 -1.2771 0
M  V30 14263 H 1361.74 -4.45071 1.21284 0
M  V30 14264 H 1359.99 -4.1666 1.20736 0
M  V30 14265 H 1360.66 -5.51281 0.281651 0
M  V30 14266 H 1363.13 -4.04668 -0.968674 0
M  V30 14267 H 1362.01 -5.2173 -1.70556 0
M  V30 14268 H 1362.27 -3.66136 -2.47784 0
M  V30 14269 N 1361.33 -0.0301034 -1.57571 0
M  V30 14270 C 1362.29 0.936465 -2.09196 0
M  V30 14271 C 1363.29 1.25347 -1.00722 0
M  V30 14272 O 1364.48 1.19364 -1.26877 0
M  V30 14273 C 1361.62 2.2527 -2.55864 0
M  V30 14274 H 1362.81 0.489332 -2.95881 0
M  V30 14275 H 1360.36 0.217948 -1.54773 0
M  V30 14276 H 1361.1 2.7461 -1.72511 0
M  V30 14277 H 1360.88 2.03573 -3.35113 0
M  V30 14278 H 1362.37 2.94549 -2.96025 0
M  V30 14279 N 1362.81 1.55714 0.243056 0
M  V30 14280 C 1363.74 1.93655 1.30461 0
M  V30 14281 C 1364.72 0.801968 1.50008 0
M  V30 14282 O 1365.9 1.06256 1.62552 0
M  V30 14283 C 1363.03 2.23459 2.65863 0
M  V30 14284 C 1361.99 3.39205 2.61006 0
M  V30 14285 C 1361.31 3.5456 4.00239 0
M  V30 14286 C 1362.61 4.74787 2.17656 0
M  V30 14287 H 1364.31 2.82575 0.98954 0
M  V30 14288 H 1361.85 1.35955 0.474572 0
M  V30 14289 H 1363.81 2.48591 3.40266 0
M  V30 14290 H 1362.53 1.31369 2.99014 0
M  V30 14291 H 1361.19 3.14088 1.89061 0
M  V30 14292 H 1360.84 2.59884 4.30661 0
M  V30 14293 H 1360.54 4.32399 3.97876 0
M  V30 14294 H 1362.06 3.82017 4.76335 0
M  V30 14295 H 1363.48 4.99266 2.81792 0
M  V30 14296 H 1361.87 5.55756 2.26397 0
M  V30 14297 H 1362.94 4.7159 1.12831 0
M  V30 14298 N 1364.29 -0.50888 1.49158 0
M  V30 14299 C 1365.7 -1.09054 1.51539 0
M  V30 14300 C 1366.05 -1.93938 0.297099 0
M  V30 14301 O 1365.17 -2.08092 -0.593849 0
M  V30 14302 C 1365.77 -1.98447 2.74599 0
M  V30 14303 C 1364.33 -2.5179 2.79783 0
M  V30 14304 C 1363.47 -1.29227 2.45348 0
M  V30 14305 H 1366.43 -0.293148 1.55969 0
M  V30 14306 H 1366.45 -2.83028 2.54314 0
M  V30 14307 H 1365.96 -1.3664 3.63251 0
M  V30 14308 H 1364.06 -3.17258 1.95392 0
M  V30 14309 H 1364.17 -2.89481 3.81756 0
M  V30 14310 H 1362.54 -1.61494 1.96957 0
M  V30 14311 H 1363.32 -0.6914 3.36266 0
M  V30 14312 N 1365.76 -1.381 -0.759346 0
M  V30 14313 C 1366.73 -1.34674 -1.8546 0
M  V30 14314 C 1367.73 -0.248351 -1.58871 0
M  V30 14315 O 1368.92 -0.504915 -1.66722 0
M  V30 14316 C 1366.05 -1.0952 -3.22828 0
M  V30 14317 H 1367.24 -2.3211 -1.89908 0
M  V30 14318 H 1364.8 -1.2331 -0.960435 0
M  V30 14319 H 1365.53 -0.126664 -3.24053 0
M  V30 14320 H 1365.32 -1.89037 -3.43522 0
M  V30 14321 H 1366.81 -1.09804 -4.02906 0
M  V30 14322 N 1367.24 0.986894 -1.22875 0
M  V30 14323 C 1368.65 1.54182 -1.05284 0
M  V30 14324 C 1369 1.92448 0.381856 0
M  V30 14325 O 1368.13 1.75381 1.26769 0
M  V30 14326 C 1368.72 2.80173 -1.90496 0
M  V30 14327 C 1367.28 3.32088 -1.77185 0
M  V30 14328 C 1366.43 2.05128 -1.86596 0
M  V30 14329 H 1369.38 0.807304 -1.36632 0
M  V30 14330 H 1369.4 3.52772 -1.42591 0
M  V30 14331 H 1368.91 2.52291 -2.94908 0
M  V30 14332 H 1367.02 3.64864 -0.755295 0
M  V30 14333 H 1367.13 4.02285 -2.60199 0
M  V30 14334 H 1365.49 2.18964 -1.30103 0
M  V30 14335 H 1366.28 1.79635 -2.92551 0
M  V30 14336 N 1368.72 1.0394 1.18466 0
M  V30 14337 C 1369.65 0.650182 2.24265 0
M  V30 14338 C 1370.63 -0.345968 1.66545 0
M  V30 14339 O 1371.82 -0.226348 1.92876 0
M  V30 14340 C 1368.95 0.0110451 3.47298 0
M  V30 14341 C 1367.9 0.930599 4.17761 0
M  V30 14342 C 1367.23 0.156005 5.34472 0
M  V30 14343 C 1368.53 2.24913 4.71393 0
M  V30 14344 H 1370.22 1.53465 2.57078 0
M  V30 14345 H 1367.77 0.739343 1.23571 0
M  V30 14346 H 1369.72 -0.272959 4.20515 0
M  V30 14347 H 1368.44 -0.908288 3.13716 0
M  V30 14348 H 1367.1 1.19897 3.4644 0
M  V30 14349 H 1366.75 -0.765695 4.97138 0
M  V30 14350 H 1366.45 0.768606 5.82551 0
M  V30 14351 H 1367.97 -0.121011 6.1048 0
M  V30 14352 H 1369.39 2.02592 5.36311 0
M  V30 14353 H 1367.79 2.81459 5.30001 0
M  V30 14354 H 1368.86 2.8965 3.88884 0
M  V30 14355 N 1370.2 -1.34667 0.818693 0
M  V30 14356 C 1371.13 -2.32134 0.252239 0
M  V30 14357 C 1372.11 -1.58044 -0.628982 0
M  V30 14358 O 1373.29 -1.86049 -0.55674 0
M  V30 14359 C 1370.42 -3.42249 -0.590183 0
M  V30 14360 C 1369.38 -4.27562 0.193547 0
M  V30 14361 C 1368.7 -5.29107 -0.771349 0
M  V30 14362 C 1370 -5.03205 1.39936 0
M  V30 14363 H 1371.7 -2.79758 1.06657 0
M  V30 14364 H 1369.24 -1.34502 0.514325 0
M  V30 14365 H 1371.2 -4.09445 -0.996616 0
M  V30 14366 H 1369.92 -2.93262 -1.43752 0
M  V30 14367 H 1368.58 -3.61962 0.581297 0
M  V30 14368 H 1368.23 -4.76384 -1.61453 0
M  V30 14369 H 1367.93 -5.87063 -0.251201 0
M  V30 14370 H 1369.45 -5.99174 -1.17573 0
M  V30 14371 H 1370.87 -5.6328 1.06717 0
M  V30 14372 H 1369.26 -5.70715 1.85485 0
M  V30 14373 H 1370.33 -4.33145 2.17976 0
M  V30 14374 N 1371.68 -0.573274 -1.46804 0
M  V30 14375 C 1372.61 0.153316 -2.32996 0
M  V30 14376 C 1373.59 0.893013 -1.44773 0
M  V30 14377 O 1374.77 0.870329 -1.73606 0
M  V30 14378 C 1371.9 1.1736 -3.2687 0
M  V30 14379 C 1370.86 0.549347 -4.2446 0
M  V30 14380 C 1370.18 1.67542 -5.07773 0
M  V30 14381 C 1371.48 -0.50736 -5.1983 0
M  V30 14382 H 1373.18 -0.566305 -2.93995 0
M  V30 14383 H 1370.72 -0.273785 -1.41373 0
M  V30 14384 H 1372.68 1.6902 -3.86019 0
M  V30 14385 H 1371.4 1.92337 -2.63958 0
M  V30 14386 H 1370.06 0.0539142 -3.6656 0
M  V30 14387 H 1369.71 2.41463 -4.41253 0
M  V30 14388 H 1369.41 1.26343 -5.73856 0
M  V30 14389 H 1370.93 2.19496 -5.69784 0
M  V30 14390 H 1372.34 -0.0762061 -5.73249 0
M  V30 14391 H 1370.74 -0.839139 -5.94204 0
M  V30 14392 H 1371.81 -1.39723 -4.64333 0
M  V30 14393 N 1373.15 1.5451 -0.310553 0
M  V30 14394 C 1374.38 2.04739 0.29824 0
M  V30 14395 C 1374.8 1.18737 1.46788 0
M  V30 14396 O 1374.15 0.215114 1.81228 0
M  V30 14397 C 1374.21 3.53734 0.745274 0
M  V30 14398 O 1373.93 4.36468 -0.377826 0
M  V30 14399 C 1375.43 4.20001 1.41823 0
M  V30 14400 H 1372.65 0.667997 0.0634159 0
M  V30 14401 H 1375.19 1.9942 -0.452961 0
M  V30 14402 H 1373.35 3.59383 1.44648 0
M  V30 14403 H 1373.76 5.24492 -0.0280567 0
M  V30 14404 H 1375.23 5.25747 1.68209 0
M  V30 14405 H 1375.71 3.70319 2.36137 0
M  V30 14406 H 1376.32 4.18455 0.759951 0
M  V30 14407 N 1374.63 0.0384594 1.57553 0
M  V30 14408 C 1375.57 -0.969185 2.077 0
M  V30 14409 C 1376.58 -1.2829 1.00227 0
M  V30 14410 O 1377.77 -1.24592 1.27824 0
M  V30 14411 C 1374.87 -2.29414 2.49444 0
M  V30 14412 C 1374.04 -2.16422 3.80106 0
M  V30 14413 C 1373.1 -3.31931 4.08299 0
M  V30 14414 O 1372.13 -3.08401 4.78412 0
M  V30 14415 N 1373.33 -4.56015 3.59208 0
M  V30 14416 H 1376.09 -0.541252 2.94772 0
M  V30 14417 H 1373.65 -0.148084 1.61221 0
M  V30 14418 H 1375.65 -3.05533 2.6539 0
M  V30 14419 H 1374.22 -2.63817 1.67688 0
M  V30 14420 H 1373.44 -1.24973 3.73866 0
M  V30 14421 H 1374.72 -2.04954 4.65694 0
M  V30 14422 H 1374.12 -4.78025 3.02503 0
M  V30 14423 H 1372.68 -5.29271 3.80415 0
M  V30 14424 N 1376.11 -1.55841 -0.234795 0
M  V30 14425 C 1377.04 -1.94344 -1.29432 0
M  V30 14426 C 1378.02 -0.809912 -1.49581 0
M  V30 14427 O 1379.21 -1.07117 -1.61986 0
M  V30 14428 C 1376.34 -2.24866 -2.64675 0
M  V30 14429 C 1375.29 -3.40584 -2.59203 0
M  V30 14430 C 1374.62 -3.56678 -3.98353 0
M  V30 14431 C 1375.92 -4.75935 -2.15135 0
M  V30 14432 H 1377.61 -2.83096 -0.97454 0
M  V30 14433 H 1375.16 -1.36205 -0.467355 0
M  V30 14434 H 1377.11 -2.50392 -3.38942 0
M  V30 14435 H 1375.83 -1.32953 -2.98314 0
M  V30 14436 H 1374.49 -3.15087 -1.87393 0
M  V30 14437 H 1374.14 -2.62164 -4.29277 0
M  V30 14438 H 1373.84 -4.34503 -3.95577 0
M  V30 14439 H 1375.37 -3.84538 -4.74302 0
M  V30 14440 H 1376.78 -5.00753 -2.7914 0
M  V30 14441 H 1375.18 -5.56949 -2.23446 0
M  V30 14442 H 1376.25 -4.72182 -1.10328 0
M  V30 14443 N 1377.59 0.500963 -1.49426 0
M  V30 14444 C 1379 1.08248 -1.52116 0
M  V30 14445 C 1379.35 1.93777 -0.30738 0
M  V30 14446 O 1378.48 2.08404 0.582805 0
M  V30 14447 C 1379.07 1.96988 -2.75647 0
M  V30 14448 C 1377.63 2.50303 -2.81115 0
M  V30 14449 C 1376.78 1.27924 -2.4603 0
M  V30 14450 H 1379.73 0.284872 -1.56122 0
M  V30 14451 H 1379.75 2.81675 -2.55811 0
M  V30 14452 H 1379.26 1.34711 -3.6397 0
M  V30 14453 H 1377.36 3.16218 -1.97072 0
M  V30 14454 H 1377.48 2.87453 -3.83286 0
M  V30 14455 H 1375.84 1.60447 -1.9781 0
M  V30 14456 H 1376.62 0.673557 -3.36628 0
M  V30 14457 N 1379.07 1.38501 0.752011 0
M  V30 14458 C 1380 1.38577 1.87933 0
M  V30 14459 C 1380.98 0.251454 1.68231 0
M  V30 14460 O 1382.16 0.45477 1.888 0
M  V30 14461 C 1379.29 1.21164 3.25479 0
M  V30 14462 C 1378.25 2.31816 3.59785 0
M  V30 14463 C 1377.57 1.99508 4.96085 0
M  V30 14464 C 1378.87 3.74082 3.645 0
M  V30 14465 H 1380.57 2.32913 1.88127 0
M  V30 14466 H 1378.11 1.12113 0.903698 0
M  V30 14467 H 1380.07 1.19842 4.04 0
M  V30 14468 H 1378.79 0.232899 3.25769 0
M  V30 14469 H 1377.45 2.32327 2.83584 0
M  V30 14470 H 1377.1 1.00114 4.92936 0
M  V30 14471 H 1376.8 2.73617 5.20007 0
M  V30 14472 H 1378.32 1.99807 5.76983 0
M  V30 14473 H 1379.74 3.75593 4.33131 0
M  V30 14474 H 1378.13 4.47409 3.99931 0
M  V30 14475 H 1379.2 4.06284 2.64692 0
M  V30 14476 N 1380.55 -0.980364 1.23396 0
M  V30 14477 C 1381.48 -2.0908 1.0396 0
M  V30 14478 C 1382.46 -1.70044 -0.0434946 0
M  V30 14479 O 1383.64 -1.93822 0.121155 0
M  V30 14480 C 1380.77 -3.41537 0.630061 0
M  V30 14481 C 1379.73 -3.94476 1.66051 0
M  V30 14482 C 1379.05 -5.23128 1.10641 0
M  V30 14483 C 1380.35 -4.23741 3.05354 0
M  V30 14484 H 1382.05 -2.25598 1.9684 0
M  V30 14485 H 1379.59 -1.08409 0.94781 0
M  V30 14486 H 1381.54 -4.18644 0.481145 0
M  V30 14487 H 1380.27 -3.24883 -0.334416 0
M  V30 14488 H 1378.93 -3.19513 1.79742 0
M  V30 14489 H 1378.58 -5.02824 0.132913 0
M  V30 14490 H 1378.28 -5.59515 1.79492 0
M  V30 14491 H 1379.8 -6.02857 0.969344 0
M  V30 14492 H 1381.21 -4.91598 2.94964 0
M  V30 14493 H 1379.61 -4.71329 3.71442 0
M  V30 14494 H 1380.68 -3.31012 3.54343 0
M  V30 14495 N 1382.02 -1.04567 -1.17913 0
M  V30 14496 C 1382.96 -0.599154 -2.2123 0
M  V30 14497 C 1383.97 0.333824 -1.59341 0
M  V30 14498 O 1385.16 0.127548 -1.78044 0
M  V30 14499 C 1382.26 0.144045 -3.38594 0
M  V30 14500 C 1381.43 -0.798061 -4.30058 0
M  V30 14501 C 1380.49 -0.0972548 -5.2611 0
M  V30 14502 O 1379.52 -0.729318 -5.64508 0
M  V30 14503 N 1380.72 1.16759 -5.68637 0
M  V30 14504 H 1383.48 -1.48781 -2.60162 0
M  V30 14505 H 1381.04 -0.926787 -1.32749 0
M  V30 14506 H 1383.04 0.622843 -3.99878 0
M  V30 14507 H 1381.61 0.934292 -2.98311 0
M  V30 14508 H 1380.83 -1.45662 -3.66301 0
M  V30 14509 H 1382.11 -1.43777 -4.88063 0
M  V30 14510 H 1381.51 1.70155 -5.39503 0
M  V30 14511 H 1380.07 1.59057 -6.32095 0
M  V30 14512 N 1383.5 1.34231 -0.825823 0
M  V30 14513 C 1384.91 1.8059 -0.473724 0
M  V30 14514 C 1385.26 1.68438 1.00614 0
M  V30 14515 O 1384.39 1.22606 1.78317 0
M  V30 14516 C 1384.98 3.27884 -0.853099 0
M  V30 14517 C 1383.54 3.72311 -0.553327 0
M  V30 14518 C 1382.69 2.55889 -1.06845 0
M  V30 14519 H 1385.64 1.21937 -1.01573 0
M  V30 14520 H 1385.66 3.80172 -0.158014 0
M  V30 14521 H 1385.17 3.36696 -1.93021 0
M  V30 14522 H 1383.27 3.69034 0.514256 0
M  V30 14523 H 1383.39 4.66315 -1.09942 0
M  V30 14524 H 1381.75 2.49945 -0.489874 0
M  V30 14525 H 1382.53 2.67471 -2.15207 0
M  V30 14526 N 1384.98 0.581051 1.46498 0
M  V30 14527 C 1386.4 0.242599 1.57745 0
M  V30 14528 C 1386.6 -1.25508 1.57639 0
M  V30 14529 O 1385.65 -2.0367 1.49247 0
M  V30 14530 C 1386.96 0.890342 2.87217 0
M  V30 14531 C 1388.51 0.863778 3.00845 0
M  V30 14532 C 1388.99 1.49103 4.3305 0
M  V30 14533 N 1390.48 1.4553 4.39745 0
M  V30 14534 C 1391.21 1.91003 5.40653 0
M  V30 14535 N 1390.71 2.44442 6.48244 0
M  V30 14536 N 1392.5 1.8193 5.31844 0
M  V30 14537 H 1384.65 1.55382 1.44811 0
M  V30 14538 H 1386.92 0.649375 0.690664 0
M  V30 14539 H 1386.62 1.94383 2.93101 0
M  V30 14540 H 1386.5 0.397569 3.75099 0
M  V30 14541 H 1388.88 -0.181089 2.94544 0
M  V30 14542 H 1388.96 1.39455 2.14443 0
M  V30 14543 H 1388.61 2.53509 4.40109 0
M  V30 14544 H 1388.54 0.935496 5.18224 0
M  V30 14545 H 1391.03 1.06466 3.62593 0
M  V30 14546 H 1391.34 2.77002 7.2145 0
M  V30 14547 H 1389.69 2.48467 6.49068 0
M  V30 14548 H 1392.88 1.3994 4.46693 0
M  V30 14549 H 1393.05 2.17685 6.10342 0
M  V30 14550 N 1386.46 -1.54343 0.318742 0
M  V30 14551 C 1387.69 -2.04597 -0.286961 0
M  V30 14552 C 1388.1 -1.19474 -1.46706 0
M  V30 14553 O 1387.44 -0.217082 -1.82413 0
M  V30 14554 C 1387.5 -3.50729 -0.789262 0
M  V30 14555 C 1387.16 -4.56214 0.267888 0
M  V30 14556 C 1388.16 -5.08079 1.10235 0
M  V30 14557 C 1385.85 -5.00585 0.414691 0
M  V30 14558 C 1387.84 -6.02872 2.06938 0
M  V30 14559 C 1385.53 -5.95195 1.38515 0
M  V30 14560 C 1386.53 -6.46224 2.21097 0
M  V30 14561 O 1386.21 -7.38976 3.16495 0
M  V30 14562 H 1385.95 -0.672994 -0.0636843 0
M  V30 14563 H 1388.5 -2.00147 0.461569 0
M  V30 14564 H 1386.73 -3.52562 -1.58862 0
M  V30 14565 H 1388.42 -3.84084 -1.31278 0
M  V30 14566 H 1389.18 -4.74581 0.999893 0
M  V30 14567 H 1385.06 -4.60483 -0.21819 0
M  V30 14568 H 1388.61 -6.42627 2.71435 0
M  V30 14569 H 1384.5 -6.28109 1.48826 0
M  V30 14570 H 1385.27 -7.56835 3.11678 0
M  V30 14571 N 1387.94 -0.0468143 -1.5753 0
M  V30 14572 C 1389.17 0.636723 -1.96544 0
M  V30 14573 C 1389.57 1.65169 -0.922814 0
M  V30 14574 O 1388.92 1.83417 0.101892 0
M  V30 14575 C 1388.98 1.38435 -3.31777 0
M  V30 14576 C 1388.64 0.525714 -4.53966 0
M  V30 14577 C 1389.64 -0.206392 -5.1949 0
M  V30 14578 C 1387.32 0.457919 -5.00208 0
M  V30 14579 C 1389.32 -0.994779 -6.29589 0
M  V30 14580 C 1387.01 -0.334159 -6.10186 0
M  V30 14581 C 1388 -1.0592 -6.74737 0
M  V30 14582 O 1387.69 -1.83826 -7.826 0
M  V30 14583 H 1387.42 0.179197 -0.651816 0
M  V30 14584 H 1389.98 -0.108214 -2.05115 0
M  V30 14585 H 1388.21 2.17482 -3.19748 0
M  V30 14586 H 1389.9 1.9577 -3.55568 0
M  V30 14587 H 1390.66 -0.163457 -4.84724 0
M  V30 14588 H 1386.54 1.01185 -4.49758 0
M  V30 14589 H 1390.09 -1.56121 -6.79906 0
M  V30 14590 H 1385.98 -0.378748 -6.44388 0
M  V30 14591 H 1386.75 -1.75991 -7.99356 0
M  V30 14592 N 1389.41 1.55964 0.226527 0
M  V30 14593 C 1390.64 1.83168 0.972846 0
M  V30 14594 C 1391.06 0.626512 1.7736 0
M  V30 14595 O 1390.42 -0.42468 1.76256 0
M  V30 14596 C 1390.47 3.08315 1.87014 0
M  V30 14597 O 1389.57 2.8666 2.96479 0
M  V30 14598 H 1388.92 0.604041 0.275736 0
M  V30 14599 H 1391.45 2.03172 0.241345 0
M  V30 14600 H 1391.46 3.38288 2.28091 0
M  V30 14601 H 1390.13 3.95663 1.28154 0
M  V30 14602 H 1388.71 2.67907 2.59384 0
M  V30 14603 N 1390.89 -0.493031 1.4969 0
M  V30 14604 C 1392.14 -1.24849 1.59814 0
M  V30 14605 C 1392.47 -1.92059 0.287555 0
M  V30 14606 O 1391.75 -1.81099 -0.709471 0
M  V30 14607 C 1392.03 -2.30929 2.76304 0
M  V30 14608 C 1391.88 -1.68167 4.17181 0
M  V30 14609 C 1393.2 -3.32427 2.8841 0
M  V30 14610 H 1390.32 -0.452553 0.581691 0
M  V30 14611 H 1392.96 -0.545455 1.82002 0
M  V30 14612 H 1391.11 -2.9089 2.57517 0
M  V30 14613 H 1392.78 -1.11971 4.47504 0
M  V30 14614 H 1391.03 -0.985496 4.22458 0
M  V30 14615 H 1391.7 -2.45148 4.94577 0
M  V30 14616 H 1394.17 -2.82464 3.05537 0
M  V30 14617 H 1393.05 -4.04004 3.71581 0
M  V30 14618 H 1393.31 -3.95234 1.98097 0
M  V30 14619 N 1392.37 -1.38898 -0.744656 0
M  V30 14620 C 1393.6 -1.3903 -1.53901 0
M  V30 14621 C 1394.02 0.0156607 -1.88093 0
M  V30 14622 O 1393.38 1.00012 -1.51219 0
M  V30 14623 C 1393.43 -2.2609 -2.80919 0
M  V30 14624 O 1392.53 -1.68414 -3.76444 0
M  V30 14625 H 1391.87 -0.473854 -0.465144 0
M  V30 14626 H 1394.4 -1.82773 -0.919525 0
M  V30 14627 H 1394.41 -2.40264 -3.29754 0
M  V30 14628 H 1393.09 -3.28271 -2.55364 0
M  V30 14629 H 1391.66 -1.63431 -3.35179 0
M  V30 14630 N 1393.85 0.973806 -1.23914 0
M  V30 14631 C 1395.07 1.7564 -1.10296 0
M  V30 14632 C 1395.5 1.84984 0.340954 0
M  V30 14633 O 1394.86 1.31629 1.24674 0
M  V30 14634 C 1394.9 3.15809 -1.7406 0
M  V30 14635 O 1394.01 3.99911 -1.00722 0
M  V30 14636 H 1393.35 0.540133 -0.386202 0
M  V30 14637 H 1395.88 1.22197 -1.64101 0
M  V30 14638 H 1395.89 3.66359 -1.79568 0
M  V30 14639 H 1394.56 3.08324 -2.79122 0
M  V30 14640 H 1393.14 3.58405 -1.02956 0
M  V30 14641 N 1395.33 1.05191 1.17357 0
M  V30 14642 C 1396.29 0.65713 2.19578 0
M  V30 14643 C 1397.29 -0.29138 1.58138 0
M  V30 14644 O 1398.48 -0.075254 1.74037 0
M  V30 14645 C 1395.61 -0.0348162 3.40882 0
M  V30 14646 H 1396.8 1.56188 2.56018 0
M  V30 14647 H 1394.36 0.845795 1.31438 0
M  V30 14648 H 1395.09 -0.952835 3.09986 0
M  V30 14649 H 1394.88 0.647076 3.86724 0
M  V30 14650 H 1396.37 -0.297135 4.16542 0
M  V30 14651 N 1396.8 -1.33791 0.83293 0
M  V30 14652 C 1398.22 -1.80336 0.483294 0
M  V30 14653 C 1398.57 -1.68969 -0.997195 0
M  V30 14654 O 1397.69 -1.23549 -1.77664 0
M  V30 14655 C 1398.29 -3.27427 0.870475 0
M  V30 14656 C 1396.85 -3.72012 0.573064 0
M  V30 14657 C 1395.99 -2.55319 1.08201 0
M  V30 14658 H 1398.94 -1.21396 1.02218 0
M  V30 14659 H 1398.96 -3.80083 0.178173 0
M  V30 14660 H 1398.48 -3.35668 1.94804 0
M  V30 14661 H 1396.58 -3.69302 -0.494678 0
M  V30 14662 H 1396.69 -4.65725 1.12414 0
M  V30 14663 H 1395.05 -2.49681 0.503123 0
M  V30 14664 H 1395.84 -2.66326 2.16623 0
M  V30 14665 N 1398.28 -0.588812 -1.46187 0
M  V30 14666 C 1399.51 -0.0806571 -2.07243 0
M  V30 14667 C 1399.93 1.21766 -1.43369 0
M  V30 14668 O 1399.29 1.73694 -0.51964 0
M  V30 14669 C 1399.34 0.065267 -3.60541 0
M  V30 14670 O 1398.44 1.12026 -3.96893 0
M  V30 14671 H 1397.78 -0.0655622 -0.660755 0
M  V30 14672 H 1400.31 -0.813489 -1.87733 0
M  V30 14673 H 1400.32 0.269494 -4.07109 0
M  V30 14674 H 1399 -0.88284 -4.06422 0
M  V30 14675 H 1397.58 0.894 -3.62025 0
M  V30 14676 N 1399.76 1.54172 -0.326923 0
M  V30 14677 C 1400.99 2.05044 0.276508 0
M  V30 14678 C 1401.4 1.20288 1.45521 0
M  V30 14679 O 1400.76 0.234324 1.80989 0
M  V30 14680 C 1400.81 3.54505 0.707714 0
M  V30 14681 O 1400.53 4.36042 -0.424098 0
M  V30 14682 C 1402.03 4.21482 1.3736 0
M  V30 14683 H 1399.25 0.668632 0.0563273 0
M  V30 14684 H 1401.8 1.98929 -0.474087 0
M  V30 14685 H 1399.95 3.60896 1.40828 0
M  V30 14686 H 1400.37 5.24433 -0.0836846 0
M  V30 14687 H 1401.84 5.27501 1.62623 0
M  V30 14688 H 1402.32 3.72802 2.32196 0
M  V30 14689 H 1402.92 4.19238 0.715526 0
M  V30 14690 N 1401.24 0.0551678 1.57503 0
M  V30 14691 C 1402.19 -0.927586 2.08278 0
M  V30 14692 C 1403.17 -1.26931 0.988802 0
M  V30 14693 O 1404.36 -1.25107 1.25209 0
M  V30 14694 C 1401.49 -2.20105 2.63456 0
M  V30 14695 C 1400.58 -1.88654 3.7983 0
M  V30 14696 N 1400.97 -1.2758 4.89446 0
M  V30 14697 C 1399.27 -2.185 3.8881 0
M  V30 14698 C 1399.97 -1.13848 5.7045 0
M  V30 14699 N 1398.95 -1.6427 5.18186 0
M  V30 14700 H 1402.75 -0.450784 2.90422 0
M  V30 14701 H 1400.26 -0.149178 1.61713 0
M  V30 14702 H 1402.26 -2.9141 2.98137 0
M  V30 14703 H 1400.92 -2.68388 1.82752 0
M  V30 14704 H 1401.93 -0.947506 5.09159 0
M  V30 14705 H 1398.61 -2.69276 3.19056 0
M  V30 14706 H 1400 -0.664014 6.68611 0
M  V30 14707 N 1402.72 -1.56081 -0.218252 0
M  V30 14708 C 1404.13 -1.69397 -0.784964 0
M  V30 14709 C 1404.48 -0.65775 -1.84846 0
M  V30 14710 O 1403.6 0.190478 -2.1556 0
M  V30 14711 C 1404.2 -3.07114 -1.4306 0
M  V30 14712 C 1402.76 -3.22273 -1.94466 0
M  V30 14713 C 1401.9 -2.65327 -0.80604 0
M  V30 14714 H 1404.86 -1.58699 0.0064566 0
M  V30 14715 H 1404.88 -3.03156 -2.2995 0
M  V30 14716 H 1404.39 -3.8251 -0.656335 0
M  V30 14717 H 1402.49 -2.51752 -2.74684 0
M  V30 14718 H 1402.6 -4.29526 -2.12237 0
M  V30 14719 H 1400.97 -2.23894 -1.21423 0
M  V30 14720 H 1401.75 -3.43271 -0.0443928 0
M  V30 14721 N 1404.2 0.485086 -1.49949 0
M  V30 14722 C 1405.44 1.23571 -1.5992 0
M  V30 14723 C 1405.76 1.92754 -0.295108 0
M  V30 14724 O 1405.03 1.83474 0.686582 0
M  V30 14725 H 1403.61 0.459104 -0.589264 0
M  V30 14726 H 1406.28 0.560822 -1.86657 0
M  V30 14727 H 1405.37 1.99114 -2.40333 0
M  V30 14728 N 1405.67 1.39291 0.737279 0
M  V30 14729 C 1406.58 1.40098 1.88175 0
M  V30 14730 C 1407.6 0.296053 1.71463 0
M  V30 14731 O 1408.78 0.537153 1.94105 0
M  V30 14732 C 1405.84 1.24071 3.2374 0
M  V30 14733 C 1404.9 2.44515 3.52861 0
M  V30 14734 C 1404.13 2.29243 4.81958 0
M  V30 14735 O 1404.36 1.2947 5.55512 0
M  V30 14736 O 1403.29 3.18178 5.10927 0
M  V30 14737 H 1407.12 2.36565 1.90449 0
M  V30 14738 H 1404.7 1.20382 0.884786 0
M  V30 14739 H 1406.58 1.17257 4.04758 0
M  V30 14740 H 1405.26 0.30698 3.22241 0
M  V30 14741 H 1404.17 2.56905 2.71939 0
M  V30 14742 H 1405.5 3.36573 3.59137 0
M  V30 14743 N 1407.15 -0.967221 1.24429 0
M  V30 14744 C 1408.4 -1.70458 1.07829 0
M  V30 14745 C 1408.71 -1.91818 -0.38278 0
M  V30 14746 O 1409.92 -2.63129 -0.668982 0
M  V30 14747 C 1408.38 -3.06817 1.88125 0
M  V30 14748 C 1407.98 -2.93298 3.38645 0
M  V30 14749 C 1409.73 -3.84422 1.80056 0
M  V30 14750 C 1407.63 -4.2497 4.11284 0
M  V30 14751 H 1406.56 -0.639217 0.399897 0
M  V30 14752 H 1409.22 -1.07776 1.48515 0
M  V30 14753 H 1407.6 -3.70331 1.40254 0
M  V30 14754 H 1408.77 -2.38793 3.94099 0
M  V30 14755 H 1407.09 -2.29159 3.47671 0
M  V30 14756 H 1409.68 -4.81925 2.31629 0
M  V30 14757 H 1410.03 -4.09194 0.765908 0
M  V30 14758 H 1410.56 -3.27636 2.2561 0
M  V30 14759 H 1407.3 -4.05391 5.1511 0
M  V30 14760 H 1406.82 -4.79288 3.60615 0
M  V30 14761 H 1408.5 -4.93586 4.18308 0
M  V30 14762 N 1408.63 -1.05812 -1.16797 0
M  V30 14763 C 1409.58 -0.634669 -2.18988 0
M  V30 14764 C 1410.56 0.332122 -1.57435 0
M  V30 14765 O 1411.76 0.148346 -1.76377 0
M  V30 14766 C 1408.88 -0.0174742 -3.43296 0
M  V30 14767 C 1407.97 -1.00847 -4.11935 0
M  V30 14768 N 1408.36 -2.18223 -4.56303 0
M  V30 14769 C 1406.66 -0.838325 -4.3805 0
M  V30 14770 C 1407.36 -2.80967 -5.09345 0
M  V30 14771 N 1406.34 -2.08725 -5.01931 0
M  V30 14772 H 1410.14 -1.52888 -2.51003 0
M  V30 14773 H 1407.65 -0.929125 -1.33195 0
M  V30 14774 H 1409.65 0.303692 -4.15792 0
M  V30 14775 H 1408.31 0.872052 -3.1277 0
M  V30 14776 H 1409.32 -2.56025 -4.5019 0
M  V30 14777 H 1406 -0.000376066 -4.175 0
M  V30 14778 H 1407.39 -3.80541 -5.53749 0
M  V30 14779 N 1410.11 1.33347 -0.840014 0
M  V30 14780 C 1411.04 2.31703 -0.289138 0
M  V30 14781 C 1412.02 1.59024 0.603759 0
M  V30 14782 O 1413.2 1.86911 0.527071 0
M  V30 14783 C 1410.33 3.43144 0.53566 0
M  V30 14784 C 1409.29 4.272 -0.261544 0
M  V30 14785 C 1408.61 5.30267 0.687075 0
M  V30 14786 C 1409.91 5.00915 -1.47924 0
M  V30 14787 H 1411.61 2.78026 -1.11094 0
M  V30 14788 H 1409.15 1.33666 -0.535658 0
M  V30 14789 H 1411.11 4.10979 0.931351 0
M  V30 14790 H 1409.83 2.95512 1.39069 0
M  V30 14791 H 1408.49 3.60991 -0.638809 0
M  V30 14792 H 1408.14 4.78893 1.53853 0
M  V30 14793 H 1407.84 5.87388 0.157773 0
M  V30 14794 H 1409.36 6.00968 1.08026 0
M  V30 14795 H 1410.78 5.61511 -1.15664 0
M  V30 14796 H 1409.17 5.67692 -1.94541 0
M  V30 14797 H 1410.24 4.29622 -2.24839 0
M  V30 14798 N 1411.59 0.596556 1.45873 0
M  V30 14799 C 1412.81 0.0934926 2.06689 0
M  V30 14800 C 1413.23 -1.21743 1.44305 0
M  V30 14801 O 1412.59 -1.73912 0.553253 0
M  V30 14802 C 1412.64 -0.0643337 3.61443 0
M  V30 14803 O 1412.36 1.19472 4.21495 0
M  V30 14804 C 1413.86 -0.600141 4.39219 0
M  V30 14805 H 1411.08 0.0637846 0.667961 0
M  V30 14806 H 1413.62 0.821159 1.87289 0
M  V30 14807 H 1411.78 -0.742278 3.80222 0
M  V30 14808 H 1412.19 1.01735 5.14539 0
M  V30 14809 H 1413.67 -0.6597 5.48044 0
M  V30 14810 H 1414.14 -1.62009 4.08227 0
M  V30 14811 H 1414.75 0.0433915 4.25278 0
M  V30 14812 N 1413.06 -1.53996 0.335095 0
M  V30 14813 C 1414.31 -2.01069 -0.264388 0
M  V30 14814 C 1414.64 -1.22271 -1.50876 0
M  V30 14815 O 1413.92 -0.30806 -1.92045 0
M  V30 14816 C 1414.2 -3.55283 -0.587 0
M  V30 14817 C 1414.05 -4.44799 0.668877 0
M  V30 14818 C 1415.37 -4.17238 -1.40003 0
M  V30 14819 H 1412.49 -0.730901 -0.0946202 0
M  V30 14820 H 1415.13 -1.84497 0.453958 0
M  V30 14821 H 1413.28 -3.69536 -1.19899 0
M  V30 14822 H 1414.96 -4.42398 1.30698 0
M  V30 14823 H 1413.2 -4.14005 1.29547 0
M  V30 14824 H 1413.87 -5.5056 0.398523 0
M  V30 14825 H 1416.35 -4.06631 -0.88262 0
M  V30 14826 H 1415.22 -5.2523 -1.59451 0
M  V30 14827 H 1415.48 -3.71309 -2.39962 0
M  V30 14828 N 1414.54 -0.0635198 -1.57472 0
M  V30 14829 C 1415.5 0.891881 -2.11135 0
M  V30 14830 C 1416.5 1.23182 -1.03358 0
M  V30 14831 O 1417.69 1.16646 -1.2938 0
M  V30 14832 C 1414.83 2.19792 -2.60584 0
M  V30 14833 H 1416.02 0.426461 -2.96852 0
M  V30 14834 H 1413.57 0.185069 -1.552 0
M  V30 14835 H 1414.31 2.70889 -1.78297 0
M  V30 14836 H 1414.09 1.96419 -3.39355 0
M  V30 14837 H 1415.58 2.88203 -3.02206 0
M  V30 14838 N 1416.02 1.56195 0.209972 0
M  V30 14839 C 1417.27 1.80011 0.93402 0
M  V30 14840 C 1417.6 0.635109 1.83521 0
M  V30 14841 O 1416.87 -0.365099 1.91043 0
M  V30 14842 C 1417.16 3.13989 1.76304 0
M  V30 14843 C 1417.01 4.40956 0.887567 0
M  V30 14844 C 1418.33 3.44514 2.73857 0
M  V30 14845 H 1415.45 0.654859 0.338125 0
M  V30 14846 H 1418.09 1.88921 0.20221 0
M  V30 14847 H 1416.24 3.06524 2.38695 0
M  V30 14848 H 1417.91 4.60452 0.279507 0
M  V30 14849 H 1416.15 4.33368 0.193533 0
M  V30 14850 H 1416.83 5.31164 1.50228 0
M  V30 14851 H 1419.3 3.52182 2.216 0
M  V30 14852 H 1418.18 4.39407 3.28957 0
M  V30 14853 H 1418.44 2.6726 3.52171 0
M  V30 14854 N 1417.5 -0.477127 1.50204 0
M  V30 14855 C 1418.43 -1.58405 1.71552 0
M  V30 14856 C 1419.41 -1.60463 0.564413 0
M  V30 14857 O 1420.59 -1.76826 0.802893 0
M  V30 14858 C 1417.72 -2.96765 1.8041 0
M  V30 14859 C 1416.68 -3.09573 2.95548 0
M  V30 14860 C 1416 -4.49522 2.89542 0
M  V30 14861 C 1417.3 -2.87356 4.36147 0
M  V30 14862 H 1419 -1.40792 2.64231 0
M  V30 14863 H 1416.54 -0.675886 1.27153 0
M  V30 14864 H 1418.5 -3.74125 1.9393 0
M  V30 14865 H 1417.22 -3.1552 0.843489 0
M  V30 14866 H 1415.88 -2.34645 2.81669 0
M  V30 14867 H 1415.53 -4.65186 1.91339 0
M  V30 14868 H 1415.23 -4.59028 3.66834 0
M  V30 14869 H 1416.75 -5.28909 3.05102 0
M  V30 14870 H 1418.17 -3.54469 4.50583 0
M  V30 14871 H 1416.56 -3.08313 5.14843 0
M  V30 14872 H 1417.63 -1.83264 4.48935 0
M  V30 14873 N 1418.98 -1.3968 -0.729882 0
M  V30 14874 C 1419.94 -1.38577 -1.82562 0
M  V30 14875 C 1420.94 -0.281994 -1.58308 0
M  V30 14876 O 1422.13 -0.540165 -1.65614 0
M  V30 14877 C 1419.26 -1.16343 -3.20433 0
M  V30 14878 H 1420.45 -2.36086 -1.84942 0
M  V30 14879 H 1418.01 -1.25319 -0.934063 0
M  V30 14880 H 1418.74 -0.195372 -3.23711 0
M  V30 14881 H 1418.53 -1.96282 -3.39435 0
M  V30 14882 H 1420.02 -1.18325 -4.00486 0
M  V30 14883 N 1420.45 0.960609 -1.2494 0
M  V30 14884 C 1421.68 1.73676 -1.11894 0
M  V30 14885 C 1422.09 1.86288 0.330648 0
M  V30 14886 O 1421.44 1.35575 1.23957 0
M  V30 14887 C 1421.5 3.17142 -1.69297 0
M  V30 14888 C 1421.16 3.27978 -3.18244 0
M  V30 14889 C 1422.16 3.12754 -4.15308 0
M  V30 14890 C 1419.84 3.51991 -3.5834 0
M  V30 14891 C 1421.84 3.21379 -5.50449 0
M  V30 14892 C 1419.52 3.60253 -4.9362 0
M  V30 14893 C 1420.52 3.44961 -5.89484 0
M  V30 14894 O 1420.21 3.52893 -7.22303 0
M  V30 14895 H 1419.94 0.551226 -0.391313 0
M  V30 14896 H 1422.5 1.21418 -1.65671 0
M  V30 14897 H 1420.73 3.70736 -1.09961 0
M  V30 14898 H 1422.42 3.76592 -1.51437 0
M  V30 14899 H 1423.18 2.94079 -3.85672 0
M  V30 14900 H 1419.06 3.62957 -2.84224 0
M  V30 14901 H 1422.6 3.0936 -6.25254 0
M  V30 14902 H 1418.5 3.78444 -5.22925 0
M  V30 14903 H 1419.27 3.69563 -7.30319 0
M  V30 14904 N 1421.93 1.0643 1.16234 0
M  V30 14905 C 1423.35 0.78802 1.38789 0
M  V30 14906 C 1423.55 -0.612019 1.91981 0
M  V30 14907 O 1422.6 -1.37235 2.1195 0
M  V30 14908 C 1423.92 1.85406 2.36738 0
M  V30 14909 C 1425.47 1.87773 2.5042 0
M  V30 14910 C 1425.94 2.93435 3.51653 0
M  V30 14911 N 1427.43 2.92477 3.59181 0
M  V30 14912 C 1428.17 3.7088 4.37305 0
M  V30 14913 N 1427.66 4.59106 5.18839 0
M  V30 14914 N 1429.46 3.59267 4.32301 0
M  V30 14915 H 1421.61 1.9674 0.800449 0
M  V30 14916 H 1423.87 0.852631 0.414397 0
M  V30 14917 H 1423.58 2.85954 2.04751 0
M  V30 14918 H 1423.45 1.70625 3.36403 0
M  V30 14919 H 1425.84 0.878825 2.8171 0
M  V30 14920 H 1425.92 2.06633 1.50787 0
M  V30 14921 H 1425.56 3.93519 3.211 0
M  V30 14922 H 1425.49 2.71824 4.5102 0
M  V30 14923 H 1427.98 2.28517 3.00979 0
M  V30 14924 H 1428.3 5.15583 5.75668 0
M  V30 14925 H 1426.64 4.6316 5.18177 0
M  V30 14926 H 1429.83 2.89726 3.67663 0
M  V30 14927 H 1430 4.20613 4.92939 0
M  V30 14928 N 1423.41 -1.329 0.847073 0
M  V30 14929 C 1424.64 -2.0171 0.460497 0
M  V30 14930 C 1425.05 -1.63699 -0.940649 0
M  V30 14931 O 1424.41 -0.854454 -1.61262 0
M  V30 14932 C 1424.46 -3.56799 0.581108 0
M  V30 14933 O 1424.18 -3.93442 1.92705 0
M  V30 14934 C 1425.68 -4.42882 0.192552 0
M  V30 14935 H 1422.9 -0.645887 0.181853 0
M  V30 14936 H 1425.45 -1.69648 1.14192 0
M  V30 14937 H 1423.6 -3.87364 -0.0524924 0
M  V30 14938 H 1424.02 -4.88157 1.91841 0
M  V30 14939 H 1425.49 -5.51025 0.327969 0
M  V30 14940 H 1425.97 -4.30571 -0.866315 0
M  V30 14941 H 1426.57 -4.17691 0.800918 0
M  V30 14942 N 1424.89 -0.604284 -1.45555 0
M  V30 14943 C 1425.82 0.154579 -2.28678 0
M  V30 14944 C 1426.83 0.83491 -1.39761 0
M  V30 14945 O 1428.02 0.700852 -1.64166 0
M  V30 14946 C 1425.12 1.2397 -3.15412 0
M  V30 14947 C 1424.3 0.647128 -4.32586 0
M  V30 14948 C 1423.35 1.62272 -5.00554 0
M  V30 14949 O 1422.38 1.15031 -5.57455 0
M  V30 14950 N 1423.58 2.9571 -4.99536 0
M  V30 14951 H 1426.35 -0.558668 -2.94447 0
M  V30 14952 H 1423.91 -0.443538 -1.55706 0
M  V30 14953 H 1425.9 1.89209 -3.57746 0
M  V30 14954 H 1424.47 1.85552 -2.51574 0
M  V30 14955 H 1423.69 -0.183261 -3.93774 0
M  V30 14956 H 1424.98 0.231394 -5.08274 0
M  V30 14957 H 1424.38 3.36695 -4.54591 0
M  V30 14958 H 1422.93 3.56381 -5.45744 0
M  V30 14959 N 1426.37 1.53816 -0.343257 0
M  V30 14960 C 1427.64 1.9315 0.308609 0
M  V30 14961 C 1428.02 1.27479 1.68263 0
M  V30 14962 O 1427.37 0.425614 2.24501 0
M  V30 14963 C 1427.58 3.46912 0.381176 0
M  V30 14964 C 1428.93 4.19868 0.632153 0
M  V30 14965 O 1429.95 3.53174 0.463303 0
M  V30 14966 O 1428.81 5.38016 0.959237 0
M  V30 14967 H 1425.91 0.807169 0.180022 0
M  V30 14968 H 1428.45 1.65053 -0.394412 0
M  V30 14969 H 1427.22 3.86932 -0.583058 0
M  V30 14970 H 1426.85 3.81175 1.13099 0
M  V30 14971 N 1427.84 0.0718701 1.57436 0
M  V30 14972 C 1429.09 -0.596052 1.9311 0
M  V30 14973 C 1429.41 -1.70146 0.952652 0
M  V30 14974 O 1428.68 -1.959 0.000812941 0
M  V30 14975 H 1427.26 -0.223165 0.712886 0
M  V30 14976 H 1429.93 0.129744 1.94468 0
M  V30 14977 H 1429.02 -1.02132 2.94916 0
M  V30 14978 N 1429.32 -1.56304 -0.201686 0
M  V30 14979 C 1430.25 -1.97046 -1.25281 0
M  V30 14980 C 1431.23 -0.841458 -1.47829 0
M  V30 14981 O 1432.42 -1.10529 -1.59678 0
M  V30 14982 C 1429.55 -2.30429 -2.59845 0
M  V30 14983 C 1428.5 -3.46006 -2.5192 0
M  V30 14984 C 1427.83 -3.65047 -3.90697 0
M  V30 14985 C 1429.13 -4.80391 -2.04992 0
M  V30 14986 H 1430.82 -2.85099 -0.914272 0
M  V30 14987 H 1428.37 -1.37166 -0.438359 0
M  V30 14988 H 1430.32 -2.57525 -3.33555 0
M  V30 14989 H 1429.05 -1.39251 -2.95426 0
M  V30 14990 H 1427.7 -3.18991 -1.80667 0
M  V30 14991 H 1427.35 -2.71211 -4.2362 0
M  V30 14992 H 1427.05 -4.42796 -3.86271 0
M  V30 14993 H 1428.58 -3.94512 -4.66039 0
M  V30 14994 H 1429.99 -5.06561 -2.68456 0
M  V30 14995 H 1428.39 -5.61563 -2.11582 0
M  V30 14996 H 1429.46 -4.74416 -1.00288 0
M  V30 14997 N 1430.8 0.469154 -1.50455 0
M  V30 14998 C 1432.05 1.21868 -1.61222 0
M  V30 14999 C 1432.37 1.9243 -0.315535 0
M  V30 15000 O 1431.64 1.84192 0.667083 0
M  V30 15001 H 1430.22 0.452828 -0.594101 0
M  V30 15002 H 1432.88 0.540993 -1.87241 0
M  V30 15003 H 1431.98 1.96554 -2.42431 0
M  V30 15004 N 1432.28 1.40065 0.722464 0
M  V30 15005 C 1433.69 1.33876 1.30131 0
M  V30 15006 C 1434.04 0.00899369 1.96198 0
M  V30 15007 O 1433.17 -0.893082 1.97112 0
M  V30 15008 C 1433.76 2.42469 2.36631 0
M  V30 15009 C 1432.32 2.39762 2.90157 0
M  V30 15010 C 1431.47 2.23704 1.63865 0
M  V30 15011 H 1434.42 1.49971 0.519077 0
M  V30 15012 H 1434.44 2.0998 3.17315 0
M  V30 15013 H 1433.95 3.39239 1.88517 0
M  V30 15014 H 1432.05 1.46669 3.42519 0
M  V30 15015 H 1432.16 3.35092 3.42419 0
M  V30 15016 H 1430.53 1.71098 1.88674 0
M  V30 15017 H 1431.31 3.22462 1.17785 0
M  V30 15018 N 1433.76 -0.95397 1.25448 0
M  V30 15019 C 1434.69 -2.06828 1.08372 0
M  V30 15020 C 1435.67 -1.70098 -0.00741585 0
M  V30 15021 O 1436.85 -1.93521 0.16224 0
M  V30 15022 C 1433.98 -3.40124 0.702365 0
M  V30 15023 C 1432.94 -3.90865 1.74381 0
M  V30 15024 C 1432.26 -5.20663 1.21712 0
M  V30 15025 C 1433.56 -4.17169 3.14273 0
M  V30 15026 H 1435.26 -2.21372 2.01581 0
M  V30 15027 H 1432.8 -1.06374 0.970592 0
M  V30 15028 H 1434.76 -4.17529 0.569837 0
M  V30 15029 H 1433.48 -3.2552 -0.265428 0
M  V30 15030 H 1432.14 -3.15628 1.86479 0
M  V30 15031 H 1431.79 -5.02429 0.23954 0
M  V30 15032 H 1431.49 -5.55581 1.91319 0
M  V30 15033 H 1433.01 -6.00665 1.097 0
M  V30 15034 H 1434.43 -4.85231 3.05325 0
M  V30 15035 H 1432.82 -4.63344 3.81356 0
M  V30 15036 H 1433.89 -3.23421 3.61285 0
M  V30 15037 N 1435.24 -1.07045 -1.15668 0
M  V30 15038 C 1436.19 -0.65786 -2.18303 0
M  V30 15039 C 1437.17 0.315405 -1.57778 0
M  V30 15040 O 1438.36 0.129631 -1.76525 0
M  V30 15041 C 1435.49 -0.0538843 -3.43258 0
M  V30 15042 C 1434.58 -1.0521 -4.10843 0
M  V30 15043 N 1434.97 -2.23051 -4.53963 0
M  V30 15044 C 1433.27 -0.884739 -4.37137 0
M  V30 15045 C 1433.97 -2.86354 -5.06336 0
M  V30 15046 N 1432.94 -2.14037 -4.99689 0
M  V30 15047 H 1436.74 -1.55542 -2.49367 0
M  V30 15048 H 1434.26 -0.9432 -1.32202 0
M  V30 15049 H 1436.26 0.259575 -4.16091 0
M  V30 15050 H 1434.92 0.83883 -3.13678 0
M  V30 15051 H 1435.93 -2.60786 -4.4745 0
M  V30 15052 H 1432.6 -0.0446575 -4.17476 0
M  V30 15053 H 1433.99 -3.86393 -5.49682 0
M  V30 15054 N 1436.71 1.32449 -0.85411 0
M  V30 15055 C 1437.94 2.01171 -0.470505 0
M  V30 15056 C 1438.35 1.64356 0.937218 0
M  V30 15057 O 1437.69 0.860565 1.62296 0
M  V30 15058 C 1437.76 3.55583 -0.529241 0
M  V30 15059 C 1437.42 4.15824 -1.89576 0
M  V30 15060 C 1438.42 4.34091 -2.86114 0
M  V30 15061 C 1436.1 4.51911 -2.19276 0
M  V30 15062 C 1438.1 4.87612 -4.10504 0
M  V30 15063 C 1435.78 5.05137 -3.43919 0
M  V30 15064 C 1436.78 5.22936 -4.39349 0
M  V30 15065 O 1436.47 5.75024 -5.61785 0
M  V30 15066 H 1436.2 0.650645 -0.183405 0
M  V30 15067 H 1438.76 1.70015 -1.15257 0
M  V30 15068 H 1436.99 3.86131 0.209671 0
M  V30 15069 H 1438.67 4.05579 -0.161315 0
M  V30 15070 H 1439.44 4.06545 -2.64473 0
M  V30 15071 H 1435.32 4.37343 -1.45782 0
M  V30 15072 H 1438.86 5.0142 -4.84999 0
M  V30 15073 H 1434.76 5.32114 -3.6541 0
M  V30 15074 H 1435.53 5.93418 -5.63736 0
M  V30 15075 N 1438.19 0.611994 1.45232 0
M  V30 15076 C 1439.44 0.108696 2.01807 0
M  V30 15077 C 1439.76 -1.26692 1.48237 0
M  V30 15078 O 1439.03 -1.8378 0.678368 0
M  V30 15079 H 1437.61 0.0371921 0.746074 0
M  V30 15080 H 1440.27 0.794386 1.77976 0
M  V30 15081 H 1439.37 0.0618207 3.12039 0
M  V30 15082 N 1439.67 -1.53632 0.351409 0
M  V30 15083 C 1440.92 -2.01338 -0.243047 0
M  V30 15084 C 1441.25 -1.23864 -1.4957 0
M  V30 15085 O 1440.52 -0.328412 -1.91707 0
M  V30 15086 C 1440.81 -3.55886 -0.549284 0
M  V30 15087 C 1440.66 -4.44064 0.716016 0
M  V30 15088 C 1441.98 -4.18699 -1.35569 0
M  V30 15089 H 1439.1 -0.731863 -0.0868627 0
M  V30 15090 H 1441.74 -1.84005 0.473501 0
M  V30 15091 H 1439.89 -3.70787 -1.15972 0
M  V30 15092 H 1441.56 -4.40987 1.35383 0
M  V30 15093 H 1439.8 -4.12608 1.3393 0
M  V30 15094 H 1440.48 -5.50106 0.456895 0
M  V30 15095 H 1442.95 -4.07545 -0.839441 0
M  V30 15096 H 1441.83 -5.26892 -1.53871 0
M  V30 15097 H 1442.09 -3.73834 -2.3601 0
M  V30 15098 N 1441.15 -0.0802183 -1.57396 0
M  V30 15099 C 1442.39 0.590512 -1.95684 0
M  V30 15100 C 1442.75 1.66265 -0.960199 0
M  V30 15101 O 1443.95 2.38954 -1.23104 0
M  V30 15102 C 1442.22 1.14486 -3.38567 0
M  V30 15103 S 1443.78 1.82954 -3.9884 0
M  V30 15104 H 1440.6 0.193123 -0.684269 0
M  V30 15105 H 1443.2 -0.156081 -1.94876 0
M  V30 15106 H 1441.91 0.352828 -4.08881 0
M  V30 15107 H 1441.44 1.92762 -3.42938 0
M  V30 15108 H 1443.45 3.11265 -3.86431 0
M  V30 15109 N 1442.63 1.56409 0.193394 0
M  V30 15110 C 1443.85 1.8519 0.933775 0
M  V30 15111 C 1444.28 0.663991 1.75991 0
M  V30 15112 O 1443.63 -0.387198 1.77117 0
M  V30 15113 C 1443.68 3.12212 1.80432 0
M  V30 15114 O 1442.79 2.92884 2.90332 0
M  V30 15115 H 1442.13 0.609754 0.262862 0
M  V30 15116 H 1444.66 2.03638 0.198195 0
M  V30 15117 H 1444.67 3.4305 2.20864 0
M  V30 15118 H 1443.34 3.98292 1.19733 0
M  V30 15119 H 1441.92 2.73349 2.53643 0
M  V30 15120 N 1444.1 -0.461169 1.50702 0
M  V30 15121 C 1445.33 -1.23554 1.65958 0
M  V30 15122 C 1445.75 -1.85584 0.346977 0
M  V30 15123 O 1445.1 -1.69672 -0.672129 0
M  V30 15124 C 1445.15 -2.33704 2.75799 0
M  V30 15125 O 1444.88 -1.74215 4.01971 0
M  V30 15126 C 1446.38 -3.24409 3.02116 0
M  V30 15127 H 1443.6 -0.373299 0.557574 0
M  V30 15128 H 1446.14 -0.549338 1.96984 0
M  V30 15129 H 1444.3 -2.98081 2.47439 0
M  V30 15130 H 1444.71 -2.46827 4.62792 0
M  V30 15131 H 1446.18 -3.97885 3.82611 0
M  V30 15132 H 1446.66 -3.83774 2.13576 0
M  V30 15133 H 1447.27 -2.65757 3.32044 0
M  V30 15134 N 1445.58 -1.40446 -0.715026 0
M  V30 15135 C 1446.83 -1.39962 -1.47587 0
M  V30 15136 C 1447.18 -0.00170702 -1.924 0
M  V30 15137 O 1446.48 0.968788 -1.65303 0
M  V30 15138 C 1446.67 -2.32392 -2.7153 0
M  V30 15139 C 1446.5 -3.81032 -2.3884 0
M  V30 15140 C 1445.27 -4.49842 -2.30153 0
M  V30 15141 C 1447.47 -4.7251 -2.03073 0
M  V30 15142 N 1445.45 -5.83711 -1.90143 0
M  V30 15143 C 1446.82 -5.9518 -1.73668 0
M  V30 15144 C 1448.87 -4.6034 -1.89714 0
M  V30 15145 C 1447.58 -7.07038 -1.32248 0
M  V30 15146 C 1449.6 -5.7214 -1.49698 0
M  V30 15147 C 1448.97 -6.93896 -1.21191 0
M  V30 15148 H 1445.06 -0.567409 -0.538118 0
M  V30 15149 H 1447.65 -1.76163 -0.829144 0
M  V30 15150 H 1445.82 -1.98319 -3.33953 0
M  V30 15151 H 1447.55 -2.22762 -3.37875 0
M  V30 15152 H 1444.31 -4.0353 -2.47912 0
M  V30 15153 H 1444.73 -6.54608 -1.72675 0
M  V30 15154 H 1449.37 -3.66723 -2.10414 0
M  V30 15155 H 1447.09 -8.00538 -1.10291 0
M  V30 15156 H 1450.68 -5.6472 -1.39939 0
M  V30 15157 H 1449.56 -7.78938 -0.906925 0
M  V30 15158 N 1447.06 0.947303 -1.25952 0
M  V30 15159 C 1447.99 2.0625 -1.09467 0
M  V30 15160 C 1448.97 1.701 -0.00160498 0
M  V30 15161 O 1450.16 1.93432 -0.172501 0
M  V30 15162 C 1447.29 3.39746 -0.720392 0
M  V30 15163 C 1446.24 3.89935 -1.76451 0
M  V30 15164 C 1445.57 5.2001 -1.24472 0
M  V30 15165 C 1446.87 4.15496 -3.16481 0
M  V30 15166 H 1448.56 2.203 -2.02752 0
M  V30 15167 H 1446.11 1.05858 -0.97622 0
M  V30 15168 H 1448.06 4.17221 -0.591972 0
M  V30 15169 H 1446.78 3.25656 0.248161 0
M  V30 15170 H 1445.44 3.14635 -1.8815 0
M  V30 15171 H 1445.09 5.02295 -0.266182 0
M  V30 15172 H 1444.79 5.54559 -1.94263 0
M  V30 15173 H 1446.31 6.00075 -1.12884 0
M  V30 15174 H 1447.73 4.83605 -3.07894 0
M  V30 15175 H 1446.12 4.61315 -3.83808 0
M  V30 15176 H 1447.19 3.21501 -3.62995 0
M  V30 15177 N 1448.54 1.07657 1.15099 0
M  V30 15178 C 1449.76 0.82291 1.90376 0
M  V30 15179 C 1450.19 -0.618415 1.77644 0
M  V30 15180 O 1449.55 -1.43248 1.11129 0
M  V30 15181 C 1449.59 1.23988 3.38614 0
M  V30 15182 O 1448.7 0.387085 4.10579 0
M  V30 15183 H 1448.04 0.299532 0.592602 0
M  V30 15184 H 1450.57 1.436 1.4574 0
M  V30 15185 H 1450.58 1.21741 3.89414 0
M  V30 15186 H 1449.25 2.28966 3.472 0
M  V30 15187 H 1447.83 0.472311 3.69897 0
M  V30 15188 N 1450.02 -1.31994 0.861122 0
M  V30 15189 C 1450.95 -2.27632 0.267681 0
M  V30 15190 C 1451.96 -1.52709 -0.564265 0
M  V30 15191 O 1453.15 -1.74239 -0.3877 0
M  V30 15192 C 1450.25 -3.32805 -0.639856 0
M  V30 15193 C 1449.42 -4.37116 0.157676 0
M  V30 15194 C 1448.48 -5.21832 -0.676624 0
M  V30 15195 O 1447.51 -5.69098 -0.107822 0
M  V30 15196 N 1448.71 -5.45317 -1.99022 0
M  V30 15197 H 1451.48 -2.79195 1.0895 0
M  V30 15198 H 1449.04 -1.44923 0.721733 0
M  V30 15199 H 1451.03 -3.86391 -1.20348 0
M  V30 15200 H 1449.6 -2.81351 -1.36236 0
M  V30 15201 H 1448.82 -3.83724 0.902741 0
M  V30 15202 H 1450.11 -5.03889 0.70524 0
M  V30 15203 H 1449.5 -5.08656 -2.47558 0
M  V30 15204 H 1448.06 -6.01874 -2.50182 0
M  V30 15205 N 1451.49 -0.619688 -1.44906 0
M  V30 15206 C 1452.42 0.0791121 -2.33366 0
M  V30 15207 C 1453.41 0.846503 -1.47541 0
M  V30 15208 O 1454.59 0.814657 -1.76287 0
M  V30 15209 C 1451.72 1.06901 -3.30438 0
M  V30 15210 C 1450.67 0.41403 -4.25993 0
M  V30 15211 C 1450 1.51303 -5.12846 0
M  V30 15212 C 1451.3 -0.672483 -5.17953 0
M  V30 15213 H 1452.99 -0.659551 -2.92045 0
M  V30 15214 H 1450.54 -0.318623 -1.40431 0
M  V30 15215 H 1452.49 1.56653 -3.912 0
M  V30 15216 H 1451.22 1.83842 -2.69944 0
M  V30 15217 H 1449.88 -0.0627315 -3.66546 0
M  V30 15218 H 1449.52 2.27303 -4.48712 0
M  V30 15219 H 1449.22 1.08022 -5.77586 0
M  V30 15220 H 1450.75 2.01258 -5.76479 0
M  V30 15221 H 1452.16 -0.258542 -5.72717 0
M  V30 15222 H 1450.56 -1.02776 -5.91234 0
M  V30 15223 H 1451.63 -1.54425 -4.59653 0
M  V30 15224 N 1452.97 1.53444 -0.359552 0
M  V30 15225 C 1453.92 2.25544 0.48977 0
M  V30 15226 C 1454.89 1.25982 1.08248 0
M  V30 15227 O 1456.07 1.54751 1.1161 0
M  V30 15228 C 1453.21 3.04358 1.62666 0
M  V30 15229 C 1452.33 4.18801 1.0597 0
M  V30 15230 C 1451.46 4.85069 2.1652 0
M  V30 15231 C 1450.5 5.91554 1.57259 0
M  V30 15232 N 1449.64 6.51537 2.61617 0
M  V30 15233 H 1454.48 2.97709 -0.13158 0
M  V30 15234 H 1452.02 1.469 -0.0767056 0
M  V30 15235 H 1453.97 3.48324 2.29623 0
M  V30 15236 H 1452.6 2.34459 2.21876 0
M  V30 15237 H 1451.66 3.79364 0.280599 0
M  V30 15238 H 1452.97 4.95341 0.586383 0
M  V30 15239 H 1452.12 5.32187 2.9131 0
M  V30 15240 H 1450.86 4.07988 2.67202 0
M  V30 15241 H 1449.87 5.43803 0.809818 0
M  V30 15242 H 1451.09 6.70552 1.07409 0
M  V30 15243 H 1449.04 5.77312 3.11523 0
M  V30 15244 H 1448.95 7.23599 2.18954 0
M  V30 15245 H 1450.22 7.03306 3.36127 0
M  V30 15246 N 1454.45 0.0885642 1.57351 0
M  V30 15247 C 1455.86 -0.441569 1.81403 0
M  V30 15248 C 1456.21 -1.68582 1.00372 0
M  V30 15249 O 1455.34 -2.15162 0.231153 0
M  V30 15250 C 1455.93 -0.807886 3.29027 0
M  V30 15251 C 1454.49 -1.2828 3.53866 0
M  V30 15252 C 1453.64 -0.276217 2.75921 0
M  V30 15253 H 1456.59 0.314083 1.55561 0
M  V30 15254 H 1456.61 -1.66797 3.41993 0
M  V30 15255 H 1456.12 0.0978886 3.87977 0
M  V30 15256 H 1454.22 -2.2065 3.0024 0
M  V30 15257 H 1454.34 -1.24914 4.62529 0
M  V30 15258 H 1452.7 -0.757007 2.4319 0
M  V30 15259 H 1453.48 0.622123 3.37616 0
M  V30 15260 N 1455.93 -1.56509 -0.185096 0
M  V30 15261 C 1457.18 -1.80848 -0.902139 0
M  V30 15262 C 1457.5 -0.663295 -1.83372 0
M  V30 15263 O 1456.77 0.317754 -1.93306 0
M  V30 15264 H 1455.35 -0.667108 -0.336119 0
M  V30 15265 H 1458.01 -1.93989 -0.188211 0
M  V30 15266 H 1457.11 -2.74383 -1.48729 0
M  V30 15267 N 1457.41 0.45317 -1.50944 0
M  V30 15268 C 1458.68 1.21413 -1.53357 0
M  V30 15269 C 1459.06 2.09118 -0.288584 0
M  V30 15270 O 1458.41 2.16621 0.727164 0
M  V30 15271 C 1458.62 2.02969 -2.83909 0
M  V30 15272 C 1459.97 2.60551 -3.35258 0
M  V30 15273 O 1460.99 2.13196 -2.85353 0
M  V30 15274 O 1459.85 3.46881 -4.22298 0
M  V30 15275 H 1456.95 0.551909 -0.615894 0
M  V30 15276 H 1459.49 0.463529 -1.63247 0
M  V30 15277 H 1458.26 1.38453 -3.65987 0
M  V30 15278 H 1457.89 2.85127 -2.77107 0
M  V30 15279 N 1458.88 1.40823 0.707568 0
M  V30 15280 C 1460.3 1.35249 1.28704 0
M  V30 15281 C 1460.65 0.0298026 1.96177 0
M  V30 15282 O 1459.77 -0.872126 1.98048 0
M  V30 15283 C 1460.37 2.44965 2.34046 0
M  V30 15284 C 1458.93 2.42826 2.87598 0
M  V30 15285 C 1458.07 2.25429 1.61483 0
M  V30 15286 H 1461.02 1.50513 0.503141 0
M  V30 15287 H 1461.04 2.13334 3.1507 0
M  V30 15288 H 1460.56 3.41219 1.84908 0
M  V30 15289 H 1458.66 1.50294 3.40944 0
M  V30 15290 H 1458.77 3.38704 3.38845 0
M  V30 15291 H 1457.13 1.73089 1.86848 0
M  V30 15292 H 1457.92 3.23693 1.14359 0
M  V30 15293 N 1460.36 -0.94061 1.26453 0
M  V30 15294 C 1461.61 -1.68937 1.12197 0
M  V30 15295 C 1461.94 -1.91309 -0.33382 0
M  V30 15296 O 1461.22 -1.49417 -1.24518 0
M  V30 15297 C 1461.5 -3.06381 1.89215 0
M  V30 15298 C 1461.35 -2.91331 3.42704 0
M  V30 15299 C 1462.67 -4.06507 1.68642 0
M  V30 15300 H 1459.79 -0.613121 0.408964 0
M  V30 15301 H 1462.43 -1.09242 1.55455 0
M  V30 15302 H 1460.58 -3.57339 1.5245 0
M  V30 15303 H 1462.25 -2.47591 3.89226 0
M  V30 15304 H 1460.5 -2.26945 3.697 0
M  V30 15305 H 1461.17 -3.88818 3.91822 0
M  V30 15306 H 1463.64 -3.64512 2.00674 0
M  V30 15307 H 1462.52 -5.0069 2.24945 0
M  V30 15308 H 1462.78 -4.37572 0.631131 0
M  V30 15309 N 1461.84 -1.08266 -1.14527 0
M  V30 15310 C 1463.25 -0.832702 -1.67102 0
M  V30 15311 C 1463.6 0.640776 -1.85441 0
M  V30 15312 O 1462.73 1.49505 -1.56452 0
M  V30 15313 C 1463.32 -1.50502 -3.03537 0
M  V30 15314 C 1461.88 -1.30234 -3.53152 0
M  V30 15315 C 1461.03 -1.56873 -2.28661 0
M  V30 15316 H 1463.98 -1.24344 -0.986118 0
M  V30 15317 H 1464 -0.931426 -3.68924 0
M  V30 15318 H 1463.51 -2.57741 -2.90157 0
M  V30 15319 H 1461.61 -0.250582 -3.71756 0
M  V30 15320 H 1461.73 -2.02898 -4.34015 0
M  V30 15321 H 1460.09 -0.990214 -2.34663 0
M  V30 15322 H 1460.87 -2.65316 -2.17859 0
M  V30 15323 N 1463.32 1.31536 -0.86811 0
M  V30 15324 C 1464.56 1.98573 -0.484592 0
M  V30 15325 C 1464.92 1.6713 0.945066 0
M  V30 15326 O 1466.12 2.27364 1.43384 0
M  V30 15327 C 1464.4 3.49817 -0.732305 0
M  V30 15328 S 1465.95 4.36503 -0.448369 0
M  V30 15329 H 1462.77 0.687584 -0.180969 0
M  V30 15330 H 1465.37 1.59976 -1.12373 0
M  V30 15331 H 1464.08 3.70191 -1.77163 0
M  V30 15332 H 1463.61 3.93318 -0.0800886 0
M  V30 15333 H 1465.62 4.90947 0.720116 0
M  V30 15334 N 1464.8 0.627364 1.44575 0
M  V30 15335 C 1466.04 0.130352 2.0208 0
M  V30 15336 C 1466.37 -1.24642 1.49314 0
M  V30 15337 O 1465.63 -1.84022 0.665923 0
M  V30 15338 C 1465.93 0.0622409 3.57346 0
M  V30 15339 C 1465.59 1.37729 4.2935 0
M  V30 15340 C 1464.25 1.73747 4.48737 0
M  V30 15341 C 1466.61 2.2455 4.70347 0
M  V30 15342 C 1463.93 2.96301 5.06382 0
M  V30 15343 C 1466.29 3.46371 5.29349 0
M  V30 15344 C 1464.95 3.82616 5.46956 0
M  V30 15345 H 1464.22 0.0476991 0.739463 0
M  V30 15346 H 1466.87 0.812928 1.73389 0
M  V30 15347 H 1465.17 -0.70369 3.85429 0
M  V30 15348 H 1466.87 -0.338778 3.99566 0
M  V30 15349 H 1463.46 1.08699 4.14587 0
M  V30 15350 H 1467.64 1.98019 4.55085 0
M  V30 15351 H 1462.9 3.24465 5.18201 0
M  V30 15352 H 1467.07 4.13882 5.60067 0
M  V30 15353 H 1464.7 4.77663 5.9139 0
M  V30 15354 N 1466.28 -1.53251 0.367684 0
M  V30 15355 C 1467.52 -2.00469 -0.222481 0
M  V30 15356 C 1467.84 -1.259 -1.49695 0
M  V30 15357 O 1469.04 -1.63717 -2.16585 0
M  V30 15358 C 1467.5 -3.57113 -0.447018 0
M  V30 15359 C 1467.11 -4.40562 0.812946 0
M  V30 15360 C 1468.85 -4.12681 -0.994725 0
M  V30 15361 C 1466.76 -5.88763 0.557877 0
M  V30 15362 H 1465.69 -0.748974 -0.0869144 0
M  V30 15363 H 1468.34 -1.76927 0.48675 0
M  V30 15364 H 1466.72 -3.76818 -1.21756 0
M  V30 15365 H 1467.9 -4.3263 1.58644 0
M  V30 15366 H 1466.21 -3.96108 1.28403 0
M  V30 15367 H 1468.81 -5.2104 -1.20091 0
M  V30 15368 H 1469.15 -3.67408 -1.95748 0
M  V30 15369 H 1469.68 -3.96783 -0.284295 0
M  V30 15370 H 1466.42 -6.38317 1.49102 0
M  V30 15371 H 1465.94 -5.99539 -0.177082 0
M  V30 15372 H 1467.62 -6.46738 0.18419 0
M  V30 15373 N 1467.75 -0.0969077 -1.57302 0
M  V30 15374 C 1469.17 0.25974 -1.57472 0
M  V30 15375 C 1469.37 1.6829 -1.10818 0
M  V30 15376 O 1468.43 2.39972 -0.785466 0
M  V30 15377 C 1469.74 0.0465211 -3.00664 0
M  V30 15378 C 1471.29 0.114131 -3.12792 0
M  V30 15379 C 1471.76 -0.0711175 -4.57945 0
M  V30 15380 N 1473.25 -0.0163438 -4.63197 0
M  V30 15381 C 1473.99 -0.1349 -5.73241 0
M  V30 15382 N 1473.48 -0.308391 -6.92113 0
M  V30 15383 N 1475.28 -0.0760411 -5.62049 0
M  V30 15384 H 1467.43 -1.02673 -1.85935 0
M  V30 15385 H 1469.69 -0.402528 -0.858298 0
M  V30 15386 H 1469.4 -0.936496 -3.39002 0
M  V30 15387 H 1469.27 0.78805 -3.68876 0
M  V30 15388 H 1471.66 1.08765 -2.74325 0
M  V30 15389 H 1471.74 -0.658918 -2.47168 0
M  V30 15390 H 1471.38 -1.04152 -4.97106 0
M  V30 15391 H 1471.31 0.721647 -5.21632 0
M  V30 15392 H 1473.8 0.115134 -3.77725 0
M  V30 15393 H 1474.12 -0.390318 -7.71814 0
M  V30 15394 H 1472.46 -0.344082 -6.94148 0
M  V30 15395 H 1475.65 0.0583778 -4.68064 0
M  V30 15396 H 1475.83 -0.171884 -6.47772 0
M  V30 15397 N 1469.23 1.56605 0.176793 0
M  V30 15398 C 1470.48 1.81324 0.892535 0
M  V30 15399 C 1470.8 0.67301 1.83018 0
M  V30 15400 O 1470.07 -0.307498 1.93472 0
M  V30 15401 H 1468.65 0.668881 0.332576 0
M  V30 15402 H 1471.31 1.94086 0.17792 0
M  V30 15403 H 1470.41 2.75168 1.47272 0
M  V30 15404 N 1470.71 -0.445159 1.51182 0
M  V30 15405 C 1471.67 -1.52224 1.71349 0
M  V30 15406 C 1472.67 -1.49834 0.583632 0
M  V30 15407 O 1473.86 -1.51995 0.85107 0
M  V30 15408 C 1470.99 -2.91789 1.76273 0
M  V30 15409 H 1472.19 -1.35649 2.67468 0
M  V30 15410 H 1469.74 -0.673312 1.41054 0
M  V30 15411 H 1470.48 -3.13777 0.819405 0
M  V30 15412 H 1470.26 -2.94928 2.58379 0
M  V30 15413 H 1471.75 -3.69938 1.93741 0
M  V30 15414 N 1472.19 -1.41197 -0.700089 0
M  V30 15415 C 1473.6 -1.3593 -1.27985 0
M  V30 15416 C 1473.95 -0.0402059 -1.96159 0
M  V30 15417 O 1473.07 0.861611 -1.98508 0
M  V30 15418 C 1473.67 -2.46203 -2.32743 0
M  V30 15419 C 1472.23 -2.44348 -2.86306 0
M  V30 15420 C 1471.38 -2.26283 -1.60285 0
M  V30 15421 H 1474.33 -1.50778 -0.495152 0
M  V30 15422 H 1474.35 -2.15001 -3.13934 0
M  V30 15423 H 1473.86 -3.42195 -1.83096 0
M  V30 15424 H 1471.96 -1.521 -3.40142 0
M  V30 15425 H 1472.07 -3.40497 -3.37044 0
M  V30 15426 H 1470.44 -1.74078 -1.85928 0
M  V30 15427 H 1471.22 -3.24295 -1.1264 0
M  V30 15428 N 1473.67 0.933891 -1.2695 0
M  V30 15429 C 1474.89 1.72042 -1.15828 0
M  V30 15430 C 1475.32 1.85975 0.28193 0
M  V30 15431 O 1474.67 1.35528 1.20423 0
M  V30 15432 C 1474.72 3.10112 -1.84019 0
M  V30 15433 O 1473.83 3.96504 -1.13394 0
M  V30 15434 H 1473.17 0.527573 -0.40319 0
M  V30 15435 H 1475.7 1.16914 -1.67905 0
M  V30 15436 H 1475.71 3.60461 -1.91133 0
M  V30 15437 H 1474.38 2.99287 -2.8879 0
M  V30 15438 H 1472.96 3.54948 -1.14307 0
M  V30 15439 N 1475.14 1.08871 1.13951 0
M  V30 15440 C 1476.39 0.821287 1.85098 0
M  V30 15441 C 1476.72 -0.65302 1.8321 0
M  V30 15442 O 1475.97 -1.49629 1.26134 0
M  V30 15443 C 1476.27 1.29443 3.33135 0
M  V30 15444 C 1475.94 2.77737 3.55208 0
M  V30 15445 C 1474.6 3.18238 3.60941 0
M  V30 15446 C 1476.95 3.7338 3.63644 0
M  V30 15447 C 1474.28 4.53165 3.72637 0
M  V30 15448 C 1476.63 5.08089 3.76867 0
M  V30 15449 C 1475.3 5.48187 3.8085 0
M  V30 15450 H 1474.57 0.30053 0.67732 0
M  V30 15451 H 1477.21 1.36249 1.34568 0
M  V30 15452 H 1475.52 0.672919 3.85978 0
M  V30 15453 H 1477.22 1.06421 3.86621 0
M  V30 15454 H 1473.81 2.45393 3.51398 0
M  V30 15455 H 1477.99 3.43207 3.58501 0
M  V30 15456 H 1473.25 4.83679 3.73985 0
M  V30 15457 H 1477.42 5.82058 3.82337 0
M  V30 15458 H 1475.05 6.52737 3.89665 0
M  V30 15459 N 1476.62 -1.31073 0.875073 0
M  V30 15460 C 1478.04 -1.49162 0.567697 0
M  V30 15461 C 1478.24 -1.80435 -0.896969 0
M  V30 15462 O 1477.29 -1.88604 -1.67883 0
M  V30 15463 C 1478.61 -2.6219 1.47231 0
M  V30 15464 C 1480.15 -2.76072 1.47489 0
M  V30 15465 C 1480.63 -3.92202 2.36519 0
M  V30 15466 N 1482.12 -3.99497 2.34428 0
M  V30 15467 C 1482.86 -4.88639 3.00033 0
M  V30 15468 N 1482.35 -5.82647 3.74826 0
M  V30 15469 N 1484.14 -4.81926 2.89315 0
M  V30 15470 H 1476.3 -1.09045 1.82272 0
M  V30 15471 H 1478.56 -0.539291 0.77966 0
M  V30 15472 H 1478.26 -2.45872 2.51475 0
M  V30 15473 H 1478.14 -3.58446 1.17459 0
M  V30 15474 H 1480.53 -2.91801 0.440008 0
M  V30 15475 H 1480.61 -1.80468 1.81287 0
M  V30 15476 H 1480.25 -3.77231 3.40087 0
M  V30 15477 H 1480.18 -4.87125 2.00043 0
M  V30 15478 H 1482.67 -3.32241 1.80067 0
M  V30 15479 H 1482.98 -6.47406 4.22001 0
M  V30 15480 H 1481.33 -5.82609 3.78934 0
M  V30 15481 H 1484.52 -4.07462 2.30418 0
M  V30 15482 H 1484.69 -5.51192 3.40722 0
M  V30 15483 N 1478.1 -0.635022 -1.4424 0
M  V30 15484 C 1479.03 0.0543561 -2.33437 0
M  V30 15485 C 1480.01 0.830807 -1.48431 0
M  V30 15486 O 1481.2 0.795913 -1.77141 0
M  V30 15487 C 1478.33 1.03391 -3.31553 0
M  V30 15488 C 1477.28 0.368824 -4.26408 0
M  V30 15489 C 1476.61 1.45855 -5.14422 0
M  V30 15490 C 1477.91 -0.727381 -5.1721 0
M  V30 15491 H 1479.6 -0.690489 -2.91329 0
M  V30 15492 H 1477.15 -0.3335 -1.40085 0
M  V30 15493 H 1479.1 1.52495 -3.9284 0
M  V30 15494 H 1477.82 1.80969 -2.71878 0
M  V30 15495 H 1476.48 -0.101605 -3.66459 0
M  V30 15496 H 1476.13 2.22531 -4.51098 0
M  V30 15497 H 1475.83 1.0189 -5.78699 0
M  V30 15498 H 1477.35 1.95132 -5.78581 0
M  V30 15499 H 1478.77 -0.319272 -5.7241 0
M  V30 15500 H 1477.17 -1.09041 -5.9011 0
M  V30 15501 H 1478.24 -1.59292 -4.57989 0
M  V30 15502 N 1479.58 1.53054 -0.375806 0
M  V30 15503 C 1480.99 1.86426 0.101188 0
M  V30 15504 C 1481.34 1.29603 1.47301 0
M  V30 15505 O 1480.47 0.622059 2.07266 0
M  V30 15506 C 1481.06 3.38265 0.190389 0
M  V30 15507 C 1479.62 3.71397 0.611653 0
M  V30 15508 C 1478.77 2.76304 -0.234801 0
M  V30 15509 H 1481.72 1.47156 -0.594211 0
M  V30 15510 H 1481.74 3.66793 1.01207 0
M  V30 15511 H 1481.25 3.79592 -0.80818 0
M  V30 15512 H 1479.35 3.35632 1.61808 0
M  V30 15513 H 1479.46 4.77597 0.379168 0
M  V30 15514 H 1477.83 2.52952 0.297888 0
M  V30 15515 H 1478.61 3.20467 -1.2311 0
M  V30 15516 N 1481.06 0.105248 1.57248 0
M  V30 15517 C 1482.47 -0.422304 1.81861 0
M  V30 15518 C 1482.82 -1.67508 1.02154 0
M  V30 15519 O 1481.94 -2.14905 0.253961 0
M  V30 15520 C 1482.54 -0.772943 3.29865 0
M  V30 15521 C 1481.1 -1.24519 3.55207 0
M  V30 15522 C 1480.24 -0.246936 2.76198 0
M  V30 15523 H 1483.2 0.330565 1.55219 0
M  V30 15524 H 1483.22 -1.6316 3.43743 0
M  V30 15525 H 1482.73 0.139033 3.87851 0
M  V30 15526 H 1480.83 -2.17453 3.02564 0
M  V30 15527 H 1480.94 -1.20001 4.63828 0
M  V30 15528 H 1479.31 -0.731171 2.43979 0
M  V30 15529 H 1480.09 0.657896 3.36937 0
M  V30 15530 N 1482.53 -1.56697 -0.168486 0
M  V30 15531 C 1483.81 -1.73032 -0.912097 0
M  V30 15532 C 1484.19 -0.667424 -2.00271 0
M  V30 15533 O 1483.54 0.317307 -2.26286 0
M  V30 15534 C 1483.75 -3.16334 -1.47424 0
M  V30 15535 C 1485.1 -3.77378 -1.94606 0
M  V30 15536 O 1486.12 -3.19629 -1.57212 0
M  V30 15537 O 1484.98 -4.78781 -2.63497 0
M  V30 15538 H 1482.07 -0.706713 -0.429518 0
M  V30 15539 H 1484.62 -1.68981 -0.156093 0
M  V30 15540 H 1483.39 -3.85179 -0.689421 0
M  V30 15541 H 1483.02 -3.24723 -2.29435 0
M  V30 15542 N 1484.01 0.437135 -1.51416 0
M  V30 15543 C 1485.42 1.01699 -1.5657 0
M  V30 15544 C 1485.77 1.92299 -0.389291 0
M  V30 15545 O 1484.9 2.10689 0.49389 0
M  V30 15546 C 1485.49 1.85119 -2.83754 0
M  V30 15547 C 1484.05 2.38154 -2.91478 0
M  V30 15548 C 1483.2 1.17374 -2.51234 0
M  V30 15549 H 1486.15 0.218399 -1.5719 0
M  V30 15550 H 1486.17 2.70572 -2.67528 0
M  V30 15551 H 1485.68 1.19153 -3.69357 0
M  V30 15552 H 1483.79 3.07575 -2.10306 0
M  V30 15553 H 1483.9 2.70937 -3.95133 0
M  V30 15554 H 1482.26 1.51913 -2.04437 0
M  V30 15555 H 1483.05 0.530176 -3.39181 0
M  V30 15556 N 1485.49 1.41566 0.692592 0
M  V30 15557 C 1486.72 1.44646 1.48635 0
M  V30 15558 C 1487.14 0.0541597 1.88022 0
M  V30 15559 O 1486.5 -0.943305 1.54827 0
M  V30 15560 C 1486.55 2.3636 2.72335 0
M  V30 15561 O 1485.65 1.8227 3.69934 0
M  V30 15562 H 1484.99 0.490791 0.447236 0
M  V30 15563 H 1487.52 1.8606 0.851056 0
M  V30 15564 H 1487.53 2.52337 3.20609 0
M  V30 15565 H 1486.21 3.37523 2.43004 0
M  V30 15566 H 1484.78 1.75759 3.28882 0
M  V30 15567 N 1486.97 -0.927146 1.27443 0
M  V30 15568 C 1487.9 -2.04483 1.12735 0
M  V30 15569 C 1488.88 -1.70076 0.0286662 0
M  V30 15570 O 1490.06 -1.93133 0.203252 0
M  V30 15571 C 1487.19 -3.38557 0.774352 0
M  V30 15572 C 1486.15 -3.87078 1.82632 0
M  V30 15573 C 1485.47 -5.17964 1.32729 0
M  V30 15574 C 1486.77 -4.10409 3.23051 0
M  V30 15575 H 1488.47 -2.17046 2.06231 0
M  V30 15576 H 1486.01 -1.04292 0.992937 0
M  V30 15577 H 1487.97 -4.16227 0.658273 0
M  V30 15578 H 1486.69 -3.26009 -0.196321 0
M  V30 15579 H 1485.35 -3.11602 1.93132 0
M  V30 15580 H 1485 -5.01808 0.346059 0
M  V30 15581 H 1484.7 -5.51398 2.03061 0
M  V30 15582 H 1486.22 -5.98203 1.22416 0
M  V30 15583 H 1487.64 -4.78646 3.15549 0
M  V30 15584 H 1486.03 -4.5515 3.91099 0
M  V30 15585 H 1487.1 -3.15685 3.68064 0
M  V30 15586 N 1488.45 -1.09474 -1.13372 0
M  V30 15587 C 1489.86 -0.850378 -1.66209 0
M  V30 15588 C 1490.21 0.621071 -1.86111 0
M  V30 15589 O 1489.33 1.47837 -1.58029 0
M  V30 15590 C 1489.93 -1.53713 -3.01924 0
M  V30 15591 C 1488.49 -1.33972 -3.5175 0
M  V30 15592 C 1487.63 -1.5929 -2.26985 0
M  V30 15593 H 1490.59 -1.25383 -0.972874 0
M  V30 15594 H 1490.61 -0.970503 -3.67915 0
M  V30 15595 H 1490.12 -2.60804 -2.87407 0
M  V30 15596 H 1488.22 -0.289998 -3.7147 0
M  V30 15597 H 1488.33 -2.0749 -4.31839 0
M  V30 15598 H 1486.7 -1.01505 -2.336 0
M  V30 15599 H 1487.48 -2.67611 -2.15033 0
M  V30 15600 N 1489.92 1.30607 -0.882012 0
M  V30 15601 C 1491.16 1.98047 -0.505626 0
M  V30 15602 C 1491.53 1.68123 0.927287 0
M  V30 15603 O 1492.73 2.28872 1.40964 0
M  V30 15604 C 1491 3.49021 -0.769367 0
M  V30 15605 S 1492.56 4.36003 -0.494641 0
M  V30 15606 H 1489.38 0.685625 -0.188252 0
M  V30 15607 H 1491.98 1.58776 -1.14064 0
M  V30 15608 H 1490.68 3.68291 -1.8108 0
M  V30 15609 H 1490.21 3.93211 -0.121801 0
M  V30 15610 H 1492.23 4.91683 0.668004 0
M  V30 15611 N 1491.4 0.642663 1.43901 0
M  V30 15612 C 1492.65 0.149167 2.01148 0
M  V30 15613 C 1492.96 -1.2405 1.51231 0
M  V30 15614 O 1494.17 -1.82864 2.00681 0
M  V30 15615 C 1492.63 0.215891 3.59252 0
M  V30 15616 C 1492.23 1.60759 4.18163 0
M  V30 15617 C 1493.98 -0.220546 4.23927 0
M  V30 15618 C 1491.89 1.62881 5.68528 0
M  V30 15619 H 1490.82 0.0520015 0.752205 0
M  V30 15620 H 1493.47 0.803152 1.6499 0
M  V30 15621 H 1491.85 -0.505409 3.92762 0
M  V30 15622 H 1493.02 2.3534 3.96171 0
M  V30 15623 H 1491.34 1.9891 3.65819 0
M  V30 15624 H 1493.93 -0.224389 5.34229 0
M  V30 15625 H 1494.28 -1.25003 3.97089 0
M  V30 15626 H 1494.81 0.448646 3.95262 0
M  V30 15627 H 1491.55 2.63704 6.00117 0
M  V30 15628 H 1491.07 0.926104 5.92607 0
M  V30 15629 H 1492.75 1.36785 6.32375 0
M  V30 15630 N 1492.88 -1.52852 0.383918 0
M  V30 15631 C 1493.81 -2.29213 -0.44539 0
M  V30 15632 C 1494.79 -1.3238 -1.06815 0
M  V30 15633 O 1495.98 -1.61269 -1.08194 0
M  V30 15634 C 1493.11 -3.09497 -1.57573 0
M  V30 15635 C 1492.06 -4.14168 -1.07928 0
M  V30 15636 C 1491.39 -4.82644 -2.30128 0
M  V30 15637 C 1492.69 -5.22082 -0.151035 0
M  V30 15638 H 1494.38 -2.98786 0.19172 0
M  V30 15639 H 1491.93 -1.43695 0.0936471 0
M  V30 15640 H 1493.88 -3.61672 -2.16267 0
M  V30 15641 H 1492.6 -2.37647 -2.24034 0
M  V30 15642 H 1491.26 -3.62966 -0.514909 0
M  V30 15643 H 1490.91 -4.07348 -2.95087 0
M  V30 15644 H 1490.61 -5.53388 -1.97574 0
M  V30 15645 H 1492.14 -5.37621 -2.89475 0
M  V30 15646 H 1493.55 -5.69649 -0.646003 0
M  V30 15647 H 1491.95 -6.00041 0.0844833 0
M  V30 15648 H 1493.02 -4.78228 0.801618 0
M  V30 15649 N 1494.36 -0.113586 -1.5719 0
M  V30 15650 C 1495.61 0.546529 -1.95297 0
M  V30 15651 C 1495.94 1.66674 -0.996671 0
M  V30 15652 O 1495.21 1.94472 -0.0329298 0
M  V30 15653 C 1495.5 1.08433 -3.43387 0
M  V30 15654 C 1495.35 -0.0320929 -4.49789 0
M  V30 15655 C 1496.67 1.97691 -3.932 0
M  V30 15656 H 1493.79 0.197195 -0.710129 0
M  V30 15657 H 1496.43 -0.188048 -1.89067 0
M  V30 15658 H 1494.58 1.71033 -3.48827 0
M  V30 15659 H 1496.25 -0.66716 -4.5645 0
M  V30 15660 H 1494.49 -0.695983 -4.2818 0
M  V30 15661 H 1495.17 0.385341 -5.50653 0
M  V30 15662 H 1497.64 1.4497 -3.90029 0
M  V30 15663 H 1496.52 2.3224 -4.97349 0
M  V30 15664 H 1496.78 2.90137 -3.33576 0
M  V30 15665 N 1495.84 1.56784 0.160173 0
M  V30 15666 C 1497.09 1.8226 0.873253 0
M  V30 15667 C 1497.41 0.692384 1.82294 0
M  V30 15668 O 1496.68 -0.286961 1.93787 0
M  V30 15669 H 1495.26 0.672371 0.325463 0
M  V30 15670 H 1497.92 1.94264 0.157325 0
M  V30 15671 H 1497.01 2.76714 1.44345 0
M  V30 15672 N 1497.32 -0.429099 1.51646 0
M  V30 15673 C 1498.73 -1.00868 1.57107 0
M  V30 15674 C 1499.08 -1.9209 0.399483 0
M  V30 15675 O 1498.2 -2.10948 -0.482709 0
M  V30 15676 C 1498.8 -1.83612 2.84732 0
M  V30 15677 C 1497.36 -2.36605 2.92737 0
M  V30 15678 C 1496.5 -1.1604 2.51853 0
M  V30 15679 H 1499.45 -0.21006 1.57304 0
M  V30 15680 H 1499.48 -2.69149 2.68959 0
M  V30 15681 H 1498.99 -1.17192 3.69983 0
M  V30 15682 H 1497.09 -3.06455 2.11934 0
M  V30 15683 H 1497.2 -2.68838 3.96564 0
M  V30 15684 H 1495.57 -1.50826 2.0524 0
M  V30 15685 H 1496.35 -0.51218 3.39458 0
M  V30 15686 N 1498.79 -1.41931 -0.685074 0
M  V30 15687 C 1500.04 -1.41571 -1.44229 0
M  V30 15688 C 1500.36 -0.0294445 -1.94978 0
M  V30 15689 O 1499.63 0.930414 -1.72395 0
M  V30 15690 H 1498.21 -0.521138 -0.535186 0
M  V30 15691 H 1500.87 -1.77263 -0.81017 0
M  V30 15692 H 1499.97 -2.10929 -2.30034 0
M  V30 15693 N 1500.27 0.920374 -1.27933 0
M  V30 15694 C 1501.5 1.70275 -1.17533 0
M  V30 15695 C 1501.91 1.86904 0.266903 0
M  V30 15696 O 1501.27 1.39131 1.18105 0
M  V30 15697 C 1501.32 3.09847 -1.86219 0
M  V30 15698 O 1501.04 2.93992 -3.24808 0
M  V30 15699 C 1502.54 4.042 -1.82037 0
M  V30 15700 H 1499.76 0.53248 -0.408297 0
M  V30 15701 H 1502.31 1.1524 -1.68938 0
M  V30 15702 H 1500.46 3.61719 -1.38701 0
M  V30 15703 H 1500.88 3.82281 -3.59112 0
M  V30 15704 H 1502.35 4.99621 -2.34697 0
M  V30 15705 H 1502.83 4.32013 -0.791295 0
M  V30 15706 H 1503.43 3.58254 -2.29203 0
M  V30 15707 N 1501.75 1.10074 1.1279 0
M  V30 15708 C 1503 0.839212 1.83852 0
M  V30 15709 C 1503.32 -0.637023 1.84301 0
M  V30 15710 O 1502.59 -1.46239 1.30349 0
M  V30 15711 H 1501.17 0.307468 0.680788 0
M  V30 15712 H 1503.83 1.39025 1.36595 0
M  V30 15713 H 1502.93 1.19872 2.88162 0
M  V30 15714 N 1503.23 -1.30138 0.888926 0
M  V30 15715 C 1504.48 -1.95265 0.5054 0
M  V30 15716 C 1504.79 -1.70925 -0.950998 0
M  V30 15717 O 1506 -2.30069 -1.44155 0
M  V30 15718 C 1504.45 -3.49647 0.852937 0
M  V30 15719 C 1504.06 -3.82802 2.32737 0
M  V30 15720 C 1505.8 -4.21067 0.538801 0
M  V30 15721 C 1503.71 -5.30379 2.61633 0
M  V30 15722 H 1502.64 -0.730882 0.185278 0
M  V30 15723 H 1505.29 -1.48027 1.08444 0
M  V30 15724 H 1503.67 -3.9548 0.202937 0
M  V30 15725 H 1504.85 -3.47866 3.02202 0
M  V30 15726 H 1503.16 -3.24495 2.60944 0
M  V30 15727 H 1505.76 -5.2967 0.731676 0
M  V30 15728 H 1506.1 -4.13014 -0.522039 0
M  V30 15729 H 1506.64 -3.8093 1.14617 0
M  V30 15730 H 1503.37 -5.43486 3.66473 0
M  V30 15731 H 1502.89 -5.66601 1.96782 0
M  V30 15732 H 1504.57 -5.97856 2.47339 0
M  V30 15733 N 1504.71 -0.650285 -1.43559 0
M  V30 15734 C 1505.67 0.0336325 -2.29175 0
M  V30 15735 C 1506.67 0.753465 -1.42055 0
M  V30 15736 O 1507.86 0.595158 -1.63718 0
M  V30 15737 C 1504.99 1.05835 -3.24055 0
M  V30 15738 H 1506.18 -0.719643 -2.91138 0
M  V30 15739 H 1503.74 -0.411363 -1.5079 0
M  V30 15740 H 1504.47 1.84096 -2.66982 0
M  V30 15741 H 1504.26 0.545884 -3.88281 0
M  V30 15742 H 1505.75 1.53606 -3.88323 0
M  V30 15743 N 1506.18 1.52647 -0.392018 0
M  V30 15744 C 1507.59 1.86522 0.0814091 0
M  V30 15745 C 1507.95 1.31158 1.45918 0
M  V30 15746 O 1507.07 0.644007 2.06595 0
M  V30 15747 C 1507.67 3.38448 0.1545 0
M  V30 15748 C 1506.22 3.72025 0.572227 0
M  V30 15749 C 1505.37 2.7604 -0.264093 0
M  V30 15750 H 1508.32 1.46517 -0.609785 0
M  V30 15751 H 1508.34 3.67846 0.973109 0
M  V30 15752 H 1507.86 3.78713 -0.848396 0
M  V30 15753 H 1505.96 3.37329 1.58239 0
M  V30 15754 H 1506.07 4.77973 0.328491 0
M  V30 15755 H 1504.43 2.53254 0.271042 0
M  V30 15756 H 1505.22 3.19143 -1.26502 0
M  V30 15757 N 1507.66 0.121921 1.57128 0
M  V30 15758 C 1508.91 -0.535371 1.95295 0
M  V30 15759 C 1509.24 -1.665 1.00539 0
M  V30 15760 O 1508.49 -1.95677 0.0298129 0
M  V30 15761 C 1508.79 -1.10579 3.39863 0
M  V30 15762 C 1508.46 -0.0972144 4.50795 0
M  V30 15763 C 1507.12 0.180111 4.80863 0
M  V30 15764 C 1509.47 0.589973 5.1785 0
M  V30 15765 C 1506.8 1.15086 5.75302 0
M  V30 15766 C 1509.15 1.54937 6.13333 0
M  V30 15767 C 1507.82 1.83465 6.41792 0
M  V30 15768 H 1507.09 -0.195906 0.714634 0
M  V30 15769 H 1509.73 0.203445 1.90416 0
M  V30 15770 H 1508.04 -1.92143 3.4145 0
M  V30 15771 H 1509.73 -1.62252 3.66709 0
M  V30 15772 H 1506.32 -0.32355 4.27377 0
M  V30 15773 H 1510.51 0.38889 4.94774 0
M  V30 15774 H 1505.76 1.3786 5.95655 0
M  V30 15775 H 1509.94 2.08751 6.64376 0
M  V30 15776 H 1507.57 2.58841 7.14777 0
M  V30 15777 N 1509.14 -1.56867 -0.151857 0
M  V30 15778 C 1510.56 -1.51422 -0.504328 0
M  V30 15779 C 1510.76 -0.829524 -1.83633 0
M  V30 15780 O 1509.81 -0.398018 -2.49343 0
M  V30 15781 C 1511.13 -2.96185 -0.519117 0
M  V30 15782 C 1512.67 -3.07098 -0.60497 0
M  V30 15783 C 1513.15 -4.53357 -0.650468 0
M  V30 15784 N 1514.64 -4.57682 -0.712825 0
M  V30 15785 C 1515.37 -5.68221 -0.768931 0
M  V30 15786 N 1514.87 -6.88342 -0.784678 0
M  V30 15787 N 1516.66 -5.56241 -0.809441 0
M  V30 15788 H 1508.81 -1.99777 0.721316 0
M  V30 15789 H 1511.08 -0.910951 0.262436 0
M  V30 15790 H 1510.78 -3.49516 0.391315 0
M  V30 15791 H 1510.66 -3.51877 -1.35876 0
M  V30 15792 H 1513.04 -2.53789 -1.50582 0
M  V30 15793 H 1513.13 -2.54458 0.261722 0
M  V30 15794 H 1512.77 -5.07303 0.246207 0
M  V30 15795 H 1512.7 -5.03775 -1.53358 0
M  V30 15796 H 1515.19 -3.71206 -0.708151 0
M  V30 15797 H 1515.5 -7.68339 -0.829202 0
M  V30 15798 H 1513.85 -6.90913 -0.752634 0
M  V30 15799 H 1517.04 -4.61312 -0.794274 0
M  V30 15800 H 1517.21 -6.42405 -0.849701 0
M  V30 15801 N 1510.62 0.421051 -1.51871 0
M  V30 15802 C 1511.87 1.16677 -1.65018 0
M  V30 15803 C 1512.19 1.91329 -0.376596 0
M  V30 15804 O 1511.46 1.86221 0.608146 0
M  V30 15805 H 1510.04 0.433698 -0.608206 0
M  V30 15806 H 1512.7 0.48115 -1.88868 0
M  V30 15807 H 1511.8 1.88742 -2.48562 0
M  V30 15808 N 1512.1 1.42293 0.677538 0
M  V30 15809 C 1513.34 1.42616 1.4376 0
M  V30 15810 C 1513.67 0.0416268 1.94455 0
M  V30 15811 O 1512.93 -0.949544 1.7112 0
M  V30 15812 C 1513.23 2.3951 2.65273 0
M  V30 15813 C 1512.89 3.85952 2.33135 0
M  V30 15814 C 1511.55 4.25842 2.24081 0
M  V30 15815 C 1513.91 4.78337 2.06987 0
M  V30 15816 C 1511.23 5.561 1.87001 0
M  V30 15817 C 1513.59 6.08934 1.71411 0
M  V30 15818 C 1512.25 6.47826 1.60865 0
M  V30 15819 H 1511.52 0.521869 0.526055 0
M  V30 15820 H 1514.17 1.75214 0.772797 0
M  V30 15821 H 1512.47 2.00229 3.36773 0
M  V30 15822 H 1514.17 2.37025 3.2345 0
M  V30 15823 H 1510.76 3.54369 2.41083 0
M  V30 15824 H 1514.94 4.48308 2.12916 0
M  V30 15825 H 1510.2 5.85097 1.77403 0
M  V30 15826 H 1514.37 6.80009 1.50203 0
M  V30 15827 H 1512 7.48669 1.31902 0
M  V30 15828 N 1513.57 -0.913576 1.28419 0
M  V30 15829 C 1514.82 -1.66546 1.16765 0
M  V30 15830 C 1515.18 -1.90338 -0.280935 0
M  V30 15831 O 1514.47 -1.49279 -1.2011 0
M  V30 15832 C 1514.66 -3.02722 1.89985 0
M  V30 15833 C 1514.49 -2.9222 3.41815 0
M  V30 15834 C 1513.26 -2.93735 4.11154 0
M  V30 15835 C 1515.46 -2.70279 4.37554 0
M  V30 15836 N 1513.44 -2.73824 5.49448 0
M  V30 15837 C 1514.81 -2.59213 5.63213 0
M  V30 15838 C 1516.87 -2.55278 4.27478 0
M  V30 15839 C 1515.57 -2.34673 6.79942 0
M  V30 15840 C 1517.6 -2.32118 5.43944 0
M  V30 15841 C 1516.96 -2.21806 6.68567 0
M  V30 15842 H 1513.06 -0.615629 0.482208 0
M  V30 15843 H 1515.64 -1.07892 1.62072 0
M  V30 15844 H 1513.81 -3.59462 1.47112 0
M  V30 15845 H 1515.54 -3.66932 1.70714 0
M  V30 15846 H 1512.3 -3.04498 3.62736 0
M  V30 15847 H 1512.72 -2.6696 6.22143 0
M  V30 15848 H 1517.37 -2.62001 3.31836 0
M  V30 15849 H 1515.08 -2.26689 7.75653 0
M  V30 15850 H 1518.67 -2.21375 5.38038 0
M  V30 15851 H 1517.55 -2.0413 7.57166 0
M  V30 15852 N 1515.05 -1.1067 -1.12204 0
M  V30 15853 C 1515.98 -0.715581 -2.17743 0
M  V30 15854 C 1517 0.248892 -1.60886 0
M  V30 15855 O 1518.19 0.0329917 -1.7847 0
M  V30 15856 C 1515.29 -0.0356388 -3.38881 0
M  V30 15857 C 1514.46 -1.0249 -4.25223 0
M  V30 15858 C 1513.52 -0.375998 -5.24855 0
M  V30 15859 O 1512.54 -1.02753 -5.59849 0
M  V30 15860 N 1513.75 0.864525 -5.74026 0
M  V30 15861 H 1516.51 -1.62362 -2.5191 0
M  V30 15862 H 1514.07 -0.995851 -1.2765 0
M  V30 15863 H 1516.06 0.41 -4.02618 0
M  V30 15864 H 1514.63 0.77485 -3.02845 0
M  V30 15865 H 1513.85 -1.64874 -3.58065 0
M  V30 15866 H 1515.14 -1.69446 -4.79756 0
M  V30 15867 H 1514.54 1.41317 -5.47764 0
M  V30 15868 H 1513.1 1.25327 -6.39638 0
M  V30 15869 N 1516.53 1.29665 -0.895815 0
M  V30 15870 C 1517.44 2.31582 -0.375086 0
M  V30 15871 C 1518.46 1.65789 0.528196 0
M  V30 15872 O 1519.63 1.96999 0.41871 0
M  V30 15873 C 1516.7 3.44472 0.39241 0
M  V30 15874 C 1515.76 4.25866 -0.541926 0
M  V30 15875 C 1514.99 5.33365 0.189037 0
M  V30 15876 O 1515.21 5.52607 1.41355 0
M  V30 15877 O 1514.15 6.0009 -0.466441 0
M  V30 15878 H 1517.97 2.78095 -1.22052 0
M  V30 15879 H 1515.56 1.34031 -0.660007 0
M  V30 15880 H 1517.44 4.13214 0.826565 0
M  V30 15881 H 1516.12 3.00074 1.21397 0
M  V30 15882 H 1515.02 3.59781 -1.02512 0
M  V30 15883 H 1516.36 4.73896 -1.32979 0
M  V30 15884 N 1518.01 0.657889 1.43212 0
M  V30 15885 C 1519.42 0.325876 1.56238 0
M  V30 15886 C 1519.62 -1.16975 1.6407 0
M  V30 15887 O 1518.68 -1.95473 1.59833 0
M  V30 15888 C 1519.99 1.04134 2.82093 0
M  V30 15889 C 1521.54 1.02204 2.95844 0
M  V30 15890 C 1522.02 1.71849 4.24537 0
M  V30 15891 N 1523.51 1.68635 4.31412 0
M  V30 15892 C 1524.24 2.19393 5.29768 0
M  V30 15893 N 1523.74 2.7846 6.34375 0
M  V30 15894 N 1525.53 2.09866 5.21452 0
M  V30 15895 H 1517.68 1.62839 1.36371 0
M  V30 15896 H 1519.95 0.685072 0.655271 0
M  V30 15897 H 1519.65 2.09647 2.82385 0
M  V30 15898 H 1519.53 0.595842 3.72464 0
M  V30 15899 H 1521.91 -0.0247029 2.9509 0
M  V30 15900 H 1521.99 1.50627 2.06749 0
M  V30 15901 H 1521.64 2.76482 4.26052 0
M  V30 15902 H 1521.57 1.20888 5.12536 0
M  V30 15903 H 1524.06 1.25536 3.56439 0
M  V30 15904 H 1524.37 3.14855 7.05752 0
M  V30 15905 H 1522.72 2.82523 6.34985 0
M  V30 15906 H 1525.91 1.63422 4.38647 0
M  V30 15907 H 1526.08 2.49732 5.97945 0
M  V30 15908 N 1519.49 -1.52437 0.400108 0
M  V30 15909 C 1520.42 -2.29672 -0.421054 0
M  V30 15910 C 1521.4 -1.33506 -1.05405 0
M  V30 15911 O 1522.58 -1.62408 -1.06477 0
M  V30 15912 C 1519.71 -3.1115 -1.54281 0
M  V30 15913 C 1518.67 -4.1529 -1.0353 0
M  V30 15914 C 1517.99 -4.85058 -2.24996 0
M  V30 15915 C 1519.29 -5.22212 -0.0956529 0
M  V30 15916 H 1520.99 -2.98565 0.2234 0
M  V30 15917 H 1518.53 -1.43588 0.108883 0
M  V30 15918 H 1520.49 -3.63945 -2.12419 0
M  V30 15919 H 1519.21 -2.4001 -2.21501 0
M  V30 15920 H 1517.87 -3.63492 -0.476383 0
M  V30 15921 H 1517.52 -4.10455 -2.9075 0
M  V30 15922 H 1517.22 -5.55452 -1.91694 0
M  V30 15923 H 1518.74 -5.40661 -2.83756 0
M  V30 15924 H 1520.15 -5.70302 -0.585548 0
M  V30 15925 H 1518.55 -5.99917 0.148121 0
M  V30 15926 H 1519.62 -4.77351 0.852296 0
M  V30 15927 N 1520.96 -0.130252 -1.57061 0
M  V30 15928 C 1521.91 0.827158 -2.12467 0
M  V30 15929 C 1522.9 1.22069 -1.04824 0
M  V30 15930 O 1524.09 1.1899 -1.31036 0
M  V30 15931 C 1521.22 2.07284 -2.73657 0
M  V30 15932 C 1520.31 1.70317 -3.88398 0
M  V30 15933 N 1520.7 1.04082 -4.94975 0
M  V30 15934 C 1518.99 1.99701 -3.98793 0
M  V30 15935 C 1519.7 0.865016 -5.75232 0
M  V30 15936 N 1518.67 1.39359 -5.25433 0
M  V30 15937 H 1522.47 0.311706 -2.92242 0
M  V30 15938 H 1519.99 0.0718523 -1.62241 0
M  V30 15939 H 1521.98 2.76854 -3.11701 0
M  V30 15940 H 1520.64 2.59363 -1.95349 0
M  V30 15941 H 1521.66 0.703501 -5.131 0
M  V30 15942 H 1518.33 2.53747 -3.3154 0
M  V30 15943 H 1519.72 0.344255 -6.71018 0
M  V30 15944 N 1522.44 1.56945 0.143535 0
M  V30 15945 C 1523.72 1.74461 0.884454 0
M  V30 15946 C 1524.1 0.699201 1.99184 0
M  V30 15947 O 1523.45 -0.281267 2.26762 0
M  V30 15948 C 1523.66 3.18639 1.42373 0
M  V30 15949 C 1525.01 3.80426 1.88577 0
M  V30 15950 O 1526.03 3.2209 1.52107 0
M  V30 15951 O 1524.89 4.82913 2.55847 0
M  V30 15952 H 1521.98 0.713457 0.41822 0
M  V30 15953 H 1524.53 1.69208 0.12919 0
M  V30 15954 H 1523.3 3.86227 0.628056 0
M  V30 15955 H 1522.92 3.28332 2.2424 0
M  V30 15956 N 1523.92 -0.412991 1.52093 0
M  V30 15957 C 1525.17 -1.15737 1.65191 0
M  V30 15958 C 1525.48 -1.91753 0.38601 0
M  V30 15959 O 1526.69 -2.68586 0.396731 0
M  V30 15960 C 1525.15 -2.10619 2.91835 0
M  V30 15961 C 1524.75 -1.40137 4.25518 0
M  V30 15962 C 1526.5 -2.85339 3.14296 0
M  V30 15963 C 1524.4 -2.33645 5.4329 0
M  V30 15964 H 1523.33 -0.435732 0.615348 0
M  V30 15965 H 1525.99 -0.422172 1.78578 0
M  V30 15966 H 1524.37 -2.87675 2.72138 0
M  V30 15967 H 1525.54 -0.684719 4.55684 0
M  V30 15968 H 1523.86 -0.774734 4.09129 0
M  V30 15969 H 1526.45 -3.55437 3.99461 0
M  V30 15970 H 1526.8 -3.48071 2.28369 0
M  V30 15971 H 1527.33 -2.15384 3.34447 0
M  V30 15972 H 1524.07 -1.75566 6.31551 0
M  V30 15973 H 1523.59 -3.03294 5.17467 0
M  V30 15974 H 1525.27 -2.94255 5.76215 0
M  V30 15975 N 1525.4 -1.4265 -0.669982 0
M  V30 15976 C 1526.31 -1.48916 -1.81276 0
M  V30 15977 C 1527.33 -0.377523 -1.69855 0
M  V30 15978 O 1528.5 -0.629151 -1.91321 0
M  V30 15979 C 1525.57 -1.39376 -3.17451 0
M  V30 15980 C 1524.63 -2.61072 -3.40793 0
M  V30 15981 C 1523.86 -2.51976 -4.70472 0
M  V30 15982 O 1524.08 -1.55827 -5.48702 0
M  V30 15983 O 1523.02 -3.42193 -4.95164 0
M  V30 15984 H 1526.84 -2.45382 -1.78945 0
M  V30 15985 H 1524.43 -1.24467 -0.826342 0
M  V30 15986 H 1526.31 -1.36435 -3.98702 0
M  V30 15987 H 1524.99 -0.460376 -3.20409 0
M  V30 15988 H 1523.89 -2.69587 -2.59372 0
M  V30 15989 H 1525.23 -3.53325 -3.42669 0
M  V30 15990 N 1526.88 0.906753 -1.28902 0
M  V30 15991 C 1528.1 1.69547 -1.19452 0
M  V30 15992 C 1528.53 1.86531 0.242418 0
M  V30 15993 O 1527.89 1.38052 1.17521 0
M  V30 15994 C 1527.93 3.06139 -1.90556 0
M  V30 15995 O 1527.04 3.9401 -1.21779 0
M  V30 15996 H 1526.38 0.518902 -0.41429 0
M  V30 15997 H 1528.91 1.13327 -1.70347 0
M  V30 15998 H 1528.92 3.56326 -1.98736 0
M  V30 15999 H 1527.59 2.93094 -2.95074 0
M  V30 16000 H 1526.17 3.52444 -1.2181 0
M  V30 16001 N 1528.36 1.11264 1.11616 0
M  V30 16002 C 1529.3 0.769295 2.17602 0
M  V30 16003 C 1530.27 -0.258362 1.64078 0
M  V30 16004 O 1531.46 -0.135698 1.90317 0
M  V30 16005 C 1528.6 0.216647 3.44419 0
M  V30 16006 C 1527.71 1.30064 4.11955 0
M  V30 16007 C 1526.85 0.708729 5.26451 0
M  V30 16008 C 1525.88 1.7727 5.85868 0
M  V30 16009 N 1525.02 1.20042 6.91762 0
M  V30 16010 H 1529.86 1.67727 2.46316 0
M  V30 16011 H 1527.4 0.83764 1.20921 0
M  V30 16012 H 1529.36 -0.121724 4.17022 0
M  V30 16013 H 1527.99 -0.654525 3.16095 0
M  V30 16014 H 1527.04 1.756 3.37445 0
M  V30 16015 H 1528.35 2.1057 4.52174 0
M  V30 16016 H 1527.5 0.320307 6.05854 0
M  V30 16017 H 1526.24 -0.127668 4.87533 0
M  V30 16018 H 1525.25 2.17046 5.05145 0
M  V30 16019 H 1526.47 2.6121 6.26854 0
M  V30 16020 H 1524.42 0.385633 6.54866 0
M  V30 16021 H 1524.34 1.94221 7.30626 0
M  V30 16022 H 1525.6 0.838825 7.74974 0
M  V30 16023 N 1529.83 -1.29188 0.902679 0
M  V30 16024 C 1531.08 -1.95052 0.529076 0
M  V30 16025 C 1531.4 -1.7149 -0.92824 0
M  V30 16026 O 1530.67 -1.04834 -1.65489 0
M  V30 16027 H 1529.25 -0.721725 0.192671 0
M  V30 16028 H 1531.91 -1.57384 1.14962 0
M  V30 16029 H 1531.01 -3.03819 0.714179 0
M  V30 16030 N 1531.31 -0.665475 -1.42861 0
M  V30 16031 C 1532.24 0.00482845 -2.335 0
M  V30 16032 C 1533.22 0.799135 -1.50159 0
M  V30 16033 O 1534.41 0.75816 -1.78789 0
M  V30 16034 C 1531.54 0.963347 -3.33672 0
M  V30 16035 C 1530.49 0.278294 -4.27094 0
M  V30 16036 C 1529.82 1.34911 -5.174 0
M  V30 16037 C 1531.12 -0.836925 -5.15551 0
M  V30 16038 H 1532.81 -0.752129 -2.89799 0
M  V30 16039 H 1530.36 -0.363139 -1.39346 0
M  V30 16040 H 1532.31 1.44128 -3.95986 0
M  V30 16041 H 1531.03 1.75161 -2.75656 0
M  V30 16042 H 1529.69 -0.179314 -3.66161 0
M  V30 16043 H 1529.34 2.12912 -4.55716 0
M  V30 16044 H 1529.04 0.895919 -5.8073 0
M  V30 16045 H 1530.57 1.82816 -5.8259 0
M  V30 16046 H 1531.98 -0.440617 -5.71604 0
M  V30 16047 H 1530.38 -1.21533 -5.87665 0
M  V30 16048 H 1531.45 -1.6897 -4.54507 0
M  V30 16049 N 1532.79 1.52222 -0.408187 0
M  V30 16050 C 1533.72 2.24676 0.453129 0
M  V30 16051 C 1534.73 1.27605 1.01098 0
M  V30 16052 O 1535.92 1.53557 0.910084 0
M  V30 16053 C 1533.02 2.96431 1.64262 0
M  V30 16054 C 1532.2 4.20364 1.20883 0
M  V30 16055 C 1531.26 4.74951 2.26512 0
M  V30 16056 O 1530.28 5.37556 1.87142 0
M  V30 16057 N 1531.48 4.56443 3.58665 0
M  V30 16058 H 1534.25 2.9923 -0.16771 0
M  V30 16059 H 1531.81 1.60178 -0.235517 0
M  V30 16060 H 1533.8 3.29844 2.3449 0
M  V30 16061 H 1532.37 2.25068 2.1694 0
M  V30 16062 H 1531.59 3.92776 0.334712 0
M  V30 16063 H 1532.88 5.0085 0.895939 0
M  V30 16064 H 1532.28 4.06511 3.93402 0
M  V30 16065 H 1530.83 4.94295 4.24871 0
M  V30 16066 N 1534.27 0.138579 1.5699 0
M  V30 16067 C 1535.68 -0.383633 1.82716 0
M  V30 16068 C 1536.03 -1.65304 1.05684 0
M  V30 16069 O 1535.15 -2.14318 0.299488 0
M  V30 16070 C 1535.75 -0.7028 3.3143 0
M  V30 16071 C 1534.31 -1.16957 3.57768 0
M  V30 16072 C 1533.46 -0.188295 2.7666 0
M  V30 16073 H 1536.41 0.363415 1.54483 0
M  V30 16074 H 1536.43 -1.55832 3.47126 0
M  V30 16075 H 1535.94 0.221271 3.87469 0
M  V30 16076 H 1534.04 -2.10987 3.07108 0
M  V30 16077 H 1534.15 -1.10136 4.66269 0
M  V30 16078 H 1532.52 -0.679255 2.45475 0
M  V30 16079 H 1533.3 0.729218 3.35466 0
M  V30 16080 N 1535.75 -1.57019 -0.13521 0
M  V30 16081 C 1536.97 -1.8816 -0.860434 0
M  V30 16082 C 1537.39 -0.728081 -1.74196 0
M  V30 16083 O 1536.75 0.301745 -1.79988 0
M  V30 16084 C 1536.8 -3.1864 -1.70737 0
M  V30 16085 O 1536.52 -4.29549 -0.861347 0
M  V30 16086 C 1538.02 -3.63376 -2.53915 0
M  V30 16087 H 1535.24 -0.623408 -0.248201 0
M  V30 16088 H 1537.78 -2.04121 -0.124461 0
M  V30 16089 H 1535.94 -3.04397 -2.39627 0
M  V30 16090 H 1536.35 -5.04233 -1.44393 0
M  V30 16091 H 1537.83 -4.57478 -3.08897 0
M  V30 16092 H 1538.3 -2.89238 -3.30512 0
M  V30 16093 H 1538.91 -3.80352 -1.90296 0
M  V30 16094 N 1537.22 0.404919 -1.52309 0
M  V30 16095 C 1538.64 0.983553 -1.58692 0
M  V30 16096 C 1538.99 1.9143 -0.429993 0
M  V30 16097 O 1538.11 2.11689 0.449088 0
M  V30 16098 C 1538.71 1.79059 -2.87617 0
M  V30 16099 C 1537.27 2.31918 -2.96464 0
M  V30 16100 C 1536.41 1.12018 -2.53667 0
M  V30 16101 H 1539.36 0.185007 -1.57618 0
M  V30 16102 H 1539.38 2.64836 -2.73207 0
M  V30 16103 H 1538.9 1.11291 -3.71801 0
M  V30 16104 H 1537 3.03044 -2.16783 0
M  V30 16105 H 1537.11 2.62495 -4.00791 0
M  V30 16106 H 1535.47 1.47542 -2.07614 0
M  V30 16107 H 1536.26 0.458111 -3.4023 0
M  V30 16108 N 1538.7 1.43003 0.662408 0
M  V30 16109 C 1539.64 1.4189 1.78725 0
M  V30 16110 C 1540.61 0.281515 1.60144 0
M  V30 16111 O 1541.8 0.473677 1.82452 0
M  V30 16112 C 1538.92 1.22166 3.159 0
M  V30 16113 C 1537.97 2.39061 3.53203 0
M  V30 16114 S 1538.8 4.01607 3.54221 0
M  V30 16115 C 1539.96 3.84249 4.94068 0
M  V30 16116 H 1540.19 2.37073 1.79398 0
M  V30 16117 H 1537.73 1.29924 0.834214 0
M  V30 16118 H 1539.68 1.11474 3.95074 0
M  V30 16119 H 1538.34 0.285468 3.128 0
M  V30 16120 H 1537.54 2.21041 4.52943 0
M  V30 16121 H 1537.14 2.46331 2.81419 0
M  V30 16122 H 1539.43 3.46006 5.82483 0
M  V30 16123 H 1540.37 4.83709 5.17138 0
M  V30 16124 H 1540.78 3.16879 4.6717 0
M  V30 16125 N 1540.18 -0.899904 1.29381 0
M  V30 16126 C 1541.41 -1.68383 1.20227 0
M  V30 16127 C 1541.82 -1.87305 -0.237135 0
M  V30 16128 O 1541.18 -1.40992 -1.15877 0
M  V30 16129 C 1541.23 -3.06845 1.91124 0
M  V30 16130 O 1540.95 -2.88787 3.29444 0
M  V30 16131 C 1542.45 -4.01253 1.88444 0
M  V30 16132 H 1539.67 -0.525917 0.416717 0
M  V30 16133 H 1542.22 -1.12537 1.7075 0
M  V30 16134 H 1540.37 -3.59467 1.44438 0
M  V30 16135 H 1540.79 -3.7652 3.65148 0
M  V30 16136 H 1542.26 -4.95824 2.42616 0
M  V30 16137 H 1542.74 -4.30699 0.859925 0
M  V30 16138 H 1543.34 -3.54562 2.34874 0
M  V30 16139 N 1541.66 -1.11854 -1.11024 0
M  V30 16140 C 1542.59 -0.803129 -2.19253 0
M  V30 16141 C 1543.57 0.230417 -1.68532 0
M  V30 16142 O 1544.75 0.0929421 -1.93977 0
M  V30 16143 C 1541.88 -0.250265 -3.46397 0
M  V30 16144 C 1540.84 -1.21617 -4.10357 0
M  V30 16145 C 1540.16 -0.523821 -5.32128 0
M  V30 16146 C 1541.46 -2.56852 -4.54779 0
M  V30 16147 H 1543.16 -1.7081 -2.45895 0
M  V30 16148 H 1540.7 -0.822712 -1.18184 0
M  V30 16149 H 1542.66 -0.0173732 -4.21396 0
M  V30 16150 H 1541.38 0.690018 -3.19228 0
M  V30 16151 H 1540.04 -1.43477 -3.37357 0
M  V30 16152 H 1539.69 0.421408 -5.01232 0
M  V30 16153 H 1539.39 -1.16809 -5.75873 0
M  V30 16154 H 1540.91 -0.299823 -6.09863 0
M  V30 16155 H 1542.33 -2.39056 -5.21081 0
M  V30 16156 H 1540.72 -3.17301 -5.09353 0
M  V30 16157 H 1541.79 -3.15751 -3.68007 0
M  V30 16158 N 1543.14 1.28707 -0.909517 0
M  V30 16159 C 1544.38 1.95443 -0.541281 0
M  V30 16160 C 1544.72 1.71457 0.911934 0
M  V30 16161 O 1543.99 1.03312 1.64794 0
M  V30 16162 C 1544.27 3.50019 -0.846097 0
M  V30 16163 C 1544.13 3.83423 -2.35173 0
M  V30 16164 C 1545.45 4.3879 -0.339328 0
M  V30 16165 H 1542.56 0.709869 -0.198128 0
M  V30 16166 H 1545.21 1.52151 -1.13799 0
M  V30 16167 H 1543.36 3.87025 -0.338262 0
M  V30 16168 H 1545.03 3.5631 -2.92986 0
M  V30 16169 H 1543.27 3.30618 -2.80846 0
M  V30 16170 H 1543.94 4.91348 -2.51557 0
M  V30 16171 H 1546.42 4.08832 -0.774312 0
M  V30 16172 H 1545.29 5.45809 -0.581722 0
M  V30 16173 H 1545.56 4.35514 0.760244 0
M  V30 16174 N 1544.61 0.673042 1.42506 0
M  V30 16175 C 1545.86 0.194576 2.01563 0
M  V30 16176 C 1546.19 -1.19829 1.53203 0
M  V30 16177 O 1545.44 -1.8181 0.724131 0
M  V30 16178 C 1545.74 0.175896 3.56967 0
M  V30 16179 C 1545.41 1.51319 4.24751 0
M  V30 16180 C 1544.07 1.87936 4.42983 0
M  V30 16181 C 1546.42 2.394 4.62965 0
M  V30 16182 C 1543.75 3.12261 4.96699 0
M  V30 16183 C 1546.1 3.63036 5.18061 0
M  V30 16184 C 1544.77 3.99824 5.34506 0
M  V30 16185 H 1544.04 0.0712004 0.737571 0
M  V30 16186 H 1546.68 0.867679 1.70715 0
M  V30 16187 H 1544.99 -0.580712 3.87473 0
M  V30 16188 H 1546.69 -0.211488 4.00442 0
M  V30 16189 H 1543.28 1.21834 4.10919 0
M  V30 16190 H 1547.46 2.12397 4.48555 0
M  V30 16191 H 1542.72 3.40787 5.07617 0
M  V30 16192 H 1546.89 4.31491 5.46616 0
M  V30 16193 H 1544.52 4.96236 5.75894 0
M  V30 16194 N 1546.09 -1.52004 0.416254 0
M  V30 16195 C 1547.34 -2.0149 -0.15689 0
M  V30 16196 C 1547.66 -1.30343 -1.45037 0
M  V30 16197 O 1546.93 -0.431503 -1.91089 0
M  V30 16198 H 1545.51 -0.744508 -0.0609682 0
M  V30 16199 H 1548.17 -1.86857 0.55413 0
M  V30 16200 H 1547.27 -3.10155 -0.347917 0
M  V30 16201 N 1547.57 -0.146903 -1.56914 0
M  V30 16202 C 1548.81 0.506985 -1.98013 0
M  V30 16203 C 1549.17 1.62043 -1.02985 0
M  V30 16204 O 1550.38 2.33517 -1.33128 0
M  V30 16205 C 1548.65 1.00023 -3.43118 0
M  V30 16206 S 1550.21 1.65873 -4.06241 0
M  V30 16207 H 1547.02 0.163927 -0.691845 0
M  V30 16208 H 1549.63 -0.238594 -1.94039 0
M  V30 16209 H 1548.33 0.179091 -4.10009 0
M  V30 16210 H 1547.86 1.78043 -3.50805 0
M  V30 16211 H 1549.88 2.94595 -3.99285 0
M  V30 16212 N 1549.05 1.57088 0.126881 0
M  V30 16213 C 1550.46 1.52205 0.480175 0
M  V30 16214 C 1550.66 0.858634 1.8229 0
M  V30 16215 O 1549.72 0.437636 2.48679 0
M  V30 16216 C 1551.03 2.96974 0.471931 0
M  V30 16217 C 1552.58 3.08021 0.556037 0
M  V30 16218 C 1553.06 4.54335 0.57826 0
M  V30 16219 N 1554.55 4.58758 0.639922 0
M  V30 16220 C 1555.28 5.69372 0.678434 0
M  V30 16221 N 1554.78 6.89503 0.67507 0
M  V30 16222 N 1556.57 5.57459 0.720845 0
M  V30 16223 H 1548.72 1.98604 -0.753008 0
M  V30 16224 H 1550.99 0.90666 -0.276895 0
M  V30 16225 H 1550.69 3.48849 -0.44687 0
M  V30 16226 H 1550.57 3.53994 1.3026 0
M  V30 16227 H 1552.95 2.56153 1.46526 0
M  V30 16228 H 1553.03 2.54009 -0.302171 0
M  V30 16229 H 1552.68 5.06847 -0.326884 0
M  V30 16230 H 1552.61 5.06151 1.45324 0
M  V30 16231 H 1555.1 3.72285 0.649005 0
M  V30 16232 H 1555.41 7.6956 0.706862 0
M  V30 16233 H 1553.76 6.92023 0.64262 0
M  V30 16234 H 1556.95 4.62517 0.720783 0
M  V30 16235 H 1557.12 6.43675 0.747392 0
M  V30 16236 N 1550.53 -0.396836 1.52522 0
M  V30 16237 C 1551.77 -1.15166 1.68867 0
M  V30 16238 C 1552.13 -1.87445 0.415734 0
M  V30 16239 O 1553.33 -2.64913 0.455443 0
M  V30 16240 C 1551.6 -2.11005 2.88465 0
M  V30 16241 S 1553.16 -2.94429 3.25357 0
M  V30 16242 H 1549.98 -0.389966 0.594515 0
M  V30 16243 H 1552.58 -0.437201 1.90549 0
M  V30 16244 H 1551.29 -1.56613 3.79342 0
M  V30 16245 H 1550.82 -2.86971 2.69093 0
M  V30 16246 H 1552.83 -4.13068 2.74934 0
M  V30 16247 N 1552.01 -1.43353 -0.654814 0
M  V30 16248 C 1553.23 -1.48536 -1.44748 0
M  V30 16249 C 1553.66 -0.103991 -1.87812 0
M  V30 16250 O 1553.01 0.901924 -1.57274 0
M  V30 16251 C 1553.06 -2.43498 -2.65972 0
M  V30 16252 O 1552.17 -1.92014 -3.64972 0
M  V30 16253 H 1551.51 -0.502476 -0.434067 0
M  V30 16254 H 1554.04 -1.88251 -0.801427 0
M  V30 16255 H 1554.05 -2.60748 -3.13806 0
M  V30 16256 H 1552.72 -3.43847 -2.3397 0
M  V30 16257 H 1551.3 -1.84417 -3.24106 0
M  V30 16258 N 1553.48 0.89303 -1.29857 0
M  V30 16259 C 1554.42 2.00327 -1.11364 0
M  V30 16260 C 1555.43 1.62692 -0.0591968 0
M  V30 16261 O 1556.62 1.75885 -0.3044 0
M  V30 16262 C 1553.72 3.3212 -0.674518 0
M  V30 16263 C 1552.89 3.98241 -1.80895 0
M  V30 16264 C 1551.95 5.08329 -1.35972 0
M  V30 16265 O 1550.98 5.30398 -2.06558 0
M  V30 16266 N 1552.18 5.80027 -0.234282 0
M  V30 16267 H 1554.94 2.16743 -2.06984 0
M  V30 16268 H 1552.5 1.06563 -1.21885 0
M  V30 16269 H 1554.5 4.03121 -0.357167 0
M  V30 16270 H 1553.07 3.12026 0.189414 0
M  V30 16271 H 1552.29 3.20517 -2.29483 0
M  V30 16272 H 1553.57 4.39158 -2.56939 0
M  V30 16273 H 1552.97 5.64591 0.354068 0
M  V30 16274 H 1551.53 6.51796 0.0236623 0
M  V30 16275 N 1554.96 1.12442 1.10429 0
M  V30 16276 C 1555.89 0.814745 2.18824 0
M  V30 16277 C 1556.87 -0.221476 1.68652 0
M  V30 16278 O 1558.06 -0.0826537 1.94024 0
M  V30 16279 C 1555.19 0.268632 3.4626 0
M  V30 16280 C 1554.14 1.23792 4.09707 0
M  V30 16281 C 1553.47 0.552034 5.31843 0
M  V30 16282 C 1554.77 2.5926 4.53411 0
M  V30 16283 H 1556.46 1.72111 2.44986 0
M  V30 16284 H 1554.01 0.828968 1.17746 0
M  V30 16285 H 1555.96 0.0397207 4.21381 0
M  V30 16286 H 1554.68 -0.673079 3.19589 0
M  V30 16287 H 1553.34 1.45264 3.36592 0
M  V30 16288 H 1552.99 -0.394821 5.01448 0
M  V30 16289 H 1552.69 1.19861 5.75245 0
M  V30 16290 H 1554.22 0.332161 6.09696 0
M  V30 16291 H 1555.63 2.41816 5.19806 0
M  V30 16292 H 1554.03 3.19997 5.07663 0
M  V30 16293 H 1555.1 3.17699 3.66327 0
M  V30 16294 N 1556.44 -1.28223 0.91633 0
M  V30 16295 C 1557.72 -1.89878 0.469661 0
M  V30 16296 C 1558.1 -1.83037 -1.05169 0
M  V30 16297 O 1557.44 -1.26801 -1.90088 0
M  V30 16298 C 1557.65 -3.34279 1.00293 0
M  V30 16299 C 1559 -4.11244 1.05657 0
M  V30 16300 O 1560.03 -3.43249 0.951753 0
M  V30 16301 O 1558.89 -5.32788 1.21652 0
M  V30 16302 H 1555.98 -0.813418 0.149263 0
M  V30 16303 H 1558.53 -1.36572 1.00728 0
M  V30 16304 H 1557.3 -3.33494 2.04688 0
M  V30 16305 H 1556.92 -3.95087 0.446287 0
M  V30 16306 N 1557.92 -0.68059 -1.42147 0
M  V30 16307 C 1558.87 0.0170117 -2.27994 0
M  V30 16308 C 1559.85 0.767809 -1.41398 0
M  V30 16309 O 1561.04 0.645767 -1.64799 0
M  V30 16310 C 1558.17 0.963439 -3.29504 0
M  V30 16311 C 1557.26 0.20968 -4.23581 0
M  V30 16312 N 1557.65 -0.788543 -4.99615 0
M  V30 16313 C 1555.95 0.447304 -4.43751 0
M  V30 16314 C 1556.65 -1.23842 -5.68364 0
M  V30 16315 N 1555.62 -0.567238 -5.40632 0
M  V30 16316 H 1559.43 -0.748567 -2.84207 0
M  V30 16317 H 1556.94 -0.510145 -1.54179 0
M  V30 16318 H 1558.94 1.47823 -3.89813 0
M  V30 16319 H 1557.6 1.72878 -2.74851 0
M  V30 16320 H 1558.61 -1.16828 -5.04551 0
M  V30 16321 H 1555.29 1.1917 -4.00131 0
M  V30 16322 H 1556.68 -2.06593 -6.39351 0
M  V30 16323 N 1559.4 1.51781 -0.424309 0
M  V30 16324 C 1560.33 2.30313 0.384462 0
M  V30 16325 C 1561.31 1.35166 1.03268 0
M  V30 16326 O 1562.49 1.64081 1.0388 0
M  V30 16327 C 1559.62 3.13566 1.49311 0
M  V30 16328 C 1558.58 4.16884 0.969096 0
M  V30 16329 C 1557.9 4.88576 2.17251 0
M  V30 16330 C 1559.2 5.22298 0.0125613 0
M  V30 16331 H 1560.9 2.98172 -0.270871 0
M  V30 16332 H 1558.44 1.43396 -0.131712 0
M  V30 16333 H 1560.39 3.67279 2.06602 0
M  V30 16334 H 1559.12 2.43504 2.17655 0
M  V30 16335 H 1557.78 3.64203 0.418494 0
M  V30 16336 H 1557.43 4.15029 2.84183 0
M  V30 16337 H 1557.13 5.58432 1.82833 0
M  V30 16338 H 1558.65 5.45107 2.75119 0
M  V30 16339 H 1560.06 5.71161 0.494744 0
M  V30 16340 H 1558.46 5.99606 -0.243544 0
M  V30 16341 H 1559.53 4.75935 -0.92813 0
M  V30 16342 N 1560.87 0.155222 1.56834 0
M  V30 16343 C 1562.1 -0.499816 2.00463 0
M  V30 16344 C 1562.51 -1.58419 1.0344 0
M  V30 16345 O 1561.85 -1.83683 0.0247026 0
M  V30 16346 C 1561.92 -1.15251 3.40525 0
M  V30 16347 C 1561.58 -0.211738 4.56509 0
M  V30 16348 C 1562.58 0.563768 5.16834 0
M  V30 16349 C 1560.26 -0.112248 5.02175 0
M  V30 16350 C 1562.26 1.42613 6.21241 0
M  V30 16351 C 1559.94 0.753709 6.06434 0
M  V30 16352 C 1560.94 1.52149 6.65837 0
M  V30 16353 O 1560.63 2.37301 7.68078 0
M  V30 16354 H 1560.36 -0.133869 0.662612 0
M  V30 16355 H 1562.92 0.249256 2.03882 0
M  V30 16356 H 1561.15 -1.94939 3.3397 0
M  V30 16357 H 1562.83 -1.70811 3.6821 0
M  V30 16358 H 1563.6 0.496985 4.82447 0
M  V30 16359 H 1559.48 -0.699614 4.5566 0
M  V30 16360 H 1563.02 2.02587 6.67536 0
M  V30 16361 H 1558.92 0.821753 6.40248 0
M  V30 16362 H 1559.69 2.30639 7.85333 0
M  V30 16363 N 1562.35 -1.57153 -0.118549 0
M  V30 16364 C 1563.77 -1.52458 -0.472096 0
M  V30 16365 C 1563.97 -0.868289 -1.81832 0
M  V30 16366 O 1563.02 -0.450817 -2.48443 0
M  V30 16367 C 1564.34 -2.9722 -0.456175 0
M  V30 16368 C 1565.88 -3.08312 -0.539694 0
M  V30 16369 C 1566.36 -4.54635 -0.554158 0
M  V30 16370 N 1567.85 -4.59091 -0.615584 0
M  V30 16371 C 1568.59 -5.69724 -0.64823 0
M  V30 16372 N 1568.08 -6.89852 -0.638494 0
M  V30 16373 N 1569.87 -5.57833 -0.691272 0
M  V30 16374 H 1562.03 -1.98202 0.76353 0
M  V30 16375 H 1564.29 -0.905179 0.281699 0
M  V30 16376 H 1563.99 -3.48608 0.465364 0
M  V30 16377 H 1563.87 -3.5468 -1.28381 0
M  V30 16378 H 1566.26 -2.56926 -1.45165 0
M  V30 16379 H 1566.34 -2.53845 0.315638 0
M  V30 16380 H 1565.98 -5.06667 0.353759 0
M  V30 16381 H 1565.91 -5.06914 -1.42638 0
M  V30 16382 H 1568.4 -3.72624 -0.629253 0
M  V30 16383 H 1568.71 -7.69925 -0.66604 0
M  V30 16384 H 1567.06 -6.92354 -0.605912 0
M  V30 16385 H 1570.25 -4.62893 -0.696244 0
M  V30 16386 H 1570.42 -6.44063 -0.713246 0
M  V30 16387 N 1563.83 0.388742 -1.5273 0
M  V30 16388 C 1565.11 1.14799 -1.58368 0
M  V30 16389 C 1565.49 2.07706 -0.377018 0
M  V30 16390 O 1564.83 2.1951 0.634634 0
M  V30 16391 C 1565.04 1.90745 -2.92262 0
M  V30 16392 C 1566.39 2.46098 -3.46007 0
M  V30 16393 O 1567.42 2.00901 -2.94138 0
M  V30 16394 O 1566.28 3.28658 -4.3663 0
M  V30 16395 H 1563.37 0.52529 -0.638748 0
M  V30 16396 H 1565.92 0.393874 -1.65066 0
M  V30 16397 H 1564.69 1.22806 -3.7153 0
M  V30 16398 H 1564.31 2.73118 -2.88951 0
M  V30 16399 N 1565.31 1.43698 0.647203 0
M  V30 16400 C 1566.22 1.51781 1.78884 0
M  V30 16401 C 1567.23 0.404498 1.69233 0
M  V30 16402 O 1568.41 0.659509 1.90296 0
M  V30 16403 C 1565.47 1.44408 3.15194 0
M  V30 16404 C 1564.54 2.6646 3.36597 0
M  V30 16405 C 1563.77 2.59429 4.66403 0
M  V30 16406 O 1563.99 1.64537 5.46154 0
M  V30 16407 O 1562.93 3.50027 4.89658 0
M  V30 16408 H 1566.75 2.48198 1.75019 0
M  V30 16409 H 1564.34 1.25766 0.806436 0
M  V30 16410 H 1566.22 1.42761 3.96481 0
M  V30 16411 H 1564.89 0.511292 3.19637 0
M  V30 16412 H 1563.8 2.73679 2.5505 0
M  V30 16413 H 1565.13 3.58732 3.37005 0
M  V30 16414 N 1566.79 -0.886131 1.30328 0
M  V30 16415 C 1568.03 -1.64026 1.19261 0
M  V30 16416 C 1568.37 -1.92553 -0.252379 0
M  V30 16417 O 1567.64 -1.54564 -1.18069 0
M  V30 16418 C 1567.92 -2.9808 2.0204 0
M  V30 16419 C 1567.78 -2.76534 3.54752 0
M  V30 16420 C 1569.1 -3.98989 1.85731 0
M  V30 16421 H 1566.21 -0.595224 0.4346 0
M  V30 16422 H 1568.86 -1.0255 1.59949 0
M  V30 16423 H 1567.01 -3.50552 1.67469 0
M  V30 16424 H 1568.68 -2.3086 3.99376 0
M  V30 16425 H 1566.92 -2.1106 3.78993 0
M  V30 16426 H 1567.59 -3.71849 4.07961 0
M  V30 16427 H 1570.07 -3.55673 2.15953 0
M  V30 16428 H 1568.94 -4.90699 2.45979 0
M  V30 16429 H 1569.21 -4.34501 0.816152 0
M  V30 16430 N 1568.26 -1.13026 -1.09832 0
M  V30 16431 C 1569.2 -0.761606 -2.16176 0
M  V30 16432 C 1570.21 0.214709 -1.61378 0
M  V30 16433 O 1571.4 -0.00487178 -1.78499 0
M  V30 16434 C 1568.5 -0.107513 -3.38729 0
M  V30 16435 C 1567.67 -1.11487 -4.22953 0
M  V30 16436 C 1566.73 -0.487243 -5.23939 0
M  V30 16437 O 1565.76 -1.14605 -5.57543 0
M  V30 16438 N 1566.96 0.742571 -5.75731 0
M  V30 16439 H 1569.72 -1.67669 -2.48409 0
M  V30 16440 H 1567.28 -1.0227 -1.25509 0
M  V30 16441 H 1569.28 0.324507 -4.03397 0
M  V30 16442 H 1567.85 0.710438 -3.0442 0
M  V30 16443 H 1567.07 -1.72432 -3.54487 0
M  V30 16444 H 1568.35 -1.79584 -4.76053 0
M  V30 16445 H 1567.75 1.29667 -5.50639 0
M  V30 16446 H 1566.31 1.11731 -6.42152 0
M  V30 16447 N 1569.74 1.27735 -0.923117 0
M  V30 16448 C 1570.69 2.28975 -0.409065 0
M  V30 16449 C 1571.68 1.61723 0.504194 0
M  V30 16450 O 1572.89 1.75848 0.384402 0
M  V30 16451 H 1569.27 0.743354 -0.113705 0
M  V30 16452 H 1571.24 2.69751 -1.27582 0
M  V30 16453 C 1569.99 3.46158 0.327099 0
M  V30 16454 H 1569.31 3.98117 -0.366444 0
M  V30 16455 H 1570.75 4.18968 0.65128 0
M  V30 16456 C 1569.21 2.99724 1.53842 0
M  V30 16457 O 1569.74 3.03001 2.6373 0
M  V30 16458 N 1567.94 2.55274 1.38865 0
M  V30 16459 H 1567.49 2.52807 0.494629 0
M  V30 16460 H 1567.45 2.24567 2.20039 0
M  V30 16461 N 1571.22 0.688118 1.41784 0
M  V30 16462 C 1572.18 0.0271411 2.29184 0
M  V30 16463 C 1573.18 -0.715537 1.44002 0
M  V30 16464 O 1574.37 -0.551542 1.65238 0
M  V30 16465 C 1571.51 -0.97206 3.26747 0
M  V30 16466 H 1572.7 0.79658 2.89127 0
M  V30 16467 H 1570.25 0.451198 1.49646 0
M  V30 16468 H 1570.99 -1.76953 2.71769 0
M  V30 16469 H 1570.77 -0.442746 3.89592 0
M  V30 16470 H 1572.26 -1.43256 3.92259 0
M  V30 16471 N 1572.7 -1.51554 0.432352 0
M  V30 16472 C 1573.63 -2.25369 -0.417328 0
M  V30 16473 C 1574.64 -1.29197 -0.990551 0
M  V30 16474 O 1575.83 -1.54985 -0.885539 0
M  V30 16475 C 1572.93 -2.99006 -1.59526 0
M  V30 16476 C 1572.11 -4.22234 -1.1418 0
M  V30 16477 C 1571.16 -4.78495 -2.18928 0
M  V30 16478 O 1570.19 -5.40465 -1.78566 0
M  V30 16479 N 1571.39 -4.62091 -3.51358 0
M  V30 16480 H 1574.16 -2.98926 0.215294 0
M  V30 16481 H 1571.72 -1.59783 0.26097 0
M  V30 16482 H 1573.71 -3.33532 -2.29212 0
M  V30 16483 H 1572.28 -2.28491 -2.13332 0
M  V30 16484 H 1571.5 -3.93259 -0.272182 0
M  V30 16485 H 1572.79 -5.02212 -0.816145 0
M  V30 16486 H 1572.19 -4.12718 -3.86885 0
M  V30 16487 H 1570.74 -5.00992 -4.16953 0
M  V30 16488 N 1574.18 -0.163538 -1.56749 0
M  V30 16489 C 1575.11 0.801071 -2.14745 0
M  V30 16490 C 1576.12 1.1992 -1.10104 0
M  V30 16491 O 1577.31 1.14041 -1.37321 0
M  V30 16492 C 1574.41 2.08867 -2.66886 0
M  V30 16493 C 1573.58 1.85532 -3.96102 0
M  V30 16494 C 1572.64 2.98436 -4.33385 0
M  V30 16495 O 1571.67 2.69408 -5.01406 0
M  V30 16496 N 1572.87 4.26029 -3.94309 0
M  V30 16497 H 1575.64 0.3053 -2.98141 0
M  V30 16498 H 1573.2 0.019501 -1.61888 0
M  V30 16499 H 1575.19 2.83477 -2.8883 0
M  V30 16500 H 1573.76 2.49657 -1.88122 0
M  V30 16501 H 1572.98 0.94868 -3.82614 0
M  V30 16502 H 1574.27 1.673 -4.80508 0
M  V30 16503 H 1573.66 4.52475 -3.39533 0
M  V30 16504 H 1572.22 4.97367 -4.21271 0
M  V30 16505 N 1575.65 1.57214 0.110213 0
M  V30 16506 C 1577.07 1.52706 0.464004 0
M  V30 16507 C 1577.27 0.87792 1.81369 0
M  V30 16508 O 1576.33 0.463987 2.482 0
M  V30 16509 C 1577.64 2.97457 0.440406 0
M  V30 16510 C 1579.19 3.08594 0.523336 0
M  V30 16511 C 1579.66 4.54923 0.53004 0
M  V30 16512 N 1581.15 4.59411 0.591228 0
M  V30 16513 C 1581.89 5.7006 0.618007 0
M  V30 16514 N 1581.38 6.9018 0.601901 0
M  V30 16515 N 1583.18 5.58192 0.661679 0
M  V30 16516 H 1575.33 1.97794 -0.77403 0
M  V30 16517 H 1577.59 0.903673 -0.286496 0
M  V30 16518 H 1577.3 3.48356 -0.483845 0
M  V30 16519 H 1577.17 3.55356 1.26498 0
M  V30 16520 H 1579.56 2.57692 1.43801 0
M  V30 16521 H 1579.64 2.53674 -0.329095 0
M  V30 16522 H 1579.28 5.06472 -0.380623 0
M  V30 16523 H 1579.21 5.07663 1.39948 0
M  V30 16524 H 1581.7 3.72953 0.609483 0
M  V30 16525 H 1582.02 7.70267 0.6252 0
M  V30 16526 H 1580.36 6.92665 0.569186 0
M  V30 16527 H 1583.55 4.63256 0.671686 0
M  V30 16528 H 1583.73 6.44432 0.67908 0
M  V30 16529 N 1577.13 -0.380637 1.52934 0
M  V30 16530 C 1578.38 -1.12261 1.68053 0
M  V30 16531 C 1578.7 -1.90263 0.427191 0
M  V30 16532 O 1577.97 -1.87768 -0.558559 0
M  V30 16533 H 1576.55 -0.41742 0.619491 0
M  V30 16534 H 1579.21 -0.430906 1.90077 0
M  V30 16535 H 1578.31 -1.82085 2.53479 0
M  V30 16536 N 1578.61 -1.44039 -0.639573 0
M  V30 16537 C 1579.86 -1.46594 -1.40136 0
M  V30 16538 C 1580.19 -0.0949646 -1.93968 0
M  V30 16539 O 1579.46 0.886201 -1.73138 0
M  V30 16540 C 1579.75 -2.51947 -2.57283 0
M  V30 16541 C 1579.6 -3.98371 -2.08855 0
M  V30 16542 C 1580.92 -2.53891 -3.59482 0
M  V30 16543 H 1578.04 -0.533759 -0.508203 0
M  V30 16544 H 1580.68 -1.75669 -0.723898 0
M  V30 16545 H 1578.83 -2.27285 -3.15077 0
M  V30 16546 H 1580.5 -4.34137 -1.55956 0
M  V30 16547 H 1578.75 -4.10551 -1.40109 0
M  V30 16548 H 1579.42 -4.67721 -2.93157 0
M  V30 16549 H 1581.89 -2.75906 -3.11473 0
M  V30 16550 H 1580.77 -3.29524 -4.38982 0
M  V30 16551 H 1581.03 -1.57774 -4.12989 0
M  V30 16552 N 1580.09 0.879207 -1.30796 0
M  V30 16553 C 1581.34 1.6315 -1.19951 0
M  V30 16554 C 1581.66 1.92958 0.244468 0
M  V30 16555 O 1580.92 1.55316 1.19061 0
M  V30 16556 C 1581.22 2.97578 -1.97945 0
M  V30 16557 C 1580.88 2.873 -3.47519 0
M  V30 16558 C 1579.55 2.84204 -3.88306 0
M  V30 16559 C 1581.9 2.75006 -4.42743 0
M  V30 16560 C 1579.23 2.6666 -5.22599 0
M  V30 16561 C 1581.58 2.59 -5.7715 0
M  V30 16562 C 1580.24 2.54282 -6.17168 0
M  V30 16563 H 1579.51 0.597008 -0.438934 0
M  V30 16564 H 1582.16 1.02179 -1.61962 0
M  V30 16565 H 1580.46 3.62532 -1.48587 0
M  V30 16566 H 1582.16 3.54759 -1.86941 0
M  V30 16567 H 1578.75 2.90522 -3.15111 0
M  V30 16568 H 1582.93 2.7646 -4.12169 0
M  V30 16569 H 1578.19 2.61426 -5.5269 0
M  V30 16570 H 1582.36 2.48462 -6.50568 0
M  V30 16571 H 1579.99 2.40446 -7.21172 0
M  V30 16572 N 1581.57 1.13606 1.09231 0
M  V30 16573 C 1582.82 0.897278 1.81089 0
M  V30 16574 C 1583.14 -0.578066 1.86235 0
M  V30 16575 O 1582.41 -1.42018 1.34935 0
M  V30 16576 H 1580.99 0.328971 0.670662 0
M  V30 16577 H 1583.65 1.433 1.32103 0
M  V30 16578 H 1582.74 1.28979 2.84202 0
M  V30 16579 N 1583.05 -1.27244 0.929878 0
M  V30 16580 C 1584.46 -1.4662 0.630451 0
M  V30 16581 C 1584.66 -1.84077 -0.819633 0
M  V30 16582 O 1583.72 -1.95555 -1.59733 0
M  V30 16583 C 1585.03 -2.55709 1.58219 0
M  V30 16584 C 1586.58 -2.69569 1.59065 0
M  V30 16585 C 1587.05 -3.81818 2.52941 0
M  V30 16586 N 1588.54 -3.89195 2.51161 0
M  V30 16587 C 1589.28 -4.75474 3.20488 0
M  V30 16588 N 1588.78 -5.66225 3.99201 0
M  V30 16589 N 1590.57 -4.69222 3.09495 0
M  V30 16590 H 1582.72 -1.01216 1.86733 0
M  V30 16591 H 1584.98 -0.505737 0.801832 0
M  V30 16592 H 1584.69 -2.34985 2.61677 0
M  V30 16593 H 1584.56 -3.53141 1.32556 0
M  V30 16594 H 1586.95 -2.89672 0.563375 0
M  V30 16595 H 1587.03 -1.72616 1.88778 0
M  V30 16596 H 1586.67 -3.62467 3.55781 0
M  V30 16597 H 1586.6 -4.78202 2.20524 0
M  V30 16598 H 1589.1 -3.24305 1.93997 0
M  V30 16599 H 1589.41 -6.28925 4.4908 0
M  V30 16600 H 1587.75 -5.66013 4.03304 0
M  V30 16601 H 1590.94 -3.97322 2.47493 0
M  V30 16602 H 1591.12 -5.36244 3.63794 0
M  V30 16603 N 1584.52 -0.695628 -1.41417 0
M  V30 16604 C 1585.77 -0.226954 -2.01526 0
M  V30 16605 C 1586.1 1.1704 -1.54968 0
M  V30 16606 O 1585.38 1.78999 -0.760895 0
M  V30 16607 C 1585.66 -0.284704 -3.58973 0
M  V30 16608 C 1585.51 -1.71901 -4.15656 0
M  V30 16609 C 1586.83 0.355454 -4.38662 0
M  V30 16610 H 1583.95 -0.0839425 -0.732204 0
M  V30 16611 H 1586.59 -0.884359 -1.68164 0
M  V30 16612 H 1584.74 0.275041 -3.87525 0
M  V30 16613 H 1586.42 -2.3326 -3.97979 0
M  V30 16614 H 1584.66 -2.25314 -3.70696 0
M  V30 16615 H 1585.33 -1.71095 -5.24815 0
M  V30 16616 H 1587.81 -0.121256 -4.15923 0
M  V30 16617 H 1586.68 0.284503 -5.48162 0
M  V30 16618 H 1586.94 1.43617 -4.18123 0
M  V30 16619 N 1586 1.51322 -0.440383 0
M  V30 16620 C 1586.93 2.30708 0.360013 0
M  V30 16621 C 1587.91 1.36254 1.01828 0
M  V30 16622 O 1589.1 1.65174 1.02134 0
M  V30 16623 C 1586.23 3.15132 1.45977 0
M  V30 16624 C 1585.18 4.17889 0.924825 0
M  V30 16625 C 1584.51 4.90853 2.12056 0
M  V30 16626 C 1585.81 5.22282 -0.0428362 0
M  V30 16627 H 1587.5 2.97868 -0.30248 0
M  V30 16628 H 1585.05 1.43249 -0.146914 0
M  V30 16629 H 1587 3.69449 2.02695 0
M  V30 16630 H 1585.72 2.45798 2.1506 0
M  V30 16631 H 1584.38 3.64627 0.379842 0
M  V30 16632 H 1584.03 4.1802 2.79765 0
M  V30 16633 H 1583.73 5.60339 1.769 0
M  V30 16634 H 1585.26 5.47995 2.69322 0
M  V30 16635 H 1586.67 5.71654 0.434137 0
M  V30 16636 H 1585.07 5.99314 -0.307126 0
M  V30 16637 H 1586.14 4.74923 -0.978557 0
M  V30 16638 N 1587.48 0.171848 1.5666 0
M  V30 16639 C 1588.71 -0.479221 2.01274 0
M  V30 16640 C 1589.12 -1.56771 1.05206 0
M  V30 16641 O 1588.48 -1.82423 0.0530164 0
M  V30 16642 C 1588.53 -1.05705 3.457 0
M  V30 16643 O 1588.25 -0.0120133 4.38098 0
M  V30 16644 C 1589.75 -1.78629 4.05717 0
M  V30 16645 H 1586.97 -0.122598 0.659705 0
M  V30 16646 H 1589.52 0.273733 2.0266 0
M  V30 16647 H 1587.67 -1.7605 3.45087 0
M  V30 16648 H 1588.09 -0.438714 5.22662 0
M  V30 16649 H 1589.56 -2.14319 5.08696 0
M  V30 16650 H 1590.04 -2.68149 3.4784 0
M  V30 16651 H 1590.64 -1.12925 4.10034 0
M  V30 16652 N 1588.96 -1.5727 -0.101874 0
M  V30 16653 C 1589.92 -2.00625 -1.10826 0
M  V30 16654 C 1590.92 -0.89878 -1.33336 0
M  V30 16655 O 1592.11 -1.16442 -1.29564 0
M  V30 16656 C 1589.24 -2.36113 -2.45893 0
M  V30 16657 H 1590.44 -2.90748 -0.735238 0
M  V30 16658 H 1587.99 -1.52406 -0.346713 0
M  V30 16659 H 1588.72 -1.48923 -2.88084 0
M  V30 16660 H 1588.51 -3.169 -2.30904 0
M  V30 16661 H 1590 -2.70336 -3.1829 0
M  V30 16662 N 1590.44 0.372521 -1.53134 0
M  V30 16663 C 1591.68 1.11589 -1.6898 0
M  V30 16664 C 1592.01 1.89503 -0.438049 0
M  V30 16665 O 1591.27 1.86911 0.579891 0
M  V30 16666 C 1591.56 2.10742 -2.88656 0
M  V30 16667 C 1591.23 1.49361 -4.25443 0
M  V30 16668 C 1589.89 1.32348 -4.62642 0
M  V30 16669 C 1592.24 1.04889 -5.10537 0
M  V30 16670 C 1589.57 0.694368 -5.82577 0
M  V30 16671 C 1591.92 0.433809 -6.31111 0
M  V30 16672 C 1590.59 0.251118 -6.67027 0
M  V30 16673 H 1589.86 0.408333 -0.618341 0
M  V30 16674 H 1592.51 0.398507 -1.87308 0
M  V30 16675 H 1590.81 2.88759 -2.64812 0
M  V30 16676 H 1592.51 2.682 -2.98111 0
M  V30 16677 H 1589.1 1.63594 -3.9615 0
M  V30 16678 H 1593.28 1.16829 -4.82353 0
M  V30 16679 H 1588.54 0.541171 -6.09 0
M  V30 16680 H 1592.71 0.0809859 -6.96353 0
M  V30 16681 H 1590.34 -0.23844 -7.59826 0
M  V30 16682 N 1591.91 1.44376 0.631925 0
M  V30 16683 C 1593.14 1.5082 1.42366 0
M  V30 16684 C 1593.56 0.133858 1.87623 0
M  V30 16685 O 1592.92 -0.876789 1.58689 0
M  V30 16686 C 1592.97 2.47698 2.62065 0
M  V30 16687 O 1592.07 1.97796 3.61871 0
M  V30 16688 H 1591.41 0.509318 0.426018 0
M  V30 16689 H 1593.94 1.89502 0.771376 0
M  V30 16690 H 1593.95 2.65708 3.09618 0
M  V30 16691 H 1592.63 3.47526 2.2847 0
M  V30 16692 H 1591.21 1.89549 3.21131 0
M  V30 16693 N 1593.39 -0.872258 1.31261 0
M  V30 16694 C 1594.81 -1.15763 1.09868 0
M  V30 16695 C 1595.01 -2.01065 -0.132331 0
M  V30 16696 O 1594.06 -2.38735 -0.822317 0
M  V30 16697 C 1595.38 -1.85199 2.36901 0
M  V30 16698 C 1596.92 -1.9791 2.42489 0
M  V30 16699 C 1597.4 -2.70759 3.69396 0
M  V30 16700 N 1598.89 -2.78296 3.70278 0
M  V30 16701 C 1599.63 -3.3527 4.65168 0
M  V30 16702 N 1599.12 -3.93193 5.70413 0
M  V30 16703 N 1600.91 -3.33206 4.52692 0
M  V30 16704 H 1593.07 -0.303784 2.10216 0
M  V30 16705 H 1595.33 -0.197172 0.927269 0
M  V30 16706 H 1595.03 -1.29968 3.26804 0
M  V30 16707 H 1594.91 -2.85493 2.46523 0
M  V30 16708 H 1597.3 -2.52305 1.53056 0
M  V30 16709 H 1597.38 -0.966644 2.36833 0
M  V30 16710 H 1597.02 -2.17031 4.59195 0
M  V30 16711 H 1596.95 -3.72407 3.72318 0
M  V30 16712 H 1599.44 -2.37185 2.94197 0
M  V30 16713 H 1599.75 -4.34771 6.38901 0
M  V30 16714 H 1598.1 -3.91575 5.7419 0
M  V30 16715 H 1601.29 -2.87191 3.69647 0
M  V30 16716 H 1601.46 -3.7731 5.26822 0
M  V30 16717 N 1594.87 -1.14184 -1.08627 0
M  V30 16718 C 1595.78 -0.84033 -2.19033 0
M  V30 16719 C 1596.8 0.178322 -1.73084 0
M  V30 16720 O 1597.97 0.00737963 -2.01399 0
M  V30 16721 C 1595.04 -0.319674 -3.45223 0
M  V30 16722 C 1594.1 -1.4006 -4.0581 0
M  V30 16723 C 1593.33 -0.904693 -5.25976 0
M  V30 16724 O 1593.55 0.25468 -5.69831 0
M  V30 16725 O 1592.49 -1.68267 -5.77901 0
M  V30 16726 H 1596.31 -1.76296 -2.47292 0
M  V30 16727 H 1593.9 -0.919929 -1.17719 0
M  V30 16728 H 1595.78 -0.0351268 -4.21385 0
M  V30 16729 H 1594.46 0.575264 -3.18547 0
M  V30 16730 H 1593.36 -1.73858 -3.31247 0
M  V30 16731 H 1594.7 -2.26998 -4.3673 0
M  V30 16732 N 1596.35 1.26749 -0.936613 0
M  V30 16733 C 1597.76 1.75925 -0.62507 0
M  V30 16734 C 1598.11 1.76359 0.859771 0
M  V30 16735 O 1597.24 1.37277 1.67284 0
M  V30 16736 C 1597.83 3.19474 -1.12791 0
M  V30 16737 C 1596.39 3.66282 -0.866872 0
M  V30 16738 C 1595.54 2.45913 -1.28148 0
M  V30 16739 H 1598.49 1.1289 -1.11542 0
M  V30 16740 H 1598.51 3.77465 -0.479643 0
M  V30 16741 H 1598.02 3.19126 -2.20862 0
M  V30 16742 H 1596.12 3.72065 0.199647 0
M  V30 16743 H 1596.23 4.55319 -1.49067 0
M  V30 16744 H 1594.6 2.44894 -0.699941 0
M  V30 16745 H 1595.38 2.4827 -2.37101 0
M  V30 16746 N 1597.83 0.703118 1.41046 0
M  V30 16747 C 1599.1 0.164985 1.94903 0
M  V30 16748 C 1599.48 -1.32665 1.64205 0
M  V30 16749 O 1598.83 -2.07675 0.953058 0
M  V30 16750 C 1599.04 0.464354 3.45897 0
M  V30 16751 C 1600.39 0.396205 4.22747 0
M  V30 16752 O 1601.41 0.399698 3.5395 0
M  V30 16753 O 1600.27 0.362874 5.45294 0
M  V30 16754 H 1597.37 0.0193901 0.826773 0
M  V30 16755 H 1599.91 0.779796 1.50722 0
M  V30 16756 H 1598.68 1.49653 3.61552 0
M  V30 16757 H 1598.31 -0.18105 3.97188 0
M  V30 16758 N 1599.3 -1.51086 0.448402 0
M  V30 16759 C 1600.25 -2.29611 -0.371711 0
M  V30 16760 C 1601.25 -1.35926 -1.01096 0
M  V30 16761 O 1602.45 -1.53219 -0.944663 0
M  V30 16762 H 1598.83 -0.739099 -0.138694 0
M  V30 16763 H 1600.8 -2.96772 0.311275 0
M  V30 16764 C 1599.55 -3.1583 -1.45418 0
M  V30 16765 H 1598.87 -3.87813 -0.971661 0
M  V30 16766 H 1600.31 -3.7381 -2.00105 0
M  V30 16767 C 1598.77 -2.31927 -2.44359 0
M  V30 16768 O 1599.3 -1.98655 -3.4914 0
M  V30 16769 N 1597.51 -1.94938 -2.15517 0
M  V30 16770 H 1597.05 -2.22195 -1.30335 0
M  V30 16771 H 1597.01 -1.39098 -2.81956 0
M  V30 16772 N 1600.78 -0.180154 -1.56567 0
M  V30 16773 C 1602.19 0.335054 -1.83669 0
M  V30 16774 C 1602.54 1.62443 -1.1003 0
M  V30 16775 O 1601.67 2.13448 -0.356205 0
M  V30 16776 C 1602.26 0.61468 -3.33177 0
M  V30 16777 C 1600.82 1.0743 -3.60743 0
M  V30 16778 C 1599.97 0.114877 -2.77062 0
M  V30 16779 H 1602.92 -0.404245 -1.53465 0
M  V30 16780 H 1602.94 1.46574 -3.51136 0
M  V30 16781 H 1602.45 -0.323923 -3.86746 0
M  V30 16782 H 1600.56 2.0277 -3.12594 0
M  V30 16783 H 1600.67 0.977349 -4.69025 0
M  V30 16784 H 1599.03 0.613933 -2.4719 0
M  V30 16785 H 1599.82 -0.817904 -3.33414 0
M  V30 16786 N 1602.26 1.57322 0.0935319 0
M  V30 16787 C 1603.21 2.02171 1.11336 0
M  V30 16788 C 1604.18 0.898305 1.39713 0
M  V30 16789 O 1605.36 1.16441 1.51149 0
M  V30 16790 C 1602.5 2.45243 2.42796 0
M  V30 16791 C 1601.62 3.7111 2.21136 0
M  V30 16792 C 1600.75 4.03056 3.46005 0
M  V30 16793 C 1599.79 5.22028 3.19615 0
M  V30 16794 N 1598.93 5.49718 4.36755 0
M  V30 16795 H 1603.77 2.89073 0.723924 0
M  V30 16796 H 1601.3 1.42975 0.345919 0
M  V30 16797 H 1603.26 2.68261 3.19518 0
M  V30 16798 H 1601.89 1.61348 2.79583 0
M  V30 16799 H 1600.94 3.5556 1.35209 0
M  V30 16800 H 1602.26 4.57979 1.97628 0
M  V30 16801 H 1601.41 4.26858 4.31135 0
M  V30 16802 H 1600.15 3.14712 3.72569 0
M  V30 16803 H 1599.15 4.98044 2.32879 0
M  V30 16804 H 1600.38 6.11971 2.94396 0
M  V30 16805 H 1598.32 4.64333 4.63391 0
M  V30 16806 H 1598.24 6.30961 4.16443 0
M  V30 16807 H 1599.51 5.78057 5.22944 0
M  V30 16808 N 1603.74 -0.364395 1.53329 0
M  V30 16809 C 1604.97 -1.1275 1.7348 0
M  V30 16810 C 1605.38 -1.83002 0.4643 0
M  V30 16811 O 1604.74 -1.73603 -0.562864 0
M  V30 16812 C 1604.79 -2.15691 2.90103 0
M  V30 16813 O 1604.51 -1.48298 4.12237 0
M  V30 16814 C 1606.01 -3.04539 3.22135 0
M  V30 16815 H 1603.23 -0.337084 0.580186 0
M  V30 16816 H 1605.78 -0.422952 2.00078 0
M  V30 16817 H 1603.93 -2.81742 2.65895 0
M  V30 16818 H 1604.34 -2.16896 4.77553 0
M  V30 16819 H 1605.82 -3.72747 4.07141 0
M  V30 16820 H 1606.3 -3.69414 2.3755 0
M  V30 16821 H 1606.9 -2.44103 3.48273 0
M  V30 16822 N 1605.22 -1.44709 -0.62426 0
M  V30 16823 C 1606.45 -1.51129 -1.40867 0
M  V30 16824 C 1606.85 -0.1371 -1.88703 0
M  V30 16825 O 1606.2 0.868546 -1.6187 0
M  V30 16826 C 1606.26 -2.42015 -2.65836 0
M  V30 16827 C 1605.92 -3.89061 -2.39752 0
M  V30 16828 C 1606.92 -4.79411 -2.01151 0
M  V30 16829 C 1604.61 -4.33827 -2.53179 0
M  V30 16830 C 1606.6 -6.12529 -1.76314 0
M  V30 16831 C 1604.29 -5.66991 -2.27957 0
M  V30 16832 C 1605.28 -6.56161 -1.89584 0
M  V30 16833 O 1604.97 -7.86859 -1.64647 0
M  V30 16834 H 1604.7 -0.514731 -0.43821 0
M  V30 16835 H 1607.26 -1.90421 -0.770008 0
M  V30 16836 H 1605.49 -1.97663 -3.32365 0
M  V30 16837 H 1607.18 -2.39306 -3.27852 0
M  V30 16838 H 1607.94 -4.46095 -1.90328 0
M  V30 16839 H 1603.82 -3.64675 -2.82016 0
M  V30 16840 H 1607.37 -6.82089 -1.46288 0
M  V30 16841 H 1603.26 -5.99866 -2.38392 0
M  V30 16842 H 1604.03 -7.98724 -1.78837 0
M  V30 16843 N 1606.69 0.865285 -1.31722 0
M  V30 16844 C 1607.94 1.62108 -1.21855 0
M  V30 16845 C 1608.27 1.9293 0.221714 0
M  V30 16846 O 1607.55 1.56423 1.15595 0
M  V30 16847 C 1607.83 2.94828 -2.06756 0
M  V30 16848 C 1607.68 2.70855 -3.59107 0
M  V30 16849 C 1609 3.95983 -1.92055 0
M  V30 16850 H 1606.12 0.588234 -0.444015 0
M  V30 16851 H 1608.76 0.999922 -1.6156 0
M  V30 16852 H 1606.91 3.47843 -1.73025 0
M  V30 16853 H 1608.59 2.24477 -4.02999 0
M  V30 16854 H 1606.83 2.05004 -3.82303 0
M  V30 16855 H 1607.5 3.65312 -4.13825 0
M  V30 16856 H 1609.98 3.52193 -2.21584 0
M  V30 16857 H 1608.85 4.86724 -2.53754 0
M  V30 16858 H 1609.11 4.33148 -0.885174 0
M  V30 16859 N 1608.17 1.14759 1.0802 0
M  V30 16860 C 1609.1 0.795901 2.14937 0
M  V30 16861 C 1610.12 -0.189008 1.61699 0
M  V30 16862 O 1611.31 0.0332689 1.78469 0
M  V30 16863 C 1608.41 0.161388 3.38516 0
M  V30 16864 C 1607.58 1.18202 4.21126 0
M  V30 16865 C 1606.64 0.570535 5.23098 0
M  V30 16866 O 1605.66 1.2346 5.55649 0
M  V30 16867 N 1606.87 -0.650883 5.76839 0
M  V30 16868 H 1609.63 1.716 2.4571 0
M  V30 16869 H 1607.19 1.04254 1.23866 0
M  V30 16870 H 1609.18 -0.260289 4.03862 0
M  V30 16871 H 1607.75 -0.661917 3.05512 0
M  V30 16872 H 1606.97 1.78049 3.51699 0
M  V30 16873 H 1608.26 1.87135 4.73136 0
M  V30 16874 H 1607.66 -1.2089 5.52632 0
M  V30 16875 H 1606.22 -1.01501 6.43848 0
M  V30 16876 N 1609.65 -1.26251 0.943322 0
M  V30 16877 C 1610.93 -1.88839 0.509831 0
M  V30 16878 C 1611.31 -1.85227 -1.01263 0
M  V30 16879 O 1610.66 -1.30805 -1.87356 0
M  V30 16880 C 1610.87 -3.32076 1.07361 0
M  V30 16881 C 1612.21 -4.0891 1.14357 0
M  V30 16882 O 1613.24 -3.41153 1.02435 0
M  V30 16883 O 1612.1 -5.30088 1.32926 0
M  V30 16884 H 1609.19 -0.810069 0.166484 0
M  V30 16885 H 1611.74 -1.34405 1.03602 0
M  V30 16886 H 1610.51 -3.29077 2.11716 0
M  V30 16887 H 1610.13 -3.94052 0.529991 0
M  V30 16888 N 1611.13 -0.710588 -1.40671 0
M  V30 16889 C 1612.38 -0.244967 -2.00207 0
M  V30 16890 C 1612.69 1.16693 -1.56978 0
M  V30 16891 O 1613.9 1.73081 -2.09177 0
M  V30 16892 C 1612.35 -0.387049 -3.57813 0
M  V30 16893 C 1611.96 -1.80527 -4.10017 0
M  V30 16894 C 1613.71 0.0180338 -4.24496 0
M  V30 16895 C 1611.61 -1.89821 -5.60109 0
M  V30 16896 H 1610.54 -0.087831 -0.748867 0
M  V30 16897 H 1613.19 -0.880956 -1.6097 0
M  V30 16898 H 1611.58 0.317442 -3.94726 0
M  V30 16899 H 1612.75 -2.53974 -3.84492 0
M  V30 16900 H 1611.06 -2.16137 -3.55913 0
M  V30 16901 H 1613.66 -0.0307544 -5.34691 0
M  V30 16902 H 1614 1.05915 -4.02601 0
M  V30 16903 H 1614.54 -0.63672 -3.92671 0
M  V30 16904 H 1611.28 -2.92036 -5.86852 0
M  V30 16905 H 1610.8 -1.20779 -5.87514 0
M  V30 16906 H 1612.48 -1.66801 -6.25129 0
M  V30 16907 N 1612.61 1.50847 -0.456408 0
M  V30 16908 C 1613.54 2.31077 0.335523 0
M  V30 16909 C 1614.52 1.37326 1.00377 0
M  V30 16910 O 1615.7 1.66247 1.00376 0
M  V30 16911 C 1612.83 3.16662 1.42627 0
M  V30 16912 C 1611.79 4.18846 0.88045 0
M  V30 16913 C 1611.11 4.93074 2.06838 0
M  V30 16914 C 1612.41 5.22208 -0.0982288 0
M  V30 16915 H 1614.11 2.97531 -0.334056 0
M  V30 16916 H 1611.65 1.43085 -0.162099 0
M  V30 16917 H 1613.61 3.71578 1.98765 0
M  V30 16918 H 1612.33 2.48066 2.12441 0
M  V30 16919 H 1610.99 3.65009 0.341147 0
M  V30 16920 H 1610.64 4.20963 2.75316 0
M  V30 16921 H 1610.34 5.62184 1.70947 0
M  V30 16922 H 1611.86 5.5082 2.63494 0
M  V30 16923 H 1613.28 5.72082 0.373481 0
M  V30 16924 H 1611.67 5.98954 -0.370674 0
M  V30 16925 H 1612.74 4.73859 -1.02887 0
M  V30 16926 N 1614.09 0.188454 1.56469 0
M  V30 16927 C 1615.5 -0.167487 1.58719 0
M  V30 16928 C 1615.7 -1.61543 1.20442 0
M  V30 16929 O 1614.76 -2.34985 0.924041 0
M  V30 16930 C 1616.07 0.128854 3.00424 0
M  V30 16931 C 1617.62 0.0684301 3.12925 0
M  V30 16932 C 1618.09 0.337991 4.56751 0
M  V30 16933 N 1619.58 0.286373 4.62314 0
M  V30 16934 C 1620.32 0.468886 5.7148 0
M  V30 16935 N 1619.82 0.711388 6.89138 0
M  V30 16936 N 1621.61 0.403602 5.60649 0
M  V30 16937 H 1613.76 1.13339 1.79633 0
M  V30 16938 H 1616.02 0.451885 0.833369 0
M  V30 16939 H 1615.73 1.13255 3.32966 0
M  V30 16940 H 1615.6 -0.571644 3.72843 0
M  V30 16941 H 1617.99 -0.925864 2.802 0
M  V30 16942 H 1618.07 0.801903 2.42906 0
M  V30 16943 H 1617.71 1.32957 4.90189 0
M  V30 16944 H 1617.64 -0.416293 5.24952 0
M  V30 16945 H 1620.14 0.105286 3.77753 0
M  V30 16946 H 1620.45 0.839643 7.68225 0
M  V30 16947 H 1618.79 0.748205 6.90961 0
M  V30 16948 H 1621.98 0.214616 4.67608 0
M  V30 16949 H 1622.16 0.549261 6.45668 0
M  V30 16950 N 1615.56 -1.5737 -0.0851874 0
M  V30 16951 C 1616.79 -1.90802 -0.800137 0
M  V30 16952 C 1617.21 -0.783132 -1.71792 0
M  V30 16953 O 1616.56 0.244331 -1.80857 0
M  V30 16954 C 1616.61 -3.2391 -1.60513 0
M  V30 16955 O 1616.34 -4.32072 -0.724253 0
M  V30 16956 C 1617.84 -3.7127 -2.42226 0
M  V30 16957 H 1615.06 -0.630988 -0.228242 0
M  V30 16958 H 1617.6 -2.04414 -0.0594587 0
M  V30 16959 H 1615.76 -3.11867 -2.29822 0
M  V30 16960 H 1616.17 -5.08571 -1.28279 0
M  V30 16961 H 1617.64 -4.67074 -2.94187 0
M  V30 16962 H 1618.12 -2.99606 -3.21143 0
M  V30 16963 H 1618.73 -3.86214 -1.78099 0
M  V30 16964 N 1617.04 0.356258 -1.53521 0
M  V30 16965 C 1617.95 1.46055 -1.83589 0
M  V30 16966 C 1618.97 1.58176 -0.724997 0
M  V30 16967 O 1620.14 1.73894 -1.01601 0
M  V30 16968 C 1617.21 2.81207 -2.0279 0
M  V30 16969 C 1616.27 2.78535 -3.26675 0
M  V30 16970 C 1615.5 4.07241 -3.4495 0
M  V30 16971 O 1615.73 5.03879 -2.67324 0
M  V30 16972 O 1614.66 4.12485 -4.38337 0
M  V30 16973 H 1618.49 1.23566 -2.77426 0
M  V30 16974 H 1616.07 0.547243 -1.39017 0
M  V30 16975 H 1617.95 3.61271 -2.16936 0
M  V30 16976 H 1616.63 3.03654 -1.12143 0
M  V30 16977 H 1615.53 1.97137 -3.17943 0
M  V30 16978 H 1616.87 2.61042 -4.17274 0
M  V30 16979 N 1618.52 1.45038 0.616577 0
M  V30 16980 C 1619.45 1.55858 1.73869 0
M  V30 16981 C 1620.43 0.410657 1.65069 0
M  V30 16982 O 1621.62 0.632652 1.83606 0
M  V30 16983 C 1618.75 1.51635 3.12448 0
M  V30 16984 C 1617.7 2.65053 3.36052 0
M  V30 16985 C 1617.03 2.45883 4.74811 0
M  V30 16986 C 1618.33 4.07121 3.27185 0
M  V30 16987 H 1620.02 2.49784 1.6507 0
M  V30 16988 H 1617.57 1.20216 0.792724 0
M  V30 16989 H 1619.52 1.57803 3.90738 0
M  V30 16990 H 1618.24 0.542342 3.22066 0
M  V30 16991 H 1616.9 2.58299 2.60149 0
M  V30 16992 H 1616.55 1.46641 4.8115 0
M  V30 16993 H 1616.25 3.21935 4.9156 0
M  V30 16994 H 1617.77 2.53892 5.55312 0
M  V30 16995 H 1619.19 4.15167 3.9536 0
M  V30 16996 H 1617.58 4.83491 3.55466 0
M  V30 16997 H 1618.65 4.29663 2.24762 0
M  V30 16998 N 1620 -0.858287 1.32179 0
M  V30 16999 C 1620.96 -1.94811 1.20753 0
M  V30 17000 C 1621.96 -1.60261 0.131526 0
M  V30 17001 O 1623.15 -1.69968 0.381662 0
M  V30 17002 C 1620.28 -3.29972 0.856229 0
M  V30 17003 H 1621.48 -2.06371 2.17603 0
M  V30 17004 H 1619.03 -1.04802 1.15958 0
M  V30 17005 H 1619.76 -3.24111 -0.11061 0
M  V30 17006 H 1619.55 -3.56424 1.63414 0
M  V30 17007 H 1621.04 -4.09856 0.800507 0
M  V30 17008 N 1621.48 -1.1533 -1.07409 0
M  V30 17009 C 1622.44 -0.852155 -2.1277 0
M  V30 17010 C 1623.44 0.14782 -1.60119 0
M  V30 17011 O 1624.63 -0.0817436 -1.74008 0
M  V30 17012 C 1621.76 -0.272233 -3.39811 0
M  V30 17013 H 1622.95 -1.78604 -2.40917 0
M  V30 17014 H 1620.51 -0.960698 -1.23289 0
M  V30 17015 H 1621.24 0.669873 -3.17306 0
M  V30 17016 H 1621.03 -0.992629 -3.79327 0
M  V30 17017 H 1622.52 -0.0790986 -4.17525 0
M  V30 17018 N 1622.95 1.25748 -0.950004 0
M  V30 17019 C 1623.86 2.29783 -0.472971 0
M  V30 17020 C 1624.88 1.6788 0.457403 0
M  V30 17021 O 1626.06 1.98598 0.334779 0
M  V30 17022 C 1623.12 3.45826 0.245955 0
M  V30 17023 C 1622.18 4.23184 -0.722063 0
M  V30 17024 C 1621.41 5.33687 -0.0373517 0
M  V30 17025 O 1621.64 5.58105 1.1779 0
M  V30 17026 O 1620.57 5.97572 -0.72054 0
M  V30 17027 H 1624.4 2.72668 -1.33737 0
M  V30 17028 H 1621.98 1.31111 -0.71626 0
M  V30 17029 H 1623.86 4.16348 0.650563 0
M  V30 17030 H 1622.54 3.04953 1.0856 0
M  V30 17031 H 1621.45 3.55109 -1.17679 0
M  V30 17032 H 1622.78 4.67829 -1.52959 0
M  V30 17033 N 1624.43 0.718038 1.40292 0
M  V30 17034 C 1625.68 0.258986 2.0114 0
M  V30 17035 C 1626.01 -1.1456 1.56811 0
M  V30 17036 O 1625.29 -1.77766 0.789276 0
M  V30 17037 C 1625.57 0.341778 3.58474 0
M  V30 17038 C 1625.42 1.78492 4.12869 0
M  V30 17039 C 1626.74 -0.285622 4.39172 0
M  V30 17040 H 1623.86 0.0955806 0.730776 0
M  V30 17041 H 1626.5 0.911 1.66736 0
M  V30 17042 H 1624.65 -0.213354 3.87914 0
M  V30 17043 H 1626.32 2.39562 3.94218 0
M  V30 17044 H 1624.57 2.31183 3.67065 0
M  V30 17045 H 1625.24 1.79423 5.22026 0
M  V30 17046 H 1627.71 0.187411 4.15678 0
M  V30 17047 H 1626.59 -0.19726 5.48545 0
M  V30 17048 H 1626.85 -1.36947 4.20355 0
M  V30 17049 N 1625.91 -1.50602 0.464402 0
M  V30 17050 C 1626.86 -2.25271 -0.351736 0
M  V30 17051 C 1627.84 -1.28586 -0.967185 0
M  V30 17052 O 1629.04 -1.53526 -0.880843 0
M  V30 17053 C 1626.17 -3.11777 -1.43701 0
M  V30 17054 C 1625.25 -4.15906 -0.82962 0
M  V30 17055 N 1625.64 -5.05779 0.0460845 0
M  V30 17056 C 1623.94 -4.32367 -1.0943 0
M  V30 17057 C 1624.64 -5.80391 0.390094 0
M  V30 17058 N 1623.62 -5.431 -0.233071 0
M  V30 17059 H 1627.42 -2.9212 0.322964 0
M  V30 17060 H 1624.93 -1.60001 0.278131 0
M  V30 17061 H 1626.93 -3.6387 -2.03481 0
M  V30 17062 H 1625.59 -2.46475 -2.11377 0
M  V30 17063 H 1626.6 -5.16239 0.414453 0
M  V30 17064 H 1623.28 -3.78285 -1.76654 0
M  V30 17065 H 1624.67 -6.62762 1.10435 0
M  V30 17066 N 1627.39 -0.19675 -1.56367 0
M  V30 17067 C 1628.8 0.159068 -1.58805 0
M  V30 17068 C 1629 1.60902 -1.21297 0
M  V30 17069 O 1628.06 2.34491 -0.93649 0
M  V30 17070 C 1629.37 -0.144784 -3.00351 0
M  V30 17071 C 1630.92 -0.0850243 -3.12884 0
M  V30 17072 C 1631.4 -0.362209 -4.56565 0
M  V30 17073 N 1632.89 -0.310887 -4.62156 0
M  V30 17074 C 1633.62 -0.499187 -5.71223 0
M  V30 17075 N 1633.12 -0.747925 -6.88751 0
M  V30 17076 N 1634.91 -0.433329 -5.60427 0
M  V30 17077 H 1627.06 -1.1429 -1.79029 0
M  V30 17078 H 1629.33 -0.456298 -0.830961 0
M  V30 17079 H 1629.03 -1.15019 -3.3236 0
M  V30 17080 H 1628.91 0.551864 -3.73141 0
M  V30 17081 H 1631.29 0.910992 -2.80687 0
M  V30 17082 H 1631.37 -0.814774 -2.42477 0
M  V30 17083 H 1631.02 -1.35555 -4.89477 0
M  V30 17084 H 1630.95 0.388448 -5.25165 0
M  V30 17085 H 1633.44 -0.125318 -3.77692 0
M  V30 17086 H 1633.75 -0.880372 -7.67769 0
M  V30 17087 H 1632.1 -0.784838 -6.90554 0
M  V30 17088 H 1635.29 -0.239411 -4.67487 0
M  V30 17089 H 1635.46 -0.583495 -6.45368 0
M  V30 17090 N 1628.87 1.57413 0.0768405 0
M  V30 17091 C 1630.11 1.87279 0.778099 0
M  V30 17092 C 1630.45 0.788359 1.77478 0
M  V30 17093 O 1629.72 -0.201876 1.9345 0
M  V30 17094 C 1630 3.27801 1.49059 0
M  V30 17095 C 1629.86 4.46892 0.510661 0
M  V30 17096 C 1631.18 3.66485 2.43674 0
M  V30 17097 H 1628.29 0.681159 0.281409 0
M  V30 17098 H 1630.94 1.89955 0.0413711 0
M  V30 17099 H 1629.09 3.2565 2.11859 0
M  V30 17100 H 1630.76 4.61165 -0.111734 0
M  V30 17101 H 1629 4.33449 -0.174445 0
M  V30 17102 H 1629.67 5.41985 1.04671 0
M  V30 17103 H 1632.15 3.69696 1.90955 0
M  V30 17104 H 1631.02 4.65706 2.90533 0
M  V30 17105 H 1631.29 2.96145 3.28254 0
M  V30 17106 N 1630.34 -0.348112 1.53707 0
M  V30 17107 C 1631.27 -1.43296 1.8436 0
M  V30 17108 C 1632.26 -1.55102 0.698376 0
M  V30 17109 O 1633.44 -1.69385 0.949864 0
M  V30 17110 C 1630.57 -2.80407 2.04912 0
M  V30 17111 C 1629.52 -2.83412 3.20721 0
M  V30 17112 C 1628.85 -4.23365 3.26597 0
M  V30 17113 C 1630.15 -2.49358 4.58931 0
M  V30 17114 H 1631.84 -1.17892 2.75212 0
M  V30 17115 H 1629.39 -0.565692 1.32423 0
M  V30 17116 H 1631.34 -3.56343 2.24939 0
M  V30 17117 H 1630.07 -3.07236 1.10786 0
M  V30 17118 H 1628.73 -2.09929 3.00542 0
M  V30 17119 H 1628.37 -4.47297 2.30076 0
M  V30 17120 H 1628.07 -4.26287 4.04417 0
M  V30 17121 H 1629.6 -5.01149 3.4883 0
M  V30 17122 H 1631.01 -3.15006 4.79003 0
M  V30 17123 H 1629.41 -2.6357 5.3912 0
M  V30 17124 H 1630.48 -1.44557 4.62851 0
M  V30 17125 N 1631.82 -1.45363 -0.608876 0
M  V30 17126 C 1633.06 -1.50852 -1.37925 0
M  V30 17127 C 1633.43 -0.146034 -1.91444 0
M  V30 17128 O 1634.63 -0.0756115 -2.68694 0
M  V30 17129 C 1632.9 -2.55668 -2.49737 0
M  V30 17130 S 1634.46 -2.80371 -3.37546 0
M  V30 17131 H 1631.28 -0.533283 -0.470244 0
M  V30 17132 H 1633.88 -1.82435 -0.702697 0
M  V30 17133 H 1632.58 -3.53334 -2.08767 0
M  V30 17134 H 1632.11 -2.25731 -3.22194 0
M  V30 17135 H 1634.13 -2.13653 -4.47847 0
M  V30 17136 N 1633.3 0.851265 -1.32632 0
M  V30 17137 C 1634.23 1.97562 -1.24465 0
M  V30 17138 C 1635.21 1.69619 -0.127777 0
M  V30 17139 O 1636.4 1.9162 -0.315509 0
M  V30 17140 C 1633.53 3.33467 -0.970423 0
M  V30 17141 C 1632.48 3.75772 -2.0489 0
M  V30 17142 C 1631.81 5.09345 -1.62702 0
M  V30 17143 C 1633.11 3.90876 -3.4643 0
M  V30 17144 H 1634.8 2.04653 -2.18535 0
M  V30 17145 H 1632.35 0.983252 -1.05205 0
M  V30 17146 H 1634.3 4.11681 -0.899825 0
M  V30 17147 H 1633.02 3.26599 0.00591373 0
M  V30 17148 H 1631.68 2.99812 -2.1097 0
M  V30 17149 H 1631.33 4.98937 -0.638039 0
M  V30 17150 H 1631.03 5.38621 -2.34864 0
M  V30 17151 H 1632.55 5.90048 -1.57085 0
M  V30 17152 H 1633.97 4.59434 -3.42919 0
M  V30 17153 H 1632.37 4.31574 -4.1697 0
M  V30 17154 H 1633.44 2.93689 -3.85843 0
M  V30 17155 N 1634.78 1.15898 1.06796 0
M  V30 17156 C 1635.69 0.87507 2.17669 0
M  V30 17157 C 1636.7 -0.150763 1.73346 0
M  V30 17158 O 1637.88 0.0246621 2.01385 0
M  V30 17159 C 1634.95 0.374555 3.44671 0
M  V30 17160 C 1634.01 1.46498 4.0353 0
M  V30 17161 C 1633.24 0.988256 5.2447 0
M  V30 17162 O 1633.46 -0.163992 5.70164 0
M  V30 17163 O 1632.4 1.7744 5.75151 0
M  V30 17164 H 1636.22 1.80208 2.44456 0
M  V30 17165 H 1633.81 0.93854 1.1624 0
M  V30 17166 H 1635.69 0.102161 4.21276 0
M  V30 17167 H 1634.36 -0.524513 3.19422 0
M  V30 17168 H 1633.27 1.79105 3.28439 0
M  V30 17169 H 1634.6 2.33917 4.33063 0
M  V30 17170 N 1636.26 -1.25243 0.956659 0
M  V30 17171 C 1637.67 -1.4525 0.661409 0
M  V30 17172 C 1637.87 -1.85774 -0.780404 0
M  V30 17173 O 1636.93 -1.98899 -1.55549 0
M  V30 17174 C 1638.24 -2.52296 1.63607 0
M  V30 17175 C 1639.79 -2.66134 1.64748 0
M  V30 17176 C 1640.26 -3.76366 2.60983 0
M  V30 17177 N 1641.76 -3.8378 2.5936 0
M  V30 17178 C 1642.49 -4.68569 3.30501 0
M  V30 17179 N 1641.99 -5.5763 4.11122 0
M  V30 17180 N 1643.78 -4.62551 3.19378 0
M  V30 17181 H 1635.93 -0.972321 1.88838 0
M  V30 17182 H 1638.19 -0.488615 0.812379 0
M  V30 17183 H 1637.9 -2.29382 2.66603 0
M  V30 17184 H 1637.77 -3.5025 1.40017 0
M  V30 17185 H 1640.16 -2.88412 0.624692 0
M  V30 17186 H 1640.24 -1.68573 1.92397 0
M  V30 17187 H 1639.89 -3.54839 3.63389 0
M  V30 17188 H 1639.82 -4.73417 2.30617 0
M  V30 17189 H 1642.31 -3.20117 2.00832 0
M  V30 17190 H 1642.62 -6.19258 4.62319 0
M  V30 17191 H 1640.96 -5.57331 4.15219 0
M  V30 17192 H 1644.16 -3.91983 2.55865 0
M  V30 17193 H 1644.33 -5.28407 3.75086 0
M  V30 17194 N 1637.73 -0.725468 -1.3991 0
M  V30 17195 C 1638.98 -0.268719 -2.00306 0
M  V30 17196 C 1639.3 1.14511 -1.57836 0
M  V30 17197 O 1638.57 1.77808 -0.822263 0
M  V30 17198 H 1637.15 -0.0963614 -0.740759 0
M  V30 17199 H 1639.82 -0.933303 -1.71101 0
M  V30 17200 H 1638.91 -0.309587 -3.10561 0
M  V30 17201 N 1639.21 1.50354 -0.472382 0
M  V30 17202 C 1640.16 2.25454 0.339784 0
M  V30 17203 C 1641.15 1.29097 0.960352 0
M  V30 17204 O 1642.34 1.53991 0.872688 0
M  V30 17205 C 1639.47 3.12535 1.42045 0
M  V30 17206 C 1638.55 4.1634 0.807552 0
M  V30 17207 N 1638.94 5.05747 -0.0729066 0
M  V30 17208 C 1637.24 4.32941 1.07135 0
M  V30 17209 C 1637.94 5.80175 -0.420868 0
M  V30 17210 N 1636.92 5.43216 0.204266 0
M  V30 17211 H 1640.72 2.91945 -0.338451 0
M  V30 17212 H 1638.24 1.59851 -0.286612 0
M  V30 17213 H 1640.23 3.64944 2.01548 0
M  V30 17214 H 1638.89 2.47593 2.10067 0
M  V30 17215 H 1639.9 5.16012 -0.441825 0
M  V30 17216 H 1636.58 3.79217 1.74645 0
M  V30 17217 H 1637.97 6.62167 -1.13948 0
M  V30 17218 N 1640.69 0.205039 1.56261 0
M  V30 17219 C 1641.62 -0.751391 2.15475 0
M  V30 17220 C 1642.6 -1.20265 1.09431 0
M  V30 17221 O 1643.79 -1.28837 1.37598 0
M  V30 17222 C 1640.91 -2.01598 2.72169 0
M  V30 17223 C 1639.96 -1.70605 3.90892 0
M  V30 17224 S 1640.79 -0.845372 5.28785 0
M  V30 17225 C 1641.95 -2.11989 5.88907 0
M  V30 17226 H 1642.18 -0.248043 2.96263 0
M  V30 17227 H 1639.71 -0.0100808 1.54397 0
M  V30 17228 H 1641.67 -2.74217 3.05475 0
M  V30 17229 H 1640.33 -2.49045 1.91403 0
M  V30 17230 H 1639.53 -2.6452 4.29005 0
M  V30 17231 H 1639.13 -1.0606 3.58646 0
M  V30 17232 H 1641.42 -3.0715 6.03875 0
M  V30 17233 H 1642.36 -1.78292 6.85286 0
M  V30 17234 H 1642.77 -2.25289 5.17596 0
M  V30 17235 N 1642.17 -1.57451 -0.0684915 0
M  V30 17236 C 1643.42 -1.87411 -0.76702 0
M  V30 17237 C 1643.74 -0.797219 -1.77411 0
M  V30 17238 O 1643 0.206424 -1.94608 0
M  V30 17239 C 1643.3 -3.24044 -1.50765 0
M  V30 17240 C 1642.96 -4.46331 -0.640238 0
M  V30 17241 C 1641.63 -4.79525 -0.401205 0
M  V30 17242 C 1643.98 -5.21185 -0.0389475 0
M  V30 17243 C 1641.31 -5.84983 0.448547 0
M  V30 17244 C 1643.66 -6.27543 0.798278 0
M  V30 17245 C 1642.32 -6.59235 1.04715 0
M  V30 17246 H 1641.59 -0.685787 -0.280673 0
M  V30 17247 H 1644.24 -1.9148 -0.0277143 0
M  V30 17248 H 1642.54 -3.15782 -2.31925 0
M  V30 17249 H 1644.24 -3.44461 -2.05299 0
M  V30 17250 H 1640.83 -4.20354 -0.836675 0
M  V30 17251 H 1645.02 -4.95852 -0.210729 0
M  V30 17252 H 1640.27 -6.07934 0.650077 0
M  V30 17253 H 1644.45 -6.84705 1.27092 0
M  V30 17254 H 1642.07 -7.40779 1.70737 0
M  V30 17255 N 1643.65 0.339955 -1.5389 0
M  V30 17256 C 1644.89 1.08139 -1.71563 0
M  V30 17257 C 1645.23 1.88193 -0.479292 0
M  V30 17258 O 1644.5 1.87317 0.523702 0
M  V30 17259 C 1644.78 2.01963 -2.98132 0
M  V30 17260 C 1644.64 1.25349 -4.31981 0
M  V30 17261 C 1645.96 3.01729 -3.20387 0
M  V30 17262 H 1643.08 0.391744 -0.624264 0
M  V30 17263 H 1645.72 0.359609 -1.86566 0
M  V30 17264 H 1643.87 2.63511 -2.85472 0
M  V30 17265 H 1645.54 0.66388 -4.56498 0
M  V30 17266 H 1643.78 0.555541 -4.30228 0
M  V30 17267 H 1644.45 1.94154 -5.16728 0
M  V30 17268 H 1646.93 2.50297 -3.32401 0
M  V30 17269 H 1645.81 3.64577 -4.10335 0
M  V30 17270 H 1646.07 3.73303 -2.36849 0
M  V30 17271 N 1645.13 1.45684 0.601159 0
M  V30 17272 C 1646.37 1.51581 1.37123 0
M  V30 17273 C 1646.73 0.156185 1.91364 0
M  V30 17274 O 1647.93 0.0898599 2.6865 0
M  V30 17275 C 1646.2 2.56989 2.48378 0
M  V30 17276 S 1647.76 2.82158 3.36054 0
M  V30 17277 H 1644.58 0.53577 0.46741 0
M  V30 17278 H 1647.18 1.82805 0.693012 0
M  V30 17279 H 1645.88 3.54436 2.0689 0
M  V30 17280 H 1645.42 2.27437 3.20992 0
M  V30 17281 H 1647.43 2.16025 4.46708 0
M  V30 17282 N 1646.6 -0.84422 1.33082 0
M  V30 17283 C 1647.85 -1.59596 1.2399 0
M  V30 17284 C 1648.17 -1.94016 -0.19566 0
M  V30 17285 O 1647.44 -1.60512 -1.12306 0
M  V30 17286 H 1646.02 -0.591727 0.455926 0
M  V30 17287 H 1648.68 -1.00924 1.66735 0
M  V30 17288 H 1647.78 -2.52829 1.82986 0
M  V30 17289 N 1648.08 -1.16463 -1.0618 0
M  V30 17290 C 1649.36 -0.857038 -1.75824 0
M  V30 17291 C 1649.74 0.644886 -2.01009 0
M  V30 17292 O 1649.09 1.59305 -1.63812 0
M  V30 17293 C 1649.3 -1.681 -3.05849 0
M  V30 17294 C 1650.64 -1.8947 -3.79982 0
M  V30 17295 O 1651.67 -1.64975 -3.15692 0
M  V30 17296 O 1650.53 -2.30573 -4.95478 0
M  V30 17297 H 1647.62 -0.316364 -0.764096 0
M  V30 17298 H 1650.17 -1.27105 -1.12438 0
M  V30 17299 H 1648.94 -2.70014 -2.8321 0
M  V30 17300 H 1648.56 -1.2641 -3.7697 0
M  V30 17301 N 1649.56 1.24734 -0.963288 0
M  V30 17302 C 1650.81 1.92971 -0.623688 0
M  V30 17303 C 1651.14 1.7517 0.838393 0
M  V30 17304 O 1650.41 1.10208 1.60264 0
M  V30 17305 C 1650.7 3.46115 -0.99379 0
M  V30 17306 C 1650.55 3.73104 -2.51224 0
M  V30 17307 C 1651.87 4.36956 -0.525128 0
M  V30 17308 H 1648.99 0.700827 -0.228058 0
M  V30 17309 H 1651.63 1.47187 -1.2015 0
M  V30 17310 H 1649.78 3.85242 -0.502108 0
M  V30 17311 H 1651.45 3.43563 -3.07835 0
M  V30 17312 H 1649.69 3.18409 -2.94616 0
M  V30 17313 H 1650.37 4.80237 -2.7217 0
M  V30 17314 H 1652.84 4.0518 -0.947015 0
M  V30 17315 H 1651.72 5.4285 -0.812695 0
M  V30 17316 H 1651.98 4.38347 0.574843 0
M  V30 17317 N 1651.04 0.732878 1.39523 0
M  V30 17318 C 1652.27 0.29007 2.04857 0
M  V30 17319 C 1652.68 -1.07435 1.55252 0
M  V30 17320 O 1652.04 -1.67847 0.716497 0
M  V30 17321 C 1652.09 0.280464 3.6041 0
M  V30 17322 O 1651.81 1.59102 4.08189 0
M  V30 17323 C 1653.31 -0.178772 4.42939 0
M  V30 17324 H 1650.53 0.12716 0.658841 0
M  V30 17325 H 1653.07 0.995933 1.7861 0
M  V30 17326 H 1651.23 -0.376494 3.85566 0
M  V30 17327 H 1651.64 1.50314 5.025 0
M  V30 17328 H 1653.12 -0.134335 5.51837 0
M  V30 17329 H 1653.59 -1.22362 4.21811 0
M  V30 17330 H 1654.2 0.448543 4.22928 0
M  V30 17331 N 1652.52 -1.50101 0.480349 0
M  V30 17332 C 1653.45 -2.25419 -0.355186 0
M  V30 17333 C 1654.43 -1.2912 -0.988276 0
M  V30 17334 O 1655.61 -1.58364 -1.02241 0
M  V30 17335 C 1652.74 -3.03751 -1.49844 0
M  V30 17336 C 1651.78 -4.15046 -0.981799 0
M  V30 17337 S 1652.62 -5.35385 0.110936 0
M  V30 17338 C 1653.77 -6.17267 -1.03597 0
M  V30 17339 H 1654.01 -2.95939 0.284135 0
M  V30 17340 H 1651.54 -1.52103 0.265352 0
M  V30 17341 H 1653.5 -3.49471 -2.15361 0
M  V30 17342 H 1652.16 -2.32739 -2.1093 0
M  V30 17343 H 1651.35 -4.69292 -1.83795 0
M  V30 17344 H 1650.95 -3.7181 -0.404184 0
M  V30 17345 H 1653.24 -6.48961 -1.94565 0
M  V30 17346 H 1654.19 -7.06094 -0.532569 0
M  V30 17347 H 1654.6 -5.49469 -1.29398 0
M  V30 17348 N 1653.99 -0.213323 -1.5615 0
M  V30 17349 C 1654.96 0.686579 -2.18675 0
M  V30 17350 C 1655.96 1.1277 -1.14628 0
M  V30 17351 O 1657.15 1.03783 -1.39909 0
M  V30 17352 C 1654.28 1.93954 -2.80347 0
M  V30 17353 H 1655.47 0.141578 -2.99566 0
M  V30 17354 H 1653.02 0.0362987 -1.56258 0
M  V30 17355 H 1653.76 2.52661 -2.03304 0
M  V30 17356 H 1653.54 1.63179 -3.56532 0
M  V30 17357 H 1655.03 2.58087 -3.283 0
M  V30 17358 N 1655.47 1.57485 0.0601405 0
M  V30 17359 C 1656.7 1.92051 0.769681 0
M  V30 17360 C 1657.12 0.810364 1.70524 0
M  V30 17361 O 1656.47 -0.215527 1.81223 0
M  V30 17362 C 1656.52 3.26423 1.55339 0
M  V30 17363 O 1656.24 4.3317 0.655423 0
M  V30 17364 C 1657.75 3.75076 2.36289 0
M  V30 17365 H 1654.97 0.63454 0.218175 0
M  V30 17366 H 1657.51 2.04482 0.0269308 0
M  V30 17367 H 1655.66 3.15483 2.24831 0
M  V30 17368 H 1656.08 5.10548 1.20171 0
M  V30 17369 H 1657.55 4.71695 2.86719 0
M  V30 17370 H 1658.03 3.04677 3.16336 0
M  V30 17371 H 1658.64 3.88998 1.71932 0
M  V30 17372 N 1656.95 -0.331789 1.54068 0
M  V30 17373 C 1657.9 -1.42815 1.83593 0
M  V30 17374 C 1658.89 -1.53931 0.707231 0
M  V30 17375 O 1660.1 -1.56414 0.890763 0
M  V30 17376 H 1656.47 -0.476418 0.581833 0
M  V30 17377 H 1658.44 -1.15133 2.75294 0
M  V30 17378 C 1657.19 -2.79162 2.07277 0
M  V30 17379 H 1656.52 -2.7138 2.93586 0
M  V30 17380 H 1657.96 -3.54966 2.31895 0
M  V30 17381 C 1656.42 -3.25691 0.861816 0
M  V30 17382 O 1656.95 -4.01644 0.0670133 0
M  V30 17383 N 1655.15 -2.82634 0.675746 0
M  V30 17384 H 1654.7 -2.20988 1.32371 0
M  V30 17385 H 1654.66 -3.14119 -0.133004 0
M  V30 17386 N 1658.43 -1.46001 -0.593424 0
M  V30 17387 C 1659.67 -1.50978 -1.35401 0
M  V30 17388 C 1660.01 -0.156626 -1.93567 0
M  V30 17389 O 1659.28 0.83067 -1.7587 0
M  V30 17390 C 1659.57 -2.60005 -2.49137 0
M  V30 17391 C 1659.42 -4.04814 -1.96075 0
M  V30 17392 C 1660.74 -2.65199 -3.51223 0
M  V30 17393 H 1657.86 -0.549657 -0.490965 0
M  V30 17394 H 1660.5 -1.77883 -0.667644 0
M  V30 17395 H 1658.65 -2.37194 -3.07687 0
M  V30 17396 H 1660.32 -4.38879 -1.42066 0
M  V30 17397 H 1658.56 -4.148 -1.26976 0
M  V30 17398 H 1659.23 -4.76811 -2.78128 0
M  V30 17399 H 1661.71 -2.85675 -3.02537 0
M  V30 17400 H 1660.59 -3.43323 -4.28276 0
M  V30 17401 H 1660.85 -1.70833 -4.0776 0
M  V30 17402 N 1659.91 0.83715 -1.33527 0
M  V30 17403 C 1660.84 1.96231 -1.26553 0
M  V30 17404 C 1661.82 1.69474 -0.14576 0
M  V30 17405 O 1663 1.91274 -0.335815 0
M  V30 17406 C 1660.13 3.32419 -1.00574 0
M  V30 17407 C 1659.09 3.73577 -2.08864 0
M  V30 17408 C 1658.41 5.07591 -1.68095 0
M  V30 17409 C 1659.71 3.87179 -3.50556 0
M  V30 17410 H 1661.41 2.02324 -2.20693 0
M  V30 17411 H 1658.95 0.972038 -1.06242 0
M  V30 17412 H 1660.91 4.10703 -0.943439 0
M  V30 17413 H 1659.63 3.26587 -0.0287268 0
M  V30 17414 H 1658.29 2.97557 -2.14139 0
M  V30 17415 H 1657.94 4.98232 -0.690922 0
M  V30 17416 H 1657.64 5.361 -2.40563 0
M  V30 17417 H 1659.16 5.88349 -1.63334 0
M  V30 17418 H 1660.57 4.55771 -3.47772 0
M  V30 17419 H 1658.97 4.27127 -4.21524 0
M  V30 17420 H 1660.04 2.8958 -3.88936 0
M  V30 17421 N 1661.38 1.17024 1.05561 0
M  V30 17422 C 1662.32 0.841314 2.13201 0
M  V30 17423 C 1663.33 -0.154667 1.62064 0
M  V30 17424 O 1664.52 0.0711173 1.78358 0
M  V30 17425 C 1661.62 0.233156 3.38097 0
M  V30 17426 C 1660.79 1.27108 4.18524 0
M  V30 17427 C 1659.85 0.681364 5.2177 0
M  V30 17428 O 1658.88 1.35219 5.52906 0
M  V30 17429 N 1660.08 -0.528381 5.7809 0
M  V30 17430 H 1662.84 1.76773 2.42015 0
M  V30 17431 H 1660.4 1.06858 1.21626 0
M  V30 17432 H 1662.4 -0.174565 4.04323 0
M  V30 17433 H 1660.97 -0.596965 3.06847 0
M  V30 17434 H 1660.19 1.85469 3.47843 0
M  V30 17435 H 1661.47 1.97129 4.6906 0
M  V30 17436 H 1660.87 -1.09141 5.55072 0
M  V30 17437 H 1659.43 -0.878214 6.45857 0
M  V30 17438 N 1662.86 -1.24221 0.969889 0
M  V30 17439 C 1664.09 -1.96403 0.650658 0
M  V30 17440 C 1664.51 -1.71919 -0.780339 0
M  V30 17441 O 1663.86 -1.00427 -1.52383 0
M  V30 17442 C 1663.91 -3.49636 0.918542 0
M  V30 17443 O 1663.63 -3.73283 2.29328 0
M  V30 17444 C 1665.14 -4.3903 0.613803 0
M  V30 17445 H 1662.36 -0.625614 0.242587 0
M  V30 17446 H 1664.9 -1.57992 1.29842 0
M  V30 17447 H 1663.05 -3.86101 0.316959 0
M  V30 17448 H 1663.47 -4.67649 2.37496 0
M  V30 17449 H 1664.94 -5.4539 0.851679 0
M  V30 17450 H 1665.42 -4.36868 -0.451976 0
M  V30 17451 H 1666.03 -4.08155 1.19539 0
M  V30 17452 N 1664.34 -0.740267 -1.39132 0
M  V30 17453 C 1665.59 -0.290953 -2.00702 0
M  V30 17454 C 1665.92 1.12051 -1.58613 0
M  V30 17455 O 1665.19 1.76488 -0.817457 0
M  V30 17456 C 1665.48 -0.398765 -3.57885 0
M  V30 17457 C 1665.33 -1.85038 -4.09977 0
M  V30 17458 C 1666.65 0.215717 -4.39571 0
M  V30 17459 H 1663.77 -0.107194 -0.729163 0
M  V30 17460 H 1666.41 -0.937411 -1.65265 0
M  V30 17461 H 1664.56 0.151613 -3.88204 0
M  V30 17462 H 1666.23 -2.45804 -3.90357 0
M  V30 17463 H 1664.48 -2.36994 -3.63341 0
M  V30 17464 H 1665.15 -1.87705 -5.19106 0
M  V30 17465 H 1667.62 -0.253518 -4.15327 0
M  V30 17466 H 1666.5 0.109966 -5.4879 0
M  V30 17467 H 1666.76 1.30242 -4.2248 0
M  V30 17468 N 1665.82 1.49844 -0.488302 0
M  V30 17469 C 1666.75 2.26762 0.333396 0
M  V30 17470 C 1667.76 1.32785 0.941918 0
M  V30 17471 O 1668.95 1.58165 0.827407 0
M  V30 17472 C 1666.05 3.04721 1.48318 0
M  V30 17473 C 1665.23 4.26181 0.984303 0
M  V30 17474 C 1664.28 4.8629 2.01018 0
M  V30 17475 O 1663.31 5.4672 1.58384 0
M  V30 17476 N 1664.51 4.74813 3.33965 0
M  V30 17477 H 1667.28 2.97921 -0.32609 0
M  V30 17478 H 1664.84 1.58704 -0.320092 0
M  V30 17479 H 1666.83 3.4181 2.16676 0
M  V30 17480 H 1665.4 2.36251 2.04705 0
M  V30 17481 H 1664.62 3.93998 0.126039 0
M  V30 17482 H 1665.91 5.04895 0.62919 0
M  V30 17483 H 1665.31 4.26793 3.71301 0
M  V30 17484 H 1663.86 5.16122 3.98072 0
M  V30 17485 N 1667.3 0.221601 1.56034 0
M  V30 17486 C 1668.71 -0.133783 1.59038 0
M  V30 17487 C 1668.91 -1.58952 1.23841 0
M  V30 17488 O 1667.97 -2.32972 0.973677 0
M  V30 17489 C 1669.28 0.192549 3.00083 0
M  V30 17490 C 1670.83 0.134791 3.1271 0
M  V30 17491 C 1671.3 0.434799 4.55931 0
M  V30 17492 N 1672.8 0.384372 4.61602 0
M  V30 17493 C 1673.53 0.59 5.70357 0
M  V30 17494 N 1673.03 0.857405 6.87474 0
M  V30 17495 N 1674.82 0.522433 5.59667 0
M  V30 17496 H 1666.97 1.17124 1.77189 0
M  V30 17497 H 1669.23 0.46946 0.823597 0
M  V30 17498 H 1668.94 1.20292 3.30488 0
M  V30 17499 H 1668.81 -0.49243 3.73972 0
M  V30 17500 H 1671.2 -0.866221 2.821 0
M  V30 17501 H 1671.28 0.853247 2.4115 0
M  V30 17502 H 1670.93 1.43325 4.87258 0
M  V30 17503 H 1670.86 -0.304849 5.25717 0
M  V30 17504 H 1673.35 0.185389 3.77445 0
M  V30 17505 H 1673.66 1.00241 7.66271 0
M  V30 17506 H 1672 0.894599 6.89218 0
M  V30 17507 H 1675.2 0.313754 4.67047 0
M  V30 17508 H 1675.37 0.686094 6.44358 0
M  V30 17509 N 1668.77 -1.57515 -0.0517878 0
M  V30 17510 C 1670.02 -1.87396 -0.746022 0
M  V30 17511 C 1670.34 -0.817053 -1.77718 0
M  V30 17512 O 1671.54 -1.00435 -2.5224 0
M  V30 17513 C 1670 -3.32481 -1.37783 0
M  V30 17514 C 1669.61 -4.46349 -0.384208 0
M  V30 17515 C 1671.35 -3.71539 -2.05327 0
M  V30 17516 C 1669.26 -5.82484 -1.02307 0
M  V30 17517 H 1668.19 -0.699127 -0.282379 0
M  V30 17518 H 1670.84 -1.835 0.000245524 0
M  V30 17519 H 1669.22 -3.31051 -2.17304 0
M  V30 17520 H 1670.39 -4.59209 0.382639 0
M  V30 17521 H 1668.71 -4.15976 0.187873 0
M  V30 17522 H 1671.31 -4.70553 -2.53936 0
M  V30 17523 H 1671.65 -3.02361 -2.86153 0
M  V30 17524 H 1672.18 -3.75046 -1.32611 0
M  V30 17525 H 1668.92 -6.55005 -0.254704 0
M  V30 17526 H 1668.44 -5.73388 -1.7603 0
M  V30 17527 H 1670.12 -6.28476 -1.5371 0
M  V30 17528 N 1670.25 0.323614 -1.54242 0
M  V30 17529 C 1671.18 1.40344 -1.86616 0
M  V30 17530 C 1672.16 1.53972 -0.722963 0
M  V30 17531 O 1673.35 1.67852 -0.976692 0
M  V30 17532 C 1670.48 2.77112 -2.09347 0
M  V30 17533 C 1669.43 2.78273 -3.25189 0
M  V30 17534 C 1668.76 4.18116 -3.33291 0
M  V30 17535 C 1670.06 2.42025 -4.6284 0
M  V30 17536 H 1671.75 1.13499 -2.77053 0
M  V30 17537 H 1669.3 0.544553 -1.33306 0
M  V30 17538 H 1671.25 3.52719 -2.3058 0
M  V30 17539 H 1669.98 3.05435 -1.1566 0
M  V30 17540 H 1668.64 2.05121 -3.03844 0
M  V30 17541 H 1668.28 4.4358 -2.37163 0
M  V30 17542 H 1667.98 4.19799 -4.11147 0
M  V30 17543 H 1669.51 4.95536 -3.56758 0
M  V30 17544 H 1670.92 3.07346 -4.83954 0
M  V30 17545 H 1669.32 2.5496 -5.43245 0
M  V30 17546 H 1670.39 1.37175 -4.65092 0
M  V30 17547 N 1671.73 1.46313 0.585673 0
M  V30 17548 C 1672.69 1.56239 1.67696 0
M  V30 17549 C 1673.69 0.439808 1.54668 0
M  V30 17550 O 1674.88 0.704019 1.5934 0
M  V30 17551 C 1672.02 1.47986 3.07104 0
M  V30 17552 H 1673.21 2.53492 1.60255 0
M  V30 17553 H 1670.76 1.3408 0.803264 0
M  V30 17554 H 1671.5 0.520007 3.20104 0
M  V30 17555 H 1671.28 2.2943 3.17969 0
M  V30 17556 H 1672.77 1.5801 3.86552 0
M  V30 17557 N 1673.21 -0.830057 1.33969 0
M  V30 17558 C 1674.44 -1.61774 1.28984 0
M  V30 17559 C 1674.85 -1.88299 -0.137515 0
M  V30 17560 O 1674.21 -1.46936 -1.0824 0
M  V30 17561 C 1674.26 -2.96282 2.07121 0
M  V30 17562 O 1673.98 -2.70918 3.44289 0
M  V30 17563 C 1675.48 -3.90699 2.09449 0
M  V30 17564 H 1672.7 -0.503088 0.444008 0
M  V30 17565 H 1675.25 -1.03328 1.76475 0
M  V30 17566 H 1673.4 -3.51305 1.63289 0
M  V30 17567 H 1673.82 -3.56635 3.84593 0
M  V30 17568 H 1675.29 -4.82266 2.68558 0
M  V30 17569 H 1675.77 -4.25536 1.08702 0
M  V30 17570 H 1676.37 -3.41614 2.53338 0
M  V30 17571 N 1674.69 -1.17582 -1.04939 0
M  V30 17572 C 1675.6 -0.909588 -2.16249 0
M  V30 17573 C 1676.61 0.123166 -1.73564 0
M  V30 17574 O 1677.79 -0.0566976 -2.0132 0
M  V30 17575 C 1674.85 -0.429342 -3.44031 0
M  V30 17576 C 1673.92 -1.529 -4.01149 0
M  V30 17577 C 1673.15 -1.07157 -5.22832 0
M  V30 17578 O 1673.37 0.0732634 -5.70353 0
M  V30 17579 O 1672.31 -1.86567 -5.72255 0
M  V30 17580 H 1676.13 -1.84074 -2.41558 0
M  V30 17581 H 1673.72 -0.956914 -1.14732 0
M  V30 17582 H 1675.6 -0.16917 -4.2106 0
M  V30 17583 H 1674.27 0.473629 -3.20216 0
M  V30 17584 H 1673.18 -1.84308 -3.25548 0
M  V30 17585 H 1674.51 -2.40777 -4.29287 0
M  V30 17586 N 1676.17 1.23705 -0.976463 0
M  V30 17587 C 1677.41 1.91635 -0.641897 0
M  V30 17588 C 1677.73 1.7661 0.826678 0
M  V30 17589 O 1677 1.14304 1.59096 0
M  V30 17590 H 1675.58 0.709264 -0.234422 0
M  V30 17591 H 1678.25 1.50414 -1.23943 0
M  V30 17592 H 1677.34 2.99138 -0.890099 0
M  V30 17593 N 1677.64 0.747635 1.38738 0
M  V30 17594 C 1678.92 0.226908 1.94279 0
M  V30 17595 C 1679.3 -1.27373 1.68343 0
M  V30 17596 O 1678.65 -2.04538 1.01865 0
M  V30 17597 C 1678.86 0.574164 3.44245 0
M  V30 17598 C 1680.21 0.530498 4.21273 0
M  V30 17599 O 1681.23 0.512102 3.525 0
M  V30 17600 O 1680.09 0.536171 5.43863 0
M  V30 17601 H 1677.18 0.0456834 0.825737 0
M  V30 17602 H 1679.73 0.827353 1.48165 0
M  V30 17603 H 1678.5 1.6108 3.56607 0
M  V30 17604 H 1678.12 -0.0545964 3.97563 0
M  V30 17605 N 1679.12 -1.49583 0.496242 0
M  V30 17606 C 1680.05 -2.25783 -0.331257 0
M  V30 17607 C 1681.03 -1.3016 -0.974526 0
M  V30 17608 O 1682.22 -1.59439 -1.00556 0
M  V30 17609 C 1679.34 -3.05323 -1.46614 0
M  V30 17610 C 1678.39 -4.16064 -0.937722 0
M  V30 17611 S 1679.22 -5.35237 0.167715 0
M  V30 17612 C 1680.38 -6.18331 -0.970443 0
M  V30 17613 H 1680.61 -2.95621 0.315507 0
M  V30 17614 H 1678.14 -1.51813 0.28147 0
M  V30 17615 H 1680.1 -3.51735 -2.11642 0
M  V30 17616 H 1678.76 -2.34963 -2.0845 0
M  V30 17617 H 1677.96 -4.71215 -1.78808 0
M  V30 17618 H 1677.56 -3.72217 -0.364726 0
M  V30 17619 H 1679.85 -6.50988 -1.87671 0
M  V30 17620 H 1680.79 -7.0662 -0.457649 0
M  V30 17621 H 1681.2 -5.50811 -1.23563 0
M  V30 17622 N 1680.6 -0.229873 -1.55915 0
M  V30 17623 C 1681.51 0.687953 -2.24286 0
M  V30 17624 C 1682.53 1.20705 -1.25325 0
M  V30 17625 O 1683.7 1.2469 -1.58159 0
M  V30 17626 C 1680.77 1.87563 -2.91584 0
M  V30 17627 C 1679.83 1.39769 -4.0591 0
M  V30 17628 C 1679.06 2.52876 -4.69989 0
M  V30 17629 O 1679.28 3.71208 -4.33083 0
M  V30 17630 O 1678.22 2.23603 -5.58825 0
M  V30 17631 H 1682.04 0.135464 -3.03398 0
M  V30 17632 H 1679.63 0.000925172 -1.494 0
M  V30 17633 H 1681.51 2.56907 -3.34031 0
M  V30 17634 H 1680.19 2.41606 -2.15426 0
M  V30 17635 H 1679.09 0.672029 -3.68014 0
M  V30 17636 H 1680.43 0.903543 -4.83836 0
M  V30 17637 N 1682.08 1.5754 0.0434337 0
M  V30 17638 C 1683.01 2.08648 1.04824 0
M  V30 17639 C 1683.99 0.985894 1.38615 0
M  V30 17640 O 1685.17 1.2603 1.4775 0
M  V30 17641 C 1682.3 2.55399 2.35348 0
M  V30 17642 C 1681.26 3.69592 2.15837 0
M  V30 17643 C 1680.58 4.02497 3.51995 0
M  V30 17644 C 1681.88 4.98575 1.55629 0
M  V30 17645 H 1683.58 2.9285 0.622849 0
M  V30 17646 H 1681.12 1.40879 0.298158 0
M  V30 17647 H 1683.08 2.89771 3.05958 0
M  V30 17648 H 1681.8 1.68262 2.7992 0
M  V30 17649 H 1680.46 3.35546 1.47663 0
M  V30 17650 H 1680.11 3.12448 3.94189 0
M  V30 17651 H 1679.81 4.79406 3.39771 0
M  V30 17652 H 1681.33 4.39391 4.23991 0
M  V30 17653 H 1682.75 5.30996 2.16138 0
M  V30 17654 H 1681.14 5.79998 1.54021 0
M  V30 17655 H 1682.21 4.82098 0.520567 0
M  V30 17656 N 1683.56 -0.31543 1.54411 0
M  V30 17657 C 1684.83 -1.07113 1.63665 0
M  V30 17658 C 1685.21 -2.05671 0.475688 0
M  V30 17659 O 1684.56 -2.22288 -0.52918 0
M  V30 17660 C 1684.77 -1.76584 3.0103 0
M  V30 17661 C 1686.12 -2.29309 3.57355 0
M  V30 17662 O 1687.14 -1.86638 3.03388 0
M  V30 17663 O 1686 -3.07452 4.51814 0
M  V30 17664 H 1683.1 -0.494217 0.663083 0
M  V30 17665 H 1685.64 -0.31467 1.66757 0
M  V30 17666 H 1684.41 -1.0494 3.76966 0
M  V30 17667 H 1684.04 -2.5902 3.01653 0
M  V30 17668 N 1685.03 -1.46622 -0.577906 0
M  V30 17669 C 1685.94 -1.60143 -1.71439 0
M  V30 17670 C 1686.96 -0.484781 -1.6711 0
M  V30 17671 O 1688.14 -0.749551 -1.86932 0
M  V30 17672 C 1685.2 -1.59282 -3.07945 0
M  V30 17673 C 1684.26 -2.82216 -3.235 0
M  V30 17674 C 1683.5 -2.81387 -4.53495 0
M  V30 17675 O 1683.72 -1.90407 -5.37681 0
M  V30 17676 O 1682.65 -3.72991 -4.724 0
M  V30 17677 H 1686.48 -2.56265 -1.62978 0
M  V30 17678 H 1684.06 -1.2947 -0.745514 0
M  V30 17679 H 1685.95 -1.61515 -3.89218 0
M  V30 17680 H 1684.62 -0.663212 -3.16833 0
M  V30 17681 H 1683.53 -2.85536 -2.41702 0
M  V30 17682 H 1684.86 -3.74402 -3.19506 0
M  V30 17683 N 1686.51 0.822941 -1.34408 0
M  V30 17684 C 1687.48 1.91541 -1.25876 0
M  V30 17685 C 1688.48 1.59856 -0.17397 0
M  V30 17686 O 1689.67 1.68896 -0.426592 0
M  V30 17687 C 1686.8 3.27586 -0.943415 0
M  V30 17688 H 1687.99 2.00529 -2.22998 0
M  V30 17689 H 1685.54 1.01691 -1.18695 0
M  V30 17690 H 1686.28 3.24291 0.0246389 0
M  V30 17691 H 1686.06 3.51966 -1.72807 0
M  V30 17692 H 1687.55 4.07589 -0.908891 0
M  V30 17693 N 1687.99 1.18137 1.04314 0
M  V30 17694 C 1689.24 0.973277 1.77121 0
M  V30 17695 C 1689.56 -0.498558 1.88519 0
M  V30 17696 O 1688.83 -1.36168 1.40837 0
M  V30 17697 H 1687.41 0.35712 0.656105 0
M  V30 17698 H 1690.07 1.48774 1.25906 0
M  V30 17699 H 1689.17 1.40917 2.78476 0
M  V30 17700 N 1689.47 -1.23186 0.98301 0
M  V30 17701 C 1690.75 -1.87121 0.569651 0
M  V30 17702 C 1691.13 -1.88355 -0.95319 0
M  V30 17703 O 1690.47 -1.36699 -1.831 0
M  V30 17704 C 1690.68 -3.28493 1.17871 0
M  V30 17705 C 1692.03 -4.05065 1.27308 0
M  V30 17706 O 1693.06 -3.37722 1.13236 0
M  V30 17707 O 1691.91 -5.2559 1.49723 0
M  V30 17708 H 1689.01 -0.804363 0.192171 0
M  V30 17709 H 1691.55 -1.31041 1.07826 0
M  V30 17710 H 1690.33 -3.22175 2.22078 0
M  V30 17711 H 1689.95 -3.92166 0.655087 0
M  V30 17712 N 1690.95 -0.754982 -1.38339 0
M  V30 17713 C 1692.19 -0.312224 -2.00382 0
M  V30 17714 C 1692.53 1.10362 -1.59793 0
M  V30 17715 O 1691.8 1.75611 -0.83613 0
M  V30 17716 C 1692.08 -0.436701 -3.57442 0
M  V30 17717 C 1691.94 -1.89376 -4.07991 0
M  V30 17718 C 1693.26 0.169083 -4.39775 0
M  V30 17719 H 1690.37 -0.114922 -0.727985 0
M  V30 17720 H 1693.02 -0.954887 -1.64262 0
M  V30 17721 H 1691.17 0.11043 -3.88343 0
M  V30 17722 H 1692.84 -2.4993 -3.87728 0
M  V30 17723 H 1691.08 -2.40834 -3.60807 0
M  V30 17724 H 1691.75 -1.932 -5.17086 0
M  V30 17725 H 1694.23 -0.297554 -4.15035 0
M  V30 17726 H 1693.1 0.0517531 -5.48876 0
M  V30 17727 H 1693.37 1.25754 -4.23838 0
M  V30 17728 N 1692.42 1.49318 -0.504168 0
M  V30 17729 C 1693.67 2.01658 0.0410881 0
M  V30 17730 C 1693.99 1.38866 1.37752 0
M  V30 17731 O 1695.19 1.82552 2.00965 0
M  V30 17732 C 1693.65 3.59687 0.123682 0
M  V30 17733 C 1693.26 4.31454 -1.2063 0
M  V30 17734 C 1695 4.19961 0.619134 0
M  V30 17735 C 1692.91 5.81349 -1.0857 0
M  V30 17736 H 1691.84 0.753757 0.0191287 0
M  V30 17737 H 1694.49 1.71826 -0.644066 0
M  V30 17738 H 1692.87 3.86249 0.873355 0
M  V30 17739 H 1694.04 4.1659 -1.96951 0
M  V30 17740 H 1692.36 3.82939 -1.63544 0
M  V30 17741 H 1694.96 5.29736 0.726925 0
M  V30 17742 H 1695.3 3.83539 1.61874 0
M  V30 17743 H 1695.83 3.97731 -0.0740966 0
M  V30 17744 H 1692.57 6.22301 -2.05967 0
M  V30 17745 H 1692.09 5.98698 -0.363422 0
M  V30 17746 H 1693.77 6.42453 -0.765722 0
M  V30 17747 N 1693.9 0.238138 1.5579 0
M  V30 17748 C 1695.15 -0.388263 1.98335 0
M  V30 17749 C 1695.47 -1.59104 1.12743 0
M  V30 17750 O 1694.74 -1.9479 0.208201 0
M  V30 17751 H 1693.32 -0.14644 0.732505 0
M  V30 17752 H 1695.98 0.334891 1.92001 0
M  V30 17753 H 1695.08 -0.703359 3.04071 0
M  V30 17754 N 1695.38 -1.57561 -0.0350783 0
M  V30 17755 C 1696.63 -1.89276 -0.728172 0
M  V30 17756 C 1696.96 -0.835137 -1.75326 0
M  V30 17757 O 1696.23 0.150516 -1.93917 0
M  V30 17758 C 1696.52 -3.31638 -1.40316 0
M  V30 17759 C 1696.37 -4.48089 -0.391996 0
M  V30 17760 C 1697.69 -3.72816 -2.33872 0
M  V30 17761 H 1694.81 -0.688381 -0.26325 0
M  V30 17762 H 1697.45 -1.89998 0.00900661 0
M  V30 17763 H 1695.6 -3.31153 -2.0315 0
M  V30 17764 H 1697.27 -4.60706 0.233965 0
M  V30 17765 H 1695.52 -4.32834 0.289305 0
M  V30 17766 H 1696.19 -5.4457 -0.902641 0
M  V30 17767 H 1698.66 -3.74629 -1.81086 0
M  V30 17768 H 1697.54 -4.73245 -2.78084 0
M  V30 17769 H 1697.8 -3.04744 -3.20287 0
M  V30 17770 N 1696.86 0.307236 -1.54576 0
M  V30 17771 C 1697.79 1.38357 -1.88095 0
M  V30 17772 C 1698.77 1.53196 -0.739253 0
M  V30 17773 O 1699.95 1.66807 -0.99444 0
M  V30 17774 C 1697.08 2.74876 -2.12274 0
M  V30 17775 C 1696.04 2.74809 -3.28122 0
M  V30 17776 C 1695.36 4.14557 -3.37707 0
M  V30 17777 C 1696.66 2.37103 -4.65381 0
M  V30 17778 H 1698.36 1.10554 -2.78241 0
M  V30 17779 H 1695.9 0.530383 -1.33877 0
M  V30 17780 H 1697.86 3.50254 -2.34308 0
M  V30 17781 H 1696.58 3.04191 -1.18893 0
M  V30 17782 H 1695.24 2.01887 -3.06002 0
M  V30 17783 H 1694.89 4.41039 -2.41854 0
M  V30 17784 H 1694.59 4.15415 -4.15577 0
M  V30 17785 H 1696.11 4.91724 -3.61994 0
M  V30 17786 H 1697.53 3.02196 -4.87186 0
M  V30 17787 H 1695.92 2.49184 -5.45919 0
M  V30 17788 H 1696.99 1.32235 -4.66521 0
M  V30 17789 N 1698.34 1.46926 0.570122 0
M  V30 17790 C 1699.75 1.32159 0.894766 0
M  V30 17791 C 1699.95 0.302411 1.99218 0
M  V30 17792 O 1699.01 -0.290615 2.50822 0
M  V30 17793 C 1700.32 2.71136 1.30021 0
M  V30 17794 C 1701.87 2.79323 1.41236 0
M  V30 17795 C 1702.34 4.18911 1.85142 0
M  V30 17796 N 1703.84 4.2139 1.92314 0
M  V30 17797 C 1704.57 5.263 2.27588 0
M  V30 17798 N 1704.07 6.41526 2.61565 0
M  V30 17799 N 1705.86 5.13671 2.28251 0
M  V30 17800 H 1698.01 2.11837 -0.154603 0
M  V30 17801 H 1700.27 0.947978 -0.00649658 0
M  V30 17802 H 1699.98 3.47087 0.567775 0
M  V30 17803 H 1699.85 3.02066 2.25911 0
M  V30 17804 H 1702.24 2.03653 2.13564 0
M  V30 17805 H 1702.32 2.52063 0.43566 0
M  V30 17806 H 1701.97 4.95081 1.13389 0
M  V30 17807 H 1701.9 4.43587 2.83792 0
M  V30 17808 H 1704.39 3.38257 1.68495 0
M  V30 17809 H 1704.7 7.17343 2.8747 0
M  V30 17810 H 1703.04 6.44867 2.59175 0
M  V30 17811 H 1706.24 4.22684 2.01137 0
M  V30 17812 H 1706.41 5.95541 2.55412 0
M  V30 17813 N 1699.82 -0.815801 1.34842 0
M  V30 17814 C 1701.09 -1.55867 1.18173 0
M  V30 17815 C 1701.47 -2.09698 -0.242848 0
M  V30 17816 O 1700.82 -1.91594 -1.24514 0
M  V30 17817 C 1701.03 -2.67445 2.24219 0
M  V30 17818 C 1702.38 -3.36027 2.59559 0
M  V30 17819 O 1703.4 -2.77708 2.23062 0
M  V30 17820 O 1702.26 -4.4136 3.22279 0
M  V30 17821 H 1699.36 -0.688242 0.458533 0
M  V30 17822 H 1701.9 -0.856558 1.46496 0
M  V30 17823 H 1700.67 -2.25473 3.19809 0
M  V30 17824 H 1700.3 -3.453 1.97113 0
M  V30 17825 N 1701.29 -1.18689 -1.03686 0
M  V30 17826 C 1702.23 -0.875126 -2.11835 0
M  V30 17827 C 1703.24 0.128865 -1.62289 0
M  V30 17828 O 1704.43 -0.0994835 -1.78223 0
M  V30 17829 C 1701.53 -0.286914 -3.37683 0
M  V30 17830 C 1700.7 -1.3375 -4.16449 0
M  V30 17831 C 1699.76 -0.764286 -5.2062 0
M  V30 17832 O 1698.79 -1.43998 -5.50684 0
M  V30 17833 N 1699.99 0.436345 -5.78858 0
M  V30 17834 H 1702.75 -1.80601 -2.39172 0
M  V30 17835 H 1700.31 -1.0878 -1.19911 0
M  V30 17836 H 1702.31 0.110219 -4.0455 0
M  V30 17837 H 1700.88 0.548073 -3.07758 0
M  V30 17838 H 1700.1 -1.9098 -3.44848 0
M  V30 17839 H 1701.38 -2.04566 -4.65865 0
M  V30 17840 H 1700.78 1.00296 -5.56738 0
M  V30 17841 H 1699.34 0.775353 -6.47172 0
M  V30 17842 N 1702.77 1.22662 -0.989529 0
M  V30 17843 C 1703.7 2.23784 -0.495301 0
M  V30 17844 C 1704.72 1.5761 0.40779 0
M  V30 17845 O 1705.91 1.77255 0.210464 0
M  V30 17846 C 1703.01 3.37553 0.301836 0
M  V30 17847 C 1702.18 4.33312 -0.596578 0
M  V30 17848 C 1701.24 5.25991 0.148272 0
M  V30 17849 O 1700.26 5.67296 -0.46519 0
M  V30 17850 N 1701.47 5.62571 1.43158 0
M  V30 17851 H 1704.23 2.66819 -1.36483 0
M  V30 17852 H 1701.79 1.36928 -0.863853 0
M  V30 17853 H 1703.78 3.96538 0.808701 0
M  V30 17854 H 1702.35 2.93628 1.07243 0
M  V30 17855 H 1701.57 3.72697 -1.28416 0
M  V30 17856 H 1702.86 4.94239 -1.20853 0
M  V30 17857 H 1702.26 5.30979 1.95136 0
M  V30 17858 H 1700.82 6.23987 1.8837 0
M  V30 17859 N 1704.25 0.762308 1.37937 0
M  V30 17860 C 1705.67 0.440871 1.5339 0
M  V30 17861 C 1705.87 -1.04483 1.72295 0
M  V30 17862 O 1704.92 -1.83078 1.73892 0
M  V30 17863 C 1706.23 1.24772 2.73592 0
M  V30 17864 C 1707.78 1.23867 2.87447 0
M  V30 17865 C 1708.26 2.02866 4.10621 0
M  V30 17866 N 1709.75 2.00171 4.17715 0
M  V30 17867 C 1710.48 2.58086 5.12034 0
M  V30 17868 N 1709.98 3.2475 6.11972 0
M  V30 17869 N 1711.77 2.47968 5.04449 0
M  V30 17870 H 1703.92 1.72506 1.23916 0
M  V30 17871 H 1706.19 0.731791 0.602649 0
M  V30 17872 H 1705.89 2.30016 2.66056 0
M  V30 17873 H 1705.77 0.870485 3.67018 0
M  V30 17874 H 1708.15 0.194255 2.9446 0
M  V30 17875 H 1708.23 1.65548 1.95007 0
M  V30 17876 H 1707.88 3.07323 4.04369 0
M  V30 17877 H 1707.81 1.58574 5.02157 0
M  V30 17878 H 1710.3 1.5163 3.46146 0
M  V30 17879 H 1710.61 3.66339 6.80453 0
M  V30 17880 H 1708.96 3.28846 6.12279 0
M  V30 17881 H 1712.15 1.95509 4.25316 0
M  V30 17882 H 1712.32 2.93398 5.77773 0
M  V30 17883 N 1705.73 -1.49049 0.51208 0
M  V30 17884 C 1706.96 -2.06585 -0.024934 0
M  V30 17885 C 1707.37 -1.3713 -1.30353 0
M  V30 17886 O 1706.71 -0.446872 -1.78182 0
M  V30 17887 C 1706.77 -3.57911 -0.33768 0
M  V30 17888 C 1706.43 -4.49123 0.844817 0
M  V30 17889 C 1707.43 -4.89977 1.73836 0
M  V30 17890 C 1705.12 -4.91272 1.04675 0
M  V30 17891 C 1707.11 -5.71728 2.8179 0
M  V30 17892 C 1704.8 -5.72798 2.12946 0
M  V30 17893 C 1705.8 -6.12932 3.01337 0
M  V30 17894 O 1705.48 -6.92825 4.07737 0
M  V30 17895 H 1705.22 -0.675633 0.0222573 0
M  V30 17896 H 1707.77 -1.92669 0.711891 0
M  V30 17897 H 1706 -3.69875 -1.12825 0
M  V30 17898 H 1707.69 -3.97641 -0.814628 0
M  V30 17899 H 1708.45 -4.5805 1.59421 0
M  V30 17900 H 1704.33 -4.59528 0.368089 0
M  V30 17901 H 1707.88 -6.02974 3.50811 0
M  V30 17902 H 1703.77 -6.04137 2.27351 0
M  V30 17903 H 1704.54 -7.1115 4.05226 0
M  V30 17904 N 1707.21 -0.246397 -1.55662 0
M  V30 17905 C 1708.16 0.667276 -2.18017 0
M  V30 17906 C 1709.14 1.13957 -1.1359 0
M  V30 17907 O 1710.33 1.08942 -1.39501 0
M  V30 17908 C 1707.46 1.86414 -2.88279 0
M  V30 17909 C 1706.55 1.41037 -3.99962 0
M  V30 17910 N 1706.94 0.670796 -5.01332 0
M  V30 17911 C 1705.24 1.69569 -4.12507 0
M  V30 17912 C 1705.94 0.43594 -5.80064 0
M  V30 17913 N 1704.91 1 -5.34323 0
M  V30 17914 H 1708.71 0.0940693 -2.93749 0
M  V30 17915 H 1706.23 -0.048692 -1.62327 0
M  V30 17916 H 1708.23 2.5297 -3.31379 0
M  V30 17917 H 1706.89 2.44158 -2.14049 0
M  V30 17918 H 1707.9 0.320958 -5.16905 0
M  V30 17919 H 1704.57 2.28455 -3.49449 0
M  V30 17920 H 1705.96 -0.154438 -6.71722 0
M  V30 17921 N 1708.68 1.57577 0.026722 0
M  V30 17922 C 1709.59 2.10114 1.04351 0
M  V30 17923 C 1710.61 1.04029 1.39477 0
M  V30 17924 O 1711.79 1.35778 1.48749 0
M  V30 17925 C 1708.85 2.57203 2.32481 0
M  V30 17926 C 1707.91 3.77779 2.03915 0
M  V30 17927 C 1707.14 4.22613 3.25936 0
M  V30 17928 O 1707.37 3.66955 4.36692 0
M  V30 17929 O 1706.3 5.15026 3.11499 0
M  V30 17930 H 1710.13 2.97157 0.627021 0
M  V30 17931 H 1707.71 1.47396 0.243855 0
M  V30 17932 H 1709.59 2.87809 3.07805 0
M  V30 17933 H 1708.27 1.7327 2.73421 0
M  V30 17934 H 1707.18 3.52188 1.26152 0
M  V30 17935 H 1708.51 4.62703 1.67829 0
M  V30 17936 N 1710.16 -0.299034 1.54737 0
M  V30 17937 C 1711.44 -1.05371 1.64792 0
M  V30 17938 C 1711.82 -2.05155 0.497475 0
M  V30 17939 O 1711.17 -2.22837 -0.505573 0
M  V30 17940 C 1711.38 -1.73381 3.02886 0
M  V30 17941 C 1712.72 -2.25506 3.59767 0
M  V30 17942 O 1713.75 -1.8341 3.05351 0
M  V30 17943 O 1712.61 -3.02642 4.55049 0
M  V30 17944 H 1709.7 -0.487156 0.668287 0
M  V30 17945 H 1712.25 -0.296965 1.67081 0
M  V30 17946 H 1711.02 -1.00936 3.78058 0
M  V30 17947 H 1710.64 -2.55806 3.04383 0
M  V30 17948 N 1711.64 -1.47227 -0.562322 0
M  V30 17949 C 1712.89 -1.52851 -1.31604 0
M  V30 17950 C 1713.2 -0.193236 -1.94643 0
M  V30 17951 O 1714.41 -0.127429 -2.71201 0
M  V30 17952 C 1712.86 -2.69422 -2.3862 0
M  V30 17953 C 1712.47 -4.09457 -1.81794 0
M  V30 17954 C 1714.22 -2.84334 -3.15205 0
M  V30 17955 C 1712.12 -5.17337 -2.8656 0
M  V30 17956 H 1711.05 -0.568923 -0.494816 0
M  V30 17957 H 1713.7 -1.73489 -0.597819 0
M  V30 17958 H 1712.09 -2.42153 -3.13333 0
M  V30 17959 H 1713.26 -4.46606 -1.13487 0
M  V30 17960 H 1711.57 -3.99387 -1.17811 0
M  V30 17961 H 1714.17 -3.621 -3.93431 0
M  V30 17962 H 1714.51 -1.9259 -3.69073 0
M  V30 17963 H 1715.05 -3.11348 -2.47603 0
M  V30 17964 H 1711.79 -6.1094 -2.37554 0
M  V30 17965 H 1711.31 -4.8471 -3.53293 0
M  V30 17966 H 1712.99 -5.44065 -3.50146 0
M  V30 17967 N 1713.12 0.808639 -1.35273 0
M  V30 17968 C 1714.36 1.56562 -1.28431 0
M  V30 17969 C 1714.69 1.93982 0.141842 0
M  V30 17970 O 1713.95 1.61409 1.10661 0
M  V30 17971 C 1714.25 2.86667 -2.1344 0
M  V30 17972 C 1713.91 2.68475 -3.6226 0
M  V30 17973 C 1712.57 2.63221 -4.02825 0
M  V30 17974 C 1714.93 2.51151 -4.56698 0
M  V30 17975 C 1712.25 2.38583 -5.35999 0
M  V30 17976 C 1714.61 2.28043 -5.90067 0
M  V30 17977 C 1713.27 2.2121 -6.2978 0
M  V30 17978 H 1712.54 0.572902 -0.469963 0
M  V30 17979 H 1715.19 0.934504 -1.6715 0
M  V30 17980 H 1713.49 3.54146 -1.67595 0
M  V30 17981 H 1715.19 3.44351 -2.05483 0
M  V30 17982 H 1711.78 2.7341 -3.30068 0
M  V30 17983 H 1715.96 2.54223 -4.26244 0
M  V30 17984 H 1711.22 2.31761 -5.65771 0
M  V30 17985 H 1715.39 2.13628 -6.62824 0
M  V30 17986 H 1713.02 2.01881 -7.32904 0
M  V30 17987 N 1714.6 1.19237 1.03055 0
M  V30 17988 C 1715.84 0.992008 1.76078 0
M  V30 17989 C 1716.17 -0.478535 1.89037 0
M  V30 17990 O 1715.44 -1.34666 1.42274 0
M  V30 17991 H 1714.02 0.364059 0.652281 0
M  V30 17992 H 1716.68 1.50101 1.24321 0
M  V30 17993 H 1715.77 1.43862 2.76966 0
M  V30 17994 N 1716.07 -1.22136 0.99602 0
M  V30 17995 C 1717 -2.26463 0.568909 0
M  V30 17996 C 1717.99 -1.65189 -0.405783 0
M  V30 17997 O 1719.17 -1.91935 -0.295735 0
M  V30 17998 C 1716.3 -3.47112 -0.114166 0
M  V30 17999 C 1715.25 -4.20844 0.779387 0
M  V30 18000 C 1714.58 -5.34687 -0.0367787 0
M  V30 18001 C 1715.88 -4.79195 2.07773 0
M  V30 18002 H 1717.57 -2.62443 1.44097 0
M  V30 18003 H 1715.12 -1.26156 0.694314 0
M  V30 18004 H 1717.07 -4.19258 -0.424381 0
M  V30 18005 H 1715.8 -3.10238 -1.02079 0
M  V30 18006 H 1714.46 -3.50537 1.07329 0
M  V30 18007 H 1714.1 -4.94054 -0.94442 0
M  V30 18008 H 1713.8 -5.84944 0.558092 0
M  V30 18009 H 1715.33 -6.09647 -0.341016 0
M  V30 18010 H 1716.74 -5.43266 1.83126 0
M  V30 18011 H 1715.14 -5.39803 2.62169 0
M  V30 18012 H 1716.21 -3.99073 2.75442 0
M  V30 18013 N 1717.55 -0.769612 -1.37531 0
M  V30 18014 C 1718.78 -0.344282 -2.04015 0
M  V30 18015 C 1719.2 1.03281 -1.58046 0
M  V30 18016 O 1718.55 1.65888 -0.760746 0
M  V30 18017 C 1718.6 -0.375922 -3.5954 0
M  V30 18018 O 1718.32 -1.69869 -4.03827 0
M  V30 18019 C 1719.83 0.0612715 -4.43258 0
M  V30 18020 H 1717.05 -0.144584 -0.655238 0
M  V30 18021 H 1719.59 -1.04294 -1.75906 0
M  V30 18022 H 1717.74 0.274136 -3.86429 0
M  V30 18023 H 1718.16 -1.63584 -4.98338 0
M  V30 18024 H 1719.63 -0.012022 -5.51999 0
M  V30 18025 H 1720.11 1.11136 -4.24906 0
M  V30 18026 H 1720.72 -0.560517 -4.2159 0
M  V30 18027 N 1719.03 1.48775 -0.519977 0
M  V30 18028 C 1719.96 2.32292 0.237213 0
M  V30 18029 C 1720.94 1.4146 0.944625 0
M  V30 18030 O 1722.13 1.70355 0.932349 0
M  V30 18031 C 1719.26 3.22426 1.29068 0
M  V30 18032 C 1718.21 4.22204 0.702011 0
M  V30 18033 C 1717.54 5.01403 1.85739 0
M  V30 18034 C 1718.84 5.21321 -0.319626 0
M  V30 18035 H 1720.53 2.95846 -0.459949 0
M  V30 18036 H 1718.08 1.42268 -0.222641 0
M  V30 18037 H 1720.03 3.79674 1.82826 0
M  V30 18038 H 1718.75 2.56853 2.01728 0
M  V30 18039 H 1717.41 3.66128 0.186027 0
M  V30 18040 H 1717.06 4.32262 2.57214 0
M  V30 18041 H 1716.76 5.68929 1.46949 0
M  V30 18042 H 1718.28 5.615 2.39895 0
M  V30 18043 H 1719.7 5.73151 0.130505 0
M  V30 18044 H 1718.1 5.96843 -0.624377 0
M  V30 18045 H 1719.17 4.69069 -1.22893 0
M  V30 18046 N 1720.51 0.254649 1.55529 0
M  V30 18047 C 1721.92 -0.100019 1.59286 0
M  V30 18048 C 1722.12 -1.56289 1.27185 0
M  V30 18049 O 1721.18 -2.30854 1.02287 0
M  V30 18050 C 1722.49 0.256158 2.99607 0
M  V30 18051 C 1724.04 0.201091 3.12353 0
M  V30 18052 C 1724.52 0.531411 4.54907 0
M  V30 18053 N 1726.01 0.482199 4.60683 0
M  V30 18054 C 1726.74 0.710848 5.68977 0
M  V30 18055 N 1726.24 1.00304 6.85501 0
M  V30 18056 N 1728.03 0.641029 5.58433 0
M  V30 18057 H 1720.18 1.20856 1.74664 0
M  V30 18058 H 1722.45 0.486824 0.813453 0
M  V30 18059 H 1722.15 1.27275 3.27863 0
M  V30 18060 H 1722.03 -0.412994 3.74932 0
M  V30 18061 H 1724.41 -0.806189 2.83874 0
M  V30 18062 H 1724.49 0.904206 2.39286 0
M  V30 18063 H 1724.14 1.53628 4.84108 0
M  V30 18064 H 1724.07 -0.193269 5.26245 0
M  V30 18065 H 1726.56 0.265409 3.76967 0
M  V30 18066 H 1726.87 1.16472 7.63973 0
M  V30 18067 H 1725.22 1.04059 6.87166 0
M  V30 18068 H 1728.41 0.412751 4.66277 0
M  V30 18069 H 1728.58 0.822617 6.42757 0
M  V30 18070 N 1721.99 -1.57589 -0.0183649 0
M  V30 18071 C 1723.21 -1.94024 -0.718491 0
M  V30 18072 C 1723.63 -0.85529 -1.68316 0
M  V30 18073 O 1722.99 0.167403 -1.81731 0
M  V30 18074 C 1723.04 -3.30427 -1.4663 0
M  V30 18075 O 1722.76 -4.34755 -0.540345 0
M  V30 18076 C 1724.26 -3.81209 -2.26262 0
M  V30 18077 H 1721.48 -0.640101 -0.201275 0
M  V30 18078 H 1724.02 -2.04482 0.0272935 0
M  V30 18079 H 1722.18 -3.21333 -2.16388 0
M  V30 18080 H 1722.59 -5.13554 -1.06593 0
M  V30 18081 H 1724.07 -4.79131 -2.74112 0
M  V30 18082 H 1724.54 -3.12957 -3.08147 0
M  V30 18083 H 1725.15 -3.9342 -1.61558 0
M  V30 18084 N 1723.46 0.290824 -1.54893 0
M  V30 18085 C 1724.4 1.38087 -1.82933 0
M  V30 18086 C 1725.41 1.46365 -0.712811 0
M  V30 18087 O 1726.6 1.48501 -0.990432 0
M  V30 18088 C 1723.7 2.76374 -1.9614 0
M  V30 18089 C 1722.87 2.90905 -3.26639 0
M  V30 18090 C 1721.93 4.09754 -3.30134 0
M  V30 18091 O 1720.96 4.01356 -4.03611 0
M  V30 18092 N 1722.16 5.20878 -2.56254 0
M  V30 18093 H 1724.92 1.14385 -2.77013 0
M  V30 18094 H 1722.48 0.480916 -1.54592 0
M  V30 18095 H 1724.48 3.54144 -1.95868 0
M  V30 18096 H 1723.05 2.92978 -1.09008 0
M  V30 18097 H 1722.27 2.00164 -3.396 0
M  V30 18098 H 1723.55 2.97531 -4.12738 0
M  V30 18099 H 1722.95 5.30584 -1.96207 0
M  V30 18100 H 1721.51 5.96945 -2.61725 0
M  V30 18101 N 1724.94 1.47523 0.554506 0
M  V30 18102 C 1725.85 1.62851 1.68869 0
M  V30 18103 C 1726.87 0.511305 1.66318 0
M  V30 18104 O 1728.04 0.779195 1.85716 0
M  V30 18105 C 1725.11 1.64161 3.05372 0
M  V30 18106 C 1724.17 2.87327 3.1897 0
M  V30 18107 C 1723.4 2.88566 4.48961 0
M  V30 18108 O 1723.63 1.98937 5.34584 0
M  V30 18109 O 1722.56 3.80459 4.66406 0
M  V30 18110 H 1726.39 2.58826 1.5888 0
M  V30 18111 H 1723.97 1.3064 0.724822 0
M  V30 18112 H 1725.85 1.67686 3.866 0
M  V30 18113 H 1724.53 0.713534 3.15738 0
M  V30 18114 H 1723.44 2.89345 2.37129 0
M  V30 18115 H 1724.77 3.79438 3.13509 0
M  V30 18116 N 1726.42 -0.801453 1.357 0
M  V30 18117 C 1727.67 -1.5611 1.29451 0
M  V30 18118 C 1728 -1.93768 -0.129412 0
M  V30 18119 O 1727.27 -1.6176 -1.08 0
M  V30 18120 C 1727.56 -2.84628 2.20588 0
M  V30 18121 C 1727.41 -2.53413 3.71621 0
M  V30 18122 C 1728.73 -3.86369 2.10729 0
M  V30 18123 H 1725.85 -0.56638 0.471575 0
M  V30 18124 H 1728.49 -0.921701 1.66147 0
M  V30 18125 H 1726.64 -3.39192 1.89424 0
M  V30 18126 H 1728.31 -2.04993 4.1325 0
M  V30 18127 H 1726.56 -1.86531 3.91649 0
M  V30 18128 H 1727.23 -3.45152 4.30783 0
M  V30 18129 H 1729.7 -3.41219 2.38136 0
M  V30 18130 H 1728.58 -4.74062 2.76688 0
M  V30 18131 H 1728.84 -4.28431 1.09083 0
M  V30 18132 N 1727.9 -1.19782 -1.02421 0
M  V30 18133 C 1729.13 -1.02871 -1.79514 0
M  V30 18134 C 1729.54 0.422387 -1.84014 0
M  V30 18135 O 1728.9 1.29335 -1.28758 0
M  V30 18136 C 1728.95 -1.59634 -3.24344 0
M  V30 18137 O 1728.67 -2.99064 -3.20144 0
M  V30 18138 C 1730.17 -1.47571 -4.18016 0
M  V30 18139 H 1727.39 -0.362301 -0.564782 0
M  V30 18140 H 1729.94 -1.58701 -1.28974 0
M  V30 18141 H 1728.09 -1.07942 -3.72058 0
M  V30 18142 H 1728.5 -3.25859 -4.10994 0
M  V30 18143 H 1729.98 -1.92061 -5.1751 0
M  V30 18144 H 1730.46 -0.426967 -4.3712 0
M  V30 18145 H 1731.06 -1.98417 -3.76179 0
M  V30 18146 N 1729.38 1.21606 -1.00248 0
M  V30 18147 C 1730.6 1.95149 -0.702249 0
M  V30 18148 C 1731.03 1.73429 0.728293 0
M  V30 18149 O 1730.39 1.01953 1.49917 0
M  V30 18150 C 1730.43 3.45705 -1.0257 0
M  V30 18151 O 1729.54 4.12196 -0.129575 0
M  V30 18152 H 1728.88 0.610173 -0.261888 0
M  V30 18153 H 1731.41 1.54435 -1.34205 0
M  V30 18154 H 1731.42 3.96265 -0.97151 0
M  V30 18155 H 1730.09 3.60838 -2.06806 0
M  V30 18156 H 1728.67 3.72126 -0.240074 0
M  V30 18157 N 1730.86 0.776895 1.37121 0
M  V30 18158 C 1732.27 0.457116 1.52914 0
M  V30 18159 C 1732.47 -1.0265 1.73394 0
M  V30 18160 O 1731.53 -1.81224 1.75824 0
M  V30 18161 C 1732.84 1.27667 2.72253 0
M  V30 18162 C 1734.39 1.26909 2.86117 0
M  V30 18163 C 1734.86 2.0721 4.08446 0
M  V30 18164 N 1736.35 2.04591 4.15568 0
M  V30 18165 C 1737.09 2.63502 5.09268 0
M  V30 18166 N 1736.59 3.31222 6.08493 0
M  V30 18167 N 1738.38 2.53304 5.0179 0
M  V30 18168 H 1730.53 1.73811 1.2208 0
M  V30 18169 H 1732.79 0.738142 0.594853 0
M  V30 18170 H 1732.5 2.32825 2.63601 0
M  V30 18171 H 1732.37 0.909363 3.66074 0
M  V30 18172 H 1734.76 0.225476 2.94237 0
M  V30 18173 H 1734.84 1.67607 1.9324 0
M  V30 18174 H 1734.48 3.11595 4.01087 0
M  V30 18175 H 1734.41 1.63891 5.00447 0
M  V30 18176 H 1736.91 1.55293 3.44518 0
M  V30 18177 H 1737.22 3.73535 6.76529 0
M  V30 18178 H 1735.56 3.35322 6.08756 0
M  V30 18179 H 1738.75 2.00009 4.23218 0
M  V30 18180 H 1738.93 2.99509 5.74629 0
M  V30 18181 N 1732.33 -1.48497 0.527859 0
M  V30 18182 C 1733.58 -2.01698 -0.00900086 0
M  V30 18183 C 1733.9 -1.4104 -1.35525 0
M  V30 18184 O 1735.1 -1.85726 -1.98035 0
M  V30 18185 C 1733.56 -3.59839 -0.0664428 0
M  V30 18186 C 1733.17 -4.2948 1.27479 0
M  V30 18187 C 1734.91 -4.20893 -0.552244 0
M  V30 18188 C 1732.82 -5.79548 1.17805 0
M  V30 18189 H 1731.75 -0.753966 -0.00713463 0
M  V30 18190 H 1734.4 -1.70779 0.67132 0
M  V30 18191 H 1732.78 -3.8759 -0.811795 0
M  V30 18192 H 1733.95 -4.13403 2.03554 0
M  V30 18193 H 1732.27 -3.80289 1.69616 0
M  V30 18194 H 1734.87 -5.30825 -0.642556 0
M  V30 18195 H 1735.21 -3.86066 -1.55752 0
M  V30 18196 H 1735.74 -3.97563 0.137363 0
M  V30 18197 H 1732.48 -6.18945 2.15841 0
M  V30 18198 H 1732 -5.98044 0.458624 0
M  V30 18199 H 1733.68 -6.41153 0.867834 0
M  V30 18200 N 1733.81 -0.262893 -1.55392 0
M  V30 18201 C 1735.23 0.09157 -1.59337 0
M  V30 18202 C 1735.43 1.55612 -1.28012 0
M  V30 18203 O 1734.48 2.30308 -1.0351 0
M  V30 18204 C 1735.8 -0.272043 -2.99467 0
M  V30 18205 C 1737.34 -0.217653 -3.12242 0
M  V30 18206 C 1737.82 -0.555528 -4.54618 0
M  V30 18207 N 1739.31 -0.506623 -4.60421 0
M  V30 18208 C 1740.05 -0.741013 -5.68592 0
M  V30 18209 N 1739.54 -1.03937 -6.84959 0
M  V30 18210 N 1741.33 -0.670636 -5.58085 0
M  V30 18211 H 1733.49 -1.2178 -1.74021 0
M  V30 18212 H 1735.75 -0.491131 -0.81086 0
M  V30 18213 H 1735.45 -1.29012 -3.27183 0
M  V30 18214 H 1735.33 0.393105 -3.75146 0
M  V30 18215 H 1737.72 0.791123 -2.84298 0
M  V30 18216 H 1737.8 -0.916884 -2.38803 0
M  V30 18217 H 1737.44 -1.56193 -4.83287 0
M  V30 18218 H 1737.37 0.165358 -5.2634 0
M  V30 18219 H 1739.86 -0.285397 -3.76821 0
M  V30 18220 H 1740.17 -1.20522 -7.63344 0
M  V30 18221 H 1738.52 -1.07702 -6.86604 0
M  V30 18222 H 1741.71 -0.437473 -4.66051 0
M  V30 18223 H 1741.88 -0.856692 -6.42312 0
M  V30 18224 N 1735.29 1.57597 0.0100073 0
M  V30 18225 C 1736.52 1.94402 0.708192 0
M  V30 18226 C 1736.93 0.864205 1.6786 0
M  V30 18227 O 1736.29 -0.157763 1.81817 0
M  V30 18228 C 1736.34 3.312 1.44876 0
M  V30 18229 O 1736.06 4.35035 0.517281 0
M  V30 18230 C 1737.56 3.82404 2.24237 0
M  V30 18231 H 1734.78 0.64116 0.197877 0
M  V30 18232 H 1737.33 2.04464 -0.0381373 0
M  V30 18233 H 1735.48 3.22476 2.1468 0
M  V30 18234 H 1735.9 5.14113 1.03868 0
M  V30 18235 H 1737.37 4.80578 2.71567 0
M  V30 18236 H 1737.85 3.14587 3.06483 0
M  V30 18237 H 1738.45 3.94271 1.59469 0
M  V30 18238 N 1736.77 -0.282606 1.55045 0
M  V30 18239 C 1737.7 -1.37115 1.83663 0
M  V30 18240 C 1738.71 -1.45985 0.720563 0
M  V30 18241 O 1739.9 -1.47974 0.998294 0
M  V30 18242 C 1737 -2.7533 1.97603 0
M  V30 18243 C 1736.17 -2.89168 3.28177 0
M  V30 18244 C 1735.23 -4.07997 3.32302 0
M  V30 18245 O 1734.26 -3.9921 4.05734 0
M  V30 18246 N 1735.46 -5.19512 2.59013 0
M  V30 18247 H 1738.23 -1.12914 2.77616 0
M  V30 18248 H 1735.79 -0.472711 1.54845 0
M  V30 18249 H 1737.78 -3.531 1.97743 0
M  V30 18250 H 1736.35 -2.92396 1.1056 0
M  V30 18251 H 1735.57 -1.9836 3.40657 0
M  V30 18252 H 1736.86 -2.95338 4.1431 0
M  V30 18253 H 1736.26 -5.29536 1.99018 0
M  V30 18254 H 1734.81 -5.95549 2.64887 0
M  V30 18255 N 1738.25 -1.47815 -0.546675 0
M  V30 18256 C 1739.47 -1.58864 -1.33331 0
M  V30 18257 C 1739.9 -0.24302 -1.86524 0
M  V30 18258 O 1739.25 0.782777 -1.63531 0
M  V30 18259 C 1739.3 -2.62556 -2.47177 0
M  V30 18260 O 1738.41 -2.18558 -3.49723 0
M  V30 18261 H 1737.75 -0.53329 -0.395598 0
M  V30 18262 H 1740.28 -1.93677 -0.659579 0
M  V30 18263 H 1740.29 -2.83307 -2.936 0
M  V30 18264 H 1738.96 -3.60255 -2.0782 0
M  V30 18265 H 1737.54 -2.0795 -3.09534 0
M  V30 18266 N 1739.72 0.794246 -1.36123 0
M  V30 18267 C 1740.97 1.55191 -1.30084 0
M  V30 18268 C 1741.3 1.94122 0.121259 0
M  V30 18269 O 1740.55 1.62573 1.08942 0
M  V30 18270 C 1740.85 2.84387 -2.16469 0
M  V30 18271 C 1740.52 2.64617 -3.65087 0
M  V30 18272 C 1739.18 2.58934 -4.05594 0
M  V30 18273 C 1741.53 2.46293 -4.59336 0
M  V30 18274 C 1738.86 2.32885 -5.38499 0
M  V30 18275 C 1741.21 2.21771 -5.92453 0
M  V30 18276 C 1739.88 2.14518 -6.32091 0
M  V30 18277 H 1739.15 0.567885 -0.476013 0
M  V30 18278 H 1741.79 0.916723 -1.68132 0
M  V30 18279 H 1740.1 3.52348 -1.71342 0
M  V30 18280 H 1741.8 3.42152 -2.09124 0
M  V30 18281 H 1738.39 2.69894 -3.32949 0
M  V30 18282 H 1742.57 2.49688 -4.28917 0
M  V30 18283 H 1737.83 2.25748 -5.68197 0
M  V30 18284 H 1742 2.06586 -6.65053 0
M  V30 18285 H 1739.63 1.94096 -7.35004 0
M  V30 18286 N 1741.2 1.20323 1.01785 0
M  V30 18287 C 1742.43 1.03893 1.79502 0
M  V30 18288 C 1742.85 -0.407421 1.83635 0
M  V30 18289 O 1742.21 -1.29338 1.27049 0
M  V30 18290 C 1742.26 1.62562 3.21879 0
M  V30 18291 O 1741.36 0.862398 4.03282 0
M  V30 18292 H 1740.7 0.366479 0.553705 0
M  V30 18293 H 1743.23 1.59589 1.28034 0
M  V30 18294 H 1743.24 1.66244 3.72595 0
M  V30 18295 H 1741.92 2.67826 3.18186 0
M  V30 18296 H 1740.49 0.899687 3.61884 0
M  V30 18297 N 1742.68 -1.21073 1.00892 0
M  V30 18298 C 1743.61 -2.25847 0.592897 0
M  V30 18299 C 1744.59 -1.6561 -0.38824 0
M  V30 18300 O 1745.78 -1.92238 -0.275361 0
M  V30 18301 C 1742.91 -3.47214 -0.0773439 0
M  V30 18302 C 1741.86 -4.19994 0.82398 0
M  V30 18303 C 1741.19 -5.34696 0.0199341 0
M  V30 18304 C 1742.49 -4.76964 2.12844 0
M  V30 18305 H 1744.18 -2.609 1.46873 0
M  V30 18306 H 1741.73 -1.25412 0.707656 0
M  V30 18307 H 1743.68 -4.19684 -0.379889 0
M  V30 18308 H 1742.4 -3.11303 -0.987833 0
M  V30 18309 H 1741.06 -3.49379 1.11041 0
M  V30 18310 H 1740.71 -4.95028 -0.891966 0
M  V30 18311 H 1740.41 -5.84319 0.620102 0
M  V30 18312 H 1741.93 -6.09974 -0.276336 0
M  V30 18313 H 1743.35 -5.41293 1.88878 0
M  V30 18314 H 1741.74 -5.36992 2.67879 0
M  V30 18315 H 1742.81 -3.96129 2.79659 0
M  V30 18316 N 1744.16 -0.784156 -1.36707 0
M  V30 18317 C 1745.09 -0.136944 -2.28791 0
M  V30 18318 C 1746.1 0.65075 -1.49228 0
M  V30 18319 O 1747.29 0.486799 -1.71734 0
M  V30 18320 C 1744.39 0.829306 -3.28597 0
M  V30 18321 C 1743.57 0.09279 -4.37302 0
M  V30 18322 C 1742.62 0.974213 -5.17103 0
M  V30 18323 O 1741.65 0.433399 -5.67548 0
M  V30 18324 N 1742.85 2.29909 -5.33031 0
M  V30 18325 H 1745.62 -0.927906 -2.84974 0
M  V30 18326 H 1743.18 -0.637596 -1.48816 0
M  V30 18327 H 1745.17 1.42268 -3.78869 0
M  V30 18328 H 1743.74 1.52117 -2.73092 0
M  V30 18329 H 1742.96 -0.681615 -3.88262 0
M  V30 18330 H 1744.25 -0.415655 -5.07099 0
M  V30 18331 H 1743.65 2.76268 -4.93652 0
M  V30 18332 H 1742.2 2.84224 -5.86566 0
M  V30 18333 N 1745.64 1.48215 -0.535727 0
M  V30 18334 C 1746.55 2.33494 0.227577 0
M  V30 18335 C 1747.56 1.4685 0.933327 0
M  V30 18336 O 1748.74 1.7982 0.907008 0
M  V30 18337 C 1745.8 3.23092 1.25747 0
M  V30 18338 C 1744.86 4.25613 0.561454 0
M  V30 18339 C 1744.1 5.1093 1.54228 0
M  V30 18340 O 1744.32 4.98325 2.77539 0
M  V30 18341 O 1743.25 5.92158 1.07852 0
M  V30 18342 H 1747.08 3.0002 -0.471375 0
M  V30 18343 H 1744.67 1.46427 -0.296579 0
M  V30 18344 H 1746.55 3.78498 1.8525 0
M  V30 18345 H 1745.22 2.5922 1.93872 0
M  V30 18346 H 1744.13 3.74026 -0.0742194 0
M  V30 18347 H 1745.46 4.92138 -0.0779649 0
M  V30 18348 N 1747.11 0.27113 1.5525 0
M  V30 18349 C 1748.53 -0.0831186 1.59383 0
M  V30 18350 C 1748.73 -1.54931 1.28835 0
M  V30 18351 O 1747.79 -2.29756 1.0473 0
M  V30 18352 C 1749.1 0.287921 2.99318 0
M  V30 18353 C 1750.65 0.234209 3.12123 0
M  V30 18354 C 1751.12 0.57963 4.54317 0
M  V30 18355 N 1752.61 0.531033 4.60146 0
M  V30 18356 C 1753.35 0.771156 5.68191 0
M  V30 18357 N 1752.84 1.07569 6.84398 0
M  V30 18358 N 1754.64 0.700223 5.57722 0
M  V30 18359 H 1746.79 1.22702 1.73373 0
M  V30 18360 H 1749.05 0.495424 0.808244 0
M  V30 18361 H 1748.76 1.30746 3.26494 0
M  V30 18362 H 1748.63 -0.373205 3.75349 0
M  V30 18363 H 1751.02 -0.776035 2.84713 0
M  V30 18364 H 1751.1 0.929535 2.38313 0
M  V30 18365 H 1750.74 1.58754 4.82452 0
M  V30 18366 H 1750.67 -0.137442 5.26421 0
M  V30 18367 H 1753.16 0.305377 3.76664 0
M  V30 18368 H 1753.48 1.24568 7.62694 0
M  V30 18369 H 1751.82 1.11342 6.86023 0
M  V30 18370 H 1755.01 0.462183 4.65813 0
M  V30 18371 H 1755.19 0.890744 6.41849 0
M  V30 18372 N 1748.59 -1.576 -0.00164943 0
M  V30 18373 C 1749.52 -2.05167 -1.02173 0
M  V30 18374 C 1750.54 -0.969293 -1.308 0
M  V30 18375 O 1751.73 -1.24612 -1.27805 0
M  V30 18376 C 1748.83 -2.43525 -2.35688 0
M  V30 18377 C 1748 -3.74475 -2.26025 0
M  V30 18378 C 1747.06 -3.99719 -3.42215 0
M  V30 18379 O 1746.08 -4.70408 -3.20476 0
M  V30 18380 N 1747.29 -3.47486 -4.65009 0
M  V30 18381 H 1750.05 -2.93299 -0.616095 0
M  V30 18382 H 1747.61 -1.60792 -0.189066 0
M  V30 18383 H 1749.6 -2.57528 -3.12188 0
M  V30 18384 H 1748.17 -1.6092 -2.67999 0
M  V30 18385 H 1747.39 -3.70564 -1.34447 0
M  V30 18386 H 1748.68 -4.60328 -2.16739 0
M  V30 18387 H 1748.08 -2.9024 -4.85569 0
M  V30 18388 H 1746.64 -3.66822 -5.38781 0
M  V30 18389 N 1750.07 0.274379 -1.55193 0
M  V30 18390 C 1751 1.34336 -1.90987 0
M  V30 18391 C 1751.98 1.51594 -0.771582 0
M  V30 18392 O 1753.17 1.6466 -1.0296 0
M  V30 18393 C 1750.3 2.70312 -2.18057 0
M  V30 18394 C 1749.25 2.67787 -3.33878 0
M  V30 18395 C 1748.58 4.07301 -3.46425 0
M  V30 18396 C 1749.88 2.27178 -4.70306 0
M  V30 18397 H 1751.57 1.04627 -2.80524 0
M  V30 18398 H 1749.12 0.501867 -1.34971 0
M  V30 18399 H 1751.07 3.45205 -2.41685 0
M  V30 18400 H 1749.79 3.01601 -1.25318 0
M  V30 18401 H 1748.45 1.95351 -3.10216 0
M  V30 18402 H 1748.1 4.3581 -2.51155 0
M  V30 18403 H 1747.8 4.06507 -4.24295 0
M  V30 18404 H 1749.32 4.83935 -3.72343 0
M  V30 18405 H 1750.74 2.91794 -4.93487 0
M  V30 18406 H 1749.14 2.37548 -5.51082 0
M  V30 18407 H 1750.21 1.22309 -4.69221 0
M  V30 18408 N 1751.55 1.48103 0.538828 0
M  V30 18409 C 1752.96 1.34028 0.866532 0
M  V30 18410 C 1753.16 0.3446 1.98531 0
M  V30 18411 O 1752.22 -0.237347 2.51382 0
M  V30 18412 C 1753.53 2.73833 1.24241 0
M  V30 18413 C 1755.08 2.82256 1.35279 0
M  V30 18414 C 1755.56 4.22744 1.76214 0
M  V30 18415 N 1757.05 4.25374 1.83332 0
M  V30 18416 C 1757.78 5.31009 2.16373 0
M  V30 18417 N 1757.28 6.4693 2.47899 0
M  V30 18418 N 1759.07 5.18397 2.17304 0
M  V30 18419 H 1751.22 2.11461 -0.199502 0
M  V30 18420 H 1753.49 0.947627 -0.0266031 0
M  V30 18421 H 1753.19 3.48213 0.494025 0
M  V30 18422 H 1753.07 3.0679 2.19453 0
M  V30 18423 H 1755.45 2.08137 2.09196 0
M  V30 18424 H 1755.53 2.5293 0.382096 0
M  V30 18425 H 1755.18 4.97375 1.02862 0
M  V30 18426 H 1755.11 4.49507 2.74319 0
M  V30 18427 H 1757.6 3.41755 1.61282 0
M  V30 18428 H 1757.91 7.23279 2.7219 0
M  V30 18429 H 1756.26 6.50219 2.45438 0
M  V30 18430 H 1759.45 4.26855 1.92126 0
M  V30 18431 H 1759.62 6.00824 2.42722 0
M  V30 18432 N 1753.03 -0.787016 1.36542 0
M  V30 18433 C 1754.27 -1.54194 1.30647 0
M  V30 18434 C 1754.6 -1.94671 -0.113195 0
M  V30 18435 O 1753.87 -1.65131 -1.05397 0
M  V30 18436 H 1752.45 -0.571857 0.480613 0
M  V30 18437 H 1755.11 -0.93761 1.70865 0
M  V30 18438 H 1754.2 -2.4484 1.93545 0
M  V30 18439 N 1754.5 -1.20861 -1.01145 0
M  V30 18440 C 1755.47 -0.963742 -2.07954 0
M  V30 18441 C 1756.47 0.0627362 -1.60678 0
M  V30 18442 O 1757.66 -0.173867 -1.7333 0
M  V30 18443 C 1754.79 -0.451977 -3.3789 0
M  V30 18444 H 1755.98 -1.91123 -2.3111 0
M  V30 18445 H 1753.54 -1.0247 -1.18024 0
M  V30 18446 H 1754.27 0.500735 -3.20411 0
M  V30 18447 H 1754.06 -1.19231 -3.73532 0
M  V30 18448 H 1755.55 -0.300308 -4.16519 0
M  V30 18449 N 1755.98 1.20536 -1.01532 0
M  V30 18450 C 1757.23 1.90152 -0.704973 0
M  V30 18451 C 1757.56 1.78569 0.763343 0
M  V30 18452 O 1756.84 1.16906 1.55445 0
M  V30 18453 C 1757.12 3.41589 -1.1397 0
M  V30 18454 C 1756.97 3.62113 -2.66823 0
M  V30 18455 C 1758.29 4.34335 -0.709984 0
M  V30 18456 H 1755.41 0.690524 -0.257577 0
M  V30 18457 H 1758.05 1.41959 -1.26284 0
M  V30 18458 H 1756.2 3.82765 -0.66505 0
M  V30 18459 H 1757.87 3.30197 -3.2213 0
M  V30 18460 H 1756.12 3.05626 -3.07855 0
M  V30 18461 H 1756.79 4.68261 -2.92294 0
M  V30 18462 H 1759.26 4.00799 -1.11801 0
M  V30 18463 H 1758.14 5.38915 -1.04221 0
M  V30 18464 H 1758.4 4.40391 0.388408 0
M  V30 18465 N 1757.46 0.791395 1.36289 0
M  V30 18466 C 1758.87 0.427611 1.81737 0
M  V30 18467 C 1759.22 -1.04868 1.65822 0
M  V30 18468 O 1758.35 -1.81379 1.18028 0
M  V30 18469 C 1758.94 0.769378 3.29949 0
M  V30 18470 C 1757.5 0.458397 3.73598 0
M  V30 18471 C 1756.65 1.00299 2.58526 0
M  V30 18472 H 1759.6 0.98437 1.24482 0
M  V30 18473 H 1759.62 0.061211 3.80451 0
M  V30 18474 H 1759.13 1.8439 3.415 0
M  V30 18475 H 1757.23 -0.608006 3.67606 0
M  V30 18476 H 1757.35 0.980392 4.68962 0
M  V30 18477 H 1755.71 0.426106 2.5111 0
M  V30 18478 H 1756.49 2.08331 2.72861 0
M  V30 18479 N 1758.94 -1.47929 0.54358 0
M  V30 18480 C 1760.19 -2.03387 0.0226665 0
M  V30 18481 C 1760.54 -1.41189 -1.30704 0
M  V30 18482 O 1759.83 -0.553281 -1.83438 0
M  V30 18483 C 1760.03 -3.57116 -0.142408 0
M  V30 18484 C 1759.86 -4.3422 1.16975 0
M  V30 18485 C 1758.63 -4.7464 1.73335 0
M  V30 18486 C 1760.82 -4.70199 2.08369 0
M  V30 18487 N 1758.81 -5.36333 2.98697 0
M  V30 18488 C 1760.18 -5.32052 3.18309 0
M  V30 18489 C 1762.23 -4.52128 2.0853 0
M  V30 18490 C 1760.94 -5.77744 4.28491 0
M  V30 18491 C 1762.96 -4.9881 3.17715 0
M  V30 18492 C 1762.32 -5.607 4.26374 0
M  V30 18493 H 1758.42 -0.780392 0.0501262 0
M  V30 18494 H 1761.01 -1.80583 0.727863 0
M  V30 18495 H 1759.18 -3.79716 -0.816707 0
M  V30 18496 H 1760.91 -3.99213 -0.664154 0
M  V30 18497 H 1757.66 -4.5617 1.27302 0
M  V30 18498 H 1758.09 -5.71734 3.62559 0
M  V30 18499 H 1762.73 -4.03647 1.25812 0
M  V30 18500 H 1760.45 -6.25223 5.11979 0
M  V30 18501 H 1764.03 -4.86608 3.1891 0
M  V30 18502 H 1762.91 -5.96165 5.09467 0
M  V30 18503 N 1760.42 -0.27936 -1.55104 0
M  V30 18504 C 1761.38 0.593214 -2.2139 0
M  V30 18505 C 1762.38 1.07807 -1.19308 0
M  V30 18506 O 1763.57 0.97756 -1.44185 0
M  V30 18507 C 1760.7 1.81889 -2.88321 0
M  V30 18508 H 1761.9 0.0143941 -2.99897 0
M  V30 18509 H 1759.45 -0.0300083 -1.56271 0
M  V30 18510 H 1760.18 2.43811 -2.13838 0
M  V30 18511 H 1759.97 1.4791 -3.63132 0
M  V30 18512 H 1761.46 2.4393 -3.38951 0
M  V30 18513 N 1761.9 1.57599 -0.0067085 0
M  V30 18514 C 1763.14 1.90858 0.67673 0
M  V30 18515 C 1763.47 0.880956 1.73405 0
M  V30 18516 O 1762.73 -0.113339 1.95372 0
M  V30 18517 C 1763.02 3.30868 1.35133 0
M  V30 18518 C 1762.69 4.48878 0.426559 0
M  V30 18519 C 1761.35 4.80893 0.17196 0
M  V30 18520 C 1763.7 5.20778 -0.209761 0
M  V30 18521 C 1761.03 5.82177 -0.727139 0
M  V30 18522 C 1763.38 6.2302 -1.09678 0
M  V30 18523 C 1762.05 6.53488 -1.36049 0
M  V30 18524 H 1761.32 0.698397 0.247633 0
M  V30 18525 H 1763.97 1.91394 -0.0636748 0
M  V30 18526 H 1762.27 3.26487 2.16594 0
M  V30 18527 H 1763.97 3.53864 1.8863 0
M  V30 18528 H 1760.56 4.23867 0.635166 0
M  V30 18529 H 1764.74 4.96293 -0.0260888 0
M  V30 18530 H 1760 6.0414 -0.939389 0
M  V30 18531 H 1764.17 6.77861 -1.59616 0
M  V30 18532 H 1761.8 7.31789 -2.05886 0
M  V30 18533 N 1763.37 -0.266145 1.55336 0
M  V30 18534 C 1764.65 -1.01852 1.6699 0
M  V30 18535 C 1765.03 -2.04053 0.54088 0
M  V30 18536 O 1764.38 -2.23859 -0.458193 0
M  V30 18537 C 1764.59 -1.66917 3.06496 0
M  V30 18538 C 1765.94 -2.17824 3.64469 0
M  V30 18539 O 1766.96 -1.76892 3.09173 0
M  V30 18540 O 1765.82 -2.92922 4.61367 0
M  V30 18541 H 1762.91 -0.472871 0.67847 0
M  V30 18542 H 1765.46 -0.261458 1.67674 0
M  V30 18543 H 1764.23 -0.928941 3.80114 0
M  V30 18544 H 1763.85 -2.49292 3.0974 0
M  V30 18545 N 1764.85 -1.48386 -0.530967 0
M  V30 18546 C 1766.26 -1.49904 -1.11291 0
M  V30 18547 C 1766.61 -0.268276 -1.94357 0
M  V30 18548 O 1765.74 0.624676 -2.07188 0
M  V30 18549 C 1766.33 -2.71622 -2.02501 0
M  V30 18550 C 1764.89 -2.76015 -2.55916 0
M  V30 18551 C 1764.04 -2.43403 -1.32855 0
M  V30 18552 H 1766.99 -1.55517 -0.316269 0
M  V30 18553 H 1767.01 -2.50084 -2.86772 0
M  V30 18554 H 1766.52 -3.61182 -1.42017 0
M  V30 18555 H 1764.62 -1.9066 -3.20124 0
M  V30 18556 H 1764.74 -3.77416 -2.95116 0
M  V30 18557 H 1763.1 -1.94537 -1.644 0
M  V30 18558 H 1763.88 -3.35202 -0.741242 0
M  V30 18559 N 1766.33 0.779763 -1.36958 0
M  V30 18560 C 1767.74 1.35555 -1.28381 0
M  V30 18561 C 1768.09 1.96067 0.0721422 0
M  V30 18562 O 1767.22 1.9325 0.973824 0
M  V30 18563 C 1767.81 2.46454 -2.32477 0
M  V30 18564 C 1766.37 2.99823 -2.27559 0
M  V30 18565 C 1765.52 1.72975 -2.16737 0
M  V30 18566 H 1768.47 0.580646 -1.47696 0
M  V30 18567 H 1768.49 3.25726 -1.96679 0
M  V30 18568 H 1768 2.02383 -3.31154 0
M  V30 18569 H 1766.1 3.4829 -1.3238 0
M  V30 18570 H 1766.22 3.55982 -3.20646 0
M  V30 18571 H 1764.58 1.95587 -1.6315 0
M  V30 18572 H 1765.36 1.31018 -3.17315 0
M  V30 18573 N 1767.81 1.21396 1.00503 0
M  V30 18574 C 1769.06 1.02913 1.73935 0
M  V30 18575 C 1769.38 -0.438329 1.9001 0
M  V30 18576 O 1768.65 -1.31618 1.45098 0
M  V30 18577 H 1767.23 0.377813 0.644412 0
M  V30 18578 H 1769.89 1.52704 1.21109 0
M  V30 18579 H 1768.98 1.49705 2.73852 0
M  V30 18580 N 1769.29 -1.19996 1.0217 0
M  V30 18581 C 1770.51 -1.94007 0.733207 0
M  V30 18582 C 1770.94 -1.74565 -0.70061 0
M  V30 18583 O 1770.29 -1.04326 -1.48276 0
M  V30 18584 C 1770.34 -3.44029 1.08057 0
M  V30 18585 O 1769.45 -4.11938 0.195135 0
M  V30 18586 H 1768.79 -0.605929 0.271562 0
M  V30 18587 H 1771.32 -1.5228 1.36645 0
M  V30 18588 H 1771.33 -3.94669 1.03443 0
M  V30 18589 H 1770 -3.57502 2.1252 0
M  V30 18590 H 1768.58 -3.71697 0.299246 0
M  V30 18591 N 1770.76 -0.798611 -1.35867 0
M  V30 18592 C 1772.04 -0.298858 -1.93303 0
M  V30 18593 C 1772.42 1.21038 -1.72954 0
M  V30 18594 O 1771.77 2.00617 -1.09386 0
M  V30 18595 C 1771.98 -0.701532 -3.41876 0
M  V30 18596 C 1773.33 -0.686486 -4.19014 0
M  V30 18597 O 1774.35 -0.642577 -3.50356 0
M  V30 18598 O 1773.21 -0.737653 -5.41499 0
M  V30 18599 H 1770.3 -0.0762987 -0.823473 0
M  V30 18600 H 1772.85 -0.881773 -1.44993 0
M  V30 18601 H 1771.62 -1.74204 -3.50383 0
M  V30 18602 H 1771.24 -0.092994 -3.97491 0
M  V30 18603 N 1772.24 1.47639 -0.551417 0
M  V30 18604 C 1773.47 2.06878 -0.0298904 0
M  V30 18605 C 1773.88 1.40493 1.26123 0
M  V30 18606 O 1773.24 0.499513 1.75531 0
M  V30 18607 C 1773.29 3.61074 0.175449 0
M  V30 18608 O 1773.01 4.2497 -1.06454 0
M  V30 18609 C 1774.51 4.37166 0.734919 0
M  V30 18610 H 1771.73 0.669607 -0.0432142 0
M  V30 18611 H 1774.28 1.89726 -0.763178 0
M  V30 18612 H 1772.43 3.7776 0.858848 0
M  V30 18613 H 1772.85 5.17424 -0.858644 0
M  V30 18614 H 1774.32 5.45756 0.827915 0
M  V30 18615 H 1774.8 4.03052 1.74486 0
M  V30 18616 H 1775.4 4.2521 0.0874045 0
M  V30 18617 N 1773.72 0.287581 1.54954 0
M  V30 18618 C 1774.67 -0.610315 2.2445 0
M  V30 18619 C 1775.66 -1.14786 1.24582 0
M  V30 18620 O 1776.87 -1.10005 1.42474 0
M  V30 18621 H 1773.24 -0.215394 0.720493 0
M  V30 18622 H 1775.21 -0.00148121 2.984 0
M  V30 18623 C 1773.96 -1.77719 2.9885 0
M  V30 18624 H 1773.29 -1.37277 3.75493 0
M  V30 18625 H 1774.73 -2.38181 3.50779 0
M  V30 18626 C 1773.19 -2.67321 2.05039 0
M  V30 18627 O 1773.72 -3.68038 1.60968 0
M  V30 18628 N 1771.92 -2.34761 1.71276 0
M  V30 18629 H 1771.47 -1.52905 2.07311 0
M  V30 18630 H 1771.43 -2.94981 1.08781 0
M  V30 18631 N 1775.2 -1.57593 0.0150662 0
M  V30 18632 C 1776.42 -1.95909 -0.68077 0
M  V30 18633 C 1776.85 -0.890813 -1.65669 0
M  V30 18634 O 1776.21 0.149663 -1.80681 0
M  V30 18635 C 1776.25 -3.33324 -1.37576 0
M  V30 18636 O 1775.36 -3.28694 -2.49066 0
M  V30 18637 H 1774.7 -0.639151 -0.179949 0
M  V30 18638 H 1777.23 -2.04471 0.0727403 0
M  V30 18639 H 1777.24 -3.69236 -1.73577 0
M  V30 18640 H 1775.91 -4.10625 -0.660305 0
M  V30 18641 H 1774.49 -3.0448 -2.15282 0
M  V30 18642 N 1776.68 0.257904 -1.55475 0
M  V30 18643 C 1778.09 0.82782 -1.67344 0
M  V30 18644 C 1778.44 1.8646 -0.610494 0
M  V30 18645 O 1777.56 2.15005 0.245275 0
M  V30 18646 C 1778.16 1.5083 -3.03374 0
M  V30 18647 C 1776.72 2.02605 -3.17219 0
M  V30 18648 C 1775.86 0.873303 -2.63189 0
M  V30 18649 H 1778.82 0.0339334 -1.58664 0
M  V30 18650 H 1778.84 2.3759 -2.97205 0
M  V30 18651 H 1778.35 0.753469 -3.80716 0
M  V30 18652 H 1776.45 2.81002 -2.4468 0
M  V30 18653 H 1776.56 2.23099 -4.23985 0
M  V30 18654 H 1774.93 1.27082 -2.20731 0
M  V30 18655 H 1775.71 0.131739 -3.43047 0
M  V30 18656 O 1778.19 1.56375 0.403605 0
M  V30 18657 H 1778.88 1.62384 1.05599 0
M  V30 END ATOM
M  V30 BEGIN BOND
M  V30 END BOND
M  V30 END CTAB
M  END
$$$$
