drugbank_target|P04531 Deoxynucleotide monophosphate kinase (DB03661; DB04457)
 OpenBabel12092120023D

  0  0  0     0  0            999 V3000
M  V30 BEGIN CTAB
M  V30 COUNTS 3828 3866 0 0 0
M  V30 BEGIN ATOM
M  V30 1 H -0.908 1.98254 -0.117106 0
M  V30 2 N 0 1.576 0 0
M  V30 3 C 0.933 2.03868 1.02534 0
M  V30 4 C 1.911 0.928543 1.3348 0
M  V30 5 O 3.095 1.19667 1.45644 0
M  V30 6 C 0.222 2.43627 2.35294 0
M  V30 7 C -0.732 3.65373 2.2001 0
M  V30 8 S 0.101 5.13292 1.52614 0
M  V30 9 C 1.257 5.56322 2.86805 0
M  V30 10 H 1.49 2.90518 0.631377 0
M  V30 11 H -0.977 1.52953 0.210867 0
M  V30 12 H 0.981 2.67203 3.11629 0
M  V30 13 H -0.358 1.57376 2.7183 0
M  V30 14 H -1.165 3.90944 3.18086 0
M  V30 15 H -1.563 3.418 1.51819 0
M  V30 16 H 0.729 5.58782 3.83104 0
M  V30 17 H 1.672 6.56266 2.65933 0
M  V30 18 H 2.08 4.83886 2.90714 0
M  V30 19 N 1.4781 -0.272755 1.55222 0
M  V30 20 C 2.4251 -1.33716 1.88119 0
M  V30 21 C 3.3951 -1.49066 0.73271 0
M  V30 22 O 4.5801 -1.63469 0.984002 0
M  V30 23 C 1.7201 -2.69238 2.15882 0
M  V30 24 C 0.8331 -2.62108 3.43399 0
M  V30 25 C -0.0319 -3.89811 3.60861 0
M  V30 26 C -0.9929 -3.77193 4.8207 0
M  V30 27 N -1.8559 -4.9673 4.96189 0
M  V30 28 H 2.9841 -1.04962 2.78903 0
M  V30 29 H 0.5211 -0.507088 1.38083 0
M  V30 30 H 2.4791 -3.48089 2.29978 0
M  V30 31 H 1.1091 -2.96194 1.28331 0
M  V30 32 H 0.1611 -1.74967 3.37773 0
M  V30 33 H 1.4731 -2.48685 4.32386 0
M  V30 34 H 0.6271 -4.77103 3.74777 0
M  V30 35 H -0.6339 -4.06102 2.7006 0
M  V30 36 H -1.6289 -2.88284 4.68159 0
M  V30 37 H -0.4039 -3.62421 5.74307 0
M  V30 38 H -2.4579 -5.13431 4.08319 0
M  V30 39 H -2.5409 -4.85839 5.79221 0
M  V30 40 H -1.2729 -5.85594 5.1449 0
M  V30 41 N 2.9562 -1.48159 -0.537278 0
M  V30 42 C 3.8862 -1.65029 -1.6519 0
M  V30 43 C 4.8672 -0.499281 -1.62607 0
M  V30 44 O 6.0522 -0.730972 -1.79918 0
M  V30 45 C 3.1822 -1.68303 -3.03795 0
M  V30 46 C 2.1362 -2.8283 -3.21234 0
M  V30 47 C 1.4622 -2.71189 -4.60826 0
M  V30 48 C 2.7622 -4.24211 -3.04701 0
M  V30 49 H 4.4562 -2.58341 -1.51328 0
M  V30 50 H 2.0022 -1.24325 -0.726585 0
M  V30 51 H 3.9552 -1.78693 -3.81637 0
M  V30 52 H 2.6792 -0.715635 -3.18663 0
M  V30 53 H 1.3382 -2.71983 -2.45807 0
M  V30 54 H 0.9862 -1.72435 -4.7252 0
M  V30 55 H 0.6862 -3.48035 -4.7344 0
M  V30 56 H 2.2102 -2.83537 -5.40777 0
M  V30 57 H 3.6242 -4.3593 -3.72341 0
M  V30 58 H 2.0212 -5.01998 -3.28813 0
M  V30 59 H 3.0912 -4.41184 -2.01209 0
M  V30 60 N 4.4343 0.785586 -1.36625 0
M  V30 61 C 5.6833 1.53883 -1.30396 0
M  V30 62 C 5.9963 1.95271 0.113452 0
M  V30 63 O 7.2023 2.69858 0.298142 0
M  V30 64 C 5.6583 2.77808 -2.28802 0
M  V30 65 C 5.2663 2.43574 -3.75999 0
M  V30 66 C 7.0103 3.55783 -2.31558 0
M  V30 67 C 4.9173 3.63919 -4.66173 0
M  V30 68 H 3.8473 0.577678 -0.484566 0
M  V30 69 H 6.4983 0.861705 -1.62009 0
M  V30 70 H 4.8803 3.47339 -1.90188 0
M  V30 71 H 6.0543 1.81916 -4.23371 0
M  V30 72 H 4.3693 1.78803 -3.76056 0
M  V30 73 H 6.9663 4.45205 -2.96137 0
M  V30 74 H 7.3093 3.94644 -1.3252 0
M  V30 75 H 7.8423 2.93235 -2.68809 0
M  V30 76 H 4.5813 3.3015 -5.66287 0
M  V30 77 H 4.1013 4.2473 -4.23515 0
M  V30 78 H 5.7803 4.30901 -4.82632 0
M  V30 79 N 5.9124 1.20967 1.01018 0
M  V30 80 C 7.1594 1.02374 1.74716 0
M  V30 81 C 7.4874 -0.443375 1.89379 0
M  V30 82 O 6.7424 -1.34535 1.42123 0
M  V30 83 C 7.0414 1.65997 3.16512 0
M  V30 84 C 6.7074 3.15831 3.2181 0
M  V30 85 C 5.3694 3.56719 3.22963 0
M  V30 86 C 7.7214 4.11816 3.19464 0
M  V30 87 C 5.0494 4.92107 3.19449 0
M  V30 88 C 7.4014 5.47158 3.17491 0
M  V30 89 C 6.0654 5.87451 3.16951 0
M  V30 90 H 5.3354 0.374614 0.639332 0
M  V30 91 H 7.9824 1.50485 1.18434 0
M  V30 92 H 6.2874 1.10166 3.75993 0
M  V30 93 H 7.9844 1.49119 3.72242 0
M  V30 94 H 4.5744 2.83263 3.21652 0
M  V30 95 H 8.7584 3.81257 3.17737 0
M  V30 96 H 4.0144 5.22579 3.17366 0
M  V30 97 H 8.1884 6.21274 3.14629 0
M  V30 98 H 5.8154 6.92329 3.13983 0
M  V30 99 N 7.3905 -1.2043 1.01659 0
M  V30 100 C 8.3205 -2.25466 0.607226 0
M  V30 101 C 9.3015 -1.65853 -0.377716 0
M  V30 102 O 10.4865 -1.92409 -0.263149 0
M  V30 103 C 7.6165 -3.47256 -0.0552949 0
M  V30 104 C 6.5705 -4.19462 0.850632 0
M  V30 105 C 5.8965 -5.34673 0.0538859 0
M  V30 106 C 7.1965 -4.75603 2.15868 0
M  V30 107 H 8.8905 -2.59962 1.48526 0
M  V30 108 H 6.4365 -1.2496 0.715605 0
M  V30 109 H 8.3895 -4.19917 -0.353233 0
M  V30 110 H 7.1135 -3.11924 -0.968045 0
M  V30 111 H 5.7725 -3.48667 1.13257 0
M  V30 112 H 5.4205 -4.95585 -0.860514 0
M  V30 113 H 5.1205 -5.83913 0.657192 0
M  V30 114 H 6.6445 -6.10138 -0.237598 0
M  V30 115 H 8.0585 -5.40083 1.92311 0
M  V30 116 H 6.4555 -5.3528 2.71284 0
M  V30 117 H 7.5255 -3.94346 2.82169 0
M  V30 118 N 8.8686 -0.792821 -1.36206 0
M  V30 119 C 10.0936 -0.377701 -2.03932 0
M  V30 120 C 10.5186 0.998947 -1.59382 0
M  V30 121 O 9.8766 1.64421 -0.763903 0
M  V30 122 C 9.9246 -0.453635 -3.57735 0
M  V30 123 O 9.0286 0.538151 -4.08874 0
M  V30 124 H 8.3696 -0.159855 -0.644471 0
M  V30 125 H 10.8996 -1.07488 -1.7409 0
M  V30 126 H 10.9096 -0.318464 -4.06755 0
M  V30 127 H 9.5846 -1.45784 -3.89512 0
M  V30 128 H 8.1616 0.364359 -3.71116 0
M  V30 129 N 10.3467 1.47872 -0.545128 0
M  V30 130 C 11.5947 2.02093 -0.016553 0
M  V30 131 C 11.9157 1.42305 1.3332 0
M  V30 132 O 11.1857 0.593853 1.86682 0
M  V30 133 H 9.7657 0.746993 -0.00313038 0
M  V30 134 H 12.4277 1.81414 -0.712397 0
M  V30 135 H 11.5237 3.11996 0.0805422 0
M  V30 136 N 11.8248 0.280983 1.55075 0
M  V30 137 C 13.0708 -0.33461 2.00021 0
M  V30 138 C 13.4038 -1.55063 1.16915 0
M  V30 139 O 12.6788 -1.93006 0.240646 0
M  V30 140 C 12.9618 -0.711007 3.53011 0
M  V30 141 C 12.8148 0.512766 4.46868 0
M  V30 142 C 14.1338 -1.54522 4.12081 0
M  V30 143 H 11.2528 -0.120147 0.727141 0
M  V30 144 H 13.8948 0.389097 1.85973 0
M  V30 145 H 12.0448 -1.32761 3.65112 0
M  V30 146 H 13.7168 1.15131 4.46702 0
M  V30 147 H 11.9598 1.14975 4.18286 0
M  V30 148 H 12.6308 0.205556 5.51617 0
M  V30 149 H 15.1068 -1.02442 4.03293 0
M  V30 150 H 13.9828 -1.77739 5.19327 0
M  V30 151 H 14.2438 -2.52813 3.62682 0
M  V30 152 N 13.3029 -1.57598 0.00835791 0
M  V30 153 C 14.2499 -2.08945 -0.980346 0
M  V30 154 C 15.2199 -0.986738 -1.33614 0
M  V30 155 O 16.4049 -1.25968 -1.43306 0
M  V30 156 C 13.5449 -2.60425 -2.26435 0
M  V30 157 C 12.6579 -3.84628 -1.96685 0
M  V30 158 C 11.7929 -4.24579 -3.19228 0
M  V30 159 C 10.8319 -5.41596 -2.85202 0
M  V30 160 N 9.9689 -5.768 -4.00307 0
M  V30 161 H 14.8089 -2.93148 -0.535551 0
M  V30 162 H 12.3459 -1.44912 -0.252776 0
M  V30 163 H 14.3039 -2.88354 -3.01509 0
M  V30 164 H 12.9339 -1.79083 -2.68568 0
M  V30 165 H 11.9859 -3.63556 -1.11942 0
M  V30 166 H 13.2979 -4.69796 -1.67611 0
M  V30 167 H 12.4519 -4.53834 -4.02641 0
M  V30 168 H 11.1909 -3.38137 -3.51447 0
M  V30 169 H 10.1959 -5.12056 -2.00198 0
M  V30 170 H 11.4209 -6.29721 -2.54222 0
M  V30 171 H 9.3669 -4.93316 -4.32407 0
M  V30 172 H 9.2839 -6.5656 -3.74786 0
M  V30 173 H 10.5519 -6.10652 -4.84484 0
M  V30 174 N 14.781 0.264519 -1.55364 0
M  V30 175 C 16.197 0.61215 -1.47394 0
M  V30 176 C 16.397 1.89134 -0.695018 0
M  V30 177 O 15.453 2.51563 -0.217275 0
M  V30 178 C 16.766 0.731235 -2.91674 0
M  V30 179 C 18.314 0.82473 -3.01939 0
M  V30 180 C 18.789 0.975522 -4.4749 0
M  V30 181 N 20.28 1.04083 -4.51354 0
M  V30 182 C 21.015 1.17646 -5.61201 0
M  V30 183 N 20.511 1.27874 -6.80896 0
M  V30 184 N 22.304 1.20823 -5.48961 0
M  V30 185 H 14.455 -0.575456 -2.04456 0
M  V30 186 H 16.718 -0.196099 -0.927496 0
M  V30 187 H 16.424 -0.138392 -3.51428 0
M  V30 188 H 16.298 1.60883 -3.41169 0
M  V30 189 H 18.685 1.68482 -2.42276 0
M  V30 190 H 18.766 -0.0776479 -2.55682 0
M  V30 191 H 18.41 0.120058 -5.07758 0
M  V30 192 H 18.34 1.89268 -4.91412 0
M  V30 193 H 20.831 0.973846 -3.65136 0
M  V30 194 H 21.144 1.38081 -7.60364 0
M  V30 195 H 19.489 1.24863 -6.83692 0
M  V30 196 H 22.68 1.12469 -4.54388 0
M  V30 197 H 22.853 1.31049 -6.3461 0
M  V30 198 N 16.2591 1.48442 0.529413 0
M  V30 199 C 17.4841 1.60406 1.31471 0
M  V30 200 C 17.9091 0.264738 1.86228 0
M  V30 201 O 17.2671 -0.763668 1.64432 0
M  V30 202 C 17.3151 2.65419 2.44101 0
M  V30 203 O 16.4191 2.22618 3.47153 0
M  V30 204 H 15.7601 0.537863 0.389357 0
M  V30 205 H 18.2901 1.94432 0.636965 0
M  V30 206 H 18.3001 2.86709 2.90279 0
M  V30 207 H 16.9751 3.62652 2.03608 0
M  V30 208 H 15.5521 2.11543 3.0709 0
M  V30 209 N 17.7372 -0.778329 1.37039 0
M  V30 210 C 18.9852 -1.53361 1.31623 0
M  V30 211 C 19.3062 -1.94739 -0.100831 0
M  V30 212 O 18.5762 -1.65797 -1.04347 0
M  V30 213 H 17.1562 -0.568794 0.484234 0
M  V30 214 H 19.8182 -0.926742 1.71457 0
M  V30 215 H 18.9142 -2.43606 1.95096 0
M  V30 216 N 19.2153 -1.21501 -1.00376 0
M  V30 217 C 20.1623 -0.975387 -2.09177 0
M  V30 218 C 21.1323 0.0990615 -1.65804 0
M  V30 219 O 22.3173 -0.0483147 -1.90739 0
M  V30 220 C 19.4573 -0.547507 -3.40729 0
M  V30 221 C 18.5703 -1.69153 -3.97506 0
M  V30 222 C 17.7053 -1.2127 -5.17172 0
M  V30 223 C 16.7443 -2.32897 -5.66061 0
M  V30 224 N 15.8813 -1.86138 -6.76976 0
M  V30 225 H 20.7213 -1.9068 -2.29009 0
M  V30 226 H 18.2583 -0.950257 -1.12288 0
M  V30 227 H 20.2163 -0.280667 -4.16255 0
M  V30 228 H 18.8463 0.346904 -3.20931 0
M  V30 229 H 17.8983 -2.07298 -3.18954 0
M  V30 230 H 19.2103 -2.5316 -4.29781 0
M  V30 231 H 18.3643 -0.902591 -5.99948 0
M  V30 232 H 17.1033 -0.342692 -4.86495 0
M  V30 233 H 16.1083 -2.64709 -4.81881 0
M  V30 234 H 17.3333 -3.20396 -5.98768 0
M  V30 235 H 15.2793 -1.01484 -6.48103 0
M  V30 236 H 15.1963 -2.63717 -7.08512 0
M  V30 237 H 16.4643 -1.58165 -7.63285 0
M  V30 238 N 20.6934 1.19889 -1.02296 0
M  V30 239 C 21.9704 1.85148 -0.630832 0
M  V30 240 C 22.3504 1.91385 0.890782 0
M  V30 241 O 21.6984 1.42642 1.78509 0
M  V30 242 C 21.9084 3.24442 -1.28602 0
M  V30 243 C 23.2564 4.00663 -1.4055 0
M  V30 244 O 24.2804 3.33818 -1.24273 0
M  V30 245 O 23.1394 5.20387 -1.66913 0
M  V30 246 H 20.2334 0.797613 -0.218499 0
M  V30 247 H 22.7794 1.27427 -1.12074 0
M  V30 248 H 21.5514 3.14704 -2.32545 0
M  V30 249 H 21.1744 3.89802 -0.7836 0
M  V30 250 N 22.1715 0.800033 1.35784 0
M  V30 251 C 23.3995 0.389606 2.03199 0
M  V30 252 C 23.8145 -0.997375 1.60306 0
M  V30 253 O 23.1715 -1.64154 0.797481 0
M  V30 254 C 23.2225 0.455855 3.58614 0
M  V30 255 O 22.9435 1.78815 3.99946 0
M  V30 256 C 24.4445 0.0374032 4.43284 0
M  V30 257 H 21.6645 0.159132 0.651857 0
M  V30 258 H 24.2085 1.08183 1.73541 0
M  V30 259 H 22.3635 -0.188057 3.86943 0
M  V30 260 H 22.7775 1.74636 4.94573 0
M  V30 261 H 24.2515 0.134882 5.51835 0
M  V30 262 H 24.7285 -1.01651 4.27275 0
M  V30 263 H 25.3345 0.654215 4.20238 0
M  V30 264 N 23.6496 -1.47581 0.552962 0
M  V30 265 C 24.8776 -2.06875 0.0320556 0
M  V30 266 C 25.2926 -1.40625 -1.25976 0
M  V30 267 O 24.6496 -0.501349 -1.75479 0
M  V30 268 C 24.7006 -3.61092 -0.17167 0
M  V30 269 O 24.4216 -4.24858 1.06899 0
M  V30 270 C 25.9226 -4.37242 -0.730344 0
M  V30 271 H 23.1426 -0.669561 0.043915 0
M  V30 272 H 25.6866 -1.89646 0.765163 0
M  V30 273 H 23.8416 -3.7785 -0.854894 0
M  V30 274 H 24.2556 -5.17334 0.864059 0
M  V30 275 H 25.7296 -5.45842 -0.822203 0
M  V30 276 H 26.2066 -4.03235 -1.74064 0
M  V30 277 H 26.8126 -4.25219 -0.0829543 0
M  V30 278 N 25.1277 -0.289203 -1.54924 0
M  V30 279 C 26.0907 0.579144 -2.21762 0
M  V30 280 C 27.0907 1.07047 -1.1999 0
M  V30 281 O 28.2807 0.968384 -1.44803 0
M  V30 282 C 25.4127 1.80055 -2.8947 0
M  V30 283 H 26.6057 -0.00464908 -2.999 0
M  V30 284 H 24.1587 -0.0399306 -1.56249 0
M  V30 285 H 24.8937 2.42449 -2.15381 0
M  V30 286 H 24.6787 1.45602 -3.64064 0
M  V30 287 H 26.1687 2.41773 -3.40493 0
M  V30 288 N 26.6058 1.57591 -0.0167156 0
M  V30 289 C 27.8828 1.82547 0.702564 0
M  V30 290 C 28.2628 0.898018 1.91047 0
M  V30 291 O 27.6108 -0.0493456 2.28447 0
M  V30 292 C 27.8208 3.31459 1.09251 0
M  V30 293 C 29.1688 3.97622 1.48937 0
M  V30 294 O 30.1928 3.35881 1.18584 0
M  V30 295 O 29.0518 5.06415 2.05442 0
M  V30 296 H 26.1458 0.752268 0.343544 0
M  V30 297 H 28.6918 1.69644 -0.0434495 0
M  V30 298 H 27.4638 3.9061 0.23227 0
M  V30 299 H 27.0868 3.49422 1.89709 0
M  V30 300 N 28.0839 -0.256276 1.55502 0
M  V30 301 C 29.3309 -0.985619 1.76895 0
M  V30 302 C 29.6589 -1.85671 0.579355 0
M  V30 303 O 28.9139 -1.90744 -0.437651 0
M  V30 304 C 29.2129 -1.88432 3.03691 0
M  V30 305 C 28.8789 -1.16936 4.35473 0
M  V30 306 C 27.5409 -0.97173 4.71286 0
M  V30 307 C 29.8929 -0.661889 5.1698 0
M  V30 308 C 27.2209 -0.254179 5.86149 0
M  V30 309 C 29.5729 0.042149 6.32586 0
M  V30 310 C 28.2369 0.25134 6.67027 0
M  V30 311 H 27.5069 -0.360663 0.647304 0
M  V30 312 H 30.1539 -0.256483 1.89775 0
M  V30 313 H 28.4589 -2.68021 2.85783 0
M  V30 314 H 30.1559 -2.45015 3.1744 0
M  V30 315 H 26.7459 -1.33332 4.07333 0
M  V30 316 H 30.9299 -0.802145 4.89775 0
M  V30 317 H 26.1859 -0.0815408 6.11346 0
M  V30 318 H 30.3599 0.443049 6.94989 0
M  V30 319 H 27.9869 0.809314 7.5588 0
M  V30 320 N 29.562 -1.4872 -0.521534 0
M  V30 321 C 30.811 -1.56419 -1.27341 0
M  V30 322 C 31.124 -0.246805 -1.94037 0
M  V30 323 O 32.33 -0.202122 -2.70747 0
M  V30 324 C 30.786 -2.75896 -2.31105 0
M  V30 325 C 30.394 -4.14311 -1.70441 0
M  V30 326 C 32.138 -2.92913 -3.07249 0
M  V30 327 C 30.045 -5.25038 -2.72194 0
M  V30 328 H 28.975 -0.582344 -0.478949 0
M  V30 329 H 31.626 -1.75071 -0.549779 0
M  V30 330 H 30.008 -2.50697 -3.06541 0
M  V30 331 H 31.182 -4.49564 -1.01136 0
M  V30 332 H 29.497 -4.02482 -1.06759 0
M  V30 333 H 32.094 -3.72805 -3.83302 0
M  V30 334 H 32.437 -2.02689 -3.63625 0
M  V30 335 H 32.97 -3.18054 -2.38928 0
M  V30 336 H 29.709 -6.17255 -2.20627 0
M  V30 337 H 29.229 -4.94263 -3.39801 0
M  V30 338 H 30.908 -5.53508 -3.35019 0
M  V30 339 N 31.0401 0.771051 -1.3745 0
M  V30 340 C 31.9731 1.89166 -1.27638 0
M  V30 341 C 32.9511 1.61842 -0.156782 0
M  V30 342 O 34.1351 1.85569 -0.331111 0
M  V30 343 C 31.2621 3.24405 -0.973621 0
M  V30 344 C 30.3081 3.70638 -2.1102 0
M  V30 345 S 31.1411 3.84228 -3.73 0
M  V30 346 C 32.2971 5.22313 -3.44876 0
M  V30 347 H 32.5301 1.972 -2.22485 0
M  V30 348 H 30.0631 0.932224 -1.23081 0
M  V30 349 H 32.0211 4.02514 -0.805766 0
M  V30 350 H 30.6821 3.14071 -0.0426279 0
M  V30 351 H 29.8751 4.68685 -1.85338 0
M  V30 352 H 29.4771 2.99632 -2.23822 0
M  V30 353 H 31.7691 6.07505 -2.99908 0
M  V30 354 H 32.7121 5.53008 -4.42253 0
M  V30 355 H 33.1201 4.90284 -2.79789 0
M  V30 356 N 32.5182 1.22032 0.997298 0
M  V30 357 C 33.7432 1.06921 1.77715 0
M  V30 358 C 34.1682 -0.376226 1.84299 0
M  V30 359 O 33.5262 -1.27165 1.29223 0
M  V30 360 C 33.5742 1.67996 3.19076 0
M  V30 361 O 32.6782 0.930653 4.01762 0
M  V30 362 H 32.0192 0.375814 0.547412 0
M  V30 363 H 34.5492 1.61737 1.25309 0
M  V30 364 H 34.5592 1.72538 3.69723 0
M  V30 365 H 33.2342 2.73182 3.13599 0
M  V30 366 H 31.8112 0.960917 3.60307 0
M  V30 367 N 33.9963 -1.19345 1.0293 0
M  V30 368 C 34.9443 -2.24621 0.604001 0
M  V30 369 C 35.9383 -1.65452 -0.363587 0
M  V30 370 O 37.1443 -1.78497 -0.23212 0
M  V30 371 H 33.5193 -0.730858 0.177061 0
M  V30 372 H 35.4903 -2.5781 1.50255 0
M  V30 373 C 34.2393 -3.47688 -0.0289127 0
M  V30 374 H 33.5623 -3.93505 0.706651 0
M  V30 375 H 35.0023 -4.23011 -0.289432 0
M  V30 376 C 33.4613 -3.11817 -1.2756 0
M  V30 377 O 33.9913 -3.2451 -2.36762 0
M  V30 378 N 32.1973 -2.66246 -1.16453 0
M  V30 379 H 31.7443 -2.56118 -0.275914 0
M  V30 380 H 31.7023 -2.42617 -1.99961 0
M  V30 381 N 35.4744 -0.807222 -1.35358 0
M  V30 382 C 36.7044 -0.399796 -2.02695 0
M  V30 383 C 37.1124 0.994176 -1.60974 0
M  V30 384 O 36.4554 1.65209 -0.803226 0
M  V30 385 C 36.5174 -0.404445 -3.57218 0
M  V30 386 C 36.1814 -1.74904 -4.22206 0
M  V30 387 C 37.1784 -2.70743 -4.4384 0
M  V30 388 C 34.8634 -2.03322 -4.5931 0
M  V30 389 C 36.8574 -3.93183 -5.01683 0
M  V30 390 C 34.5444 -3.26026 -5.16866 0
M  V30 391 C 35.5424 -4.20774 -5.37994 0
M  V30 392 O 35.2304 -5.41312 -5.94337 0
M  V30 393 H 34.9624 -0.160517 -0.656666 0
M  V30 394 H 37.5164 -1.09235 -1.73945 0
M  V30 395 H 35.7464 0.344707 -3.85161 0
M  V30 396 H 37.4354 -0.0192429 -4.05895 0
M  V30 397 H 38.2014 -2.5008 -4.15554 0
M  V30 398 H 34.0804 -1.30384 -4.42178 0
M  V30 399 H 37.6244 -4.6715 -5.1809 0
M  V30 400 H 33.5214 -3.46559 -5.44579 0
M  V30 401 H 34.2894 -5.42618 -6.12787 0
M  V30 402 N 36.9525 1.47285 -0.560781 0
M  V30 403 C 38.1775 2.07359 -0.0410566 0
M  V30 404 C 38.6025 1.41017 1.24483 0
M  V30 405 O 37.9605 0.486368 1.74654 0
M  V30 406 C 38.0085 3.6035 0.134123 0
M  V30 407 O 37.1125 3.94681 1.19587 0
M  V30 408 H 36.4535 0.661887 -0.0529291 0
M  V30 409 H 38.9835 1.89252 -0.777482 0
M  V30 410 H 38.9935 4.0652 0.347207 0
M  V30 411 H 37.6685 4.08034 -0.805047 0
M  V30 412 H 36.2455 3.60251 0.962987 0
M  V30 413 N 38.4306 0.297415 1.54768 0
M  V30 414 C 39.3936 -0.567375 2.22066 0
M  V30 415 C 40.3936 -1.06409 1.20556 0
M  V30 416 O 41.5836 -0.960691 1.45315 0
M  V30 417 C 38.7156 -1.78517 2.90421 0
M  V30 418 H 39.9086 0.0205534 2.99893 0
M  V30 419 H 37.4616 0.0482163 1.56226 0
M  V30 420 H 38.1966 -2.41303 2.16664 0
M  V30 421 H 37.9816 -1.43669 3.64831 0
M  V30 422 H 39.4716 -2.39964 3.41771 0
M  V30 423 N 39.9087 -1.5758 0.0250728 0
M  V30 424 C 41.1547 -1.91917 -0.655413 0
M  V30 425 C 41.4877 -0.901433 -1.72011 0
M  V30 426 O 40.7627 0.0764069 -1.9435 0
M  V30 427 C 41.0457 -3.36751 -1.27558 0
M  V30 428 C 40.8987 -4.49258 -0.220719 0
M  V30 429 C 42.2177 -3.81469 -2.19475 0
M  V30 430 H 39.3367 -0.697925 -0.23679 0
M  V30 431 H 41.9787 -1.89825 0.0815036 0
M  V30 432 H 40.1287 -3.38664 -1.90365 0
M  V30 433 H 41.8007 -4.59478 0.409601 0
M  V30 434 H 40.0437 -4.31415 0.454264 0
M  V30 435 H 40.7147 -5.47618 -0.694175 0
M  V30 436 H 43.1907 -3.81266 -1.66659 0
M  V30 437 H 42.0667 -4.83512 -2.59822 0
M  V30 438 H 42.3277 -3.16744 -3.08424 0
M  V30 439 N 41.3868 0.248026 -1.55636 0
M  V30 440 C 42.3338 1.30707 -1.90222 0
M  V30 441 C 43.3038 1.47881 -0.756332 0
M  V30 442 O 44.4888 1.61883 -1.00988 0
M  V30 443 C 41.6288 2.65769 -2.20138 0
M  V30 444 C 40.7418 2.56612 -3.47526 0
M  V30 445 C 39.8768 3.8402 -3.67017 0
M  V30 446 C 38.9158 3.69476 -4.8801 0
M  V30 447 N 38.0528 4.88774 -5.04029 0
M  V30 448 H 42.8928 1.00512 -2.80538 0
M  V30 449 H 40.4298 0.485055 -1.38873 0
M  V30 450 H 42.3878 3.44386 -2.35487 0
M  V30 451 H 41.0178 2.94115 -1.33027 0
M  V30 452 H 40.0698 1.69571 -3.40514 0
M  V30 453 H 41.3818 2.41774 -4.36287 0
M  V30 454 H 40.5358 4.7108 -3.8232 0
M  V30 455 H 39.2748 4.01754 -2.76487 0
M  V30 456 H 38.2798 2.80799 -4.72686 0
M  V30 457 H 39.5048 3.53238 -5.8 0
M  V30 458 H 37.4508 5.0687 -4.16435 0
M  V30 459 H 37.3678 4.76562 -5.86877 0
M  V30 460 H 38.6358 5.77335 -5.23741 0
M  V30 461 N 42.8649 1.48995 0.513639 0
M  V30 462 C 44.0949 1.61297 1.291 0
M  V30 463 C 44.5029 0.278656 1.87137 0
M  V30 464 O 43.8459 -0.744325 1.67945 0
M  V30 465 C 43.9079 2.61326 2.46879 0
M  V30 466 C 43.5719 4.05993 2.09807 0
M  V30 467 C 44.5689 4.93183 1.64519 0
M  V30 468 C 42.2539 4.51642 2.19829 0
M  V30 469 C 44.2479 6.24056 1.2974 0
M  V30 470 C 41.9349 5.82532 1.84662 0
M  V30 471 C 42.9329 6.68562 1.3969 0
M  V30 472 O 42.6209 7.97014 1.04992 0
M  V30 473 H 42.3529 0.546236 0.39825 0
M  V30 474 H 44.9069 1.95673 0.62459 0
M  V30 475 H 43.1369 2.22104 3.16554 0
M  V30 476 H 44.8259 2.6329 3.08923 0
M  V30 477 H 45.5919 4.59147 1.56233 0
M  V30 478 H 41.4709 3.84855 2.53786 0
M  V30 479 H 45.0149 6.91161 0.945659 0
M  V30 480 H 40.9119 6.16099 1.92594 0
M  V30 481 H 41.6799 8.09913 1.18249 0
M  V30 482 N 44.343 -0.763751 1.37857 0
M  V30 483 C 45.275 -1.88664 1.30148 0
M  V30 484 C 46.288 -1.61365 0.215685 0
M  V30 485 O 47.477 -1.72134 0.472459 0
M  V30 486 C 44.577 -3.24075 0.991396 0
M  V30 487 C 43.75 -3.78958 2.18426 0
M  V30 488 C 42.809 -4.92862 1.8432 0
M  V30 489 O 41.835 -5.08027 2.56704 0
M  V30 490 N 43.037 -5.75071 0.792081 0
M  V30 491 H 45.802 -1.95791 2.26905 0
M  V30 492 H 43.363 -0.943226 1.31586 0
M  V30 493 H 45.355 -3.97804 0.743935 0
M  V30 494 H 43.925 -3.12399 0.112122 0
M  V30 495 H 43.145 -2.96913 2.59299 0
M  V30 496 H 44.433 -4.12357 2.98058 0
M  V30 497 H 43.831 -5.65375 0.191595 0
M  V30 498 H 42.388 -6.48991 0.60449 0
M  V30 499 N 45.8211 -1.22559 -0.990812 0
M  V30 500 C 46.7511 -1.0218 -2.09956 0
M  V30 501 C 47.7321 0.0579394 -1.70001 0
M  V30 502 O 48.9171 -0.104684 -1.93918 0
M  V30 503 C 46.0471 -0.601023 -3.4206 0
M  V30 504 C 45.0011 -1.62694 -3.95872 0
M  V30 505 C 44.3271 -1.06193 -5.24049 0
M  V30 506 C 45.6271 -3.01743 -4.2632 0
M  V30 507 H 47.3211 -1.94916 -2.27262 0
M  V30 508 H 44.8671 -0.938566 -1.09211 0
M  V30 509 H 46.8201 -0.445561 -4.19038 0
M  V30 510 H 45.5441 0.362005 -3.24588 0
M  V30 511 H 44.2031 -1.77021 -3.21028 0
M  V30 512 H 43.8511 -0.0901903 -5.02919 0
M  V30 513 H 43.5511 -1.74732 -5.61019 0
M  V30 514 H 45.0751 -0.918092 -6.03658 0
M  V30 515 H 46.4891 -2.90777 -4.94087 0
M  V30 516 H 44.8861 -3.67425 -4.74467 0
M  V30 517 H 45.9561 -3.51518 -3.34011 0
M  V30 518 N 47.2992 1.18797 -1.03562 0
M  V30 519 C 48.2622 2.20464 -0.626769 0
M  V30 520 C 49.2622 1.57721 0.313173 0
M  V30 521 O 50.4522 1.73917 0.0992615 0
M  V30 522 C 47.5842 3.40802 0.0818498 0
M  V30 523 H 48.7772 2.58149 -1.5264 0
M  V30 524 H 46.3302 1.32593 -0.827578 0
M  V30 525 H 47.0652 3.08642 0.995518 0
M  V30 526 H 46.8502 3.8758 -0.593652 0
M  V30 527 H 48.3402 4.16092 0.354584 0
M  V30 528 N 48.7773 0.814389 1.34928 0
M  V30 529 C 50.0253 0.397636 1.9815 0
M  V30 530 C 50.3463 -1.04069 1.64908 0
M  V30 531 O 49.6163 -1.72121 0.93548 0
M  V30 532 H 48.1963 0.144043 0.732981 0
M  V30 533 H 50.8583 1.04195 1.6471 0
M  V30 534 H 49.9543 0.509688 3.0791 0
M  V30 535 N 50.2554 -1.46986 0.568584 0
M  V30 536 C 51.6664 -1.86188 0.138219 0
M  V30 537 C 52.0174 -1.47388 -1.29504 0
M  V30 538 O 51.1424 -0.88219 -1.97602 0
M  V30 539 C 51.7374 -3.3792 0.244065 0
M  V30 540 C 50.2964 -3.76171 -0.131335 0
M  V30 541 C 49.4434 -2.71027 0.586465 0
M  V30 542 H 52.3944 -1.38342 0.777645 0
M  V30 543 H 52.4154 -3.76729 -0.534351 0
M  V30 544 H 51.9274 -3.66128 1.28731 0
M  V30 545 H 50.0284 -3.5358 -1.17526 0
M  V30 546 H 50.1414 -4.78523 0.235146 0
M  V30 547 H 48.5054 -2.54684 0.0282722 0
M  V30 548 H 49.2884 -3.02077 1.63109 0
M  V30 549 N 51.7335 -0.305618 -1.54608 0
M  V30 550 C 52.9825 0.303098 -1.9941 0
M  V30 551 C 53.2955 1.54648 -1.19764 0
M  V30 552 O 54.5015 2.23007 -1.54855 0
M  V30 553 C 52.9575 0.590588 -3.55021 0
M  V30 554 C 52.5655 -0.634719 -4.43481 0
M  V30 555 C 54.3095 1.16025 -4.08336 0
M  V30 556 C 52.2165 -0.320126 -5.90533 0
M  V30 557 H 51.1465 0.117031 -0.744862 0
M  V30 558 H 53.7975 -0.415045 -1.78745 0
M  V30 559 H 52.1795 1.36845 -3.71604 0
M  V30 560 H 53.3535 -1.41079 -4.38672 0
M  V30 561 H 51.6685 -1.12333 -4.00962 0
M  V30 562 H 54.2655 1.40994 -5.15776 0
M  V30 563 H 54.6085 2.10397 -3.5922 0
M  V30 564 H 55.1415 0.443985 -3.95315 0
M  V30 565 H 51.8805 -1.23254 -6.43808 0
M  V30 566 H 51.4005 0.418579 -5.98338 0
M  V30 567 H 53.0795 0.0766241 -6.46955 0
M  V30 568 N 53.2116 1.57565 -0.0334293 0
M  V30 569 C 54.1586 2.10478 0.946981 0
M  V30 570 C 55.1286 1.00787 1.32027 0
M  V30 571 O 56.3136 1.28232 1.41284 0
M  V30 572 C 53.4536 2.63994 2.22263 0
M  V30 573 C 52.5666 3.87709 1.90541 0
M  V30 574 C 51.7016 4.29604 3.12433 0
M  V30 575 C 50.7406 5.46065 2.76549 0
M  V30 576 N 49.8776 5.83096 3.9108 0
M  V30 577 H 54.7176 2.93963 0.488846 0
M  V30 578 H 52.2546 1.45296 0.22969 0
M  V30 579 H 54.2126 2.93114 2.96884 0
M  V30 580 H 52.8426 1.83333 2.65685 0
M  V30 581 H 51.8946 3.65291 1.06144 0
M  V30 582 H 53.2066 4.72403 1.60116 0
M  V30 583 H 52.3606 4.60182 3.9537 0
M  V30 584 H 51.0996 3.43685 3.46023 0
M  V30 585 H 50.1046 5.15176 1.92026 0
M  V30 586 H 51.3296 6.33685 2.44171 0
M  V30 587 H 49.2756 5.00132 4.24504 0
M  V30 588 H 49.1926 6.6244 3.64293 0
M  V30 589 H 50.4606 6.18282 4.74708 0
M  V30 590 N 54.6897 -0.239769 1.55765 0
M  V30 591 C 55.9667 -0.990056 1.68693 0
M  V30 592 C 56.3467 -2.03107 0.5754 0
M  V30 593 O 55.6947 -2.24604 -0.42017 0
M  V30 594 C 55.9047 -1.61696 3.09282 0
M  V30 595 C 57.2527 -2.11613 3.6811 0
M  V30 596 O 58.2767 -1.71624 3.12127 0
M  V30 597 O 57.1357 -2.85057 4.66267 0
M  V30 598 H 54.2297 -0.461299 0.686391 0
M  V30 599 H 56.7757 -0.232991 1.68093 0
M  V30 600 H 55.5477 -0.864357 3.81634 0
M  V30 601 H 55.1707 -2.44005 3.13923 0
M  V30 602 N 56.1678 -1.49265 -0.50573 0
M  V30 603 C 57.1308 -1.65075 -1.59006 0
M  V30 604 C 58.1308 -0.522768 -1.52065 0
M  V30 605 O 59.3208 -0.789117 -1.55302 0
M  V30 606 C 56.4528 -1.64369 -2.98656 0
M  V30 607 H 57.6458 -2.61784 -1.46319 0
M  V30 608 H 55.1988 -1.38226 -0.729616 0
M  V30 609 H 55.9338 -0.692272 -3.16825 0
M  V30 610 H 55.7188 -2.46282 -3.05103 0
M  V30 611 H 57.2088 -1.78674 -3.77446 0
M  V30 612 N 57.6459 0.756429 -1.3826 0
M  V30 613 C 58.5759 1.88374 -1.37976 0
M  V30 614 C 59.5569 1.68311 -0.246082 0
M  V30 615 O 60.7419 1.88944 -0.44874 0
M  V30 616 C 57.8719 3.25864 -1.20125 0
M  V30 617 C 56.8259 3.60523 -2.30666 0
M  V30 618 C 56.1519 4.9672 -1.97923 0
M  V30 619 C 57.4519 3.65692 -3.72916 0
M  V30 620 H 59.1459 1.88869 -2.32312 0
M  V30 621 H 56.6919 0.907272 -1.11824 0
M  V30 622 H 58.6449 4.0438 -1.18552 0
M  V30 623 H 57.3689 3.25841 -0.222498 0
M  V30 624 H 56.0279 2.84324 -2.3142 0
M  V30 625 H 55.6759 4.93253 -0.985393 0
M  V30 626 H 55.3759 5.20878 -2.71955 0
M  V30 627 H 56.8999 5.77618 -1.97964 0
M  V30 628 H 58.3139 4.34328 -3.74208 0
M  V30 629 H 56.7109 4.01358 -4.4613 0
M  V30 630 H 57.7809 2.65987 -4.05436 0
M  V30 631 N 59.124 1.23083 0.984299 0
M  V30 632 C 60.087 1.00979 2.05757 0
M  V30 633 C 61.087 -0.0269573 1.60777 0
M  V30 634 O 62.277 0.212403 1.729 0
M  V30 635 C 59.409 0.527072 3.36801 0
M  V30 636 H 60.602 1.9622 2.26799 0
M  V30 637 H 58.155 1.05072 1.15714 0
M  V30 638 H 58.89 -0.429294 3.21446 0
M  V30 639 H 58.675 1.27515 3.70786 0
M  V30 640 H 60.165 0.392942 4.15747 0
M  V30 641 N 60.6021 -1.18246 1.0419 0
M  V30 642 C 61.8321 -1.91916 0.764961 0
M  V30 643 C 62.2401 -1.76485 -0.681898 0
M  V30 644 O 61.5831 -1.09275 -1.47664 0
M  V30 645 C 61.6451 -3.4373 1.05309 0
M  V30 646 C 61.3091 -3.8294 2.4941 0
M  V30 647 C 62.3061 -3.86621 3.47592 0
M  V30 648 C 59.9911 -4.142 2.84155 0
M  V30 649 C 61.9851 -4.21013 4.78568 0
M  V30 650 C 59.6721 -4.48262 4.15337 0
M  V30 651 C 60.6701 -4.51645 5.12353 0
M  V30 652 O 60.3581 -4.84911 6.41183 0
M  V30 653 H 60.0901 -0.61606 0.278292 0
M  V30 654 H 62.6441 -1.50947 1.39299 0
M  V30 655 H 60.8741 -3.84946 0.367933 0
M  V30 656 H 62.5631 -3.9865 0.763752 0
M  V30 657 H 63.3291 -3.62607 3.22089 0
M  V30 658 H 59.2081 -4.10743 2.09311 0
M  V30 659 H 62.7521 -4.23568 5.54289 0
M  V30 660 H 58.6491 -4.71737 4.40607 0
M  V30 661 H 59.4171 -5.02809 6.45852 0
M  V30 662 N 62.0802 -0.821533 -1.34494 0
M  V30 663 C 63.0432 -0.247847 -2.27856 0
M  V30 664 C 64.0432 0.573453 -1.50227 0
M  V30 665 O 65.2332 0.389759 -1.69784 0
M  V30 666 C 62.3652 0.652698 -3.34593 0
M  V30 667 H 63.5582 -1.07146 -2.80107 0
M  V30 668 H 61.1112 -0.593291 -1.44602 0
M  V30 669 H 61.8462 1.49943 -2.87555 0
M  V30 670 H 61.6312 0.065292 -3.92046 0
M  V30 671 H 63.1212 1.04793 -4.04238 0
M  V30 672 N 63.5583 1.46682 -0.576371 0
M  V30 673 C 64.8043 2.03287 -0.0679305 0
M  V30 674 C 65.1593 1.44063 1.27529 0
M  V30 675 O 64.4523 0.593973 1.82161 0
M  V30 676 C 64.6463 3.57345 0.062886 0
M  V30 677 C 64.4753 4.31509 -1.26611 0
M  V30 678 C 63.2453 4.70664 -1.83856 0
M  V30 679 C 65.4433 4.65444 -2.18783 0
M  V30 680 N 63.4253 5.29552 -3.10561 0
M  V30 681 C 64.7963 5.24835 -3.30072 0
M  V30 682 C 66.8513 4.47375 -2.18542 0
M  V30 683 C 65.5543 5.68063 -4.41244 0
M  V30 684 C 67.5803 4.91614 -3.28739 0
M  V30 685 C 66.9423 5.51071 -4.38748 0
M  V30 686 H 63.0413 0.779083 -0.0674836 0
M  V30 687 H 65.6253 1.78918 -0.767877 0
M  V30 688 H 63.7963 3.8144 0.731988 0
M  V30 689 H 65.5283 4.00592 0.575134 0
M  V30 690 H 62.2833 4.53224 -1.37424 0
M  V30 691 H 62.7073 5.63523 -3.75195 0
M  V30 692 H 67.3493 4.00747 -1.34765 0
M  V30 693 H 65.0673 6.13672 -5.25768 0
M  V30 694 H 68.6533 4.79389 -3.29662 0
M  V30 695 H 67.5333 5.84678 -5.22611 0
M  V30 696 N 65.0364 0.313813 1.54444 0
M  V30 697 C 66.2844 -0.291099 1.99993 0
M  V30 698 C 66.6054 -1.53418 1.20366 0
M  V30 699 O 65.8754 -1.93544 0.302927 0
M  V30 700 H 64.4554 -0.110552 0.738774 0
M  V30 701 H 67.1174 0.428106 1.9014 0
M  V30 702 H 66.2134 -0.554268 3.07139 0
M  V30 703 N 66.5145 -1.57545 0.0417849 0
M  V30 704 C 67.7605 -1.92601 -0.635021 0
M  V30 705 C 68.0935 -0.919627 -1.71045 0
M  V30 706 O 67.3685 0.0557892 -1.9442 0
M  V30 707 C 67.6515 -3.38085 -1.23979 0
M  V30 708 C 67.5045 -4.49467 -0.173057 0
M  V30 709 C 68.8235 -3.83776 -2.15416 0
M  V30 710 H 65.9425 -0.700397 -0.229374 0
M  V30 711 H 68.5845 -1.89728 0.101633 0
M  V30 712 H 66.7345 -3.40664 -1.86762 0
M  V30 713 H 68.4065 -4.59018 0.458312 0
M  V30 714 H 66.6495 -4.30909 0.499996 0
M  V30 715 H 67.3205 -5.48323 -0.636054 0
M  V30 716 H 69.7965 -3.83013 -1.62605 0
M  V30 717 H 68.6725 -4.8624 -2.54679 0
M  V30 718 H 68.9335 -3.19998 -3.05047 0
M  V30 719 N 67.9926 0.231505 -1.5589 0
M  V30 720 C 69.2396 0.957352 -1.78441 0
M  V30 721 C 69.5676 1.84726 -0.60882 0
M  V30 722 O 68.8226 1.91416 0.40725 0
M  V30 723 C 69.1216 1.83577 -3.0665 0
M  V30 724 C 68.7876 1.09993 -4.37278 0
M  V30 725 C 67.4496 0.896629 -4.72773 0
M  V30 726 C 69.8016 0.579558 -5.17968 0
M  V30 727 C 67.1296 0.160896 -5.86479 0
M  V30 728 C 69.4816 -0.142783 -6.32439 0
M  V30 729 C 68.1456 -0.357427 -6.66542 0
M  V30 730 H 67.4156 0.35032 -0.65296 0
M  V30 731 H 70.0626 0.226259 -1.90159 0
M  V30 732 H 68.3676 2.63441 -2.90011 0
M  V30 733 H 70.0646 2.39934 -3.21298 0
M  V30 734 H 66.6546 1.26835 -4.09403 0
M  V30 735 H 70.8386 0.724125 -4.90989 0
M  V30 736 H 66.0946 -0.0157293 -6.11398 0
M  V30 737 H 70.2686 -0.553559 -6.94196 0
M  V30 738 H 67.8956 -0.929466 -7.54497 0
M  V30 739 N 69.4707 1.49531 0.497807 0
M  V30 740 C 70.4337 1.65916 1.58128 0
M  V30 741 C 71.4337 0.530825 1.51786 0
M  V30 742 O 72.6237 0.797342 1.54881 0
M  V30 743 C 69.7557 1.65951 2.9778 0
M  V30 744 H 70.9487 2.62556 1.44929 0
M  V30 745 H 68.5017 1.38611 0.722275 0
M  V30 746 H 69.2367 0.709065 3.16453 0
M  V30 747 H 69.0217 2.47897 3.03792 0
M  V30 748 H 70.5117 1.80673 3.76493 0
M  V30 749 N 70.9488 -0.749086 1.3866 0
M  V30 750 C 71.9118 -1.84457 1.36045 0
M  V30 751 C 72.9118 -1.58682 0.260122 0
M  V30 752 O 74.1018 -1.66343 0.517261 0
M  V30 753 C 71.2338 -3.22008 1.11911 0
M  V30 754 H 72.4268 -1.88182 2.33512 0
M  V30 755 H 69.9798 -0.951266 1.24019 0
M  V30 756 H 70.7148 -3.2395 0.150686 0
M  V30 757 H 70.4998 -3.42111 1.91579 0
M  V30 758 H 71.9898 -4.0208 1.12788 0
M  V30 759 N 72.4269 -1.23603 -0.977757 0
M  V30 760 C 73.3749 -1.01704 -2.09187 0
M  V30 761 C 74.3689 0.0448214 -1.69341 0
M  V30 762 O 75.5749 -0.108902 -1.7967 0
M  V30 763 H 71.9499 -0.311803 -0.684312 0
M  V30 764 H 73.9209 -1.96207 -2.24823 0
M  V30 765 C 72.6699 -0.627746 -3.41986 0
M  V30 766 H 71.9929 -1.43656 -3.73099 0
M  V30 767 H 73.4329 -0.514053 -4.20872 0
M  V30 768 C 71.8919 0.664238 -3.30287 0
M  V30 769 O 72.4219 1.71268 -3.6336 0
M  V30 770 N 70.6279 0.641156 -2.83439 0
M  V30 771 H 70.1749 -0.212376 -2.56723 0
M  V30 772 H 70.1329 1.50583 -2.75993 0
M  V30 773 N 73.905 1.17692 -1.04816 0
M  V30 774 C 75.133 1.91786 -0.776254 0
M  V30 775 C 75.548 1.76604 0.667577 0
M  V30 776 O 74.905 1.10067 1.45573 0
M  V30 777 C 74.956 3.42967 -1.14263 0
M  V30 778 O 74.677 3.57678 -2.52978 0
M  V30 779 C 76.178 4.34144 -0.896311 0
M  V30 780 H 73.398 0.608624 -0.282519 0
M  V30 781 H 75.942 1.49268 -1.39783 0
M  V30 782 H 74.097 3.83245 -0.565874 0
M  V30 783 H 74.511 4.51319 -2.67229 0
M  V30 784 H 75.985 5.38744 -1.20244 0
M  V30 785 H 76.462 4.38876 0.168636 0
M  V30 786 H 77.068 3.99574 -1.45672 0
M  V30 787 N 75.3831 0.828654 1.34056 0
M  V30 788 C 76.6601 0.341809 1.9259 0
M  V30 789 C 77.0401 -1.17158 1.75605 0
M  V30 790 O 76.3881 -1.98132 1.13824 0
M  V30 791 C 76.5981 0.777453 3.4023 0
M  V30 792 C 77.9461 0.779579 4.17382 0
M  V30 793 O 78.9701 0.7204 3.48839 0
M  V30 794 O 77.8291 0.857996 5.39723 0
M  V30 795 H 74.9231 0.0946085 0.821571 0
M  V30 796 H 77.4691 0.913827 1.42994 0
M  V30 797 H 76.2411 1.8196 3.46419 0
M  V30 798 H 75.8641 0.181444 3.97186 0
M  V30 799 N 76.8612 -1.46375 0.584142 0
M  V30 800 C 78.0912 -2.06461 0.0758195 0
M  V30 801 C 78.4992 -1.43322 -1.23512 0
M  V30 802 O 77.8422 -0.533216 -1.75791 0
M  V30 803 C 77.9042 -3.59131 -0.162773 0
M  V30 804 C 77.5682 -4.4447 1.06279 0
M  V30 805 C 78.5652 -4.80918 1.97519 0
M  V30 806 C 76.2502 -4.85584 1.28504 0
M  V30 807 C 78.2442 -5.57309 3.09331 0
M  V30 808 C 75.9312 -5.61734 2.4062 0
M  V30 809 C 76.9292 -5.9751 3.30863 0
M  V30 810 O 76.6172 -6.72121 4.41032 0
M  V30 811 H 76.3492 -0.673745 0.0551725 0
M  V30 812 H 78.9032 -1.88969 0.804984 0
M  V30 813 H 77.1332 -3.74936 -0.946565 0
M  V30 814 H 78.8222 -4.0114 -0.619782 0
M  V30 815 H 79.5882 -4.49732 1.81565 0
M  V30 816 H 75.4672 -4.57187 0.591702 0
M  V30 817 H 79.0112 -5.85152 3.79793 0
M  V30 818 H 74.9082 -5.92334 2.56537 0
M  V30 819 H 75.6762 -6.90547 4.39417 0
M  V30 820 N 78.3393 -0.321999 -1.54275 0
M  V30 821 C 79.7503 0.166384 -1.85957 0
M  V30 822 C 80.1013 1.51747 -1.24367 0
M  V30 823 O 79.2263 2.09317 -0.549124 0
M  V30 824 C 79.8213 0.308681 -3.37391 0
M  V30 825 C 78.3803 0.741286 -3.69028 0
M  V30 826 C 77.5273 -0.137937 -2.76957 0
M  V30 827 H 80.4783 -0.542335 -1.49146 0
M  V30 828 H 80.4993 1.13984 -3.63026 0
M  V30 829 H 80.0113 -0.674809 -3.82188 0
M  V30 830 H 78.1123 1.73458 -3.29762 0
M  V30 831 H 78.2253 0.546118 -4.75977 0
M  V30 832 H 76.5893 0.386251 -2.51754 0
M  V30 833 H 77.3723 -1.11816 -3.2458 0
M  V30 834 N 79.8174 1.5752 -0.0501392 0
M  V30 835 C 81.0574 1.94521 0.627783 0
M  V30 836 C 81.4214 0.928265 1.68069 0
M  V30 837 O 82.6224 1.18517 2.41261 0
M  V30 838 C 80.8934 3.36319 1.20932 0
M  V30 839 S 82.4524 3.95272 1.90539 0
M  V30 840 H 79.2704 0.680456 0.206158 0
M  V30 841 H 81.8724 1.95139 -0.118829 0
M  V30 842 H 80.5764 4.08132 0.430865 0
M  V30 843 H 80.1074 3.39193 1.99277 0
M  V30 844 H 82.1224 3.80415 3.18589 0
M  V30 845 N 81.2955 -0.223234 1.56011 0
M  V30 846 C 82.2255 -1.27988 1.95298 0
M  V30 847 C 83.2065 -1.48976 0.820979 0
M  V30 848 O 84.3915 -1.61188 1.08315 0
M  V30 849 C 81.5215 -2.63 2.26822 0
M  V30 850 C 80.4755 -2.56671 3.42497 0
M  V30 851 C 79.8015 -3.95697 3.59622 0
M  V30 852 C 81.1015 -2.11601 4.77517 0
M  V30 853 H 82.7955 -0.953525 2.8381 0
M  V30 854 H 80.3415 -0.457244 1.36548 0
M  V30 855 H 82.2945 -3.37077 2.52898 0
M  V30 856 H 81.0185 -2.9732 1.35161 0
M  V30 857 H 79.6775 -1.85051 3.16467 0
M  V30 858 H 79.3255 -4.27322 2.6534 0
M  V30 859 H 79.0255 -3.92345 4.37424 0
M  V30 860 H 80.5495 -4.71438 3.88044 0
M  V30 861 H 81.9635 -2.7542 5.02809 0
M  V30 862 H 80.3605 -2.19311 5.5859 0
M  V30 863 H 81.4305 -1.06824 4.72987 0
M  V30 864 N 82.7736 -1.49793 -0.48987 0
M  V30 865 C 84.0016 -1.63568 -1.26701 0
M  V30 866 C 84.4166 -0.311465 -1.86213 0
M  V30 867 O 83.7736 0.704416 -1.68357 0
M  V30 868 C 83.8246 -2.71284 -2.38929 0
M  V30 869 O 83.5456 -3.9857 -1.81861 0
M  V30 870 C 85.0466 -2.95864 -3.3012 0
M  V30 871 H 82.2666 -0.550342 -0.383881 0
M  V30 872 H 84.8106 -1.95898 -0.586864 0
M  V30 873 H 82.9656 -2.417 -3.02753 0
M  V30 874 H 83.3796 -4.57993 -2.55622 0
M  V30 875 H 84.8536 -3.74941 -4.05121 0
M  V30 876 H 85.3306 -2.06206 -3.87783 0
M  V30 877 H 85.9366 -3.26907 -2.72051 0
M  V30 878 N 84.2517 0.741722 -1.39055 0
M  V30 879 C 85.6677 1.04638 -1.20512 0
M  V30 880 C 85.8677 2.01405 -0.0620218 0
M  V30 881 O 84.9237 2.45547 0.588457 0
M  V30 882 C 86.2367 1.6151 -2.53643 0
M  V30 883 C 87.7847 1.73623 -2.6043 0
M  V30 884 C 88.2597 2.33906 -3.93767 0
M  V30 885 N 89.7507 2.41323 -3.9537 0
M  V30 886 C 90.4857 2.88888 -4.95309 0
M  V30 887 N 89.9817 3.36401 -6.05645 0
M  V30 888 N 91.7747 2.88037 -4.82692 0
M  V30 889 H 83.9257 0.0998155 -2.12165 0
M  V30 890 H 86.1887 0.106907 -0.941953 0
M  V30 891 H 85.8947 0.978739 -3.37807 0
M  V30 892 H 85.7687 2.60411 -2.72885 0
M  V30 893 H 88.1557 2.36384 -1.76655 0
M  V30 894 H 88.2367 0.733945 -2.45045 0
M  V30 895 H 87.8807 1.71776 -4.7797 0
M  V30 896 H 87.8107 3.34799 -4.06469 0
M  V30 897 H 90.3017 2.07734 -3.15682 0
M  V30 898 H 90.6147 3.71186 -6.77821 0
M  V30 899 H 88.9597 3.34427 -6.09248 0
M  V30 900 H 92.1507 2.50237 -3.95599 0
M  V30 901 H 92.3237 3.24792 -5.60726 0
M  V30 902 N 85.7298 1.2412 0.971189 0
M  V30 903 C 86.6768 1.0305 2.06517 0
M  V30 904 C 87.6468 -0.0550666 1.66009 0
M  V30 905 O 88.8318 0.0988688 1.90544 0
M  V30 906 C 85.9718 0.637653 3.39158 0
M  V30 907 C 85.0848 1.79633 3.92882 0
M  V30 908 C 84.2198 1.34939 5.13775 0
M  V30 909 C 83.2588 2.47823 5.59687 0
M  V30 910 N 82.3958 2.04022 6.71803 0
M  V30 911 H 87.2358 1.96685 2.23873 0
M  V30 912 H 84.7728 0.979694 1.09729 0
M  V30 913 H 86.7308 0.390931 4.15364 0
M  V30 914 H 85.3608 -0.261693 3.21737 0
M  V30 915 H 84.4128 2.15681 3.13346 0
M  V30 916 H 85.7248 2.64466 4.22918 0
M  V30 917 H 84.8788 1.06134 5.97345 0
M  V30 918 H 83.6178 0.471557 4.85415 0
M  V30 919 H 82.6228 2.77392 4.74693 0
M  V30 920 H 83.8478 3.36158 5.90063 0
M  V30 921 H 81.7938 1.18632 6.45184 0
M  V30 922 H 81.7108 2.82409 7.01271 0
M  V30 923 H 82.9788 1.78347 7.58823 0
M  V30 924 N 87.2079 -1.17134 1.05439 0
M  V30 925 C 88.1179 -2.24878 0.668365 0
M  V30 926 C 89.1339 -1.71186 -0.311687 0
M  V30 927 O 90.3099 -2.00738 -0.163161 0
M  V30 928 C 87.3749 -3.46662 0.051648 0
M  V30 929 C 86.4359 -4.15429 1.08246 0
M  V30 930 C 85.6689 -5.31399 0.495082 0
M  V30 931 O 85.8919 -5.66153 -0.694743 0
M  V30 932 O 84.8259 -5.89187 1.23056 0
M  V30 933 H 88.6519 -2.60189 1.56637 0
M  V30 934 H 86.2369 -1.24482 0.826104 0
M  V30 935 H 88.1189 -4.20394 -0.290966 0
M  V30 936 H 86.7939 -3.13142 -0.819971 0
M  V30 937 H 85.7009 -3.43704 1.47711 0
M  V30 938 H 87.0339 -4.52982 1.92532 0
M  V30 939 N 88.686 -0.835752 -1.33615 0
M  V30 940 C 89.933 -0.429959 -1.97883 0
M  V30 941 C 90.261 1.01006 -1.66217 0
M  V30 942 O 89.516 1.72047 -0.93265 0
M  V30 943 C 89.815 -0.593925 -3.52431 0
M  V30 944 C 89.481 -2.00158 -4.04039 0
M  V30 945 C 88.143 -2.38662 -4.17844 0
M  V30 946 C 90.495 -2.92117 -4.31644 0
M  V30 947 C 87.823 -3.68435 -4.56588 0
M  V30 948 C 90.175 -4.21368 -4.71838 0
M  V30 949 C 88.839 -4.59833 -4.83849 0
M  V30 950 H 88.109 -0.157333 -0.724104 0
M  V30 951 H 90.756 -1.06217 -1.59343 0
M  V30 952 H 89.061 0.121619 -3.91611 0
M  V30 953 H 90.758 -0.260282 -4.00154 0
M  V30 954 H 87.348 -1.69252 -3.93766 0
M  V30 955 H 91.532 -2.63608 -4.20505 0
M  V30 956 H 86.788 -3.98046 -4.64079 0
M  V30 957 H 90.962 -4.92703 -4.92155 0
M  V30 958 H 88.589 -5.60438 -5.13627 0
M  V30 959 N 90.1641 1.46063 -0.591896 0
M  V30 960 C 91.0741 2.34192 0.13831 0
M  V30 961 C 92.0901 1.50305 0.876608 0
M  V30 962 O 93.2661 1.8315 0.837728 0
M  V30 963 C 90.3311 3.27656 1.13326 0
M  V30 964 C 89.3921 4.27445 0.39863 0
M  V30 965 C 88.6251 5.16443 1.34618 0
M  V30 966 O 88.8481 5.08553 2.58321 0
M  V30 967 O 87.7821 5.95843 0.851768 0
M  V30 968 H 91.6081 2.98002 -0.58552 0
M  V30 969 H 89.1931 1.45188 -0.352239 0
M  V30 970 H 91.0751 3.85291 1.70671 0
M  V30 971 H 89.7501 2.6643 1.83839 0
M  V30 972 H 88.6571 3.73471 -0.216895 0
M  V30 973 H 89.9901 4.91482 -0.265709 0
M  V30 974 N 91.6422 0.330177 1.54103 0
M  V30 975 C 92.8902 -0.269871 2.0029 0
M  V30 976 C 93.2112 -1.52133 1.21986 0
M  V30 977 O 92.4812 -1.93212 0.323438 0
M  V30 978 H 91.0612 -0.10271 0.739905 0
M  V30 979 H 93.7232 0.448249 1.89675 0
M  V30 980 H 92.8192 -0.52166 3.07709 0
M  V30 981 N 93.1203 -1.57491 0.0584922 0
M  V30 982 C 94.3693 -1.92155 -0.613146 0
M  V30 983 C 94.6823 -0.939334 -1.71569 0
M  V30 984 O 95.8883 -1.17829 -2.44599 0
M  V30 985 C 94.3443 -3.41303 -1.14195 0
M  V30 986 C 93.9523 -4.47944 -0.0711265 0
M  V30 987 C 95.6963 -3.84988 -1.78841 0
M  V30 988 C 93.6033 -5.88212 -0.613225 0
M  V30 989 H 92.5333 -0.717162 -0.232796 0
M  V30 990 H 95.1843 -1.83049 0.12857 0
M  V30 991 H 93.5663 -3.45437 -1.93621 0
M  V30 992 H 94.7403 -4.55408 0.702836 0
M  V30 993 H 93.0553 -4.13644 0.478313 0
M  V30 994 H 95.6523 -4.87159 -2.20408 0
M  V30 995 H 95.9953 -3.21632 -2.64308 0
M  V30 996 H 96.5283 -3.83401 -1.06059 0
M  V30 997 H 93.2673 -6.55183 0.203978 0
M  V30 998 H 92.7873 -5.84294 -1.35501 0
M  V30 999 H 94.4663 -6.37687 -1.09383 0
M  V30 1000 N 94.5984 0.214957 -1.56127 0
M  V30 1001 C 95.8754 0.963093 -1.70247 0
M  V30 1002 C 96.2554 2.02166 -0.60764 0
M  V30 1003 O 95.6034 2.25244 0.384385 0
M  V30 1004 C 95.8134 1.56756 -3.11815 0
M  V30 1005 C 97.1614 2.0573 -3.7143 0
M  V30 1006 O 98.1854 1.66637 -3.14818 0
M  V30 1007 O 97.0444 2.77603 -4.70743 0
M  V30 1008 H 94.1384 0.450321 -0.693643 0
M  V30 1009 H 96.6844 0.206219 -1.68442 0
M  V30 1010 H 95.4564 0.803533 -3.82961 0
M  V30 1011 H 95.0794 2.3898 -3.17765 0
M  V30 1012 N 96.0765 1.50051 0.48192 0
M  V30 1013 C 97.3065 1.63999 1.2565 0
M  V30 1014 C 97.7145 0.318288 1.86504 0
M  V30 1015 O 97.0575 -0.708534 1.69486 0
M  V30 1016 C 97.1195 2.66504 2.4128 0
M  V30 1017 C 96.7835 4.10352 2.01148 0
M  V30 1018 C 97.7805 4.96562 1.54021 0
M  V30 1019 C 95.4655 4.56203 2.10199 0
M  V30 1020 C 97.4595 6.26668 1.16473 0
M  V30 1021 C 95.1465 5.86318 1.72264 0
M  V30 1022 C 96.1445 6.71375 1.25477 0
M  V30 1023 O 95.8325 7.99062 0.880626 0
M  V30 1024 H 95.5645 0.55456 0.386574 0
M  V30 1025 H 98.1185 1.96954 0.582944 0
M  V30 1026 H 96.3485 2.28769 3.11772 0
M  V30 1027 H 98.0375 2.69783 3.03268 0
M  V30 1028 H 98.8035 4.62358 1.46458 0
M  V30 1029 H 94.6825 3.90152 2.45566 0
M  V30 1030 H 98.2265 6.93011 0.798841 0
M  V30 1031 H 94.1235 6.20046 1.79482 0
M  V30 1032 H 94.8915 8.12239 1.01043 0
M  V30 1033 N 97.5546 -0.734337 1.39446 0
M  V30 1034 C 98.8316 -1.48579 1.27215 0
M  V30 1035 C 99.2116 -2.1077 -0.117968 0
M  V30 1036 O 98.5596 -1.98646 -1.12924 0
M  V30 1037 C 98.7696 -2.53667 2.39696 0
M  V30 1038 C 100.118 -3.20031 2.79044 0
M  V30 1039 O 101.142 -2.6398 2.39151 0
M  V30 1040 O 100.001 -4.21455 3.47905 0
M  V30 1041 H 97.0946 -0.659816 0.49857 0
M  V30 1042 H 99.6406 -0.768106 1.51322 0
M  V30 1043 H 98.4126 -2.06096 3.32626 0
M  V30 1044 H 98.0356 -3.32994 2.17258 0
M  V30 1045 N 99.0327 -1.24633 -0.964593 0
M  V30 1046 C 100.449 -1.01239 -1.2338 0
M  V30 1047 C 100.649 0.2769 -1.99588 0
M  V30 1048 O 99.7047 0.992241 -2.32187 0
M  V30 1049 C 101.018 -2.22937 -2.01791 0
M  V30 1050 C 102.566 -2.27594 -2.14872 0
M  V30 1051 C 103.041 -3.48921 -2.96678 0
M  V30 1052 N 104.532 -3.49257 -3.04259 0
M  V30 1053 C 105.267 -4.39795 -3.67924 0
M  V30 1054 N 104.763 -5.40591 -4.33281 0
M  V30 1055 N 106.556 -4.275 -3.64966 0
M  V30 1056 H 98.7067 -2.0748 -0.454502 0
M  V30 1057 H 100.97 -0.910647 -0.26349 0
M  V30 1058 H 100.676 -3.16587 -1.53184 0
M  V30 1059 H 100.55 -2.25306 -3.02518 0
M  V30 1060 H 102.937 -1.34473 -2.6268 0
M  V30 1061 H 103.018 -2.2925 -1.13482 0
M  V30 1062 H 102.662 -4.42359 -2.49562 0
M  V30 1063 H 102.592 -3.4451 -3.98272 0
M  V30 1064 H 105.083 -2.76337 -2.57771 0
M  V30 1065 H 105.396 -6.05904 -4.79687 0
M  V30 1066 H 103.741 -5.44475 -4.3194 0
M  V30 1067 H 106.932 -3.47987 -3.13086 0
M  V30 1068 H 107.105 -4.98258 -4.14298 0
M  V30 1069 N 100.511 1.16574 -1.06058 0
M  V30 1070 C 101.421 2.2452 -0.680282 0
M  V30 1071 C 102.437 1.71348 0.302604 0
M  V30 1072 O 103.613 2.00822 0.152513 0
M  V30 1073 C 100.678 3.46629 -0.0700315 0
M  V30 1074 C 99.7388 4.14849 -1.10448 0
M  V30 1075 C 98.9718 5.31129 -0.523256 0
M  V30 1076 O 99.1948 5.66514 0.664709 0
M  V30 1077 O 98.1288 5.88526 -1.26179 0
M  V30 1078 H 101.955 2.59355 -1.58015 0
M  V30 1079 H 99.5398 1.24043 -0.832694 0
M  V30 1080 H 101.422 4.20543 0.268667 0
M  V30 1081 H 100.097 3.13573 0.803353 0
M  V30 1082 H 99.0038 3.42916 -1.49532 0
M  V30 1083 H 100.337 4.51954 -1.94931 0
M  V30 1084 N 101.989 0.842826 1.3317 0
M  V30 1085 C 103.217 0.454055 2.01856 0
M  V30 1086 C 103.632 -0.94587 1.63397 0
M  V30 1087 O 102.989 -1.61534 0.849302 0
M  V30 1088 C 103.04 0.569715 3.56982 0
M  V30 1089 O 102.761 1.91448 3.94055 0
M  V30 1090 C 104.262 0.178412 4.42941 0
M  V30 1091 H 101.482 0.17979 0.646465 0
M  V30 1092 H 104.026 1.1365 1.70012 0
M  V30 1093 H 102.181 -0.0648587 3.87346 0
M  V30 1094 H 102.595 1.90282 4.88767 0
M  V30 1095 H 104.069 0.310376 5.51127 0
M  V30 1096 H 104.546 -0.880056 4.30293 0
M  V30 1097 H 105.152 0.787579 4.17944 0
M  V30 1098 N 103.467 -1.45747 0.599634 0
M  V30 1099 C 104.415 -2.322 -0.136426 0
M  V30 1100 C 105.409 -1.45497 -0.867583 0
M  V30 1101 O 106.615 -1.62027 -0.78405 0
M  V30 1102 H 102.99 -0.749368 -0.0628588 0
M  V30 1103 H 104.961 -2.92072 0.611281 0
M  V30 1104 C 103.71 -3.28974 -1.12567 0
M  V30 1105 H 103.033 -3.9568 -0.572484 0
M  V30 1106 H 104.473 -3.92212 -1.61077 0
M  V30 1107 C 102.932 -2.55561 -2.19523 0
M  V30 1108 O 103.462 -2.33111 -3.27143 0
M  V30 1109 N 101.668 -2.15832 -1.94589 0
M  V30 1110 H 101.215 -2.3429 -1.07078 0
M  V30 1111 H 101.173 -1.67034 -2.66359 0
M  V30 1112 N 104.945 -0.338344 -1.53925 0
M  V30 1113 C 105.875 0.51328 -2.27789 0
M  V30 1114 C 106.856 1.107 -1.29149 0
M  V30 1115 O 108.041 1.12937 -1.57984 0
M  V30 1116 C 105.171 1.66697 -3.04679 0
M  V30 1117 C 104.125 1.20183 -4.1078 0
M  V30 1118 C 103.451 2.44363 -4.75595 0
M  V30 1119 C 104.751 0.30605 -5.21403 0
M  V30 1120 H 106.445 -0.102883 -2.99223 0
M  V30 1121 H 103.991 -0.0509219 -1.4391 0
M  V30 1122 H 105.944 2.26915 -3.55088 0
M  V30 1123 H 104.668 2.30995 -2.30887 0
M  V30 1124 H 103.327 0.622499 -3.61276 0
M  V30 1125 H 102.975 3.07057 -3.98403 0
M  V30 1126 H 102.675 2.13925 -5.47275 0
M  V30 1127 H 104.199 3.05317 -5.28786 0
M  V30 1128 H 105.613 0.814929 -5.67478 0
M  V30 1129 H 104.01 0.0937929 -6.00027 0
M  V30 1130 H 105.08 -0.65921 -4.80398 0
M  V30 1131 N 106.423 1.57458 -0.0668435 0
M  V30 1132 C 107.371 2.13639 0.919851 0
M  V30 1133 C 108.365 1.07204 1.31163 0
M  V30 1134 O 109.571 1.25591 1.28945 0
M  V30 1135 H 105.946 0.683048 0.314562 0
M  V30 1136 H 107.917 2.95415 0.421047 0
M  V30 1137 C 106.666 2.70892 2.17975 0
M  V30 1138 H 105.989 3.5246 1.88711 0
M  V30 1139 H 107.429 3.13803 2.85138 0
M  V30 1140 C 105.888 1.65414 2.93496 0
M  V30 1141 O 106.418 1.07619 3.87015 0
M  V30 1142 N 104.624 1.36564 2.56512 0
M  V30 1143 H 104.171 1.83751 1.80536 0
M  V30 1144 H 104.129 0.66223 3.07347 0
M  V30 1145 N 107.901 -0.206675 1.56239 0
M  V30 1146 C 108.831 -1.25909 1.96645 0
M  V30 1147 C 109.812 -1.48097 0.836734 0
M  V30 1148 O 110.997 -1.6003 1.10019 0
M  V30 1149 C 108.127 -2.6058 2.29599 0
M  V30 1150 C 107.081 -2.53024 3.452 0
M  V30 1151 C 106.407 -3.91861 3.63798 0
M  V30 1152 C 107.707 -2.06524 4.79734 0
M  V30 1153 H 109.401 -0.923369 2.84806 0
M  V30 1154 H 106.947 -0.442735 1.37025 0
M  V30 1155 H 108.9 -3.34375 2.56459 0
M  V30 1156 H 107.624 -2.95869 1.38307 0
M  V30 1157 H 106.283 -1.81684 3.18412 0
M  V30 1158 H 105.931 -4.24483 2.69857 0
M  V30 1159 H 105.631 -3.87683 4.4156 0
M  V30 1160 H 107.155 -4.67296 3.93022 0
M  V30 1161 H 108.569 -2.70072 5.05702 0
M  V30 1162 H 106.966 -2.13374 5.60885 0
M  V30 1163 H 108.036 -1.01802 4.74093 0
M  V30 1164 N 109.379 -1.50304 -0.473955 0
M  V30 1165 C 110.607 -1.64902 -1.24959 0
M  V30 1166 C 111.022 -0.331198 -1.85872 0
M  V30 1167 O 110.379 0.68652 -1.69095 0
M  V30 1168 C 110.43 -2.73803 -2.36038 0
M  V30 1169 O 110.151 -4.00477 -1.77624 0
M  V30 1170 C 111.652 -2.99349 -3.26964 0
M  V30 1171 H 108.872 -0.554383 -0.378022 0
M  V30 1172 H 111.416 -1.9651 -0.566054 0
M  V30 1173 H 109.571 -2.44898 -3.00173 0
M  V30 1174 H 109.985 -4.60678 -2.5075 0
M  V30 1175 H 111.459 -3.79217 -4.01121 0
M  V30 1176 H 111.936 -2.10307 -3.85574 0
M  V30 1177 H 112.542 -3.29774 -2.68569 0
M  V30 1178 N 110.857 0.726932 -1.39834 0
M  V30 1179 C 111.804 1.841 -1.39197 0
M  V30 1180 C 112.774 1.642 -0.250502 0
M  V30 1181 O 113.959 1.85494 -0.446846 0
M  V30 1182 C 111.099 3.21697 -1.24919 0
M  V30 1183 C 110.212 3.53247 -2.48678 0
M  V30 1184 C 109.347 4.80289 -2.26928 0
M  V30 1185 C 108.386 5.04707 -3.4632 0
M  V30 1186 N 107.523 6.22956 -3.23836 0
M  V30 1187 H 112.363 1.83979 -2.34427 0
M  V30 1188 H 109.9 0.898876 -1.16442 0
M  V30 1189 H 111.858 4.01137 -1.1465 0
M  V30 1190 H 110.488 3.21076 -0.333153 0
M  V30 1191 H 109.54 2.68447 -2.69519 0
M  V30 1192 H 110.852 3.67205 -3.37582 0
M  V30 1193 H 110.006 5.67725 -2.13947 0
M  V30 1194 H 108.745 4.68519 -1.35431 0
M  V30 1195 H 107.75 4.1573 -3.5979 0
M  V30 1196 H 108.975 5.18357 -4.38729 0
M  V30 1197 H 106.921 6.12459 -2.35011 0
M  V30 1198 H 106.838 6.37539 -4.063 0
M  V30 1199 H 108.106 7.1321 -3.14566 0
M  V30 1200 N 112.336 1.25143 0.95797 0
M  V30 1201 C 113.266 1.07711 2.07173 0
M  V30 1202 C 114.247 -0.0128462 1.70095 0
M  V30 1203 O 115.432 0.156061 1.93572 0
M  V30 1204 C 112.562 0.691503 3.40346 0
M  V30 1205 C 111.516 1.73132 3.9142 0
M  V30 1206 C 110.842 1.20049 5.21049 0
M  V30 1207 C 112.142 3.1294 4.1817 0
M  V30 1208 H 113.836 2.00873 2.22014 0
M  V30 1209 H 111.382 0.967191 1.06684 0
M  V30 1210 H 113.335 0.556505 4.17709 0
M  V30 1211 H 112.059 -0.275819 3.25433 0
M  V30 1212 H 110.718 1.8547 3.16222 0
M  V30 1213 H 110.366 0.223499 5.02503 0
M  V30 1214 H 110.066 1.89545 5.56189 0
M  V30 1215 H 111.59 1.07782 6.01012 0
M  V30 1216 H 113.004 3.03775 4.86203 0
M  V30 1217 H 111.401 3.79875 4.64559 0
M  V30 1218 H 112.471 3.6025 3.24573 0
M  V30 1219 N 113.814 -1.1601 1.06675 0
M  V30 1220 C 114.724 -2.24156 0.692179 0
M  V30 1221 C 115.74 -1.71507 -0.293513 0
M  V30 1222 O 116.916 -2.009 -0.141861 0
M  V30 1223 C 113.981 -3.46587 0.0884131 0
M  V30 1224 C 113.042 -4.14257 1.12646 0
M  V30 1225 C 112.275 -5.30844 0.551416 0
M  V30 1226 O 112.498 -5.66858 -0.634656 0
M  V30 1227 O 111.432 -5.87848 1.29298 0
M  V30 1228 H 115.258 -2.58513 1.59388 0
M  V30 1229 H 112.843 -1.23599 0.83926 0
M  V30 1230 H 114.725 -4.20679 -0.246361 0
M  V30 1231 H 113.4 -3.13994 -0.786712 0
M  V30 1232 H 112.307 -3.42118 1.51348 0
M  V30 1233 H 113.64 -4.50914 1.97325 0
M  V30 1234 N 115.292 -0.849877 -1.32721 0
M  V30 1235 C 116.538 -0.451591 -1.97708 0
M  V30 1236 C 116.871 0.989175 -1.6712 0
M  V30 1237 O 116.146 1.69334 -0.956891 0
M  V30 1238 C 116.429 -0.685598 -3.53513 0
M  V30 1239 C 116.282 -2.17444 -3.93749 0
M  V30 1240 C 117.601 -0.138874 -4.39881 0
M  V30 1241 H 114.72 -0.16555 -0.718166 0
M  V30 1242 H 117.362 -1.06742 -1.57182 0
M  V30 1243 H 115.512 -0.161416 -3.88165 0
M  V30 1244 H 117.184 -2.76433 -3.693 0
M  V30 1245 H 115.427 -2.65476 -3.43081 0
M  V30 1246 H 116.098 -2.28888 -5.02309 0
M  V30 1247 H 118.574 -0.587068 -4.11938 0
M  V30 1248 H 117.45 -0.332213 -5.47894 0
M  V30 1249 H 117.711 0.95806 -4.31594 0
M  V30 1250 N 116.77 1.45427 -0.607355 0
M  V30 1251 C 118.019 2.01452 -0.100036 0
M  V30 1252 C 118.332 1.48159 1.27704 0
M  V30 1253 O 119.538 1.96159 1.87707 0
M  V30 1254 C 117.994 3.59672 -0.128158 0
M  V30 1255 C 117.602 4.21962 -1.50507 0
M  V30 1256 C 119.346 4.23262 0.323932 0
M  V30 1257 C 117.253 5.72333 -1.48959 0
M  V30 1258 H 116.183 0.75325 -0.0336299 0
M  V30 1259 H 118.834 1.66901 -0.76265 0
M  V30 1260 H 117.216 3.91411 0.601105 0
M  V30 1261 H 118.39 4.01796 -2.25602 0
M  V30 1262 H 116.705 3.70565 -1.89923 0
M  V30 1263 H 119.302 5.33522 0.354691 0
M  V30 1264 H 119.645 3.93921 1.34656 0
M  V30 1265 H 120.178 3.96239 -0.352056 0
M  V30 1266 H 116.917 6.06373 -2.48981 0
M  V30 1267 H 116.437 5.94691 -0.781214 0
M  V30 1268 H 118.116 6.35525 -1.21313 0
M  V30 1269 N 118.248 0.346503 1.53744 0
M  V30 1270 C 119.476 -0.25041 2.05379 0
M  V30 1271 C 119.891 -1.43979 1.22129 0
M  V30 1272 O 119.248 -1.80677 0.257321 0
M  V30 1273 C 119.299 -0.662575 3.55376 0
M  V30 1274 O 119.02 0.479515 4.35468 0
M  V30 1275 C 120.521 -1.31989 4.23195 0
M  V30 1276 H 117.741 -0.0478198 0.669294 0
M  V30 1277 H 120.285 0.499346 1.9831 0
M  V30 1278 H 118.44 -1.36227 3.62658 0
M  V30 1279 H 118.854 0.15037 5.24284 0
M  V30 1280 H 120.328 -1.55902 5.29527 0
M  V30 1281 H 120.805 -2.27436 3.75725 0
M  V30 1282 H 121.411 -0.662154 4.20114 0
M  V30 1283 N 119.726 -1.57421 0.075193 0
M  V30 1284 C 120.975 -1.92794 -0.592731 0
M  V30 1285 C 121.288 -0.957478 -1.70563 0
M  V30 1286 O 122.494 -1.20417 -2.43335 0
M  V30 1287 C 120.95 -3.42495 -1.10569 0
M  V30 1288 C 120.558 -4.47994 -0.0236121 0
M  V30 1289 C 122.302 -3.86864 -1.74748 0
M  V30 1290 C 120.209 -5.88829 -0.550803 0
M  V30 1291 H 119.139 -0.719591 -0.225177 0
M  V30 1292 H 121.79 -1.82902 0.147978 0
M  V30 1293 H 120.172 -3.47471 -1.89947 0
M  V30 1294 H 121.346 -4.54637 0.751099 0
M  V30 1295 H 119.661 -4.13113 0.522159 0
M  V30 1296 H 122.258 -4.8947 -2.15229 0
M  V30 1297 H 122.601 -3.24417 -2.60882 0
M  V30 1298 H 123.134 -3.84504 -1.01986 0
M  V30 1299 H 119.873 -6.54929 0.273457 0
M  V30 1300 H 119.393 -5.85698 -1.29296 0
M  V30 1301 H 121.072 -6.38811 -1.02613 0
M  V30 1302 N 121.204 0.198386 -1.56346 0
M  V30 1303 C 122.137 1.27381 -1.89339 0
M  V30 1304 C 123.115 1.44106 -0.753134 0
M  V30 1305 O 124.299 1.59549 -1.00381 0
M  V30 1306 C 121.426 2.6409 -2.12071 0
M  V30 1307 C 120.472 2.64253 -3.34772 0
M  V30 1308 S 121.305 2.16013 -4.89999 0
M  V30 1309 C 122.461 3.54553 -5.15794 0
M  V30 1310 H 122.694 0.992058 -2.8026 0
M  V30 1311 H 120.227 0.401726 -1.49082 0
M  V30 1312 H 122.185 3.42786 -2.2585 0
M  V30 1313 H 120.846 2.89478 -1.21906 0
M  V30 1314 H 120.039 3.64768 -3.47794 0
M  V30 1315 H 119.641 1.93637 -3.1997 0
M  V30 1316 H 121.933 4.50396 -5.06112 0
M  V30 1317 H 122.876 3.46428 -6.1757 0
M  V30 1318 H 123.284 3.49313 -4.43442 0
M  V30 1319 N 122.682 1.50554 0.465978 0
M  V30 1320 C 123.592 1.72585 1.58907 0
M  V30 1321 C 124.608 0.60911 1.6299 0
M  V30 1322 O 125.784 0.88804 1.80765 0
M  V30 1323 C 122.849 1.81995 2.95091 0
M  V30 1324 C 121.91 3.05751 3.01355 0
M  V30 1325 C 121.143 3.14702 4.31043 0
M  V30 1326 O 121.366 2.30313 5.21835 0
M  V30 1327 O 120.3 4.07468 4.43005 0
M  V30 1328 H 124.126 2.67799 1.43239 0
M  V30 1329 H 121.711 1.34711 0.646013 0
M  V30 1330 H 123.593 1.90335 3.75966 0
M  V30 1331 H 122.268 0.899659 3.10947 0
M  V30 1332 H 121.175 3.02908 2.19539 0
M  V30 1333 H 122.508 3.97375 2.90437 0
M  V30 1334 N 124.16 -0.719506 1.40217 0
M  V30 1335 C 125.092 -1.84428 1.36084 0
M  V30 1336 C 126.105 -1.60597 0.266913 0
M  V30 1337 O 127.294 -1.70544 0.526983 0
M  V30 1338 C 124.394 -3.20757 1.094 0
M  V30 1339 C 123.567 -3.71817 2.30372 0
M  V30 1340 C 122.626 -4.86748 1.99907 0
M  V30 1341 O 121.652 -4.99603 2.72737 0
M  V30 1342 N 122.854 -5.7226 0.974635 0
M  V30 1343 H 125.619 -1.88473 2.33019 0
M  V30 1344 H 123.18 -0.900885 1.3452 0
M  V30 1345 H 125.172 -3.95235 0.870116 0
M  V30 1346 H 123.742 -3.11884 0.211452 0
M  V30 1347 H 122.962 -2.88514 2.68614 0
M  V30 1348 H 124.25 -4.02666 3.11026 0
M  V30 1349 H 123.648 -5.6448 0.371368 0
M  V30 1350 H 122.205 -6.46739 0.810656 0
M  V30 1351 N 125.638 -1.25649 -0.95132 0
M  V30 1352 C 126.601 -1.06399 -2.03007 0
M  V30 1353 C 127.601 -0.0156794 -1.60792 0
M  V30 1354 O 128.791 -0.25817 -1.72276 0
M  V30 1355 C 125.923 -0.616184 -3.35285 0
M  V30 1356 H 127.116 -2.02164 -2.21517 0
M  V30 1357 H 124.669 -1.08103 -1.12887 0
M  V30 1358 H 125.404 0.343917 -3.22471 0
M  V30 1359 H 125.189 -1.37301 -3.67275 0
M  V30 1360 H 126.679 -0.503032 -4.14559 0
M  V30 1361 N 127.117 1.15442 -1.07289 0
M  V30 1362 C 128.364 1.86213 -0.795668 0
M  V30 1363 C 128.692 1.82291 0.678238 0
M  V30 1364 O 127.947 1.24057 1.51355 0
M  V30 1365 C 128.246 3.3489 -1.24834 0
M  V30 1366 C 127.912 3.59007 -2.72809 0
M  V30 1367 C 126.574 3.65298 -3.13227 0
M  V30 1368 C 128.926 3.68762 -3.68326 0
M  V30 1369 C 126.254 3.78854 -4.4798 0
M  V30 1370 C 128.606 3.83842 -5.0284 0
M  V30 1371 C 127.27 3.88378 -5.4288 0
M  V30 1372 H 126.54 0.681403 -0.291155 0
M  V30 1373 H 129.187 1.36435 -1.34379 0
M  V30 1374 H 127.492 3.8687 -0.619595 0
M  V30 1375 H 129.189 3.88052 -1.01076 0
M  V30 1376 H 125.779 3.5475 -2.40521 0
M  V30 1377 H 129.963 3.63202 -3.38227 0
M  V30 1378 H 125.219 3.80623 -4.78472 0
M  V30 1379 H 129.393 3.90332 -5.76727 0
M  V30 1380 H 127.02 3.98635 -6.47298 0
M  V30 1381 N 128.595 0.856903 1.32268 0
M  V30 1382 C 129.835 0.467705 1.98977 0
M  V30 1383 C 130.199 -0.959231 1.66321 0
M  V30 1384 O 131.4 -1.4531 2.26138 0
M  V30 1385 C 129.671 0.70256 3.50427 0
M  V30 1386 S 131.23 0.411269 4.36868 0
M  V30 1387 H 128.048 0.175121 0.689096 0
M  V30 1388 H 130.65 1.1101 1.60925 0
M  V30 1389 H 129.354 1.74012 3.71683 0
M  V30 1390 H 128.885 0.0466707 3.93372 0
M  V30 1391 H 130.9 -0.761799 4.90317 0
M  V30 1392 N 130.073 -1.45103 0.615059 0
M  V30 1393 C 131.303 -2.06254 0.119596 0
M  V30 1394 C 131.711 -1.4591 -1.20445 0
M  V30 1395 O 131.054 -0.570384 -1.7462 0
M  V30 1396 C 131.116 -3.59396 -0.0865591 0
M  V30 1397 C 130.78 -4.42116 1.15683 0
M  V30 1398 C 131.777 -4.7662 2.07676 0
M  V30 1399 C 129.462 -4.82749 1.38775 0
M  V30 1400 C 131.456 -5.50622 3.21082 0
M  V30 1401 C 129.143 -5.56504 2.52481 0
M  V30 1402 C 130.141 -5.90358 3.43463 0
M  V30 1403 O 129.829 -6.62615 4.55189 0
M  V30 1404 H 129.561 -0.672423 0.0694512 0
M  V30 1405 H 132.115 -1.87219 0.844885 0
M  V30 1406 H 130.345 -3.76859 -0.866823 0
M  V30 1407 H 132.034 -4.02365 -0.534555 0
M  V30 1408 H 132.8 -4.4578 1.91063 0
M  V30 1409 H 128.679 -4.55829 0.688545 0
M  V30 1410 H 132.223 -5.76965 3.92119 0
M  V30 1411 H 128.12 -5.86759 2.69043 0
M  V30 1412 H 128.888 -6.81071 4.53966 0
M  V30 1413 N 131.551 -0.354651 -1.53558 0
M  V30 1414 C 132.481 0.489091 -2.2832 0
M  V30 1415 C 133.462 1.09324 -1.30316 0
M  V30 1416 O 134.647 1.11255 -1.59173 0
M  V30 1417 C 131.777 1.63456 -3.0643 0
M  V30 1418 C 130.731 1.1582 -4.12031 0
M  V30 1419 C 130.057 2.39305 -4.7816 0
M  V30 1420 C 131.357 0.250731 -5.21698 0
M  V30 1421 H 133.051 -0.134614 -2.99097 0
M  V30 1422 H 130.597 -0.0661826 -1.43848 0
M  V30 1423 H 132.55 2.23136 -3.57475 0
M  V30 1424 H 131.274 2.28533 -2.33325 0
M  V30 1425 H 129.933 0.584146 -3.61916 0
M  V30 1426 H 129.581 3.02814 -4.01637 0
M  V30 1427 H 129.281 2.08109 -5.49513 0
M  V30 1428 H 130.805 2.99691 -5.31994 0
M  V30 1429 H 132.219 0.754695 -5.68311 0
M  V30 1430 H 130.616 0.0301468 -6.00092 0
M  V30 1431 H 131.686 -0.710125 -4.79672 0
M  V30 1432 N 133.029 1.57378 -0.0835403 0
M  V30 1433 C 133.977 2.14602 0.89714 0
M  V30 1434 C 134.971 1.08589 1.30018 0
M  V30 1435 O 136.177 1.26952 1.27606 0
M  V30 1436 H 132.552 0.686346 0.3073 0
M  V30 1437 H 134.523 2.95845 0.38969 0
M  V30 1438 C 133.272 2.73188 2.15089 0
M  V30 1439 H 132.595 3.54442 1.84962 0
M  V30 1440 H 134.035 3.1681 2.81793 0
M  V30 1441 C 132.494 1.68517 2.91725 0
M  V30 1442 O 133.024 1.11718 3.85852 0
M  V30 1443 N 131.23 1.39277 2.55049 0
M  V30 1444 H 130.777 1.85655 1.78577 0
M  V30 1445 H 130.735 0.694791 3.06627 0
M  V30 1446 N 134.507 -0.190092 1.56449 0
M  V30 1447 C 135.755 -0.907908 1.80559 0
M  V30 1448 C 136.076 -1.83583 0.657438 0
M  V30 1449 O 135.346 -1.93203 -0.323924 0
M  V30 1450 H 133.926 -0.338247 0.666032 0
M  V30 1451 H 136.588 -0.194403 1.93928 0
M  V30 1452 H 135.684 -1.49604 2.73907 0
M  V30 1453 N 135.985 -1.50799 -0.457987 0
M  V30 1454 C 136.932 -1.70617 -1.5543 0
M  V30 1455 C 137.902 -0.547562 -1.56815 0
M  V30 1456 O 139.087 -0.779647 -1.74144 0
M  V30 1457 C 136.227 -1.81831 -2.93311 0
M  V30 1458 C 135.34 -3.09278 -3.01615 0
M  V30 1459 C 134.475 -3.11209 -4.30491 0
M  V30 1460 C 133.514 -4.33055 -4.32585 0
M  V30 1461 N 132.651 -4.32652 -5.52952 0
M  V30 1462 H 137.491 -2.64207 -1.37836 0
M  V30 1463 H 135.028 -1.30959 -0.669937 0
M  V30 1464 H 136.986 -1.86314 -3.73287 0
M  V30 1465 H 135.616 -0.916685 -3.0951 0
M  V30 1466 H 134.668 -3.14203 -2.1443 0
M  V30 1467 H 135.98 -3.99233 -2.99022 0
M  V30 1468 H 135.134 -3.14494 -5.18824 0
M  V30 1469 H 133.873 -2.19106 -4.35711 0
M  V30 1470 H 132.878 -4.29969 -3.42647 0
M  V30 1471 H 134.103 -5.264 -4.29046 0
M  V30 1472 H 132.049 -3.43409 -5.58933 0
M  V30 1473 H 131.966 -5.16392 -5.52155 0
M  V30 1474 H 133.234 -4.40101 -6.43375 0
M  V30 1475 N 137.463 0.71206 -1.40597 0
M  V30 1476 C 138.688 1.50617 -1.42581 0
M  V30 1477 C 139.113 1.88079 -0.0282102 0
M  V30 1478 O 138.471 1.53511 0.964579 0
M  V30 1479 C 138.519 2.7557 -2.3258 0
M  V30 1480 O 137.623 3.72414 -1.77148 0
M  V30 1481 H 136.964 0.453966 -0.484573 0
M  V30 1482 H 139.494 0.876649 -1.84868 0
M  V30 1483 H 139.504 3.2406 -2.47889 0
M  V30 1484 H 138.179 2.47639 -3.34138 0
M  V30 1485 H 136.756 3.31276 -1.71204 0
M  V30 1486 N 138.941 1.26152 0.944643 0
M  V30 1487 C 140.352 1.10454 1.50522 0
M  V30 1488 C 140.703 -0.31635 1.93633 0
M  V30 1489 O 139.828 -1.20746 1.79581 0
M  V30 1490 C 140.423 1.99891 2.73549 0
M  V30 1491 C 138.982 1.88348 3.25886 0
M  V30 1492 C 138.129 1.93447 1.9868 0
M  V30 1493 H 141.08 1.39292 0.760489 0
M  V30 1494 H 141.101 1.54477 3.47732 0
M  V30 1495 H 140.613 3.03297 2.42141 0
M  V30 1496 H 138.714 0.878636 3.62092 0
M  V30 1497 H 138.827 2.73696 3.93227 0
M  V30 1498 H 137.191 1.37456 2.14425 0
M  V30 1499 H 137.974 2.98476 1.69607 0
M  V30 1500 N 140.419 -1.14872 1.07899 0
M  V30 1501 C 141.668 -1.85135 0.800499 0
M  V30 1502 C 141.981 -1.83547 -0.676014 0
M  V30 1503 O 143.187 -2.49548 -1.06948 0
M  V30 1504 C 141.643 -3.3231 1.38197 0
M  V30 1505 C 141.251 -3.42329 2.8899 0
M  V30 1506 C 142.995 -4.0772 1.18174 0
M  V30 1507 C 140.902 -4.83684 3.403 0
M  V30 1508 H 139.832 -0.693563 0.29578 0
M  V30 1509 H 142.483 -1.29532 1.29976 0
M  V30 1510 H 140.865 -3.87618 0.810431 0
M  V30 1511 H 142.039 -2.97097 3.52236 0
M  V30 1512 H 140.354 -2.80369 3.07867 0
M  V30 1513 H 142.951 -5.12049 1.5398 0
M  V30 1514 H 143.294 -4.16124 0.12117 0
M  V30 1515 H 143.827 -3.58696 1.71994 0
M  V30 1516 H 140.566 -4.80465 4.45907 0
M  V30 1517 H 140.086 -5.29474 2.81811 0
M  V30 1518 H 141.765 -5.52558 3.36584 0
M  V30 1519 N 141.898 -0.863906 -1.31812 0
M  V30 1520 C 142.845 -0.313303 -2.28664 0
M  V30 1521 C 143.815 0.584868 -1.55462 0
M  V30 1522 O 145 0.517805 -1.83639 0
M  V30 1523 C 142.14 0.48441 -3.41683 0
M  V30 1524 C 141.253 -0.440594 -4.29747 0
M  V30 1525 C 140.388 0.370652 -5.29905 0
M  V30 1526 C 139.427 -0.551164 -6.09613 0
M  V30 1527 N 138.564 0.223462 -7.01744 0
M  V30 1528 H 143.404 -1.14444 -2.75148 0
M  V30 1529 H 140.941 -0.575769 -1.35364 0
M  V30 1530 H 142.899 0.962627 -4.05943 0
M  V30 1531 H 141.529 1.28029 -2.96325 0
M  V30 1532 H 140.581 -1.03724 -3.65986 0
M  V30 1533 H 141.893 -1.14767 -4.85417 0
M  V30 1534 H 141.047 0.911638 -5.99812 0
M  V30 1535 H 139.786 1.11105 -4.74876 0
M  V30 1536 H 138.791 -1.10396 -5.38603 0
M  V30 1537 H 140.016 -1.29032 -6.66729 0
M  V30 1538 H 137.962 0.946787 -6.49132 0
M  V30 1539 H 137.879 -0.424399 -7.54808 0
M  V30 1540 H 139.147 0.745876 -7.75923 0
M  V30 1541 N 143.376 1.44774 -0.622745 0
M  V30 1542 C 144.624 2.01721 -0.123655 0
M  V30 1543 C 144.945 1.49172 1.25589 0
M  V30 1544 O 144.215 0.691974 1.83272 0
M  V30 1545 H 142.795 0.745777 -0.0427225 0
M  V30 1546 H 145.457 1.77382 -0.807559 0
M  V30 1547 H 144.553 3.11984 -0.0849534 0
M  V30 1548 N 144.854 0.36279 1.53368 0
M  V30 1549 C 146.1 -0.228113 2.01513 0
M  V30 1550 C 146.433 -1.48648 1.2497 0
M  V30 1551 O 145.708 -1.91459 0.342616 0
M  V30 1552 C 145.991 -0.522884 3.56284 0
M  V30 1553 C 145.844 0.74892 4.43521 0
M  V30 1554 C 147.163 -1.32461 4.19693 0
M  V30 1555 H 144.282 -0.0814343 0.732487 0
M  V30 1556 H 146.924 0.48713 1.83649 0
M  V30 1557 H 145.074 -1.1322 3.71636 0
M  V30 1558 H 146.746 1.38648 4.39971 0
M  V30 1559 H 144.989 1.36986 4.11603 0
M  V30 1560 H 145.66 0.497667 5.49752 0
M  V30 1561 H 148.136 -0.809203 4.08156 0
M  V30 1562 H 147.012 -1.49961 5.28018 0
M  V30 1563 H 147.273 -2.33232 3.75573 0
M  V30 1564 N 146.332 -1.57332 0.0918853 0
M  V30 1565 C 147.579 -1.94236 -0.572577 0
M  V30 1566 C 147.907 -0.973398 -1.6839 0
M  V30 1567 O 147.162 0.00756912 -1.95699 0
M  V30 1568 C 147.461 -3.37689 -1.17051 0
M  V30 1569 C 147.127 -4.50527 -0.183304 0
M  V30 1570 C 145.789 -4.81119 0.0882276 0
M  V30 1571 C 148.141 -5.18883 0.49095 0
M  V30 1572 C 145.469 -5.77395 1.04076 0
M  V30 1573 C 147.821 -6.1618 1.43193 0
M  V30 1574 C 146.485 -6.45179 1.71173 0
M  V30 1575 H 145.755 -0.710762 -0.209521 0
M  V30 1576 H 148.402 -1.9077 0.167036 0
M  V30 1577 H 146.707 -3.37718 -1.9863 0
M  V30 1578 H 148.404 -3.63543 -1.69227 0
M  V30 1579 H 144.994 -4.26681 -0.405124 0
M  V30 1580 H 149.178 -4.95427 0.294312 0
M  V30 1581 H 144.434 -5.98179 1.26457 0
M  V30 1582 H 148.608 -6.68243 1.96023 0
M  V30 1583 H 146.235 -7.1959 2.4514 0
M  V30 1584 N 147.81 0.181792 -1.56548 0
M  V30 1585 C 149.056 0.901431 -1.81665 0
M  V30 1586 C 149.389 1.82347 -0.668075 0
M  V30 1587 O 148.664 1.91669 0.330615 0
M  V30 1588 C 148.947 1.70618 -3.17115 0
M  V30 1589 C 148.8 0.807964 -4.42484 0
M  V30 1590 C 150.119 2.67605 -3.49393 0
M  V30 1591 H 147.238 0.32627 -0.660846 0
M  V30 1592 H 149.88 0.168134 -1.89255 0
M  V30 1593 H 148.03 2.33133 -3.10775 0
M  V30 1594 H 149.702 0.19649 -4.60881 0
M  V30 1595 H 147.945 0.115411 -4.33646 0
M  V30 1596 H 148.616 1.40632 -5.33785 0
M  V30 1597 H 151.092 2.15218 -3.56118 0
M  V30 1598 H 149.968 3.20985 -4.45264 0
M  V30 1599 H 150.229 3.47298 -2.73563 0
M  V30 1600 N 149.288 1.51039 0.449983 0
M  V30 1601 C 150.535 1.63081 1.20045 0
M  V30 1602 C 150.863 0.341024 1.91487 0
M  V30 1603 O 150.118 -0.674276 1.83717 0
M  V30 1604 C 150.417 2.77556 2.25161 0
M  V30 1605 C 150.083 4.17289 1.70823 0
M  V30 1606 C 148.745 4.55305 1.55725 0
M  V30 1607 C 151.097 5.04536 1.3074 0
M  V30 1608 C 148.425 5.78287 0.989999 0
M  V30 1609 C 150.777 6.28085 0.754482 0
M  V30 1610 C 149.441 6.64885 0.590308 0
M  V30 1611 H 148.711 0.596755 0.439277 0
M  V30 1612 H 151.358 1.85037 0.49333 0
M  V30 1613 H 149.663 2.49771 3.01863 0
M  V30 1614 H 151.36 2.84073 2.83026 0
M  V30 1615 H 147.95 3.8731 1.83546 0
M  V30 1616 H 152.134 4.75782 1.41229 0
M  V30 1617 H 147.39 6.05456 0.850451 0
M  V30 1618 H 151.564 6.95038 0.435324 0
M  V30 1619 H 149.191 7.60055 0.14862 0
M  V30 1620 N 150.766 -0.704594 1.40972 0
M  V30 1621 C 152.043 -1.45847 1.30338 0
M  V30 1622 C 152.423 -2.10973 -0.0732344 0
M  V30 1623 O 151.771 -2.00997 -1.08685 0
M  V30 1624 C 151.981 -2.48525 2.45023 0
M  V30 1625 C 153.329 -3.1404 2.8577 0
M  V30 1626 O 154.353 -2.58848 2.44696 0
M  V30 1627 O 153.212 -4.13981 3.56766 0
M  V30 1628 H 150.306 -0.649092 0.512454 0
M  V30 1629 H 152.852 -0.735836 1.52917 0
M  V30 1630 H 151.624 -1.98994 3.36923 0
M  V30 1631 H 151.247 -3.2831 2.24272 0
M  V30 1632 N 152.244 -1.26651 -0.937939 0
M  V30 1633 C 153.521 -1.0313 -1.66204 0
M  V30 1634 C 153.901 0.437256 -2.06522 0
M  V30 1635 O 153.249 1.41831 -1.79154 0
M  V30 1636 C 153.459 -1.98314 -2.87181 0
M  V30 1637 C 154.807 -2.27107 -3.58758 0
M  V30 1638 O 155.831 -1.96205 -2.97291 0
M  V30 1639 O 154.69 -2.79736 -4.69479 0
M  V30 1640 H 151.784 -0.392384 -0.727986 0
M  V30 1641 H 154.33 -1.37874 -0.989382 0
M  V30 1642 H 153.102 -2.97399 -2.54302 0
M  V30 1643 H 152.725 -1.64068 -3.6217 0
M  V30 1644 N 153.722 1.14298 -1.08507 0
M  V30 1645 C 154.632 2.23027 -0.727753 0
M  V30 1646 C 155.648 1.71952 0.26619 0
M  V30 1647 O 156.824 2.011 0.109882 0
M  V30 1648 C 153.889 3.46403 -0.143541 0
M  V30 1649 C 152.95 4.12413 -1.19223 0
M  V30 1650 C 152.183 5.29899 -0.635798 0
M  V30 1651 O 152.406 5.67796 0.544393 0
M  V30 1652 O 151.34 5.85717 -1.38634 0
M  V30 1653 H 155.166 2.55945 -1.63481 0
M  V30 1654 H 152.751 1.22248 -0.858817 0
M  V30 1655 H 154.633 4.21018 0.179404 0
M  V30 1656 H 153.308 3.15206 0.736659 0
M  V30 1657 H 152.215 3.39667 -1.56772 0
M  V30 1658 H 153.548 4.47718 -2.04474 0
M  V30 1659 N 155.201 0.870884 1.31352 0
M  V30 1660 C 156.449 0.48132 1.96285 0
M  V30 1661 C 156.77 -0.969813 1.69173 0
M  V30 1662 O 156.04 -1.67998 1.00764 0
M  V30 1663 H 154.62 0.175002 0.726212 0
M  V30 1664 H 157.282 1.11087 1.60143 0
M  V30 1665 H 156.378 0.639825 3.05471 0
M  V30 1666 N 156.679 -1.44442 0.630414 0
M  V30 1667 C 157.626 -2.30678 -0.0749355 0
M  V30 1668 C 158.596 -1.4344 -0.837502 0
M  V30 1669 O 159.781 -1.72343 -0.818684 0
M  V30 1670 C 156.921 -3.28706 -1.05103 0
M  V30 1671 C 156.034 -4.31046 -0.286954 0
M  V30 1672 C 155.169 -5.16167 -1.2548 0
M  V30 1673 C 154.208 -6.10216 -0.479843 0
M  V30 1674 N 153.345 -6.88039 -1.39811 0
M  V30 1675 H 158.185 -2.90454 0.666386 0
M  V30 1676 H 155.722 -1.43107 0.340404 0
M  V30 1677 H 157.68 -3.84027 -1.63031 0
M  V30 1678 H 156.31 -2.70632 -1.75949 0
M  V30 1679 H 155.362 -3.78203 0.408243 0
M  V30 1680 H 156.674 -4.97794 0.316657 0
M  V30 1681 H 155.828 -5.76002 -1.90544 0
M  V30 1682 H 154.567 -4.49491 -1.89233 0
M  V30 1683 H 153.572 -5.49491 0.184295 0
M  V30 1684 H 154.797 -6.78928 0.152965 0
M  V30 1685 H 152.743 -6.24032 -2.02287 0
M  V30 1686 H 152.66 -7.51223 -0.848508 0
M  V30 1687 H 153.928 -7.52397 -2.03762 0
M  V30 1688 N 158.157 -0.370918 -1.53173 0
M  V30 1689 C 159.067 0.480823 -2.2962 0
M  V30 1690 C 160.083 1.08789 -1.35798 0
M  V30 1691 O 161.259 1.09768 -1.68858 0
M  V30 1692 C 158.324 1.60227 -3.07454 0
M  V30 1693 C 157.385 1.0222 -4.16953 0
M  V30 1694 C 156.618 2.0902 -4.91066 0
M  V30 1695 O 156.841 3.30222 -4.65091 0
M  V30 1696 O 155.775 1.71778 -5.76867 0
M  V30 1697 H 159.601 -0.141421 -3.03371 0
M  V30 1698 H 157.186 -0.135146 -1.48787 0
M  V30 1699 H 159.068 2.25417 -3.56041 0
M  V30 1700 H 157.743 2.20982 -2.36535 0
M  V30 1701 H 156.65 0.334064 -3.72605 0
M  V30 1702 H 157.983 0.459131 -4.90054 0
M  V30 1703 N 159.635 1.57281 -0.100228 0
M  V30 1704 C 160.86 1.99302 0.573881 0
M  V30 1705 C 161.285 0.979059 1.60611 0
M  V30 1706 O 160.643 -0.0517803 1.81226 0
M  V30 1707 C 160.691 3.40274 1.19358 0
M  V30 1708 O 159.795 3.41676 2.30935 0
M  V30 1709 H 159.136 0.647944 0.145138 0
M  V30 1710 H 161.666 2.03779 -0.183156 0
M  V30 1711 H 161.676 3.78078 1.53365 0
M  V30 1712 H 160.351 4.13594 0.437385 0
M  V30 1713 H 158.928 3.15672 1.98509 0
M  V30 1714 N 161.113 -0.173488 1.56642 0
M  V30 1715 C 162.359 -0.891784 1.8214 0
M  V30 1716 C 162.692 -1.8199 0.677736 0
M  V30 1717 O 161.967 -1.91842 -0.320446 0
M  V30 1718 C 162.25 -1.68933 3.18015 0
M  V30 1719 C 162.103 -0.784487 4.42906 0
M  V30 1720 C 163.422 -2.65748 3.50808 0
M  V30 1721 H 160.541 -0.322761 0.662567 0
M  V30 1722 H 163.183 -0.158095 1.89341 0
M  V30 1723 H 161.333 -2.31482 3.12007 0
M  V30 1724 H 163.005 -0.172046 4.60979 0
M  V30 1725 H 161.248 -0.0924117 4.33702 0
M  V30 1726 H 161.919 -1.37799 5.34524 0
M  V30 1727 H 164.395 -2.13327 3.57255 0
M  V30 1728 H 163.271 -3.18619 4.4696 0
M  V30 1729 H 163.532 -3.45842 2.75401 0
M  V30 1730 N 162.591 -1.51276 -0.441967 0
M  V30 1731 C 163.539 -1.72823 -1.55676 0
M  V30 1732 C 164.533 -0.59445 -1.58627 0
M  V30 1733 O 165.739 -0.775715 -1.62427 0
M  V30 1734 H 162.114 -0.545983 -0.517113 0
M  V30 1735 H 164.085 -2.6628 -1.34675 0
M  V30 1736 C 162.834 -1.86619 -2.93375 0
M  V30 1737 H 162.157 -2.73264 -2.91834 0
M  V30 1738 H 163.597 -2.05709 -3.70756 0
M  V30 1739 C 162.056 -0.624842 -3.31055 0
M  V30 1740 O 162.586 0.222636 -4.01083 0
M  V30 1741 N 160.792 -0.470288 -2.86769 0
M  V30 1742 H 160.339 -1.161 -2.29953 0
M  V30 1743 H 160.297 0.359051 -3.12343 0
M  V30 1744 N 164.069 0.697108 -1.41344 0
M  V30 1745 C 165.316 1.45714 -1.40619 0
M  V30 1746 C 165.644 1.94494 -0.0147907 0
M  V30 1747 O 164.899 1.69794 0.973066 0
M  V30 1748 C 165.198 2.68553 -2.35826 0
M  V30 1749 C 164.864 2.38438 -3.82698 0
M  V30 1750 C 163.526 2.29936 -4.22709 0
M  V30 1751 C 165.878 2.13567 -4.75435 0
M  V30 1752 C 163.206 1.94656 -5.53467 0
M  V30 1753 C 165.558 1.79797 -6.06511 0
M  V30 1754 C 164.222 1.69789 -6.45545 0
M  V30 1755 H 163.492 0.533206 -0.51456 0
M  V30 1756 H 166.139 0.796901 -1.74131 0
M  V30 1757 H 164.444 3.39503 -1.95563 0
M  V30 1758 H 166.141 3.2669 -2.32539 0
M  V30 1759 H 162.731 2.4595 -3.51008 0
M  V30 1760 H 166.915 2.19082 -4.45328 0
M  V30 1761 H 162.171 1.8546 -5.82593 0
M  V30 1762 H 166.345 1.59572 -6.77872 0
M  V30 1763 H 163.972 1.4222 -7.46778 0
M  V30 1764 N 165.547 1.27147 0.931209 0
M  V30 1765 C 166.793 1.13446 1.68101 0
M  V30 1766 C 167.126 -0.319628 1.91552 0
M  V30 1767 O 166.401 -1.23407 1.50336 0
M  V30 1768 C 166.684 1.91482 3.0497 0
M  V30 1769 C 166.537 3.44855 2.88782 0
M  V30 1770 C 167.856 1.71651 4.05246 0
M  V30 1771 H 164.975 0.413498 0.610072 0
M  V30 1772 H 167.617 1.56261 1.08086 0
M  V30 1773 H 165.767 1.55095 3.56199 0
M  V30 1774 H 167.439 3.9105 2.44698 0
M  V30 1775 H 165.682 3.71373 2.24198 0
M  V30 1776 H 166.353 3.94694 3.85902 0
M  V30 1777 H 168.829 2.0337 3.63015 0
M  V30 1778 H 167.705 2.28651 4.99009 0
M  V30 1779 H 167.966 0.663555 4.37092 0
M  V30 1780 N 167.025 -1.13721 1.09112 0
M  V30 1781 C 167.988 -2.17222 0.731241 0
M  V30 1782 C 168.988 -1.59035 -0.237566 0
M  V30 1783 O 170.178 -1.74192 -0.0161704 0
M  V30 1784 C 167.31 -3.40804 0.0808443 0
M  V30 1785 H 168.503 -2.50573 1.64783 0
M  V30 1786 H 166.056 -1.28493 0.889897 0
M  V30 1787 H 166.791 -3.1304 -0.847127 0
M  V30 1788 H 166.576 -3.84306 0.777896 0
M  V30 1789 H 168.066 -4.1731 -0.155657 0
M  V30 1790 N 168.503 -0.877838 -1.30888 0
M  V30 1791 C 169.75 -0.492696 -1.96415 0
M  V30 1792 C 170.078 0.956671 -1.69346 0
M  V30 1793 O 169.333 1.68993 -0.986913 0
M  V30 1794 C 169.632 -0.705748 -3.50363 0
M  V30 1795 C 169.298 -2.1291 -3.97467 0
M  V30 1796 C 167.96 -2.51834 -4.1004 0
M  V30 1797 C 170.312 -3.05702 -4.22132 0
M  V30 1798 C 167.64 -3.82775 -4.44635 0
M  V30 1799 C 169.992 -4.36166 -4.58194 0
M  V30 1800 C 168.656 -4.74993 -4.68975 0
M  V30 1801 H 167.926 -0.18029 -0.718733 0
M  V30 1802 H 170.573 -1.11233 -1.55883 0
M  V30 1803 H 168.878 -0.00303058 -3.918 0
M  V30 1804 H 170.575 -0.387456 -3.99124 0
M  V30 1805 H 167.165 -1.81694 -3.88182 0
M  V30 1806 H 171.349 -2.76853 -4.11906 0
M  V30 1807 H 166.605 -4.12609 -4.51181 0
M  V30 1808 H 170.779 -5.08111 -4.76231 0
M  V30 1809 H 168.406 -5.76495 -4.95537 0
M  V30 1810 N 169.982 1.44106 -0.638065 0
M  V30 1811 C 170.93 2.3248 0.0748149 0
M  V30 1812 C 171.924 1.47746 0.828702 0
M  V30 1813 O 173.13 1.64049 0.740816 0
M  V30 1814 H 169.505 0.750771 0.0429686 0
M  V30 1815 H 171.476 2.90348 -0.688504 0
M  V30 1816 C 170.225 3.31843 1.03805 0
M  V30 1817 H 169.548 3.97059 0.467375 0
M  V30 1818 H 170.988 3.96345 1.50622 0
M  V30 1819 C 169.447 2.61291 2.1267 0
M  V30 1820 O 169.977 2.41702 3.20847 0
M  V30 1821 N 168.183 2.20915 1.88798 0
M  V30 1822 H 167.73 2.37047 1.00829 0
M  V30 1823 H 167.688 1.74038 2.61836 0
M  V30 1824 N 171.46 0.379036 1.52974 0
M  V30 1825 C 172.407 -0.461048 2.26148 0
M  V30 1826 C 173.377 -1.06637 1.27349 0
M  V30 1827 O 174.562 -1.09633 1.56157 0
M  V30 1828 C 171.702 -1.58782 3.06402 0
M  V30 1829 C 170.815 -1.00636 4.20115 0
M  V30 1830 C 169.95 -2.10334 4.87784 0
M  V30 1831 C 168.989 -1.49724 5.93506 0
M  V30 1832 N 168.126 -2.5331 6.54812 0
M  V30 1833 H 172.966 0.169429 2.97518 0
M  V30 1834 H 170.503 0.0953806 1.4679 0
M  V30 1835 H 172.461 -2.25174 3.51215 0
M  V30 1836 H 171.091 -2.18876 2.37261 0
M  V30 1837 H 170.143 -0.232332 3.7969 0
M  V30 1838 H 171.455 -0.523343 4.96047 0
M  V30 1839 H 170.609 -2.84519 5.35849 0
M  V30 1840 H 169.348 -2.61992 4.11353 0
M  V30 1841 H 168.353 -0.740598 5.44789 0
M  V30 1842 H 169.578 -0.988732 6.71864 0
M  V30 1843 H 167.524 -3.04156 5.81227 0
M  V30 1844 H 167.441 -2.09734 7.26325 0
M  V30 1845 H 168.709 -3.27155 7.07524 0
M  V30 1846 N 172.938 -1.57226 0.108567 0
M  V30 1847 C 174.187 -1.94008 -0.551703 0
M  V30 1848 C 174.5 -0.993442 -1.68494 0
M  V30 1849 O 175.706 -1.25551 -2.40726 0
M  V30 1850 C 174.162 -3.44763 -1.03279 0
M  V30 1851 C 173.77 -4.47943 0.0714193 0
M  V30 1852 C 175.514 -3.90483 -1.66503 0
M  V30 1853 C 173.421 -5.89865 -0.425779 0
M  V30 1854 H 172.351 -0.724206 -0.209863 0
M  V30 1855 H 175.002 -1.82547 0.186741 0
M  V30 1856 H 173.384 -3.51422 -1.82533 0
M  V30 1857 H 174.558 -4.52942 0.847365 0
M  V30 1858 H 172.873 -4.11913 0.609669 0
M  V30 1859 H 175.47 -4.93925 -2.04798 0
M  V30 1860 H 175.813 -3.29877 -2.53942 0
M  V30 1861 H 176.346 -3.86581 -0.938074 0
M  V30 1862 H 173.085 -6.54202 0.412316 0
M  V30 1863 H 172.605 -5.88309 -1.16843 0
M  V30 1864 H 174.284 -6.40844 -0.890397 0
M  V30 1865 N 174.416 0.165178 -1.56732 0
M  V30 1866 C 175.644 0.896218 -1.86482 0
M  V30 1867 C 176.059 1.75555 -0.694675 0
M  V30 1868 O 175.416 1.79379 0.33607 0
M  V30 1869 C 175.467 1.76792 -3.1532 0
M  V30 1870 O 175.188 0.943239 -4.27825 0
M  V30 1871 C 176.689 2.6081 -3.58459 0
M  V30 1872 H 173.909 0.260064 -0.618553 0
M  V30 1873 H 176.453 0.163428 -2.03846 0
M  V30 1874 H 174.608 2.45398 -2.99764 0
M  V30 1875 H 175.022 1.53998 -5.01383 0
M  V30 1876 H 176.496 3.17579 -4.51495 0
M  V30 1877 H 176.973 3.35977 -2.82872 0
M  V30 1878 H 177.579 1.97526 -3.76648 0
M  V30 1879 N 175.894 1.51508 0.433938 0
M  V30 1880 C 177.171 1.54888 1.19453 0
M  V30 1881 C 177.551 0.315154 2.08734 0
M  V30 1882 O 176.899 -0.699558 2.17528 0
M  V30 1883 C 177.109 2.86467 1.99342 0
M  V30 1884 C 178.457 3.38545 2.56267 0
M  V30 1885 O 179.481 2.88041 2.0955 0
M  V30 1886 O 178.34 4.26675 3.41483 0
M  V30 1887 H 175.434 0.622863 0.544032 0
M  V30 1888 H 177.98 1.63823 0.442732 0
M  V30 1889 H 176.752 3.67718 1.33788 0
M  V30 1890 H 176.375 2.8071 2.8158 0
M  V30 1891 N 177.372 -0.689602 1.41712 0
M  V30 1892 C 178.618 -1.45181 1.41599 0
M  V30 1893 C 178.951 -1.94181 0.0270081 0
M  V30 1894 O 178.226 -1.6993 -0.946265 0
M  V30 1895 C 178.509 -2.65945 2.42787 0
M  V30 1896 C 178.362 -2.22672 3.90816 0
M  V30 1897 C 179.681 -3.68149 2.41151 0
M  V30 1898 H 176.8 -0.526576 0.515642 0
M  V30 1899 H 179.442 -0.784947 1.73028 0
M  V30 1900 H 177.592 -3.2284 2.16116 0
M  V30 1901 H 179.264 -1.71058 4.28412 0
M  V30 1902 H 177.507 -1.54394 4.05395 0
M  V30 1903 H 178.178 -3.0935 4.57172 0
M  V30 1904 H 180.654 -3.2094 2.64834 0
M  V30 1905 H 179.53 -4.50248 3.13955 0
M  V30 1906 H 179.791 -4.18259 1.43221 0
M  V30 1907 N 178.85 -1.27639 -0.924453 0
M  V30 1908 C 180.099 -1.13549 -1.66702 0
M  V30 1909 C 180.412 0.317487 -1.93006 0
M  V30 1910 O 181.618 0.579333 -2.65247 0
M  V30 1911 C 180.074 -1.98426 -3.00259 0
M  V30 1912 C 179.682 -3.484 -2.81641 0
M  V30 1913 C 181.426 -1.92993 -3.78092 0
M  V30 1914 C 179.333 -4.25464 -4.10773 0
M  V30 1915 H 178.263 -0.421351 -0.625283 0
M  V30 1916 H 180.914 -1.52085 -1.02676 0
M  V30 1917 H 179.296 -1.52736 -3.6536 0
M  V30 1918 H 180.47 -4.01973 -2.25287 0
M  V30 1919 H 178.785 -3.55245 -2.17232 0
M  V30 1920 H 181.382 -2.47844 -4.7379 0
M  V30 1921 H 181.725 -0.904281 -4.0636 0
M  V30 1922 H 182.258 -2.36595 -3.19793 0
M  V30 1923 H 178.997 -5.28566 -3.87683 0
M  V30 1924 H 178.517 -3.76667 -4.66779 0
M  V30 1925 H 180.196 -4.34812 -4.79111 0
M  V30 1926 N 180.328 1.1314 -1.09713 0
M  V30 1927 C 181.276 2.20717 -0.733934 0
M  V30 1928 C 182.27 1.6729 0.266506 0
M  V30 1929 O 183.476 1.79547 0.127656 0
M  V30 1930 H 179.851 0.719292 -0.21937 0
M  V30 1931 H 181.822 2.48611 -1.6503 0
M  V30 1932 C 180.571 3.47265 -0.173849 0
M  V30 1933 H 179.894 3.88716 -0.934873 0
M  V30 1934 H 181.334 4.23979 0.0423126 0
M  V30 1935 C 179.793 3.18724 1.09164 0
M  V30 1936 O 180.323 3.37762 2.17439 0
M  V30 1937 N 178.529 2.72583 1.00732 0
M  V30 1938 H 178.076 2.57291 0.126121 0
M  V30 1939 H 178.034 2.53862 1.85476 0
M  V30 1940 N 181.806 0.884767 1.30421 0
M  V30 1941 C 182.754 0.340869 2.30089 0
M  V30 1942 C 183.748 -0.55201 1.60154 0
M  V30 1943 O 184.954 -0.436467 1.74628 0
M  V30 1944 H 181.329 0.0915739 0.746404 0
M  V30 1945 H 183.3 1.19513 2.73421 0
M  V30 1946 C 182.049 -0.429779 3.45034 0
M  V30 1947 H 181.372 0.248024 3.9903 0
M  V30 1948 H 182.812 -0.775445 4.16849 0
M  V30 1949 C 181.271 -1.62677 2.95022 0
M  V30 1950 O 181.801 -2.72614 2.95033 0
M  V30 1951 N 180.007 -1.46387 2.51036 0
M  V30 1952 H 179.554 -0.569506 2.51226 0
M  V30 1953 H 179.512 -2.26612 2.17932 0
M  V30 1954 N 183.284 -1.43765 0.645699 0
M  V30 1955 C 184.533 -2.01116 0.153412 0
M  V30 1956 C 184.846 -1.51493 -1.23731 0
M  V30 1957 O 186.052 -2.01067 -1.8244 0
M  V30 1958 C 184.508 -3.59206 0.223473 0
M  V30 1959 C 184.116 -4.17823 1.61642 0
M  V30 1960 C 185.86 -4.23972 -0.211597 0
M  V30 1961 C 183.767 -5.68183 1.64081 0
M  V30 1962 H 182.697 -0.752093 0.0535891 0
M  V30 1963 H 185.348 -1.6482 0.806633 0
M  V30 1964 H 183.73 -3.92867 -0.497118 0
M  V30 1965 H 184.904 -3.95674 2.36176 0
M  V30 1966 H 183.219 -3.65399 1.99681 0
M  V30 1967 H 185.816 -5.34275 -0.213112 0
M  V30 1968 H 186.159 -3.97352 -1.24165 0
M  V30 1969 H 186.692 -3.95166 0.456988 0
M  V30 1970 H 183.431 -5.99559 2.64971 0
M  V30 1971 H 182.951 -5.9241 0.938611 0
M  V30 1972 H 184.63 -6.32085 1.3812 0
M  V30 1973 N 184.763 -0.387143 -1.52771 0
M  V30 1974 C 185.673 0.456442 -2.30117 0
M  V30 1975 C 186.689 1.07342 -1.36944 0
M  V30 1976 O 187.865 1.07971 -1.70013 0
M  V30 1977 C 184.93 1.56957 -3.09136 0
M  V30 1978 C 183.991 0.977916 -4.18014 0
M  V30 1979 C 183.224 2.038 -4.93256 0
M  V30 1980 O 183.447 3.25271 -4.68567 0
M  V30 1981 O 182.381 1.6565 -5.78657 0
M  V30 1982 H 186.207 -0.17359 -3.03203 0
M  V30 1983 H 183.792 -0.150919 -1.48636 0
M  V30 1984 H 185.674 2.21628 -3.58412 0
M  V30 1985 H 184.349 2.18461 -2.38865 0
M  V30 1986 H 183.256 0.294525 -3.72939 0
M  V30 1987 H 184.589 0.407128 -4.90513 0
M  V30 1988 N 186.241 1.57166 -0.116904 0
M  V30 1989 C 187.518 1.86645 0.585049 0
M  V30 1990 C 187.898 1.0177 1.84949 0
M  V30 1991 O 187.246 0.0960379 2.28298 0
M  V30 1992 C 187.456 3.37736 0.879507 0
M  V30 1993 C 188.804 4.06289 1.23348 0
M  V30 1994 O 189.828 3.42743 0.969836 0
M  V30 1995 O 188.687 5.18455 1.7282 0
M  V30 1996 H 185.781 0.772593 0.295007 0
M  V30 1997 H 188.327 1.69025 -0.151249 0
M  V30 1998 H 187.099 3.91296 -0.0166136 0
M  V30 1999 H 186.722 3.6078 1.67103 0
M  V30 2000 N 187.719 -0.156864 1.56817 0
M  V30 2001 C 188.651 -1.21883 1.94106 0
M  V30 2002 C 189.664 -1.3971 0.835754 0
M  V30 2003 O 190.853 -1.39457 1.11418 0
M  V30 2004 C 187.953 -2.58527 2.19127 0
M  V30 2005 C 187.126 -2.61809 3.50393 0
M  V30 2006 C 186.185 -3.7992 3.64071 0
M  V30 2007 O 185.211 -3.65249 4.36557 0
M  V30 2008 N 186.413 -4.96973 2.99997 0
M  V30 2009 H 189.178 -0.901974 2.85805 0
M  V30 2010 H 186.739 -0.346513 1.58148 0
M  V30 2011 H 188.731 -3.36034 2.25529 0
M  V30 2012 H 187.301 -2.82545 1.33742 0
M  V30 2013 H 186.521 -1.7029 3.5552 0
M  V30 2014 H 187.809 -2.61024 4.36742 0
M  V30 2015 H 187.207 -5.11794 2.41004 0
M  V30 2016 H 185.764 -5.7229 3.11974 0
M  V30 2017 N 189.197 -1.51736 -0.425897 0
M  V30 2018 C 190.443 -1.66174 -1.17294 0
M  V30 2019 C 190.798 -0.37876 -1.88635 0
M  V30 2020 O 190.091 0.626021 -1.81084 0
M  V30 2021 C 190.285 -2.81103 -2.20717 0
M  V30 2022 C 190.114 -4.20453 -1.59529 0
M  V30 2023 C 188.884 -4.86225 -1.37525 0
M  V30 2024 C 191.082 -5.03146 -1.06528 0
M  V30 2025 N 189.064 -6.09657 -0.720537 0
M  V30 2026 C 190.435 -6.17674 -0.536506 0
M  V30 2027 C 192.49 -4.88594 -0.958127 0
M  V30 2028 C 191.193 -7.19245 0.0888917 0
M  V30 2029 C 193.219 -5.90383 -0.346608 0
M  V30 2030 C 192.581 -7.04191 0.171564 0
M  V30 2031 H 188.68 -0.661871 -0.416475 0
M  V30 2032 H 191.264 -1.88997 -0.467801 0
M  V30 2033 H 189.435 -2.59924 -2.88607 0
M  V30 2034 H 191.167 -2.84662 -2.87663 0
M  V30 2035 H 187.922 -4.44293 -1.64015 0
M  V30 2036 H 188.346 -6.75756 -0.410292 0
M  V30 2037 H 192.988 -4.0085 -1.34459 0
M  V30 2038 H 190.706 -8.06628 0.48746 0
M  V30 2039 H 194.292 -5.81194 -0.265451 0
M  V30 2040 H 193.172 -7.81606 0.637309 0
M  V30 2041 N 190.675 0.682077 -1.42076 0
M  V30 2042 C 191.9 1.47558 -1.45744 0
M  V30 2043 C 192.325 1.87977 -0.0680981 0
M  V30 2044 O 191.683 1.55522 0.9318 0
M  V30 2045 C 191.731 2.70575 -2.38373 0
M  V30 2046 O 190.835 3.68573 -1.85007 0
M  V30 2047 H 190.176 0.443585 -0.494093 0
M  V30 2048 H 192.706 0.837238 -1.86686 0
M  V30 2049 H 192.716 3.18729 -2.54707 0
M  V30 2050 H 191.391 2.40495 -3.39315 0
M  V30 2051 H 189.968 3.2757 -1.78192 0
M  V30 2052 N 192.153 1.28127 0.917671 0
M  V30 2053 C 193.399 1.15223 1.66888 0
M  V30 2054 C 193.732 -0.299293 1.9188 0
M  V30 2055 O 193.007 -1.21805 1.51637 0
M  V30 2056 C 193.29 1.94706 3.02922 0
M  V30 2057 C 193.143 3.47898 2.85109 0
M  V30 2058 C 194.462 1.75939 4.03402 0
M  V30 2059 H 191.581 0.419946 0.605652 0
M  V30 2060 H 194.223 1.57398 1.06423 0
M  V30 2061 H 192.373 1.58864 3.54534 0
M  V30 2062 H 194.045 3.93624 2.40537 0
M  V30 2063 H 192.288 3.7373 2.20246 0
M  V30 2064 H 192.959 3.98765 3.81694 0
M  V30 2065 H 195.435 2.07209 3.60837 0
M  V30 2066 H 194.311 2.33931 4.96556 0
M  V30 2067 H 194.572 0.709877 4.36364 0
M  V30 2068 N 193.631 -1.12557 1.10312 0
M  V30 2069 C 195.047 -1.36036 0.834649 0
M  V30 2070 C 195.247 -1.93946 -0.546539 0
M  V30 2071 O 194.303 -2.16484 -1.29966 0
M  V30 2072 C 195.616 -2.30312 1.9333 0
M  V30 2073 C 197.164 -2.43906 1.9616 0
M  V30 2074 C 197.639 -3.41496 3.05195 0
M  V30 2075 N 199.13 -3.49053 3.04494 0
M  V30 2076 C 199.865 -4.24471 3.85502 0
M  V30 2077 N 199.361 -5.02966 4.76442 0
M  V30 2078 N 201.154 -4.19864 3.73725 0
M  V30 2079 H 193.305 -0.733246 1.99342 0
M  V30 2080 H 195.568 -0.385234 0.866198 0
M  V30 2081 H 195.274 -1.94933 2.92735 0
M  V30 2082 H 195.148 -3.30421 1.81939 0
M  V30 2083 H 197.535 -2.78567 0.973886 0
M  V30 2084 H 197.616 -1.4369 2.11629 0
M  V30 2085 H 197.26 -3.07565 4.04186 0
M  V30 2086 H 197.19 -4.41539 2.86968 0
M  V30 2087 H 199.681 -2.93053 2.38596 0
M  V30 2088 H 199.994 -5.57846 5.34815 0
M  V30 2089 H 198.339 -5.02167 4.80472 0
M  V30 2090 H 201.53 -3.57623 3.02032 0
M  V30 2091 H 201.703 -4.78386 4.37093 0
M  V30 2092 N 195.109 -0.891671 -1.2995 0
M  V30 2093 C 196.525 -0.58662 -1.48428 0
M  V30 2094 C 196.725 0.873951 -1.81561 0
M  V30 2095 O 195.781 1.65471 -1.90724 0
M  V30 2096 C 197.094 -1.50553 -2.60296 0
M  V30 2097 C 198.642 -1.50988 -2.74175 0
M  V30 2098 C 199.117 -2.41488 -3.89163 0
M  V30 2099 N 200.608 -2.39489 -3.96483 0
M  V30 2100 C 201.343 -3.06223 -4.84784 0
M  V30 2101 N 200.839 -3.82206 -5.77833 0
M  V30 2102 N 202.632 -2.95421 -4.78208 0
M  V30 2103 H 194.783 -1.83644 -1.06718 0
M  V30 2104 H 197.046 -0.786455 -0.529332 0
M  V30 2105 H 196.752 -2.54581 -2.42654 0
M  V30 2106 H 196.626 -1.22008 -3.56923 0
M  V30 2107 H 199.013 -0.47708 -2.91218 0
M  V30 2108 H 199.094 -1.83567 -1.78148 0
M  V30 2109 H 198.738 -3.44857 -3.72876 0
M  V30 2110 H 198.668 -2.06222 -4.84541 0
M  V30 2111 H 201.159 -1.84278 -3.29924 0
M  V30 2112 H 201.472 -4.302 -6.41988 0
M  V30 2113 H 199.817 -3.86313 -5.77743 0
M  V30 2114 H 203.008 -2.35581 -4.04499 0
M  V30 2115 H 203.181 -3.47704 -5.46814 0
M  V30 2116 N 196.587 1.43421 -0.653314 0
M  V30 2117 C 197.517 2.33487 0.0246656 0
M  V30 2118 C 198.498 1.49475 0.811863 0
M  V30 2119 O 199.683 1.78139 0.773322 0
M  V30 2120 C 196.813 3.32841 0.99166 0
M  V30 2121 C 195.767 4.26842 0.314568 0
M  V30 2122 C 195.093 5.16236 1.39302 0
M  V30 2123 C 196.393 5.16243 -0.793095 0
M  V30 2124 H 198.087 2.90427 -0.727481 0
M  V30 2125 H 195.633 1.39649 -0.351287 0
M  V30 2126 H 197.586 3.94747 1.47487 0
M  V30 2127 H 196.31 2.74158 1.77497 0
M  V30 2128 H 194.969 3.663 -0.148199 0
M  V30 2129 H 194.617 4.53891 2.16776 0
M  V30 2130 H 194.317 5.79948 0.945223 0
M  V30 2131 H 195.841 5.81015 1.87759 0
M  V30 2132 H 197.255 5.71958 -0.392039 0
M  V30 2133 H 195.652 5.88676 -1.16536 0
M  V30 2134 H 196.722 4.55927 -1.65103 0
M  V30 2135 N 198.065 0.39524 1.52563 0
M  V30 2136 C 198.998 -0.4813 2.23067 0
M  V30 2137 C 199.976 -1.05927 1.23362 0
M  V30 2138 O 201.16 -1.10979 1.52368 0
M  V30 2139 C 198.287 -1.66676 2.9485 0
M  V30 2140 C 197.333 -1.21348 4.08873 0
M  V30 2141 S 198.166 -0.190102 5.35162 0
M  V30 2142 C 199.322 -1.38121 6.1047 0
M  V30 2143 H 199.555 0.117381 2.97068 0
M  V30 2144 H 197.088 0.179458 1.53354 0
M  V30 2145 H 199.046 -2.3466 3.36816 0
M  V30 2146 H 197.707 -2.23676 2.20518 0
M  V30 2147 H 196.9 -2.09877 4.58222 0
M  V30 2148 H 196.502 -0.612486 3.68951 0
M  V30 2149 H 198.794 -2.30726 6.37002 0
M  V30 2150 H 199.737 -0.928521 7.01986 0
M  V30 2151 H 200.145 -1.60071 5.41329 0
M  V30 2152 N 199.544 -1.57102 0.125237 0
M  V30 2153 C 200.476 -2.12726 -0.853237 0
M  V30 2154 C 201.489 -1.07145 -1.22571 0
M  V30 2155 O 202.678 -1.34497 -1.17358 0
M  V30 2156 C 199.778 -2.61709 -2.15317 0
M  V30 2157 C 198.951 -3.91456 -1.95143 0
M  V30 2158 C 198.01 -4.25973 -3.08923 0
M  V30 2159 O 197.036 -4.94682 -2.81564 0
M  V30 2160 N 198.238 -3.83795 -4.35524 0
M  V30 2161 H 201.003 -2.97307 -0.377964 0
M  V30 2162 H 198.564 -1.61792 -0.0590011 0
M  V30 2163 H 200.556 -2.81826 -2.90441 0
M  V30 2164 H 199.126 -1.81974 -2.54174 0
M  V30 2165 H 198.346 -3.80185 -1.04177 0
M  V30 2166 H 199.634 -4.76283 -1.78976 0
M  V30 2167 H 199.032 -3.2839 -4.60626 0
M  V30 2168 H 197.589 -4.09008 -5.07499 0
M  V30 2169 N 201.022 0.148545 -1.56898 0
M  V30 2170 C 201.985 1.16736 -1.97244 0
M  V30 2171 C 202.985 1.35947 -0.858777 0
M  V30 2172 O 204.175 1.32966 -1.12542 0
M  V30 2173 C 201.307 2.52798 -2.28705 0
M  V30 2174 H 202.5 0.821279 -2.88435 0
M  V30 2175 H 200.053 0.391831 -1.51309 0
M  V30 2176 H 200.788 2.92381 -1.403 0
M  V30 2177 H 200.573 2.40216 -3.09901 0
M  V30 2178 H 202.063 3.26179 -2.60762 0
M  V30 2179 N 202.5 1.5196 0.417844 0
M  V30 2180 C 203.43 1.77634 1.51554 0
M  V30 2181 C 204.411 0.626918 1.58126 0
M  V30 2182 O 205.596 0.871632 1.7354 0
M  V30 2183 C 202.726 1.91911 2.8946 0
M  V30 2184 C 201.68 3.07463 2.97743 0
M  V30 2185 C 201.006 3.06951 4.37819 0
M  V30 2186 C 202.306 4.47082 2.70027 0
M  V30 2187 H 204 2.6955 1.3032 0
M  V30 2188 H 201.546 1.29706 0.625492 0
M  V30 2189 H 203.499 2.08455 3.6623 0
M  V30 2190 H 202.223 0.966598 3.11969 0
M  V30 2191 H 200.882 2.90656 2.23416 0
M  V30 2192 H 200.53 2.09438 4.57323 0
M  V30 2193 H 200.23 3.84556 4.44286 0
M  V30 2194 H 201.754 3.25613 5.16535 0
M  V30 2195 H 203.168 4.6414 3.36522 0
M  V30 2196 H 201.565 5.2654 2.87881 0
M  V30 2197 H 202.635 4.55777 1.65514 0
M  V30 2198 N 203.978 -0.674533 1.42435 0
M  V30 2199 C 205.226 -1.43175 1.42637 0
M  V30 2200 C 205.547 -1.94951 0.0438992 0
M  V30 2201 O 204.817 -1.7308 -0.917607 0
M  V30 2202 H 203.397 -0.531307 0.525092 0
M  V30 2203 H 206.059 -0.797006 1.77859 0
M  V30 2204 H 205.155 -2.28463 2.12629 0
M  V30 2205 N 205.456 -1.28612 -0.910864 0
M  V30 2206 C 206.684 -1.18792 -1.69399 0
M  V30 2207 C 207.099 0.253039 -1.87097 0
M  V30 2208 O 206.456 1.17071 -1.40003 0
M  V30 2209 C 206.507 -1.88511 -3.08457 0
M  V30 2210 O 206.228 -3.26979 -2.91576 0
M  V30 2211 C 207.729 -1.85029 -4.02839 0
M  V30 2212 H 204.949 -0.412233 -0.529438 0
M  V30 2213 H 207.493 -1.69788 -1.13984 0
M  V30 2214 H 205.648 -1.41379 -3.60681 0
M  V30 2215 H 206.062 -3.61936 -3.79608 0
M  V30 2216 H 207.536 -2.38395 -4.97867 0
M  V30 2217 H 208.013 -0.823303 -4.31414 0
M  V30 2218 H 208.619 -2.31853 -3.56545 0
M  V30 2219 N 206.934 1.1197 -1.10907 0
M  V30 2220 C 208.211 1.79959 -0.766432 0
M  V30 2221 C 208.591 1.97466 0.746363 0
M  V30 2222 O 207.939 1.55491 1.67436 0
M  V30 2223 C 208.149 3.14009 -1.52314 0
M  V30 2224 C 209.497 3.89134 -1.69883 0
M  V30 2225 O 210.521 3.2368 -1.48692 0
M  V30 2226 O 209.38 5.06572 -2.05054 0
M  V30 2227 H 206.474 0.779208 -0.277062 0
M  V30 2228 H 209.02 1.18762 -1.21217 0
M  V30 2229 H 207.792 2.96587 -2.55249 0
M  V30 2230 H 207.415 3.82915 -1.07059 0
M  V30 2231 N 208.412 0.89855 1.29475 0
M  V30 2232 C 209.342 0.39201 2.30186 0
M  V30 2233 C 210.323 -0.532359 1.61555 0
M  V30 2234 O 211.508 -0.443331 1.89072 0
M  V30 2235 C 208.638 -0.382353 3.45189 0
M  V30 2236 C 207.592 0.451483 4.25612 0
M  V30 2237 C 206.918 -0.450307 5.328 0
M  V30 2238 C 208.218 1.70079 4.93832 0
M  V30 2239 H 209.912 1.23362 2.72804 0
M  V30 2240 H 207.458 0.594638 1.31149 0
M  V30 2241 H 209.411 -0.747451 4.14718 0
M  V30 2242 H 208.135 -1.25774 3.01411 0
M  V30 2243 H 206.794 0.798897 3.57789 0
M  V30 2244 H 206.442 -1.32379 4.85268 0
M  V30 2245 H 206.142 0.103902 5.87508 0
M  V30 2246 H 207.666 -0.811623 6.05182 0
M  V30 2247 H 209.08 1.40549 5.55805 0
M  V30 2248 H 207.477 2.19623 5.58467 0
M  V30 2249 H 208.547 2.43744 4.19186 0
M  V30 2250 N 209.89 -1.43072 0.660911 0
M  V30 2251 C 211.139 -2.00942 0.174735 0
M  V30 2252 C 211.452 -1.52797 -1.22117 0
M  V30 2253 O 212.658 -2.02991 -1.80297 0
M  V30 2254 C 211.114 -3.58948 0.261559 0
M  V30 2255 C 210.722 -4.16085 1.66064 0
M  V30 2256 C 212.466 -4.24173 -0.166617 0
M  V30 2257 C 210.373 -5.6641 1.70098 0
M  V30 2258 H 209.303 -0.751483 0.0615631 0
M  V30 2259 H 211.954 -1.63955 0.824069 0
M  V30 2260 H 210.336 -3.93372 -0.455421 0
M  V30 2261 H 211.51 -3.93147 2.40359 0
M  V30 2262 H 209.825 -3.6326 2.03546 0
M  V30 2263 H 212.422 -5.34471 -0.156433 0
M  V30 2264 H 212.765 -3.98647 -1.19943 0
M  V30 2265 H 213.298 -3.94659 0.498875 0
M  V30 2266 H 210.037 -5.96715 2.71315 0
M  V30 2267 H 209.557 -5.91382 1.00139 0
M  V30 2268 H 211.236 -6.30585 1.44816 0
M  V30 2269 N 211.368 -0.403325 -1.52352 0
M  V30 2270 C 212.614 0.174605 -2.02047 0
M  V30 2271 C 212.947 1.45282 -1.28867 0
M  V30 2272 O 212.222 1.90483 -0.393257 0
M  V30 2273 C 212.505 0.428238 -3.57545 0
M  V30 2274 C 212.358 -0.866248 -4.4138 0
M  V30 2275 C 213.677 1.21287 -4.23057 0
M  V30 2276 H 210.796 0.0619851 -0.734389 0
M  V30 2277 H 213.438 -0.53565 -1.82293 0
M  V30 2278 H 211.588 1.03327 -3.74507 0
M  V30 2279 H 213.26 -1.50265 -4.3614 0
M  V30 2280 H 211.503 -1.47851 -4.07827 0
M  V30 2281 H 212.174 -0.643249 -5.48239 0
M  V30 2282 H 214.65 0.700703 -4.10158 0
M  V30 2283 H 213.526 1.35909 -5.31808 0
M  V30 2284 H 213.787 2.23193 -3.81625 0
M  V30 2285 N 212.846 1.57033 -0.133567 0
M  V30 2286 C 213.794 2.17348 0.828412 0
M  V30 2287 C 214.788 1.12671 1.26498 0
M  V30 2288 O 215.994 1.30947 1.23502 0
M  V30 2289 H 212.369 0.695775 0.285309 0
M  V30 2290 H 214.34 2.96935 0.295372 0
M  V30 2291 C 213.089 2.79893 2.06289 0
M  V30 2292 H 212.412 3.60147 1.73592 0
M  V30 2293 H 213.852 3.25615 2.71572 0
M  V30 2294 C 212.311 1.77713 2.86216 0
M  V30 2295 O 212.841 1.23937 3.82103 0
M  V30 2296 N 211.047 1.47321 2.50489 0
M  V30 2297 H 210.594 1.91243 1.7258 0
M  V30 2298 H 210.552 0.79199 3.04261 0
M  V30 2299 N 214.325 -0.140222 1.56975 0
M  V30 2300 C 215.273 -1.19207 1.99731 0
M  V30 2301 C 216.267 -1.44089 0.890777 0
M  V30 2302 O 217.473 -1.44301 1.07597 0
M  V30 2303 H 213.848 -0.40142 0.635898 0
M  V30 2304 H 215.819 -0.804813 2.87342 0
M  V30 2305 C 214.568 -2.51617 2.39967 0
M  V30 2306 H 213.891 -2.33303 3.24669 0
M  V30 2307 H 215.331 -3.23827 2.73701 0
M  V30 2308 C 213.79 -3.12654 1.25496 0
M  V30 2309 O 214.32 -3.97786 0.559371 0
M  V30 2310 N 212.526 -2.72206 1.01746 0
M  V30 2311 H 212.073 -2.03074 1.58489 0
M  V30 2312 H 212.031 -3.13377 0.253461 0
M  V30 2313 N 215.803 -1.52179 -0.40978 0
M  V30 2314 C 217.05 -1.66206 -1.15679 0
M  V30 2315 C 217.378 -0.391674 -1.90516 0
M  V30 2316 O 216.633 0.62533 -1.8544 0
M  V30 2317 C 216.932 -2.83428 -2.17723 0
M  V30 2318 C 216.598 -4.21672 -1.59699 0
M  V30 2319 C 215.26 -4.59274 -1.43599 0
M  V30 2320 C 217.612 -5.07825 -1.17317 0
M  V30 2321 C 214.94 -5.80709 -0.836328 0
M  V30 2322 C 217.292 -6.29864 -0.587691 0
M  V30 2323 C 215.956 -6.66216 -0.413818 0
M  V30 2324 H 215.226 -0.608192 -0.423301 0
M  V30 2325 H 217.873 -1.86279 -0.444097 0
M  V30 2326 H 216.178 -2.57687 -2.95135 0
M  V30 2327 H 217.875 -2.91477 -2.75394 0
M  V30 2328 H 214.465 -3.9204 -1.73213 0
M  V30 2329 H 218.649 -4.79359 -1.28565 0
M  V30 2330 H 213.905 -6.07498 -0.689626 0
M  V30 2331 H 218.079 -6.95948 -0.250894 0
M  V30 2332 H 215.706 -7.60182 0.0529471 0
M  V30 2333 N 217.281 0.66697 -1.42791 0
M  V30 2334 C 218.558 1.4234 -1.34159 0
M  V30 2335 C 218.938 2.11093 0.0172729 0
M  V30 2336 O 218.286 2.03808 1.03318 0
M  V30 2337 C 218.496 2.41942 -2.51526 0
M  V30 2338 C 219.844 3.06353 -2.93995 0
M  V30 2339 O 220.868 2.52269 -2.51473 0
M  V30 2340 O 219.727 4.04376 -3.67617 0
M  V30 2341 H 216.821 0.635277 -0.529483 0
M  V30 2342 H 219.367 0.695034 -1.54814 0
M  V30 2343 H 218.139 1.89991 -3.42081 0
M  V30 2344 H 217.762 3.22249 -2.32898 0
M  V30 2345 N 218.759 1.29093 0.90403 0
M  V30 2346 C 220.175 1.07011 1.1841 0
M  V30 2347 C 220.375 -0.181358 2.00682 0
M  V30 2348 O 219.431 -0.880331 2.36657 0
M  V30 2349 C 220.744 2.32311 1.90924 0
M  V30 2350 C 222.292 2.37587 2.03768 0
M  V30 2351 C 222.767 3.62679 2.79693 0
M  V30 2352 N 224.258 3.63376 2.87249 0
M  V30 2353 C 224.993 4.56848 3.46522 0
M  V30 2354 N 224.489 5.60648 4.06996 0
M  V30 2355 N 226.282 4.44426 3.44154 0
M  V30 2356 H 218.433 2.09412 0.354993 0
M  V30 2357 H 220.696 0.922181 0.219742 0
M  V30 2358 H 220.402 3.23536 1.37905 0
M  V30 2359 H 220.276 2.39483 2.91424 0
M  V30 2360 H 222.663 1.46853 2.55965 0
M  V30 2361 H 222.744 2.34403 1.02415 0
M  V30 2362 H 222.388 4.53762 2.28173 0
M  V30 2363 H 222.318 3.63119 3.81381 0
M  V30 2364 H 224.809 2.88321 2.44293 0
M  V30 2365 H 225.122 6.28101 4.50232 0
M  V30 2366 H 223.467 5.64463 4.05471 0
M  V30 2367 H 226.658 3.62529 2.96126 0
M  V30 2368 H 226.831 5.17457 3.90054 0
M  V30 2369 N 220.237 -1.11381 1.11499 0
M  V30 2370 C 221.17 -2.16621 0.71769 0
M  V30 2371 C 222.148 -1.60058 -0.286413 0
M  V30 2372 O 223.332 -1.87613 -0.182689 0
M  V30 2373 C 220.459 -3.38646 0.0607265 0
M  V30 2374 C 219.505 -4.13874 1.03008 0
M  V30 2375 S 220.338 -4.70731 2.55289 0
M  V30 2376 C 221.494 -5.96079 1.90895 0
M  V30 2377 H 221.727 -2.49987 1.60915 0
M  V30 2378 H 219.26 -1.23015 0.933092 0
M  V30 2379 H 221.218 -4.09313 -0.311965 0
M  V30 2380 H 219.879 -3.03537 -0.807702 0
M  V30 2381 H 219.072 -5.01333 0.517853 0
M  V30 2382 H 218.674 -3.4897 1.34522 0
M  V30 2383 H 220.966 -6.65948 1.24577 0
M  V30 2384 H 221.909 -6.51946 2.76354 0
M  V30 2385 H 222.317 -5.47652 1.36885 0
M  V30 2386 N 221.715 -0.905404 -1.28997 0
M  V30 2387 C 222.945 -0.549049 -1.99171 0
M  V30 2388 C 223.353 0.87203 -1.67906 0
M  V30 2389 O 222.696 1.58796 -0.923561 0
M  V30 2390 C 222.758 -0.668306 -3.53234 0
M  V30 2391 C 222.422 -2.0574 -4.08069 0
M  V30 2392 C 223.419 -3.0292 -4.22534 0
M  V30 2393 C 221.104 -2.36833 -4.42962 0
M  V30 2394 C 223.098 -4.29314 -4.71135 0
M  V30 2395 C 220.785 -3.63467 -4.91258 0
M  V30 2396 C 221.783 -4.59522 -5.053 0
M  V30 2397 O 221.471 -5.83907 -5.52546 0
M  V30 2398 H 221.203 -0.208784 -0.64295 0
M  V30 2399 H 223.757 -1.21836 -1.65363 0
M  V30 2400 H 221.987 0.0580547 -3.86656 0
M  V30 2401 H 223.676 -0.320273 -4.04634 0
M  V30 2402 H 224.442 -2.80216 -3.95859 0
M  V30 2403 H 220.321 -1.62824 -4.31288 0
M  V30 2404 H 223.865 -5.04293 -4.8201 0
M  V30 2405 H 219.762 -3.86 -5.17372 0
M  V30 2406 H 220.53 -5.86578 -5.70849 0
M  V30 2407 N 223.193 1.4272 -0.668489 0
M  V30 2408 C 224.439 2.02443 -0.197076 0
M  V30 2409 C 224.794 1.51882 1.18109 0
M  V30 2410 O 224.087 0.708618 1.78015 0
M  V30 2411 C 224.281 3.57021 -0.164499 0
M  V30 2412 C 224.11 4.22583 -1.53797 0
M  V30 2413 C 222.88 4.58019 -2.13416 0
M  V30 2414 C 225.078 4.50588 -2.47941 0
M  V30 2415 N 223.06 5.08729 -3.4361 0
M  V30 2416 C 224.431 5.02782 -3.62782 0
M  V30 2417 C 226.486 4.32571 -2.46551 0
M  V30 2418 C 225.189 5.38852 -4.76478 0
M  V30 2419 C 227.215 4.69713 -3.59338 0
M  V30 2420 C 226.577 5.22053 -4.72906 0
M  V30 2421 H 222.676 0.773214 -0.116894 0
M  V30 2422 H 225.26 1.73673 -0.880108 0
M  V30 2423 H 223.431 3.85323 0.487925 0
M  V30 2424 H 225.163 4.03439 0.319207 0
M  V30 2425 H 221.918 4.43566 -1.65969 0
M  V30 2426 H 222.342 5.38521 -4.10273 0
M  V30 2427 H 226.984 3.91365 -1.59978 0
M  V30 2428 H 224.702 5.78993 -5.63731 0
M  V30 2429 H 228.288 4.57454 -3.59482 0
M  V30 2430 H 227.168 5.50258 -5.58736 0
M  V30 2431 N 224.671 0.411399 1.52136 0
M  V30 2432 C 225.917 -0.163888 2.02137 0
M  V30 2433 C 226.25 -1.44597 1.29636 0
M  V30 2434 O 225.525 -1.90272 0.403353 0
M  V30 2435 C 225.808 -0.40927 3.57767 0
M  V30 2436 C 225.661 0.889643 4.40914 0
M  V30 2437 C 226.98 -1.19042 4.23694 0
M  V30 2438 H 224.099 -0.0580896 0.734707 0
M  V30 2439 H 226.741 0.54531 1.82007 0
M  V30 2440 H 224.891 -1.0134 3.7505 0
M  V30 2441 H 226.563 1.52575 4.35337 0
M  V30 2442 H 224.806 1.50011 4.07037 0
M  V30 2443 H 225.477 0.672314 5.4789 0
M  V30 2444 H 227.953 -0.678942 4.10524 0
M  V30 2445 H 226.829 -1.33086 5.32522 0
M  V30 2446 H 227.09 -2.21166 3.82803 0
M  V30 2447 N 226.149 -1.5696 0.141893 0
M  V30 2448 C 227.096 -2.16501 -0.799737 0
M  V30 2449 C 228.066 -1.09643 -1.24771 0
M  V30 2450 O 229.251 -1.3766 -1.32115 0
M  V30 2451 C 226.391 -2.78679 -2.03549 0
M  V30 2452 C 225.504 -3.99914 -1.6338 0
M  V30 2453 C 224.639 -4.50106 -2.82096 0
M  V30 2454 C 223.678 -5.63819 -2.38275 0
M  V30 2455 N 222.815 -6.08651 -3.49983 0
M  V30 2456 H 227.655 -2.96632 -0.285179 0
M  V30 2457 H 225.192 -1.46533 -0.129053 0
M  V30 2458 H 227.15 -3.1287 -2.75986 0
M  V30 2459 H 225.78 -2.012 -2.52425 0
M  V30 2460 H 224.832 -3.71735 -0.807279 0
M  V30 2461 H 226.144 -4.82311 -1.27192 0
M  V30 2462 H 225.298 -4.86325 -3.62729 0
M  V30 2463 H 224.037 -3.66706 -3.21525 0
M  V30 2464 H 223.042 -5.2718 -1.56081 0
M  V30 2465 H 224.267 -6.49 -1.99938 0
M  V30 2466 H 222.213 -5.28188 -3.89042 0
M  V30 2467 H 222.13 -6.85961 -3.17794 0
M  V30 2468 H 223.398 -6.49515 -4.30988 0
M  V30 2469 N 227.627 0.131896 -1.57047 0
M  V30 2470 C 228.557 1.16384 -2.02428 0
M  V30 2471 C 229.538 1.43936 -0.90644 0
M  V30 2472 O 230.723 1.54599 -1.17528 0
M  V30 2473 C 227.853 2.49328 -2.4177 0
M  V30 2474 C 226.807 2.36266 -3.56879 0
M  V30 2475 C 226.133 3.74057 -3.8208 0
M  V30 2476 C 227.433 1.834 -4.89042 0
M  V30 2477 H 229.127 0.786433 -2.88887 0
M  V30 2478 H 226.673 0.376855 -1.38981 0
M  V30 2479 H 228.626 3.21759 -2.7212 0
M  V30 2480 H 227.35 2.88934 -1.52266 0
M  V30 2481 H 226.009 1.66286 -3.26718 0
M  V30 2482 H 225.657 4.11125 -2.89803 0
M  V30 2483 H 225.357 3.66174 -4.59554 0
M  V30 2484 H 226.881 4.48012 -4.1487 0
M  V30 2485 H 228.295 2.45636 -5.18011 0
M  V30 2486 H 226.692 1.8637 -5.70426 0
M  V30 2487 H 227.762 0.790662 -4.7841 0
M  V30 2488 N 229.106 1.52395 0.401703 0
M  V30 2489 C 230.353 1.66817 1.14796 0
M  V30 2490 C 230.681 0.401772 1.90305 0
M  V30 2491 O 229.936 -0.615487 1.85769 0
M  V30 2492 C 230.235 2.84578 2.16217 0
M  V30 2493 C 229.901 4.22513 1.5746 0
M  V30 2494 C 228.563 4.60029 1.41161 0
M  V30 2495 C 230.915 5.0844 1.14622 0
M  V30 2496 C 228.243 5.81144 0.80552 0
M  V30 2497 C 230.595 6.30167 0.55428 0
M  V30 2498 C 229.259 6.66426 0.378482 0
M  V30 2499 H 228.529 0.610428 0.420069 0
M  V30 2500 H 231.176 1.86512 0.434212 0
M  V30 2501 H 229.481 2.59248 2.93764 0
M  V30 2502 H 231.178 2.92933 2.73845 0
M  V30 2503 H 227.768 3.92953 1.71132 0
M  V30 2504 H 231.952 4.80034 1.26021 0
M  V30 2505 H 227.208 6.07855 0.657399 0
M  V30 2506 H 231.382 6.96071 0.213983 0
M  V30 2507 H 229.009 7.60143 -0.0932606 0
M  V30 2508 N 230.584 -0.659388 1.43143 0
M  V30 2509 C 231.547 -1.75432 1.47501 0
M  V30 2510 C 232.547 -1.56707 0.360512 0
M  V30 2511 O 233.737 -1.62717 0.622002 0
M  V30 2512 C 230.869 -3.14239 1.32162 0
M  V30 2513 H 232.062 -1.7295 2.45006 0
M  V30 2514 H 229.615 -0.870469 1.29817 0
M  V30 2515 H 230.35 -3.22336 0.356401 0
M  V30 2516 H 230.135 -3.29235 2.12948 0
M  V30 2517 H 231.625 -3.94094 1.3813 0
M  V30 2518 N 232.062 -1.29571 -0.897171 0
M  V30 2519 C 232.992 -1.17473 -2.01798 0
M  V30 2520 C 233.973 -0.068323 -1.69963 0
M  V30 2521 O 235.158 -0.248239 -1.92607 0
M  V30 2522 C 232.288 -0.853099 -3.36659 0
M  V30 2523 C 231.242 -1.9161 -3.82713 0
M  V30 2524 C 230.568 -1.44773 -5.14728 0
M  V30 2525 C 231.868 -3.32535 -4.02763 0
M  V30 2526 H 233.562 -2.11237 -2.12177 0
M  V30 2527 H 231.108 -1.01699 -1.01948 0
M  V30 2528 H 233.061 -0.755165 -4.14578 0
M  V30 2529 H 231.785 0.120236 -3.26379 0
M  V30 2530 H 230.444 -2.00346 -3.07013 0
M  V30 2531 H 230.092 -0.462995 -5.00865 0
M  V30 2532 H 229.792 -2.15865 -5.46513 0
M  V30 2533 H 231.316 -1.36334 -5.95185 0
M  V30 2534 H 232.73 -3.26626 -4.71156 0
M  V30 2535 H 231.127 -4.01607 -4.45905 0
M  V30 2536 H 232.197 -3.75326 -3.07016 0
M  V30 2537 N 233.54 1.10788 -1.12088 0
M  V30 2538 C 234.817 1.79136 -0.785476 0
M  V30 2539 C 235.197 1.98246 0.725377 0
M  V30 2540 O 234.545 1.57258 1.65778 0
M  V30 2541 C 234.755 3.12375 -1.55636 0
M  V30 2542 C 236.103 3.8731 -1.74001 0
M  V30 2543 O 237.127 3.22085 -1.52117 0
M  V30 2544 O 235.986 5.04369 -2.10415 0
M  V30 2545 H 233.08 0.776226 -0.285311 0
M  V30 2546 H 235.626 1.1747 -1.2247 0
M  V30 2547 H 234.398 2.93863 -2.5838 0
M  V30 2548 H 234.021 3.81758 -1.11114 0
M  V30 2549 N 235.018 0.912232 1.28515 0
M  V30 2550 C 236.248 0.559604 1.98877 0
M  V30 2551 C 236.656 -0.863113 1.68366 0
M  V30 2552 O 235.999 -1.58304 0.931969 0
M  V30 2553 C 236.061 0.68703 3.52874 0
M  V30 2554 C 235.725 2.07901 4.06972 0
M  V30 2555 C 236.722 3.05157 4.20922 0
M  V30 2556 C 234.407 2.39178 4.417 0
M  V30 2557 C 236.401 4.31806 4.68852 0
M  V30 2558 C 234.088 3.66068 4.89324 0
M  V30 2559 C 235.086 4.62195 5.02856 0
M  V30 2560 O 234.774 5.86829 5.49442 0
M  V30 2561 H 234.506 0.212191 0.641834 0
M  V30 2562 H 237.06 1.22712 1.64715 0
M  V30 2563 H 235.29 -0.0375486 3.86682 0
M  V30 2564 H 236.979 0.341727 4.04459 0
M  V30 2565 H 237.745 2.82311 3.94367 0
M  V30 2566 H 233.624 1.65109 4.30418 0
M  V30 2567 H 237.168 5.06842 4.79329 0
M  V30 2568 H 233.065 3.88739 5.15318 0
M  V30 2569 H 233.833 5.89597 5.6773 0
M  V30 2570 N 236.496 -1.42363 0.676048 0
M  V30 2571 C 237.426 -2.33497 0.0124832 0
M  V30 2572 C 238.407 -1.50748 -0.787981 0
M  V30 2573 O 239.592 -1.79346 -0.744884 0
M  V30 2574 C 236.722 -3.34377 -0.938582 0
M  V30 2575 C 235.676 -4.27289 -0.246622 0
M  V30 2576 C 235.002 -5.18386 -1.31071 0
M  V30 2577 C 236.302 -5.14916 0.875125 0
M  V30 2578 H 237.996 -2.89233 0.773593 0
M  V30 2579 H 235.542 -1.39073 0.37346 0
M  V30 2580 H 237.495 -3.97044 -1.41188 0
M  V30 2581 H 236.219 -2.76947 -1.73113 0
M  V30 2582 H 234.878 -3.66018 0.206456 0
M  V30 2583 H 234.526 -4.57282 -2.09528 0
M  V30 2584 H 234.226 -5.81378 -0.852839 0
M  V30 2585 H 235.75 -5.83929 -1.78492 0
M  V30 2586 H 237.164 -5.71262 0.482983 0
M  V30 2587 H 235.561 -5.86747 1.25887 0
M  V30 2588 H 236.631 -4.53242 1.72335 0
M  V30 2589 N 237.974 -0.419461 -1.51915 0
M  V30 2590 C 239.251 0.211999 -1.94448 0
M  V30 2591 C 239.631 1.61703 -1.35703 0
M  V30 2592 O 238.979 2.22102 -0.536931 0
M  V30 2593 C 239.189 0.207872 -3.4838 0
M  V30 2594 C 240.537 0.422192 -4.22496 0
M  V30 2595 O 241.561 0.286778 -3.55044 0
M  V30 2596 O 240.42 0.690009 -5.42126 0
M  V30 2597 H 237.514 0.139586 -0.815135 0
M  V30 2598 H 240.06 -0.476151 -1.62883 0
M  V30 2599 H 238.832 -0.775102 -3.83546 0
M  V30 2600 H 238.455 0.939688 -3.86336 0
M  V30 2601 N 239.452 1.56882 -0.150215 0
M  V30 2602 C 240.399 2.16922 0.788244 0
M  V30 2603 C 241.369 1.10303 1.24187 0
M  V30 2604 O 242.554 1.38359 1.31383 0
M  V30 2605 C 239.694 2.79754 2.02068 0
M  V30 2606 C 238.807 4.00775 1.61257 0
M  V30 2607 C 237.942 4.51595 2.79705 0
M  V30 2608 C 236.981 5.65074 2.35282 0
M  V30 2609 N 236.118 6.10499 3.4675 0
M  V30 2610 H 240.958 2.96779 0.269444 0
M  V30 2611 H 238.495 1.46599 0.12128 0
M  V30 2612 H 240.453 3.14329 2.74323 0
M  V30 2613 H 239.083 2.02536 2.51354 0
M  V30 2614 H 238.135 3.72158 0.787553 0
M  V30 2615 H 239.447 4.82978 1.24633 0
M  V30 2616 H 238.601 4.88242 3.60145 0
M  V30 2617 H 237.34 3.68406 3.19576 0
M  V30 2618 H 236.345 5.28 1.53283 0
M  V30 2619 H 237.57 6.50052 1.96493 0
M  V30 2620 H 235.516 5.30243 3.86236 0
M  V30 2621 H 235.433 6.87637 3.14152 0
M  V30 2622 H 236.701 6.51791 4.27537 0
M  V30 2623 N 240.93 -0.123565 1.57115 0
M  V30 2624 C 242.177 -0.832153 1.84612 0
M  V30 2625 C 242.505 -1.80093 0.734627 0
M  V30 2626 O 241.76 -1.93766 -0.27442 0
M  V30 2627 C 242.059 -1.62016 3.18568 0
M  V30 2628 C 241.725 -0.796084 4.43817 0
M  V30 2629 C 240.387 -0.568816 4.77826 0
M  V30 2630 C 242.739 -0.221364 5.2073 0
M  V30 2631 C 240.067 0.243499 5.86194 0
M  V30 2632 C 242.419 0.578117 6.29953 0
M  V30 2633 C 241.083 0.815744 6.62497 0
M  V30 2634 H 240.353 -0.304507 0.675542 0
M  V30 2635 H 243 -0.0947248 1.91266 0
M  V30 2636 H 241.305 -2.42837 3.0747 0
M  V30 2637 H 243.002 -2.17231 3.37064 0
M  V30 2638 H 239.592 -0.983307 4.17168 0
M  V30 2639 H 243.776 -0.384173 4.94811 0
M  V30 2640 H 239.032 0.436871 6.09837 0
M  V30 2641 H 243.206 1.03046 6.88734 0
M  V30 2642 H 240.833 1.44701 7.46301 0
M  V30 2643 N 242.408 -1.52605 -0.393616 0
M  V30 2644 C 243.356 -1.77688 -1.50099 0
M  V30 2645 C 244.35 -0.644615 -1.56656 0
M  V30 2646 O 245.556 -0.826997 -1.59877 0
M  V30 2647 H 241.931 -0.562159 -0.499481 0
M  V30 2648 H 243.902 -2.7043 -1.26135 0
M  V30 2649 C 242.651 -1.95858 -2.87289 0
M  V30 2650 H 241.974 -2.8241 -2.82992 0
M  V30 2651 H 243.414 -2.174 -3.64024 0
M  V30 2652 C 241.873 -0.729848 -3.28899 0
M  V30 2653 O 242.403 0.0949217 -4.01588 0
M  V30 2654 N 240.609 -0.561283 -2.85128 0
M  V30 2655 H 240.156 -1.23357 -2.26143 0
M  V30 2656 H 240.114 0.2595 -3.13327 0
M  V30 2657 N 243.887 0.651787 -1.4349 0
M  V30 2658 C 245.112 1.44434 -1.48841 0
M  V30 2659 C 245.537 1.8779 -0.107955 0
M  V30 2660 O 244.895 1.57464 0.898602 0
M  V30 2661 C 244.943 2.65458 -2.44059 0
M  V30 2662 O 244.047 3.64566 -1.92784 0
M  V30 2663 H 243.388 0.433005 -0.503391 0
M  V30 2664 H 245.918 0.797451 -1.88419 0
M  V30 2665 H 245.928 3.13255 -2.6141 0
M  V30 2666 H 244.603 2.33244 -3.4434 0
M  V30 2667 H 243.18 3.23716 -1.851 0
M  V30 2668 N 245.365 1.30045 0.890287 0
M  V30 2669 C 246.613 1.18327 1.63839 0
M  V30 2670 C 246.934 -0.263455 1.93212 0
M  V30 2671 O 246.204 -1.17856 1.56482 0
M  V30 2672 H 244.784 0.434933 0.607324 0
M  V30 2673 H 247.446 1.631 1.06698 0
M  V30 2674 H 246.542 1.74024 2.59079 0
M  V30 2675 N 246.843 -1.10192 1.12674 0
M  V30 2676 C 248.073 -1.85713 0.905213 0
M  V30 2677 C 248.481 -1.81056 -0.549108 0
M  V30 2678 O 247.824 -1.19927 -1.39151 0
M  V30 2679 C 247.886 -3.34972 1.30516 0
M  V30 2680 C 247.55 -3.63385 2.77129 0
M  V30 2681 C 248.547 -3.59772 3.75313 0
M  V30 2682 C 246.232 -3.91981 3.14096 0
M  V30 2683 C 248.226 -3.84354 5.08479 0
M  V30 2684 C 245.913 -4.16218 4.47443 0
M  V30 2685 C 246.911 -4.12395 5.44444 0
M  V30 2686 O 246.599 -4.36014 6.75387 0
M  V30 2687 H 246.331 -0.593719 0.323223 0
M  V30 2688 H 248.885 -1.40198 1.50112 0
M  V30 2689 H 247.115 -3.81156 0.652463 0
M  V30 2690 H 248.804 -3.91886 1.05736 0
M  V30 2691 H 249.57 -3.37716 3.48099 0
M  V30 2692 H 245.449 -3.94085 2.39202 0
M  V30 2693 H 248.993 -3.81285 5.84181 0
M  V30 2694 H 244.89 -4.37754 4.74386 0
M  V30 2695 H 245.658 -4.53516 6.8137 0
M  V30 2696 N 248.321 -0.919034 -1.28029 0
M  V30 2697 C 249.598 -0.473668 -1.89778 0
M  V30 2698 C 249.978 1.04783 -1.83259 0
M  V30 2699 O 249.326 1.8982 -1.27202 0
M  V30 2700 C 249.536 -1.00998 -3.34066 0
M  V30 2701 C 250.884 -1.06525 -4.1102 0
M  V30 2702 O 251.908 -0.958996 -3.43048 0
M  V30 2703 O 250.767 -1.22776 -5.3253 0
M  V30 2704 H 247.861 -0.15098 -0.813101 0
M  V30 2705 H 250.407 -1.01016 -1.36359 0
M  V30 2706 H 249.179 -2.05392 -3.33061 0
M  V30 2707 H 248.802 -0.454626 -3.94992 0
M  V30 2708 N 249.799 1.42003 -0.683588 0
M  V30 2709 C 251.029 2.05448 -0.217866 0
M  V30 2710 C 251.437 1.51491 1.13346 0
M  V30 2711 O 250.78 0.653048 1.717 0
M  V30 2712 C 250.842 3.59399 -0.0850118 0
M  V30 2713 C 250.506 4.36093 -1.36645 0
M  V30 2714 C 251.503 4.66169 -2.30179 0
M  V30 2715 C 249.188 4.75578 -1.61649 0
M  V30 2716 C 251.182 5.34676 -3.46988 0
M  V30 2717 C 248.869 5.43824 -2.78745 0
M  V30 2718 C 249.867 5.73299 -3.71238 0
M  V30 2719 O 249.555 6.40142 -4.86285 0
M  V30 2720 H 249.287 0.668344 -0.101454 0
M  V30 2721 H 251.841 1.82974 -0.933248 0
M  V30 2722 H 250.071 3.80566 0.686031 0
M  V30 2723 H 251.76 4.04457 0.341973 0
M  V30 2724 H 252.526 4.36156 -2.12115 0
M  V30 2725 H 248.405 4.52025 -0.905243 0
M  V30 2726 H 251.949 5.57599 -4.19201 0
M  V30 2727 H 247.846 5.73254 -2.96732 0
M  V30 2728 H 248.614 6.58636 -4.85944 0
M  V30 2729 N 251.277 0.427512 1.51691 0
M  V30 2730 C 252.507 -0.140986 2.06118 0
M  V30 2731 C 252.915 -1.37854 1.29588 0
M  V30 2732 O 252.258 -1.80411 0.346036 0
M  V30 2733 C 252.32 -0.538276 3.55447 0
M  V30 2734 C 251.984 0.591095 4.53161 0
M  V30 2735 C 252.981 1.46027 4.98971 0
M  V30 2736 C 250.666 0.769028 4.96378 0
M  V30 2737 C 252.66 2.49216 5.8666 0
M  V30 2738 C 250.347 1.80421 5.83859 0
M  V30 2739 C 251.345 2.66417 6.28897 0
M  V30 2740 O 251.033 3.68159 7.14643 0
M  V30 2741 H 250.765 -0.0157455 0.675817 0
M  V30 2742 H 253.319 0.602495 1.96365 0
M  V30 2743 H 251.549 -1.33432 3.6295 0
M  V30 2744 H 253.238 -1.0368 3.92435 0
M  V30 2745 H 254.004 1.33429 4.66285 0
M  V30 2746 H 249.883 0.109273 4.6087 0
M  V30 2747 H 253.427 3.16372 6.21735 0
M  V30 2748 H 249.324 1.93042 6.15959 0
M  V30 2749 H 250.092 3.64622 7.32798 0
M  V30 2750 N 252.755 -1.56801 0.158532 0
M  V30 2751 C 254.004 -1.95665 -0.489702 0
M  V30 2752 C 254.317 -1.04654 -1.65248 0
M  V30 2753 O 255.523 -1.33146 -2.3661 0
M  V30 2754 C 253.979 -3.47874 -0.922582 0
M  V30 2755 C 253.587 -4.47489 0.213893 0
M  V30 2756 C 255.331 -3.95583 -1.53996 0
M  V30 2757 C 253.238 -5.90921 -0.237903 0
M  V30 2758 H 252.168 -0.730516 -0.186716 0
M  V30 2759 H 254.819 -1.81861 0.244722 0
M  V30 2760 H 253.201 -3.57051 -1.71261 0
M  V30 2761 H 254.375 -4.50017 0.991036 0
M  V30 2762 H 252.69 -4.09764 0.740407 0
M  V30 2763 H 255.287 -5.0019 -1.8898 0
M  V30 2764 H 255.63 -3.37789 -2.43319 0
M  V30 2765 H 256.163 -3.8937 -0.814611 0
M  V30 2766 H 252.902 -6.52559 0.620236 0
M  V30 2767 H 252.422 -5.91729 -0.980676 0
M  V30 2768 H 254.101 -6.43352 -0.686067 0
M  V30 2769 N 254.233 0.115231 -1.57178 0
M  V30 2770 C 255.479 0.82357 -1.85325 0
M  V30 2771 C 255.812 1.79349 -0.744814 0
M  V30 2772 O 255.087 1.92899 0.249024 0
M  V30 2773 C 255.37 1.57014 -3.24066 0
M  V30 2774 C 255.223 0.619565 -4.45513 0
M  V30 2775 C 256.542 2.52545 -3.60429 0
M  V30 2776 H 253.661 0.297948 -0.674089 0
M  V30 2777 H 256.303 0.0877138 -1.89797 0
M  V30 2778 H 254.453 2.19742 -3.20383 0
M  V30 2779 H 256.125 0.000837639 -4.613 0
M  V30 2780 H 254.368 -0.0686174 -4.33746 0
M  V30 2781 H 255.039 1.17866 -5.3927 0
M  V30 2782 H 257.515 1.9992 -3.64926 0
M  V30 2783 H 256.391 3.01811 -4.58477 0
M  V30 2784 H 256.652 3.35383 -2.88047 0
M  V30 2785 N 255.711 1.52812 0.385517 0
M  V30 2786 C 257.122 1.5993 0.963293 0
M  V30 2787 C 257.473 0.454302 1.90868 0
M  V30 2788 O 256.598 -0.422132 2.12243 0
M  V30 2789 C 257.193 2.89871 1.75387 0
M  V30 2790 C 255.752 2.99389 2.28129 0
M  V30 2791 C 254.899 2.55071 1.08783 0
M  V30 2792 H 257.85 1.5784 0.164948 0
M  V30 2793 H 257.871 2.76553 2.61341 0
M  V30 2794 H 257.383 3.73186 1.06554 0
M  V30 2795 H 255.484 2.20619 3.00263 0
M  V30 2796 H 255.597 4.04096 2.57377 0
M  V30 2797 H 253.961 2.09473 1.4489 0
M  V30 2798 H 254.744 3.40785 0.414807 0
M  V30 2799 N 257.189 -0.644168 1.43834 0
M  V30 2800 C 258.466 -1.40188 1.36406 0
M  V30 2801 C 258.846 -2.11094 0.0163124 0
M  V30 2802 O 258.194 -2.05426 -1.00062 0
M  V30 2803 C 258.404 -2.3791 2.55343 0
M  V30 2804 C 259.752 -3.01637 2.98832 0
M  V30 2805 O 260.776 -2.48237 2.55455 0
M  V30 2806 O 259.635 -3.98477 3.74003 0
M  V30 2807 H 256.729 -0.626773 0.539523 0
M  V30 2808 H 259.275 -0.670317 1.559 0
M  V30 2809 H 258.047 -1.84525 3.4506 0
M  V30 2810 H 257.67 -3.18503 2.37995 0
M  V30 2811 N 258.668 -1.30515 -0.883378 0
M  V30 2812 C 259.896 -1.22359 -1.66841 0
M  V30 2813 C 260.311 0.213296 -1.87591 0
M  V30 2814 O 259.668 1.14075 -1.42454 0
M  V30 2815 C 259.719 -1.95011 -3.04389 0
M  V30 2816 O 259.44 -3.3309 -2.84575 0
M  V30 2817 C 260.941 -1.93532 -3.98824 0
M  V30 2818 H 258.161 -0.423371 -0.520575 0
M  V30 2819 H 260.705 -1.72167 -1.10357 0
M  V30 2820 H 258.86 -1.48997 -3.57601 0
M  V30 2821 H 259.274 -3.69907 -3.71846 0
M  V30 2822 H 260.748 -2.48902 -4.92699 0
M  V30 2823 H 261.225 -0.914627 -4.29571 0
M  V30 2824 H 261.831 -2.39364 -3.51547 0
M  V30 2825 N 260.146 1.09593 -1.13257 0
M  V30 2826 C 261.562 1.33775 -0.870423 0
M  V30 2827 C 261.762 1.95327 0.494926 0
M  V30 2828 O 260.818 2.19853 1.2418 0
M  V30 2829 C 262.131 2.25106 -1.99369 0
M  V30 2830 C 263.679 2.3862 -2.02558 0
M  V30 2831 C 264.154 3.33285 -3.14142 0
M  V30 2832 N 265.645 3.40857 -3.13641 0
M  V30 2833 C 266.38 4.14101 -3.96621 0
M  V30 2834 N 265.876 4.90157 -4.8961 0
M  V30 2835 N 267.669 4.09808 -3.84726 0
M  V30 2836 H 259.82 0.680136 -2.01216 0
M  V30 2837 H 262.083 0.362133 -0.876107 0
M  V30 2838 H 261.789 1.87103 -2.97801 0
M  V30 2839 H 261.663 3.25481 -1.90635 0
M  V30 2840 H 264.05 2.75887 -1.0474 0
M  V30 2841 H 264.131 1.38028 -2.15364 0
M  V30 2842 H 263.775 2.96741 -4.12198 0
M  V30 2843 H 263.705 4.33776 -2.98574 0
M  V30 2844 H 266.196 2.86624 -2.46282 0
M  V30 2845 H 266.509 5.4347 -5.49418 0
M  V30 2846 H 264.854 4.89251 -4.93617 0
M  V30 2847 H 268.045 3.4949 -3.11408 0
M  V30 2848 H 268.218 4.66629 -4.49623 0
M  V30 2849 N 261.624 0.925811 1.2754 0
M  V30 2850 C 262.556 0.380753 2.26015 0
M  V30 2851 C 263.569 -0.487485 1.5533 0
M  V30 2852 O 264.758 -0.300413 1.75954 0
M  V30 2853 C 261.858 -0.473259 3.35579 0
M  V30 2854 C 261.031 0.375249 4.35787 0
M  V30 2855 C 260.09 -0.415809 5.24555 0
M  V30 2856 O 259.116 0.175834 5.68928 0
M  V30 2857 N 260.318 -1.71607 5.54555 0
M  V30 2858 H 263.083 1.22725 2.73421 0
M  V30 2859 H 260.644 0.793037 1.41147 0
M  V30 2860 H 262.636 -1.00949 3.91907 0
M  V30 2861 H 261.206 -1.2205 2.87789 0
M  V30 2862 H 260.426 1.09279 3.7875 0
M  V30 2863 H 261.714 0.955399 4.99749 0
M  V30 2864 H 261.112 -2.2191 5.20358 0
M  V30 2865 H 259.669 -2.19887 6.1359 0
M  V30 2866 N 263.102 -1.41638 0.69111 0
M  V30 2867 C 264.379 -1.95036 0.148421 0
M  V30 2868 C 264.759 -1.63072 -1.34055 0
M  V30 2869 O 264.107 -0.93538 -2.08478 0
M  V30 2870 C 264.317 -3.46279 0.434951 0
M  V30 2871 C 265.665 -4.23069 0.360275 0
M  V30 2872 O 266.689 -3.54277 0.369613 0
M  V30 2873 O 265.548 -5.45583 0.316534 0
M  V30 2874 H 262.642 -0.826908 0.0123654 0
M  V30 2875 H 265.188 -1.5138 0.766963 0
M  V30 2876 H 263.96 -3.6281 1.46576 0
M  V30 2877 H 263.583 -3.97019 -0.214787 0
M  V30 2878 N 264.58 -0.43555 -1.51462 0
M  V30 2879 C 265.53 0.394701 -2.24558 0
M  V30 2880 C 266.514 0.99157 -1.26715 0
M  V30 2881 O 267.706 0.910007 -1.51815 0
M  V30 2882 C 264.835 1.4963 -3.08975 0
M  V30 2883 C 263.921 0.908912 -4.14246 0
M  V30 2884 N 264.312 0.0505335 -5.05775 0
M  V30 2885 C 262.61 1.17668 -4.30198 0
M  V30 2886 C 263.311 -0.279161 -5.8103 0
M  V30 2887 N 262.287 0.336767 -5.42556 0
M  V30 2888 H 266.089 -0.267106 -2.92684 0
M  V30 2889 H 263.603 -0.247518 -1.60503 0
M  V30 2890 H 265.6 2.10394 -3.59917 0
M  V30 2891 H 264.26 2.16046 -2.42393 0
M  V30 2892 H 265.271 -0.31577 -5.16936 0
M  V30 2893 H 261.948 1.83847 -3.74842 0
M  V30 2894 H 263.338 -0.977553 -6.64751 0
M  V30 2895 N 266.058 1.56714 -0.166846 0
M  V30 2896 C 266.968 2.21331 0.777791 0
M  V30 2897 C 267.984 1.20358 1.25658 0
M  V30 2898 O 269.16 1.53005 1.30964 0
M  V30 2899 C 266.225 2.83787 1.99163 0
M  V30 2900 C 265.286 3.99947 1.56016 0
M  V30 2901 C 264.519 4.59415 2.71613 0
M  V30 2902 O 264.742 4.17769 3.88362 0
M  V30 2903 O 263.676 5.49359 2.45945 0
M  V30 2904 H 267.502 3.02605 0.257636 0
M  V30 2905 H 265.087 1.49275 0.0611393 0
M  V30 2906 H 266.969 3.23405 2.70161 0
M  V30 2907 H 265.644 2.05513 2.50092 0
M  V30 2908 H 264.551 3.65007 0.819809 0
M  V30 2909 H 265.884 4.79801 1.09782 0
M  V30 2910 N 267.536 -0.106894 1.57237 0
M  V30 2911 C 268.469 -1.16125 1.96444 0
M  V30 2912 C 269.447 -1.3947 0.835871 0
M  V30 2913 O 270.631 -1.53425 1.09513 0
M  V30 2914 C 267.758 -2.51277 2.27107 0
M  V30 2915 C 266.804 -2.44285 3.4961 0
M  V30 2916 S 267.637 -1.87077 5.01759 0
M  V30 2917 C 268.793 -3.23877 5.35588 0
M  V30 2918 H 269.026 -0.826971 2.85567 0
M  V30 2919 H 266.559 -0.314124 1.51171 0
M  V30 2920 H 268.517 -3.29035 2.45451 0
M  V30 2921 H 267.178 -2.81879 1.38576 0
M  V30 2922 H 266.371 -3.4387 3.68469 0
M  V30 2923 H 265.973 -1.74652 3.30715 0
M  V30 2924 H 268.265 -4.20122 5.31511 0
M  V30 2925 H 269.208 -3.09833 6.36717 0
M  V30 2926 H 269.616 -3.22864 4.63054 0
M  V30 2927 N 269.014 -1.53014 -0.377408 0
M  V30 2928 C 270.291 -1.59215 -1.13622 0
M  V30 2929 C 270.671 -0.392407 -2.07421 0
M  V30 2930 O 270.019 0.618342 -2.19975 0
M  V30 2931 C 270.229 -2.93669 -1.88573 0
M  V30 2932 C 271.577 -3.47822 -2.43526 0
M  V30 2933 O 272.601 -2.9562 -1.98715 0
M  V30 2934 O 271.46 -4.39055 -3.25412 0
M  V30 2935 H 268.554 -0.642625 -0.52054 0
M  V30 2936 H 271.1 -1.65353 -0.381625 0
M  V30 2937 H 269.872 -3.7243 -1.20048 0
M  V30 2938 H 269.495 -2.90968 -2.70968 0
M  V30 2939 N 270.492 0.636531 -1.44174 0
M  V30 2940 C 271.455 1.73063 -1.50273 0
M  V30 2941 C 272.455 1.56113 -0.385397 0
M  V30 2942 O 273.645 1.61707 -0.64781 0
M  V30 2943 C 270.777 3.12096 -1.37145 0
M  V30 2944 H 271.97 1.69031 -2.47727 0
M  V30 2945 H 269.523 0.849706 -1.31186 0
M  V30 2946 H 270.258 3.21728 -0.407636 0
M  V30 2947 H 270.043 3.25805 -2.18159 0
M  V30 2948 H 271.533 3.91846 -1.44382 0
M  V30 2949 N 271.97 1.30982 0.876444 0
M  V30 2950 C 272.933 1.18054 1.96459 0
M  V30 2951 C 273.933 0.109399 1.60427 0
M  V30 2952 O 275.123 0.358173 1.70478 0
M  V30 2953 C 272.255 0.810616 3.31122 0
M  V30 2954 H 273.448 2.14735 2.09354 0
M  V30 2955 H 271.001 1.145 1.06392 0
M  V30 2956 H 271.736 -0.155322 3.23928 0
M  V30 2957 H 271.521 1.58481 3.58645 0
M  V30 2958 H 273.011 0.743876 4.10921 0
M  V30 2959 N 273.449 -1.08991 1.13837 0
M  V30 2960 C 274.865 -1.33312 0.877506 0
M  V30 2961 C 275.065 -1.95587 -0.48456 0
M  V30 2962 O 274.121 -2.20509 -1.23013 0
M  V30 2963 C 275.434 -2.24045 2.0056 0
M  V30 2964 C 276.982 -2.37542 2.03821 0
M  V30 2965 C 277.457 -3.31614 3.15905 0
M  V30 2966 N 278.948 -3.39189 3.15445 0
M  V30 2967 C 279.683 -4.11992 3.98811 0
M  V30 2968 N 279.179 -4.87553 4.92203 0
M  V30 2969 N 280.972 -4.07762 3.86894 0
M  V30 2970 H 273.123 -0.669456 2.01574 0
M  V30 2971 H 275.386 -0.357482 0.878015 0
M  V30 2972 H 275.092 -1.85521 2.98789 0
M  V30 2973 H 274.966 -3.24466 1.92359 0
M  V30 2974 H 277.353 -2.75327 1.06202 0
M  V30 2975 H 277.434 -1.36884 2.16093 0
M  V30 2976 H 277.078 -2.94551 4.13766 0
M  V30 2977 H 277.008 -4.32186 3.0087 0
M  V30 2978 H 279.499 -2.85314 2.47799 0
M  V30 2979 H 279.812 -5.40549 5.52292 0
M  V30 2980 H 278.157 -4.86627 4.96205 0
M  V30 2981 H 281.348 -3.47833 3.13257 0
M  V30 2982 H 281.521 -4.64238 4.52092 0
M  V30 2983 N 274.927 -0.932562 -1.27047 0
M  V30 2984 C 275.89 -0.440064 -2.24936 0
M  V30 2985 C 276.89 0.444071 -1.54547 0
M  V30 2986 O 278.08 0.244465 -1.72476 0
M  V30 2987 C 275.212 0.36678 -3.38921 0
M  V30 2988 H 276.405 -1.305 -2.70018 0
M  V30 2989 H 273.958 -0.713707 -1.39054 0
M  V30 2990 H 274.693 1.25033 -2.99228 0
M  V30 2991 H 274.478 -0.267204 -3.91188 0
M  V30 2992 H 275.968 0.701567 -4.11665 0
M  V30 2993 N 276.405 1.4127 -0.698611 0
M  V30 2994 C 277.338 2.28195 0.0153898 0
M  V30 2995 C 278.316 1.42402 0.784883 0
M  V30 2996 O 279.5 1.71828 0.775067 0
M  V30 2997 C 276.627 3.22685 1.02918 0
M  V30 2998 C 275.673 4.25041 0.352501 0
M  V30 2999 S 276.506 5.27757 -0.907322 0
M  V30 3000 C 277.662 6.25812 0.104796 0
M  V30 3001 H 277.895 2.88403 -0.721858 0
M  V30 3002 H 275.428 1.46452 -0.488996 0
M  V30 3003 H 277.386 3.77655 1.60893 0
M  V30 3004 H 276.047 2.61566 1.73902 0
M  V30 3005 H 275.24 4.91437 1.11828 0
M  V30 3006 H 274.842 3.73682 -0.154254 0
M  V30 3007 H 277.134 6.70705 0.957103 0
M  V30 3008 H 278.077 7.06149 -0.525323 0
M  V30 3009 H 278.485 5.62615 0.460931 0
M  V30 3010 N 277.883 0.443576 1.51229 0
M  V30 3011 C 279.131 -0.120557 2.0174 0
M  V30 3012 C 279.452 -1.42665 1.32935 0
M  V30 3013 O 278.722 -1.9028 0.465866 0
M  V30 3014 H 277.302 -0.0475426 0.745486 0
M  V30 3015 H 279.964 0.587711 1.85828 0
M  V30 3016 H 279.06 -0.291972 3.10731 0
M  V30 3017 N 279.361 -1.56624 0.175154 0
M  V30 3018 C 280.324 -2.16934 -0.739738 0
M  V30 3019 C 281.324 -1.11842 -1.15533 0
M  V30 3020 O 282.514 -1.37335 -1.07167 0
M  V30 3021 C 279.646 -2.75531 -2.00738 0
M  V30 3022 H 280.839 -2.99131 -0.214639 0
M  V30 3023 H 278.392 -1.56123 -0.0744197 0
M  V30 3024 H 279.127 -1.97078 -2.57548 0
M  V30 3025 H 278.912 -3.52444 -1.71831 0
M  V30 3026 H 280.402 -3.21904 -2.66021 0
M  V30 3027 N 280.839 0.0985539 -1.57292 0
M  V30 3028 C 282.067 0.816318 -1.90115 0
M  V30 3029 C 282.482 1.72451 -0.768509 0
M  V30 3030 O 281.839 1.80643 0.259687 0
M  V30 3031 C 281.89 1.63259 -3.22535 0
M  V30 3032 O 281.611 0.760934 -4.31441 0
M  V30 3033 C 283.112 2.45372 -3.69199 0
M  V30 3034 H 280.332 0.233595 -0.629027 0
M  V30 3035 H 282.876 0.0768229 -2.04356 0
M  V30 3036 H 281.031 2.32463 -3.09903 0
M  V30 3037 H 281.445 1.32595 -5.07463 0
M  V30 3038 H 282.919 2.98144 -4.64558 0
M  V30 3039 H 283.396 3.23677 -2.96867 0
M  V30 3040 H 284.002 1.81373 -3.84687 0
M  V30 3041 N 282.317 1.53212 0.369288 0
M  V30 3042 C 283.563 1.69466 1.11397 0
M  V30 3043 C 283.896 0.443257 1.89074 0
M  V30 3044 O 283.171 -0.559386 1.86282 0
M  V30 3045 C 283.454 2.9422 2.07621 0
M  V30 3046 C 283.307 4.29508 1.33577 0
M  V30 3047 C 284.626 3.14565 3.07794 0
M  V30 3048 H 281.745 0.616667 0.403597 0
M  V30 3049 H 284.387 1.85845 0.395179 0
M  V30 3050 H 282.537 2.80387 2.68916 0
M  V30 3051 H 284.209 4.55147 0.750955 0
M  V30 3052 H 282.452 4.29088 0.637618 0
M  V30 3053 H 283.123 5.12926 2.03989 0
M  V30 3054 H 285.599 3.2756 2.56601 0
M  V30 3055 H 284.475 4.03297 3.72348 0
M  V30 3056 H 284.736 2.29675 3.77759 0
M  V30 3057 N 283.795 -0.628877 1.44509 0
M  V30 3058 C 285.044 -1.38437 1.4669 0
M  V30 3059 C 285.357 -1.95322 0.104272 0
M  V30 3060 O 286.563 -2.715 0.00362163 0
M  V30 3061 C 285.019 -2.50659 2.5826 0
M  V30 3062 C 284.627 -2.00277 4.0074 0
M  V30 3063 C 286.371 -3.27844 2.69664 0
M  V30 3064 C 284.278 -3.09854 5.0373 0
M  V30 3065 H 283.208 -0.520245 0.545766 0
M  V30 3066 H 285.859 -0.676313 1.70582 0
M  V30 3067 H 284.241 -3.2405 2.27612 0
M  V30 3068 H 285.415 -1.33736 4.40966 0
M  V30 3069 H 283.73 -1.35901 3.93599 0
M  V30 3070 H 286.327 -4.09534 3.43781 0
M  V30 3071 H 286.67 -3.77471 1.75559 0
M  V30 3072 H 287.203 -2.61543 2.99733 0
M  V30 3073 H 283.942 -2.65168 5.99472 0
M  V30 3074 H 283.462 -3.7503 4.68095 0
M  V30 3075 H 285.141 -3.74592 5.27532 0
M  V30 3076 N 285.273 -1.31445 -0.869486 0
M  V30 3077 C 286.223 -1.15731 -1.96444 0
M  V30 3078 C 287.207 -0.0681855 -1.60755 0
M  V30 3079 O 288.399 -0.293154 -1.74555 0
M  V30 3080 C 285.528 -0.867255 -3.32165 0
M  V30 3081 C 284.614 -1.99738 -3.74119 0
M  V30 3082 N 285.005 -3.24447 -3.88031 0
M  V30 3083 C 283.303 -1.89723 -4.03635 0
M  V30 3084 C 284.004 -3.98374 -4.23879 0
M  V30 3085 N 282.98 -3.26547 -4.3459 0
M  V30 3086 H 286.782 -2.10296 -2.05312 0
M  V30 3087 H 284.296 -1.23009 -1.06031 0
M  V30 3088 H 286.293 -0.735668 -4.10358 0
M  V30 3089 H 284.953 0.0701614 -3.24624 0
M  V30 3090 H 285.964 -3.59557 -3.72746 0
M  V30 3091 H 282.641 -1.03449 -4.04481 0
M  V30 3092 H 284.031 -5.05844 -4.42235 0
M  V30 3093 N 286.751 1.08385 -1.14413 0
M  V30 3094 C 287.997 1.81044 -0.913834 0
M  V30 3095 C 288.33 1.86004 0.558209 0
M  V30 3096 O 287.605 1.33606 1.4135 0
M  V30 3097 C 287.888 3.26648 -1.51569 0
M  V30 3098 C 287.741 3.29895 -3.0576 0
M  V30 3099 C 289.06 4.23629 -1.19273 0
M  V30 3100 H 286.179 0.65727 -0.333414 0
M  V30 3101 H 288.821 1.26896 -1.41412 0
M  V30 3102 H 286.971 3.72889 -1.09023 0
M  V30 3103 H 288.643 2.91977 -3.57137 0
M  V30 3104 H 286.886 2.69163 -3.40197 0
M  V30 3105 H 287.557 4.32516 -3.42977 0
M  V30 3106 H 290.033 3.85727 -1.56057 0
M  V30 3107 H 288.909 5.23822 -1.64017 0
M  V30 3108 H 289.17 4.41968 -0.108068 0
M  V30 3109 N 288.23 0.939286 1.26551 0
M  V30 3110 C 289.476 0.586715 1.94128 0
M  V30 3111 C 289.809 -0.8717 1.73537 0
M  V30 3112 O 289.084 -1.62339 1.07127 0
M  V30 3113 C 289.367 0.927497 3.4795 0
M  V30 3114 C 289.22 2.44052 3.77834 0
M  V30 3115 C 290.539 0.441569 4.37879 0
M  V30 3116 H 287.658 0.21463 0.705055 0
M  V30 3117 H 290.3 1.17316 1.49455 0
M  V30 3118 H 288.45 0.428431 3.8613 0
M  V30 3119 H 290.122 3.01216 3.4938 0
M  V30 3120 H 288.365 2.8848 3.23978 0
M  V30 3121 H 289.036 2.62947 4.85348 0
M  V30 3122 H 291.512 0.869448 4.06915 0
M  V30 3123 H 290.388 0.708856 5.44304 0
M  V30 3124 H 290.649 -0.658467 4.37169 0
M  V30 3125 N 289.708 -1.40897 0.706093 0
M  V30 3126 C 291.124 -1.55042 0.37869 0
M  V30 3127 C 291.324 -1.67944 -1.11342 0
M  V30 3128 O 290.38 -1.66372 -1.89938 0
M  V30 3129 C 291.693 -2.78398 1.13643 0
M  V30 3130 C 293.241 -2.92206 1.12181 0
M  V30 3131 C 293.716 -4.18463 1.86152 0
M  V30 3132 N 295.207 -4.25443 1.83173 0
M  V30 3133 C 295.942 -5.2202 2.37239 0
M  V30 3134 N 295.438 -6.24563 2.99821 0
M  V30 3135 N 297.231 -5.14033 2.27435 0
M  V30 3136 H 289.382 -1.30769 1.67372 0
M  V30 3137 H 291.645 -0.631653 0.706907 0
M  V30 3138 H 291.351 -2.7511 2.19106 0
M  V30 3139 H 291.225 -3.70228 0.721853 0
M  V30 3140 H 293.612 -2.95004 0.0754171 0
M  V30 3141 H 293.693 -2.01521 1.57554 0
M  V30 3142 H 293.337 -4.16427 2.90776 0
M  V30 3143 H 293.267 -5.08141 1.38206 0
M  V30 3144 H 295.758 -3.51976 1.37556 0
M  V30 3145 H 296.071 -6.94665 3.38616 0
M  V30 3146 H 294.416 -6.25035 3.03902 0
M  V30 3147 H 297.607 -4.3285 1.78208 0
M  V30 3148 H 297.78 -5.89129 2.69873 0
M  V30 3149 N 291.186 -0.45159 -1.50991 0
M  V30 3150 C 292.597 0.00818571 -1.86698 0
M  V30 3151 C 292.948 1.40661 -1.3678 0
M  V30 3152 O 292.073 2.0391 -0.724546 0
M  V30 3153 C 292.668 0.0216303 -3.38793 0
M  V30 3154 C 291.227 0.425865 -3.73983 0
M  V30 3155 C 290.374 -0.372163 -2.74791 0
M  V30 3156 H 293.325 -0.666785 -1.44013 0
M  V30 3157 H 293.346 0.828078 -3.7138 0
M  V30 3158 H 292.858 -0.996288 -3.75094 0
M  V30 3159 H 290.959 1.44886 -3.43277 0
M  V30 3160 H 291.072 0.140761 -4.78893 0
M  V30 3161 H 289.436 0.171498 -2.54122 0
M  V30 3162 H 290.219 -1.38922 -3.13935 0
M  V30 3163 N 292.664 1.56529 -0.183458 0
M  V30 3164 C 293.912 1.96855 0.457452 0
M  V30 3165 C 294.233 1.07104 1.62953 0
M  V30 3166 O 293.503 0.139887 1.954 0
M  V30 3167 H 292.083 0.72693 0.171992 0
M  V30 3168 H 294.745 1.93056 -0.267476 0
M  V30 3169 H 293.841 3.01423 0.809368 0
M  V30 3170 N 294.142 -0.090211 1.57342 0
M  V30 3171 C 295.074 -1.13541 1.99101 0
M  V30 3172 C 296.087 -1.3604 0.894258 0
M  V30 3173 O 297.276 -1.34606 1.17233 0
M  V30 3174 C 294.376 -2.49001 2.29895 0
M  V30 3175 C 293.549 -2.46712 3.61182 0
M  V30 3176 C 292.608 -3.64136 3.79857 0
M  V30 3177 O 291.634 -3.46405 4.51655 0
M  V30 3178 N 292.836 -4.83802 3.20806 0
M  V30 3179 H 295.601 -0.779942 2.89373 0
M  V30 3180 H 293.162 -0.279125 1.59476 0
M  V30 3181 H 295.154 -3.26166 2.39578 0
M  V30 3182 H 293.724 -2.76619 1.45605 0
M  V30 3183 H 292.944 -1.55058 3.62423 0
M  V30 3184 H 294.232 -2.42265 4.4742 0
M  V30 3185 H 293.63 -5.01112 2.62494 0
M  V30 3186 H 292.187 -5.58543 3.35966 0
M  V30 3187 N 295.62 -1.53406 -0.361157 0
M  V30 3188 C 296.567 -1.80156 -1.44265 0
M  V30 3189 C 297.537 -0.646183 -1.53015 0
M  V30 3190 O 298.722 -0.888818 -1.68833 0
M  V30 3191 C 295.862 -2.00116 -2.81154 0
M  V30 3192 C 294.975 -3.27833 -2.81335 0
M  V30 3193 C 294.11 -3.37957 -4.09828 0
M  V30 3194 C 293.149 -4.59689 -4.04168 0
M  V30 3195 N 292.286 -4.66942 -5.24318 0
M  V30 3196 H 297.126 -2.72438 -1.20754 0
M  V30 3197 H 294.663 -1.34954 -0.585296 0
M  V30 3198 H 296.621 -2.09677 -3.60682 0
M  V30 3199 H 295.251 -1.11167 -3.03054 0
M  V30 3200 H 294.303 -3.27204 -1.94014 0
M  V30 3201 H 295.615 -4.17442 -2.73027 0
M  V30 3202 H 294.769 -3.46853 -4.97773 0
M  V30 3203 H 293.508 -2.46372 -4.20894 0
M  V30 3204 H 292.513 -4.50889 -3.14609 0
M  V30 3205 H 293.738 -5.5262 -3.947 0
M  V30 3206 H 291.684 -3.7826 -5.35962 0
M  V30 3207 H 291.601 -5.50462 -5.18197 0
M  V30 3208 H 292.869 -4.80127 -6.14084 0
M  V30 3209 N 297.098 0.621204 -1.44841 0
M  V30 3210 C 298.323 1.41244 -1.51871 0
M  V30 3211 C 298.748 1.87519 -0.147764 0
M  V30 3212 O 298.106 1.59334 0.865 0
M  V30 3213 C 298.154 2.60221 -2.49634 0
M  V30 3214 O 297.258 3.60395 -2.00473 0
M  V30 3215 H 296.599 0.42223 -0.512463 0
M  V30 3216 H 299.129 0.757305 -1.90069 0
M  V30 3217 H 299.139 3.0764 -2.67996 0
M  V30 3218 H 297.814 2.25887 -3.4921 0
M  V30 3219 H 296.391 3.19717 -1.91925 0
M  V30 3220 N 298.576 1.31904 0.862503 0
M  V30 3221 C 299.524 1.20125 1.9918 0
M  V30 3222 C 300.518 0.107824 1.69056 0
M  V30 3223 O 301.724 0.270223 1.7796 0
M  V30 3224 H 298.099 0.372148 0.65346 0
M  V30 3225 H 300.07 2.15652 2.06244 0
M  V30 3226 C 298.819 0.933099 3.34946 0
M  V30 3227 H 298.142 1.76664 3.5865 0
M  V30 3228 H 299.582 0.890892 4.14535 0
M  V30 3229 C 298.041 -0.364172 3.34926 0
M  V30 3230 O 298.571 -1.37858 3.77304 0
M  V30 3231 N 296.777 -0.383362 2.8806 0
M  V30 3232 H 296.324 0.442651 2.53768 0
M  V30 3233 H 296.282 -1.25123 2.8843 0
M  V30 3234 N 300.054 -1.07777 1.14986 0
M  V30 3235 C 301.331 -1.7699 0.832695 0
M  V30 3236 C 301.711 -2.001 -0.672561 0
M  V30 3237 O 301.059 -1.61598 -1.6155 0
M  V30 3238 C 301.269 -3.08139 1.63863 0
M  V30 3239 C 302.617 -3.8256 1.84208 0
M  V30 3240 O 303.641 -3.17939 1.60603 0
M  V30 3241 O 302.5 -4.98612 2.23714 0
M  V30 3242 H 299.594 -0.768389 0.305791 0
M  V30 3243 H 302.14 -1.14182 1.25541 0
M  V30 3244 H 300.912 -2.86909 2.6608 0
M  V30 3245 H 300.535 -3.78678 1.21197 0
M  V30 3246 N 301.532 -0.945985 -1.26051 0
M  V30 3247 C 302.76 -0.613025 -1.9761 0
M  V30 3248 C 303.175 0.813035 -1.70397 0
M  V30 3249 O 302.532 1.54274 -0.974979 0
M  V30 3250 C 302.583 -0.85159 -3.51326 0
M  V30 3251 O 302.304 -2.22157 -3.77595 0
M  V30 3252 C 303.805 -0.529831 -4.40122 0
M  V30 3253 H 301.025 -0.230593 -0.630133 0
M  V30 3254 H 303.569 -1.268 -1.60443 0
M  V30 3255 H 301.724 -0.243151 -3.86636 0
M  V30 3256 H 302.138 -2.2852 -4.721 0
M  V30 3257 H 303.612 -0.747348 -5.46917 0
M  V30 3258 H 304.089 0.535341 -4.35925 0
M  V30 3259 H 304.695 -1.11721 -4.10364 0
M  V30 3260 N 303.011 1.40521 -0.713556 0
M  V30 3261 C 303.961 2.27971 -0.036165 0
M  V30 3262 C 304.945 1.43151 0.734623 0
M  V30 3263 O 306.137 1.66261 0.607158 0
M  V30 3264 C 303.266 3.31661 0.886331 0
M  V30 3265 C 302.352 4.23955 0.110836 0
M  V30 3266 N 302.743 4.97641 -0.904847 0
M  V30 3267 C 301.041 4.44674 0.343692 0
M  V30 3268 C 301.742 5.65322 -1.37064 0
M  V30 3269 N 300.718 5.39162 -0.693168 0
M  V30 3270 H 304.52 2.82384 -0.814645 0
M  V30 3271 H 302.034 1.52948 -0.545963 0
M  V30 3272 H 304.031 3.93154 1.38692 0
M  V30 3273 H 302.691 2.78808 1.66421 0
M  V30 3274 H 303.702 5.01689 -1.28563 0
M  V30 3275 H 300.379 4.02801 1.09805 0
M  V30 3276 H 301.769 6.34359 -2.21447 0
M  V30 3277 N 304.489 0.459591 1.5075 0
M  V30 3278 C 305.738 -0.100971 2.01447 0
M  V30 3279 C 306.051 -1.41816 1.34713 0
M  V30 3280 O 307.257 -2.06299 1.76502 0
M  V30 3281 C 305.713 -0.23047 3.59161 0
M  V30 3282 C 305.321 1.0776 4.34847 0
M  V30 3283 C 307.065 -0.743608 4.17936 0
M  V30 3284 C 304.972 0.91253 5.84317 0
M  V30 3285 H 303.902 -0.0415102 0.752856 0
M  V30 3286 H 306.553 0.592742 1.73663 0
M  V30 3287 H 304.935 -0.987703 3.83485 0
M  V30 3288 H 306.109 1.8449 4.22256 0
M  V30 3289 H 304.424 1.52097 3.87628 0
M  V30 3290 H 307.021 -0.883959 5.27343 0
M  V30 3291 H 307.364 -1.73196 3.78562 0
M  V30 3292 H 307.897 -0.04408 3.97776 0
M  V30 3293 H 304.636 1.87391 6.28144 0
M  V30 3294 H 304.156 0.185422 5.99513 0
M  V30 3295 H 305.835 0.574547 6.44444 0
M  V30 3296 N 305.967 -1.56429 0.191757 0
M  V30 3297 C 307.195 -2.01867 -0.453586 0
M  V30 3298 C 307.61 -1.07191 -1.5542 0
M  V30 3299 O 306.967 -0.0762108 -1.82341 0
M  V30 3300 C 307.018 -3.47017 -1.013 0
M  V30 3301 O 306.739 -4.38078 0.0437005 0
M  V30 3302 C 308.24 -4.07956 -1.73456 0
M  V30 3303 H 305.46 -0.661211 -0.114199 0
M  V30 3304 H 308.004 -2.02295 0.299483 0
M  V30 3305 H 306.159 -3.47298 -1.71647 0
M  V30 3306 H 306.573 -5.23178 -0.372212 0
M  V30 3307 H 308.047 -5.1138 -2.07833 0
M  V30 3308 H 308.524 -3.51222 -2.63704 0
M  V30 3309 H 309.13 -4.11437 -1.07702 0
M  V30 3310 N 307.445 0.0818655 -1.57387 0
M  V30 3311 C 308.355 1.11642 -2.06333 0
M  V30 3312 C 309.371 1.43033 -0.99083 0
M  V30 3313 O 310.547 1.53411 -1.30488 0
M  V30 3314 C 307.612 2.41342 -2.48907 0
M  V30 3315 C 306.673 2.17014 -3.7041 0
M  V30 3316 C 305.906 3.4053 -4.10944 0
M  V30 3317 O 306.129 4.4927 -3.51444 0
M  V30 3318 O 305.063 3.29336 -5.03807 0
M  V30 3319 H 308.889 0.730657 -2.9478 0
M  V30 3320 H 306.474 0.295301 -1.46452 0
M  V30 3321 H 308.356 3.17691 -2.76858 0
M  V30 3322 H 307.031 2.79319 -1.63593 0
M  V30 3323 H 305.938 1.38403 -3.47556 0
M  V30 3324 H 307.271 1.83923 -4.56545 0
M  V30 3325 N 308.923 1.53595 0.353017 0
M  V30 3326 C 309.886 1.80232 1.41594 0
M  V30 3327 C 310.886 0.673081 1.46035 0
M  V30 3328 O 312.076 0.941335 1.46576 0
M  V30 3329 C 309.208 1.93578 2.80607 0
M  V30 3330 H 310.401 2.75174 1.19244 0
M  V30 3331 H 307.954 1.44864 0.586872 0
M  V30 3332 H 308.689 1.00746 3.08254 0
M  V30 3333 H 308.474 2.75724 2.78781 0
M  V30 3334 H 309.964 2.15735 3.57558 0
M  V30 3335 N 310.401 -0.613514 1.45168 0
M  V30 3336 C 311.649 -1.36997 1.48581 0
M  V30 3337 C 311.97 -1.94589 0.126545 0
M  V30 3338 O 311.24 -1.76816 -0.843372 0
M  V30 3339 H 309.82 -0.508558 0.547154 0
M  V30 3340 H 312.482 -0.720853 1.81079 0
M  V30 3341 H 311.578 -2.1924 2.22127 0
M  V30 3342 N 311.879 -1.3236 -0.855495 0
M  V30 3343 C 312.809 -1.23833 -1.97958 0
M  V30 3344 C 313.79 -0.122361 -1.69659 0
M  V30 3345 O 314.975 -0.30939 -1.9172 0
M  V30 3346 C 312.105 -0.959772 -3.33775 0
M  V30 3347 C 311.059 -2.03689 -3.76424 0
M  V30 3348 C 310.385 -1.61075 -5.09862 0
M  V30 3349 C 311.685 -3.4518 -3.9198 0
M  V30 3350 H 313.379 -2.1788 -2.0535 0
M  V30 3351 H 310.925 -1.04891 -0.986605 0
M  V30 3352 H 312.878 -0.886678 -4.11966 0
M  V30 3353 H 311.602 0.0163404 -3.26596 0
M  V30 3354 H 310.261 -2.10012 -3.00484 0
M  V30 3355 H 309.909 -0.622107 -4.99138 0
M  V30 3356 H 309.609 -2.33143 -5.39368 0
M  V30 3357 H 311.133 -1.55201 -5.90546 0
M  V30 3358 H 312.547 -3.4145 -4.60526 0
M  V30 3359 H 310.944 -4.1559 -4.32903 0
M  V30 3360 H 312.014 -3.84903 -2.94919 0
M  V30 3361 N 313.357 1.07166 -1.15556 0
M  V30 3362 C 314.768 1.6127 -0.940693 0
M  V30 3363 C 315.119 1.89251 0.517551 0
M  V30 3364 O 314.244 1.65937 1.38903 0
M  V30 3365 C 314.839 2.92993 -1.7012 0
M  V30 3366 C 313.398 3.43832 -1.53156 0
M  V30 3367 C 312.545 2.1786 -1.71558 0
M  V30 3368 H 315.496 0.90229 -1.30554 0
M  V30 3369 H 315.517 3.62007 -1.17181 0
M  V30 3370 H 315.029 2.72596 -2.76248 0
M  V30 3371 H 313.13 3.69307 -0.494294 0
M  V30 3372 H 313.243 4.19747 -2.30975 0
M  V30 3373 H 311.607 2.2765 -1.14225 0
M  V30 3374 H 312.39 1.99956 -2.79056 0
M  V30 3375 N 314.835 0.952656 1.25548 0
M  V30 3376 C 316.084 0.602053 1.92505 0
M  V30 3377 C 316.397 -0.864663 1.75451 0
M  V30 3378 O 317.603 -1.32514 2.36965 0
M  V30 3379 C 316.059 1.02607 3.44963 0
M  V30 3380 C 315.667 2.51519 3.70732 0
M  V30 3381 C 317.411 0.747905 4.1786 0
M  V30 3382 C 315.318 2.87732 5.16686 0
M  V30 3383 H 314.248 0.22146 0.720744 0
M  V30 3384 H 316.899 1.15684 1.42441 0
M  V30 3385 H 315.281 0.399712 3.93978 0
M  V30 3386 H 316.455 3.19157 3.32378 0
M  V30 3387 H 314.77 2.76786 3.11092 0
M  V30 3388 H 317.367 0.994647 5.25367 0
M  V30 3389 H 317.71 -0.315629 4.15102 0
M  V30 3390 H 318.243 1.33452 3.74747 0
M  V30 3391 H 314.982 3.93095 5.24554 0
M  V30 3392 H 314.502 2.24765 5.56094 0
M  V30 3393 H 316.181 2.76817 5.84792 0
M  V30 3394 N 316.313 -1.40141 0.720998 0
M  V30 3395 C 317.729 -1.54632 0.395113 0
M  V30 3396 C 317.929 -1.69115 -1.09555 0
M  V30 3397 O 316.985 -1.68377 -1.88163 0
M  V30 3398 C 318.298 -2.77177 1.1659 0
M  V30 3399 C 319.846 -2.91 1.15274 0
M  V30 3400 C 320.321 -4.16465 1.90579 0
M  V30 3401 N 321.812 -4.23476 1.87675 0
M  V30 3402 C 322.547 -5.19475 2.42762 0
M  V30 3403 N 322.043 -6.21348 3.06428 0
M  V30 3404 N 323.836 -5.11592 2.32874 0
M  V30 3405 H 315.987 -1.28986 1.68749 0
M  V30 3406 H 318.25 -0.62412 0.713567 0
M  V30 3407 H 317.956 -2.72771 2.22011 0
M  V30 3408 H 317.83 -3.69442 0.76108 0
M  V30 3409 H 320.217 -2.94907 0.106702 0
M  V30 3410 H 320.298 -1.99838 1.59682 0
M  V30 3411 H 319.942 -4.1332 2.95176 0
M  V30 3412 H 319.872 -5.06646 1.43587 0
M  V30 3413 H 322.363 -3.50497 1.41281 0
M  V30 3414 H 322.676 -6.91034 3.45965 0
M  V30 3415 H 321.021 -6.21777 3.10514 0
M  V30 3416 H 324.212 -4.30936 1.82789 0
M  V30 3417 H 324.385 -5.86233 2.76106 0
M  V30 3418 N 317.792 -0.46758 -1.50504 0
M  V30 3419 C 319.069 0.15003 -1.95024 0
M  V30 3420 C 319.449 1.57304 -1.40779 0
M  V30 3421 O 318.797 2.20281 -0.607319 0
M  V30 3422 C 319.007 0.0969324 -3.48865 0
M  V30 3423 C 320.355 0.287565 -4.23625 0
M  V30 3424 O 321.379 0.173678 -3.55776 0
M  V30 3425 O 320.238 0.517186 -5.44047 0
M  V30 3426 H 317.332 0.113582 -0.819163 0
M  V30 3427 H 319.878 -0.52773 -1.61286 0
M  V30 3428 H 318.65 -0.896732 -3.80886 0
M  V30 3429 H 318.273 0.816303 -3.8913 0
M  V30 3430 N 319.27 1.56325 -0.20005 0
M  V30 3431 C 320.518 1.97329 0.436547 0
M  V30 3432 C 320.839 1.08826 1.61808 0
M  V30 3433 O 320.109 0.160604 1.95241 0
M  V30 3434 H 318.689 0.728714 0.164272 0
M  V30 3435 H 321.351 1.92761 -0.287937 0
M  V30 3436 H 320.447 3.02264 0.777353 0
M  V30 3437 N 320.748 -0.0735177 1.57428 0
M  V30 3438 C 322.025 -0.805903 1.78226 0
M  V30 3439 C 322.405 -1.95874 0.787189 0
M  V30 3440 O 321.753 -2.2779 -0.180029 0
M  V30 3441 C 321.963 -1.28045 3.24662 0
M  V30 3442 C 323.311 -1.71453 3.88444 0
M  V30 3443 O 324.335 -1.37616 3.28543 0
M  V30 3444 O 323.194 -2.34093 4.93825 0
M  V30 3445 H 320.288 -0.386041 0.73137 0
M  V30 3446 H 322.834 -0.0537269 1.69615 0
M  V30 3447 H 321.606 -0.455476 3.8864 0
M  V30 3448 H 321.229 -2.094 3.37991 0
M  V30 3449 N 322.226 -1.5378 -0.344866 0
M  V30 3450 C 323.156 -1.84662 -1.42906 0
M  V30 3451 C 324.137 -0.701648 -1.54955 0
M  V30 3452 O 325.322 -0.953438 -1.69184 0
M  V30 3453 C 322.452 -2.05503 -2.79974 0
M  V30 3454 C 321.406 -3.21318 -2.82734 0
M  V30 3455 C 320.732 -3.2749 -4.22675 0
M  V30 3456 C 322.032 -4.59456 -2.48389 0
M  V30 3457 H 323.726 -2.75461 -1.17311 0
M  V30 3458 H 321.272 -1.32542 -0.562896 0
M  V30 3459 H 323.225 -2.25691 -3.55867 0
M  V30 3460 H 321.949 -1.11434 -3.07002 0
M  V30 3461 H 320.608 -3.00984 -2.09294 0
M  V30 3462 H 320.256 -2.31019 -4.4681 0
M  V30 3463 H 319.956 -4.05316 -4.25433 0
M  V30 3464 H 321.48 -3.49887 -5.00412 0
M  V30 3465 H 322.894 -4.79667 -3.13995 0
M  V30 3466 H 321.291 -5.39675 -2.62432 0
M  V30 3467 H 322.361 -4.63155 -1.4358 0
M  V30 3468 N 323.704 0.605807 -1.45491 0
M  V30 3469 C 324.95 1.36679 -1.49823 0
M  V30 3470 C 325.283 1.93693 -0.140175 0
M  V30 3471 O 324.558 1.75158 0.845581 0
M  V30 3472 C 324.841 2.51337 -2.57879 0
M  V30 3473 C 324.694 1.99508 -4.03134 0
M  V30 3474 C 326.013 3.53463 -2.62205 0
M  V30 3475 H 323.132 0.495617 -0.545466 0
M  V30 3476 H 325.774 0.682732 -1.7731 0
M  V30 3477 H 323.924 3.09691 -2.34571 0
M  V30 3478 H 325.596 1.45789 -4.37656 0
M  V30 3479 H 323.839 1.30496 -4.13707 0
M  V30 3480 H 324.51 2.82169 -4.74431 0
M  V30 3481 H 326.986 3.04953 -2.83095 0
M  V30 3482 H 325.862 4.31178 -3.39672 0
M  V30 3483 H 326.123 4.09197 -1.67363 0
M  V30 3484 N 325.182 1.32811 0.848464 0
M  V30 3485 C 326.431 1.23075 1.59798 0
M  V30 3486 C 326.744 -0.204419 1.94529 0
M  V30 3487 O 327.95 -0.423701 2.68173 0
M  V30 3488 C 326.406 2.15594 2.88179 0
M  V30 3489 C 326.014 3.64228 2.60849 0
M  V30 3490 C 327.758 2.14709 3.66197 0
M  V30 3491 C 325.665 4.48689 3.85269 0
M  V30 3492 H 324.595 0.457091 0.599653 0
M  V30 3493 H 327.246 1.57813 0.936342 0
M  V30 3494 H 325.628 1.73778 3.55833 0
M  V30 3495 H 326.802 4.14424 2.01467 0
M  V30 3496 H 325.117 3.67306 1.96151 0
M  V30 3497 H 327.714 2.75046 4.58534 0
M  V30 3498 H 328.057 1.13966 4.00397 0
M  V30 3499 H 328.59 2.54837 3.05455 0
M  V30 3500 H 325.329 5.5027 3.56207 0
M  V30 3501 H 324.849 4.03241 4.44024 0
M  V30 3502 H 326.528 4.62006 4.52946 0
M  V30 3503 N 326.66 -1.06551 1.16123 0
M  V30 3504 C 327.888 -1.83005 0.965237 0
M  V30 3505 C 328.303 -1.82423 -0.486542 0
M  V30 3506 O 327.66 -1.24152 -1.33763 0
M  V30 3507 C 327.711 -3.29733 1.48183 0
M  V30 3508 O 327.432 -3.30416 2.87674 0
M  V30 3509 C 328.933 -4.22926 1.32848 0
M  V30 3510 H 326.153 -0.577118 0.342309 0
M  V30 3511 H 328.697 -1.3445 1.54089 0
M  V30 3512 H 326.852 -3.75609 0.948517 0
M  V30 3513 H 327.266 -4.22149 3.11272 0
M  V30 3514 H 328.74 -5.23916 1.73827 0
M  V30 3515 H 329.217 -4.38346 0.273692 0
M  V30 3516 H 329.823 -3.82894 1.85127 0
M  V30 3517 N 328.138 -0.959301 -1.25041 0
M  V30 3518 C 329.086 -0.474437 -2.2771 0
M  V30 3519 C 330.08 0.457697 -1.631 0
M  V30 3520 O 331.286 0.333912 -1.76876 0
M  V30 3521 H 327.661 -0.134936 -0.739795 0
M  V30 3522 H 329.632 -1.35251 -2.65988 0
M  V30 3523 C 328.381 0.227884 -3.46952 0
M  V30 3524 H 327.704 -0.480248 -3.96905 0
M  V30 3525 H 329.144 0.531091 -4.20661 0
M  V30 3526 C 327.603 1.452 -3.04004 0
M  V30 3527 O 328.133 2.54949 -3.10426 0
M  V30 3528 N 326.339 1.31502 -2.59144 0
M  V30 3529 H 325.886 0.422065 -2.54119 0
M  V30 3530 H 325.844 2.13521 -2.30773 0
M  V30 3531 N 329.616 1.39756 -0.72842 0
M  V30 3532 C 330.893 1.94574 -0.200079 0
M  V30 3533 C 331.273 1.66569 1.29684 0
M  V30 3534 O 330.621 0.990326 2.05924 0
M  V30 3535 C 330.831 3.45004 -0.526608 0
M  V30 3536 C 332.179 4.21965 -0.472318 0
M  V30 3537 O 333.203 3.53173 -0.463413 0
M  V30 3538 O 332.062 5.44552 -0.461075 0
M  V30 3539 H 329.156 0.826289 -0.0342851 0
M  V30 3540 H 331.702 1.49293 -0.806829 0
M  V30 3541 H 330.474 3.58796 -1.56144 0
M  V30 3542 H 330.097 3.97449 0.109449 0
M  V30 3543 N 331.094 0.475555 1.50254 0
M  V30 3544 C 332.342 -0.077738 2.0195 0
M  V30 3545 C 332.663 -1.39813 1.35931 0
M  V30 3546 O 331.933 -1.89249 0.506123 0
M  V30 3547 H 330.513 -0.031719 0.746326 0
M  V30 3548 H 333.175 0.626995 1.84539 0
M  V30 3549 H 332.271 -0.225995 3.11281 0
M  V30 3550 N 332.573 -1.56217 0.208337 0
M  V30 3551 C 333.798 -2.02782 -0.435222 0
M  V30 3552 C 334.223 -1.08738 -1.53485 0
M  V30 3553 O 333.581 -0.0731855 -1.81152 0
M  V30 3554 C 333.629 -3.47687 -0.956335 0
M  V30 3555 O 332.733 -3.56773 -2.06849 0
M  V30 3556 H 332.074 -0.656403 -0.100158 0
M  V30 3557 H 334.604 -2.02033 0.3231 0
M  V30 3558 H 334.614 -3.87745 -1.26955 0
M  V30 3559 H 333.289 -4.15624 -0.15143 0
M  V30 3560 H 331.866 -3.28597 -1.76292 0
M  V30 3561 N 334.051 0.0651679 -1.57465 0
M  V30 3562 C 334.981 1.07693 -2.07182 0
M  V30 3563 C 335.962 1.39962 -0.966673 0
M  V30 3564 O 337.147 1.49475 -1.2398 0
M  V30 3565 C 334.277 2.3885 -2.52127 0
M  V30 3566 C 333.231 2.20917 -3.66579 0
M  V30 3567 C 332.557 3.57515 -3.97601 0
M  V30 3568 C 333.857 1.62493 -4.9638 0
M  V30 3569 H 335.551 0.663199 -2.91962 0
M  V30 3570 H 333.097 0.317569 -1.40455 0
M  V30 3571 H 335.05 3.09928 -2.85522 0
M  V30 3572 H 333.774 2.82215 -1.64384 0
M  V30 3573 H 332.433 1.52279 -3.33477 0
M  V30 3574 H 332.081 3.98463 -3.06979 0
M  V30 3575 H 331.781 3.46353 -4.74672 0
M  V30 3576 H 333.305 4.30013 -4.33499 0
M  V30 3577 H 334.719 2.23445 -5.27963 0
M  V30 3578 H 333.116 1.62009 -5.77818 0
M  V30 3579 H 334.186 0.587041 -4.81333 0
M  V30 3580 N 335.529 1.53961 0.336706 0
M  V30 3581 C 336.439 1.85432 1.43708 0
M  V30 3582 C 337.455 0.745053 1.57242 0
M  V30 3583 O 338.631 1.03804 1.72588 0
M  V30 3584 C 335.696 2.06349 2.78605 0
M  V30 3585 C 334.757 3.30191 2.74358 0
M  V30 3586 C 333.99 3.50101 4.02822 0
M  V30 3587 O 334.213 2.7371 5.00439 0
M  V30 3588 O 333.147 4.43547 4.06878 0
M  V30 3589 H 336.973 2.78975 1.20028 0
M  V30 3590 H 334.558 1.39701 0.52952 0
M  V30 3591 H 336.44 2.21513 3.58483 0
M  V30 3592 H 335.115 1.15995 3.02203 0
M  V30 3593 H 334.022 3.20425 1.93078 0
M  V30 3594 H 335.355 4.2056 2.55715 0
M  V30 3595 N 337.007 -0.598083 1.45811 0
M  V30 3596 C 337.917 -1.73632 1.57763 0
M  V30 3597 C 338.933 -1.67763 0.461676 0
M  V30 3598 O 340.109 -1.87949 0.723685 0
M  V30 3599 C 337.174 -3.10114 1.55018 0
M  V30 3600 C 336.235 -3.27364 2.77726 0
M  V30 3601 C 335.468 -4.57334 2.75102 0
M  V30 3602 O 335.691 -5.40258 1.8297 0
M  V30 3603 O 334.625 -4.77502 3.66437 0
M  V30 3604 H 338.451 -1.66498 2.53992 0
M  V30 3605 H 336.036 -0.763308 1.28429 0
M  V30 3606 H 337.918 -3.9141 1.56129 0
M  V30 3607 H 336.593 -3.17718 0.619431 0
M  V30 3608 H 335.5 -2.45619 2.82174 0
M  V30 3609 H 336.833 -3.24641 3.69958 0
M  V30 3610 N 338.485 -1.33259 -0.841409 0
M  V30 3611 C 339.415 -1.25926 -1.96634 0
M  V30 3612 C 340.396 -0.140349 -1.6952 0
M  V30 3613 O 341.581 -0.329707 -1.91381 0
M  V30 3614 C 338.711 -0.99512 -3.32738 0
M  V30 3615 C 337.665 -2.0767 -3.74242 0
M  V30 3616 C 336.991 -1.66474 -5.08125 0
M  V30 3617 C 338.291 -3.49318 -3.88297 0
M  V30 3618 H 339.985 -2.20046 -2.03027 0
M  V30 3619 H 337.531 -1.05931 -0.975425 0
M  V30 3620 H 339.484 -0.930323 -4.11002 0
M  V30 3621 H 338.208 -0.0183004 -3.26595 0
M  V30 3622 H 336.867 -2.13187 -2.98239 0
M  V30 3623 H 336.515 -0.675012 -4.9845 0
M  V30 3624 H 336.215 -2.3885 -5.36865 0
M  V30 3625 H 337.739 -1.61455 -5.88867 0
M  V30 3626 H 339.153 -3.46316 -4.56879 0
M  V30 3627 H 337.55 -4.20158 -4.28471 0
M  V30 3628 H 338.62 -3.8801 -2.9082 0
M  V30 3629 N 339.963 1.05934 -1.16686 0
M  V30 3630 C 341.21 1.788 -0.950622 0
M  V30 3631 C 341.538 1.87384 0.521305 0
M  V30 3632 O 340.793 1.36438 1.40297 0
M  V30 3633 C 341.092 3.23105 -1.52767 0
M  V30 3634 C 340.758 3.34594 -3.02254 0
M  V30 3635 C 339.42 3.37437 -3.43059 0
M  V30 3636 C 341.772 3.36219 -3.98254 0
M  V30 3637 C 339.1 3.39525 -4.78477 0
M  V30 3638 C 341.452 3.39845 -5.33562 0
M  V30 3639 C 340.116 3.40971 -5.73842 0
M  V30 3640 H 339.386 0.654275 -0.347857 0
M  V30 3641 H 342.033 1.24555 -1.45459 0
M  V30 3642 H 340.338 3.80227 -0.94524 0
M  V30 3643 H 342.035 3.7809 -1.336 0
M  V30 3644 H 338.625 3.3309 -2.6972 0
M  V30 3645 H 342.809 3.33231 -3.67792 0
M  V30 3646 H 338.065 3.38703 -5.09009 0
M  V30 3647 H 342.239 3.4005 -6.07733 0
M  V30 3648 H 339.866 3.42342 -6.78753 0
M  V30 3649 N 341.441 0.965919 1.2453 0
M  V30 3650 C 342.666 0.643971 1.97149 0
M  V30 3651 C 343.091 -0.779487 1.71189 0
M  V30 3652 O 342.449 -1.5288 0.974553 0
M  V30 3653 C 342.497 0.922557 3.48599 0
M  V30 3654 O 341.601 0.00707672 4.12399 0
M  V30 3655 H 340.942 0.243647 0.617683 0
M  V30 3656 H 343.472 1.29558 1.58353 0
M  V30 3657 H 343.482 0.853373 3.98976 0
M  V30 3658 H 342.157 1.95996 3.66822 0
M  V30 3659 H 340.734 0.12943 3.72675 0
M  V30 3660 N 342.919 -1.39368 0.735821 0
M  V30 3661 C 343.866 -2.30599 0.0963825 0
M  V30 3662 C 344.836 -1.49257 -0.728794 0
M  V30 3663 O 346.021 -1.77941 -0.688588 0
M  V30 3664 C 343.161 -3.35596 -0.804305 0
M  V30 3665 C 342.274 -4.31987 0.0335761 0
M  V30 3666 C 341.409 -5.24053 -0.868461 0
M  V30 3667 C 340.448 -6.12095 -0.0258776 0
M  V30 3668 N 339.585 -6.96514 -0.883893 0
M  V30 3669 H 344.425 -2.8471 0.880002 0
M  V30 3670 H 341.962 -1.40188 0.445619 0
M  V30 3671 H 343.92 -3.95062 -1.34096 0
M  V30 3672 H 342.55 -2.82938 -1.55389 0
M  V30 3673 H 341.602 -3.74133 0.68766 0
M  V30 3674 H 342.914 -4.94074 0.685036 0
M  V30 3675 H 342.068 -5.88549 -1.47293 0
M  V30 3676 H 340.807 -4.62289 -1.5537 0
M  V30 3677 H 339.812 -5.4661 0.591386 0
M  V30 3678 H 341.037 -6.75923 0.656156 0
M  V30 3679 H 338.983 -6.37318 -1.55441 0
M  V30 3680 H 338.9 -7.55448 -0.288931 0
M  V30 3681 H 340.168 -7.65439 -1.4739 0
M  V30 3682 N 344.397 -0.483516 -1.5 0
M  V30 3683 C 345.646 0.0689102 -2.01582 0
M  V30 3684 C 345.959 1.39655 -1.36952 0
M  V30 3685 O 347.165 2.03465 -1.79762 0
M  V30 3686 C 345.621 0.173302 -3.59483 0
M  V30 3687 C 345.229 -1.14665 -4.33077 0
M  V30 3688 C 346.973 0.677024 -4.19066 0
M  V30 3689 C 344.88 -1.00537 -5.82792 0
M  V30 3690 H 343.81 0.0295277 -0.753422 0
M  V30 3691 H 346.461 -0.620295 -1.72698 0
M  V30 3692 H 344.843 0.926569 -3.85007 0
M  V30 3693 H 346.017 -1.91184 -4.19268 0
M  V30 3694 H 344.332 -1.58244 -3.85159 0
M  V30 3695 H 346.929 0.799952 -5.28682 0
M  V30 3696 H 347.272 1.67151 -3.81269 0
M  V30 3697 H 347.805 -0.0192083 -3.97795 0
M  V30 3698 H 344.544 -1.9736 -6.25083 0
M  V30 3699 H 344.064 -0.280776 -5.99142 0
M  V30 3700 H 345.743 -0.677 -6.43448 0
M  V30 3701 N 345.875 1.56104 -0.216619 0
M  V30 3702 C 346.822 2.2007 0.695531 0
M  V30 3703 C 347.792 1.15471 1.19397 0
M  V30 3704 O 348.977 1.43807 1.25396 0
M  V30 3705 C 346.117 2.88073 1.90021 0
M  V30 3706 C 345.23 4.07253 1.44113 0
M  V30 3707 C 344.365 4.63052 2.603 0
M  V30 3708 C 343.404 5.74545 2.11103 0
M  V30 3709 N 342.541 6.24656 3.20545 0
M  V30 3710 H 347.381 2.97655 0.143327 0
M  V30 3711 H 344.918 1.46982 0.0589934 0
M  V30 3712 H 346.876 3.25681 2.60745 0
M  V30 3713 H 345.506 2.13015 2.42538 0
M  V30 3714 H 344.558 3.75164 0.628999 0
M  V30 3715 H 345.87 4.8783 1.04036 0
M  V30 3716 H 345.024 5.03078 3.39113 0
M  V30 3717 H 343.763 3.81628 3.03663 0
M  V30 3718 H 342.768 5.34027 1.3075 0
M  V30 3719 H 343.993 6.57801 1.68746 0
M  V30 3720 H 341.939 5.46148 3.63399 0
M  V30 3721 H 341.856 7.00343 2.84704 0
M  V30 3722 H 343.124 6.69338 3.99508 0
M  V30 3723 N 347.353 -0.0568162 1.57498 0
M  V30 3724 C 348.301 -1.08452 2.05769 0
M  V30 3725 C 349.295 -1.39164 0.965903 0
M  V30 3726 O 350.501 -1.38395 1.15095 0
M  V30 3727 H 346.876 -0.367148 0.656282 0
M  V30 3728 H 348.847 -0.651368 2.91204 0
M  V30 3729 C 347.596 -2.38543 2.52968 0
M  V30 3730 H 346.919 -2.15765 3.36579 0
M  V30 3731 H 348.359 -3.08863 2.90481 0
M  V30 3732 C 346.818 -3.05562 1.41893 0
M  V30 3733 O 347.348 -3.94262 0.769442 0
M  V30 3734 N 345.554 -2.6643 1.16032 0
M  V30 3735 H 345.101 -1.94387 1.6903 0
M  V30 3736 H 345.059 -3.11593 0.419219 0
M  V30 3737 N 348.832 -1.54138 -0.328536 0
M  V30 3738 C 350.06 -1.76062 -1.08673 0
M  V30 3739 C 350.475 -0.506852 -1.81869 0
M  V30 3740 O 349.832 0.522223 -1.74869 0
M  V30 3741 C 349.883 -2.95054 -2.08866 0
M  V30 3742 O 349.604 -4.15583 -1.38644 0
M  V30 3743 C 351.105 -3.2915 -2.96943 0
M  V30 3744 H 348.325 -0.587889 -0.323461 0
M  V30 3745 H 350.869 -2.0101 -0.376175 0
M  V30 3746 H 349.024 -2.72394 -2.75464 0
M  V30 3747 H 349.438 -4.82481 -2.05699 0
M  V30 3748 H 350.912 -4.15723 -3.63151 0
M  V30 3749 H 351.389 -2.461 -3.63774 0
M  V30 3750 H 351.995 -3.53871 -2.35914 0
M  V30 3751 N 350.31 0.590341 -1.46126 0
M  V30 3752 C 351.24 1.71032 -1.58966 0
M  V30 3753 C 352.221 1.64302 -0.440335 0
M  V30 3754 O 353.406 1.82436 -0.665634 0
M  V30 3755 C 350.536 3.09665 -1.57241 0
M  V30 3756 C 349.49 3.31221 -2.71066 0
M  V30 3757 C 348.816 4.70303 -2.54399 0
M  V30 3758 C 350.116 3.19796 -4.1295 0
M  V30 3759 H 351.81 1.60543 -2.52718 0
M  V30 3760 H 349.356 0.770933 -1.21625 0
M  V30 3761 H 351.309 3.87831 -1.64819 0
M  V30 3762 H 350.033 3.21036 -0.600289 0
M  V30 3763 H 348.692 2.55452 -2.62944 0
M  V30 3764 H 348.34 4.78429 -1.55288 0
M  V30 3765 H 348.04 4.85679 -3.30741 0
M  V30 3766 H 349.564 5.50647 -2.63857 0
M  V30 3767 H 350.978 3.87815 -4.22223 0
M  V30 3768 H 349.375 3.46696 -4.89818 0
M  V30 3769 H 350.445 2.16983 -4.33643 0
M  V30 3770 N 351.788 1.33704 0.83433 0
M  V30 3771 C 352.735 1.24335 1.94447 0
M  V30 3772 C 353.705 0.120991 1.65659 0
M  V30 3773 O 354.89 0.300035 1.88426 0
M  V30 3774 C 352.03 0.993124 3.30501 0
M  V30 3775 C 351.143 2.20217 3.71657 0
M  V30 3776 C 350.278 1.88572 4.96602 0
M  V30 3777 C 349.317 3.05683 5.30306 0
M  V30 3778 N 348.454 2.73997 6.46429 0
M  V30 3779 H 353.294 2.1928 2.01792 0
M  V30 3780 H 350.831 1.09035 0.987404 0
M  V30 3781 H 352.789 0.828467 4.08892 0
M  V30 3782 H 351.419 0.0803902 3.227 0
M  V30 3783 H 350.471 2.47642 2.88752 0
M  V30 3784 H 351.783 3.07752 3.92543 0
M  V30 3785 H 350.937 1.68776 5.82752 0
M  V30 3786 H 349.676 0.982799 4.77695 0
M  V30 3787 H 348.681 3.26088 4.42659 0
M  V30 3788 H 349.906 3.96737 5.51159 0
M  V30 3789 H 347.852 1.86268 6.28999 0
M  V30 3790 H 347.769 3.55064 6.67432 0
M  V30 3791 H 349.037 2.57679 7.35678 0
M  V30 3792 N 353.266 -1.05314 1.17247 0
M  V30 3793 C 354.512 -1.78557 0.961513 0
M  V30 3794 C 354.845 -1.87419 -0.508697 0
M  V30 3795 O 354.12 -1.37307 -1.37757 0
M  V30 3796 C 354.403 -3.22514 1.60176 0
M  V30 3797 C 354.256 -3.21673 3.14399 0
M  V30 3798 C 355.575 -4.20318 1.30463 0
M  V30 3799 H 352.694 -0.6482 0.350723 0
M  V30 3800 H 355.336 -1.23102 1.44727 0
M  V30 3801 H 353.486 -3.69867 1.18871 0
M  V30 3802 H 355.158 -2.82405 3.64753 0
M  V30 3803 H 353.401 -2.60048 3.47214 0
M  V30 3804 H 354.072 -4.23271 3.54324 0
M  V30 3805 H 356.548 -3.81454 1.66229 0
M  V30 3806 H 355.424 -5.19289 1.77848 0
M  V30 3807 H 355.685 -4.41526 0.22521 0
M  V30 3808 N 354.744 -0.972509 -1.24016 0
M  V30 3809 C 355.674 -0.525548 -2.27509 0
M  V30 3810 C 356.655 0.437262 -1.64384 0
M  V30 3811 O 357.84 0.332343 -1.91335 0
M  V30 3812 C 354.97 0.180448 -3.46831 0
M  V30 3813 C 353.924 -0.698859 -4.22256 0
M  V30 3814 C 353.25 0.138903 -5.3452 0
M  V30 3815 C 354.55 -1.98582 -4.83076 0
M  V30 3816 H 356.244 -1.39058 -2.65148 0
M  V30 3817 H 353.79 -0.67009 -1.27459 0
M  V30 3818 H 355.743 0.504387 -4.18371 0
M  V30 3819 H 354.467 1.07987 -3.08231 0
M  V30 3820 H 353.126 -1.00614 -3.52523 0
M  V30 3821 H 352.774 1.03862 -4.9216 0
M  V30 3822 H 352.474 -0.446259 -5.85903 0
M  V30 3823 H 353.998 0.457404 -6.08884 0
M  V30 3824 H 355.412 -1.72715 -5.46665 0
M  V30 3825 H 353.809 -2.5181 -5.44713 0
M  V30 3826 H 354.879 -2.67769 -4.04262 0
M  V30 3827 O 356.261 1.3537 -0.880752 0
M  V30 3828 H 356.952 1.87543 -0.484504 0
M  V30 END ATOM
M  V30 BEGIN BOND
M  V30 END BOND
M  V30 END CTAB
M  END
$$$$
