drugbank_target|P14679 Tyrosinase (DB00157; DB00548; DB00600; DB01055; DB09526; DB11217; DB11254)
 OpenBabel12092119273D

  0  0  0     0  0            999 V3000
M  V30 BEGIN CTAB
M  V30 COUNTS 8291 8422 0 0 0
M  V30 BEGIN ATOM
M  V30 1 H -0.908 1.98254 -0.117106 0
M  V30 2 N 0 1.576 0 0
M  V30 3 C 0.933 2.03868 1.02534 0
M  V30 4 C 1.911 0.928543 1.3348 0
M  V30 5 O 3.095 1.19667 1.45644 0
M  V30 6 C 0.222 2.43627 2.35294 0
M  V30 7 C -0.732 3.65373 2.2001 0
M  V30 8 S 0.101 5.13292 1.52614 0
M  V30 9 C 1.257 5.56322 2.86805 0
M  V30 10 H 1.49 2.90518 0.631377 0
M  V30 11 H -0.977 1.52953 0.210867 0
M  V30 12 H 0.981 2.67203 3.11629 0
M  V30 13 H -0.358 1.57376 2.7183 0
M  V30 14 H -1.165 3.90944 3.18086 0
M  V30 15 H -1.563 3.418 1.51819 0
M  V30 16 H 0.729 5.58782 3.83104 0
M  V30 17 H 1.672 6.56266 2.65933 0
M  V30 18 H 2.08 4.83886 2.90714 0
M  V30 19 N 1.4781 -0.272755 1.55222 0
M  V30 20 C 2.4081 -1.34136 1.91127 0
M  V30 21 C 3.3891 -1.51513 0.773168 0
M  V30 22 O 4.5741 -1.64552 1.03132 0
M  V30 23 C 1.7041 -2.70083 2.1834 0
M  V30 24 C 0.6581 -2.67437 3.34158 0
M  V30 25 C -0.0159 -4.06938 3.46851 0
M  V30 26 C 1.2841 -2.26686 4.70543 0
M  V30 27 H 2.9781 -1.04333 2.80633 0
M  V30 28 H 0.5241 -0.500454 1.35024 0
M  V30 29 H 2.4771 -3.44952 2.42046 0
M  V30 30 H 1.2011 -3.01469 1.25634 0
M  V30 31 H -0.1399 -1.95026 3.1042 0
M  V30 32 H -0.4919 -4.35547 2.51611 0
M  V30 33 H -0.7919 -4.06062 4.2472 0
M  V30 34 H 0.7321 -4.83545 3.72849 0
M  V30 35 H 2.1461 -2.91277 4.93792 0
M  V30 36 H 0.5431 -2.36971 5.5133 0
M  V30 37 H 1.6131 -1.21818 4.69349 0
M  V30 38 N 2.9562 -1.48159 -0.537278 0
M  V30 39 C 3.8862 -1.65029 -1.6519 0
M  V30 40 C 4.8672 -0.499281 -1.62607 0
M  V30 41 O 6.0522 -0.730972 -1.79918 0
M  V30 42 C 3.1822 -1.68303 -3.03795 0
M  V30 43 C 2.1362 -2.8283 -3.21234 0
M  V30 44 C 1.4622 -2.71189 -4.60826 0
M  V30 45 C 2.7622 -4.24211 -3.04701 0
M  V30 46 H 4.4562 -2.58341 -1.51328 0
M  V30 47 H 2.0022 -1.24325 -0.726585 0
M  V30 48 H 3.9552 -1.78693 -3.81637 0
M  V30 49 H 2.6792 -0.715635 -3.18663 0
M  V30 50 H 1.3382 -2.71983 -2.45807 0
M  V30 51 H 0.9862 -1.72435 -4.7252 0
M  V30 52 H 0.6862 -3.48035 -4.7344 0
M  V30 53 H 2.2102 -2.83537 -5.40777 0
M  V30 54 H 3.6242 -4.3593 -3.72341 0
M  V30 55 H 2.0212 -5.01998 -3.28813 0
M  V30 56 H 3.0912 -4.41184 -2.01209 0
M  V30 57 N 4.4343 0.785586 -1.36625 0
M  V30 58 C 5.3973 1.87999 -1.31107 0
M  V30 59 C 6.3973 1.59316 -0.217959 0
M  V30 60 O 7.5873 1.67656 -0.472977 0
M  V30 61 C 4.7193 3.24861 -1.03334 0
M  V30 62 H 5.9123 1.94307 -2.2844 0
M  V30 63 H 3.4653 0.983813 -1.21453 0
M  V30 64 H 4.2003 3.24235 -0.0647432 0
M  V30 65 H 3.9853 3.4707 -1.82441 0
M  V30 66 H 5.4753 4.04929 -1.02088 0
M  V30 67 N 5.9124 1.20967 1.01018 0
M  V30 68 C 7.1584 1.02526 1.74975 0
M  V30 69 C 7.4914 -0.4408 1.89131 0
M  V30 70 O 6.7664 -1.32718 1.42184 0
M  V30 71 C 7.0494 1.71699 3.1653 0
M  V30 72 C 6.9024 3.25791 3.10129 0
M  V30 73 C 8.2214 1.45531 4.15342 0
M  V30 74 H 5.3404 0.373863 0.635134 0
M  V30 75 H 7.9824 1.49071 1.17805 0
M  V30 76 H 6.1324 1.32128 3.65341 0
M  V30 77 H 7.8044 3.74697 2.69072 0
M  V30 78 H 6.0474 3.56363 2.47362 0
M  V30 79 H 6.7184 3.69353 4.10222 0
M  V30 80 H 9.1944 1.79872 3.75213 0
M  V30 81 H 8.0704 1.96453 5.1254 0
M  V30 82 H 8.3314 0.384237 4.40427 0
M  V30 83 N 7.3905 -1.2043 1.01659 0
M  V30 84 C 8.3205 -2.25466 0.607226 0
M  V30 85 C 9.3015 -1.65853 -0.377716 0
M  V30 86 O 10.4865 -1.92409 -0.263149 0
M  V30 87 C 7.6165 -3.47256 -0.0552949 0
M  V30 88 C 6.5705 -4.19462 0.850632 0
M  V30 89 C 5.8965 -5.34673 0.0538859 0
M  V30 90 C 7.1965 -4.75603 2.15868 0
M  V30 91 H 8.8905 -2.59962 1.48526 0
M  V30 92 H 6.4365 -1.2496 0.715605 0
M  V30 93 H 8.3895 -4.19917 -0.353233 0
M  V30 94 H 7.1135 -3.11924 -0.968045 0
M  V30 95 H 5.7725 -3.48667 1.13257 0
M  V30 96 H 5.4205 -4.95585 -0.860514 0
M  V30 97 H 5.1205 -5.83913 0.657192 0
M  V30 98 H 6.6445 -6.10138 -0.237598 0
M  V30 99 H 8.0585 -5.40083 1.92311 0
M  V30 100 H 6.4555 -5.3528 2.71284 0
M  V30 101 H 7.5255 -3.94346 2.82169 0
M  V30 102 N 8.8686 -0.792821 -1.36206 0
M  V30 103 C 10.0986 -0.378275 -2.03107 0
M  V30 104 C 10.5066 1.01119 -1.59911 0
M  V30 105 O 9.8496 1.66052 -0.785658 0
M  V30 106 C 9.9116 -0.366535 -3.57627 0
M  V30 107 C 9.5756 -1.70416 -4.24037 0
M  V30 108 C 10.5726 -2.6602 -4.46687 0
M  V30 109 C 8.2576 -1.98439 -4.6144 0
M  V30 110 C 10.2516 -3.8784 -5.05825 0
M  V30 111 C 7.9386 -3.20525 -5.20295 0
M  V30 112 C 8.9366 -4.15044 -5.42427 0
M  V30 113 O 8.6246 -5.34978 -6.00045 0
M  V30 114 H 8.3566 -0.153543 -0.658332 0
M  V30 115 H 10.9106 -1.07383 -1.75094 0
M  V30 116 H 9.1406 0.385539 -3.84773 0
M  V30 117 H 10.8296 0.0238088 -4.05893 0
M  V30 118 H 11.5956 -2.45658 -4.18183 0
M  V30 119 H 7.4746 -1.25686 -4.43536 0
M  V30 120 H 11.0186 -4.61628 -5.23015 0
M  V30 121 H 6.9156 -3.40764 -5.48225 0
M  V30 122 H 7.6836 -5.36088 -6.18508 0
M  V30 123 N 10.3467 1.47872 -0.545128 0
M  V30 124 C 11.5867 2.04391 -0.0187854 0
M  V30 125 C 11.9507 1.41162 1.30144 0
M  V30 126 O 13.1517 1.88656 1.91474 0
M  V30 127 C 11.4227 3.57299 0.0850867 0
M  V30 128 S 12.9817 4.35221 0.559302 0
M  V30 129 H 9.7997 0.710737 -0.0193301 0
M  V30 130 H 12.4017 1.81395 -0.729125 0
M  V30 131 H 11.1057 4.00847 -0.880351 0
M  V30 132 H 10.6367 3.84773 0.819348 0
M  V30 133 H 12.6517 4.61571 1.82118 0
M  V30 134 N 11.8248 0.280983 1.55075 0
M  V30 135 C 12.7548 -0.597469 2.25727 0
M  V30 136 C 13.7358 -1.15417 1.24952 0
M  V30 137 O 14.9208 -1.18722 1.53684 0
M  V30 138 C 12.0508 -1.7789 2.98283 0
M  V30 139 C 11.0048 -1.35347 4.06036 0
M  V30 140 C 10.3308 -2.61846 4.66198 0
M  V30 141 C 11.6308 -0.499354 5.19907 0
M  V30 142 H 13.3248 -0.00824265 2.99399 0
M  V30 143 H 10.8708 -0.0025244 1.44 0
M  V30 144 H 12.8238 -2.39937 3.46422 0
M  V30 145 H 11.5478 -2.39405 2.22155 0
M  V30 146 H 10.2068 -0.756156 3.58717 0
M  V30 147 H 9.8548 -3.21632 3.86732 0
M  V30 148 H 9.5548 -2.3409 5.38958 0
M  V30 149 H 11.0788 -3.24732 5.1709 0
M  V30 150 H 12.4928 -1.02498 5.64063 0
M  V30 151 H 10.8898 -0.316424 5.99265 0
M  V30 152 H 11.9598 0.480459 4.82514 0
M  V30 153 N 13.3029 -1.57598 0.00835791 0
M  V30 154 C 14.2329 -2.1198 -0.979113 0
M  V30 155 C 15.2139 -1.03091 -1.35301 0
M  V30 156 O 16.3989 -1.30818 -1.43528 0
M  V30 157 C 13.5289 -2.62995 -2.26828 0
M  V30 158 C 12.4829 -3.76485 -2.03576 0
M  V30 159 C 11.8089 -4.13846 -3.38579 0
M  V30 160 C 13.1089 -5.0342 -1.39161 0
M  V30 161 H 14.8029 -2.94738 -0.526281 0
M  V30 162 H 12.3489 -1.41783 -0.251704 0
M  V30 163 H 14.3019 -2.99669 -2.96271 0
M  V30 164 H 13.0259 -1.7737 -2.7424 0
M  V30 165 H 11.6849 -3.40217 -1.36557 0
M  V30 166 H 11.3329 -3.25232 -3.83709 0
M  V30 167 H 11.0329 -4.90312 -3.23834 0
M  V30 168 H 12.5569 -4.53086 -4.09323 0
M  V30 169 H 13.9709 -5.37812 -1.98573 0
M  V30 170 H 12.3679 -5.84746 -1.34878 0
M  V30 171 H 13.4379 -4.83548 -0.361868 0
M  V30 172 N 14.781 0.264519 -1.55364 0
M  V30 173 C 16.027 0.992314 -1.77552 0
M  V30 174 C 16.382 1.83626 -0.574379 0
M  V30 175 O 15.675 1.86648 0.432782 0
M  V30 176 C 15.869 1.9004 -3.02687 0
M  V30 177 C 15.698 1.14583 -4.34857 0
M  V30 178 C 14.468 0.858068 -4.97961 0
M  V30 179 C 16.666 0.532069 -5.1154 0
M  V30 180 N 14.648 0.0775974 -6.13851 0
M  V30 181 C 16.019 -0.113823 -6.19896 0
M  V30 182 C 18.074 0.440763 -4.95945 0
M  V30 183 C 16.777 -0.842231 -7.14352 0
M  V30 184 C 18.803 -0.274072 -5.90765 0
M  V30 185 C 18.165 -0.90867 -6.98515 0
M  V30 186 H 14.264 0.344811 -0.701875 0
M  V30 187 H 16.848 0.267141 -1.92859 0
M  V30 188 H 15.019 2.59775 -2.88741 0
M  V30 189 H 16.751 2.56243 -3.13243 0
M  V30 190 H 13.506 1.16547 -4.59036 0
M  V30 191 H 13.93 -0.300216 -6.76334 0
M  V30 192 H 18.572 0.917064 -4.12735 0
M  V30 193 H 16.29 -1.33019 -7.97077 0
M  V30 194 H 19.876 -0.345151 -5.80775 0
M  V30 195 H 18.756 -1.45299 -7.70622 0
M  V30 196 N 16.2591 1.48442 0.529413 0
M  V30 197 C 17.4841 1.60406 1.31471 0
M  V30 198 C 17.9091 0.264738 1.86228 0
M  V30 199 O 17.2671 -0.763668 1.64432 0
M  V30 200 C 17.3151 2.65419 2.44101 0
M  V30 201 O 16.4191 2.22618 3.47153 0
M  V30 202 H 15.7601 0.537863 0.389357 0
M  V30 203 H 18.2901 1.94432 0.636965 0
M  V30 204 H 18.3001 2.86709 2.90279 0
M  V30 205 H 16.9751 3.62652 2.03608 0
M  V30 206 H 15.5521 2.11543 3.0709 0
M  V30 207 N 17.7372 -0.778329 1.37039 0
M  V30 208 C 18.9842 -1.53665 1.31884 0
M  V30 209 C 19.3122 -1.9425 -0.0986303 0
M  V30 210 O 18.5672 -1.63832 -1.07041 0
M  V30 211 C 18.8662 -2.81845 2.19768 0
M  V30 212 C 18.5322 -2.60345 3.68146 0
M  V30 213 C 17.1942 -2.5419 4.08584 0
M  V30 214 C 19.5462 -2.40923 4.62175 0
M  V30 215 C 16.8742 -2.26594 5.41177 0
M  V30 216 C 19.2262 -2.14852 5.94997 0
M  V30 217 C 17.8902 -2.07137 6.34547 0
M  V30 218 H 17.1602 -0.562299 0.482598 0
M  V30 219 H 19.8072 -0.897069 1.69189 0
M  V30 220 H 18.1122 -3.50328 1.75436 0
M  V30 221 H 19.8092 -3.39692 2.13097 0
M  V30 222 H 16.3992 -2.65996 3.36072 0
M  V30 223 H 20.5832 -2.44673 4.31797 0
M  V30 224 H 15.8392 -2.19111 5.70789 0
M  V30 225 H 20.0132 -1.98822 6.67415 0
M  V30 226 H 17.6402 -1.85518 7.37216 0
M  V30 227 N 19.2153 -1.21501 -1.00376 0
M  V30 228 C 20.1473 -0.933174 -2.09343 0
M  V30 229 C 21.1603 0.0840896 -1.62583 0
M  V30 230 O 22.3493 -0.148563 -1.77881 0
M  V30 231 C 19.4493 -0.379869 -3.36764 0
M  V30 232 C 18.6223 -1.45176 -4.12605 0
M  V30 233 C 17.6813 -0.907476 -5.18316 0
M  V30 234 O 16.7073 -1.5912 -5.46507 0
M  V30 235 N 17.9093 0.276649 -5.7984 0
M  V30 236 H 20.6743 -1.87124 -2.34104 0
M  V30 237 H 18.2353 -1.12043 -1.16867 0
M  V30 238 H 20.2273 -0.00131488 -4.047 0
M  V30 239 H 18.7973 0.463048 -3.09151 0
M  V30 240 H 18.0173 -2.00411 -3.39454 0
M  V30 241 H 19.3053 -2.17328 -4.6005 0
M  V30 242 H 18.7033 0.849147 -5.59291 0
M  V30 243 H 17.2603 0.596702 -6.49063 0
M  V30 244 N 20.6934 1.19889 -1.02296 0
M  V30 245 C 21.9214 1.9339 -0.735399 0
M  V30 246 C 22.3364 1.75148 0.704887 0
M  V30 247 O 21.6934 1.06954 1.47875 0
M  V30 248 C 21.7444 3.45313 -1.06962 0
M  V30 249 O 21.4654 3.62964 -2.45334 0
M  V30 250 C 22.9664 4.35948 -0.804021 0
M  V30 251 H 20.1864 0.61448 -0.269546 0
M  V30 252 H 22.7304 1.522 -1.36585 0
M  V30 253 H 20.8854 3.84359 -0.484455 0
M  V30 254 H 21.2994 4.56886 -2.57595 0
M  V30 255 H 22.7734 5.41174 -1.0879 0
M  V30 256 H 23.2504 4.3842 0.261691 0
M  V30 257 H 23.8564 4.02574 -1.37164 0
M  V30 258 N 22.1715 0.800033 1.35784 0
M  V30 259 C 23.3965 0.388511 2.03729 0
M  V30 260 C 23.8215 -0.990481 1.5991 0
M  V30 261 O 23.1795 -1.64013 0.772612 0
M  V30 262 C 23.2275 0.4726 3.5749 0
M  V30 263 O 22.3315 -0.51646 4.09153 0
M  V30 264 H 21.6725 0.163271 0.643614 0
M  V30 265 H 24.2025 1.0841 1.73518 0
M  V30 266 H 24.2125 0.34003 4.06581 0
M  V30 267 H 22.8875 1.47848 3.88734 0
M  V30 268 H 21.4645 -0.344673 3.71304 0
M  V30 269 N 23.6496 -1.47581 0.552962 0
M  V30 270 C 24.6126 -2.28439 -0.186605 0
M  V30 271 C 25.6126 -1.36706 -0.84665 0
M  V30 272 O 26.8026 -1.59378 -0.703164 0
M  V30 273 C 23.9346 -3.16264 -1.2724 0
M  V30 274 H 25.1276 -2.95294 0.523609 0
M  V30 275 H 22.6806 -1.532 0.309745 0
M  V30 276 H 23.4156 -2.54091 -2.01514 0
M  V30 277 H 23.2006 -3.83769 -0.803968 0
M  V30 278 H 24.6906 -3.77198 -1.79196 0
M  V30 279 N 25.1277 -0.289203 -1.54924 0
M  V30 280 C 26.3757 0.322879 -1.99504 0
M  V30 281 C 26.6967 1.55313 -1.1791 0
M  V30 282 O 25.9667 1.94001 -0.272097 0
M  V30 283 H 24.5467 0.122291 -0.736922 0
M  V30 284 H 27.2087 -0.397802 -1.90797 0
M  V30 285 H 26.3047 0.603061 -3.06218 0
M  V30 286 N 26.6058 1.57591 -0.0167156 0
M  V30 287 C 27.5558 2.05953 0.978137 0
M  V30 288 C 28.5398 0.957532 1.29306 0
M  V30 289 O 29.7318 1.22119 1.28125 0
M  V30 290 C 26.8608 2.58006 2.26468 0
M  V30 291 C 25.9468 3.75113 1.97867 0
M  V30 292 N 26.3378 4.86187 1.39486 0
M  V30 293 C 24.6358 3.83363 2.27924 0
M  V30 294 C 25.3368 5.67502 1.27735 0
M  V30 295 N 24.3128 5.14023 1.76866 0
M  V30 296 H 28.1148 2.89236 0.521522 0
M  V30 297 H 25.6288 1.61301 0.188596 0
M  V30 298 H 27.6258 2.90937 2.98599 0
M  V30 299 H 26.2858 1.76148 2.72767 0
M  V30 300 H 27.2968 5.06695 1.07147 0
M  V30 301 H 23.9738 3.1239 2.76982 0
M  V30 302 H 25.3638 6.66791 0.826978 0
M  V30 303 N 28.0839 -0.256276 1.55502 0
M  V30 304 C 29.3309 -0.985619 1.76895 0
M  V30 305 C 29.6589 -1.85671 0.579355 0
M  V30 306 O 28.9139 -1.90744 -0.437651 0
M  V30 307 C 29.2129 -1.88432 3.03691 0
M  V30 308 C 28.8789 -1.16936 4.35473 0
M  V30 309 C 27.5409 -0.97173 4.71286 0
M  V30 310 C 29.8929 -0.661889 5.1698 0
M  V30 311 C 27.2209 -0.254179 5.86149 0
M  V30 312 C 29.5729 0.042149 6.32586 0
M  V30 313 C 28.2369 0.25134 6.67027 0
M  V30 314 H 27.5069 -0.360663 0.647304 0
M  V30 315 H 30.1539 -0.256483 1.89775 0
M  V30 316 H 28.4589 -2.68021 2.85783 0
M  V30 317 H 30.1559 -2.45015 3.1744 0
M  V30 318 H 26.7459 -1.33332 4.07333 0
M  V30 319 H 30.9299 -0.802145 4.89775 0
M  V30 320 H 26.1859 -0.0815408 6.11346 0
M  V30 321 H 30.3599 0.443049 6.94989 0
M  V30 322 H 27.9869 0.809314 7.5588 0
M  V30 323 N 29.562 -1.4872 -0.521534 0
M  V30 324 C 30.973 -1.50607 -1.10337 0
M  V30 325 C 31.324 -0.280612 -1.94183 0
M  V30 326 O 30.449 0.611507 -2.0758 0
M  V30 327 C 31.044 -2.72903 -2.00772 0
M  V30 328 C 29.603 -2.77634 -2.54158 0
M  V30 329 C 28.75 -2.44241 -1.31307 0
M  V30 330 H 31.701 -1.55714 -0.306388 0
M  V30 331 H 31.722 -2.519 -2.85178 0
M  V30 332 H 31.234 -3.62077 -1.39721 0
M  V30 333 H 29.335 -1.92689 -3.18907 0
M  V30 334 H 29.448 -3.79283 -2.92714 0
M  V30 335 H 27.812 -1.95577 -1.63161 0
M  V30 336 H 28.595 -3.35666 -0.719943 0
M  V30 337 N 31.0401 0.771051 -1.3745 0
M  V30 338 C 32.4561 1.07171 -1.18265 0
M  V30 339 C 32.6561 2.01491 -0.019287 0
M  V30 340 O 31.7121 2.44244 0.640408 0
M  V30 341 C 33.0251 1.66854 -2.50161 0
M  V30 342 C 34.5731 1.79109 -2.56689 0
M  V30 343 C 35.0481 2.42205 -3.88717 0
M  V30 344 N 36.5391 2.49655 -3.90162 0
M  V30 345 C 37.2741 2.9933 -4.8907 0
M  V30 346 N 36.7701 3.49172 -5.98374 0
M  V30 347 N 38.5631 2.9821 -4.76474 0
M  V30 348 H 30.7141 0.144796 -2.11906 0
M  V30 349 H 32.9771 0.126863 -0.939473 0
M  V30 350 H 32.6831 1.05017 -3.35655 0
M  V30 351 H 32.5571 2.6614 -2.673 0
M  V30 352 H 34.9441 2.40077 -1.71601 0
M  V30 353 H 35.0251 0.785757 -2.43433 0
M  V30 354 H 34.6691 1.81875 -4.74219 0
M  V30 355 H 34.5991 3.43345 -3.99276 0
M  V30 356 H 37.0901 2.14383 -3.11205 0
M  V30 357 H 37.4031 3.8548 -6.69795 0
M  V30 358 H 35.7481 3.47275 -6.02018 0
M  V30 359 H 38.9391 2.58572 -3.90203 0
M  V30 360 H 39.1121 3.36613 -5.53711 0
M  V30 361 N 32.5182 1.22032 0.997298 0
M  V30 362 C 33.4812 0.987909 2.06816 0
M  V30 363 C 34.4812 -0.0440084 1.6074 0
M  V30 364 O 35.6712 0.194053 1.73116 0
M  V30 365 C 32.8032 0.49132 3.37341 0
M  V30 366 H 33.9962 1.93803 2.28868 0
M  V30 367 H 31.5492 1.03838 1.16822 0
M  V30 368 H 32.2842 -0.463364 3.20973 0
M  V30 369 H 32.0692 1.23575 3.72118 0
M  V30 370 H 33.5592 0.348824 4.16141 0
M  V30 371 N 33.9963 -1.19345 1.0293 0
M  V30 372 C 35.2363 -1.90738 0.734727 0
M  V30 373 C 35.6003 -1.7785 -0.723414 0
M  V30 374 O 36.8013 -2.43844 -1.13108 0
M  V30 375 C 35.0723 -3.37569 1.17396 0
M  V30 376 S 36.6313 -4.27176 1.00329 0
M  V30 377 H 33.4493 -0.658771 0.267474 0
M  V30 378 H 36.0513 -1.4428 1.31922 0
M  V30 379 H 34.7553 -3.44475 2.23081 0
M  V30 380 H 34.2863 -3.8906 0.582772 0
M  V30 381 H 36.3013 -4.96126 -0.0859152 0
M  V30 382 N 35.4744 -0.807222 -1.35358 0
M  V30 383 C 36.7204 -0.388463 -1.99045 0
M  V30 384 C 37.0534 1.04184 -1.63888 0
M  V30 385 O 36.3284 1.72292 -0.902535 0
M  V30 386 C 36.6114 -0.572783 -3.55515 0
M  V30 387 C 36.4644 -2.04807 -4.00468 0
M  V30 388 C 37.7834 0.00114064 -4.401 0
M  V30 389 H 34.9024 -0.142619 -0.723069 0
M  V30 390 H 37.5444 -1.01687 -1.60498 0
M  V30 391 H 35.6944 -0.0378425 -3.88482 0
M  V30 392 H 37.3664 -2.64544 -3.77908 0
M  V30 393 H 35.6094 -2.54427 -3.51353 0
M  V30 394 H 36.2804 -2.12792 -5.09337 0
M  V30 395 H 38.7564 -0.455716 -4.13597 0
M  V30 396 H 37.6324 -0.157737 -5.48673 0
M  V30 397 H 37.8934 1.09488 -4.28328 0
M  V30 398 N 36.9525 1.47285 -0.560781 0
M  V30 399 C 38.1775 2.07359 -0.0410566 0
M  V30 400 C 38.6025 1.41017 1.24483 0
M  V30 401 O 37.9605 0.486368 1.74654 0
M  V30 402 C 38.0085 3.6035 0.134123 0
M  V30 403 O 37.1125 3.94681 1.19587 0
M  V30 404 H 36.4535 0.661887 -0.0529291 0
M  V30 405 H 38.9835 1.89252 -0.777482 0
M  V30 406 H 38.9935 4.0652 0.347207 0
M  V30 407 H 37.6685 4.08034 -0.805047 0
M  V30 408 H 36.2455 3.60251 0.962987 0
M  V30 409 N 38.4306 0.297415 1.54768 0
M  V30 410 C 39.6556 -0.318435 2.04941 0
M  V30 411 C 40.0806 -1.4701 1.17345 0
M  V30 412 O 39.4386 -1.80436 0.176758 0
M  V30 413 C 39.4866 -0.755749 3.52592 0
M  V30 414 O 38.5906 -1.86088 3.68028 0
M  V30 415 H 37.9316 -0.062421 0.661059 0
M  V30 416 H 40.4616 0.438215 1.99852 0
M  V30 417 H 40.4716 -1.04552 3.94376 0
M  V30 418 H 39.1466 0.0867233 4.1581 0
M  V30 419 H 37.7236 -1.57193 3.38149 0
M  V30 420 N 39.9087 -1.5758 0.0250728 0
M  V30 421 C 40.8557 -2.09973 -0.958129 0
M  V30 422 C 41.8257 -1.00085 -1.3256 0
M  V30 423 O 43.0107 -1.27481 -1.41962 0
M  V30 424 C 40.1507 -2.62812 -2.2366 0
M  V30 425 C 39.2637 -3.86693 -1.92594 0
M  V30 426 C 38.3987 -4.27941 -3.14707 0
M  V30 427 C 37.4377 -5.44591 -2.79442 0
M  V30 428 N 36.5747 -5.81014 -3.94167 0
M  V30 429 H 41.4147 -2.937 -0.504428 0
M  V30 430 H 38.9517 -1.45172 -0.237392 0
M  V30 431 H 40.9097 -2.91536 -2.98434 0
M  V30 432 H 39.5397 -1.81922 -2.66654 0
M  V30 433 H 38.5917 -3.64723 -1.0808 0
M  V30 434 H 39.9037 -4.71547 -1.62619 0
M  V30 435 H 39.0577 -4.58079 -3.97804 0
M  V30 436 H 37.7967 -3.41845 -3.4784 0
M  V30 437 H 36.8017 -5.1415 -1.94755 0
M  V30 438 H 38.0267 -6.32382 -2.47528 0
M  V30 439 H 35.9727 -4.97874 -4.2715 0
M  V30 440 H 35.8897 -6.60498 -3.67801 0
M  V30 441 H 37.1577 -6.15756 -4.7798 0
M  V30 442 N 41.3868 0.248026 -1.55636 0
M  V30 443 C 42.3348 1.32683 -1.91045 0
M  V30 444 C 43.3288 1.49883 -0.789401 0
M  V30 445 O 44.5348 1.51371 -0.974007 0
M  V30 446 H 40.9098 0.444272 -0.606734 0
M  V30 447 H 42.8808 1.00085 -2.81115 0
M  V30 448 C 41.6298 2.6755 -2.22064 0
M  V30 449 H 40.9528 2.55114 -3.07826 0
M  V30 450 H 42.3928 3.41912 -2.50743 0
M  V30 451 C 40.8518 3.20556 -1.0366 0
M  V30 452 O 41.3818 4.00695 -0.284016 0
M  V30 453 N 39.5878 2.78568 -0.82753 0
M  V30 454 H 39.1348 2.1351 -1.44123 0
M  V30 455 H 39.0928 3.14378 -0.0369803 0
M  V30 456 N 42.8649 1.48995 0.513639 0
M  V30 457 C 43.7949 1.67636 1.62544 0
M  V30 458 C 44.7759 0.525087 1.61793 0
M  V30 459 O 45.9609 0.759502 1.78732 0
M  V30 460 C 43.0909 1.73114 3.01079 0
M  V30 461 C 42.0449 2.87905 3.16693 0
M  V30 462 C 41.3709 2.78486 4.56453 0
M  V30 463 C 42.6709 4.29005 2.97913 0
M  V30 464 H 44.3649 2.60716 1.47198 0
M  V30 465 H 41.9109 1.25465 0.706714 0
M  V30 466 H 43.8639 1.84742 3.78746 0
M  V30 467 H 42.5879 0.766241 3.17484 0
M  V30 468 H 41.2469 2.75859 2.41448 0
M  V30 469 H 40.8949 1.7993 4.69717 0
M  V30 470 H 40.5949 3.55523 4.67843 0
M  V30 471 H 42.1189 2.92104 5.36197 0
M  V30 472 H 43.5329 4.41798 3.65359 0
M  V30 473 H 41.9299 5.07166 3.20785 0
M  V30 474 H 42.9999 4.44329 1.94165 0
M  V30 475 N 44.343 -0.763751 1.37857 0
M  V30 476 C 45.276 -1.88486 1.28639 0
M  V30 477 C 46.254 -1.61757 0.165363 0
M  V30 478 O 47.438 -1.85391 0.340948 0
M  V30 479 C 44.565 -3.23884 0.990811 0
M  V30 480 C 43.611 -3.69514 2.12983 0
M  V30 481 S 44.444 -3.82244 3.75033 0
M  V30 482 C 45.6 -5.20477 3.47641 0
M  V30 483 H 45.833 -1.96017 2.23527 0
M  V30 484 H 43.366 -0.925684 1.23574 0
M  V30 485 H 45.324 -4.02081 0.827101 0
M  V30 486 H 43.985 -3.14044 0.0592832 0
M  V30 487 H 43.178 -4.67696 1.87821 0
M  V30 488 H 42.78 -2.98441 2.25408 0
M  V30 489 H 45.072 -6.05905 3.03125 0
M  V30 490 H 46.015 -5.50655 4.4518 0
M  V30 491 H 46.423 -4.88793 2.82385 0
M  V30 492 N 45.8211 -1.22559 -0.990812 0
M  V30 493 C 46.7311 -1.01394 -2.11557 0
M  V30 494 C 47.7471 0.0383962 -1.73958 0
M  V30 495 O 48.9231 -0.154787 -2.00804 0
M  V30 496 C 45.9881 -0.596569 -3.41529 0
M  V30 497 C 45.0491 -1.72276 -3.93217 0
M  V30 498 C 44.2821 -1.32521 -5.16985 0
M  V30 499 O 44.5051 -0.204909 -5.70032 0
M  V30 500 O 43.4391 -2.14247 -5.62478 0
M  V30 501 H 47.2651 -1.95633 -2.32296 0
M  V30 502 H 44.8501 -1.01172 -1.0993 0
M  V30 503 H 46.7321 -0.374263 -4.19735 0
M  V30 504 H 45.4071 0.316939 -3.22145 0
M  V30 505 H 44.3141 -1.99961 -3.16174 0
M  V30 506 H 45.6471 -2.61421 -4.17037 0
M  V30 507 N 47.2992 1.18797 -1.03562 0
M  V30 508 C 48.2462 2.22253 -0.622259 0
M  V30 509 C 49.2162 1.61987 0.36736 0
M  V30 510 O 50.4012 1.88986 0.262492 0
M  V30 511 C 47.5412 3.45097 0.0138462 0
M  V30 512 C 46.6542 4.19722 -1.02263 0
M  V30 513 C 45.7892 5.30009 -0.355573 0
M  V30 514 C 44.8282 5.96399 -1.37749 0
M  V30 515 N 43.9652 6.98234 -0.735766 0
M  V30 516 H 48.8052 2.56968 -1.50903 0
M  V30 517 H 46.3422 1.26245 -0.755017 0
M  V30 518 H 48.3002 4.15279 0.399948 0
M  V30 519 H 46.9302 3.11018 0.864158 0
M  V30 520 H 45.9822 3.48418 -1.52673 0
M  V30 521 H 47.2942 4.65227 -1.79903 0
M  V30 522 H 46.4482 6.0664 0.0850095 0
M  V30 523 H 45.1872 4.85592 0.452967 0
M  V30 524 H 44.1922 5.18512 -1.82826 0
M  V30 525 H 45.4172 6.42899 -2.18764 0
M  V30 526 H 43.3632 6.55979 0.0525597 0
M  V30 527 H 43.2802 7.41965 -1.44995 0
M  V30 528 H 44.5482 7.78845 -0.31941 0
M  V30 529 N 48.7773 0.814389 1.34928 0
M  V30 530 C 49.6873 0.231978 2.3345 0
M  V30 531 C 50.7033 -0.629139 1.62228 0
M  V30 532 O 51.8793 -0.539052 1.94052 0
M  V30 533 C 48.9443 -0.603482 3.41407 0
M  V30 534 C 48.0053 0.279037 4.28392 0
M  V30 535 C 47.2383 -0.516643 5.31193 0
M  V30 536 O 47.4613 -1.75068 5.4287 0
M  V30 537 O 46.3953 0.0965652 6.01823 0
M  V30 538 H 50.2213 1.04721 2.85074 0
M  V30 539 H 47.8063 0.576343 1.37836 0
M  V30 540 H 49.6883 -1.07908 4.0735 0
M  V30 541 H 48.3633 -1.39618 2.92042 0
M  V30 542 H 47.2703 0.801948 3.65403 0
M  V30 543 H 48.6033 1.03588 4.81176 0
M  V30 544 N 50.2554 -1.46986 0.568584 0
M  V30 545 C 51.4954 -2.04336 0.0512999 0
M  V30 546 C 51.8594 -1.43214 -1.27881 0
M  V30 547 O 53.0604 -1.91679 -1.88448 0
M  V30 548 C 51.3314 -3.57389 -0.0282328 0
M  V30 549 S 52.8904 -4.36056 -0.489991 0
M  V30 550 H 49.7084 -0.71034 0.0306349 0
M  V30 551 H 52.3104 -1.80212 0.757891 0
M  V30 552 H 51.0144 -3.99395 0.944011 0
M  V30 553 H 50.5454 -3.86028 -0.75803 0
M  V30 554 H 52.5604 -4.6441 -1.74752 0
M  V30 555 N 51.7335 -0.305618 -1.54608 0
M  V30 556 C 52.9735 0.303114 -2.0214 0
M  V30 557 C 53.3375 1.50737 -1.18921 0
M  V30 558 O 54.5385 2.18778 -1.56172 0
M  V30 559 C 52.8095 0.646332 -3.51507 0
M  V30 560 S 54.3685 1.23727 -4.20995 0
M  V30 561 H 51.1865 0.0927643 -0.704923 0
M  V30 562 H 53.7885 -0.434566 -1.90609 0
M  V30 563 H 52.4925 -0.238541 -4.09706 0
M  V30 564 H 52.0235 1.41468 -3.67084 0
M  V30 565 H 54.0385 2.52489 -4.27158 0
M  V30 566 N 53.2116 1.57565 -0.0334293 0
M  V30 567 C 54.6226 1.79746 0.504798 0
M  V30 568 C 54.9736 0.944091 1.71992 0
M  V30 569 O 54.0986 0.155694 2.15839 0
M  V30 570 C 54.6936 3.25997 0.922567 0
M  V30 571 C 53.2526 3.49159 1.40588 0
M  V30 572 C 52.3996 2.74785 0.372633 0
M  V30 573 H 55.3506 1.56565 -0.259436 0
M  V30 574 H 55.3716 3.35945 1.78666 0
M  V30 575 H 54.8836 3.88081 0.0379825 0
M  V30 576 H 52.9846 2.92332 2.31025 0
M  V30 577 H 53.0976 4.57873 1.41028 0
M  V30 578 H 51.4616 2.40391 0.841672 0
M  V30 579 H 52.2446 3.39587 -0.503559 0
M  V30 580 N 54.6897 -0.239769 1.55765 0
M  V30 581 C 56.1007 -0.808263 1.68297 0
M  V30 582 C 56.4517 -1.85736 0.632181 0
M  V30 583 O 55.5767 -2.15277 -0.220204 0
M  V30 584 C 56.1717 -1.47284 3.05111 0
M  V30 585 C 54.7307 -1.98895 3.19559 0
M  V30 586 C 53.8777 -0.842575 2.64189 0
M  V30 587 H 56.8287 -0.0154422 1.58692 0
M  V30 588 H 56.8497 -2.34111 2.99954 0
M  V30 589 H 56.3617 -0.709053 3.81568 0
M  V30 590 H 54.4627 -2.78132 2.47938 0
M  V30 591 H 54.5757 -2.18143 4.26556 0
M  V30 592 H 52.9397 -1.24501 2.22197 0
M  V30 593 H 53.7227 -0.0917552 3.43177 0
M  V30 594 N 56.1678 -1.49265 -0.50573 0
M  V30 595 C 57.4138 -1.59723 -1.25937 0
M  V30 596 C 57.7688 -0.278236 -1.90378 0
M  V30 597 O 57.0618 0.72113 -1.77511 0
M  V30 598 C 57.2558 -2.69008 -2.35308 0
M  V30 599 C 57.0848 -4.11405 -1.81592 0
M  V30 600 C 55.8548 -4.78252 -1.63105 0
M  V30 601 C 58.0528 -4.96792 -1.33048 0
M  V30 602 N 56.0348 -6.0498 -1.04269 0
M  V30 603 C 57.4058 -6.13962 -0.863168 0
M  V30 604 C 59.4608 -4.82828 -1.21577 0
M  V30 605 C 58.1638 -7.18705 -0.292489 0
M  V30 606 C 60.1898 -5.87716 -0.65907 0
M  V30 607 C 59.5518 -7.0411 -0.201954 0
M  V30 608 H 55.6508 -0.638864 -0.450973 0
M  V30 609 H 58.2348 -1.86251 -0.567326 0
M  V30 610 H 56.4058 -2.4426 -3.01979 0
M  V30 611 H 58.1378 -2.69013 -3.02348 0
M  V30 612 H 54.8928 -4.34974 -1.87336 0
M  V30 613 H 55.3168 -6.72631 -0.767919 0
M  V30 614 H 59.9588 -3.93159 -1.55518 0
M  V30 615 H 57.6768 -8.08078 0.0591987 0
M  V30 616 H 61.2628 -5.7897 -0.573156 0
M  V30 617 H 60.1428 -7.83885 0.222101 0
M  V30 618 N 57.6459 0.756429 -1.3826 0
M  V30 619 C 58.8709 1.55077 -1.37717 0
M  V30 620 C 59.2959 1.88073 0.03164 0
M  V30 621 O 58.6539 1.50364 1.01293 0
M  V30 622 C 58.7019 2.8283 -2.23695 0
M  V30 623 O 57.8059 3.77862 -1.6521 0
M  V30 624 H 57.1469 0.469152 -0.469885 0
M  V30 625 H 59.6769 0.935019 -1.81985 0
M  V30 626 H 59.6869 3.31783 -2.37453 0
M  V30 627 H 58.3619 2.58144 -3.2609 0
M  V30 628 H 56.9389 3.36555 -1.60578 0
M  V30 629 N 59.124 1.23083 0.984299 0
M  V30 630 C 60.372 1.05848 1.72165 0
M  V30 631 C 60.693 -0.406049 1.90726 0
M  V30 632 O 59.963 -1.29139 1.47309 0
M  V30 633 H 58.543 0.388685 0.637913 0
M  V30 634 H 61.205 1.54736 1.18503 0
M  V30 635 H 60.301 1.54327 2.71274 0
M  V30 636 N 60.6021 -1.18246 1.0419 0
M  V30 637 C 61.8791 -1.84121 0.660208 0
M  V30 638 C 62.2591 -1.92778 -0.860221 0
M  V30 639 O 61.6071 -1.45464 -1.76217 0
M  V30 640 C 61.8171 -3.22355 1.33747 0
M  V30 641 C 63.1651 -3.98376 1.46906 0
M  V30 642 O 64.1891 -3.31799 1.29568 0
M  V30 643 O 63.0481 -5.17665 1.75171 0
M  V30 644 H 60.1421 -0.794036 0.231161 0
M  V30 645 H 62.6881 -1.25628 1.14087 0
M  V30 646 H 61.4601 -3.10964 2.37522 0
M  V30 647 H 61.0831 -3.88506 0.845515 0
M  V30 648 N 62.0802 -0.821533 -1.34494 0
M  V30 649 C 63.4962 -0.507117 -1.51329 0
M  V30 650 C 63.6962 0.968964 -1.76673 0
M  V30 651 O 62.7522 1.75348 -1.81685 0
M  V30 652 C 64.0652 -1.36544 -2.67911 0
M  V30 653 C 65.6132 -1.36242 -2.81793 0
M  V30 654 C 66.0882 -2.2052 -4.01416 0
M  V30 655 N 67.5792 -2.18136 -4.08621 0
M  V30 656 C 68.3142 -2.80095 -5.00334 0
M  V30 657 N 67.8102 -3.51039 -5.9728 0
M  V30 658 N 69.6032 -2.69656 -4.93196 0
M  V30 659 H 61.7542 -1.77729 -1.16302 0
M  V30 660 H 64.0172 -0.757291 -0.570276 0
M  V30 661 H 63.7232 -2.41361 -2.55808 0
M  V30 662 H 63.5972 -1.02917 -3.62888 0
M  V30 663 H 65.9842 -0.322041 -2.93338 0
M  V30 664 H 66.0652 -1.73866 -1.87628 0
M  V30 665 H 65.7092 -3.24607 -3.90631 0
M  V30 666 H 65.6392 -1.80247 -4.94791 0
M  V30 667 H 68.1302 -1.6653 -3.39229 0
M  V30 668 H 68.4432 -3.95565 -6.63889 0
M  V30 669 H 66.7882 -3.55145 -5.97409 0
M  V30 670 H 69.9792 -2.13808 -4.16418 0
M  V30 671 H 70.1522 -3.1823 -5.64476 0
M  V30 672 N 63.5583 1.46682 -0.576371 0
M  V30 673 C 64.7833 2.07304 -0.0630475 0
M  V30 674 C 65.2083 1.42329 1.2298 0
M  V30 675 O 64.5663 0.504865 1.74129 0
M  V30 676 C 64.6143 3.60472 0.095895 0
M  V30 677 O 63.7183 3.95927 1.15394 0
M  V30 678 H 63.0593 0.661288 -0.0599463 0
M  V30 679 H 65.5893 1.88417 -0.797511 0
M  V30 680 H 65.5993 4.06865 0.304071 0
M  V30 681 H 64.2743 4.07157 -0.84828 0
M  V30 682 H 62.8513 3.61252 0.924724 0
M  V30 683 N 65.0364 0.313813 1.54444 0
M  V30 684 C 66.4474 -0.176243 1.85866 0
M  V30 685 C 66.7984 -1.52405 1.23561 0
M  V30 686 O 65.9234 -2.09605 0.538016 0
M  V30 687 C 66.5184 -0.32657 3.37222 0
M  V30 688 C 65.0774 -0.760846 3.6863 0
M  V30 689 C 64.2244 0.123247 2.77026 0
M  V30 690 H 67.1754 0.534418 1.49431 0
M  V30 691 H 67.1964 -1.15908 3.62416 0
M  V30 692 H 66.7084 0.654531 3.82541 0
M  V30 693 H 64.8094 -1.75204 3.28838 0
M  V30 694 H 64.9224 -0.571353 4.75681 0
M  V30 695 H 63.2864 -0.399597 2.51546 0
M  V30 696 H 64.0694 1.10094 3.25168 0
M  V30 697 N 66.5145 -1.57545 0.0417849 0
M  V30 698 C 67.7545 -1.94185 -0.63809 0
M  V30 699 C 68.1185 -0.919339 -1.68559 0
M  V30 700 O 69.3195 -1.17236 -2.41886 0
M  V30 701 C 67.5905 -3.35672 -1.22714 0
M  V30 702 S 69.1495 -3.94256 -1.92633 0
M  V30 703 H 65.9675 -0.679353 -0.209764 0
M  V30 704 H 68.5695 -1.95199 0.108479 0
M  V30 705 H 67.2735 -4.07898 -0.452503 0
M  V30 706 H 66.8045 -3.38132 -2.01073 0
M  V30 707 H 68.8195 -3.7872 -3.20602 0
M  V30 708 N 67.9926 0.231505 -1.5589 0
M  V30 709 C 69.2406 0.955461 -1.78088 0
M  V30 710 C 69.5616 1.85262 -0.608533 0
M  V30 711 O 68.8316 1.92277 0.375035 0
M  V30 712 H 67.4116 0.355787 -0.656829 0
M  V30 713 H 70.0736 0.245751 -1.93344 0
M  V30 714 H 69.1696 1.56814 -2.69844 0
M  V30 715 N 69.4707 1.49531 0.497807 0
M  V30 716 C 70.4027 1.62559 1.61578 0
M  V30 717 C 71.4157 0.508134 1.54667 0
M  V30 718 O 72.6047 0.780309 1.60541 0
M  V30 719 C 69.7047 1.56925 3.00379 0
M  V30 720 C 68.8777 2.84257 3.3244 0
M  V30 721 C 67.9367 2.71632 4.50669 0
M  V30 722 O 66.9627 3.4557 4.52294 0
M  V30 723 N 68.1647 1.83391 5.5077 0
M  V30 724 H 70.9297 2.58981 1.50828 0
M  V30 725 H 68.4907 1.4666 0.685743 0
M  V30 726 H 70.4827 1.46129 3.77397 0
M  V30 727 H 69.0527 0.683483 3.05037 0
M  V30 728 H 68.2727 3.09381 2.44289 0
M  V30 729 H 69.5607 3.68666 3.5066 0
M  V30 730 H 68.9587 1.22583 5.52259 0
M  V30 731 H 67.5157 1.78515 6.26878 0
M  V30 732 N 70.9488 -0.749086 1.3866 0
M  V30 733 C 71.8788 -1.8764 1.38973 0
M  V30 734 C 72.8598 -1.68178 0.255004 0
M  V30 735 O 74.0448 -1.88704 0.458754 0
M  V30 736 C 71.1748 -3.25222 1.21851 0
M  V30 737 C 70.1288 -3.59295 2.32575 0
M  V30 738 C 69.4548 -4.95663 2.00555 0
M  V30 739 C 70.7548 -3.63709 3.7485 0
M  V30 740 H 72.4488 -1.87635 2.3331 0
M  V30 741 H 69.9948 -0.901329 1.12303 0
M  V30 742 H 71.9478 -4.03746 1.20695 0
M  V30 743 H 70.6718 -3.25719 0.239775 0
M  V30 744 H 69.3308 -2.83093 2.32925 0
M  V30 745 H 68.9788 -4.92724 1.01154 0
M  V30 746 H 68.6788 -5.19429 2.74714 0
M  V30 747 H 70.2028 -5.7656 2.01024 0
M  V30 748 H 71.6168 -4.32338 3.76506 0
M  V30 749 H 70.0138 -3.98986 4.48252 0
M  V30 750 H 71.0838 -2.63834 4.06841 0
M  V30 751 N 72.4269 -1.23603 -0.977757 0
M  V30 752 C 73.6519 -1.09735 -1.75991 0
M  V30 753 C 74.0769 0.346858 -1.84874 0
M  V30 754 O 73.4349 1.25093 -1.3123 0
M  V30 755 C 73.4829 -1.73051 -3.16363 0
M  V30 756 O 72.5869 -0.994452 -4.0023 0
M  V30 757 H 71.9279 -0.384476 -0.541364 0
M  V30 758 H 74.4579 -1.6371 -1.2272 0
M  V30 759 H 74.4679 -1.78398 -3.66931 0
M  V30 760 H 73.1429 -2.78137 -3.09213 0
M  V30 761 H 71.7199 -1.01812 -3.58732 0
M  V30 762 N 73.905 1.17692 -1.04816 0
M  V30 763 C 75.153 1.87488 -0.754497 0
M  V30 764 C 75.474 1.81205 0.720407 0
M  V30 765 O 74.744 1.23544 1.52032 0
M  V30 766 H 73.324 0.694101 -0.276102 0
M  V30 767 H 75.986 1.42793 -1.32651 0
M  V30 768 H 75.082 2.93328 -1.06606 0
M  V30 769 N 75.3831 0.828654 1.34056 0
M  V30 770 C 76.7991 0.515135 1.51058 0
M  V30 771 C 76.9991 -0.959581 1.77184 0
M  V30 772 O 76.0551 -1.74382 1.82612 0
M  V30 773 C 77.3681 1.37963 2.67183 0
M  V30 774 C 78.9161 1.37735 2.81066 0
M  V30 775 C 79.3911 2.22645 4.00241 0
M  V30 776 N 80.8821 2.203 4.07458 0
M  V30 777 C 81.6171 2.82744 4.98842 0
M  V30 778 N 81.1131 3.54201 5.9541 0
M  V30 779 N 82.9061 2.72268 4.91759 0
M  V30 780 H 75.0571 1.78343 1.15358 0
M  V30 781 H 77.3201 0.760304 0.566252 0
M  V30 782 H 77.0261 2.42714 2.54525 0
M  V30 783 H 76.9001 1.0484 3.62338 0
M  V30 784 H 79.2871 0.337593 2.93163 0
M  V30 785 H 79.3681 1.74859 1.86703 0
M  V30 786 H 79.0121 3.26674 3.88905 0
M  V30 787 H 78.9421 1.82869 4.93829 0
M  V30 788 H 81.4331 1.68327 3.38341 0
M  V30 789 H 81.7461 3.9908 6.61782 0
M  V30 790 H 80.0911 3.58308 5.95517 0
M  V30 791 H 83.2821 2.16014 4.15278 0
M  V30 792 H 83.4551 3.21219 5.62781 0
M  V30 793 N 76.8612 -1.46375 0.584142 0
M  V30 794 C 78.1092 -2.01978 0.0701287 0
M  V30 795 C 78.4302 -1.4579 -1.295 0
M  V30 796 O 77.7002 -0.64314 -1.85042 0
M  V30 797 H 76.2802 -0.746648 0.0229345 0
M  V30 798 H 78.9422 -1.79461 0.760245 0
M  V30 799 H 78.0382 -3.121 0.0022064 0
M  V30 800 N 78.3393 -0.321999 -1.54275 0
M  V30 801 C 79.5643 0.285791 -2.05422 0
M  V30 802 C 79.9893 1.45124 -1.19669 0
M  V30 803 O 79.3473 1.80132 -0.205441 0
M  V30 804 C 79.3953 0.69956 -3.53749 0
M  V30 805 O 78.4993 1.8021 -3.70942 0
M  V30 806 H 77.8403 0.0518962 -0.661969 0
M  V30 807 H 80.3703 -0.469954 -1.9913 0
M  V30 808 H 80.3803 0.982649 -3.9599 0
M  V30 809 H 79.0553 -0.152864 -4.15619 0
M  V30 810 H 77.6323 1.51794 -3.40607 0
M  V30 811 N 79.8174 1.5752 -0.0501392 0
M  V30 812 C 81.0574 1.94521 0.627783 0
M  V30 813 C 81.4214 0.928265 1.68069 0
M  V30 814 O 82.6224 1.18517 2.41261 0
M  V30 815 C 80.8934 3.36319 1.20932 0
M  V30 816 S 82.4524 3.95272 1.90539 0
M  V30 817 H 79.2704 0.680456 0.206158 0
M  V30 818 H 81.8724 1.95139 -0.118829 0
M  V30 819 H 80.5764 4.08132 0.430865 0
M  V30 820 H 80.1074 3.39193 1.99277 0
M  V30 821 H 82.1224 3.80415 3.18589 0
M  V30 822 N 81.2955 -0.223234 1.56011 0
M  V30 823 C 82.2275 -1.30006 1.88762 0
M  V30 824 C 83.2405 -1.43129 0.775746 0
M  V30 825 O 84.4295 -1.44057 1.05403 0
M  V30 826 C 81.5295 -2.67589 2.07965 0
M  V30 827 C 80.7025 -2.76434 3.38973 0
M  V30 828 C 79.7615 -3.95019 3.47629 0
M  V30 829 O 78.7875 -3.83436 4.20672 0
M  V30 830 N 79.9895 -5.09249 2.78649 0
M  V30 831 H 82.7545 -1.02238 2.81722 0
M  V30 832 H 80.3155 -0.413278 1.56536 0
M  V30 833 H 82.3075 -3.45297 2.11073 0
M  V30 834 H 80.8775 -2.87964 1.21638 0
M  V30 835 H 80.0975 -1.85216 3.47978 0
M  V30 836 H 81.3855 -2.79313 4.25278 0
M  V30 837 H 80.7835 -5.21556 2.19081 0
M  V30 838 H 79.3405 -5.85007 2.8742 0
M  V30 839 N 82.7736 -1.49793 -0.48987 0
M  V30 840 C 83.7216 -1.67783 -1.61095 0
M  V30 841 C 84.7156 -0.543683 -1.60438 0
M  V30 842 O 85.9216 -0.723647 -1.64813 0
M  V30 843 H 82.2966 -0.529255 -0.534222 0
M  V30 844 H 84.2676 -2.61861 -1.43078 0
M  V30 845 C 83.0166 -1.77191 -2.99164 0
M  V30 846 H 82.3396 -2.63841 -3.0038 0
M  V30 847 H 83.7796 -1.93809 -3.77113 0
M  V30 848 C 82.2386 -0.519203 -3.32875 0
M  V30 849 O 82.7686 0.350124 -4.00171 0
M  V30 850 N 80.9746 -0.378816 -2.8812 0
M  V30 851 H 80.5216 -1.08725 -2.33531 0
M  V30 852 H 80.4796 0.458239 -3.11043 0
M  V30 853 N 84.2517 0.741722 -1.39055 0
M  V30 854 C 85.5007 1.49656 -1.35225 0
M  V30 855 C 85.8137 1.95533 0.0512708 0
M  V30 856 O 87.0197 2.7067 0.212138 0
M  V30 857 C 85.4757 2.70389 -2.37525 0
M  V30 858 C 85.0837 2.31489 -3.83558 0
M  V30 859 C 86.8277 3.48236 -2.42759 0
M  V30 860 C 84.7347 3.48903 -4.77515 0
M  V30 861 H 83.6647 0.56197 -0.502699 0
M  V30 862 H 86.3157 0.809727 -1.64668 0
M  V30 863 H 84.6977 3.41113 -2.01142 0
M  V30 864 H 85.8717 1.68354 -4.28945 0
M  V30 865 H 84.1867 1.66749 -3.81554 0
M  V30 866 H 86.7837 4.35558 -3.1015 0
M  V30 867 H 87.1267 3.90229 -1.45008 0
M  V30 868 H 87.6597 2.84535 -2.78002 0
M  V30 869 H 84.3987 3.11966 -5.76504 0
M  V30 870 H 83.9187 4.11041 -4.36813 0
M  V30 871 H 85.5977 4.15328 -4.96096 0
M  V30 872 N 85.7298 1.2412 0.971189 0
M  V30 873 C 86.6598 1.05508 2.08304 0
M  V30 874 C 87.6408 -0.0308864 1.70072 0
M  V30 875 O 88.8258 0.135521 1.93727 0
M  V30 876 C 85.9558 0.655365 3.4106 0
M  V30 877 C 84.9098 1.68971 3.93234 0
M  V30 878 C 84.2358 1.14516 5.22293 0
M  V30 879 C 85.5358 3.08487 4.21465 0
M  V30 880 H 87.2298 1.98507 2.24132 0
M  V30 881 H 84.7758 0.955821 1.07704 0
M  V30 882 H 86.7288 0.51217 4.18276 0
M  V30 883 H 85.4528 -0.31032 3.25122 0
M  V30 884 H 84.1118 1.82106 3.18171 0
M  V30 885 H 83.7598 0.170189 5.02712 0
M  V30 886 H 83.4598 1.83635 5.58168 0
M  V30 887 H 84.9838 1.01401 6.02121 0
M  V30 888 H 86.3978 2.98601 4.89398 0
M  V30 889 H 84.7948 3.74926 4.68562 0
M  V30 890 H 85.8648 3.56787 3.28376 0
M  V30 891 N 87.2079 -1.17134 1.05439 0
M  V30 892 C 88.1379 -2.2342 0.678649 0
M  V30 893 C 89.1189 -1.66971 -0.32476 0
M  V30 894 O 90.3039 -1.93149 -0.201802 0
M  V30 895 C 87.4339 -3.47256 0.0552099 0
M  V30 896 C 86.3879 -4.16543 0.98365 0
M  V30 897 C 85.7139 -5.34231 0.223961 0
M  V30 898 C 87.0139 -4.68495 2.3089 0
M  V30 899 H 88.7079 -2.55105 1.56722 0
M  V30 900 H 86.2539 -1.2262 0.754998 0
M  V30 901 H 88.2069 -4.20828 -0.21946 0
M  V30 902 H 86.9309 -3.14846 -0.868319 0
M  V30 903 H 85.5899 -3.44887 1.24293 0
M  V30 904 H 85.2379 -4.98071 -0.702412 0
M  V30 905 H 84.9379 -5.81527 0.842627 0
M  V30 906 H 86.4619 -6.10585 -0.0433671 0
M  V30 907 H 87.8759 -5.33691 2.09396 0
M  V30 908 H 86.2729 -5.26379 2.88176 0
M  V30 909 H 87.3429 -3.85169 2.94572 0
M  V30 910 N 88.686 -0.835752 -1.33615 0
M  V30 911 C 89.911 -0.442389 -2.02627 0
M  V30 912 C 90.336 0.947735 -1.62479 0
M  V30 913 O 89.694 1.61907 -0.815826 0
M  V30 914 C 89.742 -0.567216 -3.56111 0
M  V30 915 O 88.846 0.407799 -4.10379 0
M  V30 916 H 88.187 -0.180278 -0.639059 0
M  V30 917 H 90.717 -1.12972 -1.70583 0
M  V30 918 H 90.727 -0.447708 -4.05536 0
M  V30 919 H 89.402 -1.58103 -3.84677 0
M  V30 920 H 87.979 0.246107 -3.72087 0
M  V30 921 N 90.1641 1.46063 -0.591896 0
M  V30 922 C 91.1121 2.32124 0.148739 0
M  V30 923 C 92.1061 1.45035 0.875286 0
M  V30 924 O 93.3121 1.61609 0.792632 0
M  V30 925 H 89.6871 0.749024 0.066832 0
M  V30 926 H 91.6581 2.92392 -0.595783 0
M  V30 927 C 90.4071 3.28373 1.1431 0
M  V30 928 H 89.7301 3.95371 0.59346 0
M  V30 929 H 91.1701 3.91352 1.63155 0
M  V30 930 C 89.6291 2.54393 2.20875 0
M  V30 931 O 90.1591 2.31373 3.28374 0
M  V30 932 N 88.3651 2.14797 1.95731 0
M  V30 933 H 87.9121 2.33719 1.08319 0
M  V30 934 H 87.8701 1.65619 2.67241 0
M  V30 935 N 91.6422 0.330177 1.54103 0
M  V30 936 C 92.6052 -0.520144 2.2322 0
M  V30 937 C 93.6052 -1.03828 1.22786 0
M  V30 938 O 94.7952 -0.929652 1.4732 0
M  V30 939 C 91.9272 -1.72317 2.94142 0
M  V30 940 H 93.1202 0.0841605 2.99782 0
M  V30 941 H 90.6732 0.0813433 1.56088 0
M  V30 942 H 91.4082 -2.36653 2.21734 0
M  V30 943 H 91.1932 -1.35898 3.67796 0
M  V30 944 H 92.6832 -2.3266 3.46784 0
M  V30 945 N 93.1203 -1.57491 0.0584922 0
M  V30 946 C 94.5313 -1.80526 -0.476138 0
M  V30 947 C 94.8823 -0.971334 -1.70469 0
M  V30 948 O 94.0073 -0.190012 -2.15564 0
M  V30 949 C 94.6023 -3.27424 -0.870587 0
M  V30 950 C 93.1613 -3.51351 -1.35015 0
M  V30 951 C 92.3083 -2.75343 -0.32887 0
M  V30 952 H 95.2593 -1.56133 0.284312 0
M  V30 953 H 95.2803 -3.38745 -1.73299 0
M  V30 954 H 94.7923 -3.88093 0.0237627 0
M  V30 955 H 92.8933 -2.95971 -2.26345 0
M  V30 956 H 93.0063 -4.60059 -1.33726 0
M  V30 957 H 91.3703 -2.417 -0.803321 0
M  V30 958 H 92.1533 -3.38743 0.557521 0
M  V30 959 N 94.5984 0.214957 -1.56127 0
M  V30 960 C 95.5284 1.2695 -1.95974 0
M  V30 961 C 96.5094 1.48539 -0.828868 0
M  V30 962 O 97.6944 1.60611 -1.09168 0
M  V30 963 C 94.8244 2.61794 -2.28214 0
M  V30 964 C 93.7784 2.54851 -3.43853 0
M  V30 965 C 93.1044 3.93785 -3.61715 0
M  V30 966 C 94.4044 2.09065 -4.78632 0
M  V30 967 H 96.0984 0.93846 -2.84312 0
M  V30 968 H 93.6444 0.449996 -1.36788 0
M  V30 969 H 95.5974 3.35731 -2.54682 0
M  V30 970 H 94.3214 2.96599 -1.36736 0
M  V30 971 H 92.9804 1.8337 -3.17444 0
M  V30 972 H 92.6284 4.25908 -2.67602 0
M  V30 973 H 92.3284 3.90019 -4.39498 0
M  V30 974 H 93.8524 4.69374 -3.90539 0
M  V30 975 H 95.2664 2.7275 -5.04262 0
M  V30 976 H 93.6634 2.16346 -5.59745 0
M  V30 977 H 94.7334 1.04315 -4.73547 0
M  V30 978 N 96.0765 1.50051 0.48192 0
M  V30 979 C 97.3245 1.60181 1.23234 0
M  V30 980 C 97.6455 0.299176 1.92691 0
M  V30 981 O 96.9155 -0.682708 1.83619 0
M  V30 982 H 95.4955 0.590232 0.457859 0
M  V30 983 H 98.1575 1.86775 0.556881 0
M  V30 984 H 97.2535 2.40753 1.98607 0
M  V30 985 N 97.5546 -0.734337 1.39446 0
M  V30 986 C 98.9656 -1.31264 1.32766 0
M  V30 987 C 99.3166 -1.96198 -0.00767497 0
M  V30 988 O 98.4416 -1.96346 -0.909796 0
M  V30 989 C 99.0366 -2.38682 2.4045 0
M  V30 990 C 97.5956 -2.92184 2.37288 0
M  V30 991 C 96.7426 -1.6576 2.22304 0
M  V30 992 H 99.6936 -0.531799 1.49525 0
M  V30 993 H 99.7146 -3.19087 2.07276 0
M  V30 994 H 99.2266 -1.91392 3.37625 0
M  V30 995 H 97.3276 -3.43752 1.43754 0
M  V30 996 H 97.4406 -3.45253 3.3217 0
M  V30 997 H 95.8046 -1.9012 1.69489 0
M  V30 998 H 96.5876 -1.20521 3.21449 0
M  V30 999 N 99.0327 -1.24633 -0.964593 0
M  V30 1000 C 99.9647 -0.999302 -2.06268 0
M  V30 1001 C 100.978 0.0323226 -1.62768 0
M  V30 1002 O 102.167 -0.205079 -1.77318 0
M  V30 1003 C 99.2667 -0.486816 -3.35385 0
M  V30 1004 C 98.4397 -1.5823 -4.07777 0
M  V30 1005 C 97.4987 -1.07191 -5.15166 0
M  V30 1006 O 96.5247 -1.76426 -5.41168 0
M  V30 1007 N 97.7267 0.0920373 -5.80427 0
M  V30 1008 H 100.492 -1.94477 -2.28033 0
M  V30 1009 H 98.0527 -1.15704 -1.13244 0
M  V30 1010 H 100.045 -0.130066 -4.04491 0
M  V30 1011 H 98.6147 0.364459 -3.10468 0
M  V30 1012 H 97.8347 -2.11109 -3.32906 0
M  V30 1013 H 99.1227 -2.31854 -4.52903 0
M  V30 1014 H 98.5207 0.670784 -5.61709 0
M  V30 1015 H 97.0777 0.389905 -6.50633 0
M  V30 1016 N 100.511 1.16574 -1.06058 0
M  V30 1017 C 101.758 1.87047 -0.775873 0
M  V30 1018 C 102.086 1.81562 0.697534 0
M  V30 1019 O 101.341 1.22445 1.52662 0
M  V30 1020 C 101.64 3.36195 -1.21275 0
M  V30 1021 C 101.306 3.6188 -2.68986 0
M  V30 1022 C 99.9678 3.68599 -3.09335 0
M  V30 1023 C 102.32 3.72648 -3.64394 0
M  V30 1024 C 99.6478 3.83584 -4.43937 0
M  V30 1025 C 102 3.89154 -4.98741 0
M  V30 1026 C 100.664 3.94114 -5.3873 0
M  V30 1027 H 99.9338 0.684452 -0.283912 0
M  V30 1028 H 102.581 1.37853 -1.32925 0
M  V30 1029 H 100.886 3.87505 -0.578528 0
M  V30 1030 H 102.583 3.89103 -0.969542 0
M  V30 1031 H 99.1728 3.57281 -2.36744 0
M  V30 1032 H 103.357 3.66769 -3.34356 0
M  V30 1033 H 98.6128 3.85677 -4.74409 0
M  V30 1034 H 102.787 3.96427 -5.72554 0
M  V30 1035 H 100.414 4.05478 -6.43033 0
M  V30 1036 N 101.989 0.842826 1.3317 0
M  V30 1037 C 103.4 0.496651 1.79973 0
M  V30 1038 C 103.751 -0.984641 1.69703 0
M  V30 1039 O 102.876 -1.76743 1.24863 0
M  V30 1040 C 103.471 0.894727 3.26772 0
M  V30 1041 C 102.03 0.600629 3.71577 0
M  V30 1042 C 101.177 1.10091 2.5451 0
M  V30 1043 H 104.128 1.03116 1.20635 0
M  V30 1044 H 104.149 0.206347 3.7994 0
M  V30 1045 H 103.661 1.97287 3.34215 0
M  V30 1046 H 101.762 -0.467284 3.69658 0
M  V30 1047 H 101.875 1.15863 4.64879 0
M  V30 1048 H 100.239 0.52162 2.49301 0
M  V30 1049 H 101.022 2.18591 2.64713 0
M  V30 1050 N 103.467 -1.45747 0.599634 0
M  V30 1051 C 104.714 -2.02292 0.0917284 0
M  V30 1052 C 105.042 -1.46906 -1.27472 0
M  V30 1053 O 104.297 -0.630652 -1.8526 0
M  V30 1054 C 104.596 -3.57399 -0.00602758 0
M  V30 1055 C 104.262 -4.31902 1.29503 0
M  V30 1056 C 102.924 -4.51974 1.65144 0
M  V30 1057 C 105.276 -4.74551 2.15525 0
M  V30 1058 C 102.604 -5.11949 2.86574 0
M  V30 1059 C 104.956 -5.35868 3.36196 0
M  V30 1060 C 103.62 -5.54165 3.72099 0
M  V30 1061 H 102.89 -0.740239 0.0335658 0
M  V30 1062 H 105.537 -1.7491 0.779661 0
M  V30 1063 H 103.842 -3.84014 -0.777183 0
M  V30 1064 H 105.539 -3.98846 -0.415038 0
M  V30 1065 H 102.129 -4.16588 1.00761 0
M  V30 1066 H 106.313 -4.58784 1.8929 0
M  V30 1067 H 101.569 -5.24305 3.14507 0
M  V30 1068 H 105.743 -5.6787 4.03109 0
M  V30 1069 H 103.37 -6.00406 4.6628 0
M  V30 1070 N 104.945 -0.338344 -1.53925 0
M  V30 1071 C 106.173 0.261298 -2.05243 0
M  V30 1072 C 106.588 1.44625 -1.21363 0
M  V30 1073 O 105.945 1.80811 -0.247736 0
M  V30 1074 C 105.996 0.681412 -3.5502 0
M  V30 1075 O 105.717 -0.456414 -4.35716 0
M  V30 1076 C 107.218 1.34232 -4.22489 0
M  V30 1077 H 104.438 0.0513685 -0.669031 0
M  V30 1078 H 106.982 -0.488822 -1.98572 0
M  V30 1079 H 105.137 1.38148 -3.61931 0
M  V30 1080 H 105.551 -0.122564 -5.24357 0
M  V30 1081 H 107.025 1.58708 -5.28693 0
M  V30 1082 H 107.502 2.29426 -3.74514 0
M  V30 1083 H 108.108 0.684424 -4.19757 0
M  V30 1084 N 106.423 1.57458 -0.0668435 0
M  V30 1085 C 107.671 1.92919 0.602214 0
M  V30 1086 C 107.992 0.947215 1.70449 0
M  V30 1087 O 107.262 -0.00544117 1.95899 0
M  V30 1088 H 105.842 0.71217 0.22544 0
M  V30 1089 H 108.504 1.94508 -0.123535 0
M  V30 1090 H 107.6 2.94589 1.03073 0
M  V30 1091 N 107.901 -0.206675 1.56239 0
M  V30 1092 C 109.147 -0.930218 1.80208 0
M  V30 1093 C 109.48 -1.83387 0.638981 0
M  V30 1094 O 108.755 -1.91119 -0.361066 0
M  V30 1095 C 109.038 -1.75641 3.1436 0
M  V30 1096 C 108.891 -0.878257 4.41142 0
M  V30 1097 C 110.21 -2.73129 3.45092 0
M  V30 1098 H 107.329 -0.336742 0.655571 0
M  V30 1099 H 109.971 -0.198222 1.88963 0
M  V30 1100 H 108.121 -2.38048 3.07027 0
M  V30 1101 H 109.793 -0.269787 4.6051 0
M  V30 1102 H 108.036 -0.184385 4.33408 0
M  V30 1103 H 108.707 -1.49106 5.3148 0
M  V30 1104 H 111.183 -2.20856 3.52649 0
M  V30 1105 H 110.059 -3.28028 4.40101 0
M  V30 1106 H 110.32 -3.51606 2.68003 0
M  V30 1107 N 109.379 -1.50304 -0.473955 0
M  V30 1108 C 110.656 -1.51667 -1.23518 0
M  V30 1109 C 111.036 -0.259701 -2.09496 0
M  V30 1110 O 110.384 0.756986 -2.15597 0
M  V30 1111 C 110.594 -2.81082 -2.06868 0
M  V30 1112 C 111.942 -3.31631 -2.65153 0
M  V30 1113 O 112.966 -2.82384 -2.17113 0
M  V30 1114 O 111.825 -4.17471 -3.52675 0
M  V30 1115 H 108.919 -0.60822 -0.560355 0
M  V30 1116 H 111.465 -1.62592 -0.486011 0
M  V30 1117 H 110.237 -3.64041 -1.4349 0
M  V30 1118 H 109.86 -2.73146 -2.88924 0
M  V30 1119 N 110.857 0.726932 -1.39834 0
M  V30 1120 C 112.134 1.47902 -1.28001 0
M  V30 1121 C 112.514 2.1083 0.106789 0
M  V30 1122 O 111.862 1.99242 1.11869 0
M  V30 1123 C 112.072 2.52392 -2.41038 0
M  V30 1124 C 113.42 3.18546 -2.80737 0
M  V30 1125 O 114.444 2.62708 -2.40547 0
M  V30 1126 O 113.303 4.19604 -3.50135 0
M  V30 1127 H 110.397 0.657163 -0.502062 0
M  V30 1128 H 112.943 0.760071 -1.51727 0
M  V30 1129 H 111.715 2.04329 -3.33715 0
M  V30 1130 H 111.338 3.31837 -2.19021 0
M  V30 1131 N 112.336 1.25143 0.95797 0
M  V30 1132 C 113.752 1.01892 1.22842 0
M  V30 1133 C 113.952 -0.266311 1.99732 0
M  V30 1134 O 113.008 -0.979913 2.3271 0
M  V30 1135 C 114.321 2.24004 2.00606 0
M  V30 1136 C 115.869 2.28731 2.13662 0
M  V30 1137 C 116.344 3.5049 2.94823 0
M  V30 1138 N 117.835 3.50866 3.02403 0
M  V30 1139 C 118.57 4.4174 3.65586 0
M  V30 1140 N 118.066 5.42882 4.30408 0
M  V30 1141 N 119.859 4.29429 3.62694 0
M  V30 1142 H 112.01 2.07718 0.443493 0
M  V30 1143 H 114.273 0.912031 0.258657 0
M  V30 1144 H 113.979 3.17395 1.51503 0
M  V30 1145 H 113.853 2.26907 3.01319 0
M  V30 1146 H 116.24 1.35865 2.61963 0
M  V30 1147 H 116.321 2.29848 1.12265 0
M  V30 1148 H 115.965 4.43676 2.47213 0
M  V30 1149 H 115.895 3.46617 3.96439 0
M  V30 1150 H 118.386 2.777 2.56302 0
M  V30 1151 H 118.699 6.0844 4.76467 0
M  V30 1152 H 117.044 5.46758 4.29047 0
M  V30 1153 H 120.235 3.49643 3.11236 0
M  V30 1154 H 120.408 5.00448 4.1165 0
M  V30 1155 N 113.814 -1.1601 1.06675 0
M  V30 1156 C 114.724 -2.24156 0.692179 0
M  V30 1157 C 115.74 -1.71507 -0.293513 0
M  V30 1158 O 116.916 -2.009 -0.141861 0
M  V30 1159 C 113.981 -3.46587 0.0884131 0
M  V30 1160 C 113.042 -4.14257 1.12646 0
M  V30 1161 C 112.275 -5.30844 0.551416 0
M  V30 1162 O 112.498 -5.66858 -0.634656 0
M  V30 1163 O 111.432 -5.87848 1.29298 0
M  V30 1164 H 115.258 -2.58513 1.59388 0
M  V30 1165 H 112.843 -1.23599 0.83926 0
M  V30 1166 H 114.725 -4.20679 -0.246361 0
M  V30 1167 H 113.4 -3.13994 -0.786712 0
M  V30 1168 H 112.307 -3.42118 1.51348 0
M  V30 1169 H 113.64 -4.50914 1.97325 0
M  V30 1170 N 115.292 -0.849877 -1.32721 0
M  V30 1171 C 116.517 -0.463856 -2.02146 0
M  V30 1172 C 116.942 0.930449 -1.63476 0
M  V30 1173 O 116.3 1.61033 -0.832952 0
M  V30 1174 C 116.348 -0.604955 -3.55489 0
M  V30 1175 O 115.452 0.36425 -4.10788 0
M  V30 1176 H 114.793 -0.187046 -0.637111 0
M  V30 1177 H 117.323 -1.14775 -1.69375 0
M  V30 1178 H 117.333 -0.490696 -4.05038 0
M  V30 1179 H 116.008 -1.62174 -3.82978 0
M  V30 1180 H 114.585 0.206628 -3.72327 0
M  V30 1181 N 116.77 1.45427 -0.607355 0
M  V30 1182 C 118.016 2.03097 -0.111035 0
M  V30 1183 C 118.371 1.46735 1.24445 0
M  V30 1184 O 117.664 0.632478 1.8086 0
M  V30 1185 C 117.858 3.57398 -0.0129263 0
M  V30 1186 C 117.687 4.28726 -1.35735 0
M  V30 1187 C 116.457 4.66659 -1.93798 0
M  V30 1188 C 118.655 4.60699 -2.28607 0
M  V30 1189 N 116.637 5.22845 -3.21723 0
M  V30 1190 C 118.008 5.17716 -3.41131 0
M  V30 1191 C 120.063 4.42638 -2.27982 0
M  V30 1192 C 118.766 5.58576 -4.53194 0
M  V30 1193 C 120.792 4.84531 -3.39093 0
M  V30 1194 C 120.154 5.4164 -4.50339 0
M  V30 1195 H 116.253 0.777476 -0.083994 0
M  V30 1196 H 118.837 1.77249 -0.805655 0
M  V30 1197 H 117.008 3.82907 0.650914 0
M  V30 1198 H 118.74 4.01722 0.490033 0
M  V30 1199 H 115.495 4.50207 -1.47007 0
M  V30 1200 H 115.919 5.55438 -3.87063 0
M  V30 1201 H 120.561 3.97798 -1.43235 0
M  V30 1202 H 118.279 6.02382 -5.38667 0
M  V30 1203 H 121.865 4.72289 -3.39757 0
M  V30 1204 H 120.745 5.73461 -5.34895 0
M  V30 1205 N 118.248 0.346503 1.53744 0
M  V30 1206 C 119.659 -0.136779 1.86198 0
M  V30 1207 C 120.01 -1.49749 1.26766 0
M  V30 1208 O 119.135 -2.08417 0.582355 0
M  V30 1209 C 119.73 -0.254966 3.37839 0
M  V30 1210 C 118.289 -0.682482 3.70161 0
M  V30 1211 C 117.436 0.181981 2.76702 0
M  V30 1212 H 120.387 0.565994 1.48264 0
M  V30 1213 H 120.408 -1.08195 3.64793 0
M  V30 1214 H 119.92 0.735526 3.81066 0
M  V30 1215 H 118.021 -1.68189 3.3248 0
M  V30 1216 H 118.134 -0.470326 4.76786 0
M  V30 1217 H 116.498 -0.34615 2.52337 0
M  V30 1218 H 117.281 1.16966 3.2276 0
M  V30 1219 N 119.726 -1.57421 0.075193 0
M  V30 1220 C 120.951 -1.98364 -0.605515 0
M  V30 1221 C 121.376 -0.953383 -1.62149 0
M  V30 1222 O 120.734 0.0806053 -1.81121 0
M  V30 1223 C 120.782 -3.38332 -1.24756 0
M  V30 1224 O 119.886 -3.37959 -2.36342 0
M  V30 1225 H 119.227 -0.645553 -0.155428 0
M  V30 1226 H 121.757 -2.04044 0.150714 0
M  V30 1227 H 121.767 -3.75591 -1.5936 0
M  V30 1228 H 120.442 -4.12846 -0.503129 0
M  V30 1229 H 119.019 -3.12474 -2.03506 0
M  V30 1230 N 121.204 0.198386 -1.56346 0
M  V30 1231 C 122.45 0.920648 -1.80698 0
M  V30 1232 C 122.783 1.83045 -0.648697 0
M  V30 1233 O 122.058 1.91308 0.350925 0
M  V30 1234 C 122.341 1.73971 -3.15287 0
M  V30 1235 C 122.194 0.85485 -4.41602 0
M  V30 1236 C 123.513 2.71296 -3.46535 0
M  V30 1237 H 120.632 0.333261 -0.657348 0
M  V30 1238 H 123.274 0.188198 -1.89066 0
M  V30 1239 H 121.424 2.36416 -3.08285 0
M  V30 1240 H 123.096 0.245362 -4.60647 0
M  V30 1241 H 121.339 0.161398 -4.335 0
M  V30 1242 H 122.01 1.46286 -5.32264 0
M  V30 1243 H 124.486 2.18983 -3.53816 0
M  V30 1244 H 123.362 3.2569 -4.41834 0
M  V30 1245 H 123.623 3.5018 -2.69864 0
M  V30 1246 N 122.682 1.50554 0.465978 0
M  V30 1247 C 123.929 1.61798 1.21768 0
M  V30 1248 C 124.257 0.320696 1.91838 0
M  V30 1249 O 123.512 -0.693724 1.82992 0
M  V30 1250 C 123.811 2.75152 2.28093 0
M  V30 1251 C 123.477 4.15454 1.75239 0
M  V30 1252 C 122.139 4.53628 1.60546 0
M  V30 1253 C 124.491 5.03121 1.36083 0
M  V30 1254 C 121.819 5.77204 1.05128 0
M  V30 1255 C 124.171 6.27249 0.821056 0
M  V30 1256 C 122.835 6.64221 0.660795 0
M  V30 1257 H 122.105 0.592063 0.445582 0
M  V30 1258 H 124.752 1.84503 0.512927 0
M  V30 1259 H 123.057 2.46556 3.04496 0
M  V30 1260 H 124.754 2.81055 2.86023 0
M  V30 1261 H 121.344 3.85341 1.87644 0
M  V30 1262 H 125.528 4.74257 1.46267 0
M  V30 1263 H 120.784 6.0452 0.91462 0
M  V30 1264 H 124.958 6.94537 0.509018 0
M  V30 1265 H 122.585 7.59854 0.229226 0
M  V30 1266 N 124.16 -0.719506 1.40217 0
M  V30 1267 C 125.39 -1.50646 1.41384 0
M  V30 1268 C 125.798 -1.89197 0.0107743 0
M  V30 1269 O 125.141 -1.55709 -0.974708 0
M  V30 1270 C 125.203 -2.81405 2.23722 0
M  V30 1271 C 124.867 -2.65199 3.72181 0
M  V30 1272 C 125.864 -2.32717 4.64907 0
M  V30 1273 C 123.549 -2.81586 4.1595 0
M  V30 1274 C 125.543 -2.16827 5.99387 0
M  V30 1275 C 123.23 -2.65313 5.50502 0
M  V30 1276 C 124.228 -2.32981 6.42035 0
M  V30 1277 O 123.916 -2.16827 7.74107 0
M  V30 1278 H 123.648 -0.471606 0.484318 0
M  V30 1279 H 126.202 -0.895456 1.84853 0
M  V30 1280 H 124.432 -3.44823 1.75026 0
M  V30 1281 H 126.121 -3.43102 2.16878 0
M  V30 1282 H 126.887 -2.19694 4.32388 0
M  V30 1283 H 122.766 -3.0574 3.45027 0
M  V30 1284 H 126.31 -1.91513 6.70797 0
M  V30 1285 H 122.207 -2.7792 5.82607 0
M  V30 1286 H 122.975 -2.31778 7.84998 0
M  V30 1287 N 125.638 -1.25649 -0.95132 0
M  V30 1288 C 126.586 -1.06118 -2.06982 0
M  V30 1289 C 127.58 0.00889169 -1.69398 0
M  V30 1290 O 128.786 -0.146988 -1.79399 0
M  V30 1291 H 125.161 -0.326248 -0.677544 0
M  V30 1292 H 127.132 -2.00932 -2.2061 0
M  V30 1293 C 125.881 -0.700145 -3.40578 0
M  V30 1294 H 125.204 -1.51537 -3.69968 0
M  V30 1295 H 126.644 -0.603211 -4.19687 0
M  V30 1296 C 125.103 0.59403 -3.31622 0
M  V30 1297 O 125.633 1.63522 -3.66911 0
M  V30 1298 N 123.839 0.58089 -2.84735 0
M  V30 1299 H 123.386 -0.266783 -2.56215 0
M  V30 1300 H 123.344 1.44695 -2.79125 0
M  V30 1301 N 127.117 1.15442 -1.07289 0
M  V30 1302 C 128.533 1.38201 -0.798288 0
M  V30 1303 C 128.733 1.92429 0.597769 0
M  V30 1304 O 127.789 2.12962 1.3566 0
M  V30 1305 C 129.102 2.35357 -1.87156 0
M  V30 1306 C 130.65 2.49021 -1.89624 0
M  V30 1307 C 131.125 3.49468 -2.96034 0
M  V30 1308 N 132.616 3.57003 -2.95132 0
M  V30 1309 C 133.351 4.34543 -3.74112 0
M  V30 1310 N 132.847 5.15421 -4.6294 0
M  V30 1311 N 134.64 4.29625 -3.62462 0
M  V30 1312 H 126.791 0.78584 -1.97328 0
M  V30 1313 H 129.054 0.408065 -0.855679 0
M  V30 1314 H 128.76 2.02626 -2.87464 0
M  V30 1315 H 128.634 3.35129 -1.73114 0
M  V30 1316 H 131.021 2.81051 -0.899687 0
M  V30 1317 H 131.102 1.4925 -2.07745 0
M  V30 1318 H 130.746 3.18173 -3.95889 0
M  V30 1319 H 130.676 4.48992 -2.75161 0
M  V30 1320 H 133.167 2.99276 -2.30743 0
M  V30 1321 H 133.48 5.7183 -5.19837 0
M  V30 1322 H 131.825 5.14729 -4.66989 0
M  V30 1323 H 135.016 3.65505 -2.92444 0
M  V30 1324 H 135.189 4.89807 -4.24256 0
M  V30 1325 N 128.595 0.856903 1.32268 0
M  V30 1326 C 129.823 0.475439 2.01363 0
M  V30 1327 C 130.238 -0.928486 1.64392 0
M  V30 1328 O 129.595 -1.60624 0.866387 0
M  V30 1329 C 129.646 0.607545 3.56358 0
M  V30 1330 O 129.367 1.95617 3.92002 0
M  V30 1331 C 130.868 0.225382 4.42727 0
M  V30 1332 H 128.088 0.186636 0.644521 0
M  V30 1333 H 130.632 1.15446 1.68797 0
M  V30 1334 H 128.787 -0.0237719 3.87393 0
M  V30 1335 H 129.201 1.95455 4.86721 0
M  V30 1336 H 130.675 0.368813 5.50767 0
M  V30 1337 H 131.152 -0.834369 4.31202 0
M  V30 1338 H 131.758 0.831864 4.17085 0
M  V30 1339 N 130.073 -1.45103 0.615059 0
M  V30 1340 C 131.313 -2.04069 0.116282 0
M  V30 1341 C 131.677 -1.4721 -1.2326 0
M  V30 1342 O 132.878 -1.97577 -1.82255 0
M  V30 1343 C 131.149 -3.57298 0.085482 0
M  V30 1344 S 132.708 -4.37394 -0.351015 0
M  V30 1345 H 129.526 -0.709006 0.0532183 0
M  V30 1346 H 132.128 -1.77709 0.81484 0
M  V30 1347 H 130.832 -3.9619 1.0706 0
M  V30 1348 H 130.363 -3.88244 -0.634835 0
M  V30 1349 H 132.378 -4.69734 -1.59889 0
M  V30 1350 N 131.551 -0.354651 -1.53558 0
M  V30 1351 C 132.483 0.5315 -2.22952 0
M  V30 1352 C 133.496 1.05503 -1.23988 0
M  V30 1353 O 134.685 0.963279 -1.50277 0
M  V30 1354 C 131.785 1.74538 -2.90499 0
M  V30 1355 C 130.958 1.35524 -4.15875 0
M  V30 1356 C 130.017 2.42999 -4.66731 0
M  V30 1357 O 129.043 2.05844 -5.30676 0
M  V30 1358 N 130.245 3.74423 -4.43608 0
M  V30 1359 H 133.01 -0.0628615 -2.99634 0
M  V30 1360 H 130.571 -0.179302 -1.60904 0
M  V30 1361 H 132.563 2.45892 -3.21433 0
M  V30 1362 H 131.133 2.24686 -2.17336 0
M  V30 1363 H 130.353 0.471998 -3.91364 0
M  V30 1364 H 131.641 1.07071 -4.97406 0
M  V30 1365 H 131.039 4.07391 -3.92491 0
M  V30 1366 H 129.596 4.41913 -4.7912 0
M  V30 1367 N 133.029 1.57378 -0.0835403 0
M  V30 1368 C 134.269 1.95808 0.586381 0
M  V30 1369 C 134.633 0.963706 1.66062 0
M  V30 1370 O 135.834 1.23608 2.38693 0
M  V30 1371 C 134.105 3.38808 1.13771 0
M  V30 1372 S 135.664 3.99225 1.82112 0
M  V30 1373 H 132.482 0.684675 0.191679 0
M  V30 1374 H 135.084 1.94843 -0.160194 0
M  V30 1375 H 133.788 4.08954 0.344197 0
M  V30 1376 H 133.319 3.43344 1.92038 0
M  V30 1377 H 135.334 3.87087 3.10449 0
M  V30 1378 N 134.507 -0.190092 1.56449 0
M  V30 1379 C 135.732 -0.929864 1.85387 0
M  V30 1380 C 136.157 -1.7585 0.667704 0
M  V30 1381 O 135.515 -1.77198 -0.383459 0
M  V30 1382 C 135.563 -1.79773 3.12593 0
M  V30 1383 O 134.667 -2.89713 2.93496 0
M  V30 1384 H 134.008 -0.261574 0.610307 0
M  V30 1385 H 136.538 -0.193896 2.03679 0
M  V30 1386 H 136.548 -2.20139 3.43515 0
M  V30 1387 H 135.223 -1.18892 3.98544 0
M  V30 1388 H 133.8 -2.53065 2.73884 0
M  V30 1389 N 135.985 -1.50799 -0.457987 0
M  V30 1390 C 137.233 -1.62121 -1.2067 0
M  V30 1391 C 137.554 -0.329793 -1.92191 0
M  V30 1392 O 136.824 0.653409 -1.84682 0
M  V30 1393 H 135.404 -0.597441 -0.448411 0
M  V30 1394 H 138.066 -1.87637 -0.527096 0
M  V30 1395 H 137.162 -2.43882 -1.94751 0
M  V30 1396 N 137.463 0.71206 -1.40597 0
M  V30 1397 C 138.411 1.84746 -1.41321 0
M  V30 1398 C 139.405 1.66842 -0.293268 0
M  V30 1399 O 140.611 1.73904 -0.464481 0
M  V30 1400 H 136.986 0.608522 -0.441819 0
M  V30 1401 H 138.957 1.81252 -2.37045 0
M  V30 1402 C 137.706 3.22638 -1.29614 0
M  V30 1403 H 137.029 3.37023 -2.15071 0
M  V30 1404 H 138.469 4.02209 -1.3418 0
M  V30 1405 C 136.928 3.36899 -0.00673121 0
M  V30 1406 O 137.458 3.90186 0.954859 0
M  V30 1407 N 135.664 2.9053 0.0639327 0
M  V30 1408 H 135.211 2.47353 -0.719311 0
M  V30 1409 H 135.169 3.0045 0.926118 0
M  V30 1410 N 138.941 1.26152 0.944643 0
M  V30 1411 C 140.188 1.11492 1.69044 0
M  V30 1412 C 140.516 -0.342366 1.91463 0
M  V30 1413 O 139.771 -1.26812 1.49054 0
M  V30 1414 C 140.07 1.82541 3.07268 0
M  V30 1415 C 139.736 3.32445 3.04616 0
M  V30 1416 C 138.398 3.73337 3.036 0
M  V30 1417 C 140.75 4.28171 2.97185 0
M  V30 1418 C 138.078 5.08348 2.92915 0
M  V30 1419 C 140.43 5.63218 2.88041 0
M  V30 1420 C 139.094 6.03426 2.85366 0
M  V30 1421 H 138.364 0.407977 0.618576 0
M  V30 1422 H 141.011 1.56551 1.10291 0
M  V30 1423 H 139.316 1.29941 3.69625 0
M  V30 1424 H 141.013 1.68642 3.63815 0
M  V30 1425 H 137.603 2.99915 3.06185 0
M  V30 1426 H 141.787 3.97563 2.97081 0
M  V30 1427 H 137.043 5.38667 2.89219 0
M  V30 1428 H 141.217 6.37078 2.81254 0
M  V30 1429 H 138.844 7.07999 2.76842 0
M  V30 1430 N 140.419 -1.14872 1.07899 0
M  V30 1431 C 141.352 -2.18794 0.64841 0
M  V30 1432 C 142.33 -1.59065 -0.337189 0
M  V30 1433 O 143.514 -1.86936 -0.242284 0
M  V30 1434 C 140.641 -3.38667 -0.0470417 0
M  V30 1435 C 139.687 -4.16942 0.897884 0
M  V30 1436 S 140.52 -4.78615 2.40183 0
M  V30 1437 C 141.676 -6.0185 1.71834 0
M  V30 1438 H 141.909 -2.5498 1.52881 0
M  V30 1439 H 139.442 -1.25922 0.893484 0
M  V30 1440 H 141.4 -4.08113 -0.442027 0
M  V30 1441 H 140.061 -3.00814 -0.903861 0
M  V30 1442 H 139.254 -5.02726 0.358096 0
M  V30 1443 H 138.856 -3.53073 1.23352 0
M  V30 1444 H 141.148 -6.69574 1.03328 0
M  V30 1445 H 142.091 -6.60408 2.55473 0
M  V30 1446 H 142.499 -5.5173 1.19392 0
M  V30 1447 N 141.898 -0.863906 -1.31812 0
M  V30 1448 C 143.146 -0.470904 -1.96537 0
M  V30 1449 C 143.467 0.978771 -1.68657 0
M  V30 1450 O 142.737 1.6853 -0.998717 0
M  V30 1451 H 141.317 -0.171148 -0.72713 0
M  V30 1452 H 143.979 -1.10236 -1.60729 0
M  V30 1453 H 143.075 -0.623616 -3.05806 0
M  V30 1454 N 143.376 1.44774 -0.622745 0
M  V30 1455 C 144.623 2.02121 -0.1239 0
M  V30 1456 C 144.951 1.48915 1.25118 0
M  V30 1457 O 144.206 0.660045 1.84233 0
M  V30 1458 C 144.505 3.57364 -0.0508323 0
M  V30 1459 C 144.171 4.29787 -1.36358 0
M  V30 1460 C 142.833 4.4929 -1.72314 0
M  V30 1461 C 145.185 4.71062 -2.23048 0
M  V30 1462 C 142.513 5.07325 -2.94682 0
M  V30 1463 C 144.865 5.30452 -3.44679 0
M  V30 1464 C 143.529 5.48175 -3.80868 0
M  V30 1465 H 142.799 0.739612 -0.0453381 0
M  V30 1466 H 145.446 1.73648 -0.807389 0
M  V30 1467 H 143.751 3.85202 0.715991 0
M  V30 1468 H 145.448 3.99456 0.351533 0
M  V30 1469 H 142.038 4.14932 -1.07375 0
M  V30 1470 H 146.222 4.55715 -1.96565 0
M  V30 1471 H 141.478 5.19235 -3.22809 0
M  V30 1472 H 145.652 5.61385 -4.12092 0
M  V30 1473 H 143.279 5.92912 -4.75773 0
M  V30 1474 N 144.854 0.36279 1.53368 0
M  V30 1475 C 145.802 -0.500155 2.27159 0
M  V30 1476 C 146.796 -1.08575 1.3003 0
M  V30 1477 O 148.002 -1.02927 1.47668 0
M  V30 1478 H 144.377 -0.180009 0.730138 0
M  V30 1479 H 146.348 0.14401 2.98052 0
M  V30 1480 C 145.097 -1.62937 3.07159 0
M  V30 1481 H 144.42 -1.18806 3.8174 0
M  V30 1482 H 145.86 -2.20795 3.61975 0
M  V30 1483 C 144.319 -2.57007 2.17829 0
M  V30 1484 O 144.849 -3.59752 1.78721 0
M  V30 1485 N 143.055 -2.26131 1.82518 0
M  V30 1486 H 142.602 -1.42616 2.14519 0
M  V30 1487 H 142.56 -2.89327 1.23034 0
M  V30 1488 N 146.332 -1.57332 0.0918853 0
M  V30 1489 C 147.572 -1.96117 -0.575988 0
M  V30 1490 C 147.936 -0.972499 -1.65549 0
M  V30 1491 O 149.137 -1.24872 -2.38034 0
M  V30 1492 C 147.408 -3.39407 -1.11973 0
M  V30 1493 S 148.967 -4.00185 -1.79992 0
M  V30 1494 H 145.785 -0.685682 -0.188045 0
M  V30 1495 H 148.387 -1.94755 0.170525 0
M  V30 1496 H 147.091 -4.09131 -0.322504 0
M  V30 1497 H 146.622 -3.44358 -1.90214 0
M  V30 1498 H 148.637 -3.88728 -3.08391 0
M  V30 1499 N 147.81 0.181792 -1.56548 0
M  V30 1500 C 149.058 0.89832 -1.81038 0
M  V30 1501 C 149.379 1.83232 -0.667164 0
M  V30 1502 O 148.649 1.93372 0.313673 0
M  V30 1503 H 147.229 0.33471 -0.667816 0
M  V30 1504 H 149.891 0.184116 -1.94028 0
M  V30 1505 H 148.987 1.4815 -2.74696 0
M  V30 1506 N 149.288 1.51039 0.449983 0
M  V30 1507 C 150.236 1.71995 1.5659 0
M  V30 1508 C 151.23 0.586029 1.5894 0
M  V30 1509 O 152.436 0.76709 1.62837 0
M  V30 1510 H 148.811 0.543233 0.520001 0
M  V30 1511 H 150.782 2.65562 1.36085 0
M  V30 1512 C 149.531 1.8506 2.9436 0
M  V30 1513 H 148.854 2.71712 2.93279 0
M  V30 1514 H 150.294 2.0374 3.71842 0
M  V30 1515 C 148.753 0.607277 3.31382 0
M  V30 1516 O 149.283 -0.243903 4.00959 0
M  V30 1517 N 147.489 0.455073 2.87015 0
M  V30 1518 H 147.036 1.14879 2.30566 0
M  V30 1519 H 146.994 -0.375611 3.12148 0
M  V30 1520 N 150.766 -0.704594 1.40972 0
M  V30 1521 C 152.006 -1.47691 1.41304 0
M  V30 1522 C 152.37 -1.91992 0.0178582 0
M  V30 1523 O 153.571 -2.68599 -0.103996 0
M  V30 1524 C 151.842 -2.66254 2.38419 0
M  V30 1525 S 153.401 -3.55516 2.57204 0
M  V30 1526 H 150.219 -0.504808 0.500689 0
M  V30 1527 H 152.821 -0.822962 1.77335 0
M  V30 1528 H 151.525 -2.31897 3.38603 0
M  V30 1529 H 151.056 -3.3655 2.03711 0
M  V30 1530 H 153.071 -4.61115 1.83268 0
M  V30 1531 N 152.244 -1.26651 -0.937939 0
M  V30 1532 C 153.191 -1.0849 -2.03712 0
M  V30 1533 C 154.161 0.011033 -1.66096 0
M  V30 1534 O 155.346 -0.149353 -1.90215 0
M  V30 1535 C 152.486 -0.72735 -3.37348 0
M  V30 1536 C 151.599 -1.89986 -3.87981 0
M  V30 1537 C 150.734 -1.48513 -5.10017 0
M  V30 1538 C 149.773 -2.62575 -5.5292 0
M  V30 1539 N 148.91 -2.21762 -6.66158 0
M  V30 1540 H 153.75 -2.02551 -2.18579 0
M  V30 1541 H 151.287 -1.00844 -1.07093 0
M  V30 1542 H 153.245 -0.50092 -4.14182 0
M  V30 1543 H 151.875 0.176298 -3.22318 0
M  V30 1544 H 150.927 -2.23913 -3.07518 0
M  V30 1545 H 152.239 -2.75586 -4.15757 0
M  V30 1546 H 151.393 -1.21934 -5.94321 0
M  V30 1547 H 150.132 -0.60009 -4.83994 0
M  V30 1548 H 149.137 -2.8988 -4.67172 0
M  V30 1549 H 150.362 -3.51685 -5.80943 0
M  V30 1550 H 148.308 -1.35696 -6.41812 0
M  V30 1551 H 148.225 -3.00903 -6.93537 0
M  V30 1552 H 149.493 -1.98403 -7.53828 0
M  V30 1553 N 153.722 1.14298 -1.08507 0
M  V30 1554 C 154.969 1.85359 -0.815373 0
M  V30 1555 C 155.297 1.83001 0.658865 0
M  V30 1556 O 154.552 1.25655 1.50031 0
M  V30 1557 C 154.851 3.33547 -1.28379 0
M  V30 1558 C 154.517 3.56093 -2.76602 0
M  V30 1559 C 153.179 3.61955 -3.17084 0
M  V30 1560 C 155.531 3.64834 -3.72217 0
M  V30 1561 C 152.859 3.74082 -4.51973 0
M  V30 1562 C 155.211 3.78487 -5.06883 0
M  V30 1563 C 153.875 3.82598 -5.46969 0
M  V30 1564 H 153.145 0.678276 -0.298366 0
M  V30 1565 H 155.792 1.35002 -1.35819 0
M  V30 1566 H 154.097 3.86191 -0.660593 0
M  V30 1567 H 155.794 3.86959 -1.05186 0
M  V30 1568 H 152.384 3.52179 -2.4427 0
M  V30 1569 H 156.568 3.59595 -3.42061 0
M  V30 1570 H 151.824 3.75527 -4.82483 0
M  V30 1571 H 155.998 3.84193 -5.80834 0
M  V30 1572 H 153.625 3.91747 -6.51489 0
M  V30 1573 N 155.201 0.870884 1.31352 0
M  V30 1574 C 156.449 0.48132 1.96285 0
M  V30 1575 C 156.77 -0.969813 1.69173 0
M  V30 1576 O 156.04 -1.67998 1.00764 0
M  V30 1577 H 154.62 0.175002 0.726212 0
M  V30 1578 H 157.282 1.11087 1.60143 0
M  V30 1579 H 156.378 0.639825 3.05471 0
M  V30 1580 N 156.679 -1.44442 0.630414 0
M  V30 1581 C 157.926 -2.02052 0.134617 0
M  V30 1582 C 158.254 -1.49576 -1.24327 0
M  V30 1583 O 157.509 -0.669806 -1.83881 0
M  V30 1584 C 157.808 -3.57332 0.0697835 0
M  V30 1585 C 157.474 -4.29058 1.38635 0
M  V30 1586 C 156.136 -4.4837 1.74694 0
M  V30 1587 C 158.488 -4.69872 2.25543 0
M  V30 1588 C 155.816 -5.05756 2.97369 0
M  V30 1589 C 158.168 -5.28616 3.47487 0
M  V30 1590 C 156.832 -5.46147 3.8377 0
M  V30 1591 H 156.102 -0.739361 0.0492598 0
M  V30 1592 H 158.749 -1.73217 0.816586 0
M  V30 1593 H 157.054 -3.85577 -0.695553 0
M  V30 1594 H 158.751 -3.99637 -0.330344 0
M  V30 1595 H 155.341 -4.14357 1.09574 0
M  V30 1596 H 159.525 -4.54666 1.98979 0
M  V30 1597 H 154.781 -5.17515 3.25558 0
M  V30 1598 H 158.955 -5.59192 4.15063 0
M  V30 1599 H 156.582 -5.9038 4.7891 0
M  V30 1600 N 158.157 -0.370918 -1.53173 0
M  V30 1601 C 159.403 0.209976 -2.02313 0
M  V30 1602 C 159.758 1.45987 -1.25322 0
M  V30 1603 O 159.051 1.8856 -0.339965 0
M  V30 1604 C 159.245 0.549696 -3.53147 0
M  V30 1605 C 159.074 -0.665721 -4.44745 0
M  V30 1606 C 157.844 -1.17942 -4.91343 0
M  V30 1607 C 160.042 -1.53255 -4.90935 0
M  V30 1608 N 158.024 -2.35431 -5.66962 0
M  V30 1609 C 159.395 -2.55403 -5.64951 0
M  V30 1610 C 161.45 -1.5548 -4.73002 0
M  V30 1611 C 160.153 -3.5964 -6.22938 0
M  V30 1612 C 162.179 -2.58613 -5.31858 0
M  V30 1613 C 161.541 -3.59485 -6.05764 0
M  V30 1614 H 157.64 0.0394095 -0.781006 0
M  V30 1615 H 160.224 -0.516666 -1.8772 0
M  V30 1616 H 158.395 1.24541 -3.67891 0
M  V30 1617 H 160.127 1.11614 -3.89004 0
M  V30 1618 H 156.882 -0.743228 -4.67732 0
M  V30 1619 H 157.306 -2.94827 -6.09431 0
M  V30 1620 H 161.948 -0.788457 -4.15383 0
M  V30 1621 H 159.666 -4.37153 -6.79649 0
M  V30 1622 H 163.252 -2.61195 -5.19873 0
M  V30 1623 H 162.132 -4.3798 -6.50495 0
M  V30 1624 N 159.635 1.57281 -0.100228 0
M  V30 1625 C 160.883 1.94153 0.561157 0
M  V30 1626 C 161.204 0.983157 1.68401 0
M  V30 1627 O 160.474 0.0361132 1.95867 0
M  V30 1628 H 159.054 0.716791 0.210283 0
M  V30 1629 H 161.716 1.94202 -0.164765 0
M  V30 1630 H 160.812 2.96709 0.968008 0
M  V30 1631 N 161.113 -0.173488 1.56642 0
M  V30 1632 C 162.524 -0.736155 1.71574 0
M  V30 1633 C 162.875 -1.82888 0.710389 0
M  V30 1634 O 162 -2.16017 -0.1287 0
M  V30 1635 C 162.595 -1.34211 3.11083 0
M  V30 1636 C 161.154 -1.85162 3.27707 0
M  V30 1637 C 160.301 -0.729765 2.67525 0
M  V30 1638 H 163.252 0.0518786 1.58615 0
M  V30 1639 H 163.273 -2.21178 3.09613 0
M  V30 1640 H 162.785 -0.546579 3.84232 0
M  V30 1641 H 160.886 -2.67366 2.59512 0
M  V30 1642 H 160.999 -1.99855 4.35425 0
M  V30 1643 H 159.363 -1.14965 2.27278 0
M  V30 1644 H 160.146 0.0538806 3.43258 0
M  V30 1645 N 162.591 -1.51276 -0.441967 0
M  V30 1646 C 163.539 -1.72823 -1.55676 0
M  V30 1647 C 164.533 -0.59445 -1.58627 0
M  V30 1648 O 165.739 -0.775715 -1.62427 0
M  V30 1649 H 162.114 -0.545983 -0.517113 0
M  V30 1650 H 164.085 -2.6628 -1.34675 0
M  V30 1651 C 162.834 -1.86619 -2.93375 0
M  V30 1652 H 162.157 -2.73264 -2.91834 0
M  V30 1653 H 163.597 -2.05709 -3.70756 0
M  V30 1654 C 162.056 -0.624842 -3.31055 0
M  V30 1655 O 162.586 0.222636 -4.01083 0
M  V30 1656 N 160.792 -0.470288 -2.86769 0
M  V30 1657 H 160.339 -1.161 -2.29953 0
M  V30 1658 H 160.297 0.359051 -3.12343 0
M  V30 1659 N 164.069 0.697108 -1.41344 0
M  V30 1660 C 165.309 1.46939 -1.42085 0
M  V30 1661 C 165.673 1.9198 -0.0280397 0
M  V30 1662 O 166.874 2.6865 0.0897504 0
M  V30 1663 C 165.145 2.64985 -2.39828 0
M  V30 1664 S 166.704 3.54147 -2.59085 0
M  V30 1665 H 163.522 0.502146 -0.503359 0
M  V30 1666 H 166.124 0.813546 -1.77769 0
M  V30 1667 H 164.828 2.30098 -3.39828 0
M  V30 1668 H 164.359 3.35464 -2.05493 0
M  V30 1669 H 166.374 4.60137 -1.85711 0
M  V30 1670 N 165.547 1.27147 0.931209 0
M  V30 1671 C 166.775 1.16082 1.71267 0
M  V30 1672 C 167.19 -0.282772 1.8667 0
M  V30 1673 O 166.547 -1.19283 1.38122 0
M  V30 1674 C 166.598 1.8358 3.11417 0
M  V30 1675 O 166.319 3.22299 2.96741 0
M  V30 1676 C 167.82 1.78597 4.05732 0
M  V30 1677 H 165.04 0.403758 0.535929 0
M  V30 1678 H 167.584 1.67953 1.16671 0
M  V30 1679 H 165.739 1.35623 3.62885 0
M  V30 1680 H 166.153 3.55851 3.85319 0
M  V30 1681 H 167.627 2.30444 5.01597 0
M  V30 1682 H 168.104 0.754564 4.3267 0
M  V30 1683 H 168.71 2.26152 3.60188 0
M  V30 1684 N 167.025 -1.13721 1.09112 0
M  V30 1685 C 167.935 -2.22638 0.73957 0
M  V30 1686 C 168.951 -1.72091 -0.257068 0
M  V30 1687 O 170.127 -2.01155 -0.0992154 0
M  V30 1688 C 167.192 -3.46322 0.16191 0
M  V30 1689 C 166.253 -4.11775 1.21408 0
M  V30 1690 C 165.486 -5.29555 0.663891 0
M  V30 1691 O 165.709 -5.68077 -0.514274 0
M  V30 1692 O 164.643 -5.84973 1.41738 0
M  V30 1693 H 168.469 -2.55074 1.64836 0
M  V30 1694 H 166.054 -1.21791 0.865289 0
M  V30 1695 H 167.936 -4.21107 -0.157073 0
M  V30 1696 H 166.611 -3.15593 -0.719932 0
M  V30 1697 H 165.518 -3.3883 1.58571 0
M  V30 1698 H 166.851 -4.46627 2.06845 0
M  V30 1699 N 168.503 -0.877838 -1.30888 0
M  V30 1700 C 169.919 -0.570844 -1.49042 0
M  V30 1701 C 170.119 0.893159 -1.80624 0
M  V30 1702 O 169.175 1.67485 -1.88958 0
M  V30 1703 C 170.488 -1.47784 -2.61878 0
M  V30 1704 C 172.036 -1.48071 -2.75761 0
M  V30 1705 C 172.511 -2.37347 -3.91702 0
M  V30 1706 N 174.002 -2.35271 -3.99001 0
M  V30 1707 C 174.737 -3.01063 -4.88004 0
M  V30 1708 N 174.233 -3.76055 -5.81854 0
M  V30 1709 N 176.026 -2.90332 -4.81315 0
M  V30 1710 H 168.177 -1.82502 -1.0866 0
M  V30 1711 H 170.44 -0.780797 -0.537644 0
M  V30 1712 H 170.146 -2.51993 -2.45341 0
M  V30 1713 H 170.02 -1.18215 -3.58197 0
M  V30 1714 H 172.407 -0.446166 -2.91708 0
M  V30 1715 H 172.488 -1.81668 -1.80085 0
M  V30 1716 H 172.132 -3.40883 -3.76512 0
M  V30 1717 H 172.062 -2.01071 -4.86701 0
M  V30 1718 H 174.553 -1.80768 -3.3186 0
M  V30 1719 H 174.866 -4.23366 -6.46514 0
M  V30 1720 H 173.211 -3.80163 -5.81808 0
M  V30 1721 H 176.402 -2.31278 -4.06974 0
M  V30 1722 H 176.575 -3.41885 -5.50471 0
M  V30 1723 N 169.982 1.44106 -0.638065 0
M  V30 1724 C 171.398 1.56672 -0.304286 0
M  V30 1725 C 171.598 1.6244 1.19228 0
M  V30 1726 O 170.654 1.57121 1.9766 0
M  V30 1727 C 171.967 2.83503 -1.00231 0
M  V30 1728 C 173.515 2.97226 -0.981116 0
M  V30 1729 C 173.99 4.26868 -1.65974 0
M  V30 1730 N 175.481 4.33698 -1.62666 0
M  V30 1731 C 176.216 5.32745 -2.12063 0
M  V30 1732 N 175.712 6.38157 -2.6968 0
M  V30 1733 N 177.505 5.24299 -2.02651 0
M  V30 1734 H 169.656 1.38605 -1.60942 0
M  V30 1735 H 171.919 0.664661 -0.675965 0
M  V30 1736 H 171.625 2.85251 -2.0573 0
M  V30 1737 H 171.499 3.73251 -0.54439 0
M  V30 1738 H 173.886 2.95027 0.0654188 0
M  V30 1739 H 173.967 2.08808 -1.47759 0
M  V30 1740 H 173.611 4.29826 -2.70576 0
M  V30 1741 H 173.541 5.14156 -1.13804 0
M  V30 1742 H 176.032 3.58138 -1.20606 0
M  V30 1743 H 176.345 7.10029 -3.05087 0
M  V30 1744 H 174.69 6.38823 -2.73734 0
M  V30 1745 H 177.881 4.4086 -1.57353 0
M  V30 1746 H 178.054 6.01334 -2.41457 0
M  V30 1747 N 171.46 0.379036 1.52974 0
M  V30 1748 C 172.39 -0.452706 2.29069 0
M  V30 1749 C 173.371 -1.07237 1.32039 0
M  V30 1750 O 174.556 -1.08708 1.60923 0
M  V30 1751 C 171.686 -1.5856 3.08992 0
M  V30 1752 C 170.64 -1.0925 4.13822 0
M  V30 1753 C 169.966 -2.31668 4.81907 0
M  V30 1754 C 171.266 -0.167702 5.22031 0
M  V30 1755 H 172.96 0.182181 2.98845 0
M  V30 1756 H 170.506 0.0890592 1.43724 0
M  V30 1757 H 172.459 -2.1742 3.6098 0
M  V30 1758 H 171.183 -2.24792 2.36931 0
M  V30 1759 H 169.842 -0.526494 3.628 0
M  V30 1760 H 169.49 -2.96386 4.06404 0
M  V30 1761 H 169.19 -1.9934 5.52754 0
M  V30 1762 H 170.714 -2.91189 5.36695 0
M  V30 1763 H 172.128 -0.664186 5.6944 0
M  V30 1764 H 170.525 0.0653265 6.00064 0
M  V30 1765 H 171.595 0.786347 4.78482 0
M  V30 1766 N 172.938 -1.57226 0.108567 0
M  V30 1767 C 173.868 -2.17778 -0.84232 0
M  V30 1768 C 174.849 -1.11487 -1.2847 0
M  V30 1769 O 176.034 -1.39681 -1.34918 0
M  V30 1770 C 173.164 -2.76888 -2.09644 0
M  V30 1771 C 172.118 -3.88669 -1.79221 0
M  V30 1772 C 171.444 -4.34541 -3.11574 0
M  V30 1773 C 172.744 -5.11251 -1.06864 0
M  V30 1774 H 174.438 -2.97489 -0.337774 0
M  V30 1775 H 171.984 -1.43097 -0.161025 0
M  V30 1776 H 173.937 -3.17904 -2.76614 0
M  V30 1777 H 172.661 -1.94451 -2.62405 0
M  V30 1778 H 171.32 -3.48213 -1.14644 0
M  V30 1779 H 170.968 -3.48977 -3.62249 0
M  V30 1780 H 170.668 -5.09914 -2.91996 0
M  V30 1781 H 172.192 -4.782 -3.7968 0
M  V30 1782 H 173.606 -5.49352 -1.63968 0
M  V30 1783 H 172.003 -5.9214 -0.974178 0
M  V30 1784 H 173.073 -4.8487 -0.0536168 0
M  V30 1785 N 174.416 0.165178 -1.56732 0
M  V30 1786 C 175.662 0.882112 -1.82611 0
M  V30 1787 C 175.995 1.81628 -0.687378 0
M  V30 1788 O 175.27 1.92009 0.310267 0
M  V30 1789 C 175.553 1.67245 -3.18906 0
M  V30 1790 C 175.406 0.760987 -4.43316 0
M  V30 1791 C 176.725 2.63884 -3.52212 0
M  V30 1792 H 173.844 0.319242 -0.664269 0
M  V30 1793 H 176.486 0.148052 -1.89422 0
M  V30 1794 H 174.636 2.29824 -3.1323 0
M  V30 1795 H 176.308 0.147596 -4.61064 0
M  V30 1796 H 174.551 0.0694102 -4.33744 0
M  V30 1797 H 175.222 1.34962 -5.35247 0
M  V30 1798 H 177.698 2.11429 -3.58381 0
M  V30 1799 H 176.574 3.16245 -4.48643 0
M  V30 1800 H 176.835 3.44377 -2.77231 0
M  V30 1801 N 175.894 1.51508 0.433938 0
M  V30 1802 C 177.31 1.39759 0.770682 0
M  V30 1803 C 177.51 0.482594 1.95636 0
M  V30 1804 O 176.566 -0.0609691 2.52426 0
M  V30 1805 C 177.879 2.81851 1.04787 0
M  V30 1806 C 179.427 2.91025 1.1521 0
M  V30 1807 C 179.902 4.34032 1.46219 0
M  V30 1808 N 181.393 4.37154 1.53136 0
M  V30 1809 C 182.128 5.4484 1.78709 0
M  V30 1810 N 181.624 6.62682 2.02051 0
M  V30 1811 N 183.417 5.32324 1.80519 0
M  V30 1812 H 175.568 2.09548 -0.346892 0
M  V30 1813 H 177.831 0.943446 -0.0928074 0
M  V30 1814 H 177.537 3.50815 0.249304 0
M  V30 1815 H 177.411 3.21386 1.97461 0
M  V30 1816 H 179.798 2.22257 1.94128 0
M  V30 1817 H 179.879 2.54983 0.204281 0
M  V30 1818 H 179.523 5.03351 0.678274 0
M  V30 1819 H 179.453 4.6759 2.42212 0
M  V30 1820 H 181.944 3.52197 1.36987 0
M  V30 1821 H 182.257 7.40543 2.20943 0
M  V30 1822 H 180.602 6.65791 1.99366 0
M  V30 1823 H 183.793 4.39246 1.61805 0
M  V30 1824 H 183.966 6.16328 2.00111 0
M  V30 1825 N 177.372 -0.689602 1.41712 0
M  V30 1826 C 178.788 -1.00093 1.24312 0
M  V30 1827 C 178.988 -2.01036 0.136729 0
M  V30 1828 O 178.044 -2.47562 -0.496918 0
M  V30 1829 C 179.357 -1.51985 2.59463 0
M  V30 1830 C 180.905 -1.63838 2.66695 0
M  V30 1831 C 181.38 -2.1913 4.02177 0
M  V30 1832 N 182.871 -2.26483 4.04054 0
M  V30 1833 C 183.606 -2.70306 5.0569 0
M  V30 1834 N 183.102 -3.13691 6.17713 0
M  V30 1835 N 184.895 -2.69923 4.9305 0
M  V30 1836 H 177.046 -0.0210029 2.1239 0
M  V30 1837 H 179.309 -0.0718733 0.945272 0
M  V30 1838 H 179.015 -0.85269 3.41207 0
M  V30 1839 H 178.889 -2.50103 2.82362 0
M  V30 1840 H 181.276 -2.29664 1.85306 0
M  V30 1841 H 181.357 -0.642492 2.476 0
M  V30 1842 H 181.001 -1.53918 4.84016 0
M  V30 1843 H 180.931 -3.19482 4.18615 0
M  V30 1844 H 183.422 -1.95874 3.23174 0
M  V30 1845 H 183.735 -3.45773 6.9113 0
M  V30 1846 H 182.08 -3.11585 6.21241 0
M  V30 1847 H 185.271 -2.35382 4.04614 0
M  V30 1848 H 185.444 -3.03758 5.72394 0
M  V30 1849 N 178.85 -1.27639 -0.924453 0
M  V30 1850 C 179.798 -1.10485 -2.04685 0
M  V30 1851 C 180.792 -0.0270421 -1.69378 0
M  V30 1852 O 181.998 -0.185008 -1.79047 0
M  V30 1853 H 178.373 -0.340546 -0.670472 0
M  V30 1854 H 180.344 -2.05566 -2.16298 0
M  V30 1855 C 179.093 -0.772229 -3.39016 0
M  V30 1856 H 178.416 -1.59351 -3.66671 0
M  V30 1857 H 179.856 -0.692097 -4.18313 0
M  V30 1858 C 178.315 0.523554 -3.32807 0
M  V30 1859 O 178.845 1.55702 -3.70297 0
M  V30 1860 N 177.051 0.520363 -2.85903 0
M  V30 1861 H 176.598 -0.32107 -2.55591 0
M  V30 1862 H 176.556 1.38742 -2.82131 0
M  V30 1863 N 180.328 1.1314 -1.09713 0
M  V30 1864 C 181.577 1.83838 -0.829851 0
M  V30 1865 C 181.89 1.84599 0.646728 0
M  V30 1866 O 183.096 2.51218 1.02965 0
M  V30 1867 C 181.552 3.30069 -1.43466 0
M  V30 1868 C 181.16 3.37688 -2.94399 0
M  V30 1869 C 182.904 4.05788 -1.24645 0
M  V30 1870 C 180.811 4.78209 -3.47952 0
M  V30 1871 H 179.741 0.68877 -0.306777 0
M  V30 1872 H 182.392 1.27448 -1.3202 0
M  V30 1873 H 180.774 3.8628 -0.871996 0
M  V30 1874 H 181.948 2.91456 -3.56918 0
M  V30 1875 H 180.263 2.75436 -3.12289 0
M  V30 1876 H 182.86 5.09535 -1.62107 0
M  V30 1877 H 183.203 4.15878 -0.187357 0
M  V30 1878 H 183.736 3.55915 -1.77678 0
M  V30 1879 H 180.475 4.73311 -4.53495 0
M  V30 1880 H 179.995 5.24924 -2.90198 0
M  V30 1881 H 181.674 5.47133 -3.45332 0
M  V30 1882 N 181.806 0.884767 1.30421 0
M  V30 1883 C 183.053 0.503105 1.96151 0
M  V30 1884 C 183.381 -0.947676 1.69851 0
M  V30 1885 O 182.636 -1.68467 0.995861 0
M  V30 1886 C 182.935 0.724318 3.49983 0
M  V30 1887 C 182.601 2.15015 3.96332 0
M  V30 1888 C 181.263 2.54005 4.08699 0
M  V30 1889 C 183.615 3.07936 4.20505 0
M  V30 1890 C 180.943 3.85128 4.42599 0
M  V30 1891 C 183.295 4.3859 4.55874 0
M  V30 1892 C 181.959 4.77474 4.66449 0
M  V30 1893 H 181.229 0.184099 0.717766 0
M  V30 1894 H 183.876 1.12058 1.55291 0
M  V30 1895 H 182.181 0.0238086 3.91793 0
M  V30 1896 H 183.878 0.408617 3.98913 0
M  V30 1897 H 180.468 1.8375 3.87213 0
M  V30 1898 H 184.652 2.79033 4.10431 0
M  V30 1899 H 179.908 4.14996 4.48986 0
M  V30 1900 H 184.082 5.10629 4.7353 0
M  V30 1901 H 181.709 5.79115 4.92473 0
M  V30 1902 N 183.284 -1.43765 0.645699 0
M  V30 1903 C 184.561 -1.9541 0.0862963 0
M  V30 1904 C 184.941 -1.58725 -1.39175 0
M  V30 1905 O 184.289 -0.868581 -2.11348 0
M  V30 1906 C 184.499 -3.47488 0.324565 0
M  V30 1907 C 185.847 -4.24001 0.225497 0
M  V30 1908 O 186.871 -3.55274 0.256715 0
M  V30 1909 O 185.73 -5.46313 0.142801 0
M  V30 1910 H 182.824 -0.826882 -0.0139483 0
M  V30 1911 H 185.37 -1.53743 0.718415 0
M  V30 1912 H 184.142 -3.67289 1.3496 0
M  V30 1913 H 183.765 -3.96135 -0.340987 0
M  V30 1914 N 184.763 -0.387143 -1.52771 0
M  V30 1915 C 185.693 0.440551 -2.29306 0
M  V30 1916 C 186.674 1.06535 -1.32606 0
M  V30 1917 O 187.859 1.07853 -1.61497 0
M  V30 1918 C 184.989 1.56919 -3.09829 0
M  V30 1919 C 183.943 1.07054 -4.14395 0
M  V30 1920 C 183.269 2.29109 -4.83129 0
M  V30 1921 C 184.569 0.140015 -5.22112 0
M  V30 1922 H 186.263 -0.198026 -2.98744 0
M  V30 1923 H 183.809 -0.09668 -1.43675 0
M  V30 1924 H 185.762 2.15503 -3.62128 0
M  V30 1925 H 184.486 2.23532 -2.3812 0
M  V30 1926 H 183.145 0.507247 -3.63074 0
M  V30 1927 H 182.793 2.94227 -4.0797 0
M  V30 1928 H 182.493 1.96406 -5.53804 0
M  V30 1929 H 184.017 2.88339 -5.38231 0
M  V30 1930 H 185.431 0.633978 -5.69784 0
M  V30 1931 H 183.828 -0.0971485 -6.00021 0
M  V30 1932 H 184.898 -0.811711 -4.78058 0
M  V30 1933 N 186.241 1.57166 -0.116904 0
M  V30 1934 C 187.466 1.999 0.55271 0
M  V30 1935 C 187.891 0.996039 1.59564 0
M  V30 1936 O 187.249 -0.032556 1.81271 0
M  V30 1937 C 187.297 3.4152 1.15742 0
M  V30 1938 O 186.401 3.44106 2.27299 0
M  V30 1939 H 185.742 0.649447 0.138258 0
M  V30 1940 H 188.272 2.03573 -0.204759 0
M  V30 1941 H 188.282 3.79684 1.49346 0
M  V30 1942 H 186.957 4.14034 0.393493 0
M  V30 1943 H 185.534 3.17759 1.9515 0
M  V30 1944 N 187.719 -0.156864 1.56817 0
M  V30 1945 C 188.682 -1.17781 1.96622 0
M  V30 1946 C 189.682 -1.36401 0.851555 0
M  V30 1947 O 190.872 -1.33561 1.11836 0
M  V30 1948 C 188.004 -2.54008 2.27361 0
M  V30 1949 H 189.197 -0.836564 2.87996 0
M  V30 1950 H 186.75 -0.39985 1.51099 0
M  V30 1951 H 187.485 -2.9312 1.38748 0
M  V30 1952 H 187.27 -2.41856 3.08623 0
M  V30 1953 H 188.76 -3.27558 2.59029 0
M  V30 1954 N 189.197 -1.51736 -0.425897 0
M  V30 1955 C 190.608 -1.5732 -1.00536 0
M  V30 1956 C 190.959 -0.403537 -1.92005 0
M  V30 1957 O 190.084 0.478256 -2.11049 0
M  V30 1958 C 190.679 -2.85119 -1.8301 0
M  V30 1959 C 189.238 -2.93236 -2.35987 0
M  V30 1960 C 188.385 -2.52098 -1.15508 0
M  V30 1961 H 191.336 -1.57348 -0.206739 0
M  V30 1962 H 191.357 -2.69526 -2.68581 0
M  V30 1963 H 190.869 -3.7023 -1.16411 0
M  V30 1964 H 188.97 -2.12581 -3.06007 0
M  V30 1965 H 189.083 -3.9713 -2.68001 0
M  V30 1966 H 187.447 -2.05558 -1.50393 0
M  V30 1967 H 188.23 -3.39565 -0.505014 0
M  V30 1968 N 190.675 0.682077 -1.42076 0
M  V30 1969 C 191.585 1.82535 -1.47371 0
M  V30 1970 C 192.601 1.7017 -0.363079 0
M  V30 1971 O 193.777 1.91848 -0.612875 0
M  V30 1972 C 190.842 3.18624 -1.36674 0
M  V30 1973 C 189.903 3.42999 -2.58167 0
M  V30 1974 C 189.136 4.72595 -2.4797 0
M  V30 1975 O 189.359 5.50006 -1.5116 0
M  V30 1976 O 188.293 4.98054 -3.37974 0
M  V30 1977 H 192.119 1.81023 -2.43853 0
M  V30 1978 H 189.704 0.836887 -1.2376 0
M  V30 1979 H 191.586 3.99847 -1.33043 0
M  V30 1980 H 190.261 3.20789 -0.433138 0
M  V30 1981 H 189.168 2.61653 -2.67373 0
M  V30 1982 H 190.501 3.45659 -3.50401 0
M  V30 1983 N 192.153 1.28127 0.917671 0
M  V30 1984 C 193.1 1.11717 2.0196 0
M  V30 1985 C 194.07 0.0153929 1.66093 0
M  V30 1986 O 195.255 0.179596 1.89953 0
M  V30 1987 C 192.395 0.780927 3.36148 0
M  V30 1988 C 191.508 1.96135 3.84909 0
M  V30 1989 C 190.643 1.56609 5.0759 0
M  V30 1990 C 189.682 2.71339 5.48673 0
M  V30 1991 N 188.819 2.32332 6.62545 0
M  V30 1992 H 193.659 2.06003 2.15329 0
M  V30 1993 H 191.196 1.02535 1.05475 0
M  V30 1994 H 193.154 0.56675 4.13333 0
M  V30 1995 H 191.784 -0.124998 3.22558 0
M  V30 1996 H 190.836 2.28777 3.03916 0
M  V30 1997 H 192.148 2.82165 4.1132 0
M  V30 1998 H 191.302 1.31374 5.92305 0
M  V30 1999 H 190.041 0.677014 4.82978 0
M  V30 2000 H 189.046 2.97276 4.62501 0
M  V30 2001 H 190.271 3.60882 5.75274 0
M  V30 2002 H 188.217 1.45889 6.39572 0
M  V30 2003 H 188.134 3.11899 6.88662 0
M  V30 2004 H 189.402 2.10371 7.50576 0
M  V30 2005 N 193.631 -1.12557 1.10312 0
M  V30 2006 C 194.908 -1.80363 0.756878 0
M  V30 2007 C 195.288 -1.97067 -0.756824 0
M  V30 2008 O 194.636 -1.54601 -1.68259 0
M  V30 2009 C 194.846 -3.14812 1.50647 0
M  V30 2010 C 196.194 -3.90029 1.67817 0
M  V30 2011 O 197.218 -3.24464 1.46974 0
M  V30 2012 O 196.077 -5.07652 2.02365 0
M  V30 2013 H 193.171 -0.780667 0.272926 0
M  V30 2014 H 195.717 -1.19404 1.20586 0
M  V30 2015 H 194.489 -2.97936 2.53672 0
M  V30 2016 H 194.112 -3.83478 1.05026 0
M  V30 2017 N 195.109 -0.891671 -1.2995 0
M  V30 2018 C 196.056 -0.361736 -2.27948 0
M  V30 2019 C 197.026 0.551761 -1.56668 0
M  V30 2020 O 198.211 0.478736 -1.84696 0
M  V30 2021 C 195.351 0.411825 -3.42634 0
M  V30 2022 C 194.464 -0.531651 -4.28716 0
M  V30 2023 C 193.599 0.258167 -5.30572 0
M  V30 2024 C 192.638 -0.680349 -6.08307 0
M  V30 2025 N 191.775 0.0745613 -7.0206 0
M  V30 2026 H 196.615 -1.20254 -2.72659 0
M  V30 2027 H 194.152 -0.604352 -1.34112 0
M  V30 2028 H 196.11 0.876304 -4.07893 0
M  V30 2029 H 194.74 1.21715 -2.98974 0
M  V30 2030 H 193.792 -1.11463 -3.63703 0
M  V30 2031 H 195.104 -1.25038 -4.82874 0
M  V30 2032 H 194.258 0.784204 -6.0161 0
M  V30 2033 H 192.997 1.01008 -4.77126 0
M  V30 2034 H 192.002 -1.21796 -5.3614 0
M  V30 2035 H 193.227 -1.43145 -6.63842 0
M  V30 2036 H 191.173 0.808883 -6.50994 0
M  V30 2037 H 191.09 -0.584409 -7.53738 0
M  V30 2038 H 192.358 0.581123 -7.77331 0
M  V30 2039 N 196.587 1.43421 -0.653314 0
M  V30 2040 C 197.834 2.01812 -0.166745 0
M  V30 2041 C 198.162 1.51535 1.21931 0
M  V30 2042 O 197.417 0.698975 1.82792 0
M  V30 2043 C 197.716 3.57176 -0.126623 0
M  V30 2044 C 197.382 4.26798 -1.45444 0
M  V30 2045 C 196.044 4.45534 -1.81805 0
M  V30 2046 C 198.396 4.66225 -2.32989 0
M  V30 2047 C 195.724 5.00961 -3.05377 0
M  V30 2048 C 198.076 5.23021 -3.55853 0
M  V30 2049 C 196.74 5.39973 -3.9241 0
M  V30 2050 H 196.01 0.738484 -0.0610162 0
M  V30 2051 H 198.657 1.71896 -0.84404 0
M  V30 2052 H 196.962 3.86634 0.634123 0
M  V30 2053 H 198.659 4.00112 0.266723 0
M  V30 2054 H 195.249 4.12561 -1.16153 0
M  V30 2055 H 199.433 4.51443 -2.06187 0
M  V30 2056 H 194.689 5.12271 -3.3375 0
M  V30 2057 H 198.863 5.52518 -4.23907 0
M  V30 2058 H 196.49 5.82687 -4.88242 0
M  V30 2059 N 198.065 0.39524 1.52563 0
M  V30 2060 C 199.312 -0.185044 2.01653 0
M  V30 2061 C 199.64 -1.46317 1.28146 0
M  V30 2062 O 198.895 -1.9213 0.372074 0
M  V30 2063 C 199.194 -0.493444 3.53977 0
M  V30 2064 C 198.86 0.69384 4.4553 0
M  V30 2065 C 197.522 1.01954 4.70275 0
M  V30 2066 C 199.874 1.48785 4.99512 0
M  V30 2067 C 197.202 2.14069 5.46252 0
M  V30 2068 C 199.554 2.59965 5.76716 0
M  V30 2069 C 198.218 2.93037 5.99738 0
M  V30 2070 H 197.488 -0.0677123 0.7379 0
M  V30 2071 H 200.135 0.533807 1.8391 0
M  V30 2072 H 198.44 -1.29369 3.69825 0
M  V30 2073 H 200.137 -0.955163 3.89458 0
M  V30 2074 H 196.727 0.429987 4.26438 0
M  V30 2075 H 200.911 1.24946 4.80315 0
M  V30 2076 H 196.167 2.40056 5.62302 0
M  V30 2077 H 200.341 3.21887 6.17545 0
M  V30 2078 H 197.968 3.8003 6.58393 0
M  V30 2079 N 199.544 -1.57102 0.125237 0
M  V30 2080 C 200.507 -2.14471 -0.80838 0
M  V30 2081 C 201.507 -1.0811 -1.19033 0
M  V30 2082 O 202.697 -1.33856 -1.11482 0
M  V30 2083 C 199.829 -2.69005 -2.09402 0
M  V30 2084 H 201.022 -2.98297 -0.309696 0
M  V30 2085 H 198.575 -1.55807 -0.124051 0
M  V30 2086 H 199.31 -1.88785 -2.63687 0
M  V30 2087 H 199.095 -3.46799 -1.82957 0
M  V30 2088 H 200.585 -3.13278 -2.76128 0
M  V30 2089 N 201.022 0.148545 -1.56898 0
M  V30 2090 C 202.252 0.875118 -1.8715 0
M  V30 2091 C 202.66 1.75322 -0.711262 0
M  V30 2092 O 202.003 1.80745 0.328151 0
M  V30 2093 C 202.065 1.7844 -3.12089 0
M  V30 2094 C 201.729 1.08361 -4.43967 0
M  V30 2095 C 202.726 0.438247 -5.1805 0
M  V30 2096 C 200.411 1.07358 -4.90693 0
M  V30 2097 C 202.405 -0.20779 -6.37061 0
M  V30 2098 C 200.092 0.42373 -6.09629 0
M  V30 2099 C 201.09 -0.215829 -6.82659 0
M  V30 2100 O 200.778 -0.855378 -7.99336 0
M  V30 2101 H 200.51 0.258504 -0.624621 0
M  V30 2102 H 203.064 0.14652 -2.04877 0
M  V30 2103 H 201.294 2.55389 -2.90367 0
M  V30 2104 H 202.983 2.38279 -3.286 0
M  V30 2105 H 203.749 0.437817 -4.8302 0
M  V30 2106 H 199.628 1.5608 -4.33774 0
M  V30 2107 H 203.172 -0.70758 -6.94002 0
M  V30 2108 H 199.069 0.421822 -6.4412 0
M  V30 2109 H 199.837 -0.756892 -8.14993 0
M  V30 2110 N 202.5 1.5196 0.417844 0
M  V30 2111 C 203.43 1.77634 1.51554 0
M  V30 2112 C 204.411 0.626918 1.58126 0
M  V30 2113 O 205.596 0.871632 1.7354 0
M  V30 2114 C 202.726 1.91911 2.8946 0
M  V30 2115 C 201.68 3.07463 2.97743 0
M  V30 2116 C 201.006 3.06951 4.37819 0
M  V30 2117 C 202.306 4.47082 2.70027 0
M  V30 2118 H 204 2.6955 1.3032 0
M  V30 2119 H 201.546 1.29706 0.625492 0
M  V30 2120 H 203.499 2.08455 3.6623 0
M  V30 2121 H 202.223 0.966598 3.11969 0
M  V30 2122 H 200.882 2.90656 2.23416 0
M  V30 2123 H 200.53 2.09438 4.57323 0
M  V30 2124 H 200.23 3.84556 4.44286 0
M  V30 2125 H 201.754 3.25613 5.16535 0
M  V30 2126 H 203.168 4.6414 3.36522 0
M  V30 2127 H 201.565 5.2654 2.87881 0
M  V30 2128 H 202.635 4.55777 1.65514 0
M  V30 2129 N 203.978 -0.674533 1.42435 0
M  V30 2130 C 205.206 -1.46283 1.46317 0
M  V30 2131 C 205.621 -1.88653 0.0745836 0
M  V30 2132 O 204.978 -1.58151 -0.91074 0
M  V30 2133 C 205.029 -2.71178 2.3905 0
M  V30 2134 O 204.75 -2.30586 3.72507 0
M  V30 2135 C 206.251 -3.64738 2.51955 0
M  V30 2136 H 203.471 -0.450104 0.497642 0
M  V30 2137 H 206.015 -0.828792 1.86953 0
M  V30 2138 H 204.17 -3.3077 2.01667 0
M  V30 2139 H 204.584 -3.11241 4.22172 0
M  V30 2140 H 206.058 -4.49096 3.20962 0
M  V30 2141 H 206.535 -4.10656 1.55752 0
M  V30 2142 H 207.141 -3.11038 2.90061 0
M  V30 2143 N 205.456 -1.28612 -0.910864 0
M  V30 2144 C 206.386 -1.15326 -2.03032 0
M  V30 2145 C 207.367 -0.0502924 -1.70026 0
M  V30 2146 O 208.552 -0.227797 -1.92859 0
M  V30 2147 C 205.682 -0.817343 -3.37545 0
M  V30 2148 C 204.636 -1.8754 -3.84724 0
M  V30 2149 C 203.962 -1.39305 -5.16235 0
M  V30 2150 C 205.262 -3.28244 -4.06267 0
M  V30 2151 H 206.956 -2.08975 -2.14406 0
M  V30 2152 H 204.502 -1.00612 -1.03021 0
M  V30 2153 H 206.455 -0.711151 -4.15356 0
M  V30 2154 H 205.179 0.154846 -3.26233 0
M  V30 2155 H 203.838 -1.97079 -3.09121 0
M  V30 2156 H 203.486 -0.409846 -5.01328 0
M  V30 2157 H 203.186 -2.10057 -5.48771 0
M  V30 2158 H 204.71 -1.30014 -5.96598 0
M  V30 2159 H 206.124 -3.21611 -4.74594 0
M  V30 2160 H 204.521 -3.96855 -4.5014 0
M  V30 2161 H 205.591 -3.72048 -3.10979 0
M  V30 2162 N 206.934 1.1197 -1.10907 0
M  V30 2163 C 207.897 2.16031 -0.765707 0
M  V30 2164 C 208.897 1.59393 0.212235 0
M  V30 2165 O 210.087 1.74196 -0.0115441 0
M  V30 2166 C 207.219 3.40632 -0.135053 0
M  V30 2167 H 208.412 2.47919 -1.68748 0
M  V30 2168 H 205.965 1.27061 -0.910226 0
M  V30 2169 H 206.7 3.14348 0.797218 0
M  V30 2170 H 206.485 3.8302 -0.838937 0
M  V30 2171 H 207.975 4.17505 0.0892469 0
M  V30 2172 N 208.412 0.89855 1.29475 0
M  V30 2173 C 209.359 0.373819 2.27753 0
M  V30 2174 C 210.329 -0.543444 1.56958 0
M  V30 2175 O 211.514 -0.468934 1.84948 0
M  V30 2176 C 208.654 -0.393648 3.42848 0
M  V30 2177 C 207.767 0.554379 4.28428 0
M  V30 2178 C 206.902 -0.230026 5.30702 0
M  V30 2179 C 205.941 0.712599 6.07938 0
M  V30 2180 N 205.078 -0.0373283 7.0209 0
M  V30 2181 H 209.918 1.21699 2.72017 0
M  V30 2182 H 207.455 0.611456 1.33789 0
M  V30 2183 H 209.413 -0.85466 4.08352 0
M  V30 2184 H 208.043 -1.20128 2.99615 0
M  V30 2185 H 207.095 1.13391 3.63107 0
M  V30 2186 H 208.407 1.27597 4.82204 0
M  V30 2187 H 207.561 -0.752288 6.02018 0
M  V30 2188 H 206.3 -0.984758 4.77654 0
M  V30 2189 H 205.305 1.24637 5.35486 0
M  V30 2190 H 206.53 1.46664 6.63074 0
M  V30 2191 H 204.476 -0.774348 6.51414 0
M  V30 2192 H 204.393 0.624374 7.53417 0
M  V30 2193 H 205.661 -0.539891 7.77628 0
M  V30 2194 N 209.89 -1.43072 0.660911 0
M  V30 2195 C 210.84 -2.27948 -0.04847 0
M  V30 2196 C 211.824 -1.40325 -0.787246 0
M  V30 2197 O 213.016 -1.63893 -0.668446 0
M  V30 2198 C 210.145 -3.28143 -1.00881 0
M  V30 2199 C 209.231 -4.23252 -0.268108 0
M  V30 2200 N 209.622 -5.00656 0.719528 0
M  V30 2201 C 207.92 -4.43092 -0.508493 0
M  V30 2202 C 208.621 -5.70019 1.15988 0
M  V30 2203 N 207.597 -5.41364 0.492584 0
M  V30 2204 H 211.399 -2.85213 0.709279 0
M  V30 2205 H 208.913 -1.54869 0.488822 0
M  V30 2206 H 210.91 -3.87736 -1.53188 0
M  V30 2207 H 209.57 -2.7244 -1.76654 0
M  V30 2208 H 210.581 -5.06115 1.09855 0
M  V30 2209 H 207.258 -3.98449 -1.24679 0
M  V30 2210 H 208.648 -6.4214 1.97751 0
M  V30 2211 N 211.368 -0.403325 -1.52352 0
M  V30 2212 C 212.596 0.174012 -2.06167 0
M  V30 2213 C 213.011 1.39347 -1.27388 0
M  V30 2214 O 212.368 1.79597 -0.324201 0
M  V30 2215 C 212.419 0.530223 -3.5759 0
M  V30 2216 O 212.14 -0.640806 -4.33388 0
M  V30 2217 C 213.641 1.16192 -4.27802 0
M  V30 2218 H 210.861 0.0229464 -0.670608 0
M  V30 2219 H 213.405 -0.572604 -1.9632 0
M  V30 2220 H 211.56 1.22673 -3.67464 0
M  V30 2221 H 211.974 -0.344851 -5.23365 0
M  V30 2222 H 213.448 1.36141 -5.34948 0
M  V30 2223 H 213.925 2.13335 -3.83907 0
M  V30 2224 H 214.531 0.505775 -4.22282 0
M  V30 2225 N 212.846 1.57033 -0.133567 0
M  V30 2226 C 214.095 1.94861 0.520768 0
M  V30 2227 C 214.408 1.02012 1.66892 0
M  V30 2228 O 215.614 1.29365 2.38699 0
M  V30 2229 C 214.07 3.46362 0.977809 0
M  V30 2230 C 213.678 4.47773 -0.142674 0
M  V30 2231 C 215.422 3.93083 1.60269 0
M  V30 2232 C 213.329 5.90468 0.331883 0
M  V30 2233 H 212.259 0.727453 0.198315 0
M  V30 2234 H 214.91 1.82227 -0.215759 0
M  V30 2235 H 213.292 3.54282 1.7692 0
M  V30 2236 H 214.466 4.51536 -0.919317 0
M  V30 2237 H 212.781 4.10891 -0.675124 0
M  V30 2238 H 215.378 4.97121 1.96914 0
M  V30 2239 H 215.721 3.33876 2.48662 0
M  V30 2240 H 216.254 3.88025 0.876453 0
M  V30 2241 H 212.993 6.53463 -0.516341 0
M  V30 2242 H 212.513 5.90094 1.07469 0
M  V30 2243 H 214.192 6.42179 0.788332 0
M  V30 2244 N 214.325 -0.140222 1.56975 0
M  V30 2245 C 215.55 -0.870414 1.88251 0
M  V30 2246 C 215.975 -1.73637 0.723312 0
M  V30 2247 O 215.333 -1.78329 -0.32689 0
M  V30 2248 C 215.381 -1.69737 3.18154 0
M  V30 2249 O 214.485 -2.80229 3.02565 0
M  V30 2250 H 213.826 -0.242025 0.61832 0
M  V30 2251 H 216.356 -0.128999 2.04193 0
M  V30 2252 H 216.366 -2.09099 3.50345 0
M  V30 2253 H 215.041 -1.06152 4.02125 0
M  V30 2254 H 213.618 -2.44224 2.81796 0
M  V30 2255 N 215.803 -1.52179 -0.40978 0
M  V30 2256 C 217.028 -1.70347 -1.18308 0
M  V30 2257 C 217.453 -0.411887 -1.83535 0
M  V30 2258 O 216.811 0.630587 -1.6998 0
M  V30 2259 C 216.859 -2.83977 -2.22238 0
M  V30 2260 O 215.963 -2.495 -3.28365 0
M  V30 2261 H 215.304 -0.567103 -0.345384 0
M  V30 2262 H 217.834 -1.98879 -0.480445 0
M  V30 2263 H 217.844 -3.0887 -2.66577 0
M  V30 2264 H 216.519 -3.77685 -1.74146 0
M  V30 2265 H 215.096 -2.35277 -2.89308 0
M  V30 2266 N 217.281 0.66697 -1.42791 0
M  V30 2267 C 218.558 1.4234 -1.34159 0
M  V30 2268 C 218.938 2.11093 0.0172729 0
M  V30 2269 O 218.286 2.03808 1.03318 0
M  V30 2270 C 218.496 2.41942 -2.51526 0
M  V30 2271 C 219.844 3.06353 -2.93995 0
M  V30 2272 O 220.868 2.52269 -2.51473 0
M  V30 2273 O 219.727 4.04376 -3.67617 0
M  V30 2274 H 216.821 0.635277 -0.529483 0
M  V30 2275 H 219.367 0.695034 -1.54814 0
M  V30 2276 H 218.139 1.89991 -3.42081 0
M  V30 2277 H 217.762 3.22249 -2.32898 0
M  V30 2278 N 218.759 1.29093 0.90403 0
M  V30 2279 C 219.989 1.19516 1.68522 0
M  V30 2280 C 220.397 -0.24738 1.87576 0
M  V30 2281 O 219.74 -1.17798 1.40959 0
M  V30 2282 C 219.802 1.83249 3.0929 0
M  V30 2283 C 219.466 3.32531 3.13484 0
M  V30 2284 C 220.463 4.28821 2.93953 0
M  V30 2285 C 218.148 3.73656 3.35688 0
M  V30 2286 C 220.142 5.64212 2.96553 0
M  V30 2287 C 217.829 5.0917 3.37919 0
M  V30 2288 C 218.827 6.04258 3.18373 0
M  V30 2289 O 218.515 7.37298 3.20385 0
M  V30 2290 H 218.247 0.415467 0.533257 0
M  V30 2291 H 220.801 1.70912 1.13922 0
M  V30 2292 H 219.031 1.26358 3.65473 0
M  V30 2293 H 220.72 1.68054 3.69476 0
M  V30 2294 H 221.486 3.98382 2.76616 0
M  V30 2295 H 217.365 3.00101 3.49943 0
M  V30 2296 H 220.909 6.38407 2.81216 0
M  V30 2297 H 216.806 5.39256 3.54787 0
M  V30 2298 H 217.574 7.46048 3.36681 0
M  V30 2299 N 220.237 -1.11381 1.11499 0
M  V30 2300 C 221.483 -1.83403 0.865512 0
M  V30 2301 C 221.816 -1.84459 -0.607329 0
M  V30 2302 O 221.091 -1.29811 -1.44842 0
M  V30 2303 C 221.374 -3.30552 1.42855 0
M  V30 2304 C 221.227 -3.37886 2.96906 0
M  V30 2305 C 222.546 -4.26643 1.08 0
M  V30 2306 H 219.665 -0.665879 0.31587 0
M  V30 2307 H 222.307 -1.30601 1.37998 0
M  V30 2308 H 220.457 -3.75648 0.990985 0
M  V30 2309 H 222.129 -3.01343 3.49271 0
M  V30 2310 H 220.372 -2.78088 3.32941 0
M  V30 2311 H 221.043 -4.41458 3.31389 0
M  V30 2312 H 223.519 -3.89729 1.45775 0
M  V30 2313 H 222.395 -5.27986 1.50072 0
M  V30 2314 H 222.656 -4.42099 -0.00915037 0
M  V30 2315 N 221.715 -0.905404 -1.28997 0
M  V30 2316 C 222.964 -0.530191 -1.94607 0
M  V30 2317 C 223.277 0.929185 -1.72121 0
M  V30 2318 O 224.483 1.41218 -2.31883 0
M  V30 2319 C 222.939 -0.897333 -3.48534 0
M  V30 2320 C 222.547 -2.37587 -3.79811 0
M  V30 2321 C 224.291 -0.592304 -4.20347 0
M  V30 2322 C 222.198 -2.68357 -5.27009 0
M  V30 2323 H 221.128 -0.194558 -0.728466 0
M  V30 2324 H 223.779 -1.10318 -1.46636 0
M  V30 2325 H 222.161 -0.253214 -3.9519 0
M  V30 2326 H 223.335 -3.06602 -3.43994 0
M  V30 2327 H 221.65 -2.6505 -3.2115 0
M  V30 2328 H 224.247 -0.798975 -5.28697 0
M  V30 2329 H 224.59 0.469474 -4.13644 0
M  V30 2330 H 225.123 -1.19452 -3.79442 0
M  V30 2331 H 221.862 -3.73355 -5.38782 0
M  V30 2332 H 221.382 -2.03971 -5.64053 0
M  V30 2333 H 223.061 -2.54922 -5.94663 0
M  V30 2334 N 223.193 1.4272 -0.668489 0
M  V30 2335 C 224.604 1.84793 -0.266151 0
M  V30 2336 C 224.955 1.55959 1.19043 0
M  V30 2337 O 224.08 1.01622 1.91055 0
M  V30 2338 C 224.675 3.35436 -0.476271 0
M  V30 2339 C 223.234 3.76182 -0.128113 0
M  V30 2340 C 222.381 2.66344 -0.771777 0
M  V30 2341 H 225.332 1.32656 -0.871098 0
M  V30 2342 H 225.353 3.79515 0.273561 0
M  V30 2343 H 224.865 3.5639 -1.53647 0
M  V30 2344 H 222.966 3.60836 0.928891 0
M  V30 2345 H 223.079 4.75766 -0.564231 0
M  V30 2346 H 221.443 2.53885 -0.203652 0
M  V30 2347 H 222.226 2.90123 -1.83531 0
M  V30 2348 N 224.671 0.411399 1.52136 0
M  V30 2349 C 225.92 -0.165009 2.01024 0
M  V30 2350 C 226.233 -1.4603 1.30133 0
M  V30 2351 O 227.439 -2.1181 1.69849 0
M  V30 2352 C 225.895 -0.344618 3.58246 0
M  V30 2353 C 225.503 0.938716 4.38055 0
M  V30 2354 C 227.247 -0.876195 4.15359 0
M  V30 2355 C 225.154 0.726172 5.86925 0
M  V30 2356 H 224.084 -0.0654407 0.751155 0
M  V30 2357 H 226.735 0.537192 1.75461 0
M  V30 2358 H 225.117 -1.10921 3.80148 0
M  V30 2359 H 226.291 1.70963 4.27912 0
M  V30 2360 H 224.606 1.39688 3.92271 0
M  V30 2361 H 227.203 -1.05128 5.24263 0
M  V30 2362 H 227.546 -1.85152 3.7286 0
M  V30 2363 H 228.079 -0.170607 3.97434 0
M  V30 2364 H 224.818 1.67312 6.33788 0
M  V30 2365 H 224.338 -0.00540283 5.998 0
M  V30 2366 H 226.017 0.369231 6.45946 0
M  V30 2367 N 226.149 -1.5696 0.141893 0
M  V30 2368 C 227.397 -1.95573 -0.509484 0
M  V30 2369 C 227.718 -1.02746 -1.65736 0
M  V30 2370 O 226.988 -0.0880311 -1.95702 0
M  V30 2371 H 225.568 -0.722115 -0.191205 0
M  V30 2372 H 228.23 -1.93697 0.216196 0
M  V30 2373 H 227.326 -2.99171 -0.889 0
M  V30 2374 N 227.627 0.131896 -1.57047 0
M  V30 2375 C 228.855 0.856461 -1.88341 0
M  V30 2376 C 229.27 1.74042 -0.731757 0
M  V30 2377 O 228.627 1.80051 0.297945 0
M  V30 2378 C 228.678 1.70064 -3.18999 0
M  V30 2379 O 228.399 0.852278 -4.2973 0
M  V30 2380 C 229.9 2.53148 -3.63911 0
M  V30 2381 H 227.12 0.246885 -0.62393 0
M  V30 2382 H 229.664 0.120152 -2.04147 0
M  V30 2383 H 227.819 2.38984 -3.04902 0
M  V30 2384 H 228.233 1.43329 -5.04537 0
M  V30 2385 H 229.707 3.07931 -4.58129 0
M  V30 2386 H 230.184 3.29901 -2.89935 0
M  V30 2387 H 230.79 1.89492 -3.80753 0
M  V30 2388 N 229.106 1.52395 0.401703 0
M  V30 2389 C 230.336 1.70429 1.1678 0
M  V30 2390 C 230.744 0.416702 1.84554 0
M  V30 2391 O 230.087 -0.617697 1.73003 0
M  V30 2392 C 230.149 2.78919 2.26814 0
M  V30 2393 C 229.813 4.20437 1.79113 0
M  V30 2394 C 230.81 5.04028 1.27482 0
M  V30 2395 C 228.495 4.66704 1.85722 0
M  V30 2396 C 230.489 6.31961 0.830913 0
M  V30 2397 C 228.176 5.94625 1.40942 0
M  V30 2398 C 229.174 6.77082 0.897128 0
M  V30 2399 O 228.862 8.02607 0.455822 0
M  V30 2400 H 228.594 0.574272 0.356634 0
M  V30 2401 H 231.148 1.99767 0.477724 0
M  V30 2402 H 229.378 2.44973 2.99207 0
M  V30 2403 H 231.067 2.8548 2.88541 0
M  V30 2404 H 231.833 4.69471 1.21744 0
M  V30 2405 H 227.712 4.0262 2.24539 0
M  V30 2406 H 231.256 6.96271 0.430368 0
M  V30 2407 H 227.153 6.28688 1.46362 0
M  V30 2408 H 227.921 8.16453 0.578457 0
M  V30 2409 N 230.584 -0.659388 1.43143 0
M  V30 2410 C 231.832 -1.41654 1.44147 0
M  V30 2411 C 232.153 -1.94893 0.0645739 0
M  V30 2412 O 231.423 -1.74044 -0.899198 0
M  V30 2413 H 230.003 -0.525708 0.530697 0
M  V30 2414 H 232.665 -0.778097 1.78694 0
M  V30 2415 H 231.761 -2.26195 2.1504 0
M  V30 2416 N 232.062 -1.29571 -0.897171 0
M  V30 2417 C 232.994 -1.10724 -2.00681 0
M  V30 2418 C 234.007 -0.0540026 -1.6271 0
M  V30 2419 O 235.196 -0.298783 -1.75982 0
M  V30 2420 C 232.296 -0.663912 -3.32333 0
M  V30 2421 C 231.469 -1.79622 -3.98816 0
M  V30 2422 C 230.528 -1.34349 -5.0876 0
M  V30 2423 O 229.554 -2.04864 -5.31055 0
M  V30 2424 N 230.756 -0.215764 -5.80099 0
M  V30 2425 H 233.521 -2.06291 -2.17403 0
M  V30 2426 H 231.082 -1.21544 -1.06951 0
M  V30 2427 H 233.074 -0.344295 -4.03233 0
M  V30 2428 H 231.644 0.199375 -3.11964 0
M  V30 2429 H 230.864 -2.28459 -3.21248 0
M  V30 2430 H 232.152 -2.55535 -4.39976 0
M  V30 2431 H 231.55 0.372091 -5.64475 0
M  V30 2432 H 230.107 0.0444707 -6.51785 0
M  V30 2433 N 233.54 1.10788 -1.12088 0
M  V30 2434 C 234.473 2.16237 -0.729168 0
M  V30 2435 C 235.451 1.60207 0.277921 0
M  V30 2436 O 236.635 1.87707 0.172737 0
M  V30 2437 C 233.762 3.38609 -0.0786848 0
M  V30 2438 C 232.808 4.13322 -1.05201 0
M  V30 2439 S 233.641 4.69371 -2.57781 0
M  V30 2440 C 234.797 5.95058 -1.94053 0
M  V30 2441 H 235.03 2.4913 -1.62239 0
M  V30 2442 H 232.563 1.22519 -0.939603 0
M  V30 2443 H 234.521 4.09473 0.290254 0
M  V30 2444 H 233.182 3.03962 0.791593 0
M  V30 2445 H 232.375 5.01051 -0.544433 0
M  V30 2446 H 231.977 3.48251 -1.36371 0
M  V30 2447 H 234.269 6.65278 -1.28107 0
M  V30 2448 H 235.212 6.50472 -2.79807 0
M  V30 2449 H 235.62 5.46918 -1.39787 0
M  V30 2450 N 235.018 0.912232 1.28515 0
M  V30 2451 C 235.965 0.397954 2.27343 0
M  V30 2452 C 236.935 -0.526766 1.57526 0
M  V30 2453 O 238.12 -0.449292 1.85435 0
M  V30 2454 C 235.26 -0.357263 3.43246 0
M  V30 2455 C 234.373 0.599788 4.27816 0
M  V30 2456 C 233.508 -0.173725 5.30916 0
M  V30 2457 C 232.547 0.777039 6.07148 0
M  V30 2458 N 231.684 0.0371398 7.0209 0
M  V30 2459 H 236.524 1.24577 2.70711 0
M  V30 2460 H 234.061 0.625612 1.33133 0
M  V30 2461 H 236.019 -0.8113 4.09236 0
M  V30 2462 H 234.649 -1.16943 3.00872 0
M  V30 2463 H 233.701 1.17235 3.61884 0
M  V30 2464 H 235.013 1.32704 4.80823 0
M  V30 2465 H 234.167 -0.688394 6.02782 0
M  V30 2466 H 232.906 -0.934041 4.78672 0
M  V30 2467 H 231.911 1.3031 5.34134 0
M  V30 2468 H 233.136 1.53689 6.61481 0
M  V30 2469 H 231.082 -0.705213 6.52198 0
M  V30 2470 H 230.999 0.704249 7.52713 0
M  V30 2471 H 232.267 -0.457383 7.78157 0
M  V30 2472 N 236.496 -1.42363 0.676048 0
M  V30 2473 C 237.444 -2.32596 -0.0131507 0
M  V30 2474 C 238.438 -1.49891 -0.789238 0
M  V30 2475 O 239.644 -1.65955 -0.697061 0
M  V30 2476 H 236.019 -0.751647 -0.0230481 0
M  V30 2477 H 237.99 -2.88421 0.765243 0
M  V30 2478 C 236.739 -3.34479 -0.949702 0
M  V30 2479 H 236.062 -3.98158 -0.361938 0
M  V30 2480 H 237.502 -4.00199 -1.4006 0
M  V30 2481 C 235.961 -2.66838 -2.05667 0
M  V30 2482 O 236.491 -2.50124 -3.14326 0
M  V30 2483 N 234.697 -2.25843 -1.82875 0
M  V30 2484 H 234.244 -2.39637 -0.945085 0
M  V30 2485 H 234.202 -1.80918 -2.5713 0
M  V30 2486 N 237.974 -0.419461 -1.51915 0
M  V30 2487 C 239.222 0.152637 -2.01523 0
M  V30 2488 C 239.543 1.44762 -1.30649 0
M  V30 2489 O 238.813 1.90997 -0.435535 0
M  V30 2490 H 237.393 0.0593966 -0.744635 0
M  V30 2491 H 240.055 -0.558073 -1.86739 0
M  V30 2492 H 239.151 0.341369 -3.10227 0
M  V30 2493 N 239.452 1.56882 -0.150215 0
M  V30 2494 C 240.677 2.01027 0.510184 0
M  V30 2495 C 241.102 1.02966 1.57415 0
M  V30 2496 O 240.46 0.00590158 1.81299 0
M  V30 2497 C 240.508 3.43899 1.08472 0
M  V30 2498 O 239.612 3.4885 2.19948 0
M  V30 2499 H 238.953 0.652233 0.124451 0
M  V30 2500 H 241.483 2.03093 -0.247894 0
M  V30 2501 H 241.493 3.82766 1.41259 0
M  V30 2502 H 240.168 4.14776 0.305582 0
M  V30 2503 H 238.745 3.21827 1.88366 0
M  V30 2504 N 240.93 -0.123565 1.57115 0
M  V30 2505 C 242.158 -0.846461 1.88793 0
M  V30 2506 C 242.573 -1.73652 0.740976 0
M  V30 2507 O 241.93 -1.80207 -0.288393 0
M  V30 2508 C 241.981 -1.6837 3.19897 0
M  V30 2509 O 241.702 -0.829477 4.30176 0
M  V30 2510 C 243.203 -2.51214 3.65248 0
M  V30 2511 H 240.423 -0.243573 0.625231 0
M  V30 2512 H 242.967 -0.109324 2.04208 0
M  V30 2513 H 241.122 -2.37364 3.06165 0
M  V30 2514 H 241.536 -1.40651 5.0529 0
M  V30 2515 H 243.01 -3.05497 4.59756 0
M  V30 2516 H 243.487 -3.28359 2.9168 0
M  V30 2517 H 244.093 -1.8747 3.81752 0
M  V30 2518 N 242.408 -1.52605 -0.393616 0
M  V30 2519 C 243.819 -1.59417 -0.971761 0
M  V30 2520 C 244.17 -0.444173 -1.91106 0
M  V30 2521 O 243.295 0.433382 -2.12016 0
M  V30 2522 C 243.89 -2.88936 -1.76921 0
M  V30 2523 C 242.449 -2.98175 -2.29714 0
M  V30 2524 C 241.596 -2.54491 -1.10135 0
M  V30 2525 H 244.547 -1.57751 -0.173317 0
M  V30 2526 H 244.568 -2.75163 -2.62804 0
M  V30 2527 H 244.08 -3.72616 -1.08532 0
M  V30 2528 H 242.181 -2.19024 -3.01429 0
M  V30 2529 H 242.294 -4.02726 -2.59517 0
M  V30 2530 H 240.658 -2.08702 -1.45999 0
M  V30 2531 H 241.441 -3.4056 -0.432874 0
M  V30 2532 N 243.887 0.651787 -1.4349 0
M  V30 2533 C 244.82 1.77668 -1.43211 0
M  V30 2534 C 245.798 1.59931 -0.29338 0
M  V30 2535 O 246.982 1.82095 -0.487191 0
M  V30 2536 C 244.109 3.14986 -1.24505 0
M  V30 2537 C 243.155 3.51421 -2.41673 0
M  V30 2538 S 243.988 3.51234 -4.04222 0
M  V30 2539 C 245.144 4.91206 -3.87902 0
M  V30 2540 H 245.377 1.77635 -2.38397 0
M  V30 2541 H 242.91 0.824558 -1.30539 0
M  V30 2542 H 244.868 3.94237 -1.144 0
M  V30 2543 H 243.529 3.1258 -0.308651 0
M  V30 2544 H 242.722 4.51291 -2.24393 0
M  V30 2545 H 242.324 2.79585 -2.48411 0
M  V30 2546 H 244.616 5.79902 -3.50315 0
M  V30 2547 H 245.559 5.13537 -4.8753 0
M  V30 2548 H 245.967 4.64808 -3.20334 0
M  V30 2549 N 245.365 1.30045 0.890287 0
M  V30 2550 C 246.612 1.18561 1.64163 0
M  V30 2551 C 246.94 -0.260852 1.92743 0
M  V30 2552 O 246.195 -1.20376 1.54299 0
M  V30 2553 C 246.494 1.95409 2.99249 0
M  V30 2554 C 246.16 3.45066 2.90242 0
M  V30 2555 C 244.822 3.85878 2.87492 0
M  V30 2556 C 247.174 4.4039 2.78758 0
M  V30 2557 C 244.502 5.20314 2.7109 0
M  V30 2558 C 246.854 5.74928 2.63894 0
M  V30 2559 C 245.518 6.14986 2.59516 0
M  V30 2560 H 244.788 0.433846 0.600715 0
M  V30 2561 H 247.435 1.61088 1.03552 0
M  V30 2562 H 245.74 1.45501 3.63781 0
M  V30 2563 H 247.437 1.8392 3.56334 0
M  V30 2564 H 244.027 3.12631 2.93189 0
M  V30 2565 H 248.211 4.09806 2.79952 0
M  V30 2566 H 243.467 5.50449 2.66112 0
M  V30 2567 H 247.641 6.48434 2.53981 0
M  V30 2568 H 245.268 7.19104 2.46565 0
M  V30 2569 N 246.843 -1.10192 1.12674 0
M  V30 2570 C 247.791 -2.18694 0.792196 0
M  V30 2571 C 248.785 -1.67938 -0.222058 0
M  V30 2572 O 249.991 -1.79822 -0.0800074 0
M  V30 2573 H 246.366 -0.713223 0.238364 0
M  V30 2574 H 248.337 -2.44149 1.71564 0
M  V30 2575 C 247.086 -3.46682 0.265859 0
M  V30 2576 H 246.409 -3.86101 1.03761 0
M  V30 2577 H 247.849 -4.23942 0.0701128 0
M  V30 2578 C 246.308 -3.21506 -1.00675 0
M  V30 2579 O 246.838 -3.43408 -2.08408 0
M  V30 2580 N 245.044 -2.75158 -0.934692 0
M  V30 2581 H 244.591 -2.57535 -0.0578604 0
M  V30 2582 H 244.549 -2.58691 -1.7868 0
M  V30 2583 N 248.321 -0.919034 -1.28029 0
M  V30 2584 C 249.598 -0.473668 -1.89778 0
M  V30 2585 C 249.978 1.04783 -1.83259 0
M  V30 2586 O 249.326 1.8982 -1.27202 0
M  V30 2587 C 249.536 -1.00998 -3.34066 0
M  V30 2588 C 250.884 -1.06525 -4.1102 0
M  V30 2589 O 251.908 -0.958996 -3.43048 0
M  V30 2590 O 250.767 -1.22776 -5.3253 0
M  V30 2591 H 247.861 -0.15098 -0.813101 0
M  V30 2592 H 250.407 -1.01016 -1.36359 0
M  V30 2593 H 249.179 -2.05392 -3.33061 0
M  V30 2594 H 248.802 -0.454626 -3.94992 0
M  V30 2595 N 249.799 1.42003 -0.683588 0
M  V30 2596 C 251.048 2.00638 -0.206681 0
M  V30 2597 C 251.361 1.5472 1.19671 0
M  V30 2598 O 252.567 2.05833 1.77045 0
M  V30 2599 C 251.023 3.58487 -0.318632 0
M  V30 2600 C 250.631 4.1339 -1.72663 0
M  V30 2601 C 252.375 4.24384 0.0991141 0
M  V30 2602 C 250.282 5.63633 -1.79087 0
M  V30 2603 H 249.212 0.750408 -0.0735107 0
M  V30 2604 H 251.863 1.62624 -0.850048 0
M  V30 2605 H 250.245 3.94047 0.392781 0
M  V30 2606 H 251.419 3.89273 -2.46583 0
M  V30 2607 H 249.734 3.59976 -2.09299 0
M  V30 2608 H 252.331 5.34652 0.0713833 0
M  V30 2609 H 252.674 4.00505 1.13586 0
M  V30 2610 H 253.207 3.93816 -0.561599 0
M  V30 2611 H 249.946 5.92323 -2.80774 0
M  V30 2612 H 249.466 5.89714 -1.09535 0
M  V30 2613 H 251.145 6.28201 -1.5483 0
M  V30 2614 N 251.277 0.427512 1.51691 0
M  V30 2615 C 252.225 -0.403359 2.29076 0
M  V30 2616 C 253.219 -1.02962 1.34518 0
M  V30 2617 O 254.425 -0.965715 1.51901 0
M  V30 2618 H 250.8 -0.148879 0.737115 0
M  V30 2619 H 252.771 0.270295 2.97173 0
M  V30 2620 C 251.52 -1.49763 3.13794 0
M  V30 2621 H 250.843 -1.02508 3.86435 0
M  V30 2622 H 252.283 -2.05244 3.71014 0
M  V30 2623 C 250.742 -2.47536 2.28533 0
M  V30 2624 O 251.272 -3.51848 1.93819 0
M  V30 2625 N 249.478 -2.18187 1.91945 0
M  V30 2626 H 249.025 -1.33389 2.20375 0
M  V30 2627 H 248.983 -2.83848 1.35195 0
M  V30 2628 N 252.755 -1.56801 0.158532 0
M  V30 2629 C 254.004 -1.95665 -0.489702 0
M  V30 2630 C 254.317 -1.04654 -1.65248 0
M  V30 2631 O 255.523 -1.33146 -2.3661 0
M  V30 2632 C 253.979 -3.47874 -0.922582 0
M  V30 2633 C 253.587 -4.47489 0.213893 0
M  V30 2634 C 255.331 -3.95583 -1.53996 0
M  V30 2635 C 253.238 -5.90921 -0.237903 0
M  V30 2636 H 252.168 -0.730516 -0.186716 0
M  V30 2637 H 254.819 -1.81861 0.244722 0
M  V30 2638 H 253.201 -3.57051 -1.71261 0
M  V30 2639 H 254.375 -4.50017 0.991036 0
M  V30 2640 H 252.69 -4.09764 0.740407 0
M  V30 2641 H 255.287 -5.0019 -1.8898 0
M  V30 2642 H 255.63 -3.37789 -2.43319 0
M  V30 2643 H 256.163 -3.8937 -0.814611 0
M  V30 2644 H 252.902 -6.52559 0.620236 0
M  V30 2645 H 252.422 -5.91729 -0.980676 0
M  V30 2646 H 254.101 -6.43352 -0.686067 0
M  V30 2647 N 254.233 0.115231 -1.57178 0
M  V30 2648 C 255.463 0.835224 -1.88964 0
M  V30 2649 C 255.871 1.73774 -0.74829 0
M  V30 2650 O 255.214 1.81401 0.289739 0
M  V30 2651 C 255.276 1.7178 -3.15804 0
M  V30 2652 C 254.94 0.989198 -4.46166 0
M  V30 2653 C 255.937 0.328263 -5.18863 0
M  V30 2654 C 253.622 0.969256 -4.9286 0
M  V30 2655 C 255.616 -0.342873 -6.36477 0
M  V30 2656 C 253.303 0.294324 -6.10391 0
M  V30 2657 C 254.301 -0.360582 -6.82048 0
M  V30 2658 O 253.989 -1.02474 -7.97342 0
M  V30 2659 H 253.721 0.245197 -0.629964 0
M  V30 2660 H 256.275 0.10303 -2.05141 0
M  V30 2661 H 254.505 2.49173 -2.95719 0
M  V30 2662 H 256.194 2.31255 -3.33581 0
M  V30 2663 H 256.96 0.335263 -4.8384 0
M  V30 2664 H 252.839 1.46844 -4.36987 0
M  V30 2665 H 256.383 -0.854629 -6.92345 0
M  V30 2666 H 252.28 0.285099 -6.4487 0
M  V30 2667 H 253.048 -0.929594 -8.13204 0
M  V30 2668 N 255.711 1.52812 0.385517 0
M  V30 2669 C 256.988 1.5861 1.14465 0
M  V30 2670 C 257.368 0.381402 2.07626 0
M  V30 2671 O 256.716 -0.629999 2.19643 0
M  V30 2672 C 256.926 2.92664 1.90128 0
M  V30 2673 C 258.274 3.46526 2.45367 0
M  V30 2674 O 259.298 2.94562 2.0028 0
M  V30 2675 O 258.157 4.37323 3.27736 0
M  V30 2676 H 255.251 0.639855 0.523941 0
M  V30 2677 H 257.797 1.65149 0.390389 0
M  V30 2678 H 256.569 3.71788 1.22022 0
M  V30 2679 H 256.192 2.89527 2.72507 0
M  V30 2680 N 257.189 -0.644168 1.43834 0
M  V30 2681 C 258.119 -1.76814 1.52509 0
M  V30 2682 C 259.1 -1.65823 0.379052 0
M  V30 2683 O 260.285 -1.84781 0.597466 0
M  V30 2684 C 257.415 -3.15288 1.4564 0
M  V30 2685 C 256.369 -3.41053 2.58586 0
M  V30 2686 C 255.695 -4.79421 2.36769 0
M  V30 2687 C 256.995 -3.34902 4.00797 0
M  V30 2688 H 258.689 -1.69812 2.46586 0
M  V30 2689 H 256.235 -0.815542 1.1868 0
M  V30 2690 H 258.188 -3.93681 1.50311 0
M  V30 2691 H 256.912 -3.23043 0.480725 0
M  V30 2692 H 255.571 -2.65035 2.53282 0
M  V30 2693 H 255.219 -4.83863 1.37424 0
M  V30 2694 H 254.919 -4.9762 3.12487 0
M  V30 2695 H 256.443 -5.6006 2.43238 0
M  V30 2696 H 257.857 -4.03218 4.07539 0
M  V30 2697 H 256.254 -3.64637 4.76613 0
M  V30 2698 H 257.324 -2.32928 4.25291 0
M  V30 2699 N 258.668 -1.30515 -0.883378 0
M  V30 2700 C 259.915 -1.1943 -1.63532 0
M  V30 2701 C 260.243 0.250627 -1.92878 0
M  V30 2702 O 259.498 1.19556 -1.54935 0
M  V30 2703 C 259.797 -1.96994 -2.98209 0
M  V30 2704 C 259.463 -3.466 -2.88408 0
M  V30 2705 C 258.125 -3.87397 -2.85442 0
M  V30 2706 C 260.477 -4.41863 -2.76418 0
M  V30 2707 C 257.805 -5.21745 -2.68327 0
M  V30 2708 C 260.157 -5.7632 -2.60841 0
M  V30 2709 C 258.821 -6.16354 -2.56251 0
M  V30 2710 H 258.091 -0.437025 -0.598406 0
M  V30 2711 H 260.738 -1.61635 -1.02696 0
M  V30 2712 H 259.043 -1.47429 -3.63004 0
M  V30 2713 H 260.74 -1.85808 -3.55354 0
M  V30 2714 H 257.33 -3.14182 -2.91527 0
M  V30 2715 H 261.514 -4.11285 -2.77775 0
M  V30 2716 H 256.77 -5.51853 -2.63189 0
M  V30 2717 H 260.944 -6.49772 -2.50538 0
M  V30 2718 H 258.571 -7.20401 -2.42748 0
M  V30 2719 N 260.146 1.09593 -1.13257 0
M  V30 2720 C 261.392 1.82003 -0.89458 0
M  V30 2721 C 261.725 1.85402 0.577906 0
M  V30 2722 O 261 1.32099 1.42759 0
M  V30 2723 C 261.283 3.28237 -1.48096 0
M  V30 2724 C 261.136 3.3312 -3.02244 0
M  V30 2725 C 262.455 4.24871 -1.14774 0
M  V30 2726 H 259.574 0.66077 -0.326424 0
M  V30 2727 H 262.216 1.28389 -1.40058 0
M  V30 2728 H 260.366 3.74024 -1.05062 0
M  V30 2729 H 262.038 2.95748 -3.54021 0
M  V30 2730 H 260.281 2.72756 -3.37323 0
M  V30 2731 H 260.952 4.3613 -3.38371 0
M  V30 2732 H 263.428 3.87361 -1.51957 0
M  V30 2733 H 262.304 5.25532 -1.58452 0
M  V30 2734 H 262.565 4.42058 -0.0611849 0
M  V30 2735 N 261.624 0.925811 1.2754 0
M  V30 2736 C 262.87 0.575575 1.95086 0
M  V30 2737 C 263.225 -0.873246 1.71441 0
M  V30 2738 O 262.518 -1.61443 1.03183 0
M  V30 2739 C 262.712 0.835296 3.47502 0
M  V30 2740 C 262.541 2.30781 3.85967 0
M  V30 2741 C 261.311 2.96017 4.09514 0
M  V30 2742 C 263.509 3.28519 3.95702 0
M  V30 2743 N 261.491 4.3344 4.34744 0
M  V30 2744 C 262.862 4.51146 4.25285 0
M  V30 2745 C 264.917 3.23753 3.7827 0
M  V30 2746 C 263.62 5.69606 4.39251 0
M  V30 2747 C 265.646 4.41523 3.9346 0
M  V30 2748 C 265.008 5.62928 4.23428 0
M  V30 2749 H 261.107 0.260711 0.737261 0
M  V30 2750 H 263.691 1.19204 1.53943 0
M  V30 2751 H 261.862 0.248005 3.87607 0
M  V30 2752 H 263.594 0.447878 4.02214 0
M  V30 2753 H 260.349 2.46695 4.04275 0
M  V30 2754 H 260.773 5.04528 4.5142 0
M  V30 2755 H 265.415 2.3096 3.54143 0
M  V30 2756 H 263.133 6.62866 4.62205 0
M  V30 2757 H 266.719 4.39351 3.81394 0
M  V30 2758 H 265.599 6.52538 4.34929 0
M  V30 2759 N 263.102 -1.41638 0.69111 0
M  V30 2760 C 264.035 -2.28183 -0.0274913 0
M  V30 2761 C 265.013 -1.41984 -0.792424 0
M  V30 2762 O 266.197 -1.71415 -0.784169 0
M  V30 2763 C 263.324 -3.22135 -1.04628 0
M  V30 2764 C 262.37 -4.24848 -0.375037 0
M  V30 2765 S 263.203 -5.28231 0.879321 0
M  V30 2766 C 264.359 -6.25748 -0.137983 0
M  V30 2767 H 264.592 -2.88782 0.706553 0
M  V30 2768 H 262.125 -1.46709 0.481222 0
M  V30 2769 H 264.083 -3.76797 -1.62894 0
M  V30 2770 H 262.744 -2.6064 -1.75287 0
M  V30 2771 H 261.937 -4.90837 -1.14433 0
M  V30 2772 H 261.539 -3.73758 0.134434 0
M  V30 2773 H 263.831 -6.70188 -0.992659 0
M  V30 2774 H 264.774 -7.06417 0.487867 0
M  V30 2775 H 265.182 -5.62363 -0.490762 0
M  V30 2776 N 264.58 -0.43555 -1.51462 0
M  V30 2777 C 265.53 0.394701 -2.24558 0
M  V30 2778 C 266.514 0.99157 -1.26715 0
M  V30 2779 O 267.706 0.910007 -1.51815 0
M  V30 2780 C 264.835 1.4963 -3.08975 0
M  V30 2781 C 263.921 0.908912 -4.14246 0
M  V30 2782 N 264.312 0.0505335 -5.05775 0
M  V30 2783 C 262.61 1.17668 -4.30198 0
M  V30 2784 C 263.311 -0.279161 -5.8103 0
M  V30 2785 N 262.287 0.336767 -5.42556 0
M  V30 2786 H 266.089 -0.267106 -2.92684 0
M  V30 2787 H 263.603 -0.247518 -1.60503 0
M  V30 2788 H 265.6 2.10394 -3.59917 0
M  V30 2789 H 264.26 2.16046 -2.42393 0
M  V30 2790 H 265.271 -0.31577 -5.16936 0
M  V30 2791 H 261.948 1.83847 -3.74842 0
M  V30 2792 H 263.338 -0.977553 -6.64751 0
M  V30 2793 N 266.058 1.56714 -0.166846 0
M  V30 2794 C 267.288 2.00828 0.48494 0
M  V30 2795 C 267.696 1.04612 1.57648 0
M  V30 2796 O 267.039 0.0383201 1.8366 0
M  V30 2797 C 267.101 3.4137 1.12723 0
M  V30 2798 C 266.765 4.56654 0.177886 0
M  V30 2799 C 267.762 5.16402 -0.60207 0
M  V30 2800 C 265.447 5.02244 0.0750139 0
M  V30 2801 C 267.441 6.20167 -1.47215 0
M  V30 2802 C 265.128 6.05859 -0.798649 0
M  V30 2803 C 266.126 6.64691 -1.57082 0
M  V30 2804 O 265.814 7.66297 -2.42989 0
M  V30 2805 H 265.546 0.663587 0.128953 0
M  V30 2806 H 268.1 2.03692 -0.264365 0
M  V30 2807 H 266.33 3.35406 1.92457 0
M  V30 2808 H 268.019 3.69466 1.68076 0
M  V30 2809 H 268.785 4.82065 -0.53274 0
M  V30 2810 H 264.664 4.56167 0.665812 0
M  V30 2811 H 268.208 6.66016 -2.07531 0
M  V30 2812 H 264.105 6.39621 -0.869199 0
M  V30 2813 H 264.873 7.83601 -2.36455 0
M  V30 2814 N 267.536 -0.106894 1.57237 0
M  V30 2815 C 268.766 -0.825191 1.89405 0
M  V30 2816 C 269.174 -1.73374 0.757496 0
M  V30 2817 O 268.517 -1.81552 -0.280115 0
M  V30 2818 C 268.579 -1.70102 3.1671 0
M  V30 2819 C 268.243 -0.965523 4.46684 0
M  V30 2820 C 269.24 -0.300741 5.19029 0
M  V30 2821 C 266.925 -0.943105 4.93367 0
M  V30 2822 C 268.919 0.376622 6.36286 0
M  V30 2823 C 266.606 -0.261949 6.10538 0
M  V30 2824 C 267.604 0.396748 6.81847 0
M  V30 2825 O 267.292 1.06701 7.96787 0
M  V30 2826 H 267.024 -0.241852 0.631255 0
M  V30 2827 H 269.578 -0.0921491 2.05193 0
M  V30 2828 H 267.808 -2.47601 2.97036 0
M  V30 2829 H 269.497 -2.29483 3.34802 0
M  V30 2830 H 270.263 -0.309599 4.84011 0
M  V30 2831 H 266.142 -1.44524 4.3776 0
M  V30 2832 H 269.686 0.891334 6.91882 0
M  V30 2833 H 265.583 -0.250896 6.45012 0
M  V30 2834 H 266.351 0.972707 8.127 0
M  V30 2835 N 269.014 -1.53014 -0.377408 0
M  V30 2836 C 270.26 -1.68872 -1.12294 0
M  V30 2837 C 270.593 -0.433224 -1.89306 0
M  V30 2838 O 269.868 0.569258 -1.85983 0
M  V30 2839 C 270.151 -2.93115 -2.09179 0
M  V30 2840 C 270.004 -4.28794 -1.35853 0
M  V30 2841 C 271.323 -3.12928 -3.09458 0
M  V30 2842 H 268.442 -0.614518 -0.406862 0
M  V30 2843 H 271.084 -1.85633 -0.40503 0
M  V30 2844 H 269.234 -2.78956 -2.70399 0
M  V30 2845 H 270.906 -4.54742 -0.775082 0
M  V30 2846 H 269.149 -4.28744 -0.660364 0
M  V30 2847 H 269.82 -5.11837 -2.06706 0
M  V30 2848 H 272.296 -3.26194 -2.58334 0
M  V30 2849 H 271.172 -4.01316 -3.74482 0
M  V30 2850 H 271.433 -2.27669 -3.78971 0
M  V30 2851 N 270.492 0.636531 -1.44174 0
M  V30 2852 C 271.717 1.42847 -1.50364 0
M  V30 2853 C 272.142 1.87665 -0.127867 0
M  V30 2854 O 271.5 1.58408 0.88185 0
M  V30 2855 C 271.548 2.62854 -2.4686 0
M  V30 2856 O 270.652 3.62501 -1.9664 0
M  V30 2857 H 269.993 0.427642 -0.507955 0
M  V30 2858 H 272.523 0.777422 -1.89255 0
M  V30 2859 H 272.533 3.10465 -2.64718 0
M  V30 2860 H 271.208 2.29578 -3.46795 0
M  V30 2861 H 269.785 3.21735 -1.88523 0
M  V30 2862 N 271.97 1.30982 0.876444 0
M  V30 2863 C 272.903 1.12414 1.98591 0
M  V30 2864 C 273.881 0.0294078 1.62573 0
M  V30 2865 O 275.065 0.184598 1.87594 0
M  V30 2866 C 272.192 0.716276 3.3104 0
M  V30 2867 C 271.238 1.81311 3.86042 0
M  V30 2868 S 272.071 3.41727 4.1229 0
M  V30 2869 C 273.227 3.02863 5.47745 0
M  V30 2870 H 273.46 2.06338 2.14037 0
M  V30 2871 H 270.993 1.15393 1.02586 0
M  V30 2872 H 272.951 0.487697 4.07593 0
M  V30 2873 H 271.612 -0.203749 3.13438 0
M  V30 2874 H 270.805 1.48021 4.81774 0
M  V30 2875 H 270.407 1.99641 3.16259 0
M  V30 2876 H 272.699 2.51353 6.29148 0
M  V30 2877 H 273.642 3.97533 5.8598 0
M  V30 2878 H 274.05 2.40487 5.10711 0
M  V30 2879 N 273.449 -1.08991 1.13837 0
M  V30 2880 C 274.726 -1.77863 0.813876 0
M  V30 2881 C 275.106 -1.99375 -0.693746 0
M  V30 2882 O 274.454 -1.59875 -1.63255 0
M  V30 2883 C 274.664 -3.0986 1.60586 0
M  V30 2884 C 276.012 -3.84493 1.8014 0
M  V30 2885 O 277.036 -3.19624 1.57222 0
M  V30 2886 O 275.895 -5.00957 2.18413 0
M  V30 2887 H 272.989 -0.771589 0.297624 0
M  V30 2888 H 275.535 -1.15507 1.24323 0
M  V30 2889 H 274.307 -2.89715 2.63022 0
M  V30 2890 H 273.93 -3.79942 1.17173 0
M  V30 2891 N 274.927 -0.932562 -1.27047 0
M  V30 2892 C 275.89 -0.440064 -2.24936 0
M  V30 2893 C 276.89 0.444071 -1.54547 0
M  V30 2894 O 278.08 0.244465 -1.72476 0
M  V30 2895 C 275.212 0.36678 -3.38921 0
M  V30 2896 H 276.405 -1.305 -2.70018 0
M  V30 2897 H 273.958 -0.713707 -1.39054 0
M  V30 2898 H 274.693 1.25033 -2.99228 0
M  V30 2899 H 274.478 -0.267204 -3.91188 0
M  V30 2900 H 275.968 0.701567 -4.11665 0
M  V30 2901 N 276.405 1.4127 -0.698611 0
M  V30 2902 C 277.335 2.33447 -0.049629 0
M  V30 2903 C 278.316 1.51982 0.763898 0
M  V30 2904 O 279.501 1.80509 0.716257 0
M  V30 2905 C 276.631 3.35828 0.885267 0
M  V30 2906 C 275.585 4.27627 0.178613 0
M  V30 2907 C 274.911 5.20406 1.22807 0
M  V30 2908 C 276.211 5.13459 -0.956933 0
M  V30 2909 H 277.905 2.87966 -0.81951 0
M  V30 2910 H 275.451 1.38461 -0.395538 0
M  V30 2911 H 277.404 3.9924 1.34854 0
M  V30 2912 H 276.128 2.79666 1.68685 0
M  V30 2913 H 274.787 3.65643 -0.26466 0
M  V30 2914 H 274.435 4.60558 2.02226 0
M  V30 2915 H 274.135 5.82661 0.760239 0
M  V30 2916 H 275.659 5.86695 1.69179 0
M  V30 2917 H 277.073 5.70421 -0.573805 0
M  V30 2918 H 275.47 5.8467 -1.35205 0
M  V30 2919 H 276.54 4.50443 -1.79524 0
M  V30 2920 N 277.883 0.443576 1.51229 0
M  V30 2921 C 278.813 -0.355142 2.30783 0
M  V30 2922 C 279.794 -1.0154 1.36468 0
M  V30 2923 O 280.979 -1.01785 1.65389 0
M  V30 2924 C 278.109 -1.45312 3.15439 0
M  V30 2925 C 277.063 -0.916002 4.18083 0
M  V30 2926 C 276.389 -2.1102 4.91299 0
M  V30 2927 C 277.689 0.0538602 5.22272 0
M  V30 2928 H 279.383 0.308767 2.97804 0
M  V30 2929 H 276.929 0.149937 1.43217 0
M  V30 2930 H 278.882 -2.01914 3.69876 0
M  V30 2931 H 277.606 -2.14541 2.46252 0
M  V30 2932 H 276.265 -0.372145 3.64706 0
M  V30 2933 H 275.913 -2.78882 4.18609 0
M  V30 2934 H 275.613 -1.75717 5.60712 0
M  V30 2935 H 277.137 -2.68164 5.48562 0
M  V30 2936 H 278.551 -0.422069 5.71744 0
M  V30 2937 H 276.948 0.319776 5.99247 0
M  V30 2938 H 278.018 0.98858 4.74716 0
M  V30 2939 N 279.361 -1.56624 0.175154 0
M  V30 2940 C 280.609 -1.96609 -0.467885 0
M  V30 2941 C 280.93 -1.06238 -1.63519 0
M  V30 2942 O 280.2 -0.129523 -1.95471 0
M  V30 2943 H 278.78 -0.726008 -0.175845 0
M  V30 2944 H 281.442 -1.93195 0.257234 0
M  V30 2945 H 280.538 -3.00989 -0.825342 0
M  V30 2946 N 280.839 0.0985539 -1.57292 0
M  V30 2947 C 282.087 0.801092 -1.85545 0
M  V30 2948 C 282.408 1.79438 -0.763353 0
M  V30 2949 O 281.678 1.94763 0.21073 0
M  V30 2950 H 280.258 0.29884 -0.684619 0
M  V30 2951 H 282.92 0.0810064 -1.94732 0
M  V30 2952 H 282.016 1.3338 -2.82163 0
M  V30 2953 N 282.317 1.53212 0.369288 0
M  V30 2954 C 283.542 1.73423 1.1375 0
M  V30 2955 C 283.967 0.460404 1.82378 0
M  V30 2956 O 283.325 -0.585298 1.71592 0
M  V30 2957 C 283.373 2.89769 2.1463 0
M  V30 2958 O 282.477 2.58119 3.21634 0
M  V30 2959 H 281.818 0.576061 0.330227 0
M  V30 2960 H 284.348 2.00083 0.427547 0
M  V30 2961 H 284.358 3.15829 2.58294 0
M  V30 2962 H 283.033 3.8217 1.64071 0
M  V30 2963 H 281.61 2.42864 2.82969 0
M  V30 2964 N 283.795 -0.628877 1.44509 0
M  V30 2965 C 284.705 -1.7694 1.54044 0
M  V30 2966 C 285.721 -1.68705 0.425987 0
M  V30 2967 O 286.897 -1.89442 0.683656 0
M  V30 2968 C 283.962 -3.13332 1.48405 0
M  V30 2969 C 283.023 -3.33181 2.70719 0
M  V30 2970 C 282.256 -4.63067 2.6534 0
M  V30 2971 O 282.479 -5.44017 1.71469 0
M  V30 2972 O 281.413 -4.85167 3.56226 0
M  V30 2973 H 285.239 -1.71848 2.50403 0
M  V30 2974 H 282.824 -0.790378 1.26781 0
M  V30 2975 H 284.706 -3.94634 1.47791 0
M  V30 2976 H 283.381 -3.1896 0.551898 0
M  V30 2977 H 282.288 -2.51549 2.769 0
M  V30 2978 H 283.621 -3.32416 3.62988 0
M  V30 2979 N 285.273 -1.31445 -0.869486 0
M  V30 2980 C 286.522 -1.20517 -1.61736 0
M  V30 2981 C 286.835 0.235341 -1.94179 0
M  V30 2982 O 288.041 0.466312 -2.67465 0
M  V30 2983 C 286.497 -2.10982 -2.91573 0
M  V30 2984 C 286.105 -3.60032 -2.66611 0
M  V30 2985 C 287.849 -2.08856 -3.69567 0
M  V30 2986 C 285.756 -4.42503 -3.92358 0
M  V30 2987 H 284.686 -0.447493 -0.606849 0
M  V30 2988 H 287.337 -1.56303 -0.96133 0
M  V30 2989 H 285.719 -1.68095 -3.58553 0
M  V30 2990 H 286.893 -4.11167 -2.08035 0
M  V30 2991 H 285.208 -3.64139 -2.0197 0
M  V30 2992 H 287.805 -2.67716 -4.62852 0
M  V30 2993 H 288.148 -1.07582 -4.02159 0
M  V30 2994 H 288.681 -2.49945 -3.09471 0
M  V30 2995 H 285.42 -5.44533 -3.64916 0
M  V30 2996 H 284.94 -3.96125 -4.50383 0
M  V30 2997 H 286.619 -4.54741 -4.60238 0
M  V30 2998 N 286.751 1.08385 -1.14413 0
M  V30 2999 C 287.997 1.81212 -0.923793 0
M  V30 3000 C 288.352 1.84555 0.543814 0
M  V30 3001 O 287.645 1.31056 1.39767 0
M  V30 3002 C 287.839 3.26273 -1.45879 0
M  V30 3003 C 287.668 3.37063 -2.97689 0
M  V30 3004 C 286.438 3.4824 -3.66138 0
M  V30 3005 C 288.636 3.28698 -3.95553 0
M  V30 3006 N 286.618 3.47824 -5.05858 0
M  V30 3007 C 287.989 3.35276 -5.21527 0
M  V30 3008 C 290.044 3.12437 -3.8767 0
M  V30 3009 C 288.747 3.27267 -6.40538 0
M  V30 3010 C 290.773 3.05757 -5.06228 0
M  V30 3011 C 290.135 3.12938 -6.3107 0
M  V30 3012 H 286.234 0.6769 -0.391574 0
M  V30 3013 H 288.818 1.29455 -1.45429 0
M  V30 3014 H 286.989 3.76474 -0.95507 0
M  V30 3015 H 288.721 3.87165 -1.17835 0
M  V30 3016 H 285.476 3.52141 -3.16692 0
M  V30 3017 H 285.9 3.51171 -5.78798 0
M  V30 3018 H 290.542 3.05747 -2.92025 0
M  V30 3019 H 288.26 3.32718 -7.36427 0
M  V30 3020 H 291.846 2.94295 -5.01878 0
M  V30 3021 H 290.726 3.078 -7.21269 0
M  V30 3022 N 288.23 0.939286 1.26551 0
M  V30 3023 C 289.646 0.641304 1.46149 0
M  V30 3024 C 289.846 -0.805964 1.84679 0
M  V30 3025 O 288.902 -1.58278 1.96734 0
M  V30 3026 C 290.215 1.6011 2.54529 0
M  V30 3027 C 291.763 1.6106 2.68382 0
M  V30 3028 C 292.238 2.55765 3.79932 0
M  V30 3029 N 293.729 2.5404 3.87322 0
M  V30 3030 C 294.464 3.24004 4.73085 0
M  V30 3031 N 293.96 4.03388 5.63249 0
M  V30 3032 N 295.753 3.12965 4.66914 0
M  V30 3033 H 287.904 1.87478 0.998285 0
M  V30 3034 H 290.167 0.805559 0.499779 0
M  V30 3035 H 289.873 2.63412 2.33039 0
M  V30 3036 H 289.747 1.35171 3.52149 0
M  V30 3037 H 292.134 0.584835 2.89247 0
M  V30 3038 H 292.215 1.90053 1.71212 0
M  V30 3039 H 291.859 3.58458 3.5982 0
M  V30 3040 H 291.789 2.24063 4.76554 0
M  V30 3041 H 294.28 1.96396 3.22858 0
M  V30 3042 H 294.593 4.5373 6.25579 0
M  V30 3043 H 292.938 4.07489 5.63008 0
M  V30 3044 H 296.129 2.50432 3.95476 0
M  V30 3045 H 296.302 3.67759 5.33533 0
M  V30 3046 N 289.708 -1.40897 0.706093 0
M  V30 3047 C 290.985 -1.94868 0.169099 0
M  V30 3048 C 291.365 -1.64485 -1.32318 0
M  V30 3049 O 290.713 -0.95744 -2.07474 0
M  V30 3050 C 290.923 -3.45798 0.471654 0
M  V30 3051 C 292.271 -4.22663 0.405127 0
M  V30 3052 O 293.295 -3.53865 0.407168 0
M  V30 3053 O 292.154 -5.45216 0.374383 0
M  V30 3054 H 289.248 -0.82673 0.0211352 0
M  V30 3055 H 291.794 -1.50558 0.782976 0
M  V30 3056 H 290.566 -3.61235 1.50416 0
M  V30 3057 H 290.189 -3.97225 -0.172666 0
M  V30 3058 N 291.186 -0.45159 -1.50991 0
M  V30 3059 C 292.435 0.111653 -2.01391 0
M  V30 3060 C 292.748 1.42529 -1.33959 0
M  V30 3061 O 293.954 2.07232 -1.75405 0
M  V30 3062 C 292.41 0.249514 -3.59034 0
M  V30 3063 C 292.018 -1.05453 -4.35412 0
M  V30 3064 C 293.762 0.765762 -4.17536 0
M  V30 3065 C 291.669 -0.881529 -5.84793 0
M  V30 3066 H 290.599 0.0455022 -0.752626 0
M  V30 3067 H 293.25 -0.583524 -1.73975 0
M  V30 3068 H 291.632 1.00803 -3.82955 0
M  V30 3069 H 292.806 -1.82248 -4.23229 0
M  V30 3070 H 291.121 -1.50039 -3.88429 0
M  V30 3071 H 293.718 0.911913 -5.26866 0
M  V30 3072 H 294.061 1.75201 -3.77638 0
M  V30 3073 H 294.594 0.0651744 -3.97747 0
M  V30 3074 H 291.333 -1.84057 -6.29129 0
M  V30 3075 H 290.853 -0.153625 -5.99603 0
M  V30 3076 H 292.532 -0.540363 -6.4474 0
M  V30 3077 N 292.664 1.56529 -0.183458 0
M  V30 3078 C 293.941 1.88959 0.50536 0
M  V30 3079 C 294.321 1.09523 1.80466 0
M  V30 3080 O 293.669 0.19278 2.27685 0
M  V30 3081 C 293.879 3.41162 0.73547 0
M  V30 3082 C 295.227 4.11155 1.06005 0
M  V30 3083 O 296.251 3.46548 0.823594 0
M  V30 3084 O 295.11 5.25318 1.50675 0
M  V30 3085 H 292.204 0.78441 0.261973 0
M  V30 3086 H 294.75 1.68231 -0.222802 0
M  V30 3087 H 293.522 3.90874 -0.182561 0
M  V30 3088 H 293.145 3.67543 1.51651 0
M  V30 3089 N 294.142 -0.090211 1.57342 0
M  V30 3090 C 295.389 -0.792807 1.86335 0
M  V30 3091 C 295.717 -1.78494 0.772662 0
M  V30 3092 O 294.972 -1.94305 -0.233258 0
M  V30 3093 C 295.271 -1.55222 3.21933 0
M  V30 3094 C 294.937 -0.701765 4.45406 0
M  V30 3095 C 293.599 -0.467334 4.78925 0
M  V30 3096 C 295.951 -0.11086 5.21082 0
M  V30 3097 C 293.279 0.367785 5.85546 0
M  V30 3098 C 295.631 0.711609 6.28585 0
M  V30 3099 C 294.295 0.956086 6.60617 0
M  V30 3100 H 293.565 -0.290109 0.681849 0
M  V30 3101 H 296.212 -0.0541332 1.91423 0
M  V30 3102 H 294.517 -2.3626 3.12551 0
M  V30 3103 H 296.214 -2.10032 3.41595 0
M  V30 3104 H 292.804 -0.894598 4.1916 0
M  V30 3105 H 296.988 -0.279129 4.95514 0
M  V30 3106 H 292.244 0.566128 6.08773 0
M  V30 3107 H 296.418 1.17632 6.86393 0
M  V30 3108 H 294.045 1.60499 7.43064 0
M  V30 3109 N 295.62 -1.53406 -0.361157 0
M  V30 3110 C 296.583 -1.79479 -1.42548 0
M  V30 3111 C 297.583 -0.665327 -1.4639 0
M  V30 3112 O 298.773 -0.933549 -1.47073 0
M  V30 3113 C 295.905 -1.92087 -2.8163 0
M  V30 3114 H 297.098 -2.74538 -1.20701 0
M  V30 3115 H 294.651 -1.4455 -0.594546 0
M  V30 3116 H 295.386 -0.991099 -3.08784 0
M  V30 3117 H 295.171 -2.74241 -2.80239 0
M  V30 3118 H 296.661 -2.13836 -3.58697 0
M  V30 3119 N 297.098 0.621204 -1.44841 0
M  V30 3120 C 298.048 1.72663 -1.48901 0
M  V30 3121 C 299.032 1.56964 -0.353702 0
M  V30 3122 O 300.224 1.66532 -0.599669 0
M  V30 3123 C 297.353 3.11381 -1.44557 0
M  V30 3124 C 296.439 3.32514 -2.6324 0
M  V30 3125 N 296.83 3.23969 -3.8843 0
M  V30 3126 C 295.128 3.63343 -2.58647 0
M  V30 3127 C 295.829 3.46062 -4.67564 0
M  V30 3128 N 294.805 3.69407 -3.98797 0
M  V30 3129 H 298.607 1.64529 -2.43531 0
M  V30 3130 H 296.121 0.82401 -1.39942 0
M  V30 3131 H 298.118 3.90667 -1.4555 0
M  V30 3132 H 296.778 3.20674 -0.509731 0
M  V30 3133 H 297.789 3.02669 -4.20252 0
M  V30 3134 H 294.466 3.79556 -1.73906 0
M  V30 3135 H 295.856 3.44963 -5.76585 0
M  V30 3136 N 298.576 1.31904 0.862503 0
M  V30 3137 C 299.486 1.22161 2.00285 0
M  V30 3138 C 300.502 0.136785 1.73462 0
M  V30 3139 O 301.678 0.355994 1.98229 0
M  V30 3140 C 298.743 0.937093 3.33796 0
M  V30 3141 C 297.804 2.10957 3.73893 0
M  V30 3142 C 297.037 1.83853 5.01033 0
M  V30 3143 O 297.26 0.777274 5.65079 0
M  V30 3144 O 296.194 2.69741 5.38074 0
M  V30 3145 H 300.02 2.18008 2.11439 0
M  V30 3146 H 297.605 1.11716 0.991957 0
M  V30 3147 H 299.487 0.794583 4.13841 0
M  V30 3148 H 298.162 0.00871894 3.23699 0
M  V30 3149 H 297.069 2.30752 2.94456 0
M  V30 3150 H 298.402 3.02046 3.88625 0
M  V30 3151 N 300.054 -1.07777 1.14986 0
M  V30 3152 C 301.017 -2.13041 0.845358 0
M  V30 3153 C 302.017 -1.60071 -0.152931 0
M  V30 3154 O 303.207 -1.74033 0.0761879 0
M  V30 3155 C 300.339 -3.39896 0.261383 0
M  V30 3156 H 301.532 -2.41485 1.77834 0
M  V30 3157 H 299.085 -1.23595 0.956757 0
M  V30 3158 H 299.82 -3.17091 -0.68 0
M  V30 3159 H 299.605 -3.79642 0.980514 0
M  V30 3160 H 301.095 -4.17548 0.0657687 0
M  V30 3161 N 301.532 -0.945985 -1.26051 0
M  V30 3162 C 302.943 -0.638096 -1.75457 0
M  V30 3163 C 303.294 0.846672 -1.76991 0
M  V30 3164 O 302.419 1.66262 -1.38513 0
M  V30 3165 C 303.014 -1.15157 -3.18629 0
M  V30 3166 C 301.573 -0.894004 -3.65629 0
M  V30 3167 C 300.72 -1.29967 -2.44957 0
M  V30 3168 H 303.671 -1.12376 -1.1206 0
M  V30 3169 H 303.692 -0.507615 -3.77099 0
M  V30 3170 H 303.204 -2.23222 -3.1748 0
M  V30 3171 H 301.305 0.172057 -3.72203 0
M  V30 3172 H 301.418 -1.52439 -4.54202 0
M  V30 3173 H 299.782 -0.718078 -2.44368 0
M  V30 3174 H 300.565 -2.38935 -2.46505 0
M  V30 3175 N 303.011 1.40521 -0.713556 0
M  V30 3176 C 303.974 2.29098 -0.0684347 0
M  V30 3177 C 304.974 1.45268 0.689472 0
M  V30 3178 O 306.164 1.66205 0.521677 0
M  V30 3179 C 303.296 3.28446 0.913024 0
M  V30 3180 H 304.489 2.87645 -0.84855 0
M  V30 3181 H 302.042 1.48809 -0.47809 0
M  V30 3182 H 302.777 2.74913 1.72027 0
M  V30 3183 H 302.562 3.90327 0.372472 0
M  V30 3184 H 304.052 3.94777 1.36165 0
M  V30 3185 N 304.489 0.459591 1.5075 0
M  V30 3186 C 305.736 -0.0993495 2.02256 0
M  V30 3187 C 306.064 -1.40751 1.34237 0
M  V30 3188 O 305.319 -1.90379 0.453228 0
M  V30 3189 C 305.618 -0.342866 3.55752 0
M  V30 3190 C 305.284 0.88218 4.42186 0
M  V30 3191 C 303.946 1.21808 4.65528 0
M  V30 3192 C 306.298 1.69837 4.92752 0
M  V30 3193 C 303.626 2.37045 5.36681 0
M  V30 3194 C 305.978 2.84192 5.65171 0
M  V30 3195 C 304.642 3.1821 5.8677 0
M  V30 3196 H 303.912 -0.0363545 0.740108 0
M  V30 3197 H 306.559 0.611329 1.8148 0
M  V30 3198 H 304.864 -1.13567 3.7498 0
M  V30 3199 H 306.561 -0.789121 3.93159 0
M  V30 3200 H 303.151 0.610467 4.2423 0
M  V30 3201 H 307.335 1.45205 4.74583 0
M  V30 3202 H 302.591 2.63689 5.51614 0
M  V30 3203 H 306.765 3.4779 6.03337 0
M  V30 3204 H 304.392 4.07613 6.41682 0
M  V30 3205 N 305.967 -1.56429 0.191757 0
M  V30 3206 C 306.897 -2.21937 -0.725696 0
M  V30 3207 C 307.878 -1.1814 -1.2238 0
M  V30 3208 O 309.063 -1.46636 -1.27325 0
M  V30 3209 C 306.193 -2.87611 -1.94672 0
M  V30 3210 C 305.147 -3.97623 -1.58366 0
M  V30 3211 C 304.473 -4.50446 -2.88102 0
M  V30 3212 C 305.773 -5.16197 -0.796133 0
M  V30 3213 H 307.467 -2.98861 -0.179606 0
M  V30 3214 H 305.013 -1.43749 -0.0849464 0
M  V30 3215 H 306.966 -3.3212 -2.59373 0
M  V30 3216 H 305.69 -2.08087 -2.51728 0
M  V30 3217 H 304.349 -3.53801 -0.960247 0
M  V30 3218 H 303.997 -3.67688 -3.43241 0
M  V30 3219 H 303.697 -5.24675 -2.64556 0
M  V30 3220 H 305.221 -4.97654 -3.53798 0
M  V30 3221 H 306.635 -5.57271 -1.34618 0
M  V30 3222 H 305.032 -5.96471 -0.658928 0
M  V30 3223 H 306.102 -4.84473 0.203478 0
M  V30 3224 N 307.445 0.0818655 -1.57387 0
M  V30 3225 C 308.856 0.634871 -1.75574 0
M  V30 3226 C 309.207 1.78435 -0.815809 0
M  V30 3227 O 308.332 2.164 0.0025366 0
M  V30 3228 C 308.927 1.15845 -3.18379 0
M  V30 3229 C 307.486 1.65741 -3.37945 0
M  V30 3230 C 306.633 0.572549 -2.71325 0
M  V30 3231 H 309.584 -0.144268 -1.58043 0
M  V30 3232 H 309.605 2.02751 -3.21982 0
M  V30 3233 H 309.117 0.321631 -3.86765 0
M  V30 3234 H 307.218 2.51781 -2.74658 0
M  V30 3235 H 307.331 1.74129 -4.46336 0
M  V30 3236 H 305.695 1.01518 -2.33594 0
M  V30 3237 H 306.478 -0.253918 -3.4236 0
M  V30 3238 N 308.923 1.53595 0.353017 0
M  V30 3239 C 310.169 1.71581 1.09232 0
M  V30 3240 C 310.524 0.468328 1.86613 0
M  V30 3241 O 309.817 -0.538911 1.83865 0
M  V30 3242 C 310.011 2.91313 2.07054 0
M  V30 3243 C 309.84 4.27585 1.39287 0
M  V30 3244 C 308.61 4.92233 1.1417 0
M  V30 3245 C 310.808 5.07656 0.824005 0
M  V30 3246 N 308.79 6.124 0.428841 0
M  V30 3247 C 310.161 6.19531 0.241195 0
M  V30 3248 C 312.216 4.92609 0.723922 0
M  V30 3249 C 310.919 7.18002 -0.431952 0
M  V30 3250 C 312.945 5.91365 0.0645334 0
M  V30 3251 C 312.307 7.02571 -0.507347 0
M  V30 3252 H 308.406 0.680987 0.384422 0
M  V30 3253 H 310.99 1.91013 0.377096 0
M  V30 3254 H 309.161 2.73398 2.75877 0
M  V30 3255 H 310.893 2.98062 2.73753 0
M  V30 3256 H 307.648 4.51612 1.42631 0
M  V30 3257 H 308.072 6.76944 0.0874131 0
M  V30 3258 H 312.714 4.06808 1.15181 0
M  V30 3259 H 310.432 8.03384 -0.871758 0
M  V30 3260 H 314.018 5.81799 -0.0121469 0
M  V30 3261 H 312.898 7.77675 -1.0095 0
M  V30 3262 N 310.401 -0.613514 1.45168 0
M  V30 3263 C 311.351 -1.71871 1.49815 0
M  V30 3264 C 312.335 -1.56774 0.362021 0
M  V30 3265 O 313.527 -1.66212 0.608493 0
M  V30 3266 C 310.656 -3.1061 1.46207 0
M  V30 3267 C 309.742 -3.31114 2.64999 0
M  V30 3268 N 310.133 -3.21904 3.90143 0
M  V30 3269 C 308.431 -3.61966 2.6057 0
M  V30 3270 C 309.132 -3.43577 4.69393 0
M  V30 3271 N 308.108 -3.67287 4.00751 0
M  V30 3272 H 311.91 -1.63235 2.444 0
M  V30 3273 H 309.424 -0.816577 1.40377 0
M  V30 3274 H 311.421 -3.8989 1.4762 0
M  V30 3275 H 310.081 -3.20399 0.52673 0
M  V30 3276 H 311.092 -3.00436 4.21852 0
M  V30 3277 H 307.769 -3.78629 1.75916 0
M  V30 3278 H 309.159 -3.41901 5.78406 0
M  V30 3279 N 311.879 -1.3236 -0.855495 0
M  V30 3280 C 313.295 -1.11332 -1.14356 0
M  V30 3281 C 313.495 0.106751 -2.01217 0
M  V30 3282 O 312.551 0.791891 -2.39761 0
M  V30 3283 C 313.864 -2.39237 -1.82171 0
M  V30 3284 C 315.412 -2.44986 -1.9481 0
M  V30 3285 C 315.887 -3.7281 -2.66039 0
M  V30 3286 N 317.378 -3.73787 -2.73565 0
M  V30 3287 C 318.113 -4.69394 -3.29327 0
M  V30 3288 N 317.609 -5.75367 -3.85907 0
M  V30 3289 N 319.402 -4.56893 -3.27423 0
M  V30 3290 H 311.553 -2.10586 -0.277027 0
M  V30 3291 H 313.816 -0.929701 -0.185364 0
M  V30 3292 H 313.522 -3.28431 -1.25802 0
M  V30 3293 H 313.396 -2.50134 -2.82335 0
M  V30 3294 H 315.783 -1.56252 -2.50338 0
M  V30 3295 H 315.864 -2.38043 -0.936448 0
M  V30 3296 H 315.508 -4.61918 -2.11174 0
M  V30 3297 H 315.438 -3.77024 -3.67642 0
M  V30 3298 H 317.929 -2.97189 -2.33424 0
M  V30 3299 H 318.242 -6.44378 -4.26611 0
M  V30 3300 H 316.587 -5.79123 -3.84242 0
M  V30 3301 H 319.778 -3.73269 -2.82467 0
M  V30 3302 H 319.951 -5.31577 -3.7058 0
M  V30 3303 N 313.357 1.07166 -1.15556 0
M  V30 3304 C 314.287 2.16403 -0.877046 0
M  V30 3305 C 315.268 1.69217 0.173111 0
M  V30 3306 O 316.453 1.94181 0.027084 0
M  V30 3307 C 313.583 3.45349 -0.367632 0
M  V30 3308 C 312.537 4.05995 -1.35468 0
M  V30 3309 C 311.863 5.30045 -0.704038 0
M  V30 3310 C 313.163 4.45804 -2.72132 0
M  V30 3311 H 314.857 2.39959 -1.79053 0
M  V30 3312 H 312.403 1.15325 -0.862331 0
M  V30 3313 H 314.356 4.21095 -0.160317 0
M  V30 3314 H 313.08 3.21385 0.581326 0
M  V30 3315 H 311.739 3.32296 -1.54839 0
M  V30 3316 H 311.387 5.02373 0.251128 0
M  V30 3317 H 311.087 5.71579 -1.36277 0
M  V30 3318 H 312.611 6.08495 -0.50654 0
M  V30 3319 H 314.025 5.12671 -2.56595 0
M  V30 3320 H 312.422 4.98296 -3.34397 0
M  V30 3321 H 313.492 3.57083 -3.28054 0
M  V30 3322 N 314.835 0.952656 1.25548 0
M  V30 3323 C 316.082 0.606373 1.93208 0
M  V30 3324 C 316.41 -0.85631 1.74636 0
M  V30 3325 O 315.665 -1.62951 1.08376 0
M  V30 3326 C 315.964 0.908818 3.45652 0
M  V30 3327 C 315.63 2.35722 3.84378 0
M  V30 3328 C 314.292 2.75312 3.9466 0
M  V30 3329 C 316.644 3.29793 4.03591 0
M  V30 3330 C 313.972 4.08047 4.21562 0
M  V30 3331 C 316.324 4.62138 4.31985 0
M  V30 3332 C 314.988 5.01528 4.40484 0
M  V30 3333 H 314.258 0.221888 0.706998 0
M  V30 3334 H 316.905 1.20132 1.49133 0
M  V30 3335 H 315.21 0.231456 3.91116 0
M  V30 3336 H 316.907 0.619498 3.96186 0
M  V30 3337 H 313.497 2.04017 3.76928 0
M  V30 3338 H 317.681 3.00397 3.95064 0
M  V30 3339 H 312.937 4.38212 4.26357 0
M  V30 3340 H 317.111 5.35012 4.45797 0
M  V30 3341 H 314.738 6.04406 4.61083 0
M  V30 3342 N 316.313 -1.40141 0.720998 0
M  V30 3343 C 317.243 -2.33339 0.0867621 0
M  V30 3344 C 318.224 -1.53178 -0.739622 0
M  V30 3345 O 319.409 -1.81625 -0.687449 0
M  V30 3346 C 316.539 -3.37194 -0.831728 0
M  V30 3347 C 315.493 -4.27857 -0.110558 0
M  V30 3348 C 314.819 -5.22294 -1.14513 0
M  V30 3349 C 316.119 -5.11872 1.0385 0
M  V30 3350 H 317.813 -2.86626 0.865219 0
M  V30 3351 H 315.359 -1.37814 0.417516 0
M  V30 3352 H 317.312 -4.01335 -1.28485 0
M  V30 3353 H 316.036 -2.82314 -1.64214 0
M  V30 3354 H 314.695 -3.65176 0.322797 0
M  V30 3355 H 314.343 -4.63717 -1.94874 0
M  V30 3356 H 314.043 -5.83797 -0.667446 0
M  V30 3357 H 315.567 -5.89312 -1.59824 0
M  V30 3358 H 316.981 -5.69436 0.664482 0
M  V30 3359 H 315.378 -5.82445 1.4449 0
M  V30 3360 H 316.448 -4.4753 1.86668 0
M  V30 3361 N 317.792 -0.46758 -1.50504 0
M  V30 3362 C 318.722 0.318381 -2.31319 0
M  V30 3363 C 319.703 0.993564 -1.38066 0
M  V30 3364 O 320.888 0.991411 -1.66987 0
M  V30 3365 C 318.018 1.40275 -3.17711 0
M  V30 3366 C 316.972 0.849373 -4.19487 0
M  V30 3367 C 316.298 2.03177 -4.94594 0
M  V30 3368 C 317.598 -0.136942 -5.2212 0
M  V30 3369 H 319.292 -0.356106 -2.97275 0
M  V30 3370 H 316.838 -0.172703 -1.42961 0
M  V30 3371 H 318.791 1.96004 -3.73042 0
M  V30 3372 H 317.515 2.10596 -2.49634 0
M  V30 3373 H 316.174 0.314076 -3.65252 0
M  V30 3374 H 315.822 2.72187 -4.22993 0
M  V30 3375 H 315.522 1.66774 -5.63436 0
M  V30 3376 H 317.046 2.59403 -5.52759 0
M  V30 3377 H 318.46 0.331056 -5.72343 0
M  V30 3378 H 316.857 -0.41507 -5.98663 0
M  V30 3379 H 317.927 -1.06398 -4.73083 0
M  V30 3380 N 319.27 1.56325 -0.20005 0
M  V30 3381 C 320.686 1.58839 0.155716 0
M  V30 3382 C 320.886 1.21636 1.60645 0
M  V30 3383 O 319.942 0.941437 2.34293 0
M  V30 3384 C 321.255 3.0032 -0.151124 0
M  V30 3385 C 322.803 3.12866 -0.0916284 0
M  V30 3386 C 323.278 4.56488 -0.371845 0
M  V30 3387 N 324.769 4.62089 -0.320641 0
M  V30 3388 C 325.504 5.71116 -0.511243 0
M  V30 3389 N 325 6.88592 -0.762461 0
M  V30 3390 N 326.793 5.60335 -0.445157 0
M  V30 3391 H 318.944 1.78788 -1.14668 0
M  V30 3392 H 321.207 0.829996 -0.458051 0
M  V30 3393 H 320.913 3.32117 -1.15721 0
M  V30 3394 H 320.787 3.73257 0.543986 0
M  V30 3395 H 323.174 2.80878 0.905065 0
M  V30 3396 H 323.255 2.42304 -0.81989 0
M  V30 3397 H 322.899 4.89189 -1.36588 0
M  V30 3398 H 322.829 5.25246 0.377362 0
M  V30 3399 H 325.32 3.77665 -0.13329 0
M  V30 3400 H 325.633 7.67581 -0.896576 0
M  V30 3401 H 323.978 6.90387 -0.799412 0
M  V30 3402 H 327.169 4.67436 -0.249278 0
M  V30 3403 H 327.342 6.45243 -0.597116 0
M  V30 3404 N 320.748 -0.0735177 1.57428 0
M  V30 3405 C 321.994 -0.768909 1.88307 0
M  V30 3406 C 322.349 -1.75273 0.793535 0
M  V30 3407 O 321.642 -1.90527 -0.202466 0
M  V30 3408 C 321.836 -1.51799 3.23561 0
M  V30 3409 C 321.665 -0.608217 4.45568 0
M  V30 3410 C 320.435 -0.245808 5.04702 0
M  V30 3411 C 322.633 0.0942904 5.14214 0
M  V30 3412 N 320.615 0.66987 6.10234 0
M  V30 3413 C 321.986 0.867222 6.13905 0
M  V30 3414 C 324.041 0.165943 4.97623 0
M  V30 3415 C 322.744 1.70515 6.98797 0
M  V30 3416 C 324.77 0.990837 5.83041 0
M  V30 3417 C 324.132 1.75182 6.82269 0
M  V30 3418 H 320.231 -0.25685 0.738615 0
M  V30 3419 H 322.815 -0.030499 1.94676 0
M  V30 3420 H 320.986 -2.22713 3.18203 0
M  V30 3421 H 322.718 -2.16226 3.42094 0
M  V30 3422 H 319.473 -0.598284 4.69806 0
M  V30 3423 H 319.897 1.1209 6.67656 0
M  V30 3424 H 324.539 -0.408064 4.20826 0
M  V30 3425 H 322.257 2.29013 7.7497 0
M  V30 3426 H 325.843 1.04923 5.72261 0
M  V30 3427 H 324.723 2.37983 7.47217 0
M  V30 3428 N 322.226 -1.5378 -0.344866 0
M  V30 3429 C 323.136 -1.84667 -1.4469 0
M  V30 3430 C 324.152 -0.736704 -1.57635 0
M  V30 3431 O 325.328 -1.02888 -1.73136 0
M  V30 3432 C 322.393 -2.04869 -2.79696 0
M  V30 3433 C 321.454 -3.28731 -2.76106 0
M  V30 3434 C 320.687 -3.4796 -4.04673 0
M  V30 3435 O 320.91 -2.71052 -5.01883 0
M  V30 3436 O 319.844 -4.41383 -4.09224 0
M  V30 3437 H 323.67 -2.78334 -1.21506 0
M  V30 3438 H 321.255 -1.39418 -0.536921 0
M  V30 3439 H 323.137 -2.19609 -3.59652 0
M  V30 3440 H 321.812 -1.14391 -3.02814 0
M  V30 3441 H 320.719 -3.19396 -1.94774 0
M  V30 3442 H 322.052 -4.19198 -2.57941 0
M  V30 3443 N 323.704 0.605807 -1.45491 0
M  V30 3444 C 324.636 1.73031 -1.5031 0
M  V30 3445 C 325.649 1.57968 -0.393687 0
M  V30 3446 O 326.838 1.65817 -0.660839 0
M  V30 3447 C 323.938 3.11049 -1.34543 0
M  V30 3448 C 323.111 3.52334 -2.59189 0
M  V30 3449 C 322.17 4.69323 -2.37954 0
M  V30 3450 O 321.196 4.7635 -3.11575 0
M  V30 3451 N 322.398 5.62705 -1.4263 0
M  V30 3452 H 325.163 1.6936 -2.4726 0
M  V30 3453 H 322.724 0.79114 -1.41254 0
M  V30 3454 H 324.716 3.87071 -1.18144 0
M  V30 3455 H 323.286 3.09217 -0.458623 0
M  V30 3456 H 322.506 2.66256 -2.90691 0
M  V30 3457 H 323.794 3.76677 -3.42041 0
M  V30 3458 H 323.192 5.59744 -0.818758 0
M  V30 3459 H 321.749 6.38252 -1.32202 0
M  V30 3460 N 325.182 1.32811 0.848464 0
M  V30 3461 C 326.092 1.24278 1.98978 0
M  V30 3462 C 327.108 0.155176 1.73307 0
M  V30 3463 O 328.284 0.376999 1.9784 0
M  V30 3464 C 325.349 0.972444 3.32783 0
M  V30 3465 C 324.41 2.14911 3.71634 0
M  V30 3466 C 323.643 1.89157 4.99054 0
M  V30 3467 O 323.866 0.837165 5.64223 0
M  V30 3468 O 322.8 2.75433 5.35183 0
M  V30 3469 H 326.626 2.20238 2.09115 0
M  V30 3470 H 324.211 1.12762 0.980052 0
M  V30 3471 H 326.093 0.838432 4.12975 0
M  V30 3472 H 324.768 0.043051 3.23671 0
M  V30 3473 H 323.675 2.33862 2.91992 0
M  V30 3474 H 325.008 3.06151 3.85399 0
M  V30 3475 N 326.66 -1.06551 1.16123 0
M  V30 3476 C 327.909 -1.78687 0.935622 0
M  V30 3477 C 328.222 -1.88056 -0.538001 0
M  V30 3478 O 329.428 -2.56794 -0.88143 0
M  V30 3479 C 327.884 -3.21143 1.62466 0
M  V30 3480 C 327.492 -3.19949 3.13587 0
M  V30 3481 C 329.236 -3.9783 1.48092 0
M  V30 3482 C 327.143 -4.57108 3.75241 0
M  V30 3483 H 326.073 -0.669712 0.346412 0
M  V30 3484 H 328.724 -1.19534 1.39226 0
M  V30 3485 H 327.106 -3.80539 1.09572 0
M  V30 3486 H 328.28 -2.70151 3.73303 0
M  V30 3487 H 326.595 -2.5676 3.27816 0
M  V30 3488 H 329.192 -4.99217 1.91538 0
M  V30 3489 H 329.535 -4.14078 0.429507 0
M  V30 3490 H 330.068 -3.4495 1.98127 0
M  V30 3491 H 326.807 -4.46065 4.80319 0
M  V30 3492 H 326.327 -5.07111 3.20309 0
M  V30 3493 H 328.006 -5.26069 3.76644 0
M  V30 3494 N 328.138 -0.959301 -1.25041 0
M  V30 3495 C 329.07 -0.440543 -2.24926 0
M  V30 3496 C 330.083 0.446131 -1.56568 0
M  V30 3497 O 331.272 0.253657 -1.76689 0
M  V30 3498 C 328.372 0.38412 -3.36716 0
M  V30 3499 C 327.545 -0.490658 -4.34639 0
M  V30 3500 C 326.604 0.276587 -5.25473 0
M  V30 3501 O 325.63 -0.326614 -5.68262 0
M  V30 3502 N 326.832 1.56844 -5.5891 0
M  V30 3503 H 329.597 -1.29931 -2.70071 0
M  V30 3504 H 327.158 -0.830181 -1.38995 0
M  V30 3505 H 329.15 0.905228 -3.94446 0
M  V30 3506 H 327.72 1.14377 -2.90924 0
M  V30 3507 H 326.94 -1.19282 -3.7572 0
M  V30 3508 H 328.228 -1.08756 -4.97041 0
M  V30 3509 H 327.626 2.08036 -5.26059 0
M  V30 3510 H 326.183 2.03541 -6.19205 0
M  V30 3511 N 329.616 1.39756 -0.72842 0
M  V30 3512 C 330.563 2.30647 -0.0841519 0
M  V30 3513 C 331.533 1.48869 0.7367 0
M  V30 3514 O 332.718 1.77574 0.698015 0
M  V30 3515 C 329.858 3.35165 0.822091 0
M  V30 3516 C 328.971 4.31999 -0.0106663 0
M  V30 3517 C 328.106 5.23585 0.896241 0
M  V30 3518 C 327.145 6.12072 0.0583381 0
M  V30 3519 N 326.282 6.96035 0.920818 0
M  V30 3520 H 331.122 2.85173 -0.864891 0
M  V30 3521 H 328.659 1.40422 -0.438179 0
M  V30 3522 H 330.617 3.94345 1.36189 0
M  V30 3523 H 329.247 2.8211 1.56888 0
M  V30 3524 H 328.299 3.74492 -0.66781 0
M  V30 3525 H 329.611 4.9443 -0.658825 0
M  V30 3526 H 328.765 5.87759 1.50412 0
M  V30 3527 H 327.504 4.61459 1.57819 0
M  V30 3528 H 326.509 5.46916 -0.562389 0
M  V30 3529 H 327.734 6.76261 -0.6203 0
M  V30 3530 H 325.68 6.36485 1.58818 0
M  V30 3531 H 325.597 7.55284 0.32899 0
M  V30 3532 H 326.865 7.64646 1.51447 0
M  V30 3533 N 331.094 0.475555 1.50254 0
M  V30 3534 C 332.024 -0.30611 2.31485 0
M  V30 3535 C 333.005 -0.986228 1.38591 0
M  V30 3536 O 334.19 -0.982541 1.67511 0
M  V30 3537 C 331.32 -1.38588 3.1845 0
M  V30 3538 C 330.274 -0.827115 4.19932 0
M  V30 3539 C 329.6 -2.00551 4.95665 0
M  V30 3540 C 330.9 0.16463 5.2204 0
M  V30 3541 H 332.594 0.371866 2.97082 0
M  V30 3542 H 330.14 0.180282 1.42867 0
M  V30 3543 H 332.093 -1.94023 3.74076 0
M  V30 3544 H 330.817 -2.09269 2.50747 0
M  V30 3545 H 329.476 -0.294702 3.65414 0
M  V30 3546 H 329.124 -2.6994 4.2443 0
M  V30 3547 H 328.824 -1.63784 5.64313 0
M  V30 3548 H 330.348 -2.56468 5.54127 0
M  V30 3549 H 331.762 -0.300699 5.72511 0
M  V30 3550 H 330.159 0.446813 5.98434 0
M  V30 3551 H 331.229 1.08905 4.72512 0
M  V30 3552 N 332.573 -1.56217 0.208337 0
M  V30 3553 C 333.801 -2.02337 -0.43215 0
M  V30 3554 C 334.216 -1.08834 -1.54275 0
M  V30 3555 O 333.573 -0.0955462 -1.8225 0
M  V30 3556 C 333.624 -3.48072 -0.976138 0
M  V30 3557 O 333.345 -4.38007 0.0901621 0
M  V30 3558 C 334.846 -4.09773 -1.69119 0
M  V30 3559 H 332.066 -0.662385 -0.10718 0
M  V30 3560 H 334.61 -2.01966 0.320923 0
M  V30 3561 H 332.765 -3.49099 -1.67954 0
M  V30 3562 H 333.179 -5.23543 -0.316701 0
M  V30 3563 H 334.653 -5.13556 -2.02397 0
M  V30 3564 H 335.13 -3.53999 -2.59964 0
M  V30 3565 H 335.736 -4.12556 -1.03332 0
M  V30 3566 N 334.051 0.0651679 -1.57465 0
M  V30 3567 C 335.299 0.761555 -1.87202 0
M  V30 3568 C 335.62 1.77778 -0.801243 0
M  V30 3569 O 334.89 1.95166 0.16937 0
M  V30 3570 H 333.47 0.284251 -0.690804 0
M  V30 3571 H 336.132 0.0396827 -1.9486 0
M  V30 3572 H 335.228 1.27365 -2.84929 0
M  V30 3573 N 335.529 1.53961 0.336706 0
M  V30 3574 C 336.806 1.62171 1.09361 0
M  V30 3575 C 337.186 0.447263 2.06307 0
M  V30 3576 O 336.534 -0.559802 2.21537 0
M  V30 3577 C 336.744 2.98565 1.80721 0
M  V30 3578 C 338.092 3.54157 2.34218 0
M  V30 3579 O 339.116 3.00784 1.90807 0
M  V30 3580 O 337.975 4.47528 3.13657 0
M  V30 3581 H 335.069 0.6562 0.503319 0
M  V30 3582 H 337.615 1.66307 0.33765 0
M  V30 3583 H 336.387 3.75482 1.10132 0
M  V30 3584 H 336.01 2.9805 2.63158 0
M  V30 3585 N 337.007 -0.598083 1.45811 0
M  V30 3586 C 337.917 -1.73632 1.57763 0
M  V30 3587 C 338.933 -1.67763 0.461676 0
M  V30 3588 O 340.109 -1.87949 0.723685 0
M  V30 3589 C 337.174 -3.10114 1.55018 0
M  V30 3590 C 336.235 -3.27364 2.77726 0
M  V30 3591 C 335.468 -4.57334 2.75102 0
M  V30 3592 O 335.691 -5.40258 1.8297 0
M  V30 3593 O 334.625 -4.77502 3.66437 0
M  V30 3594 H 338.451 -1.66498 2.53992 0
M  V30 3595 H 336.036 -0.763308 1.28429 0
M  V30 3596 H 337.918 -3.9141 1.56129 0
M  V30 3597 H 336.593 -3.17718 0.619431 0
M  V30 3598 H 335.5 -2.45619 2.82174 0
M  V30 3599 H 336.833 -3.24641 3.69958 0
M  V30 3600 N 338.485 -1.33259 -0.841409 0
M  V30 3601 C 339.433 -1.23279 -1.97244 0
M  V30 3602 C 340.427 -0.134706 -1.68864 0
M  V30 3603 O 341.633 -0.298501 -1.77508 0
M  V30 3604 H 338.008 -0.382497 -0.647457 0
M  V30 3605 H 339.979 -2.18906 -2.02787 0
M  V30 3606 C 338.728 -0.986268 -3.33419 0
M  V30 3607 H 338.051 -1.82347 -3.55794 0
M  V30 3608 H 339.491 -0.956728 -4.13065 0
M  V30 3609 C 337.95 0.310842 -3.35463 0
M  V30 3610 O 338.48 1.31838 -3.79449 0
M  V30 3611 N 336.686 0.337485 -2.88634 0
M  V30 3612 H 336.233 -0.482967 -2.53032 0
M  V30 3613 H 336.191 1.20518 -2.90384 0
M  V30 3614 N 339.963 1.05934 -1.16686 0
M  V30 3615 C 341.21 1.788 -0.950622 0
M  V30 3616 C 341.538 1.87384 0.521305 0
M  V30 3617 O 340.793 1.36438 1.40297 0
M  V30 3618 C 341.092 3.23105 -1.52767 0
M  V30 3619 C 340.758 3.34594 -3.02254 0
M  V30 3620 C 339.42 3.37437 -3.43059 0
M  V30 3621 C 341.772 3.36219 -3.98254 0
M  V30 3622 C 339.1 3.39525 -4.78477 0
M  V30 3623 C 341.452 3.39845 -5.33562 0
M  V30 3624 C 340.116 3.40971 -5.73842 0
M  V30 3625 H 339.386 0.654275 -0.347857 0
M  V30 3626 H 342.033 1.24555 -1.45459 0
M  V30 3627 H 340.338 3.80227 -0.94524 0
M  V30 3628 H 342.035 3.7809 -1.336 0
M  V30 3629 H 338.625 3.3309 -2.6972 0
M  V30 3630 H 342.809 3.33231 -3.67792 0
M  V30 3631 H 338.065 3.38703 -5.09009 0
M  V30 3632 H 342.239 3.4005 -6.07733 0
M  V30 3633 H 339.866 3.42342 -6.78753 0
M  V30 3634 N 341.441 0.965919 1.2453 0
M  V30 3635 C 342.669 0.644385 1.96609 0
M  V30 3636 C 343.084 -0.785823 1.71669 0
M  V30 3637 O 342.441 -1.52703 0.999399 0
M  V30 3638 C 342.492 0.907375 3.49927 0
M  V30 3639 O 342.213 2.28136 3.74013 0
M  V30 3640 C 343.714 0.599784 4.39224 0
M  V30 3641 H 340.934 0.240588 0.626385 0
M  V30 3642 H 343.478 1.29337 1.58405 0
M  V30 3643 H 341.633 0.304631 3.862 0
M  V30 3644 H 342.047 2.36002 4.68405 0
M  V30 3645 H 343.521 0.834263 5.45659 0
M  V30 3646 H 343.998 -0.465921 4.36722 0
M  V30 3647 H 344.604 1.18235 4.08535 0
M  V30 3648 N 342.919 -1.39368 0.735821 0
M  V30 3649 C 344.168 -1.99733 0.281004 0
M  V30 3650 C 344.481 -1.59055 -1.13846 0
M  V30 3651 O 345.687 -2.12262 -1.69284 0
M  V30 3652 C 344.143 -3.57057 0.451462 0
M  V30 3653 C 343.751 -4.06697 1.87886 0
M  V30 3654 C 345.495 -4.2446 0.0584616 0
M  V30 3655 C 343.402 -5.56598 1.99883 0
M  V30 3656 H 342.332 -0.747163 0.101311 0
M  V30 3657 H 344.983 -1.59357 0.909819 0
M  V30 3658 H 343.365 -3.95234 -0.246263 0
M  V30 3659 H 344.539 -3.79853 2.60861 0
M  V30 3660 H 342.854 -3.5196 2.22515 0
M  V30 3661 H 345.451 -5.34549 0.127099 0
M  V30 3662 H 345.794 -4.04444 -0.986433 0
M  V30 3663 H 346.327 -3.9146 0.707374 0
M  V30 3664 H 343.066 -5.81494 3.02564 0
M  V30 3665 H 342.586 -5.85242 1.31346 0
M  V30 3666 H 344.265 -6.22022 1.78039 0
M  V30 3667 N 344.397 -0.483516 -1.5 0
M  V30 3668 C 345.808 -0.0314176 -1.86674 0
M  V30 3669 C 346.159 1.37728 -1.39733 0
M  V30 3670 O 345.284 2.02327 -0.767635 0
M  V30 3671 C 345.879 -0.0502376 -3.38763 0
M  V30 3672 C 344.438 0.346442 -3.74802 0
M  V30 3673 C 343.585 -0.430366 -2.7394 0
M  V30 3674 H 346.536 -0.697182 -1.42566 0
M  V30 3675 H 346.557 0.749116 -3.73053 0
M  V30 3676 H 346.069 -1.07563 -3.72897 0
M  V30 3677 H 344.17 1.37572 -3.46273 0
M  V30 3678 H 344.283 0.0391486 -4.79084 0
M  V30 3679 H 342.647 0.117557 -2.54429 0
M  V30 3680 H 343.43 -1.4555 -3.10918 0
M  V30 3681 N 345.875 1.56104 -0.216619 0
M  V30 3682 C 347.105 2.02269 0.420802 0
M  V30 3683 C 347.513 1.09575 1.5424 0
M  V30 3684 O 346.856 0.0967308 1.83445 0
M  V30 3685 C 346.918 3.44784 1.01806 0
M  V30 3686 C 346.582 4.56988 0.0325154 0
M  V30 3687 C 347.579 5.14225 -0.766055 0
M  V30 3688 C 345.264 5.02228 -0.0848092 0
M  V30 3689 C 347.258 6.15169 -1.6687 0
M  V30 3690 C 344.945 6.03011 -0.990994 0
M  V30 3691 C 345.943 6.59357 -1.78149 0
M  V30 3692 O 345.631 7.58179 -2.67245 0
M  V30 3693 H 345.363 0.667353 0.107776 0
M  V30 3694 H 347.917 2.02747 -0.329034 0
M  V30 3695 H 346.147 3.41359 1.81689 0
M  V30 3696 H 347.836 3.74626 1.56237 0
M  V30 3697 H 348.602 4.80126 -0.685836 0
M  V30 3698 H 344.481 4.58054 0.520349 0
M  V30 3699 H 348.025 6.59076 -2.28615 0
M  V30 3700 H 343.922 6.36532 -1.07225 0
M  V30 3701 H 344.69 7.75682 -2.61265 0
M  V30 3702 N 347.353 -0.0568162 1.57498 0
M  V30 3703 C 348.599 -0.748893 1.89111 0
M  V30 3704 C 348.954 -1.74422 0.81208 0
M  V30 3705 O 348.247 -1.90731 -0.182247 0
M  V30 3706 C 348.441 -1.48359 3.25153 0
M  V30 3707 C 348.27 -0.560924 4.46188 0
M  V30 3708 C 347.04 -0.192264 5.04934 0
M  V30 3709 C 349.238 0.148824 5.14085 0
M  V30 3710 N 347.22 0.734555 6.0949 0
M  V30 3711 C 348.591 0.932286 6.12951 0
M  V30 3712 C 350.646 0.218713 4.97419 0
M  V30 3713 C 349.349 1.77917 6.96949 0
M  V30 3714 C 351.375 1.05262 5.81957 0
M  V30 3715 C 350.737 1.82409 6.80372 0
M  V30 3716 H 346.836 -0.249002 0.741298 0
M  V30 3717 H 349.42 -0.00984926 1.94698 0
M  V30 3718 H 347.591 -2.19326 3.20547 0
M  V30 3719 H 349.323 -2.12586 3.44368 0
M  V30 3720 H 346.078 -0.548421 4.70414 0
M  V30 3721 H 346.502 1.19165 6.6643 0
M  V30 3722 H 351.144 -0.363407 4.21235 0
M  V30 3723 H 348.862 2.3722 7.72497 0
M  V30 3724 H 352.448 1.10987 5.71116 0
M  V30 3725 H 351.328 2.45895 7.44651 0
M  V30 3726 N 348.832 -1.54138 -0.328536 0
M  V30 3727 C 350.109 -1.62749 -1.08499 0
M  V30 3728 C 350.489 -0.458198 -2.06067 0
M  V30 3729 O 349.837 0.548046 -2.2183 0
M  V30 3730 C 350.047 -2.99519 -1.79135 0
M  V30 3731 C 351.395 -3.55394 -2.32337 0
M  V30 3732 O 352.419 -3.01792 -1.89209 0
M  V30 3733 O 351.278 -4.49186 -3.11279 0
M  V30 3734 H 348.372 -0.65886 -0.499832 0
M  V30 3735 H 350.918 -1.66484 -0.328826 0
M  V30 3736 H 349.69 -3.76061 -1.08139 0
M  V30 3737 H 349.313 -2.99441 -2.61574 0
M  V30 3738 N 350.31 0.590341 -1.46126 0
M  V30 3739 C 351.556 1.34874 -1.52252 0
M  V30 3740 C 351.911 1.91658 -0.168807 0
M  V30 3741 O 351.204 1.73093 0.821556 0
M  V30 3742 C 351.398 2.5032 -2.55097 0
M  V30 3743 C 351.227 2.04843 -4.00337 0
M  V30 3744 C 349.997 1.90213 -4.68132 0
M  V30 3745 C 352.195 1.61267 -4.88362 0
M  V30 3746 N 350.177 1.38727 -5.9802 0
M  V30 3747 C 351.548 1.21319 -6.08015 0
M  V30 3748 C 353.603 1.49015 -4.75078 0
M  V30 3749 C 352.306 0.7034 -7.15852 0
M  V30 3750 C 354.332 0.994401 -5.8298 0
M  V30 3751 C 353.694 0.604659 -7.018 0
M  V30 3752 H 349.793 0.486803 -0.612002 0
M  V30 3753 H 352.377 0.673007 -1.82698 0
M  V30 3754 H 350.548 3.15466 -2.26574 0
M  V30 3755 H 352.28 3.1725 -2.51266 0
M  V30 3756 H 349.035 2.11927 -4.23537 0
M  V30 3757 H 349.459 1.15168 -6.67132 0
M  V30 3758 H 354.101 1.77768 -3.83612 0
M  V30 3759 H 351.819 0.403446 -8.07092 0
M  V30 3760 H 355.405 0.903621 -5.7474 0
M  V30 3761 H 354.285 0.226963 -7.83871 0
M  V30 3762 N 351.788 1.33704 0.83433 0
M  V30 3763 C 353.204 1.13137 1.12571 0
M  V30 3764 C 353.404 -0.0747261 2.01361 0
M  V30 3765 O 352.46 -0.753647 2.4099 0
M  V30 3766 C 353.773 2.42105 1.78342 0
M  V30 3767 C 355.321 2.48054 1.90888 0
M  V30 3768 C 355.796 3.76995 2.60075 0
M  V30 3769 N 357.287 3.78092 2.67584 0
M  V30 3770 C 358.022 4.74574 3.21818 0
M  V30 3771 N 357.518 5.81434 3.76705 0
M  V30 3772 N 359.311 4.62044 3.20112 0
M  V30 3773 H 351.462 2.11 0.243489 0
M  V30 3774 H 353.725 0.932532 0.17055 0
M  V30 3775 H 353.431 3.30391 1.20561 0
M  V30 3776 H 353.305 2.54594 2.7832 0
M  V30 3777 H 355.692 1.60215 2.47821 0
M  V30 3778 H 355.773 2.39502 0.898459 0
M  V30 3779 H 355.417 4.65219 2.03799 0
M  V30 3780 H 355.347 3.82825 3.61597 0
M  V30 3781 H 357.838 3.00865 2.28667 0
M  V30 3782 H 358.151 6.51084 4.16305 0
M  V30 3783 H 356.496 5.85163 3.7498 0
M  V30 3784 H 359.687 3.77716 2.76493 0
M  V30 3785 H 359.86 5.37406 3.62076 0
M  V30 3786 N 353.266 -1.05314 1.17247 0
M  V30 3787 C 354.543 -1.75184 0.87005 0
M  V30 3788 C 354.923 -2.01481 -0.629965 0
M  V30 3789 O 354.271 -1.64988 -1.58086 0
M  V30 3790 C 354.481 -3.04594 1.70363 0
M  V30 3791 C 355.829 -3.78567 1.92281 0
M  V30 3792 O 356.853 -3.14461 1.67311 0
M  V30 3793 O 355.712 -4.93755 2.3424 0
M  V30 3794 H 352.806 -0.761729 0.322021 0
M  V30 3795 H 355.352 -1.11493 1.27935 0
M  V30 3796 H 354.124 -2.81201 2.72106 0
M  V30 3797 H 353.747 -3.76022 1.29202 0
M  V30 3798 N 354.744 -0.972509 -1.24016 0
M  V30 3799 C 355.707 -0.511403 -2.23422 0
M  V30 3800 C 356.707 0.394679 -1.55881 0
M  V30 3801 O 357.897 0.189469 -1.73167 0
M  V30 3802 C 355.029 0.258769 -3.39916 0
M  V30 3803 H 356.222 -1.39024 -2.6573 0
M  V30 3804 H 353.775 -0.757585 -1.36713 0
M  V30 3805 H 354.51 1.1545 -3.03054 0
M  V30 3806 H 354.295 -0.391522 -3.9014 0
M  V30 3807 H 355.785 0.570244 -4.13688 0
M  V30 3808 N 356.222 1.38976 -0.743202 0
M  V30 3809 C 357.132 2.3434 -0.110399 0
M  V30 3810 C 358.148 1.58741 0.712559 0
M  V30 3811 O 359.324 1.9099 0.639125 0
M  V30 3812 C 356.389 3.37812 0.780012 0
M  V30 3813 C 355.45 4.29263 -0.0561319 0
M  V30 3814 C 354.683 5.27793 0.791875 0
M  V30 3815 O 354.906 5.33043 2.03031 0
M  V30 3816 O 353.84 6.01512 0.216183 0
M  V30 3817 H 357.666 2.90129 -0.897714 0
M  V30 3818 H 355.251 1.40643 -0.503966 0
M  V30 3819 H 357.133 4.01194 1.28923 0
M  V30 3820 H 355.808 2.84395 1.546 0
M  V30 3821 H 354.715 3.69076 -0.611056 0
M  V30 3822 H 356.048 4.85907 -0.784531 0
M  V30 3823 N 357.7 0.491464 1.49741 0
M  V30 3824 C 358.647 -0.292027 2.28945 0
M  V30 3825 C 359.617 -0.968973 1.34908 0
M  V30 3826 O 360.802 -0.97748 1.6386 0
M  V30 3827 C 357.942 -1.35617 3.17336 0
M  V30 3828 C 357.055 -0.691957 4.26422 0
M  V30 3829 C 356.19 -1.73572 5.02042 0
M  V30 3830 C 355.229 -1.05286 6.02977 0
M  V30 3831 N 354.366 -2.0404 6.71798 0
M  V30 3832 H 359.206 0.389654 2.95442 0
M  V30 3833 H 356.743 0.204003 1.45679 0
M  V30 3834 H 358.701 -1.98502 3.66951 0
M  V30 3835 H 357.331 -2.00674 2.52844 0
M  V30 3836 H 356.383 0.0499523 3.80367 0
M  V30 3837 H 357.695 -0.153946 4.98562 0
M  V30 3838 H 356.849 -2.43987 5.55478 0
M  V30 3839 H 355.588 -2.30757 4.29654 0
M  V30 3840 H 354.593 -0.334446 5.48782 0
M  V30 3841 H 355.818 -0.487636 6.77347 0
M  V30 3842 H 353.764 -2.60205 6.02187 0
M  V30 3843 H 353.681 -1.55279 7.39881 0
M  V30 3844 H 354.949 -2.73772 7.29842 0
M  V30 3845 N 359.178 -1.55987 0.224894 0
M  V30 3846 C 360.418 -2.00293 -0.407706 0
M  V30 3847 C 360.782 -1.1093 -1.56711 0
M  V30 3848 O 361.983 -1.44597 -2.26595 0
M  V30 3849 C 360.254 -3.47675 -0.82805 0
M  V30 3850 S 361.813 -4.14 -1.45429 0
M  V30 3851 H 358.631 -0.699152 -0.129256 0
M  V30 3852 H 361.233 -1.92609 0.334967 0
M  V30 3853 H 359.937 -4.10392 0.0253964 0
M  V30 3854 H 359.468 -3.59239 -1.60345 0
M  V30 3855 H 361.483 -4.13465 -2.74337 0
M  V30 3856 N 360.656 0.0484629 -1.57525 0
M  V30 3857 C 361.933 0.777447 -1.79486 0
M  V30 3858 C 362.313 1.94597 -0.818251 0
M  V30 3859 O 361.661 2.28047 0.143767 0
M  V30 3860 C 361.871 1.22864 -3.26658 0
M  V30 3861 C 363.219 1.65251 -3.91123 0
M  V30 3862 O 364.243 1.32372 -3.3069 0
M  V30 3863 O 363.102 2.26207 -4.97486 0
M  V30 3864 H 360.196 0.374357 -0.737419 0
M  V30 3865 H 362.742 0.0267359 -1.69679 0
M  V30 3866 H 361.514 0.393589 -3.89316 0
M  V30 3867 H 361.137 2.03996 -3.41279 0
M  V30 3868 N 362.134 1.5431 0.320358 0
M  V30 3869 C 363.383 1.7188 1.05546 0
M  V30 3870 C 363.696 0.501143 1.89071 0
M  V30 3871 O 364.902 0.558258 2.65699 0
M  V30 3872 C 363.358 3.04025 1.92605 0
M  V30 3873 C 362.966 4.33207 1.14176 0
M  V30 3874 C 364.71 3.30959 2.65832 0
M  V30 3875 C 362.617 5.56412 2.00399 0
M  V30 3876 H 361.547 0.640547 0.397763 0
M  V30 3877 H 364.198 1.80802 0.313522 0
M  V30 3878 H 362.58 2.89019 2.7071 0
M  V30 3879 H 363.754 4.58989 0.40819 0
M  V30 3880 H 362.069 4.13062 0.526165 0
M  V30 3881 H 364.666 4.20203 3.30656 0
M  V30 3882 H 365.009 2.48979 3.33639 0
M  V30 3883 H 365.542 3.46847 1.94787 0
M  V30 3884 H 362.281 6.41004 1.37094 0
M  V30 3885 H 361.801 5.34844 2.7148 0
M  V30 3886 H 363.48 5.92938 2.58908 0
M  V30 3887 N 363.613 -0.582584 1.46437 0
M  V30 3888 C 364.853 -1.35184 1.53312 0
M  V30 3889 C 365.217 -1.9115 0.180508 0
M  V30 3890 O 366.418 -2.68514 0.124017 0
M  V30 3891 C 364.689 -2.45089 2.60127 0
M  V30 3892 S 366.248 -3.32439 2.86408 0
M  V30 3893 H 363.066 -0.460559 0.54167 0
M  V30 3894 H 365.668 -0.669709 1.83671 0
M  V30 3895 H 364.372 -2.02366 3.57038 0
M  V30 3896 H 363.903 -3.18074 2.315 0
M  V30 3897 H 365.918 -4.43924 2.21688 0
M  V30 3898 N 365.091 -1.34144 -0.827227 0
M  V30 3899 C 366.319 -1.29325 -1.61501 0
M  V30 3900 C 366.734 0.13354 -1.88327 0
M  V30 3901 O 366.091 1.0793 -1.47164 0
M  V30 3902 C 366.142 -2.07746 -2.95844 0
M  V30 3903 O 365.863 -3.4486 -2.70191 0
M  V30 3904 C 367.364 -2.10273 -3.90256 0
M  V30 3905 H 364.584 -0.445069 -0.50215 0
M  V30 3906 H 367.128 -1.76693 -1.02955 0
M  V30 3907 H 365.283 -1.6403 -3.5096 0
M  V30 3908 H 365.697 -3.85345 -3.55822 0
M  V30 3909 H 367.171 -2.69575 -4.81698 0
M  V30 3910 H 367.648 -1.096 -4.25305 0
M  V30 3911 H 368.254 -2.54059 -3.41078 0
M  V30 3912 N 366.569 1.04691 -1.17803 0
M  V30 3913 C 367.846 1.7472 -0.879328 0
M  V30 3914 C 368.226 2.01812 0.619271 0
M  V30 3915 O 367.574 1.65824 1.57209 0
M  V30 3916 C 367.784 3.03686 -1.71976 0
M  V30 3917 C 369.132 3.77542 -1.94286 0
M  V30 3918 O 370.156 3.13569 -1.68976 0
M  V30 3919 O 369.015 4.92506 -2.36855 0
M  V30 3920 H 366.109 0.760011 -0.326056 0
M  V30 3921 H 368.655 1.10813 -1.28525 0
M  V30 3922 H 367.427 2.79754 -2.73594 0
M  V30 3923 H 367.05 3.75332 -1.31194 0
M  V30 3924 N 368.047 0.979072 1.23499 0
M  V30 3925 C 368.957 0.526431 2.28617 0
M  V30 3926 C 369.973 -0.418126 1.68901 0
M  V30 3927 O 371.149 -0.288372 1.99325 0
M  V30 3928 C 368.214 -0.165235 3.46306 0
M  V30 3929 C 367.275 0.82056 4.21385 0
M  V30 3930 C 366.508 0.161807 5.33455 0
M  V30 3931 O 366.731 -1.04742 5.60701 0
M  V30 3932 O 365.665 0.859708 5.95729 0
M  V30 3933 H 369.491 1.4006 2.69475 0
M  V30 3934 H 367.076 0.746643 1.29405 0
M  V30 3935 H 368.958 -0.553287 4.17752 0
M  V30 3936 H 367.633 -1.01419 3.07402 0
M  V30 3937 H 366.54 1.25929 3.52268 0
M  V30 3938 H 367.873 1.63828 4.64135 0
M  V30 3939 N 369.525 -1.3858 0.750561 0
M  V30 3940 C 370.755 -2.04175 0.31564 0
M  V30 3941 C 371.163 -1.56726 -1.05989 0
M  V30 3942 O 370.506 -0.734225 -1.68389 0
M  V30 3943 C 370.568 -3.58585 0.256389 0
M  V30 3944 C 370.232 -4.29077 1.57296 0
M  V30 3945 C 371.229 -4.54656 2.52159 0
M  V30 3946 C 368.914 -4.67324 1.84156 0
M  V30 3947 C 370.908 -5.17512 3.72103 0
M  V30 3948 C 368.595 -5.29905 3.04374 0
M  V30 3949 C 369.593 -5.54933 3.98168 0
M  V30 3950 O 369.281 -6.16212 5.16273 0
M  V30 3951 H 369.013 -0.662742 0.133226 0
M  V30 3952 H 371.567 -1.78313 1.01948 0
M  V30 3953 H 369.797 -3.83406 -0.503677 0
M  V30 3954 H 371.486 -4.05628 -0.148612 0
M  V30 3955 H 372.252 -4.25539 2.32683 0
M  V30 3956 H 368.131 -4.47191 1.11988 0
M  V30 3957 H 371.675 -5.36963 4.45327 0
M  V30 3958 H 367.572 -5.58444 3.23745 0
M  V30 3959 H 368.34 -6.34701 5.16815 0
M  V30 3960 N 371.003 -0.499398 -1.49478 0
M  V30 3961 C 371.936 0.326491 -2.25852 0
M  V30 3962 C 372.914 0.971776 -1.30366 0
M  V30 3963 O 374.098 1.00219 -1.59651 0
M  V30 3964 C 371.225 1.45969 -3.05632 0
M  V30 3965 C 370.271 0.928938 -4.16261 0
M  V30 3966 S 371.104 -0.179012 -5.35201 0
M  V30 3967 C 372.26 0.957389 -6.18534 0
M  V30 3968 H 372.493 -0.321746 -2.95554 0
M  V30 3969 H 370.026 -0.284674 -1.51753 0
M  V30 3970 H 371.984 2.109 -3.52181 0
M  V30 3971 H 370.645 2.07953 -2.35402 0
M  V30 3972 H 369.838 1.77813 -4.71592 0
M  V30 3973 H 369.44 0.356869 -3.72293 0
M  V30 3974 H 371.732 1.86296 -6.51383 0
M  V30 3975 H 372.675 0.442733 -7.06715 0
M  V30 3976 H 373.083 1.224 -5.5107 0
M  V30 3977 N 372.481 1.55866 -0.233164 0
M  V30 3978 C 373.729 1.9821 0.394593 0
M  V30 3979 C 374.05 1.12234 1.59463 0
M  V30 3980 O 373.32 0.201981 1.94856 0
M  V30 3981 H 371.9 0.732034 0.148778 0
M  V30 3982 H 374.562 1.92107 -0.32876 0
M  V30 3983 H 373.658 3.03845 0.713063 0
M  V30 3984 N 373.959 -0.0401083 1.57549 0
M  V30 3985 C 375.207 -0.731677 1.8839 0
M  V30 3986 C 375.528 -1.76481 0.829425 0
M  V30 3987 O 374.798 -1.95411 -0.1383 0
M  V30 3988 H 373.378 -0.273225 0.695239 0
M  V30 3989 H 376.04 -0.00867725 1.94898 0
M  V30 3990 H 375.136 -1.22816 2.86919 0
M  V30 3991 N 375.437 -1.54477 -0.31217 0
M  V30 3992 C 376.369 -1.81011 -1.40598 0
M  V30 3993 C 377.382 -0.692546 -1.47335 0
M  V30 3994 O 378.571 -0.969847 -1.49854 0
M  V30 3995 C 375.671 -1.92307 -2.79054 0
M  V30 3996 C 374.844 -3.22594 -2.95384 0
M  V30 3997 C 373.903 -3.24448 -4.1427 0
M  V30 3998 O 372.929 -3.98035 -4.06887 0
M  V30 3999 N 374.131 -2.49042 -5.24365 0
M  V30 4000 H 376.896 -2.75408 -1.18196 0
M  V30 4001 H 374.457 -1.53914 -0.502202 0
M  V30 4002 H 376.449 -1.90962 -3.56813 0
M  V30 4003 H 375.019 -1.04955 -2.94454 0
M  V30 4004 H 374.239 -3.36806 -2.04831 0
M  V30 4005 H 375.527 -4.08593 -3.03198 0
M  V30 4006 H 374.925 -1.88867 -5.33241 0
M  V30 4007 H 373.482 -2.53463 -6.005 0
M  V30 4008 N 376.915 0.57481 -1.46744 0
M  V30 4009 C 377.865 1.67838 -1.54319 0
M  V30 4010 C 378.849 1.55759 -0.40346 0
M  V30 4011 O 380.041 1.6454 -0.652347 0
M  V30 4012 C 377.17 3.06624 -1.5439 0
M  V30 4013 C 376.256 3.23971 -2.73685 0
M  V30 4014 N 376.647 3.11447 -3.9854 0
M  V30 4015 C 374.945 3.5493 -2.70075 0
M  V30 4016 C 375.646 3.31011 -4.78337 0
M  V30 4017 N 374.622 3.56533 -4.10348 0
M  V30 4018 H 378.424 1.56698 -2.48642 0
M  V30 4019 H 375.938 0.779071 -1.42493 0
M  V30 4020 H 377.935 3.85839 -1.57905 0
M  V30 4021 H 376.595 3.1889 -0.611493 0
M  V30 4022 H 377.606 2.89145 -4.29669 0
M  V30 4023 H 374.283 3.73832 -1.85893 0
M  V30 4024 H 375.673 3.26445 -5.87268 0
M  V30 4025 N 378.394 1.34581 0.820102 0
M  V30 4026 C 379.805 1.24298 1.39309 0
M  V30 4027 C 380.156 -0.130351 1.95767 0
M  V30 4028 O 379.281 -1.0308 1.90272 0
M  V30 4029 C 379.876 2.25054 2.53251 0
M  V30 4030 C 378.435 2.18552 3.0645 0
M  V30 4031 C 377.582 2.11503 1.79337 0
M  V30 4032 H 380.533 1.45906 0.624262 0
M  V30 4033 H 380.554 1.86917 3.31425 0
M  V30 4034 H 380.066 3.24996 2.1213 0
M  V30 4035 H 378.167 1.21976 3.52069 0
M  V30 4036 H 378.28 3.0993 3.65349 0
M  V30 4037 H 376.644 1.57268 2.00347 0
M  V30 4038 H 377.427 3.13284 1.40386 0
M  V30 4039 N 379.872 -1.04064 1.18357 0
M  V30 4040 C 381.1 -1.80916 1.00384 0
M  V30 4041 C 381.515 -1.83414 -0.447738 0
M  V30 4042 O 380.872 -1.26962 -1.31099 0
M  V30 4043 C 380.923 -3.26516 1.55144 0
M  V30 4044 O 380.644 -3.2424 2.94618 0
M  V30 4045 C 382.145 -4.20013 1.41789 0
M  V30 4046 H 379.365 -0.569728 0.354474 0
M  V30 4047 H 381.909 -1.31151 1.56906 0
M  V30 4048 H 380.064 -3.73512 1.02798 0
M  V30 4049 H 380.478 -4.15452 3.20156 0
M  V30 4050 H 381.952 -5.20111 1.84901 0
M  V30 4051 H 382.429 -4.37667 0.36661 0
M  V30 4052 H 383.035 -3.78881 1.93207 0
M  V30 4053 N 381.35 -0.985608 -1.22978 0
M  V30 4054 C 382.298 -0.522631 -2.26652 0
M  V30 4055 C 383.292 0.422998 -1.64034 0
M  V30 4056 O 384.498 0.296319 -1.77544 0
M  V30 4057 H 380.873 -0.150597 -0.736766 0
M  V30 4058 H 382.844 -1.40863 -2.63059 0
M  V30 4059 C 381.593 0.154238 -3.47358 0
M  V30 4060 H 380.916 -0.564329 -3.95797 0
M  V30 4061 H 382.356 0.441744 -4.21693 0
M  V30 4062 C 380.815 1.38719 -3.07016 0
M  V30 4063 O 381.345 2.48307 -3.15764 0
M  V30 4064 N 379.551 1.25975 -2.61875 0
M  V30 4065 H 379.098 0.368068 -2.54957 0
M  V30 4066 H 379.056 2.08578 -2.3525 0
M  V30 4067 N 382.828 1.3818 -0.7579 0
M  V30 4068 C 384.239 1.82726 -0.383134 0
M  V30 4069 C 384.59 1.63214 1.08884 0
M  V30 4070 O 383.715 1.13566 1.84205 0
M  V30 4071 C 384.31 3.31728 -0.688631 0
M  V30 4072 C 382.869 3.74606 -0.367091 0
M  V30 4073 C 382.016 2.60896 -0.939599 0
M  V30 4074 H 384.967 1.26847 -0.953699 0
M  V30 4075 H 384.988 3.80487 0.0316492 0
M  V30 4076 H 384.5 3.45898 -1.76001 0
M  V30 4077 H 382.601 3.66013 0.697532 0
M  V30 4078 H 382.714 4.71215 -0.865658 0
M  V30 4079 H 381.078 2.52075 -0.3647 0
M  V30 4080 H 381.861 2.77864 -2.0161 0
M  V30 4081 N 384.306 0.507319 1.49211 0
M  V30 4082 C 385.254 -0.281364 2.30892 0
M  V30 4083 C 386.248 -0.95687 1.39787 0
M  V30 4084 O 387.454 -0.883838 1.56807 0
M  V30 4085 H 383.829 -0.109597 0.743971 0
M  V30 4086 H 385.8 0.42744 2.95323 0
M  V30 4087 C 384.549 -1.32918 3.21291 0
M  V30 4088 H 383.872 -0.818799 3.91326 0
M  V30 4089 H 385.312 -1.85288 3.81372 0
M  V30 4090 C 383.771 -2.35074 2.41333 0
M  V30 4091 O 384.301 -3.4108 2.12197 0
M  V30 4092 N 382.507 -2.07705 2.03241 0
M  V30 4093 H 382.054 -1.2152 2.27136 0
M  V30 4094 H 382.012 -2.76283 1.50051 0
M  V30 4095 N 385.784 -1.5574 0.241426 0
M  V30 4096 C 386.714 -2.24133 -0.654722 0
M  V30 4097 C 387.695 -1.21974 -1.1856 0
M  V30 4098 O 388.88 -1.50612 -1.22595 0
M  V30 4099 C 386.01 -2.93659 -1.85423 0
M  V30 4100 C 384.964 -4.0246 -1.45636 0
M  V30 4101 C 384.29 -4.59383 -2.73626 0
M  V30 4102 C 385.59 -5.18468 -0.631506 0
M  V30 4103 H 387.284 -2.99281 -0.0844353 0
M  V30 4104 H 384.83 -1.43947 -0.0391707 0
M  V30 4105 H 386.783 -3.40203 -2.48676 0
M  V30 4106 H 385.507 -2.15991 -2.44981 0
M  V30 4107 H 384.166 -3.56676 -0.847202 0
M  V30 4108 H 383.814 -3.78422 -3.3137 0
M  V30 4109 H 383.514 -5.32826 -2.4773 0
M  V30 4110 H 385.038 -5.08658 -3.37786 0
M  V30 4111 H 386.452 -5.61272 -1.1682 0
M  V30 4112 H 384.849 -5.98266 -0.468831 0
M  V30 4113 H 385.919 -4.8358 0.357506 0
M  V30 4114 N 387.262 0.0317525 -1.57568 0
M  V30 4115 C 388.192 1.03274 -2.0942 0
M  V30 4116 C 389.173 1.3788 -0.996143 0
M  V30 4117 O 390.358 1.46811 -1.27122 0
M  V30 4118 C 387.488 2.33448 -2.57137 0
M  V30 4119 C 386.442 2.13091 -3.71182 0
M  V30 4120 C 385.768 3.49001 -4.05095 0
M  V30 4121 C 387.068 1.51928 -4.99715 0
M  V30 4122 H 388.762 0.60112 -2.93303 0
M  V30 4123 H 386.308 0.287705 -1.41097 0
M  V30 4124 H 388.261 3.03802 -2.92032 0
M  V30 4125 H 386.985 2.78665 -1.70333 0
M  V30 4126 H 385.644 1.45171 -3.36632 0
M  V30 4127 H 385.292 3.91862 -3.15362 0
M  V30 4128 H 384.992 3.36207 -4.81911 0
M  V30 4129 H 386.516 4.20721 -4.42522 0
M  V30 4130 H 387.93 2.12196 -5.32584 0
M  V30 4131 H 386.327 1.49716 -5.81124 0
M  V30 4132 H 387.397 0.484811 -4.8247 0
M  V30 4133 N 388.74 1.54641 0.303973 0
M  V30 4134 C 389.965 1.78092 1.06292 0
M  V30 4135 C 390.39 0.537342 1.80262 0
M  V30 4136 O 389.748 -0.511993 1.7392 0
M  V30 4137 C 389.796 2.98612 2.02147 0
M  V30 4138 O 388.9 2.71528 3.10397 0
M  V30 4139 H 388.241 0.589548 0.305497 0
M  V30 4140 H 390.771 2.01716 0.3423 0
M  V30 4141 H 390.781 3.265 2.44667 0
M  V30 4142 H 389.456 3.88785 1.47714 0
M  V30 4143 H 388.033 2.54648 2.72413 0
M  V30 4144 N 390.218 -0.567019 1.47046 0
M  V30 4145 C 391.629 -1.14916 1.47143 0
M  V30 4146 C 391.98 -1.94954 0.220767 0
M  V30 4147 O 391.105 -2.05602 -0.67505 0
M  V30 4148 C 391.7 -2.09069 2.666 0
M  V30 4149 C 390.259 -2.62575 2.69687 0
M  V30 4150 C 389.406 -1.38755 2.40088 0
M  V30 4151 H 392.357 -0.354126 1.54699 0
M  V30 4152 H 392.378 -2.92789 2.43011 0
M  V30 4153 H 391.89 -1.50789 3.57609 0
M  V30 4154 H 389.991 -3.24681 1.82792 0
M  V30 4155 H 390.104 -3.04239 3.70102 0
M  V30 4156 H 388.468 -1.69098 1.90468 0
M  V30 4157 H 389.251 -0.822822 3.33293 0
M  V30 4158 N 391.696 -1.35014 -0.812953 0
M  V30 4159 C 392.659 -1.27292 -1.90602 0
M  V30 4160 C 393.659 -0.185817 -1.59723 0
M  V30 4161 O 394.849 -0.439102 -1.68575 0
M  V30 4162 C 391.981 -0.967676 -3.26877 0
M  V30 4163 H 393.174 -2.24479 -1.9887 0
M  V30 4164 H 390.727 -1.19446 -1.00808 0
M  V30 4165 H 391.462 0.0005954 -3.243 0
M  V30 4166 H 391.247 -1.75412 -3.50675 0
M  V30 4167 H 392.737 -0.939085 -4.06904 0
M  V30 4168 N 393.175 1.03435 -1.18907 0
M  V30 4169 C 394.4 1.80919 -1.01406 0
M  V30 4170 C 394.825 1.83055 0.432721 0
M  V30 4171 O 394.183 1.25252 1.31079 0
M  V30 4172 C 394.231 3.24091 -1.58105 0
M  V30 4173 O 393.335 4.04434 -0.806669 0
M  V30 4174 H 392.676 0.558709 -0.358803 0
M  V30 4175 H 395.206 1.30223 -1.57807 0
M  V30 4176 H 395.216 3.74853 -1.61087 0
M  V30 4177 H 393.891 3.21851 -2.6341 0
M  V30 4178 H 392.468 3.63091 -0.849666 0
M  V30 4179 N 394.653 0.992116 1.22453 0
M  V30 4180 C 395.9 0.667534 1.91181 0
M  V30 4181 C 396.228 -0.800317 1.77271 0
M  V30 4182 O 395.483 -1.59421 1.13505 0
M  V30 4183 C 395.782 1.01832 3.42586 0
M  V30 4184 C 395.448 2.47831 3.76684 0
M  V30 4185 C 394.11 2.87729 3.85701 0
M  V30 4186 C 396.462 3.42466 3.92895 0
M  V30 4187 C 393.79 4.21252 4.08367 0
M  V30 4188 C 396.142 4.75648 4.17064 0
M  V30 4189 C 394.806 5.15288 4.24305 0
M  V30 4190 H 394.076 0.244268 0.699581 0
M  V30 4191 H 396.723 1.24816 1.45235 0
M  V30 4192 H 395.028 0.355769 3.90181 0
M  V30 4193 H 396.725 0.745228 3.94014 0
M  V30 4194 H 393.315 2.15905 3.70247 0
M  V30 4195 H 397.499 3.12814 3.85307 0
M  V30 4196 H 392.755 4.51554 4.122 0
M  V30 4197 H 396.929 5.48924 4.2855 0
M  V30 4198 H 394.556 6.18769 4.41621 0
M  V30 4199 N 396.131 -1.37776 0.765217 0
M  V30 4200 C 397.378 -1.99849 0.326588 0
M  V30 4201 C 397.706 -1.60746 -1.09504 0
M  V30 4202 O 396.961 -0.84202 -1.76659 0
M  V30 4203 C 397.26 -3.5504 0.410053 0
M  V30 4204 C 396.926 -4.13891 1.78899 0
M  V30 4205 C 395.588 -4.29678 2.16635 0
M  V30 4206 C 397.94 -4.46236 2.69301 0
M  V30 4207 C 395.268 -4.7511 3.44221 0
M  V30 4208 C 397.62 -4.93089 3.9629 0
M  V30 4209 C 396.284 -5.07082 4.34078 0
M  V30 4210 H 395.554 -0.7313 0.119507 0
M  V30 4211 H 398.201 -1.64645 0.977968 0
M  V30 4212 H 396.506 -3.90451 -0.324878 0
M  V30 4213 H 398.203 -4.00966 0.0520699 0
M  V30 4214 H 394.793 -4.02026 1.48569 0
M  V30 4215 H 398.977 -4.3363 2.41409 0
M  V30 4216 H 394.233 -4.84129 3.73402 0
M  V30 4217 H 398.407 -5.17084 4.66472 0
M  V30 4218 H 396.034 -5.42046 5.33001 0
M  V30 4219 N 397.609 -0.515225 -1.4894 0
M  V30 4220 C 398.834 0.022727 -2.07388 0
M  V30 4221 C 399.259 1.2876 -1.37122 0
M  V30 4222 O 398.617 1.76067 -0.432431 0
M  V30 4223 C 398.665 0.244869 -3.59768 0
M  V30 4224 O 397.769 1.31667 -3.90817 0
M  V30 4225 H 397.11 -0.0325506 -0.663202 0
M  V30 4226 H 399.64 -0.718918 -1.91553 0
M  V30 4227 H 399.65 0.47205 -4.0526 0
M  V30 4228 H 398.325 -0.679194 -4.10317 0
M  V30 4229 H 396.902 1.07331 -3.5712 0
M  V30 4230 N 399.087 1.5561 -0.249682 0
M  V30 4231 C 400.312 2.03865 0.381305 0
M  V30 4232 C 400.737 1.12769 1.50548 0
M  V30 4233 O 400.095 0.121189 1.80895 0
M  V30 4234 C 400.143 3.50101 0.863816 0
M  V30 4235 O 399.247 3.62132 1.97318 0
M  V30 4236 H 398.588 0.658827 0.0827194 0
M  V30 4237 H 401.118 2.01105 -0.376552 0
M  V30 4238 H 401.128 3.90975 1.1663 0
M  V30 4239 H 399.803 4.1588 0.0411816 0
M  V30 4240 H 398.38 3.33155 1.67517 0
M  V30 4241 N 400.565 -0.0233959 1.57583 0
M  V30 4242 C 401.811 -0.708611 1.90657 0
M  V30 4243 C 402.166 -1.7266 0.848895 0
M  V30 4244 O 401.459 -1.91075 -0.141749 0
M  V30 4245 C 401.653 -1.41428 3.28227 0
M  V30 4246 C 401.482 -0.466155 4.47277 0
M  V30 4247 C 400.252 -0.085117 5.05228 0
M  V30 4248 C 402.45 0.257836 5.13653 0
M  V30 4249 N 400.432 0.863672 6.07794 0
M  V30 4250 C 401.803 1.06209 6.10835 0
M  V30 4251 C 403.858 0.324174 4.96844 0
M  V30 4252 C 402.561 1.9266 6.93018 0
M  V30 4253 C 404.587 1.17583 5.79593 0
M  V30 4254 C 403.949 1.96799 6.7635 0
M  V30 4255 H 400.048 -0.233222 0.746412 0
M  V30 4256 H 402.632 0.0314512 1.94675 0
M  V30 4257 H 400.803 -2.12477 3.25128 0
M  V30 4258 H 402.535 -2.05233 3.488 0
M  V30 4259 H 399.29 -0.448516 4.71471 0
M  V30 4260 H 399.714 1.33274 6.63752 0
M  V30 4261 H 404.356 -0.273975 4.21911 0
M  V30 4262 H 402.074 2.53552 7.67292 0
M  V30 4263 H 405.66 1.23076 5.68633 0
M  V30 4264 H 404.54 2.61635 7.39268 0
M  V30 4265 N 402.043 -1.548 -0.295768 0
M  V30 4266 C 402.975 -1.82492 -1.3867 0
M  V30 4267 C 403.988 -0.708134 -1.46592 0
M  V30 4268 O 405.177 -0.985686 -1.48817 0
M  V30 4269 C 402.277 -1.95256 -2.76999 0
M  V30 4270 C 401.45 -3.25709 -2.91946 0
M  V30 4271 C 400.509 -3.28824 -4.10806 0
M  V30 4272 O 399.535 -4.02328 -4.02643 0
M  V30 4273 N 400.737 -2.5459 -5.21694 0
M  V30 4274 H 403.502 -2.76646 -1.15269 0
M  V30 4275 H 401.063 -1.54438 -0.485849 0
M  V30 4276 H 403.055 -1.94736 -3.54768 0
M  V30 4277 H 401.625 -1.08072 -2.93324 0
M  V30 4278 H 400.845 -3.38959 -2.01247 0
M  V30 4279 H 402.133 -4.11786 -2.98847 0
M  V30 4280 H 401.531 -1.94512 -5.31208 0
M  V30 4281 H 400.088 -2.59818 -5.97778 0
M  V30 4282 N 403.521 0.559213 -1.47345 0
M  V30 4283 C 404.77 1.31281 -1.53128 0
M  V30 4284 C 405.083 1.94602 -0.197344 0
M  V30 4285 O 406.289 2.71173 -0.133154 0
M  V30 4286 C 404.745 2.38051 -2.69925 0
M  V30 4287 C 404.353 1.8093 -4.0984 0
M  V30 4288 C 406.097 3.14604 -2.84999 0
M  V30 4289 C 404.004 2.85468 -5.1794 0
M  V30 4290 H 402.934 0.493614 -0.569966 0
M  V30 4291 H 405.585 0.594155 -1.73615 0
M  V30 4292 H 403.967 3.12822 -2.42814 0
M  V30 4293 H 405.141 1.12544 -4.46845 0
M  V30 4294 H 403.456 1.16967 -3.99634 0
M  V30 4295 H 406.053 3.92666 -3.62929 0
M  V30 4296 H 406.396 3.68665 -1.93369 0
M  V30 4297 H 406.929 2.46945 -3.1187 0
M  V30 4298 H 403.668 2.36264 -6.1144 0
M  V30 4299 H 403.188 3.52269 -4.85455 0
M  V30 4300 H 404.867 3.48996 -5.44803 0
M  V30 4301 N 404.999 1.35443 0.805782 0
M  V30 4302 C 406.245 1.28952 1.56522 0
M  V30 4303 C 406.578 -0.135597 1.93726 0
M  V30 4304 O 405.853 -1.08516 1.61414 0
M  V30 4305 C 406.136 2.19678 2.85331 0
M  V30 4306 C 405.989 3.7081 2.54598 0
M  V30 4307 C 407.308 2.09495 3.8704 0
M  V30 4308 H 404.427 0.469764 0.567883 0
M  V30 4309 H 407.069 1.65851 0.927001 0
M  V30 4310 H 405.219 1.8834 3.39795 0
M  V30 4311 H 406.891 4.12593 2.06312 0
M  V30 4312 H 405.134 3.91051 1.8778 0
M  V30 4313 H 405.805 4.29679 3.46525 0
M  V30 4314 H 408.281 2.37045 3.41978 0
M  V30 4315 H 407.157 2.75173 4.74943 0
M  V30 4316 H 407.418 1.07714 4.28777 0
M  V30 4317 N 406.477 -1.02803 1.19454 0
M  V30 4318 C 407.717 -1.77769 1.00883 0
M  V30 4319 C 408.081 -1.86596 -0.45233 0
M  V30 4320 O 409.282 -2.57895 -0.757877 0
M  V30 4321 C 407.553 -3.16486 1.66046 0
M  V30 4322 S 409.112 -4.07632 1.62424 0
M  V30 4323 H 405.93 -0.611949 0.361993 0
M  V30 4324 H 408.532 -1.23175 1.51816 0
M  V30 4325 H 407.236 -3.0768 2.7159 0
M  V30 4326 H 406.767 -3.76156 1.15196 0
M  V30 4327 H 408.782 -4.91937 0.64903 0
M  V30 4328 N 407.956 -0.998596 -1.21925 0
M  V30 4329 C 409.181 -0.696015 -1.95372 0
M  V30 4330 C 409.606 0.733826 -1.73195 0
M  V30 4331 O 408.964 1.50242 -1.01474 0
M  V30 4332 C 409.012 -1.01466 -3.4603 0
M  V30 4333 O 408.116 -0.116415 -4.12236 0
M  V30 4334 H 407.457 -0.259938 -0.611006 0
M  V30 4335 H 409.987 -1.33711 -1.54863 0
M  V30 4336 H 409.997 -0.958855 -3.96573 0
M  V30 4337 H 408.672 -2.05653 -3.61497 0
M  V30 4338 H 407.249 -0.228193 -3.72201 0
M  V30 4339 N 409.434 1.37368 -0.772513 0
M  V30 4340 C 410.85 1.53059 -0.452231 0
M  V30 4341 C 411.05 1.73065 1.03203 0
M  V30 4342 O 410.106 1.75245 1.81784 0
M  V30 4343 C 411.419 2.72659 -1.26797 0
M  V30 4344 C 412.967 2.86521 -1.25995 0
M  V30 4345 C 413.442 4.09105 -2.05905 0
M  V30 4346 N 414.933 4.16219 -2.03263 0
M  V30 4347 C 415.668 5.10107 -2.61875 0
M  V30 4348 N 415.164 6.09547 -3.29278 0
M  V30 4349 N 416.957 5.02596 -2.51701 0
M  V30 4350 H 409.108 1.22634 -1.7342 0
M  V30 4351 H 411.371 0.597206 -0.736239 0
M  V30 4352 H 411.077 2.64343 -2.31982 0
M  V30 4353 H 410.951 3.66363 -0.897672 0
M  V30 4354 H 413.338 2.94308 -0.216081 0
M  V30 4355 H 413.419 1.93774 -1.66989 0
M  V30 4356 H 413.063 4.0208 -3.10313 0
M  V30 4357 H 412.993 5.00968 -1.62292 0
M  V30 4358 H 415.484 3.45012 -1.54192 0
M  V30 4359 H 415.797 6.77718 -3.71374 0
M  V30 4360 H 414.142 6.09824 -3.33377 0
M  V30 4361 H 417.333 4.23855 -1.98657 0
M  V30 4362 H 417.506 5.75582 -2.97673 0
M  V30 4363 N 410.912 0.523116 1.48665 0
M  V30 4364 C 411.842 -0.23231 2.32342 0
M  V30 4365 C 412.823 -0.941637 1.41659 0
M  V30 4366 O 414.008 -0.928751 1.70552 0
M  V30 4367 C 411.138 -1.28387 3.22698 0
M  V30 4368 C 410.092 -0.693098 4.22351 0
M  V30 4369 C 409.418 -1.8468 5.01794 0
M  V30 4370 C 410.718 0.33063 5.21252 0
M  V30 4371 H 412.412 0.466192 2.95748 0
M  V30 4372 H 409.958 0.225643 1.42221 0
M  V30 4373 H 411.911 -1.82024 3.80059 0
M  V30 4374 H 410.635 -2.01186 2.57278 0
M  V30 4375 H 409.294 -0.178299 3.66166 0
M  V30 4376 H 408.942 -2.56301 4.32804 0
M  V30 4377 H 408.642 -1.45747 5.69238 0
M  V30 4378 H 410.166 -2.38709 5.62006 0
M  V30 4379 H 411.58 -0.118407 5.73178 0
M  V30 4380 H 409.977 0.636974 5.9671 0
M  V30 4381 H 411.047 1.23883 4.68808 0
M  V30 4382 N 412.39 -1.55475 0.257931 0
M  V30 4383 C 413.3 -2.2549 -0.647425 0
M  V30 4384 C 414.316 -1.2748 -1.18427 0
M  V30 4385 O 415.492 -1.6038 -1.2182 0
M  V30 4386 C 412.557 -2.94916 -1.82278 0
M  V30 4387 C 411.618 -4.08363 -1.32432 0
M  V30 4388 C 410.851 -4.74469 -2.44366 0
M  V30 4389 O 411.074 -4.39701 -3.63344 0
M  V30 4390 O 410.008 -5.62763 -2.13497 0
M  V30 4391 H 413.834 -3.03593 -0.0807707 0
M  V30 4392 H 411.419 -1.49377 0.0259962 0
M  V30 4393 H 413.301 -3.38606 -2.50846 0
M  V30 4394 H 411.976 -2.19744 -2.37685 0
M  V30 4395 H 410.883 -3.69166 -0.605605 0
M  V30 4396 H 412.216 -4.85385 -0.816211 0
M  V30 4397 N 413.868 0.0150385 -1.57593 0
M  V30 4398 C 414.778 1.02791 -2.10882 0
M  V30 4399 C 415.794 1.38702 -1.0506 0
M  V30 4400 O 416.97 1.47739 -1.36877 0
M  V30 4401 C 414.035 2.30568 -2.58919 0
M  V30 4402 C 413.096 2.01108 -3.79281 0
M  V30 4403 C 412.329 3.22794 -4.25018 0
M  V30 4404 O 412.552 4.33959 -3.70183 0
M  V30 4405 O 411.486 3.07672 -5.17322 0
M  V30 4406 H 415.312 0.604973 -2.97613 0
M  V30 4407 H 412.897 0.23292 -1.47573 0
M  V30 4408 H 414.779 3.05662 -2.90084 0
M  V30 4409 H 413.454 2.72129 -1.75293 0
M  V30 4410 H 412.361 1.23537 -3.53114 0
M  V30 4411 H 413.694 1.64394 -4.63935 0
M  V30 4412 N 415.346 1.54954 0.287554 0
M  V30 4413 C 416.576 1.78622 1.03816 0
M  V30 4414 C 416.984 0.552451 1.80955 0
M  V30 4415 O 416.327 -0.487665 1.77109 0
M  V30 4416 C 416.389 2.94975 2.055 0
M  V30 4417 C 416.053 4.32565 1.47433 0
M  V30 4418 C 417.05 5.12096 0.897436 0
M  V30 4419 C 414.735 4.79195 1.50591 0
M  V30 4420 C 416.729 6.36383 0.359851 0
M  V30 4421 C 414.416 6.03441 0.964459 0
M  V30 4422 C 415.414 6.81872 0.392413 0
M  V30 4423 O 415.102 8.03777 -0.140788 0
M  V30 4424 H 414.834 0.599144 0.313053 0
M  V30 4425 H 417.388 2.02761 0.328225 0
M  V30 4426 H 415.618 2.66493 2.80211 0
M  V30 4427 H 417.307 3.06097 2.6657 0
M  V30 4428 H 418.073 4.77209 0.865841 0
M  V30 4429 H 413.952 4.18167 1.94055 0
M  V30 4430 H 417.496 6.97545 -0.0872951 0
M  V30 4431 H 413.393 6.37813 0.993246 0
M  V30 4432 H 414.161 8.18495 -0.0287617 0
M  V30 4433 N 416.824 -0.551391 1.4764 0
M  V30 4434 C 417.772 -1.67896 1.60978 0
M  V30 4435 C 418.766 -1.62549 0.476877 0
M  V30 4436 O 419.972 -1.67664 0.654878 0
M  V30 4437 H 416.347 -0.555649 0.506713 0
M  V30 4438 H 418.318 -1.53784 2.55721 0
M  V30 4439 C 417.067 -3.06234 1.64669 0
M  V30 4440 H 416.39 -3.11033 2.51194 0
M  V30 4441 H 417.83 -3.84804 1.7805 0
M  V30 4442 C 416.289 -3.34737 0.381115 0
M  V30 4443 O 416.819 -3.98381 -0.515297 0
M  V30 4444 N 415.025 -2.8944 0.259354 0
M  V30 4445 H 414.572 -2.37827 0.98976 0
M  V30 4446 H 414.53 -3.08882 -0.586464 0
M  V30 4447 N 418.302 -1.35869 -0.798587 0
M  V30 4448 C 419.527 -1.32883 -1.59238 0
M  V30 4449 C 419.952 0.0894587 -1.87887 0
M  V30 4450 O 419.31 1.05869 -1.47178 0
M  V30 4451 C 419.358 -2.14892 -2.89575 0
M  V30 4452 O 418.462 -1.53512 -3.82763 0
M  V30 4453 H 417.803 -0.455236 -0.48338 0
M  V30 4454 H 420.333 -1.79024 -0.990539 0
M  V30 4455 H 420.343 -2.27139 -3.38928 0
M  V30 4456 H 419.018 -3.17998 -2.68049 0
M  V30 4457 H 417.595 -1.50153 -3.41334 0
M  V30 4458 N 419.78 1.02168 -1.19998 0
M  V30 4459 C 420.73 2.08969 -0.911921 0
M  V30 4460 C 421.714 1.60404 0.12621 0
M  V30 4461 O 422.906 1.76817 -0.0804706 0
M  V30 4462 C 420.035 3.402 -0.460277 0
M  V30 4463 C 419.121 3.9548 -1.53155 0
M  V30 4464 N 419.512 4.24332 -2.75275 0
M  V30 4465 C 417.81 4.23572 -1.39653 0
M  V30 4466 C 418.511 4.68834 -3.44339 0
M  V30 4467 N 417.487 4.70804 -2.71744 0
M  V30 4468 H 421.289 2.29178 -1.83997 0
M  V30 4469 H 418.803 1.20094 -1.09322 0
M  V30 4470 H 420.8 4.16235 -0.235337 0
M  V30 4471 H 419.46 3.21408 0.4612 0
M  V30 4472 H 420.471 4.13393 -3.11973 0
M  V30 4473 H 417.148 4.14005 -0.539067 0
M  V30 4474 H 418.538 5.00019 -4.4881 0
M  V30 4475 N 421.258 1.00505 1.21394 0
M  V30 4476 C 422.19 0.52372 2.23136 0
M  V30 4477 C 423.203 -0.387714 1.58116 0
M  V30 4478 O 424.392 -0.187905 1.77508 0
M  V30 4479 C 421.492 -0.258885 3.3791 0
M  V30 4480 C 420.665 0.651634 4.32519 0
M  V30 4481 C 419.724 -0.0813705 5.26137 0
M  V30 4482 O 418.75 0.537295 5.66658 0
M  V30 4483 N 419.952 -1.35992 5.64346 0
M  V30 4484 H 422.717 1.39865 2.65062 0
M  V30 4485 H 420.278 0.881196 1.35818 0
M  V30 4486 H 422.27 -0.758208 3.97534 0
M  V30 4487 H 420.84 -1.035 2.94968 0
M  V30 4488 H 420.06 1.33145 3.71034 0
M  V30 4489 H 421.348 1.27129 4.92662 0
M  V30 4490 H 420.746 -1.88368 5.33417 0
M  V30 4491 H 419.303 -1.8042 6.26332 0
M  V30 4492 N 422.737 -1.36956 0.779787 0
M  V30 4493 C 423.962 -2.04283 0.358224 0
M  V30 4494 C 424.387 -1.58422 -1.01411 0
M  V30 4495 O 423.745 -0.748179 -1.65142 0
M  V30 4496 C 423.793 -3.58152 0.419479 0
M  V30 4497 O 422.897 -4.08342 -0.577142 0
M  V30 4498 H 422.238 -0.645967 0.153698 0
M  V30 4499 H 424.768 -1.75108 1.05822 0
M  V30 4500 H 424.778 -4.07041 0.279636 0
M  V30 4501 H 423.453 -3.90886 1.42061 0
M  V30 4502 H 422.03 -3.70751 -0.399755 0
M  V30 4503 N 424.215 -0.530993 -1.48385 0
M  V30 4504 C 425.145 0.219985 -2.32461 0
M  V30 4505 C 426.126 0.934111 -1.42156 0
M  V30 4506 O 427.311 0.919694 -1.71042 0
M  V30 4507 C 424.441 1.26674 -3.23375 0
M  V30 4508 C 423.395 0.67069 -4.22712 0
M  V30 4509 C 422.721 1.82017 -5.02766 0
M  V30 4510 C 424.021 -0.358268 -5.2107 0
M  V30 4511 H 425.715 -0.48187 -2.95497 0
M  V30 4512 H 423.261 -0.233182 -1.42099 0
M  V30 4513 H 425.214 1.80006 -3.81019 0
M  V30 4514 H 423.938 1.99818 -2.58341 0
M  V30 4515 H 422.597 0.158878 -3.66256 0
M  V30 4516 H 422.245 2.54002 -4.34157 0
M  V30 4517 H 421.945 1.42727 -5.70003 0
M  V30 4518 H 423.469 2.35725 -5.63264 0
M  V30 4519 H 424.883 0.0880081 -5.73232 0
M  V30 4520 H 423.28 -0.66861 -5.96364 0
M  V30 4521 H 424.35 -1.26367 -4.68145 0
M  V30 4522 N 425.693 1.55336 -0.266172 0
M  V30 4523 C 426.933 2.01303 0.354459 0
M  V30 4524 C 427.297 1.15046 1.53715 0
M  V30 4525 O 428.498 1.50554 2.22681 0
M  V30 4526 C 426.769 3.49748 0.735579 0
M  V30 4527 S 428.328 4.1771 1.34401 0
M  V30 4528 H 425.146 0.702333 0.110674 0
M  V30 4529 H 427.748 1.91653 -0.385916 0
M  V30 4530 H 426.452 4.10181 -0.134196 0
M  V30 4531 H 425.983 3.63364 1.50764 0
M  V30 4532 H 427.998 4.20594 2.63278 0
M  V30 4533 N 427.171 -0.0066808 1.57599 0
M  V30 4534 C 428.119 -1.01851 2.09115 0
M  V30 4535 C 429.113 -1.36021 1.00969 0
M  V30 4536 O 430.319 -1.34663 1.19439 0
M  V30 4537 H 426.694 -0.346083 0.667631 0
M  V30 4538 H 428.665 -0.558394 2.93129 0
M  V30 4539 C 427.414 -2.30374 2.60429 0
M  V30 4540 H 426.737 -2.04947 3.43273 0
M  V30 4541 H 428.177 -2.99466 3.00161 0
M  V30 4542 C 426.636 -3.00893 1.51542 0
M  V30 4543 O 427.166 -3.91614 0.894484 0
M  V30 4544 N 425.372 -2.62603 1.2445 0
M  V30 4545 H 424.919 -1.88911 1.75129 0
M  V30 4546 H 424.877 -3.10101 0.518137 0
M  V30 4547 N 428.649 -1.55105 -0.279332 0
M  V30 4548 C 429.897 -1.75066 -1.00977 0
M  V30 4549 C 430.218 -0.551276 -1.87045 0
M  V30 4550 O 429.488 0.433984 -1.91032 0
M  V30 4551 H 428.068 -0.645578 -0.375816 0
M  V30 4552 H 430.73 -1.92497 -0.305089 0
M  V30 4553 H 429.826 -2.64894 -1.65038 0
M  V30 4554 N 430.127 0.543554 -1.4793 0
M  V30 4555 C 431.355 1.32516 -1.58894 0
M  V30 4556 C 431.77 1.87215 -0.244131 0
M  V30 4557 O 431.127 1.65709 0.764652 0
M  V30 4558 C 431.178 2.48554 -2.62494 0
M  V30 4559 O 430.899 1.96112 -3.91755 0
M  V30 4560 C 432.4 3.40572 -2.8377 0
M  V30 4561 H 429.62 0.403472 -0.536145 0
M  V30 4562 H 432.164 0.657106 -1.93655 0
M  V30 4563 H 430.319 3.1127 -2.30629 0
M  V30 4564 H 430.733 2.71967 -4.4848 0
M  V30 4565 H 432.207 4.18375 -3.60093 0
M  V30 4566 H 432.684 3.94965 -1.92092 0
M  V30 4567 H 433.29 2.8366 -3.16887 0
M  V30 4568 N 431.605 1.3629 0.791371 0
M  V30 4569 C 433.016 1.27225 1.36641 0
M  V30 4570 C 433.367 -0.0887968 1.95999 0
M  V30 4571 O 432.492 -0.990207 1.92416 0
M  V30 4572 C 433.087 2.30375 2.48421 0
M  V30 4573 C 431.646 2.25004 3.01746 0
M  V30 4574 C 430.793 2.15259 1.7481 0
M  V30 4575 H 433.744 1.47198 0.593173 0
M  V30 4576 H 433.765 1.93905 3.27385 0
M  V30 4577 H 433.277 3.29422 2.05189 0
M  V30 4578 H 431.378 1.29417 3.49403 0
M  V30 4579 H 431.491 3.1761 3.58693 0
M  V30 4580 H 429.855 1.61482 1.96966 0
M  V30 4581 H 430.638 3.16191 1.33709 0
M  V30 4582 N 433.083 -1.0153 1.20538 0
M  V30 4583 C 433.993 -2.13557 0.971113 0
M  V30 4584 C 435.009 -1.73845 -0.0734366 0
M  V30 4585 O 436.185 -2.01075 0.114299 0
M  V30 4586 C 433.25 -3.42661 0.527639 0
M  V30 4587 C 432.311 -3.96608 1.64319 0
M  V30 4588 C 431.544 -5.1955 1.22078 0
M  V30 4589 O 431.767 -5.70329 0.0900198 0
M  V30 4590 O 430.701 -5.66681 2.02871 0
M  V30 4591 H 434.527 -2.3619 1.90913 0
M  V30 4592 H 432.112 -1.11946 0.989362 0
M  V30 4593 H 433.994 -4.20404 0.289621 0
M  V30 4594 H 432.669 -3.21441 -0.381779 0
M  V30 4595 H 431.576 -3.20139 1.93551 0
M  V30 4596 H 432.909 -4.22219 2.52966 0
M  V30 4597 N 434.561 -1.01147 -1.20859 0
M  V30 4598 C 435.809 -0.696486 -1.89719 0
M  V30 4599 C 436.13 0.775788 -1.78904 0
M  V30 4600 O 435.4 1.55759 -1.18811 0
M  V30 4601 H 433.98 -0.254628 -0.702263 0
M  V30 4602 H 436.642 -1.28197 -1.46804 0
M  V30 4603 H 435.738 -0.975357 -2.96468 0
M  V30 4604 N 436.039 1.36541 -0.78704 0
M  V30 4605 C 437.45 1.81873 -0.421807 0
M  V30 4606 C 437.801 1.65487 1.05397 0
M  V30 4607 O 436.926 1.17448 1.81755 0
M  V30 4608 C 437.521 3.30192 -0.758841 0
M  V30 4609 C 436.08 3.73743 -0.446468 0
M  V30 4610 C 435.227 2.58844 -0.994728 0
M  V30 4611 H 438.178 1.24796 -0.98039 0
M  V30 4612 H 438.199 3.80468 -0.0490648 0
M  V30 4613 H 437.711 3.42087 -1.83299 0
M  V30 4614 H 435.812 3.6741 0.619739 0
M  V30 4615 H 435.925 4.69272 -0.965415 0
M  V30 4616 H 434.289 2.51245 -0.418087 0
M  V30 4617 H 435.072 2.73525 -2.07458 0
M  V30 4618 N 437.518 0.538854 1.48102 0
M  V30 4619 C 438.448 -0.207654 2.32575 0
M  V30 4620 C 439.429 -0.926559 1.4265 0
M  V30 4621 O 440.614 -0.91061 1.71527 0
M  V30 4622 C 437.744 -1.24957 3.24042 0
M  V30 4623 C 436.698 -0.648263 4.23062 0
M  V30 4624 C 436.024 -1.79348 5.03725 0
M  V30 4625 C 437.324 0.385897 5.20872 0
M  V30 4626 H 439.018 0.497534 2.95237 0
M  V30 4627 H 436.564 0.240715 1.41974 0
M  V30 4628 H 438.517 -1.77983 3.81969 0
M  V30 4629 H 437.241 -1.98446 2.59397 0
M  V30 4630 H 435.9 -0.139452 3.66335 0
M  V30 4631 H 435.548 -2.51696 4.35498 0
M  V30 4632 H 435.248 -1.39702 5.70751 0
M  V30 4633 H 436.772 -2.32735 5.64506 0
M  V30 4634 H 438.186 -0.057607 5.73271 0
M  V30 4635 H 436.583 0.700227 5.96001 0
M  V30 4636 H 437.653 1.28848 4.67468 0
M  V30 4637 N 438.996 -1.55193 0.274407 0
M  V30 4638 C 440.412 -1.59401 -0.0797543 0
M  V30 4639 C 440.612 -1.29162 -1.54659 0
M  V30 4640 O 439.668 -1.05215 -2.29534 0
M  V30 4641 C 440.981 -2.99257 0.294238 0
M  V30 4642 C 442.529 -3.12072 0.240796 0
M  V30 4643 C 443.004 -4.54194 0.589218 0
M  V30 4644 N 444.495 -4.60033 0.540744 0
M  V30 4645 C 445.23 -5.68027 0.783147 0
M  V30 4646 N 444.726 -6.8417 1.09013 0
M  V30 4647 N 446.519 -5.57572 0.711993 0
M  V30 4648 H 438.67 -1.73113 1.23067 0
M  V30 4649 H 440.933 -0.807197 0.497129 0
M  V30 4650 H 440.639 -3.26217 1.31435 0
M  V30 4651 H 440.513 -3.75427 -0.365281 0
M  V30 4652 H 442.9 -2.84877 -0.770024 0
M  V30 4653 H 442.981 -2.38117 0.934563 0
M  V30 4654 H 442.625 -4.82115 1.59772 0
M  V30 4655 H 442.555 -5.26448 -0.126331 0
M  V30 4656 H 445.046 -3.76599 0.313327 0
M  V30 4657 H 445.359 -7.6243 1.26178 0
M  V30 4658 H 443.704 -6.85787 1.12789 0
M  V30 4659 H 446.895 -4.65714 0.472014 0
M  V30 4660 H 447.068 -6.41659 0.90429 0
M  V30 4661 N 440.474 -0.00167713 -1.576 0
M  V30 4662 C 441.89 0.354422 -1.55615 0
M  V30 4663 C 442.09 1.74679 -1.00447 0
M  V30 4664 O 441.146 2.4428 -0.639022 0
M  V30 4665 C 442.459 0.22812 -2.99833 0
M  V30 4666 C 444.007 0.302934 -3.11531 0
M  V30 4667 C 444.482 0.205737 -4.57538 0
M  V30 4668 N 445.973 0.263584 -4.62449 0
M  V30 4669 C 446.708 0.211742 -5.73009 0
M  V30 4670 N 446.204 0.110399 -6.92712 0
M  V30 4671 N 447.997 0.263729 -5.61481 0
M  V30 4672 H 440.148 -0.912498 -1.918 0
M  V30 4673 H 442.411 -0.349928 -0.881053 0
M  V30 4674 H 442.117 -0.729934 -3.44042 0
M  V30 4675 H 441.991 1.00951 -3.6344 0
M  V30 4676 H 444.378 1.25143 -2.67251 0
M  V30 4677 H 444.459 -0.508357 -2.50698 0
M  V30 4678 H 444.103 -0.739225 -5.02492 0
M  V30 4679 H 444.033 1.03554 -5.16318 0
M  V30 4680 H 446.524 0.343173 -3.76339 0
M  V30 4681 H 446.837 0.0767828 -7.72762 0
M  V30 4682 H 445.182 0.0760025 -6.94958 0
M  V30 4683 H 448.373 0.34111 -4.66855 0
M  V30 4684 H 448.546 0.219862 -6.47627 0
M  V30 4685 N 441.952 1.55251 0.271103 0
M  V30 4686 C 442.9 1.89054 1.35504 0
M  V30 4687 C 443.894 0.767064 1.51038 0
M  V30 4688 O 445.1 0.951429 1.528 0
M  V30 4689 H 441.475 0.600072 0.45323 0
M  V30 4690 H 443.446 2.79598 1.04247 0
M  V30 4691 C 442.195 2.18068 2.70817 0
M  V30 4692 H 441.518 3.04005 2.59656 0
M  V30 4693 H 442.958 2.4564 3.45597 0
M  V30 4694 C 441.417 0.988901 3.2206 0
M  V30 4695 O 441.947 0.224501 4.01072 0
M  V30 4696 N 440.153 0.786085 2.79766 0
M  V30 4697 H 439.7 1.40937 2.15626 0
M  V30 4698 H 439.658 -0.00969349 3.14399 0
M  V30 4699 N 443.43 -0.535701 1.48216 0
M  V30 4700 C 444.841 -1.11769 1.49548 0
M  V30 4701 C 445.192 -1.94442 0.26207 0
M  V30 4702 O 444.317 -2.06987 -0.631287 0
M  V30 4703 C 444.912 -2.03367 2.70975 0
M  V30 4704 C 443.471 -2.56795 2.75196 0
M  V30 4705 C 442.618 -1.33631 2.42977 0
M  V30 4706 H 445.569 -0.321232 1.55415 0
M  V30 4707 H 445.59 -2.87569 2.49167 0
M  V30 4708 H 445.102 -1.43169 3.60727 0
M  V30 4709 H 443.203 -3.20731 1.89638 0
M  V30 4710 H 443.316 -2.9632 3.76472 0
M  V30 4711 H 441.68 -1.6502 1.94012 0
M  V30 4712 H 442.463 -0.75194 3.34964 0
M  V30 4713 N 444.908 -1.36708 -0.784132 0
M  V30 4714 C 446.156 -1.30972 -1.53918 0
M  V30 4715 C 446.477 0.109086 -1.94695 0
M  V30 4716 O 445.747 1.05048 -1.65353 0
M  V30 4717 H 444.327 -0.481819 -0.570841 0
M  V30 4718 H 446.989 -1.71063 -0.934002 0
M  V30 4719 H 446.085 -1.94061 -2.44431 0
M  V30 4720 N 446.386 1.0089 -1.21074 0
M  V30 4721 C 447.334 2.11707 -0.963476 0
M  V30 4722 C 448.328 1.69172 0.0879032 0
M  V30 4723 O 449.534 1.79889 -0.0631415 0
M  V30 4724 H 445.909 0.692026 -0.294287 0
M  V30 4725 H 447.88 2.29743 -1.90422 0
M  V30 4726 C 446.629 3.43473 -0.540509 0
M  V30 4727 H 445.952 3.76634 -1.34114 0
M  V30 4728 H 447.392 4.22044 -0.406777 0
M  V30 4729 C 445.851 3.2849 0.748079 0
M  V30 4730 O 446.381 3.58883 1.8046 0
M  V30 4731 N 444.587 2.81715 0.713081 0
M  V30 4732 H 444.134 2.5718 -0.146973 0
M  V30 4733 H 444.092 2.72071 1.57558 0
M  V30 4734 N 447.864 1.01787 1.20321 0
M  V30 4735 C 448.814 0.559976 2.21016 0
M  V30 4736 C 449.798 -0.385366 1.56217 0
M  V30 4737 O 450.99 -0.208126 1.75772 0
M  V30 4738 C 448.119 -0.0990553 3.43157 0
M  V30 4739 C 447.205 0.86807 4.15121 0
M  V30 4740 N 447.596 2.0261 4.63447 0
M  V30 4741 C 445.894 0.689162 4.40643 0
M  V30 4742 C 446.595 2.63518 5.18588 0
M  V30 4743 N 445.571 1.91569 5.08726 0
M  V30 4744 H 449.373 1.44281 2.56048 0
M  V30 4745 H 446.887 0.883381 1.36272 0
M  V30 4746 H 448.884 -0.444643 4.14522 0
M  V30 4747 H 447.544 -0.977709 3.0963 0
M  V30 4748 H 448.555 2.40598 4.58621 0
M  V30 4749 H 445.232 -0.14133 4.17261 0
M  V30 4750 H 446.622 3.61527 5.66346 0
M  V30 4751 N 449.342 -1.36122 0.79427 0
M  V30 4752 C 450.619 -1.93398 0.292685 0
M  V30 4753 C 450.999 -1.72567 -1.21589 0
M  V30 4754 O 450.347 -1.08745 -2.00965 0
M  V30 4755 C 450.557 -3.42099 0.690614 0
M  V30 4756 C 451.905 -4.19231 0.673105 0
M  V30 4757 O 452.929 -3.50559 0.631389 0
M  V30 4758 O 451.788 -5.41732 0.720362 0
M  V30 4759 H 448.882 -0.823712 0.0736693 0
M  V30 4760 H 451.428 -1.45273 0.87714 0
M  V30 4761 H 450.2 -3.50938 1.73085 0
M  V30 4762 H 449.823 -3.97519 0.0803036 0
M  V30 4763 N 450.82 -0.546701 -1.47814 0
M  V30 4764 C 451.767 0.206854 -2.29871 0
M  V30 4765 C 452.737 0.918235 -1.38411 0
M  V30 4766 O 453.922 0.915991 -1.67375 0
M  V30 4767 C 451.062 1.23746 -3.22151 0
M  V30 4768 C 450.175 0.533216 -4.28697 0
M  V30 4769 C 449.31 1.5482 -5.08138 0
M  V30 4770 C 448.349 0.828347 -6.06469 0
M  V30 4771 N 447.486 1.78966 -6.78908 0
M  V30 4772 H 452.326 -0.499037 -2.93792 0
M  V30 4773 H 449.863 -0.25793 -1.44821 0
M  V30 4774 H 451.821 1.84746 -3.74065 0
M  V30 4775 H 450.451 1.91151 -2.60117 0
M  V30 4776 H 449.503 -0.191089 -3.7992 0
M  V30 4777 H 450.815 -0.0311987 -4.9879 0
M  V30 4778 H 449.969 2.23202 -5.6415 0
M  V30 4779 H 448.708 2.14652 -4.37922 0
M  V30 4780 H 447.713 0.130539 -5.49645 0
M  V30 4781 H 448.938 0.235907 -6.7869 0
M  V30 4782 H 446.884 2.37675 -6.1143 0
M  V30 4783 H 446.801 1.27712 -7.45135 0
M  V30 4784 H 448.069 2.46496 -7.395 0
M  V30 4785 N 452.299 1.55045 -0.282633 0
M  V30 4786 C 453.524 2.04628 0.337977 0
M  V30 4787 C 453.949 1.15937 1.48123 0
M  V30 4788 O 453.307 0.159532 1.80597 0
M  V30 4789 C 453.355 3.51854 0.78936 0
M  V30 4790 O 452.459 3.66236 1.89592 0
M  V30 4791 H 451.8 0.660434 0.0687261 0
M  V30 4792 H 454.33 2.00261 -0.419124 0
M  V30 4793 H 454.34 3.93361 1.08311 0
M  V30 4794 H 453.015 4.15873 -0.0470419 0
M  V30 4795 H 451.592 3.36633 1.60413 0
M  V30 4796 N 453.777 0.010035 1.57597 0
M  V30 4797 C 455.193 -0.346164 1.55801 0
M  V30 4798 C 455.393 -1.74144 1.01371 0
M  V30 4799 O 454.449 -2.43938 0.651968 0
M  V30 4800 C 455.762 -0.212216 2.9995 0
M  V30 4801 C 457.31 -0.286409 3.11687 0
M  V30 4802 C 457.785 -0.18147 4.5764 0
M  V30 4803 N 459.276 -0.239056 4.62583 0
M  V30 4804 C 460.011 -0.181351 5.73113 0
M  V30 4805 N 459.507 -0.073661 6.92761 0
M  V30 4806 N 461.3 -0.233949 5.61613 0
M  V30 4807 H 453.451 0.922657 1.91313 0
M  V30 4808 H 455.714 0.354595 0.879185 0
M  V30 4809 H 455.42 0.748169 3.4365 0
M  V30 4810 H 455.294 -0.990224 3.6397 0
M  V30 4811 H 457.681 -1.23724 2.67911 0
M  V30 4812 H 457.762 0.521645 2.50425 0
M  V30 4813 H 457.406 0.765863 5.02093 0
M  V30 4814 H 457.336 -1.00814 5.1686 0
M  V30 4815 H 459.827 -0.32321 3.76515 0
M  V30 4816 H 460.14 -0.0358003 7.72792 0
M  V30 4817 H 458.485 -0.0391461 6.94989 0
M  V30 4818 H 461.676 -0.316347 4.6703 0
M  V30 4819 H 461.849 -0.185514 6.47734 0
M  V30 4820 N 455.255 -1.55392 -0.262866 0
M  V30 4821 C 456.483 -1.80513 -1.01108 0
M  V30 4822 C 456.898 -0.583533 -1.79556 0
M  V30 4823 O 456.255 0.447585 -1.76926 0
M  V30 4824 C 456.306 -3.03648 -1.96164 0
M  V30 4825 O 456.027 -4.2109 -1.20893 0
M  V30 4826 C 457.528 -3.41448 -2.82715 0
M  V30 4827 H 454.748 -0.601079 -0.298236 0
M  V30 4828 H 457.292 -2.02425 -0.290582 0
M  V30 4829 H 455.447 -2.83832 -2.63663 0
M  V30 4830 H 455.861 -4.90771 -1.85051 0
M  V30 4831 H 457.335 -4.30751 -3.45192 0
M  V30 4832 H 457.812 -2.61308 -3.53008 0
M  V30 4833 H 458.418 -3.63559 -2.20693 0
M  V30 4834 N 456.733 0.527833 -1.48498 0
M  V30 4835 C 458.144 1.10975 -1.50138 0
M  V30 4836 C 458.495 1.943 -0.272378 0
M  V30 4837 O 457.62 2.07319 0.620301 0
M  V30 4838 C 458.215 2.01927 -2.72049 0
M  V30 4839 C 456.774 2.55332 -2.76554 0
M  V30 4840 C 455.921 1.32341 -2.43683 0
M  V30 4841 H 458.872 0.312986 -1.55583 0
M  V30 4842 H 458.893 2.86244 -2.50689 0
M  V30 4843 H 458.405 1.41254 -3.61481 0
M  V30 4844 H 456.506 3.19721 -1.91336 0
M  V30 4845 H 456.619 2.94319 -3.78038 0
M  V30 4846 H 454.983 1.63989 -1.94884 0
M  V30 4847 H 455.766 0.734165 -3.35358 0
M  V30 4848 N 458.211 1.37122 0.776871 0
M  V30 4849 C 459.627 1.1781 1.07671 0
M  V30 4850 C 459.827 0.0107454 2.01497 0
M  V30 4851 O 458.883 -0.650756 2.4397 0
M  V30 4852 C 460.196 2.49451 1.67913 0
M  V30 4853 C 461.744 2.55927 1.80195 0
M  V30 4854 C 462.219 3.87686 2.43851 0
M  V30 4855 N 463.71 3.891 2.51307 0
M  V30 4856 C 464.445 4.87797 3.014 0
M  V30 4857 N 463.941 5.96888 3.51705 0
M  V30 4858 N 465.734 4.75205 3.00227 0
M  V30 4859 H 457.885 2.11843 0.153778 0
M  V30 4860 H 460.148 0.938927 0.130844 0
M  V30 4861 H 459.854 3.35207 1.06439 0
M  V30 4862 H 459.728 2.66169 2.67271 0
M  V30 4863 H 462.115 1.70582 2.40803 0
M  V30 4864 H 462.196 2.43097 0.796069 0
M  V30 4865 H 461.84 4.73444 1.83884 0
M  V30 4866 H 461.77 3.97817 3.45035 0
M  V30 4867 H 464.261 3.10293 2.157 0
M  V30 4868 H 464.574 6.68155 3.88316 0
M  V30 4869 H 462.919 6.0054 3.49824 0
M  V30 4870 H 466.11 3.89103 2.60224 0
M  V30 4871 H 466.283 5.52279 3.38957 0
M  V30 4872 N 459.689 -1.00246 1.21608 0
M  V30 4873 C 460.619 -2.10921 1.00172 0
M  V30 4874 C 461.6 -1.69938 -0.0741587 0
M  V30 4875 O 462.785 -1.94009 0.0861753 0
M  V30 4876 C 459.915 -3.42618 0.568355 0
M  V30 4877 C 458.869 -3.97407 1.58909 0
M  V30 4878 C 458.195 -5.25038 1.01187 0
M  V30 4879 C 459.495 -4.2918 2.97661 0
M  V30 4880 H 461.189 -2.29112 1.92739 0
M  V30 4881 H 458.735 -1.10101 0.928102 0
M  V30 4882 H 460.688 -4.19444 0.405555 0
M  V30 4883 H 459.412 -3.24227 -0.392961 0
M  V30 4884 H 458.071 -3.22703 1.73949 0
M  V30 4885 H 457.719 -5.02982 0.0421965 0
M  V30 4886 H 457.419 -5.62661 1.6937 0
M  V30 4887 H 458.943 -6.04507 0.860448 0
M  V30 4888 H 460.357 -4.96839 2.86049 0
M  V30 4889 H 458.754 -4.77952 3.6288 0
M  V30 4890 H 459.824 -3.3735 3.48315 0
M  V30 4891 N 461.167 -1.02423 -1.1978 0
M  V30 4892 C 462.578 -0.748389 -1.71044 0
M  V30 4893 C 462.929 0.732398 -1.82017 0
M  V30 4894 O 462.054 1.57116 -1.48807 0
M  V30 4895 C 462.649 -1.35187 -3.1066 0
M  V30 4896 C 461.208 -1.12472 -3.59203 0
M  V30 4897 C 460.355 -1.45283 -2.36195 0
M  V30 4898 H 463.306 -1.19275 -1.04686 0
M  V30 4899 H 463.327 -0.746408 -3.73107 0
M  V30 4900 H 462.839 -2.4296 -3.02642 0
M  V30 4901 H 460.94 -0.0649983 -3.72543 0
M  V30 4902 H 461.053 -1.81016 -4.43588 0
M  V30 4903 H 459.417 -0.872034 -2.39307 0
M  V30 4904 H 460.2 -2.54129 -2.30811 0
M  V30 4905 N 462.645 1.35699 -0.801477 0
M  V30 4906 C 463.87 2.03687 -0.390678 0
M  V30 4907 C 464.295 1.60015 0.988778 0
M  V30 4908 O 463.653 0.774357 1.63931 0
M  V30 4909 C 463.701 3.57439 -0.476404 0
M  V30 4910 O 462.805 4.09208 0.512106 0
M  V30 4911 H 462.146 0.64344 -0.163956 0
M  V30 4912 H 464.676 1.73403 -1.08594 0
M  V30 4913 H 464.686 4.06544 -0.344357 0
M  V30 4914 H 463.361 3.88576 -1.48262 0
M  V30 4915 H 461.938 3.7134 0.340721 0
M  V30 4916 N 464.123 0.554532 1.47522 0
M  V30 4917 C 465.348 0.0322661 2.07375 0
M  V30 4918 C 465.773 -1.25079 1.40488 0
M  V30 4919 O 465.131 -1.74859 0.47896 0
M  V30 4920 C 465.179 -0.149397 3.6029 0
M  V30 4921 O 464.283 -1.21259 3.9417 0
M  V30 4922 H 463.624 0.0501228 0.662106 0
M  V30 4923 H 466.154 0.769452 1.8958 0
M  V30 4924 H 466.164 -0.364437 4.06369 0
M  V30 4925 H 464.839 0.787743 4.08372 0
M  V30 4926 H 463.416 -0.97825 3.5984 0
M  V30 4927 N 465.601 -1.54893 0.290851 0
M  V30 4928 C 466.564 -2.21824 -0.576784 0
M  V30 4929 C 467.564 -1.20104 -1.06919 0
M  V30 4930 O 468.754 -1.44906 -0.966843 0
M  V30 4931 C 465.886 -2.89662 -1.79747 0
M  V30 4932 H 467.079 -2.99899 0.00784051 0
M  V30 4933 H 464.632 -1.56245 0.0415934 0
M  V30 4934 H 465.367 -2.15639 -2.42219 0
M  V30 4935 H 465.152 -3.64219 -1.45214 0
M  V30 4936 H 466.642 -3.4075 -2.4141 0
M  V30 4937 N 467.08 -0.0183926 -1.57589 0
M  V30 4938 C 468.357 0.700621 -1.82622 0
M  V30 4939 C 468.737 1.90951 -0.90005 0
M  V30 4940 O 468.085 2.28452 0.0469145 0
M  V30 4941 C 468.295 1.08899 -3.31575 0
M  V30 4942 C 469.643 1.48514 -3.9778 0
M  V30 4943 O 470.667 1.18227 -3.36007 0
M  V30 4944 O 469.526 2.04903 -5.06633 0
M  V30 4945 H 466.62 0.342743 -0.752633 0
M  V30 4946 H 469.166 -0.0452548 -1.6964 0
M  V30 4947 H 467.938 0.228113 -3.90635 0
M  V30 4948 H 467.561 1.89338 -3.49624 0
M  V30 4949 N 468.558 1.5553 0.254621 0
M  V30 4950 C 469.804 1.77262 0.985193 0
M  V30 4951 C 470.137 0.582286 1.85265 0
M  V30 4952 O 469.412 -0.419666 1.89919 0
M  V30 4953 C 469.695 3.0881 1.85225 0
M  V30 4954 C 469.548 4.38233 1.0135 0
M  V30 4955 C 470.867 3.3653 2.83612 0
M  V30 4956 H 467.986 0.644906 0.356742 0
M  V30 4957 H 470.628 1.88264 0.256236 0
M  V30 4958 H 468.778 2.99562 2.47376 0
M  V30 4959 H 470.45 4.59463 0.411269 0
M  V30 4960 H 468.693 4.32636 0.317574 0
M  V30 4961 H 469.364 5.26644 1.65379 0
M  V30 4962 H 471.84 3.45691 2.31596 0
M  V30 4963 H 470.716 4.29805 3.41407 0
M  V30 4964 H 470.977 2.57064 3.59681 0
M  V30 4965 N 470.036 -0.519951 1.48776 0
M  V30 4966 C 470.946 -1.65025 1.66745 0
M  V30 4967 C 471.962 -1.6508 0.549954 0
M  V30 4968 O 473.138 -1.83848 0.822295 0
M  V30 4969 C 470.203 -3.0146 1.71238 0
M  V30 4970 C 469.264 -3.12182 2.94688 0
M  V30 4971 C 468.497 -4.42109 2.98958 0
M  V30 4972 O 468.72 -5.29799 2.1135 0
M  V30 4973 O 467.654 -4.57406 3.91233 0
M  V30 4974 H 471.48 -1.52801 2.62461 0
M  V30 4975 H 469.065 -0.694157 1.32294 0
M  V30 4976 H 470.947 -3.82584 1.76657 0
M  V30 4977 H 469.622 -3.13988 0.786975 0
M  V30 4978 H 468.529 -2.30316 2.94797 0
M  V30 4979 H 469.862 -3.04574 3.86646 0
M  V30 4980 N 471.514 -1.37532 -0.769588 0
M  V30 4981 C 472.761 -1.3286 -1.52822 0
M  V30 4982 C 473.089 0.0862597 -1.94309 0
M  V30 4983 O 472.344 1.05995 -1.6451 0
M  V30 4984 C 472.643 -2.21558 -2.8044 0
M  V30 4985 C 472.309 -3.69796 -2.57996 0
M  V30 4986 C 470.971 -4.10194 -2.51583 0
M  V30 4987 C 473.323 -4.63699 -2.37976 0
M  V30 4988 C 470.651 -5.42608 -2.23144 0
M  V30 4989 C 473.003 -5.96353 -2.1106 0
M  V30 4990 C 471.667 -6.35853 -2.03093 0
M  V30 4991 H 470.937 -0.486168 -0.559215 0
M  V30 4992 H 473.584 -1.69757 -0.886277 0
M  V30 4993 H 471.889 -1.77663 -3.49204 0
M  V30 4994 H 473.586 -2.15256 -3.38328 0
M  V30 4995 H 470.176 -3.37759 -2.63851 0
M  V30 4996 H 474.36 -4.33346 -2.41919 0
M  V30 4997 H 469.616 -5.72173 -2.15472 0
M  V30 4998 H 473.79 -6.68667 -1.94568 0
M  V30 4999 H 471.417 -7.38382 -1.8082 0
M  V30 5000 N 472.992 0.995999 -1.22138 0
M  V30 5001 C 474.232 1.75032 -1.05561 0
M  V30 5002 C 474.596 1.87729 0.402698 0
M  V30 5003 O 475.797 2.59813 0.689234 0
M  V30 5004 C 474.068 3.11973 -1.74379 0
M  V30 5005 S 475.627 4.03182 -1.73175 0
M  V30 5006 H 472.445 0.602137 -0.37809 0
M  V30 5007 H 475.047 1.19107 -1.55028 0
M  V30 5008 H 473.751 3.00371 -2.79652 0
M  V30 5009 H 473.282 3.7297 -1.25128 0
M  V30 5010 H 475.297 4.90043 -0.77923 0
M  V30 5011 N 474.47 1.03057 1.19235 0
M  V30 5012 C 475.4 0.633497 2.24742 0
M  V30 5013 C 476.381 -0.358335 1.66283 0
M  V30 5014 O 477.566 -0.240676 1.92703 0
M  V30 5015 C 474.696 -0.0147648 3.47297 0
M  V30 5016 C 473.65 0.899527 4.18441 0
M  V30 5017 C 472.976 0.116281 5.34574 0
M  V30 5018 C 474.276 2.21404 4.73051 0
M  V30 5019 H 475.97 1.5155 2.58211 0
M  V30 5020 H 473.516 0.73014 1.24117 0
M  V30 5021 H 475.469 -0.304202 4.20301 0
M  V30 5022 H 474.193 -0.931577 3.13032 0
M  V30 5023 H 472.852 1.17319 3.47321 0
M  V30 5024 H 472.5 -0.802619 4.96555 0
M  V30 5025 H 472.2 0.725293 5.83107 0
M  V30 5026 H 473.724 -0.166376 6.10373 0
M  V30 5027 H 475.138 1.98601 5.37802 0
M  V30 5028 H 473.535 2.77512 5.32078 0
M  V30 5029 H 474.605 2.86752 3.91026 0
M  V30 5030 N 475.948 -1.35272 0.808662 0
M  V30 5031 C 477.173 -2.03477 0.401475 0
M  V30 5032 C 477.598 -1.60537 -0.980279 0
M  V30 5033 O 476.956 -0.78304 -1.63518 0
M  V30 5034 C 477.004 -3.57181 0.495354 0
M  V30 5035 O 476.108 -4.09474 -0.490397 0
M  V30 5036 H 475.449 -0.642561 0.167366 0
M  V30 5037 H 477.979 -1.72824 1.09512 0
M  V30 5038 H 477.989 -4.06356 0.365912 0
M  V30 5039 H 476.664 -3.87784 1.5032 0
M  V30 5040 H 475.241 -3.71516 -0.321023 0
M  V30 5041 N 477.426 -0.562348 -1.47226 0
M  V30 5042 C 478.356 0.170627 -2.32876 0
M  V30 5043 C 479.337 0.903748 -1.44106 0
M  V30 5044 O 480.522 0.883206 -1.72954 0
M  V30 5045 C 477.652 1.19786 -3.25989 0
M  V30 5046 C 476.606 0.580875 -4.2404 0
M  V30 5047 C 475.932 1.71311 -5.06514 0
M  V30 5048 C 477.232 -0.468714 -5.20193 0
M  V30 5049 H 478.926 -0.544441 -2.94408 0
M  V30 5050 H 476.472 -0.263271 -1.41573 0
M  V30 5051 H 478.425 1.71884 -3.84752 0
M  V30 5052 H 477.149 1.94294 -2.62521 0
M  V30 5053 H 475.808 0.0811538 -3.6651 0
M  V30 5054 H 475.456 2.44736 -4.39447 0
M  V30 5055 H 475.156 1.30604 -5.72902 0
M  V30 5056 H 476.68 2.23725 -5.68137 0
M  V30 5057 H 478.094 -0.0336028 -5.7329 0
M  V30 5058 H 476.491 -0.794957 -5.94811 0
M  V30 5059 H 477.561 -1.36269 -4.65359 0
M  V30 5060 N 478.904 1.54736 -0.299062 0
M  V30 5061 C 480.132 2.04512 0.313447 0
M  V30 5062 C 480.547 1.17643 1.47667 0
M  V30 5063 O 479.904 0.20164 1.81383 0
M  V30 5064 C 479.955 3.53171 0.771542 0
M  V30 5065 O 479.676 4.36736 -0.345379 0
M  V30 5066 C 481.177 4.18936 1.4494 0
M  V30 5067 H 478.397 0.667507 0.0683784 0
M  V30 5068 H 480.941 1.99752 -0.438129 0
M  V30 5069 H 479.096 3.58298 1.47314 0
M  V30 5070 H 479.51 5.24499 0.0109219 0
M  V30 5071 H 480.984 5.24482 1.72111 0
M  V30 5072 H 481.461 3.68554 2.38883 0
M  V30 5073 H 482.067 4.17879 0.791028 0
M  V30 5074 N 480.382 0.0267497 1.57577 0
M  V30 5075 C 481.314 -0.984594 2.06974 0
M  V30 5076 C 482.327 -1.29032 0.992705 0
M  V30 5077 O 483.516 -1.25539 1.26895 0
M  V30 5078 C 480.616 -2.31262 2.47732 0
M  V30 5079 C 479.789 -2.1924 3.78487 0
M  V30 5080 C 478.848 -3.34956 4.05821 0
M  V30 5081 O 477.874 -3.11948 4.76106 0
M  V30 5082 N 479.076 -4.58672 3.55809 0
M  V30 5083 H 481.841 -0.563143 2.94362 0
M  V30 5084 H 479.402 -0.160061 1.61107 0
M  V30 5085 H 481.394 -3.07496 2.63112 0
M  V30 5086 H 479.964 -2.65056 1.65723 0
M  V30 5087 H 479.184 -1.27747 3.72927 0
M  V30 5088 H 480.472 -2.08409 4.64158 0
M  V30 5089 H 479.87 -4.8026 2.98942 0
M  V30 5090 H 478.427 -5.32083 3.76472 0
M  V30 5091 N 481.861 -1.55662 -0.24637 0
M  V30 5092 C 483.091 -1.81312 -0.990438 0
M  V30 5093 C 483.499 -0.600234 -1.79426 0
M  V30 5094 O 482.842 0.440537 -1.78339 0
M  V30 5095 C 482.904 -3.0032 -1.97607 0
M  V30 5096 C 482.568 -4.36322 -1.35912 0
M  V30 5097 C 483.565 -5.14295 -0.761348 0
M  V30 5098 C 481.25 -4.83019 -1.37833 0
M  V30 5099 C 483.244 -6.37114 -0.190998 0
M  V30 5100 C 480.931 -6.05786 -0.804128 0
M  V30 5101 C 481.929 -6.82672 -0.211489 0
M  V30 5102 O 481.617 -8.03121 0.353845 0
M  V30 5103 H 481.349 -0.607233 -0.297058 0
M  V30 5104 H 483.903 -2.0356 -0.274351 0
M  V30 5105 H 482.133 -2.73829 -2.73047 0
M  V30 5106 H 483.822 -3.13057 -2.58361 0
M  V30 5107 H 484.588 -4.79337 -0.739013 0
M  V30 5108 H 480.467 -4.23165 -1.829 0
M  V30 5109 H 484.011 -6.97069 0.272206 0
M  V30 5110 H 479.908 -6.40222 -0.823792 0
M  V30 5111 H 480.676 -8.18131 0.245761 0
M  V30 5112 N 483.339 0.512053 -1.4905 0
M  V30 5113 C 484.249 1.64139 -1.67617 0
M  V30 5114 C 485.265 1.64786 -0.558701 0
M  V30 5115 O 486.441 1.8341 -0.832034 0
M  V30 5116 C 483.506 3.00548 -1.72835 0
M  V30 5117 C 482.567 3.10615 -2.96339 0
M  V30 5118 C 481.8 4.40517 -3.01298 0
M  V30 5119 O 482.023 5.28671 -2.14157 0
M  V30 5120 O 480.957 4.55325 -3.93653 0
M  V30 5121 H 484.783 1.51407 -2.63267 0
M  V30 5122 H 482.368 0.687131 -1.32661 0
M  V30 5123 H 484.25 3.81641 -1.78683 0
M  V30 5124 H 482.925 3.13566 -0.803616 0
M  V30 5125 H 481.832 2.2875 -2.96014 0
M  V30 5126 H 483.165 3.0252 -3.88256 0
M  V30 5127 N 484.817 1.37938 0.762283 0
M  V30 5128 C 486.042 1.37059 1.55659 0
M  V30 5129 C 486.467 -0.0396123 1.88058 0
M  V30 5130 O 485.825 -1.01929 1.49934 0
M  V30 5131 C 485.873 2.22494 2.83776 0
M  V30 5132 O 484.977 1.63607 3.78559 0
M  V30 5133 H 484.318 0.467892 0.47114 0
M  V30 5134 H 486.848 1.81587 0.942725 0
M  V30 5135 H 486.858 2.36045 3.32786 0
M  V30 5136 H 485.533 3.24993 2.59524 0
M  V30 5137 H 484.11 1.5915 3.37233 0
M  V30 5138 N 486.295 -0.989507 1.22664 0
M  V30 5139 C 487.543 -1.72612 1.05117 0
M  V30 5140 C 487.864 -1.90552 -0.414131 0
M  V30 5141 O 487.134 -1.4676 -1.29762 0
M  V30 5142 H 485.714 -0.639555 0.385977 0
M  V30 5143 H 488.376 -1.19158 1.54232 0
M  V30 5144 H 487.472 -2.71926 1.53175 0
M  V30 5145 N 487.773 -1.03688 -1.18687 0
M  V30 5146 C 488.998 -0.757819 -1.93059 0
M  V30 5147 C 489.423 0.678353 -1.75442 0
M  V30 5148 O 488.781 1.46938 -1.06203 0
M  V30 5149 C 488.829 -1.12423 -3.42627 0
M  V30 5150 O 487.933 -0.247505 -4.11657 0
M  V30 5151 H 487.274 -0.279245 -0.602427 0
M  V30 5152 H 489.804 -1.3857 -1.5053 0
M  V30 5153 H 489.814 -1.08454 -3.93322 0
M  V30 5154 H 488.489 -2.17049 -3.54771 0
M  V30 5155 H 487.066 -0.34649 -3.71287 0
M  V30 5156 N 489.251 1.34841 -0.815825 0
M  V30 5157 C 490.184 2.27504 -0.178062 0
M  V30 5158 C 491.162 1.48542 0.661373 0
M  V30 5159 O 492.346 1.77779 0.626653 0
M  V30 5160 C 489.473 3.30246 0.752002 0
M  V30 5161 C 488.519 4.26499 -0.00899172 0
M  V30 5162 S 489.352 5.18169 -1.35134 0
M  V30 5163 C 490.508 6.24449 -0.42596 0
M  V30 5164 H 490.741 2.81248 -0.963684 0
M  V30 5165 H 488.274 1.41781 -0.611355 0
M  V30 5166 H 490.232 3.89933 1.28308 0
M  V30 5167 H 488.893 2.75363 1.51109 0
M  V30 5168 H 488.086 4.99146 0.697766 0
M  V30 5169 H 487.688 3.7103 -0.470396 0
M  V30 5170 H 489.98 6.76404 0.385234 0
M  V30 5171 H 490.923 6.99156 -1.1219 0
M  V30 5172 H 491.331 5.64497 -0.0175461 0
M  V30 5173 N 490.729 0.570148 1.46925 0
M  V30 5174 C 492.006 -0.0153259 1.95594 0
M  V30 5175 C 492.386 -1.47232 1.51281 0
M  V30 5176 O 491.734 -2.15574 0.757624 0
M  V30 5177 C 491.944 0.143624 3.48704 0
M  V30 5178 C 493.292 0.00494484 4.246 0
M  V30 5179 O 494.316 0.0718214 3.56128 0
M  V30 5180 O 493.175 -0.141175 5.46318 0
M  V30 5181 H 490.269 -0.0568819 0.825041 0
M  V30 5182 H 492.815 0.637583 1.57267 0
M  V30 5183 H 491.587 1.15699 3.73804 0
M  V30 5184 H 491.21 -0.5463 3.93829 0
M  V30 5185 N 492.207 -1.54576 0.307264 0
M  V30 5186 C 493.154 -2.23751 -0.56604 0
M  V30 5187 C 494.124 -1.22235 -1.12462 0
M  V30 5188 O 495.309 -1.50873 -1.16799 0
M  V30 5189 C 492.449 -2.98661 -1.72903 0
M  V30 5190 C 491.562 -4.14963 -1.20124 0
M  V30 5191 C 490.697 -4.77441 -2.3286 0
M  V30 5192 C 489.736 -5.85875 -1.77247 0
M  V30 5193 N 488.873 -6.42282 -2.8358 0
M  V30 5194 H 493.713 -2.97984 0.0304578 0
M  V30 5195 H 491.25 -1.47076 0.0268015 0
M  V30 5196 H 493.208 -3.40329 -2.41313 0
M  V30 5197 H 491.838 -2.26793 -2.29706 0
M  V30 5198 H 490.89 -3.78193 -0.409198 0
M  V30 5199 H 492.202 -4.93066 -0.754171 0
M  V30 5200 H 491.356 -5.21993 -3.09205 0
M  V30 5201 H 490.095 -3.98684 -2.80896 0
M  V30 5202 H 489.1 -5.40741 -0.993926 0
M  V30 5203 H 490.325 -6.6652 -1.30107 0
M  V30 5204 H 488.271 -5.66406 -3.30939 0
M  V30 5205 H 488.188 -7.1575 -2.43388 0
M  V30 5206 H 489.456 -6.91492 -3.59804 0
M  V30 5207 N 493.685 -0.035106 -1.57561 0
M  V30 5208 C 494.648 0.929819 -2.09492 0
M  V30 5209 C 495.648 1.25026 -1.01119 0
M  V30 5210 O 496.838 1.18961 -1.27255 0
M  V30 5211 C 493.97 2.24457 -2.56577 0
M  V30 5212 H 495.163 0.479935 -2.96035 0
M  V30 5213 H 492.716 0.213033 -1.54841 0
M  V30 5214 H 493.451 2.74061 -1.73382 0
M  V30 5215 H 493.236 2.02508 -3.35757 0
M  V30 5216 H 494.726 2.93607 -2.96959 0
M  V30 5217 N 495.163 1.55791 0.238111 0
M  V30 5218 C 496.126 1.90239 1.27835 0
M  V30 5219 C 497.126 0.779552 1.4064 0
M  V30 5220 O 498.316 1.04747 1.3919 0
M  V30 5221 C 495.448 2.13859 2.65475 0
M  V30 5222 H 496.641 2.83262 0.985034 0
M  V30 5223 H 494.194 1.48818 0.477799 0
M  V30 5224 H 494.929 1.23334 2.99932 0
M  V30 5225 H 494.714 2.95643 2.57561 0
M  V30 5226 H 496.204 2.41664 3.40571 0
M  V30 5227 N 496.642 -0.504142 1.49319 0
M  V30 5228 C 497.59 -1.62689 1.66238 0
M  V30 5229 C 498.584 -1.6095 0.528349 0
M  V30 5230 O 499.79 -1.65496 0.707887 0
M  V30 5231 H 496.165 -0.539247 0.524134 0
M  V30 5232 H 498.136 -1.45571 2.60484 0
M  V30 5233 C 496.885 -3.00841 1.74328 0
M  V30 5234 H 496.208 -3.02884 2.60963 0
M  V30 5235 H 497.648 -3.78945 1.90202 0
M  V30 5236 C 496.107 -3.33355 0.487416 0
M  V30 5237 O 496.637 -3.99819 -0.388294 0
M  V30 5238 N 494.843 -2.88469 0.351306 0
M  V30 5239 H 494.39 -2.34557 1.06492 0
M  V30 5240 H 494.348 -3.10591 -0.487899 0
M  V30 5241 N 498.12 -1.38341 -0.754957 0
M  V30 5242 C 499.367 -1.34473 -1.51404 0
M  V30 5243 C 499.695 0.0656458 -1.94389 0
M  V30 5244 O 498.95 1.04244 -1.65625 0
M  V30 5245 C 499.249 -2.2452 -2.78075 0
M  V30 5246 C 498.915 -3.72512 -2.54059 0
M  V30 5247 C 497.577 -4.1284 -2.47218 0
M  V30 5248 C 499.929 -4.66197 -2.33044 0
M  V30 5249 C 497.257 -5.44945 -2.17376 0
M  V30 5250 C 499.609 -5.98558 -2.04723 0
M  V30 5251 C 498.273 -6.37972 -1.96337 0
M  V30 5252 H 497.543 -0.492072 -0.554027 0
M  V30 5253 H 500.19 -1.70687 -0.868223 0
M  V30 5254 H 498.495 -1.81357 -3.473 0
M  V30 5255 H 500.192 -2.18832 -3.36026 0
M  V30 5256 H 496.782 -3.40538 -2.60253 0
M  V30 5257 H 500.966 -4.35888 -2.37309 0
M  V30 5258 H 496.222 -5.74426 -2.09391 0
M  V30 5259 H 500.396 -6.70693 -1.87465 0
M  V30 5260 H 498.023 -7.40258 -1.72978 0
M  V30 5261 N 499.598 0.982988 -1.23187 0
M  V30 5262 C 500.823 1.76455 -1.08988 0
M  V30 5263 C 501.248 1.84726 0.354691 0
M  V30 5264 O 500.606 1.30699 1.25649 0
M  V30 5265 C 500.654 3.17094 -1.71708 0
M  V30 5266 O 499.758 4.00648 -0.977477 0
M  V30 5267 H 499.099 0.542988 -0.382177 0
M  V30 5268 H 501.629 1.23413 -1.63188 0
M  V30 5269 H 501.639 3.67684 -1.76841 0
M  V30 5270 H 500.314 3.10389 -2.76823 0
M  V30 5271 H 498.891 3.59161 -1.0029 0
M  V30 5272 N 501.076 1.04316 1.18135 0
M  V30 5273 C 502.323 0.74802 1.88178 0
M  V30 5274 C 502.651 -0.72441 1.80506 0
M  V30 5275 O 501.906 -1.54463 1.20165 0
M  V30 5276 C 502.205 1.16271 3.37958 0
M  V30 5277 C 501.871 2.63585 3.65833 0
M  V30 5278 C 500.533 3.03829 3.73151 0
M  V30 5279 C 502.885 3.58822 3.78016 0
M  V30 5280 C 500.213 4.38194 3.90132 0
M  V30 5281 C 502.565 4.92909 3.96514 0
M  V30 5282 C 501.229 5.3282 4.02068 0
M  V30 5283 H 500.499 0.27372 0.688592 0
M  V30 5284 H 503.146 1.30863 1.39811 0
M  V30 5285 H 501.451 0.520938 3.88321 0
M  V30 5286 H 503.148 0.911672 3.90499 0
M  V30 5287 H 499.738 2.31414 3.60757 0
M  V30 5288 H 503.922 3.28875 3.71692 0
M  V30 5289 H 499.178 4.68631 3.92677 0
M  V30 5290 H 503.352 5.66606 4.04883 0
M  V30 5291 H 500.979 6.36943 4.14979 0
M  V30 5292 N 502.554 -1.34406 0.822964 0
M  V30 5293 C 503.97 -1.51275 0.508727 0
M  V30 5294 C 504.17 -1.76776 -0.967083 0
M  V30 5295 O 503.226 -1.81871 -1.75155 0
M  V30 5296 C 504.539 -2.67765 1.36829 0
M  V30 5297 C 506.087 -2.81647 1.36542 0
M  V30 5298 C 506.562 -4.01181 2.20947 0
M  V30 5299 N 508.053 -4.08388 2.18571 0
M  V30 5300 C 508.788 -5.00036 2.80627 0
M  V30 5301 N 508.284 -5.96906 3.51674 0
M  V30 5302 N 510.077 -4.92908 2.70181 0
M  V30 5303 H 502.228 -1.16113 1.77852 0
M  V30 5304 H 504.491 -0.56947 0.757897 0
M  V30 5305 H 504.197 -2.55551 2.41633 0
M  V30 5306 H 504.071 -3.62779 1.03303 0
M  V30 5307 H 506.458 -2.93303 0.325163 0
M  V30 5308 H 506.539 -1.87443 1.74066 0
M  V30 5309 H 506.183 -3.90286 3.25022 0
M  V30 5310 H 506.113 -4.94599 1.80774 0
M  V30 5311 H 508.604 -3.39051 1.66891 0
M  V30 5312 H 508.917 -6.63468 3.96271 0
M  V30 5313 H 507.262 -5.9703 3.5578 0
M  V30 5314 H 510.453 -4.1619 2.14251 0
M  V30 5315 H 510.626 -5.64137 3.18831 0
M  V30 5316 N 504.032 -0.577932 -1.46621 0
M  V30 5317 C 504.98 0.170882 -2.31971 0
M  V30 5318 C 505.974 0.889086 -1.44193 0
M  V30 5319 O 507.18 0.808017 -1.60845 0
M  V30 5320 H 503.555 0.0739763 -0.748353 0
M  V30 5321 H 505.526 -0.567856 -2.92947 0
M  V30 5322 C 504.275 1.17438 -3.27267 0
M  V30 5323 H 503.598 0.63116 -3.94787 0
M  V30 5324 H 505.038 1.66882 -3.89778 0
M  V30 5325 C 503.497 2.23292 -2.52274 0
M  V30 5326 O 504.027 3.30567 -2.28229 0
M  V30 5327 N 502.233 1.97772 -2.12919 0
M  V30 5328 H 501.78 1.10545 -2.32675 0
M  V30 5329 H 501.738 2.68809 -1.63062 0
M  V30 5330 N 505.51 1.54411 -0.315457 0
M  V30 5331 C 506.738 2.04833 0.291738 0
M  V30 5332 C 507.153 1.19203 1.46411 0
M  V30 5333 O 506.51 0.220867 1.81159 0
M  V30 5334 C 506.561 3.53969 0.73404 0
M  V30 5335 O 506.282 4.36346 -0.391682 0
M  V30 5336 C 507.783 4.2045 1.40489 0
M  V30 5337 H 505.003 0.668195 0.0612947 0
M  V30 5338 H 507.547 1.99276 -0.45929 0
M  V30 5339 H 505.702 3.5984 1.43506 0
M  V30 5340 H 506.116 5.24481 -0.0447088 0
M  V30 5341 H 507.59 5.26278 1.66539 0
M  V30 5342 H 508.067 3.71067 2.3496 0
M  V30 5343 H 508.673 4.18694 0.746662 0
M  V30 5344 N 506.988 0.0434614 1.5754 0
M  V30 5345 C 507.918 -0.931651 2.14109 0
M  V30 5346 C 508.899 -1.32971 1.06079 0
M  V30 5347 O 510.084 -1.40579 1.33982 0
M  V30 5348 C 507.214 -2.20914 2.67982 0
M  V30 5349 C 506.168 -1.95139 3.80926 0
M  V30 5350 C 505.494 -3.29276 4.21285 0
M  V30 5351 C 506.794 -1.27913 5.06395 0
M  V30 5352 H 508.488 -0.460497 2.95837 0
M  V30 5353 H 506.034 -0.220058 1.42309 0
M  V30 5354 H 507.987 -2.89522 3.06194 0
M  V30 5355 H 506.711 -2.70221 1.83434 0
M  V30 5356 H 505.37 -1.28945 3.43175 0
M  V30 5357 H 505.018 -3.76369 3.33699 0
M  V30 5358 H 504.718 -3.12831 4.97404 0
M  V30 5359 H 506.242 -3.99129 4.62091 0
M  V30 5360 H 507.656 -1.86544 5.42102 0
M  V30 5361 H 506.053 -1.2182 5.87605 0
M  V30 5362 H 507.123 -0.254066 4.84234 0
M  V30 5363 N 508.466 -1.55915 -0.229846 0
M  V30 5364 C 509.376 -1.94891 -1.30593 0
M  V30 5365 C 510.392 -0.851604 -1.51736 0
M  V30 5366 O 511.568 -1.15447 -1.65027 0
M  V30 5367 C 508.633 -2.25052 -2.63728 0
M  V30 5368 C 507.694 -3.48306 -2.5096 0
M  V30 5369 C 506.927 -3.77019 -3.77747 0
M  V30 5370 O 507.15 -3.07534 -4.80395 0
M  V30 5371 O 506.084 -4.70523 -3.75356 0
M  V30 5372 H 509.91 -2.86581 -1.00525 0
M  V30 5373 H 507.495 -1.43017 -0.432025 0
M  V30 5374 H 509.377 -2.45682 -3.42372 0
M  V30 5375 H 508.052 -1.36538 -2.93495 0
M  V30 5376 H 506.959 -3.32964 -1.70546 0
M  V30 5377 H 508.292 -4.37177 -2.26136 0
M  V30 5378 N 509.944 0.496216 -1.49584 0
M  V30 5379 C 511.192 1.24756 -1.58998 0
M  V30 5380 C 511.513 1.92968 -0.280775 0
M  V30 5381 O 510.783 1.82959 0.700198 0
M  V30 5382 H 509.363 0.463471 -0.585836 0
M  V30 5383 H 512.025 0.574678 -1.86235 0
M  V30 5384 H 511.121 2.00895 -2.38847 0
M  V30 5385 N 511.423 1.38739 0.74761 0
M  V30 5386 C 512.67 1.35274 1.50689 0
M  V30 5387 C 512.998 -0.0553359 1.94421 0
M  V30 5388 O 512.253 -1.03365 1.66175 0
M  V30 5389 C 512.552 2.25992 2.7688 0
M  V30 5390 C 512.218 3.73854 2.5208 0
M  V30 5391 C 510.88 4.14145 2.45025 0
M  V30 5392 C 513.232 4.67427 2.30568 0
M  V30 5393 C 510.56 5.4609 2.14483 0
M  V30 5394 C 512.912 5.99635 2.01545 0
M  V30 5395 C 511.576 6.39004 1.92951 0
M  V30 5396 H 510.846 0.495003 0.55141 0
M  V30 5397 H 513.493 1.71145 0.859158 0
M  V30 5398 H 511.798 1.83196 3.46333 0
M  V30 5399 H 513.495 2.20611 3.34861 0
M  V30 5400 H 510.085 3.41913 2.58444 0
M  V30 5401 H 514.269 4.3714 2.34994 0
M  V30 5402 H 509.525 5.75528 2.06342 0
M  V30 5403 H 513.699 6.71678 1.83906 0
M  V30 5404 H 511.326 7.41165 1.6905 0
M  V30 5405 N 512.901 -0.976442 1.23707 0
M  V30 5406 C 513.864 -2.0511 1.02287 0
M  V30 5407 C 514.864 -1.60791 -0.0167195 0
M  V30 5408 O 516.054 -1.72761 0.223408 0
M  V30 5409 C 513.186 -3.36458 0.548507 0
M  V30 5410 H 514.379 -2.25545 1.9766 0
M  V30 5411 H 511.932 -1.15042 1.05806 0
M  V30 5412 H 512.667 -3.21713 -0.408818 0
M  V30 5413 H 512.452 -3.69967 1.29874 0
M  V30 5414 H 513.942 -4.15489 0.419406 0
M  V30 5415 N 514.379 -1.04941 -1.1758 0
M  V30 5416 C 515.604 -0.778253 -1.92245 0
M  V30 5417 C 516.029 0.659707 -1.76152 0
M  V30 5418 O 515.387 1.45803 -1.07755 0
M  V30 5419 C 515.435 -1.16051 -3.41416 0
M  V30 5420 O 514.539 -0.291153 -4.11371 0
M  V30 5421 H 513.88 -0.285619 -0.599431 0
M  V30 5422 H 516.41 -1.40159 -1.49052 0
M  V30 5423 H 516.42 -1.12619 -3.92149 0
M  V30 5424 H 515.095 -2.208 -3.52449 0
M  V30 5425 H 513.672 -0.385851 -3.70898 0
M  V30 5426 N 515.857 1.33968 -0.830081 0
M  V30 5427 C 517.268 1.80439 -0.479455 0
M  V30 5428 C 517.619 1.68756 1.00079 0
M  V30 5429 O 516.744 1.23171 1.77927 0
M  V30 5430 C 517.339 3.27611 -0.863505 0
M  V30 5431 C 515.898 3.72133 -0.565145 0
M  V30 5432 C 515.045 2.55549 -1.07657 0
M  V30 5433 H 517.996 1.21614 -1.0196 0
M  V30 5434 H 518.017 3.8012 -0.170083 0
M  V30 5435 H 517.529 3.36082 -1.94089 0
M  V30 5436 H 515.63 3.69196 0.502536 0
M  V30 5437 H 515.743 4.65963 -1.11422 0
M  V30 5438 H 514.107 2.49788 -0.497807 0
M  V30 5439 H 514.89 2.66786 -2.16055 0
M  V30 5440 N 517.335 0.585699 1.46312 0
M  V30 5441 C 518.265 -0.133556 2.33118 0
M  V30 5442 C 519.246 -0.880707 1.45525 0
M  V30 5443 O 520.431 -0.855579 1.74337 0
M  V30 5444 C 517.561 -1.14585 3.27853 0
M  V30 5445 C 516.515 -0.513341 4.2491 0
M  V30 5446 C 515.841 -1.63231 5.09175 0
M  V30 5447 C 517.141 0.551413 5.19381 0
M  V30 5448 H 518.835 0.59121 2.93505 0
M  V30 5449 H 516.381 0.285761 1.41136 0
M  V30 5450 H 518.334 -1.65741 3.87438 0
M  V30 5451 H 517.058 -1.90093 2.65579 0
M  V30 5452 H 515.717 -0.0228349 3.66593 0
M  V30 5453 H 515.365 -2.37713 4.43285 0
M  V30 5454 H 515.065 -1.21473 5.74907 0
M  V30 5455 H 516.589 -2.14658 5.71624 0
M  V30 5456 H 518.003 0.124804 5.73164 0
M  V30 5457 H 516.4 0.889486 5.93471 0
M  V30 5458 H 517.47 1.43655 4.63132 0
M  V30 5459 N 518.813 -1.54241 0.323641 0
M  V30 5460 C 520.041 -2.04985 -0.280871 0
M  V30 5461 C 520.456 -1.19978 -1.45777 0
M  V30 5462 O 519.813 -0.230471 -1.81039 0
M  V30 5463 C 519.864 -3.54353 -0.715258 0
M  V30 5464 O 519.585 -4.36132 0.414817 0
M  V30 5465 C 521.086 -4.21189 -1.38257 0
M  V30 5466 H 518.306 -0.66851 -0.0577502 0
M  V30 5467 H 520.85 -1.99029 0.469852 0
M  V30 5468 H 519.005 -3.60596 -1.41596 0
M  V30 5469 H 519.419 -5.2445 0.0725227 0
M  V30 5470 H 520.893 -5.27154 -1.63745 0
M  V30 5471 H 521.37 -3.72307 -2.32989 0
M  V30 5472 H 521.976 -4.19085 -0.724447 0
M  V30 5473 N 520.291 -0.0518155 -1.57515 0
M  V30 5474 C 521.539 0.620595 -1.92336 0
M  V30 5475 C 521.86 1.71345 -0.930907 0
M  V30 5476 O 521.13 1.95885 0.0241341 0
M  V30 5477 H 519.71 0.232226 -0.709986 0
M  V30 5478 H 522.372 -0.104969 -1.94617 0
M  V30 5479 H 521.468 1.05879 -2.93592 0
M  V30 5480 N 521.769 1.56035 0.221574 0
M  V30 5481 C 523.018 1.78245 0.944016 0
M  V30 5482 C 523.331 0.620371 1.85501 0
M  V30 5483 O 524.537 0.726103 2.6161 0
M  V30 5484 C 522.993 3.15659 1.7288 0
M  V30 5485 C 522.601 4.39591 0.863942 0
M  V30 5486 C 524.345 3.47195 2.44246 0
M  V30 5487 C 522.252 5.6803 1.64607 0
M  V30 5488 H 521.182 0.664547 0.356222 0
M  V30 5489 H 523.833 1.8243 0.197904 0
M  V30 5490 H 522.215 3.0565 2.51781 0
M  V30 5491 H 523.389 4.60655 0.115464 0
M  V30 5492 H 521.704 4.15572 0.262407 0
M  V30 5493 H 524.301 4.40381 3.03263 0
M  V30 5494 H 524.644 2.69693 3.1713 0
M  V30 5495 H 525.177 3.58533 1.72334 0
M  V30 5496 H 521.916 6.48425 0.960507 0
M  V30 5497 H 521.436 5.51027 2.36917 0
M  V30 5498 H 523.115 6.08203 2.20675 0
M  V30 5499 N 523.247 -0.488276 1.49845 0
M  V30 5500 C 524.21 -1.57069 1.66919 0
M  V30 5501 C 525.21 -1.51445 0.540479 0
M  V30 5502 O 526.4 -1.5437 0.807188 0
M  V30 5503 C 523.532 -2.96718 1.67844 0
M  V30 5504 H 524.725 -1.43254 2.63474 0
M  V30 5505 H 522.278 -0.713435 1.39068 0
M  V30 5506 H 523.013 -3.15996 0.7292 0
M  V30 5507 H 522.798 -3.02208 2.49826 0
M  V30 5508 H 524.288 -3.75335 1.83066 0
M  V30 5509 N 524.725 -1.39134 -0.740242 0
M  V30 5510 C 526.002 -1.26584 -1.49117 0
M  V30 5511 C 526.382 0.126902 -2.10718 0
M  V30 5512 O 525.73 1.13765 -1.98166 0
M  V30 5513 C 525.94 -2.38619 -2.54681 0
M  V30 5514 C 527.288 -2.77685 -3.21211 0
M  V30 5515 O 528.312 -2.38029 -2.64991 0
M  V30 5516 O 527.171 -3.46115 -4.22926 0
M  V30 5517 H 524.265 -0.495769 -0.661923 0
M  V30 5518 H 526.811 -1.50995 -0.774514 0
M  V30 5519 H 525.583 -3.3175 -2.07504 0
M  V30 5520 H 525.206 -2.15845 -3.33911 0
M  V30 5521 N 526.204 0.969867 -1.24223 0
M  V30 5522 C 527.167 2.04564 -1.03373 0
M  V30 5523 C 528.167 1.60798 0.00819206 0
M  V30 5524 O 529.357 1.72641 -0.232567 0
M  V30 5525 C 526.489 3.36163 -0.566343 0
M  V30 5526 H 527.682 2.24494 -1.98853 0
M  V30 5527 H 525.235 1.1448 -1.06415 0
M  V30 5528 H 525.97 3.21925 0.391751 0
M  V30 5529 H 525.755 3.69273 -1.31834 0
M  V30 5530 H 527.245 4.1526 -0.441435 0
M  V30 5531 N 527.682 1.05563 1.17022 0
M  V30 5532 C 528.907 0.788437 1.91829 0
M  V30 5533 C 529.332 -0.650356 1.76499 0
M  V30 5534 O 528.69 -1.45229 1.08527 0
M  V30 5535 C 528.738 1.1786 3.40795 0
M  V30 5536 O 527.842 0.312965 4.11211 0
M  V30 5537 H 527.183 0.288794 0.597908 0
M  V30 5538 H 529.713 1.40948 1.48307 0
M  V30 5539 H 529.723 1.14697 3.91546 0
M  V30 5540 H 528.398 2.22666 3.51273 0
M  V30 5541 H 526.975 0.405515 3.70689 0
M  V30 5542 N 529.16 -1.33526 0.837174 0
M  V30 5543 C 530.092 -2.28077 0.226579 0
M  V30 5544 C 531.105 -1.51666 -0.591717 0
M  V30 5545 O 532.294 -1.73511 -0.419064 0
M  V30 5546 C 529.394 -3.31597 -0.69978 0
M  V30 5547 C 528.567 -4.37329 0.0788067 0
M  V30 5548 C 527.626 -5.20526 -0.770637 0
M  V30 5549 O 526.652 -5.68811 -0.210453 0
M  V30 5550 N 527.854 -5.41639 -2.08825 0
M  V30 5551 H 530.619 -2.81115 1.03897 0
M  V30 5552 H 528.18 -1.46201 0.695476 0
M  V30 5553 H 530.172 -3.84158 -1.27298 0
M  V30 5554 H 528.742 -2.78848 -1.41288 0
M  V30 5555 H 527.962 -3.8529 0.833381 0
M  V30 5556 H 529.25 -5.05079 0.614238 0
M  V30 5557 H 528.648 -5.04108 -2.56693 0
M  V30 5558 H 527.205 -5.97263 -2.60998 0
M  V30 5559 N 530.638 -0.59345 -1.46 0
M  V30 5560 C 531.863 -0.0872365 -2.07216 0
M  V30 5561 C 532.288 1.2131 -1.43755 0
M  V30 5562 O 531.646 1.73528 -0.525152 0
M  V30 5563 C 531.694 0.0538197 -3.6056 0
M  V30 5564 O 530.798 1.10765 -3.97247 0
M  V30 5565 H 530.139 -0.0676598 -0.660544 0
M  V30 5566 H 532.669 -0.819445 -1.87473 0
M  V30 5567 H 532.679 0.256567 -4.07193 0
M  V30 5568 H 531.354 -0.895739 -4.0614 0
M  V30 5569 H 529.931 0.882501 -3.62307 0
M  V30 5570 N 532.116 1.54067 -0.331816 0
M  V30 5571 C 533.341 2.05599 0.272705 0
M  V30 5572 C 533.766 1.2059 1.44359 0
M  V30 5573 O 533.124 0.216907 1.79998 0
M  V30 5574 C 533.172 3.54188 0.677021 0
M  V30 5575 O 532.276 3.72082 1.77844 0
M  V30 5576 H 531.617 0.662286 0.0476801 0
M  V30 5577 H 534.147 1.98826 -0.482624 0
M  V30 5578 H 534.157 3.96608 0.957415 0
M  V30 5579 H 532.832 4.15513 -0.179325 0
M  V30 5580 H 531.409 3.41566 1.49622 0
M  V30 5581 N 533.594 0.0601682 1.57485 0
M  V30 5582 C 534.527 -0.94676 2.07634 0
M  V30 5583 C 535.505 -1.29837 0.978826 0
M  V30 5584 O 536.689 -1.40969 1.2514 0
M  V30 5585 C 533.816 -2.25822 2.52433 0
M  V30 5586 C 532.862 -2.05901 3.73507 0
M  V30 5587 S 533.695 -1.32907 5.18745 0
M  V30 5588 C 534.851 -2.65356 5.66866 0
M  V30 5589 H 535.084 -0.520003 2.92717 0
M  V30 5590 H 532.617 -0.152319 1.53647 0
M  V30 5591 H 534.575 -3.01201 2.78905 0
M  V30 5592 H 533.236 -2.65624 1.67639 0
M  V30 5593 H 532.429 -3.02929 4.02803 0
M  V30 5594 H 532.031 -1.38659 3.47347 0
M  V30 5595 H 534.323 -3.61492 5.73001 0
M  V30 5596 H 535.266 -2.40685 6.6594 0
M  V30 5597 H 535.674 -2.72028 4.94632 0
M  V30 5598 N 535.072 -1.5615 -0.213296 0
M  V30 5599 C 536.022 -1.89485 -1.26804 0
M  V30 5600 C 537.006 -0.758713 -1.41889 0
M  V30 5601 O 538.198 -1.02127 -1.44565 0
M  V30 5602 C 535.327 -2.22219 -2.61675 0
M  V30 5603 C 534.413 -3.42245 -2.50458 0
M  V30 5604 N 534.804 -4.60645 -2.089 0
M  V30 5605 C 533.102 -3.46023 -2.81397 0
M  V30 5606 C 533.803 -5.42805 -2.09135 0
M  V30 5607 N 532.779 -4.82732 -2.49941 0
M  V30 5608 H 536.581 -2.78537 -0.937771 0
M  V30 5609 H 534.095 -1.56826 -0.421824 0
M  V30 5610 H 536.092 -2.44278 -3.37837 0
M  V30 5611 H 534.752 -1.34484 -2.95541 0
M  V30 5612 H 535.763 -4.85651 -1.79899 0
M  V30 5613 H 532.44 -2.68654 -3.1958 0
M  V30 5614 H 533.83 -6.47601 -1.79059 0
M  V30 5615 N 536.55 0.480323 -1.50102 0
M  V30 5616 C 537.498 1.60024 -1.68805 0
M  V30 5617 C 538.492 1.60089 -0.553888 0
M  V30 5618 O 539.698 1.64349 -0.734127 0
M  V30 5619 H 536.073 0.530841 -0.532646 0
M  V30 5620 H 538.044 1.41408 -2.62767 0
M  V30 5621 C 536.793 2.98029 -1.79092 0
M  V30 5622 H 536.116 2.98694 -2.65748 0
M  V30 5623 H 537.556 3.75871 -1.96206 0
M  V30 5624 C 536.015 3.32538 -0.540388 0
M  V30 5625 O 536.545 4.00386 0.324637 0
M  V30 5626 N 534.751 2.87873 -0.397154 0
M  V30 5627 H 534.298 2.32834 -1.1021 0
M  V30 5628 H 534.256 3.11328 0.438425 0
M  V30 5629 N 538.028 1.39524 0.732853 0
M  V30 5630 C 538.991 1.38189 1.82857 0
M  V30 5631 C 539.991 0.278624 1.58368 0
M  V30 5632 O 541.181 0.536639 1.65728 0
M  V30 5633 C 538.313 1.15661 3.2068 0
M  V30 5634 H 539.506 2.35692 1.85444 0
M  V30 5635 H 537.059 1.2512 0.936728 0
M  V30 5636 H 537.794 0.188482 3.23752 0
M  V30 5637 H 537.579 1.95559 3.39852 0
M  V30 5638 H 539.069 1.17472 4.00737 0
M  V30 5639 N 539.506 -0.963266 1.24736 0
M  V30 5640 C 540.436 -2.07628 1.06832 0
M  V30 5641 C 541.417 -1.70088 -0.0200566 0
M  V30 5642 O 542.602 -1.93636 0.147854 0
M  V30 5643 C 539.732 -3.40636 0.677069 0
M  V30 5644 C 538.686 -3.9215 1.71471 0
M  V30 5645 C 538.012 -5.21553 1.1784 0
M  V30 5646 C 539.312 -4.19493 3.11164 0
M  V30 5647 H 541.006 -2.22864 1.9993 0
M  V30 5648 H 538.552 -1.07093 0.96266 0
M  V30 5649 H 540.505 -4.17941 0.538792 0
M  V30 5650 H 539.229 -3.25313 -0.289612 0
M  V30 5651 H 537.888 -3.17005 1.84128 0
M  V30 5652 H 537.536 -5.02593 0.202195 0
M  V30 5653 H 537.236 -5.56988 1.87185 0
M  V30 5654 H 538.76 -6.01463 1.05233 0
M  V30 5655 H 540.174 -4.87487 3.01711 0
M  V30 5656 H 538.571 -4.66165 3.77902 0
M  V30 5657 H 539.641 -3.26097 3.58871 0
M  V30 5658 N 540.985 -1.06182 -1.16461 0
M  V30 5659 C 541.935 -0.641619 -2.18786 0
M  V30 5660 C 542.919 0.327122 -1.5754 0
M  V30 5661 O 544.111 0.142746 -1.76423 0
M  V30 5662 C 541.24 -0.0283734 -3.43288 0
M  V30 5663 C 540.326 -1.02154 -4.11613 0
M  V30 5664 N 540.717 -2.19671 -4.55608 0
M  V30 5665 C 539.015 -0.852229 -4.37782 0
M  V30 5666 C 539.716 -2.82583 -5.0845 0
M  V30 5667 N 538.692 -2.10318 -5.01266 0
M  V30 5668 H 542.494 -1.53684 -2.50516 0
M  V30 5669 H 540.008 -0.933349 -1.329 0
M  V30 5670 H 542.005 0.29049 -4.15887 0
M  V30 5671 H 540.665 0.862118 -3.13046 0
M  V30 5672 H 541.676 -2.57453 -4.49375 0
M  V30 5673 H 538.353 -0.0136314 -4.17498 0
M  V30 5674 H 539.743 -3.82298 -5.52538 0
M  V30 5675 N 542.463 1.3308 -0.844243 0
M  V30 5676 C 543.712 1.96868 -0.438833 0
M  V30 5677 C 544.025 1.67599 1.00846 0
M  V30 5678 O 545.231 2.25043 1.51881 0
M  V30 5679 C 543.687 3.5234 -0.73377 0
M  V30 5680 C 543.295 3.90481 -2.1961 0
M  V30 5681 C 545.039 4.22653 -0.395574 0
M  V30 5682 C 542.946 5.38954 -2.43481 0
M  V30 5683 H 541.876 0.736749 -0.160364 0
M  V30 5684 H 544.527 1.51623 -1.03358 0
M  V30 5685 H 542.909 3.95941 -0.068589 0
M  V30 5686 H 544.083 3.57922 -2.90221 0
M  V30 5687 H 542.398 3.33165 -2.4978 0
M  V30 5688 H 544.995 5.31848 -0.551477 0
M  V30 5689 H 545.338 4.11004 0.661921 0
M  V30 5690 H 545.871 3.84601 -1.01621 0
M  V30 5691 H 542.61 5.55612 -3.47816 0
M  V30 5692 H 542.13 5.72954 -1.77437 0
M  V30 5693 H 543.809 6.05907 -2.26905 0
M  V30 5694 N 543.941 0.601185 1.45683 0
M  V30 5695 C 545.171 0.0999093 2.06358 0
M  V30 5696 C 545.579 -1.21831 1.44754 0
M  V30 5697 O 544.922 -1.75157 0.553695 0
M  V30 5698 C 544.984 -0.12085 3.59297 0
M  V30 5699 C 544.648 1.11459 4.432 0
M  V30 5700 C 545.645 2.03118 4.7858 0
M  V30 5701 C 543.33 1.34162 4.84051 0
M  V30 5702 C 545.324 3.15814 5.53661 0
M  V30 5703 C 543.011 2.4716 5.58888 0
M  V30 5704 C 544.009 3.37814 5.93608 0
M  V30 5705 O 543.697 4.48846 6.66928 0
M  V30 5706 H 543.429 0.0630316 0.673055 0
M  V30 5707 H 545.983 0.826982 1.88016 0
M  V30 5708 H 544.213 -0.902744 3.76015 0
M  V30 5709 H 545.902 -0.572925 4.01836 0
M  V30 5710 H 546.668 1.86801 4.47583 0
M  V30 5711 H 542.547 0.645018 4.56465 0
M  V30 5712 H 546.091 3.86596 5.8068 0
M  V30 5713 H 541.988 2.63432 5.89299 0
M  V30 5714 H 542.756 4.47446 6.85371 0
M  V30 5715 N 545.419 -1.53889 0.339982 0
M  V30 5716 C 546.352 -2.21187 -0.561405 0
M  V30 5717 C 547.33 -1.19463 -1.10306 0
M  V30 5718 O 548.514 -1.48268 -1.164 0
M  V30 5719 C 545.641 -2.8865 -1.77198 0
M  V30 5720 C 544.687 -4.04232 -1.3601 0
M  V30 5721 S 545.52 -5.34129 -0.382909 0
M  V30 5722 C 546.676 -6.05094 -1.60039 0
M  V30 5723 H 546.909 -2.97298 0.0102092 0
M  V30 5724 H 544.442 -1.53901 0.124056 0
M  V30 5725 H 546.4 -3.28138 -2.4665 0
M  V30 5726 H 545.061 -2.12311 -2.3148 0
M  V30 5727 H 544.254 -4.50358 -2.2626 0
M  V30 5728 H 543.856 -3.66503 -0.745098 0
M  V30 5729 H 546.148 -6.2827 -2.53541 0
M  V30 5730 H 547.091 -6.98182 -1.18099 0
M  V30 5731 H 547.499 -5.35207 -1.79483 0
M  V30 5732 N 546.897 -0.0685191 -1.57451 0
M  V30 5733 C 547.845 0.917577 -2.13736 0
M  V30 5734 C 548.839 1.31049 -1.07344 0
M  V30 5735 O 550.045 1.28811 -1.25728 0
M  V30 5736 H 546.42 0.313835 -0.683382 0
M  V30 5737 H 548.391 0.417903 -2.95459 0
M  V30 5738 C 547.14 2.17686 -2.71123 0
M  V30 5739 H 546.463 1.88336 -3.52661 0
M  V30 5740 H 547.903 2.84803 -3.14107 0
M  V30 5741 C 546.362 2.9332 -1.65726 0
M  V30 5742 O 546.892 3.86901 -1.08031 0
M  V30 5743 N 545.098 2.56367 -1.36837 0
M  V30 5744 H 544.645 1.80341 -1.83943 0
M  V30 5745 H 544.603 3.07276 -0.665501 0
M  V30 5746 N 548.375 1.56261 0.205012 0
M  V30 5747 C 549.623 1.79684 0.925096 0
M  V30 5748 C 549.944 0.63989 1.84202 0
M  V30 5749 O 549.214 -0.342345 1.92885 0
M  V30 5750 H 547.794 0.662774 0.344587 0
M  V30 5751 H 550.456 1.93734 0.212899 0
M  V30 5752 H 549.552 2.72467 1.52211 0
M  V30 5753 N 549.853 -0.472356 1.50355 0
M  V30 5754 C 551.081 -1.24784 1.65035 0
M  V30 5755 C 551.496 -1.85837 0.333176 0
M  V30 5756 O 550.853 -1.69168 -0.68472 0
M  V30 5757 C 550.904 -2.35747 2.74054 0
M  V30 5758 O 550.625 -1.77197 4.00665 0
M  V30 5759 C 552.126 -3.26645 2.99696 0
M  V30 5760 H 549.346 -0.377432 0.554785 0
M  V30 5761 H 551.89 -0.563962 1.9657 0
M  V30 5762 H 550.045 -2.99912 2.45217 0
M  V30 5763 H 550.459 -2.5026 4.60945 0
M  V30 5764 H 551.933 -4.00718 3.79644 0
M  V30 5765 H 552.41 -3.8535 2.10718 0
M  V30 5766 H 553.016 -2.68218 3.3006 0
M  V30 5767 N 551.331 -1.39911 -0.725443 0
M  V30 5768 C 552.264 -1.33788 -1.84867 0
M  V30 5769 C 553.242 -0.209907 -1.61239 0
M  V30 5770 O 554.426 -0.391943 -1.8438 0
M  V30 5771 C 551.553 -1.07975 -3.21028 0
M  V30 5772 C 550.599 -2.23092 -3.635 0
M  V30 5773 S 551.432 -3.85431 -3.71757 0
M  V30 5774 C 552.588 -3.61862 -5.10692 0
M  V30 5775 H 552.821 -2.28848 -1.89779 0
M  V30 5776 H 550.354 -1.26079 -0.891254 0
M  V30 5777 H 552.312 -0.937669 -3.99647 0
M  V30 5778 H 550.973 -0.145865 -3.13761 0
M  V30 5779 H 550.166 -2.00647 -4.62338 0
M  V30 5780 H 549.768 -2.33553 -2.92112 0
M  V30 5781 H 552.06 -3.19719 -5.97316 0
M  V30 5782 H 553.003 -4.60196 -5.38169 0
M  V30 5783 H 553.411 -2.95757 -4.8082 0
M  V30 5784 N 552.809 0.956637 -1.25245 0
M  V30 5785 C 554.034 1.74104 -1.12706 0
M  V30 5786 C 554.459 1.85436 0.315429 0
M  V30 5787 O 553.817 1.33334 1.22848 0
M  V30 5788 C 553.865 3.1338 -1.78396 0
M  V30 5789 O 552.969 3.98485 -1.06224 0
M  V30 5790 H 552.31 0.53476 -0.393609 0
M  V30 5791 H 554.84 1.19924 -1.65769 0
M  V30 5792 H 554.85 3.6385 -1.846 0
M  V30 5793 H 553.525 3.04448 -2.83345 0
M  V30 5794 H 552.102 3.56952 -1.07886 0
M  V30 5795 N 554.287 1.06798 1.15896 0
M  V30 5796 C 555.219 0.641263 2.20046 0
M  V30 5797 C 556.232 -0.303355 1.59949 0
M  V30 5798 O 557.421 -0.0935478 1.78255 0
M  V30 5799 C 554.521 -0.0794029 3.38807 0
M  V30 5800 C 553.694 0.879986 4.28457 0
M  V30 5801 C 552.753 0.197638 5.25829 0
M  V30 5802 O 551.779 0.836913 5.63014 0
M  V30 5803 N 552.981 -1.05886 5.70761 0
M  V30 5804 H 555.746 1.53718 2.57276 0
M  V30 5805 H 553.307 0.951951 1.30956 0
M  V30 5806 H 555.299 -0.546418 4.00994 0
M  V30 5807 H 553.869 -0.877193 3.0004 0
M  V30 5808 H 553.089 1.52625 3.63454 0
M  V30 5809 H 554.377 1.53065 4.8523 0
M  V30 5810 H 553.775 -1.59828 5.42652 0
M  V30 5811 H 552.332 -1.46965 6.35015 0
M  V30 5812 N 555.766 -1.3263 0.851289 0
M  V30 5813 C 557.012 -1.9766 0.453694 0
M  V30 5814 C 557.345 -1.67225 -0.987396 0
M  V30 5815 O 556.62 -0.958693 -1.69232 0
M  V30 5816 C 556.903 -3.5344 0.68936 0
M  V30 5817 C 556.756 -3.93517 2.17862 0
M  V30 5818 C 558.075 -4.39866 0.143555 0
M  V30 5819 H 555.194 -0.717989 0.166314 0
M  V30 5820 H 557.836 -1.57068 1.06909 0
M  V30 5821 H 555.986 -3.88147 0.165546 0
M  V30 5822 H 557.658 -3.69006 2.76826 0
M  V30 5823 H 555.901 -3.42798 2.65841 0
M  V30 5824 H 556.572 -5.02065 2.29422 0
M  V30 5825 H 559.048 -4.11875 0.591451 0
M  V30 5826 H 557.924 -5.47858 0.338043 0
M  V30 5827 H 558.185 -4.31696 -0.953466 0
M  V30 5828 N 557.244 -0.608902 -1.45362 0
M  V30 5829 C 558.176 0.147318 -2.28726 0
M  V30 5830 C 559.189 0.830468 -1.40025 0
M  V30 5831 O 560.378 0.695636 -1.64387 0
M  V30 5832 C 557.478 1.22968 -3.15804 0
M  V30 5833 C 556.651 0.633391 -4.3279 0
M  V30 5834 C 555.71 1.60682 -5.01067 0
M  V30 5835 O 554.736 1.13261 -5.57818 0
M  V30 5836 N 555.938 2.94123 -5.00472 0
M  V30 5837 H 558.703 -0.568014 -2.94268 0
M  V30 5838 H 556.264 -0.448479 -1.55564 0
M  V30 5839 H 558.256 1.88072 -3.58345 0
M  V30 5840 H 556.826 1.84752 -2.52162 0
M  V30 5841 H 556.046 -0.195762 -3.93714 0
M  V30 5842 H 557.334 0.215255 -5.08344 0
M  V30 5843 H 556.732 3.3525 -4.55657 0
M  V30 5844 H 555.289 3.54646 -5.46872 0
M  V30 5845 N 558.722 1.53707 -0.348139 0
M  V30 5846 C 559.97 2.00591 0.246478 0
M  V30 5847 C 560.291 1.23753 1.50699 0
M  V30 5848 O 559.561 0.345964 1.92821 0
M  V30 5849 H 558.141 0.741053 0.0940679 0
M  V30 5850 H 560.803 1.89139 -0.470354 0
M  V30 5851 H 559.899 3.08297 0.485714 0
M  V30 5852 N 560.2 0.0768682 1.57412 0
M  V30 5853 C 561.425 -0.603404 1.98428 0
M  V30 5854 C 561.85 -1.62047 0.955108 0
M  V30 5855 O 561.208 -1.81129 -0.0786778 0
M  V30 5856 C 561.256 -1.24396 3.38464 0
M  V30 5857 O 560.36 -2.35982 3.3821 0
M  V30 5858 H 559.701 -0.154741 0.645718 0
M  V30 5859 H 562.231 0.152885 2.04028 0
M  V30 5860 H 562.241 -1.5896 3.7576 0
M  V30 5861 H 560.916 -0.498735 4.12899 0
M  V30 5862 H 559.493 -2.03173 3.1269 0
M  V30 5863 N 561.678 -1.56367 -0.196722 0
M  V30 5864 C 562.641 -1.93561 -1.22746 0
M  V30 5865 C 563.641 -0.816566 -1.38524 0
M  V30 5866 O 564.831 -1.084 -1.36363 0
M  V30 5867 C 561.963 -2.20823 -2.59712 0
M  V30 5868 H 563.156 -2.85774 -0.909586 0
M  V30 5869 H 560.709 -1.50032 -0.438174 0
M  V30 5870 H 561.444 -1.31243 -2.96557 0
M  V30 5871 H 561.229 -3.02368 -2.49632 0
M  V30 5872 H 562.719 -2.50608 -3.34044 0
M  V30 5873 N 563.156 0.464375 -1.50603 0
M  V30 5874 C 564.104 1.58224 -1.70493 0
M  V30 5875 C 565.098 1.59492 -0.570836 0
M  V30 5876 O 566.304 1.63561 -0.751517 0
M  V30 5877 H 562.679 0.525161 -0.538247 0
M  V30 5878 H 564.65 1.38613 -2.64252 0
M  V30 5879 C 563.399 2.96113 -1.82243 0
M  V30 5880 H 562.722 2.95858 -2.68901 0
M  V30 5881 H 564.162 3.73769 -2.00182 0
M  V30 5882 C 562.621 3.31946 -0.575628 0
M  V30 5883 O 563.151 4.00708 0.282152 0
M  V30 5884 N 561.357 2.87436 -0.427665 0
M  V30 5885 H 560.904 2.31652 -1.12674 0
M  V30 5886 H 560.862 3.11776 0.405379 0
M  V30 5887 N 564.634 1.40294 0.718013 0
M  V30 5888 C 565.911 1.2894 1.47084 0
M  V30 5889 C 566.291 -0.0933625 2.10893 0
M  V30 5890 O 565.639 -1.10598 1.99951 0
M  V30 5891 C 565.849 2.4264 2.50852 0
M  V30 5892 C 567.197 2.8276 3.16752 0
M  V30 5893 O 568.221 2.42215 2.61171 0
M  V30 5894 O 567.08 3.528 4.17366 0
M  V30 5895 H 564.174 0.506236 0.653952 0
M  V30 5896 H 566.72 1.52208 0.750394 0
M  V30 5897 H 565.492 3.35009 2.022 0
M  V30 5898 H 565.115 2.21129 3.30435 0
M  V30 5899 N 566.112 -0.949982 1.2575 0
M  V30 5900 C 567.523 -1.50989 1.09815 0
M  V30 5901 C 567.874 -1.93497 -0.324556 0
M  V30 5902 O 566.999 -1.79068 -1.21506 0
M  V30 5903 C 567.594 -2.74394 1.98729 0
M  V30 5904 C 566.153 -3.26682 1.86965 0
M  V30 5905 C 565.3 -1.99498 1.92603 0
M  V30 5906 H 568.251 -0.766387 1.38968 0
M  V30 5907 H 568.272 -3.48383 1.53001 0
M  V30 5908 H 567.784 -2.43425 3.02268 0
M  V30 5909 H 565.885 -3.62461 0.863279 0
M  V30 5910 H 565.998 -3.94383 2.72027 0
M  V30 5911 H 564.362 -2.15005 1.36546 0
M  V30 5912 H 565.145 -1.70871 2.97755 0
M  V30 5913 N 567.59 -1.07411 -1.15328 0
M  V30 5914 C 568.839 -0.792643 -1.85473 0
M  V30 5915 C 569.152 0.683789 -1.83259 0
M  V30 5916 O 570.358 1.08005 -2.49093 0
M  V30 5917 C 568.814 -1.36787 -3.32892 0
M  V30 5918 C 568.422 -2.87536 -3.43551 0
M  V30 5919 C 570.166 -1.16444 -4.08217 0
M  V30 5920 C 568.073 -3.38247 -4.85122 0
M  V30 5921 H 567.003 -0.292838 -0.694811 0
M  V30 5922 H 569.654 -1.29426 -1.30082 0
M  V30 5923 H 568.036 -0.793993 -3.87958 0
M  V30 5924 H 569.21 -3.50973 -2.98588 0
M  V30 5925 H 567.525 -3.06676 -2.81672 0
M  V30 5926 H 570.122 -1.51808 -5.12697 0
M  V30 5927 H 570.465 -0.10353 -4.16171 0
M  V30 5928 H 570.998 -1.70472 -3.59422 0
M  V30 5929 H 567.737 -4.43866 -4.82351 0
M  V30 5930 H 567.257 -2.79564 -5.30664 0
M  V30 5931 H 568.936 -3.34238 -5.5398 0
M  V30 5932 N 569.068 1.32177 -0.85831 0
M  V30 5933 C 570.315 1.97125 -0.463484 0
M  V30 5934 C 570.643 1.67907 0.981705 0
M  V30 5935 O 569.898 0.961717 1.70439 0
M  V30 5936 C 570.197 3.51372 -0.653658 0
M  V30 5937 C 569.863 4.00584 -2.06987 0
M  V30 5938 C 568.525 4.13733 -2.4572 0
M  V30 5939 C 570.877 4.26624 -2.99402 0
M  V30 5940 C 568.205 4.50268 -3.76132 0
M  V30 5941 C 570.557 4.64618 -4.29316 0
M  V30 5942 C 569.221 4.75975 -4.67979 0
M  V30 5943 H 568.491 0.72133 -0.169601 0
M  V30 5944 H 571.138 1.57517 -1.08907 0
M  V30 5945 H 569.443 3.91761 0.0551328 0
M  V30 5946 H 571.14 3.99655 -0.328163 0
M  V30 5947 H 567.73 3.90837 -1.75911 0
M  V30 5948 H 571.914 4.1597 -2.70708 0
M  V30 5949 H 567.17 4.57256 -4.05865 0
M  V30 5950 H 571.344 4.83722 -5.00985 0
M  V30 5951 H 568.971 5.04041 -5.69076 0
M  V30 5952 N 570.547 0.616602 1.45037 0
M  V30 5953 C 571.477 -0.0840787 2.33349 0
M  V30 5954 C 572.458 -0.849641 1.4736 0
M  V30 5955 O 573.643 -0.818407 1.76113 0
M  V30 5956 C 570.773 -1.07604 3.3021 0
M  V30 5957 C 569.727 -0.423096 4.25904 0
M  V30 5958 C 569.053 -1.52394 5.12523 0
M  V30 5959 C 570.353 0.661457 5.18095 0
M  V30 5960 H 572.047 0.653333 2.92185 0
M  V30 5961 H 569.593 0.315634 1.40498 0
M  V30 5962 H 571.546 -1.57485 3.90866 0
M  V30 5963 H 570.27 -1.84416 2.69552 0
M  V30 5964 H 568.929 0.05493 3.66559 0
M  V30 5965 H 568.577 -2.28257 4.48227 0
M  V30 5966 H 568.277 -1.09251 5.77354 0
M  V30 5967 H 569.801 -2.02485 5.76049 0
M  V30 5968 H 571.215 0.246353 5.7277 0
M  V30 5969 H 569.612 1.01517 5.91451 0
M  V30 5970 H 570.682 1.53446 4.59981 0
M  V30 5971 N 572.025 -1.5352 0.356285 0
M  V30 5972 C 572.955 -2.28372 -0.486661 0
M  V30 5973 C 573.936 -1.30432 -1.09185 0
M  V30 5974 O 575.121 -1.59291 -1.11085 0
M  V30 5975 C 572.251 -3.06604 -1.63129 0
M  V30 5976 C 571.205 -4.12154 -1.15381 0
M  V30 5977 C 570.531 -4.78415 -2.38796 0
M  V30 5978 C 571.831 -5.21724 -0.245179 0
M  V30 5979 H 573.525 -2.99083 0.137797 0
M  V30 5980 H 571.071 -1.43841 0.0677134 0
M  V30 5981 H 573.024 -3.57712 -2.22755 0
M  V30 5982 H 571.748 -2.33568 -2.28284 0
M  V30 5983 H 570.407 -3.61978 -0.580294 0
M  V30 5984 H 570.055 -4.01959 -3.02387 0
M  V30 5985 H 569.755 -5.49734 -2.07524 0
M  V30 5986 H 571.279 -5.32313 -2.99125 0
M  V30 5987 H 572.693 -5.68391 -0.748646 0
M  V30 5988 H 571.09 -6.00095 -0.0237608 0
M  V30 5989 H 572.16 -4.79596 0.715229 0
M  V30 5990 N 573.503 -0.0852151 -1.57369 0
M  V30 5991 C 574.453 0.88767 -2.10011 0
M  V30 5992 C 575.437 1.25021 -1.01285 0
M  V30 5993 O 576.629 1.22694 -1.27574 0
M  V30 5994 C 573.758 2.15037 -2.67608 0
M  V30 5995 C 572.844 1.81371 -3.83361 0
M  V30 5996 N 573.235 1.18216 -4.91791 0
M  V30 5997 C 571.533 2.11041 -3.92909 0
M  V30 5998 C 572.234 1.02941 -5.72519 0
M  V30 5999 N 571.21 1.54351 -5.21226 0
M  V30 6000 H 575.012 0.395279 -2.9123 0
M  V30 6001 H 572.526 0.11829 -1.61969 0
M  V30 6002 H 574.523 2.85667 -3.03644 0
M  V30 6003 H 573.183 2.64851 -1.8784 0
M  V30 6004 H 574.194 0.850168 -5.10874 0
M  V30 6005 H 570.871 2.63138 -3.24136 0
M  V30 6006 H 572.261 0.536298 -6.69756 0
M  V30 6007 N 574.981 1.5647 0.188427 0
M  V30 6008 C 575.931 1.91479 1.23774 0
M  V30 6009 C 576.915 0.78119 1.40664 0
M  V30 6010 O 578.107 1.04414 1.42922 0
M  V30 6011 C 575.236 2.26354 2.58106 0
M  V30 6012 C 574.322 3.46186 2.44981 0
M  V30 6013 N 574.713 4.63911 2.01546 0
M  V30 6014 C 573.011 3.50456 2.75856 0
M  V30 6015 C 573.712 5.46064 2.00472 0
M  V30 6016 N 572.688 4.86648 2.42229 0
M  V30 6017 H 576.49 2.79994 0.893339 0
M  V30 6018 H 574.004 1.57477 0.39682 0
M  V30 6019 H 576.001 2.49622 3.33908 0
M  V30 6020 H 574.661 1.39168 2.93364 0
M  V30 6021 H 575.672 4.88451 1.7215 0
M  V30 6022 H 572.349 2.73704 3.15265 0
M  V30 6023 H 573.739 6.50368 1.68734 0
M  V30 6024 N 576.459 -0.456382 1.50847 0
M  V30 6025 C 577.422 -1.53493 1.70213 0
M  V30 6026 C 578.422 -1.50264 0.572481 0
M  V30 6027 O 579.612 -1.52623 0.839751 0
M  V30 6028 C 576.744 -2.93091 1.741 0
M  V30 6029 H 577.937 -1.37633 2.66453 0
M  V30 6030 H 575.49 -0.683776 1.4055 0
M  V30 6031 H 576.225 -3.14378 0.796063 0
M  V30 6032 H 576.01 -2.9684 2.5618 0
M  V30 6033 H 577.5 -3.71368 1.90987 0
M  V30 6034 N 577.937 -1.40673 -0.710563 0
M  V30 6035 C 579.184 -1.39222 -1.47049 0
M  V30 6036 C 579.512 0.0037691 -1.945 0
M  V30 6037 O 578.767 0.989224 -1.68857 0
M  V30 6038 C 579.066 -2.33253 -2.70791 0
M  V30 6039 C 578.732 -3.80406 -2.42079 0
M  V30 6040 C 577.394 -4.20496 -2.33959 0
M  V30 6041 C 579.746 -4.73375 -2.18094 0
M  V30 6042 C 577.074 -5.51584 -1.99929 0
M  V30 6043 C 579.426 -6.04768 -1.85576 0
M  V30 6044 C 578.09 -6.43895 -1.75941 0
M  V30 6045 H 577.36 -0.509449 -0.538092 0
M  V30 6046 H 580.007 -1.73363 -0.81348 0
M  V30 6047 H 578.312 -1.92314 -3.41354 0
M  V30 6048 H 580.009 -2.29412 -3.28894 0
M  V30 6049 H 576.599 -3.48645 -2.49288 0
M  V30 6050 H 580.783 -4.43217 -2.23321 0
M  V30 6051 H 576.039 -5.80797 -1.91011 0
M  V30 6052 H 580.213 -6.76318 -1.66033 0
M  V30 6053 H 577.84 -7.45387 -1.4934 0
M  V30 6054 N 579.415 0.9433 -1.26252 0
M  V30 6055 C 580.661 1.69175 -1.11837 0
M  V30 6056 C 580.994 1.91238 0.337891 0
M  V30 6057 O 580.269 1.49152 1.24836 0
M  V30 6058 C 580.552 3.06783 -1.88563 0
M  V30 6059 C 580.405 2.9206 -3.42083 0
M  V30 6060 C 581.724 4.06865 -1.67776 0
M  V30 6061 H 578.843 0.61399 -0.407658 0
M  V30 6062 H 581.485 1.09572 -1.55222 0
M  V30 6063 H 579.635 3.57663 -1.51689 0
M  V30 6064 H 581.307 2.48419 -3.88698 0
M  V30 6065 H 579.55 2.27731 -3.69217 0
M  V30 6066 H 580.221 3.89651 -3.90994 0
M  V30 6067 H 582.697 3.64939 -1.99897 0
M  V30 6068 H 581.573 5.01168 -2.23879 0
M  V30 6069 H 581.834 4.37705 -0.621816 0
M  V30 6070 N 580.893 1.08022 1.14757 0
M  V30 6071 C 582.17 0.720386 1.81851 0
M  V30 6072 C 582.55 -0.796375 1.95502 0
M  V30 6073 O 581.898 -1.71339 1.51179 0
M  V30 6074 C 582.108 1.44273 3.17783 0
M  V30 6075 C 583.456 1.59925 3.93331 0
M  V30 6076 O 584.48 1.40407 3.2736 0
M  V30 6077 O 583.339 1.92096 5.11626 0
M  V30 6078 H 580.433 0.257142 0.786007 0
M  V30 6079 H 582.979 1.18155 1.21809 0
M  V30 6080 H 581.751 2.47618 3.02987 0
M  V30 6081 H 581.374 0.97279 3.85516 0
M  V30 6082 N 582.371 -1.3172 0.865308 0
M  V30 6083 C 583.596 -2.01591 0.487415 0
M  V30 6084 C 584.021 -1.6455 -0.911307 0
M  V30 6085 O 583.379 -0.851689 -1.6005 0
M  V30 6086 C 583.427 -3.54759 0.646401 0
M  V30 6087 O 582.531 -4.11185 -0.316284 0
M  V30 6088 H 581.872 -0.634884 0.194468 0
M  V30 6089 H 584.402 -1.68024 1.16744 0
M  V30 6090 H 584.412 -4.04438 0.537932 0
M  V30 6091 H 583.087 -3.8106 1.66632 0
M  V30 6092 H 581.664 -3.72543 -0.163162 0
M  V30 6093 N 583.85 -0.624285 -1.44708 0
M  V30 6094 C 585.099 -0.123539 -2.01321 0
M  V30 6095 C 585.412 1.25966 -1.49639 0
M  V30 6096 O 586.618 1.85405 -1.98336 0
M  V30 6097 C 585.074 -0.170124 -3.59498 0
M  V30 6098 C 584.682 -1.55421 -4.20176 0
M  V30 6099 C 586.426 0.274513 -4.23611 0
M  V30 6100 C 584.332 -1.55628 -5.70556 0
M  V30 6101 H 583.263 -0.0424183 -0.752806 0
M  V30 6102 H 585.913 -0.782076 -1.65999 0
M  V30 6103 H 584.296 0.555385 -3.92086 0
M  V30 6104 H 585.47 -2.30276 -3.99136 0
M  V30 6105 H 583.784 -1.94235 -3.68323 0
M  V30 6106 H 586.382 0.292402 -5.339 0
M  V30 6107 H 586.725 1.3005 -3.95465 0
M  V30 6108 H 587.258 -0.398275 -3.95801 0
M  V30 6109 H 583.997 -2.56041 -6.03426 0
M  V30 6110 H 583.517 -0.850563 -5.93739 0
M  V30 6111 H 585.196 -1.28721 -6.34066 0
M  V30 6112 N 585.328 1.53329 -0.364422 0
M  V30 6113 C 586.575 2.01239 0.225634 0
M  V30 6114 C 586.903 1.25172 1.48869 0
M  V30 6115 O 586.158 0.333289 1.92841 0
M  V30 6116 C 586.457 3.52911 0.564661 0
M  V30 6117 C 586.123 4.46837 -0.603936 0
M  V30 6118 C 584.785 4.72234 -0.924585 0
M  V30 6119 C 587.137 5.02409 -1.38691 0
M  V30 6120 C 584.465 5.50454 -2.0302 0
M  V30 6121 C 586.817 5.81836 -2.48293 0
M  V30 6122 C 585.481 6.0552 -2.80894 0
M  V30 6123 H 584.751 0.736386 0.0825654 0
M  V30 6124 H 587.398 1.84948 -0.496645 0
M  V30 6125 H 585.703 3.67144 1.36794 0
M  V30 6126 H 587.4 3.87455 1.03344 0
M  V30 6127 H 583.99 4.27217 -0.343983 0
M  V30 6128 H 588.174 4.82735 -1.15243 0
M  V30 6129 H 583.43 5.67024 -2.28678 0
M  V30 6130 H 587.604 6.23905 -3.0938 0
M  V30 6131 H 585.231 6.65916 -3.66688 0
M  V30 6132 N 586.806 0.0935595 1.57322 0
M  V30 6133 C 587.716 -0.880192 2.17462 0
M  V30 6134 C 588.732 -1.31135 1.14366 0
M  V30 6135 O 589.908 -1.37958 1.46729 0
M  V30 6136 C 586.973 -2.12184 2.74188 0
M  V30 6137 C 586.034 -1.74503 3.92234 0
M  V30 6138 C 585.267 -2.92748 4.46245 0
M  V30 6139 O 585.49 -4.07427 3.99198 0
M  V30 6140 O 584.424 -2.71303 5.37288 0
M  V30 6141 H 588.25 -0.398516 3.01074 0
M  V30 6142 H 585.835 -0.130707 1.48827 0
M  V30 6143 H 587.717 -2.84953 3.10451 0
M  V30 6144 H 586.392 -2.59407 1.93623 0
M  V30 6145 H 585.299 -0.989186 3.60785 0
M  V30 6146 H 586.632 -1.32044 4.74157 0
M  V30 6147 N 588.284 -1.56567 -0.180126 0
M  V30 6148 C 589.216 -1.92275 -1.24751 0
M  V30 6149 C 590.229 -0.814922 -1.40936 0
M  V30 6150 O 591.418 -1.09336 -1.41095 0
M  V30 6151 C 588.518 -2.15265 -2.61752 0
M  V30 6152 C 587.691 -3.46467 -2.66981 0
M  V30 6153 C 586.75 -3.58391 -3.85283 0
M  V30 6154 O 585.776 -4.31086 -3.7169 0
M  V30 6155 N 586.978 -2.92587 -5.01371 0
M  V30 6156 H 589.743 -2.84435 -0.944302 0
M  V30 6157 H 587.304 -1.57617 -0.369952 0
M  V30 6158 H 589.296 -2.20515 -3.39345 0
M  V30 6159 H 587.866 -1.29533 -2.845 0
M  V30 6160 H 587.086 -3.52953 -1.75549 0
M  V30 6161 H 588.374 -4.32819 -2.67479 0
M  V30 6162 H 587.772 -2.3338 -5.15316 0
M  V30 6163 H 586.329 -3.03444 -5.76858 0
M  V30 6164 N 589.762 0.448376 -1.51087 0
M  V30 6165 C 591.008 1.19748 -1.64414 0
M  V30 6166 C 591.363 1.89177 -0.350715 0
M  V30 6167 O 590.656 1.80135 0.652834 0
M  V30 6168 C 590.85 2.24866 -2.77795 0
M  V30 6169 C 590.679 1.65753 -4.18038 0
M  V30 6170 C 589.449 1.44728 -4.8413 0
M  V30 6171 C 591.647 1.13985 -5.0151 0
M  V30 6172 N 589.629 0.810962 -6.0852 0
M  V30 6173 C 591 0.628141 -6.1681 0
M  V30 6174 C 593.055 1.03055 -4.87118 0
M  V30 6175 C 591.758 0.0178906 -7.19298 0
M  V30 6176 C 593.784 0.434212 -5.89804 0
M  V30 6177 C 593.146 -0.0670069 -7.04368 0
M  V30 6178 H 589.245 0.426254 -0.655615 0
M  V30 6179 H 591.829 0.495806 -1.88281 0
M  V30 6180 H 590 2.92434 -2.55611 0
M  V30 6181 H 591.732 2.91857 -2.8036 0
M  V30 6182 H 588.487 1.70593 -4.41809 0
M  V30 6183 H 588.911 0.510563 -6.75072 0
M  V30 6184 H 593.553 1.40395 -3.9881 0
M  V30 6185 H 591.271 -0.367662 -8.07263 0
M  V30 6186 H 594.857 0.3517 -5.80736 0
M  V30 6187 H 593.737 -0.521209 -7.82466 0
M  V30 6188 N 591.24 1.41047 0.703093 0
M  V30 6189 C 592.17 1.45067 1.82969 0
M  V30 6190 C 593.151 0.31016 1.67248 0
M  V30 6191 O 594.336 0.520548 1.87093 0
M  V30 6192 C 591.466 1.32478 3.2104 0
M  V30 6193 C 590.42 2.44262 3.51454 0
M  V30 6194 C 589.746 2.16742 4.88801 0
M  V30 6195 C 591.046 3.86606 3.51189 0
M  V30 6196 H 592.74 2.39353 1.79863 0
M  V30 6197 H 590.286 1.15206 0.863919 0
M  V30 6198 H 592.239 1.33904 3.99559 0
M  V30 6199 H 590.963 0.346735 3.24754 0
M  V30 6200 H 589.622 2.42107 2.75282 0
M  V30 6201 H 589.27 1.17299 4.89132 0
M  V30 6202 H 588.97 2.91643 5.10116 0
M  V30 6203 H 590.494 2.19872 5.69639 0
M  V30 6204 H 591.908 3.90517 4.19725 0
M  V30 6205 H 590.305 4.61128 3.84033 0
M  V30 6206 H 591.375 4.15296 2.50315 0
M  V30 6207 N 592.718 -0.936591 1.26751 0
M  V30 6208 C 594.134 -1.21095 1.03963 0
M  V30 6209 C 594.334 -2.00156 -0.232372 0
M  V30 6210 O 593.39 -2.3434 -0.940274 0
M  V30 6211 C 594.703 -1.96775 2.27377 0
M  V30 6212 C 596.251 -2.09749 2.32324 0
M  V30 6213 C 596.726 -2.88832 3.55443 0
M  V30 6214 N 598.217 -2.96404 3.55948 0
M  V30 6215 C 598.952 -3.58036 4.47881 0
M  V30 6216 N 598.448 -4.21132 5.50109 0
M  V30 6217 N 600.241 -3.55353 4.35523 0
M  V30 6218 H 592.392 -0.408173 2.08441 0
M  V30 6219 H 594.655 -0.243139 0.91629 0
M  V30 6220 H 594.361 -1.46094 3.19921 0
M  V30 6221 H 594.235 -2.97424 2.31989 0
M  V30 6222 H 596.622 -2.5962 1.40291 0
M  V30 6223 H 596.703 -1.08347 2.31721 0
M  V30 6224 H 596.347 -2.39647 4.47808 0
M  V30 6225 H 596.277 -3.90499 3.53296 0
M  V30 6226 H 598.768 -2.51552 2.82011 0
M  V30 6227 H 599.081 -4.66071 6.16439 0
M  V30 6228 H 597.426 -4.19705 5.53961 0
M  V30 6229 H 600.617 -3.05256 3.54875 0
M  V30 6230 H 600.79 -4.03097 5.07363 0
M  V30 6231 N 594.196 -1.08629 -1.14182 0
M  V30 6232 C 595.612 -0.814363 -1.3726 0
M  V30 6233 C 595.812 0.575271 -1.93114 0
M  V30 6234 O 594.868 1.33165 -2.1453 0
M  V30 6235 C 596.181 -1.8989 -2.33157 0
M  V30 6236 C 597.729 -1.92518 -2.46791 0
M  V30 6237 C 598.204 -3.00092 -3.45989 0
M  V30 6238 N 599.695 -2.99279 -3.53534 0
M  V30 6239 C 600.43 -3.79158 -4.30147 0
M  V30 6240 N 599.926 -4.68923 -5.09983 0
M  V30 6241 N 601.719 -3.67451 -4.25366 0
M  V30 6242 H 593.87 -1.98232 -0.762758 0
M  V30 6243 H 596.133 -0.860383 -0.398051 0
M  V30 6244 H 595.839 -2.89809 -1.99257 0
M  V30 6245 H 595.713 -1.77013 -3.33086 0
M  V30 6246 H 598.1 -0.932425 -2.79982 0
M  V30 6247 H 598.181 -2.09473 -1.46816 0
M  V30 6248 H 597.825 -3.99575 -3.13532 0
M  V30 6249 H 597.755 -2.80382 -4.45751 0
M  V30 6250 H 600.246 -2.3422 -2.96563 0
M  V30 6251 H 600.559 -5.26475 -5.65724 0
M  V30 6252 H 598.904 -4.72964 -5.09244 0
M  V30 6253 H 602.095 -2.9669 -3.62067 0
M  V30 6254 H 602.268 -4.29944 -4.84822 0
M  V30 6255 N 595.674 1.31259 -0.872281 0
M  V30 6256 C 596.624 2.26 -0.301295 0
M  V30 6257 C 597.608 1.50729 0.562991 0
M  V30 6258 O 598.8 1.72198 0.40949 0
M  V30 6259 C 595.929 3.39724 0.494227 0
M  V30 6260 C 595.015 4.22363 -0.383432 0
M  V30 6261 N 595.406 4.83724 -1.47799 0
M  V30 6262 C 593.704 4.45652 -0.176278 0
M  V30 6263 C 594.405 5.45523 -2.01939 0
M  V30 6264 N 593.381 5.27428 -1.31608 0
M  V30 6265 H 597.183 2.70981 -1.13782 0
M  V30 6266 H 594.697 1.45552 -0.720294 0
M  V30 6267 H 596.694 4.06626 0.919828 0
M  V30 6268 H 595.354 2.96286 1.32834 0
M  V30 6269 H 596.365 4.83313 -1.8609 0
M  V30 6270 H 593.042 4.12845 0.621698 0
M  V30 6271 H 594.432 6.04268 -2.93786 0
M  V30 6272 N 597.152 0.631951 1.44375 0
M  V30 6273 C 598.568 0.297642 1.568 0
M  V30 6274 C 598.768 -1.19916 1.61934 0
M  V30 6275 O 597.824 -1.98324 1.56281 0
M  V30 6276 C 599.137 0.990286 2.83926 0
M  V30 6277 C 600.685 0.968507 2.97639 0
M  V30 6278 C 601.16 1.64163 4.27568 0
M  V30 6279 N 602.651 1.60826 4.34384 0
M  V30 6280 C 603.386 2.09802 5.33639 0
M  V30 6281 N 602.882 2.66973 6.39294 0
M  V30 6282 N 604.675 2.00426 5.25153 0
M  V30 6283 H 596.826 1.60353 1.39286 0
M  V30 6284 H 599.089 0.673142 0.667521 0
M  V30 6285 H 598.795 2.04519 2.8612 0
M  V30 6286 H 598.669 0.528563 3.73478 0
M  V30 6287 H 601.056 -0.0779247 2.94997 0
M  V30 6288 H 601.137 1.46873 2.09433 0
M  V30 6289 H 600.781 2.68752 4.3097 0
M  V30 6290 H 600.711 1.11624 5.14634 0
M  V30 6291 H 603.202 1.19087 3.58646 0
M  V30 6292 H 603.515 3.02074 7.11316 0
M  V30 6293 H 601.86 2.71024 6.39977 0
M  V30 6294 H 605.051 1.55483 4.41523 0
M  V30 6295 H 605.224 2.38906 6.02352 0
M  V30 6296 N 598.631 -1.53133 0.372548 0
M  V30 6297 C 600.042 -1.86404 -0.105155 0
M  V30 6298 C 600.393 -1.29289 -1.47576 0
M  V30 6299 O 599.518 -0.617646 -2.07398 0
M  V30 6300 C 600.113 -3.38223 -0.197588 0
M  V30 6301 C 598.672 -3.71266 -0.619556 0
M  V30 6302 C 597.819 -2.76353 0.228919 0
M  V30 6303 H 600.77 -1.47282 0.591077 0
M  V30 6304 H 600.791 -3.66577 -1.01987 0
M  V30 6305 H 600.303 -3.79763 0.800099 0
M  V30 6306 H 598.404 -3.35287 -1.62522 0
M  V30 6307 H 598.517 -4.77515 -0.389332 0
M  V30 6308 H 596.881 -2.52888 -0.303271 0
M  V30 6309 H 597.664 -3.20728 1.22428 0
M  V30 6310 N 600.109 -0.101901 -1.5727 0
M  V30 6311 C 601.039 0.851544 -2.17419 0
M  V30 6312 C 602.02 1.28942 -1.10941 0
M  V30 6313 O 603.205 1.35509 -1.39107 0
M  V30 6314 C 600.335 2.10816 -2.75996 0
M  V30 6315 C 599.289 1.80867 -3.87906 0
M  V30 6316 C 598.615 3.13413 -4.33216 0
M  V30 6317 C 599.915 1.0903 -5.10793 0
M  V30 6318 H 601.609 0.350381 -2.97343 0
M  V30 6319 H 599.155 0.16709 -1.43027 0
M  V30 6320 H 601.108 2.77959 -3.16729 0
M  V30 6321 H 599.832 2.63227 -1.93337 0
M  V30 6322 H 598.491 1.16119 -3.47724 0
M  V30 6323 H 598.139 3.63725 -3.47438 0
M  V30 6324 H 597.839 2.94155 -5.08671 0
M  V30 6325 H 599.363 3.81704 -4.76586 0
M  V30 6326 H 600.777 1.66295 -5.48652 0
M  V30 6327 H 599.174 0.99927 -5.91722 0
M  V30 6328 H 600.244 0.0741704 -4.84843 0
M  V30 6329 N 601.587 1.56661 0.17182 0
M  V30 6330 C 602.519 1.92934 1.2373 0
M  V30 6331 C 603.532 0.822385 1.40502 0
M  V30 6332 O 604.721 1.10083 1.40514 0
M  V30 6333 C 601.821 2.16651 2.60607 0
M  V30 6334 C 600.994 3.47878 2.6514 0
M  V30 6335 C 600.053 3.60429 3.83377 0
M  V30 6336 O 599.079 4.33051 3.69398 0
M  V30 6337 N 600.281 2.95241 4.99813 0
M  V30 6338 H 603.046 2.84931 0.929205 0
M  V30 6339 H 600.607 1.5781 0.361588 0
M  V30 6340 H 602.599 2.22312 3.38171 0
M  V30 6341 H 601.169 1.3104 2.83809 0
M  V30 6342 H 600.389 3.53879 1.73675 0
M  V30 6343 H 601.677 4.34232 2.6518 0
M  V30 6344 H 601.075 2.3611 5.14071 0
M  V30 6345 H 599.632 3.06499 5.75241 0
M  V30 6346 N 603.065 -0.440357 1.51323 0
M  V30 6347 C 603.975 -1.55955 1.75258 0
M  V30 6348 C 604.991 -1.61933 0.636687 0
M  V30 6349 O 606.167 -1.79231 0.918593 0
M  V30 6350 C 603.232 -2.9196 1.86977 0
M  V30 6351 C 602.293 -2.96122 3.10822 0
M  V30 6352 C 601.526 -4.2564 3.21973 0
M  V30 6353 O 601.749 -5.17851 2.39137 0
M  V30 6354 O 600.683 -4.36025 4.14929 0
M  V30 6355 H 604.509 -1.38673 2.70191 0
M  V30 6356 H 602.094 -0.623055 1.35788 0
M  V30 6357 H 603.976 -3.72682 1.96688 0
M  V30 6358 H 602.651 -3.09375 0.952307 0
M  V30 6359 H 601.558 -2.14366 3.06591 0
M  V30 6360 H 602.891 -2.83651 4.02247 0
M  V30 6361 N 604.543 -1.41418 -0.695603 0
M  V30 6362 C 605.789 -1.40982 -1.4578 0
M  V30 6363 C 606.122 -0.0187763 -1.94191 0
M  V30 6364 O 605.397 0.95346 -1.69527 0
M  V30 6365 C 605.68 -2.41657 -2.66972 0
M  V30 6366 C 605.533 -3.89869 -2.24327 0
M  V30 6367 C 606.852 -2.39589 -3.69168 0
M  V30 6368 H 603.971 -0.513405 -0.528757 0
M  V30 6369 H 606.613 -1.72693 -0.792275 0
M  V30 6370 H 604.763 -2.14746 -3.23754 0
M  V30 6371 H 606.435 -4.27683 -1.72872 0
M  V30 6372 H 604.678 -4.04737 -1.56111 0
M  V30 6373 H 605.349 -4.55857 -3.11285 0
M  V30 6374 H 607.825 -2.63471 -3.2206 0
M  V30 6375 H 606.701 -3.12044 -4.51575 0
M  V30 6376 H 606.962 -1.41447 -4.18862 0
M  V30 6377 N 606.021 0.929856 -1.27246 0
M  V30 6378 C 607.251 1.70895 -1.16096 0
M  V30 6379 C 607.659 1.87039 0.285122 0
M  V30 6380 O 607.002 1.38557 1.20614 0
M  V30 6381 C 607.064 3.12919 -1.7698 0
M  V30 6382 C 606.728 3.2012 -3.26148 0
M  V30 6383 C 607.725 3.02533 -4.22812 0
M  V30 6384 C 605.41 3.43148 -3.66817 0
M  V30 6385 C 607.404 3.07861 -5.58122 0
M  V30 6386 C 605.091 3.48109 -5.02258 0
M  V30 6387 C 606.089 3.30483 -5.97721 0
M  V30 6388 O 605.777 3.35175 -7.30694 0
M  V30 6389 H 605.509 0.54152 -0.404639 0
M  V30 6390 H 608.063 1.17342 -1.68582 0
M  V30 6391 H 606.293 3.67945 -1.18969 0
M  V30 6392 H 607.982 3.72787 -1.60576 0
M  V30 6393 H 608.748 2.84586 -3.92728 0
M  V30 6394 H 604.627 3.55918 -2.9299 0
M  V30 6395 H 608.171 2.94021 -6.32612 0
M  V30 6396 H 604.068 3.65579 -5.31998 0
M  V30 6397 H 604.836 3.51644 -7.39114 0
M  V30 6398 N 607.499 1.09233 1.13605 0
M  V30 6399 C 608.91 0.846839 1.6639 0
M  V30 6400 C 609.261 -0.625031 1.85978 0
M  V30 6401 O 608.386 -1.48173 1.57714 0
M  V30 6402 C 608.981 1.5307 3.0225 0
M  V30 6403 C 607.54 1.33223 3.52035 0
M  V30 6404 C 606.687 1.58806 2.27323 0
M  V30 6405 H 609.638 1.25175 0.975541 0
M  V30 6406 H 609.659 0.96267 3.68121 0
M  V30 6407 H 609.171 2.60192 2.87961 0
M  V30 6408 H 607.272 0.282091 3.71531 0
M  V30 6409 H 607.385 2.0657 4.32279 0
M  V30 6410 H 605.749 1.01007 2.33815 0
M  V30 6411 H 606.532 2.67153 2.15602 0
M  V30 6412 N 608.977 -1.30795 0.87923 0
M  V30 6413 C 609.887 -2.32041 0.345565 0
M  V30 6414 C 610.903 -1.65103 -0.549265 0
M  V30 6415 O 612.079 -1.9645 -0.443763 0
M  V30 6416 C 609.144 -3.43944 -0.436245 0
M  V30 6417 C 608.205 -4.26521 0.48765 0
M  V30 6418 C 607.438 -5.33081 -0.256943 0
M  V30 6419 O 607.661 -5.50762 -1.48381 0
M  V30 6420 O 606.595 -6.00635 0.389985 0
M  V30 6421 H 610.421 -2.79627 1.18501 0
M  V30 6422 H 608.006 -1.3486 0.642885 0
M  V30 6423 H 609.888 -4.12128 -0.879119 0
M  V30 6424 H 608.563 -2.98504 -1.25208 0
M  V30 6425 H 607.47 -3.61057 0.979216 0
M  V30 6426 H 608.803 -4.75551 1.26933 0
M  V30 6427 N 610.455 -0.639598 -1.44038 0
M  V30 6428 C 611.418 0.0506628 -2.29144 0
M  V30 6429 C 612.418 0.764001 -1.41491 0
M  V30 6430 O 613.608 0.607309 -1.63271 0
M  V30 6431 C 610.74 1.0824 -3.2326 0
M  V30 6432 H 611.933 -0.697987 -2.91664 0
M  V30 6433 H 609.486 -0.400146 -1.51091 0
M  V30 6434 H 610.221 1.86075 -2.65606 0
M  V30 6435 H 610.006 0.574725 -3.87865 0
M  V30 6436 H 611.496 1.56487 -3.87171 0
M  V30 6437 N 611.933 1.52934 -0.380664 0
M  V30 6438 C 612.881 2.27727 0.47361 0
M  V30 6439 C 613.875 1.31288 1.0705 0
M  V30 6440 O 615.081 1.4886 1.01197 0
M  V30 6441 H 611.456 0.732189 0.171475 0
M  V30 6442 H 613.427 2.97864 -0.178785 0
M  V30 6443 C 612.176 3.0904 1.59341 0
M  V30 6444 H 611.499 3.831 1.14343 0
M  V30 6445 H 612.939 3.64527 2.16555 0
M  V30 6446 C 611.398 2.20813 2.54447 0
M  V30 6447 O 611.928 1.82907 3.57642 0
M  V30 6448 N 610.134 1.85145 2.23986 0
M  V30 6449 H 609.681 2.16169 1.40103 0
M  V30 6450 H 609.639 1.26402 2.87871 0
M  V30 6451 N 613.412 0.11024 1.57214 0
M  V30 6452 C 614.375 -0.828808 2.1369 0
M  V30 6453 C 615.375 -1.20059 1.06969 0
M  V30 6454 O 616.565 -1.12754 1.32786 0
M  V30 6455 C 613.697 -2.11959 2.66994 0
M  V30 6456 H 614.89 -0.338146 2.97988 0
M  V30 6457 H 612.443 -0.138913 1.55681 0
M  V30 6458 H 613.178 -2.65476 1.8626 0
M  V30 6459 H 612.963 -1.86258 3.45037 0
M  V30 6460 H 614.453 -2.79105 3.10629 0
M  V30 6461 N 614.89 -1.56749 -0.16351 0
M  V30 6462 C 616.301 -1.72039 -0.725216 0
M  V30 6463 C 616.652 -0.72202 -1.82432 0
M  V30 6464 O 615.777 0.114942 -2.16095 0
M  V30 6465 C 616.372 -3.11932 -1.32227 0
M  V30 6466 C 614.931 -3.28879 -1.83072 0
M  V30 6467 C 614.078 -2.67984 -0.712716 0
M  V30 6468 H 617.029 -1.58579 0.0619772 0
M  V30 6469 H 617.05 -3.11015 -2.19202 0
M  V30 6470 H 616.562 -3.84572 -0.522103 0
M  V30 6471 H 614.663 -2.61209 -2.65708 0
M  V30 6472 H 614.776 -4.36688 -1.97079 0
M  V30 6473 H 613.14 -2.28005 -1.13515 0
M  V30 6474 H 613.923 -3.43216 0.0757361 0
M  V30 6475 N 616.368 0.432326 -1.51554 0
M  V30 6476 C 617.617 1.17831 -1.63703 0
M  V30 6477 C 617.93 1.92229 -0.36156 0
M  V30 6478 O 619.136 2.69069 -0.362495 0
M  V30 6479 C 617.592 2.14318 -2.89129 0
M  V30 6480 C 617.2 1.45544 -4.23699 0
M  V30 6481 C 618.944 2.89319 -3.10636 0
M  V30 6482 C 616.851 2.40545 -5.4027 0
M  V30 6483 H 615.781 0.443533 -0.60975 0
M  V30 6484 H 618.432 0.444878 -1.78026 0
M  V30 6485 H 616.814 2.91117 -2.68452 0
M  V30 6486 H 617.988 0.742693 -4.54775 0
M  V30 6487 H 616.303 0.826772 -4.0811 0
M  V30 6488 H 618.9 3.60495 -3.94902 0
M  V30 6489 H 619.243 3.50951 -2.23918 0
M  V30 6490 H 619.776 2.19625 -3.31677 0
M  V30 6491 H 616.515 1.83594 -6.29264 0
M  V30 6492 H 616.035 3.09859 -5.13563 0
M  V30 6493 H 617.714 3.01569 -5.72421 0
M  V30 6494 N 617.846 1.41785 0.688094 0
M  V30 6495 C 619.094 1.41264 1.4453 0
M  V30 6496 C 619.415 0.0252946 1.94984 0
M  V30 6497 O 618.685 -0.934081 1.72197 0
M  V30 6498 H 617.265 0.519998 0.536294 0
M  V30 6499 H 619.927 1.7709 0.813941 0
M  V30 6500 H 619.023 2.10439 2.30482 0
M  V30 6501 N 619.324 -0.923095 1.27737 0
M  V30 6502 C 620.274 -2.01061 1.0751 0
M  V30 6503 C 621.258 -1.609 0.00165451 0
M  V30 6504 O 622.45 -1.75618 0.220724 0
M  V30 6505 C 619.579 -3.35467 0.729162 0
M  V30 6506 C 618.665 -3.82059 1.84098 0
M  V30 6507 N 619.056 -4.01115 3.08124 0
M  V30 6508 C 617.354 -4.11135 1.7287 0
M  V30 6509 C 618.055 -4.39989 3.80506 0
M  V30 6510 N 617.031 -4.47721 3.08297 0
M  V30 6511 H 620.833 -2.13832 2.01626 0
M  V30 6512 H 618.347 -1.11027 1.18519 0
M  V30 6513 H 620.344 -4.13049 0.565355 0
M  V30 6514 H 619.004 -3.24056 -0.204334 0
M  V30 6515 H 620.015 -3.87294 3.43836 0
M  V30 6516 H 616.692 -4.08412 0.866352 0
M  V30 6517 H 618.082 -4.62773 4.87125 0
M  V30 6518 N 620.802 -1.09834 -1.13024 0
M  V30 6519 C 621.75 -0.736283 -2.20639 0
M  V30 6520 C 622.744 0.264725 -1.67319 0
M  V30 6521 O 623.95 0.125745 -1.7956 0
M  V30 6522 H 620.325 -0.220136 -0.719058 0
M  V30 6523 H 622.296 -1.65295 -2.48436 0
M  V30 6524 C 621.045 -0.177544 -3.47246 0
M  V30 6525 H 620.368 -0.939009 -3.88616 0
M  V30 6526 H 621.808 0.0378007 -4.23983 0
M  V30 6527 C 620.267 1.08824 -3.1884 0
M  V30 6528 O 620.797 2.1708 -3.37993 0
M  V30 6529 N 619.003 1.00442 -2.7269 0
M  V30 6530 H 618.55 0.123383 -2.57304 0
M  V30 6531 H 618.508 1.85206 -2.5406 0
M  V30 6532 N 622.28 1.30327 -0.886154 0
M  V30 6533 C 623.696 1.48676 -0.580323 0
M  V30 6534 C 623.896 1.81189 0.881639 0
M  V30 6535 O 622.952 1.90021 1.66278 0
M  V30 6536 C 624.265 2.60932 -1.49449 0
M  V30 6537 C 625.813 2.74812 -1.49824 0
M  V30 6538 C 626.288 3.90183 -2.39836 0
M  V30 6539 N 627.779 3.97495 -2.37806 0
M  V30 6540 C 628.514 4.86078 -3.04165 0
M  V30 6541 N 628.01 5.79448 -3.79753 0
M  V30 6542 N 629.803 4.79456 -2.93391 0
M  V30 6543 H 621.954 1.07495 -1.8319 0
M  V30 6544 H 624.217 0.532661 -0.784204 0
M  V30 6545 H 623.923 2.43731 -2.5355 0
M  V30 6546 H 623.797 3.57437 -1.20494 0
M  V30 6547 H 626.184 2.91418 -0.464731 0
M  V30 6548 H 626.265 1.78924 -1.82811 0
M  V30 6549 H 625.909 3.74334 -3.43273 0
M  V30 6550 H 625.839 4.85411 -2.04166 0
M  V30 6551 H 628.33 3.30703 -1.82877 0
M  V30 6552 H 628.643 6.43805 -4.27475 0
M  V30 6553 H 626.988 5.79376 -3.8386 0
M  V30 6554 H 630.179 4.05494 -2.33864 0
M  V30 6555 H 630.352 5.48283 -3.45383 0
M  V30 6556 N 623.758 0.647228 1.43697 0
M  V30 6557 C 624.668 -0.0487997 2.34549 0
M  V30 6558 C 625.684 -0.818586 1.53542 0
M  V30 6559 O 626.86 -0.767195 1.86215 0
M  V30 6560 C 623.925 -1.00734 3.31743 0
M  V30 6561 C 622.986 -0.23515 4.28655 0
M  V30 6562 C 622.219 -1.14803 5.21206 0
M  V30 6563 O 622.442 -2.38717 5.18045 0
M  V30 6564 O 621.376 -0.623667 5.9866 0
M  V30 6565 H 625.202 0.698863 2.9555 0
M  V30 6566 H 622.787 0.407412 1.43738 0
M  V30 6567 H 624.669 -1.55837 3.91526 0
M  V30 6568 H 623.344 -1.73534 2.73254 0
M  V30 6569 H 622.251 0.359319 3.7237 0
M  V30 6570 H 623.584 0.453152 4.9011 0
M  V30 6571 N 625.236 -1.5273 0.388769 0
M  V30 6572 C 626.461 -2.0647 -0.19621 0
M  V30 6573 C 626.886 -1.25865 -1.39784 0
M  V30 6574 O 626.244 -0.283562 -1.79069 0
M  V30 6575 C 626.292 -3.56456 -0.5451 0
M  V30 6576 O 625.396 -3.78426 -1.63912 0
M  V30 6577 H 624.737 -0.663599 -0.023067 0
M  V30 6578 H 627.267 -1.96898 0.556084 0
M  V30 6579 H 627.277 -3.99888 -0.809557 0
M  V30 6580 H 625.952 -4.14561 0.333417 0
M  V30 6581 H 624.529 -3.46884 -1.36842 0
M  V30 6582 N 626.714 -0.118576 -1.57153 0
M  V30 6583 C 627.944 0.546466 -1.99242 0
M  V30 6584 C 628.352 1.60791 -0.997148 0
M  V30 6585 O 627.695 1.83691 0.0181745 0
M  V30 6586 C 627.757 1.23167 -3.37743 0
M  V30 6587 C 627.421 0.318226 -4.55891 0
M  V30 6588 C 628.418 -0.442988 -5.18009 0
M  V30 6589 C 626.103 0.229421 -5.01776 0
M  V30 6590 C 628.097 -1.28074 -6.244 0
M  V30 6591 C 625.784 -0.611966 -6.08028 0
M  V30 6592 C 626.782 -1.36568 -6.69207 0
M  V30 6593 O 626.47 -2.1931 -7.73407 0
M  V30 6594 H 626.202 0.149297 -0.659307 0
M  V30 6595 H 628.756 -0.201603 -2.04408 0
M  V30 6596 H 626.986 2.0268 -3.29329 0
M  V30 6597 H 628.675 1.79358 -3.64123 0
M  V30 6598 H 629.441 -0.38425 -4.83475 0
M  V30 6599 H 625.32 0.805771 -4.53903 0
M  V30 6600 H 628.864 -1.86952 -6.72082 0
M  V30 6601 H 624.761 -0.6721 -6.41991 0
M  V30 6602 H 625.529 -2.12247 -7.90502 0
M  V30 6603 N 628.193 1.56834 0.155195 0
M  V30 6604 C 629.126 1.9278 1.22111 0
M  V30 6605 C 630.104 0.792588 1.41975 0
M  V30 6606 O 631.288 1.04743 1.5672 0
M  V30 6607 C 628.415 2.19273 2.58142 0
M  V30 6608 C 627.461 3.41932 2.54921 0
M  V30 6609 S 628.294 4.95769 2.02418 0
M  V30 6610 C 629.45 5.25375 3.40194 0
M  V30 6611 H 629.683 2.82889 0.914393 0
M  V30 6612 H 627.216 1.50133 0.360461 0
M  V30 6613 H 629.174 2.35217 3.36427 0
M  V30 6614 H 627.835 1.29843 2.86007 0
M  V30 6615 H 627.028 3.57721 3.55038 0
M  V30 6616 H 626.63 3.25188 1.8474 0
M  V30 6617 H 628.922 5.1834 4.36268 0
M  V30 6618 H 629.865 6.26889 3.29266 0
M  V30 6619 H 630.273 4.52906 3.36951 0
M  V30 6620 N 629.671 -0.424282 1.51781 0
M  V30 6621 C 630.917 -1.17434 1.6534 0
M  V30 6622 C 631.25 -1.90549 0.374806 0
M  V30 6623 O 630.525 -1.84145 -0.626179 0
M  V30 6624 C 630.808 -2.18093 2.86544 0
M  V30 6625 C 630.661 -1.48975 4.24413 0
M  V30 6626 C 631.98 -3.18934 3.03264 0
M  V30 6627 H 629.099 -0.425566 0.601716 0
M  V30 6628 H 631.741 -0.461921 1.84299 0
M  V30 6629 H 629.891 -2.78849 2.7051 0
M  V30 6630 H 631.563 -0.914551 4.52143 0
M  V30 6631 H 629.806 -0.791893 4.26511 0
M  V30 6632 H 630.477 -2.22347 5.05238 0
M  V30 6633 H 632.953 -2.68243 3.18096 0
M  V30 6634 H 631.829 -3.86645 3.89611 0
M  V30 6635 H 632.09 -3.85793 2.15908 0
M  V30 6636 N 631.149 -1.42148 -0.680565 0
M  V30 6637 C 632.56 -1.3768 -1.26099 0
M  V30 6638 C 632.911 -0.0672348 -1.96085 0
M  V30 6639 O 632.036 0.834172 -1.99676 0
M  V30 6640 C 632.631 -2.49387 -2.29328 0
M  V30 6641 C 631.19 -2.4827 -2.82911 0
M  V30 6642 C 630.337 -2.2847 -1.57152 0
M  V30 6643 H 633.288 -1.51446 -0.474326 0
M  V30 6644 H 633.309 -2.19307 -3.10941 0
M  V30 6645 H 632.821 -3.44686 -1.78363 0
M  V30 6646 H 630.922 -1.56773 -3.38013 0
M  V30 6647 H 631.035 -3.45109 -3.3232 0
M  V30 6648 H 629.399 -1.76623 -1.83511 0
M  V30 6649 H 630.182 -3.25816 -1.0816 0
M  V30 6650 N 632.627 0.916307 -1.28225 0
M  V30 6651 C 633.874 1.66518 -1.1523 0
M  V30 6652 C 634.202 1.92178 0.299632 0
M  V30 6653 O 633.457 1.51842 1.2346 0
M  V30 6654 C 633.756 3.03125 -1.8934 0
M  V30 6655 C 633.422 2.97135 -3.39148 0
M  V30 6656 C 632.084 2.95208 -3.80007 0
M  V30 6657 C 634.436 2.87574 -4.34685 0
M  V30 6658 C 631.764 2.81518 -5.14747 0
M  V30 6659 C 634.116 2.75424 -5.69495 0
M  V30 6660 C 632.78 2.71854 -6.09632 0
M  V30 6661 H 632.05 0.609334 -0.421655 0
M  V30 6662 H 634.697 1.06776 -1.58969 0
M  V30 6663 H 633.002 3.66639 -1.38143 0
M  V30 6664 H 634.699 3.59968 -1.76704 0
M  V30 6665 H 631.289 2.99428 -3.06661 0
M  V30 6666 H 635.473 2.88152 -4.04082 0
M  V30 6667 H 630.729 2.77148 -5.44976 0
M  V30 6668 H 634.903 2.66993 -6.43185 0
M  V30 6669 H 632.53 2.61003 -7.1399 0
M  V30 6670 N 634.105 1.10431 1.1244 0
M  V30 6671 C 635.354 0.841539 1.83306 0
M  V30 6672 C 635.667 -0.634961 1.85007 0
M  V30 6673 O 636.873 -1.01363 2.51869 0
M  V30 6674 C 635.329 1.45565 3.29149 0
M  V30 6675 C 634.937 2.96544 3.35806 0
M  V30 6676 C 636.681 1.27227 4.04986 0
M  V30 6677 C 634.588 3.5099 4.75983 0
M  V30 6678 H 633.518 0.311156 0.686803 0
M  V30 6679 H 636.169 1.32829 1.26604 0
M  V30 6680 H 634.551 0.896574 3.85717 0
M  V30 6681 H 635.725 3.58766 2.89177 0
M  V30 6682 H 634.04 3.14036 2.73442 0
M  V30 6683 H 636.637 1.65348 5.08492 0
M  V30 6684 H 636.98 0.213834 4.1575 0
M  V30 6685 H 637.513 1.79941 3.54776 0
M  V30 6686 H 634.252 4.56499 4.70413 0
M  V30 6687 H 633.772 2.93535 5.23065 0
M  V30 6688 H 635.451 3.48808 5.44924 0
M  V30 6689 N 635.583 -1.29855 0.893053 0
M  V30 6690 C 636.994 -1.77946 0.564998 0
M  V30 6691 C 637.345 -1.73339 -0.919134 0
M  V30 6692 O 636.47 -1.3152 -1.71847 0
M  V30 6693 C 637.065 -3.23118 1.01883 0
M  V30 6694 C 635.624 -3.69013 0.742051 0
M  V30 6695 C 634.771 -2.50121 1.19727 0
M  V30 6696 H 637.722 -1.16611 1.07646 0
M  V30 6697 H 637.743 -3.78875 0.351249 0
M  V30 6698 H 637.255 -3.26439 2.09903 0
M  V30 6699 H 635.356 -3.71173 -0.325816 0
M  V30 6700 H 635.469 -4.60117 1.33527 0
M  V30 6701 H 633.833 -2.47128 0.616418 0
M  V30 6702 H 634.616 -2.56174 2.28538 0
M  V30 6703 N 637.061 -0.65484 -1.43351 0
M  V30 6704 C 637.991 0.0221809 -2.33489 0
M  V30 6705 C 638.972 0.810272 -1.49561 0
M  V30 6706 O 640.157 0.771426 -1.78221 0
M  V30 6707 C 637.287 0.988117 -3.32947 0
M  V30 6708 C 636.241 0.310026 -4.26876 0
M  V30 6709 C 635.567 1.38752 -5.16384 0
M  V30 6710 C 636.867 -0.798589 -5.16159 0
M  V30 6711 H 638.561 -0.730571 -2.9035 0
M  V30 6712 H 636.107 -0.352773 -1.39612 0
M  V30 6713 H 638.06 1.47067 -3.94904 0
M  V30 6714 H 636.784 1.77205 -2.74346 0
M  V30 6715 H 635.443 -0.152097 -3.66284 0
M  V30 6716 H 635.091 2.16293 -4.54121 0
M  V30 6717 H 634.791 0.939051 -5.80048 0
M  V30 6718 H 636.315 1.87141 -5.81215 0
M  V30 6719 H 637.729 -0.398126 -5.71916 0
M  V30 6720 H 636.126 -1.17163 -5.88552 0
M  V30 6721 H 637.196 -1.65588 -4.55751 0
M  V30 6722 N 638.539 1.52521 -0.396863 0
M  V30 6723 C 639.769 2.05792 0.182485 0
M  V30 6724 C 640.177 1.26784 1.40436 0
M  V30 6725 O 639.52 0.309617 1.81072 0
M  V30 6726 C 639.582 3.54291 0.609781 0
M  V30 6727 C 639.246 4.5426 -0.499674 0
M  V30 6728 C 640.243 5.01812 -1.35944 0
M  V30 6729 C 637.928 4.97827 -0.668864 0
M  V30 6730 C 639.922 5.91562 -2.37346 0
M  V30 6731 C 637.609 5.87376 -1.68621 0
M  V30 6732 C 638.607 6.34137 -2.53692 0
M  V30 6733 O 638.295 7.21915 -3.53686 0
M  V30 6734 H 638.027 0.675362 0.0293583 0
M  V30 6735 H 640.581 1.97539 -0.56281 0
M  V30 6736 H 638.811 3.60188 1.40717 0
M  V30 6737 H 640.5 3.90267 1.11565 0
M  V30 6738 H 641.266 4.68879 -1.24008 0
M  V30 6739 H 637.145 4.60997 -0.0163971 0
M  V30 6740 H 640.689 6.27983 -3.03782 0
M  V30 6741 H 636.586 6.19723 -1.80593 0
M  V30 6742 H 637.354 7.39996 -3.49784 0
M  V30 6743 N 640.017 0.126909 1.57088 0
M  V30 6744 C 641.433 -0.229641 1.57939 0
M  V30 6745 C 641.633 -1.66145 1.1401 0
M  V30 6746 O 640.689 -2.3843 0.831119 0
M  V30 6747 C 642.002 0.0108648 3.00698 0
M  V30 6748 C 643.55 -0.054418 3.12953 0
M  V30 6749 C 644.025 0.158497 4.57726 0
M  V30 6750 N 645.516 0.104735 4.63082 0
M  V30 6751 C 646.251 0.24427 5.72879 0
M  V30 6752 N 645.747 0.440415 6.91399 0
M  V30 6753 N 647.54 0.183286 5.61801 0
M  V30 6754 H 639.691 1.06203 1.83942 0
M  V30 6755 H 641.954 0.418834 0.85046 0
M  V30 6756 H 641.66 1.00102 3.37154 0
M  V30 6757 H 641.534 -0.717512 3.70313 0
M  V30 6758 H 643.921 -1.0351 2.7635 0
M  V30 6759 H 644.002 0.705967 2.45865 0
M  V30 6760 H 643.646 1.13619 4.95028 0
M  V30 6761 H 643.576 -0.62197 5.22914 0
M  V30 6762 H 646.067 -0.0430298 3.77876 0
M  V30 6763 H 646.38 0.537536 7.70928 0
M  V30 6764 H 644.725 0.476488 6.93365 0
M  V30 6765 H 647.916 0.0309561 4.6809 0
M  V30 6766 H 648.089 0.295471 6.47326 0
M  V30 6767 N 641.495 -1.56914 -0.146875 0
M  V30 6768 C 642.443 -1.99224 -1.20053 0
M  V30 6769 C 643.437 -0.884661 -1.44465 0
M  V30 6770 O 644.643 -1.06984 -1.44756 0
M  V30 6771 H 641.018 -0.634191 -0.404112 0
M  V30 6772 H 642.989 -2.86998 -0.816987 0
M  V30 6773 C 641.738 -2.38899 -2.52632 0
M  V30 6774 H 641.061 -3.23677 -2.34677 0
M  V30 6775 H 642.501 -2.72326 -3.24984 0
M  V30 6776 C 640.96 -1.2417 -3.13183 0
M  V30 6777 O 641.49 -0.542503 -3.9802 0
M  V30 6778 N 639.696 -1.00592 -2.72635 0
M  V30 6779 H 639.243 -1.57627 -2.03744 0
M  V30 6780 H 639.201 -0.240174 -3.13481 0
M  V30 6781 N 642.974 0.416227 -1.52004 0
M  V30 6782 C 644.222 1.16153 -1.65387 0
M  V30 6783 C 644.543 1.91208 -0.382669 0
M  V30 6784 O 643.813 1.86413 0.602231 0
M  V30 6785 H 642.393 0.431765 -0.60958 0
M  V30 6786 H 645.055 0.475151 -1.89019 0
M  V30 6787 H 644.151 1.87952 -2.4916 0
M  V30 6788 N 644.452 1.42507 0.673017 0
M  V30 6789 C 645.729 1.33554 1.42908 0
M  V30 6790 C 646.109 -0.0262211 2.11084 0
M  V30 6791 O 645.457 -1.04181 2.03368 0
M  V30 6792 C 645.667 2.50498 2.43006 0
M  V30 6793 C 647.015 2.92694 3.07596 0
M  V30 6794 O 648.039 2.50401 2.53333 0
M  V30 6795 O 646.898 3.65899 4.05931 0
M  V30 6796 H 643.992 0.526785 0.637516 0
M  V30 6797 H 646.538 1.54518 0.701591 0
M  V30 6798 H 645.31 3.41272 1.9144 0
M  V30 6799 H 644.933 2.3153 3.23233 0
M  V30 6800 N 645.93 -0.909495 1.28709 0
M  V30 6801 C 647.177 -1.65905 1.16111 0
M  V30 6802 C 647.505 -1.92334 -0.289436 0
M  V30 6803 O 646.76 -1.52495 -1.22653 0
M  V30 6804 C 647.059 -3.02117 1.90945 0
M  V30 6805 C 646.725 -2.95332 3.40719 0
M  V30 6806 C 645.387 -2.93189 3.81567 0
M  V30 6807 C 647.739 -2.85264 4.36204 0
M  V30 6808 C 645.067 -2.78784 5.16233 0
M  V30 6809 C 647.419 -2.724 5.70948 0
M  V30 6810 C 646.083 -2.68617 6.11066 0
M  V30 6811 H 645.353 -0.60709 0.42488 0
M  V30 6812 H 648 -1.05932 1.59533 0
M  V30 6813 H 646.305 -3.65901 1.40085 0
M  V30 6814 H 648.002 -3.59026 1.7861 0
M  V30 6815 H 644.592 -2.97797 3.08245 0
M  V30 6816 H 648.776 -2.86005 4.05605 0
M  V30 6817 H 644.032 -2.74254 5.46438 0
M  V30 6818 H 648.206 -2.63579 6.44592 0
M  V30 6819 H 645.833 -2.57213 7.15364 0
M  V30 6820 N 647.408 -1.11026 -1.11852 0
M  V30 6821 C 648.655 -0.85646 -1.83497 0
M  V30 6822 C 648.983 0.617938 -1.84423 0
M  V30 6823 O 648.238 1.47194 -1.28966 0
M  V30 6824 C 648.537 -1.35777 -3.30604 0
M  V30 6825 C 648.203 -2.84465 -3.49843 0
M  V30 6826 C 646.865 -3.25068 -3.54802 0
M  V30 6827 C 649.217 -3.80251 -3.56453 0
M  V30 6828 C 646.545 -4.60194 -3.63921 0
M  V30 6829 C 648.897 -5.15188 -3.67102 0
M  V30 6830 C 647.561 -5.55356 -3.70319 0
M  V30 6831 H 646.831 -0.313401 -0.671462 0
M  V30 6832 H 649.478 -1.38792 -1.31943 0
M  V30 6833 H 647.783 -0.746455 -3.84624 0
M  V30 6834 H 649.48 -1.13779 -3.8452 0
M  V30 6835 H 646.07 -2.52054 -3.46651 0
M  V30 6836 H 650.254 -3.49986 -3.51886 0
M  V30 6837 H 645.51 -4.90728 -3.64686 0
M  V30 6838 H 649.684 -5.89248 -3.71159 0
M  V30 6839 H 647.311 -6.60054 -3.77138 0
M  V30 6840 N 648.886 1.2938 -0.899927 0
M  V30 6841 C 650.135 1.9483 -0.521937 0
M  V30 6842 C 650.448 1.71725 0.936473 0
M  V30 6843 O 651.654 2.31282 1.42199 0
M  V30 6844 C 650.11 3.48911 -0.88255 0
M  V30 6845 C 649.718 3.80815 -2.35974 0
M  V30 6846 C 651.462 4.20595 -0.57448 0
M  V30 6847 C 649.369 5.28142 -2.66121 0
M  V30 6848 H 648.299 0.729285 -0.191468 0
M  V30 6849 H 650.95 1.47103 -1.09695 0
M  V30 6850 H 649.332 3.95293 -0.236459 0
M  V30 6851 H 650.506 3.45291 -3.05141 0
M  V30 6852 H 648.821 3.22271 -2.63686 0
M  V30 6853 H 651.418 5.29031 -0.776556 0
M  V30 6854 H 651.761 4.13442 0.487005 0
M  V30 6855 H 652.294 3.79945 -1.17842 0
M  V30 6856 H 649.033 5.4036 -3.71068 0
M  V30 6857 H 648.553 5.64913 -2.01578 0
M  V30 6858 H 650.232 5.95738 -2.52399 0
M  V30 6859 N 650.364 0.662433 1.43002 0
M  V30 6860 C 651.589 0.186003 2.06564 0
M  V30 6861 C 652.014 -1.14314 1.49379 0
M  V30 6862 O 651.372 -1.70824 0.607346 0
M  V30 6863 C 651.42 0.118269 3.60406 0
M  V30 6864 O 650.524 -0.916859 4.02079 0
M  V30 6865 H 649.865 0.0990981 0.656563 0
M  V30 6866 H 652.395 0.907958 1.8335 0
M  V30 6867 H 652.405 -0.0619981 4.07953 0
M  V30 6868 H 651.08 1.08849 4.01403 0
M  V30 6869 H 649.657 -0.708635 3.66105 0
M  V30 6870 N 651.842 -1.52309 0.404946 0
M  V30 6871 C 653.067 -2.06666 -0.1743 0
M  V30 6872 C 653.492 -1.27341 -1.38441 0
M  V30 6873 O 652.85 -0.302539 -1.78758 0
M  V30 6874 C 652.898 -3.57014 -0.507262 0
M  V30 6875 O 652.002 -3.80144 -1.59889 0
M  V30 6876 H 651.343 -0.663807 -0.0160273 0
M  V30 6877 H 653.873 -1.96297 0.576937 0
M  V30 6878 H 653.883 -4.00724 -0.767098 0
M  V30 6879 H 652.558 -4.14184 0.377368 0
M  V30 6880 H 651.135 -3.48316 -1.33155 0
M  V30 6881 N 653.32 -0.135238 -1.57019 0
M  V30 6882 C 654.267 0.808908 -2.1616 0
M  V30 6883 C 655.237 1.25234 -1.09113 0
M  V30 6884 O 656.422 1.32697 -1.37099 0
M  V30 6885 C 653.562 2.04729 -2.77813 0
M  V30 6886 C 652.675 1.65074 -3.99218 0
M  V30 6887 C 651.81 2.84002 -4.48906 0
M  V30 6888 C 650.849 2.40663 -5.62803 0
M  V30 6889 N 649.986 3.5256 -6.07162 0
M  V30 6890 H 654.826 0.297751 -2.96509 0
M  V30 6891 H 652.363 0.135264 -1.46477 0
M  V30 6892 H 654.321 2.7731 -3.11697 0
M  V30 6893 H 652.951 2.53275 -2.00128 0
M  V30 6894 H 652.003 0.823029 -3.7139 0
M  V30 6895 H 653.315 1.29236 -4.81767 0
M  V30 6896 H 652.469 3.64788 -4.84783 0
M  V30 6897 H 651.208 3.23076 -3.65339 0
M  V30 6898 H 650.213 1.58314 -5.26514 0
M  V30 6899 H 651.438 2.02687 -6.48147 0
M  V30 6900 H 649.384 3.91278 -5.26534 0
M  V30 6901 H 649.301 3.20699 -6.84608 0
M  V30 6902 H 650.569 4.33738 -6.47682 0
M  V30 6903 N 654.798 1.5699 0.138552 0
M  V30 6904 C 656.075 1.74741 0.87891 0
M  V30 6905 C 656.455 0.705522 1.98961 0
M  V30 6906 O 655.803 -0.274066 2.2685 0
M  V30 6907 C 656.013 3.1909 1.4136 0
M  V30 6908 C 657.361 3.81023 1.87368 0
M  V30 6909 O 658.385 3.22571 1.51084 0
M  V30 6910 O 657.244 4.83722 2.54312 0
M  V30 6911 H 654.338 0.714781 0.415953 0
M  V30 6912 H 656.884 1.69248 0.123817 0
M  V30 6913 H 655.656 3.86424 0.61579 0
M  V30 6914 H 655.279 3.29043 2.23196 0
M  V30 6915 N 656.276 -0.40816 1.52223 0
M  V30 6916 C 657.206 -1.5042 1.78595 0
M  V30 6917 C 658.187 -1.57723 0.636974 0
M  V30 6918 O 659.372 -1.72982 0.882664 0
M  V30 6919 C 656.502 -2.88232 1.93751 0
M  V30 6920 C 655.456 -2.95779 3.09352 0
M  V30 6921 C 654.782 -4.35855 3.09732 0
M  V30 6922 C 656.082 -2.67175 4.48793 0
M  V30 6923 H 657.776 -1.28601 2.70374 0
M  V30 6924 H 655.322 -0.617221 1.30101 0
M  V30 6925 H 657.275 -3.64895 2.10783 0
M  V30 6926 H 655.999 -3.11347 0.986443 0
M  V30 6927 H 654.658 -2.21561 2.92072 0
M  V30 6928 H 654.306 -4.55981 2.12346 0
M  V30 6929 H 654.006 -4.41829 3.87377 0
M  V30 6930 H 655.53 -5.14451 3.28895 0
M  V30 6931 H 656.944 -3.3356 4.66273 0
M  V30 6932 H 655.341 -2.84523 5.28362 0
M  V30 6933 H 656.411 -1.62609 4.56822 0
M  V30 6934 N 657.755 -1.42862 -0.66545 0
M  V30 6935 C 659.003 -1.43546 -1.42264 0
M  V30 6936 C 659.324 -0.0563116 -1.94919 0
M  V30 6937 O 658.594 0.906568 -1.73661 0
M  V30 6938 H 657.174 -0.528464 -0.527953 0
M  V30 6939 H 659.836 -1.78363 -0.785665 0
M  V30 6940 H 658.932 -2.14079 -2.27105 0
M  V30 6941 N 659.233 0.902656 -1.29189 0
M  V30 6942 C 660.463 1.68394 -1.19695 0
M  V30 6943 C 660.871 1.87602 0.245384 0
M  V30 6944 O 660.214 1.41084 1.17648 0
M  V30 6945 C 660.276 3.09094 -1.83578 0
M  V30 6946 C 659.94 3.1313 -3.32864 0
M  V30 6947 C 660.937 2.93497 -4.29134 0
M  V30 6948 C 658.622 3.3529 -3.74013 0
M  V30 6949 C 660.616 2.95953 -5.64527 0
M  V30 6950 C 658.303 3.37377 -5.09529 0
M  V30 6951 C 659.301 3.1773 -6.04596 0
M  V30 6952 O 658.989 3.196 -7.37639 0
M  V30 6953 H 658.721 0.532815 -0.416034 0
M  V30 6954 H 661.275 1.1374 -1.71033 0
M  V30 6955 H 659.505 3.65338 -1.26747 0
M  V30 6956 H 661.194 3.69297 -1.68447 0
M  V30 6957 H 661.96 2.76192 -3.98677 0
M  V30 6958 H 657.839 3.49623 -3.00474 0
M  V30 6959 H 661.383 2.80536 -6.38706 0
M  V30 6960 H 657.28 3.54213 -5.39633 0
M  V30 6961 H 658.048 3.35887 -7.46406 0
M  V30 6962 N 660.711 1.11618 1.11262 0
M  V30 6963 C 661.988 0.777876 1.79467 0
M  V30 6964 C 662.368 -0.733774 1.97937 0
M  V30 6965 O 661.716 -1.66443 1.56554 0
M  V30 6966 C 661.926 1.5431 3.13032 0
M  V30 6967 C 663.274 1.72357 3.88044 0
M  V30 6968 O 664.298 1.5075 3.22727 0
M  V30 6969 O 663.157 2.08276 5.05256 0
M  V30 6970 H 660.251 0.282018 0.777428 0
M  V30 6971 H 662.797 1.21971 1.17988 0
M  V30 6972 H 661.569 2.57132 2.94956 0
M  V30 6973 H 661.192 1.09495 3.82226 0
M  V30 6974 N 662.189 -1.289 0.906776 0
M  V30 6975 C 663.419 -1.99112 0.551168 0
M  V30 6976 C 663.827 -1.67998 -0.870243 0
M  V30 6977 O 663.17 -0.92525 -1.58697 0
M  V30 6978 C 663.232 -3.53162 0.672065 0
M  V30 6979 C 662.896 -4.07849 2.06174 0
M  V30 6980 C 663.893 -4.22212 3.0337 0
M  V30 6981 C 661.578 -4.4271 2.37304 0
M  V30 6982 C 663.572 -4.70678 4.29815 0
M  V30 6983 C 661.259 -4.90871 3.6399 0
M  V30 6984 C 662.257 -5.04811 4.6006 0
M  V30 6985 O 661.945 -5.51925 5.84495 0
M  V30 6986 H 661.677 -0.642728 0.209469 0
M  V30 6987 H 664.231 -1.65234 1.22012 0
M  V30 6988 H 662.461 -3.86662 -0.05394 0
M  V30 6989 H 664.15 -4.046 0.324579 0
M  V30 6990 H 664.916 -3.9556 2.80637 0
M  V30 6991 H 660.795 -4.31114 1.63283 0
M  V30 6992 H 664.339 -4.81474 5.04806 0
M  V30 6993 H 660.236 -5.16961 3.86551 0
M  V30 6994 H 661.004 -5.70225 5.87185 0
M  V30 6995 N 663.667 -0.670007 -1.42649 0
M  V30 6996 C 664.892 -0.196955 -2.06463 0
M  V30 6997 C 665.317 1.1352 -1.49983 0
M  V30 6998 O 664.675 1.705 -0.616397 0
M  V30 6999 C 664.723 -0.137381 -3.60338 0
M  V30 7000 O 663.827 0.895523 -4.02559 0
M  V30 7001 H 663.168 -0.102579 -0.656029 0
M  V30 7002 H 665.698 -0.917669 -1.82866 0
M  V30 7003 H 665.708 0.0403625 -4.0798 0
M  V30 7004 H 664.383 -1.10977 -4.0082 0
M  V30 7005 H 662.96 0.689209 -3.66476 0
M  V30 7006 N 665.145 1.52092 -0.413018 0
M  V30 7007 C 666.375 2.05974 0.160648 0
M  V30 7008 C 666.783 1.28267 1.39084 0
M  V30 7009 O 666.126 0.328805 1.80733 0
M  V30 7010 C 666.188 3.54918 0.572169 0
M  V30 7011 C 665.852 4.53705 -0.547826 0
M  V30 7012 C 666.849 5.00342 -1.41259 0
M  V30 7013 C 664.534 4.97089 -0.721627 0
M  V30 7014 C 666.528 5.89011 -2.43607 0
M  V30 7015 C 664.215 5.85554 -1.74841 0
M  V30 7016 C 665.213 6.3141 -2.60403 0
M  V30 7017 O 664.901 7.18123 -3.61323 0
M  V30 7018 H 664.633 0.675636 0.0221936 0
M  V30 7019 H 667.187 1.96931 -0.58373 0
M  V30 7020 H 665.417 3.61661 1.36889 0
M  V30 7021 H 667.106 3.91428 1.0742 0
M  V30 7022 H 667.872 4.67537 -1.28974 0
M  V30 7023 H 663.751 4.60954 -0.0652911 0
M  V30 7024 H 667.295 6.24725 -3.10425 0
M  V30 7025 H 663.192 6.17773 -1.87156 0
M  V30 7026 H 663.96 7.36244 -3.57613 0
M  V30 7027 N 666.623 0.143563 1.56945 0
M  V30 7028 C 667.553 -0.7936 2.196 0
M  V30 7029 C 668.534 -1.25955 1.14321 0
M  V30 7030 O 669.719 -1.31773 1.42651 0
M  V30 7031 C 666.849 -2.03424 2.81489 0
M  V30 7032 C 665.803 -1.70519 3.92565 0
M  V30 7033 C 665.129 -3.01817 4.41373 0
M  V30 7034 C 666.429 -0.95449 5.13504 0
M  V30 7035 H 668.123 -0.271423 2.98167 0
M  V30 7036 H 665.669 -0.12911 1.4342 0
M  V30 7037 H 667.622 -2.69463 3.23987 0
M  V30 7038 H 666.346 -2.58008 2.00248 0
M  V30 7039 H 665.005 -1.06859 3.5068 0
M  V30 7040 H 664.653 -3.54386 3.56959 0
M  V30 7041 H 664.353 -2.80565 5.16292 0
M  V30 7042 H 665.877 -3.68934 4.86539 0
M  V30 7043 H 667.291 -1.5169 5.52868 0
M  V30 7044 H 665.688 -0.842035 5.94163 0
M  V30 7045 H 666.758 0.0544033 4.84869 0
M  V30 7046 N 668.101 -1.57061 -0.130224 0
M  V30 7047 C 669.033 -1.96147 -1.18571 0
M  V30 7048 C 670.046 -0.859347 -1.38272 0
M  V30 7049 O 671.235 -1.13769 -1.37545 0
M  V30 7050 C 668.335 -2.23484 -2.54771 0
M  V30 7051 C 667.508 -3.54786 -2.55824 0
M  V30 7052 C 666.567 -3.70467 -3.73686 0
M  V30 7053 O 665.593 -4.42693 -3.57787 0
M  V30 7054 N 666.795 -3.08389 -4.91809 0
M  V30 7055 H 669.56 -2.87295 -0.853333 0
M  V30 7056 H 667.121 -1.58714 -0.319621 0
M  V30 7057 H 669.113 -2.312 -3.32158 0
M  V30 7058 H 667.683 -1.38518 -2.80235 0
M  V30 7059 H 666.903 -3.5836 -1.64232 0
M  V30 7060 H 668.191 -4.4111 -2.53573 0
M  V30 7061 H 667.589 -2.49656 -5.0763 0
M  V30 7062 H 666.146 -3.21642 -5.66912 0
M  V30 7063 N 669.579 0.400081 -1.52437 0
M  V30 7064 C 670.856 1.15973 -1.57511 0
M  V30 7065 C 671.236 2.0798 -0.361572 0
M  V30 7066 O 670.584 2.19032 0.650929 0
M  V30 7067 C 670.794 1.92912 -2.90837 0
M  V30 7068 C 672.142 2.48662 -3.44169 0
M  V30 7069 O 673.166 2.03081 -2.92637 0
M  V30 7070 O 672.025 3.31894 -4.34176 0
M  V30 7071 H 669.119 0.530023 -0.634827 0
M  V30 7072 H 671.665 0.40613 -1.64769 0
M  V30 7073 H 670.437 1.25564 -3.70607 0
M  V30 7074 H 670.06 2.75257 -2.86913 0
M  V30 7075 N 671.057 1.43213 0.657864 0
M  V30 7076 C 672.282 1.48227 1.45064 0
M  V30 7077 C 672.707 0.0999939 1.87834 0
M  V30 7078 O 672.065 -0.905269 1.57081 0
M  V30 7079 C 672.113 2.42931 2.6649 0
M  V30 7080 O 671.217 1.91237 3.6538 0
M  V30 7081 H 670.558 0.501551 0.435135 0
M  V30 7082 H 673.088 1.8808 0.805431 0
M  V30 7083 H 673.098 2.6008 3.1436 0
M  V30 7084 H 671.773 3.43348 2.34701 0
M  V30 7085 H 670.35 1.83726 3.24498 0
M  V30 7086 N 672.536 -0.895792 1.29666 0
M  V30 7087 C 673.813 -1.62723 1.08538 0
M  V30 7088 C 674.193 -2.07848 -0.369119 0
M  V30 7089 O 673.541 -1.8372 -1.35864 0
M  V30 7090 C 673.751 -2.80505 2.07648 0
M  V30 7091 C 675.099 -3.51098 2.3878 0
M  V30 7092 O 676.123 -2.90679 2.05874 0
M  V30 7093 O 674.982 -4.60028 2.9502 0
M  V30 7094 H 672.076 -0.714692 0.416106 0
M  V30 7095 H 674.622 -0.943517 1.41053 0
M  V30 7096 H 673.394 -2.44386 3.05599 0
M  V30 7097 H 673.017 -3.5658 1.75887 0
M  V30 7098 N 674.014 -1.12206 -1.10668 0
M  V30 7099 C 675.425 -0.890657 -1.64086 0
M  V30 7100 C 675.776 0.575502 -1.8757 0
M  V30 7101 O 674.901 1.4394 -1.61587 0
M  V30 7102 C 675.496 -1.61029 -2.98085 0
M  V30 7103 C 674.055 -1.4251 -3.48379 0
M  V30 7104 C 673.202 -1.64778 -2.23033 0
M  V30 7105 H 676.153 -1.27718 -0.94201 0
M  V30 7106 H 676.174 -1.05993 -3.65439 0
M  V30 7107 H 675.686 -2.67735 -2.80962 0
M  V30 7108 H 673.787 -0.380497 -3.70652 0
M  V30 7109 H 673.9 -2.17959 -4.26651 0
M  V30 7110 H 672.264 -1.07171 -2.31055 0
M  V30 7111 H 673.047 -2.72776 -2.08443 0
M  V30 7112 N 675.492 1.28418 -0.913599 0
M  V30 7113 C 676.769 1.89977 -0.465619 0
M  V30 7114 C 677.149 1.82813 1.05559 0
M  V30 7115 O 676.497 1.26397 1.90358 0
M  V30 7116 C 676.707 3.34492 -0.995813 0
M  V30 7117 C 678.055 4.11468 -1.04782 0
M  V30 7118 O 679.079 3.43451 -0.944445 0
M  V30 7119 O 677.938 5.33046 -1.20518 0
M  V30 7120 H 675.032 0.813734 -0.147532 0
M  V30 7121 H 677.578 1.36786 -1.00437 0
M  V30 7122 H 676.35 3.33929 -2.03978 0
M  V30 7123 H 675.973 3.95181 -0.437878 0
M  V30 7124 N 676.97 0.677563 1.42291 0
M  V30 7125 C 678.195 0.207901 2.06355 0
M  V30 7126 C 678.62 -1.12723 1.50583 0
M  V30 7127 O 677.978 -1.70171 0.62543 0
M  V30 7128 C 678.026 0.156489 3.6026 0
M  V30 7129 O 677.13 -0.874162 4.03029 0
M  V30 7130 H 676.471 0.106056 0.655475 0
M  V30 7131 H 679.001 0.927354 1.82377 0
M  V30 7132 H 679.011 -0.0187258 4.07996 0
M  V30 7133 H 677.686 1.13101 4.00226 0
M  V30 7134 H 676.263 -0.669764 3.66836 0
M  V30 7135 N 678.448 -1.51871 0.421078 0
M  V30 7136 C 679.695 -2.01938 -0.15079 0
M  V30 7137 C 680.023 -1.30611 -1.44121 0
M  V30 7138 O 679.278 -0.404631 -1.91471 0
M  V30 7139 C 679.577 -3.54764 -0.433292 0
M  V30 7140 C 679.243 -4.44288 0.76936 0
M  V30 7141 C 677.905 -4.68477 1.09921 0
M  V30 7142 C 680.257 -4.96915 1.57242 0
M  V30 7143 C 677.585 -5.4254 2.2331 0
M  V30 7144 C 679.937 -5.7222 2.69716 0
M  V30 7145 C 678.601 -5.94678 3.03174 0
M  V30 7146 H 677.871 -0.738943 -0.0551781 0
M  V30 7147 H 680.518 -1.82977 0.564945 0
M  V30 7148 H 678.823 -3.71968 -1.23074 0
M  V30 7149 H 680.52 -3.91023 -0.888922 0
M  V30 7150 H 677.11 -4.25646 0.502305 0
M  V30 7151 H 681.294 -4.78125 1.3308 0
M  V30 7152 H 676.55 -5.58146 2.49565 0
M  V30 7153 H 680.724 -6.11992 3.32323 0
M  V30 7154 H 678.351 -6.51848 3.9115 0
M  V30 7155 N 679.926 -0.151884 -1.56866 0
M  V30 7156 C 680.858 0.817008 -2.14144 0
M  V30 7157 C 681.871 1.20735 -1.0921 0
M  V30 7158 O 683.06 1.15058 -1.36469 0
M  V30 7159 C 680.16 2.10844 -2.65326 0
M  V30 7160 C 679.333 1.88471 -3.94712 0
M  V30 7161 C 678.392 3.01649 -4.31155 0
M  V30 7162 O 677.418 2.73127 -4.9939 0
M  V30 7163 N 678.62 4.28947 -3.91132 0
M  V30 7164 H 681.385 0.327448 -2.97906 0
M  V30 7165 H 678.946 0.0315313 -1.61869 0
M  V30 7166 H 680.938 2.85616 -2.86715 0
M  V30 7167 H 679.508 2.51049 -1.86262 0
M  V30 7168 H 678.728 0.977088 -3.81899 0
M  V30 7169 H 680.016 1.70866 -4.79252 0
M  V30 7170 H 679.414 4.54986 -3.36161 0
M  V30 7171 H 677.971 5.00484 -4.17563 0
M  V30 7172 N 681.404 1.57128 0.121893 0
M  V30 7173 C 682.681 1.75664 0.860327 0
M  V30 7174 C 683.061 0.726585 1.98202 0
M  V30 7175 O 682.409 -0.24999 2.27128 0
M  V30 7176 C 682.619 3.20571 1.37968 0
M  V30 7177 C 683.967 3.82988 1.83317 0
M  V30 7178 O 684.991 3.24156 1.47654 0
M  V30 7179 O 683.85 4.86393 2.49168 0
M  V30 7180 H 680.944 0.719153 0.408348 0
M  V30 7181 H 683.49 1.6937 0.105859 0
M  V30 7182 H 682.262 3.87056 0.57477 0
M  V30 7183 H 681.885 3.31392 2.19694 0
M  V30 7184 N 682.882 -0.391992 1.52647 0
M  V30 7185 C 684.112 -1.15692 1.71169 0
M  V30 7186 C 684.52 -1.84285 0.428444 0
M  V30 7187 O 683.863 -1.73393 -0.606669 0
M  V30 7188 C 683.925 -2.25033 2.80357 0
M  V30 7189 C 683.589 -1.76433 4.21569 0
M  V30 7190 C 684.586 -1.2427 5.0483 0
M  V30 7191 C 682.271 -1.82746 4.67877 0
M  V30 7192 C 684.265 -0.790657 6.32477 0
M  V30 7193 C 681.952 -1.37153 5.9551 0
M  V30 7194 C 682.95 -0.853997 6.7764 0
M  V30 7195 O 682.638 -0.404708 8.02881 0
M  V30 7196 H 682.37 -0.35297 0.576531 0
M  V30 7197 H 684.924 -0.464994 2.00067 0
M  V30 7198 H 683.154 -2.97641 2.46874 0
M  V30 7199 H 684.843 -2.86718 2.87311 0
M  V30 7200 H 685.609 -1.18752 4.70237 0
M  V30 7201 H 681.488 -2.21971 4.04042 0
M  V30 7202 H 685.032 -0.386024 6.96531 0
M  V30 7203 H 680.929 -1.42356 6.29607 0
M  V30 7204 H 681.697 -0.526459 8.16805 0
M  V30 7205 N 684.36 -1.4356 -0.65026 0
M  V30 7206 C 685.609 -1.44619 -1.406 0
M  V30 7207 C 685.922 -0.0752645 -1.95455 0
M  V30 7208 O 687.128 0.0366832 -2.71475 0
M  V30 7209 C 685.584 -2.54511 -2.54465 0
M  V30 7210 C 685.192 -3.97723 -2.06204 0
M  V30 7211 C 686.936 -2.64768 -3.31811 0
M  V30 7212 C 684.843 -4.99075 -3.17298 0
M  V30 7213 H 683.773 -0.537983 -0.52829 0
M  V30 7214 H 686.424 -1.69559 -0.701561 0
M  V30 7215 H 684.806 -2.22777 -3.27393 0
M  V30 7216 H 685.98 -4.38932 -1.40267 0
M  V30 7217 H 684.295 -3.91538 -1.41729 0
M  V30 7218 H 686.892 -3.37664 -4.14593 0
M  V30 7219 H 687.235 -1.69936 -3.80036 0
M  V30 7220 H 687.768 -2.95817 -2.65964 0
M  V30 7221 H 684.507 -5.95469 -2.74038 0
M  V30 7222 H 684.027 -4.62476 -3.81937 0
M  V30 7223 H 685.706 -5.21913 -3.82382 0
M  V30 7224 N 685.838 0.888903 -1.30139 0
M  V30 7225 C 686.785 1.99422 -1.16188 0
M  V30 7226 C 687.755 1.66017 -0.0523869 0
M  V30 7227 O 688.94 1.89506 -0.221864 0
M  V30 7228 C 686.08 3.34325 -0.855612 0
M  V30 7229 C 685.193 3.80445 -2.0466 0
M  V30 7230 C 684.328 5.03975 -1.67876 0
M  V30 7231 C 683.367 5.42492 -2.83493 0
M  V30 7232 N 682.504 6.57206 -2.47032 0
M  V30 7233 H 687.344 2.10687 -2.10749 0
M  V30 7234 H 684.881 1.03165 -1.04859 0
M  V30 7235 H 686.839 4.11968 -0.658681 0
M  V30 7236 H 685.469 3.22756 0.0531155 0
M  V30 7237 H 684.521 2.98745 -2.3549 0
M  V30 7238 H 685.833 4.04933 -2.91257 0
M  V30 7239 H 684.987 5.89232 -1.44535 0
M  V30 7240 H 683.726 4.8135 -0.784431 0
M  V30 7241 H 682.731 4.55764 -3.07505 0
M  V30 7242 H 683.956 5.67093 -3.73607 0
M  V30 7243 H 681.902 6.36164 -1.601 0
M  V30 7244 H 681.819 6.81543 -3.27161 0
M  V30 7245 H 683.087 7.45704 -2.27038 0
M  V30 7246 N 687.317 1.12792 1.10072 0
M  V30 7247 C 688.542 0.908838 1.86427 0
M  V30 7248 C 688.967 -0.536793 1.80278 0
M  V30 7249 O 688.325 -1.38033 1.17543 0
M  V30 7250 C 688.373 1.39295 3.3261 0
M  V30 7251 O 687.477 0.573846 4.08388 0
M  V30 7252 H 686.818 0.326234 0.578331 0
M  V30 7253 H 689.348 1.50094 1.39043 0
M  V30 7254 H 689.358 1.39366 3.83459 0
M  V30 7255 H 688.033 2.44555 3.36401 0
M  V30 7256 H 686.61 0.640438 3.67359 0
M  V30 7257 N 688.795 -1.27931 0.920396 0
M  V30 7258 C 690.025 -1.98516 0.572256 0
M  V30 7259 C 690.433 -1.68912 -0.852375 0
M  V30 7260 O 689.776 -0.94203 -1.57707 0
M  V30 7261 C 689.838 -3.5243 0.709485 0
M  V30 7262 C 689.502 -4.0564 2.10489 0
M  V30 7263 C 690.499 -4.1897 3.07831 0
M  V30 7264 C 688.184 -4.40168 2.41986 0
M  V30 7265 C 690.178 -4.66093 4.34783 0
M  V30 7266 C 687.865 -4.86983 3.69176 0
M  V30 7267 C 688.863 -4.99903 4.65388 0
M  V30 7268 O 688.551 -5.45694 5.90316 0
M  V30 7269 H 688.283 -0.64047 0.216274 0
M  V30 7270 H 690.837 -1.6393 1.23758 0
M  V30 7271 H 689.067 -3.86698 -0.0129263 0
M  V30 7272 H 690.756 -4.04233 0.367474 0
M  V30 7273 H 691.522 -3.92562 2.84816 0
M  V30 7274 H 687.401 -4.29358 1.67846 0
M  V30 7275 H 690.945 -4.76092 5.09884 0
M  V30 7276 H 686.842 -5.12832 3.92012 0
M  V30 7277 H 687.61 -5.63965 5.932 0
M  V30 7278 N 690.273 -0.685099 -1.4193 0
M  V30 7279 C 691.203 -0.0273506 -2.33484 0
M  V30 7280 C 692.184 0.778366 -1.51246 0
M  V30 7281 O 693.369 0.733449 -1.79817 0
M  V30 7282 C 690.499 0.917272 -3.34968 0
M  V30 7283 C 689.453 0.21941 -4.27437 0
M  V30 7284 C 688.779 1.27768 -5.1921 0
M  V30 7285 C 690.079 -0.907894 -5.14349 0
M  V30 7286 H 691.773 -0.791994 -2.88735 0
M  V30 7287 H 689.319 -0.382308 -1.38832 0
M  V30 7288 H 691.272 1.38657 -3.97935 0
M  V30 7289 H 689.996 1.71346 -2.78043 0
M  V30 7290 H 688.655 -0.229757 -3.65879 0
M  V30 7291 H 688.303 2.06612 -4.58607 0
M  V30 7292 H 688.003 0.815803 -5.81909 0
M  V30 7293 H 689.527 1.7477 -5.85054 0
M  V30 7294 H 690.941 -0.519348 -5.70943 0
M  V30 7295 H 689.338 -1.2962 -5.85934 0
M  V30 7296 H 690.408 -1.75218 -4.52136 0
M  V30 7297 N 691.751 1.51645 -0.429126 0
M  V30 7298 C 692.661 2.31288 0.392809 0
M  V30 7299 C 693.677 1.39852 1.03525 0
M  V30 7300 O 694.853 1.72926 1.03241 0
M  V30 7301 C 691.918 3.13347 1.48372 0
M  V30 7302 C 690.979 4.20551 0.862268 0
M  V30 7303 C 690.212 4.98688 1.9012 0
M  V30 7304 O 690.435 4.77359 3.12225 0
M  V30 7305 O 689.369 5.83005 1.4963 0
M  V30 7306 H 693.195 3.02609 -0.257138 0
M  V30 7307 H 690.78 1.48163 -0.191851 0
M  V30 7308 H 692.662 3.64387 2.1166 0
M  V30 7309 H 691.337 2.44799 2.1179 0
M  V30 7310 H 690.244 3.73609 0.191568 0
M  V30 7311 H 691.577 4.91449 0.271704 0
M  V30 7312 N 693.229 0.160201 1.56784 0
M  V30 7313 C 694.161 -0.80564 2.14574 0
M  V30 7314 C 695.174 -1.20154 1.09849 0
M  V30 7315 O 696.363 -1.14333 1.37078 0
M  V30 7316 C 693.463 -2.09434 2.6644 0
M  V30 7317 C 692.636 -1.86375 3.95706 0
M  V30 7318 C 691.695 -2.99358 4.32749 0
M  V30 7319 O 690.721 -2.70475 5.00831 0
M  V30 7320 N 691.923 -4.26867 3.93402 0
M  V30 7321 H 694.688 -0.311644 2.98075 0
M  V30 7322 H 692.249 -0.0229465 1.61884 0
M  V30 7323 H 694.241 -2.84091 2.88226 0
M  V30 7324 H 692.811 -2.50057 1.8759 0
M  V30 7325 H 692.031 -0.956821 3.82412 0
M  V30 7326 H 693.319 -1.68322 4.80151 0
M  V30 7327 H 692.717 -4.53197 3.38569 0
M  V30 7328 H 691.274 -4.98263 4.20211 0
M  V30 7329 N 694.707 -1.5719 -0.113559 0
M  V30 7330 C 695.67 -1.99796 -1.12314 0
M  V30 7331 C 696.67 -0.888847 -1.34001 0
M  V30 7332 O 697.86 -1.15476 -1.30426 0
M  V30 7333 C 694.992 -2.34279 -2.47641 0
M  V30 7334 H 696.185 -2.90193 -0.756825 0
M  V30 7335 H 693.738 -1.52144 -0.358029 0
M  V30 7336 H 694.473 -1.46778 -2.89183 0
M  V30 7337 H 694.258 -3.15175 -2.33253 0
M  V30 7338 H 695.748 -2.67963 -3.2029 0
M  V30 7339 N 696.185 0.383891 -1.52853 0
M  V30 7340 C 697.41 1.154 -1.7233 0
M  V30 7341 C 697.835 1.82809 -0.44298 0
M  V30 7342 O 697.193 1.71026 0.601645 0
M  V30 7343 C 697.241 2.17386 -2.87708 0
M  V30 7344 O 696.345 3.24082 -2.55038 0
M  V30 7345 H 695.686 0.335709 -0.572883 0
M  V30 7346 H 698.216 0.44662 -1.99666 0
M  V30 7347 H 698.226 2.61296 -3.1335 0
M  V30 7348 H 696.901 1.6771 -3.80587 0
M  V30 7349 H 695.478 2.85273 -2.40153 0
M  V30 7350 N 697.663 1.43903 0.642637 0
M  V30 7351 C 699.079 1.27536 0.959519 0
M  V30 7352 C 699.279 0.202751 2.00477 0
M  V30 7353 O 698.335 -0.415256 2.49062 0
M  V30 7354 C 699.648 2.6432 1.43372 0
M  V30 7355 C 701.196 2.71937 1.54981 0
M  V30 7356 C 701.671 4.09164 2.05789 0
M  V30 7357 N 703.162 4.11282 2.13076 0
M  V30 7358 C 703.897 5.14303 2.53534 0
M  V30 7359 N 703.393 6.27693 2.93212 0
M  V30 7360 N 705.186 5.01657 2.53567 0
M  V30 7361 H 697.337 2.12344 -0.0488376 0
M  V30 7362 H 699.6 0.947124 0.0407559 0
M  V30 7363 H 699.306 3.43826 0.740048 0
M  V30 7364 H 699.18 2.90432 2.40685 0
M  V30 7365 H 701.567 1.92757 2.23448 0
M  V30 7366 H 701.648 2.49578 0.560739 0
M  V30 7367 H 701.292 4.88815 1.37921 0
M  V30 7368 H 701.222 4.28893 3.05546 0
M  V30 7369 H 703.713 3.2944 1.85143 0
M  V30 7370 H 704.026 7.02125 3.22863 0
M  V30 7371 H 702.371 6.31149 2.90991 0
M  V30 7372 H 705.562 4.12134 2.21952 0
M  V30 7373 H 705.735 5.82072 2.84774 0
M  V30 7374 N 699.141 -0.881989 1.30609 0
M  V30 7375 C 700.39 -1.62878 1.18969 0
M  V30 7376 C 700.703 -1.93946 -0.253859 0
M  V30 7377 O 701.909 -2.67008 -0.491813 0
M  V30 7378 C 700.365 -2.93573 2.0819 0
M  V30 7379 C 699.973 -2.70034 3.57471 0
M  V30 7380 C 701.717 -3.71543 2.0532 0
M  V30 7381 C 699.624 -3.96563 4.38739 0
M  V30 7382 H 698.554 -0.611092 0.441682 0
M  V30 7383 H 701.205 -0.976201 1.55379 0
M  V30 7384 H 699.587 -3.6014 1.64666 0
M  V30 7385 H 700.761 -2.11949 4.09163 0
M  V30 7386 H 699.076 -2.05435 3.62195 0
M  V30 7387 H 701.673 -4.65386 2.63288 0
M  V30 7388 H 702.016 -4.03167 1.03739 0
M  V30 7389 H 702.549 -3.11842 2.46981 0
M  V30 7390 H 699.288 -3.70095 5.41027 0
M  V30 7391 H 698.808 -4.54142 3.9181 0
M  V30 7392 H 700.487 -4.64557 4.50329 0
M  V30 7393 N 700.619 -1.13374 -1.09472 0
M  V30 7394 C 701.865 -0.906459 -1.82085 0
M  V30 7395 C 702.22 0.5614 -1.84027 0
M  V30 7396 O 701.513 1.41012 -1.29716 0
M  V30 7397 C 701.707 -1.42759 -3.2765 0
M  V30 7398 C 701.536 -2.94459 -3.39888 0
M  V30 7399 C 700.306 -3.62798 -3.51718 0
M  V30 7400 C 702.504 -3.92398 -3.32457 0
M  V30 7401 N 700.486 -5.02516 -3.52635 0
M  V30 7402 C 701.857 -5.18304 -3.40237 0
M  V30 7403 C 703.912 -3.84671 -3.16122 0
M  V30 7404 C 702.615 -6.37386 -3.33364 0
M  V30 7405 C 704.641 -5.03287 -3.10574 0
M  V30 7406 C 704.003 -6.28055 -3.18945 0
M  V30 7407 H 700.102 -0.385097 -0.680606 0
M  V30 7408 H 702.686 -1.44187 -1.30836 0
M  V30 7409 H 700.857 -0.919102 -3.77369 0
M  V30 7410 H 702.589 -1.14136 -3.88272 0
M  V30 7411 H 699.344 -3.13317 -3.55147 0
M  V30 7412 H 699.768 -5.75421 -3.56679 0
M  V30 7413 H 704.41 -2.89094 -3.0852 0
M  V30 7414 H 702.128 -7.33219 -3.3973 0
M  V30 7415 H 705.714 -4.99047 -2.9907 0
M  V30 7416 H 704.594 -7.18299 -3.14668 0
M  V30 7417 N 702.098 1.27442 -0.927168 0
M  V30 7418 C 703.323 1.99036 -0.583042 0
M  V30 7419 C 703.748 1.68711 0.83176 0
M  V30 7420 O 703.106 0.927081 1.55804 0
M  V30 7421 C 703.154 3.51271 -0.814925 0
M  V30 7422 O 702.258 4.12226 0.119742 0
M  V30 7423 H 701.599 0.624883 -0.224538 0
M  V30 7424 H 704.129 1.62263 -1.24628 0
M  V30 7425 H 704.139 4.01411 -0.730282 0
M  V30 7426 H 702.814 3.72676 -1.84623 0
M  V30 7427 H 701.391 3.72897 -0.0147688 0
M  V30 7428 N 703.576 0.692616 1.41565 0
M  V30 7429 C 704.822 0.231408 2.02079 0
M  V30 7430 C 705.177 -1.15514 1.53864 0
M  V30 7431 O 704.47 -1.76786 0.73873 0
M  V30 7432 C 704.664 0.225073 3.56691 0
M  V30 7433 C 704.493 1.60947 4.19912 0
M  V30 7434 C 703.263 2.2116 4.54331 0
M  V30 7435 C 705.461 2.55553 4.46315 0
M  V30 7436 N 703.443 3.52195 5.02824 0
M  V30 7437 C 704.814 3.71263 4.96552 0
M  V30 7438 C 706.869 2.53857 4.28323 0
M  V30 7439 C 705.572 4.85555 5.30687 0
M  V30 7440 C 707.598 3.67259 4.63546 0
M  V30 7441 C 706.96 4.81699 5.13951 0
M  V30 7442 H 703.059 0.130001 0.771119 0
M  V30 7443 H 705.643 0.909459 1.72154 0
M  V30 7444 H 703.814 -0.422453 3.86096 0
M  V30 7445 H 705.546 -0.250685 4.03923 0
M  V30 7446 H 702.301 1.73474 4.40685 0
M  V30 7447 H 702.725 4.19354 5.3148 0
M  V30 7448 H 707.367 1.66598 3.88594 0
M  V30 7449 H 705.085 5.73477 5.69341 0
M  V30 7450 H 708.671 3.67195 4.51286 0
M  V30 7451 H 707.551 5.67995 5.40695 0
M  V30 7452 N 705.054 -1.51416 0.437162 0
M  V30 7453 C 705.984 -2.30631 -0.364922 0
M  V30 7454 C 706.965 -1.36037 -1.02118 0
M  V30 7455 O 708.15 -1.64956 -1.02485 0
M  V30 7456 C 705.28 -3.1482 -1.46648 0
M  V30 7457 C 704.234 -4.17691 -0.933717 0
M  V30 7458 C 703.56 -4.904 -2.13101 0
M  V30 7459 C 704.86 -5.2229 0.0317201 0
M  V30 7460 H 706.554 -2.97932 0.29614 0
M  V30 7461 H 704.1 -1.4328 0.143865 0
M  V30 7462 H 706.053 -3.69017 -2.03481 0
M  V30 7463 H 704.777 -2.4534 -2.15583 0
M  V30 7464 H 703.436 -3.64545 -0.387602 0
M  V30 7465 H 703.084 -4.17423 -2.80654 0
M  V30 7466 H 702.784 -5.59962 -1.78092 0
M  V30 7467 H 704.308 -5.4742 -2.70487 0
M  V30 7468 H 705.722 -5.7156 -0.446302 0
M  V30 7469 H 704.119 -5.99378 0.29437 0
M  V30 7470 H 705.189 -4.75131 0.968447 0
M  V30 7471 N 706.532 -0.168513 -1.56696 0
M  V30 7472 C 707.462 0.758563 -2.20835 0
M  V30 7473 C 708.443 1.24121 -1.1631 0
M  V30 7474 O 709.628 1.29487 -1.4473 0
M  V30 7475 C 706.758 1.9892 -2.8469 0
M  V30 7476 C 705.712 1.64252 -3.95228 0
M  V30 7477 C 705.038 2.94757 -4.46119 0
M  V30 7478 C 706.338 0.872675 -5.14958 0
M  V30 7479 H 708.032 0.223953 -2.98561 0
M  V30 7480 H 705.578 0.106277 -1.43607 0
M  V30 7481 H 707.531 2.64275 -3.28233 0
M  V30 7482 H 706.255 2.5479 -2.04327 0
M  V30 7483 H 704.914 1.01266 -3.52336 0
M  V30 7484 H 704.562 3.48662 -3.62552 0
M  V30 7485 H 704.262 2.72316 -5.2069 0
M  V30 7486 H 705.786 3.61147 -4.92347 0
M  V30 7487 H 707.2 1.42875 -5.55211 0
M  V30 7488 H 705.597 0.747402 -5.95428 0
M  V30 7489 H 706.667 -0.131535 -4.84722 0
M  V30 7490 N 708.01 1.57248 0.105221 0
M  V30 7491 C 709.258 1.85204 0.808951 0
M  V30 7492 C 709.579 0.75574 1.7976 0
M  V30 7493 O 708.849 -0.218984 1.94672 0
M  V30 7494 H 707.429 0.683346 0.301739 0
M  V30 7495 H 710.091 1.94695 0.0892605 0
M  V30 7496 H 709.187 2.81595 1.34575 0
M  V30 7497 N 709.488 -0.375779 1.53054 0
M  V30 7498 C 710.451 -1.44254 1.7811 0
M  V30 7499 C 711.451 -1.47018 0.651328 0
M  V30 7500 O 712.641 -1.47957 0.919472 0
M  V30 7501 C 709.773 -2.8345 1.89391 0
M  V30 7502 H 710.966 -1.23316 2.73374 0
M  V30 7503 H 708.519 -0.608312 1.43977 0
M  V30 7504 H 709.254 -3.09716 0.961589 0
M  V30 7505 H 709.039 -2.82844 2.71555 0
M  V30 7506 H 710.529 -3.60722 2.10404 0
M  V30 7507 N 710.966 -1.44241 -0.634997 0
M  V30 7508 C 711.929 -1.50457 -1.72903 0
M  V30 7509 C 712.929 -0.387058 -1.56072 0
M  V30 7510 O 714.119 -0.649531 -1.61638 0
M  V30 7511 C 711.251 -1.37477 -3.1195 0
M  V30 7512 H 712.444 -2.47907 -1.68767 0
M  V30 7513 H 709.997 -1.31276 -0.84831 0
M  V30 7514 H 710.732 -0.41106 -3.21684 0
M  V30 7515 H 710.517 -2.18506 -3.25573 0
M  V30 7516 H 712.007 -1.44799 -3.91692 0
M  V30 7517 N 712.444 0.87505 -1.31075 0
M  V30 7518 C 713.377 1.98471 -1.12625 0
M  V30 7519 C 714.355 1.6257 -0.0311379 0
M  V30 7520 O 715.539 1.87574 -0.186594 0
M  V30 7521 C 712.666 3.30963 -0.719799 0
M  V30 7522 C 711.712 3.85849 -1.81722 0
M  V30 7523 S 712.545 4.11926 -3.42165 0
M  V30 7524 C 713.701 5.47423 -3.03445 0
M  V30 7525 H 713.934 2.13817 -2.06566 0
M  V30 7526 H 711.467 1.02463 -1.15502 0
M  V30 7527 H 713.425 4.07541 -0.492035 0
M  V30 7528 H 712.086 3.1346 0.200413 0
M  V30 7529 H 711.279 4.81616 -1.48533 0
M  V30 7530 H 710.881 3.16046 -1.99977 0
M  V30 7531 H 713.173 6.28881 -2.52023 0
M  V30 7532 H 714.116 5.85557 -3.98157 0
M  V30 7533 H 714.524 5.10455 -2.41031 0
M  V30 7534 N 713.922 1.13953 1.08869 0
M  V30 7535 C 715.168 0.906151 1.8143 0
M  V30 7536 C 715.501 -0.566089 1.85766 0
M  V30 7537 O 714.776 -1.41915 1.33006 0
M  V30 7538 C 715.059 1.50183 3.27287 0
M  V30 7539 C 714.912 3.04359 3.31189 0
M  V30 7540 C 716.231 1.17477 4.24131 0
M  V30 7541 H 713.35 0.330624 0.658678 0
M  V30 7542 H 715.992 1.40873 1.27495 0
M  V30 7543 H 714.142 1.07442 3.73348 0
M  V30 7544 H 715.814 3.55896 2.93488 0
M  V30 7545 H 714.057 3.39053 2.70602 0
M  V30 7546 H 714.728 3.41141 4.33966 0
M  V30 7547 H 717.204 1.5442 3.86385 0
M  V30 7548 H 716.08 1.61795 5.24513 0
M  V30 7549 H 716.341 0.0893312 4.4201 0
M  V30 7550 N 715.4 -1.26948 0.933913 0
M  V30 7551 C 716.648 -1.93704 0.576484 0
M  V30 7552 C 716.969 -1.73702 -0.886145 0
M  V30 7553 O 716.239 -1.08838 -1.62884 0
M  V30 7554 H 714.819 -0.716812 0.210214 0
M  V30 7555 H 717.481 -1.54534 1.18766 0
M  V30 7556 H 716.577 -3.01987 0.788055 0
M  V30 7557 N 716.879 -0.700114 -1.41195 0
M  V30 7558 C 717.842 -0.0465706 -2.29153 0
M  V30 7559 C 718.842 0.703302 -1.44604 0
M  V30 7560 O 720.032 0.537513 -1.657 0
M  V30 7561 C 717.164 0.944324 -3.2756 0
M  V30 7562 H 718.357 -0.821064 -2.88442 0
M  V30 7563 H 715.91 -0.463869 -1.49258 0
M  V30 7564 H 716.645 1.74642 -2.73259 0
M  V30 7565 H 716.43 0.409701 -3.89954 0
M  V30 7566 H 717.92 1.39925 -3.9346 0
M  V30 7567 N 718.357 1.51182 -0.445186 0
M  V30 7568 C 719.603 2.02452 0.11882 0
M  V30 7569 C 719.936 1.32824 1.41673 0
M  V30 7570 O 719.211 0.445637 1.89326 0
M  V30 7571 C 719.494 3.5859 0.329475 0
M  V30 7572 C 719.347 4.38823 -0.987638 0
M  V30 7573 C 720.666 4.26241 1.09575 0
M  V30 7574 H 717.785 0.735819 0.0417092 0
M  V30 7575 H 720.427 1.80747 -0.585718 0
M  V30 7576 H 718.577 3.77214 0.9296 0
M  V30 7577 H 720.249 4.3183 -1.62235 0
M  V30 7578 H 718.492 4.03594 -1.59041 0
M  V30 7579 H 719.163 5.46257 -0.794192 0
M  V30 7580 H 721.639 4.11934 0.587328 0
M  V30 7581 H 720.515 5.35354 1.21191 0
M  V30 7582 H 720.776 3.87635 2.12584 0
M  V30 7583 N 719.835 0.176821 1.56605 0
M  V30 7584 C 720.765 -0.746841 2.21234 0
M  V30 7585 C 721.746 -1.23502 1.16967 0
M  V30 7586 O 722.931 -1.28718 1.45414 0
M  V30 7587 C 720.061 -1.97407 2.8574 0
M  V30 7588 C 719.015 -1.62153 3.96094 0
M  V30 7589 C 718.341 -2.92387 4.47676 0
M  V30 7590 C 719.641 -0.845353 5.15413 0
M  V30 7591 H 721.335 -0.208116 2.98676 0
M  V30 7592 H 718.881 -0.0986594 1.43662 0
M  V30 7593 H 720.834 -2.62531 3.2963 0
M  V30 7594 H 719.558 -2.53703 2.05676 0
M  V30 7595 H 718.217 -0.993964 3.52868 0
M  V30 7596 H 717.865 -3.46734 3.64396 0
M  V30 7597 H 717.565 -2.69551 5.22127 0
M  V30 7598 H 719.089 -3.5853 4.94255 0
M  V30 7599 H 720.503 -1.39929 5.55961 0
M  V30 7600 H 718.9 -0.715814 5.95815 0
M  V30 7601 H 719.97 0.157239 4.84645 0
M  V30 7602 N 721.313 -1.57302 -0.09688 0
M  V30 7603 C 722.541 -1.90202 -0.814295 0
M  V30 7604 C 722.956 -0.770344 -1.72369 0
M  V30 7605 O 722.313 0.257764 -1.8067 0
M  V30 7606 C 722.364 -3.22708 -1.62916 0
M  V30 7607 O 722.085 -4.31522 -0.756343 0
M  V30 7608 C 723.586 -3.69459 -2.44979 0
M  V30 7609 H 720.806 -0.629275 -0.232925 0
M  V30 7610 H 723.35 -2.04364 -0.0746482 0
M  V30 7611 H 721.505 -3.1015 -2.32133 0
M  V30 7612 H 721.919 -5.07604 -1.32054 0
M  V30 7613 H 723.393 -4.64875 -2.9765 0
M  V30 7614 H 723.87 -2.97211 -3.23361 0
M  V30 7615 H 724.476 -3.84879 -1.80964 0
M  V30 7616 N 722.791 0.367657 -1.53252 0
M  V30 7617 C 723.754 1.43308 -1.78873 0
M  V30 7618 C 724.754 1.46671 -0.659115 0
M  V30 7619 O 725.944 1.47468 -0.927306 0
M  V30 7620 C 723.076 2.82442 -1.90892 0
M  V30 7621 H 724.269 1.21864 -2.74024 0
M  V30 7622 H 721.822 0.600668 -1.44297 0
M  V30 7623 H 722.557 3.09202 -0.978 0
M  V30 7624 H 722.342 2.81399 -2.73051 0
M  V30 7625 H 723.832 3.59601 -2.12314 0
M  V30 7626 N 724.269 1.44576 0.627338 0
M  V30 7627 C 725.199 1.54562 1.75022 0
M  V30 7628 C 726.18 0.398378 1.65369 0
M  V30 7629 O 727.365 0.61899 1.84071 0
M  V30 7630 C 724.495 1.49309 3.13567 0
M  V30 7631 C 723.449 2.62549 3.38012 0
M  V30 7632 C 722.775 2.42348 4.76625 0
M  V30 7633 C 724.075 4.04678 3.30202 0
M  V30 7634 H 725.769 2.4855 1.66922 0
M  V30 7635 H 723.315 1.19624 0.801636 0
M  V30 7636 H 725.268 1.54895 3.919 0
M  V30 7637 H 723.992 0.518392 3.2246 0
M  V30 7638 H 722.651 2.56358 2.62061 0
M  V30 7639 H 722.299 1.43062 4.82226 0
M  V30 7640 H 721.999 3.18273 4.93939 0
M  V30 7641 H 723.523 2.49758 5.57183 0
M  V30 7642 H 724.937 4.12217 3.98435 0
M  V30 7643 H 723.334 4.80836 3.5905 0
M  V30 7644 H 724.404 4.2798 2.27949 0
M  V30 7645 N 725.747 -0.868086 1.31537 0
M  V30 7646 C 726.677 -1.99131 1.21939 0
M  V30 7647 C 727.658 -1.69768 0.106166 0
M  V30 7648 O 728.843 -1.92006 0.291081 0
M  V30 7649 C 725.973 -3.34676 0.927879 0
M  V30 7650 C 724.927 -3.7835 2.00088 0
M  V30 7651 C 724.253 -5.11375 1.56203 0
M  V30 7652 C 725.553 -3.95256 3.41424 0
M  V30 7653 H 727.247 -2.07419 2.15911 0
M  V30 7654 H 724.793 -0.996569 1.03945 0
M  V30 7655 H 726.746 -4.12793 0.847327 0
M  V30 7656 H 725.47 -3.26565 -0.0475042 0
M  V30 7657 H 724.129 -3.02474 2.07135 0
M  V30 7658 H 723.777 -4.99709 0.57445 0
M  V30 7659 H 723.477 -5.41568 2.27985 0
M  V30 7660 H 725.001 -5.92001 1.49558 0
M  V30 7661 H 726.415 -4.63764 3.3704 0
M  V30 7662 H 724.812 -4.36849 4.1144 0
M  V30 7663 H 725.882 -2.98579 3.82072 0
M  V30 7664 N 727.225 -1.14528 -1.08264 0
M  V30 7665 C 728.188 -0.83632 -2.13397 0
M  V30 7666 C 729.188 0.159715 -1.60005 0
M  V30 7667 O 730.378 -0.0688098 -1.74064 0
M  V30 7668 C 727.51 -0.246973 -3.40004 0
M  V30 7669 H 728.703 -1.76808 -2.42237 0
M  V30 7670 H 726.256 -0.951509 -1.24 0
M  V30 7671 H 726.991 0.693436 -3.168 0
M  V30 7672 H 726.776 -0.964412 -3.80055 0
M  V30 7673 H 728.266 -0.0480679 -4.17572 0
M  V30 7674 N 728.703 1.26451 -0.940633 0
M  V30 7675 C 729.951 1.93395 -0.586748 0
M  V30 7676 C 730.272 1.7417 0.876921 0
M  V30 7677 O 729.542 1.097 1.62304 0
M  V30 7678 H 728.122 0.715687 -0.214012 0
M  V30 7679 H 730.784 1.53902 -1.19584 0
M  V30 7680 H 729.88 3.01565 -0.804059 0
M  V30 7681 N 730.181 0.707592 1.40822 0
M  V30 7682 C 731.111 0.0644925 2.33411 0
M  V30 7683 C 732.092 -0.754205 1.52466 0
M  V30 7684 O 733.277 -0.704749 1.80961 0
M  V30 7685 C 730.407 -0.863865 3.36385 0
M  V30 7686 C 729.361 -0.15138 4.27732 0
M  V30 7687 C 728.687 -1.19491 5.21177 0
M  V30 7688 C 729.987 0.989607 5.12839 0
M  V30 7689 H 731.681 0.837829 2.87438 0
M  V30 7690 H 729.227 0.404346 1.38207 0
M  V30 7691 H 731.18 -1.32309 4.0009 0
M  V30 7692 H 729.904 -1.66901 2.80734 0
M  V30 7693 H 728.563 0.287937 3.65467 0
M  V30 7694 H 728.211 -1.9929 4.61836 0
M  V30 7695 H 727.911 -0.723123 5.83134 0
M  V30 7696 H 729.435 -1.6544 5.8776 0
M  V30 7697 H 730.849 0.610114 5.70044 0
M  V30 7698 H 729.246 1.38926 5.83798 0
M  V30 7699 H 730.316 1.82389 4.49291 0
M  V30 7700 N 731.66 -1.50943 0.453197 0
M  V30 7701 C 732.906 -2.02512 -0.108082 0
M  V30 7702 C 733.239 -1.33574 -1.40967 0
M  V30 7703 O 732.514 -0.455671 -1.89087 0
M  V30 7704 C 732.797 -3.58759 -0.310453 0
M  V30 7705 C 732.65 -4.38293 1.0109 0
M  V30 7706 C 733.969 -4.26816 -1.07313 0
M  V30 7707 H 731.088 -0.73603 -0.0378064 0
M  V30 7708 H 733.73 -1.80433 0.595295 0
M  V30 7709 H 731.88 -3.77702 -0.909582 0
M  V30 7710 H 733.552 -4.30964 1.64523 0
M  V30 7711 H 731.795 -4.02745 1.61179 0
M  V30 7712 H 732.466 -5.45828 0.82315 0
M  V30 7713 H 734.942 -4.1224 -0.565473 0
M  V30 7714 H 733.818 -5.35989 -1.1835 0
M  V30 7715 H 734.079 -3.88757 -2.10525 0
M  V30 7716 N 733.138 -0.185124 -1.56509 0
M  V30 7717 C 734.363 0.465278 -2.02114 0
M  V30 7718 C 734.788 1.55083 -1.06447 0
M  V30 7719 O 734.146 1.81241 -0.0462852 0
M  V30 7720 C 734.194 1.00784 -3.46229 0
M  V30 7721 O 733.298 2.12123 -3.53663 0
M  V30 7722 H 732.639 0.109891 -0.654843 0
M  V30 7723 H 735.169 -0.293072 -2.0249 0
M  V30 7724 H 735.179 1.32697 -3.85818 0
M  V30 7725 H 733.854 0.213113 -4.15354 0
M  V30 7726 H 732.431 1.8115 -3.25943 0
M  V30 7727 N 734.616 1.57351 0.0885366 0
M  V30 7728 C 735.546 2.05561 1.10757 0
M  V30 7729 C 736.527 0.945789 1.41382 0
M  V30 7730 O 737.712 1.21747 1.51299 0
M  V30 7731 C 734.842 2.48554 2.42566 0
M  V30 7732 C 733.796 3.63259 2.26334 0
M  V30 7733 C 733.122 3.9225 3.63378 0
M  V30 7734 C 734.422 4.93913 1.69844 0
M  V30 7735 H 736.116 2.90946 0.706468 0
M  V30 7736 H 733.662 1.39968 0.338385 0
M  V30 7737 H 735.615 2.8089 3.14132 0
M  V30 7738 H 734.339 1.60176 2.84625 0
M  V30 7739 H 732.998 3.31179 1.57213 0
M  V30 7740 H 732.646 3.0103 4.02976 0
M  V30 7741 H 732.346 4.69478 3.53362 0
M  V30 7742 H 733.87 4.27067 4.36401 0
M  V30 7743 H 735.284 5.24588 2.31258 0
M  V30 7744 H 733.681 5.75349 1.70569 0
M  V30 7745 H 734.751 4.80409 0.65843 0
M  V30 7746 N 736.094 -0.359525 1.53444 0
M  V30 7747 C 737.024 -1.44662 1.8329 0
M  V30 7748 C 738.005 -1.55617 0.68683 0
M  V30 7749 O 739.19 -1.70086 0.93725 0
M  V30 7750 C 736.32 -2.81923 2.02822 0
M  V30 7751 C 735.274 -2.85787 3.18606 0
M  V30 7752 C 734.6 -4.25781 3.23442 0
M  V30 7753 C 735.9 -2.52762 4.57065 0
M  V30 7754 H 737.594 -1.19934 2.74329 0
M  V30 7755 H 735.14 -0.575517 1.31999 0
M  V30 7756 H 737.093 -3.58005 2.22285 0
M  V30 7757 H 735.817 -3.08051 1.085 0
M  V30 7758 H 734.476 -2.12157 2.98973 0
M  V30 7759 H 734.124 -4.48994 2.26745 0
M  V30 7760 H 733.824 -4.29281 4.01238 0
M  V30 7761 H 735.348 -5.03727 3.45096 0
M  V30 7762 H 736.762 -3.18557 4.76649 0
M  V30 7763 H 735.159 -2.67569 5.37147 0
M  V30 7764 H 736.229 -1.47993 4.61764 0
M  V30 7765 N 737.572 -1.44907 -0.619662 0
M  V30 7766 C 738.812 -1.49822 -1.39042 0
M  V30 7767 C 739.176 -0.131803 -1.91547 0
M  V30 7768 O 740.377 -0.0556413 -2.68742 0
M  V30 7769 C 738.648 -2.53805 -2.5163 0
M  V30 7770 S 740.207 -2.77855 -3.3962 0
M  V30 7771 H 737.025 -0.529774 -0.474195 0
M  V30 7772 H 739.627 -1.81907 -0.716236 0
M  V30 7773 H 738.331 -3.51772 -2.11387 0
M  V30 7774 H 737.862 -2.23331 -3.23863 0
M  V30 7775 H 739.877 -2.10319 -4.49422 0
M  V30 7776 N 739.05 0.861098 -1.31996 0
M  V30 7777 C 740.466 1.14827 -1.10846 0
M  V30 7778 C 740.666 2.0117 0.11528 0
M  V30 7779 O 739.722 2.39423 0.802048 0
M  V30 7780 C 741.035 1.83183 -2.38462 0
M  V30 7781 C 742.583 1.95847 -2.44158 0
M  V30 7782 C 743.058 2.67617 -3.71679 0
M  V30 7783 N 744.549 2.75147 -3.72624 0
M  V30 7784 C 745.284 3.31314 -4.67994 0
M  V30 7785 N 744.78 3.88343 -5.73726 0
M  V30 7786 N 746.573 3.29356 -4.55501 0
M  V30 7787 H 738.724 0.285951 -2.10466 0
M  V30 7788 H 740.987 0.189303 -0.928907 0
M  V30 7789 H 740.693 1.27193 -3.27895 0
M  V30 7790 H 740.567 2.83393 -2.48935 0
M  V30 7791 H 742.954 2.50999 -1.55189 0
M  V30 7792 H 743.035 0.94653 -2.37644 0
M  V30 7793 H 742.679 2.13131 -4.61018 0
M  V30 7794 H 742.609 3.69237 -3.75462 0
M  V30 7795 H 745.1 2.34682 -2.96197 0
M  V30 7796 H 745.413 4.29338 -6.42564 0
M  V30 7797 H 743.758 3.86693 -5.77489 0
M  V30 7798 H 746.949 2.84047 -3.72069 0
M  V30 7799 H 747.122 3.7283 -5.30001 0
M  V30 7800 N 740.528 1.15101 1.07655 0
M  V30 7801 C 741.478 0.813448 2.12995 0
M  V30 7802 C 742.462 -0.200899 1.59641 0
M  V30 7803 O 743.654 -0.00209918 1.77 0
M  V30 7804 C 740.783 0.301078 3.41977 0
M  V30 7805 C 739.869 1.3454 4.02194 0
M  V30 7806 N 740.26 2.55181 4.36711 0
M  V30 7807 C 738.558 1.19742 4.29625 0
M  V30 7808 C 739.259 3.22094 4.84387 0
M  V30 7809 N 738.235 2.49486 4.82968 0
M  V30 7810 H 742.037 1.73105 2.37511 0
M  V30 7811 H 739.551 1.03601 1.25063 0
M  V30 7812 H 741.548 0.040914 4.1688 0
M  V30 7813 H 740.208 -0.610629 3.18907 0
M  V30 7814 H 741.219 2.92349 4.27496 0
M  V30 7815 H 737.896 0.345353 4.16069 0
M  V30 7816 H 739.286 4.24996 5.20411 0
M  V30 7817 N 742.006 -1.2595 0.947325 0
M  V30 7818 C 742.953 -2.26159 0.460497 0
M  V30 7819 C 743.923 -1.58919 -0.483125 0
M  V30 7820 O 745.108 -1.86603 -0.397983 0
M  V30 7821 C 742.248 -3.441 -0.26247 0
M  V30 7822 C 741.361 -4.25999 0.717539 0
M  V30 7823 C 740.496 -5.31193 -0.0272486 0
M  V30 7824 C 739.535 -6.04774 0.944177 0
M  V30 7825 N 738.672 -7.01721 0.230741 0
M  V30 7826 H 743.512 -2.67173 1.31995 0
M  V30 7827 H 741.049 -1.31358 0.662088 0
M  V30 7828 H 743.007 -4.11317 -0.698137 0
M  V30 7829 H 741.637 -3.03983 -1.08602 0
M  V30 7830 H 740.689 -3.58513 1.27171 0
M  V30 7831 H 742.001 -4.76981 1.45913 0
M  V30 7832 H 741.155 -6.04451 -0.521903 0
M  V30 7833 H 739.894 -4.81066 -0.801682 0
M  V30 7834 H 738.899 -5.30338 1.4499 0
M  V30 7835 H 740.124 -6.56991 1.71872 0
M  V30 7836 H 738.07 -6.53895 -0.525088 0
M  V30 7837 H 737.987 -7.50484 0.911556 0
M  V30 7838 H 739.255 -7.79122 -0.242616 0
M  V30 7839 N 743.484 -0.715051 -1.40445 0
M  V30 7840 C 744.9 -0.388555 -1.54798 0
M  V30 7841 C 745.1 1.10271 -1.68649 0
M  V30 7842 O 744.156 1.88875 -1.67578 0
M  V30 7843 C 745.469 -1.15414 -2.77669 0
M  V30 7844 C 747.017 -1.14039 -2.91486 0
M  V30 7845 C 747.492 -1.88812 -4.1727 0
M  V30 7846 N 748.983 -1.85878 -4.24268 0
M  V30 7847 C 749.718 -2.40558 -5.20499 0
M  V30 7848 N 749.214 -3.03791 -6.22642 0
M  V30 7849 N 751.007 -2.30703 -5.12574 0
M  V30 7850 H 743.158 -1.68201 -1.297 0
M  V30 7851 H 745.421 -0.710915 -0.627139 0
M  V30 7852 H 745.127 -2.20853 -2.7371 0
M  V30 7853 H 745.001 -0.745412 -3.69761 0
M  V30 7854 H 747.388 -0.0941996 -2.9495 0
M  V30 7855 H 747.469 -1.58834 -2.00513 0
M  V30 7856 H 747.113 -2.93422 -4.14568 0
M  V30 7857 H 747.043 -1.41438 -5.0725 0
M  V30 7858 H 749.534 -1.39794 -3.51093 0
M  V30 7859 H 749.847 -3.43032 -6.92495 0
M  V30 7860 H 748.192 -3.07875 -6.23087 0
M  V30 7861 H 751.383 -1.80961 -4.31707 0
M  V30 7862 H 751.556 -2.73618 -5.87398 0
M  V30 7863 N 744.962 1.50701 -0.461195 0
M  V30 7864 C 745.909 2.2831 0.338094 0
M  V30 7865 C 746.879 1.32928 0.995957 0
M  V30 7866 O 748.064 1.61857 1.0103 0
M  V30 7867 C 745.204 3.14539 1.41983 0
M  V30 7868 C 744.317 4.24942 0.77773 0
M  V30 7869 C 743.452 4.98443 1.83652 0
M  V30 7870 C 742.491 6.00733 1.17413 0
M  V30 7871 N 741.628 6.6755 2.17533 0
M  V30 7872 H 746.468 2.96167 -0.330051 0
M  V30 7873 H 744.005 1.4606 -0.174611 0
M  V30 7874 H 745.963 3.62877 2.05855 0
M  V30 7875 H 744.593 2.48749 2.05727 0
M  V30 7876 H 743.645 3.80391 0.0266924 0
M  V30 7877 H 744.957 4.98151 0.254362 0
M  V30 7878 H 744.111 5.50449 2.55129 0
M  V30 7879 H 742.85 4.24917 2.39367 0
M  V30 7880 H 741.855 5.47997 0.444944 0
M  V30 7881 H 743.08 6.76227 0.624006 0
M  V30 7882 H 741.026 5.96823 2.72284 0
M  V30 7883 H 740.943 7.36603 1.70154 0
M  V30 7884 H 742.211 7.24178 2.88421 0
M  V30 7885 N 746.441 0.193421 1.56409 0
M  V30 7886 C 747.373 -0.759944 2.16235 0
M  V30 7887 C 748.386 -1.17797 1.12373 0
M  V30 7888 O 749.575 -1.11399 1.39472 0
M  V30 7889 C 746.675 -2.03735 2.70823 0
M  V30 7890 C 745.848 -1.77939 3.9957 0
M  V30 7891 C 744.907 -2.90111 4.39001 0
M  V30 7892 O 743.933 -2.59791 5.06456 0
M  V30 7893 N 745.135 -4.18426 4.02368 0
M  V30 7894 H 747.9 -0.248348 2.98669 0
M  V30 7895 H 745.461 0.0113966 1.61896 0
M  V30 7896 H 747.453 -2.77914 2.94187 0
M  V30 7897 H 746.023 -2.46022 1.92852 0
M  V30 7898 H 745.243 -0.875491 3.84355 0
M  V30 7899 H 746.531 -1.58099 4.83614 0
M  V30 7900 H 745.929 -4.45913 3.48106 0
M  V30 7901 H 744.486 -4.89237 4.30686 0
M  V30 7902 N 747.919 -1.57396 -0.0801906 0
M  V30 7903 C 748.849 -2.06145 -1.09665 0
M  V30 7904 C 749.83 -0.953273 -1.40878 0
M  V30 7905 O 751.015 -1.22548 -1.50651 0
M  V30 7906 C 748.145 -2.49836 -2.41245 0
M  V30 7907 C 747.099 -3.64454 -2.24405 0
M  V30 7908 C 746.425 -3.94172 -3.61293 0
M  V30 7909 C 747.725 -4.94807 -1.67223 0
M  V30 7910 H 749.419 -2.91316 -0.691028 0
M  V30 7911 H 746.965 -1.40145 -0.330957 0
M  V30 7912 H 748.918 -2.82552 -3.12638 0
M  V30 7913 H 747.642 -1.61683 -2.83771 0
M  V30 7914 H 746.301 -3.32008 -1.55454 0
M  V30 7915 H 745.949 -3.03163 -4.01374 0
M  V30 7916 H 745.649 -4.71345 -3.50867 0
M  V30 7917 H 747.173 -4.29376 -4.3413 0
M  V30 7918 H 748.587 -5.25807 -2.28472 0
M  V30 7919 H 746.984 -5.76245 -1.67515 0
M  V30 7920 H 748.054 -4.80751 -0.632944 0
M  V30 7921 N 749.397 0.351382 -1.53633 0
M  V30 7922 C 750.808 0.927429 -1.62036 0
M  V30 7923 C 751.159 1.89809 -0.496706 0
M  V30 7924 O 750.284 2.1313 0.374749 0
M  V30 7925 C 750.879 1.68886 -2.93706 0
M  V30 7926 C 749.438 2.21404 -3.04397 0
M  V30 7927 C 748.585 1.03075 -2.57431 0
M  V30 7928 H 751.536 0.129748 -1.58169 0
M  V30 7929 H 751.557 2.55116 -2.82305 0
M  V30 7930 H 751.069 0.982149 -3.75467 0
M  V30 7931 H 749.17 2.95274 -2.27253 0
M  V30 7932 H 749.283 2.48312 -4.09729 0
M  V30 7933 H 747.647 1.40188 -2.12649 0
M  V30 7934 H 748.43 0.338793 -3.41624 0
M  V30 7935 N 750.875 1.45233 0.611969 0
M  V30 7936 C 751.785 1.56098 1.7513 0
M  V30 7937 C 752.801 0.445646 1.68196 0
M  V30 7938 O 753.977 0.705718 1.88631 0
M  V30 7939 C 751.042 1.52052 3.11579 0
M  V30 7940 C 750.103 2.74589 3.29999 0
M  V30 7941 C 749.336 2.70726 4.59938 0
M  V30 7942 O 749.559 1.77806 5.41979 0
M  V30 7943 O 748.493 3.61864 4.80976 0
M  V30 7944 H 752.319 2.52392 1.68914 0
M  V30 7945 H 749.904 1.27695 0.775528 0
M  V30 7946 H 751.786 1.52387 3.92882 0
M  V30 7947 H 750.461 0.589085 3.18295 0
M  V30 7948 H 749.368 2.79817 2.48301 0
M  V30 7949 H 750.701 3.66843 3.28157 0
M  V30 7950 N 752.353 -0.854086 1.3245 0
M  V30 7951 C 753.263 -1.99503 1.23434 0
M  V30 7952 C 754.279 -1.73371 0.147828 0
M  V30 7953 O 755.455 -1.97998 0.368609 0
M  V30 7954 C 752.52 -3.33192 0.958328 0
M  V30 7955 C 751.581 -3.72542 2.13333 0
M  V30 7956 C 750.814 -4.99852 1.8704 0
M  V30 7957 O 751.037 -5.64573 0.813239 0
M  V30 7958 O 749.971 -5.36345 2.73161 0
M  V30 7959 H 753.797 -2.10046 2.1935 0
M  V30 7960 H 751.382 -0.984823 1.12346 0
M  V30 7961 H 753.264 -4.13327 0.820918 0
M  V30 7962 H 751.939 -3.23687 0.0293299 0
M  V30 7963 H 750.846 -2.92981 2.32622 0
M  V30 7964 H 752.179 -3.86694 3.04514 0
M  V30 7965 N 753.831 -1.1567 -1.07043 0
M  V30 7966 C 754.778 -0.856336 -2.14326 0
M  V30 7967 C 755.748 0.192051 -1.64986 0
M  V30 7968 O 756.933 0.0589148 -1.90709 0
M  V30 7969 C 754.073 -0.355227 -3.43267 0
M  V30 7970 C 753.186 -1.46555 -4.06381 0
M  V30 7971 C 752.321 -0.920245 -5.23168 0
M  V30 7972 C 751.36 -2.00729 -5.78251 0
M  V30 7973 N 750.497 -1.47813 -6.86364 0
M  V30 7974 H 755.337 -1.77514 -2.39359 0
M  V30 7975 H 752.874 -0.885676 -1.17449 0
M  V30 7976 H 754.832 -0.0463804 -4.17174 0
M  V30 7977 H 753.462 0.526649 -3.18475 0
M  V30 7978 H 752.514 -1.89052 -3.30096 0
M  V30 7979 H 753.826 -2.28616 -4.43324 0
M  V30 7980 H 752.98 -0.564127 -6.04072 0
M  V30 7981 H 751.719 -0.0688477 -4.87651 0
M  V30 7982 H 750.724 -2.3722 -4.95991 0
M  V30 7983 H 751.949 -2.86252 -6.15822 0
M  V30 7984 H 749.895 -0.649145 -6.5278 0
M  V30 7985 H 749.812 -2.23498 -7.22208 0
M  V30 7986 H 751.08 -1.15036 -7.70965 0
M  V30 7987 N 755.309 1.25446 -0.953992 0
M  V30 7988 C 756.241 2.25111 -0.431004 0
M  V30 7989 C 757.254 1.56377 0.452764 0
M  V30 7990 O 758.443 1.76579 0.261144 0
M  V30 7991 C 755.543 3.3655 0.39839 0
M  V30 7992 C 754.716 4.34843 -0.472229 0
M  V30 7993 C 753.775 5.25351 0.29886 0
M  V30 7994 O 752.801 5.68396 -0.302522 0
M  V30 7995 N 754.003 5.5824 1.59211 0
M  V30 7996 H 756.768 2.70619 -1.28785 0
M  V30 7997 H 754.329 1.39346 -0.824281 0
M  V30 7998 H 756.321 3.94059 0.921941 0
M  V30 7999 H 754.891 2.90436 1.15609 0
M  V30 8000 H 754.111 3.76222 -1.17689 0
M  V30 8001 H 755.399 4.97497 -1.06648 0
M  V30 8002 H 754.797 5.25172 2.10264 0
M  V30 8003 H 753.354 6.18336 2.06164 0
M  V30 8004 N 756.787 0.722489 1.40064 0
M  V30 8005 C 758.198 0.336507 1.83642 0
M  V30 8006 C 758.549 -1.13002 1.6039 0
M  V30 8007 O 757.674 -1.87036 1.08842 0
M  V30 8008 C 758.269 0.603985 3.33373 0
M  V30 8009 C 756.828 0.271637 3.75419 0
M  V30 8010 C 755.975 0.872898 2.63203 0
M  V30 8011 H 758.926 0.921108 1.29233 0
M  V30 8012 H 758.947 -0.128471 3.80283 0
M  V30 8013 H 758.459 1.67141 3.50265 0
M  V30 8014 H 756.56 -0.790455 3.64119 0
M  V30 8015 H 756.673 0.745457 4.73265 0
M  V30 8016 H 755.037 0.300431 2.52922 0
M  V30 8017 H 755.82 1.94473 2.82905 0
M  V30 8018 N 758.265 -1.50454 0.469181 0
M  V30 8019 C 759.195 -2.31353 -0.31592 0
M  V30 8020 C 760.176 -1.38172 -0.992094 0
M  V30 8021 O 761.361 -1.67093 -0.989633 0
M  V30 8022 C 758.491 -3.1786 -1.39937 0
M  V30 8023 C 757.445 -4.19578 -0.844909 0
M  V30 8024 C 756.771 -4.9481 -2.0265 0
M  V30 8025 C 758.071 -5.22106 0.142499 0
M  V30 8026 H 759.765 -2.97237 0.359269 0
M  V30 8027 H 757.311 -1.42942 0.174224 0
M  V30 8028 H 759.264 -3.7325 -1.95607 0
M  V30 8029 H 757.988 -2.49858 -2.1033 0
M  V30 8030 H 756.647 -3.65285 -0.310189 0
M  V30 8031 H 756.295 -4.23282 -2.71737 0
M  V30 8032 H 755.995 -5.63613 -1.66174 0
M  V30 8033 H 757.519 -5.53035 -2.58815 0
M  V30 8034 H 758.933 -5.72378 -0.324966 0
M  V30 8035 H 757.33 -5.98618 0.421441 0
M  V30 8036 H 758.4 -4.7297 1.06901 0
M  V30 8037 N 759.743 -0.201713 -1.56304 0
M  V30 8038 C 760.673 0.71155 -2.22394 0
M  V30 8039 C 761.654 1.21625 -1.18917 0
M  V30 8040 O 762.839 1.26388 -1.47444 0
M  V30 8041 C 759.969 1.92837 -2.88845 0
M  V30 8042 C 758.923 1.55831 -3.98623 0
M  V30 8043 C 758.249 2.85228 -4.52271 0
M  V30 8044 C 759.549 0.763249 -5.16693 0
M  V30 8045 H 761.243 0.160573 -2.98969 0
M  V30 8046 H 758.789 0.0757916 -1.438 0
M  V30 8047 H 760.742 2.57253 -3.33764 0
M  V30 8048 H 759.466 2.50398 -2.09686 0
M  V30 8049 H 758.125 0.9377 -3.54405 0
M  V30 8050 H 757.773 3.40893 -3.69866 0
M  V30 8051 H 757.473 2.6121 -5.26349 0
M  V30 8052 H 758.997 3.50622 -4.99897 0
M  V30 8053 H 760.411 1.31066 -5.58117 0
M  V30 8054 H 758.808 0.620935 -5.96879 0
M  V30 8055 H 759.878 -0.234322 -4.84334 0
M  V30 8056 N 761.222 1.57436 0.0718424 0
M  V30 8057 C 762.155 1.98982 1.11721 0
M  V30 8058 C 763.133 0.866731 1.37574 0
M  V30 8059 O 764.317 1.12903 1.50948 0
M  V30 8060 C 761.444 2.32648 2.46155 0
M  V30 8061 C 760.49 3.54964 2.36437 0
M  V30 8062 S 761.323 5.05802 1.75854 0
M  V30 8063 C 762.479 5.42669 3.11867 0
M  V30 8064 H 762.712 2.87338 0.763154 0
M  V30 8065 H 760.245 1.51833 0.280372 0
M  V30 8066 H 762.203 2.52719 3.23486 0
M  V30 8067 H 760.864 1.44821 2.78722 0
M  V30 8068 H 760.057 3.76038 3.35577 0
M  V30 8069 H 759.659 3.34524 1.67242 0
M  V30 8070 H 761.951 5.40737 4.08178 0
M  V30 8071 H 762.894 6.43461 2.95573 0
M  V30 8072 H 763.302 4.70131 3.1247 0
M  V30 8073 N 762.7 -0.34323 1.53817 0
M  V30 8074 C 763.61 -1.44493 1.84821 0
M  V30 8075 C 764.626 -1.57556 0.738381 0
M  V30 8076 O 765.802 -1.73026 1.03072 0
M  V30 8077 C 762.867 -2.79478 2.05166 0
M  V30 8078 C 761.928 -2.75756 3.29025 0
M  V30 8079 C 761.161 -4.04302 3.4839 0
M  V30 8080 O 761.384 -5.01595 2.71586 0
M  V30 8081 O 760.318 -4.08754 4.41819 0
M  V30 8082 H 764.144 -1.21209 2.78464 0
M  V30 8083 H 761.729 -0.535437 1.39476 0
M  V30 8084 H 763.611 -3.59419 2.19991 0
M  V30 8085 H 762.286 -3.02692 1.14713 0
M  V30 8086 H 761.193 -1.94434 3.19603 0
M  V30 8087 H 762.526 -2.57495 4.19472 0
M  V30 8088 N 764.178 -1.45556 -0.604258 0
M  V30 8089 C 765.125 -1.54482 -1.71476 0
M  V30 8090 C 766.095 -0.390479 -1.61445 0
M  V30 8091 O 767.28 -0.604371 -1.80975 0
M  V30 8092 C 764.42 -1.52064 -3.09791 0
M  V30 8093 C 763.533 -2.78073 -3.30604 0
M  V30 8094 C 762.668 -2.67304 -4.59044 0
M  V30 8095 C 761.707 -3.88352 -4.73127 0
M  V30 8096 N 760.844 -3.76098 -5.9287 0
M  V30 8097 H 765.684 -2.49349 -1.63184 0
M  V30 8098 H 763.221 -1.23725 -0.795641 0
M  V30 8099 H 765.179 -1.48649 -3.89819 0
M  V30 8100 H 763.809 -0.607442 -3.17033 0
M  V30 8101 H 762.861 -2.91561 -2.44329 0
M  V30 8102 H 764.173 -3.67847 -3.36883 0
M  V30 8103 H 763.327 -2.61875 -5.47272 0
M  V30 8104 H 762.066 -1.75135 -4.55169 0
M  V30 8105 H 761.071 -3.94137 -3.83322 0
M  V30 8106 H 762.296 -4.81591 -4.78797 0
M  V30 8107 H 760.242 -2.867 -5.90033 0
M  V30 8108 H 760.159 -4.59509 -6.00323 0
M  V30 8109 H 761.427 -3.74607 -6.83586 0
M  V30 8110 N 765.656 0.84705 -1.32902 0
M  V30 8111 C 766.566 1.98845 -1.2449 0
M  V30 8112 C 767.582 1.7329 -0.15702 0
M  V30 8113 O 768.758 1.978 -0.379104 0
M  V30 8114 C 765.823 3.32679 -0.975985 0
M  V30 8115 C 764.884 3.71405 -2.15306 0
M  V30 8116 C 764.117 4.98853 -1.89688 0
M  V30 8117 O 764.34 5.64134 -0.843168 0
M  V30 8118 O 763.274 5.34889 -2.76002 0
M  V30 8119 H 767.1 2.0888 -2.2046 0
M  V30 8120 H 764.685 0.978852 -1.12867 0
M  V30 8121 H 766.567 4.12885 -0.842826 0
M  V30 8122 H 765.242 3.23667 -0.0464954 0
M  V30 8123 H 764.149 2.91743 -2.34172 0
M  V30 8124 H 765.482 3.85073 -3.06561 0
M  V30 8125 N 767.134 1.16236 1.06428 0
M  V30 8126 C 768.411 0.853294 1.76006 0
M  V30 8127 C 768.791 -0.649162 2.00871 0
M  V30 8128 O 768.139 -1.59653 1.63472 0
M  V30 8129 C 768.349 1.67448 3.06206 0
M  V30 8130 C 769.697 1.8866 3.80385 0
M  V30 8131 O 770.721 1.64303 3.16043 0
M  V30 8132 O 769.58 2.29518 4.95968 0
M  V30 8133 H 766.674 0.314737 0.764767 0
M  V30 8134 H 769.22 1.26865 1.12709 0
M  V30 8135 H 767.992 2.69411 2.83784 0
M  V30 8136 H 767.615 1.25608 3.77238 0
M  V30 8137 N 768.612 -1.24939 0.960631 0
M  V30 8138 C 769.842 -1.96595 0.635123 0
M  V30 8139 C 770.25 -1.71538 -0.798206 0
M  V30 8140 O 769.593 -0.991727 -1.5463 0
M  V30 8141 C 769.655 -3.49994 0.821248 0
M  V30 8142 C 769.319 -3.98738 2.23287 0
M  V30 8143 C 770.316 -4.08965 3.21004 0
M  V30 8144 C 768.001 -4.32247 2.55867 0
M  V30 8145 C 769.995 -4.52025 4.49391 0
M  V30 8146 C 767.682 -4.74991 3.84482 0
M  V30 8147 C 768.68 -4.84844 4.81056 0
M  V30 8148 O 768.368 -5.26638 6.07378 0
M  V30 8149 H 768.1 -0.633265 0.23654 0
M  V30 8150 H 770.654 -1.5991 1.28911 0
M  V30 8151 H 768.884 -3.86543 0.110105 0
M  V30 8152 H 770.573 -4.02859 0.495892 0
M  V30 8153 H 771.339 -3.83302 2.97161 0
M  V30 8154 H 767.218 -4.23801 1.81421 0
M  V30 8155 H 770.762 -4.5963 5.24773 0
M  V30 8156 H 766.659 -5.00101 4.08129 0
M  V30 8157 H 767.427 -5.44807 6.10842 0
M  V30 8158 N 770.09 -0.729906 -1.39679 0
M  V30 8159 C 771.04 -0.0627678 -2.27914 0
M  V30 8160 C 772.024 0.717867 -1.43998 0
M  V30 8161 O 773.216 0.587713 -1.66958 0
M  V30 8162 C 770.345 0.847564 -3.32673 0
M  V30 8163 C 769.431 0.0613515 -4.24056 0
M  V30 8164 N 769.822 -0.962863 -4.96551 0
M  V30 8165 C 768.12 0.291773 -4.45045 0
M  V30 8166 C 768.821 -1.43652 -5.63683 0
M  V30 8167 N 767.797 -0.756044 -5.38317 0
M  V30 8168 H 771.599 -0.847545 -2.81414 0
M  V30 8169 H 769.113 -0.563776 -1.523 0
M  V30 8170 H 771.11 1.34094 -3.94746 0
M  V30 8171 H 769.77 1.63156 -2.80732 0
M  V30 8172 H 770.781 -1.34409 -5.00154 0
M  V30 8173 H 767.458 1.05097 -4.04056 0
M  V30 8174 H 768.848 -2.28835 -6.31731 0
M  V30 8175 N 771.568 1.50203 -0.477153 0
M  V30 8176 C 772.793 2.07263 0.0754986 0
M  V30 8177 C 773.218 1.33801 1.32208 0
M  V30 8178 O 772.576 0.387482 1.77111 0
M  V30 8179 C 772.624 3.59028 0.336348 0
M  V30 8180 O 771.728 3.87339 1.4157 0
M  V30 8181 H 771.069 0.663815 -0.015662 0
M  V30 8182 H 773.599 1.93321 -0.669936 0
M  V30 8183 H 773.609 4.03927 0.575034 0
M  V30 8184 H 772.284 4.11912 -0.574551 0
M  V30 8185 H 770.861 3.54272 1.16385 0
M  V30 8186 N 773.046 0.209999 1.56195 0
M  V30 8187 C 773.976 -0.699746 2.22769 0
M  V30 8188 C 774.957 -1.20993 1.1956 0
M  V30 8189 O 776.142 -1.25605 1.48112 0
M  V30 8190 C 773.272 -1.91302 2.89863 0
M  V30 8191 C 772.226 -1.53715 3.99444 0
M  V30 8192 C 771.552 -2.82826 4.53777 0
M  V30 8193 C 772.852 -0.735836 5.17091 0
M  V30 8194 H 774.546 -0.144716 2.9905 0
M  V30 8195 H 772.092 -0.0681645 1.43839 0
M  V30 8196 H 774.045 -2.5548 3.35124 0
M  V30 8197 H 772.769 -2.49283 2.11011 0
M  V30 8198 H 771.428 -0.918892 3.54897 0
M  V30 8199 H 771.076 -3.38927 3.71669 0
M  V30 8200 H 770.776 -2.58415 5.27727 0
M  V30 8201 H 772.3 -3.47966 5.01749 0
M  V30 8202 H 773.714 -1.28105 5.58804 0
M  V30 8203 H 772.111 -0.589272 5.972 0
M  V30 8204 H 773.181 0.260004 4.84202 0
M  V30 8205 N 774.524 -1.57472 -0.0634922 0
M  V30 8206 C 775.754 -1.91608 -0.772645 0
M  V30 8207 C 776.162 -0.805019 -1.71219 0
M  V30 8208 O 775.505 0.229941 -1.82255 0
M  V30 8209 C 775.567 -3.21281 -1.61304 0
M  V30 8210 C 775.231 -4.49177 -0.841973 0
M  V30 8211 C 776.228 -5.19661 -0.157494 0
M  V30 8212 C 773.913 -4.9578 -0.80669 0
M  V30 8213 C 775.907 -6.35006 0.551948 0
M  V30 8214 C 773.594 -6.11028 -0.0934812 0
M  V30 8215 C 774.592 -6.80493 0.58463 0
M  V30 8216 O 774.28 -7.93542 1.28633 0
M  V30 8217 H 774.012 -0.637685 -0.224352 0
M  V30 8218 H 776.566 -2.05369 -0.0355279 0
M  V30 8219 H 774.796 -3.03752 -2.39315 0
M  V30 8220 H 776.485 -3.41003 -2.20162 0
M  V30 8221 H 777.251 -4.84681 -0.176006 0
M  V30 8222 H 773.13 -4.41579 -1.32397 0
M  V30 8223 H 776.674 -6.89161 1.0818 0
M  V30 8224 H 772.571 -6.45459 -0.0729258 0
M  V30 8225 H 773.339 -8.09708 1.19646 0
M  V30 8226 N 776.003 0.335068 -1.53997 0
M  V30 8227 C 776.935 1.4327 -1.78903 0
M  V30 8228 C 777.948 1.48347 -0.670598 0
M  V30 8229 O 779.137 1.51277 -0.947494 0
M  V30 8230 C 776.237 2.81878 -1.88144 0
M  V30 8231 C 775.41 3.00141 -3.18174 0
M  V30 8232 C 774.469 4.19041 -3.18263 0
M  V30 8233 O 773.495 4.12751 -3.9195 0
M  V30 8234 N 774.697 5.28004 -2.41231 0
M  V30 8235 H 777.462 1.22272 -2.73623 0
M  V30 8236 H 775.023 0.524996 -1.53152 0
M  V30 8237 H 777.015 3.59609 -1.85644 0
M  V30 8238 H 775.585 2.9598 -1.00572 0
M  V30 8239 H 774.805 2.09808 -3.33728 0
M  V30 8240 H 776.093 3.0923 -4.04047 0
M  V30 8241 H 775.491 5.35986 -1.8093 0
M  V30 8242 H 774.048 6.04196 -2.44521 0
M  V30 8243 N 777.481 1.45874 0.596531 0
M  V30 8244 C 778.706 1.54247 1.38646 0
M  V30 8245 C 779.131 0.179571 1.87241 0
M  V30 8246 O 778.489 -0.837831 1.6078 0
M  V30 8247 C 778.537 2.54015 2.55946 0
M  V30 8248 O 777.641 2.06561 3.5694 0
M  V30 8249 H 776.982 0.519555 0.413471 0
M  V30 8250 H 779.512 1.91327 0.724936 0
M  V30 8251 H 779.522 2.73179 3.03047 0
M  V30 8252 H 778.197 3.52994 2.19928 0
M  V30 8253 H 776.774 1.97324 3.16414 0
M  V30 8254 N 778.959 -0.83999 1.33349 0
M  V30 8255 C 779.909 -1.93817 1.20079 0
M  V30 8256 C 780.893 -1.60564 0.103978 0
M  V30 8257 O 782.085 -1.73859 0.331964 0
M  V30 8258 C 779.214 -3.30151 0.941031 0
M  V30 8259 C 778.3 -3.69577 2.08023 0
M  V30 8260 N 778.691 -3.80707 3.3301 0
M  V30 8261 C 776.989 -3.99309 1.98667 0
M  V30 8262 C 777.69 -4.14899 4.07717 0
M  V30 8263 N 776.666 -4.27208 3.36146 0
M  V30 8264 H 780.468 -2.00576 2.14817 0
M  V30 8265 H 777.982 -1.03264 1.2534 0
M  V30 8266 H 779.979 -4.08617 0.826894 0
M  V30 8267 H 778.639 -3.247 0.00216738 0
M  V30 8268 H 779.65 -3.64644 3.67771 0
M  V30 8269 H 776.327 -4.02076 1.12433 0
M  V30 8270 H 777.717 -4.30857 5.15569 0
M  V30 8271 N 780.437 -1.16799 -1.0581 0
M  V30 8272 C 781.367 -0.902241 -2.15364 0
M  V30 8273 C 782.348 0.153351 -1.69407 0
M  V30 8274 O 783.533 0.00442032 -1.94199 0
M  V30 8275 C 780.663 -0.407911 -3.44896 0
M  V30 8276 C 779.617 -1.40197 -4.04387 0
M  V30 8277 C 778.943 -0.765848 -5.29187 0
M  V30 8278 C 780.243 -2.77316 -4.42598 0
M  V30 8279 H 781.937 -1.81841 -2.37853 0
M  V30 8280 H 779.483 -0.875731 -1.14311 0
M  V30 8281 H 781.436 -0.20945 -4.20879 0
M  V30 8282 H 780.16 0.54378 -3.22041 0
M  V30 8283 H 778.819 -1.58707 -3.30466 0
M  V30 8284 H 778.467 0.192482 -5.02632 0
M  V30 8285 H 778.167 -1.42939 -5.69949 0
M  V30 8286 H 779.691 -0.577519 -6.07863 0
M  V30 8287 H 781.105 -2.62561 -5.09642 0
M  V30 8288 H 779.502 -3.4019 -4.94359 0
M  V30 8289 H 780.572 -3.32199 -3.53231 0
M  V30 8290 O 781.954 1.1855 -1.09673 0
M  V30 8291 H 782.645 1.76666 -0.794287 0
M  V30 END ATOM
M  V30 BEGIN BOND
M  V30 END BOND
M  V30 END CTAB
M  END
$$$$
