drugbank_target|O75676 Ribosomal protein S6 kinase alpha-4 (DB03247)
 OpenBabel12092120563D

  0  0  0     0  0            999 V3000
M  V30 BEGIN CTAB
M  V30 COUNTS 12066 12201 0 0 0
M  V30 BEGIN ATOM
M  V30 1 H -0.908 1.98254 -0.117106 0
M  V30 2 N 0 1.576 0 0
M  V30 3 C 0.933 2.03868 1.02534 0
M  V30 4 C 1.911 0.928543 1.3348 0
M  V30 5 O 3.095 1.19667 1.45644 0
M  V30 6 C 0.222 2.43627 2.35294 0
M  V30 7 C -0.732 3.65373 2.2001 0
M  V30 8 S 0.101 5.13292 1.52614 0
M  V30 9 C 1.257 5.56322 2.86805 0
M  V30 10 H 1.49 2.90518 0.631377 0
M  V30 11 H -0.977 1.52953 0.210867 0
M  V30 12 H 0.981 2.67203 3.11629 0
M  V30 13 H -0.358 1.57376 2.7183 0
M  V30 14 H -1.165 3.90944 3.18086 0
M  V30 15 H -1.563 3.418 1.51819 0
M  V30 16 H 0.729 5.58782 3.83104 0
M  V30 17 H 1.672 6.56266 2.65933 0
M  V30 18 H 2.08 4.83886 2.90714 0
M  V30 19 N 1.4781 -0.272755 1.55222 0
M  V30 20 C 2.7261 -1.00234 1.75492 0
M  V30 21 C 3.0471 -1.8681 0.5592 0
M  V30 22 O 2.3171 -1.91215 -0.425882 0
M  V30 23 H 0.8971 -0.373076 0.647166 0
M  V30 24 H 3.5591 -0.296926 1.92625 0
M  V30 25 H 2.6551 -1.63913 2.65592 0
M  V30 26 N 2.9562 -1.48159 -0.537278 0
M  V30 27 C 4.2332 -1.46291 -1.29839 0
M  V30 28 C 4.6132 -0.170613 -2.10409 0
M  V30 29 O 3.9612 0.847746 -2.12192 0
M  V30 30 C 4.1712 -2.72055 -2.18603 0
M  V30 31 C 5.5192 -3.20087 -2.7898 0
M  V30 32 O 6.5432 -2.72921 -2.28894 0
M  V30 33 O 5.4022 -4.02138 -3.70064 0
M  V30 34 H 2.4962 -0.583906 -0.585647 0
M  V30 35 H 5.0422 -1.60384 -0.554534 0
M  V30 36 H 3.8142 -3.57628 -1.58801 0
M  V30 37 H 3.4372 -2.60646 -3.00249 0
M  V30 38 N 4.4343 0.785586 -1.36625 0
M  V30 39 C 5.3443 1.92964 -1.33425 0
M  V30 40 C 6.3603 1.72394 -0.235851 0
M  V30 41 O 7.5363 1.95866 -0.468878 0
M  V30 42 C 4.6013 3.27884 -1.12662 0
M  V30 43 C 3.6623 3.61204 -2.32013 0
M  V30 44 C 2.8953 4.89687 -2.12231 0
M  V30 45 O 3.1183 5.59704 -1.09945 0
M  V30 46 O 2.0523 5.21752 -3.00098 0
M  V30 47 H 5.8783 1.98613 -2.29753 0
M  V30 48 H 3.4633 0.926384 -1.17211 0
M  V30 49 H 5.3453 4.08614 -1.03016 0
M  V30 50 H 4.0203 3.23118 -0.193991 0
M  V30 51 H 2.9273 2.80765 -2.47228 0
M  V30 52 H 4.2603 3.70698 -3.23796 0
M  V30 53 N 5.9124 1.20967 1.01018 0
M  V30 54 C 7.1894 0.93264 1.71934 0
M  V30 55 C 7.5694 -0.55692 2.03621 0
M  V30 56 O 6.9174 -1.52035 1.7058 0
M  V30 57 C 7.1274 1.81233 2.98254 0
M  V30 58 C 8.4754 2.05804 3.71389 0
M  V30 59 O 9.4994 1.78539 3.08225 0
M  V30 60 O 8.3584 2.51888 4.84989 0
M  V30 61 H 5.4524 0.349272 0.749625 0
M  V30 62 H 7.9984 1.31871 1.06808 0
M  V30 63 H 6.7704 2.82067 2.71208 0
M  V30 64 H 6.3934 1.42674 3.7112 0
M  V30 65 N 7.3905 -1.2043 1.01659 0
M  V30 66 C 8.6675 -1.8548 0.621004 0
M  V30 67 C 9.0475 -1.9091 -0.900919 0
M  V30 68 O 8.3955 -1.41694 -1.79263 0
M  V30 69 C 8.6055 -3.25119 1.2688 0
M  V30 70 C 9.9535 -4.01403 1.38423 0
M  V30 71 O 10.9775 -3.34473 1.22501 0
M  V30 72 O 9.8365 -5.21265 1.64151 0
M  V30 73 H 6.9305 -0.798761 0.214266 0
M  V30 74 H 9.4765 -1.28019 1.11396 0
M  V30 75 H 8.2485 -3.15932 2.30873 0
M  V30 76 H 7.8715 -3.90212 0.762917 0
M  V30 77 N 8.8686 -0.792821 -1.36206 0
M  V30 78 C 10.1456 -0.290627 -1.93429 0
M  V30 79 C 10.5256 1.21773 -1.72437 0
M  V30 80 O 9.8736 2.0108 -1.08531 0
M  V30 81 C 10.0836 -0.686973 -3.42172 0
M  V30 82 C 11.4316 -0.668643 -4.19302 0
M  V30 83 O 12.4556 -0.627658 -3.50626 0
M  V30 84 O 11.3146 -0.714597 -5.41808 0
M  V30 85 H 8.4086 -0.0727927 -0.82379 0
M  V30 86 H 10.9546 -0.875593 -1.45367 0
M  V30 87 H 9.7266 -1.72711 -3.51122 0
M  V30 88 H 9.3496 -0.0760733 -3.97527 0
M  V30 89 N 10.3467 1.47872 -0.545128 0
M  V30 90 C 11.2567 2.33633 0.212746 0
M  V30 91 C 12.2727 1.4744 0.923983 0
M  V30 92 O 13.4487 1.80393 0.895572 0
M  V30 93 C 10.5137 3.23884 1.23693 0
M  V30 94 C 9.5747 4.25961 0.534417 0
M  V30 95 C 8.8077 5.11899 1.5098 0
M  V30 96 O 9.0307 5.00077 2.7437 0
M  V30 97 O 7.9647 5.92831 1.0409 0
M  V30 98 H 11.7907 2.99714 -0.490416 0
M  V30 99 H 9.3757 1.46235 -0.305871 0
M  V30 100 H 11.2577 3.79666 1.82843 0
M  V30 101 H 9.9327 2.60446 1.92222 0
M  V30 102 H 8.8397 3.73972 -0.0979679 0
M  V30 103 H 10.1727 4.92079 -0.109213 0
M  V30 104 N 11.8248 0.280983 1.55075 0
M  V30 105 C 13.0498 -0.340154 2.04592 0
M  V30 106 C 13.4748 -1.48246 1.15779 0
M  V30 107 O 12.8328 -1.80614 0.15761 0
M  V30 108 C 12.8808 -0.793104 3.5177 0
M  V30 109 O 11.9848 -1.89981 3.66034 0
M  V30 110 H 11.3258 -0.0694289 0.66036 0
M  V30 111 H 13.8558 0.416993 2.00306 0
M  V30 112 H 13.8658 -1.08729 3.93245 0
M  V30 113 H 12.5408 0.0426163 4.15878 0
M  V30 114 H 11.1178 -1.60771 3.36463 0
M  V30 115 N 13.3029 -1.57598 0.00835791 0
M  V30 116 C 14.5429 -1.92788 -0.679136 0
M  V30 117 C 14.9069 -0.883378 -1.70471 0
M  V30 118 O 16.1079 -1.12079 -2.44319 0
M  V30 119 C 14.3789 -3.32994 -1.29807 0
M  V30 120 S 15.9379 -3.90082 -2.00952 0
M  V30 121 H 12.7559 -0.67475 -0.224127 0
M  V30 122 H 15.3579 -1.95385 0.0670497 0
M  V30 123 H 14.0619 -4.06846 -0.538922 0
M  V30 124 H 13.5929 -3.33791 -2.082 0
M  V30 125 H 15.6079 -3.71834 -3.28563 0
M  V30 126 N 14.781 0.264519 -1.55364 0
M  V30 127 C 15.744 1.31046 -1.88042 0
M  V30 128 C 16.744 1.41943 -0.755569 0
M  V30 129 O 17.934 1.40947 -1.02369 0
M  V30 130 C 15.066 2.69067 -2.09323 0
M  V30 131 H 16.259 1.03297 -2.81549 0
M  V30 132 H 13.812 0.502989 -1.47986 0
M  V30 133 H 14.547 3.01982 -1.18226 0
M  V30 134 H 14.332 2.62542 -2.91229 0
M  V30 135 H 15.822 3.44623 -2.35848 0
M  V30 136 N 16.2591 1.48442 0.529413 0
M  V30 137 C 17.5051 1.5672 1.28711 0
M  V30 138 C 17.8381 0.2406 1.92704 0
M  V30 139 O 17.1131 -0.753454 1.79313 0
M  V30 140 C 17.3961 2.70587 2.37603 0
M  V30 141 C 17.2491 4.12953 1.78297 0
M  V30 142 C 18.5681 2.80212 3.39366 0
M  V30 143 H 15.6871 0.570474 0.466613 0
M  V30 144 H 18.3291 1.80617 0.589706 0
M  V30 145 H 16.4791 2.50342 2.97088 0
M  V30 146 H 18.1511 4.44639 1.22858 0
M  V30 147 H 16.3941 4.19927 1.0883 0
M  V30 148 H 17.0651 4.88448 2.57144 0
M  V30 149 H 19.5411 2.98553 2.89836 0
M  V30 150 H 18.4171 3.61611 4.12951 0
M  V30 151 H 18.6781 1.88393 3.99951 0
M  V30 152 N 17.7372 -0.778329 1.37039 0
M  V30 153 C 18.6472 -1.92253 1.34446 0
M  V30 154 C 19.6632 -1.72267 0.244991 0
M  V30 155 O 20.8392 -1.95615 0.479258 0
M  V30 156 C 17.9042 -3.27282 1.144 0
M  V30 157 C 16.9652 -3.59969 2.33925 0
M  V30 158 C 16.1982 -4.88555 2.14825 0
M  V30 159 O 16.4212 -5.59113 1.12912 0
M  V30 160 O 15.3552 -5.20153 3.02861 0
M  V30 161 H 19.1812 -1.97392 2.30803 0
M  V30 162 H 16.7662 -0.920154 1.17701 0
M  V30 163 H 18.6482 -4.08062 1.05182 0
M  V30 164 H 17.3232 -3.23011 0.211124 0
M  V30 165 H 16.2302 -2.7945 2.48714 0
M  V30 166 H 17.5632 -3.68976 3.25757 0
M  V30 167 N 19.2153 -1.21501 -1.00376 0
M  V30 168 C 20.1453 -0.999478 -2.11028 0
M  V30 169 C 21.1263 0.0759671 -1.6993 0
M  V30 170 O 22.3113 -0.0841106 -1.94018 0
M  V30 171 C 19.4413 -0.564709 -3.42678 0
M  V30 172 C 18.3953 -1.58486 -3.97576 0
M  V30 173 C 17.7213 -1.00628 -5.25146 0
M  V30 174 C 19.0213 -2.97204 -4.29496 0
M  V30 175 H 20.7153 -1.92495 -2.29317 0
M  V30 176 H 18.2613 -0.92693 -1.102 0
M  V30 177 H 20.2143 -0.401091 -4.19487 0
M  V30 178 H 18.9383 0.396411 -3.24185 0
M  V30 179 H 17.5973 -1.73606 -3.22888 0
M  V30 180 H 17.2453 -0.0368439 -5.02987 0
M  V30 181 H 16.9453 -1.68771 -5.62841 0
M  V30 182 H 18.4693 -0.854015 -6.04598 0
M  V30 183 H 19.8833 -2.8552 -4.97143 0
M  V30 184 H 18.2803 -3.62372 -4.78338 0
M  V30 185 H 19.3503 -3.47956 -3.3772 0
M  V30 186 N 20.6934 1.19889 -1.02296 0
M  V30 187 C 22.1094 1.41462 -0.738954 0
M  V30 188 C 22.3094 1.89721 0.678846 0
M  V30 189 O 21.3654 2.07016 1.4457 0
M  V30 190 C 22.6784 2.43083 -1.77005 0
M  V30 191 C 24.2264 2.5684 -1.78892 0
M  V30 192 C 24.7014 3.61709 -2.80945 0
M  V30 193 N 26.1924 3.69199 -2.79725 0
M  V30 194 C 26.9274 4.50019 -3.55345 0
M  V30 195 N 26.4234 5.34592 -4.40662 0
M  V30 196 N 28.2164 4.44612 -3.43914 0
M  V30 197 H 20.3674 0.868827 -1.93817 0
M  V30 198 H 22.6304 0.44399 -0.837602 0
M  V30 199 H 22.3364 2.14636 -2.78612 0
M  V30 200 H 22.2104 3.4217 -1.58744 0
M  V30 201 H 24.5974 2.84614 -0.779674 0
M  V30 202 H 24.6784 1.57927 -2.01228 0
M  V30 203 H 24.3224 3.34678 -3.82038 0
M  V30 204 H 24.2524 4.60259 -2.5587 0
M  V30 205 H 26.7434 3.08794 -2.17842 0
M  V30 206 H 27.0564 5.93363 -4.95116 0
M  V30 207 H 25.4014 5.34073 -4.44737 0
M  V30 208 H 28.5924 3.7758 -2.76679 0
M  V30 209 H 28.7654 5.0736 -4.031 0
M  V30 210 N 22.1715 0.800033 1.35784 0
M  V30 211 C 23.4205 0.37387 1.98205 0
M  V30 212 C 23.7335 -1.06302 1.64193 0
M  V30 213 O 24.9395 -1.59198 2.19928 0
M  V30 214 C 23.3955 0.617532 3.54562 0
M  V30 215 C 23.0035 2.06654 3.9749 0
M  V30 216 C 24.7475 0.256401 4.23725 0
M  V30 217 C 22.6545 2.2563 5.46667 0
M  V30 218 H 21.5845 0.136055 0.741623 0
M  V30 219 H 24.2355 0.983166 1.54939 0
M  V30 220 H 22.6175 -0.0616248 3.95952 0
M  V30 221 H 23.7915 2.78296 3.67271 0
M  V30 222 H 22.1065 2.38691 3.41197 0
M  V30 223 H 24.7035 0.376318 5.33374 0
M  V30 224 H 25.0465 -0.796692 4.08606 0
M  V30 225 H 25.5795 0.889214 3.87734 0
M  V30 226 H 22.3185 3.2936 5.66747 0
M  V30 227 H 21.8385 1.58504 5.78478 0
M  V30 228 H 23.5175 2.06861 6.1304 0
M  V30 229 N 23.6496 -1.47581 0.552962 0
M  V30 230 C 24.8776 -2.06875 0.0320556 0
M  V30 231 C 25.2926 -1.40625 -1.25976 0
M  V30 232 O 24.6496 -0.501349 -1.75479 0
M  V30 233 C 24.7006 -3.61092 -0.17167 0
M  V30 234 O 24.4216 -4.24858 1.06899 0
M  V30 235 C 25.9226 -4.37242 -0.730344 0
M  V30 236 H 23.1426 -0.669561 0.043915 0
M  V30 237 H 25.6866 -1.89646 0.765163 0
M  V30 238 H 23.8416 -3.7785 -0.854894 0
M  V30 239 H 24.2556 -5.17334 0.864059 0
M  V30 240 H 25.7296 -5.45842 -0.822203 0
M  V30 241 H 26.2066 -4.03235 -1.74064 0
M  V30 242 H 26.8126 -4.25219 -0.0829543 0
M  V30 243 N 25.1277 -0.289203 -1.54924 0
M  V30 244 C 26.0377 0.601863 -2.26748 0
M  V30 245 C 27.0537 1.15834 -1.2984 0
M  V30 246 O 28.2297 1.18564 -1.62802 0
M  V30 247 C 25.2947 1.76299 -2.98529 0
M  V30 248 C 24.3557 1.24178 -4.10948 0
M  V30 249 C 23.5887 2.34757 -4.79296 0
M  V30 250 O 23.8117 3.54411 -4.46933 0
M  V30 251 O 22.7457 2.02115 -5.66951 0
M  V30 252 H 26.5717 0.0195879 -3.03694 0
M  V30 253 H 24.1567 -0.0560868 -1.49295 0
M  V30 254 H 26.0387 2.43973 -3.43592 0
M  V30 255 H 24.7137 2.33209 -2.24488 0
M  V30 256 H 23.6207 0.531104 -3.70311 0
M  V30 257 H 24.9537 0.718252 -4.86931 0
M  V30 258 N 26.6058 1.57591 -0.0167156 0
M  V30 259 C 27.5688 2.08393 0.954204 0
M  V30 260 C 28.5688 0.996531 1.26198 0
M  V30 261 O 29.7588 1.25858 1.20438 0
M  V30 262 C 26.8908 2.5394 2.27436 0
M  V30 263 H 28.0838 2.95455 0.514451 0
M  V30 264 H 25.6368 1.54582 0.231089 0
M  V30 265 H 26.3718 1.70171 2.76066 0
M  V30 266 H 26.1568 3.33371 2.06412 0
M  V30 267 H 27.6468 2.93512 2.97053 0
M  V30 268 N 28.0839 -0.256276 1.55502 0
M  V30 269 C 29.0319 -1.33694 1.90338 0
M  V30 270 C 30.0259 -1.50299 0.781441 0
M  V30 271 O 31.2319 -1.51885 0.965966 0
M  V30 272 H 27.6069 -0.447483 0.60437 0
M  V30 273 H 29.5779 -1.01574 2.8058 0
M  V30 274 C 28.3269 -2.68724 2.20642 0
M  V30 275 H 27.6499 -2.56743 3.06469 0
M  V30 276 H 29.0899 -3.43237 2.48926 0
M  V30 277 C 27.5489 -3.21101 1.01959 0
M  V30 278 O 28.0789 -4.0084 0.262762 0
M  V30 279 N 26.2849 -2.79003 0.812746 0
M  V30 280 H 25.8319 -2.14271 1.42989 0
M  V30 281 H 25.7899 -3.14393 0.0203076 0
M  V30 282 N 29.562 -1.4872 -0.521534 0
M  V30 283 C 30.492 -1.66771 -1.63431 0
M  V30 284 C 31.473 -0.516499 -1.62069 0
M  V30 285 O 32.658 -0.750013 -1.79132 0
M  V30 286 C 29.788 -1.71515 -3.01993 0
M  V30 287 C 28.742 -2.86222 -3.18216 0
M  V30 288 C 28.068 -2.76061 -4.57924 0
M  V30 289 C 29.368 -4.27419 -3.00184 0
M  V30 290 H 31.062 -2.59932 -1.48579 0
M  V30 291 H 28.608 -1.25089 -0.713358 0
M  V30 292 H 30.561 -1.82731 -3.7972 0
M  V30 293 H 29.285 -0.749393 -3.17886 0
M  V30 294 H 27.944 -2.74575 -2.42908 0
M  V30 295 H 27.592 -1.77437 -4.70665 0
M  V30 296 H 27.292 -3.53037 -4.69722 0
M  V30 297 H 28.816 -2.89256 -5.37739 0
M  V30 298 H 30.23 -4.39855 -3.67697 0
M  V30 299 H 28.627 -5.05458 -3.2347 0
M  V30 300 H 29.697 -4.43293 -1.96518 0
M  V30 301 N 31.0401 0.771051 -1.3745 0
M  V30 302 C 32.2681 1.56015 -1.35893 0
M  V30 303 C 32.6831 1.88718 0.0555523 0
M  V30 304 O 32.0401 1.51502 1.01752 0
M  V30 305 C 32.0911 2.87001 -2.19801 0
M  V30 306 O 31.8121 2.557 -3.55738 0
M  V30 307 C 33.3131 3.81228 -2.26231 0
M  V30 308 H 30.5331 0.483317 -0.465453 0
M  V30 309 H 33.0771 0.955611 -1.80799 0
M  V30 310 H 31.2321 3.43877 -1.78402 0
M  V30 311 H 31.6461 3.39584 -3.99729 0
M  V30 312 H 33.1201 4.70139 -2.89263 0
M  V30 313 H 33.5971 4.20409 -1.27093 0
M  V30 314 H 34.2031 3.30281 -2.67945 0
M  V30 315 N 32.5182 1.22032 0.997298 0
M  V30 316 C 33.7662 1.04016 1.73278 0
M  V30 317 C 34.0872 -0.426255 1.90284 0
M  V30 318 O 33.3572 -1.30694 1.45931 0
M  V30 319 H 31.9372 0.381897 0.642 0
M  V30 320 H 34.5992 1.5347 1.20137 0
M  V30 321 H 33.6952 1.51441 2.72896 0
M  V30 322 N 33.9963 -1.19345 1.0293 0
M  V30 323 C 34.9463 -2.20472 0.58104 0
M  V30 324 C 35.9303 -1.56578 -0.370442 0
M  V30 325 O 37.1223 -1.75963 -0.191344 0
M  V30 326 C 34.2513 -3.43236 -0.066306 0
M  V30 327 C 33.3373 -4.14274 0.907642 0
M  V30 328 N 33.7283 -4.61492 2.07023 0
M  V30 329 C 32.0263 -4.39966 0.731177 0
M  V30 330 C 32.7273 -5.1605 2.68454 0
M  V30 331 N 31.7033 -5.06875 1.96414 0
M  V30 332 H 35.5053 -2.54659 1.46717 0
M  V30 333 H 33.0193 -1.35423 0.896345 0
M  V30 334 H 35.0163 -4.14927 -0.405068 0
M  V30 335 H 33.6763 -3.10549 -0.948118 0
M  V30 336 H 34.6873 -4.56304 2.44963 0
M  V30 337 H 31.3643 -4.17377 -0.101507 0
M  V30 338 H 32.7543 -5.6287 3.66915 0
M  V30 339 N 35.4744 -0.807222 -1.35358 0
M  V30 340 C 36.3844 -0.219594 -2.3357 0
M  V30 341 C 37.4004 0.637734 -1.61892 0
M  V30 342 O 38.5764 0.549336 -1.93763 0
M  V30 343 C 35.6414 0.62158 -3.41083 0
M  V30 344 C 34.7024 -0.256315 -4.28534 0
M  V30 345 C 33.9354 0.544807 -5.30912 0
M  V30 346 O 34.1584 1.77944 -5.41934 0
M  V30 347 O 33.0924 -0.0646478 -6.01865 0
M  V30 348 H 36.9184 -1.03208 -2.85625 0
M  V30 349 H 34.5034 -0.569025 -1.38139 0
M  V30 350 H 36.3854 1.10067 -4.06772 0
M  V30 351 H 35.0604 1.41165 -2.91297 0
M  V30 352 H 33.9674 -0.782559 -3.65823 0
M  V30 353 H 35.3004 -1.01034 -4.81719 0
M  V30 354 N 36.9525 1.47285 -0.560781 0
M  V30 355 C 37.8625 2.33846 0.187954 0
M  V30 356 C 38.8785 1.48412 0.908293 0
M  V30 357 O 40.0545 1.81332 0.876388 0
M  V30 358 C 37.1195 3.25178 1.2025 0
M  V30 359 C 36.1805 4.26504 0.489208 0
M  V30 360 C 35.4135 5.13472 1.45542 0
M  V30 361 O 35.6365 5.02959 2.6905 0
M  V30 362 O 34.5705 5.93902 0.977963 0
M  V30 363 H 38.3965 2.99177 -0.522177 0
M  V30 364 H 35.9815 1.45903 -0.321364 0
M  V30 365 H 37.8635 3.81584 1.78805 0
M  V30 366 H 36.5385 2.6247 1.89449 0
M  V30 367 H 35.4455 3.73847 -0.137627 0
M  V30 368 H 36.7785 4.91935 -0.161399 0
M  V30 369 N 38.4306 0.297415 1.54768 0
M  V30 370 C 39.3776 -0.580276 2.23386 0
M  V30 371 C 40.3476 -1.13238 1.21517 0
M  V30 372 O 41.5326 -1.17757 1.50126 0
M  V30 373 C 38.6726 -1.74801 2.97555 0
M  V30 374 C 37.7856 -1.22764 4.1419 0
M  V30 375 C 36.9206 -2.35895 4.75949 0
M  V30 376 C 35.9596 -1.80974 5.84735 0
M  V30 377 N 35.0966 -2.87664 6.40464 0
M  V30 378 H 39.9366 0.0114833 2.97998 0
M  V30 379 H 37.4736 0.0174361 1.4709 0
M  V30 380 H 39.4316 -2.43475 3.38786 0
M  V30 381 H 38.0616 -2.31145 2.25326 0
M  V30 382 H 37.1136 -0.433271 3.77924 0
M  V30 383 H 38.4256 -0.785551 4.92575 0
M  V30 384 H 37.5796 -3.12523 5.20014 0
M  V30 385 H 36.3186 -2.83429 3.96887 0
M  V30 386 H 35.3236 -1.02834 5.40097 0
M  V30 387 H 36.5486 -1.34348 6.65678 0
M  V30 388 H 34.4946 -3.34538 5.64287 0
M  V30 389 H 34.4116 -2.4794 7.14186 0
M  V30 390 H 35.6796 -3.642 6.89187 0
M  V30 391 N 39.9087 -1.5758 0.0250728 0
M  V30 392 C 41.1547 -1.91917 -0.655413 0
M  V30 393 C 41.4877 -0.901433 -1.72011 0
M  V30 394 O 40.7627 0.0764069 -1.9435 0
M  V30 395 C 41.0457 -3.36751 -1.27558 0
M  V30 396 C 40.8987 -4.49258 -0.220719 0
M  V30 397 C 42.2177 -3.81469 -2.19475 0
M  V30 398 H 39.3367 -0.697925 -0.23679 0
M  V30 399 H 41.9787 -1.89825 0.0815036 0
M  V30 400 H 40.1287 -3.38664 -1.90365 0
M  V30 401 H 41.8007 -4.59478 0.409601 0
M  V30 402 H 40.0437 -4.31415 0.454264 0
M  V30 403 H 40.7147 -5.47618 -0.694175 0
M  V30 404 H 43.1907 -3.81266 -1.66659 0
M  V30 405 H 42.0667 -4.83512 -2.59822 0
M  V30 406 H 42.3277 -3.16744 -3.08424 0
M  V30 407 N 41.3868 0.248026 -1.55636 0
M  V30 408 C 42.6118 0.998028 -1.81808 0
M  V30 409 C 43.0368 1.78207 -0.601979 0
M  V30 410 O 42.3948 1.75653 0.448961 0
M  V30 411 C 42.4428 1.9125 -3.05705 0
M  V30 412 O 41.5468 3.00406 -2.82542 0
M  V30 413 H 40.8878 0.284045 -0.600179 0
M  V30 414 H 43.4178 0.269357 -2.02819 0
M  V30 415 H 43.4278 2.32737 -3.35108 0
M  V30 416 H 42.1028 1.33602 -3.93857 0
M  V30 417 H 40.6798 2.63056 -2.64303 0
M  V30 418 N 42.8649 1.48995 0.513639 0
M  V30 419 C 44.1109 1.58076 1.27042 0
M  V30 420 C 44.4439 0.261026 1.92438 0
M  V30 421 O 43.7189 -0.734393 1.80103 0
M  V30 422 C 44.0019 2.73091 2.34719 0
M  V30 423 C 43.8549 4.14821 1.73907 0
M  V30 424 C 45.1739 2.83796 3.36375 0
M  V30 425 H 42.2929 0.575391 0.460536 0
M  V30 426 H 44.9349 1.81232 0.570516 0
M  V30 427 H 43.0849 2.53479 2.94416 0
M  V30 428 H 44.7569 4.45917 1.18135 0
M  V30 429 H 42.9999 4.21058 1.0437 0
M  V30 430 H 43.6709 4.91147 2.51949 0
M  V30 431 H 46.1469 3.01611 2.86653 0
M  V30 432 H 45.0229 3.65971 4.09093 0
M  V30 433 H 45.2839 1.92624 3.9793 0
M  V30 434 N 44.343 -0.763751 1.37857 0
M  V30 435 C 45.253 -1.90817 1.36478 0
M  V30 436 C 46.269 -1.71997 0.263248 0
M  V30 437 O 47.445 -1.95095 0.499979 0
M  V30 438 C 44.51 -3.2605 1.17864 0
M  V30 439 C 43.571 -3.57467 2.3773 0
M  V30 440 C 42.804 -4.86249 2.19995 0
M  V30 441 O 43.027 -5.57884 1.18836 0
M  V30 442 O 41.961 -5.16911 3.08361 0
M  V30 443 H 45.787 -1.94933 2.32884 0
M  V30 444 H 43.372 -0.907619 1.1867 0
M  V30 445 H 45.254 -4.06924 1.09504 0
M  V30 446 H 43.929 -3.22769 0.245372 0
M  V30 447 H 42.836 -2.76796 2.51664 0
M  V30 448 H 44.169 -3.655 3.29652 0
M  V30 449 N 45.8211 -1.22559 -0.990812 0
M  V30 450 C 46.7691 -0.994798 -2.10253 0
M  V30 451 C 47.7631 0.0627798 -1.69284 0
M  V30 452 O 48.9691 -0.0898392 -1.79776 0
M  V30 453 H 45.3441 -0.304527 -0.687581 0
M  V30 454 H 47.3151 -1.93812 -2.26891 0
M  V30 455 C 46.0641 -0.591439 -3.42633 0
M  V30 456 H 45.3871 -1.3969 -3.74602 0
M  V30 457 H 46.8271 -0.469385 -4.21394 0
M  V30 458 C 45.2861 0.699232 -3.29564 0
M  V30 459 O 45.8161 1.75112 -3.61523 0
M  V30 460 N 44.0221 0.671182 -2.82743 0
M  V30 461 H 43.5691 -0.185136 -2.56934 0
M  V30 462 H 43.5271 1.53502 -2.7438 0
M  V30 463 N 47.2992 1.18797 -1.03562 0
M  V30 464 C 48.5462 1.8865 -0.736023 0
M  V30 465 C 48.8742 1.80041 0.735889 0
M  V30 466 O 48.1292 1.19179 1.55225 0
M  V30 467 C 48.4282 3.38692 -1.14117 0
M  V30 468 C 48.0942 3.67504 -2.6125 0
M  V30 469 C 46.7562 3.75078 -3.01447 0
M  V30 470 C 49.1082 3.80293 -3.56408 0
M  V30 471 C 46.4362 3.92915 -4.35701 0
M  V30 472 C 48.7882 3.99645 -4.90374 0
M  V30 473 C 47.4522 4.05453 -5.30249 0
M  V30 474 H 46.7222 0.690321 -0.26933 0
M  V30 475 H 49.3692 1.40641 -1.29971 0
M  V30 476 H 47.6742 3.88645 -0.496202 0
M  V30 477 H 49.3712 3.91072 -0.886789 0
M  V30 478 H 45.9612 3.62223 -2.29113 0
M  V30 479 H 50.1452 3.73779 -3.26501 0
M  V30 480 H 45.4012 3.95653 -4.66121 0
M  V30 481 H 49.5752 4.08482 -5.64017 0
M  V30 482 H 47.2022 4.19027 -6.34288 0
M  V30 483 N 48.7773 0.814389 1.34928 0
M  V30 484 C 49.6873 0.231978 2.3345 0
M  V30 485 C 50.7033 -0.629139 1.62228 0
M  V30 486 O 51.8793 -0.539052 1.94052 0
M  V30 487 C 48.9443 -0.603482 3.41407 0
M  V30 488 C 48.0053 0.279037 4.28392 0
M  V30 489 C 47.2383 -0.516643 5.31193 0
M  V30 490 O 47.4613 -1.75068 5.4287 0
M  V30 491 O 46.3953 0.0965652 6.01823 0
M  V30 492 H 50.2213 1.04721 2.85074 0
M  V30 493 H 47.8063 0.576343 1.37836 0
M  V30 494 H 49.6883 -1.07908 4.0735 0
M  V30 495 H 48.3633 -1.39618 2.92042 0
M  V30 496 H 47.2703 0.801948 3.65403 0
M  V30 497 H 48.6033 1.03588 4.81176 0
M  V30 498 N 50.2554 -1.46986 0.568584 0
M  V30 499 C 51.1854 -2.32946 -0.160753 0
M  V30 500 C 52.1664 -1.44487 -0.897631 0
M  V30 501 O 53.3514 -1.73327 -0.875867 0
M  V30 502 C 50.4814 -3.26494 -1.18403 0
M  V30 503 C 49.4354 -4.24282 -0.562895 0
M  V30 504 C 48.7614 -5.07236 -1.69163 0
M  V30 505 C 50.0614 -5.19989 0.490761 0
M  V30 506 H 51.7554 -2.94175 0.556916 0
M  V30 507 H 49.3014 -1.4146 0.26927 0
M  V30 508 H 51.2544 -3.85477 -1.70251 0
M  V30 509 H 49.9784 -2.63343 -1.93179 0
M  V30 510 H 48.6374 -3.66541 -0.0656164 0
M  V30 511 H 48.2854 -4.4048 -2.42871 0
M  V30 512 H 47.9854 -5.7345 -1.28174 0
M  V30 513 H 49.5094 -5.6908 -2.21314 0
M  V30 514 H 50.9234 -5.73271 0.0579047 0
M  V30 515 H 49.3204 -5.94469 0.820165 0
M  V30 516 H 50.3904 -4.64777 1.3824 0
M  V30 517 N 51.7335 -0.305618 -1.54608 0
M  V30 518 C 52.6635 0.561482 -2.26649 0
M  V30 519 C 53.6445 1.13415 -1.26772 0
M  V30 520 O 54.8295 1.16262 -1.55553 0
M  V30 521 C 51.9595 1.73122 -3.01075 0
M  V30 522 C 50.9135 1.2887 -4.08138 0
M  V30 523 C 50.2395 2.54396 -4.70305 0
M  V30 524 C 51.5395 0.416578 -5.20636 0
M  V30 525 H 53.2335 -0.0393902 -2.99374 0
M  V30 526 H 50.7795 -0.020385 -1.43986 0
M  V30 527 H 52.7325 2.34396 -3.50195 0
M  V30 528 H 51.4565 2.3584 -2.25936 0
M  V30 529 H 50.1155 0.698991 -3.59875 0
M  V30 530 H 49.7635 3.15439 -3.918 0
M  V30 531 H 49.4635 2.25486 -5.42614 0
M  V30 532 H 50.9875 3.16464 -5.2219 0
M  V30 533 H 52.4015 0.935116 -5.65622 0
M  V30 534 H 50.7985 0.221046 -5.99693 0
M  V30 535 H 51.8685 -0.557162 -4.81688 0
M  V30 536 N 53.2116 1.57565 -0.0334293 0
M  V30 537 C 54.1586 2.10478 0.946981 0
M  V30 538 C 55.1286 1.00787 1.32027 0
M  V30 539 O 56.3136 1.28232 1.41284 0
M  V30 540 C 53.4536 2.63994 2.22263 0
M  V30 541 C 52.5666 3.87709 1.90541 0
M  V30 542 C 51.7016 4.29604 3.12433 0
M  V30 543 C 50.7406 5.46065 2.76549 0
M  V30 544 N 49.8776 5.83096 3.9108 0
M  V30 545 H 54.7176 2.93963 0.488846 0
M  V30 546 H 52.2546 1.45296 0.22969 0
M  V30 547 H 54.2126 2.93114 2.96884 0
M  V30 548 H 52.8426 1.83333 2.65685 0
M  V30 549 H 51.8946 3.65291 1.06144 0
M  V30 550 H 53.2066 4.72403 1.60116 0
M  V30 551 H 52.3606 4.60182 3.9537 0
M  V30 552 H 51.0996 3.43685 3.46023 0
M  V30 553 H 50.1046 5.15176 1.92026 0
M  V30 554 H 51.3296 6.33685 2.44171 0
M  V30 555 H 49.2756 5.00132 4.24504 0
M  V30 556 H 49.1926 6.6244 3.64293 0
M  V30 557 H 50.4606 6.18282 4.74708 0
M  V30 558 N 54.6897 -0.239769 1.55765 0
M  V30 559 C 55.9357 -0.968234 1.78194 0
M  V30 560 C 56.2687 -1.84701 0.599938 0
M  V30 561 O 55.5437 -1.9031 -0.401524 0
M  V30 562 C 55.8267 -1.8227 3.10564 0
M  V30 563 C 55.6797 -0.971633 4.3918 0
M  V30 564 C 56.9987 -2.80388 3.39221 0
M  V30 565 H 54.1177 -0.350572 0.648281 0
M  V30 566 H 56.7597 -0.238259 1.885 0
M  V30 567 H 54.9097 -2.44507 3.01908 0
M  V30 568 H 56.5817 -0.367408 4.59835 0
M  V30 569 H 54.8247 -0.276276 4.32919 0
M  V30 570 H 55.4957 -1.60346 5.28198 0
M  V30 571 H 57.9717 -2.28287 3.47885 0
M  V30 572 H 56.8477 -3.3729 4.33044 0
M  V30 573 H 57.1087 -3.57212 2.60484 0
M  V30 574 N 56.1678 -1.49265 -0.50573 0
M  V30 575 C 57.0978 -1.68495 -1.61653 0
M  V30 576 C 58.0788 -0.53366 -1.61512 0
M  V30 577 O 59.2638 -0.76897 -1.78327 0
M  V30 578 C 56.3938 -1.74709 -3.00157 0
M  V30 579 C 55.3478 -2.89581 -3.15162 0
M  V30 580 C 54.6738 -2.80903 -4.5497 0
M  V30 581 C 55.9738 -4.30578 -2.95634 0
M  V30 582 H 57.6678 -2.61493 -1.45814 0
M  V30 583 H 55.2138 -1.25838 -0.70005 0
M  V30 584 H 57.1668 -1.86748 -3.77761 0
M  V30 585 H 55.8908 -0.783067 -3.17074 0
M  V30 586 H 54.5498 -2.77136 -2.39982 0
M  V30 587 H 54.1978 -1.82419 -4.68756 0
M  V30 588 H 53.8978 -3.57999 -4.65951 0
M  V30 589 H 55.4218 -2.94944 -5.34641 0
M  V30 590 H 56.8358 -4.4373 -3.63011 0
M  V30 591 H 55.2328 -5.0886 -3.18091 0
M  V30 592 H 56.3028 -4.45352 -1.91806 0
M  V30 593 N 57.6459 0.756429 -1.3826 0
M  V30 594 C 58.8939 1.51248 -1.34047 0
M  V30 595 C 59.2149 1.94875 0.0698372 0
M  V30 596 O 58.4849 1.67436 1.01696 0
M  V30 597 H 57.0649 0.561018 -0.493222 0
M  V30 598 H 59.7269 0.899347 -1.7291 0
M  V30 599 H 58.8229 2.40472 -1.98947 0
M  V30 600 N 59.124 1.23083 0.984299 0
M  V30 601 C 60.352 1.08714 1.76037 0
M  V30 602 C 60.767 -0.361691 1.85303 0
M  V30 603 O 60.124 -1.25034 1.32939 0
M  V30 604 C 60.175 1.70206 3.18923 0
M  V30 605 O 59.896 3.09423 3.10144 0
M  V30 606 C 61.397 1.61227 4.12941 0
M  V30 607 H 58.617 0.380664 0.552572 0
M  V30 608 H 61.161 1.62853 1.23689 0
M  V30 609 H 59.316 1.20109 3.6831 0
M  V30 610 H 59.73 3.39188 4.00065 0
M  V30 611 H 61.204 2.08962 5.10919 0
M  V30 612 H 61.681 0.570375 4.35481 0
M  V30 613 H 62.287 2.10671 3.69456 0
M  V30 614 N 60.6021 -1.18246 1.0419 0
M  V30 615 C 61.8501 -1.87886 0.744543 0
M  V30 616 C 62.1711 -1.8082 -0.730006 0
M  V30 617 O 61.4411 -1.22736 -1.52685 0
M  V30 618 H 60.0211 -0.695556 0.272417 0
M  V30 619 H 62.6831 -1.43494 1.31892 0
M  V30 620 H 61.7791 -2.9389 1.05049 0
M  V30 621 N 62.0802 -0.821533 -1.34494 0
M  V30 622 C 63.0432 -0.247847 -2.27856 0
M  V30 623 C 64.0432 0.573453 -1.50227 0
M  V30 624 O 65.2332 0.389759 -1.69784 0
M  V30 625 C 62.3652 0.652698 -3.34593 0
M  V30 626 H 63.5582 -1.07146 -2.80107 0
M  V30 627 H 61.1112 -0.593291 -1.44602 0
M  V30 628 H 61.8462 1.49943 -2.87555 0
M  V30 629 H 61.6312 0.065292 -3.92046 0
M  V30 630 H 63.1212 1.04793 -4.04238 0
M  V30 631 N 63.5583 1.46682 -0.576371 0
M  V30 632 C 64.7883 2.06498 -0.0648694 0
M  V30 633 C 65.1963 1.42665 1.24271 0
M  V30 634 O 64.5393 0.523886 1.76071 0
M  V30 635 C 64.6013 3.5904 0.181816 0
M  V30 636 C 64.2653 4.45028 -1.0392 0
M  V30 637 C 65.2623 4.81959 -1.94966 0
M  V30 638 C 62.9473 4.86259 -1.25927 0
M  V30 639 C 64.9413 5.58942 -3.06371 0
M  V30 640 C 62.6283 5.63002 -2.37638 0
M  V30 641 C 63.6263 5.99257 -3.2769 0
M  V30 642 O 63.3143 6.7445 -4.37461 0
M  V30 643 H 63.0463 0.674028 -0.0515987 0
M  V30 644 H 65.6003 1.89393 -0.794951 0
M  V30 645 H 63.8303 3.74429 0.966436 0
M  V30 646 H 65.5193 4.00806 0.641047 0
M  V30 647 H 66.2853 4.50689 -1.79177 0
M  V30 648 H 62.1643 4.57494 -0.567448 0
M  V30 649 H 65.7083 5.87158 -3.76684 0
M  V30 650 H 61.6053 5.93686 -2.53392 0
M  V30 651 H 62.3733 6.92867 -4.35749 0
M  V30 652 N 65.0364 0.313813 1.54444 0
M  V30 653 C 66.2844 -0.291099 1.99993 0
M  V30 654 C 66.6054 -1.53418 1.20366 0
M  V30 655 O 65.8754 -1.93544 0.302927 0
M  V30 656 H 64.4554 -0.110552 0.738774 0
M  V30 657 H 67.1174 0.428106 1.9014 0
M  V30 658 H 66.2134 -0.554268 3.07139 0
M  V30 659 N 66.5145 -1.57545 0.0417849 0
M  V30 660 C 67.4615 -2.10977 -0.935805 0
M  V30 661 C 68.4315 -1.01486 -1.31491 0
M  V30 662 O 69.6165 -1.2898 -1.40602 0
M  V30 663 C 66.7565 -2.65169 -2.2086 0
M  V30 664 C 65.8695 -3.88714 -1.88482 0
M  V30 665 C 65.0045 -4.31254 -3.1015 0
M  V30 666 C 64.0435 -5.47524 -2.7365 0
M  V30 667 N 63.1805 -5.85162 -3.87982 0
M  V30 668 H 68.0205 -2.94218 -0.473249 0
M  V30 669 H 65.5575 -1.45415 -0.221981 0
M  V30 670 H 67.5155 -2.94685 -2.95325 0
M  V30 671 H 66.1455 -1.8474 -2.64709 0
M  V30 672 H 65.1975 -3.65849 -1.04205 0
M  V30 673 H 66.5095 -4.73245 -1.57608 0
M  V30 674 H 65.6635 -4.62273 -3.92923 0
M  V30 675 H 64.4025 -3.45516 -3.44195 0
M  V30 676 H 63.4075 -5.16187 -1.89291 0
M  V30 677 H 64.6325 -6.34971 -2.40807 0
M  V30 678 H 62.5785 -5.02377 -4.21846 0
M  V30 679 H 62.4955 -6.64362 -3.60775 0
M  V30 680 H 63.7635 -6.20791 -4.71422 0
M  V30 681 N 67.9926 0.231505 -1.5589 0
M  V30 682 C 69.2386 0.95877 -1.78705 0
M  V30 683 C 69.5716 1.8438 -0.609725 0
M  V30 684 O 68.8466 1.90521 0.391426 0
M  V30 685 C 69.1296 1.8062 -3.11526 0
M  V30 686 C 68.9826 0.948328 -4.39689 0
M  V30 687 C 70.3016 2.78585 -3.40703 0
M  V30 688 H 67.4206 0.347129 -0.650131 0
M  V30 689 H 70.0626 0.228259 -1.88624 0
M  V30 690 H 68.2126 2.42902 -3.03201 0
M  V30 691 H 69.8846 0.343016 -4.60023 0
M  V30 692 H 68.1276 0.253314 -4.3306 0
M  V30 693 H 68.7986 1.57543 -5.29041 0
M  V30 694 H 71.2746 2.26439 -3.49091 0
M  V30 695 H 70.1506 3.34988 -4.34826 0
M  V30 696 H 70.4116 3.55825 -2.62375 0
M  V30 697 N 69.4707 1.49531 0.497807 0
M  V30 698 C 70.7177 1.59179 1.25173 0
M  V30 699 C 71.0457 0.279932 1.92475 0
M  V30 700 O 70.3007 -0.732383 1.81479 0
M  V30 701 C 70.5997 2.70252 2.33878 0
M  V30 702 C 70.2657 4.11644 1.84012 0
M  V30 703 C 68.9277 4.50121 1.70132 0
M  V30 704 C 71.2797 5.00121 1.46725 0
M  V30 705 C 68.6077 5.74845 1.17348 0
M  V30 706 C 70.9597 6.25366 0.95392 0
M  V30 707 C 69.6237 6.6267 0.801538 0
M  V30 708 H 68.8937 0.582478 0.45804 0
M  V30 709 H 71.5407 1.83373 0.551948 0
M  V30 710 H 69.8457 2.40041 3.09657 0
M  V30 711 H 71.5427 2.74925 2.9192 0
M  V30 712 H 68.1327 3.81274 1.95775 0
M  V30 713 H 72.3167 4.71048 1.56294 0
M  V30 714 H 67.5727 6.02444 1.04264 0
M  V30 715 H 71.7467 6.93301 0.656225 0
M  V30 716 H 69.3737 7.59197 0.390351 0
M  V30 717 N 70.9488 -0.749086 1.3866 0
M  V30 718 C 71.8788 -1.8764 1.38973 0
M  V30 719 C 72.8598 -1.68178 0.255004 0
M  V30 720 O 74.0448 -1.88704 0.458754 0
M  V30 721 C 71.1748 -3.25222 1.21851 0
M  V30 722 C 70.1288 -3.59295 2.32575 0
M  V30 723 C 69.4548 -4.95663 2.00555 0
M  V30 724 C 70.7548 -3.63709 3.7485 0
M  V30 725 H 72.4488 -1.87635 2.3331 0
M  V30 726 H 69.9948 -0.901329 1.12303 0
M  V30 727 H 71.9478 -4.03746 1.20695 0
M  V30 728 H 70.6718 -3.25719 0.239775 0
M  V30 729 H 69.3308 -2.83093 2.32925 0
M  V30 730 H 68.9788 -4.92724 1.01154 0
M  V30 731 H 68.6788 -5.19429 2.74714 0
M  V30 732 H 70.2028 -5.7656 2.01024 0
M  V30 733 H 71.6168 -4.32338 3.76506 0
M  V30 734 H 70.0138 -3.98986 4.48252 0
M  V30 735 H 71.0838 -2.63834 4.06841 0
M  V30 736 N 72.4269 -1.23603 -0.977757 0
M  V30 737 C 73.6729 -1.07129 -1.72195 0
M  V30 738 C 74.0059 0.390501 -1.90233 0
M  V30 739 O 73.2809 1.28902 -1.45653 0
M  V30 740 C 73.5639 -1.80031 -3.11867 0
M  V30 741 C 73.4169 -3.33899 -3.01383 0
M  V30 742 C 74.7359 -1.56492 -4.11337 0
M  V30 743 H 71.8549 -0.390571 -0.624999 0
M  V30 744 H 74.4969 -1.52142 -1.13811 0
M  V30 745 H 72.6469 -1.41768 -3.6171 0
M  V30 746 H 74.3189 -3.81699 -2.59043 0
M  V30 747 H 72.5619 -3.62796 -2.37827 0
M  V30 748 H 73.2329 -3.801 -4.00285 0
M  V30 749 H 75.7089 -1.89757 -3.70313 0
M  V30 750 H 74.5849 -2.09973 -5.07151 0
M  V30 751 H 74.8459 -0.500874 -4.39254 0
M  V30 752 N 73.905 1.17692 -1.04816 0
M  V30 753 C 75.321 1.39863 -0.768794 0
M  V30 754 C 75.521 1.91118 0.638451 0
M  V30 755 O 74.577 2.10036 1.40146 0
M  V30 756 C 75.89 2.39274 -1.82122 0
M  V30 757 C 77.438 2.52987 -1.843 0
M  V30 758 C 77.913 3.55669 -2.88555 0
M  V30 759 N 79.404 3.63183 -2.87493 0
M  V30 760 C 80.139 4.42381 -3.64811 0
M  V30 761 N 79.635 5.25125 -4.51903 0
M  V30 762 N 81.428 4.37217 -3.53267 0
M  V30 763 H 73.579 0.82752 -1.95617 0
M  V30 764 H 75.842 0.426123 -0.846831 0
M  V30 765 H 75.548 2.08678 -2.83102 0
M  V30 766 H 75.422 3.38725 -1.65967 0
M  V30 767 H 77.809 2.82896 -0.839869 0
M  V30 768 H 77.89 1.53623 -2.04532 0
M  V30 769 H 77.534 3.26499 -3.89051 0
M  V30 770 H 77.464 4.54728 -2.65575 0
M  V30 771 H 79.955 3.04103 -2.24343 0
M  V30 772 H 80.268 5.82728 -5.07591 0
M  V30 773 H 78.613 5.24519 -4.55966 0
M  V30 774 H 81.804 3.71626 -2.84625 0
M  V30 775 H 81.977 4.98696 -4.13771 0
M  V30 776 N 75.3831 0.828654 1.34056 0
M  V30 777 C 76.3301 0.252567 2.29414 0
M  V30 778 C 77.3001 -0.62588 1.53857 0
M  V30 779 O 78.4851 -0.566312 1.82202 0
M  V30 780 C 75.6251 -0.574831 3.40279 0
M  V30 781 C 74.7381 0.326499 4.30764 0
M  V30 782 C 73.8731 -0.511016 5.28736 0
M  V30 783 C 72.9121 0.389342 6.1086 0
M  V30 784 N 72.0491 -0.409439 7.00905 0
M  V30 785 H 76.8891 1.07108 2.78086 0
M  V30 786 H 74.4261 0.539677 1.36843 0
M  V30 787 H 76.3841 -1.06992 4.03248 0
M  V30 788 H 75.0141 -1.35841 2.92826 0
M  V30 789 H 74.0661 0.939837 3.68607 0
M  V30 790 H 75.3781 1.01857 4.88289 0
M  V30 791 H 74.5321 -1.07035 5.97184 0
M  V30 792 H 73.2711 -1.23657 4.71763 0
M  V30 793 H 72.2761 0.960769 5.4134 0
M  V30 794 H 73.5011 1.1131 6.69916 0
M  V30 795 H 71.4471 -1.11856 6.46393 0
M  V30 796 H 71.3641 0.224126 7.55668 0
M  V30 797 H 72.6321 -0.951336 7.73673 0
M  V30 798 N 76.8612 -1.46375 0.584142 0
M  V30 799 C 77.8242 -2.28784 -0.138108 0
M  V30 800 C 78.8242 -1.38471 -0.817462 0
M  V30 801 O 80.0142 -1.60833 -0.669199 0
M  V30 802 C 77.1462 -3.18892 -1.20503 0
M  V30 803 H 78.3392 -2.94117 0.586127 0
M  V30 804 H 75.8922 -1.52509 0.342171 0
M  V30 805 H 76.6272 -2.58309 -1.96079 0
M  V30 806 H 76.4122 -3.85388 -0.722384 0
M  V30 807 H 77.9022 -3.80914 -1.71155 0
M  V30 808 N 78.3393 -0.321999 -1.54275 0
M  V30 809 C 79.5873 0.280489 -2.00144 0
M  V30 810 C 79.9083 1.52777 -1.21178 0
M  V30 811 O 79.1783 1.9338 -0.313187 0
M  V30 812 H 77.7583 0.106632 -0.73935 0
M  V30 813 H 80.4203 -0.438184 -1.8991 0
M  V30 814 H 79.5163 0.537972 -3.07428 0
M  V30 815 N 79.8174 1.5752 -0.0501392 0
M  V30 816 C 81.0654 1.9227 0.622642 0
M  V30 817 C 81.3864 0.929083 1.71444 0
M  V30 818 O 80.6564 -0.0262186 1.95882 0
M  V30 819 H 79.2364 0.709739 0.232981 0
M  V30 820 H 81.8984 1.94628 -0.102898 0
M  V30 821 H 80.9944 2.93479 1.06191 0
M  V30 822 N 81.2955 -0.223234 1.56011 0
M  V30 823 C 82.2455 -1.28008 1.88674 0
M  V30 824 C 83.2295 -1.42369 0.749663 0
M  V30 825 O 84.4215 -1.45212 1.01205 0
M  V30 826 C 81.5505 -2.63084 2.20548 0
M  V30 827 C 80.6365 -2.52632 3.40643 0
M  V30 828 N 81.0275 -2.11829 4.59306 0
M  V30 829 C 79.3255 -2.83594 3.44224 0
M  V30 830 C 80.0265 -2.12587 5.41463 0
M  V30 831 N 79.0025 -2.5301 4.81131 0
M  V30 832 H 82.8045 -0.955487 2.77935 0
M  V30 833 H 80.3185 -0.431801 1.56554 0
M  V30 834 H 82.3155 -3.39385 2.42122 0
M  V30 835 H 80.9755 -2.96391 1.32599 0
M  V30 836 H 81.9865 -1.82988 4.84496 0
M  V30 837 H 78.6635 -3.21284 2.66614 0
M  V30 838 H 80.0535 -1.83179 6.46448 0
M  V30 839 N 82.7736 -1.49793 -0.48987 0
M  V30 840 C 84.0506 -1.50348 -1.25119 0
M  V30 841 C 84.4306 -0.237466 -2.0976 0
M  V30 842 O 83.7786 0.77981 -2.14782 0
M  V30 843 C 83.9886 -2.78872 -2.09837 0
M  V30 844 C 85.3366 -3.288 -2.68655 0
M  V30 845 O 86.3606 -2.80065 -2.20096 0
M  V30 846 O 85.2196 -4.13707 -3.57083 0
M  V30 847 H 82.3136 -0.602242 -0.566775 0
M  V30 848 H 84.8596 -1.62067 -0.503229 0
M  V30 849 H 83.6316 -3.62499 -1.47343 0
M  V30 850 H 83.2546 -2.70066 -2.91805 0
M  V30 851 N 84.2517 0.741722 -1.39055 0
M  V30 852 C 85.2147 1.83733 -1.37021 0
M  V30 853 C 86.2147 1.58542 -0.268534 0
M  V30 854 O 87.4047 1.66067 -0.526076 0
M  V30 855 C 84.5367 3.2141 -1.13617 0
M  V30 856 H 85.7297 1.86941 -2.34506 0
M  V30 857 H 83.2827 0.944676 -1.24521 0
M  V30 858 H 84.0177 3.23865 -0.167863 0
M  V30 859 H 83.8027 3.4109 -1.93391 0
M  V30 860 H 85.2927 4.01477 -1.14918 0
M  V30 861 N 85.7298 1.2412 0.971189 0
M  V30 862 C 86.9778 1.07668 1.71032 0
M  V30 863 C 87.2988 -0.385797 1.91146 0
M  V30 864 O 86.5688 -1.27569 1.4867 0
M  V30 865 H 85.1488 0.395429 0.633755 0
M  V30 866 H 87.8108 1.55984 1.16855 0
M  V30 867 H 86.9068 1.57195 2.69622 0
M  V30 868 N 87.2079 -1.17134 1.05439 0
M  V30 869 C 88.1549 -2.21235 0.657539 0
M  V30 870 C 89.1249 -1.62551 -0.341543 0
M  V30 871 O 90.3099 -1.89379 -0.232393 0
M  V30 872 C 87.4499 -3.45076 0.0410575 0
M  V30 873 C 86.5629 -4.18042 1.08927 0
M  V30 874 C 85.6979 -5.29376 0.439848 0
M  V30 875 C 84.7369 -5.94132 1.4722 0
M  V30 876 N 83.8739 -6.96975 0.846756 0
M  V30 877 H 88.7139 -2.54534 1.54972 0
M  V30 878 H 86.2509 -1.25028 0.775006 0
M  V30 879 H 88.2089 -4.15862 -0.33383 0
M  V30 880 H 86.8389 -3.12353 -0.814568 0
M  V30 881 H 85.8909 -3.45945 1.58196 0
M  V30 882 H 87.2029 -4.62306 1.87282 0
M  V30 883 H 86.3569 -6.06699 0.0115125 0
M  V30 884 H 85.0959 -4.86251 -0.375656 0
M  V30 885 H 84.1009 -5.15538 1.91052 0
M  V30 886 H 85.3259 -6.39337 2.28965 0
M  V30 887 H 83.2719 -6.5598 0.0518075 0
M  V30 888 H 83.1889 -7.39565 1.5678 0
M  V30 889 H 84.4569 -7.78239 0.443277 0
M  V30 890 N 88.686 -0.835752 -1.33615 0
M  V30 891 C 89.616 -0.281739 -2.31794 0
M  V30 892 C 90.597 0.608833 -1.58831 0
M  V30 893 O 91.782 0.533035 -1.86741 0
M  V30 894 C 88.912 0.546612 -3.42971 0
M  V30 895 C 87.866 -0.247904 -4.27281 0
M  V30 896 C 87.192 0.704001 -5.30045 0
M  V30 897 C 88.492 -1.46324 -5.01385 0
M  V30 898 H 90.186 -1.10206 -2.78379 0
M  V30 899 H 87.732 -0.531388 -1.33837 0
M  V30 900 H 89.685 0.944467 -4.1068 0
M  V30 901 H 88.409 1.40011 -2.95067 0
M  V30 902 H 87.068 -0.627281 -3.61194 0
M  V30 903 H 86.716 1.55381 -4.78399 0
M  V30 904 H 86.416 0.176524 -5.87335 0
M  V30 905 H 87.94 1.09944 -6.0062 0
M  V30 906 H 89.354 -1.13871 -5.61877 0
M  V30 907 H 87.751 -1.92728 -5.6831 0
M  V30 908 H 88.821 -2.23467 -4.30338 0
M  V30 909 N 90.1641 1.46063 -0.591896 0
M  V30 910 C 91.3941 2.06418 -0.0867676 0
M  V30 911 C 91.8021 1.43975 1.22751 0
M  V30 912 O 91.1451 0.542531 1.75506 0
M  V30 913 C 91.2071 3.59213 0.143725 0
M  V30 914 C 90.8711 4.439 -1.08635 0
M  V30 915 C 91.8681 4.79864 -2.00067 0
M  V30 916 C 89.5531 4.84896 -1.31077 0
M  V30 917 C 91.5471 5.55661 -3.12282 0
M  V30 918 C 89.2341 5.6045 -2.43596 0
M  V30 919 C 90.2321 5.95747 -3.34027 0
M  V30 920 O 89.9201 6.69772 -4.4459 0
M  V30 921 H 89.6521 0.673443 -0.0587447 0
M  V30 922 H 92.2061 1.88539 -0.814994 0
M  V30 923 H 90.4361 3.75433 0.926668 0
M  V30 924 H 92.1251 4.01463 0.5985 0
M  V30 925 H 92.8911 4.48763 -1.83947 0
M  V30 926 H 88.7701 4.56867 -0.61594 0
M  V30 927 H 92.3141 5.8313 -3.82891 0
M  V30 928 H 88.2111 5.90965 -2.59674 0
M  V30 929 H 88.9791 6.88207 -4.43073 0
M  V30 930 N 91.6422 0.330177 1.54103 0
M  V30 931 C 92.6052 -0.520144 2.2322 0
M  V30 932 C 93.6052 -1.03828 1.22786 0
M  V30 933 O 94.7952 -0.929652 1.4732 0
M  V30 934 C 91.9272 -1.72317 2.94142 0
M  V30 935 H 93.1202 0.0841605 2.99782 0
M  V30 936 H 90.6732 0.0813433 1.56088 0
M  V30 937 H 91.4082 -2.36653 2.21734 0
M  V30 938 H 91.1932 -1.35898 3.67796 0
M  V30 939 H 92.6832 -2.3266 3.46784 0
M  V30 940 N 93.1203 -1.57491 0.0584922 0
M  V30 941 C 94.0533 -2.07533 -0.948969 0
M  V30 942 C 95.0313 -0.977444 -1.29942 0
M  V30 943 O 96.2153 -1.2499 -1.41102 0
M  V30 944 C 93.3423 -2.52192 -2.2609 0
M  V30 945 C 92.3883 -3.73287 -2.06298 0
M  V30 946 S 93.2213 -5.18603 -1.33459 0
M  V30 947 C 94.3773 -5.66583 -2.65959 0
M  V30 948 H 94.6103 -2.92662 -0.523118 0
M  V30 949 H 92.1433 -1.53631 -0.153954 0
M  V30 950 H 94.1013 -2.78585 -3.01498 0
M  V30 951 H 92.7623 -1.67356 -2.65802 0
M  V30 952 H 91.9553 -4.0248 -3.03357 0
M  V30 953 H 91.5573 -3.47199 -1.39029 0
M  V30 954 H 93.8493 -5.72616 -3.62101 0
M  V30 955 H 94.7923 -6.65684 -2.41393 0
M  V30 956 H 95.2003 -4.94342 -2.72554 0
M  V30 957 N 94.5984 0.214957 -1.56127 0
M  V30 958 C 95.5454 1.26642 -1.92952 0
M  V30 959 C 96.5154 1.46244 -0.78753 0
M  V30 960 O 97.7004 1.59704 -1.04399 0
M  V30 961 C 94.8404 2.6104 -2.25726 0
M  V30 962 C 93.9534 2.49183 -3.52891 0
M  V30 963 C 93.0884 3.76149 -3.7508 0
M  V30 964 C 92.1274 3.59041 -4.95738 0
M  V30 965 N 91.2644 4.77972 -5.14283 0
M  V30 966 H 96.1044 0.945384 -2.82607 0
M  V30 967 H 93.6414 0.455489 -1.3987 0
M  V30 968 H 95.5994 3.39313 -2.42739 0
M  V30 969 H 94.2294 2.91227 -1.39236 0
M  V30 970 H 93.2814 1.6231 -3.44034 0
M  V30 971 H 94.5934 2.32466 -4.41318 0
M  V30 972 H 93.7474 4.62865 -3.92226 0
M  V30 973 H 92.4864 3.95799 -2.84947 0
M  V30 974 H 91.4914 2.7071 -4.78535 0
M  V30 975 H 92.7164 3.40856 -5.87362 0
M  V30 976 H 90.6624 4.97923 -4.27093 0
M  V30 977 H 90.5794 4.64006 -5.96853 0
M  V30 978 H 91.8474 5.66096 -5.35869 0
M  V30 979 N 96.0765 1.50051 0.48192 0
M  V30 980 C 97.3225 1.60736 1.2366 0
M  V30 981 C 97.6555 0.301786 1.91841 0
M  V30 982 O 96.9305 -0.696025 1.8162 0
M  V30 983 C 97.2135 2.78009 2.28874 0
M  V30 984 C 97.0665 4.18416 1.65069 0
M  V30 985 C 98.3855 2.90867 3.30279 0
M  V30 986 H 95.5045 0.585031 0.448228 0
M  V30 987 H 98.1465 1.82402 0.531946 0
M  V30 988 H 96.2965 2.59667 2.88973 0
M  V30 989 H 97.9685 4.48322 1.0865 0
M  V30 990 H 96.2115 4.23177 0.954148 0
M  V30 991 H 96.8825 4.96381 2.41474 0
M  V30 992 H 99.3585 3.07623 2.80191 0
M  V30 993 H 98.2345 3.74566 4.01238 0
M  V30 994 H 98.4955 2.01021 3.93755 0
M  V30 995 N 97.5546 -0.734337 1.39446 0
M  V30 996 C 98.4846 -1.86155 1.40955 0
M  V30 997 C 99.4656 -1.67898 0.272827 0
M  V30 998 O 100.651 -1.88207 0.478743 0
M  V30 999 C 97.7806 -3.23912 1.25294 0
M  V30 1000 C 96.7346 -3.56808 2.36373 0
M  V30 1001 C 96.0606 -4.93508 2.058 0
M  V30 1002 C 97.3606 -3.59713 3.78687 0
M  V30 1003 H 99.0546 -1.8515 2.35287 0
M  V30 1004 H 96.6006 -0.889367 1.13253 0
M  V30 1005 H 98.5536 -4.02443 1.2497 0
M  V30 1006 H 97.2776 -3.25446 0.274308 0
M  V30 1007 H 95.9366 -2.80606 2.35914 0
M  V30 1008 H 95.5846 -4.91623 1.06374 0
M  V30 1009 H 95.2846 -5.16486 2.80208 0
M  V30 1010 H 96.8086 -5.74396 2.07128 0
M  V30 1011 H 98.2226 -4.2832 3.81071 0
M  V30 1012 H 96.6196 -3.94209 4.52459 0
M  V30 1013 H 97.6896 -2.59504 4.09617 0
M  V30 1014 N 99.0327 -1.24633 -0.964593 0
M  V30 1015 C 100.449 -1.01239 -1.2338 0
M  V30 1016 C 100.649 0.2769 -1.99588 0
M  V30 1017 O 99.7047 0.992241 -2.32187 0
M  V30 1018 C 101.018 -2.22937 -2.01791 0
M  V30 1019 C 102.566 -2.27594 -2.14872 0
M  V30 1020 C 103.041 -3.48921 -2.96678 0
M  V30 1021 N 104.532 -3.49257 -3.04259 0
M  V30 1022 C 105.267 -4.39795 -3.67924 0
M  V30 1023 N 104.763 -5.40591 -4.33281 0
M  V30 1024 N 106.556 -4.275 -3.64966 0
M  V30 1025 H 98.7067 -2.0748 -0.454502 0
M  V30 1026 H 100.97 -0.910647 -0.26349 0
M  V30 1027 H 100.676 -3.16587 -1.53184 0
M  V30 1028 H 100.55 -2.25306 -3.02518 0
M  V30 1029 H 102.937 -1.34473 -2.6268 0
M  V30 1030 H 103.018 -2.2925 -1.13482 0
M  V30 1031 H 102.662 -4.42359 -2.49562 0
M  V30 1032 H 102.592 -3.4451 -3.98272 0
M  V30 1033 H 105.083 -2.76337 -2.57771 0
M  V30 1034 H 105.396 -6.05904 -4.79687 0
M  V30 1035 H 103.741 -5.44475 -4.3194 0
M  V30 1036 H 106.932 -3.47987 -3.13086 0
M  V30 1037 H 107.105 -4.98258 -4.14298 0
M  V30 1038 N 100.511 1.16574 -1.06058 0
M  V30 1039 C 101.458 2.20883 -0.669263 0
M  V30 1040 C 102.428 1.62729 0.332918 0
M  V30 1041 O 103.613 1.895 0.222346 0
M  V30 1042 C 100.753 3.45049 -0.0593572 0
M  V30 1043 C 99.8658 4.17458 -1.11143 0
M  V30 1044 C 99.0008 5.29135 -0.467916 0
M  V30 1045 C 98.0398 5.93343 -1.50369 0
M  V30 1046 N 97.1768 6.96516 -0.883706 0
M  V30 1047 H 102.017 2.53709 -1.5632 0
M  V30 1048 H 99.5538 1.24616 -0.781625 0
M  V30 1049 H 101.512 4.16033 0.311771 0
M  V30 1050 H 100.142 3.12781 0.797992 0
M  V30 1051 H 99.1938 3.45101 -1.60029 0
M  V30 1052 H 100.506 4.61307 -1.89731 0
M  V30 1053 H 99.6598 6.06684 -0.0436871 0
M  V30 1054 H 98.3988 4.86443 0.349864 0
M  V30 1055 H 97.4038 5.14517 -1.93784 0
M  V30 1056 H 98.6288 6.38114 -2.32352 0
M  V30 1057 H 96.5748 6.55943 -0.086595 0
M  V30 1058 H 96.4918 7.38723 -1.607 0
M  V30 1059 H 97.7598 7.77993 -0.484543 0
M  V30 1060 N 101.989 0.842826 1.3317 0
M  V30 1061 C 102.952 0.284065 2.27433 0
M  V30 1062 C 103.952 -0.54948 1.5112 0
M  V30 1063 O 105.142 -0.362699 1.70382 0
M  V30 1064 C 102.274 -0.599384 3.35589 0
M  V30 1065 H 103.467 1.11589 2.78366 0
M  V30 1066 H 101.02 0.616221 1.4364 0
M  V30 1067 H 101.755 -1.45349 2.89904 0
M  V30 1068 H 101.54 -0.00291266 3.921 0
M  V30 1069 H 103.03 -0.983488 4.05854 0
M  V30 1070 N 103.467 -1.45747 0.599634 0
M  V30 1071 C 104.43 -2.28917 -0.113835 0
M  V30 1072 C 105.43 -1.3933 -0.802729 0
M  V30 1073 O 106.62 -1.61534 -0.652103 0
M  V30 1074 C 103.752 -3.20152 -1.17114 0
M  V30 1075 H 104.945 -2.93478 0.617289 0
M  V30 1076 H 102.498 -1.52137 0.358327 0
M  V30 1077 H 103.233 -2.60374 -1.93329 0
M  V30 1078 H 103.018 -3.86133 -0.681468 0
M  V30 1079 H 104.508 -3.82708 -1.67105 0
M  V30 1080 N 104.945 -0.338344 -1.53925 0
M  V30 1081 C 105.875 0.51328 -2.27789 0
M  V30 1082 C 106.856 1.107 -1.29149 0
M  V30 1083 O 108.041 1.12937 -1.57984 0
M  V30 1084 C 105.171 1.66697 -3.04679 0
M  V30 1085 C 104.125 1.20183 -4.1078 0
M  V30 1086 C 103.451 2.44363 -4.75595 0
M  V30 1087 C 104.751 0.30605 -5.21403 0
M  V30 1088 H 106.445 -0.102883 -2.99223 0
M  V30 1089 H 103.991 -0.0509219 -1.4391 0
M  V30 1090 H 105.944 2.26915 -3.55088 0
M  V30 1091 H 104.668 2.30995 -2.30887 0
M  V30 1092 H 103.327 0.622499 -3.61276 0
M  V30 1093 H 102.975 3.07057 -3.98403 0
M  V30 1094 H 102.675 2.13925 -5.47275 0
M  V30 1095 H 104.199 3.05317 -5.28786 0
M  V30 1096 H 105.613 0.814929 -5.67478 0
M  V30 1097 H 104.01 0.0937929 -6.00027 0
M  V30 1098 H 105.08 -0.65921 -4.80398 0
M  V30 1099 N 106.423 1.57458 -0.0668435 0
M  V30 1100 C 107.669 1.93587 0.6043 0
M  V30 1101 C 108.002 0.946722 1.69561 0
M  V30 1102 O 107.277 -0.0248516 1.94484 0
M  V30 1103 C 107.56 3.40014 1.18585 0
M  V30 1104 C 107.413 4.49685 0.101529 0
M  V30 1105 C 108.732 3.87154 2.09284 0
M  V30 1106 H 105.851 0.703958 0.218202 0
M  V30 1107 H 108.493 1.89542 -0.131804 0
M  V30 1108 H 106.643 3.43592 1.81319 0
M  V30 1109 H 108.315 4.5823 -0.531279 0
M  V30 1110 H 106.558 4.30059 -0.568487 0
M  V30 1111 H 107.229 5.49266 0.54874 0
M  V30 1112 H 109.705 3.85551 1.56491 0
M  V30 1113 H 108.581 4.90231 2.46911 0
M  V30 1114 H 108.842 3.2481 2.99918 0
M  V30 1115 N 107.901 -0.206675 1.56239 0
M  V30 1116 C 108.833 -1.27997 1.9013 0
M  V30 1117 C 109.846 -1.42299 0.790883 0
M  V30 1118 O 111.035 -1.42931 1.06925 0
M  V30 1119 C 108.135 -2.65368 2.10792 0
M  V30 1120 C 107.308 -2.72824 3.41886 0
M  V30 1121 C 106.367 -3.9131 3.51799 0
M  V30 1122 O 105.393 -3.78953 4.24716 0
M  V30 1123 N 106.595 -5.06265 2.84035 0
M  V30 1124 H 109.36 -0.992444 2.82791 0
M  V30 1125 H 106.921 -0.396652 1.56966 0
M  V30 1126 H 108.913 -3.43039 2.14724 0
M  V30 1127 H 107.483 -2.86657 1.24685 0
M  V30 1128 H 106.703 -1.81515 3.49923 0
M  V30 1129 H 107.991 -2.74786 4.28217 0
M  V30 1130 H 107.389 -5.19203 2.246 0
M  V30 1131 H 105.946 -5.81925 2.93609 0
M  V30 1132 N 109.379 -1.50304 -0.473955 0
M  V30 1133 C 110.795 -1.37667 -0.807466 0
M  V30 1134 C 110.995 -0.430555 -1.96846 0
M  V30 1135 O 110.051 0.127874 -2.52176 0
M  V30 1136 C 111.364 -2.78974 -1.12223 0
M  V30 1137 C 112.912 -2.87868 -1.22885 0
M  V30 1138 C 113.387 -4.30003 -1.57676 0
M  V30 1139 N 114.878 -4.3294 -1.64673 0
M  V30 1140 C 115.613 -5.3991 -1.93091 0
M  V30 1141 N 115.109 -6.57092 -2.1955 0
M  V30 1142 N 116.902 -5.27351 -1.94569 0
M  V30 1143 H 109.053 -2.10394 0.291212 0
M  V30 1144 H 111.316 -0.945575 0.0677609 0
M  V30 1145 H 111.022 -3.50031 -0.342229 0
M  V30 1146 H 110.896 -3.16038 -2.05913 0
M  V30 1147 H 113.283 -2.17032 -1.99953 0
M  V30 1148 H 113.364 -2.54352 -0.271814 0
M  V30 1149 H 113.008 -5.01375 -0.81149 0
M  V30 1150 H 112.938 -4.61004 -2.54525 0
M  V30 1151 H 115.429 -3.48441 -1.46277 0
M  V30 1152 H 115.742 -7.34425 -2.405 0
M  V30 1153 H 114.087 -6.60272 -2.16948 0
M  V30 1154 H 117.278 -4.34801 -1.73394 0
M  V30 1155 H 117.451 -6.10805 -2.16381 0
M  V30 1156 N 110.857 0.726932 -1.39834 0
M  V30 1157 C 111.82 1.82269 -1.38962 0
M  V30 1158 C 112.82 1.58248 -0.285334 0
M  V30 1159 O 114.01 1.65499 -0.54366 0
M  V30 1160 C 111.142 3.20186 -1.17019 0
M  V30 1161 H 112.335 1.84443 -2.36476 0
M  V30 1162 H 109.888 0.931416 -1.25516 0
M  V30 1163 H 110.623 3.23669 -0.202204 0
M  V30 1164 H 110.408 3.3902 -1.96998 0
M  V30 1165 H 111.898 4.00235 -1.1917 0
M  V30 1166 N 112.336 1.25143 0.95797 0
M  V30 1167 C 113.283 1.05235 2.05412 0
M  V30 1168 C 114.253 -0.0374561 1.66058 0
M  V30 1169 O 115.438 0.119073 1.90428 0
M  V30 1170 C 112.578 0.673589 3.38462 0
M  V30 1171 C 111.691 1.8379 3.90954 0
M  V30 1172 C 110.826 1.40381 5.12315 0
M  V30 1173 C 109.865 2.53746 5.57027 0
M  V30 1174 N 109.002 2.11136 6.69601 0
M  V30 1175 H 113.842 1.99048 2.21774 0
M  V30 1176 H 111.379 0.991277 1.08683 0
M  V30 1177 H 113.337 0.434964 4.14926 0
M  V30 1178 H 111.967 -0.227554 3.21997 0
M  V30 1179 H 111.019 2.18992 3.11041 0
M  V30 1180 H 112.331 2.68937 4.20089 0
M  V30 1181 H 111.485 1.12464 5.96185 0
M  V30 1182 H 110.224 0.523015 4.84887 0
M  V30 1183 H 109.229 2.82412 4.71724 0
M  V30 1184 H 110.454 3.42398 5.86464 0
M  V30 1185 H 108.4 1.25468 6.4389 0
M  V30 1186 H 108.317 2.89832 6.98236 0
M  V30 1187 H 109.585 1.86385 7.56889 0
M  V30 1188 N 113.814 -1.1601 1.06675 0
M  V30 1189 C 115.042 -1.90527 0.806667 0
M  V30 1190 C 115.457 -1.77643 -0.639396 0
M  V30 1191 O 114.814 -1.12369 -1.43803 0
M  V30 1192 C 114.865 -3.41106 1.19705 0
M  V30 1193 O 114.586 -3.53608 2.58636 0
M  V30 1194 C 116.087 -4.32663 0.965266 0
M  V30 1195 H 113.307 -0.604053 0.292166 0
M  V30 1196 H 115.851 -1.47026 1.4214 0
M  V30 1197 H 114.006 -3.82296 0.626774 0
M  V30 1198 H 114.42 -4.47011 2.74375 0
M  V30 1199 H 115.894 -5.36763 1.288 0
M  V30 1200 H 116.371 -4.39089 -0.0987936 0
M  V30 1201 H 116.977 -3.97206 1.52011 0
M  V30 1202 N 115.292 -0.849877 -1.32721 0
M  V30 1203 C 116.224 -0.248332 -2.27851 0
M  V30 1204 C 117.237 0.577218 -1.52224 0
M  V30 1205 O 118.426 0.402489 -1.73903 0
M  V30 1206 C 115.526 0.668107 -3.32249 0
M  V30 1207 C 114.699 -0.120534 -4.37234 0
M  V30 1208 C 113.758 0.720932 -5.21238 0
M  V30 1209 O 112.784 0.156166 -5.68986 0
M  V30 1210 N 113.986 2.03647 -5.43607 0
M  V30 1211 H 116.751 -1.06575 -2.80111 0
M  V30 1212 H 114.312 -0.709395 -1.45531 0
M  V30 1213 H 116.304 1.23627 -3.85355 0
M  V30 1214 H 114.874 1.38621 -2.80184 0
M  V30 1215 H 114.094 -0.870108 -3.84477 0
M  V30 1216 H 115.382 -0.662406 -5.0447 0
M  V30 1217 H 114.78 2.51871 -5.06535 0
M  V30 1218 H 113.337 2.55287 -5.99727 0
M  V30 1219 N 116.77 1.45427 -0.607355 0
M  V30 1220 C 117.68 2.34325 0.113463 0
M  V30 1221 C 118.696 1.51226 0.860617 0
M  V30 1222 O 119.872 1.84029 0.818255 0
M  V30 1223 C 116.937 3.28839 1.09844 0
M  V30 1224 C 115.998 4.27844 0.353271 0
M  V30 1225 C 115.231 5.17842 1.29133 0
M  V30 1226 O 115.454 5.11264 2.52913 0
M  V30 1227 O 114.388 5.96713 0.788523 0
M  V30 1228 H 118.214 2.97364 -0.617094 0
M  V30 1229 H 115.799 1.44807 -0.367619 0
M  V30 1230 H 117.681 3.8708 1.66575 0
M  V30 1231 H 116.356 2.68365 1.81003 0
M  V30 1232 H 115.263 3.7322 -0.256494 0
M  V30 1233 H 116.596 4.91173 -0.317822 0
M  V30 1234 N 118.248 0.346503 1.53744 0
M  V30 1235 C 119.198 -0.524953 2.21874 0
M  V30 1236 C 120.182 -1.06376 1.20718 0
M  V30 1237 O 121.374 -0.996972 1.46251 0
M  V30 1238 C 118.503 -1.6739 2.99726 0
M  V30 1239 C 117.589 -1.14888 4.08242 0
M  V30 1240 N 117.98 -0.345329 5.0462 0
M  V30 1241 C 116.278 -1.4255 4.22606 0
M  V30 1242 C 116.979 -0.0600706 5.81669 0
M  V30 1243 N 115.955 -0.65252 5.39669 0
M  V30 1244 H 119.757 0.0960091 2.93743 0
M  V30 1245 H 117.271 0.15352 1.61673 0
M  V30 1246 H 119.268 -2.3102 3.47038 0
M  V30 1247 H 117.928 -2.29811 2.29384 0
M  V30 1248 H 118.939 0.0138439 5.17898 0
M  V30 1249 H 115.616 -2.05389 3.63486 0
M  V30 1250 H 117.006 0.588321 6.69319 0
M  V30 1251 N 119.726 -1.57421 0.075193 0
M  V30 1252 C 120.954 -1.97946 -0.602076 0
M  V30 1253 C 121.369 -0.953674 -1.62943 0
M  V30 1254 O 120.726 0.0592551 -1.82404 0
M  V30 1255 C 120.777 -3.38546 -1.26762 0
M  V30 1256 O 120.498 -4.37195 -0.281376 0
M  V30 1257 C 121.999 -3.93966 -2.03239 0
M  V30 1258 H 119.219 -0.650918 -0.162931 0
M  V30 1259 H 121.763 -2.03959 0.148601 0
M  V30 1260 H 119.918 -3.33609 -1.96936 0
M  V30 1261 H 120.332 -5.18975 -0.759267 0
M  V30 1262 H 121.806 -4.94555 -2.45193 0
M  V30 1263 H 122.283 -3.30693 -2.8903 0
M  V30 1264 H 122.889 -4.02315 -1.37924 0
M  V30 1265 N 121.204 0.198386 -1.56346 0
M  V30 1266 C 122.62 0.549085 -1.49857 0
M  V30 1267 C 122.82 1.86016 -0.774611 0
M  V30 1268 O 121.876 2.50416 -0.323776 0
M  V30 1269 C 123.189 0.606868 -2.94512 0
M  V30 1270 C 124.737 0.695925 -3.05165 0
M  V30 1271 C 125.212 0.784848 -4.51225 0
M  V30 1272 N 126.703 0.848463 -4.55363 0
M  V30 1273 C 127.438 0.937378 -5.65686 0
M  V30 1274 N 126.934 0.9888 -6.85707 0
M  V30 1275 N 128.727 0.974312 -5.53592 0
M  V30 1276 H 120.878 -0.661655 -2.01831 0
M  V30 1277 H 123.141 -0.235261 -0.918344 0
M  V30 1278 H 122.847 -0.28732 -3.50524 0
M  V30 1279 H 122.721 1.46268 -3.47686 0
M  V30 1280 H 125.108 1.58055 -2.49204 0
M  V30 1281 H 125.189 -0.186022 -2.55123 0
M  V30 1282 H 124.833 -0.0954072 -5.0781 0
M  V30 1283 H 124.763 1.68255 -4.98997 0
M  V30 1284 H 127.254 0.818103 -3.68938 0
M  V30 1285 H 127.567 1.05707 -7.65536 0
M  V30 1286 H 125.912 0.957534 -6.88372 0
M  V30 1287 H 129.103 0.930954 -4.58749 0
M  V30 1288 H 129.276 1.04015 -6.39597 0
M  V30 1289 N 122.682 1.50554 0.465978 0
M  V30 1290 C 123.91 1.65563 1.24083 0
M  V30 1291 C 124.325 0.341051 1.85694 0
M  V30 1292 O 123.682 -0.677543 1.69457 0
M  V30 1293 C 123.733 2.75051 2.34583 0
M  V30 1294 O 123.454 4.01413 1.75497 0
M  V30 1295 C 124.955 3.01078 3.25372 0
M  V30 1296 H 122.175 0.55638 0.375077 0
M  V30 1297 H 124.719 1.96807 0.555624 0
M  V30 1298 H 122.874 2.46486 2.9887 0
M  V30 1299 H 123.288 4.62002 2.48303 0
M  V30 1300 H 124.762 3.81339 3.99105 0
M  V30 1301 H 125.239 2.12349 3.84453 0
M  V30 1302 H 125.845 3.31194 2.66816 0
M  V30 1303 N 124.16 -0.719506 1.40217 0
M  V30 1304 C 125.07 -1.86378 1.42479 0
M  V30 1305 C 126.086 -1.71073 0.317834 0
M  V30 1306 O 127.262 -1.93406 0.561794 0
M  V30 1307 C 124.327 -3.22136 1.28178 0
M  V30 1308 C 123.388 -3.49723 2.48982 0
M  V30 1309 C 122.621 -4.79004 2.35353 0
M  V30 1310 O 122.844 -5.53821 1.36524 0
M  V30 1311 O 121.778 -5.06839 3.2465 0
M  V30 1312 H 125.604 -1.87425 2.38968 0
M  V30 1313 H 123.189 -0.869405 1.21498 0
M  V30 1314 H 125.071 -4.03234 1.22395 0
M  V30 1315 H 123.746 -3.21825 0.347934 0
M  V30 1316 H 122.653 -2.6865 2.60342 0
M  V30 1317 H 123.986 -3.54828 3.41113 0
M  V30 1318 N 125.638 -1.25649 -0.95132 0
M  V30 1319 C 127.054 -1.02542 -1.223 0
M  V30 1320 C 127.254 0.255715 -1.99871 0
M  V30 1321 O 126.31 0.967558 -2.33226 0
M  V30 1322 C 127.623 -2.25065 -1.99415 0
M  V30 1323 C 129.171 -2.29861 -2.12446 0
M  V30 1324 C 129.646 -3.52048 -2.92961 0
M  V30 1325 N 131.137 -3.52465 -3.00538 0
M  V30 1326 C 131.872 -4.43672 -3.63239 0
M  V30 1327 N 131.368 -5.45157 -4.27523 0
M  V30 1328 N 133.161 -4.31346 -3.60412 0
M  V30 1329 H 125.312 -2.07951 -0.432471 0
M  V30 1330 H 127.575 -0.91339 -0.253816 0
M  V30 1331 H 127.281 -3.18194 -1.49817 0
M  V30 1332 H 127.155 -2.28502 -3.00111 0
M  V30 1333 H 129.542 -1.37252 -2.61239 0
M  V30 1334 H 129.623 -2.3044 -1.11044 0
M  V30 1335 H 129.267 -4.44981 -2.44856 0
M  V30 1336 H 129.197 -3.48715 -3.94596 0
M  V30 1337 H 131.688 -2.79056 -2.54826 0
M  V30 1338 H 132.001 -6.10958 -4.73234 0
M  V30 1339 H 130.346 -5.49025 -4.26141 0
M  V30 1340 H 133.537 -3.51288 -3.09377 0
M  V30 1341 H 133.71 -5.02624 -4.0899 0
M  V30 1342 N 127.117 1.15442 -1.07289 0
M  V30 1343 C 128.342 1.90638 -0.816828 0
M  V30 1344 C 128.767 1.77445 0.624083 0
M  V30 1345 O 128.125 1.10671 1.43602 0
M  V30 1346 C 128.173 3.39008 -1.22906 0
M  V30 1347 O 127.277 4.10701 -0.373975 0
M  V30 1348 H 126.618 0.593555 -0.297638 0
M  V30 1349 H 129.148 1.46198 -1.43134 0
M  V30 1350 H 129.158 3.89801 -1.20497 0
M  V30 1351 H 127.833 3.47929 -2.27856 0
M  V30 1352 H 126.41 3.70046 -0.460499 0
M  V30 1353 N 128.595 0.856903 1.32268 0
M  V30 1354 C 129.841 0.462069 1.97466 0
M  V30 1355 C 130.174 -0.980298 1.67642 0
M  V30 1356 O 129.449 -1.68824 0.965858 0
M  V30 1357 C 129.732 0.704336 3.53145 0
M  V30 1358 C 129.585 2.19529 3.9259 0
M  V30 1359 C 130.904 0.1622 4.39801 0
M  V30 1360 H 128.023 0.169357 0.717278 0
M  V30 1361 H 130.665 1.07574 1.56614 0
M  V30 1362 H 128.815 0.181999 3.88073 0
M  V30 1363 H 130.487 2.78387 3.67829 0
M  V30 1364 H 128.73 2.67292 3.41668 0
M  V30 1365 H 129.401 2.31549 5.01088 0
M  V30 1366 H 131.877 0.608905 4.11621 0
M  V30 1367 H 130.753 0.361265 5.4771 0
M  V30 1368 H 131.014 -0.935158 4.32096 0
M  V30 1369 N 130.073 -1.45103 0.615059 0
M  V30 1370 C 131.003 -2.33339 -0.0865619 0
M  V30 1371 C 131.984 -1.4727 -0.851209 0
M  V30 1372 O 133.169 -1.76026 -0.820281 0
M  V30 1373 C 130.299 -3.30095 -1.07956 0
M  V30 1374 C 129.253 -4.25858 -0.427628 0
M  V30 1375 C 128.579 -5.12361 -1.5294 0
M  V30 1376 C 129.879 -5.18165 0.655944 0
M  V30 1377 H 131.573 -2.92254 0.650224 0
M  V30 1378 H 129.119 -1.40532 0.314138 0
M  V30 1379 H 131.072 -3.90698 -1.57901 0
M  V30 1380 H 129.796 -2.69355 -1.84703 0
M  V30 1381 H 128.455 -3.66564 0.0510292 0
M  V30 1382 H 128.103 -4.47984 -2.28734 0
M  V30 1383 H 127.803 -5.77238 -1.09865 0
M  V30 1384 H 129.327 -5.75833 -2.03098 0
M  V30 1385 H 130.741 -5.72796 0.240257 0
M  V30 1386 H 129.138 -5.91559 1.00888 0
M  V30 1387 H 130.208 -4.60144 1.52957 0
M  V30 1388 N 131.551 -0.354651 -1.53558 0
M  V30 1389 C 132.461 0.50515 -2.29097 0
M  V30 1390 C 133.477 1.10223 -1.34636 0
M  V30 1391 O 134.653 1.11553 -1.67684 0
M  V30 1392 C 131.718 1.63479 -3.05738 0
M  V30 1393 C 130.779 1.06636 -4.15845 0
M  V30 1394 C 130.012 2.14217 -4.88822 0
M  V30 1395 O 130.235 3.35137 -4.61562 0
M  V30 1396 O 129.169 1.77887 -5.75013 0
M  V30 1397 H 132.995 -0.109237 -3.03503 0
M  V30 1398 H 130.58 -0.119357 -1.48922 0
M  V30 1399 H 132.462 2.2918 -3.5363 0
M  V30 1400 H 131.137 2.23478 -2.34178 0
M  V30 1401 H 130.044 0.373565 -3.7223 0
M  V30 1402 H 131.377 0.511081 -4.89539 0
M  V30 1403 N 133.029 1.57378 -0.0835403 0
M  V30 1404 C 133.959 2.1641 0.87686 0
M  V30 1405 C 134.94 1.09429 1.30228 0
M  V30 1406 O 136.125 1.37516 1.37124 0
M  V30 1407 C 133.255 2.73517 2.14022 0
M  V30 1408 C 132.209 3.85769 1.85381 0
M  V30 1409 C 131.535 4.29529 3.18448 0
M  V30 1410 C 132.835 5.09486 1.14984 0
M  V30 1411 H 134.529 2.96914 0.385059 0
M  V30 1412 H 132.075 1.42823 0.18377 0
M  V30 1413 H 134.028 3.13463 2.81636 0
M  V30 1414 H 132.752 1.90252 2.65465 0
M  V30 1415 H 131.411 3.46345 1.20169 0
M  V30 1416 H 131.059 3.43169 3.67755 0
M  V30 1417 H 130.759 5.05204 3.00071 0
M  V30 1418 H 132.283 4.72099 3.8724 0
M  V30 1419 H 133.697 5.46674 1.72687 0
M  V30 1420 H 132.094 5.90515 1.06826 0
M  V30 1421 H 133.164 4.84724 0.130749 0
M  V30 1422 N 134.507 -0.190092 1.56449 0
M  V30 1423 C 135.753 -0.911052 1.81184 0
M  V30 1424 C 136.086 -1.82699 0.658396 0
M  V30 1425 O 135.361 -1.91491 -0.340775 0
M  V30 1426 C 135.644 -1.72297 3.16205 0
M  V30 1427 C 135.497 -0.831419 4.42049 0
M  V30 1428 C 136.816 -2.69454 3.47969 0
M  V30 1429 H 133.935 -0.32977 0.659106 0
M  V30 1430 H 136.577 -0.178169 1.89163 0
M  V30 1431 H 134.727 -2.34778 3.09534 0
M  V30 1432 H 136.399 -0.220929 4.60771 0
M  V30 1433 H 134.642 -0.138406 4.33579 0
M  V30 1434 H 135.313 -1.43461 5.33032 0
M  V30 1435 H 137.789 -2.17104 3.54972 0
M  V30 1436 H 136.665 -3.23342 4.43555 0
M  V30 1437 H 136.926 -3.48744 2.71717 0
M  V30 1438 N 135.985 -1.50799 -0.457987 0
M  V30 1439 C 137.401 -1.38515 -0.792819 0
M  V30 1440 C 137.601 -0.451409 -1.96379 0
M  V30 1441 O 136.657 0.10112 -2.52297 0
M  V30 1442 C 137.97 -2.80149 -1.09258 0
M  V30 1443 C 139.518 -2.89156 -1.19825 0
M  V30 1444 C 139.993 -4.31651 -1.53106 0
M  V30 1445 N 141.484 -4.34662 -1.60072 0
M  V30 1446 C 142.219 -5.41928 -1.87354 0
M  V30 1447 N 141.715 -6.59384 -2.12568 0
M  V30 1448 N 143.508 -5.29385 -1.88965 0
M  V30 1449 H 135.659 -2.10073 0.313511 0
M  V30 1450 H 137.922 -0.944803 0.0777862 0
M  V30 1451 H 137.628 -3.50374 -0.305084 0
M  V30 1452 H 137.502 -3.18204 -2.02549 0
M  V30 1453 H 139.889 -2.19141 -1.97639 0
M  V30 1454 H 139.97 -2.54626 -0.244821 0
M  V30 1455 H 139.614 -5.02208 -0.758266 0
M  V30 1456 H 139.544 -4.63678 -2.49621 0
M  V30 1457 H 142.035 -3.49973 -1.42573 0
M  V30 1458 H 142.348 -7.36934 -2.32696 0
M  V30 1459 H 140.693 -6.62535 -2.09933 0
M  V30 1460 H 143.884 -4.36616 -1.68772 0
M  V30 1461 H 144.057 -6.13066 -2.09891 0
M  V30 1462 N 137.463 0.71206 -1.40597 0
M  V30 1463 C 138.395 1.83704 -1.37061 0
M  V30 1464 C 139.408 1.60453 -0.275426 0
M  V30 1465 O 140.597 1.70262 -0.53602 0
M  V30 1466 C 137.697 3.20172 -1.11099 0
M  V30 1467 C 136.87 3.7059 -2.3234 0
M  V30 1468 C 135.929 4.85681 -2.02485 0
M  V30 1469 O 134.955 4.9815 -2.75382 0
M  V30 1470 N 136.157 5.71735 -1.00497 0
M  V30 1471 H 138.922 1.87235 -2.34016 0
M  V30 1472 H 136.483 0.893739 -1.34996 0
M  V30 1473 H 138.475 3.94768 -0.891064 0
M  V30 1474 H 137.045 3.11767 -0.227989 0
M  V30 1475 H 136.265 2.87085 -2.7014 0
M  V30 1476 H 137.553 4.01011 -3.13157 0
M  V30 1477 H 136.951 5.64275 -0.401298 0
M  V30 1478 H 135.508 6.463 -0.844942 0
M  V30 1479 N 138.941 1.26152 0.944643 0
M  V30 1480 C 139.904 1.07474 2.0244 0
M  V30 1481 C 140.904 0.0242064 1.60782 0
M  V30 1482 O 142.094 0.267302 1.72137 0
M  V30 1483 C 139.226 0.633956 3.34953 0
M  V30 1484 H 140.419 2.03336 2.20442 0
M  V30 1485 H 137.972 1.087 1.12312 0
M  V30 1486 H 138.707 -0.326811 3.22649 0
M  V30 1487 H 138.492 1.39247 3.66542 0
M  V30 1488 H 139.982 0.52501 4.14287 0
M  V30 1489 N 140.419 -1.14872 1.07899 0
M  V30 1490 C 141.83 -1.67367 0.827363 0
M  V30 1491 C 142.181 -1.85236 -0.646693 0
M  V30 1492 O 141.306 -1.55974 -1.50004 0
M  V30 1493 C 141.901 -3.04016 1.49532 0
M  V30 1494 C 140.46 -3.53566 1.29106 0
M  V30 1495 C 139.607 -2.29161 1.56143 0
M  V30 1496 H 142.558 -0.990083 1.24028 0
M  V30 1497 H 142.579 -3.69219 0.919643 0
M  V30 1498 H 142.091 -2.90978 2.56814 0
M  V30 1499 H 140.192 -3.71835 0.238713 0
M  V30 1500 H 140.305 -4.34661 2.01511 0
M  V30 1501 H 138.669 -2.34978 0.982717 0
M  V30 1502 H 139.452 -2.18705 2.64619 0
M  V30 1503 N 141.898 -0.863906 -1.31812 0
M  V30 1504 C 143.145 -0.471836 -1.96926 0
M  V30 1505 C 143.473 0.974578 -1.68322 0
M  V30 1506 O 142.728 1.7003 -0.968933 0
M  V30 1507 C 143.027 -0.668547 -3.51091 0
M  V30 1508 C 142.693 -2.08683 -3.99703 0
M  V30 1509 C 141.355 -2.47471 -4.12688 0
M  V30 1510 C 143.707 -3.01207 -4.25351 0
M  V30 1511 C 141.035 -3.78037 -4.4867 0
M  V30 1512 C 143.387 -4.31282 -4.62794 0
M  V30 1513 C 142.051 -4.69992 -4.73987 0
M  V30 1514 H 141.321 -0.172657 -0.720604 0
M  V30 1515 H 143.968 -1.09573 -1.57054 0
M  V30 1516 H 142.273 0.0385252 -3.91781 0
M  V30 1517 H 143.97 -0.345102 -3.99512 0
M  V30 1518 H 140.56 -1.77566 -3.90087 0
M  V30 1519 H 144.744 -2.72469 -4.14819 0
M  V30 1520 H 140 -4.078 -4.55532 0
M  V30 1521 H 144.174 -5.03031 -4.81594 0
M  V30 1522 H 141.801 -5.71207 -5.01624 0
M  V30 1523 N 143.376 1.44774 -0.622745 0
M  V30 1524 C 144.306 2.33382 0.0741861 0
M  V30 1525 C 145.287 1.47719 0.843387 0
M  V30 1526 O 146.472 1.76458 0.810934 0
M  V30 1527 C 143.602 3.30663 1.06204 0
M  V30 1528 C 142.556 4.26079 0.405037 0
M  V30 1529 C 141.882 5.13165 1.5022 0
M  V30 1530 C 143.182 5.1781 -0.683414 0
M  V30 1531 H 144.876 2.91905 -0.665713 0
M  V30 1532 H 142.422 1.40363 -0.321587 0
M  V30 1533 H 144.375 3.9153 1.55827 0
M  V30 1534 H 143.099 2.70331 1.83272 0
M  V30 1535 H 141.758 3.66532 -0.0704683 0
M  V30 1536 H 141.406 4.49191 2.26355 0
M  V30 1537 H 141.106 5.77812 1.06803 0
M  V30 1538 H 142.63 5.76902 2.00041 0
M  V30 1539 H 144.044 5.72661 -0.270631 0
M  V30 1540 H 142.441 5.91015 -1.04023 0
M  V30 1541 H 143.511 4.59326 -1.55395 0
M  V30 1542 N 144.854 0.36279 1.53368 0
M  V30 1543 C 146.1 -0.228113 2.01513 0
M  V30 1544 C 146.433 -1.48648 1.2497 0
M  V30 1545 O 145.708 -1.91459 0.342616 0
M  V30 1546 C 145.991 -0.522884 3.56284 0
M  V30 1547 C 145.844 0.74892 4.43521 0
M  V30 1548 C 147.163 -1.32461 4.19693 0
M  V30 1549 H 144.282 -0.0814343 0.732487 0
M  V30 1550 H 146.924 0.48713 1.83649 0
M  V30 1551 H 145.074 -1.1322 3.71636 0
M  V30 1552 H 146.746 1.38648 4.39971 0
M  V30 1553 H 144.989 1.36986 4.11603 0
M  V30 1554 H 145.66 0.497667 5.49752 0
M  V30 1555 H 148.136 -0.809203 4.08156 0
M  V30 1556 H 147.012 -1.49961 5.28018 0
M  V30 1557 H 147.273 -2.33232 3.75573 0
M  V30 1558 N 146.332 -1.57332 0.0918853 0
M  V30 1559 C 147.56 -1.98574 -0.581048 0
M  V30 1560 C 147.975 -0.970903 -1.61923 0
M  V30 1561 O 147.332 0.0399054 -1.82456 0
M  V30 1562 C 147.383 -3.39872 -1.23164 0
M  V30 1563 O 147.104 -4.37469 -0.234989 0
M  V30 1564 C 148.605 -3.96099 -1.99049 0
M  V30 1565 H 145.825 -0.65261 -0.156018 0
M  V30 1566 H 148.369 -2.0379 0.170225 0
M  V30 1567 H 146.524 -3.35679 -1.93386 0
M  V30 1568 H 146.938 -5.19751 -0.70418 0
M  V30 1569 H 148.412 -4.97127 -2.39934 0
M  V30 1570 H 148.889 -3.3374 -2.85507 0
M  V30 1571 H 149.495 -4.03755 -1.3365 0
M  V30 1572 N 147.81 0.181792 -1.56548 0
M  V30 1573 C 148.74 1.22765 -1.98623 0
M  V30 1574 C 149.721 1.46747 -0.860189 0
M  V30 1575 O 150.906 1.58259 -1.12551 0
M  V30 1576 C 148.036 2.56894 -2.33715 0
M  V30 1577 C 146.99 2.475 -3.49182 0
M  V30 1578 C 146.316 3.86023 -3.69986 0
M  V30 1579 C 147.616 1.98866 -4.82959 0
M  V30 1580 H 149.31 0.877942 -2.86239 0
M  V30 1581 H 146.856 0.42088 -1.37712 0
M  V30 1582 H 148.809 3.30253 -2.61746 0
M  V30 1583 H 147.533 2.93632 -1.42997 0
M  V30 1584 H 146.192 1.76596 -3.21262 0
M  V30 1585 H 145.84 4.20136 -2.76576 0
M  V30 1586 H 145.54 3.80609 -4.47672 0
M  V30 1587 H 147.064 4.60984 -4.00407 0
M  V30 1588 H 148.478 2.61992 -5.09934 0
M  V30 1589 H 146.875 2.04424 -5.64208 0
M  V30 1590 H 147.945 0.942465 -4.75653 0
M  V30 1591 N 149.288 1.51039 0.449983 0
M  V30 1592 C 150.238 1.67824 1.54335 0
M  V30 1593 C 151.222 0.5324 1.51836 0
M  V30 1594 O 152.414 0.787762 1.58503 0
M  V30 1595 C 149.543 1.7951 2.92628 0
M  V30 1596 C 148.629 2.99838 2.9993 0
M  V30 1597 N 149.02 4.23207 2.77001 0
M  V30 1598 C 147.318 2.98832 3.31082 0
M  V30 1599 C 148.019 5.04361 2.89818 0
M  V30 1600 N 146.995 4.38746 3.2094 0
M  V30 1601 H 150.797 2.60884 1.35339 0
M  V30 1602 H 148.311 1.48513 0.657085 0
M  V30 1603 H 150.308 1.89642 3.7127 0
M  V30 1604 H 148.968 0.876227 3.12654 0
M  V30 1605 H 149.979 4.5236 2.52172 0
M  V30 1606 H 146.656 2.16527 3.56963 0
M  V30 1607 H 148.046 6.12528 2.76151 0
M  V30 1608 N 150.766 -0.704594 1.40972 0
M  V30 1609 C 151.996 -1.49138 1.42974 0
M  V30 1610 C 152.404 -1.89175 0.0308406 0
M  V30 1611 O 151.747 -1.56734 -0.958138 0
M  V30 1612 C 151.809 -2.79016 2.26694 0
M  V30 1613 C 151.473 -2.61236 3.74973 0
M  V30 1614 C 152.47 -2.27773 4.67349 0
M  V30 1615 C 150.155 -2.77158 4.18914 0
M  V30 1616 C 152.149 -2.10457 6.01653 0
M  V30 1617 C 149.836 -2.59459 5.53285 0
M  V30 1618 C 150.834 -2.26158 6.4447 0
M  V30 1619 O 150.522 -2.08605 7.76363 0
M  V30 1620 H 150.254 -0.466443 0.489292 0
M  V30 1621 H 152.808 -0.8758 1.85793 0
M  V30 1622 H 151.038 -3.42947 1.78673 0
M  V30 1623 H 152.727 -3.40782 2.20504 0
M  V30 1624 H 153.493 -2.15095 4.34694 0
M  V30 1625 H 149.372 -3.02064 3.48251 0
M  V30 1626 H 152.916 -1.84387 6.72791 0
M  V30 1627 H 148.813 -2.71725 5.85522 0
M  V30 1628 H 149.581 -2.23439 7.87412 0
M  V30 1629 N 152.244 -1.26651 -0.937939 0
M  V30 1630 C 153.207 -1.08546 -2.01867 0
M  V30 1631 C 154.207 -0.0327327 -1.60767 0
M  V30 1632 O 155.397 -0.276427 -1.71993 0
M  V30 1633 C 152.529 -0.651711 -3.34613 0
M  V30 1634 H 153.722 -2.04502 -2.1936 0
M  V30 1635 H 151.275 -1.09294 -1.11734 0
M  V30 1636 H 152.01 0.309696 -3.22818 0
M  V30 1637 H 151.795 -1.41189 -3.65798 0
M  V30 1638 H 153.285 -0.546973 -4.14002 0
M  V30 1639 N 153.722 1.14298 -1.08507 0
M  V30 1640 C 154.969 1.85359 -0.815373 0
M  V30 1641 C 155.297 1.83001 0.658865 0
M  V30 1642 O 154.552 1.25655 1.50031 0
M  V30 1643 C 154.851 3.33547 -1.28379 0
M  V30 1644 C 154.517 3.56093 -2.76602 0
M  V30 1645 C 153.179 3.61955 -3.17084 0
M  V30 1646 C 155.531 3.64834 -3.72217 0
M  V30 1647 C 152.859 3.74082 -4.51973 0
M  V30 1648 C 155.211 3.78487 -5.06883 0
M  V30 1649 C 153.875 3.82598 -5.46969 0
M  V30 1650 H 153.145 0.678276 -0.298366 0
M  V30 1651 H 155.792 1.35002 -1.35819 0
M  V30 1652 H 154.097 3.86191 -0.660593 0
M  V30 1653 H 155.794 3.86959 -1.05186 0
M  V30 1654 H 152.384 3.52179 -2.4427 0
M  V30 1655 H 156.568 3.59595 -3.42061 0
M  V30 1656 H 151.824 3.75527 -4.82483 0
M  V30 1657 H 155.998 3.84193 -5.80834 0
M  V30 1658 H 153.625 3.91747 -6.51489 0
M  V30 1659 N 155.201 0.870884 1.31352 0
M  V30 1660 C 156.133 0.28455 2.27427 0
M  V30 1661 C 157.146 -0.552927 1.53123 0
M  V30 1662 O 158.335 -0.374771 1.74521 0
M  V30 1663 C 155.435 -0.615164 3.3327 0
M  V30 1664 C 154.608 0.190079 4.36987 0
M  V30 1665 C 153.667 -0.637917 5.22319 0
M  V30 1666 O 152.693 -0.065626 5.69162 0
M  V30 1667 N 153.895 -1.94973 5.46778 0
M  V30 1668 H 156.66 1.11017 2.7838 0
M  V30 1669 H 154.221 0.732458 1.44384 0
M  V30 1670 H 156.213 -1.1748 3.87273 0
M  V30 1671 H 154.783 -1.34146 2.82354 0
M  V30 1672 H 154.003 0.931165 3.83044 0
M  V30 1673 H 155.291 0.742579 5.03352 0
M  V30 1674 H 154.689 -2.4378 5.10478 0
M  V30 1675 H 153.246 -2.45713 6.03712 0
M  V30 1676 N 156.679 -1.44442 0.630414 0
M  V30 1677 C 157.907 -2.06414 0.141671 0
M  V30 1678 C 158.322 -1.47105 -1.18345 0
M  V30 1679 O 157.679 -0.593662 -1.72574 0
M  V30 1680 C 157.73 -3.61494 0.0199784 0
M  V30 1681 O 157.451 -4.18594 1.29269 0
M  V30 1682 C 158.952 -4.40499 -0.497544 0
M  V30 1683 H 156.172 -0.666292 0.0793452 0
M  V30 1684 H 158.716 -1.85323 0.864614 0
M  V30 1685 H 156.871 -3.8185 -0.653402 0
M  V30 1686 H 157.285 -5.12026 1.13707 0
M  V30 1687 H 158.759 -5.49433 -0.531708 0
M  V30 1688 H 159.236 -4.11895 -1.52445 0
M  V30 1689 H 159.842 -4.25061 0.142562 0
M  V30 1690 N 158.157 -0.370918 -1.53173 0
M  V30 1691 C 159.434 0.273754 -1.93675 0
M  V30 1692 C 159.814 1.65938 -1.3049 0
M  V30 1693 O 159.162 2.23698 -0.465999 0
M  V30 1694 C 159.372 0.318602 -3.47543 0
M  V30 1695 C 160.72 0.556392 -4.20939 0
M  V30 1696 O 161.744 0.399587 -3.53952 0
M  V30 1697 O 160.603 0.862133 -5.39657 0
M  V30 1698 H 157.697 0.165448 -0.810281 0
M  V30 1699 H 160.243 -0.42409 -1.64315 0
M  V30 1700 H 159.015 -0.652687 -3.85818 0
M  V30 1701 H 158.638 1.06212 -3.83151 0
M  V30 1702 N 159.635 1.57281 -0.100228 0
M  V30 1703 C 160.598 2.13158 0.842398 0
M  V30 1704 C 161.598 1.06202 1.20738 0
M  V30 1705 O 162.788 1.32066 1.13597 0
M  V30 1706 C 159.92 2.65639 2.13655 0
M  V30 1707 H 161.113 2.97766 0.357114 0
M  V30 1708 H 158.666 1.5559 0.148823 0
M  V30 1709 H 159.401 1.84566 2.66657 0
M  V30 1710 H 159.186 3.43844 1.88451 0
M  V30 1711 H 160.676 3.08846 2.81077 0
M  V30 1712 N 161.113 -0.173488 1.56642 0
M  V30 1713 C 162.06 -1.21482 1.96242 0
M  V30 1714 C 163.03 -1.44104 0.826027 0
M  V30 1715 O 164.215 -1.5688 1.08597 0
M  V30 1716 C 161.355 -2.54964 2.32567 0
M  V30 1717 C 160.468 -2.39739 3.59373 0
M  V30 1718 C 159.603 -3.66072 3.84921 0
M  V30 1719 C 158.642 -3.45771 5.05083 0
M  V30 1720 N 157.779 -4.64169 5.26775 0
M  V30 1721 H 162.619 -0.870123 2.85014 0
M  V30 1722 H 160.156 -0.418245 1.41029 0
M  V30 1723 H 162.114 -3.32758 2.5165 0
M  V30 1724 H 160.744 -2.87433 1.46908 0
M  V30 1725 H 159.796 -1.53131 3.48217 0
M  V30 1726 H 161.108 -2.20683 4.47326 0
M  V30 1727 H 160.262 -4.52303 4.0436 0
M  V30 1728 H 159.001 -3.88105 2.9534 0
M  V30 1729 H 158.006 -2.57927 4.85545 0
M  V30 1730 H 159.231 -3.25163 5.96193 0
M  V30 1731 H 157.177 -4.86425 4.40144 0
M  V30 1732 H 157.094 -4.48019 6.08946 0
M  V30 1733 H 158.362 -5.51689 5.5069 0
M  V30 1734 N 162.591 -1.51276 -0.441967 0
M  V30 1735 C 163.521 -1.752 -1.54361 0
M  V30 1736 C 164.502 -0.601682 -1.59103 0
M  V30 1737 O 165.687 -0.843913 -1.74905 0
M  V30 1738 C 162.817 -1.87282 -2.92477 0
M  V30 1739 C 161.771 -3.02687 -3.02596 0
M  V30 1740 C 161.097 -2.99947 -4.42647 0
M  V30 1741 C 162.397 -4.4273 -2.77106 0
M  V30 1742 H 164.091 -2.67442 -1.34592 0
M  V30 1743 H 161.637 -1.28694 -0.646048 0
M  V30 1744 H 163.59 -2.02602 -3.695 0
M  V30 1745 H 162.314 -0.916844 -3.13467 0
M  V30 1746 H 160.973 -2.87065 -2.28012 0
M  V30 1747 H 160.621 -2.02136 -4.60597 0
M  V30 1748 H 160.321 -3.77439 -4.50348 0
M  V30 1749 H 161.845 -3.17354 -5.2165 0
M  V30 1750 H 163.259 -4.58727 -3.43864 0
M  V30 1751 H 161.656 -5.21893 -2.96222 0
M  V30 1752 H 162.726 -4.53087 -1.72744 0
M  V30 1753 N 164.069 0.697108 -1.41344 0
M  V30 1754 C 165.019 1.80313 -1.39539 0
M  V30 1755 C 166.003 1.58618 -0.270001 0
M  V30 1756 O 167.195 1.69477 -0.510551 0
M  V30 1757 C 164.324 3.18606 -1.27848 0
M  V30 1758 C 163.41 3.46001 -2.45244 0
M  V30 1759 N 163.801 3.44103 -3.70711 0
M  V30 1760 C 162.099 3.76542 -2.39023 0
M  V30 1761 C 162.8 3.7036 -4.48563 0
M  V30 1762 N 161.776 3.90027 -3.78655 0
M  V30 1763 H 165.578 1.77207 -2.34468 0
M  V30 1764 H 163.092 0.897031 -1.35378 0
M  V30 1765 H 165.089 3.97833 -1.24637 0
M  V30 1766 H 163.749 3.22925 -0.339032 0
M  V30 1767 H 164.76 3.2452 -4.03618 0
M  V30 1768 H 161.437 3.88241 -1.53542 0
M  V30 1769 H 162.827 3.75042 -5.57488 0
M  V30 1770 N 165.547 1.27147 0.931209 0
M  V30 1771 C 166.477 1.12081 2.04842 0
M  V30 1772 C 167.458 0.0232364 1.70084 0
M  V30 1773 O 168.643 0.197085 1.93197 0
M  V30 1774 C 165.773 0.76354 3.38803 0
M  V30 1775 C 164.727 1.81396 3.87659 0
M  V30 1776 C 164.053 1.31075 5.18385 0
M  V30 1777 C 165.353 3.21739 4.11438 0
M  V30 1778 H 167.047 2.05537 2.17703 0
M  V30 1779 H 164.593 0.989603 1.04608 0
M  V30 1780 H 166.546 0.644982 4.16435 0
M  V30 1781 H 165.27 -0.206727 3.25945 0
M  V30 1782 H 163.929 1.92136 3.12217 0
M  V30 1783 H 163.577 0.330037 5.01916 0
M  V30 1784 H 163.277 2.013 5.52044 0
M  V30 1785 H 164.801 1.20506 5.98591 0
M  V30 1786 H 166.215 3.14019 4.79651 0
M  V30 1787 H 164.612 3.89644 4.56397 0
M  V30 1788 H 165.682 3.67054 3.16859 0
M  V30 1789 N 167.025 -1.13721 1.09112 0
M  V30 1790 C 168.274 -1.84275 0.82009 0
M  V30 1791 C 168.587 -1.84253 -0.656509 0
M  V30 1792 O 169.793 -2.50668 -1.04296 0
M  V30 1793 C 168.249 -3.30825 1.41714 0
M  V30 1794 C 167.857 -3.39244 2.92605 0
M  V30 1795 C 169.601 -4.06443 1.22492 0
M  V30 1796 C 167.508 -4.80047 3.45411 0
M  V30 1797 H 166.438 -0.690387 0.30312 0
M  V30 1798 H 169.089 -1.28146 1.31343 0
M  V30 1799 H 167.471 -3.86737 0.851498 0
M  V30 1800 H 168.645 -2.93344 3.55367 0
M  V30 1801 H 166.96 -2.77088 3.10823 0
M  V30 1802 H 169.557 -5.10387 1.59402 0
M  V30 1803 H 169.9 -4.15972 0.165299 0
M  V30 1804 H 170.433 -3.56852 1.75788 0
M  V30 1805 H 167.172 -4.75709 4.50978 0
M  V30 1806 H 166.692 -5.26455 2.87411 0
M  V30 1807 H 168.371 -5.48957 3.42425 0
M  V30 1808 N 168.503 -0.877838 -1.30888 0
M  V30 1809 C 169.433 -0.35534 -2.3078 0
M  V30 1810 C 170.414 0.557994 -1.60687 0
M  V30 1811 O 171.599 0.473355 -1.88343 0
M  V30 1812 C 168.729 0.437221 -3.44537 0
M  V30 1813 C 167.683 -0.383715 -4.26276 0
M  V30 1814 C 167.009 0.535014 -5.32017 0
M  V30 1815 C 168.309 -1.62201 -4.96476 0
M  V30 1816 H 170.003 -1.19007 -2.74732 0
M  V30 1817 H 167.549 -0.573698 -1.32078 0
M  V30 1818 H 169.502 0.813334 -4.13477 0
M  V30 1819 H 168.226 1.30553 -2.99372 0
M  V30 1820 H 166.885 -0.741874 -3.59015 0
M  V30 1821 H 166.533 1.40083 -4.831 0
M  V30 1822 H 166.233 -0.0104211 -5.87599 0
M  V30 1823 H 167.757 0.907799 -6.03814 0
M  V30 1824 H 169.171 -1.31689 -5.5797 0
M  V30 1825 H 167.568 -2.10711 -5.61891 0
M  V30 1826 H 168.638 -2.37044 -4.23011 0
M  V30 1827 N 169.982 1.44106 -0.638065 0
M  V30 1828 C 171.259 1.95453 -0.0759321 0
M  V30 1829 C 171.639 1.57984 1.40015 0
M  V30 1830 O 170.987 0.857361 2.11806 0
M  V30 1831 C 171.197 3.47655 -0.306132 0
M  V30 1832 C 172.545 4.24114 -0.203008 0
M  V30 1833 O 173.569 3.55405 -0.237871 0
M  V30 1834 O 172.428 5.46381 -0.113827 0
M  V30 1835 H 169.522 0.826797 0.0183332 0
M  V30 1836 H 172.068 1.54122 -0.710251 0
M  V30 1837 H 170.84 3.68 -1.3301 0
M  V30 1838 H 170.463 3.95949 0.361991 0
M  V30 1839 N 171.46 0.379036 1.52974 0
M  V30 1840 C 172.69 -0.20649 2.05566 0
M  V30 1841 C 173.098 -1.41906 1.25137 0
M  V30 1842 O 172.441 -1.81421 0.288464 0
M  V30 1843 C 172.503 -0.651086 3.53555 0
M  V30 1844 C 172.167 0.446626 4.54812 0
M  V30 1845 C 173.164 1.30079 5.03364 0
M  V30 1846 C 170.849 0.610719 4.98573 0
M  V30 1847 C 172.843 2.30426 5.94292 0
M  V30 1848 C 170.53 1.61754 5.89304 0
M  V30 1849 C 171.528 2.46274 6.37054 0
M  V30 1850 O 171.216 3.45237 7.25994 0
M  V30 1851 H 170.948 -0.0372381 0.674974 0
M  V30 1852 H 173.502 0.539718 1.98182 0
M  V30 1853 H 171.732 -1.44911 3.58522 0
M  V30 1854 H 173.421 -1.16112 3.88938 0
M  V30 1855 H 174.187 1.18527 4.70294 0
M  V30 1856 H 170.066 -0.0374044 4.60985 0
M  V30 1857 H 173.61 2.96432 6.31485 0
M  V30 1858 H 169.507 1.73348 6.21788 0
M  V30 1859 H 170.275 3.41124 7.44027 0
M  V30 1860 N 172.938 -1.57226 0.108567 0
M  V30 1861 C 174.184 -1.95121 -0.552761 0
M  V30 1862 C 174.517 -0.991345 -1.66991 0
M  V30 1863 O 173.792 -0.0267211 -1.94482 0
M  V30 1864 C 174.075 -3.43039 -1.09528 0
M  V30 1865 C 173.928 -4.49797 0.0177332 0
M  V30 1866 C 175.247 -3.92567 -1.98945 0
M  V30 1867 H 172.366 -0.709496 -0.199461 0
M  V30 1868 H 175.008 -1.89126 0.182011 0
M  V30 1869 H 173.158 -3.48279 -1.72146 0
M  V30 1870 H 174.83 -4.56661 0.652584 0
M  V30 1871 H 173.073 -4.284 0.682309 0
M  V30 1872 H 173.744 -5.50528 -0.402919 0
M  V30 1873 H 176.22 -3.89565 -1.46214 0
M  V30 1874 H 175.096 -4.96605 -2.33827 0
M  V30 1875 H 175.357 -3.32648 -2.91201 0
M  V30 1876 N 174.416 0.165178 -1.56732 0
M  V30 1877 C 175.641 0.900253 -1.86843 0
M  V30 1878 C 176.066 1.74766 -0.695596 0
M  V30 1879 O 175.424 1.77786 0.35522 0
M  V30 1880 C 175.472 1.74777 -3.15413 0
M  V30 1881 O 174.576 2.85007 -2.98068 0
M  V30 1882 H 173.917 0.251832 -0.614391 0
M  V30 1883 H 176.447 0.161468 -2.03962 0
M  V30 1884 H 176.457 2.14646 -3.46974 0
M  V30 1885 H 175.132 1.12537 -4.00385 0
M  V30 1886 H 173.709 2.48676 -2.77875 0
M  V30 1887 N 175.894 1.51508 0.433938 0
M  V30 1888 C 177.142 1.6402 1.18075 0
M  V30 1889 C 177.463 0.360328 1.91642 0
M  V30 1890 O 176.733 -0.623945 1.85698 0
M  V30 1891 H 175.313 0.6045 0.43885 0
M  V30 1892 H 177.975 1.88452 0.497178 0
M  V30 1893 H 177.071 2.46949 1.90847 0
M  V30 1894 N 177.372 -0.689602 1.41712 0
M  V30 1895 C 178.62 -1.4468 1.4111 0
M  V30 1896 C 178.941 -1.94986 0.0232196 0
M  V30 1897 O 178.211 -1.72097 -0.935913 0
M  V30 1898 H 176.791 -0.536847 0.519427 0
M  V30 1899 H 179.453 -0.815825 1.77004 0
M  V30 1900 H 178.549 -2.30706 2.10193 0
M  V30 1901 N 178.85 -1.27639 -0.924453 0
M  V30 1902 C 179.76 -1.12466 -2.05885 0
M  V30 1903 C 180.776 -0.053869 -1.73917 0
M  V30 1904 O 181.952 -0.261012 -1.99702 0
M  V30 1905 C 179.017 -0.776768 -3.37886 0
M  V30 1906 C 178.078 -1.92878 -3.83532 0
M  V30 1907 C 177.311 -1.59739 -5.09234 0
M  V30 1908 O 177.534 -0.506782 -5.68144 0
M  V30 1909 O 176.468 -2.43761 -5.50331 0
M  V30 1910 H 180.294 -2.07671 -2.21599 0
M  V30 1911 H 177.879 -1.06857 -1.04413 0
M  V30 1912 H 179.761 -0.596229 -4.17161 0
M  V30 1913 H 178.436 0.145732 -3.23372 0
M  V30 1914 H 177.343 -2.1644 -3.0513 0
M  V30 1915 H 178.676 -2.8316 -4.02593 0
M  V30 1916 N 180.328 1.1314 -1.09713 0
M  V30 1917 C 181.261 2.17735 -0.683137 0
M  V30 1918 C 182.239 1.59582 0.311841 0
M  V30 1919 O 183.423 1.87298 0.212514 0
M  V30 1920 C 180.55 3.38699 -0.00684324 0
M  V30 1921 C 179.596 4.1546 -0.964102 0
M  V30 1922 S 180.429 4.74733 -2.47767 0
M  V30 1923 C 181.585 5.9904 -1.81387 0
M  V30 1924 H 181.818 2.52515 -1.56918 0
M  V30 1925 H 179.351 1.24484 -0.913404 0
M  V30 1926 H 181.309 4.08765 0.377044 0
M  V30 1927 H 179.97 3.02214 0.85589 0
M  V30 1928 H 179.163 5.02093 -0.43803 0
M  V30 1929 H 178.765 3.51066 -1.28953 0
M  V30 1930 H 181.057 6.67846 -1.13967 0
M  V30 1931 H 182 6.56261 -2.65947 0
M  V30 1932 H 182.408 5.4976 -1.28155 0
M  V30 1933 N 181.806 0.884767 1.30421 0
M  V30 1934 C 183.053 0.503105 1.96151 0
M  V30 1935 C 183.381 -0.947676 1.69851 0
M  V30 1936 O 182.636 -1.68467 0.995861 0
M  V30 1937 C 182.935 0.724318 3.49983 0
M  V30 1938 C 182.601 2.15015 3.96332 0
M  V30 1939 C 181.263 2.54005 4.08699 0
M  V30 1940 C 183.615 3.07936 4.20505 0
M  V30 1941 C 180.943 3.85128 4.42599 0
M  V30 1942 C 183.295 4.3859 4.55874 0
M  V30 1943 C 181.959 4.77474 4.66449 0
M  V30 1944 H 181.229 0.184099 0.717766 0
M  V30 1945 H 183.876 1.12058 1.55291 0
M  V30 1946 H 182.181 0.0238086 3.91793 0
M  V30 1947 H 183.878 0.408617 3.98913 0
M  V30 1948 H 180.468 1.8375 3.87213 0
M  V30 1949 H 184.652 2.79033 4.10431 0
M  V30 1950 H 179.908 4.14996 4.48986 0
M  V30 1951 H 184.082 5.10629 4.7353 0
M  V30 1952 H 181.709 5.79115 4.92473 0
M  V30 1953 N 183.284 -1.43765 0.645699 0
M  V30 1954 C 184.512 -2.06253 0.163556 0
M  V30 1955 C 184.927 -1.48352 -1.16778 0
M  V30 1956 O 184.284 -0.611932 -1.71935 0
M  V30 1957 C 184.335 -3.61453 0.0583186 0
M  V30 1958 O 184.056 -4.172 1.33702 0
M  V30 1959 C 185.557 -4.41002 -0.450795 0
M  V30 1960 H 182.777 -0.665413 0.0864077 0
M  V30 1961 H 185.321 -1.84396 0.884222 0
M  V30 1962 H 183.476 -3.82522 -0.612865 0
M  V30 1963 H 183.89 -5.10791 1.19131 0
M  V30 1964 H 185.364 -5.49966 -0.473403 0
M  V30 1965 H 185.841 -4.13488 -1.48068 0
M  V30 1966 H 186.447 -4.24886 0.187637 0
M  V30 1967 N 184.763 -0.387143 -1.52771 0
M  V30 1968 C 185.713 0.465942 -2.23188 0
M  V30 1969 C 186.697 1.03138 -1.23496 0
M  V30 1970 O 187.889 0.957845 -1.48843 0
M  V30 1971 C 185.018 1.59384 -3.04059 0
M  V30 1972 C 184.104 1.04024 -4.11144 0
M  V30 1973 N 184.495 0.211416 -5.05358 0
M  V30 1974 C 182.793 1.31295 -4.26237 0
M  V30 1975 C 183.494 -0.0941698 -5.81624 0
M  V30 1976 N 182.47 0.509207 -5.4121 0
M  V30 1977 H 186.272 -0.173856 -2.93385 0
M  V30 1978 H 183.786 -0.19633 -1.61209 0
M  V30 1979 H 185.783 2.21738 -3.53041 0
M  V30 1980 H 184.443 2.23648 -2.35397 0
M  V30 1981 H 185.454 -0.151151 -5.17679 0
M  V30 1982 H 182.131 1.95679 -3.68803 0
M  V30 1983 H 183.521 -0.765572 -6.67524 0
M  V30 1984 N 186.241 1.57166 -0.116904 0
M  V30 1985 C 187.171 2.18222 0.830759 0
M  V30 1986 C 188.152 1.12167 1.27877 0
M  V30 1987 O 189.337 1.40394 1.34176 0
M  V30 1988 C 186.467 2.77996 2.08172 0
M  V30 1989 C 185.421 3.89614 1.77157 0
M  V30 1990 C 184.747 4.36187 3.09265 0
M  V30 1991 C 186.047 5.1181 1.04151 0
M  V30 1992 H 187.741 2.97664 0.321992 0
M  V30 1993 H 185.287 1.4318 0.153434 0
M  V30 1994 H 187.24 3.19366 2.74924 0
M  V30 1995 H 185.964 1.9584 2.6137 0
M  V30 1996 H 184.623 3.48816 1.12796 0
M  V30 1997 H 184.271 3.50893 3.60393 0
M  V30 1998 H 183.971 5.11455 2.89288 0
M  V30 1999 H 185.495 4.80207 3.77139 0
M  V30 2000 H 186.909 5.50214 1.61052 0
M  V30 2001 H 185.306 5.92648 0.942762 0
M  V30 2002 H 186.376 4.84892 0.0279022 0
M  V30 2003 N 187.719 -0.156864 1.56817 0
M  V30 2004 C 188.949 -0.885031 1.86684 0
M  V30 2005 C 189.357 -1.75696 0.701954 0
M  V30 2006 O 188.7 -1.80569 -0.337732 0
M  V30 2007 C 188.762 -1.80092 3.11138 0
M  V30 2008 C 188.426 -1.10714 4.43386 0
M  V30 2009 C 189.423 -0.465714 5.1781 0
M  V30 2010 C 187.108 -1.09959 4.90117 0
M  V30 2011 C 189.102 0.174002 6.37162 0
M  V30 2012 C 186.789 -0.456055 6.09396 0
M  V30 2013 C 187.787 0.179622 6.82764 0
M  V30 2014 O 187.475 0.812975 7.99779 0
M  V30 2015 H 187.207 -0.261813 0.623242 0
M  V30 2016 H 189.761 -0.157383 2.04796 0
M  V30 2017 H 187.991 -2.56926 2.89009 0
M  V30 2018 H 189.68 -2.40018 3.27332 0
M  V30 2019 H 190.446 -0.463427 4.82781 0
M  V30 2020 H 186.325 -1.58378 4.3294 0
M  V30 2021 H 189.869 0.670765 6.94368 0
M  V30 2022 H 185.766 -0.455975 6.43888 0
M  V30 2023 H 186.534 0.71366 8.15383 0
M  V30 2024 N 189.197 -1.51736 -0.425897 0
M  V30 2025 C 190.129 -1.70083 -1.53638 0
M  V30 2026 C 191.142 -0.581349 -1.52066 0
M  V30 2027 O 192.331 -0.856017 -1.56635 0
M  V30 2028 C 189.431 -1.71078 -2.9255 0
M  V30 2029 C 188.604 -2.99795 -3.185 0
M  V30 2030 C 187.663 -2.92825 -4.37196 0
M  V30 2031 O 186.689 -3.66756 -4.35291 0
M  V30 2032 N 187.891 -2.0946 -5.41393 0
M  V30 2033 H 190.656 -2.65882 -1.383 0
M  V30 2034 H 188.217 -1.49765 -0.614988 0
M  V30 2035 H 190.209 -1.63969 -3.69995 0
M  V30 2036 H 188.779 -0.828242 -3.01428 0
M  V30 2037 H 187.999 -3.20684 -2.2925 0
M  V30 2038 H 189.287 -3.84977 -3.32671 0
M  V30 2039 H 188.685 -1.48792 -5.45781 0
M  V30 2040 H 187.242 -2.08221 -6.17647 0
M  V30 2041 N 190.675 0.682077 -1.42076 0
M  V30 2042 C 192.091 0.994324 -1.24841 0
M  V30 2043 C 192.291 2.0096 -0.147389 0
M  V30 2044 O 191.347 2.47822 0.483782 0
M  V30 2045 C 192.66 1.50607 -2.60265 0
M  V30 2046 C 194.208 1.62421 -2.6756 0
M  V30 2047 C 194.683 2.16994 -4.03333 0
M  V30 2048 N 196.174 2.24337 -4.0525 0
M  V30 2049 C 196.909 2.67621 -5.07116 0
M  V30 2050 N 196.405 3.1041 -6.19368 0
M  V30 2051 N 198.198 2.67305 -4.94474 0
M  V30 2052 H 190.349 0.00973908 -2.12398 0
M  V30 2053 H 192.612 0.0668593 -0.945639 0
M  V30 2054 H 192.318 0.834583 -3.41654 0
M  V30 2055 H 192.192 2.48602 -2.83684 0
M  V30 2056 H 194.579 2.28678 -1.86521 0
M  V30 2057 H 194.66 0.629352 -2.47937 0
M  V30 2058 H 194.304 1.51349 -4.84826 0
M  V30 2059 H 194.234 3.17258 -4.20304 0
M  V30 2060 H 196.725 1.94158 -3.24209 0
M  V30 2061 H 197.038 3.42103 -6.92954 0
M  V30 2062 H 195.383 3.08286 -6.22884 0
M  V30 2063 H 198.574 2.33233 -4.05857 0
M  V30 2064 H 198.747 3.00718 -5.73997 0
M  V30 2065 N 192.153 1.28127 0.917671 0
M  V30 2066 C 193.085 1.07517 2.02417 0
M  V30 2067 C 194.098 0.0281099 1.62776 0
M  V30 2068 O 195.287 0.270748 1.76435 0
M  V30 2069 C 192.387 0.610957 3.33347 0
M  V30 2070 C 191.56 1.73255 4.01624 0
M  V30 2071 C 190.619 1.26238 5.10833 0
M  V30 2072 O 189.645 1.96389 5.34247 0
M  V30 2073 N 190.847 0.123448 5.80369 0
M  V30 2074 H 193.612 2.02806 2.20658 0
M  V30 2075 H 191.173 1.19827 1.08871 0
M  V30 2076 H 193.165 0.280101 4.0373 0
M  V30 2077 H 191.735 -0.24898 3.11607 0
M  V30 2078 H 190.955 2.23319 3.24842 0
M  V30 2079 H 192.243 2.48503 4.43986 0
M  V30 2080 H 191.641 -0.461847 5.63812 0
M  V30 2081 H 190.198 -0.148158 6.51632 0
M  V30 2082 N 193.631 -1.12557 1.10312 0
M  V30 2083 C 194.861 -1.87592 0.865617 0
M  V30 2084 C 195.269 -1.79851 -0.587389 0
M  V30 2085 O 194.612 -1.16949 -1.41664 0
M  V30 2086 C 194.674 -3.37665 1.23381 0
M  V30 2087 C 194.338 -3.69181 2.69359 0
M  V30 2088 C 195.335 -3.67652 3.67597 0
M  V30 2089 C 193.02 -3.98555 3.05711 0
M  V30 2090 C 195.014 -3.95053 5.00212 0
M  V30 2091 C 192.701 -4.25616 4.38514 0
M  V30 2092 C 193.699 -4.23851 5.35574 0
M  V30 2093 O 193.387 -4.50242 6.65986 0
M  V30 2094 H 193.119 -0.600442 0.310557 0
M  V30 2095 H 195.673 -1.4335 1.47105 0
M  V30 2096 H 193.903 -3.82454 0.571467 0
M  V30 2097 H 195.592 -3.94041 0.973994 0
M  V30 2098 H 196.358 -3.45024 3.40857 0
M  V30 2099 H 192.237 -3.99071 2.30789 0
M  V30 2100 H 195.781 -3.93591 5.75962 0
M  V30 2101 H 191.678 -4.47718 4.64994 0
M  V30 2102 H 192.446 -4.67867 6.71597 0
M  V30 2103 N 195.109 -0.891671 -1.2995 0
M  V30 2104 C 196.356 -0.513501 -1.95881 0
M  V30 2105 C 196.684 0.938655 -1.70351 0
M  V30 2106 O 195.939 1.67936 -1.00478 0
M  V30 2107 C 196.238 -0.742868 -3.49594 0
M  V30 2108 C 195.904 -2.17114 -3.95186 0
M  V30 2109 C 194.566 -2.56169 -4.07346 0
M  V30 2110 C 196.918 -3.10162 -4.18866 0
M  V30 2111 C 194.246 -3.87469 -4.4055 0
M  V30 2112 C 196.598 -4.41001 -4.53542 0
M  V30 2113 C 195.262 -4.79941 -4.63911 0
M  V30 2114 H 194.532 -0.187903 -0.71678 0
M  V30 2115 H 197.179 -1.1288 -1.54694 0
M  V30 2116 H 195.484 -0.044586 -3.91775 0
M  V30 2117 H 197.181 -0.429767 -3.9869 0
M  V30 2118 H 193.771 -1.85801 -3.86233 0
M  V30 2119 H 197.955 -2.81206 -4.08946 0
M  V30 2120 H 193.211 -4.17371 -4.46779 0
M  V30 2121 H 197.385 -5.13133 -4.70815 0
M  V30 2122 H 195.012 -5.81719 -4.89395 0
M  V30 2123 N 196.587 1.43421 -0.653314 0
M  V30 2124 C 197.534 2.30768 0.0382271 0
M  V30 2125 C 198.504 1.44755 0.814576 0
M  V30 2126 O 199.689 1.73624 0.791162 0
M  V30 2127 C 196.829 3.30336 0.998599 0
M  V30 2128 C 195.942 4.31448 0.218342 0
M  V30 2129 C 195.077 5.18098 1.17252 0
M  V30 2130 C 194.116 6.10902 0.382702 0
M  V30 2131 N 193.253 6.90176 1.28848 0
M  V30 2132 H 198.093 2.89357 -0.712511 0
M  V30 2133 H 195.63 1.42548 -0.363128 0
M  V30 2134 H 197.588 3.86572 1.56901 0
M  V30 2135 H 196.218 2.73397 1.71621 0
M  V30 2136 H 195.27 3.77506 -0.46836 0
M  V30 2137 H 196.582 4.97227 -0.395812 0
M  V30 2138 H 195.736 5.7896 1.81356 0
M  V30 2139 H 194.475 4.52444 1.82058 0
M  V30 2140 H 193.48 5.49128 -0.27169 0
M  V30 2141 H 194.705 6.78598 -0.260957 0
M  V30 2142 H 192.651 6.27171 1.92334 0
M  V30 2143 H 192.568 7.52478 0.728887 0
M  V30 2144 H 193.836 7.55543 1.91766 0
M  V30 2145 N 198.065 0.39524 1.52563 0
M  V30 2146 C 198.975 -0.444232 2.30356 0
M  V30 2147 C 199.991 -1.06615 1.37511 0
M  V30 2148 O 201.167 -1.07067 1.70583 0
M  V30 2149 C 198.232 -1.55315 3.09964 0
M  V30 2150 C 197.293 -0.955734 4.18526 0
M  V30 2151 C 196.526 -2.01181 4.9433 0
M  V30 2152 O 196.749 -3.22781 4.70285 0
M  V30 2153 O 195.683 -1.62579 5.79527 0
M  V30 2154 H 199.509 0.189667 3.03107 0
M  V30 2155 H 197.094 0.1588 1.48554 0
M  V30 2156 H 198.976 -2.19724 3.59582 0
M  V30 2157 H 197.651 -2.17191 2.4002 0
M  V30 2158 H 196.558 -0.274743 3.7309 0
M  V30 2159 H 197.891 -0.381109 4.90722 0
M  V30 2160 N 199.544 -1.57102 0.125237 0
M  V30 2161 C 200.507 -2.14471 -0.80838 0
M  V30 2162 C 201.507 -1.0811 -1.19033 0
M  V30 2163 O 202.697 -1.33856 -1.11482 0
M  V30 2164 C 199.829 -2.69005 -2.09402 0
M  V30 2165 H 201.022 -2.98297 -0.309696 0
M  V30 2166 H 198.575 -1.55807 -0.124051 0
M  V30 2167 H 199.31 -1.88785 -2.63687 0
M  V30 2168 H 199.095 -3.46799 -1.82957 0
M  V30 2169 H 200.585 -3.13278 -2.76128 0
M  V30 2170 N 201.022 0.148545 -1.56898 0
M  V30 2171 C 201.932 1.20293 -2.01412 0
M  V30 2172 C 202.948 1.47107 -0.929273 0
M  V30 2173 O 204.124 1.58807 -1.23863 0
M  V30 2174 C 201.189 2.51682 -2.38447 0
M  V30 2175 C 200.25 2.32529 -3.60872 0
M  V30 2176 C 199.483 3.57653 -3.96132 0
M  V30 2177 O 199.706 4.63771 -3.32073 0
M  V30 2178 O 198.64 3.50408 -4.89385 0
M  V30 2179 H 202.466 0.855025 -2.91416 0
M  V30 2180 H 200.051 0.357151 -1.45068 0
M  V30 2181 H 201.933 3.29147 -2.63135 0
M  V30 2182 H 200.608 2.86006 -1.51599 0
M  V30 2183 H 199.515 1.53019 -3.41373 0
M  V30 2184 H 200.848 2.03121 -4.48333 0
M  V30 2185 N 202.5 1.5196 0.417844 0
M  V30 2186 C 203.746 1.65836 1.16732 0
M  V30 2187 C 204.079 0.382881 1.90388 0
M  V30 2188 O 203.354 -0.618368 1.84408 0
M  V30 2189 C 203.637 2.87466 2.16876 0
M  V30 2190 C 203.49 4.25041 1.47174 0
M  V30 2191 C 204.809 3.04613 3.17646 0
M  V30 2192 H 201.928 0.603515 0.423011 0
M  V30 2193 H 204.57 1.84494 0.454105 0
M  V30 2194 H 202.72 2.71689 2.777 0
M  V30 2195 H 204.392 4.52527 0.895376 0
M  V30 2196 H 202.635 4.26843 0.773806 0
M  V30 2197 H 203.306 5.06176 2.20204 0
M  V30 2198 H 205.782 3.1923 2.66892 0
M  V30 2199 H 204.658 3.91247 3.8499 0
M  V30 2200 H 204.919 2.17541 3.84874 0
M  V30 2201 N 203.978 -0.674533 1.42435 0
M  V30 2202 C 205.394 -0.98769 1.25367 0
M  V30 2203 C 205.594 -2.00879 0.158044 0
M  V30 2204 O 204.65 -2.48075 -0.470633 0
M  V30 2205 C 205.963 -1.49224 2.6106 0
M  V30 2206 C 207.511 -1.61 2.68417 0
M  V30 2207 C 207.986 -2.14852 4.04478 0
M  V30 2208 N 209.477 -2.22185 4.06434 0
M  V30 2209 C 210.212 -2.64928 5.08528 0
M  V30 2210 N 209.708 -3.07121 6.21006 0
M  V30 2211 N 211.501 -2.64679 4.95885 0
M  V30 2212 H 203.652 0.00152503 2.124 0
M  V30 2213 H 205.915 -0.0618434 0.945981 0
M  V30 2214 H 205.621 -0.816453 3.42092 0
M  V30 2215 H 205.495 -2.47094 2.84999 0
M  V30 2216 H 207.882 -2.27686 1.87732 0
M  V30 2217 H 207.963 -0.616195 2.48267 0
M  V30 2218 H 207.607 -1.48775 4.85622 0
M  V30 2219 H 207.537 -3.15024 4.2198 0
M  V30 2220 H 210.028 -1.92435 3.25234 0
M  V30 2221 H 210.341 -3.38423 6.94759 0
M  V30 2222 H 208.686 -3.04978 6.24511 0
M  V30 2223 H 211.877 -2.31078 4.07088 0
M  V30 2224 H 212.05 -2.9767 5.75584 0
M  V30 2225 N 205.456 -1.28612 -0.910864 0
M  V30 2226 C 206.702 -1.16106 -1.66274 0
M  V30 2227 C 207.035 0.289113 -1.92036 0
M  V30 2228 O 206.31 1.21 -1.52281 0
M  V30 2229 C 206.593 -1.96309 -3.01885 0
M  V30 2230 C 206.446 -3.49405 -2.8326 0
M  V30 2231 C 207.765 -1.78076 -4.02463 0
M  V30 2232 H 204.884 -0.423152 -0.603417 0
M  V30 2233 H 207.526 -1.57961 -1.05586 0
M  V30 2234 H 205.676 -1.60742 -3.53687 0
M  V30 2235 H 207.348 -3.94894 -2.38446 0
M  V30 2236 H 205.591 -3.74893 -2.18261 0
M  V30 2237 H 206.262 -4.00784 -3.79574 0
M  V30 2238 H 208.738 -2.0912 -3.59733 0
M  V30 2239 H 207.614 -2.36561 -4.95308 0
M  V30 2240 H 207.875 -0.733008 -4.35981 0
M  V30 2241 N 206.934 1.1197 -1.10907 0
M  V30 2242 C 208.164 1.8713 -0.875553 0
M  V30 2243 C 208.572 1.8016 0.577843 0
M  V30 2244 O 207.915 1.17699 1.41042 0
M  V30 2245 C 207.977 3.37005 -1.2517 0
M  V30 2246 C 207.641 3.67748 -2.71313 0
M  V30 2247 C 208.638 3.65698 -3.69542 0
M  V30 2248 C 206.323 3.96928 -3.07821 0
M  V30 2249 C 208.317 3.92395 -5.023 0
M  V30 2250 C 206.004 4.23284 -4.40765 0
M  V30 2251 C 207.002 4.21005 -5.37814 0
M  V30 2252 O 206.69 4.46704 -6.68364 0
M  V30 2253 H 206.422 0.598786 -0.313737 0
M  V30 2254 H 208.976 1.42568 -1.47863 0
M  V30 2255 H 207.206 3.82146 -0.591741 0
M  V30 2256 H 208.895 3.93519 -0.994877 0
M  V30 2257 H 209.661 3.43211 -3.42682 0
M  V30 2258 H 205.54 3.97841 -2.32902 0
M  V30 2259 H 209.084 3.90531 -5.78041 0
M  V30 2260 H 204.981 4.45246 -4.67361 0
M  V30 2261 H 205.749 4.64299 -6.74069 0
M  V30 2262 N 208.412 0.89855 1.29475 0
M  V30 2263 C 209.66 0.522847 1.9522 0
M  V30 2264 C 209.981 -0.93371 1.71192 0
M  V30 2265 O 209.251 -1.65823 1.04305 0
M  V30 2266 H 207.831 0.190366 0.722336 0
M  V30 2267 H 210.493 1.14459 1.5775 0
M  V30 2268 H 209.589 0.704476 3.04045 0
M  V30 2269 N 209.89 -1.43072 0.660911 0
M  V30 2270 C 211.138 -2.01323 0.177094 0
M  V30 2271 C 211.459 -1.5245 -1.2159 0
M  V30 2272 O 210.729 -0.740322 -1.81373 0
M  V30 2273 H 209.309 -0.744382 0.0624804 0
M  V30 2274 H 211.971 -1.75179 0.854305 0
M  V30 2275 H 211.067 -3.11649 0.167641 0
M  V30 2276 N 211.368 -0.403325 -1.52352 0
M  V30 2277 C 212.278 0.432009 -2.30588 0
M  V30 2278 C 213.294 1.05884 -1.38075 0
M  V30 2279 O 214.47 1.06161 -1.71148 0
M  V30 2280 C 211.535 1.53669 -3.10784 0
M  V30 2281 C 210.596 0.933525 -4.19027 0
M  V30 2282 C 209.829 1.98557 -4.9539 0
M  V30 2283 O 210.052 3.20283 -4.71991 0
M  V30 2284 O 208.986 1.59504 -5.80381 0
M  V30 2285 H 212.812 -0.205739 -3.03002 0
M  V30 2286 H 210.397 -0.166675 -1.48467 0
M  V30 2287 H 212.279 2.17814 -3.60742 0
M  V30 2288 H 210.954 2.15915 -2.41169 0
M  V30 2289 H 209.861 0.254954 -3.7323 0
M  V30 2290 H 211.194 0.35508 -4.90918 0
M  V30 2291 N 212.846 1.57033 -0.133567 0
M  V30 2292 C 214.095 1.94861 0.520768 0
M  V30 2293 C 214.408 1.02012 1.66892 0
M  V30 2294 O 215.614 1.29365 2.38699 0
M  V30 2295 C 214.07 3.46362 0.977809 0
M  V30 2296 C 213.678 4.47773 -0.142674 0
M  V30 2297 C 215.422 3.93083 1.60269 0
M  V30 2298 C 213.329 5.90468 0.331883 0
M  V30 2299 H 212.259 0.727453 0.198315 0
M  V30 2300 H 214.91 1.82227 -0.215759 0
M  V30 2301 H 213.292 3.54282 1.7692 0
M  V30 2302 H 214.466 4.51536 -0.919317 0
M  V30 2303 H 212.781 4.10891 -0.675124 0
M  V30 2304 H 215.378 4.97121 1.96914 0
M  V30 2305 H 215.721 3.33876 2.48662 0
M  V30 2306 H 216.254 3.88025 0.876453 0
M  V30 2307 H 212.993 6.53463 -0.516341 0
M  V30 2308 H 212.513 5.90094 1.07469 0
M  V30 2309 H 214.192 6.42179 0.788332 0
M  V30 2310 N 214.325 -0.140222 1.56975 0
M  V30 2311 C 215.571 -0.852949 1.83991 0
M  V30 2312 C 215.904 -1.80512 0.716187 0
M  V30 2313 O 215.179 -1.92479 -0.279681 0
M  V30 2314 C 215.462 -1.6215 3.21527 0
M  V30 2315 C 215.315 -0.690363 4.4447 0
M  V30 2316 C 216.634 -2.58247 3.56366 0
M  V30 2317 H 213.753 -0.308634 0.669264 0
M  V30 2318 H 216.395 -0.117898 1.89634 0
M  V30 2319 H 214.545 -2.24812 3.16847 0
M  V30 2320 H 216.217 -0.0742264 4.6124 0
M  V30 2321 H 214.46 -0.000396433 4.338 0
M  V30 2322 H 215.131 -1.2643 5.37326 0
M  V30 2323 H 217.607 -2.05701 3.61699 0
M  V30 2324 H 216.483 -3.09067 4.53617 0
M  V30 2325 H 216.744 -3.39923 2.82674 0
M  V30 2326 N 215.803 -1.52179 -0.40978 0
M  V30 2327 C 216.733 -1.78435 -1.5061 0
M  V30 2328 C 217.714 -0.635295 -1.57791 0
M  V30 2329 O 218.899 -0.880823 -1.73076 0
M  V30 2330 C 216.029 -1.93444 -2.88439 0
M  V30 2331 C 214.983 -3.09038 -2.96108 0
M  V30 2332 C 214.309 -3.09268 -4.36185 0
M  V30 2333 C 215.609 -4.48508 -2.67652 0
M  V30 2334 H 217.303 -2.70237 -1.28889 0
M  V30 2335 H 214.849 -1.30036 -0.618605 0
M  V30 2336 H 216.802 -2.10394 -3.65119 0
M  V30 2337 H 215.526 -0.983129 -3.11452 0
M  V30 2338 H 214.185 -2.91837 -2.21872 0
M  V30 2339 H 213.833 -2.11861 -4.56206 0
M  V30 2340 H 213.533 -3.86907 -4.42241 0
M  V30 2341 H 215.057 -3.28348 -5.14801 0
M  V30 2342 H 216.471 -4.65918 -3.34056 0
M  V30 2343 H 214.868 -5.28059 -2.85085 0
M  V30 2344 H 215.938 -4.56649 -1.63095 0
M  V30 2345 N 217.281 0.66697 -1.42791 0
M  V30 2346 C 218.244 1.76211 -1.46568 0
M  V30 2347 C 219.244 1.56896 -0.352196 0
M  V30 2348 O 220.434 1.63044 -0.613364 0
M  V30 2349 C 217.566 3.14935 -1.30494 0
M  V30 2350 H 218.759 1.74247 -2.44086 0
M  V30 2351 H 216.312 0.877342 -1.29354 0
M  V30 2352 H 217.047 3.2252 -0.339301 0
M  V30 2353 H 216.832 3.30359 -2.11199 0
M  V30 2354 H 218.322 3.94821 -1.36038 0
M  V30 2355 N 218.759 1.29093 0.90403 0
M  V30 2356 C 219.689 1.16401 2.02418 0
M  V30 2357 C 220.67 0.0593085 1.69997 0
M  V30 2358 O 221.855 0.238021 1.92736 0
M  V30 2359 C 218.985 0.835233 3.37107 0
M  V30 2360 C 217.939 1.89578 3.83724 0
M  V30 2361 C 217.265 1.42041 5.15489 0
M  V30 2362 C 218.565 3.30394 4.04521 0
M  V30 2363 H 220.259 2.10109 2.13295 0
M  V30 2364 H 217.805 1.01157 1.02486 0
M  V30 2365 H 219.758 0.733169 4.14973 0
M  V30 2366 H 218.482 -0.137543 3.2631 0
M  V30 2367 H 217.141 1.98715 3.08071 0
M  V30 2368 H 216.789 0.436426 5.01103 0
M  V30 2369 H 216.489 2.12964 5.4765 0
M  V30 2370 H 218.013 1.33176 5.959 0
M  V30 2371 H 219.427 3.24123 4.72882 0
M  V30 2372 H 217.824 3.99237 4.48029 0
M  V30 2373 H 218.894 3.73692 3.09002 0
M  V30 2374 N 220.237 -1.11381 1.11499 0
M  V30 2375 C 221.147 -2.21019 0.786628 0
M  V30 2376 C 222.163 -1.72597 -0.220507 0
M  V30 2377 O 223.339 -2.01321 -0.0565251 0
M  V30 2378 C 220.404 -3.459 0.235333 0
M  V30 2379 C 219.465 -4.09107 1.30115 0
M  V30 2380 C 218.698 -5.28027 0.776068 0
M  V30 2381 O 218.921 -5.6904 -0.393661 0
M  V30 2382 O 217.855 -5.81835 1.54114 0
M  V30 2383 H 221.681 -2.51521 1.70209 0
M  V30 2384 H 219.266 -1.19928 0.890928 0
M  V30 2385 H 221.148 -4.21346 -0.067715 0
M  V30 2386 H 219.823 -3.17049 -0.652828 0
M  V30 2387 H 218.73 -3.35391 1.65722 0
M  V30 2388 H 220.063 -4.42139 2.16273 0
M  V30 2389 N 221.715 -0.905404 -1.28997 0
M  V30 2390 C 222.665 -0.358713 -2.25161 0
M  V30 2391 C 223.649 0.524449 -1.52113 0
M  V30 2392 O 224.841 0.365534 -1.73184 0
M  V30 2393 C 221.97 0.407609 -3.40872 0
M  V30 2394 C 221.056 -0.490797 -4.21251 0
M  V30 2395 N 221.447 -1.60061 -4.79806 0
M  V30 2396 C 219.745 -0.289636 -4.45059 0
M  V30 2397 C 220.446 -2.15757 -5.40207 0
M  V30 2398 N 219.422 -1.44988 -5.23908 0
M  V30 2399 H 223.224 -1.20642 -2.67998 0
M  V30 2400 H 220.738 -0.757103 -1.43672 0
M  V30 2401 H 222.735 0.816046 -4.08835 0
M  V30 2402 H 221.395 1.25251 -2.9957 0
M  V30 2403 H 222.406 -1.98329 -4.7842 0
M  V30 2404 H 219.083 0.51643 -4.14294 0
M  V30 2405 H 220.473 -3.09069 -5.96595 0
M  V30 2406 N 223.193 1.4272 -0.668489 0
M  V30 2407 C 224.123 2.335 -0.000100175 0
M  V30 2408 C 225.104 1.50328 0.795964 0
M  V30 2409 O 226.289 1.78949 0.754385 0
M  V30 2410 C 223.419 3.33874 0.956302 0
M  V30 2411 C 222.373 4.27152 0.269278 0
M  V30 2412 C 221.699 5.17684 1.33818 0
M  V30 2413 C 222.999 5.15373 -0.847805 0
M  V30 2414 H 224.693 2.89639 -0.758244 0
M  V30 2415 H 222.239 1.39269 -0.366079 0
M  V30 2416 H 224.192 3.9629 1.43292 0
M  V30 2417 H 222.916 2.76025 1.74579 0
M  V30 2418 H 221.575 3.66123 -0.187042 0
M  V30 2419 H 221.223 4.56165 2.1195 0
M  V30 2420 H 220.923 5.80918 0.883659 0
M  V30 2421 H 222.447 5.82974 1.81586 0
M  V30 2422 H 223.861 5.7151 -0.452681 0
M  V30 2423 H 222.258 5.87407 -1.22773 0
M  V30 2424 H 223.328 4.5415 -1.69929 0
M  V30 2425 N 224.671 0.411399 1.52136 0
M  V30 2426 C 225.621 -0.430376 2.23901 0
M  V30 2427 C 226.605 -1.0116 1.25121 0
M  V30 2428 O 227.797 -0.934044 1.50348 0
M  V30 2429 C 224.926 -1.54527 3.06556 0
M  V30 2430 C 224.012 -0.9747 4.12747 0
M  V30 2431 N 224.403 -0.130991 5.0563 0
M  V30 2432 C 222.701 -1.24497 4.28271 0
M  V30 2433 C 223.402 0.186689 5.814 0
M  V30 2434 N 222.378 -0.42304 5.41951 0
M  V30 2435 H 226.18 0.220509 2.93072 0
M  V30 2436 H 223.694 0.221952 1.60876 0
M  V30 2437 H 225.691 -2.16093 3.56524 0
M  V30 2438 H 224.351 -2.19875 2.38925 0
M  V30 2439 H 225.362 0.23349 5.17373 0
M  V30 2440 H 222.039 -1.89787 3.7187 0
M  V30 2441 H 223.429 0.871673 6.66222 0
M  V30 2442 N 226.149 -1.5696 0.141893 0
M  V30 2443 C 227.096 -2.16501 -0.799737 0
M  V30 2444 C 228.066 -1.09643 -1.24771 0
M  V30 2445 O 229.251 -1.3766 -1.32115 0
M  V30 2446 C 226.391 -2.78679 -2.03549 0
M  V30 2447 C 225.504 -3.99914 -1.6338 0
M  V30 2448 C 224.639 -4.50106 -2.82096 0
M  V30 2449 C 223.678 -5.63819 -2.38275 0
M  V30 2450 N 222.815 -6.08651 -3.49983 0
M  V30 2451 H 227.655 -2.96632 -0.285179 0
M  V30 2452 H 225.192 -1.46533 -0.129053 0
M  V30 2453 H 227.15 -3.1287 -2.75986 0
M  V30 2454 H 225.78 -2.012 -2.52425 0
M  V30 2455 H 224.832 -3.71735 -0.807279 0
M  V30 2456 H 226.144 -4.82311 -1.27192 0
M  V30 2457 H 225.298 -4.86325 -3.62729 0
M  V30 2458 H 224.037 -3.66706 -3.21525 0
M  V30 2459 H 223.042 -5.2718 -1.56081 0
M  V30 2460 H 224.267 -6.49 -1.99938 0
M  V30 2461 H 222.213 -5.28188 -3.89042 0
M  V30 2462 H 222.13 -6.85961 -3.17794 0
M  V30 2463 H 223.398 -6.49515 -4.30988 0
M  V30 2464 N 227.627 0.131896 -1.57047 0
M  V30 2465 C 228.557 1.16384 -2.02428 0
M  V30 2466 C 229.538 1.43936 -0.90644 0
M  V30 2467 O 230.723 1.54599 -1.17528 0
M  V30 2468 C 227.853 2.49328 -2.4177 0
M  V30 2469 C 226.807 2.36266 -3.56879 0
M  V30 2470 C 226.133 3.74057 -3.8208 0
M  V30 2471 C 227.433 1.834 -4.89042 0
M  V30 2472 H 229.127 0.786433 -2.88887 0
M  V30 2473 H 226.673 0.376855 -1.38981 0
M  V30 2474 H 228.626 3.21759 -2.7212 0
M  V30 2475 H 227.35 2.88934 -1.52266 0
M  V30 2476 H 226.009 1.66286 -3.26718 0
M  V30 2477 H 225.657 4.11125 -2.89803 0
M  V30 2478 H 225.357 3.66174 -4.59554 0
M  V30 2479 H 226.881 4.48012 -4.1487 0
M  V30 2480 H 228.295 2.45636 -5.18011 0
M  V30 2481 H 226.692 1.8637 -5.70426 0
M  V30 2482 H 227.762 0.790662 -4.7841 0
M  V30 2483 N 229.106 1.52395 0.401703 0
M  V30 2484 C 230.354 1.66488 1.14569 0
M  V30 2485 C 230.675 0.400897 1.90835 0
M  V30 2486 O 229.945 -0.584415 1.8698 0
M  V30 2487 H 228.525 0.613672 0.425929 0
M  V30 2488 H 231.187 1.89464 0.457093 0
M  V30 2489 H 230.283 2.50942 1.85566 0
M  V30 2490 N 230.584 -0.659388 1.43143 0
M  V30 2491 C 231.833 -1.41518 1.43721 0
M  V30 2492 C 232.146 -1.95499 0.0628176 0
M  V30 2493 O 233.352 -2.71446 -0.0539683 0
M  V30 2494 C 231.808 -2.5608 2.52885 0
M  V30 2495 C 231.416 -2.08733 3.96402 0
M  V30 2496 C 233.16 -3.3349 2.62649 0
M  V30 2497 C 231.067 -3.20469 4.97045 0
M  V30 2498 H 229.997 -0.531705 0.534608 0
M  V30 2499 H 232.648 -0.712343 1.69109 0
M  V30 2500 H 231.03 -3.28805 2.20688 0
M  V30 2501 H 232.204 -1.43059 4.3803 0
M  V30 2502 H 230.519 -1.44219 3.90627 0
M  V30 2503 H 233.116 -4.16734 3.35017 0
M  V30 2504 H 233.459 -3.8111 1.67513 0
M  V30 2505 H 233.992 -2.67842 2.94118 0
M  V30 2506 H 230.731 -2.77824 5.93712 0
M  V30 2507 H 230.251 -3.84874 4.60034 0
M  V30 2508 H 231.93 -3.85698 5.19467 0
M  V30 2509 N 232.062 -1.29571 -0.897171 0
M  V30 2510 C 233.311 -1.1706 -1.64256 0
M  V30 2511 C 233.624 0.276476 -1.93636 0
M  V30 2512 O 234.83 0.52294 -2.66416 0
M  V30 2513 C 233.286 -2.0475 -2.95982 0
M  V30 2514 C 232.894 -3.54295 -2.74187 0
M  V30 2515 C 234.638 -2.0097 -3.73914 0
M  V30 2516 C 232.545 -4.34081 -4.01656 0
M  V30 2517 H 231.475 -0.43452 -0.616205 0
M  V30 2518 H 234.126 -1.54229 -0.994268 0
M  V30 2519 H 232.508 -1.60452 -3.62038 0
M  V30 2520 H 233.682 -4.06662 -2.1671 0
M  V30 2521 H 231.997 -3.59773 -2.09648 0
M  V30 2522 H 234.594 -2.57838 -4.68427 0
M  V30 2523 H 234.937 -0.990273 -4.0435 0
M  V30 2524 H 235.47 -2.43325 -3.14703 0
M  V30 2525 H 232.209 -5.36671 -3.76384 0
M  V30 2526 H 231.729 -3.86483 -4.58684 0
M  V30 2527 H 233.408 -4.44877 -4.69781 0
M  V30 2528 N 233.54 1.10788 -1.12088 0
M  V30 2529 C 234.77 1.86191 -0.895351 0
M  V30 2530 C 235.178 1.80763 0.558702 0
M  V30 2531 O 234.521 1.19188 1.39785 0
M  V30 2532 C 234.583 3.35659 -1.28737 0
M  V30 2533 C 234.247 3.64849 -2.75198 0
M  V30 2534 C 235.244 3.61757 -3.734 0
M  V30 2535 C 232.929 3.93641 -3.12013 0
M  V30 2536 C 234.923 3.87045 -5.06434 0
M  V30 2537 C 232.61 4.18585 -4.4523 0
M  V30 2538 C 233.608 4.15277 -5.42249 0
M  V30 2539 O 233.296 4.3959 -6.73065 0
M  V30 2540 H 233.028 0.595425 -0.32007 0
M  V30 2541 H 235.582 1.40992 -1.49367 0
M  V30 2542 H 233.812 3.81497 -0.63224 0
M  V30 2543 H 235.501 3.92441 -1.03656 0
M  V30 2544 H 236.267 3.39557 -3.46303 0
M  V30 2545 H 232.146 3.95348 -2.37109 0
M  V30 2546 H 235.69 3.84378 -5.82151 0
M  V30 2547 H 231.587 4.40264 -4.72057 0
M  V30 2548 H 232.355 4.57123 -6.78956 0
M  V30 2549 N 235.018 0.912232 1.28515 0
M  V30 2550 C 236.434 0.610159 1.47476 0
M  V30 2551 C 236.634 -0.844955 1.82928 0
M  V30 2552 O 235.69 -1.62416 1.93332 0
M  V30 2553 C 237.003 1.54675 2.57868 0
M  V30 2554 C 238.551 1.55331 2.71738 0
M  V30 2555 C 239.026 2.47649 3.85272 0
M  V30 2556 N 240.517 2.45767 3.92623 0
M  V30 2557 C 241.252 3.13896 4.79851 0
M  V30 2558 N 240.748 3.9135 5.71679 0
M  V30 2559 N 242.541 3.02991 4.73448 0
M  V30 2560 H 234.692 1.85318 1.03783 0
M  V30 2561 H 236.955 0.794777 0.516753 0
M  V30 2562 H 236.661 2.5841 2.38574 0
M  V30 2563 H 236.535 1.27671 3.54937 0
M  V30 2564 H 238.922 0.52335 2.90422 0
M  V30 2565 H 239.003 1.86378 1.75205 0
M  V30 2566 H 238.647 3.50745 3.67342 0
M  V30 2567 H 238.577 2.13904 4.81199 0
M  V30 2568 H 241.068 1.89503 3.26951 0
M  V30 2569 H 241.381 4.40359 6.35062 0
M  V30 2570 H 239.726 3.95455 5.71524 0
M  V30 2571 H 242.917 2.41987 4.007 0
M  V30 2572 H 243.09 3.5636 5.41213 0
M  V30 2573 N 236.496 -1.42363 0.676048 0
M  V30 2574 C 237.773 -1.95183 0.127726 0
M  V30 2575 C 238.153 -1.61641 -1.35777 0
M  V30 2576 O 237.501 -0.913216 -2.09458 0
M  V30 2577 C 237.711 -3.46721 0.398199 0
M  V30 2578 C 239.059 -4.23427 0.315383 0
M  V30 2579 O 240.083 -3.54649 0.332016 0
M  V30 2580 O 238.942 -5.45888 0.25865 0
M  V30 2581 H 236.036 -0.826992 0.00359427 0
M  V30 2582 H 238.582 -1.52184 0.750864 0
M  V30 2583 H 237.354 -3.64344 1.4272 0
M  V30 2584 H 236.977 -3.96769 -0.256885 0
M  V30 2585 N 237.974 -0.419461 -1.51915 0
M  V30 2586 C 238.904 0.391813 -2.30189 0
M  V30 2587 C 239.885 1.03699 -1.34836 0
M  V30 2588 O 241.07 1.04403 -1.63748 0
M  V30 2589 C 238.2 1.50312 -3.13087 0
M  V30 2590 C 237.154 0.9824 -4.16573 0
M  V30 2591 C 236.48 2.18809 -4.8788 0
M  V30 2592 C 237.78 0.0292356 -5.22292 0
M  V30 2593 H 239.474 -0.26135 -2.98257 0
M  V30 2594 H 237.02 -0.127134 -1.43438 0
M  V30 2595 H 238.973 2.07773 -3.66617 0
M  V30 2596 H 237.697 2.18431 -2.42807 0
M  V30 2597 H 236.356 0.430119 -3.64068 0
M  V30 2598 H 236.004 2.85507 -4.14119 0
M  V30 2599 H 235.704 1.84615 -5.57845 0
M  V30 2600 H 237.228 2.76858 -5.44226 0
M  V30 2601 H 238.642 0.512976 -5.71 0
M  V30 2602 H 237.039 -0.2244 -5.9968 0
M  V30 2603 H 238.109 -0.912931 -4.76228 0
M  V30 2604 N 239.452 1.56882 -0.150215 0
M  V30 2605 C 240.399 2.16922 0.788244 0
M  V30 2606 C 241.369 1.10303 1.24187 0
M  V30 2607 O 242.554 1.38359 1.31383 0
M  V30 2608 C 239.694 2.79754 2.02068 0
M  V30 2609 C 238.807 4.00775 1.61257 0
M  V30 2610 C 237.942 4.51595 2.79705 0
M  V30 2611 C 236.981 5.65074 2.35282 0
M  V30 2612 N 236.118 6.10499 3.4675 0
M  V30 2613 H 240.958 2.96779 0.269444 0
M  V30 2614 H 238.495 1.46599 0.12128 0
M  V30 2615 H 240.453 3.14329 2.74323 0
M  V30 2616 H 239.083 2.02536 2.51354 0
M  V30 2617 H 238.135 3.72158 0.787553 0
M  V30 2618 H 239.447 4.82978 1.24633 0
M  V30 2619 H 238.601 4.88242 3.60145 0
M  V30 2620 H 237.34 3.68406 3.19576 0
M  V30 2621 H 236.345 5.28 1.53283 0
M  V30 2622 H 237.57 6.50052 1.96493 0
M  V30 2623 H 235.516 5.30243 3.86236 0
M  V30 2624 H 235.433 6.87637 3.14152 0
M  V30 2625 H 236.701 6.51791 4.27537 0
M  V30 2626 N 240.93 -0.123565 1.57115 0
M  V30 2627 C 241.86 -1.15309 2.03042 0
M  V30 2628 C 242.841 -1.43454 0.914061 0
M  V30 2629 O 244.026 -1.53973 1.18347 0
M  V30 2630 C 241.156 -2.48043 2.43089 0
M  V30 2631 C 240.11 -2.3437 3.58127 0
M  V30 2632 C 239.436 -3.72026 3.84059 0
M  V30 2633 C 240.736 -1.80804 4.90007 0
M  V30 2634 H 242.43 -0.771102 2.893 0
M  V30 2635 H 239.976 -0.369479 1.39179 0
M  V30 2636 H 241.929 -3.20311 2.73823 0
M  V30 2637 H 240.653 -2.88122 1.53796 0
M  V30 2638 H 239.312 -1.64551 3.27595 0
M  V30 2639 H 238.96 -4.09582 2.91979 0
M  V30 2640 H 238.66 -3.63732 4.6149 0
M  V30 2641 H 240.184 -4.45806 4.1724 0
M  V30 2642 H 241.598 -2.42886 5.19307 0
M  V30 2643 H 239.995 -1.83343 5.71407 0
M  V30 2644 H 241.065 -0.76528 4.78823 0
M  V30 2645 N 242.408 -1.52605 -0.393616 0
M  V30 2646 C 243.318 -1.79971 -1.50492 0
M  V30 2647 C 244.334 -0.686181 -1.59899 0
M  V30 2648 O 245.51 -0.973274 -1.76322 0
M  V30 2649 C 242.575 -1.95867 -2.86072 0
M  V30 2650 C 241.636 -3.19781 -2.86424 0
M  V30 2651 C 240.869 -3.34909 -4.15538 0
M  V30 2652 O 241.092 -2.54948 -5.10253 0
M  V30 2653 O 240.026 -4.28141 -4.23059 0
M  V30 2654 H 243.852 -2.74328 -1.30299 0
M  V30 2655 H 241.437 -1.3764 -0.581005 0
M  V30 2656 H 243.319 -2.08056 -3.66457 0
M  V30 2657 H 241.994 -1.04699 -3.063 0
M  V30 2658 H 240.901 -3.13038 -2.04837 0
M  V30 2659 H 242.234 -4.1078 -2.71147 0
M  V30 2660 N 243.887 0.651787 -1.4349 0
M  V30 2661 C 244.835 1.78586 -1.49029 0
M  V30 2662 C 245.829 1.65448 -0.363767 0
M  V30 2663 O 247.035 1.71777 -0.537821 0
M  V30 2664 H 243.41 0.589236 -0.467231 0
M  V30 2665 H 245.381 1.71035 -2.44519 0
M  V30 2666 C 244.13 3.16851 -1.43181 0
M  V30 2667 H 243.453 3.27598 -2.29171 0
M  V30 2668 H 244.893 3.96156 -1.51118 0
M  V30 2669 C 243.352 3.36568 -0.149616 0
M  V30 2670 O 243.882 3.93885 0.788509 0
M  V30 2671 N 242.088 2.90539 -0.0593484 0
M  V30 2672 H 241.635 2.4408 -0.823575 0
M  V30 2673 H 241.593 3.04108 0.797853 0
M  V30 2674 N 245.365 1.30045 0.890287 0
M  V30 2675 C 246.611 1.18737 1.64406 0
M  V30 2676 C 246.944 -0.258525 1.92472 0
M  V30 2677 O 246.219 -1.18562 1.54186 0
M  V30 2678 C 246.502 2.01087 2.98724 0
M  V30 2679 C 246.355 3.53867 2.77665 0
M  V30 2680 C 247.674 1.84457 3.9958 0
M  V30 2681 H 244.793 0.432698 0.596608 0
M  V30 2682 H 247.435 1.5962 1.0306 0
M  V30 2683 H 245.585 1.66349 3.51084 0
M  V30 2684 H 247.257 3.98637 2.32133 0
M  V30 2685 H 245.5 3.78318 2.12269 0
M  V30 2686 H 246.171 4.06772 3.7315 0
M  V30 2687 H 248.647 2.14817 3.56361 0
M  V30 2688 H 247.523 2.44411 4.91482 0
M  V30 2689 H 247.784 0.802276 4.3476 0
M  V30 2690 N 246.843 -1.10192 1.12674 0
M  V30 2691 C 247.773 -2.18652 0.819362 0
M  V30 2692 C 248.754 -1.68698 -0.217915 0
M  V30 2693 O 249.939 -1.94041 -0.0785581 0
M  V30 2694 C 247.069 -3.46202 0.27594 0
M  V30 2695 C 246.023 -4.09444 1.24656 0
M  V30 2696 C 245.349 -5.31725 0.563258 0
M  V30 2697 C 246.649 -4.52863 2.60217 0
M  V30 2698 H 248.343 -2.44622 1.72628 0
M  V30 2699 H 245.889 -1.17571 0.831451 0
M  V30 2700 H 247.842 -4.21372 0.0486149 0
M  V30 2701 H 246.566 -3.1973 -0.666331 0
M  V30 2702 H 245.225 -3.36284 1.45974 0
M  V30 2703 H 244.873 -5.0153 -0.384235 0
M  V30 2704 H 244.573 -5.74991 1.21075 0
M  V30 2705 H 246.097 -6.09624 0.34503 0
M  V30 2706 H 247.511 -5.19294 2.42913 0
M  V30 2707 H 245.908 -5.06986 3.21068 0
M  V30 2708 H 246.978 -3.65656 3.18471 0
M  V30 2709 N 248.321 -0.919034 -1.28029 0
M  V30 2710 C 249.251 -0.428581 -2.29533 0
M  V30 2711 C 250.232 0.50659 -1.62381 0
M  V30 2712 O 251.417 0.413195 -1.89753 0
M  V30 2713 C 248.547 0.327388 -3.45753 0
M  V30 2714 C 247.501 -0.519137 -4.2484 0
M  V30 2715 C 246.827 0.365486 -5.33449 0
M  V30 2716 C 248.127 -1.77914 -4.91064 0
M  V30 2717 H 249.821 -1.27687 -2.70807 0
M  V30 2718 H 247.367 -0.615428 -1.30186 0
M  V30 2719 H 249.32 0.681378 -4.15855 0
M  V30 2720 H 248.044 1.20963 -3.03374 0
M  V30 2721 H 246.703 -0.855717 -3.56473 0
M  V30 2722 H 246.351 1.24642 -4.87312 0
M  V30 2723 H 246.051 -0.197356 -5.87268 0
M  V30 2724 H 247.575 0.715241 -6.06396 0
M  V30 2725 H 248.989 -1.49374 -5.53498 0
M  V30 2726 H 247.386 -2.2848 -5.54903 0
M  V30 2727 H 248.456 -2.50382 -4.15255 0
M  V30 2728 N 249.799 1.42003 -0.683588 0
M  V30 2729 C 251.076 1.95112 -0.138075 0
M  V30 2730 C 251.456 1.62359 1.34918 0
M  V30 2731 O 250.804 0.924311 2.08971 0
M  V30 2732 C 251.014 3.46505 -0.416581 0
M  V30 2733 C 252.362 4.23254 -0.337834 0
M  V30 2734 O 253.386 3.54468 -0.35082 0
M  V30 2735 O 252.245 5.45743 -0.287596 0
M  V30 2736 H 249.339 0.826961 -0.00797996 0
M  V30 2737 H 251.885 1.51784 -0.758924 0
M  V30 2738 H 250.657 3.63582 -1.4465 0
M  V30 2739 H 250.28 3.969 0.235839 0
M  V30 2740 N 251.277 0.427512 1.51691 0
M  V30 2741 C 252.502 -0.143601 2.06902 0
M  V30 2742 C 252.927 -1.36536 1.29382 0
M  V30 2743 O 252.285 -1.78289 0.329043 0
M  V30 2744 C 252.333 -0.454207 3.57728 0
M  V30 2745 O 251.437 -1.54228 3.82475 0
M  V30 2746 H 250.778 -0.00617128 0.663971 0
M  V30 2747 H 253.308 0.606014 1.95419 0
M  V30 2748 H 253.318 -0.707525 4.01818 0
M  V30 2749 H 251.993 0.438812 4.13579 0
M  V30 2750 H 250.57 -1.2797 3.50254 0
M  V30 2751 N 252.755 -1.56801 0.158532 0
M  V30 2752 C 253.665 -2.20916 -0.789518 0
M  V30 2753 C 254.681 -1.1969 -1.26294 0
M  V30 2754 O 255.857 -1.52308 -1.31773 0
M  V30 2755 C 252.922 -2.82727 -2.00665 0
M  V30 2756 C 251.983 -3.99114 -1.58134 0
M  V30 2757 C 251.216 -4.57968 -2.74045 0
M  V30 2758 O 251.439 -4.15704 -3.90572 0
M  V30 2759 O 250.373 -5.48047 -2.48855 0
M  V30 2760 H 254.199 -3.02464 -0.273681 0
M  V30 2761 H 251.784 -1.4924 -0.0690548 0
M  V30 2762 H 253.666 -3.21968 -2.71872 0
M  V30 2763 H 252.341 -2.04184 -2.51179 0
M  V30 2764 H 251.248 -3.64567 -0.839155 0
M  V30 2765 H 252.581 -4.79212 -1.12325 0
M  V30 2766 N 254.233 0.115231 -1.57178 0
M  V30 2767 C 255.481 0.820727 -1.84685 0
M  V30 2768 C 255.802 1.80237 -0.744279 0
M  V30 2769 O 255.072 1.94529 0.231375 0
M  V30 2770 H 253.652 0.306084 -0.681411 0
M  V30 2771 H 256.314 0.101656 -1.94635 0
M  V30 2772 H 255.41 1.36366 -2.80733 0
M  V30 2773 N 255.711 1.52812 0.385517 0
M  V30 2774 C 256.661 1.74219 1.47078 0
M  V30 2775 C 257.645 0.59632 1.49442 0
M  V30 2776 O 258.837 0.85428 1.5502 0
M  V30 2777 C 255.966 1.9176 2.84751 0
M  V30 2778 C 255.052 3.12289 2.86943 0
M  V30 2779 N 255.443 4.34575 2.58802 0
M  V30 2780 C 253.741 3.12605 3.1811 0
M  V30 2781 C 254.442 5.162 2.68166 0
M  V30 2782 N 253.418 4.51964 3.02043 0
M  V30 2783 H 257.22 2.6639 1.24152 0
M  V30 2784 H 254.734 1.51166 0.593504 0
M  V30 2785 H 256.731 2.05218 3.62893 0
M  V30 2786 H 255.391 1.00805 3.08656 0
M  V30 2787 H 256.402 4.62649 2.32759 0
M  V30 2788 H 253.079 2.31472 3.47458 0
M  V30 2789 H 254.469 6.23689 2.49923 0
M  V30 2790 N 257.189 -0.644168 1.43834 0
M  V30 2791 C 258.438 -1.39985 1.45214 0
M  V30 2792 C 258.751 -1.95421 0.0835494 0
M  V30 2793 O 259.957 -2.71488 -0.0251748 0
M  V30 2794 C 258.413 -2.53384 2.55587 0
M  V30 2795 C 258.021 -2.04517 3.98594 0
M  V30 2796 C 259.765 -3.30685 2.66172 0
M  V30 2797 C 257.672 -3.1518 5.00416 0
M  V30 2798 H 256.602 -0.526005 0.540218 0
M  V30 2799 H 259.253 -0.694367 1.69855 0
M  V30 2800 H 257.635 -3.26446 2.24163 0
M  V30 2801 H 258.809 -1.38405 4.39523 0
M  V30 2802 H 257.124 -1.40068 3.92135 0
M  V30 2803 H 259.721 -4.13158 3.39418 0
M  V30 2804 H 260.064 -3.79312 1.71546 0
M  V30 2805 H 260.597 -2.64708 2.96942 0
M  V30 2806 H 257.336 -2.71511 5.96625 0
M  V30 2807 H 256.856 -3.79974 4.64091 0
M  V30 2808 H 258.535 -3.80166 5.23529 0
M  V30 2809 N 258.668 -1.30515 -0.883378 0
M  V30 2810 C 259.914 -1.19607 -1.63774 0
M  V30 2811 C 260.247 0.248314 -1.92606 0
M  V30 2812 O 259.522 1.17742 -1.54813 0
M  V30 2813 C 259.805 -2.02669 -2.97653 0
M  V30 2814 C 259.658 -3.55335 -2.75784 0
M  V30 2815 C 260.977 -1.86573 -3.98596 0
M  V30 2816 H 258.096 -0.435856 -0.594305 0
M  V30 2817 H 260.738 -1.60165 -1.02212 0
M  V30 2818 H 258.888 -1.68208 -3.50197 0
M  V30 2819 H 260.56 -3.99863 -2.30016 0
M  V30 2820 H 258.803 -3.79438 -2.1026 0
M  V30 2821 H 259.474 -4.08745 -3.70988 0
M  V30 2822 H 261.95 -2.16703 -3.55217 0
M  V30 2823 H 260.826 -2.47014 -4.90179 0
M  V30 2824 H 261.087 -0.825321 -4.34328 0
M  V30 2825 N 260.146 1.09593 -1.13257 0
M  V30 2826 C 261.076 2.18214 -0.830946 0
M  V30 2827 C 262.057 1.68812 0.208966 0
M  V30 2828 O 263.242 1.9408 0.0682666 0
M  V30 2829 C 260.372 3.46051 -0.294296 0
M  V30 2830 C 259.326 4.08778 -1.26826 0
M  V30 2831 C 258.652 5.31419 -0.591449 0
M  V30 2832 C 259.952 4.51476 -2.62615 0
M  V30 2833 H 261.646 2.43703 -1.73923 0
M  V30 2834 H 259.192 1.17128 -0.837675 0
M  V30 2835 H 261.145 4.2134 -0.0709606 0
M  V30 2836 H 259.869 3.20079 0.649366 0
M  V30 2837 H 258.528 3.35505 -1.47756 0
M  V30 2838 H 258.176 5.01727 0.357633 0
M  V30 2839 H 257.876 5.74341 -1.24123 0
M  V30 2840 H 259.4 6.09433 -0.377355 0
M  V30 2841 H 260.814 5.17999 -2.45663 0
M  V30 2842 H 259.211 5.05277 -3.23752 0
M  V30 2843 H 260.281 3.63962 -3.20406 0
M  V30 2844 N 261.624 0.925811 1.2754 0
M  V30 2845 C 262.852 0.581509 1.9856 0
M  V30 2846 C 263.267 -0.840041 1.69082 0
M  V30 2847 O 262.624 -1.55805 0.950312 0
M  V30 2848 C 262.675 0.795589 3.52637 0
M  V30 2849 O 262.396 2.16121 3.81082 0
M  V30 2850 C 263.897 0.459744 4.4091 0
M  V30 2851 H 261.117 0.220538 0.633722 0
M  V30 2852 H 263.661 1.24232 1.6244 0
M  V30 2853 H 261.816 0.18161 3.86974 0
M  V30 2854 H 262.23 2.2098 4.75676 0
M  V30 2855 H 263.704 0.660244 5.48037 0
M  V30 2856 H 264.181 -0.604625 4.35018 0
M  V30 2857 H 264.787 1.05178 4.12089 0
M  V30 2858 N 263.102 -1.41638 0.69111 0
M  V30 2859 C 264.379 -1.95036 0.148421 0
M  V30 2860 C 264.759 -1.63072 -1.34055 0
M  V30 2861 O 264.107 -0.93538 -2.08478 0
M  V30 2862 C 264.317 -3.46279 0.434951 0
M  V30 2863 C 265.665 -4.23069 0.360275 0
M  V30 2864 O 266.689 -3.54277 0.369613 0
M  V30 2865 O 265.548 -5.45583 0.316534 0
M  V30 2866 H 262.642 -0.826908 0.0123654 0
M  V30 2867 H 265.188 -1.5138 0.766963 0
M  V30 2868 H 263.96 -3.6281 1.46576 0
M  V30 2869 H 263.583 -3.97019 -0.214787 0
M  V30 2870 N 264.58 -0.43555 -1.51462 0
M  V30 2871 C 265.827 0.131514 -2.02072 0
M  V30 2872 C 266.155 1.42868 -1.31981 0
M  V30 2873 O 265.41 1.91076 -0.422883 0
M  V30 2874 C 265.709 0.39942 -3.55161 0
M  V30 2875 C 265.375 -0.81172 -4.43533 0
M  V30 2876 C 264.037 -1.14387 -4.67407 0
M  V30 2877 C 266.389 -1.61976 -4.95392 0
M  V30 2878 C 263.717 -2.28477 -5.40384 0
M  V30 2879 C 266.069 -2.75164 -5.6962 0
M  V30 2880 C 264.733 -3.08835 -5.91758 0
M  V30 2881 H 264.003 0.0481244 -0.739436 0
M  V30 2882 H 266.65 -0.58238 -1.8243 0
M  V30 2883 H 264.955 1.19519 -3.73125 0
M  V30 2884 H 266.652 0.85157 -3.91854 0
M  V30 2885 H 263.242 -0.542898 -4.25148 0
M  V30 2886 H 267.426 -1.37637 -4.76833 0
M  V30 2887 H 262.682 -2.5488 -5.55739 0
M  V30 2888 H 266.856 -3.38147 -6.08793 0
M  V30 2889 H 264.483 -3.97353 -6.48086 0
M  V30 2890 N 266.058 1.56714 -0.166846 0
M  V30 2891 C 267.306 1.96358 0.478305 0
M  V30 2892 C 267.627 1.0537 1.6408 0
M  V30 2893 O 266.897 0.119154 1.95537 0
M  V30 2894 H 265.477 0.725065 0.179692 0
M  V30 2895 H 268.139 1.93329 -0.246985 0
M  V30 2896 H 267.235 3.00547 0.841292 0
M  V30 2897 N 267.536 -0.106894 1.57237 0
M  V30 2898 C 268.466 -1.13148 2.04254 0
M  V30 2899 C 269.447 -1.42476 0.929224 0
M  V30 2900 O 270.632 -1.52709 1.19973 0
M  V30 2901 C 267.762 -2.4545 2.45706 0
M  V30 2902 C 266.716 -2.30558 3.60592 0
M  V30 2903 C 266.042 -3.67931 3.87983 0
M  V30 2904 C 267.342 -1.75597 4.91897 0
M  V30 2905 H 269.036 -0.740374 2.90101 0
M  V30 2906 H 266.582 -0.354696 1.39563 0
M  V30 2907 H 268.535 -3.17389 2.77205 0
M  V30 2908 H 267.259 -2.86475 1.56843 0
M  V30 2909 H 265.918 -1.61067 3.29322 0
M  V30 2910 H 265.566 -4.06462 2.96306 0
M  V30 2911 H 265.266 -3.58817 4.65322 0
M  V30 2912 H 266.79 -4.41356 4.21945 0
M  V30 2913 H 268.204 -2.37364 5.21854 0
M  V30 2914 H 266.601 -1.77272 5.73319 0
M  V30 2915 H 267.671 -0.714451 4.79608 0
M  V30 2916 N 269.014 -1.53014 -0.377408 0
M  V30 2917 C 270.239 -1.72818 -1.14668 0
M  V30 2918 C 270.664 -0.450725 -1.8262 0
M  V30 2919 O 270.022 0.59439 -1.7128 0
M  V30 2920 C 270.07 -2.88627 -2.16164 0
M  V30 2921 O 269.174 -2.56409 -3.22998 0
M  V30 2922 H 268.515 -0.574301 -0.333278 0
M  V30 2923 H 271.045 -1.99853 -0.438152 0
M  V30 2924 H 271.055 -3.14455 -2.59966 0
M  V30 2925 H 269.73 -3.81294 -1.66095 0
M  V30 2926 H 268.307 -2.4136 -2.84253 0
M  V30 2927 N 270.492 0.636531 -1.44174 0
M  V30 2928 C 271.439 1.74875 -1.50624 0
M  V30 2929 C 272.409 1.62275 -0.35442 0
M  V30 2930 O 273.594 1.82276 -0.563908 0
M  V30 2931 C 270.734 3.13102 -1.45125 0
M  V30 2932 C 269.847 3.36717 -2.7064 0
M  V30 2933 C 268.982 4.64885 -2.57013 0
M  V30 2934 C 268.021 4.8166 -3.77717 0
M  V30 2935 N 267.158 6.01101 -3.62798 0
M  V30 2936 H 271.998 1.68697 -2.45653 0
M  V30 2937 H 269.535 0.823004 -1.21922 0
M  V30 2938 H 271.493 3.93034 -1.39929 0
M  V30 2939 H 270.123 3.18308 -0.536671 0
M  V30 2940 H 269.175 2.50763 -2.86046 0
M  V30 2941 H 270.487 3.44993 -3.60252 0
M  V30 2942 H 269.641 5.52969 -2.49619 0
M  V30 2943 H 268.38 4.58957 -1.64953 0
M  V30 2944 H 267.385 3.92007 -3.85501 0
M  V30 2945 H 268.61 4.89406 -4.70807 0
M  V30 2946 H 266.556 5.96273 -2.73486 0
M  V30 2947 H 266.473 6.10409 -4.46023 0
M  V30 2948 H 267.741 6.91761 -3.59286 0
M  V30 2949 N 271.97 1.30982 0.876444 0
M  V30 2950 C 272.88 1.2003 2.01569 0
M  V30 2951 C 273.896 0.11838 1.73597 0
M  V30 2952 O 275.072 0.33495 1.98595 0
M  V30 2953 C 272.137 0.901637 3.34771 0
M  V30 2954 C 271.198 2.06979 3.76109 0
M  V30 2955 C 270.431 1.78529 5.02954 0
M  V30 2956 O 270.654 0.717296 5.65872 0
M  V30 2957 O 269.588 2.64019 5.40905 0
M  V30 2958 H 273.414 2.15753 2.13739 0
M  V30 2959 H 270.999 1.10658 1.00375 0
M  V30 2960 H 272.881 0.750645 4.1466 0
M  V30 2961 H 271.556 -0.0256141 3.2369 0
M  V30 2962 H 270.463 2.27616 2.96887 0
M  V30 2963 H 271.796 2.97907 3.91807 0
M  V30 2964 N 273.449 -1.08991 1.13837 0
M  V30 2965 C 274.696 -1.81258 0.902882 0
M  V30 2966 C 275.024 -1.85936 -0.570803 0
M  V30 2967 O 274.279 -1.3267 -1.43865 0
M  V30 2968 C 274.578 -3.27042 1.44147 0
M  V30 2969 C 274.244 -3.4249 2.93276 0
M  V30 2970 C 272.906 -3.46414 3.33992 0
M  V30 2971 C 275.258 -3.4666 3.892 0
M  V30 2972 C 272.586 -3.52091 4.69307 0
M  V30 2973 C 274.938 -3.53872 5.24364 0
M  V30 2974 C 273.602 -3.56066 5.646 0
M  V30 2975 H 272.872 -0.663268 0.330388 0
M  V30 2976 H 275.519 -1.28368 1.42105 0
M  V30 2977 H 273.824 -3.82599 0.844097 0
M  V30 2978 H 275.521 -3.81499 1.23528 0
M  V30 2979 H 272.111 -3.40124 2.60794 0
M  V30 2980 H 276.295 -3.42865 3.58828 0
M  V30 2981 H 271.551 -3.52079 4.9985 0
M  V30 2982 H 275.725 -3.56043 5.98503 0
M  V30 2983 H 273.352 -3.60218 6.69438 0
M  V30 2984 N 274.927 -0.932562 -1.27047 0
M  V30 2985 C 275.857 -0.452902 -2.29066 0
M  V30 2986 C 276.838 0.489338 -1.62909 0
M  V30 2987 O 278.023 0.393046 -1.90181 0
M  V30 2988 C 275.153 0.290698 -3.46081 0
M  V30 2989 C 274.107 -0.564168 -4.24265 0
M  V30 2990 C 273.433 0.308886 -5.33807 0
M  V30 2991 C 274.733 -1.83112 -4.89149 0
M  V30 2992 H 276.427 -1.30552 -2.69437 0
M  V30 2993 H 273.973 -0.629201 -1.29526 0
M  V30 2994 H 275.926 0.637233 -4.16554 0
M  V30 2995 H 274.65 1.17738 -3.0464 0
M  V30 2996 H 273.309 -0.893477 -3.55545 0
M  V30 2997 H 272.957 1.19467 -4.88607 0
M  V30 2998 H 272.657 -0.259633 -5.87026 0
M  V30 2999 H 274.181 0.650884 -6.07121 0
M  V30 3000 H 275.595 -1.55236 -5.51883 0
M  V30 3001 H 273.992 -2.34353 -5.52448 0
M  V30 3002 H 275.062 -2.54772 -4.12576 0
M  V30 3003 N 276.405 1.4127 -0.698611 0
M  V30 3004 C 277.633 2.05503 -0.239992 0
M  V30 3005 C 278.048 1.52584 1.11191 0
M  V30 3006 O 277.405 0.675323 1.69545 0
M  V30 3007 C 277.456 3.60987 -0.192429 0
M  V30 3008 O 277.177 4.1195 -1.49094 0
M  V30 3009 C 278.678 4.42371 0.28681 0
M  V30 3010 H 275.898 0.661748 -0.111045 0
M  V30 3011 H 278.442 1.80987 -0.95205 0
M  V30 3012 H 276.597 3.84533 0.470472 0
M  V30 3013 H 277.011 5.06018 -1.38007 0
M  V30 3014 H 278.485 5.51344 0.26896 0
M  V30 3015 H 278.962 4.18699 1.32619 0
M  V30 3016 H 279.568 4.23897 -0.345201 0
M  V30 3017 N 277.883 0.443576 1.51229 0
M  V30 3018 C 278.793 -0.370721 2.31652 0
M  V30 3019 C 279.809 -1.02186 1.40833 0
M  V30 3020 O 280.985 -1.01586 1.73903 0
M  V30 3021 C 278.05 -1.45376 3.14749 0
M  V30 3022 C 277.111 -0.822099 4.21355 0
M  V30 3023 C 276.344 -1.85353 5.0048 0
M  V30 3024 O 276.567 -3.07656 4.80316 0
M  V30 3025 O 275.501 -1.4406 5.84406 0
M  V30 3026 H 279.327 0.286002 3.0235 0
M  V30 3027 H 276.912 0.20598 1.47973 0
M  V30 3028 H 278.794 -2.08173 3.66391 0
M  V30 3029 H 277.469 -2.09445 2.46809 0
M  V30 3030 H 276.376 -0.155909 3.73775 0
M  V30 3031 H 277.709 -0.224797 4.91686 0
M  V30 3032 N 279.361 -1.56624 0.175154 0
M  V30 3033 C 280.271 -2.21741 -0.766042 0
M  V30 3034 C 281.287 -1.21023 -1.25018 0
M  V30 3035 O 282.463 -1.53697 -1.3015 0
M  V30 3036 C 279.528 -2.84839 -1.97655 0
M  V30 3037 C 278.589 -4.00769 -1.53892 0
M  V30 3038 C 277.822 -4.60849 -2.69173 0
M  V30 3039 O 278.045 -4.19823 -3.86141 0
M  V30 3040 O 276.979 -5.50655 -2.43028 0
M  V30 3041 H 280.805 -3.02738 -0.241585 0
M  V30 3042 H 278.39 -1.49305 -0.053222 0
M  V30 3043 H 280.272 -3.24834 -2.68442 0
M  V30 3044 H 278.947 -2.06836 -2.48999 0
M  V30 3045 H 277.854 -3.65436 -0.80044 0
M  V30 3046 H 279.187 -4.80376 -1.07236 0
M  V30 3047 N 280.839 0.0985539 -1.57292 0
M  V30 3048 C 281.786 1.11981 -2.01814 0
M  V30 3049 C 282.756 1.39999 -0.89384 0
M  V30 3050 O 283.941 1.5152 -1.15958 0
M  V30 3051 C 281.081 2.43577 -2.44467 0
M  V30 3052 C 280.194 2.2232 -3.70402 0
M  V30 3053 C 279.329 3.4729 -4.01949 0
M  V30 3054 C 278.368 3.2128 -5.21005 0
M  V30 3055 N 277.505 4.38507 -5.48321 0
M  V30 3056 H 282.345 0.733149 -2.88841 0
M  V30 3057 H 279.882 0.350482 -1.42864 0
M  V30 3058 H 281.84 3.20373 -2.6724 0
M  V30 3059 H 280.47 2.80097 -1.60455 0
M  V30 3060 H 279.522 1.36343 -3.55126 0
M  V30 3061 H 280.834 1.99089 -4.57345 0
M  V30 3062 H 279.988 4.32495 -4.25479 0
M  V30 3063 H 278.727 3.73572 -3.13521 0
M  V30 3064 H 277.732 2.34468 -4.97298 0
M  V30 3065 H 278.957 2.96348 -6.11028 0
M  V30 3066 H 276.903 4.64871 -4.62851 0
M  V30 3067 H 276.82 4.18455 -6.29628 0
M  V30 3068 H 278.088 5.24787 -5.76385 0
M  V30 3069 N 282.317 1.53212 0.369288 0
M  V30 3070 C 283.227 1.82342 1.47609 0
M  V30 3071 C 284.243 0.711532 1.58787 0
M  V30 3072 O 285.419 1.0012 1.74751 0
M  V30 3073 C 282.484 2.00393 2.8292 0
M  V30 3074 C 281.545 3.24297 2.81301 0
M  V30 3075 C 280.778 3.41478 4.10157 0
M  V30 3076 O 281.001 2.63033 5.06132 0
M  V30 3077 O 279.935 4.34817 4.16194 0
M  V30 3078 H 283.761 2.76366 1.25918 0
M  V30 3079 H 281.346 1.38547 0.559034 0
M  V30 3080 H 283.228 2.13859 3.63101 0
M  V30 3081 H 281.903 1.09559 3.04596 0
M  V30 3082 H 280.81 3.16257 1.99831 0
M  V30 3083 H 282.143 4.15041 2.64578 0
M  V30 3084 N 283.795 -0.628877 1.44509 0
M  V30 3085 C 285.211 -0.947305 1.28446 0
M  V30 3086 C 285.411 -2.00275 0.221872 0
M  V30 3087 O 284.467 -2.49447 -0.391471 0
M  V30 3088 C 285.78 -1.40843 2.65676 0
M  V30 3089 C 287.328 -1.52379 2.73404 0
M  V30 3090 C 287.803 -2.01875 4.11109 0
M  V30 3091 N 289.294 -2.09142 4.13296 0
M  V30 3092 C 290.029 -2.48615 5.16699 0
M  V30 3093 N 289.525 -2.87209 6.30462 0
M  V30 3094 N 291.318 -2.48768 5.04054 0
M  V30 3095 H 283.469 0.0690977 2.12288 0
M  V30 3096 H 285.732 -0.0317164 0.947469 0
M  V30 3097 H 285.438 -0.707206 3.44516 0
M  V30 3098 H 285.312 -2.37902 2.92716 0
M  V30 3099 H 287.699 -2.21598 1.9488 0
M  V30 3100 H 287.78 -0.536898 2.50102 0
M  V30 3101 H 287.424 -1.3325 4.90109 0
M  V30 3102 H 287.354 -3.0144 4.31789 0
M  V30 3103 H 289.845 -1.81991 3.31191 0
M  V30 3104 H 290.158 -3.16149 7.05174 0
M  V30 3105 H 288.503 -2.84955 6.33897 0
M  V30 3106 H 291.694 -2.18009 4.14234 0
M  V30 3107 H 291.867 -2.79207 5.84763 0
M  V30 3108 N 285.273 -1.31445 -0.869486 0
M  V30 3109 C 286.501 -1.24122 -1.65534 0
M  V30 3110 C 286.916 0.193387 -1.87807 0
M  V30 3111 O 286.273 1.12557 -1.43656 0
M  V30 3112 C 286.324 -1.98229 -3.02304 0
M  V30 3113 O 286.045 -3.3609 -2.81026 0
M  V30 3114 C 287.546 -1.97751 -3.96749 0
M  V30 3115 H 284.766 -0.428868 -0.516055 0
M  V30 3116 H 287.31 -1.73328 -1.08525 0
M  V30 3117 H 285.465 -1.52782 -3.56001 0
M  V30 3118 H 285.879 -3.7383 -3.67902 0
M  V30 3119 H 287.353 -2.54114 -4.90031 0
M  V30 3120 H 287.83 -0.960137 -4.28577 0
M  V30 3121 H 288.436 -2.43079 -3.48988 0
M  V30 3122 N 286.751 1.08385 -1.14413 0
M  V30 3123 C 287.998 1.80776 -0.912482 0
M  V30 3124 C 288.326 1.86236 0.560934 0
M  V30 3125 O 287.581 1.33431 1.43159 0
M  V30 3126 C 287.88 3.26273 -1.45879 0
M  V30 3127 C 287.546 3.4093 -2.95089 0
M  V30 3128 C 286.208 3.44638 -3.35824 0
M  V30 3129 C 288.56 3.44591 -3.91033 0
M  V30 3130 C 285.888 3.49597 -4.71167 0
M  V30 3131 C 288.24 3.51086 -5.26233 0
M  V30 3132 C 286.904 3.53067 -5.6648 0
M  V30 3133 H 286.174 0.661507 -0.333901 0
M  V30 3134 H 288.821 1.27613 -1.42784 0
M  V30 3135 H 287.126 3.82146 -0.864376 0
M  V30 3136 H 288.823 3.80839 -1.2555 0
M  V30 3137 H 285.413 3.38736 -2.62594 0
M  V30 3138 H 289.597 3.40957 -3.60641 0
M  V30 3139 H 284.853 3.49424 -5.0171 0
M  V30 3140 H 289.027 3.52864 -6.00383 0
M  V30 3141 H 286.654 3.56662 -6.71339 0
M  V30 3142 N 288.23 0.939286 1.26551 0
M  V30 3143 C 289.455 0.602008 1.98471 0
M  V30 3144 C 289.88 -0.815624 1.69497 0
M  V30 3145 O 289.238 -1.54912 0.941905 0
M  V30 3146 C 289.286 0.848407 3.50477 0
M  V30 3147 O 288.39 -0.0804009 4.12322 0
M  V30 3148 H 287.731 0.23049 0.622712 0
M  V30 3149 H 290.261 1.2617 1.61066 0
M  V30 3150 H 290.271 0.768553 4.00696 0
M  V30 3151 H 288.946 1.88171 3.70897 0
M  V30 3152 H 287.523 0.0503508 3.72866 0
M  V30 3153 N 289.708 -1.40897 0.706093 0
M  V30 3154 C 290.955 -2.01054 0.241531 0
M  V30 3155 C 291.283 -1.55956 -1.16223 0
M  V30 3156 O 290.538 -0.766336 -1.80072 0
M  V30 3157 C 290.837 -3.5646 0.259099 0
M  V30 3158 C 290.503 -4.21106 1.61184 0
M  V30 3159 C 289.165 -4.38479 1.98216 0
M  V30 3160 C 291.517 -4.57256 2.50132 0
M  V30 3161 C 288.845 -4.89282 3.2376 0
M  V30 3162 C 291.197 -5.09454 3.7502 0
M  V30 3163 C 289.861 -5.25037 4.12181 0
M  V30 3164 H 289.131 -0.73571 0.0883825 0
M  V30 3165 H 291.778 -1.68645 0.907257 0
M  V30 3166 H 290.083 -3.88721 -0.490189 0
M  V30 3167 H 291.78 -4.00826 -0.11804 0
M  V30 3168 H 288.37 -4.07966 1.31384 0
M  V30 3169 H 292.554 -4.43479 2.228 0
M  V30 3170 H 287.81 -4.99531 3.52532 0
M  V30 3171 H 291.984 -5.36404 4.44121 0
M  V30 3172 H 289.611 -5.64164 5.09532 0
M  V30 3173 N 291.186 -0.45159 -1.50991 0
M  V30 3174 C 292.426 0.109066 -2.04109 0
M  V30 3175 C 292.79 1.38716 -1.32747 0
M  V30 3176 O 293.991 2.02896 -1.76314 0
M  V30 3177 C 292.262 0.308354 -3.56067 0
M  V30 3178 S 293.821 0.830369 -4.30872 0
M  V30 3179 H 290.639 0.0251531 -0.710555 0
M  V30 3180 H 293.241 -0.614264 -1.85599 0
M  V30 3181 H 291.945 -0.627962 -4.05567 0
M  V30 3182 H 291.476 1.05836 -3.78896 0
M  V30 3183 H 293.491 2.10626 -4.49279 0
M  V30 3184 N 292.664 1.56529 -0.183458 0
M  V30 3185 C 293.912 1.96855 0.457452 0
M  V30 3186 C 294.233 1.07104 1.62953 0
M  V30 3187 O 293.503 0.139887 1.954 0
M  V30 3188 H 292.083 0.72693 0.171992 0
M  V30 3189 H 294.745 1.93056 -0.267476 0
M  V30 3190 H 293.841 3.01423 0.809368 0
M  V30 3191 N 294.142 -0.090211 1.57342 0
M  V30 3192 C 295.37 -0.806224 1.90546 0
M  V30 3193 C 295.785 -1.72041 0.777644 0
M  V30 3194 O 295.142 -1.80778 -0.250103 0
M  V30 3195 C 295.193 -1.61546 3.23396 0
M  V30 3196 O 294.914 -0.738043 4.31839 0
M  V30 3197 C 296.415 -2.4341 3.70495 0
M  V30 3198 H 293.635 -0.230256 0.630257 0
M  V30 3199 H 296.179 -0.0659843 2.04394 0
M  V30 3200 H 294.334 -2.30816 3.11131 0
M  V30 3201 H 294.748 -1.29901 5.08159 0
M  V30 3202 H 296.222 -2.95676 4.66133 0
M  V30 3203 H 296.699 -3.22098 2.98579 0
M  V30 3204 H 297.305 -1.79331 3.85643 0
M  V30 3205 N 295.62 -1.53406 -0.361157 0
M  V30 3206 C 296.869 -1.69022 -1.10066 0
M  V30 3207 C 297.182 -0.450838 -1.90333 0
M  V30 3208 O 298.388 -0.487617 -2.67085 0
M  V30 3209 C 296.844 -2.98812 -2.00598 0
M  V30 3210 C 296.452 -4.30027 -1.25621 0
M  V30 3211 C 298.196 -3.23795 -2.74513 0
M  V30 3212 C 296.103 -5.50903 -2.1508 0
M  V30 3213 H 295.033 -0.629776 -0.414606 0
M  V30 3214 H 297.684 -1.79907 -0.361348 0
M  V30 3215 H 296.066 -2.8174 -2.78278 0
M  V30 3216 H 297.24 -4.57745 -0.529739 0
M  V30 3217 H 295.555 -4.11522 -0.635496 0
M  V30 3218 H 298.152 -4.11289 -3.41681 0
M  V30 3219 H 298.495 -2.40045 -3.40123 0
M  V30 3220 H 299.028 -3.41561 -2.03914 0
M  V30 3221 H 295.767 -6.37143 -1.54041 0
M  V30 3222 H 295.287 -5.27459 -2.85565 0
M  V30 3223 H 296.966 -5.85865 -2.74538 0
M  V30 3224 N 297.098 0.621204 -1.44841 0
M  V30 3225 C 298.008 1.7612 -1.5498 0
M  V30 3226 C 299.024 1.68477 -0.434927 0
M  V30 3227 O 300.2 1.89076 -0.693693 0
M  V30 3228 C 297.265 3.1254 -1.50065 0
M  V30 3229 C 296.326 3.31741 -2.72482 0
M  V30 3230 C 295.559 4.61653 -2.67792 0
M  V30 3231 O 295.782 5.431 -1.74352 0
M  V30 3232 O 294.716 4.83271 -3.58794 0
M  V30 3233 H 298.542 1.70518 -2.51311 0
M  V30 3234 H 296.127 0.783643 -1.27198 0
M  V30 3235 H 298.009 3.93844 -1.49882 0
M  V30 3236 H 296.684 3.18663 -0.568806 0
M  V30 3237 H 295.591 2.50077 -2.7823 0
M  V30 3238 H 296.924 3.30486 -3.64746 0
M  V30 3239 N 298.576 1.31904 0.862503 0
M  V30 3240 C 299.806 1.24817 1.64634 0
M  V30 3241 C 300.214 -0.187579 1.88268 0
M  V30 3242 O 299.557 -1.13253 1.44635 0
M  V30 3243 C 299.619 1.92996 3.03303 0
M  V30 3244 C 299.283 3.42336 3.02746 0
M  V30 3245 C 300.28 4.37956 2.80162 0
M  V30 3246 C 297.965 3.84147 3.2363 0
M  V30 3247 C 299.959 5.73361 2.78453 0
M  V30 3248 C 297.646 5.19663 3.21549 0
M  V30 3249 C 298.644 6.14081 2.98988 0
M  V30 3250 O 298.332 7.47118 2.96766 0
M  V30 3251 H 298.064 0.432222 0.519769 0
M  V30 3252 H 300.618 1.7445 1.08427 0
M  V30 3253 H 298.848 1.37922 3.61268 0
M  V30 3254 H 300.537 1.79723 3.63943 0
M  V30 3255 H 301.303 4.06981 2.63802 0
M  V30 3256 H 297.182 3.11083 3.40218 0
M  V30 3257 H 300.726 6.4703 2.60763 0
M  V30 3258 H 296.623 5.5027 3.37451 0
M  V30 3259 H 297.391 7.56382 3.12775 0
M  V30 3260 N 300.054 -1.07777 1.14986 0
M  V30 3261 C 300.987 -2.14228 0.786243 0
M  V30 3262 C 301.965 -1.60888 -0.235347 0
M  V30 3263 O 303.149 -1.88099 -0.122909 0
M  V30 3264 C 300.276 -3.38281 0.168433 0
M  V30 3265 C 299.322 -4.10387 1.16123 0
M  V30 3266 S 300.155 -4.62371 2.70135 0
M  V30 3267 C 301.311 -5.89704 2.09762 0
M  V30 3268 H 301.544 -2.44741 1.68787 0
M  V30 3269 H 299.077 -1.19984 0.971756 0
M  V30 3270 H 301.035 -4.10098 -0.181588 0
M  V30 3271 H 299.696 -3.05953 -0.710725 0
M  V30 3272 H 298.889 -4.99431 0.677086 0
M  V30 3273 H 298.491 -3.44513 1.45556 0
M  V30 3274 H 300.783 -6.61648 1.45701 0
M  V30 3275 H 301.726 -6.42824 2.96955 0
M  V30 3276 H 302.134 -5.4302 1.54239 0
M  V30 3277 N 301.532 -0.945985 -1.26051 0
M  V30 3278 C 302.495 -0.463897 -2.24456 0
M  V30 3279 C 303.495 0.427655 -1.55009 0
M  V30 3280 O 304.685 0.226157 -1.72726 0
M  V30 3281 C 301.817 0.330812 -3.39291 0
M  V30 3282 H 303.01 -1.33357 -2.68619 0
M  V30 3283 H 300.563 -0.728416 -1.38289 0
M  V30 3284 H 301.298 1.21852 -3.00537 0
M  V30 3285 H 301.083 -0.308679 -3.90883 0
M  V30 3286 H 302.573 0.657865 -4.12386 0
M  V30 3287 N 303.011 1.40521 -0.713556 0
M  V30 3288 C 304.422 1.83853 -0.324807 0
M  V30 3289 C 304.773 1.59667 1.14021 0
M  V30 3290 O 303.898 1.07649 1.87725 0
M  V30 3291 C 304.493 3.33751 -0.582746 0
M  V30 3292 C 303.052 3.75584 -0.247727 0
M  V30 3293 C 302.199 2.63753 -0.856121 0
M  V30 3294 H 305.15 1.29817 -0.91286 0
M  V30 3295 H 305.171 3.80194 0.152682 0
M  V30 3296 H 304.683 3.51322 -1.64908 0
M  V30 3297 H 302.784 3.63608 0.813624 0
M  V30 3298 H 302.897 4.7373 -0.715307 0
M  V30 3299 H 301.261 2.53108 -0.28432 0
M  V30 3300 H 302.044 2.84137 -1.92668 0
M  V30 3301 N 304.489 0.459591 1.5075 0
M  V30 3302 C 305.399 -0.34613 2.32033 0
M  V30 3303 C 306.415 -1.00686 1.41909 0
M  V30 3304 O 307.591 -0.997361 1.7497 0
M  V30 3305 C 304.656 -1.42029 3.16273 0
M  V30 3306 C 303.717 -0.777362 4.22203 0
M  V30 3307 C 302.95 -1.80034 5.02418 0
M  V30 3308 O 303.173 -3.02544 4.83553 0
M  V30 3309 O 302.107 -1.37853 5.85901 0
M  V30 3310 H 305.933 0.318054 3.0203 0
M  V30 3311 H 303.518 0.221663 1.47746 0
M  V30 3312 H 305.4 -2.04275 3.68578 0
M  V30 3313 H 304.075 -2.06815 2.49016 0
M  V30 3314 H 302.982 -0.116256 3.73919 0
M  V30 3315 H 304.315 -0.172634 4.91897 0
M  V30 3316 N 305.967 -1.56429 0.191757 0
M  V30 3317 C 307.216 -1.9666 -0.448088 0
M  V30 3318 C 307.529 -1.08136 -1.62991 0
M  V30 3319 O 308.735 -1.38135 -2.33733 0
M  V30 3320 C 307.191 -3.49753 -0.848585 0
M  V30 3321 C 306.799 -4.46935 0.308764 0
M  V30 3322 C 308.543 -3.9876 -1.4557 0
M  V30 3323 C 306.45 -5.91293 -0.112506 0
M  V30 3324 H 305.38 -0.734312 -0.171179 0
M  V30 3325 H 308.031 -1.81301 0.283242 0
M  V30 3326 H 306.413 -3.60604 -1.63649 0
M  V30 3327 H 307.587 -4.47813 1.08627 0
M  V30 3328 H 305.902 -4.08102 0.827158 0
M  V30 3329 H 308.499 -5.04086 -1.78328 0
M  V30 3330 H 308.842 -3.42875 -2.36099 0
M  V30 3331 H 309.375 -3.9101 -0.731836 0
M  V30 3332 H 306.114 -6.51097 0.758514 0
M  V30 3333 H 305.634 -5.93676 -0.854941 0
M  V30 3334 H 307.313 -6.44663 -0.549448 0
M  V30 3335 N 307.445 0.0818655 -1.57387 0
M  V30 3336 C 308.694 0.781681 -1.85937 0
M  V30 3337 C 309.007 1.79246 -0.782957 0
M  V30 3338 O 310.213 2.54112 -0.955987 0
M  V30 3339 C 308.669 1.44109 -3.29789 0
M  V30 3340 C 308.277 0.469396 -4.45534 0
M  V30 3341 C 310.021 2.12386 -3.67549 0
M  V30 3342 C 307.928 1.13415 -5.80423 0
M  V30 3343 H 306.858 0.295682 -0.693605 0
M  V30 3344 H 309.509 0.0348051 -1.83467 0
M  V30 3345 H 307.891 2.23588 -3.2684 0
M  V30 3346 H 309.065 -0.294856 -4.59856 0
M  V30 3347 H 307.38 -0.108383 -4.16259 0
M  V30 3348 H 309.977 2.62878 -4.65617 0
M  V30 3349 H 310.32 2.91877 -2.96839 0
M  V30 3350 H 310.853 1.39751 -3.72444 0
M  V30 3351 H 307.592 0.379771 -6.54399 0
M  V30 3352 H 307.112 1.8695 -5.69921 0
M  V30 3353 H 308.791 1.65686 -6.25426 0
M  V30 3354 N 308.923 1.53595 0.353017 0
M  V30 3355 C 310.339 1.43648 0.695516 0
M  V30 3356 C 310.539 0.585617 1.92802 0
M  V30 3357 O 309.595 0.0729223 2.52395 0
M  V30 3358 C 310.908 2.8701 0.896991 0
M  V30 3359 C 312.456 2.96723 0.996209 0
M  V30 3360 C 312.931 4.41173 1.23007 0
M  V30 3361 N 314.422 4.44657 1.29749 0
M  V30 3362 C 315.157 5.53547 1.49577 0
M  V30 3363 N 314.653 6.72461 1.66639 0
M  V30 3364 N 316.446 5.41145 1.52048 0
M  V30 3365 H 308.597 2.07415 -0.457481 0
M  V30 3366 H 310.86 0.9372 -0.142687 0
M  V30 3367 H 310.566 3.51644 0.0629938 0
M  V30 3368 H 310.44 3.31401 1.80148 0
M  V30 3369 H 312.827 2.32235 1.82074 0
M  V30 3370 H 312.908 2.55707 0.0688331 0
M  V30 3371 H 312.552 5.06238 0.410505 0
M  V30 3372 H 312.482 4.79772 2.17086 0
M  V30 3373 H 314.973 3.58963 1.18126 0
M  V30 3374 H 315.286 7.51214 1.81378 0
M  V30 3375 H 313.631 6.75423 1.63794 0
M  V30 3376 H 316.822 4.47205 1.38294 0
M  V30 3377 H 316.995 6.26068 1.67159 0
M  V30 3378 N 310.401 -0.613514 1.45168 0
M  V30 3379 C 311.626 -1.40437 1.52618 0
M  V30 3380 C 312.051 -1.87438 0.157707 0
M  V30 3381 O 311.409 -1.59791 -0.856537 0
M  V30 3382 C 311.457 -2.58894 2.51011 0
M  V30 3383 O 310.561 -3.59326 2.02382 0
M  V30 3384 H 309.902 -0.419506 0.514695 0
M  V30 3385 H 312.432 -0.747215 1.90467 0
M  V30 3386 H 312.442 -3.06214 2.69624 0
M  V30 3387 H 311.117 -2.24032 3.50403 0
M  V30 3388 H 309.694 -3.18695 1.93618 0
M  V30 3389 N 311.879 -1.3236 -0.855495 0
M  V30 3390 C 312.826 -1.21225 -1.964 0
M  V30 3391 C 313.796 -0.0946204 -1.6583 0
M  V30 3392 O 314.981 -0.27002 -1.8888 0
M  V30 3393 C 312.121 -0.940419 -3.32039 0
M  V30 3394 C 311.234 -2.14276 -3.75113 0
M  V30 3395 C 310.369 -1.80648 -4.9954 0
M  V30 3396 C 309.408 -2.97208 -5.35102 0
M  V30 3397 N 308.545 -2.63678 -6.50706 0
M  V30 3398 H 313.385 -2.16042 -2.05255 0
M  V30 3399 H 310.922 -1.07451 -1.00463 0
M  V30 3400 H 312.88 -0.763311 -4.10158 0
M  V30 3401 H 311.51 -0.0290413 -3.22787 0
M  V30 3402 H 310.562 -2.43017 -2.92655 0
M  V30 3403 H 311.874 -3.01468 -3.97389 0
M  V30 3404 H 311.028 -1.59484 -5.85363 0
M  V30 3405 H 309.767 -0.906678 -4.79198 0
M  V30 3406 H 308.772 -3.19004 -4.47791 0
M  V30 3407 H 309.997 -3.87918 -5.57401 0
M  V30 3408 H 307.943 -1.76238 -6.31883 0
M  V30 3409 H 307.86 -3.444 -6.72997 0
M  V30 3410 H 309.128 -2.45942 -7.39684 0
M  V30 3411 N 313.357 1.07166 -1.15556 0
M  V30 3412 C 314.585 1.83514 -0.955519 0
M  V30 3413 C 315 1.82163 0.49621 0
M  V30 3414 O 314.357 1.23441 1.34419 0
M  V30 3415 C 314.408 3.30515 -1.46432 0
M  V30 3416 O 314.129 3.31937 -2.85918 0
M  V30 3417 C 315.63 4.23625 -1.30603 0
M  V30 3418 H 312.85 0.578926 -0.339244 0
M  V30 3419 H 315.394 1.35265 -1.53374 0
M  V30 3420 H 313.549 3.76106 -0.928584 0
M  V30 3421 H 313.963 4.23794 -3.09029 0
M  V30 3422 H 315.437 5.24831 -1.71047 0
M  V30 3423 H 315.914 4.38485 -0.250441 0
M  V30 3424 H 316.52 3.83871 -1.83094 0
M  V30 3425 N 314.835 0.952656 1.25548 0
M  V30 3426 C 316.083 0.605176 1.92826 0
M  V30 3427 C 316.404 -0.860261 1.74999 0
M  V30 3428 O 315.674 -1.6125 1.11244 0
M  V30 3429 H 314.254 0.220832 0.713612 0
M  V30 3430 H 316.916 1.21047 1.52754 0
M  V30 3431 H 316.012 0.832798 3.00784 0
M  V30 3432 N 316.313 -1.40141 0.720998 0
M  V30 3433 C 317.263 -2.27949 0.0482544 0
M  V30 3434 C 318.247 -1.43538 -0.727021 0
M  V30 3435 O 319.439 -1.6658 -0.598332 0
M  V30 3436 C 316.568 -3.32126 -0.868729 0
M  V30 3437 C 315.654 -4.24008 -0.0883515 0
M  V30 3438 N 316.045 -4.97154 0.931226 0
M  V30 3439 C 314.343 -4.4485 -0.320105 0
M  V30 3440 C 315.044 -5.64587 1.4006 0
M  V30 3441 N 314.02 -5.38787 0.721752 0
M  V30 3442 H 317.822 -2.81948 0.829609 0
M  V30 3443 H 315.336 -1.52656 0.554067 0
M  V30 3444 H 317.333 -3.93884 -1.36605 0
M  V30 3445 H 315.993 -2.79687 -1.6494 0
M  V30 3446 H 317.004 -5.01 1.31222 0
M  V30 3447 H 313.681 -4.03378 -1.07668 0
M  V30 3448 H 315.071 -6.33175 2.24808 0
M  V30 3449 N 317.792 -0.46758 -1.50504 0
M  V30 3450 C 319.04 0.0884469 -2.01906 0
M  V30 3451 C 319.361 1.40532 -1.35188 0
M  V30 3452 O 318.631 1.89515 -0.496079 0
M  V30 3453 H 317.211 0.0356765 -0.746148 0
M  V30 3454 H 319.873 -0.6172 -1.84869 0
M  V30 3455 H 318.969 0.2425 -3.11156 0
M  V30 3456 N 319.27 1.56325 -0.20005 0
M  V30 3457 C 320.217 2.1932 0.718833 0
M  V30 3458 C 321.187 1.14198 1.20615 0
M  V30 3459 O 322.372 1.42469 1.26914 0
M  V30 3460 C 319.512 2.86041 1.93066 0
M  V30 3461 C 318.625 4.05702 1.48425 0
M  V30 3462 C 317.76 4.60266 2.65196 0
M  V30 3463 C 316.799 5.72273 2.17185 0
M  V30 3464 N 315.936 6.21221 3.27152 0
M  V30 3465 H 320.776 2.97486 0.17489 0
M  V30 3466 H 318.313 1.46911 0.0745794 0
M  V30 3467 H 320.271 3.22897 2.64184 0
M  V30 3468 H 318.901 2.1043 2.44783 0
M  V30 3469 H 317.953 3.74475 0.668755 0
M  V30 3470 H 319.265 4.86699 1.09204 0
M  V30 3471 H 318.419 4.99453 3.4443 0
M  V30 3472 H 317.158 3.78386 3.07693 0
M  V30 3473 H 316.163 5.3261 1.36407 0
M  V30 3474 H 317.388 6.55974 1.75713 0
M  V30 3475 H 315.334 5.42263 3.69171 0
M  V30 3476 H 315.251 6.97284 2.92116 0
M  V30 3477 H 316.519 6.65063 4.06585 0
M  V30 3478 N 320.748 -0.0735177 1.57428 0
M  V30 3479 C 321.711 -1.07192 2.02589 0
M  V30 3480 C 322.711 -1.31695 0.922661 0
M  V30 3481 O 323.901 -1.27445 1.18758 0
M  V30 3482 C 321.033 -2.41599 2.40506 0
M  V30 3483 H 322.226 -0.682727 2.92025 0
M  V30 3484 H 319.779 -0.319193 1.53006 0
M  V30 3485 H 320.514 -2.85354 1.5409 0
M  V30 3486 H 320.299 -2.25156 3.21009 0
M  V30 3487 H 321.789 -3.13367 2.76027 0
M  V30 3488 N 322.226 -1.5378 -0.344866 0
M  V30 3489 C 323.472 -1.71216 -1.08687 0
M  V30 3490 C 323.805 -0.473281 -1.88345 0
M  V30 3491 O 323.08 0.52968 -1.87149 0
M  V30 3492 C 323.363 -2.97486 -2.02914 0
M  V30 3493 C 323.216 -4.31579 -1.26727 0
M  V30 3494 C 324.535 -3.19422 -3.0275 0
M  V30 3495 H 321.654 -0.62301 -0.393735 0
M  V30 3496 H 324.296 -1.8645 -0.365563 0
M  V30 3497 H 322.446 -2.84629 -2.64421 0
M  V30 3498 H 324.118 -4.56284 -0.67845 0
M  V30 3499 H 322.361 -4.30049 -0.569273 0
M  V30 3500 H 323.032 -5.16106 -1.95803 0
M  V30 3501 H 325.508 -3.316 -2.51357 0
M  V30 3502 H 324.384 -4.09169 -3.65885 0
M  V30 3503 H 324.645 -2.35656 -3.74057 0
M  V30 3504 N 323.704 0.605807 -1.45491 0
M  V30 3505 C 324.981 1.36522 -1.40075 0
M  V30 3506 C 325.361 2.10976 -0.0722744 0
M  V30 3507 O 324.709 2.08007 0.945808 0
M  V30 3508 C 324.919 2.31056 -2.61561 0
M  V30 3509 C 326.267 2.93608 -3.06724 0
M  V30 3510 O 327.291 2.41376 -2.61946 0
M  V30 3511 O 326.15 3.88421 -3.84437 0
M  V30 3512 H 323.244 0.612248 -0.555951 0
M  V30 3513 H 325.79 0.628747 -1.57623 0
M  V30 3514 H 324.562 1.75311 -3.49831 0
M  V30 3515 H 324.185 3.12081 -2.46356 0
M  V30 3516 N 325.182 1.32811 0.848464 0
M  V30 3517 C 326.428 1.24917 1.60522 0
M  V30 3518 C 326.783 -0.185761 1.91501 0
M  V30 3519 O 326.076 -1.12524 1.55077 0
M  V30 3520 C 326.27 2.04831 2.92881 0
M  V30 3521 C 326.099 3.55949 2.74828 0
M  V30 3522 C 324.869 4.25277 2.72887 0
M  V30 3523 C 327.067 4.50476 2.48145 0
M  V30 3524 N 325.049 5.62408 2.46111 0
M  V30 3525 C 326.42 5.75427 2.30832 0
M  V30 3526 C 328.475 4.39665 2.33664 0
M  V30 3527 C 327.178 6.90789 2.00508 0
M  V30 3528 C 329.204 5.54833 2.04731 0
M  V30 3529 C 328.566 6.78787 1.88223 0
M  V30 3530 H 324.665 0.512279 0.590842 0
M  V30 3531 H 327.249 1.67246 0.996839 0
M  V30 3532 H 325.42 1.64837 3.51686 0
M  V30 3533 H 327.152 1.88782 3.57971 0
M  V30 3534 H 323.907 3.77456 2.86049 0
M  V30 3535 H 324.331 6.3467 2.35634 0
M  V30 3536 H 328.973 3.44477 2.45144 0
M  V30 3537 H 326.691 7.85984 1.87765 0
M  V30 3538 H 330.277 5.48398 1.94295 0
M  V30 3539 H 329.157 7.66396 1.66155 0
M  V30 3540 N 326.66 -1.06551 1.16123 0
M  V30 3541 C 327.906 -1.79719 0.952505 0
M  V30 3542 C 328.261 -1.85396 -0.514385 0
M  V30 3543 O 327.554 -1.33263 -1.37665 0
M  V30 3544 C 327.748 -3.23911 1.51052 0
M  V30 3545 C 327.577 -3.32284 3.03013 0
M  V30 3546 C 326.347 -3.42371 3.71632 0
M  V30 3547 C 328.545 -3.22363 4.00732 0
M  V30 3548 N 326.527 -3.39732 5.11327 0
M  V30 3549 C 327.898 -3.26937 5.26794 0
M  V30 3550 C 329.953 -3.0623 3.92591 0
M  V30 3551 C 328.656 -3.17035 6.45663 0
M  V30 3552 C 330.682 -2.97665 5.11028 0
M  V30 3553 C 330.044 -3.02858 6.35969 0
M  V30 3554 H 326.143 -0.670585 0.402293 0
M  V30 3555 H 328.727 -1.27125 1.4747 0
M  V30 3556 H 326.898 -3.74907 1.01484 0
M  V30 3557 H 328.63 -3.85242 1.2398 0
M  V30 3558 H 325.385 -3.47058 3.22254 0
M  V30 3559 H 325.809 -3.41919 5.84312 0
M  V30 3560 H 330.451 -3.01063 2.96852 0
M  V30 3561 H 328.169 -3.2096 7.41627 0
M  V30 3562 H 331.755 -2.86273 5.06497 0
M  V30 3563 H 330.635 -2.96286 7.26075 0
M  V30 3564 N 328.138 -0.959301 -1.25041 0
M  V30 3565 C 329.363 -0.633507 -1.97488 0
M  V30 3566 C 329.788 0.788555 -1.70773 0
M  V30 3567 O 329.146 1.53394 -0.966431 0
M  V30 3568 C 329.194 -0.904057 -3.49083 0
M  V30 3569 O 328.298 0.0147939 -4.12397 0
M  V30 3570 H 327.639 -0.240368 -0.618966 0
M  V30 3571 H 330.169 -1.28717 -1.59038 0
M  V30 3572 H 330.179 -0.832203 -3.99423 0
M  V30 3573 H 328.854 -1.94048 -3.67856 0
M  V30 3574 H 327.431 -0.109664 -3.72739 0
M  V30 3575 N 329.616 1.39756 -0.72842 0
M  V30 3576 C 330.546 2.33289 -0.0991354 0
M  V30 3577 C 331.527 1.53568 0.731489 0
M  V30 3578 O 332.712 1.81987 0.677807 0
M  V30 3579 C 329.842 3.3763 0.813834 0
M  V30 3580 C 328.796 4.2791 0.0878663 0
M  V30 3581 C 328.122 5.22894 1.11741 0
M  V30 3582 C 329.422 5.11314 -1.06563 0
M  V30 3583 H 331.116 2.86163 -0.880408 0
M  V30 3584 H 328.662 1.37591 -0.424819 0
M  V30 3585 H 330.615 4.0201 1.26355 0
M  V30 3586 H 329.339 2.83181 1.62715 0
M  V30 3587 H 327.998 3.65 -0.342159 0
M  V30 3588 H 327.646 4.64744 1.92412 0
M  V30 3589 H 327.346 5.84143 0.636477 0
M  V30 3590 H 328.87 5.90151 1.56697 0
M  V30 3591 H 330.284 5.69076 -0.694671 0
M  V30 3592 H 328.681 5.81671 -1.47577 0
M  V30 3593 H 329.751 4.46534 -1.89038 0
M  V30 3594 N 331.094 0.475555 1.50254 0
M  V30 3595 C 332.342 -0.077738 2.0195 0
M  V30 3596 C 332.663 -1.39813 1.35931 0
M  V30 3597 O 331.933 -1.89249 0.506123 0
M  V30 3598 H 330.513 -0.031719 0.746326 0
M  V30 3599 H 333.175 0.626995 1.84539 0
M  V30 3600 H 332.271 -0.225995 3.11281 0
M  V30 3601 N 332.573 -1.56217 0.208337 0
M  V30 3602 C 333.822 -1.97124 -0.427204 0
M  V30 3603 C 334.135 -1.09859 -1.61835 0
M  V30 3604 O 335.341 -1.40606 -2.32255 0
M  V30 3605 C 333.797 -3.50633 -0.811442 0
M  V30 3606 C 333.405 -4.46582 0.35615 0
M  V30 3607 C 335.149 -4.00282 -1.41332 0
M  V30 3608 C 333.056 -5.91379 -0.0497852 0
M  V30 3609 H 331.986 -0.736086 -0.163381 0
M  V30 3610 H 334.637 -1.8099 0.302456 0
M  V30 3611 H 333.019 -3.62319 -1.59815 0
M  V30 3612 H 334.193 -4.46636 1.1337 0
M  V30 3613 H 332.508 -4.07202 0.870396 0
M  V30 3614 H 335.105 -5.0595 -1.72972 0
M  V30 3615 H 335.448 -3.45359 -2.32449 0
M  V30 3616 H 335.981 -3.91764 -0.690323 0
M  V30 3617 H 332.72 -6.50255 0.827529 0
M  V30 3618 H 332.24 -5.94549 -0.791926 0
M  V30 3619 H 333.919 -6.45209 -0.481042 0
M  V30 3620 N 334.051 0.0651679 -1.57465 0
M  V30 3621 C 334.981 1.07693 -2.07182 0
M  V30 3622 C 335.962 1.39962 -0.966673 0
M  V30 3623 O 337.147 1.49475 -1.2398 0
M  V30 3624 C 334.277 2.3885 -2.52127 0
M  V30 3625 C 333.231 2.20917 -3.66579 0
M  V30 3626 C 332.557 3.57515 -3.97601 0
M  V30 3627 C 333.857 1.62493 -4.9638 0
M  V30 3628 H 335.551 0.663199 -2.91962 0
M  V30 3629 H 333.097 0.317569 -1.40455 0
M  V30 3630 H 335.05 3.09928 -2.85522 0
M  V30 3631 H 333.774 2.82215 -1.64384 0
M  V30 3632 H 332.433 1.52279 -3.33477 0
M  V30 3633 H 332.081 3.98463 -3.06979 0
M  V30 3634 H 331.781 3.46353 -4.74672 0
M  V30 3635 H 333.305 4.30013 -4.33499 0
M  V30 3636 H 334.719 2.23445 -5.27963 0
M  V30 3637 H 333.116 1.62009 -5.77818 0
M  V30 3638 H 334.186 0.587041 -4.81333 0
M  V30 3639 N 335.529 1.53961 0.336706 0
M  V30 3640 C 336.459 1.85417 1.41925 0
M  V30 3641 C 337.44 0.709856 1.5458 0
M  V30 3642 O 338.625 0.962396 1.68676 0
M  V30 3643 C 335.755 2.06985 2.78881 0
M  V30 3644 C 334.709 3.22813 2.81026 0
M  V30 3645 C 334.035 3.29727 4.20932 0
M  V30 3646 C 335.335 4.60767 2.45949 0
M  V30 3647 H 337.029 2.76079 1.15848 0
M  V30 3648 H 334.575 1.32839 0.555859 0
M  V30 3649 H 336.528 2.27575 3.54665 0
M  V30 3650 H 335.252 1.13061 3.06406 0
M  V30 3651 H 333.911 3.0209 2.07695 0
M  V30 3652 H 333.559 2.33385 4.45579 0
M  V30 3653 H 333.259 4.07566 4.23277 0
M  V30 3654 H 334.783 3.52536 4.98549 0
M  V30 3655 H 336.197 4.81325 3.11446 0
M  V30 3656 H 334.594 5.4106 2.59566 0
M  V30 3657 H 335.664 4.6391 1.41122 0
M  V30 3658 N 337.007 -0.598083 1.45811 0
M  V30 3659 C 338.254 -1.35681 1.50323 0
M  V30 3660 C 338.582 -1.9393 0.148739 0
M  V30 3661 O 337.837 -1.76094 -0.853787 0
M  V30 3662 C 338.136 -2.51669 2.53766 0
M  V30 3663 C 337.802 -2.11508 3.98215 0
M  V30 3664 C 336.464 -2.0027 4.37545 0
M  V30 3665 C 338.816 -1.80308 4.89018 0
M  V30 3666 C 336.144 -1.56067 5.65562 0
M  V30 3667 C 338.496 -1.37589 6.17456 0
M  V30 3668 C 337.16 -1.24916 6.55708 0
M  V30 3669 H 336.43 -0.496492 0.550069 0
M  V30 3670 H 339.077 -0.675052 1.79207 0
M  V30 3671 H 337.382 -3.25225 2.18486 0
M  V30 3672 H 339.079 -3.09895 2.54492 0
M  V30 3673 H 335.669 -2.21185 3.67117 0
M  V30 3674 H 339.853 -1.87884 4.59362 0
M  V30 3675 H 335.109 -1.44886 5.93985 0
M  V30 3676 H 339.283 -1.12495 6.87254 0
M  V30 3677 H 336.91 -0.904386 7.54801 0
M  V30 3678 N 338.485 -1.33259 -0.841409 0
M  V30 3679 C 339.395 -1.25332 -1.98316 0
M  V30 3680 C 340.411 -0.164364 -1.73222 0
M  V30 3681 O 341.587 -0.387486 -1.97637 0
M  V30 3682 C 338.652 -0.990078 -3.32262 0
M  V30 3683 C 337.713 -2.16879 -3.70489 0
M  V30 3684 C 336.946 -1.91801 -4.98044 0
M  V30 3685 O 337.169 -0.867075 -5.63771 0
M  V30 3686 O 336.103 -2.78267 -5.33714 0
M  V30 3687 H 339.929 -2.21344 -2.07944 0
M  V30 3688 H 337.514 -1.1328 -0.974058 0
M  V30 3689 H 339.396 -0.860321 -4.12524 0
M  V30 3690 H 338.071 -0.0602155 -3.23644 0
M  V30 3691 H 336.978 -2.35407 -2.90748 0
M  V30 3692 H 338.311 -3.0819 -3.8377 0
M  V30 3693 N 339.963 1.05934 -1.16686 0
M  V30 3694 C 340.893 2.1546 -0.899949 0
M  V30 3695 C 341.874 1.69391 0.155154 0
M  V30 3696 O 343.059 1.94199 0.00648693 0
M  V30 3697 C 340.189 3.44939 -0.404241 0
M  V30 3698 C 339.143 4.04536 -1.39767 0
M  V30 3699 C 338.469 5.29268 -0.760216 0
M  V30 3700 C 339.769 4.42893 -2.76845 0
M  V30 3701 H 341.463 2.38046 -1.81588 0
M  V30 3702 H 339.009 1.14404 -0.874514 0
M  V30 3703 H 340.962 4.20901 -0.204971 0
M  V30 3704 H 339.686 3.21983 0.547206 0
M  V30 3705 H 338.345 3.30635 -1.58355 0
M  V30 3706 H 337.993 5.02611 0.197831 0
M  V30 3707 H 337.693 5.70101 -1.42332 0
M  V30 3708 H 339.217 6.07924 -0.57105 0
M  V30 3709 H 340.631 5.09921 -2.62019 0
M  V30 3710 H 339.028 4.94721 -3.39663 0
M  V30 3711 H 340.098 3.53584 -3.31823 0
M  V30 3712 N 341.441 0.965919 1.2453 0
M  V30 3713 C 342.371 0.513476 2.27784 0
M  V30 3714 C 343.352 -0.445974 1.6415 0
M  V30 3715 O 344.537 -0.342485 1.91156 0
M  V30 3716 C 341.667 -0.198839 3.4673 0
M  V30 3717 C 340.621 0.676456 4.2262 0
M  V30 3718 C 339.947 -0.167248 5.34438 0
M  V30 3719 C 341.247 1.96017 4.84123 0
M  V30 3720 H 342.941 1.3765 2.65881 0
M  V30 3721 H 340.487 0.663321 1.27813 0
M  V30 3722 H 342.44 -0.526567 4.18097 0
M  V30 3723 H 341.164 -1.0962 3.07654 0
M  V30 3724 H 339.823 0.98743 3.53052 0
M  V30 3725 H 339.471 -1.0647 4.91603 0
M  V30 3726 H 339.171 0.415181 5.86131 0
M  V30 3727 H 340.695 -0.489688 6.08633 0
M  V30 3728 H 342.109 1.69814 5.47573 0
M  V30 3729 H 340.506 2.48918 5.4604 0
M  V30 3730 H 341.576 2.65622 4.05676 0
M  V30 3731 N 342.919 -1.39368 0.735821 0
M  V30 3732 C 344.147 -2.04795 0.294393 0
M  V30 3733 C 344.562 -1.55478 -1.07107 0
M  V30 3734 O 343.919 -0.720038 -1.67695 0
M  V30 3735 C 343.97 -3.6035 0.288071 0
M  V30 3736 O 343.691 -4.07852 1.59963 0
M  V30 3737 C 345.192 -4.42976 -0.169422 0
M  V30 3738 H 342.412 -0.658571 0.128551 0
M  V30 3739 H 344.956 -1.78399 0.999701 0
M  V30 3740 H 343.111 -3.85645 -0.368355 0
M  V30 3741 H 343.525 -5.02181 1.51375 0
M  V30 3742 H 344.999 -5.51864 -0.122687 0
M  V30 3743 H 345.476 -4.22068 -1.21472 0
M  V30 3744 H 346.082 -4.22832 0.457469 0
M  V30 3745 N 344.397 -0.483516 -1.5 0
M  V30 3746 C 345.645 0.067027 -2.01989 0
M  V30 3747 C 345.966 1.3909 -1.36671 0
M  V30 3748 O 345.236 1.88978 -0.516152 0
M  V30 3749 H 343.816 0.0277606 -0.746484 0
M  V30 3750 H 346.478 -0.636773 -1.84204 0
M  V30 3751 H 345.574 0.209484 -3.11396 0
M  V30 3752 N 345.875 1.56104 -0.216619 0
M  V30 3753 C 346.838 2.18819 0.681962 0
M  V30 3754 C 347.838 1.14866 1.12528 0
M  V30 3755 O 349.028 1.40128 1.03488 0
M  V30 3756 C 346.16 2.80756 1.93362 0
M  V30 3757 H 347.353 2.99595 0.135254 0
M  V30 3758 H 344.906 1.56265 0.0330003 0
M  V30 3759 H 345.641 2.03837 2.52232 0
M  V30 3760 H 345.426 3.56876 1.62426 0
M  V30 3761 H 346.916 3.28844 2.57393 0
M  V30 3762 N 347.353 -0.0568162 1.57498 0
M  V30 3763 C 348.578 -0.769402 1.92601 0
M  V30 3764 C 349.003 -1.69559 0.814336 0
M  V30 3765 O 348.361 -1.79811 -0.231903 0
M  V30 3766 C 348.409 -1.52634 3.26704 0
M  V30 3767 O 347.513 -2.63797 3.16994 0
M  V30 3768 H 346.854 -0.208909 0.63028 0
M  V30 3769 H 349.384 -0.0205798 2.0459 0
M  V30 3770 H 349.394 -1.90234 3.60936 0
M  V30 3771 H 348.069 -0.846875 4.07186 0
M  V30 3772 H 346.646 -2.28943 2.94346 0
M  V30 3773 N 348.832 -1.54138 -0.328536 0
M  V30 3774 C 350.243 -1.63395 -0.903272 0
M  V30 3775 C 350.594 -0.524828 -1.8905 0
M  V30 3776 O 349.719 0.343068 -2.13663 0
M  V30 3777 C 350.314 -2.9618 -1.64507 0
M  V30 3778 C 348.873 -3.0765 -2.1686 0
M  V30 3779 C 348.02 -2.58933 -0.992416 0
M  V30 3780 H 350.971 -1.58344 -0.106253 0
M  V30 3781 H 350.992 -2.86061 -2.50897 0
M  V30 3782 H 350.504 -3.76884 -0.926302 0
M  V30 3783 H 348.605 -2.31611 -2.91868 0
M  V30 3784 H 348.718 -4.1337 -2.42202 0
M  V30 3785 H 347.082 -2.14706 -1.37016 0
M  V30 3786 H 347.865 -3.42089 -0.288041 0
M  V30 3787 N 350.31 0.590341 -1.46126 0
M  V30 3788 C 351.557 1.34882 -1.5104 0
M  V30 3789 C 351.885 1.93849 -0.159021 0
M  V30 3790 O 351.14 1.76544 0.844436 0
M  V30 3791 C 351.439 2.5032 -2.55097 0
M  V30 3792 C 351.105 2.09394 -3.99331 0
M  V30 3793 C 349.767 1.97947 -4.38601 0
M  V30 3794 C 352.119 1.77712 -4.89967 0
M  V30 3795 C 349.447 1.53065 -5.66381 0
M  V30 3796 C 351.799 1.34312 -6.18177 0
M  V30 3797 C 350.463 1.21436 -6.56361 0
M  V30 3798 H 349.733 0.493568 -0.552695 0
M  V30 3799 H 352.38 0.665539 -1.79563 0
M  V30 3800 H 350.685 3.24062 -2.20207 0
M  V30 3801 H 352.382 3.08541 -2.56132 0
M  V30 3802 H 348.972 2.19235 -3.68285 0
M  V30 3803 H 353.156 1.85445 -4.60352 0
M  V30 3804 H 348.412 1.41733 -5.94745 0
M  V30 3805 H 352.586 1.08849 -6.87841 0
M  V30 3806 H 350.213 0.864345 -7.5527 0
M  V30 3807 N 351.788 1.33704 0.83433 0
M  V30 3808 C 353.016 1.28467 1.62185 0
M  V30 3809 C 353.431 -0.143526 1.88254 0
M  V30 3810 O 352.788 -1.08709 1.4659 0
M  V30 3811 C 352.839 2.06174 2.96942 0
M  V30 3812 O 352.56 3.43422 2.72016 0
M  V30 3813 C 354.061 2.08201 3.91366 0
M  V30 3814 H 351.281 0.4424 0.504503 0
M  V30 3815 H 353.825 1.76145 1.03891 0
M  V30 3816 H 351.98 1.62167 3.51825 0
M  V30 3817 H 352.394 3.83453 3.57861 0
M  V30 3818 H 353.868 2.67017 4.83121 0
M  V30 3819 H 354.345 1.07343 4.2588 0
M  V30 3820 H 354.951 2.52246 3.42421 0
M  V30 3821 N 353.266 -1.05314 1.17247 0
M  V30 3822 C 354.196 -2.1498 0.911362 0
M  V30 3823 C 355.177 -1.69471 -0.146169 0
M  V30 3824 O 356.362 -1.942 0.003812 0
M  V30 3825 C 353.492 -3.4472 0.422528 0
M  V30 3826 C 352.446 -4.03789 1.4191 0
M  V30 3827 C 351.772 -5.28858 0.788274 0
M  V30 3828 C 353.072 -4.41418 2.7919 0
M  V30 3829 H 354.766 -2.3708 1.82848 0
M  V30 3830 H 352.312 -1.13938 0.880569 0
M  V30 3831 H 354.265 -4.20787 0.227289 0
M  V30 3832 H 352.989 -3.22269 -0.530123 0
M  V30 3833 H 351.648 -3.2979 1.60106 0
M  V30 3834 H 351.296 -5.02709 -0.171173 0
M  V30 3835 H 350.996 -5.69338 1.45353 0
M  V30 3836 H 352.52 -6.07612 0.603282 0
M  V30 3837 H 353.934 -5.08524 2.64719 0
M  V30 3838 H 352.331 -4.92913 3.42282 0
M  V30 3839 H 353.401 -3.51819 3.33693 0
M  V30 3840 N 354.744 -0.972509 -1.24016 0
M  V30 3841 C 355.654 -0.5143 -2.28893 0
M  V30 3842 C 356.67 0.427078 -1.68677 0
M  V30 3843 O 357.846 0.298939 -1.99169 0
M  V30 3844 C 354.911 0.183598 -3.46214 0
M  V30 3845 C 353.972 -0.798202 -4.21814 0
M  V30 3846 C 353.205 -0.133514 -5.33533 0
M  V30 3847 O 353.428 1.07714 -5.60137 0
M  V30 3848 O 352.362 -0.828103 -5.96176 0
M  V30 3849 H 356.188 -1.38629 -2.70214 0
M  V30 3850 H 353.773 -0.739769 -1.29799 0
M  V30 3851 H 355.655 0.575433 -4.17453 0
M  V30 3852 H 354.33 1.03048 -3.0686 0
M  V30 3853 H 353.237 -1.24059 -3.52931 0
M  V30 3854 H 354.57 -1.61364 -4.64997 0
M  V30 3855 N 356.222 1.38976 -0.743202 0
M  V30 3856 C 357.47 1.99948 -0.29417 0
M  V30 3857 C 357.791 1.59279 1.12495 0
M  V30 3858 O 357.061 0.844808 1.76748 0
M  V30 3859 H 355.641 0.739473 -0.105774 0
M  V30 3860 H 358.303 1.699 -0.954986 0
M  V30 3861 H 357.399 3.10142 -0.349056 0
M  V30 3862 N 357.7 0.491464 1.49741 0
M  V30 3863 C 358.61 -0.296835 2.32715 0
M  V30 3864 C 359.626 -0.976536 1.44013 0
M  V30 3865 O 360.802 -0.960023 1.77047 0
M  V30 3866 C 357.867 -1.35288 3.19215 0
M  V30 3867 C 356.928 -0.687632 4.23757 0
M  V30 3868 C 356.161 -1.69336 5.06123 0
M  V30 3869 O 356.384 -2.92219 4.89861 0
M  V30 3870 O 355.318 -1.25394 5.88693 0
M  V30 3871 H 359.144 0.382048 3.01287 0
M  V30 3872 H 356.729 0.252953 1.47243 0
M  V30 3873 H 358.611 -1.96411 3.72828 0
M  V30 3874 H 357.286 -2.01487 2.53347 0
M  V30 3875 H 356.193 -0.0369159 3.74082 0
M  V30 3876 H 357.526 -0.0682566 4.92153 0
M  V30 3877 N 359.178 -1.55987 0.224894 0
M  V30 3878 C 360.594 -1.59066 -0.130426 0
M  V30 3879 C 360.794 -1.24176 -1.5869 0
M  V30 3880 O 359.85 -0.978592 -2.32766 0
M  V30 3881 C 361.163 -3.00042 0.198883 0
M  V30 3882 C 362.711 -3.1268 0.141391 0
M  V30 3883 C 363.186 -4.55839 0.444422 0
M  V30 3884 N 364.677 -4.6152 0.394115 0
M  V30 3885 C 365.412 -5.70231 0.602038 0
M  V30 3886 N 364.908 -6.87291 0.871914 0
M  V30 3887 N 366.701 -5.59555 0.534245 0
M  V30 3888 H 358.852 -1.76941 1.17497 0
M  V30 3889 H 361.115 -0.822604 0.471197 0
M  V30 3890 H 360.821 -3.30234 1.2099 0
M  V30 3891 H 360.695 -3.74075 -0.484535 0
M  V30 3892 H 363.082 -2.82283 -0.860265 0
M  V30 3893 H 363.163 -2.40969 0.858335 0
M  V30 3894 H 362.807 -4.86954 1.44353 0
M  V30 3895 H 362.737 -5.2578 -0.293752 0
M  V30 3896 H 365.228 -3.77405 0.193356 0
M  V30 3897 H 365.541 -7.66058 1.01858 0
M  V30 3898 H 363.886 -6.89028 0.909145 0
M  V30 3899 H 367.077 -4.6698 0.323612 0
M  V30 3900 H 367.25 -6.44211 0.699693 0
M  V30 3901 N 360.656 0.0484629 -1.57525 0
M  V30 3902 C 361.604 1.07359 -2.06341 0
M  V30 3903 C 362.598 1.3865 -0.973269 0
M  V30 3904 O 363.804 1.37783 -1.15827 0
M  V30 3905 H 360.179 0.363662 -0.65822 0
M  V30 3906 H 362.15 0.635916 -2.91545 0
M  V30 3907 C 360.899 2.37198 -2.54229 0
M  V30 3908 H 360.222 2.13977 -3.37719 0
M  V30 3909 H 361.662 3.07319 -2.92115 0
M  V30 3910 C 360.121 3.04805 -1.43511 0
M  V30 3911 O 360.651 3.93848 -0.79034 0
M  V30 3912 N 358.857 2.65811 -1.17444 0
M  V30 3913 H 358.404 1.93488 -1.70059 0
M  V30 3914 H 358.362 3.11366 -0.435737 0
M  V30 3915 N 362.134 1.5431 0.320358 0
M  V30 3916 C 363.362 1.76636 1.07738 0
M  V30 3917 C 363.777 0.51649 1.81598 0
M  V30 3918 O 363.134 -0.512942 1.75143 0
M  V30 3919 C 363.185 2.96158 2.07299 0
M  V30 3920 O 362.906 4.16313 1.36438 0
M  V30 3921 C 364.407 3.3072 2.95193 0
M  V30 3922 H 361.627 0.589597 0.320339 0
M  V30 3923 H 364.171 2.01207 0.36551 0
M  V30 3924 H 362.326 2.73851 2.74016 0
M  V30 3925 H 362.74 4.83565 2.03138 0
M  V30 3926 H 364.214 4.17643 3.60941 0
M  V30 3927 H 364.691 2.48026 3.62463 0
M  V30 3928 H 365.297 3.55117 2.34034 0
M  V30 3929 N 363.613 -0.582584 1.46437 0
M  V30 3930 C 364.545 -1.70618 1.53043 0
M  V30 3931 C 365.558 -1.57322 0.418769 0
M  V30 3932 O 366.747 -1.64744 0.687136 0
M  V30 3933 C 363.847 -3.08869 1.39474 0
M  V30 3934 C 363.02 -3.48166 2.64762 0
M  V30 3935 C 362.079 -4.65478 2.4539 0
M  V30 3936 O 361.105 -4.71333 3.19114 0
M  V30 3937 N 362.307 -5.60365 1.51564 0
M  V30 3938 H 365.072 -1.65405 2.49923 0
M  V30 3939 H 362.633 -0.768567 1.42494 0
M  V30 3940 H 364.625 -3.85143 1.24287 0
M  V30 3941 H 363.195 -3.08449 0.507758 0
M  V30 3942 H 362.415 -2.61598 2.9489 0
M  V30 3943 H 363.703 -3.71188 3.4799 0
M  V30 3944 H 363.101 -5.5837 0.907705 0
M  V30 3945 H 361.658 -6.36068 1.4234 0
M  V30 3946 N 365.091 -1.34144 -0.827227 0
M  V30 3947 C 366.054 -1.25264 -1.91942 0
M  V30 3948 C 367.054 -0.168866 -1.59911 0
M  V30 3949 O 368.244 -0.421198 -1.69031 0
M  V30 3950 C 365.376 -0.932952 -3.27885 0
M  V30 3951 H 366.569 -2.22357 -2.0124 0
M  V30 3952 H 364.122 -1.1837 -1.0207 0
M  V30 3953 H 364.857 0.0349917 -3.24281 0
M  V30 3954 H 364.642 -1.71682 -3.52516 0
M  V30 3955 H 366.132 -0.895874 -4.07877 0
M  V30 3956 N 366.569 1.04691 -1.17803 0
M  V30 3957 C 367.479 2.16057 -0.914151 0
M  V30 3958 C 368.495 1.73589 0.119503 0
M  V30 3959 O 369.671 2.01308 -0.0609468 0
M  V30 3960 C 366.736 3.4394 -0.436603 0
M  V30 3961 C 365.797 4.00825 -1.53746 0
M  V30 3962 C 365.03 5.22604 -1.0826 0
M  V30 3963 O 365.253 5.70367 0.0612244 0
M  V30 3964 O 364.187 5.7186 -1.87775 0
M  V30 3965 H 368.013 2.41169 -1.84584 0
M  V30 3966 H 365.598 1.1453 -0.959334 0
M  V30 3967 H 367.48 4.21024 -0.178057 0
M  V30 3968 H 366.155 3.20316 0.466869 0
M  V30 3969 H 365.062 3.25158 -1.84995 0
M  V30 3970 H 366.395 4.28778 -2.41683 0
M  V30 3971 N 368.047 0.979072 1.23499 0
M  V30 3972 C 369.293 0.648178 1.92163 0
M  V30 3973 C 369.626 -0.816049 1.76222 0
M  V30 3974 O 368.901 -1.58849 1.12237 0
M  V30 3975 C 369.184 1.03773 3.44824 0
M  V30 3976 C 369.037 2.55948 3.69879 0
M  V30 3977 C 370.356 0.580653 4.36253 0
M  V30 3978 H 367.475 0.236952 0.69787 0
M  V30 3979 H 370.117 1.22012 1.45647 0
M  V30 3980 H 368.267 0.551058 3.84572 0
M  V30 3981 H 369.939 3.12179 3.3962 0
M  V30 3982 H 368.182 2.98641 3.14636 0
M  V30 3983 H 368.853 2.78255 4.76737 0
M  V30 3984 H 371.329 0.998465 4.03943 0
M  V30 3985 H 370.205 0.881663 5.41773 0
M  V30 3986 H 370.466 -0.519052 4.39042 0
M  V30 3987 N 369.525 -1.3858 0.750561 0
M  V30 3988 C 370.75 -2.04997 0.314812 0
M  V30 3989 C 371.175 -1.56235 -1.04749 0
M  V30 3990 O 370.533 -0.712981 -1.66692 0
M  V30 3991 C 370.581 -3.58961 0.343415 0
M  V30 3992 O 369.685 -4.07025 -0.663628 0
M  V30 3993 H 369.026 -0.649081 0.139962 0
M  V30 3994 H 371.556 -1.77313 1.02084 0
M  V30 3995 H 371.566 -4.07542 0.193233 0
M  V30 3996 H 370.241 -3.93811 1.33738 0
M  V30 3997 H 368.818 -3.6982 -0.478307 0
M  V30 3998 N 371.003 -0.499398 -1.49478 0
M  V30 3999 C 372.419 -0.155261 -1.58843 0
M  V30 4000 C 372.619 1.34008 -1.50479 0
M  V30 4001 O 371.675 2.11589 -1.37791 0
M  V30 4002 C 372.988 -0.730636 -2.91689 0
M  V30 4003 C 374.536 -0.696599 -3.0515 0
M  V30 4004 C 375.011 -1.25001 -4.40612 0
M  V30 4005 N 376.502 -1.21064 -4.47099 0
M  V30 4006 C 377.237 -1.60905 -5.50361 0
M  V30 4007 N 376.733 -2.08331 -6.60735 0
M  V30 4008 N 378.526 -1.52331 -5.41065 0
M  V30 4009 H 370.677 -1.47162 -1.53158 0
M  V30 4010 H 372.94 -0.610309 -0.725415 0
M  V30 4011 H 372.646 -1.77928 -3.03372 0
M  V30 4012 H 372.52 -0.190161 -3.7672 0
M  V30 4013 H 374.907 0.343204 -2.93097 0
M  V30 4014 H 374.988 -1.2742 -2.21806 0
M  V30 4015 H 374.632 -2.28859 -4.53416 0
M  V30 4016 H 374.562 -0.64836 -5.22593 0
M  V30 4017 H 377.053 -0.863128 -3.67911 0
M  V30 4018 H 377.366 -2.36805 -7.35624 0
M  V30 4019 H 375.711 -2.12304 -6.6178 0
M  V30 4020 H 378.902 -1.151 -4.53729 0
M  V30 4021 H 379.075 -1.83704 -6.21415 0
M  V30 4022 N 372.481 1.55866 -0.233164 0
M  V30 4023 C 373.897 1.59133 0.121988 0
M  V30 4024 C 374.097 1.25016 1.58029 0
M  V30 4025 O 373.153 0.990922 2.32243 0
M  V30 4026 C 374.466 2.99932 -0.214792 0
M  V30 4027 C 376.014 3.12601 -0.157971 0
M  V30 4028 C 376.489 4.55597 -0.46859 0
M  V30 4029 N 377.98 4.61305 -0.418585 0
M  V30 4030 C 378.715 5.69903 -0.63227 0
M  V30 4031 N 378.211 6.86819 -0.90835 0
M  V30 4032 N 380.004 5.59264 -0.563913 0
M  V30 4033 H 372.155 1.76315 -1.18434 0
M  V30 4034 H 374.418 0.820093 -0.475553 0
M  V30 4035 H 374.124 3.29588 -1.22739 0
M  V30 4036 H 373.998 3.74327 0.464691 0
M  V30 4037 H 376.385 2.82735 0.845283 0
M  V30 4038 H 376.466 2.40511 -0.871102 0
M  V30 4039 H 376.11 4.86182 -1.46934 0
M  V30 4040 H 376.04 5.25928 0.265865 0
M  V30 4041 H 378.531 3.77297 -0.213368 0
M  V30 4042 H 378.844 7.65507 -1.05919 0
M  V30 4043 H 377.189 6.88536 -0.945673 0
M  V30 4044 H 380.38 4.66802 -0.348372 0
M  V30 4045 H 380.553 6.43831 -0.733847 0
M  V30 4046 N 373.959 -0.0401083 1.57549 0
M  V30 4047 C 375.208 -0.732108 1.87944 0
M  V30 4048 C 375.521 -1.77107 0.830206 0
M  V30 4049 O 376.727 -2.51488 1.02302 0
M  V30 4050 C 375.183 -1.35315 3.33494 0
M  V30 4051 C 374.791 -0.351105 4.46622 0
M  V30 4052 C 376.535 -2.02566 3.73051 0
M  V30 4053 C 374.442 -0.979859 5.83226 0
M  V30 4054 H 373.372 -0.277188 0.701201 0
M  V30 4055 H 376.023 0.0138501 1.83495 0
M  V30 4056 H 374.405 -2.14844 3.32653 0
M  V30 4057 H 375.579 0.416674 4.58912 0
M  V30 4058 H 373.894 0.218708 4.15825 0
M  V30 4059 H 376.491 -2.50441 4.72423 0
M  V30 4060 H 376.834 -2.83904 3.04474 0
M  V30 4061 H 377.367 -1.29827 3.76018 0
M  V30 4062 H 374.106 -0.206135 6.55176 0
M  V30 4063 H 373.626 -1.71774 5.74677 0
M  V30 4064 H 375.305 -1.49046 6.29599 0
M  V30 4065 N 375.437 -1.54477 -0.31217 0
M  V30 4066 C 376.367 -1.87652 -1.38957 0
M  V30 4067 C 377.348 -0.734358 -1.53431 0
M  V30 4068 O 378.533 -0.98911 -1.67123 0
M  V30 4069 C 375.663 -2.11396 -2.75552 0
M  V30 4070 C 374.617 -3.27243 -2.75855 0
M  V30 4071 C 373.943 -3.36382 -4.15633 0
M  V30 4072 C 375.243 -4.64622 -2.38587 0
M  V30 4073 H 376.937 -2.77887 -1.11442 0
M  V30 4074 H 374.483 -1.33707 -0.534655 0
M  V30 4075 H 376.436 -2.33189 -3.51 0
M  V30 4076 H 375.16 -1.17921 -3.04569 0
M  V30 4077 H 373.819 -3.05356 -2.02863 0
M  V30 4078 H 373.467 -2.40445 -4.41809 0
M  V30 4079 H 373.167 -4.14249 -4.1674 0
M  V30 4080 H 374.691 -3.60422 -4.92877 0
M  V30 4081 H 376.105 -4.86219 -3.03749 0
M  V30 4082 H 374.502 -5.45121 -2.50925 0
M  V30 4083 H 375.572 -4.66097 -1.33723 0
M  V30 4084 N 376.915 0.57481 -1.46744 0
M  V30 4085 C 377.862 1.68329 -1.57905 0
M  V30 4086 C 378.832 1.60625 -0.422927 0
M  V30 4087 O 380.017 1.79721 -0.640711 0
M  V30 4088 C 377.157 3.06665 -1.58274 0
M  V30 4089 C 376.27 3.24935 -2.84678 0
M  V30 4090 C 375.405 4.53566 -2.76499 0
M  V30 4091 C 374.444 4.65207 -3.97806 0
M  V30 4092 N 373.581 5.85172 -3.87967 0
M  V30 4093 H 378.421 1.58127 -2.52587 0
M  V30 4094 H 375.958 0.770552 -1.25303 0
M  V30 4095 H 377.916 3.86745 -1.56473 0
M  V30 4096 H 376.546 3.15745 -0.671194 0
M  V30 4097 H 375.598 2.38405 -2.96424 0
M  V30 4098 H 376.91 3.29403 -3.7456 0
M  V30 4099 H 376.064 5.41885 -2.72848 0
M  V30 4100 H 374.803 4.51548 -1.8427 0
M  V30 4101 H 373.808 3.75304 -4.0178 0
M  V30 4102 H 375.033 4.68997 -4.9114 0
M  V30 4103 H 372.979 5.84137 -2.98529 0
M  V30 4104 H 372.896 5.90943 -4.71511 0
M  V30 4105 H 374.164 6.759 -3.88303 0
M  V30 4106 N 378.394 1.34581 0.820102 0
M  V30 4107 C 379.634 1.28448 1.58998 0
M  V30 4108 C 379.998 -0.142883 1.91468 0
M  V30 4109 O 381.199 -0.328422 2.66786 0
M  V30 4110 C 379.47 2.153 2.85273 0
M  V30 4111 S 381.029 2.26548 3.75794 0
M  V30 4112 H 377.847 0.456685 0.54494 0
M  V30 4113 H 380.449 1.69825 0.968487 0
M  V30 4114 H 379.153 3.18008 2.59421 0
M  V30 4115 H 378.684 1.7483 3.52417 0
M  V30 4116 H 380.699 1.44034 4.74835 0
M  V30 4117 N 379.872 -1.04064 1.18357 0
M  V30 4118 C 381.097 -1.81454 1.00445 0
M  V30 4119 C 381.522 -1.82823 -0.442423 0
M  V30 4120 O 380.88 -1.24555 -1.31741 0
M  V30 4121 C 380.928 -3.24925 1.56384 0
M  V30 4122 O 380.032 -4.04856 0.785209 0
M  V30 4123 H 379.373 -0.560604 0.355835 0
M  V30 4124 H 381.903 -1.31059 1.57114 0
M  V30 4125 H 381.913 -3.75702 1.59097 0
M  V30 4126 H 380.588 -3.23244 2.61699 0
M  V30 4127 H 379.165 -3.63537 0.830399 0
M  V30 4128 N 381.35 -0.985608 -1.22978 0
M  V30 4129 C 382.761 -0.693593 -1.73338 0
M  V30 4130 C 383.112 0.789935 -1.79595 0
M  V30 4131 O 382.237 1.61771 -1.43733 0
M  V30 4132 C 382.832 -1.25235 -3.14804 0
M  V30 4133 C 381.391 -1.00987 -3.626 0
M  V30 4134 C 380.538 -1.37695 -2.40698 0
M  V30 4135 H 383.489 -1.15884 -1.08428 0
M  V30 4136 H 383.51 -0.627329 -3.75293 0
M  V30 4137 H 383.022 -2.33209 -3.10218 0
M  V30 4138 H 381.123 0.0535565 -3.72562 0
M  V30 4139 H 381.236 -1.66812 -4.49122 0
M  V30 4140 H 379.6 -0.795459 -2.4196 0
M  V30 4141 H 380.383 -2.46657 -2.38779 0
M  V30 4142 N 382.828 1.3818 -0.7579 0
M  V30 4143 C 384.239 1.82726 -0.383134 0
M  V30 4144 C 384.59 1.63214 1.08884 0
M  V30 4145 O 383.715 1.13566 1.84205 0
M  V30 4146 C 384.31 3.31728 -0.688631 0
M  V30 4147 C 382.869 3.74606 -0.367091 0
M  V30 4148 C 382.016 2.60896 -0.939599 0
M  V30 4149 H 384.967 1.26847 -0.953699 0
M  V30 4150 H 384.988 3.80487 0.0316492 0
M  V30 4151 H 384.5 3.45898 -1.76001 0
M  V30 4152 H 382.601 3.66013 0.697532 0
M  V30 4153 H 382.714 4.71215 -0.865658 0
M  V30 4154 H 381.078 2.52075 -0.3647 0
M  V30 4155 H 381.861 2.77864 -2.0161 0
M  V30 4156 N 384.306 0.507319 1.49211 0
M  V30 4157 C 385.553 -0.0349529 2.0247 0
M  V30 4158 C 385.881 -1.36409 1.38647 0
M  V30 4159 O 385.136 -1.88841 0.513566 0
M  V30 4160 C 385.435 -0.229513 3.56662 0
M  V30 4161 C 385.101 1.02241 4.39156 0
M  V30 4162 C 383.763 1.36557 4.61417 0
M  V30 4163 C 386.115 1.85428 4.871 0
M  V30 4164 C 383.443 2.53999 5.28868 0
M  V30 4165 C 385.795 3.02028 5.55843 0
M  V30 4166 C 384.459 3.36717 5.76349 0
M  V30 4167 H 383.729 -0.0127902 0.74089 0
M  V30 4168 H 386.376 0.668756 1.79443 0
M  V30 4169 H 384.681 -1.0158 3.78403 0
M  V30 4170 H 386.378 -0.663641 3.9547 0
M  V30 4171 H 382.968 0.745124 4.22073 0
M  V30 4172 H 387.152 1.6023 4.69723 0
M  V30 4173 H 382.408 2.81105 5.42946 0
M  V30 4174 H 386.582 3.66808 5.91967 0
M  V30 4175 H 384.209 4.27821 6.28389 0
M  V30 4176 N 385.784 -1.5574 0.241426 0
M  V30 4177 C 387.195 -1.84842 -0.262755 0
M  V30 4178 C 387.546 -1.16317 -1.58003 0
M  V30 4179 O 386.671 -0.439653 -2.11887 0
M  V30 4180 C 387.266 -3.35332 -0.483523 0
M  V30 4181 C 385.825 -3.6468 -0.931977 0
M  V30 4182 C 384.972 -2.77299 -0.0061151 0
M  V30 4183 H 387.923 -1.51761 0.464129 0
M  V30 4184 H 387.944 -3.56615 -1.32688 0
M  V30 4185 H 387.456 -3.85178 0.47537 0
M  V30 4186 H 385.557 -3.20307 -1.90353 0
M  V30 4187 H 385.67 -4.72498 -0.792628 0
M  V30 4188 H 384.034 -2.49408 -0.516503 0
M  V30 4189 H 384.817 -3.2995 0.948052 0
M  V30 4190 N 387.262 0.0317525 -1.57568 0
M  V30 4191 C 388.673 0.578692 -1.77505 0
M  V30 4192 C 389.024 1.75749 -0.872164 0
M  V30 4193 O 388.149 2.16298 -0.0663106 0
M  V30 4194 C 388.744 1.05658 -3.21904 0
M  V30 4195 C 387.303 1.54906 -3.43047 0
M  V30 4196 C 386.45 0.485939 -2.73009 0
M  V30 4197 H 389.401 -0.194475 -1.57504 0
M  V30 4198 H 389.422 1.92404 -3.28269 0
M  V30 4199 H 388.934 0.198422 -3.87592 0
M  V30 4200 H 387.035 2.42915 -2.82529 0
M  V30 4201 H 387.148 1.59841 -4.5165 0
M  V30 4202 H 385.512 0.940354 -2.36705 0
M  V30 4203 H 386.295 -0.362709 -3.41379 0
M  V30 4204 N 388.74 1.54641 0.303973 0
M  V30 4205 C 390.156 1.45788 0.649463 0
M  V30 4206 C 390.356 0.64666 1.90842 0
M  V30 4207 O 389.412 0.153183 2.52035 0
M  V30 4208 C 390.725 2.89718 0.805227 0
M  V30 4209 C 392.273 2.99742 0.901305 0
M  V30 4210 C 392.748 4.44863 1.08909 0
M  V30 4211 N 394.239 4.48559 1.15536 0
M  V30 4212 C 394.974 5.58026 1.3189 0
M  V30 4213 N 394.47 6.77422 1.45161 0
M  V30 4214 N 396.263 5.45708 1.34755 0
M  V30 4215 H 388.414 2.05854 -0.523237 0
M  V30 4216 H 390.677 0.932186 -0.172431 0
M  V30 4217 H 390.383 3.51666 -0.0489108 0
M  V30 4218 H 390.257 3.36964 1.69513 0
M  V30 4219 H 392.644 2.3791 1.74593 0
M  V30 4220 H 392.725 2.55797 -0.0125531 0
M  V30 4221 H 392.369 5.07288 0.249241 0
M  V30 4222 H 392.299 4.86436 2.01713 0
M  V30 4223 H 394.79 3.6254 1.06646 0
M  V30 4224 H 395.103 7.56604 1.57387 0
M  V30 4225 H 393.448 6.80292 1.42223 0
M  V30 4226 H 396.639 4.51378 1.23996 0
M  V30 4227 H 396.812 6.3107 1.47157 0
M  V30 4228 N 390.218 -0.567019 1.47046 0
M  V30 4229 C 391.467 -1.32091 1.5243 0
M  V30 4230 C 391.78 -1.94704 0.187021 0
M  V30 4231 O 392.986 -2.7124 0.118771 0
M  V30 4232 C 391.442 -2.39479 2.68659 0
M  V30 4233 C 391.05 -1.831 4.08874 0
M  V30 4234 C 392.794 -3.16111 2.83327 0
M  V30 4235 C 390.701 -2.8821 5.16419 0
M  V30 4236 H 389.631 -0.496629 0.56734 0
M  V30 4237 H 392.282 -0.603354 1.73297 0
M  V30 4238 H 390.664 -3.14105 2.41152 0
M  V30 4239 H 391.838 -1.14913 4.46242 0
M  V30 4240 H 390.153 -1.19085 3.99008 0
M  V30 4241 H 392.75 -3.94585 3.60842 0
M  V30 4242 H 393.093 -3.69686 1.91411 0
M  V30 4243 H 393.626 -2.48595 3.10556 0
M  V30 4244 H 390.365 -2.39504 6.10179 0
M  V30 4245 H 389.885 -3.54839 4.8358 0
M  V30 4246 H 391.564 -3.51881 5.42945 0
M  V30 4247 N 391.696 -1.35014 -0.812953 0
M  V30 4248 C 392.944 -1.27678 -1.56661 0
M  V30 4249 C 393.265 0.150359 -1.94419 0
M  V30 4250 O 392.535 1.08532 -1.63088 0
M  V30 4251 H 391.115 -0.469602 -0.580933 0
M  V30 4252 H 393.777 -1.69043 -0.970076 0
M  V30 4253 H 392.873 -1.88833 -2.48492 0
M  V30 4254 N 393.175 1.03435 -1.18907 0
M  V30 4255 C 394.586 1.58195 -0.991523 0
M  V30 4256 C 394.937 1.90801 0.457081 0
M  V30 4257 O 394.062 1.70272 1.33553 0
M  V30 4258 C 394.657 2.87432 -1.79355 0
M  V30 4259 C 393.216 3.38785 -1.64017 0
M  V30 4260 C 392.363 2.12292 -1.78402 0
M  V30 4261 H 395.314 0.860299 -1.33359 0
M  V30 4262 H 395.335 3.58096 -1.28638 0
M  V30 4263 H 394.847 2.63669 -2.84781 0
M  V30 4264 H 392.948 3.67547 -0.611536 0
M  V30 4265 H 393.061 4.12186 -2.44212 0
M  V30 4266 H 391.425 2.23901 -1.2141 0
M  V30 4267 H 392.208 1.90977 -2.85277 0
M  V30 4268 N 394.653 0.992116 1.22453 0
M  V30 4269 C 395.899 0.668523 1.91464 0
M  V30 4270 C 396.232 -0.797313 1.77078 0
M  V30 4271 O 395.507 -1.5765 1.13916 0
M  V30 4272 C 395.79 1.07424 3.43703 0
M  V30 4273 C 395.643 2.59857 3.67143 0
M  V30 4274 C 396.962 0.626891 4.35612 0
M  V30 4275 H 394.081 0.244341 0.695318 0
M  V30 4276 H 396.723 1.2355 1.44345 0
M  V30 4277 H 394.873 0.591816 3.83966 0
M  V30 4278 H 396.545 3.15764 3.3629 0
M  V30 4279 H 394.788 3.01961 3.11451 0
M  V30 4280 H 395.459 2.83296 4.73759 0
M  V30 4281 H 397.935 1.04125 4.02861 0
M  V30 4282 H 396.811 0.939076 5.40807 0
M  V30 4283 H 397.072 -0.472457 4.39568 0
M  V30 4284 N 396.131 -1.37776 0.765217 0
M  V30 4285 C 397.094 -2.28686 0.153416 0
M  V30 4286 C 398.094 -1.47727 -0.635081 0
M  V30 4287 O 399.284 -1.68027 -0.459632 0
M  V30 4288 C 396.416 -3.31608 -0.790495 0
M  V30 4289 H 397.609 -2.84297 0.954723 0
M  V30 4290 H 395.162 -1.46932 0.53299 0
M  V30 4291 H 395.897 -2.81109 -1.61705 0
M  V30 4292 H 395.682 -3.9144 -0.227348 0
M  V30 4293 H 397.172 -3.99559 -1.21419 0
M  V30 4294 N 397.609 -0.515225 -1.4894 0
M  V30 4295 C 398.541 0.292481 -2.27326 0
M  V30 4296 C 399.554 0.917838 -1.3446 0
M  V30 4297 O 400.743 0.798772 -1.5963 0
M  V30 4298 C 397.843 1.42803 -3.07344 0
M  V30 4299 C 397.016 0.907347 -4.27885 0
M  V30 4300 C 396.075 1.92222 -4.89834 0
M  V30 4301 O 395.101 1.48506 -5.49486 0
M  V30 4302 N 396.303 3.25355 -4.80754 0
M  V30 4303 H 399.068 -0.379721 -2.97285 0
M  V30 4304 H 396.629 -0.348638 -1.58102 0
M  V30 4305 H 398.621 2.10481 -3.45658 0
M  V30 4306 H 397.191 2.00414 -2.39902 0
M  V30 4307 H 396.411 0.0550218 -3.94162 0
M  V30 4308 H 397.699 0.538108 -5.05946 0
M  V30 4309 H 397.097 3.6355 -4.33414 0
M  V30 4310 H 395.654 3.88707 -5.23211 0
M  V30 4311 N 399.087 1.5561 -0.249682 0
M  V30 4312 C 400.364 1.90932 0.424761 0
M  V30 4313 C 400.744 1.17078 1.75658 0
M  V30 4314 O 400.092 0.289176 2.26663 0
M  V30 4315 C 400.302 3.43975 0.590109 0
M  V30 4316 C 401.65 4.15281 0.884714 0
M  V30 4317 O 402.674 3.49729 0.67587 0
M  V30 4318 O 401.533 5.31236 1.28259 0
M  V30 4319 H 398.627 0.794815 0.228468 0
M  V30 4320 H 401.173 1.67135 -0.293954 0
M  V30 4321 H 399.945 3.89748 -0.34818 0
M  V30 4322 H 399.568 3.73644 1.35926 0
M  V30 4323 N 400.565 -0.0233959 1.57583 0
M  V30 4324 C 401.495 -1.02162 2.09965 0
M  V30 4325 C 402.476 -1.3735 1.00344 0
M  V30 4326 O 403.661 -1.46135 1.27899 0
M  V30 4327 C 400.791 -2.32081 2.58371 0
M  V30 4328 C 399.745 -2.1112 3.72307 0
M  V30 4329 C 399.071 -3.46848 4.06941 0
M  V30 4330 C 400.371 -1.49276 5.00514 0
M  V30 4331 H 402.065 -0.585557 2.93618 0
M  V30 4332 H 399.611 -0.280218 1.41247 0
M  V30 4333 H 401.564 -3.02249 2.93639 0
M  V30 4334 H 400.288 -2.77758 1.71808 0
M  V30 4335 H 398.947 -1.43384 3.37397 0
M  V30 4336 H 398.595 -3.90184 3.17436 0
M  V30 4337 H 398.295 -3.33646 4.83688 0
M  V30 4338 H 399.819 -4.18369 4.44747 0
M  V30 4339 H 401.233 -2.09368 5.33702 0
M  V30 4340 H 399.63 -1.46632 5.8191 0
M  V30 4341 H 400.7 -0.459217 4.82721 0
M  V30 4342 N 402.043 -1.548 -0.295768 0
M  V30 4343 C 402.973 -1.89115 -1.36959 0
M  V30 4344 C 403.954 -0.75059 -1.52644 0
M  V30 4345 O 405.139 -1.00678 -1.66065 0
M  V30 4346 C 402.269 -2.14307 -2.73295 0
M  V30 4347 C 401.223 -3.30151 -2.72368 0
M  V30 4348 C 400.549 -3.40772 -4.12042 0
M  V30 4349 C 401.849 -4.67126 -2.33646 0
M  V30 4350 H 403.543 -2.79053 -1.08488 0
M  V30 4351 H 401.089 -1.34266 -0.520443 0
M  V30 4352 H 403.042 -2.36898 -3.48507 0
M  V30 4353 H 401.766 -1.21145 -3.03301 0
M  V30 4354 H 400.425 -3.0749 -1.99613 0
M  V30 4355 H 400.073 -2.45117 -4.39234 0
M  V30 4356 H 399.773 -4.18645 -4.12322 0
M  V30 4357 H 401.297 -3.6563 -4.89027 0
M  V30 4358 H 402.711 -4.89414 -2.98575 0
M  V30 4359 H 401.108 -5.47751 -2.45129 0
M  V30 4360 H 402.178 -4.67489 -1.28772 0
M  V30 4361 N 403.521 0.559213 -1.47345 0
M  V30 4362 C 404.453 1.68161 -1.55738 0
M  V30 4363 C 405.466 1.56636 -0.443744 0
M  V30 4364 O 406.655 1.6363 -0.713258 0
M  V30 4365 C 403.755 3.06611 -1.4437 0
M  V30 4366 C 402.928 3.4391 -2.70268 0
M  V30 4367 C 401.987 4.61515 -2.52765 0
M  V30 4368 O 401.013 4.66197 -3.26572 0
M  V30 4369 N 402.215 5.57883 -1.6046 0
M  V30 4370 H 404.98 1.61408 -2.52522 0
M  V30 4371 H 402.541 0.7458 -1.43699 0
M  V30 4372 H 404.533 3.83117 -1.30398 0
M  V30 4373 H 403.103 3.07602 -0.556766 0
M  V30 4374 H 402.323 2.56873 -2.99015 0
M  V30 4375 H 403.611 3.65605 -3.53851 0
M  V30 4376 H 403.009 5.56855 -0.996422 0
M  V30 4377 H 401.566 6.33723 -1.52441 0
M  V30 4378 N 404.999 1.35443 0.805782 0
M  V30 4379 C 406.415 1.15499 1.10146 0
M  V30 4380 C 406.615 -0.0319975 2.01475 0
M  V30 4381 O 405.671 -0.70236 2.42535 0
M  V30 4382 C 406.984 2.45833 1.73166 0
M  V30 4383 C 408.532 2.52047 1.85583 0
M  V30 4384 C 409.007 3.82427 2.52019 0
M  V30 4385 N 410.498 3.83682 2.59504 0
M  V30 4386 C 411.233 4.81294 3.11679 0
M  V30 4387 N 410.729 5.89294 3.64287 0
M  V30 4388 N 412.522 4.6873 3.1024 0
M  V30 4389 H 404.673 2.11469 0.198678 0
M  V30 4390 H 406.936 0.93594 0.150731 0
M  V30 4391 H 406.642 3.32874 1.13526 0
M  V30 4392 H 406.516 2.6044 2.72857 0
M  V30 4393 H 408.903 1.65435 2.44367 0
M  V30 4394 H 408.984 2.41354 0.847455 0
M  V30 4395 H 408.628 4.69437 1.93885 0
M  V30 4396 H 408.558 3.90409 3.53395 0
M  V30 4397 H 411.049 3.05648 2.22234 0
M  V30 4398 H 411.362 6.59768 4.02401 0
M  V30 4399 H 409.707 5.92985 3.62483 0
M  V30 4400 H 412.898 3.83496 2.68419 0
M  V30 4401 H 413.071 5.44965 3.50596 0
M  V30 4402 N 406.477 -1.02803 1.19454 0
M  V30 4403 C 407.407 -2.12999 0.956758 0
M  V30 4404 C 408.388 -1.69743 -0.110188 0
M  V30 4405 O 409.573 -1.94148 0.0450038 0
M  V30 4406 C 406.703 -3.43746 0.495553 0
M  V30 4407 C 405.657 -4.00688 1.50443 0
M  V30 4408 C 404.983 -5.27067 0.900275 0
M  V30 4409 C 406.283 -4.35397 2.8849 0
M  V30 4410 H 407.977 -2.33148 1.87836 0
M  V30 4411 H 405.523 -1.12045 0.904539 0
M  V30 4412 H 407.476 -4.2021 0.316493 0
M  V30 4413 H 406.2 -3.23321 -0.461646 0
M  V30 4414 H 404.859 -3.2632 1.67065 0
M  V30 4415 H 404.507 -5.02959 -0.064503 0
M  V30 4416 H 404.207 -5.66127 1.57397 0
M  V30 4417 H 405.731 -6.06196 0.73203 0
M  V30 4418 H 407.145 -5.02795 2.75446 0
M  V30 4419 H 405.542 -4.85541 3.52661 0
M  V30 4420 H 406.612 -3.44662 3.41081 0
M  V30 4421 N 407.956 -0.998596 -1.21925 0
M  V30 4422 C 408.886 -0.573688 -2.26343 0
M  V30 4423 C 409.867 0.402296 -1.65274 0
M  V30 4424 O 411.052 0.291683 -1.91997 0
M  V30 4425 C 408.182 0.106839 -3.47136 0
M  V30 4426 C 407.136 -0.788269 -4.20678 0
M  V30 4427 C 406.462 0.0254927 -5.34694 0
M  V30 4428 C 407.762 -2.08784 -4.78755 0
M  V30 4429 H 409.456 -1.44651 -2.62138 0
M  V30 4430 H 407.002 -0.696975 -1.26009 0
M  V30 4431 H 408.955 0.415531 -4.19346 0
M  V30 4432 H 407.679 1.01424 -3.10452 0
M  V30 4433 H 406.338 -1.08069 -3.50309 0
M  V30 4434 H 405.986 0.933989 -4.94253 0
M  V30 4435 H 405.686 -0.570437 -5.84825 0
M  V30 4436 H 407.21 0.328147 -6.09718 0
M  V30 4437 H 408.624 -1.84272 -5.42878 0
M  V30 4438 H 407.021 -2.63307 -5.39249 0
M  V30 4439 H 408.091 -2.76284 -3.98491 0
M  V30 4440 N 409.434 1.37368 -0.772513 0
M  V30 4441 C 410.674 2.01512 -0.342361 0
M  V30 4442 C 411.038 1.59997 1.06136 0
M  V30 4443 O 412.239 2.16609 1.59167 0
M  V30 4444 C 410.51 3.54134 -0.482048 0
M  V30 4445 S 412.069 4.38585 -0.137272 0
M  V30 4446 H 408.887 0.698699 -0.131686 0
M  V30 4447 H 411.489 1.67552 -1.0073 0
M  V30 4448 H 410.193 3.81837 -1.50428 0
M  V30 4449 H 409.724 3.92894 0.199413 0
M  V30 4450 H 411.739 4.84594 1.06692 0
M  V30 4451 N 410.912 0.523116 1.48665 0
M  V30 4452 C 411.859 -0.243398 2.29513 0
M  V30 4453 C 412.829 -0.940139 1.36933 0
M  V30 4454 O 414.014 -0.942503 1.65896 0
M  V30 4455 C 411.154 -1.28855 3.20141 0
M  V30 4456 C 410.267 -0.60135 4.27794 0
M  V30 4457 C 409.402 -1.62884 5.05611 0
M  V30 4458 C 408.441 -0.924726 6.05075 0
M  V30 4459 N 407.578 -1.89744 6.75975 0
M  V30 4460 H 412.418 0.452234 2.94549 0
M  V30 4461 H 409.955 0.234858 1.45213 0
M  V30 4462 H 411.913 -1.90674 3.71079 0
M  V30 4463 H 410.543 -1.95266 2.57043 0
M  V30 4464 H 409.595 0.130623 3.80176 0
M  V30 4465 H 410.907 -0.0481585 4.98777 0
M  V30 4466 H 410.061 -2.32149 5.60528 0
M  V30 4467 H 408.8 -2.21592 4.34452 0
M  V30 4468 H 407.805 -0.217966 5.49368 0
M  V30 4469 H 409.03 -0.343851 6.78229 0
M  V30 4470 H 406.976 -2.47373 6.07571 0
M  V30 4471 H 406.893 -1.3955 7.43009 0
M  V30 4472 H 408.161 -2.58229 7.35485 0
M  V30 4473 N 412.39 -1.55475 0.257931 0
M  V30 4474 C 413.667 -1.91155 -0.414629 0
M  V30 4475 C 414.047 -1.18008 -1.75035 0
M  V30 4476 O 413.395 -0.301193 -2.26506 0
M  V30 4477 C 413.605 -3.44283 -0.571859 0
M  V30 4478 C 414.953 -4.15744 -0.862678 0
M  V30 4479 O 415.977 -3.50083 -0.657314 0
M  V30 4480 O 414.836 -5.31909 -1.2544 0
M  V30 4481 H 411.93 -0.796016 -0.22425 0
M  V30 4482 H 414.476 -1.66976 0.302814 0
M  V30 4483 H 413.248 -3.89558 0.368844 0
M  V30 4484 H 412.871 -3.7436 -1.33943 0
M  V30 4485 N 413.868 0.0150385 -1.57593 0
M  V30 4486 C 415.279 0.559832 -1.78109 0
M  V30 4487 C 415.63 1.74814 -0.890756 0
M  V30 4488 O 414.755 2.16216 -0.0892482 0
M  V30 4489 C 415.35 1.02238 -3.23006 0
M  V30 4490 C 413.909 1.51258 -3.44671 0
M  V30 4491 C 413.056 0.456955 -2.73509 0
M  V30 4492 H 416.007 -0.211169 -1.57289 0
M  V30 4493 H 416.028 1.88912 -3.30292 0
M  V30 4494 H 415.54 0.157302 -3.87781 0
M  V30 4495 H 413.641 2.39905 -2.8509 0
M  V30 4496 H 413.754 1.55042 -4.5332 0
M  V30 4497 H 412.118 0.915196 -2.37689 0
M  V30 4498 H 412.901 -0.398896 -3.40975 0
M  V30 4499 N 415.346 1.54954 0.287554 0
M  V30 4500 C 416.293 1.86834 1.35505 0
M  V30 4501 C 417.263 0.718452 1.49758 0
M  V30 4502 O 418.448 0.968358 1.644 0
M  V30 4503 C 415.588 2.13303 2.71286 0
M  V30 4504 C 414.701 3.40883 2.65373 0
M  V30 4505 C 413.836 3.57125 3.93236 0
M  V30 4506 C 412.875 4.78449 3.81776 0
M  V30 4507 N 412.012 4.91426 5.01443 0
M  V30 4508 H 416.852 2.77889 1.07619 0
M  V30 4509 H 414.389 1.37593 0.520241 0
M  V30 4510 H 416.347 2.26646 3.50267 0
M  V30 4511 H 414.977 1.25499 2.97405 0
M  V30 4512 H 414.029 3.36088 1.78182 0
M  V30 4513 H 415.341 4.29993 2.52799 0
M  V30 4514 H 414.495 3.70207 4.80658 0
M  V30 4515 H 413.234 2.66173 4.0866 0
M  V30 4516 H 412.239 4.65386 2.92738 0
M  V30 4517 H 413.464 5.70822 3.67884 0
M  V30 4518 H 411.41 4.03401 5.17304 0
M  V30 4519 H 411.327 5.74559 4.91343 0
M  V30 4520 H 412.595 5.08879 5.90477 0
M  V30 4521 N 416.824 -0.551391 1.4764 0
M  V30 4522 C 417.771 -1.65796 1.60563 0
M  V30 4523 C 418.741 -1.59932 0.448428 0
M  V30 4524 O 419.926 -1.78679 0.669222 0
M  V30 4525 C 417.066 -3.04108 1.63133 0
M  V30 4526 C 416.179 -3.20365 2.89811 0
M  V30 4527 C 415.314 -4.49109 2.8368 0
M  V30 4528 C 414.353 -4.58819 4.05156 0
M  V30 4529 N 413.49 -5.78926 3.97227 0
M  V30 4530 H 418.33 -1.54088 2.5507 0
M  V30 4531 H 415.867 -0.75052 1.26513 0
M  V30 4532 H 417.825 -3.84207 1.62606 0
M  V30 4533 H 416.455 -3.14637 0.721341 0
M  V30 4534 H 415.507 -2.33659 3.00179 0
M  V30 4535 H 416.819 -3.23402 3.79753 0
M  V30 4536 H 415.973 -5.37475 2.81434 0
M  V30 4537 H 414.712 -4.4856 1.91431 0
M  V30 4538 H 413.717 -3.68864 4.077 0
M  V30 4539 H 414.942 -4.61124 4.98539 0
M  V30 4540 H 412.888 -5.79314 3.07785 0
M  V30 4541 H 412.805 -5.83367 4.80853 0
M  V30 4542 H 414.073 -6.69637 3.99007 0
M  V30 4543 N 418.302 -1.35869 -0.798587 0
M  V30 4544 C 419.718 -1.16082 -1.09532 0
M  V30 4545 C 419.918 0.0213124 -2.01489 0
M  V30 4546 O 418.974 0.689488 -2.42904 0
M  V30 4547 C 420.287 -2.46748 -1.7186 0
M  V30 4548 C 421.835 -2.53028 -1.84244 0
M  V30 4549 C 422.31 -3.83758 -2.49988 0
M  V30 4550 N 423.801 -3.85053 -2.57465 0
M  V30 4551 C 424.536 -4.8294 -3.09122 0
M  V30 4552 N 424.032 -5.91217 -3.61157 0
M  V30 4553 N 425.825 -4.70369 -3.0775 0
M  V30 4554 H 417.976 -2.11571 -0.187461 0
M  V30 4555 H 420.239 -0.936726 -0.145765 0
M  V30 4556 H 419.945 -3.33471 -1.11759 0
M  V30 4557 H 419.819 -2.61883 -2.71472 0
M  V30 4558 H 422.206 -1.66729 -2.43486 0
M  V30 4559 H 422.287 -2.418 -0.834643 0
M  V30 4560 H 421.931 -4.70459 -1.91393 0
M  V30 4561 H 421.861 -3.92278 -3.5132 0
M  V30 4562 H 424.352 -3.06822 -2.20609 0
M  V30 4563 H 424.665 -6.61892 -3.98896 0
M  V30 4564 H 423.01 -5.94899 -3.59333 0
M  V30 4565 H 426.201 -3.84914 -2.66381 0
M  V30 4566 H 426.374 -5.46816 -3.47701 0
M  V30 4567 N 419.78 1.02168 -1.19998 0
M  V30 4568 C 420.71 2.12488 -0.96804 0
M  V30 4569 C 421.691 1.69799 0.101185 0
M  V30 4570 O 422.876 1.94121 -0.0552993 0
M  V30 4571 C 420.006 3.43479 -0.513776 0
M  V30 4572 C 418.96 3.99884 -1.52566 0
M  V30 4573 C 418.286 5.26582 -0.928214 0
M  V30 4574 C 419.586 4.33861 -2.90795 0
M  V30 4575 H 421.28 2.32149 -1.89069 0
M  V30 4576 H 418.826 1.11564 -0.910468 0
M  V30 4577 H 420.779 4.20036 -0.338774 0
M  V30 4578 H 419.503 3.23561 0.444493 0
M  V30 4579 H 418.162 3.25429 -1.68794 0
M  V30 4580 H 417.81 5.02986 0.0378289 0
M  V30 4581 H 417.51 5.65284 -1.60397 0
M  V30 4582 H 419.034 6.05799 -0.764167 0
M  V30 4583 H 420.448 5.01327 -2.78109 0
M  V30 4584 H 418.845 4.83664 -3.55231 0
M  V30 4585 H 419.915 3.42848 -3.42904 0
M  V30 4586 N 421.258 1.00505 1.21394 0
M  V30 4587 C 422.506 0.686415 1.90086 0
M  V30 4588 C 422.827 -0.785264 1.7849 0
M  V30 4589 O 422.097 -1.56387 1.17983 0
M  V30 4590 H 420.677 0.2509 0.703604 0
M  V30 4591 H 423.339 1.27417 1.47482 0
M  V30 4592 H 422.435 0.959621 2.96981 0
M  V30 4593 N 422.737 -1.36956 0.779787 0
M  V30 4594 C 423.7 -2.2851 0.177662 0
M  V30 4595 C 424.7 -1.48393 -0.619377 0
M  V30 4596 O 425.89 -1.68505 -0.441785 0
M  V30 4597 C 423.022 -3.32428 -0.755279 0
M  V30 4598 H 424.215 -2.83269 0.984823 0
M  V30 4599 H 421.768 -1.46358 0.548544 0
M  V30 4600 H 422.503 -2.82808 -1.58714 0
M  V30 4601 H 422.288 -3.91659 -0.185817 0
M  V30 4602 H 423.778 -4.00824 -1.17174 0
M  V30 4603 N 424.215 -0.530993 -1.48385 0
M  V30 4604 C 425.463 0.00273189 -2.021 0
M  V30 4605 C 425.784 1.34672 -1.41027 0
M  V30 4606 O 425.054 1.8724 -0.576012 0
M  V30 4607 H 423.634 0.00399774 -0.746989 0
M  V30 4608 H 426.296 -0.695054 -1.82085 0
M  V30 4609 H 425.392 0.11031 -3.11905 0
M  V30 4610 N 425.693 1.55336 -0.266172 0
M  V30 4611 C 427.104 1.85236 0.233315 0
M  V30 4612 C 427.455 1.18816 1.56132 0
M  V30 4613 O 426.58 0.473307 2.11161 0
M  V30 4614 C 427.175 3.36059 0.430113 0
M  V30 4615 C 425.734 3.66116 0.873842 0
M  V30 4616 C 424.881 2.77274 -0.0380016 0
M  V30 4617 H 427.832 1.51004 -0.488214 0
M  V30 4618 H 427.853 3.58681 1.26998 0
M  V30 4619 H 427.365 3.84373 -0.536588 0
M  V30 4620 H 425.466 3.23295 1.85233 0
M  V30 4621 H 425.579 4.73699 0.717358 0
M  V30 4622 H 423.943 2.50198 0.476759 0
M  V30 4623 H 424.726 3.284 -1.00042 0
M  V30 4624 N 427.171 -0.0066808 1.57599 0
M  V30 4625 C 428.103 -1.02827 2.04839 0
M  V30 4626 C 429.116 -1.31108 0.965113 0
M  V30 4627 O 430.305 -1.28202 1.24203 0
M  V30 4628 C 427.405 -2.36464 2.42771 0
M  V30 4629 C 426.578 -2.27219 3.73751 0
M  V30 4630 C 425.637 -3.43489 3.98625 0
M  V30 4631 O 424.663 -3.21976 4.69382 0
M  V30 4632 N 425.865 -4.66116 3.46 0
M  V30 4633 H 428.63 -0.625455 2.93101 0
M  V30 4634 H 426.191 -0.194198 1.60731 0
M  V30 4635 H 428.183 -3.13008 2.56531 0
M  V30 4636 H 426.753 -2.68512 1.60063 0
M  V30 4637 H 425.973 -1.35629 3.70133 0
M  V30 4638 H 427.261 -2.18208 4.59633 0
M  V30 4639 H 426.659 -4.86493 2.88688 0
M  V30 4640 H 425.216 -5.39949 3.65101 0
M  V30 4641 N 428.649 -1.55105 -0.279332 0
M  V30 4642 C 429.897 -1.75066 -1.00977 0
M  V30 4643 C 430.218 -0.551276 -1.87045 0
M  V30 4644 O 429.488 0.433984 -1.91032 0
M  V30 4645 H 428.068 -0.645578 -0.375816 0
M  V30 4646 H 430.73 -1.92497 -0.305089 0
M  V30 4647 H 429.826 -2.64894 -1.65038 0
M  V30 4648 N 430.127 0.543554 -1.4793 0
M  V30 4649 C 431.09 1.63156 -1.60975 0
M  V30 4650 C 432.09 1.53346 -0.483899 0
M  V30 4651 O 433.28 1.5726 -0.749339 0
M  V30 4652 C 430.412 3.02743 -1.56716 0
M  V30 4653 H 431.605 1.52934 -2.57975 0
M  V30 4654 H 429.158 0.764557 -1.36324 0
M  V30 4655 H 429.893 3.18484 -0.611418 0
M  V30 4656 H 429.678 3.11272 -2.38438 0
M  V30 4657 H 431.168 3.81871 -1.6901 0
M  V30 4658 N 431.605 1.3629 0.791371 0
M  V30 4659 C 432.537 1.26321 1.91248 0
M  V30 4660 C 433.55 0.18313 1.61767 0
M  V30 4661 O 434.739 0.437682 1.73051 0
M  V30 4662 C 431.839 0.925901 3.26007 0
M  V30 4663 C 431.012 2.10746 3.83281 0
M  V30 4664 C 430.071 1.74352 4.96475 0
M  V30 4665 O 429.097 2.46416 5.13096 0
M  V30 4666 N 430.299 0.676058 5.7655 0
M  V30 4667 H 433.064 2.22915 2.00323 0
M  V30 4668 H 430.625 1.29659 0.969546 0
M  V30 4669 H 432.617 0.663636 3.99222 0
M  V30 4670 H 431.187 0.0491581 3.12561 0
M  V30 4671 H 430.407 2.53264 3.02077 0
M  V30 4672 H 431.695 2.8969 4.18279 0
M  V30 4673 H 431.093 0.0776467 5.65647 0
M  V30 4674 H 429.65 0.473612 6.50077 0
M  V30 4675 N 433.083 -1.0153 1.20538 0
M  V30 4676 C 433.993 -2.13557 0.971113 0
M  V30 4677 C 435.009 -1.73845 -0.0734366 0
M  V30 4678 O 436.185 -2.01075 0.114299 0
M  V30 4679 C 433.25 -3.42661 0.527639 0
M  V30 4680 C 432.311 -3.96608 1.64319 0
M  V30 4681 C 431.544 -5.1955 1.22078 0
M  V30 4682 O 431.767 -5.70329 0.0900198 0
M  V30 4683 O 430.701 -5.66681 2.02871 0
M  V30 4684 H 434.527 -2.3619 1.90913 0
M  V30 4685 H 432.112 -1.11946 0.989362 0
M  V30 4686 H 433.994 -4.20404 0.289621 0
M  V30 4687 H 432.669 -3.21441 -0.381779 0
M  V30 4688 H 431.576 -3.20139 1.93551 0
M  V30 4689 H 432.909 -4.22219 2.52966 0
M  V30 4690 N 434.561 -1.01147 -1.20859 0
M  V30 4691 C 435.807 -0.698899 -1.90377 0
M  V30 4692 C 436.14 0.76904 -1.78324 0
M  V30 4693 O 435.415 1.55817 -1.16409 0
M  V30 4694 C 435.698 -1.12878 -3.41951 0
M  V30 4695 C 435.551 -2.65665 -3.62963 0
M  V30 4696 C 436.87 -0.696114 -4.3456 0
M  V30 4697 H 433.989 -0.255372 -0.691342 0
M  V30 4698 H 436.631 -1.25831 -1.42361 0
M  V30 4699 H 434.781 -0.652827 -3.82976 0
M  V30 4700 H 436.453 -3.21074 -3.31224 0
M  V30 4701 H 434.696 -3.06878 -3.06608 0
M  V30 4702 H 435.367 -2.90797 -4.69192 0
M  V30 4703 H 437.843 -1.10521 -4.01154 0
M  V30 4704 H 436.719 -1.025 -5.39245 0
M  V30 4705 H 436.98 0.402465 -4.40264 0
M  V30 4706 N 436.039 1.36541 -0.78704 0
M  V30 4707 C 437.455 1.52571 -0.46844 0
M  V30 4708 C 437.655 1.7415 1.01361 0
M  V30 4709 O 436.711 1.77163 1.79915 0
M  V30 4710 C 438.024 2.71299 -1.29682 0
M  V30 4711 C 439.572 2.85169 -1.29027 0
M  V30 4712 C 440.047 4.06898 -2.10233 0
M  V30 4713 N 441.538 4.1404 -2.07666 0
M  V30 4714 C 442.273 5.07301 -2.67271 0
M  V30 4715 N 441.769 6.06021 -3.35724 0
M  V30 4716 N 443.562 4.99898 -2.57018 0
M  V30 4717 H 435.713 1.20788 -1.74711 0
M  V30 4718 H 437.976 0.589364 -0.742532 0
M  V30 4719 H 437.682 2.61868 -2.34773 0
M  V30 4720 H 437.556 3.6539 -0.936479 0
M  V30 4721 H 439.943 2.94062 -0.247284 0
M  V30 4722 H 440.024 1.91992 -1.69035 0
M  V30 4723 H 439.668 3.98766 -3.1456 0
M  V30 4724 H 439.598 4.99218 -1.67597 0
M  V30 4725 H 442.089 3.43357 -1.57843 0
M  V30 4726 H 442.402 6.73741 -3.78541 0
M  V30 4727 H 440.747 6.06253 -3.39826 0
M  V30 4728 H 443.938 4.21724 -2.03142 0
M  V30 4729 H 444.111 5.72392 -3.03761 0
M  V30 4730 N 437.518 0.538854 1.48102 0
M  V30 4731 C 438.466 -0.232325 2.31437 0
M  V30 4732 C 439.46 -0.927004 1.41785 0
M  V30 4733 O 440.666 -0.850378 1.58646 0
M  V30 4734 H 437.041 -0.0937916 0.746128 0
M  V30 4735 H 439.012 0.489986 2.9435 0
M  V30 4736 C 437.761 -1.26074 3.24038 0
M  V30 4737 H 437.084 -0.735609 3.92974 0
M  V30 4738 H 438.524 -1.77157 3.85216 0
M  V30 4739 C 436.983 -2.29902 2.46265 0
M  V30 4740 O 437.513 -3.36502 2.19384 0
M  V30 4741 N 435.719 -2.03348 2.07601 0
M  V30 4742 H 435.266 -1.16675 2.29662 0
M  V30 4743 H 435.224 -2.73038 1.55877 0
M  V30 4744 N 438.996 -1.55193 0.274407 0
M  V30 4745 C 439.946 -2.19184 -0.627882 0
M  V30 4746 C 440.93 -1.15625 -1.11892 0
M  V30 4747 O 442.122 -1.41441 -1.06411 0
M  V30 4748 C 439.251 -2.91591 -1.81189 0
M  V30 4749 C 438.337 -4.02438 -1.33807 0
M  V30 4750 N 438.728 -5.0246 -0.580349 0
M  V30 4751 C 437.026 -4.15496 -1.62109 0
M  V30 4752 C 437.727 -5.80756 -0.331344 0
M  V30 4753 N 436.703 -5.36038 -0.903556 0
M  V30 4754 H 440.505 -2.93871 -0.0411216 0
M  V30 4755 H 438.019 -1.62213 0.0779348 0
M  V30 4756 H 440.016 -3.35883 -2.46957 0
M  V30 4757 H 438.676 -2.18414 -2.40261 0
M  V30 4758 H 439.687 -5.17399 -0.227762 0
M  V30 4759 H 436.364 -3.53509 -2.22121 0
M  V30 4760 H 437.754 -6.71335 0.275454 0
M  V30 4761 N 440.474 -0.00167713 -1.576 0
M  V30 4762 C 441.885 0.54091 -1.78693 0
M  V30 4763 C 442.236 1.7386 -0.909247 0
M  V30 4764 O 441.361 2.16109 -0.112176 0
M  V30 4765 C 441.956 0.98806 -3.24072 0
M  V30 4766 C 440.515 1.47594 -3.46256 0
M  V30 4767 C 439.662 0.42792 -2.73978 0
M  V30 4768 H 442.613 -0.22784 -1.57056 0
M  V30 4769 H 442.634 1.85398 -3.32277 0
M  V30 4770 H 442.146 0.116164 -3.87926 0
M  V30 4771 H 440.247 2.36868 -2.87618 0
M  V30 4772 H 440.36 1.50225 -4.54939 0
M  V30 4773 H 438.724 0.889934 -2.38647 0
M  V30 4774 H 439.507 -0.435038 -3.40532 0
M  V30 4775 N 441.952 1.55251 0.271103 0
M  V30 4776 C 443.199 1.75946 1.00245 0
M  V30 4777 C 443.527 0.561611 1.86215 0
M  V30 4778 O 442.782 -0.455832 1.90317 0
M  V30 4779 C 443.081 3.01879 1.91321 0
M  V30 4780 C 442.747 4.34337 1.21086 0
M  V30 4781 C 441.409 4.70338 1.01666 0
M  V30 4782 C 443.761 5.16325 0.71119 0
M  V30 4783 C 441.089 5.8588 0.310099 0
M  V30 4784 C 443.441 6.32597 0.0182157 0
M  V30 4785 C 442.105 6.67236 -0.18768 0
M  V30 4786 H 441.375 0.643833 0.366824 0
M  V30 4787 H 444.022 1.89521 0.27458 0
M  V30 4788 H 442.327 2.83212 2.70736 0
M  V30 4789 H 444.024 3.15088 2.48033 0
M  V30 4790 H 440.614 4.06043 1.37213 0
M  V30 4791 H 444.798 4.88987 0.848844 0
M  V30 4792 H 440.054 6.1124 0.139873 0
M  V30 4793 H 444.228 6.9538 -0.376711 0
M  V30 4794 H 441.855 7.56618 -0.73715 0
M  V30 4795 N 443.43 -0.535701 1.48216 0
M  V30 4796 C 444.677 -1.29183 1.55942 0
M  V30 4797 C 445.005 -1.93125 0.230857 0
M  V30 4798 O 444.26 -1.79556 -0.778331 0
M  V30 4799 C 444.559 -2.4068 2.64212 0
M  V30 4800 C 444.225 -1.94428 4.06827 0
M  V30 4801 C 442.887 -1.81532 4.45645 0
M  V30 4802 C 445.239 -1.59405 4.96225 0
M  V30 4803 C 442.567 -1.31939 5.71672 0
M  V30 4804 C 444.919 -1.11276 6.22736 0
M  V30 4805 C 443.583 -0.969924 6.60416 0
M  V30 4806 H 442.853 -0.472715 0.570632 0
M  V30 4807 H 445.5 -0.598437 1.81909 0
M  V30 4808 H 443.805 -3.15666 2.32083 0
M  V30 4809 H 445.502 -2.98822 2.67407 0
M  V30 4810 H 442.092 -2.05415 3.76168 0
M  V30 4811 H 446.276 -1.68231 4.66917 0
M  V30 4812 H 441.532 -1.19562 5.99596 0
M  V30 4813 H 445.706 -0.832453 6.91407 0
M  V30 4814 H 443.333 -0.583436 7.57958 0
M  V30 4815 N 444.908 -1.36708 -0.784132 0
M  V30 4816 C 445.84 -1.27333 -1.90575 0
M  V30 4817 C 446.853 -0.191706 -1.61667 0
M  V30 4818 O 448.042 -0.446854 -1.72816 0
M  V30 4819 C 445.142 -0.943177 -3.25511 0
M  V30 4820 C 444.315 -2.12776 -3.82158 0
M  V30 4821 C 443.374 -1.76983 -4.95544 0
M  V30 4822 O 442.4 -2.49134 -5.11782 0
M  V30 4823 N 443.602 -0.706624 -5.76183 0
M  V30 4824 H 446.367 -2.23974 -1.99138 0
M  V30 4825 H 443.928 -1.30171 -0.962656 0
M  V30 4826 H 445.92 -0.684799 -3.98864 0
M  V30 4827 H 444.49 -0.0657333 -3.12531 0
M  V30 4828 H 443.71 -2.54863 -3.0073 0
M  V30 4829 H 444.998 -2.91904 -4.16737 0
M  V30 4830 H 444.396 -0.107643 -5.65598 0
M  V30 4831 H 442.953 -0.50808 -6.49817 0
M  V30 4832 N 446.386 1.0089 -1.21074 0
M  V30 4833 C 447.634 1.74262 -1.02358 0
M  V30 4834 C 447.955 1.89869 0.444393 0
M  V30 4835 O 447.225 1.44677 1.32081 0
M  V30 4836 H 445.805 0.645615 -0.375754 0
M  V30 4837 H 448.467 1.21596 -1.52317 0
M  V30 4838 H 447.563 2.74328 -1.4883 0
M  V30 4839 N 447.864 1.01787 1.20321 0
M  V30 4840 C 448.794 0.609625 2.25401 0
M  V30 4841 C 449.775 -0.375951 1.65893 0
M  V30 4842 O 450.96 -0.261101 1.92437 0
M  V30 4843 C 448.09 -0.0515995 3.47262 0
M  V30 4844 C 447.044 0.855095 4.19371 0
M  V30 4845 C 446.37 0.0595757 5.34667 0
M  V30 4846 C 447.67 2.16374 4.75373 0
M  V30 4847 H 449.364 1.48803 2.59804 0
M  V30 4848 H 446.91 0.716934 1.24884 0
M  V30 4849 H 448.863 -0.348764 4.19954 0
M  V30 4850 H 447.587 -0.964726 3.12027 0
M  V30 4851 H 446.246 1.13628 3.48546 0
M  V30 4852 H 445.894 -0.85524 4.95676 0
M  V30 4853 H 445.594 0.663406 5.83843 0
M  V30 4854 H 447.118 -0.231105 6.10162 0
M  V30 4855 H 448.532 1.92885 5.39878 0
M  V30 4856 H 446.929 2.71853 5.34991 0
M  V30 4857 H 447.999 2.82589 3.94045 0
M  V30 4858 N 449.342 -1.36122 0.79427 0
M  V30 4859 C 450.619 -1.93398 0.292685 0
M  V30 4860 C 450.999 -1.72567 -1.21589 0
M  V30 4861 O 450.347 -1.08745 -2.00965 0
M  V30 4862 C 450.557 -3.42099 0.690614 0
M  V30 4863 C 451.905 -4.19231 0.673105 0
M  V30 4864 O 452.929 -3.50559 0.631389 0
M  V30 4865 O 451.788 -5.41732 0.720362 0
M  V30 4866 H 448.882 -0.823712 0.0736693 0
M  V30 4867 H 451.428 -1.45273 0.87714 0
M  V30 4868 H 450.2 -3.50938 1.73085 0
M  V30 4869 H 449.823 -3.97519 0.0803036 0
M  V30 4870 N 450.82 -0.546701 -1.47814 0
M  V30 4871 C 452.066 -0.0269594 -2.03382 0
M  V30 4872 C 452.421 1.30406 -1.41464 0
M  V30 4873 O 451.714 1.8332 -0.557151 0
M  V30 4874 C 451.908 0.134869 -3.57145 0
M  V30 4875 C 451.737 -1.17891 -4.33972 0
M  V30 4876 C 450.507 -1.74336 -4.74273 0
M  V30 4877 C 452.705 -2.09361 -4.69758 0
M  V30 4878 N 450.687 -2.99829 -5.35701 0
M  V30 4879 C 452.058 -3.19431 -5.31379 0
M  V30 4880 C 454.113 -2.09484 -4.51687 0
M  V30 4881 C 452.816 -4.2971 -5.76838 0
M  V30 4882 C 454.842 -3.18767 -4.98138 0
M  V30 4883 C 454.204 -4.27557 -5.59799 0
M  V30 4884 H 450.303 -0.0517733 -0.780284 0
M  V30 4885 H 452.887 -0.731673 -1.80429 0
M  V30 4886 H 451.058 0.80869 -3.79888 0
M  V30 4887 H 452.79 0.655726 -3.99352 0
M  V30 4888 H 449.545 -1.28265 -4.559 0
M  V30 4889 H 449.969 -3.63765 -5.70968 0
M  V30 4890 H 454.611 -1.26663 -4.03381 0
M  V30 4891 H 452.329 -5.13297 -6.24141 0
M  V30 4892 H 455.915 -3.19937 -4.85934 0
M  V30 4893 H 454.795 -5.10725 -5.95088 0
M  V30 4894 N 452.299 1.55045 -0.282633 0
M  V30 4895 C 453.545 2.00056 0.332481 0
M  V30 4896 C 453.878 1.1708 1.54939 0
M  V30 4897 O 453.153 0.2427 1.9298 0
M  V30 4898 C 453.436 3.53086 0.70725 0
M  V30 4899 C 453.289 4.46813 -0.517521 0
M  V30 4900 C 454.608 4.12245 1.54084 0
M  V30 4901 H 451.727 0.727268 0.119373 0
M  V30 4902 H 454.369 1.85932 -0.391076 0
M  V30 4903 H 452.519 3.65253 1.32372 0
M  V30 4904 H 454.191 4.46579 -1.15607 0
M  V30 4905 H 452.434 4.18163 -1.1542 0
M  V30 4906 H 453.105 5.51595 -0.211426 0
M  V30 4907 H 455.581 4.03401 1.02013 0
M  V30 4908 H 454.457 5.19515 1.77186 0
M  V30 4909 H 454.718 3.62951 2.52427 0
M  V30 4910 N 453.777 0.010035 1.57597 0
M  V30 4911 C 454.74 -0.963029 2.07986 0
M  V30 4912 C 455.74 -1.26619 0.991173 0
M  V30 4913 O 456.93 -1.2097 1.25347 0
M  V30 4914 C 454.062 -2.2851 2.52974 0
M  V30 4915 H 455.255 -0.526971 2.95234 0
M  V30 4916 H 452.808 -0.237639 1.54483 0
M  V30 4917 H 453.543 -2.76784 1.69 0
M  V30 4918 H 453.328 -2.07824 3.32493 0
M  V30 4919 H 454.818 -2.98294 2.9225 0
M  V30 4920 N 455.255 -1.55392 -0.262866 0
M  V30 4921 C 456.185 -1.91978 -1.32917 0
M  V30 4922 C 457.166 -0.7828 -1.51017 0
M  V30 4923 O 458.351 -1.04178 -1.63892 0
M  V30 4924 C 455.481 -2.20055 -2.68687 0
M  V30 4925 C 454.435 -3.35854 -2.65304 0
M  V30 4926 C 453.761 -3.49435 -4.04721 0
M  V30 4927 C 455.061 -4.71977 -2.23685 0
M  V30 4928 H 456.755 -2.81292 -1.02544 0
M  V30 4929 H 454.301 -1.3534 -0.491846 0
M  V30 4930 H 456.254 -2.44237 -3.43404 0
M  V30 4931 H 454.978 -1.27551 -3.00663 0
M  V30 4932 H 453.637 -3.11655 -1.93045 0
M  V30 4933 H 453.285 -2.54379 -4.33936 0
M  V30 4934 H 452.985 -4.27297 -4.0335 0
M  V30 4935 H 454.509 -3.7592 -4.81161 0
M  V30 4936 H 455.923 -4.95637 -2.88127 0
M  V30 4937 H 454.32 -5.52828 -2.33456 0
M  V30 4938 H 455.39 -4.70115 -1.18827 0
M  V30 4939 N 456.733 0.527833 -1.48498 0
M  V30 4940 C 457.696 1.61439 -1.62696 0
M  V30 4941 C 458.696 1.52824 -0.500136 0
M  V30 4942 O 459.886 1.56456 -0.765976 0
M  V30 4943 C 457.018 3.01063 -1.59918 0
M  V30 4944 H 458.211 1.50189 -2.59583 0
M  V30 4945 H 455.764 0.750055 -1.37127 0
M  V30 4946 H 456.499 3.17818 -0.645163 0
M  V30 4947 H 456.284 3.08725 -2.41726 0
M  V30 4948 H 457.774 3.80057 -1.73051 0
M  V30 4949 N 458.211 1.37122 0.776871 0
M  V30 4950 C 459.174 1.32301 1.8716 0
M  V30 4951 C 460.174 0.228099 1.59174 0
M  V30 4952 O 461.364 0.483642 1.67352 0
M  V30 4953 C 458.496 1.054 3.24197 0
M  V30 4954 H 459.689 2.29673 1.92848 0
M  V30 4955 H 457.242 1.22077 0.97606 0
M  V30 4956 H 457.977 0.0853872 3.24188 0
M  V30 4957 H 457.762 1.84648 3.45901 0
M  V30 4958 H 459.252 1.04664 4.04271 0
M  V30 4959 N 459.689 -1.00246 1.21608 0
M  V30 4960 C 461.105 -1.26435 0.973975 0
M  V30 4961 C 461.305 -1.98642 -0.338143 0
M  V30 4962 O 460.361 -2.29026 -1.06317 0
M  V30 4963 C 461.674 -2.08551 2.16626 0
M  V30 4964 C 463.222 -2.21769 2.20879 0
M  V30 4965 C 463.697 -3.07267 3.39633 0
M  V30 4966 N 465.188 -3.14855 3.39736 0
M  V30 4967 C 465.923 -3.81274 4.28273 0
M  V30 4968 N 465.419 -4.497 5.27012 0
M  V30 4969 N 467.212 -3.7794 4.16074 0
M  V30 4970 H 459.363 -0.518089 2.05984 0
M  V30 4971 H 461.626 -0.291368 0.902113 0
M  V30 4972 H 461.332 -1.62847 3.11727 0
M  V30 4973 H 461.206 -3.09303 2.15897 0
M  V30 4974 H 463.593 -2.66691 1.26332 0
M  V30 4975 H 463.674 -1.20478 2.25652 0
M  V30 4976 H 463.318 -2.63047 4.34475 0
M  V30 4977 H 463.248 -4.08678 3.321 0
M  V30 4978 H 465.739 -2.66147 2.6828 0
M  V30 4979 H 466.052 -4.98092 5.90867 0
M  V30 4980 H 464.397 -4.48479 5.30935 0
M  V30 4981 H 467.588 -3.23638 3.38195 0
M  V30 4982 H 467.761 -4.29424 4.85282 0
M  V30 4983 N 461.167 -1.02423 -1.1978 0
M  V30 4984 C 462.114 -0.601023 -2.22837 0
M  V30 4985 C 463.084 0.382801 -1.61629 0
M  V30 4986 O 464.269 0.280514 -1.88727 0
M  V30 4987 C 461.409 0.0467755 -3.45068 0
M  V30 4988 C 460.522 -0.98253 -4.20678 0
M  V30 4989 C 459.657 -0.304982 -5.30324 0
M  V30 4990 C 458.696 -1.32052 -5.97686 0
M  V30 4991 N 457.833 -0.669105 -6.98904 0
M  V30 4992 H 462.673 -1.48444 -2.58396 0
M  V30 4993 H 460.21 -0.742936 -1.2696 0
M  V30 4994 H 462.168 0.439556 -4.14878 0
M  V30 4995 H 460.798 0.893796 -3.10179 0
M  V30 4996 H 459.85 -1.49341 -3.49859 0
M  V30 4997 H 461.162 -1.75455 -4.66923 0
M  V30 4998 H 460.316 0.142893 -6.06532 0
M  V30 4999 H 459.055 0.499283 -4.85138 0
M  V30 5000 H 458.06 -1.7787 -5.20233 0
M  V30 5001 H 459.285 -2.1262 -6.44957 0
M  V30 5002 H 457.231 0.115152 -6.55899 0
M  V30 5003 H 457.148 -1.37908 -7.43315 0
M  V30 5004 H 458.416 -0.245076 -7.79115 0
M  V30 5005 N 462.645 1.35699 -0.801477 0
M  V30 5006 C 463.894 1.98165 -0.375979 0
M  V30 5007 C 464.207 1.64306 1.06127 0
M  V30 5008 O 465.413 2.20097 1.58964 0
M  V30 5009 C 463.869 3.54497 -0.621305 0
M  V30 5010 C 463.477 3.9727 -2.07076 0
M  V30 5011 C 465.221 4.23697 -0.26091 0
M  V30 5012 C 463.128 5.46427 -2.26211 0
M  V30 5013 H 462.058 0.741478 -0.136844 0
M  V30 5014 H 464.709 1.54834 -0.984814 0
M  V30 5015 H 463.091 3.95958 0.0574112 0
M  V30 5016 H 464.265 3.66974 -2.78687 0
M  V30 5017 H 462.58 3.40943 -2.39054 0
M  V30 5018 H 465.177 5.33334 -0.381994 0
M  V30 5019 H 465.52 4.0869 0.792344 0
M  V30 5020 H 466.053 3.87639 -0.893339 0
M  V30 5021 H 462.792 5.66396 -3.29963 0
M  V30 5022 H 462.312 5.78309 -1.59119 0
M  V30 5023 H 463.991 6.12819 -2.07513 0
M  V30 5024 N 464.123 0.554532 1.47522 0
M  V30 5025 C 465.534 0.120446 1.86311 0
M  V30 5026 C 465.885 -1.30904 1.46145 0
M  V30 5027 O 465.01 -1.98434 0.863294 0
M  V30 5028 C 465.605 0.211808 3.38137 0
M  V30 5029 C 464.164 -0.167224 3.76028 0
M  V30 5030 C 463.311 0.560576 2.71575 0
M  V30 5031 H 466.262 0.764408 1.39077 0
M  V30 5032 H 466.283 -0.570275 3.76202 0
M  V30 5033 H 465.795 1.25232 3.6734 0
M  V30 5034 H 463.896 -1.20894 3.52442 0
M  V30 5035 H 464.009 0.189473 4.78725 0
M  V30 5036 H 462.373 0.00396836 2.547 0
M  V30 5037 H 463.156 1.60219 3.0362 0
M  V30 5038 N 465.601 -1.54893 0.290851 0
M  V30 5039 C 466.564 -2.21824 -0.576784 0
M  V30 5040 C 467.564 -1.20104 -1.06919 0
M  V30 5041 O 468.754 -1.44906 -0.966843 0
M  V30 5042 C 465.886 -2.89662 -1.79747 0
M  V30 5043 H 467.079 -2.99899 0.00784051 0
M  V30 5044 H 464.632 -1.56245 0.0415934 0
M  V30 5045 H 465.367 -2.15639 -2.42219 0
M  V30 5046 H 465.152 -3.64219 -1.45214 0
M  V30 5047 H 466.642 -3.4075 -2.4141 0
M  V30 5048 N 467.08 -0.0183926 -1.57589 0
M  V30 5049 C 468.491 0.521927 -1.79256 0
M  V30 5050 C 468.842 1.72885 -0.927636 0
M  V30 5051 O 467.967 2.15978 -0.135091 0
M  V30 5052 C 468.562 0.953632 -3.25102 0
M  V30 5053 C 467.121 1.43913 -3.47801 0
M  V30 5054 C 466.268 0.398837 -2.74417 0
M  V30 5055 H 469.219 -0.244485 -1.56805 0
M  V30 5056 H 469.24 1.81863 -3.34224 0
M  V30 5057 H 468.752 0.0750123 -3.88028 0
M  V30 5058 H 466.853 2.33804 -2.90115 0
M  V30 5059 H 466.966 1.45391 -4.56507 0
M  V30 5060 H 465.33 0.864572 -2.39577 0
M  V30 5061 H 466.113 -0.471132 -3.40052 0
M  V30 5062 N 468.558 1.5553 0.254621 0
M  V30 5063 C 469.805 1.77 0.983736 0
M  V30 5064 C 470.133 0.58133 1.85609 0
M  V30 5065 O 469.388 -0.435621 1.9079 0
M  V30 5066 C 469.687 3.03891 1.88109 0
M  V30 5067 C 469.353 4.35597 1.16472 0
M  V30 5068 C 468.015 4.7139 0.966714 0
M  V30 5069 C 470.367 5.1705 0.656387 0
M  V30 5070 C 467.695 5.86176 0.247942 0
M  V30 5071 C 470.047 6.32581 -0.0488807 0
M  V30 5072 C 468.711 6.67 -0.258438 0
M  V30 5073 H 467.981 0.647688 0.359974 0
M  V30 5074 H 470.628 1.89802 0.254463 0
M  V30 5075 H 468.933 2.86068 2.67717 0
M  V30 5076 H 470.63 3.17701 2.44677 0
M  V30 5077 H 467.22 4.07475 1.32899 0
M  V30 5078 H 471.404 4.8986 0.796933 0
M  V30 5079 H 466.66 6.11354 0.075035 0
M  V30 5080 H 470.834 6.94942 -0.450444 0
M  V30 5081 H 468.461 7.55793 -0.817358 0
M  V30 5082 N 470.036 -0.519951 1.48776 0
M  V30 5083 C 471.452 -0.849418 1.35119 0
M  V30 5084 C 471.652 -1.98077 0.36982 0
M  V30 5085 O 470.708 -2.51664 -0.205359 0
M  V30 5086 C 472.021 -1.20748 2.75391 0
M  V30 5087 C 473.569 -1.31679 2.83954 0
M  V30 5088 C 474.044 -1.70824 4.24951 0
M  V30 5089 N 475.535 -1.77908 4.27672 0
M  V30 5090 C 476.27 -2.09603 5.33717 0
M  V30 5091 N 475.766 -2.39652 6.5003 0
M  V30 5092 N 477.559 -2.10694 5.21119 0
M  V30 5093 H 469.71 0.226377 2.1119 0
M  V30 5094 H 471.973 0.0386519 0.947212 0
M  V30 5095 H 471.679 -0.449703 3.48813 0
M  V30 5096 H 471.553 -2.15534 3.09556 0
M  V30 5097 H 473.94 -2.06532 2.10781 0
M  V30 5098 H 474.021 -0.3499 2.53396 0
M  V30 5099 H 473.665 -0.965282 4.98643 0
M  V30 5100 H 473.595 -2.6858 4.52959 0
M  V30 5101 H 476.086 -1.56923 3.43779 0
M  V30 5102 H 476.399 -2.6297 7.26682 0
M  V30 5103 H 474.744 -2.37149 6.53288 0
M  V30 5104 H 477.935 -1.86682 4.29264 0
M  V30 5105 H 478.108 -2.35062 6.03863 0
M  V30 5106 N 471.514 -1.37532 -0.769588 0
M  V30 5107 C 472.925 -1.29382 -1.346 0
M  V30 5108 C 473.276 0.0576039 -1.96115 0
M  V30 5109 O 472.401 0.95947 -1.93967 0
M  V30 5110 C 472.996 -2.34298 -2.44724 0
M  V30 5111 C 471.555 -2.29776 -2.98128 0
M  V30 5112 C 470.702 -2.18013 -1.71364 0
M  V30 5113 H 473.653 -1.48123 -0.56968 0
M  V30 5114 H 473.674 -1.99089 -3.24259 0
M  V30 5115 H 473.186 -3.32645 -1.99922 0
M  V30 5116 H 471.287 -1.34959 -3.47299 0
M  V30 5117 H 471.4 -3.23276 -3.53595 0
M  V30 5118 H 469.764 -1.64595 -1.94372 0
M  V30 5119 H 470.547 -3.18278 -1.28662 0
M  V30 5120 N 472.992 0.995999 -1.22138 0
M  V30 5121 C 473.924 2.08745 -0.946485 0
M  V30 5122 C 474.937 1.62633 0.0737356 0
M  V30 5123 O 476.126 1.77782 -0.159886 0
M  V30 5124 C 473.226 3.36516 -0.401305 0
M  V30 5125 C 472.399 4.11672 -1.47801 0
M  V30 5126 C 471.458 5.17728 -0.940461 0
M  V30 5127 O 470.484 5.45482 -1.62596 0
M  V30 5128 N 471.686 5.80005 0.239723 0
M  V30 5129 H 474.451 2.32908 -1.88611 0
M  V30 5130 H 472.012 1.16152 -1.12785 0
M  V30 5131 H 474.004 4.04691 -0.0270837 0
M  V30 5132 H 472.574 3.0944 0.443354 0
M  V30 5133 H 471.794 3.38171 -2.02568 0
M  V30 5134 H 473.082 4.58657 -2.20253 0
M  V30 5135 H 472.48 5.5982 0.813518 0
M  V30 5136 H 471.037 6.4943 0.555361 0
M  V30 5137 N 474.47 1.03057 1.19235 0
M  V30 5138 C 475.719 0.72326 1.88287 0
M  V30 5139 C 476.032 -0.751333 1.80594 0
M  V30 5140 O 477.238 -1.17176 2.44912 0
M  V30 5141 C 475.694 1.24338 3.3774 0
M  V30 5142 C 475.302 2.74587 3.53986 0
M  V30 5143 C 477.046 1.01213 4.12257 0
M  V30 5144 C 474.953 3.20009 4.97341 0
M  V30 5145 H 473.883 0.266848 0.705201 0
M  V30 5146 H 476.534 1.24509 1.34795 0
M  V30 5147 H 474.916 0.649457 3.90638 0
M  V30 5148 H 476.09 3.39649 3.11408 0
M  V30 5149 H 474.405 2.9601 2.9286 0
M  V30 5150 H 477.002 1.32675 5.17978 0
M  V30 5151 H 477.345 -0.051001 4.16269 0
M  V30 5152 H 477.878 1.57014 3.65501 0
M  V30 5153 H 474.617 4.25659 4.98493 0
M  V30 5154 H 474.137 2.59676 5.40674 0
M  V30 5155 H 475.816 3.13447 5.66003 0
M  V30 5156 N 475.948 -1.35272 0.808662 0
M  V30 5157 C 477.364 -1.51806 0.492653 0
M  V30 5158 C 477.564 -1.7574 -0.985778 0
M  V30 5159 O 476.62 -1.80003 -1.77074 0
M  V30 5160 C 477.933 -2.69202 1.33981 0
M  V30 5161 C 479.481 -2.8308 1.33547 0
M  V30 5162 C 479.956 -4.03502 2.16679 0
M  V30 5163 N 481.447 -4.10684 2.14227 0
M  V30 5164 C 482.182 -5.02984 2.75308 0
M  V30 5165 N 481.678 -6.00603 3.45323 0
M  V30 5166 N 483.471 -4.95746 2.64938 0
M  V30 5167 H 475.622 -1.17993 1.76611 0
M  V30 5168 H 477.885 -0.577476 0.751814 0
M  V30 5169 H 477.591 -2.581 2.38909 0
M  V30 5170 H 477.465 -3.63854 0.994491 0
M  V30 5171 H 479.852 -2.93631 0.294036 0
M  V30 5172 H 479.933 -1.89278 1.72068 0
M  V30 5173 H 479.577 -3.93711 3.20864 0
M  V30 5174 H 479.507 -4.96489 1.75517 0
M  V30 5175 H 481.998 -3.40802 1.63285 0
M  V30 5176 H 482.311 -6.67633 3.89212 0
M  V30 5177 H 480.656 -6.0077 3.49428 0
M  V30 5178 H 483.847 -4.18439 2.09825 0
M  V30 5179 H 484.02 -5.67487 3.12829 0
M  V30 5180 N 477.426 -0.562348 -1.47226 0
M  V30 5181 C 478.651 -0.0432632 -2.07355 0
M  V30 5182 C 479.076 1.24332 -1.41149 0
M  V30 5183 O 478.434 1.74603 -0.488226 0
M  V30 5184 C 478.482 0.130288 -3.60365 0
M  V30 5185 O 477.586 1.19166 -3.94808 0
M  V30 5186 H 476.927 -0.0536334 -0.66183 0
M  V30 5187 H 479.457 -0.779495 -1.89169 0
M  V30 5188 H 479.467 0.342881 -4.06557 0
M  V30 5189 H 478.142 -0.809389 -4.07948 0
M  V30 5190 H 476.719 0.959153 -3.60354 0
M  V30 5191 N 478.904 1.54736 -0.299062 0
M  V30 5192 C 479.814 2.27127 0.587413 0
M  V30 5193 C 480.83 1.30575 1.15005 0
M  V30 5194 O 482.006 1.63554 1.17525 0
M  V30 5195 C 479.071 2.99645 1.74395 0
M  V30 5196 C 478.132 4.11731 1.21559 0
M  V30 5197 C 477.365 4.80781 2.317 0
M  V30 5198 O 477.588 4.4918 3.51558 0
M  V30 5199 O 476.522 5.68226 1.98501 0
M  V30 5200 H 480.348 3.037 0.000250109 0
M  V30 5201 H 477.933 1.49256 -0.0655919 0
M  V30 5202 H 479.815 3.45138 2.4178 0
M  V30 5203 H 478.49 2.25969 2.31775 0
M  V30 5204 H 477.397 3.70641 0.507514 0
M  V30 5205 H 478.73 4.87379 0.687233 0
M  V30 5206 N 480.382 0.0267497 1.57577 0
M  V30 5207 C 481.312 -0.954308 2.13108 0
M  V30 5208 C 482.293 -1.34088 1.04663 0
M  V30 5209 O 483.478 -1.41992 1.32484 0
M  V30 5210 C 480.608 -2.23744 2.65624 0
M  V30 5211 C 479.562 -1.99168 3.78835 0
M  V30 5212 C 478.888 -3.33726 4.17769 0
M  V30 5213 C 480.188 -1.33277 5.0501 0
M  V30 5214 H 481.882 -0.491848 2.95332 0
M  V30 5215 H 479.428 -0.23514 1.42067 0
M  V30 5216 H 481.381 -2.92754 3.03106 0
M  V30 5217 H 480.105 -2.72151 1.80558 0
M  V30 5218 H 478.764 -1.32577 3.41788 0
M  V30 5219 H 478.412 -3.79888 3.29688 0
M  V30 5220 H 478.112 -3.18089 4.94058 0
M  V30 5221 H 479.636 -4.04008 4.57832 0
M  V30 5222 H 481.05 -1.92283 5.40093 0
M  V30 5223 H 479.447 -1.28045 5.8628 0
M  V30 5224 H 480.517 -0.305411 4.83937 0
M  V30 5225 N 481.861 -1.55662 -0.24637 0
M  V30 5226 C 483.138 -1.68272 -0.997198 0
M  V30 5227 C 483.518 -0.566785 -2.03349 0
M  V30 5228 O 482.866 0.429688 -2.24424 0
M  V30 5229 C 483.076 -3.08594 -1.63006 0
M  V30 5230 C 484.424 -3.6721 -2.13171 0
M  V30 5231 O 485.448 -3.11397 -1.72946 0
M  V30 5232 O 484.307 -4.65054 -2.87031 0
M  V30 5233 H 481.401 -0.684429 -0.464205 0
M  V30 5234 H 483.947 -1.67993 -0.240114 0
M  V30 5235 H 482.719 -3.81264 -0.880527 0
M  V30 5236 H 482.342 -3.12886 -2.45333 0
M  V30 5237 N 483.339 0.512053 -1.4905 0
M  V30 5238 C 484.585 1.26874 -1.58212 0
M  V30 5239 C 484.918 1.9241 -0.263073 0
M  V30 5240 O 484.193 1.80181 0.732476 0
M  V30 5241 C 484.476 2.34428 -2.73341 0
M  V30 5242 C 484.329 1.73466 -4.15006 0
M  V30 5243 C 485.648 3.36073 -2.84154 0
M  V30 5244 H 482.767 0.459924 -0.575881 0
M  V30 5245 H 485.409 0.568587 -1.81293 0
M  V30 5246 H 483.559 2.94146 -2.53792 0
M  V30 5247 H 485.231 1.17661 -4.46042 0
M  V30 5248 H 483.474 1.03921 -4.21168 0
M  V30 5249 H 484.145 2.51426 -4.91415 0
M  V30 5250 H 486.621 2.86332 -3.01916 0
M  V30 5251 H 485.497 4.08703 -3.66406 0
M  V30 5252 H 485.758 3.97725 -1.93048 0
M  V30 5253 N 484.817 1.37938 0.762283 0
M  V30 5254 C 486.065 1.33404 1.51815 0
M  V30 5255 C 486.386 -0.0780975 1.94844 0
M  V30 5256 O 485.656 -1.02405 1.67003 0
M  V30 5257 H 484.236 0.490839 0.563104 0
M  V30 5258 H 486.898 1.72527 0.906669 0
M  V30 5259 H 485.994 1.97926 2.41313 0
M  V30 5260 N 486.295 -0.989507 1.22664 0
M  V30 5261 C 487.243 -2.10148 0.997035 0
M  V30 5262 C 488.237 -1.6929 -0.0609783 0
M  V30 5263 O 489.443 -1.79766 0.0917523 0
M  V30 5264 H 485.818 -0.687256 0.305259 0
M  V30 5265 H 487.789 -2.26685 1.94053 0
M  V30 5266 C 486.538 -3.4257 0.595085 0
M  V30 5267 H 485.861 -3.74453 1.40089 0
M  V30 5268 H 487.301 -4.21344 0.473869 0
M  V30 5269 C 485.76 -3.29638 -0.695725 0
M  V30 5270 O 486.29 -3.61709 -1.74727 0
M  V30 5271 N 484.496 -2.82814 -0.668173 0
M  V30 5272 H 484.043 -2.56914 0.18787 0
M  V30 5273 H 484.001 -2.74544 -1.5321 0
M  V30 5274 N 487.773 -1.03688 -1.18687 0
M  V30 5275 C 489.02 -0.73803 -1.88572 0
M  V30 5276 C 489.348 0.733973 -1.8012 0
M  V30 5277 O 488.603 1.55098 -1.19344 0
M  V30 5278 C 488.902 -1.14477 -3.3857 0
M  V30 5279 C 488.568 -2.61641 -3.67226 0
M  V30 5280 C 487.23 -3.01846 -3.74757 0
M  V30 5281 C 489.582 -3.56812 -3.79914 0
M  V30 5282 C 486.91 -4.36118 -3.92451 0
M  V30 5283 C 489.262 -4.90799 -3.99123 0
M  V30 5284 C 487.926 -5.3068 -4.04888 0
M  V30 5285 H 487.196 -0.270064 -0.690034 0
M  V30 5286 H 489.843 -1.3012 -1.40503 0
M  V30 5287 H 488.148 -0.500337 -3.88592 0
M  V30 5288 H 489.845 -0.89095 -3.90977 0
M  V30 5289 H 486.435 -2.29498 -3.61979 0
M  V30 5290 H 490.619 -3.26899 -3.73431 0
M  V30 5291 H 485.875 -4.66542 -3.95157 0
M  V30 5292 H 490.049 -5.64451 -4.07882 0
M  V30 5293 H 487.676 -6.34733 -4.18351 0
M  V30 5294 N 489.251 1.34841 -0.815825 0
M  V30 5295 C 490.214 2.27959 -0.238185 0
M  V30 5296 C 491.214 1.49983 0.579816 0
M  V30 5297 O 492.404 1.69617 0.396953 0
M  V30 5298 C 489.536 3.34314 0.666876 0
M  V30 5299 H 490.729 2.80558 -1.05958 0
M  V30 5300 H 488.282 1.44852 -0.587156 0
M  V30 5301 H 489.017 2.86916 1.5116 0
M  V30 5302 H 488.802 3.92014 0.0819106 0
M  V30 5303 H 490.292 4.0379 1.06506 0
M  V30 5304 N 490.729 0.570148 1.46925 0
M  V30 5305 C 491.639 -0.173061 2.33961 0
M  V30 5306 C 492.655 -0.898825 1.48987 0
M  V30 5307 O 493.831 -0.864825 1.81887 0
M  V30 5308 C 490.896 -1.18177 3.25937 0
M  V30 5309 C 489.957 -0.462041 4.26806 0
M  V30 5310 C 489.19 -1.4227 5.14388 0
M  V30 5311 O 489.413 -2.65842 5.04662 0
M  V30 5312 O 488.347 -0.940127 5.94513 0
M  V30 5313 H 492.173 0.541216 2.98839 0
M  V30 5314 H 489.758 0.330647 1.45695 0
M  V30 5315 H 491.64 -1.76372 3.82715 0
M  V30 5316 H 490.315 -1.87774 2.63671 0
M  V30 5317 H 489.222 0.161429 3.73752 0
M  V30 5318 H 490.555 0.192719 4.91823 0
M  V30 5319 N 492.207 -1.54576 0.307264 0
M  V30 5320 C 493.117 -2.27435 -0.57536 0
M  V30 5321 C 494.133 -1.31183 -1.14311 0
M  V30 5322 O 495.309 -1.64175 -1.16656 0
M  V30 5323 C 492.374 -3.00566 -1.72803 0
M  V30 5324 C 491.435 -4.12369 -1.19373 0
M  V30 5325 C 490.668 -4.82003 -2.29147 0
M  V30 5326 O 490.891 -4.51038 -3.49171 0
M  V30 5327 O 489.825 -5.69271 -1.95485 0
M  V30 5328 H 493.651 -3.03696 0.0158558 0
M  V30 5329 H 491.236 -1.49219 0.0735064 0
M  V30 5330 H 493.118 -3.46416 -2.39946 0
M  V30 5331 H 491.793 -2.27195 -2.30574 0
M  V30 5332 H 490.7 -3.70905 -0.487851 0
M  V30 5333 H 492.033 -4.87736 -0.661376 0
M  V30 5334 N 493.685 -0.035106 -1.57561 0
M  V30 5335 C 494.932 0.642229 -1.92046 0
M  V30 5336 C 495.26 1.7179 -0.91206 0
M  V30 5337 O 494.515 1.95544 0.0781153 0
M  V30 5338 C 494.814 1.29149 -3.3325 0
M  V30 5339 C 494.48 0.345604 -4.49574 0
M  V30 5340 C 493.142 0.0852775 -4.81124 0
M  V30 5341 C 495.494 -0.303569 -5.20315 0
M  V30 5342 C 492.822 -0.831927 -5.80772 0
M  V30 5343 C 495.174 -1.20886 -6.20942 0
M  V30 5344 C 493.838 -1.47802 -6.50931 0
M  V30 5345 H 493.108 0.235008 -0.702746 0
M  V30 5346 H 495.755 -0.0981529 -1.91248 0
M  V30 5347 H 494.06 2.10676 -3.30337 0
M  V30 5348 H 495.757 1.82223 -3.57205 0
M  V30 5349 H 492.347 0.558683 -4.24943 0
M  V30 5350 H 496.531 -0.115515 -4.96166 0
M  V30 5351 H 491.787 -1.0481 -6.02349 0
M  V30 5352 H 495.961 -1.71804 -6.74875 0
M  V30 5353 H 493.588 -2.19039 -7.2796 0
M  V30 5354 N 495.163 1.55791 0.238111 0
M  V30 5355 C 496.391 1.82098 0.982233 0
M  V30 5356 C 496.806 0.612025 1.78605 0
M  V30 5357 O 496.163 -0.419381 1.77616 0
M  V30 5358 C 496.214 3.0673 1.91309 0
M  V30 5359 O 495.935 4.2296 1.14179 0
M  V30 5360 C 497.436 3.45903 2.77248 0
M  V30 5361 H 494.656 0.605748 0.288635 0
M  V30 5362 H 497.2 2.02862 0.258341 0
M  V30 5363 H 495.355 2.87991 2.59114 0
M  V30 5364 H 495.769 4.93653 1.7722 0
M  V30 5365 H 497.243 4.36189 3.38295 0
M  V30 5366 H 497.72 2.66891 3.48806 0
M  V30 5367 H 498.326 3.67024 2.14881 0
M  V30 5368 N 496.642 -0.504142 1.49319 0
M  V30 5369 C 498.058 -0.835039 1.36012 0
M  V30 5370 C 498.258 -1.97674 0.390808 0
M  V30 5371 O 497.314 -2.51867 -0.178655 0
M  V30 5372 C 498.627 -1.17821 2.76656 0
M  V30 5373 C 500.175 -1.2866 2.85334 0
M  V30 5374 C 500.65 -1.66307 4.26739 0
M  V30 5375 N 502.141 -1.73362 4.29534 0
M  V30 5376 C 502.876 -2.0393 5.35911 0
M  V30 5377 N 502.372 -2.32744 6.52535 0
M  V30 5378 N 504.165 -2.05155 5.23324 0
M  V30 5379 H 496.316 0.248764 2.10938 0
M  V30 5380 H 498.579 0.0486962 0.946748 0
M  V30 5381 H 498.285 -0.412682 3.4927 0
M  V30 5382 H 498.159 -2.12239 3.11825 0
M  V30 5383 H 500.546 -2.04285 2.1296 0
M  V30 5384 H 500.627 -0.323004 2.53752 0
M  V30 5385 H 500.271 -0.91234 4.99639 0
M  V30 5386 H 500.201 -2.63761 4.55782 0
M  V30 5387 H 502.692 -1.53268 3.45424 0
M  V30 5388 H 503.005 -2.55248 7.2943 0
M  V30 5389 H 501.35 -2.30207 6.55767 0
M  V30 5390 H 504.541 -1.82119 4.3122 0
M  V30 5391 H 504.714 -2.28644 6.06322 0
M  V30 5392 N 498.12 -1.38341 -0.754957 0
M  V30 5393 C 499.05 -1.38176 -1.88227 0
M  V30 5394 C 500.031 -0.247873 -1.68284 0
M  V30 5395 O 501.216 -0.45075 -1.88896 0
M  V30 5396 C 498.346 -1.20471 -3.25736 0
M  V30 5397 C 497.3 -2.3105 -3.60278 0
M  V30 5398 C 496.626 -1.98452 -4.96509 0
M  V30 5399 C 497.926 -3.73305 -3.65295 0
M  V30 5400 H 499.62 -2.32512 -1.88622 0
M  V30 5401 H 497.166 -1.1192 -0.906082 0
M  V30 5402 H 499.119 -1.18982 -4.04254 0
M  V30 5403 H 497.843 -0.225965 -3.25817 0
M  V30 5404 H 496.502 -2.31723 -2.84078 0
M  V30 5405 H 496.15 -0.990641 -4.93148 0
M  V30 5406 H 495.85 -2.7251 -5.20588 0
M  V30 5407 H 497.374 -1.98578 -5.77407 0
M  V30 5408 H 498.788 -3.7467 -4.3393 0
M  V30 5409 H 497.185 -4.46557 -4.00883 0
M  V30 5410 H 498.255 -4.05719 -2.65556 0
M  V30 5411 N 499.598 0.982988 -1.23187 0
M  V30 5412 C 500.508 2.10907 -1.02739 0
M  V30 5413 C 501.524 1.73979 0.0273188 0
M  V30 5414 O 502.7 2.00702 -0.16757 0
M  V30 5415 C 499.765 3.41142 -0.618304 0
M  V30 5416 C 498.826 3.92112 -1.74777 0
M  V30 5417 C 498.059 5.16131 -1.3581 0
M  V30 5418 O 498.282 5.6989 -0.241201 0
M  V30 5419 O 497.216 5.61103 -2.17824 0
M  V30 5420 H 501.042 2.31046 -1.97108 0
M  V30 5421 H 498.627 1.09284 -1.01869 0
M  V30 5422 H 500.509 4.19488 -0.400982 0
M  V30 5423 H 499.184 3.2234 0.296421 0
M  V30 5424 H 498.091 3.14895 -2.0197 0
M  V30 5425 H 499.424 4.15364 -2.64071 0
M  V30 5426 N 501.076 1.04316 1.18135 0
M  V30 5427 C 502.487 0.775505 1.69832 0
M  V30 5428 C 502.838 -0.703348 1.8316 0
M  V30 5429 O 501.963 -1.54729 1.51287 0
M  V30 5430 C 502.558 1.40112 3.0847 0
M  V30 5431 C 501.117 1.18172 3.57368 0
M  V30 5432 C 500.264 1.49022 2.33854 0
M  V30 5433 H 503.215 1.20925 1.02775 0
M  V30 5434 H 503.236 0.805672 3.71873 0
M  V30 5435 H 502.748 2.47744 2.98738 0
M  V30 5436 H 500.849 0.124258 3.72393 0
M  V30 5437 H 500.962 1.8805 4.40652 0
M  V30 5438 H 499.326 0.909995 2.37889 0
M  V30 5439 H 500.109 2.57768 2.26738 0
M  V30 5440 N 502.554 -1.34406 0.822964 0
M  V30 5441 C 503.8 -1.98578 0.411666 0
M  V30 5442 C 504.133 -1.65093 -1.02264 0
M  V30 5443 O 503.408 -0.92258 -1.71227 0
M  V30 5444 C 503.691 -3.54823 0.614235 0
M  V30 5445 C 503.544 -3.9805 2.09466 0
M  V30 5446 C 504.863 -4.40071 0.050221 0
M  V30 5447 H 501.982 -0.721355 0.151047 0
M  V30 5448 H 504.624 -1.59301 1.03554 0
M  V30 5449 H 502.774 -3.88411 0.0831774 0
M  V30 5450 H 504.446 -3.74795 2.68936 0
M  V30 5451 H 502.689 -3.4836 2.5851 0
M  V30 5452 H 503.36 -5.06819 2.18721 0
M  V30 5453 H 505.836 -4.13037 0.503953 0
M  V30 5454 H 504.712 -5.48452 0.221759 0
M  V30 5455 H 504.973 -4.29576 -1.04482 0
M  V30 5456 N 504.032 -0.577932 -1.46621 0
M  V30 5457 C 505.262 -0.0670668 -2.06491 0
M  V30 5458 C 505.67 1.24119 -1.42798 0
M  V30 5459 O 505.013 1.76016 -0.525759 0
M  V30 5460 C 505.075 0.177995 -3.59059 0
M  V30 5461 C 504.739 -1.04394 -4.44917 0
M  V30 5462 C 505.736 -1.95479 -4.81751 0
M  V30 5463 C 503.421 -1.26444 -4.86125 0
M  V30 5464 C 505.415 -3.06965 -5.58615 0
M  V30 5465 C 503.102 -2.38237 -5.62749 0
M  V30 5466 C 504.1 -3.28327 -5.98908 0
M  V30 5467 O 503.788 -4.38179 -6.73984 0
M  V30 5468 H 503.52 -0.0523159 -0.673973 0
M  V30 5469 H 506.074 -0.796966 -1.89308 0
M  V30 5470 H 504.304 0.962451 -3.74531 0
M  V30 5471 H 505.993 0.636782 -4.00874 0
M  V30 5472 H 506.759 -1.79657 -4.50498 0
M  V30 5473 H 502.638 -0.572316 -4.57434 0
M  V30 5474 H 506.182 -3.77309 -5.86757 0
M  V30 5475 H 502.079 -2.54023 -5.93416 0
M  V30 5476 H 502.847 -4.36486 -6.92403 0
M  V30 5477 N 505.51 1.54411 -0.315457 0
M  V30 5478 C 506.735 2.05299 0.294496 0
M  V30 5479 C 507.16 1.19052 1.4563 0
M  V30 5480 O 506.518 0.197804 1.80218 0
M  V30 5481 C 506.566 3.5345 0.714549 0
M  V30 5482 O 505.67 3.70175 1.81781 0
M  V30 5483 H 505.011 0.661743 0.0547019 0
M  V30 5484 H 507.541 1.99327 -0.461508 0
M  V30 5485 H 507.551 3.9557 0.999426 0
M  V30 5486 H 506.226 4.1568 -0.135244 0
M  V30 5487 H 504.803 3.3996 1.53236 0
M  V30 5488 N 506.988 0.0434614 1.5754 0
M  V30 5489 C 508.399 -0.493343 1.80064 0
M  V30 5490 C 508.75 -1.71388 0.955023 0
M  V30 5491 O 507.875 -2.15736 0.169434 0
M  V30 5492 C 508.47 -0.90179 3.26578 0
M  V30 5493 C 507.029 -1.38362 3.50047 0
M  V30 5494 C 506.176 -0.355129 2.75017 0
M  V30 5495 H 509.127 0.2694 1.56397 0
M  V30 5496 H 509.148 -1.76523 3.37075 0
M  V30 5497 H 508.66 -0.013271 3.88098 0
M  V30 5498 H 506.761 -2.29159 2.93798 0
M  V30 5499 H 506.874 -1.3811 4.58762 0
M  V30 5500 H 505.238 -0.826348 2.40922 0
M  V30 5501 H 506.021 0.525172 3.39259 0
M  V30 5502 N 508.466 -1.55915 -0.229846 0
M  V30 5503 C 509.877 -1.68809 -0.797531 0
M  V30 5504 C 510.228 -0.643995 -1.8533 0
M  V30 5505 O 509.353 0.206492 -2.15413 0
M  V30 5506 C 509.948 -3.06043 -1.45338 0
M  V30 5507 C 508.507 -3.20819 -1.96856 0
M  V30 5508 C 507.654 -2.6472 -0.825736 0
M  V30 5509 H 510.605 -1.58699 -0.00533733 0
M  V30 5510 H 510.626 -3.01438 -2.32196 0
M  V30 5511 H 510.138 -3.82012 -0.684743 0
M  V30 5512 H 508.239 -2.49704 -2.76548 0
M  V30 5513 H 508.352 -4.27937 -2.15423 0
M  V30 5514 H 506.716 -2.22985 -1.23084 0
M  V30 5515 H 507.499 -3.43229 -0.0699019 0
M  V30 5516 N 509.944 0.496216 -1.49584 0
M  V30 5517 C 511.192 1.24756 -1.58998 0
M  V30 5518 C 511.513 1.92968 -0.280775 0
M  V30 5519 O 510.783 1.82959 0.700198 0
M  V30 5520 H 509.363 0.463471 -0.585836 0
M  V30 5521 H 512.025 0.574678 -1.86235 0
M  V30 5522 H 511.121 2.00895 -2.38847 0
M  V30 5523 N 511.423 1.38739 0.74761 0
M  V30 5524 C 512.648 1.38702 1.54197 0
M  V30 5525 C 513.073 -0.019664 1.8809 0
M  V30 5526 O 512.431 -1.00333 1.51006 0
M  V30 5527 C 512.479 2.25492 2.814 0
M  V30 5528 O 511.583 1.67613 3.76802 0
M  V30 5529 H 510.924 0.472863 0.466151 0
M  V30 5530 H 513.454 1.82577 0.923413 0
M  V30 5531 H 513.464 2.39561 3.30264 0
M  V30 5532 H 512.139 3.27727 2.56062 0
M  V30 5533 H 510.716 1.62718 3.35526 0
M  V30 5534 N 512.901 -0.976442 1.23707 0
M  V30 5535 C 514.312 -1.53284 1.06587 0
M  V30 5536 C 514.663 -1.92765 -0.365526 0
M  V30 5537 O 513.788 -1.7645 -1.25277 0
M  V30 5538 C 514.383 -2.78548 1.92864 0
M  V30 5539 C 512.942 -3.30574 1.79994 0
M  V30 5540 C 512.089 -2.03538 1.88328 0
M  V30 5541 H 515.04 -0.795692 1.37311 0
M  V30 5542 H 515.061 -3.5155 1.45577 0
M  V30 5543 H 514.573 -2.49782 2.97037 0
M  V30 5544 H 512.674 -3.64211 0.786202 0
M  V30 5545 H 512.787 -4.00065 2.636 0
M  V30 5546 H 511.151 -2.17853 1.31954 0
M  V30 5547 H 511.934 -1.77149 2.94063 0
M  V30 5548 N 514.379 -1.04941 -1.1758 0
M  V30 5549 C 515.79 -0.784501 -1.69418 0
M  V30 5550 C 516.141 0.693625 -1.8353 0
M  V30 5551 O 515.266 1.53925 -1.52106 0
M  V30 5552 C 515.861 -1.41746 -3.07723 0
M  V30 5553 C 514.42 -1.20066 -3.56737 0
M  V30 5554 C 513.567 -1.5026 -2.33061 0
M  V30 5555 H 516.518 -1.21469 -1.02133 0
M  V30 5556 H 516.539 -0.825381 -3.7144 0
M  V30 5557 H 516.051 -2.49325 -2.9742 0
M  V30 5558 H 514.152 -0.144006 -3.72322 0
M  V30 5559 H 514.265 -1.90384 -4.39648 0
M  V30 5560 H 512.629 -0.922598 -2.37403 0
M  V30 5561 H 513.412 -2.58967 -2.25368 0
M  V30 5562 N 515.857 1.33968 -0.830081 0
M  V30 5563 C 517.268 1.80439 -0.479455 0
M  V30 5564 C 517.619 1.68756 1.00079 0
M  V30 5565 O 516.744 1.23171 1.77927 0
M  V30 5566 C 517.339 3.27611 -0.863505 0
M  V30 5567 C 515.898 3.72133 -0.565145 0
M  V30 5568 C 515.045 2.55549 -1.07657 0
M  V30 5569 H 517.996 1.21614 -1.0196 0
M  V30 5570 H 518.017 3.8012 -0.170083 0
M  V30 5571 H 517.529 3.36082 -1.94089 0
M  V30 5572 H 515.63 3.69196 0.502536 0
M  V30 5573 H 515.743 4.65963 -1.11422 0
M  V30 5574 H 514.107 2.49788 -0.497807 0
M  V30 5575 H 514.89 2.66786 -2.16055 0
M  V30 5576 N 517.335 0.585699 1.46312 0
M  V30 5577 C 518.583 0.072278 2.01971 0
M  V30 5578 C 518.904 -1.29345 1.45928 0
M  V30 5579 O 518.174 -1.84973 0.645109 0
M  V30 5580 H 516.754 0.023729 0.746623 0
M  V30 5581 H 519.416 0.762155 1.7938 0
M  V30 5582 H 518.512 0.00552767 3.121 0
M  V30 5583 N 518.813 -1.54241 0.323641 0
M  V30 5584 C 520.09 -1.92741 -0.333181 0
M  V30 5585 C 520.47 -1.25326 -1.69872 0
M  V30 5586 O 519.818 -0.396991 -2.25025 0
M  V30 5587 C 520.028 -3.46399 -0.425322 0
M  V30 5588 C 521.376 -4.19029 -0.68557 0
M  V30 5589 O 522.4 -3.52555 -0.50824 0
M  V30 5590 O 521.259 -5.36751 -1.02767 0
M  V30 5591 H 518.353 -0.804811 -0.190286 0
M  V30 5592 H 520.899 -1.65542 0.373361 0
M  V30 5593 H 519.671 -3.87643 0.533737 0
M  V30 5594 H 519.294 -3.79704 -1.17944 0
M  V30 5595 N 520.291 -0.0518155 -1.57515 0
M  V30 5596 C 521.702 0.483787 -1.80323 0
M  V30 5597 C 522.053 1.70879 -0.964099 0
M  V30 5598 O 521.178 2.15643 -0.180872 0
M  V30 5599 C 521.773 0.884459 -3.27052 0
M  V30 5600 C 520.332 1.36504 -3.50776 0
M  V30 5601 C 519.479 0.340539 -2.75201 0
M  V30 5602 H 522.43 -0.277691 -1.56252 0
M  V30 5603 H 522.451 1.74733 -3.38007 0
M  V30 5604 H 521.963 -0.00731093 -3.88099 0
M  V30 5605 H 520.064 2.27598 -2.95009 0
M  V30 5606 H 520.177 1.35675 -4.59488 0
M  V30 5607 H 518.541 0.81356 -2.41357 0
M  V30 5608 H 519.324 -0.543156 -3.38976 0
M  V30 5609 N 521.769 1.56035 0.221574 0
M  V30 5610 C 523.185 1.49026 0.571271 0
M  V30 5611 C 523.385 0.746912 1.87146 0
M  V30 5612 O 522.441 0.286566 2.50869 0
M  V30 5613 C 523.754 2.93579 0.650522 0
M  V30 5614 C 525.302 3.04099 0.741151 0
M  V30 5615 C 525.777 4.5001 0.851747 0
M  V30 5616 N 527.268 4.54053 0.915968 0
M  V30 5617 C 528.003 5.64232 1.02125 0
M  V30 5618 N 527.499 6.84164 1.09049 0
M  V30 5619 N 529.292 5.52084 1.05639 0
M  V30 5620 H 521.443 2.02791 -0.63162 0
M  V30 5621 H 523.706 0.921736 -0.221602 0
M  V30 5622 H 523.412 3.50912 -0.235253 0
M  V30 5623 H 523.286 3.45476 1.51413 0
M  V30 5624 H 525.673 2.4683 1.61737 0
M  V30 5625 H 525.754 2.55371 -0.148128 0
M  V30 5626 H 525.398 5.07896 -0.0200117 0
M  V30 5627 H 525.328 4.96444 1.75644 0
M  V30 5628 H 527.819 3.67683 0.872782 0
M  V30 5629 H 528.132 7.63883 1.1706 0
M  V30 5630 H 526.477 6.86875 1.05962 0
M  V30 5631 H 529.668 4.57317 0.998953 0
M  V30 5632 H 529.841 6.37983 1.13498 0
M  V30 5633 N 523.247 -0.488276 1.49845 0
M  V30 5634 C 524.496 -1.23826 1.59217 0
M  V30 5635 C 524.809 -1.93439 0.289966 0
M  V30 5636 O 526.015 -2.70229 0.262382 0
M  V30 5637 C 524.471 -2.24902 2.80976 0
M  V30 5638 C 524.079 -1.6117 4.18005 0
M  V30 5639 C 525.823 -3.00648 2.99685 0
M  V30 5640 C 523.73 -2.60431 5.3097 0
M  V30 5641 H 522.66 -0.465858 0.592868 0
M  V30 5642 H 525.311 -0.510645 1.76252 0
M  V30 5643 H 523.693 -3.0088 2.57463 0
M  V30 5644 H 524.867 -0.910968 4.51706 0
M  V30 5645 H 523.182 -0.97767 4.0476 0
M  V30 5646 H 525.779 -3.74903 3.81251 0
M  V30 5647 H 526.122 -3.5902 2.10738 0
M  V30 5648 H 526.655 -2.31784 3.23297 0
M  V30 5649 H 523.394 -2.06823 6.22017 0
M  V30 5650 H 522.914 -3.28707 5.01709 0
M  V30 5651 H 524.593 -3.22606 5.60834 0
M  V30 5652 N 524.725 -1.39134 -0.740242 0
M  V30 5653 C 525.972 -1.36071 -1.49969 0
M  V30 5654 C 526.3 0.0450245 -1.94448 0
M  V30 5655 O 525.555 1.02482 -1.66721 0
M  V30 5656 C 525.854 -2.27457 -2.75678 0
M  V30 5657 C 525.52 -3.75185 -2.50094 0
M  V30 5658 C 524.182 -4.15439 -2.42825 0
M  V30 5659 C 526.534 -4.68643 -2.28086 0
M  V30 5660 C 523.862 -5.4722 -2.11584 0
M  V30 5661 C 526.214 -6.00695 -1.98363 0
M  V30 5662 C 524.878 -6.40018 -1.8956 0
M  V30 5663 H 524.148 -0.497921 -0.548777 0
M  V30 5664 H 526.795 -1.71599 -0.85007 0
M  V30 5665 H 525.1 -1.8503 -3.45356 0
M  V30 5666 H 526.797 -2.22384 -3.33686 0
M  V30 5667 H 523.387 -3.43279 -2.56627 0
M  V30 5668 H 527.571 -4.3838 -2.32672 0
M  V30 5669 H 522.827 -5.76615 -2.03287 0
M  V30 5670 H 527.001 -6.72644 -1.80341 0
M  V30 5671 H 524.628 -7.42051 -1.65117 0
M  V30 5672 N 526.204 0.969867 -1.24223 0
M  V30 5673 C 527.136 2.0669 -0.99055 0
M  V30 5674 C 528.149 1.62753 0.0392222 0
M  V30 5675 O 529.338 1.77403 -0.197561 0
M  V30 5676 C 526.438 3.35589 -0.472594 0
M  V30 5677 C 525.611 4.08444 -1.56499 0
M  V30 5678 C 524.67 5.15616 -1.05007 0
M  V30 5679 O 523.696 5.41911 -1.7413 0
M  V30 5680 N 524.898 5.80383 0.116641 0
M  V30 5681 H 527.663 2.28855 -1.93508 0
M  V30 5682 H 525.224 1.13733 -1.15223 0
M  V30 5683 H 527.216 4.04542 -0.112919 0
M  V30 5684 H 525.786 3.10311 0.377617 0
M  V30 5685 H 525.006 3.33798 -2.09696 0
M  V30 5686 H 526.294 4.53882 -2.29932 0
M  V30 5687 H 525.692 5.6142 0.694589 0
M  V30 5688 H 524.249 6.50462 0.417483 0
M  V30 5689 N 527.682 1.05563 1.17022 0
M  V30 5690 C 528.93 0.76642 1.87004 0
M  V30 5691 C 529.251 -0.708854 1.8166 0
M  V30 5692 O 528.521 -1.51242 1.2451 0
M  V30 5693 H 527.101 0.280516 0.692329 0
M  V30 5694 H 529.763 1.33557 1.41945 0
M  V30 5695 H 528.859 1.08472 2.92644 0
M  V30 5696 N 529.16 -1.33526 0.837174 0
M  V30 5697 C 530.39 -2.01754 0.444848 0
M  V30 5698 C 530.798 -1.63149 -0.958072 0
M  V30 5699 O 530.141 -0.839827 -1.63379 0
M  V30 5700 C 530.203 -3.56228 0.483917 0
M  V30 5701 C 529.867 -4.18205 1.84265 0
M  V30 5702 C 530.864 -4.37699 2.80563 0
M  V30 5703 C 528.549 -4.54667 2.13503 0
M  V30 5704 C 530.543 -4.928 4.04261 0
M  V30 5705 C 528.23 -5.09475 3.37458 0
M  V30 5706 C 529.228 -5.28488 4.32654 0
M  V30 5707 O 528.916 -5.82132 5.54417 0
M  V30 5708 H 528.648 -0.652928 0.175104 0
M  V30 5709 H 531.202 -1.71469 1.13082 0
M  V30 5710 H 529.432 -3.85833 -0.258826 0
M  V30 5711 H 531.121 -4.05752 0.109653 0
M  V30 5712 H 531.887 -4.0988 2.59274 0
M  V30 5713 H 527.766 -4.39164 1.40201 0
M  V30 5714 H 531.31 -5.07555 4.78574 0
M  V30 5715 H 527.207 -5.36725 3.58604 0
M  V30 5716 H 527.975 -6.00548 5.56133 0
M  V30 5717 N 530.638 -0.59345 -1.46 0
M  V30 5718 C 531.863 -0.0872365 -2.07216 0
M  V30 5719 C 532.288 1.2131 -1.43755 0
M  V30 5720 O 531.646 1.73528 -0.525152 0
M  V30 5721 C 531.694 0.0538197 -3.6056 0
M  V30 5722 O 530.798 1.10765 -3.97247 0
M  V30 5723 H 530.139 -0.0676598 -0.660544 0
M  V30 5724 H 532.669 -0.819445 -1.87473 0
M  V30 5725 H 532.679 0.256567 -4.07193 0
M  V30 5726 H 531.354 -0.895739 -4.0614 0
M  V30 5727 H 529.931 0.882501 -3.62307 0
M  V30 5728 N 532.116 1.54067 -0.331816 0
M  V30 5729 C 533.363 2.00715 0.268269 0
M  V30 5730 C 533.691 1.21986 1.51491 0
M  V30 5731 O 532.946 0.292309 1.93505 0
M  V30 5732 C 533.245 3.51634 0.639392 0
M  V30 5733 C 532.911 4.48018 -0.509019 0
M  V30 5734 C 531.573 4.74089 -0.824209 0
M  V30 5735 C 533.925 5.05237 -1.28003 0
M  V30 5736 C 531.253 5.54637 -1.91298 0
M  V30 5737 C 533.605 5.86972 -2.35895 0
M  V30 5738 C 532.269 6.11342 -2.67987 0
M  V30 5739 H 531.539 0.734469 0.0981667 0
M  V30 5740 H 534.186 1.8596 -0.457304 0
M  V30 5741 H 532.491 3.6416 1.44551 0
M  V30 5742 H 534.188 3.85175 1.11539 0
M  V30 5743 H 530.778 4.27851 -0.253287 0
M  V30 5744 H 534.962 4.8507 -1.04978 0
M  V30 5745 H 530.218 5.71747 -2.16599 0
M  V30 5746 H 534.392 6.30327 -2.96076 0
M  V30 5747 H 532.019 6.73544 -3.5248 0
M  V30 5748 N 533.594 0.0601682 1.57485 0
M  V30 5749 C 534.84 -0.612501 1.93329 0
M  V30 5750 C 535.173 -1.6996 0.939526 0
M  V30 5751 O 534.448 -1.94472 -0.0330957 0
M  V30 5752 C 534.731 -1.20025 3.39508 0
M  V30 5753 C 534.584 -0.12059 4.49638 0
M  V30 5754 C 535.903 -2.10923 3.86264 0
M  V30 5755 H 533.022 -0.221185 0.703027 0
M  V30 5756 H 535.664 0.123768 1.89596 0
M  V30 5757 H 533.814 -1.82774 3.42821 0
M  V30 5758 H 535.486 0.51185 4.58452 0
M  V30 5759 H 533.729 0.550251 4.30296 0
M  V30 5760 H 534.4 -0.572019 5.49028 0
M  V30 5761 H 536.876 -1.58124 3.84884 0
M  V30 5762 H 535.752 -2.48987 4.8918 0
M  V30 5763 H 536.013 -3.01292 3.23536 0
M  V30 5764 N 535.072 -1.5615 -0.213296 0
M  V30 5765 C 536.035 -1.92249 -1.24792 0
M  V30 5766 C 537.035 -0.801828 -1.39382 0
M  V30 5767 O 538.225 -1.06948 -1.37506 0
M  V30 5768 C 535.357 -2.18056 -2.62039 0
M  V30 5769 H 536.55 -2.84793 -0.939845 0
M  V30 5770 H 534.103 -1.49559 -0.454062 0
M  V30 5771 H 534.838 -1.2809 -2.97932 0
M  V30 5772 H 534.623 -2.99703 -2.52825 0
M  V30 5773 H 536.113 -2.47051 -3.36683 0
M  V30 5774 N 536.55 0.480323 -1.50102 0
M  V30 5775 C 537.961 1.06142 -1.53593 0
M  V30 5776 C 538.312 1.93335 -0.334055 0
M  V30 5777 O 537.437 2.09188 0.55403 0
M  V30 5778 C 538.032 1.9317 -2.78336 0
M  V30 5779 C 536.591 2.46405 -2.84538 0
M  V30 5780 C 535.738 1.24521 -2.4777 0
M  V30 5781 H 538.689 0.26333 -1.565 0
M  V30 5782 H 538.71 2.78123 -2.59669 0
M  V30 5783 H 538.222 1.29683 -3.65792 0
M  V30 5784 H 536.323 3.13472 -2.01411 0
M  V30 5785 H 536.436 2.82143 -3.87211 0
M  V30 5786 H 534.8 1.57706 -2.00003 0
M  V30 5787 H 535.583 0.627102 -3.37524 0
M  V30 5788 N 538.028 1.39524 0.732853 0
M  V30 5789 C 539.253 1.40329 1.52717 0
M  V30 5790 C 539.678 0.000286574 1.881 0
M  V30 5791 O 539.036 -0.987262 1.52062 0
M  V30 5792 C 539.084 2.28464 2.78992 0
M  V30 5793 O 538.188 1.716 3.75003 0
M  V30 5794 H 537.529 0.47778 0.461109 0
M  V30 5795 H 540.059 1.83546 0.903996 0
M  V30 5796 H 540.069 2.43051 3.27705 0
M  V30 5797 H 538.744 3.30425 2.52572 0
M  V30 5798 H 537.321 1.66267 3.33781 0
M  V30 5799 N 539.506 -0.963266 1.24736 0
M  V30 5800 C 540.755 -1.70115 1.08369 0
M  V30 5801 C 541.068 -1.91939 -0.376688 0
M  V30 5802 O 542.274 -2.6334 -0.660624 0
M  V30 5803 C 540.73 -3.06218 1.89099 0
M  V30 5804 C 540.338 -2.92221 3.39574 0
M  V30 5805 C 542.082 -3.83848 1.81275 0
M  V30 5806 C 539.989 -4.23662 4.12631 0
M  V30 5807 H 538.919 -0.637944 0.401924 0
M  V30 5808 H 541.57 -1.07304 1.48856 0
M  V30 5809 H 539.952 -3.69884 1.41429 0
M  V30 5810 H 541.126 -2.37541 3.94856 0
M  V30 5811 H 539.441 -2.28054 3.48397 0
M  V30 5812 H 542.038 -4.81188 2.33158 0
M  V30 5813 H 542.381 -4.08949 0.778895 0
M  V30 5814 H 542.914 -3.26918 2.26649 0
M  V30 5815 H 539.653 -4.03753 5.16395 0
M  V30 5816 H 539.173 -4.78141 3.62135 0
M  V30 5817 H 540.852 -4.92256 4.19873 0
M  V30 5818 N 540.985 -1.06182 -1.16461 0
M  V30 5819 C 541.915 -0.692861 -2.22984 0
M  V30 5820 C 542.896 0.314122 -1.67174 0
M  V30 5821 O 544.081 0.189499 -1.93273 0
M  V30 5822 C 541.211 -0.07732 -3.47214 0
M  V30 5823 C 540.165 -1.01015 -4.15909 0
M  V30 5824 C 539.491 -0.257973 -5.34077 0
M  V30 5825 C 540.791 -2.33868 -4.67015 0
M  V30 5826 H 542.485 -1.58343 -2.54102 0
M  V30 5827 H 540.031 -0.76279 -1.22137 0
M  V30 5828 H 541.984 0.19266 -4.20959 0
M  V30 5829 H 540.708 0.848254 -3.15392 0
M  V30 5830 H 539.367 -1.26486 -3.44088 0
M  V30 5831 H 539.015 0.670684 -4.98509 0
M  V30 5832 H 538.715 -0.879638 -5.80979 0
M  V30 5833 H 540.239 0.00448788 -6.106 0
M  V30 5834 H 541.653 -2.1279 -5.32347 0
M  V30 5835 H 540.05 -2.91522 -5.24533 0
M  V30 5836 H 541.12 -2.97019 -3.83286 0
M  V30 5837 N 542.463 1.3308 -0.844243 0
M  V30 5838 C 543.71 1.97605 -0.44255 0
M  V30 5839 C 544.038 1.66856 0.999458 0
M  V30 5840 O 543.293 0.943586 1.7145 0
M  V30 5841 C 543.592 3.52045 -0.616354 0
M  V30 5842 C 543.258 4.02757 -2.02726 0
M  V30 5843 C 541.92 4.16316 -2.41317 0
M  V30 5844 C 544.272 4.29776 -2.9486 0
M  V30 5845 C 541.6 4.54232 -3.71335 0
M  V30 5846 C 543.952 4.69146 -4.24364 0
M  V30 5847 C 542.616 4.80911 -4.62904 0
M  V30 5848 H 541.886 0.723088 -0.161941 0
M  V30 5849 H 544.533 1.58663 -1.0723 0
M  V30 5850 H 542.838 3.91681 0.0966812 0
M  V30 5851 H 544.535 3.99981 -0.285756 0
M  V30 5852 H 541.125 3.9268 -1.71756 0
M  V30 5853 H 545.309 4.18818 -2.6628 0
M  V30 5854 H 540.565 4.61535 -4.00993 0
M  V30 5855 H 544.739 4.89008 -4.95827 0
M  V30 5856 H 542.366 5.10048 -5.63698 0
M  V30 5857 N 543.941 0.601185 1.45683 0
M  V30 5858 C 545.218 0.0261659 1.95582 0
M  V30 5859 C 545.598 -1.4399 1.5437 0
M  V30 5860 O 544.946 -2.13919 0.80318 0
M  V30 5861 C 545.156 0.217557 3.48321 0
M  V30 5862 C 546.504 0.0950076 4.24494 0
M  V30 5863 O 547.528 0.147345 3.55895 0
M  V30 5864 O 546.387 -0.025261 5.46494 0
M  V30 5865 H 543.481 -0.0393688 0.826062 0
M  V30 5866 H 546.027 0.670798 1.55879 0
M  V30 5867 H 544.799 1.23601 3.71266 0
M  V30 5868 H 544.422 -0.46264 3.94899 0
M  V30 5869 N 545.419 -1.53889 0.339982 0
M  V30 5870 C 546.369 -2.2165 -0.534354 0
M  V30 5871 C 547.353 -1.20266 -1.06887 0
M  V30 5872 O 548.545 -1.45827 -1.00316 0
M  V30 5873 C 545.674 -2.99014 -1.68659 0
M  V30 5874 C 544.76 -4.07751 -1.16618 0
M  V30 5875 N 545.151 -5.04469 -0.366717 0
M  V30 5876 C 543.449 -4.21998 -1.4434 0
M  V30 5877 C 544.15 -5.81638 -0.0847275 0
M  V30 5878 N 543.126 -5.39388 -0.675391 0
M  V30 5879 H 546.928 -2.93781 0.0835562 0
M  V30 5880 H 544.442 -1.61736 0.146665 0
M  V30 5881 H 546.439 -3.46056 -2.32489 0
M  V30 5882 H 545.099 -2.28408 -2.30781 0
M  V30 5883 H 546.11 -5.17899 -0.00811038 0
M  V30 5884 H 542.787 -3.62612 -2.06928 0
M  V30 5885 H 544.177 -6.69563 0.559943 0
M  V30 5886 N 546.897 -0.0685191 -1.57451 0
M  V30 5887 C 547.845 0.917577 -2.13736 0
M  V30 5888 C 548.839 1.31049 -1.07344 0
M  V30 5889 O 550.045 1.28811 -1.25728 0
M  V30 5890 H 546.42 0.313835 -0.683382 0
M  V30 5891 H 548.391 0.417903 -2.95459 0
M  V30 5892 C 547.14 2.17686 -2.71123 0
M  V30 5893 H 546.463 1.88336 -3.52661 0
M  V30 5894 H 547.903 2.84803 -3.14107 0
M  V30 5895 C 546.362 2.9332 -1.65726 0
M  V30 5896 O 546.892 3.86901 -1.08031 0
M  V30 5897 N 545.098 2.56367 -1.36837 0
M  V30 5898 H 544.645 1.80341 -1.83943 0
M  V30 5899 H 544.603 3.07276 -0.665501 0
M  V30 5900 N 548.375 1.56261 0.205012 0
M  V30 5901 C 549.323 1.94631 1.27364 0
M  V30 5902 C 550.317 0.830434 1.47649 0
M  V30 5903 O 551.523 1.01538 1.48627 0
M  V30 5904 H 547.898 0.618755 0.427371 0
M  V30 5905 H 549.869 2.83768 0.922941 0
M  V30 5906 C 548.618 2.29358 2.61324 0
M  V30 5907 H 547.941 3.14744 2.46528 0
M  V30 5908 H 549.381 2.60076 3.34868 0
M  V30 5909 C 547.84 1.12461 3.17575 0
M  V30 5910 O 548.37 0.394407 3.99759 0
M  V30 5911 N 546.576 0.904036 2.7618 0
M  V30 5912 H 546.123 1.49956 2.09454 0
M  V30 5913 H 546.081 0.123662 3.14157 0
M  V30 5914 N 549.853 -0.472356 1.50355 0
M  V30 5915 C 550.816 -1.5529 1.68576 0
M  V30 5916 C 551.816 -1.50863 0.556511 0
M  V30 5917 O 553.006 -1.53505 0.823516 0
M  V30 5918 C 550.138 -2.94921 1.70981 0
M  V30 5919 H 551.331 -1.40451 2.64978 0
M  V30 5920 H 548.884 -0.698645 1.39816 0
M  V30 5921 H 549.619 -3.15204 0.762675 0
M  V30 5922 H 549.404 -2.99541 2.53017 0
M  V30 5923 H 550.894 -3.73372 1.87037 0
M  V30 5924 N 551.331 -1.39911 -0.725443 0
M  V30 5925 C 552.577 -1.37858 -1.48738 0
M  V30 5926 C 552.91 0.0224187 -1.94187 0
M  V30 5927 O 552.185 0.989204 -1.67466 0
M  V30 5928 C 552.468 -2.3594 -2.72038 0
M  V30 5929 C 552.321 -3.85023 -2.32546 0
M  V30 5930 C 553.64 -2.31704 -3.74167 0
M  V30 5931 H 550.759 -0.502074 -0.539528 0
M  V30 5932 H 553.401 -1.70974 -0.828728 0
M  V30 5933 H 551.551 -2.0783 -3.28236 0
M  V30 5934 H 553.223 -4.2392 -1.81905 0
M  V30 5935 H 551.466 -4.01334 -1.64661 0
M  V30 5936 H 552.137 -4.49152 -3.20884 0
M  V30 5937 H 554.613 -2.5658 -3.27576 0
M  V30 5938 H 553.489 -3.02395 -4.58092 0
M  V30 5939 H 553.75 -1.3253 -4.21768 0
M  V30 5940 N 552.809 0.956637 -1.25245 0
M  V30 5941 C 553.742 2.05232 -0.99775 0
M  V30 5942 C 554.72 1.62439 0.0723137 0
M  V30 5943 O 555.904 1.88381 -0.066926 0
M  V30 5944 C 553.031 3.34871 -0.507861 0
M  V30 5945 C 552.077 3.96625 -1.56815 0
M  V30 5946 S 552.91 4.32853 -3.15276 0
M  V30 5947 C 554.066 5.65613 -2.68017 0
M  V30 5948 H 554.299 2.26521 -1.9255 0
M  V30 5949 H 551.832 1.09601 -1.08752 0
M  V30 5950 H 553.79 4.09845 -0.231858 0
M  V30 5951 H 552.451 3.11551 0.399356 0
M  V30 5952 H 551.644 4.90087 -1.17604 0
M  V30 5953 H 551.246 3.28124 -1.79473 0
M  V30 5954 H 553.538 6.43635 -2.11518 0
M  V30 5955 H 554.481 6.09693 -3.60112 0
M  V30 5956 H 554.889 5.24751 -2.0808 0
M  V30 5957 N 554.287 1.06798 1.15896 0
M  V30 5958 C 555.515 0.808694 1.90441 0
M  V30 5959 C 555.93 -0.637506 1.77711 0
M  V30 5960 O 555.287 -1.43684 1.12522 0
M  V30 5961 C 555.338 1.20068 3.40978 0
M  V30 5962 O 555.059 2.59013 3.53333 0
M  V30 5963 C 556.56 0.96987 4.3256 0
M  V30 5964 H 553.78 0.292809 0.603742 0
M  V30 5965 H 556.324 1.42296 1.46874 0
M  V30 5966 H 554.479 0.630842 3.82229 0
M  V30 5967 H 554.893 2.7485 4.46719 0
M  V30 5968 H 556.367 1.29371 5.36626 0
M  V30 5969 H 556.844 -0.0941209 4.39099 0
M  V30 5970 H 557.45 1.52433 3.97044 0
M  V30 5971 N 555.766 -1.3263 0.851289 0
M  V30 5972 C 557.043 -1.91982 0.374448 0
M  V30 5973 C 557.423 -1.77568 -1.14161 0
M  V30 5974 O 556.771 -1.1717 -1.96172 0
M  V30 5975 C 556.981 -3.38862 0.835088 0
M  V30 5976 C 558.329 -4.15999 0.850309 0
M  V30 5977 O 559.353 -3.47566 0.779505 0
M  V30 5978 O 558.212 -5.38189 0.949481 0
M  V30 5979 H 555.306 -0.819846 0.10854 0
M  V30 5980 H 557.852 -1.41422 0.937966 0
M  V30 5981 H 556.624 -3.43281 1.87814 0
M  V30 5982 H 556.247 -3.96821 0.248833 0
M  V30 5983 N 557.244 -0.608902 -1.45362 0
M  V30 5984 C 558.492 -0.104401 -2.0183 0
M  V30 5985 C 558.813 1.27007 -1.47967 0
M  V30 5986 O 558.083 1.83924 -0.674455 0
M  V30 5987 H 556.663 -0.0356042 -0.746151 0
M  V30 5988 H 559.325 -0.790596 -1.78145 0
M  V30 5989 H 558.421 -0.0551793 -3.12051 0
M  V30 5990 N 558.722 1.53707 -0.348139 0
M  V30 5991 C 559.652 2.28111 0.498766 0
M  V30 5992 C 560.633 1.29851 1.09876 0
M  V30 5993 O 561.818 1.587 1.11928 0
M  V30 5994 C 558.948 3.05735 1.64753 0
M  V30 5995 C 557.902 4.11537 1.17565 0
M  V30 5996 C 557.228 4.77142 2.4133 0
M  V30 5997 C 558.528 5.21587 0.272844 0
M  V30 5998 H 560.222 2.99152 -0.121934 0
M  V30 5999 H 557.768 1.43875 -0.0600842 0
M  V30 6000 H 559.721 3.56526 2.24649 0
M  V30 6001 H 558.445 2.32354 2.2952 0
M  V30 6002 H 557.104 3.61665 0.599483 0
M  V30 6003 H 556.752 4.0035 3.04514 0
M  V30 6004 H 556.452 5.48626 2.10436 0
M  V30 6005 H 557.976 5.30719 3.01943 0
M  V30 6006 H 559.39 5.67986 0.778779 0
M  V30 6007 H 557.787 6.00074 0.0555849 0
M  V30 6008 H 558.857 4.79969 -0.689785 0
M  V30 6009 N 560.2 0.0768682 1.57412 0
M  V30 6010 C 561.11 -0.903207 2.16516 0
M  V30 6011 C 562.126 -1.32341 1.12968 0
M  V30 6012 O 563.302 -1.39507 1.45258 0
M  V30 6013 C 560.367 -2.1508 2.71922 0
M  V30 6014 C 559.428 -1.78653 3.90361 0
M  V30 6015 C 558.661 -2.97465 4.43114 0
M  V30 6016 O 558.884 -4.11638 3.94854 0
M  V30 6017 O 557.818 -2.76987 5.3438 0
M  V30 6018 H 561.644 -0.430427 3.00634 0
M  V30 6019 H 559.229 -0.146485 1.4868 0
M  V30 6020 H 561.111 -2.8823 3.07411 0
M  V30 6021 H 559.786 -2.61446 1.9086 0
M  V30 6022 H 558.693 -1.0274 3.59716 0
M  V30 6023 H 560.026 -1.37066 4.7273 0
M  V30 6024 N 561.678 -1.56367 -0.196722 0
M  V30 6025 C 562.641 -1.93561 -1.22746 0
M  V30 6026 C 563.641 -0.816566 -1.38524 0
M  V30 6027 O 564.831 -1.084 -1.36363 0
M  V30 6028 C 561.963 -2.20823 -2.59712 0
M  V30 6029 H 563.156 -2.85774 -0.909586 0
M  V30 6030 H 560.709 -1.50032 -0.438174 0
M  V30 6031 H 561.444 -1.31243 -2.96557 0
M  V30 6032 H 561.229 -3.02368 -2.49632 0
M  V30 6033 H 562.719 -2.50608 -3.34044 0
M  V30 6034 N 563.156 0.464375 -1.50603 0
M  V30 6035 C 564.567 1.04507 -1.5471 0
M  V30 6036 C 564.918 1.9297 -0.354542 0
M  V30 6037 O 564.043 2.09763 0.531812 0
M  V30 6038 C 564.638 1.90207 -2.80369 0
M  V30 6039 C 563.197 2.43373 -2.87135 0
M  V30 6040 C 562.344 1.21886 -2.49076 0
M  V30 6041 H 565.295 0.246716 -1.56771 0
M  V30 6042 H 565.316 2.75353 -2.62604 0
M  V30 6043 H 564.828 1.25796 -3.67147 0
M  V30 6044 H 562.929 3.11318 -2.04724 0
M  V30 6045 H 563.042 2.7802 -3.90181 0
M  V30 6046 H 561.406 1.55575 -2.01664 0
M  V30 6047 H 562.189 0.591268 -3.3817 0
M  V30 6048 N 564.634 1.40294 0.718013 0
M  V30 6049 C 565.882 1.38167 1.47494 0
M  V30 6050 C 566.203 -0.01607 1.94993 0
M  V30 6051 O 565.473 -0.970396 1.70177 0
M  V30 6052 H 564.053 0.508505 0.547203 0
M  V30 6053 H 566.715 1.75324 0.851322 0
M  V30 6054 H 565.811 2.05503 2.34894 0
M  V30 6055 N 566.112 -0.949982 1.2575 0
M  V30 6056 C 567.075 -2.02894 1.06615 0
M  V30 6057 C 568.075 -1.60791 0.0173905 0
M  V30 6058 O 569.265 -1.72249 0.260003 0
M  V30 6059 C 566.397 -3.35219 0.619751 0
M  V30 6060 H 567.59 -2.21302 2.02399 0
M  V30 6061 H 565.143 -1.12772 1.08223 0
M  V30 6062 H 565.878 -3.22508 -0.340486 0
M  V30 6063 H 565.663 -3.67129 1.37692 0
M  V30 6064 H 567.153 -4.14505 0.507443 0
M  V30 6065 N 567.59 -1.07411 -1.15328 0
M  V30 6066 C 568.838 -0.796073 -1.85761 0
M  V30 6067 C 569.159 0.679864 -1.82764 0
M  V30 6068 O 568.429 1.49242 -1.269 0
M  V30 6069 H 567.009 -0.291495 -0.687779 0
M  V30 6070 H 569.671 -1.35799 -1.39802 0
M  V30 6071 H 568.767 -1.13114 -2.90881 0
M  V30 6072 N 569.068 1.32177 -0.85831 0
M  V30 6073 C 570.345 1.91781 -0.384624 0
M  V30 6074 C 570.725 1.78171 1.13217 0
M  V30 6075 O 570.073 1.18209 1.95548 0
M  V30 6076 C 570.283 3.38414 -0.853047 0
M  V30 6077 C 571.631 4.15542 -0.872359 0
M  V30 6078 O 572.655 3.47148 -0.797926 0
M  V30 6079 O 571.514 5.37678 -0.978009 0
M  V30 6080 H 568.608 0.819259 -0.112886 0
M  V30 6081 H 571.154 1.40923 -0.945453 0
M  V30 6082 H 569.926 3.4228 -1.89632 0
M  V30 6083 H 569.549 3.96683 -0.269874 0
M  V30 6084 N 570.547 0.616602 1.45037 0
M  V30 6085 C 571.963 0.280994 1.57107 0
M  V30 6086 C 572.163 -1.21627 1.60653 0
M  V30 6087 O 571.219 -1.9997 1.54169 0
M  V30 6088 C 572.532 0.960116 2.8496 0
M  V30 6089 C 574.08 0.936884 2.98649 0
M  V30 6090 C 574.555 1.59619 4.29285 0
M  V30 6091 N 576.046 1.5621 4.36065 0
M  V30 6092 C 576.781 2.04131 5.35834 0
M  V30 6093 N 576.277 2.60177 6.4209 0
M  V30 6094 N 578.07 1.94845 5.27249 0
M  V30 6095 H 570.221 1.58867 1.40979 0
M  V30 6096 H 572.484 0.666024 0.674623 0
M  V30 6097 H 572.19 2.01473 2.88273 0
M  V30 6098 H 572.064 0.488921 3.74018 0
M  V30 6099 H 574.451 -0.109209 2.94898 0
M  V30 6100 H 574.532 1.44643 2.10979 0
M  V30 6101 H 574.176 2.64166 4.33796 0
M  V30 6102 H 574.106 1.06159 5.15789 0
M  V30 6103 H 576.597 1.15276 3.59889 0
M  V30 6104 H 576.91 2.94513 7.1448 0
M  V30 6105 H 575.255 2.64221 6.42816 0
M  V30 6106 H 578.446 1.50792 4.43147 0
M  V30 6107 H 578.619 2.32504 6.04852 0
M  V30 6108 N 572.025 -1.5352 0.356285 0
M  V30 6109 C 573.436 -1.86282 -0.12492 0
M  V30 6110 C 573.787 -1.27717 -1.48939 0
M  V30 6111 O 572.912 -0.595614 -2.08042 0
M  V30 6112 C 573.507 -3.37995 -0.23345 0
M  V30 6113 C 572.066 -3.70588 -0.658899 0
M  V30 6114 C 571.213 -2.76581 0.199596 0
M  V30 6115 H 574.164 -1.47901 0.575423 0
M  V30 6116 H 574.185 -3.65475 -1.0587 0
M  V30 6117 H 573.697 -3.8059 0.759776 0
M  V30 6118 H 571.798 -3.33544 -1.66069 0
M  V30 6119 H 571.911 -4.77076 -0.439957 0
M  V30 6120 H 570.275 -2.52552 -0.330076 0
M  V30 6121 H 571.058 -3.22008 1.19019 0
M  V30 6122 N 573.503 -0.0852151 -1.57369 0
M  V30 6123 C 574.751 0.579658 -1.93609 0
M  V30 6124 C 575.072 1.69332 -0.967043 0
M  V30 6125 O 574.342 1.95892 -0.0174215 0
M  V30 6126 H 572.922 0.217113 -0.714752 0
M  V30 6127 H 575.584 -0.146226 -1.94351 0
M  V30 6128 H 574.68 0.996276 -2.95771 0
M  V30 6129 N 574.981 1.5647 0.188427 0
M  V30 6130 C 576.397 1.50204 0.539532 0
M  V30 6131 C 576.597 0.78644 1.85519 0
M  V30 6132 O 575.653 0.339714 2.50204 0
M  V30 6133 C 576.966 2.94893 0.588103 0
M  V30 6134 C 578.514 3.05602 0.67648 0
M  V30 6135 C 578.989 4.51716 0.756101 0
M  V30 6136 N 580.48 4.55894 0.819451 0
M  V30 6137 C 581.215 5.66272 0.90134 0
M  V30 6138 N 580.711 6.86323 0.945118 0
M  V30 6139 N 582.504 5.54201 0.939043 0
M  V30 6140 H 574.655 2.01406 -0.674493 0
M  V30 6141 H 576.918 0.916828 -0.241103 0
M  V30 6142 H 576.624 3.50334 -0.309633 0
M  V30 6143 H 576.498 3.4861 1.44051 0
M  V30 6144 H 578.885 2.50206 1.56465 0
M  V30 6145 H 578.966 2.54999 -0.202262 0
M  V30 6146 H 578.61 5.07739 -0.12774 0
M  V30 6147 H 578.54 5.00058 1.65074 0
M  V30 6148 H 581.031 3.69452 0.794594 0
M  V30 6149 H 581.344 7.66194 1.0083 0
M  V30 6150 H 579.689 6.88968 0.913683 0
M  V30 6151 H 582.88 4.59333 0.901725 0
M  V30 6152 H 583.053 6.40247 0.999402 0
M  V30 6153 N 576.459 -0.456382 1.50847 0
M  V30 6154 C 577.422 -1.53493 1.70213 0
M  V30 6155 C 578.422 -1.50264 0.572481 0
M  V30 6156 O 579.612 -1.52623 0.839751 0
M  V30 6157 C 576.744 -2.93091 1.741 0
M  V30 6158 H 577.937 -1.37633 2.66453 0
M  V30 6159 H 575.49 -0.683776 1.4055 0
M  V30 6160 H 576.225 -3.14378 0.796063 0
M  V30 6161 H 576.01 -2.9684 2.5618 0
M  V30 6162 H 577.5 -3.71368 1.90987 0
M  V30 6163 N 577.937 -1.40673 -0.710563 0
M  V30 6164 C 578.9 -1.4108 -1.80635 0
M  V30 6165 C 579.9 -0.303783 -1.57904 0
M  V30 6166 O 581.09 -0.562937 -1.64853 0
M  V30 6167 C 578.222 -1.20748 -3.18799 0
M  V30 6168 H 579.415 -2.38612 -1.81671 0
M  V30 6169 H 576.968 -1.26595 -0.916704 0
M  V30 6170 H 577.703 -0.239964 -3.23411 0
M  V30 6171 H 577.488 -2.00941 -3.36698 0
M  V30 6172 H 578.978 -1.23833 -3.98817 0
M  V30 6173 N 579.415 0.9433 -1.26252 0
M  V30 6174 C 580.661 1.69175 -1.11837 0
M  V30 6175 C 580.994 1.91238 0.337891 0
M  V30 6176 O 580.269 1.49152 1.24836 0
M  V30 6177 C 580.552 3.06783 -1.88563 0
M  V30 6178 C 580.405 2.9206 -3.42083 0
M  V30 6179 C 581.724 4.06865 -1.67776 0
M  V30 6180 H 578.843 0.61399 -0.407658 0
M  V30 6181 H 581.485 1.09572 -1.55222 0
M  V30 6182 H 579.635 3.57663 -1.51689 0
M  V30 6183 H 581.307 2.48419 -3.88698 0
M  V30 6184 H 579.55 2.27731 -3.69217 0
M  V30 6185 H 580.221 3.89651 -3.90994 0
M  V30 6186 H 582.697 3.64939 -1.99897 0
M  V30 6187 H 581.573 5.01168 -2.23879 0
M  V30 6188 H 581.834 4.37705 -0.621816 0
M  V30 6189 N 580.893 1.08022 1.14757 0
M  V30 6190 C 581.856 0.71048 2.1791 0
M  V30 6191 C 582.856 -0.252731 1.58801 0
M  V30 6192 O 584.046 -0.0327915 1.74169 0
M  V30 6193 C 581.178 0.0483203 3.40866 0
M  V30 6194 H 582.371 1.62384 2.52134 0
M  V30 6195 H 579.924 0.877595 1.29337 0
M  V30 6196 H 580.659 -0.876959 3.12218 0
M  V30 6197 H 580.444 0.741189 3.85031 0
M  V30 6198 H 581.934 -0.195471 4.17142 0
M  V30 6199 N 582.371 -1.3172 0.865308 0
M  V30 6200 C 583.787 -1.4958 0.556596 0
M  V30 6201 C 583.987 -1.79763 -0.910353 0
M  V30 6202 O 583.043 -1.87351 -1.6928 0
M  V30 6203 C 584.356 -2.63277 1.45279 0
M  V30 6204 C 585.904 -2.77161 1.45433 0
M  V30 6205 C 586.379 -3.93949 2.33598 0
M  V30 6206 N 587.87 -4.01228 2.31453 0
M  V30 6207 C 588.605 -4.90855 2.96393 0
M  V30 6208 N 588.101 -5.85416 3.70486 0
M  V30 6209 N 589.894 -4.84063 2.85726 0
M  V30 6210 H 582.045 -1.10396 1.81456 0
M  V30 6211 H 584.308 -0.54507 0.775631 0
M  V30 6212 H 584.014 -2.47734 2.49641 0
M  V30 6213 H 583.888 -3.59309 1.14792 0
M  V30 6214 H 586.275 -2.9212 0.41831 0
M  V30 6215 H 586.356 -1.8181 1.79941 0
M  V30 6216 H 586 -3.79748 3.37274 0
M  V30 6217 H 585.93 -4.88598 1.96417 0
M  V30 6218 H 588.421 -3.3357 1.77593 0
M  V30 6219 H 588.734 -6.50525 4.17178 0
M  V30 6220 H 587.079 -5.85409 3.74594 0
M  V30 6221 H 590.27 -4.09163 2.27384 0
M  V30 6222 H 590.443 -5.53708 3.36617 0
M  V30 6223 N 583.85 -0.624285 -1.44708 0
M  V30 6224 C 585.075 -0.131171 -2.06985 0
M  V30 6225 C 585.5 1.18234 -1.46295 0
M  V30 6226 O 584.858 1.72375 -0.561842 0
M  V30 6227 C 584.906 -0.0226724 -3.60593 0
M  V30 6228 O 584.01 1.02314 -3.99507 0
M  V30 6229 H 583.351 -0.0816556 -0.65896 0
M  V30 6230 H 585.88 -0.859027 -1.85693 0
M  V30 6231 H 585.891 0.170138 -4.07645 0
M  V30 6232 H 584.566 -0.981685 -4.04148 0
M  V30 6233 H 583.143 0.805452 -3.64097 0
M  V30 6234 N 585.328 1.53329 -0.364422 0
M  V30 6235 C 586.291 2.24323 0.470292 0
M  V30 6236 C 587.291 1.25068 1.01067 0
M  V30 6237 O 588.481 1.49354 0.896605 0
M  V30 6238 C 585.613 2.97908 1.65722 0
M  V30 6239 H 586.806 2.9952 -0.150917 0
M  V30 6240 H 584.359 1.55868 -0.116092 0
M  V30 6241 H 585.094 2.2695 2.31655 0
M  V30 6242 H 584.879 3.70732 1.27671 0
M  V30 6243 H 586.369 3.5188 2.24878 0
M  V30 6244 N 586.806 0.0935595 1.57322 0
M  V30 6245 C 587.739 -0.902505 2.09595 0
M  V30 6246 C 588.717 -1.27732 1.00615 0
M  V30 6247 O 589.901 -1.38283 1.28102 0
M  V30 6248 C 587.028 -2.20416 2.57166 0
M  V30 6249 C 586.074 -1.97932 3.7779 0
M  V30 6250 S 586.907 -1.21873 5.21447 0
M  V30 6251 C 588.063 -2.53273 5.72367 0
M  V30 6252 H 588.296 -0.457797 2.93754 0
M  V30 6253 H 585.829 -0.119694 1.53935 0
M  V30 6254 H 587.787 -2.95217 2.85232 0
M  V30 6255 H 586.448 -2.62008 1.73235 0
M  V30 6256 H 585.641 -2.94316 4.09138 0
M  V30 6257 H 585.243 -1.3126 3.5021 0
M  V30 6258 H 587.535 -3.49256 5.8054 0
M  V30 6259 H 588.478 -2.26505 6.70896 0
M  V30 6260 H 588.886 -2.61475 5.00291 0
M  V30 6261 N 588.284 -1.56567 -0.180126 0
M  V30 6262 C 589.217 -1.90813 -1.25163 0
M  V30 6263 C 590.195 -0.7699 -1.43218 0
M  V30 6264 O 591.379 -1.02236 -1.58367 0
M  V30 6265 C 588.506 -2.15138 -2.61597 0
M  V30 6266 C 587.552 -3.37834 -2.60328 0
M  V30 6267 S 588.385 -4.92486 -2.1028 0
M  V30 6268 C 589.541 -5.19896 -3.48509 0
M  V30 6269 H 589.774 -2.81398 -0.959283 0
M  V30 6270 H 587.307 -1.49541 -0.3843 0
M  V30 6271 H 589.265 -2.29835 -3.40127 0
M  V30 6272 H 587.926 -1.25276 -2.88036 0
M  V30 6273 H 587.119 -3.52027 -3.60684 0
M  V30 6274 H 586.721 -3.22208 -1.8989 0
M  V30 6275 H 589.013 -5.11334 -4.44459 0
M  V30 6276 H 589.956 -6.21571 -3.39198 0
M  V30 6277 H 590.364 -4.47489 -3.44114 0
M  V30 6278 N 589.762 0.448376 -1.51087 0
M  V30 6279 C 590.694 1.56146 -1.67783 0
M  V30 6280 C 591.707 1.52913 -0.55871 0
M  V30 6281 O 592.896 1.57889 -0.83267 0
M  V30 6282 C 589.996 2.95057 -1.66716 0
M  V30 6283 C 589.169 3.22915 -2.95033 0
M  V30 6284 C 588.228 4.41495 -2.86302 0
M  V30 6285 O 587.254 4.40688 -3.60254 0
M  V30 6286 N 588.456 5.44443 -2.014 0
M  V30 6287 H 591.221 1.42232 -2.638 0
M  V30 6288 H 588.782 0.637153 -1.48835 0
M  V30 6289 H 590.774 3.72388 -1.58458 0
M  V30 6290 H 589.344 3.02624 -0.783403 0
M  V30 6291 H 588.564 2.33985 -3.17245 0
M  V30 6292 H 589.852 3.38349 -3.79996 0
M  V30 6293 H 589.25 5.4793 -1.40674 0
M  V30 6294 H 587.807 6.2067 -1.99029 0
M  V30 6295 N 591.24 1.41047 0.703093 0
M  V30 6296 C 592.517 1.30493 1.45708 0
M  V30 6297 C 592.897 -0.0709892 2.10981 0
M  V30 6298 O 592.245 -1.08471 2.01113 0
M  V30 6299 C 592.455 2.45287 2.48265 0
M  V30 6300 C 593.803 2.86104 3.13735 0
M  V30 6301 O 594.827 2.44971 2.58587 0
M  V30 6302 O 593.686 3.57206 4.13601 0
M  V30 6303 H 590.78 0.513144 0.648546 0
M  V30 6304 H 593.326 1.52995 0.734208 0
M  V30 6305 H 592.098 3.37135 1.98635 0
M  V30 6306 H 591.721 2.24622 3.28071 0
M  V30 6307 N 592.718 -0.936591 1.26751 0
M  V30 6308 C 593.943 -1.72288 1.15462 0
M  V30 6309 C 594.368 -1.85915 -0.285887 0
M  V30 6310 O 593.726 -1.35272 -1.20711 0
M  V30 6311 C 593.774 -3.10503 1.83359 0
M  V30 6312 O 592.878 -3.96745 1.1255 0
M  V30 6313 H 592.219 -0.52843 0.402067 0
M  V30 6314 H 594.749 -1.17271 1.67656 0
M  V30 6315 H 594.759 -3.60867 1.90365 0
M  V30 6316 H 593.434 -2.99901 2.88153 0
M  V30 6317 H 592.011 -3.55191 1.13551 0
M  V30 6318 N 594.196 -1.08629 -1.14182 0
M  V30 6319 C 595.607 -0.838003 -1.66836 0
M  V30 6320 C 595.958 0.634885 -1.85644 0
M  V30 6321 O 595.083 1.49008 -1.56926 0
M  V30 6322 C 595.678 -1.51465 -3.03058 0
M  V30 6323 C 594.237 -1.31355 -3.52736 0
M  V30 6324 C 593.384 -1.57599 -2.28162 0
M  V30 6325 H 596.335 -1.24656 -0.982165 0
M  V30 6326 H 596.356 -0.943134 -3.68626 0
M  V30 6327 H 595.868 -2.58661 -2.89337 0
M  V30 6328 H 593.969 -0.262384 -3.71675 0
M  V30 6329 H 594.082 -2.04275 -4.33369 0
M  V30 6330 H 592.446 -0.997659 -2.34348 0
M  V30 6331 H 593.229 -2.66006 -2.17015 0
M  V30 6332 N 595.674 1.31259 -0.872281 0
M  V30 6333 C 596.921 1.96622 -0.484365 0
M  V30 6334 C 597.249 1.68939 0.963841 0
M  V30 6335 O 596.504 0.97974 1.6941 0
M  V30 6336 C 596.803 3.50659 -0.690889 0
M  V30 6337 C 596.469 3.98366 -2.11224 0
M  V30 6338 C 595.131 4.11104 -2.50094 0
M  V30 6339 C 597.483 4.23425 -3.0391 0
M  V30 6340 C 594.811 4.46254 -3.80887 0
M  V30 6341 C 597.163 4.60039 -4.3422 0
M  V30 6342 C 595.827 4.70984 -4.73001 0
M  V30 6343 H 595.097 0.71949 -0.177242 0
M  V30 6344 H 597.744 1.56353 -1.10571 0
M  V30 6345 H 596.049 3.91798 0.0135782 0
M  V30 6346 H 597.746 3.99284 -0.370534 0
M  V30 6347 H 594.336 3.88949 -1.80047 0
M  V30 6348 H 598.52 4.13075 -2.75104 0
M  V30 6349 H 593.776 4.52926 -4.10692 0
M  V30 6350 H 597.95 4.78381 -5.06088 0
M  V30 6351 H 595.577 4.97977 -5.7439 0
M  V30 6352 N 597.152 0.631951 1.44375 0
M  V30 6353 C 598.399 0.136767 2.02038 0
M  V30 6354 C 598.727 -1.24168 1.49709 0
M  V30 6355 O 597.982 -1.83809 0.671763 0
M  V30 6356 C 598.281 0.0735861 3.57324 0
M  V30 6357 C 597.947 1.39092 4.28911 0
M  V30 6358 C 596.609 1.75171 4.48184 0
M  V30 6359 C 598.961 2.26042 4.69632 0
M  V30 6360 C 596.289 2.97907 5.05439 0
M  V30 6361 C 598.641 3.4805 5.28246 0
M  V30 6362 C 597.305 3.84351 5.45738 0
M  V30 6363 H 596.575 0.0500466 0.739308 0
M  V30 6364 H 599.222 0.818429 1.7313 0
M  V30 6365 H 597.527 -0.691449 3.8565 0
M  V30 6366 H 599.224 -0.326091 3.99672 0
M  V30 6367 H 595.814 1.10015 4.1424 0
M  V30 6368 H 599.998 1.99463 4.54454 0
M  V30 6369 H 595.254 3.26108 5.17169 0
M  V30 6370 H 599.428 4.15658 5.5875 0
M  V30 6371 H 597.055 4.79538 5.8987 0
M  V30 6372 N 598.631 -1.53133 0.372548 0
M  V30 6373 C 599.563 -2.23557 -0.505444 0
M  V30 6374 C 600.576 -1.25211 -1.04049 0
M  V30 6375 O 601.765 -1.51391 -0.945675 0
M  V30 6376 C 598.865 -2.92516 -1.71136 0
M  V30 6377 C 598.038 -4.17428 -1.30661 0
M  V30 6378 C 597.097 -4.69535 -2.37536 0
M  V30 6379 O 596.123 -5.33042 -1.99637 0
M  V30 6380 N 597.325 -4.47947 -3.6922 0
M  V30 6381 H 600.09 -2.9954 0.0978259 0
M  V30 6382 H 597.651 -1.60684 0.198068 0
M  V30 6383 H 599.643 -3.24281 -2.42124 0
M  V30 6384 H 598.213 -2.19944 -2.22134 0
M  V30 6385 H 597.433 -3.91888 -0.426292 0
M  V30 6386 H 598.721 -4.98622 -1.01259 0
M  V30 6387 H 598.119 -3.97219 -4.02783 0
M  V30 6388 H 596.676 -4.84245 -4.36292 0
M  V30 6389 N 600.109 -0.101901 -1.5727 0
M  V30 6390 C 601.041 0.884723 -2.11436 0
M  V30 6391 C 602.054 1.24149 -1.05314 0
M  V30 6392 O 603.243 1.19341 -1.3274 0
M  V30 6393 C 600.343 2.19179 -2.58484 0
M  V30 6394 C 599.516 2.00933 -3.88516 0
M  V30 6395 C 598.575 3.15213 -4.2134 0
M  V30 6396 O 597.601 2.88877 -4.90448 0
M  V30 6397 N 598.803 4.41174 -3.77288 0
M  V30 6398 H 601.568 0.422058 -2.96713 0
M  V30 6399 H 599.129 0.0830128 -1.61687 0
M  V30 6400 H 601.121 2.94593 -2.77484 0
M  V30 6401 H 599.691 2.56847 -1.7818 0
M  V30 6402 H 598.911 1.09809 -3.78597 0
M  V30 6403 H 600.199 1.86026 -4.73573 0
M  V30 6404 H 599.597 4.6545 -3.21516 0
M  V30 6405 H 598.154 5.13515 -4.01429 0
M  V30 6406 N 601.587 1.56661 0.17182 0
M  V30 6407 C 602.817 1.85831 0.902804 0
M  V30 6408 C 603.225 0.685157 1.76358 0
M  V30 6409 O 602.568 -0.354947 1.80238 0
M  V30 6410 C 602.63 3.09406 1.83053 0
M  V30 6411 C 602.294 4.4231 1.1494 0
M  V30 6412 C 603.291 5.17342 0.515104 0
M  V30 6413 C 600.976 4.89045 1.14631 0
M  V30 6414 C 602.97 6.37299 -0.113194 0
M  V30 6415 C 600.657 6.08933 0.514184 0
M  V30 6416 C 601.655 6.82904 -0.114463 0
M  V30 6417 O 601.343 8.00518 -0.736622 0
M  V30 6418 H 601.075 0.620715 0.267748 0
M  V30 6419 H 603.629 2.04637 0.176918 0
M  V30 6420 H 601.859 2.86544 2.59672 0
M  V30 6421 H 603.548 3.25027 2.4313 0
M  V30 6422 H 604.314 4.82317 0.509474 0
M  V30 6423 H 600.193 4.31409 1.62502 0
M  V30 6424 H 603.737 6.94976 -0.604477 0
M  V30 6425 H 599.634 6.43423 0.517395 0
M  V30 6426 H 600.402 8.16027 -0.635822 0
M  V30 6427 N 603.065 -0.440357 1.51323 0
M  V30 6428 C 603.975 -1.55955 1.75258 0
M  V30 6429 C 604.991 -1.61933 0.636687 0
M  V30 6430 O 606.167 -1.79231 0.918593 0
M  V30 6431 C 603.232 -2.9196 1.86977 0
M  V30 6432 C 602.293 -2.96122 3.10822 0
M  V30 6433 C 601.526 -4.2564 3.21973 0
M  V30 6434 O 601.749 -5.17851 2.39137 0
M  V30 6435 O 600.683 -4.36025 4.14929 0
M  V30 6436 H 604.509 -1.38673 2.70191 0
M  V30 6437 H 602.094 -0.623055 1.35788 0
M  V30 6438 H 603.976 -3.72682 1.96688 0
M  V30 6439 H 602.651 -3.09375 0.952307 0
M  V30 6440 H 601.558 -2.14366 3.06591 0
M  V30 6441 H 602.891 -2.83651 4.02247 0
M  V30 6442 N 604.543 -1.41418 -0.695603 0
M  V30 6443 C 605.473 -1.46035 -1.82197 0
M  V30 6444 C 606.454 -0.319025 -1.67082 0
M  V30 6445 O 607.639 -0.530462 -1.86815 0
M  V30 6446 C 604.769 -1.34179 -3.20333 0
M  V30 6447 C 603.723 -2.46123 -3.50154 0
M  V30 6448 C 603.049 -2.19332 -4.87645 0
M  V30 6449 C 604.349 -3.88463 -3.49133 0
M  V30 6450 H 606.043 -2.40303 -1.78591 0
M  V30 6451 H 603.589 -1.15663 -0.857797 0
M  V30 6452 H 605.542 -1.36021 -3.98844 0
M  V30 6453 H 604.266 -0.363952 -3.24566 0
M  V30 6454 H 602.925 -2.43563 -2.73994 0
M  V30 6455 H 602.573 -1.19891 -4.88503 0
M  V30 6456 H 602.273 -2.94344 -5.08562 0
M  V30 6457 H 603.797 -2.22889 -5.68465 0
M  V30 6458 H 605.211 -3.92738 -4.17648 0
M  V30 6459 H 603.608 -4.63158 -3.81582 0
M  V30 6460 H 604.678 -4.16617 -2.48109 0
M  V30 6461 N 606.021 0.929856 -1.27246 0
M  V30 6462 C 607.298 1.65544 -1.04186 0
M  V30 6463 C 607.678 2.06796 0.424097 0
M  V30 6464 O 607.026 1.80053 1.40688 0
M  V30 6465 C 607.236 2.85912 -2.00138 0
M  V30 6466 C 608.584 3.57305 -2.29387 0
M  V30 6467 O 609.608 2.96036 -1.98094 0
M  V30 6468 O 608.467 4.67688 -2.82719 0
M  V30 6469 H 605.561 0.725473 -0.397011 0
M  V30 6470 H 608.107 0.980583 -1.38501 0
M  V30 6471 H 606.879 2.52403 -2.99013 0
M  V30 6472 H 606.502 3.61118 -1.66371 0
M  V30 6473 N 607.499 1.09233 1.13605 0
M  V30 6474 C 608.429 0.751738 2.21068 0
M  V30 6475 C 609.41 -0.269688 1.67948 0
M  V30 6476 O 610.595 -0.13819 1.93708 0
M  V30 6477 C 607.725 0.16935 3.46887 0
M  V30 6478 C 606.679 1.12007 4.13084 0
M  V30 6479 C 606.005 0.399483 5.33206 0
M  V30 6480 C 607.305 2.46168 4.6065 0
M  V30 6481 H 608.999 1.65024 2.49815 0
M  V30 6482 H 606.545 0.794905 1.20072 0
M  V30 6483 H 608.498 -0.0809824 4.21322 0
M  V30 6484 H 607.222 -0.764335 3.1753 0
M  V30 6485 H 605.881 1.35564 3.40614 0
M  V30 6486 H 605.529 -0.538277 5.00112 0
M  V30 6487 H 605.229 1.03337 5.78442 0
M  V30 6488 H 606.753 0.157403 6.10397 0
M  V30 6489 H 608.167 2.26829 5.26518 0
M  V30 6490 H 606.564 3.05326 5.1662 0
M  V30 6491 H 607.634 3.07076 3.75276 0
M  V30 6492 N 608.977 -1.30795 0.87923 0
M  V30 6493 C 610.393 -1.48981 0.57243 0
M  V30 6494 C 610.593 -1.80719 -0.891236 0
M  V30 6495 O 609.649 -1.89136 -1.67283 0
M  V30 6496 C 610.962 -2.61721 1.48063 0
M  V30 6497 C 612.51 -2.75603 1.48365 0
M  V30 6498 C 612.985 -3.91449 2.37763 0
M  V30 6499 N 614.476 -3.98751 2.35695 0
M  V30 6500 C 615.211 -4.87684 3.01583 0
M  V30 6501 N 614.707 -5.81454 3.76674 0
M  V30 6502 N 616.5 -4.81005 2.90844 0
M  V30 6503 H 608.651 -1.08465 1.82617 0
M  V30 6504 H 610.914 -0.536813 0.781368 0
M  V30 6505 H 610.62 -2.45073 2.52254 0
M  V30 6506 H 610.494 -3.58071 1.18596 0
M  V30 6507 H 612.881 -2.9166 0.44927 0
M  V30 6508 H 612.962 -1.79891 1.81859 0
M  V30 6509 H 612.606 -3.76149 3.41283 0
M  V30 6510 H 612.536 -4.86487 2.01589 0
M  V30 6511 H 615.027 -3.31668 1.81121 0
M  V30 6512 H 615.34 -6.46063 4.24054 0
M  V30 6513 H 613.685 -5.81403 3.80782 0
M  V30 6514 H 616.876 -4.06728 2.31711 0
M  V30 6515 H 617.049 -5.50107 3.42471 0
M  V30 6516 N 610.455 -0.639598 -1.44038 0
M  V30 6517 C 611.365 0.0612377 -2.3452 0
M  V30 6518 C 612.381 0.826717 -1.53106 0
M  V30 6519 O 613.557 0.777059 -1.85806 0
M  V30 6520 C 610.622 1.02492 -3.31204 0
M  V30 6521 C 609.683 0.25788 -4.28525 0
M  V30 6522 C 608.916 1.17566 -5.2059 0
M  V30 6523 O 609.139 2.41461 -5.16771 0
M  V30 6524 O 608.073 0.655407 -5.98321 0
M  V30 6525 H 611.899 -0.68318 -2.95916 0
M  V30 6526 H 609.484 -0.399784 -1.43952 0
M  V30 6527 H 611.366 1.57911 -3.90694 0
M  V30 6528 H 610.041 1.7498 -2.7233 0
M  V30 6529 H 608.948 -0.339566 -3.72556 0
M  V30 6530 H 610.281 -0.427154 -4.90343 0
M  V30 6531 N 611.933 1.52934 -0.380664 0
M  V30 6532 C 613.344 1.86457 0.0952684 0
M  V30 6533 C 613.695 1.3007 1.46889 0
M  V30 6534 O 612.82 0.628636 2.07068 0
M  V30 6535 C 613.415 3.38323 0.179648 0
M  V30 6536 C 611.974 3.71589 0.599858 0
M  V30 6537 C 611.121 2.76228 -0.243572 0
M  V30 6538 H 614.072 1.46966 -0.59888 0
M  V30 6539 H 614.093 3.67113 1.00042 0
M  V30 6540 H 613.605 3.79333 -0.820228 0
M  V30 6541 H 611.706 3.36144 1.60742 0
M  V30 6542 H 611.819 4.77715 0.364003 0
M  V30 6543 H 610.183 2.53045 0.289855 0
M  V30 6544 H 610.966 3.20074 -1.24127 0
M  V30 6545 N 613.412 0.11024 1.57214 0
M  V30 6546 C 614.375 -0.828808 2.1369 0
M  V30 6547 C 615.375 -1.20059 1.06969 0
M  V30 6548 O 616.565 -1.12754 1.32786 0
M  V30 6549 C 613.697 -2.11959 2.66994 0
M  V30 6550 H 614.89 -0.338146 2.97988 0
M  V30 6551 H 612.443 -0.138913 1.55681 0
M  V30 6552 H 613.178 -2.65476 1.8626 0
M  V30 6553 H 612.963 -1.86258 3.45037 0
M  V30 6554 H 614.453 -2.79105 3.10629 0
M  V30 6555 N 614.89 -1.56749 -0.16351 0
M  V30 6556 C 615.82 -2.00042 -1.20438 0
M  V30 6557 C 616.801 -0.877256 -1.45733 0
M  V30 6558 O 617.986 -1.1439 -1.56935 0
M  V30 6559 C 615.116 -2.36697 -2.54149 0
M  V30 6560 C 614.07 -3.52046 -2.43408 0
M  V30 6561 C 613.396 -3.74466 -3.81679 0
M  V30 6562 C 614.696 -4.85247 -1.93216 0
M  V30 6563 H 616.39 -2.87244 -0.844477 0
M  V30 6564 H 613.936 -1.38194 -0.40478 0
M  V30 6565 H 615.889 -2.65582 -3.27176 0
M  V30 6566 H 614.613 -1.46414 -2.91943 0
M  V30 6567 H 613.272 -3.23301 -1.72834 0
M  V30 6568 H 612.92 -2.81461 -4.1688 0
M  V30 6569 H 612.62 -4.52084 -3.75359 0
M  V30 6570 H 614.144 -4.0576 -4.5628 0
M  V30 6571 H 615.558 -5.12957 -2.56023 0
M  V30 6572 H 613.955 -5.66556 -1.97825 0
M  V30 6573 H 615.025 -4.7672 -0.88689 0
M  V30 6574 N 616.368 0.432326 -1.51554 0
M  V30 6575 C 617.616 1.17901 -1.64146 0
M  V30 6576 C 617.937 1.91604 -0.362367 0
M  V30 6577 O 617.207 1.85764 0.621968 0
M  V30 6578 H 615.787 0.438206 -0.604966 0
M  V30 6579 H 618.449 0.495172 -1.88505 0
M  V30 6580 H 617.545 1.90584 -2.47152 0
M  V30 6581 N 617.846 1.41785 0.688094 0
M  V30 6582 C 618.778 1.40159 1.81351 0
M  V30 6583 C 619.791 0.30262 1.59963 0
M  V30 6584 O 620.98 0.564841 1.69327 0
M  V30 6585 C 618.08 1.16517 3.1824 0
M  V30 6586 C 617.253 2.38597 3.66593 0
M  V30 6587 C 616.312 2.10699 4.82174 0
M  V30 6588 O 615.338 2.83798 4.93404 0
M  V30 6589 N 616.54 1.10187 5.69947 0
M  V30 6590 H 619.305 2.3716 1.83236 0
M  V30 6591 H 616.866 1.36494 0.870697 0
M  V30 6592 H 618.858 0.957941 3.93199 0
M  V30 6593 H 617.428 0.280873 3.11336 0
M  V30 6594 H 616.648 2.74974 2.82459 0
M  V30 6595 H 617.936 3.19919 3.95638 0
M  V30 6596 H 617.334 0.497016 5.63512 0
M  V30 6597 H 615.891 0.954518 6.44773 0
M  V30 6598 N 619.324 -0.923095 1.27737 0
M  V30 6599 C 620.572 -1.66797 1.14119 0
M  V30 6600 C 620.893 -1.92479 -0.312541 0
M  V30 6601 O 620.163 -1.53432 -1.218 0
M  V30 6602 H 618.743 -0.618196 0.419336 0
M  V30 6603 H 621.405 -1.10815 1.60331 0
M  V30 6604 H 620.501 -2.63424 1.67374 0
M  V30 6605 N 620.802 -1.09834 -1.13024 0
M  V30 6606 C 622.027 -0.85909 -1.88771 0
M  V30 6607 C 622.452 0.584402 -1.78791 0
M  V30 6608 O 621.81 1.41101 -1.13842 0
M  V30 6609 C 621.858 -1.30427 -3.36186 0
M  V30 6610 O 620.962 -0.465368 -4.09766 0
M  V30 6611 H 620.303 -0.310786 -0.586778 0
M  V30 6612 H 622.833 -1.46355 -1.42973 0
M  V30 6613 H 622.843 -1.2915 -3.8702 0
M  V30 6614 H 621.518 -2.3555 -3.42767 0
M  V30 6615 H 620.095 -0.542814 -3.68928 0
M  V30 6616 N 622.28 1.30327 -0.886154 0
M  V30 6617 C 623.527 1.96097 -0.505192 0
M  V30 6618 C 623.855 1.69952 0.945868 0
M  V30 6619 O 623.11 0.997653 1.68361 0
M  V30 6620 C 623.409 3.49906 -0.728042 0
M  V30 6621 C 623.075 3.96103 -2.15437 0
M  V30 6622 C 621.737 4.08428 -2.5444 0
M  V30 6623 C 624.089 4.20177 -3.08384 0
M  V30 6624 C 621.417 4.42189 -3.85598 0
M  V30 6625 C 623.769 4.55407 -4.39075 0
M  V30 6626 C 622.433 4.65941 -4.7797 0
M  V30 6627 H 621.703 0.71757 -0.184863 0
M  V30 6628 H 624.35 1.55171 -1.12223 0
M  V30 6629 H 622.655 3.9179 -0.027978 0
M  V30 6630 H 624.352 3.98869 -0.412862 0
M  V30 6631 H 620.942 3.87017 -1.84162 0
M  V30 6632 H 625.126 4.10134 -2.7947 0
M  V30 6633 H 620.382 4.48544 -4.15473 0
M  V30 6634 H 624.556 4.72986 -5.11133 0
M  V30 6635 H 622.183 4.91856 -5.79639 0
M  V30 6636 N 623.758 0.647228 1.43697 0
M  V30 6637 C 624.983 0.164083 2.0675 0
M  V30 6638 C 625.408 -1.15892 1.48158 0
M  V30 6639 O 624.766 -1.71459 0.589194 0
M  V30 6640 C 624.814 0.0800368 3.60511 0
M  V30 6641 O 623.918 -0.959453 4.01084 0
M  V30 6642 H 623.259 0.0921288 0.657578 0
M  V30 6643 H 625.789 0.88846 1.84303 0
M  V30 6644 H 625.799 -0.105263 4.07864 0
M  V30 6645 H 624.474 1.04586 4.02535 0
M  V30 6646 H 623.051 -0.747425 3.65333 0
M  V30 6647 N 625.236 -1.5273 0.388769 0
M  V30 6648 C 626.482 -2.01871 -0.193877 0
M  V30 6649 C 626.815 -1.27475 -1.46505 0
M  V30 6650 O 626.09 -0.375063 -1.90849 0
M  V30 6651 C 626.373 -3.5712 -0.462336 0
M  V30 6652 C 626.226 -4.42186 0.824091 0
M  V30 6653 C 627.545 -4.21881 -1.25319 0
M  V30 6654 H 624.664 -0.733764 -0.0689899 0
M  V30 6655 H 627.306 -1.82796 0.518231 0
M  V30 6656 H 625.456 -3.73504 -1.06896 0
M  V30 6657 H 627.128 -4.37554 1.46096 0
M  V30 6658 H 625.371 -4.09219 1.43952 0
M  V30 6659 H 626.042 -5.48828 0.590905 0
M  V30 6660 H 628.518 -4.0947 -0.73981 0
M  V30 6661 H 627.394 -5.30487 -1.40977 0
M  V30 6662 H 627.655 -3.79478 -2.26824 0
M  V30 6663 N 626.714 -0.118576 -1.57153 0
M  V30 6664 C 627.954 0.542618 -1.97066 0
M  V30 6665 C 628.318 1.63874 -1.00046 0
M  V30 6666 O 629.519 2.3588 -1.28895 0
M  V30 6667 C 627.79 1.06196 -3.41258 0
M  V30 6668 S 629.349 1.73174 -4.03183 0
M  V30 6669 H 626.167 0.17638 -0.688775 0
M  V30 6670 H 628.769 -0.203556 -1.94437 0
M  V30 6671 H 627.473 0.253016 -4.09619 0
M  V30 6672 H 627.004 1.84342 -3.47536 0
M  V30 6673 H 629.019 3.01749 -3.93906 0
M  V30 6674 N 628.193 1.56834 0.155195 0
M  V30 6675 C 629.609 1.51315 0.50755 0
M  V30 6676 C 629.809 0.825614 1.83809 0
M  V30 6677 O 628.865 0.39271 2.49427 0
M  V30 6678 C 630.178 2.96074 0.52542 0
M  V30 6679 C 631.726 3.06968 0.611505 0
M  V30 6680 C 632.201 4.53218 0.660115 0
M  V30 6681 N 633.692 4.5753 0.722564 0
M  V30 6682 C 634.427 5.68056 0.781023 0
M  V30 6683 N 633.923 6.88173 0.799327 0
M  V30 6684 N 635.716 5.56068 0.821278 0
M  V30 6685 H 627.867 1.9993 -0.717063 0
M  V30 6686 H 630.13 0.911507 -0.260496 0
M  V30 6687 H 629.836 3.49599 -0.383875 0
M  V30 6688 H 629.71 3.51587 1.36624 0
M  V30 6689 H 632.097 2.53468 1.51122 0
M  V30 6690 H 632.178 2.54513 -0.256306 0
M  V30 6691 H 631.822 5.07354 -0.23541 0
M  V30 6692 H 631.752 5.03447 1.5443 0
M  V30 6693 H 634.243 3.71054 0.716049 0
M  V30 6694 H 634.556 7.6816 0.845553 0
M  V30 6695 H 632.901 6.90751 0.767337 0
M  V30 6696 H 636.092 4.61142 0.804091 0
M  V30 6697 H 636.265 6.42223 0.863372 0
M  V30 6698 N 629.671 -0.424282 1.51781 0
M  V30 6699 C 631.087 -0.761768 1.40247 0
M  V30 6700 C 631.287 -1.95324 0.495041 0
M  V30 6701 O 630.343 -2.5246 -0.0448949 0
M  V30 6702 C 631.656 -1.0299 2.82513 0
M  V30 6703 C 633.204 -1.13354 2.91753 0
M  V30 6704 C 633.679 -1.43453 4.34954 0
M  V30 6705 N 635.17 -1.5035 4.3812 0
M  V30 6706 C 635.905 -1.75236 5.45967 0
M  V30 6707 N 635.401 -1.97827 6.63955 0
M  V30 6708 N 637.194 -1.77126 5.33463 0
M  V30 6709 H 629.345 0.360228 2.09323 0
M  V30 6710 H 631.608 0.0988128 0.942836 0
M  V30 6711 H 631.314 -0.226961 3.50967 0
M  V30 6712 H 631.188 -1.95411 3.22637 0
M  V30 6713 H 633.575 -1.92709 2.23489 0
M  V30 6714 H 633.656 -0.188041 2.55108 0
M  V30 6715 H 633.3 -0.646209 5.03772 0
M  V30 6716 H 633.23 -2.3923 4.69123 0
M  V30 6717 H 635.721 -1.34742 3.53062 0
M  V30 6718 H 636.034 -2.16223 7.41935 0
M  V30 6719 H 634.379 -1.95123 6.67047 0
M  V30 6720 H 637.57 -1.59005 4.40267 0
M  V30 6721 H 637.743 -1.96182 6.17589 0
M  V30 6722 N 631.149 -1.42148 -0.680565 0
M  V30 6723 C 632.389 -1.4379 -1.45271 0
M  V30 6724 C 632.753 -0.0504426 -1.91934 0
M  V30 6725 O 633.954 0.0583916 -2.68737 0
M  V30 6726 C 632.225 -2.42904 -2.62168 0
M  V30 6727 S 633.784 -2.63201 -3.51099 0
M  V30 6728 H 630.602 -0.509185 -0.496237 0
M  V30 6729 H 633.204 -1.78706 -0.792744 0
M  V30 6730 H 631.908 -3.4249 -2.26116 0
M  V30 6731 H 631.439 -2.09394 -3.33043 0
M  V30 6732 H 633.454 -1.91068 -4.57938 0
M  V30 6733 N 632.627 0.916307 -1.28225 0
M  V30 6734 C 634.043 1.19425 -1.05876 0
M  V30 6735 C 634.243 2.005 0.2005 0
M  V30 6736 O 633.299 2.35806 0.902873 0
M  V30 6737 C 634.612 1.93133 -2.30478 0
M  V30 6738 C 636.16 2.06026 -2.35632 0
M  V30 6739 C 636.635 2.83141 -3.59994 0
M  V30 6740 N 638.126 2.90704 -3.60618 0
M  V30 6741 C 638.861 3.50865 -4.53521 0
M  V30 6742 N 638.357 4.12327 -5.56739 0
M  V30 6743 N 640.15 3.48379 -4.41122 0
M  V30 6744 H 632.301 0.37496 -2.09064 0
M  V30 6745 H 634.564 0.228531 -0.920042 0
M  V30 6746 H 634.27 1.40985 -3.22205 0
M  V30 6747 H 634.144 2.93696 -2.36691 0
M  V30 6748 H 636.531 2.57355 -1.44404 0
M  V30 6749 H 636.612 1.04647 -2.33415 0
M  V30 6750 H 636.256 2.32492 -4.51564 0
M  V30 6751 H 636.186 3.84829 -3.59464 0
M  V30 6752 H 638.677 2.47034 -2.85977 0
M  V30 6753 H 638.99 4.56205 -6.23776 0
M  V30 6754 H 637.335 4.10839 -5.60568 0
M  V30 6755 H 640.526 2.99572 -3.59686 0
M  V30 6756 H 640.699 3.94974 -5.13712 0
M  V30 6757 N 634.105 1.10431 1.1244 0
M  V30 6758 C 635.037 0.710945 2.17895 0
M  V30 6759 C 636.05 -0.252315 1.60833 0
M  V30 6760 O 637.239 -0.03679 1.78462 0
M  V30 6761 C 634.339 0.0284262 3.38888 0
M  V30 6762 C 633.512 1.01585 4.2544 0
M  V30 6763 C 632.571 0.364826 5.24934 0
M  V30 6764 O 631.597 1.01561 5.60066 0
M  V30 6765 N 632.799 -0.87674 5.73841 0
M  V30 6766 H 635.564 1.61826 2.52255 0
M  V30 6767 H 633.125 0.993132 1.27861 0
M  V30 6768 H 635.117 -0.418568 4.0253 0
M  V30 6769 H 633.687 -0.781294 3.02679 0
M  V30 6770 H 632.907 1.64111 3.58415 0
M  V30 6771 H 634.195 1.68425 4.80115 0
M  V30 6772 H 633.593 -1.42483 5.47462 0
M  V30 6773 H 632.15 -1.26688 6.39369 0
M  V30 6774 N 635.583 -1.29855 0.893053 0
M  V30 6775 C 636.999 -1.48366 0.588199 0
M  V30 6776 C 637.199 -1.81654 -0.872018 0
M  V30 6777 O 636.255 -1.909 -1.65268 0
M  V30 6778 C 637.568 -2.60136 1.5083 0
M  V30 6779 C 639.116 -2.74014 1.51279 0
M  V30 6780 C 639.591 -3.88905 2.41902 0
M  V30 6781 N 641.082 -3.96228 2.39911 0
M  V30 6782 C 641.817 -4.84458 3.06738 0
M  V30 6783 N 641.313 -5.77426 3.8282 0
M  V30 6784 N 643.106 -4.77894 2.95929 0
M  V30 6785 H 635.257 -1.06522 1.83757 0
M  V30 6786 H 637.52 -0.528495 0.787018 0
M  V30 6787 H 637.226 -2.42383 2.54839 0
M  V30 6788 H 637.1 -3.56793 1.22388 0
M  V30 6789 H 639.487 -2.91167 0.480179 0
M  V30 6790 H 639.568 -1.77952 1.83757 0
M  V30 6791 H 639.212 -3.72508 3.45253 0
M  V30 6792 H 639.142 -4.84322 2.06737 0
M  V30 6793 H 641.633 -3.29728 1.84629 0
M  V30 6794 H 641.946 -6.41529 4.30883 0
M  V30 6795 H 640.291 -5.77332 3.86927 0
M  V30 6796 H 643.482 -4.04248 2.36012 0
M  V30 6797 H 643.655 -5.46444 3.48286 0
M  V30 6798 N 637.061 -0.65484 -1.43351 0
M  V30 6799 C 637.993 0.0744757 -2.29079 0
M  V30 6800 C 639.006 0.7855 -1.42596 0
M  V30 6801 O 640.195 0.642986 -1.66517 0
M  V30 6802 C 637.295 1.12859 -3.19556 0
M  V30 6803 C 636.468 0.495381 -4.34586 0
M  V30 6804 C 635.527 1.44659 -5.05925 0
M  V30 6805 O 634.553 0.954567 -5.61139 0
M  V30 6806 N 635.755 2.78051 -5.09576 0
M  V30 6807 H 638.52 -0.661346 -2.92312 0
M  V30 6808 H 636.081 -0.497744 -1.54059 0
M  V30 6809 H 638.073 1.76577 -3.64147 0
M  V30 6810 H 636.643 1.76636 -2.57912 0
M  V30 6811 H 635.863 -0.32092 -3.92892 0
M  V30 6812 H 637.151 0.0534203 -5.08772 0
M  V30 6813 H 636.549 3.20584 -4.66093 0
M  V30 6814 H 635.106 3.37068 -5.57878 0
M  V30 6815 N 638.539 1.52521 -0.396863 0
M  V30 6816 C 639.764 2.06571 0.185258 0
M  V30 6817 C 640.189 1.26605 1.39115 0
M  V30 6818 O 639.547 0.293055 1.78916 0
M  V30 6819 C 639.595 3.5674 0.526189 0
M  V30 6820 O 638.699 3.7929 1.61903 0
M  V30 6821 H 638.04 0.663712 0.0195474 0
M  V30 6822 H 640.57 1.966 -0.566519 0
M  V30 6823 H 640.58 4.00311 0.788338 0
M  V30 6824 H 639.255 4.14379 -0.355397 0
M  V30 6825 H 637.832 3.47605 1.35 0
M  V30 6826 N 640.017 0.126909 1.57088 0
M  V30 6827 C 641.265 -0.528123 1.95078 0
M  V30 6828 C 641.586 -1.66708 1.0116 0
M  V30 6829 O 640.856 -1.95777 0.0693527 0
M  V30 6830 H 639.436 -0.198087 0.720257 0
M  V30 6831 H 642.098 0.197703 1.93895 0
M  V30 6832 H 641.194 -0.917507 2.98309 0
M  V30 6833 N 641.495 -1.56914 -0.146875 0
M  V30 6834 C 642.427 -1.94878 -1.20645 0
M  V30 6835 C 643.44 -0.844633 -1.39175 0
M  V30 6836 O 644.629 -1.12304 -1.38744 0
M  V30 6837 C 641.729 -2.20769 -2.57127 0
M  V30 6838 C 640.902 -3.52053 -2.59572 0
M  V30 6839 C 639.961 -3.66482 -3.77594 0
M  V30 6840 O 638.987 -4.38873 -3.62462 0
M  V30 6841 N 640.189 -3.03156 -4.95052 0
M  V30 6842 H 642.954 -2.86374 -0.883757 0
M  V30 6843 H 640.515 -1.58366 -0.336436 0
M  V30 6844 H 642.507 -2.27664 -3.34591 0
M  V30 6845 H 641.077 -1.35538 -2.81688 0
M  V30 6846 H 640.297 -3.56598 -1.68023 0
M  V30 6847 H 641.585 -4.38396 -2.58238 0
M  V30 6848 H 640.983 -2.44258 -5.10249 0
M  V30 6849 H 639.54 -3.15611 -5.70292 0
M  V30 6850 N 642.974 0.416227 -1.52004 0
M  V30 6851 C 643.884 1.53147 -1.77717 0
M  V30 6852 C 644.9 1.609 -0.662368 0
M  V30 6853 O 646.076 1.77747 -0.946991 0
M  V30 6854 C 643.141 2.88948 -1.91598 0
M  V30 6855 C 642.202 2.9114 -3.15493 0
M  V30 6856 C 641.435 4.20464 -3.28703 0
M  V30 6857 O 641.658 5.13981 -2.47345 0
M  V30 6858 O 640.592 4.29368 -4.21813 0
M  V30 6859 H 644.418 1.34357 -2.72363 0
M  V30 6860 H 642.003 0.601373 -1.36762 0
M  V30 6861 H 643.885 3.69505 -2.02593 0
M  V30 6862 H 642.56 3.07821 -1.00141 0
M  V30 6863 H 641.467 2.09461 -3.09962 0
M  V30 6864 H 642.8 2.77216 -4.06709 0
M  V30 6865 N 644.452 1.42507 0.673017 0
M  V30 6866 C 645.699 1.43072 1.43306 0
M  V30 6867 C 646.027 0.0478004 1.94441 0
M  V30 6868 O 645.282 -0.944106 1.71421 0
M  V30 6869 C 645.581 2.40351 2.64511 0
M  V30 6870 C 645.247 3.8669 2.31908 0
M  V30 6871 C 643.909 4.26551 2.22728 0
M  V30 6872 C 646.261 4.78991 2.05467 0
M  V30 6873 C 643.589 5.56691 1.85234 0
M  V30 6874 C 645.941 6.09476 1.69477 0
M  V30 6875 C 644.605 6.48334 1.58808 0
M  V30 6876 H 643.875 0.523536 0.524395 0
M  V30 6877 H 646.522 1.75459 0.76723 0
M  V30 6878 H 644.827 2.01297 3.36135 0
M  V30 6879 H 646.524 2.38051 3.22696 0
M  V30 6880 H 643.114 3.55132 2.39956 0
M  V30 6881 H 647.298 4.48982 2.11492 0
M  V30 6882 H 642.554 5.85657 1.75545 0
M  V30 6883 H 646.728 6.80482 1.48043 0
M  V30 6884 H 644.355 7.49084 1.29525 0
M  V30 6885 N 645.93 -0.909495 1.28709 0
M  V30 6886 C 646.893 -1.99399 1.13016 0
M  V30 6887 C 647.893 -1.60654 0.068536 0
M  V30 6888 O 649.083 -1.71334 0.314671 0
M  V30 6889 C 646.215 -3.33078 0.726085 0
M  V30 6890 H 647.408 -2.14751 2.09338 0
M  V30 6891 H 644.961 -1.09272 1.11756 0
M  V30 6892 H 645.696 -3.23428 -0.23771 0
M  V30 6893 H 645.481 -3.62562 1.49302 0
M  V30 6894 H 646.971 -4.12681 0.639058 0
M  V30 6895 N 647.408 -1.11026 -1.11852 0
M  V30 6896 C 648.654 -0.857729 -1.83768 0
M  V30 6897 C 648.987 0.615143 -1.842 0
M  V30 6898 O 648.262 1.45391 -1.29196 0
M  V30 6899 C 648.545 -1.41453 -3.31154 0
M  V30 6900 C 648.398 -2.95471 -3.39142 0
M  V30 6901 C 649.717 -1.0619 -4.27097 0
M  V30 6902 H 646.836 -0.313044 -0.667212 0
M  V30 6903 H 649.478 -1.37443 -1.31185 0
M  V30 6904 H 647.628 -0.975052 -3.76065 0
M  V30 6905 H 649.3 -3.4799 -3.02821 0
M  V30 6906 H 647.543 -3.31759 -2.79497 0
M  V30 6907 H 648.214 -3.29515 -4.42859 0
M  V30 6908 H 650.69 -1.44122 -3.90344 0
M  V30 6909 H 649.566 -1.47832 -5.28618 0
M  V30 6910 H 649.827 0.0278912 -4.42091 0
M  V30 6911 N 648.886 1.2938 -0.899927 0
M  V30 6912 C 649.833 2.27713 -0.376243 0
M  V30 6913 C 650.803 1.57016 0.541774 0
M  V30 6914 O 651.988 1.84997 0.466966 0
M  V30 6915 C 649.128 3.42889 0.39 0
M  V30 6916 C 648.241 4.28369 -0.558938 0
M  V30 6917 C 647.376 5.30726 0.224379 0
M  V30 6918 C 646.415 6.07862 -0.719068 0
M  V30 6919 N 645.552 7.02094 0.0298569 0
M  V30 6920 H 650.392 2.71888 -1.21988 0
M  V30 6921 H 647.929 1.33724 -0.612879 0
M  V30 6922 H 649.887 4.08443 0.850314 0
M  V30 6923 H 648.517 2.99743 1.19809 0
M  V30 6924 H 647.569 3.62986 -1.13777 0
M  V30 6925 H 648.881 4.82068 -1.2811 0
M  V30 6926 H 648.035 6.02098 0.745881 0
M  V30 6927 H 646.774 4.77759 0.979674 0
M  V30 6928 H 645.779 5.35353 -1.25207 0
M  V30 6929 H 647.004 6.62917 -1.4737 0
M  V30 6930 H 644.95 6.51496 0.767415 0
M  V30 6931 H 644.867 7.5335 -0.632391 0
M  V30 6932 H 646.135 7.77685 0.531615 0
M  V30 6933 N 650.364 0.662433 1.43002 0
M  V30 6934 C 651.613 0.176873 2.00923 0
M  V30 6935 C 651.926 -1.21954 1.52927 0
M  V30 6936 O 653.132 -1.80081 2.03182 0
M  V30 6937 C 651.588 0.265379 3.5892 0
M  V30 6938 C 651.196 1.66507 4.15908 0
M  V30 6939 C 652.94 -0.162103 4.2419 0
M  V30 6940 C 650.847 1.707 5.66229 0
M  V30 6941 H 649.777 0.0623627 0.751417 0
M  V30 6942 H 652.428 0.825813 1.63868 0
M  V30 6943 H 650.81 -0.451235 3.93421 0
M  V30 6944 H 651.984 2.40777 3.92891 0
M  V30 6945 H 650.299 2.03932 3.63044 0
M  V30 6946 H 652.896 -0.150745 5.34487 0
M  V30 6947 H 653.239 -1.19519 3.98774 0
M  V30 6948 H 653.772 0.503075 3.94606 0
M  V30 6949 H 650.511 2.7195 5.96426 0
M  V30 6950 H 650.031 1.00768 5.91275 0
M  V30 6951 H 651.71 1.45487 6.3043 0
M  V30 6952 N 651.842 -1.52309 0.404946 0
M  V30 6953 C 652.772 -2.29805 -0.41376 0
M  V30 6954 C 653.753 -1.3384 -1.0498 0
M  V30 6955 O 654.938 -1.62745 -1.05961 0
M  V30 6956 C 652.068 -3.11639 -1.53292 0
M  V30 6957 C 651.022 -4.15616 -1.02211 0
M  V30 6958 C 650.348 -4.8577 -2.23455 0
M  V30 6959 C 651.648 -5.2224 -0.0790725 0
M  V30 6960 H 653.342 -2.98493 0.232878 0
M  V30 6961 H 650.888 -1.43552 0.113441 0
M  V30 6962 H 652.841 -3.64618 -2.11262 0
M  V30 6963 H 651.565 -2.40712 -2.20738 0
M  V30 6964 H 650.224 -3.63641 -0.46484 0
M  V30 6965 H 649.872 -4.11376 -2.89445 0
M  V30 6966 H 649.572 -5.56058 -1.89929 0
M  V30 6967 H 651.096 -5.4156 -2.82038 0
M  V30 6968 H 652.51 -5.70485 -0.567438 0
M  V30 6969 H 650.907 -5.99867 0.167167 0
M  V30 6970 H 651.977 -4.77078 0.867447 0
M  V30 6971 N 653.32 -0.135238 -1.57019 0
M  V30 6972 C 654.545 0.529343 -2.00531 0
M  V30 6973 C 654.97 1.58391 -1.01459 0
M  V30 6974 O 654.328 1.81296 0.0113986 0
M  V30 6975 C 654.376 1.11748 -3.42848 0
M  V30 6976 O 653.48 2.23267 -3.46736 0
M  V30 6977 H 652.821 0.130669 -0.651016 0
M  V30 6978 H 655.351 -0.228503 -2.0332 0
M  V30 6979 H 655.361 1.44905 -3.81401 0
M  V30 6980 H 654.036 0.345147 -4.14465 0
M  V30 6981 H 652.613 1.91428 -3.20015 0
M  V30 6982 N 654.798 1.5699 0.138552 0
M  V30 6983 C 656.214 1.51844 0.491472 0
M  V30 6984 C 656.414 0.845063 1.82923 0
M  V30 6985 O 655.47 0.419143 2.48997 0
M  V30 6986 C 656.783 2.96615 0.493987 0
M  V30 6987 C 658.331 3.076 0.578913 0
M  V30 6988 C 658.806 4.53893 0.612009 0
M  V30 6989 N 660.297 4.5827 0.673997 0
M  V30 6990 C 661.032 5.68852 0.720729 0
M  V30 6991 N 660.528 6.88982 0.726292 0
M  V30 6992 N 662.321 5.56908 0.762253 0
M  V30 6993 H 654.472 1.99158 -0.738228 0
M  V30 6994 H 656.735 0.908693 -0.270149 0
M  V30 6995 H 656.441 3.49172 -0.420933 0
M  V30 6996 H 656.315 3.53017 1.32887 0
M  V30 6997 H 658.702 2.55057 1.48425 0
M  V30 6998 H 658.783 2.54227 -0.283286 0
M  V30 6999 H 658.427 5.07076 -0.289208 0
M  V30 7000 H 658.357 5.05057 1.49082 0
M  V30 7001 H 660.848 3.71793 0.676654 0
M  V30 7002 H 661.161 7.69014 0.764032 0
M  V30 7003 H 659.506 6.91526 0.69403 0
M  V30 7004 H 662.697 4.61969 0.755135 0
M  V30 7005 H 662.87 6.43102 0.795207 0
M  V30 7006 N 656.276 -0.40816 1.52223 0
M  V30 7007 C 657.692 -0.74685 1.41047 0
M  V30 7008 C 657.892 -1.94788 0.51573 0
M  V30 7009 O 656.948 -2.52494 -0.0181156 0
M  V30 7010 C 658.261 -0.999878 2.83589 0
M  V30 7011 C 659.809 -1.10253 2.92939 0
M  V30 7012 C 660.284 -1.38832 4.36451 0
M  V30 7013 N 661.775 -1.45694 4.3969 0
M  V30 7014 C 662.51 -1.69435 5.47795 0
M  V30 7015 N 662.006 -1.90774 6.66016 0
M  V30 7016 N 663.799 -1.71458 5.35312 0
M  V30 7017 H 655.95 0.382409 2.08929 0
M  V30 7018 H 658.213 0.108807 0.941735 0
M  V30 7019 H 657.919 -0.189723 3.51188 0
M  V30 7020 H 657.793 -1.91978 3.24691 0
M  V30 7021 H 660.18 -1.90328 2.2552 0
M  V30 7022 H 660.261 -0.160973 2.55293 0
M  V30 7023 H 659.905 -0.592741 5.04429 0
M  V30 7024 H 659.835 -2.34241 4.71634 0
M  V30 7025 H 662.326 -1.3099 3.54472 0
M  V30 7026 H 662.639 -2.08342 7.44186 0
M  V30 7027 H 660.984 -1.88037 6.69079 0
M  V30 7028 H 664.175 -1.54326 4.41929 0
M  V30 7029 H 664.348 -1.89621 6.19635 0
M  V30 7030 N 657.755 -1.42862 -0.66545 0
M  V30 7031 C 658.685 -1.49867 -1.79059 0
M  V30 7032 C 659.666 -0.354394 -1.66367 0
M  V30 7033 O 660.851 -0.569969 -1.85647 0
M  V30 7034 C 657.981 -1.40943 -3.17415 0
M  V30 7035 C 656.935 -2.53495 -3.44854 0
M  V30 7036 C 656.261 -2.29626 -4.82883 0
M  V30 7037 C 657.561 -3.95781 -3.40815 0
M  V30 7038 H 659.255 -2.44037 -1.73453 0
M  V30 7039 H 656.801 -1.17456 -0.833071 0
M  V30 7040 H 658.754 -1.4445 -3.95869 0
M  V30 7041 H 657.478 -0.432716 -3.23721 0
M  V30 7042 H 656.137 -2.4932 -2.68766 0
M  V30 7043 H 655.785 -1.30226 -4.8585 0
M  V30 7044 H 655.485 -3.05065 -5.02204 0
M  V30 7045 H 657.009 -2.34897 -5.63609 0
M  V30 7046 H 658.423 -4.01508 -4.09224 0
M  V30 7047 H 656.82 -4.71148 -3.71672 0
M  V30 7048 H 657.89 -4.21786 -2.39216 0
M  V30 7049 N 659.233 0.902656 -1.29189 0
M  V30 7050 C 660.143 2.03946 -1.15944 0
M  V30 7051 C 661.159 1.738 -0.0833803 0
M  V30 7052 O 662.335 1.9923 -0.29487 0
M  V30 7053 C 659.4 3.36519 -0.834006 0
M  V30 7054 C 658.461 3.80203 -1.9936 0
M  V30 7055 C 657.694 5.06449 -1.68359 0
M  V30 7056 O 657.917 5.67202 -0.603141 0
M  V30 7057 O 656.851 5.46114 -2.53067 0
M  V30 7058 H 660.677 2.18043 -2.11403 0
M  V30 7059 H 658.262 1.02584 -1.08613 0
M  V30 7060 H 660.144 4.16089 -0.666949 0
M  V30 7061 H 658.819 3.23573 0.0908245 0
M  V30 7062 H 657.726 3.01413 -2.21588 0
M  V30 7063 H 659.059 3.97729 -2.89952 0
M  V30 7064 N 660.711 1.11618 1.11262 0
M  V30 7065 C 661.674 0.779447 2.15539 0
M  V30 7066 C 662.674 -0.202081 1.59525 0
M  V30 7067 O 663.864 0.0226356 1.74185 0
M  V30 7068 C 660.996 0.15674 3.40539 0
M  V30 7069 H 662.189 1.70324 2.4684 0
M  V30 7070 H 659.742 0.918298 1.26479 0
M  V30 7071 H 660.477 -0.777186 3.1485 0
M  V30 7072 H 660.262 0.863308 3.82478 0
M  V30 7073 H 661.752 -0.062661 4.17553 0
M  V30 7074 N 662.189 -1.289 0.906776 0
M  V30 7075 C 663.137 -2.29477 0.379873 0
M  V30 7076 C 664.131 -1.61068 -0.524747 0
M  V30 7077 O 665.337 -1.75344 -0.406765 0
M  V30 7078 H 661.712 -0.744742 0.10423 0
M  V30 7079 H 663.683 -2.71353 1.24137 0
M  V30 7080 C 662.432 -3.45713 -0.371154 0
M  V30 7081 H 661.755 -3.98551 0.315716 0
M  V30 7082 H 663.195 -4.18105 -0.704581 0
M  V30 7083 C 661.654 -2.9774 -1.57646 0
M  V30 7084 O 662.184 -2.99618 -2.67567 0
M  V30 7085 N 660.39 -2.53485 -1.42105 0
M  V30 7086 H 659.937 -2.52156 -0.526783 0
M  V30 7087 H 659.895 -2.21747 -2.22881 0
M  V30 7088 N 663.667 -0.670007 -1.42649 0
M  V30 7089 C 664.895 -0.19854 -2.05945 0
M  V30 7090 C 665.31 1.14243 -1.50313 0
M  V30 7091 O 664.667 1.70872 -0.641027 0
M  V30 7092 C 664.718 -0.11966 -3.61302 0
M  V30 7093 O 664.439 -1.40764 -4.1487 0
M  V30 7094 C 665.94 0.375878 -4.41704 0
M  V30 7095 H 663.16 -0.0976894 -0.663851 0
M  V30 7096 H 665.704 -0.915392 -1.82868 0
M  V30 7097 H 663.859 0.547851 -3.83507 0
M  V30 7098 H 664.273 -1.27784 -5.08696 0
M  V30 7099 H 665.747 0.379988 -5.50691 0
M  V30 7100 H 666.224 1.41028 -4.15942 0
M  V30 7101 H 666.83 -0.259727 -4.24506 0
M  V30 7102 N 665.145 1.52092 -0.413018 0
M  V30 7103 C 666.077 2.24819 0.445994 0
M  V30 7104 C 667.09 1.27925 1.00692 0
M  V30 7105 O 668.279 1.53845 0.905204 0
M  V30 7106 C 665.379 2.96951 1.6332 0
M  V30 7107 C 664.552 4.20746 1.19548 0
M  V30 7108 C 663.611 4.75668 2.25003 0
M  V30 7109 O 662.637 5.38148 1.85434 0
M  V30 7110 N 663.839 4.57579 3.57214 0
M  V30 7111 H 666.604 2.99176 -0.177209 0
M  V30 7112 H 664.165 1.60102 -0.240601 0
M  V30 7113 H 666.157 3.30586 2.33441 0
M  V30 7114 H 664.727 2.25756 2.16225 0
M  V30 7115 H 663.947 3.92881 0.32224 0
M  V30 7116 H 665.235 5.01132 0.880033 0
M  V30 7117 H 664.633 4.07758 3.92109 0
M  V30 7118 H 663.19 4.95642 4.23299 0
M  V30 7119 N 666.623 0.143563 1.56945 0
M  V30 7120 C 668.039 -0.212877 1.58174 0
M  V30 7121 C 668.239 -1.64926 1.15766 0
M  V30 7122 O 667.295 -2.37535 0.856361 0
M  V30 7123 C 668.608 0.0427573 3.0067 0
M  V30 7124 C 670.156 -0.0212221 3.12993 0
M  V30 7125 C 670.631 0.207036 4.57532 0
M  V30 7126 N 672.122 0.153845 4.62944 0
M  V30 7127 C 672.857 0.305018 5.72588 0
M  V30 7128 N 672.353 0.513722 6.90893 0
M  V30 7129 N 674.146 0.242862 5.61575 0
M  V30 7130 H 666.297 1.08148 1.82805 0
M  V30 7131 H 668.56 0.427831 0.84597 0
M  V30 7132 H 668.266 1.03672 3.36073 0
M  V30 7133 H 668.14 -0.678195 3.71053 0
M  V30 7134 H 670.527 -1.00574 2.77433 0
M  V30 7135 H 670.608 0.732004 2.45103 0
M  V30 7136 H 670.252 1.18863 4.93795 0
M  V30 7137 H 670.182 -0.566473 5.23544 0
M  V30 7138 H 672.673 -0.00294866 3.779 0
M  V30 7139 H 672.986 0.619273 7.70315 0
M  V30 7140 H 671.331 0.550001 6.9282 0
M  V30 7141 H 674.522 0.0806015 4.68031 0
M  V30 7142 H 674.695 0.364112 6.46976 0
M  V30 7143 N 668.101 -1.57061 -0.130224 0
M  V30 7144 C 669.011 -2.02802 -1.17934 0
M  V30 7145 C 670.027 -0.946378 -1.46013 0
M  V30 7146 O 671.203 -1.25708 -1.57351 0
M  V30 7147 C 668.268 -2.41368 -2.48882 0
M  V30 7148 C 667.329 -3.63561 -2.28301 0
M  V30 7149 C 666.562 -4.00279 -3.53005 0
M  V30 7150 O 666.785 -3.37463 -4.59864 0
M  V30 7151 O 665.719 -4.93441 -3.44673 0
M  V30 7152 H 669.545 -2.92394 -0.820958 0
M  V30 7153 H 667.13 -1.45475 -0.340197 0
M  V30 7154 H 669.012 -2.66958 -3.26054 0
M  V30 7155 H 667.687 -1.54926 -2.84217 0
M  V30 7156 H 666.594 -3.43136 -1.49025 0
M  V30 7157 H 667.927 -4.50673 -1.97875 0
M  V30 7158 N 669.579 0.400081 -1.52437 0
M  V30 7159 C 670.825 1.14788 -1.67187 0
M  V30 7160 C 671.158 1.89928 -0.405074 0
M  V30 7161 O 670.433 1.85118 0.596804 0
M  V30 7162 C 670.716 2.13507 -2.89977 0
M  V30 7163 C 670.569 1.42204 -4.2673 0
M  V30 7164 C 671.888 3.14069 -3.083 0
M  V30 7165 H 669.007 0.415939 -0.608411 0
M  V30 7166 H 671.649 0.432542 -1.85011 0
M  V30 7167 H 669.799 2.7451 -2.74912 0
M  V30 7168 H 671.471 0.842503 -4.53541 0
M  V30 7169 H 669.714 0.723939 -4.27717 0
M  V30 7170 H 670.385 2.14281 -5.08712 0
M  V30 7171 H 672.861 2.63148 -3.22323 0
M  V30 7172 H 671.737 3.80398 -3.95713 0
M  V30 7173 H 671.998 3.82309 -2.22018 0
M  V30 7174 N 671.057 1.43213 0.657864 0
M  V30 7175 C 672.02 1.47687 1.75275 0
M  V30 7176 C 673.02 0.362179 1.56668 0
M  V30 7177 O 674.21 0.623734 1.62651 0
M  V30 7178 C 671.342 1.32497 3.14098 0
M  V30 7179 H 672.535 2.4519 1.7269 0
M  V30 7180 H 670.088 1.2991 0.869087 0
M  V30 7181 H 670.823 0.359831 3.22298 0
M  V30 7182 H 670.608 2.13299 3.29008 0
M  V30 7183 H 672.098 1.38549 3.93946 0
M  V30 7184 N 672.536 -0.895792 1.29666 0
M  V30 7185 C 673.499 -1.98189 1.15124 0
M  V30 7186 C 674.499 -1.60572 0.0855717 0
M  V30 7187 O 675.689 -1.70991 0.332826 0
M  V30 7188 C 672.821 -3.32289 0.761372 0
M  V30 7189 H 674.014 -2.12518 2.11603 0
M  V30 7190 H 671.567 -1.0808 1.12908 0
M  V30 7191 H 672.302 -3.23662 -0.203393 0
M  V30 7192 H 672.087 -3.60958 1.53139 0
M  V30 7193 H 673.577 -4.1198 0.682792 0
M  V30 7194 N 674.014 -1.12206 -1.10668 0
M  V30 7195 C 674.944 -0.810086 -2.18997 0
M  V30 7196 C 675.925 0.225065 -1.68604 0
M  V30 7197 O 677.11 0.086783 -1.94006 0
M  V30 7198 C 674.24 -0.261262 -3.46316 0
M  V30 7199 C 673.194 -1.2292 -4.09969 0
M  V30 7200 C 672.52 -0.540713 -5.31959 0
M  V30 7201 C 673.82 -2.58295 -4.53962 0
M  V30 7202 H 675.514 -1.7159 -2.45352 0
M  V30 7203 H 673.06 -0.82646 -1.17922 0
M  V30 7204 H 675.013 -0.0307522 -4.21389 0
M  V30 7205 H 673.737 0.679879 -3.19445 0
M  V30 7206 H 672.396 -1.44548 -3.369 0
M  V30 7207 H 672.044 0.405492 -5.01363 0
M  V30 7208 H 671.744 -1.18637 -5.75499 0
M  V30 7209 H 673.268 -0.319184 -6.09765 0
M  V30 7210 H 674.682 -2.40709 -5.20319 0
M  V30 7211 H 673.079 -3.18916 -5.08343 0
M  V30 7212 H 674.149 -3.16918 -3.67002 0
M  V30 7213 N 675.492 1.28418 -0.913599 0
M  V30 7214 C 676.908 1.47411 -0.611728 0
M  V30 7215 C 677.108 1.83018 0.843008 0
M  V30 7216 O 676.164 1.93505 1.6221 0
M  V30 7217 C 677.477 2.57703 -1.5495 0
M  V30 7218 C 679.025 2.71572 -1.5562 0
M  V30 7219 C 679.5 3.85008 -2.48058 0
M  V30 7220 N 680.991 3.92361 -2.46184 0
M  V30 7221 C 681.726 4.79516 -3.14407 0
M  V30 7222 N 681.222 5.71262 -3.91958 0
M  V30 7223 N 683.015 4.73125 -3.03495 0
M  V30 7224 H 675.166 1.03585 -1.85429 0
M  V30 7225 H 677.429 0.515907 -0.795326 0
M  V30 7226 H 677.135 2.38298 -2.58663 0
M  V30 7227 H 677.009 3.54801 -1.28048 0
M  V30 7228 H 679.396 2.90366 -0.526441 0
M  V30 7229 H 679.477 1.75006 -1.86565 0
M  V30 7230 H 679.121 3.66969 -3.51136 0
M  V30 7231 H 679.051 4.80971 -2.14416 0
M  V30 7232 H 681.542 3.26749 -1.89851 0
M  V30 7233 H 681.855 6.34593 -4.41034 0
M  V30 7234 H 680.2 5.71103 -3.96063 0
M  V30 7235 H 683.391 4.00442 -2.42413 0
M  V30 7236 H 683.564 5.40834 -3.56935 0
M  V30 7237 N 676.97 0.677563 1.42291 0
M  V30 7238 C 677.9 0.014968 2.33495 0
M  V30 7239 C 678.881 -0.786376 1.50831 0
M  V30 7240 O 680.066 -0.742975 1.79426 0
M  V30 7241 C 677.196 -0.935023 3.34477 0
M  V30 7242 C 676.15 -0.242074 4.27315 0
M  V30 7243 C 675.476 -1.30519 5.18526 0
M  V30 7244 C 676.776 0.880604 5.14823 0
M  V30 7245 H 678.47 0.776671 2.89151 0
M  V30 7246 H 676.016 0.37494 1.39033 0
M  V30 7247 H 677.969 -1.40766 3.97194 0
M  V30 7248 H 676.693 -1.72818 2.77131 0
M  V30 7249 H 675.352 0.210351 3.65996 0
M  V30 7250 H 675 -2.09041 4.57505 0
M  V30 7251 H 674.7 -0.846652 5.81468 0
M  V30 7252 H 676.224 -1.7787 5.84119 0
M  V30 7253 H 677.638 0.489062 5.7121 0
M  V30 7254 H 676.035 1.26511 5.86613 0
M  V30 7255 H 677.105 1.72818 4.53059 0
M  V30 7256 N 678.448 -1.51871 0.421078 0
M  V30 7257 C 679.688 -2.03848 -0.150167 0
M  V30 7258 C 680.052 -1.29925 -1.41363 0
M  V30 7259 O 681.253 -1.7219 -2.06408 0
M  V30 7260 C 679.524 -3.55374 -0.38003 0
M  V30 7261 S 681.083 -4.29111 -0.917011 0
M  V30 7262 H 677.901 -0.709904 -0.0394639 0
M  V30 7263 H 680.503 -1.86799 0.576746 0
M  V30 7264 H 679.207 -4.0675 0.546122 0
M  V30 7265 H 678.738 -3.76687 -1.13448 0
M  V30 7266 H 680.753 -4.44944 -2.19635 0
M  V30 7267 N 679.926 -0.151884 -1.56866 0
M  V30 7268 C 680.858 0.817008 -2.14144 0
M  V30 7269 C 681.871 1.20735 -1.0921 0
M  V30 7270 O 683.06 1.15058 -1.36469 0
M  V30 7271 C 680.16 2.10844 -2.65326 0
M  V30 7272 C 679.333 1.88471 -3.94712 0
M  V30 7273 C 678.392 3.01649 -4.31155 0
M  V30 7274 O 677.418 2.73127 -4.9939 0
M  V30 7275 N 678.62 4.28947 -3.91132 0
M  V30 7276 H 681.385 0.327448 -2.97906 0
M  V30 7277 H 678.946 0.0315313 -1.61869 0
M  V30 7278 H 680.938 2.85616 -2.86715 0
M  V30 7279 H 679.508 2.51049 -1.86262 0
M  V30 7280 H 678.728 0.977088 -3.81899 0
M  V30 7281 H 680.016 1.70866 -4.79252 0
M  V30 7282 H 679.414 4.54986 -3.36161 0
M  V30 7283 H 677.971 5.00484 -4.17563 0
M  V30 7284 N 681.404 1.57128 0.121893 0
M  V30 7285 C 682.629 1.89254 0.848385 0
M  V30 7286 C 683.054 0.743527 1.72781 0
M  V30 7287 O 682.412 -0.306056 1.78698 0
M  V30 7288 C 682.46 3.20113 1.66012 0
M  V30 7289 O 681.564 3.05815 2.76679 0
M  V30 7290 H 680.905 0.621103 0.234793 0
M  V30 7291 H 683.435 2.0433 0.10516 0
M  V30 7292 H 683.445 3.52761 2.04996 0
M  V30 7293 H 682.12 4.03336 1.01452 0
M  V30 7294 H 680.697 2.84627 2.40918 0
M  V30 7295 N 682.882 -0.391992 1.52647 0
M  V30 7296 C 683.832 -1.47815 1.73594 0
M  V30 7297 C 684.816 -1.49693 0.589979 0
M  V30 7298 O 686.008 -1.5538 0.847701 0
M  V30 7299 C 683.137 -2.85561 1.90551 0
M  V30 7300 C 682.223 -2.88264 3.1107 0
M  V30 7301 N 682.614 -2.60642 4.33474 0
M  V30 7302 C 680.912 -3.19432 3.11254 0
M  V30 7303 C 681.613 -2.70351 5.15058 0
M  V30 7304 N 680.589 -3.03956 4.50679 0
M  V30 7305 H 684.391 -1.2528 2.65861 0
M  V30 7306 H 681.905 -0.599907 1.50913 0
M  V30 7307 H 683.902 -3.63759 2.03678 0
M  V30 7308 H 682.562 -3.09081 0.994952 0
M  V30 7309 H 683.573 -2.34718 4.61658 0
M  V30 7310 H 680.25 -3.48436 2.29997 0
M  V30 7311 H 681.64 -2.52565 6.22624 0
M  V30 7312 N 684.36 -1.4356 -0.65026 0
M  V30 7313 C 685.771 -1.40324 -1.2315 0
M  V30 7314 C 686.122 -0.108812 -1.95898 0
M  V30 7315 O 685.247 0.79163 -2.01401 0
M  V30 7316 C 685.842 -2.54195 -2.23987 0
M  V30 7317 C 684.401 -2.54215 -2.77582 0
M  V30 7318 C 683.548 -2.31752 -1.5227 0
M  V30 7319 H 686.499 -1.52418 -0.442095 0
M  V30 7320 H 686.52 -2.25854 -3.0622 0
M  V30 7321 H 686.032 -3.48392 -1.71011 0
M  V30 7322 H 684.133 -1.63907 -3.34612 0
M  V30 7323 H 684.246 -3.52081 -3.24925 0
M  V30 7324 H 682.61 -1.80476 -1.79723 0
M  V30 7325 H 683.393 -3.28037 -1.01225 0
M  V30 7326 N 685.838 0.888903 -1.30139 0
M  V30 7327 C 686.786 2.0156 -1.16088 0
M  V30 7328 C 687.78 1.69239 -0.0737413 0
M  V30 7329 O 688.986 1.78468 -0.234313 0
M  V30 7330 H 685.361 0.660825 -0.358907 0
M  V30 7331 H 687.332 2.10547 -2.11453 0
M  V30 7332 C 686.081 3.36758 -0.865426 0
M  V30 7333 H 685.404 3.62137 -1.69402 0
M  V30 7334 H 686.844 4.16246 -0.807192 0
M  V30 7335 C 685.303 3.34124 0.431577 0
M  V30 7336 O 685.833 3.7445 1.45431 0
M  V30 7337 N 684.039 2.87229 0.441321 0
M  V30 7338 H 683.586 2.54609 -0.391433 0
M  V30 7339 H 683.544 2.8585 1.30909 0
M  V30 7340 N 687.317 1.12792 1.10072 0
M  V30 7341 C 688.563 0.886857 1.82381 0
M  V30 7342 C 688.896 -0.58576 1.85155 0
M  V30 7343 O 688.171 -1.43317 1.31493 0
M  V30 7344 C 688.454 1.46703 3.28862 0
M  V30 7345 C 688.307 3.00829 3.34398 0
M  V30 7346 C 689.626 1.12971 4.25353 0
M  V30 7347 H 686.745 0.32362 0.662148 0
M  V30 7348 H 689.387 1.39513 1.28982 0
M  V30 7349 H 687.537 1.03476 3.74466 0
M  V30 7350 H 689.209 3.52764 2.97247 0
M  V30 7351 H 687.452 3.36164 2.74183 0
M  V30 7352 H 688.123 3.36519 4.3756 0
M  V30 7353 H 690.599 1.50313 3.88001 0
M  V30 7354 H 689.475 1.56223 5.26199 0
M  V30 7355 H 689.736 0.0424452 4.4208 0
M  V30 7356 N 688.795 -1.27931 0.920396 0
M  V30 7357 C 690.041 -1.94977 0.557832 0
M  V30 7358 C 690.374 -1.72224 -0.897365 0
M  V30 7359 O 689.649 -1.04705 -1.63912 0
M  V30 7360 C 689.932 -3.49289 0.875741 0
M  V30 7361 C 689.785 -3.81416 2.38416 0
M  V30 7362 C 691.104 -4.38486 0.376517 0
M  V30 7363 H 688.223 -0.708164 0.20414 0
M  V30 7364 H 690.865 -1.5118 1.15085 0
M  V30 7365 H 689.015 -3.86724 0.371062 0
M  V30 7366 H 690.687 -3.53813 2.95997 0
M  V30 7367 H 688.93 -3.28225 2.83639 0
M  V30 7368 H 689.601 -4.89198 2.55713 0
M  V30 7369 H 692.077 -4.08161 0.808945 0
M  V30 7370 H 690.953 -5.45296 0.627976 0
M  V30 7371 H 691.214 -4.36143 -0.723293 0
M  V30 7372 N 690.273 -0.685099 -1.4193 0
M  V30 7373 C 691.221 -0.00165985 -2.326 0
M  V30 7374 C 692.215 0.779678 -1.50391 0
M  V30 7375 O 693.421 0.68648 -1.66395 0
M  V30 7376 H 689.796 0.0182616 -0.751778 0
M  V30 7377 H 691.767 -0.783592 -2.87928 0
M  V30 7378 C 690.516 0.928385 -3.35077 0
M  V30 7379 H 689.839 0.336578 -3.98381 0
M  V30 7380 H 691.279 1.37509 -4.01083 0
M  V30 7381 C 689.738 2.03964 -2.68142 0
M  V30 7382 O 690.268 3.12727 -2.5212 0
M  V30 7383 N 688.474 1.81433 -2.27003 0
M  V30 7384 H 688.021 0.929807 -2.40234 0
M  V30 7385 H 687.979 2.55973 -1.82552 0
M  V30 7386 N 691.751 1.51645 -0.429126 0
M  V30 7387 C 692.681 2.30434 0.377148 0
M  V30 7388 C 693.662 1.35493 1.02838 0
M  V30 7389 O 694.847 1.6441 1.03359 0
M  V30 7390 C 691.977 3.14038 1.48315 0
M  V30 7391 C 690.931 4.1719 0.955855 0
M  V30 7392 C 690.257 4.89263 2.15698 0
M  V30 7393 C 691.557 5.223 -0.00402136 0
M  V30 7394 H 693.251 2.98085 -0.280336 0
M  V30 7395 H 690.797 1.43354 -0.136265 0
M  V30 7396 H 692.75 3.67933 2.05435 0
M  V30 7397 H 691.474 2.44193 2.16881 0
M  V30 7398 H 690.133 3.64335 0.406929 0
M  V30 7399 H 689.781 4.15929 2.82864 0
M  V30 7400 H 689.481 5.59009 1.81059 0
M  V30 7401 H 691.005 5.45978 2.73387 0
M  V30 7402 H 692.419 5.71315 0.476607 0
M  V30 7403 H 690.816 5.99525 -0.26258 0
M  V30 7404 H 691.886 4.75638 -0.943236 0
M  V30 7405 N 693.229 0.160201 1.56784 0
M  V30 7406 C 694.179 -0.786461 2.14007 0
M  V30 7407 C 695.163 -1.20046 1.07134 0
M  V30 7408 O 696.355 -1.16468 1.33283 0
M  V30 7409 C 693.484 -2.02024 2.77563 0
M  V30 7410 C 692.57 -1.62874 3.91578 0
M  V30 7411 N 692.961 -0.946176 4.96871 0
M  V30 7412 C 691.259 -1.92054 4.02531 0
M  V30 7413 C 691.96 -0.755084 5.76778 0
M  V30 7414 N 690.936 -1.29307 5.27997 0
M  V30 7415 H 694.738 -0.255879 2.92784 0
M  V30 7416 H 692.252 -0.0408778 1.62349 0
M  V30 7417 H 694.249 -2.70855 3.16928 0
M  V30 7418 H 692.909 -2.55587 2.00263 0
M  V30 7419 H 693.92 -0.605455 5.14349 0
M  V30 7420 H 690.597 -2.47374 3.36322 0
M  V30 7421 H 691.987 -0.216138 6.71552 0
M  V30 7422 N 694.707 -1.5719 -0.113559 0
M  V30 7423 C 695.617 -2.04041 -1.15777 0
M  V30 7424 C 696.633 -0.961812 -1.45001 0
M  V30 7425 O 697.809 -1.2737 -1.56009 0
M  V30 7426 C 694.874 -2.43994 -2.46308 0
M  V30 7427 C 693.935 -3.65962 -2.24433 0
M  V30 7428 C 693.168 -4.04 -3.4874 0
M  V30 7429 O 693.391 -3.42321 -4.56259 0
M  V30 7430 O 692.325 -4.97069 -3.3942 0
M  V30 7431 H 696.151 -2.93248 -0.789899 0
M  V30 7432 H 693.736 -1.45828 -0.324748 0
M  V30 7433 H 695.618 -2.70401 -3.23204 0
M  V30 7434 H 694.293 -1.57932 -2.82558 0
M  V30 7435 H 693.2 -3.44697 -1.45377 0
M  V30 7436 H 694.533 -4.52746 -1.93084 0
M  V30 7437 N 696.185 0.383891 -1.52853 0
M  V30 7438 C 697.431 1.13009 -1.68395 0
M  V30 7439 C 697.764 1.89488 -0.425195 0
M  V30 7440 O 697.039 1.8574 0.577136 0
M  V30 7441 C 697.322 2.10419 -2.92226 0
M  V30 7442 C 697.175 1.3767 -4.28214 0
M  V30 7443 C 698.494 3.10781 -3.11614 0
M  V30 7444 H 695.613 0.409463 -0.612788 0
M  V30 7445 H 698.255 0.412895 -1.85459 0
M  V30 7446 H 696.405 2.71579 -2.77808 0
M  V30 7447 H 698.077 0.794352 -4.54409 0
M  V30 7448 H 696.32 0.678533 -4.2846 0
M  V30 7449 H 696.991 2.08874 -5.10956 0
M  V30 7450 H 699.467 2.59715 -3.25096 0
M  V30 7451 H 698.343 3.76179 -3.99725 0
M  V30 7452 H 698.604 3.79933 -2.2606 0
M  V30 7453 N 697.663 1.43903 0.642637 0
M  V30 7454 C 698.613 1.46321 1.74854 0
M  V30 7455 C 699.597 0.330361 1.57472 0
M  V30 7456 O 700.789 0.574881 1.67404 0
M  V30 7457 C 697.918 1.39919 3.13493 0
M  V30 7458 C 697.004 2.58274 3.36385 0
M  V30 7459 N 697.395 3.83578 3.29699 0
M  V30 7460 C 695.693 2.53224 3.67142 0
M  V30 7461 C 696.394 4.62375 3.52965 0
M  V30 7462 N 695.37 3.93269 3.75287 0
M  V30 7463 H 699.172 2.41062 1.68126 0
M  V30 7464 H 696.686 1.38704 0.844693 0
M  V30 7465 H 698.683 1.39735 3.92785 0
M  V30 7466 H 697.343 0.46207 3.21395 0
M  V30 7467 H 698.354 4.15713 3.08874 0
M  V30 7468 H 695.031 1.68252 3.82096 0
M  V30 7469 H 696.421 5.714 3.53485 0
M  V30 7470 N 699.141 -0.881989 1.30609 0
M  V30 7471 C 700.091 -1.97539 1.13852 0
M  V30 7472 C 701.075 -1.60813 0.0528428 0
M  V30 7473 O 702.267 -1.74827 0.276484 0
M  V30 7474 C 699.396 -3.32977 0.835519 0
M  V30 7475 C 698.482 -3.76008 1.96159 0
M  V30 7476 N 698.873 -3.91109 3.20729 0
M  V30 7477 C 697.171 -4.05427 1.85863 0
M  V30 7478 C 697.872 -4.27661 3.94311 0
M  V30 7479 N 696.848 -4.37686 3.22385 0
M  V30 7480 H 700.65 -2.07309 2.08327 0
M  V30 7481 H 698.164 -1.072 1.21992 0
M  V30 7482 H 700.161 -4.11041 0.696477 0
M  V30 7483 H 698.821 -3.24542 -0.101135 0
M  V30 7484 H 699.832 -3.7616 3.55984 0
M  V30 7485 H 696.509 -4.05449 0.995847 0
M  V30 7486 H 697.899 -4.47042 5.01601 0
M  V30 7487 N 700.619 -1.13374 -1.09472 0
M  V30 7488 C 701.896 -0.806329 -1.78207 0
M  V30 7489 C 702.276 0.702191 -1.99079 0
M  V30 7490 O 701.624 1.63931 -1.59182 0
M  V30 7491 C 701.834 -1.59271 -3.10538 0
M  V30 7492 C 703.182 -1.78509 -3.85253 0
M  V30 7493 O 704.206 -1.55866 -3.20288 0
M  V30 7494 O 703.065 -2.16287 -5.01879 0
M  V30 7495 H 700.159 -0.29435 -0.772843 0
M  V30 7496 H 702.705 -1.23833 -1.16033 0
M  V30 7497 H 701.477 -2.61792 -2.90828 0
M  V30 7498 H 701.1 -1.15562 -3.80436 0
M  V30 7499 N 702.098 1.27442 -0.927168 0
M  V30 7500 C 703.03 2.25975 -0.383158 0
M  V30 7501 C 704.043 1.55382 0.485832 0
M  V30 7502 O 705.232 1.75986 0.298541 0
M  V30 7503 C 702.332 3.35629 0.469688 0
M  V30 7504 C 701.505 4.35747 -0.379886 0
M  V30 7505 C 700.564 5.24598 0.410227 0
M  V30 7506 O 699.59 5.68909 -0.181888 0
M  V30 7507 N 700.792 5.54737 1.71017 0
M  V30 7508 H 703.557 2.7329 -1.23015 0
M  V30 7509 H 701.118 1.41063 -0.794539 0
M  V30 7510 H 703.11 3.92015 1.00532 0
M  V30 7511 H 701.68 2.87919 1.21744 0
M  V30 7512 H 700.9 3.78634 -1.09682 0
M  V30 7513 H 702.188 4.99648 -0.960717 0
M  V30 7514 H 701.586 5.20594 2.21356 0
M  V30 7515 H 700.143 6.13824 2.19234 0
M  V30 7516 N 703.576 0.692616 1.41565 0
M  V30 7517 C 704.506 0.0397325 2.33466 0
M  V30 7518 C 705.487 -0.770334 1.51657 0
M  V30 7519 O 706.672 -0.723903 1.80203 0
M  V30 7520 C 703.802 -0.899495 3.3545 0
M  V30 7521 C 702.756 -0.196738 4.27548 0
M  V30 7522 C 702.082 -1.25012 5.19881 0
M  V30 7523 C 703.382 0.935158 5.1386 0
M  V30 7524 H 705.076 0.807296 2.88311 0
M  V30 7525 H 702.622 0.389665 1.38628 0
M  V30 7526 H 704.575 -1.36545 3.98665 0
M  V30 7527 H 703.299 -1.69869 2.78948 0
M  V30 7528 H 701.958 0.249158 3.65752 0
M  V30 7529 H 701.606 -2.04177 4.59696 0
M  V30 7530 H 701.306 -0.784931 5.82334 0
M  V30 7531 H 702.83 -1.71665 5.85972 0
M  V30 7532 H 704.244 0.549619 5.70659 0
M  V30 7533 H 702.641 1.32726 5.85238 0
M  V30 7534 H 703.711 1.77613 4.512 0
M  V30 7535 N 705.054 -1.51416 0.437162 0
M  V30 7536 C 706.004 -2.24599 -0.392311 0
M  V30 7537 C 706.988 -1.2682 -0.990221 0
M  V30 7538 O 708.18 -1.51912 -0.908391 0
M  V30 7539 C 705.309 -3.09134 -1.49301 0
M  V30 7540 C 704.395 -4.14342 -0.904503 0
M  V30 7541 N 704.786 -5.0578 -0.0451511 0
M  V30 7542 C 703.084 -4.30323 -1.1721 0
M  V30 7543 C 703.785 -5.81 0.285344 0
M  V30 7544 N 702.761 -5.42591 -0.330993 0
M  V30 7545 H 706.563 -2.92655 0.270221 0
M  V30 7546 H 704.077 -1.60476 0.249226 0
M  V30 7547 H 706.074 -3.6014 -2.10011 0
M  V30 7548 H 704.734 -2.42622 -2.15788 0
M  V30 7549 H 705.745 -5.16903 0.321271 0
M  V30 7550 H 702.422 -3.75037 -1.83448 0
M  V30 7551 H 703.812 -6.64646 0.984626 0
M  V30 7552 N 706.532 -0.168513 -1.56696 0
M  V30 7553 C 707.76 0.483503 -2.01171 0
M  V30 7554 C 708.175 1.56994 -1.04872 0
M  V30 7555 O 707.532 1.82434 -0.0491337 0
M  V30 7556 C 707.583 1.0644 -3.45475 0
M  V30 7557 O 707.304 0.0213375 -4.38095 0
M  V30 7558 C 708.805 1.79493 -4.05336 0
M  V30 7559 H 706.025 0.124002 -0.659443 0
M  V30 7560 H 708.569 -0.269419 -2.02717 0
M  V30 7561 H 706.724 1.76784 -3.44712 0
M  V30 7562 H 707.138 0.449837 -5.22567 0
M  V30 7563 H 708.612 2.15401 -5.08238 0
M  V30 7564 H 709.089 2.68889 -3.47269 0
M  V30 7565 H 709.695 1.13798 -4.09793 0
M  V30 7566 N 708.01 1.57248 0.105221 0
M  V30 7567 C 709.24 1.89492 0.823175 0
M  V30 7568 C 709.648 0.75934 1.73294 0
M  V30 7569 O 708.991 -0.278182 1.81581 0
M  V30 7570 C 709.053 3.16891 1.69765 0
M  V30 7571 C 708.717 4.46787 0.960769 0
M  V30 7572 C 709.714 5.19061 0.295218 0
M  V30 7573 C 707.399 4.93467 0.937854 0
M  V30 7574 C 709.393 6.36246 -0.383393 0
M  V30 7575 C 707.08 6.10566 0.255452 0
M  V30 7576 C 708.078 6.81804 -0.404003 0
M  V30 7577 O 707.766 7.96673 -1.07549 0
M  V30 7578 H 707.498 0.631512 0.24118 0
M  V30 7579 H 710.052 2.05203 0.0899655 0
M  V30 7580 H 708.282 2.973 2.47285 0
M  V30 7581 H 709.971 3.35046 2.29126 0
M  V30 7582 H 710.737 4.84044 0.304448 0
M  V30 7583 H 706.616 4.37913 1.44058 0
M  V30 7584 H 710.16 6.91787 -0.898696 0
M  V30 7585 H 706.057 6.45039 0.244032 0
M  V30 7586 H 706.825 8.12596 -0.981355 0
M  V30 7587 N 709.488 -0.375779 1.53054 0
M  V30 7588 C 710.418 -1.46598 1.81745 0
M  V30 7589 C 711.399 -1.56337 0.670286 0
M  V30 7590 O 712.584 -1.71071 0.919158 0
M  V30 7591 C 709.714 -2.84058 1.99821 0
M  V30 7592 C 708.668 -2.8915 3.15557 0
M  V30 7593 C 707.994 -4.29187 3.18908 0
M  V30 7594 C 709.294 -2.57595 4.54359 0
M  V30 7595 H 710.988 -1.22837 2.73041 0
M  V30 7596 H 708.534 -0.589485 1.31381 0
M  V30 7597 H 710.487 -3.60342 2.18475 0
M  V30 7598 H 709.211 -3.09184 1.05226 0
M  V30 7599 H 707.87 -2.15316 2.96706 0
M  V30 7600 H 707.518 -4.51374 2.2197 0
M  V30 7601 H 707.218 -4.33512 3.96662 0
M  V30 7602 H 708.742 -5.07359 3.39734 0
M  V30 7603 H 710.156 -3.23595 4.73243 0
M  V30 7604 H 708.553 -2.73252 5.34279 0
M  V30 7605 H 709.623 -1.52882 4.60169 0
M  V30 7606 N 710.966 -1.44241 -0.634997 0
M  V30 7607 C 712.212 -1.47038 -1.39669 0
M  V30 7608 C 712.545 -0.101122 -1.93937 0
M  V30 7609 O 711.82 0.880699 -1.73418 0
M  V30 7610 C 712.103 -2.52763 -2.56482 0
M  V30 7611 C 711.956 -3.99032 -2.07589 0
M  V30 7612 C 713.275 -2.55031 -3.58674 0
M  V30 7613 H 710.394 -0.53537 -0.506506 0
M  V30 7614 H 713.036 -1.75898 -0.718317 0
M  V30 7615 H 711.186 -2.28284 -3.14354 0
M  V30 7616 H 712.858 -4.3463 -1.54577 0
M  V30 7617 H 711.101 -4.10994 -1.38804 0
M  V30 7618 H 711.772 -4.68649 -2.91671 0
M  V30 7619 H 714.248 -2.76893 -3.10595 0
M  V30 7620 H 713.124 -3.30916 -4.37934 0
M  V30 7621 H 713.385 -1.59085 -4.12486 0
M  V30 7622 N 712.444 0.87505 -1.31075 0
M  V30 7623 C 713.374 1.99775 -1.20881 0
M  V30 7624 C 714.355 1.69822 -0.0971612 0
M  V30 7625 O 715.54 1.92158 -0.280895 0
M  V30 7626 C 712.67 3.35163 -0.910118 0
M  V30 7627 C 711.624 3.79406 -1.98078 0
M  V30 7628 C 710.95 5.12197 -1.53488 0
M  V30 7629 C 712.25 3.97061 -3.39323 0
M  V30 7630 H 713.944 2.08562 -2.14808 0
M  V30 7631 H 711.49 1.00207 -1.03415 0
M  V30 7632 H 713.443 4.13237 -0.825423 0
M  V30 7633 H 712.167 3.26536 0.064822 0
M  V30 7634 H 710.826 3.03568 -2.05528 0
M  V30 7635 H 710.474 5.00007 -0.547941 0
M  V30 7636 H 710.174 5.4277 -2.2511 0
M  V30 7637 H 711.698 5.92785 -1.46417 0
M  V30 7638 H 713.112 4.65545 -3.34576 0
M  V30 7639 H 711.509 4.39025 -4.09118 0
M  V30 7640 H 712.579 3.00601 -3.80483 0
M  V30 7641 N 713.922 1.13953 1.08869 0
M  V30 7642 C 714.832 0.835666 2.19212 0
M  V30 7643 C 715.848 -0.182005 1.73045 0
M  V30 7644 O 717.024 -0.0116661 2.01397 0
M  V30 7645 C 714.089 0.312325 3.4529 0
M  V30 7646 C 713.15 1.39196 4.06107 0
M  V30 7647 C 712.383 0.893496 5.26168 0
M  V30 7648 O 712.606 -0.266807 5.69776 0
M  V30 7649 O 711.54 1.67037 5.78258 0
M  V30 7650 H 715.366 1.75769 2.47667 0
M  V30 7651 H 712.951 0.917421 1.17914 0
M  V30 7652 H 714.833 0.0261582 4.21392 0
M  V30 7653 H 713.508 -0.582042 3.18424 0
M  V30 7654 H 712.415 1.73152 3.31616 0
M  V30 7655 H 713.748 2.26068 4.37212 0
M  V30 7656 N 715.4 -1.26948 0.933913 0
M  V30 7657 C 716.33 -2.29017 0.45534 0
M  V30 7658 C 717.311 -1.62961 -0.487605 0
M  V30 7659 O 718.496 -1.90223 -0.391022 0
M  V30 7660 C 715.626 -3.46112 -0.287015 0
M  V30 7661 C 714.58 -4.24205 0.568682 0
M  V30 7662 C 713.906 -5.3384 -0.303206 0
M  V30 7663 C 715.206 -4.88954 1.83633 0
M  V30 7664 H 716.9 -2.69298 1.30839 0
M  V30 7665 H 714.446 -1.29459 0.630579 0
M  V30 7666 H 716.399 -4.16622 -0.6328 0
M  V30 7667 H 715.123 -3.04765 -1.17414 0
M  V30 7668 H 713.782 -3.5545 0.897261 0
M  V30 7669 H 713.43 -4.88734 -1.18947 0
M  V30 7670 H 713.13 -5.86998 0.265879 0
M  V30 7671 H 714.654 -6.0719 -0.644423 0
M  V30 7672 H 716.068 -5.51717 1.55823 0
M  V30 7673 H 714.465 -5.52198 2.34941 0
M  V30 7674 H 715.535 -4.12305 2.55211 0
M  V30 7675 N 716.879 -0.700114 -1.41195 0
M  V30 7676 C 717.809 -0.0521132 -2.33442 0
M  V30 7677 C 718.79 0.76228 -1.52063 0
M  V30 7678 O 719.975 0.714336 -1.80585 0
M  V30 7679 C 717.105 0.881693 -3.35922 0
M  V30 7680 C 716.059 0.174062 -4.27646 0
M  V30 7681 C 715.385 1.22254 -5.20536 0
M  V30 7682 C 716.685 -0.962396 -5.13357 0
M  V30 7683 H 718.379 -0.822574 -2.87879 0
M  V30 7684 H 715.925 -0.397011 -1.38419 0
M  V30 7685 H 717.878 1.34429 -3.99383 0
M  V30 7686 H 716.602 1.68387 -2.79845 0
M  V30 7687 H 715.261 -0.268551 -3.65615 0
M  V30 7688 H 714.909 2.01736 -4.60773 0
M  V30 7689 H 714.609 0.754038 -5.82742 0
M  V30 7690 H 716.133 1.68555 -5.86874 0
M  V30 7691 H 717.547 -0.579875 -5.7036 0
M  V30 7692 H 715.944 -1.35828 -5.84526 0
M  V30 7693 H 717.014 -1.80003 -4.50252 0
M  V30 7694 N 718.357 1.51182 -0.445186 0
M  V30 7695 C 719.773 1.59299 -0.0978954 0
M  V30 7696 C 719.973 1.4555 1.39346 0
M  V30 7697 O 719.029 1.30073 2.16419 0
M  V30 7698 C 720.342 2.94133 -0.625005 0
M  V30 7699 C 721.89 3.07463 -0.586137 0
M  V30 7700 C 722.365 4.44832 -1.09035 0
M  V30 7701 N 723.856 4.51173 -1.04867 0
M  V30 7702 C 724.591 5.55804 -1.40959 0
M  V30 7703 N 724.087 6.67816 -1.84375 0
M  V30 7704 N 725.88 5.46205 -1.32726 0
M  V30 7705 H 718.031 1.58363 -1.41544 0
M  V30 7706 H 720.294 0.746946 -0.58376 0
M  V30 7707 H 720 3.09589 -1.66876 0
M  V30 7708 H 719.874 3.77161 -0.0542262 0
M  V30 7709 H 722.261 2.9167 0.448646 0
M  V30 7710 H 722.342 2.26255 -1.19341 0
M  V30 7711 H 721.986 4.61372 -2.12364 0
M  V30 7712 H 721.916 5.24591 -0.459539 0
M  V30 7713 H 724.407 3.70783 -0.729932 0
M  V30 7714 H 724.72 7.43683 -2.10131 0
M  V30 7715 H 723.065 6.69003 -1.88308 0
M  V30 7716 H 726.256 4.57583 -0.986678 0
M  V30 7717 H 726.429 6.27634 -1.61182 0
M  V30 7718 N 719.835 0.176821 1.56605 0
M  V30 7719 C 721.083 -0.465793 1.96659 0
M  V30 7720 C 721.404 -1.63406 1.06412 0
M  V30 7721 O 720.674 -1.95457 0.131603 0
M  V30 7722 H 719.254 -0.175072 0.726195 0
M  V30 7723 H 721.916 0.25929 1.93168 0
M  V30 7724 H 721.012 -0.822138 3.01077 0
M  V30 7725 N 721.313 -1.57302 -0.09688 0
M  V30 7726 C 722.561 -1.8563 -0.799117 0
M  V30 7727 C 722.882 -0.765263 -1.79356 0
M  V30 7728 O 722.152 0.208657 -1.94786 0
M  V30 7729 H 720.732 -0.684937 -0.298111 0
M  V30 7730 H 723.394 -1.9474 -0.0789341 0
M  V30 7731 H 722.49 -2.82305 -1.3308 0
M  V30 7732 N 722.791 0.367657 -1.53252 0
M  V30 7733 C 723.701 1.47415 -1.82499 0
M  V30 7734 C 724.717 1.58711 -0.713222 0
M  V30 7735 O 725.893 1.74644 -1.00306 0
M  V30 7736 C 722.958 2.82706 -2.00694 0
M  V30 7737 C 722.019 2.80955 -3.24596 0
M  V30 7738 C 721.252 4.09793 -3.41914 0
M  V30 7739 O 721.475 5.05852 -2.63572 0
M  V30 7740 O 720.409 4.15731 -4.3526 0
M  V30 7741 H 724.235 1.25624 -2.765 0
M  V30 7742 H 721.82 0.557559 -1.38606 0
M  V30 7743 H 723.702 3.62873 -2.14246 0
M  V30 7744 H 722.377 3.04479 -1.09883 0
M  V30 7745 H 721.284 1.99494 -3.16469 0
M  V30 7746 H 722.617 2.64136 -4.15323 0
M  V30 7747 N 724.269 1.44576 0.627338 0
M  V30 7748 C 725.199 1.54562 1.75022 0
M  V30 7749 C 726.18 0.398378 1.65369 0
M  V30 7750 O 727.365 0.61899 1.84071 0
M  V30 7751 C 724.495 1.49309 3.13567 0
M  V30 7752 C 723.449 2.62549 3.38012 0
M  V30 7753 C 722.775 2.42348 4.76625 0
M  V30 7754 C 724.075 4.04678 3.30202 0
M  V30 7755 H 725.769 2.4855 1.66922 0
M  V30 7756 H 723.315 1.19624 0.801636 0
M  V30 7757 H 725.268 1.54895 3.919 0
M  V30 7758 H 723.992 0.518392 3.2246 0
M  V30 7759 H 722.651 2.56358 2.62061 0
M  V30 7760 H 722.299 1.43062 4.82226 0
M  V30 7761 H 721.999 3.18273 4.93939 0
M  V30 7762 H 723.523 2.49758 5.57183 0
M  V30 7763 H 724.937 4.12217 3.98435 0
M  V30 7764 H 723.334 4.80836 3.5905 0
M  V30 7765 H 724.404 4.2798 2.27949 0
M  V30 7766 N 725.747 -0.868086 1.31537 0
M  V30 7767 C 726.677 -1.99131 1.21939 0
M  V30 7768 C 727.658 -1.69768 0.106166 0
M  V30 7769 O 728.843 -1.92006 0.291081 0
M  V30 7770 C 725.973 -3.34676 0.927879 0
M  V30 7771 C 724.927 -3.7835 2.00088 0
M  V30 7772 C 724.253 -5.11375 1.56203 0
M  V30 7773 C 725.553 -3.95256 3.41424 0
M  V30 7774 H 727.247 -2.07419 2.15911 0
M  V30 7775 H 724.793 -0.996569 1.03945 0
M  V30 7776 H 726.746 -4.12793 0.847327 0
M  V30 7777 H 725.47 -3.26565 -0.0475042 0
M  V30 7778 H 724.129 -3.02474 2.07135 0
M  V30 7779 H 723.777 -4.99709 0.57445 0
M  V30 7780 H 723.477 -5.41568 2.27985 0
M  V30 7781 H 725.001 -5.92001 1.49558 0
M  V30 7782 H 726.415 -4.63764 3.3704 0
M  V30 7783 H 724.812 -4.36849 4.1144 0
M  V30 7784 H 725.882 -2.98579 3.82072 0
M  V30 7785 N 727.225 -1.14528 -1.08264 0
M  V30 7786 C 728.135 -0.84728 -2.18765 0
M  V30 7787 C 729.151 0.172826 -1.7314 0
M  V30 7788 O 730.327 0.000985336 -2.014 0
M  V30 7789 C 727.392 -0.330633 -3.4512 0
M  V30 7790 C 726.453 -1.41348 -4.05363 0
M  V30 7791 C 725.686 -0.921387 -5.25686 0
M  V30 7792 O 725.909 0.236587 -5.69909 0
M  V30 7793 O 724.843 -1.70101 -5.77364 0
M  V30 7794 H 728.669 -1.7708 -2.46731 0
M  V30 7795 H 726.254 -0.923661 -1.17426 0
M  V30 7796 H 728.136 -0.0485053 -4.21372 0
M  V30 7797 H 726.811 0.565147 -3.18728 0
M  V30 7798 H 725.718 -1.74908 -3.30693 0
M  V30 7799 H 727.051 -2.28383 -4.36007 0
M  V30 7800 N 728.703 1.26451 -0.940633 0
M  V30 7801 C 729.653 2.24086 -0.420669 0
M  V30 7802 C 730.637 1.53501 0.482301 0
M  V30 7803 O 731.829 1.74127 0.317636 0
M  V30 7804 C 728.958 3.41866 0.313452 0
M  V30 7805 C 728.044 4.19737 -0.606779 0
M  V30 7806 N 728.435 4.7521 -1.73232 0
M  V30 7807 C 726.733 4.44091 -0.41226 0
M  V30 7808 C 727.434 5.34052 -2.30572 0
M  V30 7809 N 726.41 5.1971 -1.59381 0
M  V30 7810 H 730.212 2.64569 -1.27986 0
M  V30 7811 H 727.726 1.4153 -0.796436 0
M  V30 7812 H 729.723 4.1093 0.702991 0
M  V30 7813 H 728.383 3.0291 1.16942 0
M  V30 7814 H 729.394 4.72769 -2.11447 0
M  V30 7815 H 726.071 4.1556 0.401984 0
M  V30 7816 H 727.461 5.87845 -3.25404 0
M  V30 7817 N 730.181 0.707592 1.40822 0
M  V30 7818 C 731.43 0.240705 2.00259 0
M  V30 7819 C 731.743 -1.17027 1.56729 0
M  V30 7820 O 732.949 -1.73526 2.08809 0
M  V30 7821 C 731.405 0.379432 3.57894 0
M  V30 7822 C 731.013 1.79654 4.104 0
M  V30 7823 C 732.757 -0.0270684 4.24491 0
M  V30 7824 C 730.664 1.88628 5.60512 0
M  V30 7825 H 729.594 0.0862369 0.749052 0
M  V30 7826 H 732.245 0.877528 1.61157 0
M  V30 7827 H 730.627 -0.325842 3.94657 0
M  V30 7828 H 731.801 2.53155 3.85032 0
M  V30 7829 H 730.116 2.15379 3.56372 0
M  V30 7830 H 732.713 0.0193743 5.34696 0
M  V30 7831 H 733.056 -1.06772 4.02375 0
M  V30 7832 H 733.589 0.628361 3.92806 0
M  V30 7833 H 730.328 2.90787 5.87472 0
M  V30 7834 H 729.848 1.19528 5.8777 0
M  V30 7835 H 731.527 1.6547 6.25483 0
M  V30 7836 N 731.66 -1.50943 0.453197 0
M  V30 7837 C 733.076 -1.59245 0.106342 0
M  V30 7838 C 733.276 -1.46287 -1.38572 0
M  V30 7839 O 732.332 -1.31219 -2.15726 0
M  V30 7840 C 733.645 -2.93797 0.640595 0
M  V30 7841 C 735.193 -3.07148 0.602435 0
M  V30 7842 C 735.668 -4.44247 1.11393 0
M  V30 7843 N 737.159 -4.50611 1.07258 0
M  V30 7844 C 737.894 -5.55049 1.43905 0
M  V30 7845 N 737.39 -6.66828 1.87914 0
M  V30 7846 N 739.183 -5.45494 1.35621 0
M  V30 7847 H 731.334 -1.5761 1.42382 0
M  V30 7848 H 733.597 -0.74384 0.587713 0
M  V30 7849 H 733.303 -3.087 1.68515 0
M  V30 7850 H 733.177 -3.77127 0.0742272 0
M  V30 7851 H 735.564 -2.91903 -0.433171 0
M  V30 7852 H 735.645 -2.25619 1.20539 0
M  V30 7853 H 735.289 -4.60239 2.14808 0
M  V30 7854 H 735.219 -5.2434 0.487353 0
M  V30 7855 H 737.71 -3.70391 0.749585 0
M  V30 7856 H 738.023 -7.42558 2.14072 0
M  V30 7857 H 736.368 -6.67995 1.91853 0
M  V30 7858 H 739.559 -4.57053 1.01093 0
M  V30 7859 H 739.732 -6.2677 1.64508 0
M  V30 7860 N 733.138 -0.185124 -1.56509 0
M  V30 7861 C 734.085 0.739729 -2.18624 0
M  V30 7862 C 735.055 1.217 -1.13042 0
M  V30 7863 O 736.24 1.28268 -1.41251 0
M  V30 7864 C 733.38 1.95787 -2.84186 0
M  V30 7865 C 732.493 1.52289 -4.04267 0
M  V30 7866 C 731.628 2.69576 -4.57714 0
M  V30 7867 C 730.667 2.22636 -5.70175 0
M  V30 7868 N 729.804 3.33065 -6.18071 0
M  V30 7869 H 734.644 0.203269 -2.97306 0
M  V30 7870 H 732.181 0.0885946 -1.46833 0
M  V30 7871 H 734.139 2.67253 -3.20361 0
M  V30 7872 H 732.769 2.4678 -2.08085 0
M  V30 7873 H 731.821 0.704458 -3.7382 0
M  V30 7874 H 733.133 1.13843 -4.85635 0
M  V30 7875 H 732.287 3.4918 -4.96143 0
M  V30 7876 H 731.026 3.1129 -3.75433 0
M  V30 7877 H 730.031 1.41483 -5.31284 0
M  V30 7878 H 731.256 1.81964 -6.54267 0
M  V30 7879 H 729.202 3.74328 -5.38715 0
M  V30 7880 H 729.119 2.98756 -6.94464 0
M  V30 7881 H 730.387 4.12912 -6.61153 0
M  V30 7882 N 734.616 1.57351 0.0885366 0
M  V30 7883 C 735.563 2.02523 1.10693 0
M  V30 7884 C 736.533 0.902736 1.39427 0
M  V30 7885 O 737.718 1.16921 1.50779 0
M  V30 7886 C 734.858 2.46013 2.42016 0
M  V30 7887 C 733.971 3.7181 2.19957 0
M  V30 7888 C 733.106 4.04152 3.44724 0
M  V30 7889 C 732.145 5.2304 3.17956 0
M  V30 7890 N 731.282 5.51102 4.35007 0
M  V30 7891 H 736.122 2.89302 0.714742 0
M  V30 7892 H 733.659 1.43084 0.341378 0
M  V30 7893 H 735.617 2.69274 3.18665 0
M  V30 7894 H 734.247 1.62235 2.79069 0
M  V30 7895 H 733.299 3.55987 1.34079 0
M  V30 7896 H 734.611 4.58604 1.96173 0
M  V30 7897 H 733.765 4.28225 4.29777 0
M  V30 7898 H 732.504 3.15893 3.71568 0
M  V30 7899 H 731.509 4.98781 2.31296 0
M  V30 7900 H 732.734 6.12902 2.92451 0
M  V30 7901 H 730.68 4.65802 4.61914 0
M  V30 7902 H 730.597 6.3228 4.14437 0
M  V30 7903 H 731.865 5.79714 5.21106 0
M  V30 7904 N 736.094 -0.359525 1.53444 0
M  V30 7905 C 737.51 -0.701599 1.43352 0
M  V30 7906 C 737.71 -1.93049 0.577439 0
M  V30 7907 O 736.766 -2.52423 0.0622224 0
M  V30 7908 C 738.079 -0.90915 2.86627 0
M  V30 7909 C 739.627 -1.00878 2.96298 0
M  V30 7910 C 740.102 -1.24876 4.40647 0
M  V30 7911 N 741.593 -1.31632 4.44103 0
M  V30 7912 C 742.328 -1.51922 5.52908 0
M  V30 7913 N 741.824 -1.69489 6.71748 0
M  V30 7914 N 743.617 -1.54341 5.40496 0
M  V30 7915 H 735.768 0.448685 2.07607 0
M  V30 7916 H 738.031 0.138713 0.937797 0
M  V30 7917 H 737.737 -0.0778997 3.51614 0
M  V30 7918 H 737.611 -1.81551 3.30634 0
M  V30 7919 H 739.998 -1.83057 2.31461 0
M  V30 7920 H 740.079 -0.0796721 2.55676 0
M  V30 7921 H 739.723 -0.431961 5.0606 0
M  V30 7922 H 739.653 -2.19118 4.78848 0
M  V30 7923 H 742.144 -1.19646 3.5846 0
M  V30 7924 H 742.457 -1.84561 7.50438 0
M  V30 7925 H 740.802 -1.66655 6.74723 0
M  V30 7926 H 743.993 -1.40188 4.46615 0
M  V30 7927 H 744.166 -1.69812 6.25354 0
M  V30 7928 N 737.572 -1.44907 -0.619662 0
M  V30 7929 C 738.522 -1.49085 -1.72504 0
M  V30 7930 C 739.506 -0.355372 -1.56926 0
M  V30 7931 O 740.698 -0.601441 -1.66468 0
M  V30 7932 C 737.827 -1.44889 -3.11227 0
M  V30 7933 C 736.913 -2.63593 -3.32234 0
M  V30 7934 N 737.304 -3.88775 -3.23555 0
M  V30 7935 C 735.602 -2.59033 -3.63067 0
M  V30 7936 C 736.303 -4.67932 -3.45564 0
M  V30 7937 N 735.279 -3.9919 -3.68983 0
M  V30 7938 H 739.081 -2.43706 -1.6427 0
M  V30 7939 H 736.595 -1.4003 -0.82252 0
M  V30 7940 H 738.592 -1.45966 -3.90512 0
M  V30 7941 H 737.252 -0.513143 -3.2062 0
M  V30 7942 H 738.263 -4.20574 -3.02221 0
M  V30 7943 H 734.94 -1.7431 -3.79371 0
M  V30 7944 H 736.33 -5.76952 -3.44349 0
M  V30 7945 N 739.05 0.861098 -1.31996 0
M  V30 7946 C 740.297 1.61481 -1.22188 0
M  V30 7947 C 740.625 1.93276 0.217853 0
M  V30 7948 O 739.88 1.56942 1.16909 0
M  V30 7949 C 740.179 2.94822 -2.02027 0
M  V30 7950 C 739.845 2.82483 -3.51446 0
M  V30 7951 C 738.507 2.78825 -3.92186 0
M  V30 7952 C 740.859 2.68878 -4.46491 0
M  V30 7953 C 738.187 2.59433 -5.26224 0
M  V30 7954 C 740.539 2.51022 -5.80664 0
M  V30 7955 C 739.203 2.45753 -6.20614 0
M  V30 7956 H 738.473 0.590902 -0.447119 0
M  V30 7957 H 741.12 0.999376 -1.63355 0
M  V30 7958 H 739.425 3.6045 -1.53569 0
M  V30 7959 H 741.122 3.52149 -1.91812 0
M  V30 7960 H 737.712 2.86152 -3.19085 0
M  V30 7961 H 741.896 2.70754 -4.1594 0
M  V30 7962 H 737.152 2.53784 -5.5624 0
M  V30 7963 H 741.326 2.39473 -6.53931 0
M  V30 7964 H 738.953 2.30485 -7.24417 0
M  V30 7965 N 740.528 1.15101 1.07655 0
M  V30 7966 C 741.753 0.948177 1.84457 0
M  V30 7967 C 742.178 -0.498432 1.81376 0
M  V30 7968 O 741.536 -1.35509 1.20445 0
M  V30 7969 C 741.584 1.46318 3.29581 0
M  V30 7970 O 740.688 0.660342 4.07079 0
M  V30 7971 H 740.029 0.338428 0.571281 0
M  V30 7972 H 742.559 1.5301 1.35828 0
M  V30 7973 H 742.569 1.47468 3.80417 0
M  V30 7974 H 741.244 2.51635 3.31138 0
M  V30 7975 H 739.821 0.718216 3.65918 0
M  V30 7976 N 742.006 -1.2595 0.947325 0
M  V30 7977 C 742.916 -2.29883 0.468079 0
M  V30 7978 C 743.932 -1.67783 -0.460975 0
M  V30 7979 O 745.108 -1.98526 -0.339006 0
M  V30 7980 C 742.173 -3.45773 -0.253315 0
M  V30 7981 C 741.234 -4.23337 0.713054 0
M  V30 7982 C 740.467 -5.33694 0.025993 0
M  V30 7983 O 740.69 -5.57853 -1.18978 0
M  V30 7984 O 739.624 -5.97724 0.70782 0
M  V30 7985 H 743.45 -2.72952 1.33156 0
M  V30 7986 H 741.035 -1.31263 0.713468 0
M  V30 7987 H 742.917 -4.16209 -0.659423 0
M  V30 7988 H 741.592 -3.04721 -1.09209 0
M  V30 7989 H 740.499 -3.55359 1.16923 0
M  V30 7990 H 741.832 -4.68154 1.51963 0
M  V30 7991 N 743.484 -0.715051 -1.40445 0
M  V30 7992 C 744.709 -0.26254 -2.05732 0
M  V30 7993 C 745.134 1.08691 -1.53519 0
M  V30 7994 O 744.492 1.68453 -0.670328 0
M  V30 7995 C 744.54 -0.25195 -3.59719 0
M  V30 7996 O 743.644 0.766998 -4.05205 0
M  V30 7997 H 742.985 -0.123398 -0.652433 0
M  V30 7998 H 745.515 -0.975382 -1.79854 0
M  V30 7999 H 745.525 -0.0894537 -4.07902 0
M  V30 8000 H 744.2 -1.23672 -3.97087 0
M  V30 8001 H 742.777 0.572269 -3.68483 0
M  V30 8002 N 744.962 1.50701 -0.461195 0
M  V30 8003 C 745.872 2.32069 0.343661 0
M  V30 8004 C 746.888 1.42016 1.00535 0
M  V30 8005 O 748.064 1.75077 0.995498 0
M  V30 8006 C 745.129 3.16424 1.41692 0
M  V30 8007 C 744.19 4.22286 0.772869 0
M  V30 8008 C 743.423 5.02609 1.79499 0
M  V30 8009 O 743.646 4.83874 3.0203 0
M  V30 8010 O 742.58 5.86047 1.3723 0
M  V30 8011 H 746.406 3.01996 -0.321268 0
M  V30 8012 H 743.991 1.47723 -0.223235 0
M  V30 8013 H 745.873 3.68795 2.03883 0
M  V30 8014 H 744.548 2.49236 2.0655 0
M  V30 8015 H 743.455 3.73931 0.112277 0
M  V30 8016 H 744.788 4.91915 0.167399 0
M  V30 8017 N 746.441 0.193421 1.56409 0
M  V30 8018 C 747.404 -0.714371 2.17783 0
M  V30 8019 C 748.404 -1.1422 1.13183 0
M  V30 8020 O 749.594 -1.05557 1.38576 0
M  V30 8021 C 746.726 -1.97509 2.77855 0
M  V30 8022 H 747.919 -0.179714 2.99361 0
M  V30 8023 H 745.472 -0.0561944 1.56199 0
M  V30 8024 H 746.207 -2.5523 2.0007 0
M  V30 8025 H 745.992 -1.67706 3.54425 0
M  V30 8026 H 747.482 -2.62246 3.24987 0
M  V30 8027 N 747.919 -1.57396 -0.0801906 0
M  V30 8028 C 749.144 -1.91437 -0.797909 0
M  V30 8029 C 749.569 -0.789075 -1.70749 0
M  V30 8030 O 748.927 0.25857 -1.79447 0
M  V30 8031 C 748.975 -3.24402 -1.57467 0
M  V30 8032 O 748.079 -3.13043 -2.68473 0
M  V30 8033 H 747.42 -0.627109 -0.218243 0
M  V30 8034 H 749.95 -2.04537 -0.050949 0
M  V30 8035 H 749.96 -3.58072 -1.95571 0
M  V30 8036 H 748.635 -4.05884 -0.907229 0
M  V30 8037 H 747.212 -2.90915 -2.33287 0
M  V30 8038 N 749.397 0.351382 -1.53633 0
M  V30 8039 C 750.329 1.45159 -1.77374 0
M  V30 8040 C 751.342 1.4905 -0.654826 0
M  V30 8041 O 752.531 1.52274 -0.931396 0
M  V30 8042 C 749.631 2.83858 -1.85143 0
M  V30 8043 C 748.804 3.03498 -3.14972 0
M  V30 8044 C 747.863 4.22393 -3.138 0
M  V30 8045 O 746.889 4.16885 -3.87551 0
M  V30 8046 N 748.091 5.30533 -2.35617 0
M  V30 8047 H 750.856 1.25167 -2.72311 0
M  V30 8048 H 748.417 0.54121 -1.52586 0
M  V30 8049 H 750.409 3.61557 -1.8182 0
M  V30 8050 H 748.979 2.9703 -0.974275 0
M  V30 8051 H 748.199 2.13336 -3.31484 0
M  V30 8052 H 749.487 3.13498 -4.00745 0
M  V30 8053 H 748.885 5.37875 -1.75235 0
M  V30 8054 H 747.442 6.06756 -2.38098 0
M  V30 8055 N 750.875 1.45233 0.611969 0
M  V30 8056 C 752.124 1.48296 1.36716 0
M  V30 8057 C 752.437 0.12706 1.95187 0
M  V30 8058 O 753.643 0.0353066 2.71477 0
M  V30 8059 C 752.099 2.61168 2.47627 0
M  V30 8060 C 751.707 4.03051 1.95587 0
M  V30 8061 C 753.451 2.73472 3.24674 0
M  V30 8062 C 751.358 5.07312 3.03954 0
M  V30 8063 H 750.288 0.5518 0.513841 0
M  V30 8064 H 752.939 1.7136 0.656359 0
M  V30 8065 H 751.321 2.31379 3.21372 0
M  V30 8066 H 752.495 4.42497 1.2858 0
M  V30 8067 H 750.81 3.95158 1.31298 0
M  V30 8068 H 753.407 3.48537 4.05494 0
M  V30 8069 H 753.75 1.79953 3.75397 0
M  V30 8070 H 754.283 3.02765 2.58028 0
M  V30 8071 H 751.022 6.02525 2.58154 0
M  V30 8072 H 750.542 4.7244 3.69541 0
M  V30 8073 H 752.221 5.31867 3.6841 0
M  V30 8074 N 752.353 -0.854086 1.3245 0
M  V30 8075 C 753.283 -1.97827 1.24044 0
M  V30 8076 C 754.264 -1.69646 0.124166 0
M  V30 8077 O 755.449 -1.91687 0.31143 0
M  V30 8078 C 752.579 -3.33673 0.963324 0
M  V30 8079 C 751.533 -3.76207 2.04089 0
M  V30 8080 C 750.859 -5.0969 1.61618 0
M  V30 8081 C 752.159 -3.91612 3.45597 0
M  V30 8082 H 753.853 -2.05118 2.18099 0
M  V30 8083 H 751.399 -0.985489 1.04996 0
M  V30 8084 H 753.352 -4.11871 0.891061 0
M  V30 8085 H 752.076 -3.26597 -0.0128649 0
M  V30 8086 H 750.735 -3.0026 2.10332 0
M  V30 8087 H 750.383 -4.99072 0.627418 0
M  V30 8088 H 750.083 -5.3912 2.33717 0
M  V30 8089 H 751.607 -5.90381 1.55829 0
M  V30 8090 H 753.021 -4.60163 3.4194 0
M  V30 8091 H 751.418 -4.3246 4.16051 0
M  V30 8092 H 752.488 -2.9451 3.85217 0
M  V30 8093 N 753.831 -1.1567 -1.07043 0
M  V30 8094 C 755.247 -0.900006 -1.31803 0
M  V30 8095 C 755.447 0.451293 -1.96381 0
M  V30 8096 O 754.503 1.19252 -2.22565 0
M  V30 8097 C 755.816 -2.04334 -2.20609 0
M  V30 8098 C 757.364 -2.07823 -2.34048 0
M  V30 8099 C 757.839 -3.21488 -3.26204 0
M  V30 8100 N 759.33 -3.21156 -3.33786 0
M  V30 8101 C 760.065 -4.05746 -4.05163 0
M  V30 8102 N 759.561 -5.00407 -4.79129 0
M  V30 8103 N 761.354 -3.93759 -4.01136 0
M  V30 8104 H 753.505 -2.02681 -0.635146 0
M  V30 8105 H 755.768 -0.883956 -0.342528 0
M  V30 8106 H 755.474 -3.01895 -1.80423 0
M  V30 8107 H 755.348 -1.97838 -3.21154 0
M  V30 8108 H 757.735 -1.1086 -2.73485 0
M  V30 8109 H 757.816 -2.18386 -1.33197 0
M  V30 8110 H 757.46 -4.18706 -2.87485 0
M  V30 8111 H 757.39 -3.08162 -4.27017 0
M  V30 8112 H 759.881 -2.52606 -2.81067 0
M  V30 8113 H 760.194 -5.61387 -5.31097 0
M  V30 8114 H 758.539 -5.04393 -4.78135 0
M  V30 8115 H 761.73 -3.19115 -3.42466 0
M  V30 8116 H 761.903 -4.59906 -4.56498 0
M  V30 8117 N 755.309 1.25446 -0.953992 0
M  V30 8118 C 756.534 1.97755 -0.625129 0
M  V30 8119 C 756.959 1.70437 0.795787 0
M  V30 8120 O 756.317 0.95992 1.53803 0
M  V30 8121 C 756.365 3.49463 -0.889251 0
M  V30 8122 O 755.469 4.12387 0.0322757 0
M  V30 8123 H 754.81 0.61998 -0.237742 0
M  V30 8124 H 757.34 1.59582 -1.28041 0
M  V30 8125 H 757.35 3.99772 -0.815263 0
M  V30 8126 H 756.025 3.68676 -1.92487 0
M  V30 8127 H 754.602 3.72782 -0.0938625 0
M  V30 8128 N 756.787 0.722489 1.40064 0
M  V30 8129 C 757.717 0.0892452 2.33329 0
M  V30 8130 C 758.698 -0.737992 1.53257 0
M  V30 8131 O 759.883 -0.685516 1.81698 0
M  V30 8132 C 757.013 -0.828139 3.37282 0
M  V30 8133 C 755.967 -0.106005 4.27869 0
M  V30 8134 C 755.293 -1.13957 5.22415 0
M  V30 8135 C 756.593 1.04395 5.11761 0
M  V30 8136 H 758.287 0.868269 2.86534 0
M  V30 8137 H 755.833 0.418982 1.3777 0
M  V30 8138 H 757.786 -1.28058 4.01471 0
M  V30 8139 H 756.51 -1.63914 2.82489 0
M  V30 8140 H 755.169 0.326683 3.65142 0
M  V30 8141 H 754.817 -1.9438 4.63924 0
M  V30 8142 H 754.517 -0.661233 5.83868 0
M  V30 8143 H 756.041 -1.59197 5.89482 0
M  V30 8144 H 757.455 0.670541 5.69365 0
M  V30 8145 H 755.852 1.4511 5.82291 0
M  V30 8146 H 756.922 1.87144 4.47331 0
M  V30 8147 N 758.265 -1.50454 0.469181 0
M  V30 8148 C 759.511 -2.02615 -0.0865971 0
M  V30 8149 C 759.844 -1.35062 -1.39542 0
M  V30 8150 O 759.119 -0.475701 -1.88593 0
M  V30 8151 C 759.402 -3.59068 -0.272385 0
M  V30 8152 C 759.255 -4.37196 1.05733 0
M  V30 8153 C 760.574 -4.2793 -1.0278 0
M  V30 8154 H 757.693 -0.736389 -0.0299977 0
M  V30 8155 H 760.335 -1.79792 0.614399 0
M  V30 8156 H 758.485 -3.78646 -0.869471 0
M  V30 8157 H 760.157 -4.29195 1.69084 0
M  V30 8158 H 758.4 -4.01013 1.65442 0
M  V30 8159 H 759.071 -5.44924 0.880997 0
M  V30 8160 H 761.547 -4.12816 -0.521718 0
M  V30 8161 H 760.423 -5.37214 -1.12659 0
M  V30 8162 H 760.684 -3.90968 -2.0639 0
M  V30 8163 N 759.743 -0.201713 -1.56304 0
M  V30 8164 C 760.968 0.443815 -2.02596 0
M  V30 8165 C 761.393 1.53945 -1.08086 0
M  V30 8166 O 760.751 1.81182 -0.0655056 0
M  V30 8167 C 760.799 0.971066 -3.47279 0
M  V30 8168 O 759.903 2.0836 -3.55893 0
M  V30 8169 H 759.244 0.10294 -0.655972 0
M  V30 8170 H 761.774 -0.314533 -2.02168 0
M  V30 8171 H 761.784 1.28598 -3.87204 0
M  V30 8172 H 760.459 0.169048 -4.15556 0
M  V30 8173 H 759.036 1.77683 -3.27846 0
M  V30 8174 N 761.222 1.57436 0.0718424 0
M  V30 8175 C 762.185 2.02703 1.06977 0
M  V30 8176 C 763.185 0.924062 1.31597 0
M  V30 8177 O 764.375 1.18894 1.27318 0
M  V30 8178 C 761.507 2.40763 2.41342 0
M  V30 8179 H 762.7 2.92098 0.679619 0
M  V30 8180 H 760.253 1.5304 0.317565 0
M  V30 8181 H 760.988 1.54394 2.8519 0
M  V30 8182 H 760.773 3.21249 2.24814 0
M  V30 8183 H 762.263 2.76361 3.13073 0
M  V30 8184 N 762.7 -0.34323 1.53817 0
M  V30 8185 C 763.946 -1.08504 1.71332 0
M  V30 8186 C 764.279 -1.88294 0.475285 0
M  V30 8187 O 763.554 -1.87205 -0.527688 0
M  V30 8188 C 763.837 -2.02597 2.97702 0
M  V30 8189 C 763.69 -1.26268 4.31713 0
M  V30 8190 C 765.009 -3.0241 3.19744 0
M  V30 8191 H 762.128 -0.393072 0.623429 0
M  V30 8192 H 764.77 -0.363579 1.86489 0
M  V30 8193 H 762.92 -2.64118 2.8491 0
M  V30 8194 H 764.592 -0.673594 4.56356 0
M  V30 8195 H 762.835 -0.564696 4.30109 0
M  V30 8196 H 763.506 -1.95253 5.16314 0
M  V30 8197 H 765.982 -2.51004 3.31868 0
M  V30 8198 H 764.858 -3.65449 4.09558 0
M  V30 8199 H 765.119 -3.73806 2.36054 0
M  V30 8200 N 764.178 -1.45556 -0.604258 0
M  V30 8201 C 765.403 -1.53509 -1.39462 0
M  V30 8202 C 765.828 -0.169638 -1.87333 0
M  V30 8203 O 765.186 0.846346 -1.60333 0
M  V30 8204 C 765.234 -2.52654 -2.5729 0
M  V30 8205 O 764.338 -2.04666 -3.5803 0
M  V30 8206 H 763.679 -0.517355 -0.416221 0
M  V30 8207 H 766.209 -1.90939 -0.735072 0
M  V30 8208 H 766.219 -2.71568 -3.04491 0
M  V30 8209 H 764.894 -3.51823 -2.21797 0
M  V30 8210 H 763.471 -1.95643 -3.17456 0
M  V30 8211 N 765.656 0.84705 -1.32902 0
M  V30 8212 C 766.903 1.60176 -1.23894 0
M  V30 8213 C 767.231 1.93496 0.197341 0
M  V30 8214 O 766.486 1.58173 1.15238 0
M  V30 8215 C 766.785 2.92663 -2.05142 0
M  V30 8216 C 766.451 2.7874 -3.54422 0
M  V30 8217 C 765.113 2.7465 -3.95121 0
M  V30 8218 C 767.465 2.64128 -4.49317 0
M  V30 8219 C 764.793 2.53837 -5.28946 0
M  V30 8220 C 767.145 2.44849 -5.83294 0
M  V30 8221 C 765.809 2.39156 -6.23186 0
M  V30 8222 H 765.079 0.586127 -0.453361 0
M  V30 8223 H 767.726 0.981994 -1.64405 0
M  V30 8224 H 766.031 3.588 -1.57383 0
M  V30 8225 H 767.728 3.50095 -1.95537 0
M  V30 8226 H 764.318 2.82751 -3.22102 0
M  V30 8227 H 768.502 2.66327 -4.18788 0
M  V30 8228 H 763.758 2.4787 -5.58901 0
M  V30 8229 H 767.932 2.32524 -6.56434 0
M  V30 8230 H 765.559 2.22789 -7.26821 0
M  V30 8231 N 767.134 1.16236 1.06428 0
M  V30 8232 C 768.067 0.81119 2.13295 0
M  V30 8233 C 769.045 -0.216555 1.61151 0
M  V30 8234 O 770.229 -0.100949 1.88229 0
M  V30 8235 C 767.356 0.207901 3.38061 0
M  V30 8236 C 766.402 1.20904 4.09004 0
M  V30 8237 S 767.235 2.75513 4.59187 0
M  V30 8238 C 768.391 2.1663 5.87216 0
M  V30 8239 H 768.624 1.71632 2.42755 0
M  V30 8240 H 766.157 0.985693 1.18842 0
M  V30 8241 H 768.115 -0.133715 4.10282 0
M  V30 8242 H 766.776 -0.67497 3.06762 0
M  V30 8243 H 765.969 0.735326 4.98607 0
M  V30 8244 H 765.571 1.49567 3.42791 0
M  V30 8245 H 767.863 1.53413 6.59902 0
M  V30 8246 H 768.806 3.04437 6.39315 0
M  V30 8247 H 769.214 1.60565 5.41183 0
M  V30 8248 N 768.612 -1.24939 0.960631 0
M  V30 8249 C 769.562 -2.23388 0.456266 0
M  V30 8250 C 770.546 -1.54249 -0.45782 0
M  V30 8251 O 771.738 -1.7461 -0.289894 0
M  V30 8252 C 768.867 -3.42321 -0.259024 0
M  V30 8253 C 767.953 -4.18718 0.673478 0
M  V30 8254 N 768.344 -4.72394 1.8077 0
M  V30 8255 C 766.642 -4.43378 0.482859 0
M  V30 8256 C 767.343 -5.30316 2.3904 0
M  V30 8257 N 766.319 -5.17109 1.67629 0
M  V30 8258 H 770.121 -2.62499 1.32179 0
M  V30 8259 H 767.635 -1.40245 0.818851 0
M  V30 8260 H 769.632 -4.11997 -0.637527 0
M  V30 8261 H 768.292 -3.04732 -1.12108 0
M  V30 8262 H 769.303 -4.69345 2.18942 0
M  V30 8263 H 765.98 -4.16147 -0.335821 0
M  V30 8264 H 767.37 -5.82594 3.34715 0
M  V30 8265 N 770.09 -0.729906 -1.39679 0
M  V30 8266 C 771 -0.0880322 -2.34435 0
M  V30 8267 C 772.016 0.727674 -1.58053 0
M  V30 8268 O 773.192 0.657321 -1.90371 0
M  V30 8269 C 770.257 0.812211 -3.37052 0
M  V30 8270 C 769.318 -0.0151681 -4.29297 0
M  V30 8271 C 768.551 0.842202 -5.27013 0
M  V30 8272 O 768.774 2.08108 -5.31081 0
M  V30 8273 O 767.708 0.27357 -6.01278 0
M  V30 8274 H 771.534 -0.869989 -2.90972 0
M  V30 8275 H 769.119 -0.490522 -1.41118 0
M  V30 8276 H 771.001 1.32745 -3.99946 0
M  V30 8277 H 769.676 1.57307 -2.82907 0
M  V30 8278 H 768.583 -0.575811 -3.69642 0
M  V30 8279 H 769.916 -0.738129 -4.86634 0
M  V30 8280 N 771.568 1.50203 -0.477153 0
M  V30 8281 C 772.478 2.32421 0.319027 0
M  V30 8282 C 773.494 1.43075 0.990233 0
M  V30 8283 O 774.67 1.76123 0.976873 0
M  V30 8284 C 771.735 3.17909 1.38328 0
M  V30 8285 C 770.796 4.23082 0.728036 0
M  V30 8286 C 770.029 5.04484 1.74158 0
M  V30 8287 O 770.252 4.8705 2.96881 0
M  V30 8288 O 769.186 5.8747 1.31006 0
M  V30 8289 H 773.012 3.01638 -0.353281 0
M  V30 8290 H 770.597 1.47478 -0.238891 0
M  V30 8291 H 772.479 3.70937 1.9996 0
M  V30 8292 H 771.154 2.51413 2.03895 0
M  V30 8293 H 770.061 3.7403 0.07261 0
M  V30 8294 H 771.394 4.92065 0.115216 0
M  V30 8295 N 773.046 0.209999 1.56195 0
M  V30 8296 C 774.009 -0.691232 2.18528 0
M  V30 8297 C 775.009 -1.13013 1.14388 0
M  V30 8298 O 776.199 -1.04081 1.39688 0
M  V30 8299 C 773.331 -1.94551 2.79934 0
M  V30 8300 H 774.524 -0.147953 2.99535 0
M  V30 8301 H 772.077 -0.0396243 1.5625 0
M  V30 8302 H 772.812 -2.53094 2.02766 0
M  V30 8303 H 772.597 -1.63938 3.56184 0
M  V30 8304 H 774.087 -2.58785 3.2775 0
M  V30 8305 N 774.524 -1.57472 -0.0634922 0
M  V30 8306 C 775.772 -1.87283 -0.759563 0
M  V30 8307 C 776.093 -0.803135 -1.77693 0
M  V30 8308 O 775.363 0.167293 -1.95184 0
M  V30 8309 H 773.943 -0.691106 -0.283516 0
M  V30 8310 H 776.605 -1.94864 -0.0376091 0
M  V30 8311 H 775.701 -2.85064 -1.27062 0
M  V30 8312 N 776.003 0.335068 -1.53997 0
M  V30 8313 C 777.249 1.07594 -1.71905 0
M  V30 8314 C 777.582 1.88039 -0.485264 0
M  V30 8315 O 776.857 1.87482 0.517752 0
M  V30 8316 C 777.14 2.01016 -2.98772 0
M  V30 8317 C 776.993 1.23977 -4.32377 0
M  V30 8318 C 778.312 3.0071 -3.21343 0
M  V30 8319 H 775.431 0.38976 -0.625505 0
M  V30 8320 H 778.073 0.353684 -1.86679 0
M  V30 8321 H 776.223 2.62603 -2.86307 0
M  V30 8322 H 777.895 0.649383 -4.56706 0
M  V30 8323 H 776.138 0.541878 -4.30402 0
M  V30 8324 H 776.809 1.92512 -5.17342 0
M  V30 8325 H 779.285 2.4924 -3.33194 0
M  V30 8326 H 778.161 3.63272 -4.11491 0
M  V30 8327 H 778.422 3.72549 -2.38033 0
M  V30 8328 N 777.481 1.45874 0.596531 0
M  V30 8329 C 778.727 1.5069 1.35722 0
M  V30 8330 C 779.06 0.152506 1.936 0
M  V30 8331 O 778.335 -0.834411 1.75692 0
M  V30 8332 C 778.618 2.59474 2.4969 0
M  V30 8333 C 778.471 4.04396 1.96937 0
M  V30 8334 C 779.79 2.64451 3.51787 0
M  V30 8335 H 776.909 0.548611 0.492133 0
M  V30 8336 H 779.551 1.77741 0.671428 0
M  V30 8337 H 777.701 2.36539 3.08191 0
M  V30 8338 H 779.373 4.38576 1.43 0
M  V30 8339 H 777.616 4.14529 1.27859 0
M  V30 8340 H 778.287 4.76218 2.79143 0
M  V30 8341 H 780.763 2.85031 3.03145 0
M  V30 8342 H 779.639 3.42411 4.29006 0
M  V30 8343 H 779.9 1.69965 4.08123 0
M  V30 8344 N 778.959 -0.83999 1.33349 0
M  V30 8345 C 779.909 -1.93817 1.20079 0
M  V30 8346 C 780.893 -1.60564 0.103978 0
M  V30 8347 O 782.085 -1.73859 0.331964 0
M  V30 8348 C 779.214 -3.30151 0.941031 0
M  V30 8349 C 778.3 -3.69577 2.08023 0
M  V30 8350 N 778.691 -3.80707 3.3301 0
M  V30 8351 C 776.989 -3.99309 1.98667 0
M  V30 8352 C 777.69 -4.14899 4.07717 0
M  V30 8353 N 776.666 -4.27208 3.36146 0
M  V30 8354 H 780.468 -2.00576 2.14817 0
M  V30 8355 H 777.982 -1.03264 1.2534 0
M  V30 8356 H 779.979 -4.08617 0.826894 0
M  V30 8357 H 778.639 -3.247 0.00216738 0
M  V30 8358 H 779.65 -3.64644 3.67771 0
M  V30 8359 H 776.327 -4.02076 1.12433 0
M  V30 8360 H 777.717 -4.30857 5.15569 0
M  V30 8361 N 780.437 -1.16799 -1.0581 0
M  V30 8362 C 781.853 -0.913935 -1.30841 0
M  V30 8363 C 782.053 0.430439 -1.96849 0
M  V30 8364 O 781.109 1.16885 -2.23817 0
M  V30 8365 C 782.422 -2.06662 -2.18429 0
M  V30 8366 C 783.97 -2.10294 -2.31831 0
M  V30 8367 C 784.445 -3.2493 -3.22776 0
M  V30 8368 N 785.936 -3.24678 -3.30361 0
M  V30 8369 C 786.671 -4.10021 -4.00837 0
M  V30 8370 N 786.167 -5.05461 -4.73795 0
M  V30 8371 N 787.96 -3.97991 -3.96937 0
M  V30 8372 H 780.111 -2.03343 -0.613613 0
M  V30 8373 H 782.374 -0.88754 -0.333133 0
M  V30 8374 H 782.08 -3.03791 -1.77211 0
M  V30 8375 H 781.954 -2.01233 -3.19038 0
M  V30 8376 H 784.341 -1.13754 -2.72294 0
M  V30 8377 H 784.422 -2.19786 -1.30873 0
M  V30 8378 H 784.066 -4.21731 -2.83028 0
M  V30 8379 H 783.996 -3.12674 -4.23725 0
M  V30 8380 H 786.487 -2.55573 -2.78372 0
M  V30 8381 H 786.8 -5.66989 -5.25113 0
M  V30 8382 H 785.145 -5.09436 -4.72758 0
M  V30 8383 H 788.336 -3.2273 -3.39062 0
M  V30 8384 H 788.509 -4.64722 -4.51594 0
M  V30 8385 N 781.915 1.24427 -0.967243 0
M  V30 8386 C 783.192 1.87831 -0.545776 0
M  V30 8387 C 783.572 1.87126 0.977099 0
M  V30 8388 O 782.92 1.34357 1.84826 0
M  V30 8389 C 783.13 3.29967 -1.13679 0
M  V30 8390 C 784.478 4.06654 -1.22139 0
M  V30 8391 O 785.502 3.39136 -1.08926 0
M  V30 8392 O 784.361 5.27455 -1.43017 0
M  V30 8393 H 781.455 0.806745 -0.181912 0
M  V30 8394 H 784.001 1.32403 -1.06148 0
M  V30 8395 H 782.773 3.24977 -2.17958 0
M  V30 8396 H 782.396 3.92969 -0.605093 0
M  V30 8397 N 783.393 0.737304 1.3929 0
M  V30 8398 C 784.323 0.113988 2.33222 0
M  V30 8399 C 785.304 -0.721695 1.54031 0
M  V30 8400 O 786.489 -0.666206 1.82415 0
M  V30 8401 C 783.619 -0.792319 3.38141 0
M  V30 8402 C 782.573 -0.0606178 4.27957 0
M  V30 8403 C 781.899 -1.08409 5.23595 0
M  V30 8404 C 783.199 1.09817 5.10625 0
M  V30 8405 H 784.893 0.898611 2.85596 0
M  V30 8406 H 782.439 0.433571 1.37318 0
M  V30 8407 H 784.392 -1.23793 4.02807 0
M  V30 8408 H 783.116 -1.60908 2.84211 0
M  V30 8409 H 781.775 0.365393 3.64775 0
M  V30 8410 H 781.423 -1.89449 4.6596 0
M  V30 8411 H 781.123 -0.599269 5.84536 0
M  V30 8412 H 782.647 -1.52936 5.91137 0
M  V30 8413 H 784.061 0.730892 5.68622 0
M  V30 8414 H 782.458 1.51278 5.80719 0
M  V30 8415 H 783.528 1.91878 4.45321 0
M  V30 8416 N 784.871 -1.49948 0.485112 0
M  V30 8417 C 785.818 -2.28819 -0.301729 0
M  V30 8418 C 786.788 -1.34496 -0.974683 0
M  V30 8419 O 787.973 -1.63444 -0.984418 0
M  V30 8420 C 785.113 -3.16758 -1.36961 0
M  V30 8421 C 784.226 -4.26125 -0.710027 0
M  V30 8422 C 783.361 -5.01302 -1.75699 0
M  V30 8423 C 782.4 -6.02525 -1.07841 0
M  V30 8424 N 781.537 -6.70927 -2.06886 0
M  V30 8425 H 786.377 -2.95604 0.377127 0
M  V30 8426 H 783.914 -1.45764 0.197826 0
M  V30 8427 H 785.872 -3.66106 -2.00056 0
M  V30 8428 H 784.502 -2.51991 -2.01744 0
M  V30 8429 H 783.554 -3.80385 0.0338278 0
M  V30 8430 H 784.866 -4.98493 -0.175079 0
M  V30 8431 H 784.02 -5.54438 -2.46339 0
M  V30 8432 H 782.759 -4.28672 -2.32577 0
M  V30 8433 H 781.764 -5.48635 -0.357706 0
M  V30 8434 H 782.989 -6.77134 -0.516345 0
M  V30 8435 H 780.935 -6.01079 -2.62755 0
M  V30 8436 H 780.852 -7.39216 -1.58414 0
M  V30 8437 H 782.12 -7.28675 -2.76863 0
M  V30 8438 N 786.349 -0.21828 -1.56081 0
M  V30 8439 C 787.76 0.290166 -1.84431 0
M  V30 8440 C 788.111 1.59712 -1.13958 0
M  V30 8441 O 787.236 2.12516 -0.40815 0
M  V30 8442 C 787.831 0.53325 -3.34577 0
M  V30 8443 C 786.39 0.986011 -3.63256 0
M  V30 8444 C 785.537 0.0472798 -2.7726 0
M  V30 8445 H 788.488 -0.441548 -1.52434 0
M  V30 8446 H 788.509 1.37967 -3.54606 0
M  V30 8447 H 788.021 -0.418137 -3.85841 0
M  V30 8448 H 786.122 1.95087 -3.17446 0
M  V30 8449 H 786.235 0.862684 -4.71269 0
M  V30 8450 H 784.599 0.553471 -2.48614 0
M  V30 8451 H 785.382 -0.898966 -3.31321 0
M  V30 8452 N 787.827 1.57504 0.0551401 0
M  V30 8453 C 788.737 2.08198 1.08124 0
M  V30 8454 C 789.753 1.01496 1.41331 0
M  V30 8455 O 790.929 1.33073 1.51174 0
M  V30 8456 C 787.994 2.52968 2.37083 0
M  V30 8457 C 787.055 3.7404 2.10696 0
M  V30 8458 C 786.288 4.16665 3.33505 0
M  V30 8459 O 786.511 3.59019 4.4324 0
M  V30 8460 O 785.445 5.09324 3.20737 0
M  V30 8461 H 789.271 2.95977 0.680518 0
M  V30 8462 H 786.856 1.46933 0.270401 0
M  V30 8463 H 788.738 2.82211 3.12946 0
M  V30 8464 H 787.413 1.6831 2.76502 0
M  V30 8465 H 786.32 3.49855 1.32484 0
M  V30 8466 H 787.653 4.59601 1.76148 0
M  V30 8467 N 789.305 -0.326896 1.54172 0
M  V30 8468 C 790.253 -1.42232 1.84046 0
M  V30 8469 C 791.247 -1.53705 0.712115 0
M  V30 8470 O 792.453 -1.56131 0.895724 0
M  V30 8471 H 788.828 -0.474568 0.583343 0
M  V30 8472 H 790.799 -1.14259 2.75658 0
M  V30 8473 C 789.548 -2.78502 2.08163 0
M  V30 8474 H 788.871 -2.70447 2.94446 0
M  V30 8475 H 790.311 -3.54228 2.33021 0
M  V30 8476 C 788.77 -3.25415 0.872152 0
M  V30 8477 O 789.3 -4.01621 0.0797648 0
M  V30 8478 N 787.506 -2.82418 0.684716 0
M  V30 8479 H 787.053 -2.20566 1.33072 0
M  V30 8480 H 787.011 -3.14159 -0.123031 0
M  V30 8481 N 790.784 -1.46188 -0.588786 0
M  V30 8482 C 792.033 -1.50452 -1.34339 0
M  V30 8483 C 792.346 -0.158096 -1.9496 0
M  V30 8484 O 793.552 -0.0784918 -2.71387 0
M  V30 8485 C 792.008 -2.65074 -2.43441 0
M  V30 8486 C 791.616 -4.06111 -1.8915 0
M  V30 8487 C 793.36 -2.78603 -3.20282 0
M  V30 8488 C 791.267 -5.12084 -2.95845 0
M  V30 8489 H 790.197 -0.559905 -0.504997 0
M  V30 8490 H 792.848 -1.72382 -0.629014 0
M  V30 8491 H 791.23 -2.36462 -3.1765 0
M  V30 8492 H 792.404 -4.44487 -1.21524 0
M  V30 8493 H 790.719 -3.97197 -1.24995 0
M  V30 8494 H 793.316 -3.54944 -3.99898 0
M  V30 8495 H 793.659 -1.85902 -3.72486 0
M  V30 8496 H 794.192 -3.06832 -2.53178 0
M  V30 8497 H 790.931 -6.06556 -2.48535 0
M  V30 8498 H 790.451 -4.78259 -3.61979 0
M  V30 8499 H 792.13 -5.37661 -3.59902 0
M  V30 8500 N 792.262 0.832906 -1.33792 0
M  V30 8501 C 793.192 1.95828 -1.27176 0
M  V30 8502 C 794.173 1.69427 -0.15114 0
M  V30 8503 O 795.358 1.91167 -0.341886 0
M  V30 8504 C 792.488 3.32098 -1.01629 0
M  V30 8505 C 791.442 3.72912 -2.10049 0
M  V30 8506 C 790.768 5.07054 -1.69706 0
M  V30 8507 C 792.068 3.86064 -3.51783 0
M  V30 8508 H 793.762 2.01622 -2.21334 0
M  V30 8509 H 791.308 0.96866 -1.0655 0
M  V30 8510 H 793.261 4.10402 -0.956474 0
M  V30 8511 H 791.985 3.26577 -0.0390956 0
M  V30 8512 H 790.644 2.96876 -2.15082 0
M  V30 8513 H 790.292 4.9801 -0.706737 0
M  V30 8514 H 789.992 5.35333 -2.42264 0
M  V30 8515 H 791.516 5.87827 -1.65202 0
M  V30 8516 H 792.93 4.54665 -3.49218 0
M  V30 8517 H 791.327 4.25787 -4.22878 0
M  V30 8518 H 792.397 2.88344 -3.89854 0
M  V30 8519 N 793.74 1.17359 1.05189 0
M  V30 8520 C 794.97 0.985099 1.81602 0
M  V30 8521 C 795.378 -0.469872 1.83273 0
M  V30 8522 O 794.721 -1.33806 1.25864 0
M  V30 8523 C 794.783 1.44956 3.2898 0
M  V30 8524 C 794.447 2.92666 3.50993 0
M  V30 8525 C 795.444 3.906 3.43115 0
M  V30 8526 C 793.129 3.30841 3.77954 0
M  V30 8527 C 795.123 5.24709 3.61883 0
M  V30 8528 C 792.81 4.65116 3.96371 0
M  V30 8529 C 793.808 5.61859 3.88335 0
M  V30 8530 O 793.496 6.93704 4.06238 0
M  V30 8531 H 793.228 0.348731 0.579105 0
M  V30 8532 H 795.782 1.56066 1.33539 0
M  V30 8533 H 794.012 0.817559 3.77959 0
M  V30 8534 H 795.701 1.22674 3.86919 0
M  V30 8535 H 796.467 3.62453 3.22262 0
M  V30 8536 H 792.346 2.5611 3.83313 0
M  V30 8537 H 795.89 6.00205 3.55527 0
M  V30 8538 H 791.787 4.92969 4.16715 0
M  V30 8539 H 792.555 7.00443 4.23463 0
M  V30 8540 N 795.218 -1.23913 0.973828 0
M  V30 8541 C 796.181 -2.23367 0.51378 0
M  V30 8542 C 797.181 -1.55923 -0.39302 0
M  V30 8543 O 798.371 -1.73187 -0.187626 0
M  V30 8544 C 795.503 -3.39944 -0.255152 0
M  V30 8545 H 796.696 -2.65581 1.39307 0
M  V30 8546 H 794.249 -1.36632 0.759039 0
M  V30 8547 H 794.984 -3.03177 -1.15127 0
M  V30 8548 H 794.769 -3.90098 0.395673 0
M  V30 8549 H 796.259 -4.13749 -0.565842 0
M  V30 8550 N 796.696 -0.74468 -1.38897 0
M  V30 8551 C 797.973 -0.222773 -1.94327 0
M  V30 8552 C 798.353 1.27731 -1.68071 0
M  V30 8553 O 797.701 2.04754 -1.01429 0
M  V30 8554 C 797.911 -0.566836 -3.44366 0
M  V30 8555 C 799.259 -0.521531 -4.21385 0
M  V30 8556 O 800.283 -0.504599 -3.52608 0
M  V30 8557 O 799.142 -0.524595 -5.43976 0
M  V30 8558 H 796.236 -0.0439259 -0.825833 0
M  V30 8559 H 798.782 -0.824197 -1.48341 0
M  V30 8560 H 797.554 -1.60321 -3.56949 0
M  V30 8561 H 797.177 0.0630577 -3.9755 0
M  V30 8562 N 798.174 1.49689 -0.493057 0
M  V30 8563 C 799.451 1.9525 0.116907 0
M  V30 8564 C 799.831 1.43429 1.54892 0
M  V30 8565 O 799.179 0.644621 2.19219 0
M  V30 8566 C 799.389 3.4898 0.037705 0
M  V30 8567 C 800.737 4.24052 0.215621 0
M  V30 8568 O 801.761 3.5602 0.113266 0
M  V30 8569 O 800.62 5.44847 0.42477 0
M  V30 8570 H 797.714 0.820973 0.099662 0
M  V30 8571 H 800.26 1.60367 -0.555029 0
M  V30 8572 H 799.032 3.79309 -0.961251 0
M  V30 8573 H 798.655 3.9046 0.750137 0
M  V30 8574 N 799.652 0.226554 1.55963 0
M  V30 8575 C 800.88 -0.408507 2.02827 0
M  V30 8576 C 801.295 -1.52994 1.10627 0
M  V30 8577 O 800.652 -1.82126 0.116809 0
M  V30 8578 C 800.703 -0.93545 3.49187 0
M  V30 8579 O 800.424 0.141273 4.37872 0
M  V30 8580 C 801.925 -1.64325 4.11719 0
M  V30 8581 H 799.145 -0.099442 0.66359 0
M  V30 8582 H 801.689 0.344471 2.01578 0
M  V30 8583 H 799.844 -1.63868 3.51036 0
M  V30 8584 H 800.258 -0.25558 5.23877 0
M  V30 8585 H 801.732 -1.9639 5.15883 0
M  V30 8586 H 802.209 -2.55815 3.57009 0
M  V30 8587 H 802.815 -0.9851 4.13734 0
M  V30 8588 N 801.13 -1.57531 -0.0467866 0
M  V30 8589 C 802.541 -1.76945 -0.595603 0
M  V30 8590 C 802.892 -0.855354 -1.76573 0
M  V30 8591 O 802.017 -0.045668 -2.16352 0
M  V30 8592 C 802.612 -3.20881 -1.08725 0
M  V30 8593 C 801.171 -3.41553 -1.58172 0
M  V30 8594 C 800.318 -2.72533 -0.511968 0
M  V30 8595 H 803.269 -1.57682 0.179436 0
M  V30 8596 H 803.29 -3.26419 -1.95528 0
M  V30 8597 H 802.802 -3.87385 -0.235398 0
M  V30 8598 H 800.903 -2.80199 -2.456 0
M  V30 8599 H 801.016 -4.50104 -1.64143 0
M  V30 8600 H 799.38 -2.35797 -0.962899 0
M  V30 8601 H 800.163 -3.41709 0.330117 0
M  V30 8602 N 802.608 0.318715 -1.54344 0
M  V30 8603 C 803.856 1.054 -1.72439 0
M  V30 8604 C 804.177 1.88388 -0.503495 0
M  V30 8605 O 803.447 1.89866 0.48246 0
M  V30 8606 H 802.027 0.392124 -0.635805 0
M  V30 8607 H 804.689 0.35398 -1.91659 0
M  V30 8608 H 803.785 1.71726 -2.60608 0
M  V30 8609 N 804.086 1.46499 0.581025 0
M  V30 8610 C 805.049 1.5677 1.672 0
M  V30 8611 C 806.049 0.444716 1.54528 0
M  V30 8612 O 807.239 0.709074 1.59116 0
M  V30 8613 C 804.371 1.4896 3.06633 0
M  V30 8614 H 805.564 2.54 1.5945 0
M  V30 8615 H 803.117 1.34334 0.799003 0
M  V30 8616 H 803.852 0.530168 3.19937 0
M  V30 8617 H 803.637 2.30439 3.17239 0
M  V30 8618 H 805.127 1.59237 3.86048 0
M  V30 8619 N 805.565 -0.825799 1.34232 0
M  V30 8620 C 806.976 -1.39835 1.23706 0
M  V30 8621 C 807.327 -1.95709 -0.138649 0
M  V30 8622 O 806.452 -1.89833 -1.03886 0
M  V30 8623 C 807.047 -2.54203 2.23978 0
M  V30 8624 C 805.606 -3.07374 2.17251 0
M  V30 8625 C 804.753 -1.80232 2.10741 0
M  V30 8626 H 807.704 -0.630442 1.4564 0
M  V30 8627 H 807.725 -3.32214 1.8551 0
M  V30 8628 H 807.237 -2.13506 3.24094 0
M  V30 8629 H 805.338 -3.52583 1.20483 0
M  V30 8630 H 805.451 -3.6666 3.08379 0
M  V30 8631 H 803.815 -2.01012 1.56417 0
M  V30 8632 H 804.598 -1.41713 3.12686 0
M  V30 8633 N 807.043 -1.17915 -1.04565 0
M  V30 8634 C 808.289 -0.972863 -1.77942 0
M  V30 8635 C 808.622 0.496753 -1.87739 0
M  V30 8636 O 807.897 1.3688 -1.38181 0
M  V30 8637 C 808.18 -1.62227 -3.21488 0
M  V30 8638 C 808.033 -3.16441 -3.19664 0
M  V30 8639 C 809.352 -1.33137 -4.19479 0
M  V30 8640 H 806.471 -0.354843 -0.645953 0
M  V30 8641 H 809.113 -1.45508 -1.22178 0
M  V30 8642 H 807.263 -1.21224 -3.69103 0
M  V30 8643 H 808.935 -3.66544 -2.80077 0
M  V30 8644 H 807.178 -3.48863 -2.57832 0
M  V30 8645 H 807.849 -3.57012 -4.21006 0
M  V30 8646 H 810.325 -1.68654 -3.80388 0
M  V30 8647 H 809.201 -1.81151 -5.18146 0
M  V30 8648 H 809.462 -0.253319 -4.41374 0
M  V30 8649 N 808.521 1.23394 -0.980386 0
M  V30 8650 C 809.468 2.24859 -0.520298 0
M  V30 8651 C 810.438 1.60144 0.440821 0
M  V30 8652 O 811.623 1.87593 0.348369 0
M  V30 8653 C 808.763 3.44675 0.171145 0
M  V30 8654 C 807.876 4.23947 -0.830233 0
M  V30 8655 C 807.011 5.31079 -0.113597 0
M  V30 8656 C 806.05 6.02058 -1.10419 0
M  V30 8657 N 805.187 7.00862 -0.416709 0
M  V30 8658 H 810.027 2.63579 -1.39032 0
M  V30 8659 H 807.564 1.29556 -0.696682 0
M  V30 8660 H 809.522 4.13024 0.588838 0
M  V30 8661 H 808.152 3.06755 1.00504 0
M  V30 8662 H 807.204 3.55016 -1.36631 0
M  V30 8663 H 808.516 4.72945 -1.58508 0
M  V30 8664 H 807.67 6.05622 0.36146 0
M  V30 8665 H 806.409 4.83022 0.673854 0
M  V30 8666 H 805.414 5.26307 -1.59 0
M  V30 8667 H 806.639 6.52203 -1.8923 0
M  V30 8668 H 804.585 6.55057 0.351535 0
M  V30 8669 H 804.502 7.47804 -1.11021 0
M  V30 8670 H 805.77 7.79492 0.0359606 0
M  V30 8671 N 809.999 0.752036 1.385 0
M  V30 8672 C 811.248 0.304294 1.99391 0
M  V30 8673 C 811.561 -1.11982 1.60373 0
M  V30 8674 O 812.767 -1.66795 2.14223 0
M  V30 8675 C 811.223 0.493101 3.56506 0
M  V30 8676 C 810.831 1.9262 4.04477 0
M  V30 8677 C 812.575 0.107994 4.24363 0
M  V30 8678 C 810.482 2.06365 5.54227 0
M  V30 8679 H 809.412 0.110024 0.745929 0
M  V30 8680 H 812.063 0.928355 1.58284 0
M  V30 8681 H 810.445 -0.20012 3.95494 0
M  V30 8682 H 811.619 2.65276 3.76783 0
M  V30 8683 H 809.934 2.26608 3.49339 0
M  V30 8684 H 812.531 0.189474 5.34364 0
M  V30 8685 H 812.874 -0.939165 4.05568 0
M  V30 8686 H 813.407 0.753011 3.90608 0
M  V30 8687 H 810.146 3.0933 5.77923 0
M  V30 8688 H 809.666 1.38167 5.83669 0
M  V30 8689 H 811.345 1.85286 6.19902 0
M  V30 8690 N 811.477 -1.49425 0.500989 0
M  V30 8691 C 812.726 -2.01649 -0.04538 0
M  V30 8692 C 813.039 -1.38572 -1.38047 0
M  V30 8693 O 814.245 -1.82124 -2.01353 0
M  V30 8694 C 812.701 -3.5966 -0.131337 0
M  V30 8695 C 812.309 -4.3171 1.19711 0
M  V30 8696 C 814.053 -4.19828 -0.628071 0
M  V30 8697 C 811.96 -5.81579 1.07332 0
M  V30 8698 H 810.89 -0.753715 -0.0207329 0
M  V30 8699 H 813.541 -1.71962 0.640407 0
M  V30 8700 H 811.923 -3.86063 -0.881574 0
M  V30 8701 H 813.097 -4.17008 1.96064 0
M  V30 8702 H 811.412 -3.83286 1.62729 0
M  V30 8703 H 814.009 -5.2958 -0.738198 0
M  V30 8704 H 814.352 -3.83194 -1.6269 0
M  V30 8705 H 814.885 -3.97746 0.0656314 0
M  V30 8706 H 811.624 -6.22738 2.04642 0
M  V30 8707 H 811.144 -5.98774 0.350679 0
M  V30 8708 H 812.823 -6.42614 0.752047 0
M  V30 8709 N 812.955 -0.234822 -1.55841 0
M  V30 8710 C 814.232 0.442961 -1.90518 0
M  V30 8711 C 814.612 1.76768 -1.15397 0
M  V30 8712 O 813.96 2.26928 -0.267534 0
M  V30 8713 C 814.17 0.622905 -3.43396 0
M  V30 8714 C 815.518 0.9243 -4.14417 0
M  V30 8715 O 816.542 0.709211 -3.49068 0
M  V30 8716 O 815.401 1.33323 -5.29988 0
M  V30 8717 H 812.495 0.236042 -0.792599 0
M  V30 8718 H 815.041 -0.277992 -1.67408 0
M  V30 8719 H 813.813 -0.310973 -3.90062 0
M  V30 8720 H 813.436 1.39485 -3.7233 0
M  V30 8721 N 814.433 1.57553 0.0384317 0
M  V30 8722 C 815.68 1.88841 0.731116 0
M  V30 8723 C 816.008 0.83093 1.75857 0
M  V30 8724 O 815.263 -0.169248 1.94967 0
M  V30 8725 C 815.562 3.26862 1.44554 0
M  V30 8726 C 815.228 4.47472 0.554946 0
M  V30 8727 C 813.89 4.80203 0.309621 0
M  V30 8728 C 816.242 5.21165 -0.0605204 0
M  V30 8729 C 813.57 5.8402 -0.560101 0
M  V30 8730 C 815.922 6.25905 -0.91789 0
M  V30 8731 C 814.586 6.57117 -1.17277 0
M  V30 8732 H 813.856 0.691018 0.267534 0
M  V30 8733 H 816.503 1.91498 -0.00883195 0
M  V30 8734 H 814.808 3.2015 2.25856 0
M  V30 8735 H 816.505 3.48316 1.98688 0
M  V30 8736 H 813.095 4.21874 0.756304 0
M  V30 8737 H 817.279 4.96164 0.116064 0
M  V30 8738 H 812.535 6.06583 -0.765974 0
M  V30 8739 H 816.709 6.82155 -1.40136 0
M  V30 8740 H 814.336 7.37385 -1.84843 0
M  V30 8741 N 815.911 -0.310526 1.54511 0
M  V30 8742 C 817.159 -1.04484 1.72996 0
M  V30 8743 C 817.48 -1.88118 0.513479 0
M  V30 8744 O 816.75 -1.90119 -0.472384 0
M  V30 8745 H 815.33 -0.388747 0.637875 0
M  V30 8746 H 817.992 -0.343811 1.91844 0
M  V30 8747 H 817.088 -1.70341 2.61515 0
M  V30 8748 N 817.389 -1.46805 -0.573248 0
M  V30 8749 C 818.636 -1.52604 -1.3311 0
M  V30 8750 C 818.964 -0.181633 -1.9365 0
M  V30 8751 O 818.219 0.823775 -1.77517 0
M  V30 8752 C 818.518 -2.58001 -2.47326 0
M  V30 8753 C 818.184 -4.01747 -2.04719 0
M  V30 8754 C 816.846 -4.40881 -1.92814 0
M  V30 8755 C 819.198 -4.92008 -1.71982 0
M  V30 8756 C 816.526 -5.68129 -1.46445 0
M  V30 8757 C 818.878 -6.19703 -1.27089 0
M  V30 8758 C 817.542 -6.57733 -1.13768 0
M  V30 8759 H 816.812 -0.558417 -0.487084 0
M  V30 8760 H 819.459 -1.80327 -0.644538 0
M  V30 8761 H 817.764 -2.23974 -3.2147 0
M  V30 8762 H 819.461 -2.59715 -3.05531 0
M  V30 8763 H 816.051 -3.70819 -2.14922 0
M  V30 8764 H 820.235 -4.62485 -1.8006 0
M  V30 8765 H 815.491 -5.96359 -1.34783 0
M  V30 8766 H 819.665 -6.89064 -1.00814 0
M  V30 8767 H 817.292 -7.56228 -0.776142 0
M  V30 8768 N 818.867 0.818669 -1.34668 0
M  V30 8769 C 819.83 1.9114 -1.26483 0
M  V30 8770 C 820.83 1.598 -0.179044 0
M  V30 8771 O 822.02 1.6876 -0.431952 0
M  V30 8772 C 819.152 3.27285 -0.95381 0
M  V30 8773 H 820.345 1.9982 -2.23634 0
M  V30 8774 H 817.898 1.01314 -1.19018 0
M  V30 8775 H 818.633 3.24297 0.0143428 0
M  V30 8776 H 818.418 3.51416 -1.73924 0
M  V30 8777 H 819.908 4.07299 -0.921827 0
M  V30 8778 N 820.346 1.18468 1.03938 0
M  V30 8779 C 821.762 0.934635 1.29371 0
M  V30 8780 C 821.962 -0.399067 1.97509 0
M  V30 8781 O 821.018 -1.13309 2.25648 0
M  V30 8782 C 822.331 2.10111 2.15114 0
M  V30 8783 C 823.879 2.13955 2.28456 0
M  V30 8784 C 824.354 3.30024 3.17566 0
M  V30 8785 N 825.845 3.29893 3.25153 0
M  V30 8786 C 826.58 4.16346 3.94263 0
M  V30 8787 N 826.076 5.12934 4.65693 0
M  V30 8788 N 827.869 4.04256 3.90556 0
M  V30 8789 H 820.02 2.04294 0.581185 0
M  V30 8790 H 822.283 0.892727 0.318971 0
M  V30 8791 H 821.989 3.06572 1.72355 0
M  V30 8792 H 821.863 2.06283 3.15796 0
M  V30 8793 H 824.25 1.18072 2.7045 0
M  V30 8794 H 824.331 2.2184 1.2736 0
M  V30 8795 H 823.975 4.26181 2.76283 0
M  V30 8796 H 823.905 3.19376 4.18697 0
M  V30 8797 H 826.396 2.59969 2.74271 0
M  V30 8798 H 826.709 5.75271 5.16026 0
M  V30 8799 H 825.054 5.16893 4.64593 0
M  V30 8800 H 828.245 3.28083 3.33885 0
M  V30 8801 H 828.418 4.71848 4.44144 0
M  V30 8802 N 821.824 -1.22873 0.986916 0
M  V30 8803 C 822.754 -2.2688 0.552064 0
M  V30 8804 C 823.735 -1.64883 -0.418048 0
M  V30 8805 O 824.92 -1.9171 -0.30999 0
M  V30 8806 C 822.05 -3.47018 -0.139959 0
M  V30 8807 C 821.004 -4.21411 0.748091 0
M  V30 8808 C 820.33 -5.34645 -0.0765132 0
M  V30 8809 C 821.63 -4.80726 2.04206 0
M  V30 8810 H 823.324 -2.63507 1.42143 0
M  V30 8811 H 820.87 -1.26668 0.68492 0
M  V30 8812 H 822.823 -4.18931 -0.455527 0
M  V30 8813 H 821.547 -3.0947 -1.04382 0
M  V30 8814 H 820.206 -3.51325 1.04721 0
M  V30 8815 H 819.854 -4.93339 -0.981109 0
M  V30 8816 H 819.554 -5.85342 0.514606 0
M  V30 8817 H 821.078 -6.09377 -0.386313 0
M  V30 8818 H 822.492 -5.44612 1.79083 0
M  V30 8819 H 820.889 -5.41737 2.5815 0
M  V30 8820 H 821.959 -4.01109 2.72469 0
M  V30 8821 N 823.302 -0.75937 -1.38099 0
M  V30 8822 C 824.718 -0.437606 -1.53483 0
M  V30 8823 C 824.918 1.04849 -1.72072 0
M  V30 8824 O 823.974 1.83448 -1.73502 0
M  V30 8825 C 825.287 -1.24189 -2.73857 0
M  V30 8826 C 826.835 -1.23255 -2.8771 0
M  V30 8827 C 827.31 -2.01992 -4.11051 0
M  V30 8828 N 828.801 -1.99282 -4.1814 0
M  V30 8829 C 829.536 -2.56996 -5.12583 0
M  V30 8830 N 829.032 -3.23446 -6.12662 0
M  V30 8831 N 830.825 -2.46894 -5.04975 0
M  V30 8832 H 822.976 -1.72242 -1.24283 0
M  V30 8833 H 825.239 -0.730507 -0.604205 0
M  V30 8834 H 824.945 -2.29449 -2.66545 0
M  V30 8835 H 824.819 -0.862672 -3.67203 0
M  V30 8836 H 827.206 -0.187988 -2.94501 0
M  V30 8837 H 827.287 -1.65132 -1.95359 0
M  V30 8838 H 826.931 -3.06462 -4.05023 0
M  V30 8839 H 826.861 -1.57505 -5.02494 0
M  V30 8840 H 829.352 -1.50893 -3.46467 0
M  V30 8841 H 829.665 -3.6489 -6.81231 0
M  V30 8842 H 828.01 -3.27543 -6.12977 0
M  V30 8843 H 831.201 -1.94604 -4.25731 0
M  V30 8844 H 831.374 -2.92168 -5.78396 0
M  V30 8845 N 824.78 1.49157 -0.508906 0
M  V30 8846 C 826.191 1.86593 -0.0630975 0
M  V30 8847 C 826.542 1.42051 1.35337 0
M  V30 8848 O 825.667 0.801866 2.00995 0
M  V30 8849 C 826.262 3.38629 -0.107729 0
M  V30 8850 C 824.821 3.75336 0.282776 0
M  V30 8851 C 823.968 2.7317 -0.4768 0
M  V30 8852 H 826.919 1.41362 -0.72128 0
M  V30 8853 H 826.94 3.74271 0.685689 0
M  V30 8854 H 826.452 3.71017 -1.13876 0
M  V30 8855 H 824.553 3.48558 1.31675 0
M  V30 8856 H 824.666 4.79081 -0.0421728 0
M  V30 8857 H 823.03 2.54591 0.0743552 0
M  V30 8858 H 823.813 3.08403 -1.50807 0
M  V30 8859 N 826.258 0.243083 1.55714 0
M  V30 8860 C 827.19 -0.690766 2.18543 0
M  V30 8861 C 828.203 -1.14163 1.16064 0
M  V30 8862 O 829.392 -1.06906 1.42946 0
M  V30 8863 C 826.492 -1.95016 2.77168 0
M  V30 8864 C 825.665 -1.65137 4.05029 0
M  V30 8865 C 824.724 -2.75998 4.48009 0
M  V30 8866 O 823.75 -2.43547 5.14464 0
M  V30 8867 N 824.952 -4.05414 4.15476 0
M  V30 8868 H 827.717 -0.153203 2.99308 0
M  V30 8869 H 825.278 0.0628968 1.61778 0
M  V30 8870 H 827.27 -2.68414 3.0288 0
M  V30 8871 H 825.84 -2.39762 2.00582 0
M  V30 8872 H 825.06 -0.752768 3.86946 0
M  V30 8873 H 826.348 -1.42633 4.88399 0
M  V30 8874 H 825.746 -4.34613 3.62116 0
M  V30 8875 H 824.303 -4.75288 4.46032 0
M  V30 8876 N 827.736 -1.57571 -0.0300757 0
M  V30 8877 C 828.961 -1.93879 -0.736601 0
M  V30 8878 C 829.386 -0.842998 -1.68152 0
M  V30 8879 O 828.744 0.20135 -1.80178 0
M  V30 8880 C 828.792 -3.29247 -1.47066 0
M  V30 8881 O 827.896 -3.21426 -2.58378 0
M  V30 8882 H 827.237 -0.633735 -0.198181 0
M  V30 8883 H 829.767 -2.04595 0.0141485 0
M  V30 8884 H 829.777 -3.64113 -1.84081 0
M  V30 8885 H 828.452 -4.08565 -0.77764 0
M  V30 8886 H 827.029 -2.98189 -2.23914 0
M  V30 8887 N 829.214 0.302327 -1.54673 0
M  V30 8888 C 830.625 0.875409 -1.64904 0
M  V30 8889 C 830.976 1.88132 -0.55684 0
M  V30 8890 O 830.101 2.14215 0.306754 0
M  V30 8891 C 830.696 1.59457 -2.9893 0
M  V30 8892 C 829.255 2.11607 -3.11287 0
M  V30 8893 C 828.402 0.948324 -2.6058 0
M  V30 8894 H 831.353 0.079362 -1.58501 0
M  V30 8895 H 831.374 2.46005 -2.90279 0
M  V30 8896 H 830.886 0.8622 -3.78402 0
M  V30 8897 H 828.987 2.87895 -2.36532 0
M  V30 8898 H 829.1 2.35151 -4.17422 0
M  V30 8899 H 827.464 1.33352 -2.17001 0
M  V30 8900 H 828.247 0.229936 -3.42529 0
M  V30 8901 N 830.692 1.47107 0.565454 0
M  V30 8902 C 831.94 1.53005 1.32038 0
M  V30 8903 C 832.261 0.190453 1.94068 0
M  V30 8904 O 831.531 -0.784783 1.79494 0
M  V30 8905 H 830.111 0.563578 0.490294 0
M  V30 8906 H 832.773 1.83351 0.660928 0
M  V30 8907 H 831.869 2.29215 2.11818 0
M  V30 8908 N 832.17 -0.811516 1.35101 0
M  V30 8909 C 833.416 -1.57068 1.28287 0
M  V30 8910 C 833.749 -1.93667 -0.143808 0
M  V30 8911 O 833.024 -1.60953 -1.09199 0
M  V30 8912 C 833.307 -2.86259 2.18466 0
M  V30 8913 C 833.16 -2.56168 3.69727 0
M  V30 8914 C 834.479 -3.87924 2.07852 0
M  V30 8915 H 831.598 -0.569869 0.467353 0
M  V30 8916 H 834.24 -0.934023 1.65457 0
M  V30 8917 H 832.39 -3.4059 1.86898 0
M  V30 8918 H 834.062 -2.08059 4.11715 0
M  V30 8919 H 832.305 -1.89436 3.90252 0
M  V30 8920 H 832.976 -3.48344 4.28206 0
M  V30 8921 H 835.452 -3.4298 2.35593 0
M  V30 8922 H 834.328 -4.76106 2.73157 0
M  V30 8923 H 834.589 -4.2923 1.05896 0
M  V30 8924 N 833.648 -1.19017 -1.03309 0
M  V30 8925 C 835.059 -0.993206 -1.5809 0
M  V30 8926 C 835.41 0.45505 -1.9085 0
M  V30 8927 O 834.535 1.33372 -1.70414 0
M  V30 8928 C 835.13 -1.79661 -2.87241 0
M  V30 8929 C 833.689 -1.64377 -3.38611 0
M  V30 8930 C 832.836 -1.78628 -2.12102 0
M  V30 8931 H 835.787 -1.3345 -0.858879 0
M  V30 8932 H 835.808 -1.29019 -3.57958 0
M  V30 8933 H 835.32 -2.85061 -2.63366 0
M  V30 8934 H 833.421 -0.615447 -3.67482 0
M  V30 8935 H 833.534 -2.44651 -4.11926 0
M  V30 8936 H 831.898 -1.21648 -2.23772 0
M  V30 8937 H 832.681 -2.8548 -1.90673 0
M  V30 8938 N 835.127 1.22348 -0.993418 0
M  V30 8939 C 836.06 2.22898 -0.489073 0
M  V30 8940 C 837.038 1.56222 0.450927 0
M  V30 8941 O 838.222 1.84705 0.376351 0
M  V30 8942 C 835.349 3.37448 0.290946 0
M  V30 8943 C 834.395 4.22328 -0.595123 0
M  V30 8944 S 835.228 4.94677 -2.05072 0
M  V30 8945 C 836.384 6.12667 -1.28021 0
M  V30 8946 H 836.617 2.65333 -1.34111 0
M  V30 8947 H 834.15 1.32032 -0.800429 0
M  V30 8948 H 836.108 4.03867 0.734944 0
M  V30 8949 H 834.769 2.93519 1.11826 0
M  V30 8950 H 833.962 5.04 0.00507413 0
M  V30 8951 H 833.564 3.61043 -0.975906 0
M  V30 8952 H 835.856 6.75279 -0.548129 0
M  V30 8953 H 836.799 6.771 -2.07223 0
M  V30 8954 H 837.207 5.58898 -0.793272 0
M  V30 8955 N 836.605 0.766683 1.37694 0
M  V30 8956 C 837.537 0.107798 2.28946 0
M  V30 8957 C 838.55 -0.669701 1.48387 0
M  V30 8958 O 839.739 -0.508629 1.711 0
M  V30 8959 C 836.839 -0.871084 3.27514 0
M  V30 8960 C 836.012 -0.148471 4.37148 0
M  V30 8961 C 835.071 -1.03998 5.1582 0
M  V30 8962 O 834.097 -0.505639 5.6695 0
M  V30 8963 N 835.299 -2.36679 5.3006 0
M  V30 8964 H 838.064 0.89154 2.86132 0
M  V30 8965 H 835.625 0.618593 1.49616 0
M  V30 8966 H 837.617 -1.47081 3.77027 0
M  V30 8967 H 836.187 -1.55582 2.71133 0
M  V30 8968 H 835.407 0.632117 3.89099 0
M  V30 8969 H 836.695 0.351045 5.07588 0
M  V30 8970 H 836.093 -2.82532 4.90094 0
M  V30 8971 H 834.65 -2.9167 5.82899 0
M  V30 8972 N 838.083 -1.48885 0.516809 0
M  V30 8973 C 839.311 -2.06892 -0.0184017 0
M  V30 8974 C 839.726 -1.37511 -1.29368 0
M  V30 8975 O 839.083 -0.458409 -1.76649 0
M  V30 8976 C 839.134 -3.60566 -0.259673 0
M  V30 8977 O 838.855 -4.27338 0.965065 0
M  V30 8978 C 840.356 -4.35331 -0.836751 0
M  V30 8979 H 837.576 -0.670433 0.0275743 0
M  V30 8980 H 840.12 -1.91455 0.718689 0
M  V30 8981 H 838.275 -3.75653 -0.94678 0
M  V30 8982 H 838.689 -5.19287 0.737647 0
M  V30 8983 H 840.163 -5.43675 -0.955065 0
M  V30 8984 H 840.64 -3.9887 -1.83845 0
M  V30 8985 H 841.246 -4.2489 -0.186622 0
M  V30 8986 N 839.561 -0.251338 -1.55583 0
M  V30 8987 C 840.972 0.25098 -1.85005 0
M  V30 8988 C 841.323 1.57259 -1.17321 0
M  V30 8989 O 840.448 2.11603 -0.453136 0
M  V30 8990 C 841.043 0.462161 -3.35633 0
M  V30 8991 C 839.602 0.908737 -3.65266 0
M  V30 8992 C 838.749 -0.0115418 -2.77298 0
M  V30 8993 H 841.7 -0.473782 -1.51463 0
M  V30 8994 H 841.721 1.30415 -3.57452 0
M  V30 8995 H 841.233 -0.499886 -3.84867 0
M  V30 8996 H 839.334 1.8831 -3.21512 0
M  V30 8997 H 839.447 0.762526 -4.72993 0
M  V30 8998 H 837.811 0.500612 -2.49732 0
M  V30 8999 H 838.594 -0.969042 -3.29339 0
M  V30 9000 N 841.039 1.57585 0.0217189 0
M  V30 9001 C 842.279 1.91457 0.715803 0
M  V30 9002 C 842.643 0.850685 1.72126 0
M  V30 9003 O 843.844 1.07396 2.46413 0
M  V30 9004 C 842.115 3.30456 1.36138 0
M  V30 9005 S 843.674 3.86176 2.0836 0
M  V30 9006 H 840.492 0.67035 0.236963 0
M  V30 9007 H 843.094 1.95477 -0.0297511 0
M  V30 9008 H 841.798 4.05744 0.616465 0
M  V30 9009 H 841.329 3.29757 2.14532 0
M  V30 9010 H 843.344 3.65496 3.356 0
M  V30 9011 N 842.517 -0.29412 1.54831 0
M  V30 9012 C 843.764 -1.02846 1.74439 0
M  V30 9013 C 844.092 -1.87029 0.533905 0
M  V30 9014 O 843.347 -1.8962 -0.484035 0
M  V30 9015 C 843.646 -1.95782 2.99006 0
M  V30 9016 C 843.312 -1.2752 4.32492 0
M  V30 9017 C 841.974 -1.08637 4.68777 0
M  V30 9018 C 844.326 -0.787761 5.15212 0
M  V30 9019 C 841.654 -0.39704 5.85355 0
M  V30 9020 C 844.006 -0.112123 6.32501 0
M  V30 9021 C 842.67 0.0886071 6.67441 0
M  V30 9022 H 841.94 -0.376341 0.638317 0
M  V30 9023 H 844.587 -0.302684 1.89093 0
M  V30 9024 H 842.892 -2.74911 2.79162 0
M  V30 9025 H 844.589 -2.52684 3.11371 0
M  V30 9026 H 841.179 -1.43226 4.03961 0
M  V30 9027 H 845.363 -0.921341 4.87673 0
M  V30 9028 H 840.619 -0.230597 6.10965 0
M  V30 9029 H 844.793 0.27344 6.95863 0
M  V30 9030 H 842.42 0.624748 7.57628 0
M  V30 9031 N 843.995 -1.47404 -0.557645 0
M  V30 9032 C 845.223 -1.57622 -1.34026 0
M  V30 9033 C 845.638 -0.226256 -1.87439 0
M  V30 9034 O 844.995 0.78043 -1.64971 0
M  V30 9035 C 845.046 -2.60111 -2.51047 0
M  V30 9036 O 844.767 -3.89866 -1.99841 0
M  V30 9037 C 846.268 -2.80508 -3.43264 0
M  V30 9038 H 843.488 -0.532271 -0.40857 0
M  V30 9039 H 846.032 -1.93019 -0.675555 0
M  V30 9040 H 844.187 -2.27648 -3.13457 0
M  V30 9041 H 844.601 -4.45864 -2.76234 0
M  V30 9042 H 846.075 -3.56084 -4.21792 0
M  V30 9043 H 846.552 -1.88314 -3.9678 0
M  V30 9044 H 847.158 -3.14166 -2.86671 0
M  V30 9045 N 845.473 0.80434 -1.35529 0
M  V30 9046 C 846.403 1.93086 -1.31301 0
M  V30 9047 C 847.384 1.69068 -0.187044 0
M  V30 9048 O 848.569 1.90399 -0.382359 0
M  V30 9049 C 845.699 3.29867 -1.0865 0
M  V30 9050 C 844.653 3.68373 -2.17911 0
M  V30 9051 C 843.979 5.0334 -1.80423 0
M  V30 9052 C 845.279 3.78516 -3.59893 0
M  V30 9053 H 846.973 1.96882 -2.25561 0
M  V30 9054 H 844.519 0.945841 -1.08581 0
M  V30 9055 H 846.472 4.08281 -1.04331 0
M  V30 9056 H 845.196 3.2642 -0.108359 0
M  V30 9057 H 843.855 2.92247 -2.21331 0
M  V30 9058 H 843.503 4.96399 -0.812213 0
M  V30 9059 H 843.203 5.30074 -2.53565 0
M  V30 9060 H 844.727 5.84191 -1.77633 0
M  V30 9061 H 846.141 4.47155 -3.58783 0
M  V30 9062 H 844.538 4.16721 -4.31814 0
M  V30 9063 H 845.608 2.8001 -3.95882 0
M  V30 9064 N 846.951 1.19563 1.02676 0
M  V30 9065 C 847.883 0.893054 2.11086 0
M  V30 9066 C 848.896 -0.115101 1.62393 0
M  V30 9067 O 850.085 0.11459 1.78132 0
M  V30 9068 C 847.185 0.315533 3.37428 0
M  V30 9069 C 846.358 1.37276 4.153 0
M  V30 9070 C 845.417 0.808398 5.19953 0
M  V30 9071 O 844.443 1.48661 5.49444 0
M  V30 9072 N 845.645 -0.387253 5.79207 0
M  V30 9073 H 848.41 1.82622 2.37633 0
M  V30 9074 H 845.971 1.09792 1.18984 0
M  V30 9075 H 847.963 -0.0759166 4.04629 0
M  V30 9076 H 846.533 -0.521961 3.08211 0
M  V30 9077 H 845.753 1.93897 3.43217 0
M  V30 9078 H 847.041 2.08509 4.64114 0
M  V30 9079 H 846.439 -0.955725 5.57568 0
M  V30 9080 H 844.996 -0.720457 6.47806 0
M  V30 9081 N 848.429 -1.21819 0.999893 0
M  V30 9082 C 849.659 -1.94475 0.697346 0
M  V30 9083 C 850.067 -1.73991 -0.743228 0
M  V30 9084 O 849.41 -1.04042 -1.51397 0
M  V30 9085 C 849.472 -3.47204 0.932181 0
M  V30 9086 C 849.136 -3.91432 2.3586 0
M  V30 9087 C 850.133 -3.98545 3.33853 0
M  V30 9088 C 847.818 -4.23888 2.69489 0
M  V30 9089 C 849.812 -4.37499 4.63545 0
M  V30 9090 C 847.499 -4.62519 3.99399 0
M  V30 9091 C 848.497 -4.69294 4.96238 0
M  V30 9092 O 848.185 -5.07048 6.23825 0
M  V30 9093 H 847.917 -0.625419 0.256567 0
M  V30 9094 H 850.471 -1.55728 1.33933 0
M  V30 9095 H 848.701 -3.85997 0.233025 0
M  V30 9096 H 850.39 -4.01078 0.623807 0
M  V30 9097 H 851.156 -3.73654 3.09205 0
M  V30 9098 H 847.035 -4.17815 1.94812 0
M  V30 9099 H 850.579 -4.42702 5.3913 0
M  V30 9100 H 846.476 -4.86864 4.23833 0
M  V30 9101 H 847.244 -5.25098 6.27865 0
M  V30 9102 N 849.908 -0.773975 -1.37286 0
M  V30 9103 C 850.871 -0.167974 -2.28584 0
M  V30 9104 C 851.871 0.625662 -1.48129 0
M  V30 9105 O 853.061 0.448924 -1.68316 0
M  V30 9106 C 850.193 0.769364 -3.32105 0
M  V30 9107 H 851.386 -0.972806 -2.83684 0
M  V30 9108 H 848.939 -0.542335 -1.46589 0
M  V30 9109 H 849.674 1.59912 -2.82132 0
M  V30 9110 H 849.459 0.202419 -3.91577 0
M  V30 9111 H 850.949 1.18872 -4.00324 0
M  V30 9112 N 851.386 1.48609 -0.524698 0
M  V30 9113 C 852.349 2.28041 0.230166 0
M  V30 9114 C 853.349 1.35065 0.872584 0
M  V30 9115 O 854.539 1.58007 0.73345 0
M  V30 9116 C 851.671 3.13778 1.33252 0
M  V30 9117 H 852.864 2.96239 -0.467161 0
M  V30 9118 H 850.417 1.53763 -0.280452 0
M  V30 9119 H 851.152 2.502 2.06327 0
M  V30 9120 H 850.937 3.82165 0.877058 0
M  V30 9121 H 852.427 3.7371 1.86362 0
M  V30 9122 N 852.864 0.259585 1.55447 0
M  V30 9123 C 854.275 -0.241165 1.85136 0
M  V30 9124 C 854.626 -1.56634 1.18153 0
M  V30 9125 O 853.751 -2.11359 0.464351 0
M  V30 9126 C 854.346 -0.444355 3.35873 0
M  V30 9127 C 852.905 -0.889354 3.65742 0
M  V30 9128 C 852.052 0.0262474 2.77288 0
M  V30 9129 H 855.003 0.481808 1.51209 0
M  V30 9130 H 855.024 -1.28517 3.58139 0
M  V30 9131 H 854.536 0.520289 3.84597 0
M  V30 9132 H 852.637 -1.86602 3.22507 0
M  V30 9133 H 852.75 -0.737432 4.73391 0
M  V30 9134 H 851.114 -0.487361 2.49994 0
M  V30 9135 H 851.897 0.986494 3.28821 0
M  V30 9136 N 854.342 -1.57594 -0.0133615 0
M  V30 9137 C 855.252 -2.10991 -1.02566 0
M  V30 9138 C 856.268 -1.05208 -1.3859 0
M  V30 9139 O 857.444 -1.37034 -1.47593 0
M  V30 9140 C 854.509 -2.59165 -2.30292 0
M  V30 9141 C 853.57 -3.79495 -2.00704 0
M  V30 9142 C 852.803 -4.25361 -3.22341 0
M  V30 9143 O 853.026 -3.70645 -4.33565 0
M  V30 9144 O 851.96 -5.17649 -3.07121 0
M  V30 9145 H 855.786 -2.97678 -0.601806 0
M  V30 9146 H 853.371 -1.47598 -0.23135 0
M  V30 9147 H 855.253 -2.90409 -3.05354 0
M  V30 9148 H 853.928 -1.75582 -2.71942 0
M  V30 9149 H 852.835 -3.53245 -1.23161 0
M  V30 9150 H 854.168 -4.64109 -1.639 0
M  V30 9151 N 855.82 0.285905 -1.54985 0
M  V30 9152 C 856.75 1.35752 -1.89983 0
M  V30 9153 C 857.731 1.52163 -0.760295 0
M  V30 9154 O 858.916 1.65421 -1.01733 0
M  V30 9155 C 856.046 2.71925 -2.16042 0
M  V30 9156 C 855 2.70261 -3.31878 0
M  V30 9157 C 854.326 4.09864 -3.43388 0
M  V30 9158 C 855.626 2.30667 -4.68604 0
M  V30 9159 H 857.32 1.06709 -2.79738 0
M  V30 9160 H 854.866 0.511884 -1.34595 0
M  V30 9161 H 856.819 3.46992 -2.39113 0
M  V30 9162 H 855.543 3.02523 -1.23074 0
M  V30 9163 H 854.202 1.97651 -3.08755 0
M  V30 9164 H 853.85 4.37664 -2.47909 0
M  V30 9165 H 853.55 4.09648 -4.21262 0
M  V30 9166 H 855.074 4.86689 -3.68736 0
M  V30 9167 H 856.488 2.95453 -4.91305 0
M  V30 9168 H 854.885 2.41637 -5.49301 0
M  V30 9169 H 855.955 1.25793 -4.68299 0
M  V30 9170 N 857.298 1.47698 0.54982 0
M  V30 9171 C 858.228 1.63622 1.66583 0
M  V30 9172 C 859.209 0.485477 1.63025 0
M  V30 9173 O 860.394 0.715692 1.80531 0
M  V30 9174 C 857.524 1.65721 3.05211 0
M  V30 9175 C 856.478 2.80097 3.2362 0
M  V30 9176 C 855.804 2.67272 4.63109 0
M  V30 9177 C 857.104 4.21612 3.08286 0
M  V30 9178 H 858.798 2.57049 1.53512 0
M  V30 9179 H 856.344 1.23705 0.737099 0
M  V30 9180 H 858.297 1.75451 3.83138 0
M  V30 9181 H 857.021 0.688593 3.19258 0
M  V30 9182 H 855.68 2.69889 2.48104 0
M  V30 9183 H 855.328 1.68422 4.73965 0
M  V30 9184 H 855.028 3.44008 4.76374 0
M  V30 9185 H 856.552 2.78942 5.43161 0
M  V30 9186 H 857.966 4.32758 3.76024 0
M  V30 9187 H 856.363 4.99193 3.33057 0
M  V30 9188 H 857.433 4.39462 2.04942 0
M  V30 9189 N 858.776 -0.797141 1.35954 0
M  V30 9190 C 859.739 -1.89104 1.29508 0
M  V30 9191 C 860.739 -1.59495 0.204444 0
M  V30 9192 O 861.929 -1.68051 0.458746 0
M  V30 9193 C 859.061 -3.25726 1.00576 0
M  V30 9194 H 860.254 -1.96237 2.26785 0
M  V30 9195 H 857.807 -0.994075 1.20614 0
M  V30 9196 H 858.542 -3.24279 0.0372519 0
M  V30 9197 H 858.327 -3.48604 1.79492 0
M  V30 9198 H 859.817 -4.0578 0.986508 0
M  V30 9199 N 860.254 -1.20106 -1.0204 0
M  V30 9200 C 861.186 -0.904236 -2.10609 0
M  V30 9201 C 862.199 0.106487 -1.62451 0
M  V30 9202 O 863.388 -0.124035 -1.78069 0
M  V30 9203 C 860.488 -0.333423 -3.37256 0
M  V30 9204 C 859.661 -1.39476 -4.14566 0
M  V30 9205 C 858.72 -0.835961 -5.19517 0
M  V30 9206 O 857.746 -1.51573 -5.48648 0
M  V30 9207 N 858.948 0.356531 -5.79404 0
M  V30 9208 H 861.713 -1.8388 -2.36661 0
M  V30 9209 H 859.274 -1.10422 -1.184 0
M  V30 9210 H 861.266 0.0544571 -4.04663 0
M  V30 9211 H 859.836 0.505608 -3.08484 0
M  V30 9212 H 859.056 -1.95714 -3.42184 0
M  V30 9213 H 860.344 -2.10967 -4.63001 0
M  V30 9214 H 859.742 0.926143 -5.58067 0
M  V30 9215 H 858.299 0.686093 -6.48179 0
M  V30 9216 N 861.732 1.21287 -1.00634 0
M  V30 9217 C 862.664 2.2308 -0.526094 0
M  V30 9218 C 863.677 1.58157 0.386031 0
M  V30 9219 O 864.866 1.77528 0.186016 0
M  V30 9220 C 861.966 3.37937 0.255289 0
M  V30 9221 C 861.139 4.32449 -0.656236 0
M  V30 9222 C 860.198 5.26145 0.0757714 0
M  V30 9223 O 859.224 5.66601 -0.543325 0
M  V30 9224 N 860.426 5.6449 1.35391 0
M  V30 9225 H 863.191 2.64913 -1.40147 0
M  V30 9226 H 860.752 1.35724 -0.882641 0
M  V30 9227 H 862.744 3.97614 0.753977 0
M  V30 9228 H 861.314 2.95078 1.03187 0
M  V30 9229 H 860.534 3.70892 -1.3354 0
M  V30 9230 H 861.822 4.92526 -1.27653 0
M  V30 9231 H 861.22 5.33617 1.878 0
M  V30 9232 H 859.777 6.26524 1.79753 0
M  V30 9233 N 863.21 0.781244 1.36873 0
M  V30 9234 C 864.458 0.349198 1.9906 0
M  V30 9235 C 864.779 -1.0806 1.62321 0
M  V30 9236 O 864.049 -1.74351 0.893229 0
M  V30 9237 H 862.629 0.126126 0.736275 0
M  V30 9238 H 865.291 1.00148 1.67202 0
M  V30 9239 H 864.387 0.434451 3.09061 0
M  V30 9240 N 864.689 -1.48329 0.532571 0
M  V30 9241 C 865.919 -2.066 0.00353785 0
M  V30 9242 C 866.327 -1.38913 -1.28451 0
M  V30 9243 O 865.67 -0.471385 -1.77549 0
M  V30 9244 C 865.732 -3.58342 -0.288324 0
M  V30 9245 C 865.396 -4.47917 0.906631 0
M  V30 9246 C 866.393 -4.87534 1.80572 0
M  V30 9247 C 864.078 -4.89783 1.11436 0
M  V30 9248 C 866.072 -5.6779 2.89642 0
M  V30 9249 C 863.759 -5.69809 2.20819 0
M  V30 9250 C 864.757 -6.08721 3.09755 0
M  V30 9251 O 864.445 -6.8714 4.17246 0
M  V30 9252 H 864.177 -0.675263 0.0315661 0
M  V30 9253 H 866.731 -1.91669 0.738375 0
M  V30 9254 H 864.961 -3.71395 -1.07717 0
M  V30 9255 H 866.65 -3.98726 -0.759752 0
M  V30 9256 H 867.416 -4.5581 1.65719 0
M  V30 9257 H 863.295 -4.58977 0.431382 0
M  V30 9258 H 866.839 -5.98082 3.59087 0
M  V30 9259 H 862.736 -6.00947 2.35655 0
M  V30 9260 H 863.504 -7.05498 4.14988 0
M  V30 9261 N 866.167 -0.267825 -1.55308 0
M  V30 9262 C 867.444 0.402449 -1.91415 0
M  V30 9263 C 867.824 1.7428 -1.1912 0
M  V30 9264 O 867.172 2.2631 -0.315609 0
M  V30 9265 C 867.382 0.549926 -3.4464 0
M  V30 9266 C 868.73 0.836188 -4.16285 0
M  V30 9267 O 869.754 0.635009 -3.50494 0
M  V30 9268 O 868.613 1.22051 -5.32697 0
M  V30 9269 H 865.707 0.219177 -0.797427 0
M  V30 9270 H 868.253 -0.313439 -1.6678 0
M  V30 9271 H 867.025 -0.393641 -3.89315 0
M  V30 9272 H 866.648 1.31556 -3.75205 0
M  V30 9273 N 867.645 1.57599 0.00500368 0
M  V30 9274 C 868.555 2.11532 1.01446 0
M  V30 9275 C 869.571 1.05941 1.3803 0
M  V30 9276 O 870.747 1.37815 1.46864 0
M  V30 9277 C 867.812 2.60382 2.28915 0
M  V30 9278 C 866.873 3.80554 1.98689 0
M  V30 9279 C 866.106 4.27064 3.20081 0
M  V30 9280 O 866.329 3.72939 4.31593 0
M  V30 9281 O 865.263 5.1927 3.04371 0
M  V30 9282 H 869.089 2.97993 0.586011 0
M  V30 9283 H 866.674 1.47718 0.223519 0
M  V30 9284 H 868.556 2.92024 3.03809 0
M  V30 9285 H 867.231 1.77022 2.71007 0
M  V30 9286 H 866.138 3.53893 1.21286 0
M  V30 9287 H 867.471 4.64972 1.61437 0
M  V30 9288 N 869.123 -0.277682 1.55134 0
M  V30 9289 C 870.348 -1.03254 1.7987 0
M  V30 9290 C 870.773 -1.79324 0.567861 0
M  V30 9291 O 870.131 -1.74764 -0.4824 0
M  V30 9292 C 870.179 -1.9705 3.02 0
M  V30 9293 O 869.283 -3.05744 2.76757 0
M  V30 9294 H 868.624 -0.295447 0.594649 0
M  V30 9295 H 871.154 -0.308013 2.02268 0
M  V30 9296 H 871.164 -2.3909 3.30606 0
M  V30 9297 H 869.839 -1.41094 3.91236 0
M  V30 9298 H 868.416 -2.68052 2.59235 0
M  V30 9299 N 870.601 -1.47988 -0.541979 0
M  V30 9300 C 871.841 -1.56982 -1.30905 0
M  V30 9301 C 872.205 -0.233153 -1.90579 0
M  V30 9302 O 873.406 -0.198018 -2.6807 0
M  V30 9303 C 871.677 -2.66787 -2.37823 0
M  V30 9304 S 873.236 -2.95467 -3.24414 0
M  V30 9305 H 870.054 -0.554165 -0.445446 0
M  V30 9306 H 872.656 -1.85448 -0.618803 0
M  V30 9307 H 871.36 -3.62483 -1.92443 0
M  V30 9308 H 870.891 -2.40184 -3.11569 0
M  V30 9309 H 872.906 -2.33846 -4.37642 0
M  V30 9310 N 872.079 0.78992 -1.36375 0
M  V30 9311 C 873.356 1.53584 -1.21126 0
M  V30 9312 C 873.736 2.10124 0.202785 0
M  V30 9313 O 873.084 1.93936 1.20835 0
M  V30 9314 C 873.294 2.63117 -2.29282 0
M  V30 9315 C 874.642 3.31013 -2.65924 0
M  V30 9316 O 875.666 2.734 -2.28321 0
M  V30 9317 O 874.525 4.35129 -3.30643 0
M  V30 9318 H 871.619 0.679366 -0.471583 0
M  V30 9319 H 874.165 0.828446 -1.48104 0
M  V30 9320 H 872.937 2.19329 -3.24053 0
M  V30 9321 H 872.56 3.41476 -2.03666 0
M  V30 9322 N 873.557 1.20646 1.01402 0
M  V30 9323 C 874.487 0.98155 2.11867 0
M  V30 9324 C 875.468 -0.0903712 1.6986 0
M  V30 9325 O 876.653 0.0676586 1.94082 0
M  V30 9326 C 873.783 0.535636 3.43145 0
M  V30 9327 C 872.737 1.55109 3.98905 0
M  V30 9328 C 872.063 0.961725 5.2598 0
M  V30 9329 C 873.363 2.93552 4.32001 0
M  V30 9330 H 875.057 1.90544 2.3094 0
M  V30 9331 H 872.603 0.917554 1.10982 0
M  V30 9332 H 874.556 0.365512 4.19812 0
M  V30 9333 H 873.28 -0.423882 3.23838 0
M  V30 9334 H 871.939 1.70862 3.24348 0
M  V30 9335 H 871.587 -0.00580108 5.03 0
M  V30 9336 H 871.287 1.63993 5.64252 0
M  V30 9337 H 872.811 0.802726 6.053 0
M  V30 9338 H 874.225 2.81295 4.99546 0
M  V30 9339 H 872.622 3.58303 4.81393 0
M  V30 9340 H 873.692 3.4508 3.40658 0
M  V30 9341 N 875.035 -1.20752 1.01276 0
M  V30 9342 C 876.281 -1.90582 0.710627 0
M  V30 9343 C 876.636 -1.7713 -0.751184 0
M  V30 9344 O 875.929 -1.14223 -1.5383 0
M  V30 9345 C 876.123 -3.40808 1.07633 0
M  V30 9346 C 875.952 -3.68878 2.57214 0
M  V30 9347 C 874.722 -3.87805 3.23937 0
M  V30 9348 C 876.92 -3.71753 3.55393 0
M  V30 9349 N 874.902 -4.0336 4.62789 0
M  V30 9350 C 876.273 -3.92686 4.79789 0
M  V30 9351 C 878.328 -3.54697 3.4942 0
M  V30 9352 C 877.031 -3.98332 5.98936 0
M  V30 9353 C 879.057 -3.61612 4.67964 0
M  V30 9354 C 878.419 -3.83014 5.91168 0
M  V30 9355 H 874.518 -0.717219 0.311643 0
M  V30 9356 H 877.102 -1.45228 1.2968 0
M  V30 9357 H 875.273 -3.84923 0.518527 0
M  V30 9358 H 877.005 -3.98096 0.728128 0
M  V30 9359 H 873.76 -3.86029 2.74369 0
M  V30 9360 H 874.184 -4.15023 5.34869 0
M  V30 9361 H 878.826 -3.3712 2.55166 0
M  V30 9362 H 876.544 -4.14706 6.93574 0
M  V30 9363 H 880.13 -3.49728 4.64954 0
M  V30 9364 H 879.01 -3.88219 6.81363 0
M  V30 9365 N 876.513 -0.788492 -1.36457 0
M  V30 9366 C 877.738 -0.371224 -2.04051 0
M  V30 9367 C 878.163 1.004 -1.59064 0
M  V30 9368 O 877.521 1.64663 -0.758679 0
M  V30 9369 C 877.569 -0.442275 -3.57877 0
M  V30 9370 O 876.673 0.55113 -4.08701 0
M  V30 9371 H 876.014 -0.157808 -0.644975 0
M  V30 9372 H 878.544 -1.06935 -1.74431 0
M  V30 9373 H 878.554 -0.305548 -4.06854 0
M  V30 9374 H 877.229 -1.44547 -3.89973 0
M  V30 9375 H 875.806 0.37614 -3.70998 0
M  V30 9376 N 877.991 1.48044 -0.54043 0
M  V30 9377 C 878.921 2.32597 0.205178 0
M  V30 9378 C 879.902 1.42748 0.925041 0
M  V30 9379 O 881.087 1.71624 0.908784 0
M  V30 9380 C 878.217 3.24175 1.24612 0
M  V30 9381 C 877.171 4.23131 0.64376 0
M  V30 9382 C 876.497 5.03915 1.78812 0
M  V30 9383 C 877.797 5.20831 -0.39144 0
M  V30 9384 H 879.491 2.95184 -0.500676 0
M  V30 9385 H 877.037 1.41948 -0.242225 0
M  V30 9386 H 878.99 3.82158 1.77576 0
M  V30 9387 H 877.714 2.59608 1.98169 0
M  V30 9388 H 876.373 3.66349 0.135554 0
M  V30 9389 H 876.021 4.35765 2.51232 0
M  V30 9390 H 875.721 5.709 1.39094 0
M  V30 9391 H 877.245 5.64753 2.32134 0
M  V30 9392 H 878.659 5.73277 0.0515064 0
M  V30 9393 H 877.056 5.95926 -0.706569 0
M  V30 9394 H 878.126 4.6733 -1.29345 0
M  V30 9395 N 879.47 0.276058 1.55163 0
M  V30 9396 C 880.718 -0.339782 1.99223 0
M  V30 9397 C 881.039 -1.56307 1.16589 0
M  V30 9398 O 880.309 -1.94225 0.25564 0
M  V30 9399 H 878.889 -0.128534 0.735859 0
M  V30 9400 H 881.551 0.381612 1.91128 0
M  V30 9401 H 880.647 -0.629 3.05696 0
M  V30 9402 N 880.948 -1.576 0.00335426 0
M  V30 9403 C 882.194 -1.90996 -0.681799 0
M  V30 9404 C 882.527 -0.877643 -1.73237 0
M  V30 9405 O 881.802 0.103183 -1.94226 0
M  V30 9406 C 882.085 -3.34961 -1.32187 0
M  V30 9407 C 881.938 -4.48911 -0.28261 0
M  V30 9408 C 883.257 -3.78408 -2.24711 0
M  V30 9409 H 880.376 -0.694596 -0.246386 0
M  V30 9410 H 883.018 -1.89919 0.055336 0
M  V30 9411 H 881.168 -3.36008 -1.95014 0
M  V30 9412 H 882.84 -4.59999 0.346241 0
M  V30 9413 H 881.083 -4.32 0.394768 0
M  V30 9414 H 881.754 -5.46609 -0.769576 0
M  V30 9415 H 884.23 -3.78934 -1.71897 0
M  V30 9416 H 883.106 -4.79885 -2.66461 0
M  V30 9417 H 883.367 -3.12464 -3.1276 0
M  V30 9418 N 882.426 0.269451 -1.5528 0
M  V30 9419 C 883.675 0.998381 -1.75258 0
M  V30 9420 C 883.988 1.87321 -0.563034 0
M  V30 9421 O 885.194 2.63719 -0.645313 0
M  V30 9422 C 883.65 1.82505 -3.10193 0
M  V30 9423 C 883.258 0.99871 -4.36726 0
M  V30 9424 C 885.002 2.54807 -3.3952 0
M  V30 9425 C 882.909 1.81997 -5.627 0
M  V30 9426 H 881.839 0.376488 -0.653278 0
M  V30 9427 H 884.49 0.253909 -1.81735 0
M  V30 9428 H 882.872 2.61061 -2.97763 0
M  V30 9429 H 884.046 0.257064 -4.60082 0
M  V30 9430 H 882.361 0.390074 -4.14569 0
M  V30 9431 H 884.958 3.16662 -4.30847 0
M  V30 9432 H 885.301 3.25273 -2.59813 0
M  V30 9433 H 885.834 1.83278 -3.53064 0
M  V30 9434 H 882.573 1.15945 -6.45164 0
M  V30 9435 H 882.093 2.53749 -5.43481 0
M  V30 9436 H 883.772 2.39274 -6.0113 0
M  V30 9437 N 883.904 1.48273 0.534124 0
M  V30 9438 C 884.834 1.6538 1.64839 0
M  V30 9439 C 885.815 0.502741 1.62501 0
M  V30 9440 O 887 0.734799 1.79762 0
M  V30 9441 C 884.13 1.68949 3.03436 0
M  V30 9442 C 883.084 2.83513 3.20631 0
M  V30 9443 C 882.41 2.72169 4.60248 0
M  V30 9444 C 883.71 4.24858 3.03797 0
M  V30 9445 H 885.404 2.58663 1.50777 0
M  V30 9446 H 882.95 1.24479 0.723937 0
M  V30 9447 H 884.903 1.79505 3.81256 0
M  V30 9448 H 883.627 0.722415 3.1851 0
M  V30 9449 H 882.286 2.72505 2.45227 0
M  V30 9450 H 881.934 1.7344 4.72152 0
M  V30 9451 H 881.634 3.49042 4.72698 0
M  V30 9452 H 883.158 2.84687 5.40172 0
M  V30 9453 H 884.572 4.36721 3.71413 0
M  V30 9454 H 882.969 5.02697 3.27743 0
M  V30 9455 H 884.039 4.41611 2.0027 0
M  V30 9456 N 885.382 -0.782676 1.36792 0
M  V30 9457 C 886.612 -1.56934 1.3437 0
M  V30 9458 C 887.02 -1.89049 -0.0754828 0
M  V30 9459 O 886.363 -1.51103 -1.04467 0
M  V30 9460 C 886.425 -2.91311 2.10661 0
M  V30 9461 C 886.089 -2.81889 3.59705 0
M  V30 9462 C 887.086 -2.53668 4.53815 0
M  V30 9463 C 884.771 -3.00254 4.02682 0
M  V30 9464 C 886.765 -2.43925 5.8888 0
M  V30 9465 C 884.452 -2.90132 5.37835 0
M  V30 9466 C 885.45 -2.62006 6.30747 0
M  V30 9467 O 885.138 -2.5189 7.63418 0
M  V30 9468 H 884.87 -0.493194 0.462316 0
M  V30 9469 H 887.424 -0.978791 1.80579 0
M  V30 9470 H 885.654 -3.52443 1.59125 0
M  V30 9471 H 887.343 -3.52632 2.01012 0
M  V30 9472 H 888.109 -2.39176 4.21924 0
M  V30 9473 H 883.988 -3.21151 3.30731 0
M  V30 9474 H 887.532 -2.21892 6.6137 0
M  V30 9475 H 883.429 -3.04189 5.69332 0
M  V30 9476 H 884.197 -2.67321 7.73616 0
M  V30 9477 N 886.86 -1.21182 -1.00761 0
M  V30 9478 C 887.793 -0.912033 -2.09182 0
M  V30 9479 C 888.771 0.139421 -1.62001 0
M  V30 9480 O 889.955 0.0110272 -1.88497 0
M  V30 9481 C 887.082 -0.368957 -3.36684 0
M  V30 9482 C 886.128 -1.4028 -4.0277 0
M  V30 9483 S 886.961 -2.97108 -4.45519 0
M  V30 9484 C 888.117 -2.444 -5.76211 0
M  V30 9485 H 888.35 -1.83019 -2.34289 0
M  V30 9486 H 885.883 -1.04127 -1.14004 0
M  V30 9487 H 887.841 -0.0621883 -4.10453 0
M  V30 9488 H 886.502 0.527841 -3.09633 0
M  V30 9489 H 885.695 -0.97238 -4.94531 0
M  V30 9490 H 885.297 -1.65752 -3.35265 0
M  V30 9491 H 887.589 -1.84723 -6.51831 0
M  V30 9492 H 888.532 -3.34593 -6.24062 0
M  V30 9493 H 888.94 -1.86203 -5.32906 0
M  V30 9494 N 888.338 1.20213 -1.01915 0
M  V30 9495 C 889.271 2.2181 -0.536243 0
M  V30 9496 C 890.249 1.57144 0.417689 0
M  V30 9497 O 891.433 1.85461 0.337088 0
M  V30 9498 C 888.56 3.37989 0.219303 0
M  V30 9499 C 887.606 4.2097 -0.684571 0
M  V30 9500 S 888.439 4.90216 -2.15519 0
M  V30 9501 C 889.595 6.09814 -1.40988 0
M  V30 9502 H 889.828 2.62429 -1.39709 0
M  V30 9503 H 887.361 1.30305 -0.828254 0
M  V30 9504 H 889.319 4.05335 0.649112 0
M  V30 9505 H 887.98 2.95825 1.05575 0
M  V30 9506 H 887.173 5.03897 -0.101833 0
M  V30 9507 H 886.775 3.58892 -1.05227 0
M  V30 9508 H 889.067 6.73964 -0.691243 0
M  V30 9509 H 890.01 6.72552 -2.21539 0
M  V30 9510 H 890.418 5.5709 -0.911645 0
M  V30 9511 N 889.816 0.795718 1.36037 0
M  V30 9512 C 890.746 0.212803 2.32528 0
M  V30 9513 C 891.727 -0.655716 1.56953 0
M  V30 9514 O 892.912 -0.588238 1.85077 0
M  V30 9515 C 890.042 -0.648189 3.41198 0
M  V30 9516 C 888.996 0.120948 4.27829 0
M  V30 9517 C 888.322 -0.861044 5.27722 0
M  V30 9518 C 889.622 1.31375 5.05508 0
M  V30 9519 H 891.316 1.01893 2.81528 0
M  V30 9520 H 888.862 0.491422 1.35355 0
M  V30 9521 H 890.815 -1.06597 4.07695 0
M  V30 9522 H 889.539 -1.48709 2.9078 0
M  V30 9523 H 888.198 0.519777 3.62897 0
M  V30 9524 H 887.846 -1.69515 4.73575 0
M  V30 9525 H 887.546 -0.350808 5.86552 0
M  V30 9526 H 889.07 -1.27726 5.97092 0
M  V30 9527 H 890.484 0.971406 5.6501 0
M  V30 9528 H 888.881 1.75772 5.73781 0
M  V30 9529 H 889.951 2.10593 4.36782 0
M  V30 9530 N 891.294 -1.47756 0.548274 0
M  V30 9531 C 892.519 -2.07387 0.023475 0
M  V30 9532 C 892.944 -1.39956 -1.25674 0
M  V30 9533 O 892.302 -0.471543 -1.7506 0
M  V30 9534 C 892.35 -3.60224 -0.164669 0
M  V30 9535 O 891.454 -3.93653 -1.22928 0
M  V30 9536 H 890.795 -0.662312 0.0473156 0
M  V30 9537 H 893.325 -1.89905 0.761409 0
M  V30 9538 H 893.335 -4.06211 -0.38166 0
M  V30 9539 H 892.01 -4.08702 0.770425 0
M  V30 9540 H 890.587 -3.59422 -0.993495 0
M  V30 9541 N 892.772 -0.284283 -1.55015 0
M  V30 9542 C 894.02 0.329212 -1.99401 0
M  V30 9543 C 894.341 1.55687 -1.17416 0
M  V30 9544 O 893.611 1.94087 -0.265937 0
M  V30 9545 H 892.191 0.12463 -0.73653 0
M  V30 9546 H 894.853 -0.391743 -1.90922 0
M  V30 9547 H 893.949 0.61278 -3.06025 0
M  V30 9548 N 894.251 1.57596 -0.0117121 0
M  V30 9549 C 895.183 2.06025 1.0043 0
M  V30 9550 C 896.196 0.980348 1.29973 0
M  V30 9551 O 897.385 1.25691 1.26744 0
M  V30 9552 C 894.485 2.45514 2.33615 0
M  V30 9553 C 893.658 3.76378 2.22842 0
M  V30 9554 C 892.717 4.02606 3.38814 0
M  V30 9555 O 891.743 4.73108 3.16477 0
M  V30 9556 N 892.945 3.51416 4.62047 0
M  V30 9557 H 895.71 2.93811 0.591206 0
M  V30 9558 H 893.271 1.60947 0.175427 0
M  V30 9559 H 895.263 2.60166 3.09993 0
M  V30 9560 H 893.833 1.63186 2.66625 0
M  V30 9561 H 893.053 3.71691 1.313 0
M  V30 9562 H 894.341 4.62149 2.12829 0
M  V30 9563 H 893.739 2.94346 4.83091 0
M  V30 9564 H 892.296 3.71377 5.35651 0
M  V30 9565 N 895.729 -0.261212 1.5542 0
M  V30 9566 C 896.975 -0.992699 1.76843 0
M  V30 9567 C 897.308 -1.8551 0.574428 0
M  V30 9568 O 896.583 -1.89739 -0.427713 0
M  V30 9569 C 896.866 -1.86532 3.08022 0
M  V30 9570 C 896.719 -1.03206 4.378 0
M  V30 9571 C 898.038 -2.85036 3.35324 0
M  V30 9572 H 895.157 -0.359473 0.643388 0
M  V30 9573 H 897.799 -0.264214 1.88154 0
M  V30 9574 H 895.949 -2.48644 2.9851 0
M  V30 9575 H 897.621 -0.430743 4.59285 0
M  V30 9576 H 895.864 -0.335911 4.32497 0
M  V30 9577 H 896.535 -1.6761 5.25938 0
M  V30 9578 H 899.011 -2.3306 3.44706 0
M  V30 9579 H 897.887 -3.43226 4.28354 0
M  V30 9580 H 898.148 -3.60768 2.55537 0
M  V30 9581 N 897.207 -1.48554 -0.526253 0
M  V30 9582 C 898.618 -1.50256 -1.10815 0
M  V30 9583 C 898.969 -0.274445 -1.94271 0
M  V30 9584 O 898.094 0.618094 -2.07385 0
M  V30 9585 C 898.689 -2.72264 -2.01638 0
M  V30 9586 C 897.248 -2.76826 -2.55038 0
M  V30 9587 C 896.395 -2.43823 -1.32081 0
M  V30 9588 H 899.346 -1.55616 -0.31133 0
M  V30 9589 H 899.367 -2.50993 -2.85977 0
M  V30 9590 H 898.879 -3.61632 -1.4087 0
M  V30 9591 H 896.98 -1.91676 -3.19517 0
M  V30 9592 H 897.093 -3.78351 -2.93917 0
M  V30 9593 H 895.457 -1.95058 -1.63781 0
M  V30 9594 H 896.24 -3.35436 -0.730596 0
M  V30 9595 N 898.685 0.775411 -1.37205 0
M  V30 9596 C 899.932 1.53384 -1.32211 0
M  V30 9597 C 900.26 1.9427 0.0944958 0
M  V30 9598 O 899.515 1.64059 1.06692 0
M  V30 9599 C 899.814 2.81377 -2.20367 0
M  V30 9600 C 899.48 2.59561 -3.68699 0
M  V30 9601 C 898.142 2.53319 -4.09124 0
M  V30 9602 C 900.494 2.39939 -4.62686 0
M  V30 9603 C 897.822 2.25442 -5.41658 0
M  V30 9604 C 900.174 2.13586 -5.95453 0
M  V30 9605 C 898.838 2.05786 -6.34987 0
M  V30 9606 H 898.108 0.561271 -0.483793 0
M  V30 9607 H 900.755 0.893466 -1.6938 0
M  V30 9608 H 899.06 3.49954 -1.76181 0
M  V30 9609 H 900.757 3.39238 -2.13819 0
M  V30 9610 H 897.347 2.6528 -3.36637 0
M  V30 9611 H 901.531 2.43753 -4.32317 0
M  V30 9612 H 896.787 2.17896 -5.71254 0
M  V30 9613 H 900.961 1.97401 -6.67837 0
M  V30 9614 H 898.588 1.83948 -7.37609 0
M  V30 9615 N 900.163 1.21714 1.00117 0
M  V30 9616 C 901.095 0.937627 2.09144 0
M  V30 9617 C 902.108 -0.0806291 1.626 0
M  V30 9618 O 903.297 0.152348 1.77849 0
M  V30 9619 C 900.397 0.387036 3.36683 0
M  V30 9620 C 899.57 1.46054 4.12295 0
M  V30 9621 C 898.629 0.918505 5.18122 0
M  V30 9622 O 897.655 1.60282 5.46167 0
M  V30 9623 N 898.857 -0.264308 5.79898 0
M  V30 9624 H 901.622 1.87622 2.33705 0
M  V30 9625 H 899.183 1.12291 1.16629 0
M  V30 9626 H 901.175 0.00992825 4.04699 0
M  V30 9627 H 899.745 -0.456467 3.09249 0
M  V30 9628 H 898.965 2.01133 3.39027 0
M  V30 9629 H 900.253 2.18306 4.59587 0
M  V30 9630 H 899.651 -0.837242 5.5947 0
M  V30 9631 H 898.208 -0.582886 6.49188 0
M  V30 9632 N 901.641 -1.19671 1.02551 0
M  V30 9633 C 902.889 -1.88894 0.71858 0
M  V30 9634 C 903.21 -1.79797 -0.754856 0
M  V30 9635 O 902.48 -1.20621 -1.54362 0
M  V30 9636 H 901.06 -0.699244 0.262806 0
M  V30 9637 H 903.722 -1.45298 1.29902 0
M  V30 9638 H 902.818 -2.95309 1.00989 0
M  V30 9639 N 903.119 -0.802921 -1.35613 0
M  V30 9640 C 904.082 -0.216422 -2.28176 0
M  V30 9641 C 905.082 0.594101 -1.49422 0
M  V30 9642 O 906.272 0.41312 -1.6923 0
M  V30 9643 C 903.404 0.698746 -3.33662 0
M  V30 9644 H 904.597 -1.03276 -2.81557 0
M  V30 9645 H 902.15 -0.573307 -1.45406 0
M  V30 9646 H 902.885 1.53891 -2.85461 0
M  V30 9647 H 902.67 0.119314 -3.91918 0
M  V30 9648 H 904.16 1.10354 -4.02755 0
M  V30 9649 N 904.597 1.47463 -0.556102 0
M  V30 9650 C 905.822 2.07371 -0.0344729 0
M  V30 9651 C 906.247 1.40621 1.2493 0
M  V30 9652 O 905.605 0.48082 1.74808 0
M  V30 9653 C 905.653 3.60306 0.145563 0
M  V30 9654 O 904.757 3.94299 1.20839 0
M  V30 9655 H 904.098 0.662052 -0.0508274 0
M  V30 9656 H 906.628 1.89498 -0.771469 0
M  V30 9657 H 906.638 4.06408 0.360112 0
M  V30 9658 H 905.313 4.08288 -0.792089 0
M  V30 9659 H 903.89 3.59944 0.97442 0
M  V30 9660 N 906.075 0.2925 1.54862 0
M  V30 9661 C 907.323 -0.318633 1.99572 0
M  V30 9662 C 907.644 -1.55062 1.1824 0
M  V30 9663 O 906.914 -1.93943 0.276226 0
M  V30 9664 H 905.494 -0.120722 0.737181 0
M  V30 9665 H 908.156 0.401862 1.90712 0
M  V30 9666 H 907.252 -0.596542 3.06346 0
M  V30 9667 N 907.553 -1.57587 0.0200696 0
M  V30 9668 C 908.485 -2.06555 -0.993359 0
M  V30 9669 C 909.498 -0.987227 -1.29451 0
M  V30 9670 O 910.687 -1.26361 -1.26075 0
M  V30 9671 C 907.787 -2.4675 -2.3231 0
M  V30 9672 C 906.96 -3.77554 -2.20843 0
M  V30 9673 C 906.019 -4.04397 -3.36674 0
M  V30 9674 O 905.045 -4.7478 -3.13963 0
M  V30 9675 N 906.247 -3.53861 -4.60176 0
M  V30 9676 H 909.012 -2.9412 -0.575617 0
M  V30 9677 H 906.573 -1.61038 -0.166889 0
M  V30 9678 H 908.565 -2.61806 -3.08609 0
M  V30 9679 H 907.135 -1.64598 -2.65756 0
M  V30 9680 H 906.355 -3.72382 -1.29327 0
M  V30 9681 H 907.643 -4.63271 -2.10375 0
M  V30 9682 H 907.041 -2.96904 -4.81523 0
M  V30 9683 H 905.598 -3.74213 -5.33674 0
M  V30 9684 N 909.032 0.252966 -1.55557 0
M  V30 9685 C 910.28 0.979912 -1.76754 0
M  V30 9686 C 910.601 1.86083 -0.582944 0
M  V30 9687 O 909.871 1.91742 0.401497 0
M  V30 9688 H 908.451 0.364805 -0.651864 0
M  V30 9689 H 911.113 0.272372 -1.92987 0
M  V30 9690 H 910.209 1.60518 -2.67657 0
M  V30 9691 N 910.51 1.48831 0.518367 0
M  V30 9692 C 911.758 1.57128 1.27103 0
M  V30 9693 C 912.079 0.252098 1.93364 0
M  V30 9694 O 911.349 -0.727281 1.819 0
M  V30 9695 H 909.929 0.578891 0.472116 0
M  V30 9696 H 912.591 1.85361 0.602262 0
M  V30 9697 H 911.687 2.35838 2.04418 0
M  V30 9698 N 911.988 -0.768124 1.37614 0
M  V30 9699 C 912.92 -1.89076 1.29548 0
M  V30 9700 C 913.933 -1.61433 0.21056 0
M  V30 9701 O 915.122 -1.72283 0.466992 0
M  V30 9702 C 912.222 -3.24388 0.981102 0
M  V30 9703 C 911.395 -3.79649 2.17222 0
M  V30 9704 C 910.454 -4.93444 1.82754 0
M  V30 9705 O 909.48 -5.0884 2.5509 0
M  V30 9706 N 910.682 -5.75319 0.773819 0
M  V30 9707 H 913.447 -1.9651 2.26283 0
M  V30 9708 H 911.008 -0.947399 1.31286 0
M  V30 9709 H 913 -3.98038 0.731301 0
M  V30 9710 H 911.57 -3.12433 0.102203 0
M  V30 9711 H 910.79 -2.97735 2.58355 0
M  V30 9712 H 912.078 -4.13302 2.96748 0
M  V30 9713 H 911.476 -5.65433 0.173644 0
M  V30 9714 H 910.033 -6.4918 0.583882 0
M  V30 9715 N 913.466 -1.22244 -0.994698 0
M  V30 9716 C 914.691 -1.07299 -1.77487 0
M  V30 9717 C 915.116 0.372302 -1.84379 0
M  V30 9718 O 914.474 1.2689 -1.29494 0
M  V30 9719 C 914.522 -1.68675 -3.18718 0
M  V30 9720 O 913.626 -0.939202 -4.01563 0
M  V30 9721 H 912.967 -0.376979 -0.546611 0
M  V30 9722 H 915.497 -1.62003 -1.24965 0
M  V30 9723 H 915.507 -1.73324 -3.69354 0
M  V30 9724 H 914.182 -2.73849 -3.13017 0
M  V30 9725 H 912.759 -0.968583 -3.60101 0
M  V30 9726 N 914.944 1.19125 -1.03184 0
M  V30 9727 C 915.876 2.21914 -0.573294 0
M  V30 9728 C 916.889 1.5894 0.352397 0
M  V30 9729 O 918.078 1.77883 0.148318 0
M  V30 9730 C 915.178 3.38403 0.18355 0
M  V30 9731 C 914.351 4.3096 -0.747817 0
M  V30 9732 C 913.41 5.26188 -0.0358489 0
M  V30 9733 O 912.436 5.65321 -0.663388 0
M  V30 9734 N 913.638 5.67235 1.23387 0
M  V30 9735 H 916.403 2.61881 -1.45734 0
M  V30 9736 H 913.964 1.33821 -0.911231 0
M  V30 9737 H 915.956 3.99124 0.669468 0
M  V30 9738 H 914.526 2.97201 0.969043 0
M  V30 9739 H 913.746 3.67976 -1.41377 0
M  V30 9740 H 915.034 4.89708 -1.38071 0
M  V30 9741 H 914.432 5.37481 1.76439 0
M  V30 9742 H 912.989 6.30196 1.66423 0
M  V30 9743 N 916.422 0.810101 1.35185 0
M  V30 9744 C 917.385 0.22852 2.28058 0
M  V30 9745 C 918.385 -0.586168 1.49735 0
M  V30 9746 O 919.575 -0.40414 1.69447 0
M  V30 9747 C 916.707 -0.681041 3.34028 0
M  V30 9748 H 917.9 1.04768 2.81005 0
M  V30 9749 H 915.453 0.58101 1.451 0
M  V30 9750 H 916.188 -1.52375 2.86273 0
M  V30 9751 H 915.973 -0.0985276 3.91976 0
M  V30 9752 H 917.463 -1.08217 4.03335 0
M  V30 9753 N 917.9 -1.47166 0.563914 0
M  V30 9754 C 918.863 -2.28571 -0.169624 0
M  V30 9755 C 919.863 -1.37331 -0.836467 0
M  V30 9756 O 921.053 -1.59896 -0.6913 0
M  V30 9757 C 918.185 -3.17201 -1.24886 0
M  V30 9758 H 919.378 -2.94896 0.545539 0
M  V30 9759 H 916.931 -1.52966 0.321121 0
M  V30 9760 H 917.666 -2.55582 -1.99621 0
M  V30 9761 H 917.451 -3.84356 -0.775426 0
M  V30 9762 H 918.941 -3.7852 -1.76388 0
M  V30 9763 N 919.378 -0.300708 -1.54705 0
M  V30 9764 C 920.288 0.584996 -2.27189 0
M  V30 9765 C 921.304 1.14866 -1.30697 0
M  V30 9766 O 922.48 1.17351 -1.63679 0
M  V30 9767 C 919.545 1.74076 -2.99831 0
M  V30 9768 C 918.606 1.2112 -4.1186 0
M  V30 9769 C 917.839 2.31188 -4.81028 0
M  V30 9770 O 918.062 3.5108 -4.49554 0
M  V30 9771 O 916.996 1.97897 -5.68437 0
M  V30 9772 H 920.822 -0.00298177 -3.037 0
M  V30 9773 H 918.407 -0.0671802 -1.49249 0
M  V30 9774 H 920.289 2.41413 -3.45395 0
M  V30 9775 H 918.964 2.31535 -2.26215 0
M  V30 9776 H 917.871 0.50357 -3.70695 0
M  V30 9777 H 919.204 0.682046 -4.87452 0
M  V30 9778 N 920.856 1.57574 -0.0284266 0
M  V30 9779 C 922.105 1.9095 0.649704 0
M  V30 9780 C 922.418 0.906421 1.7333 0
M  V30 9781 O 923.624 1.1314 2.46803 0
M  V30 9782 C 922.08 3.39061 1.20687 0
M  V30 9783 C 921.688 4.47726 0.156597 0
M  V30 9784 C 923.432 3.81505 1.86156 0
M  V30 9785 C 921.339 5.86935 0.725365 0
M  V30 9786 H 920.269 0.712589 0.24644 0
M  V30 9787 H 922.92 1.83261 -0.0936143 0
M  V30 9788 H 921.302 3.41679 2.00178 0
M  V30 9789 H 922.476 4.56667 -0.6158 0
M  V30 9790 H 920.791 4.14481 -0.399288 0
M  V30 9791 H 923.388 4.82865 2.29665 0
M  V30 9792 H 923.731 3.16529 2.70398 0
M  V30 9793 H 924.264 3.81307 1.13356 0
M  V30 9794 H 921.003 6.55453 -0.0789081 0
M  V30 9795 H 920.523 5.81602 1.46627 0
M  V30 9796 H 922.202 6.35483 1.21532 0
M  V30 9797 N 922.334 -0.244713 1.55689 0
M  V30 9798 C 923.267 -1.32946 1.85474 0
M  V30 9799 C 924.245 -1.46279 0.710021 0
M  V30 9800 O 925.429 -1.62459 0.956004 0
M  V30 9801 C 922.556 -2.7027 2.04137 0
M  V30 9802 C 921.602 -2.74075 3.2678 0
M  V30 9803 S 922.435 -2.30465 4.8337 0
M  V30 9804 C 923.591 -3.69709 5.05041 0
M  V30 9805 H 923.824 -1.07482 2.77191 0
M  V30 9806 H 921.357 -0.445807 1.47824 0
M  V30 9807 H 923.315 -3.4934 2.15574 0
M  V30 9808 H 921.976 -2.9297 1.13259 0
M  V30 9809 H 921.169 -3.74932 3.36812 0
M  V30 9810 H 920.771 -2.03051 3.1408 0
M  V30 9811 H 923.063 -4.65222 4.92518 0
M  V30 9812 H 924.006 -3.6461 6.07014 0
M  V30 9813 H 924.414 -3.62323 4.32877 0
M  V30 9814 N 923.813 -1.49104 -0.510467 0
M  V30 9815 C 925.053 -1.59723 -1.27545 0
M  V30 9816 C 925.417 -0.273525 -1.90042 0
M  V30 9817 O 926.618 -0.254835 -2.67589 0
M  V30 9818 C 924.889 -2.71771 -2.3211 0
M  V30 9819 S 926.448 -3.02282 -3.18074 0
M  V30 9820 H 923.266 -0.563489 -0.433591 0
M  V30 9821 H 925.868 -1.86719 -0.579328 0
M  V30 9822 H 924.572 -3.66483 -1.84711 0
M  V30 9823 H 924.103 -2.46739 -3.06404 0
M  V30 9824 H 926.118 -2.43076 -4.32583 0
M  V30 9825 N 925.291 0.760815 -1.38019 0
M  V30 9826 C 926.238 1.8744 -1.34666 0
M  V30 9827 C 927.208 1.64762 -0.210386 0
M  V30 9828 O 928.393 1.86528 -0.401479 0
M  V30 9829 C 925.533 3.24648 -1.17037 0
M  V30 9830 C 924.646 3.59206 -2.3999 0
M  V30 9831 C 923.781 4.8568 -2.15148 0
M  V30 9832 C 922.82 5.13002 -3.3391 0
M  V30 9833 N 921.957 6.30668 -3.08549 0
M  V30 9834 H 926.797 1.8964 -2.29871 0
M  V30 9835 H 924.334 0.927004 -1.14215 0
M  V30 9836 H 926.292 4.03814 -1.04834 0
M  V30 9837 H 924.922 3.21793 -0.254758 0
M  V30 9838 H 923.974 2.74939 -2.62893 0
M  V30 9839 H 925.286 3.75328 -3.28527 0
M  V30 9840 H 924.44 5.72773 -2.00039 0
M  V30 9841 H 923.179 4.71682 -1.23965 0
M  V30 9842 H 922.184 4.2438 -3.49545 0
M  V30 9843 H 923.409 5.28901 -4.25958 0
M  V30 9844 H 921.355 6.18008 -2.20006 0
M  V30 9845 H 921.272 6.47257 -3.90633 0
M  V30 9846 H 922.54 7.20669 -2.9708 0
M  V30 9847 N 926.769 1.22769 0.988202 0
M  V30 9848 C 928.018 1.0492 1.72263 0
M  V30 9849 C 928.331 -0.415282 1.91141 0
M  V30 9850 O 929.537 -0.713547 2.61956 0
M  V30 9851 C 927.993 1.82891 3.09966 0
M  V30 9852 C 927.601 3.33618 2.99003 0
M  V30 9853 C 929.345 1.73505 3.87423 0
M  V30 9854 C 927.252 4.04012 4.3189 0
M  V30 9855 H 926.182 0.38899 0.645912 0
M  V30 9856 H 928.833 1.46664 1.10281 0
M  V30 9857 H 927.215 1.33948 3.72658 0
M  V30 9858 H 928.389 3.8999 2.45448 0
M  V30 9859 H 926.704 3.43732 2.35027 0
M  V30 9860 H 929.301 2.23416 4.85787 0
M  V30 9861 H 929.644 0.696344 4.10435 0
M  V30 9862 H 930.177 2.20016 3.31418 0
M  V30 9863 H 926.916 5.08155 4.14075 0
M  V30 9864 H 926.436 3.52428 4.8534 0
M  V30 9865 H 928.115 4.0987 5.00615 0
M  V30 9866 N 928.247 -1.18576 1.03814 0
M  V30 9867 C 929.663 -1.4051 0.756909 0
M  V30 9868 C 929.863 -1.9057 -0.654631 0
M  V30 9869 O 928.919 -2.0884 -1.41922 0
M  V30 9870 C 930.232 -2.4081 1.80087 0
M  V30 9871 C 931.78 -2.54541 1.82148 0
M  V30 9872 C 932.255 -3.58102 2.85529 0
M  V30 9873 N 933.746 -3.65607 2.84404 0
M  V30 9874 C 934.481 -4.45458 3.61047 0
M  V30 9875 N 933.977 -5.28937 4.47434 0
M  V30 9876 N 935.77 -4.40196 3.49548 0
M  V30 9877 H 927.921 -0.844075 1.94908 0
M  V30 9878 H 930.184 -0.433287 0.843188 0
M  V30 9879 H 929.89 -2.1107 2.81322 0
M  V30 9880 H 929.764 -3.4012 1.63089 0
M  V30 9881 H 932.151 -2.83598 0.815855 0
M  V30 9882 H 932.232 -1.55352 2.03223 0
M  V30 9883 H 931.876 -3.29786 3.86269 0
M  V30 9884 H 931.806 -4.56963 2.6171 0
M  V30 9885 H 934.297 -3.05994 2.21756 0
M  V30 9886 H 934.61 -5.8701 5.02632 0
M  V30 9887 H 932.955 -5.28366 4.51503 0
M  V30 9888 H 936.146 -3.74026 2.81464 0
M  V30 9889 H 936.319 -5.02186 4.09528 0
M  V30 9890 N 929.725 -0.817259 -1.34754 0
M  V30 9891 C 930.635 -0.236946 -2.334 0
M  V30 9892 C 931.651 0.625685 -1.62361 0
M  V30 9893 O 932.827 0.534921 -1.94166 0
M  V30 9894 C 929.892 0.596215 -3.41535 0
M  V30 9895 C 928.953 -0.288154 -4.28332 0
M  V30 9896 C 928.186 0.505337 -5.31302 0
M  V30 9897 O 928.409 1.73912 -5.43241 0
M  V30 9898 O 927.343 -0.109374 -6.01801 0
M  V30 9899 H 931.169 -1.05327 -2.84851 0
M  V30 9900 H 928.754 -0.579275 -1.37713 0
M  V30 9901 H 930.636 1.07041 -4.07578 0
M  V30 9902 H 929.311 1.38997 -2.92338 0
M  V30 9903 H 928.218 -0.809724 -3.65232 0
M  V30 9904 H 929.551 -1.04612 -4.80955 0
M  V30 9905 N 931.203 1.46865 -0.571711 0
M  V30 9906 C 932.451 2.0203 -0.0530022 0
M  V30 9907 C 932.772 1.44687 1.30731 0
M  V30 9908 O 932.042 0.627429 1.85581 0
M  V30 9909 H 930.622 0.746815 -0.0166035 0
M  V30 9910 H 933.284 1.80099 -0.745003 0
M  V30 9911 H 932.38 3.12091 0.0242538 0
M  V30 9912 N 932.681 0.308908 1.54543 0
M  V30 9913 C 934.097 -0.0442273 1.59539 0
M  V30 9914 C 934.297 -1.51743 1.32575 0
M  V30 9915 O 933.353 -2.27134 1.10302 0
M  V30 9916 C 934.666 0.360826 2.98527 0
M  V30 9917 C 936.214 0.310252 3.11459 0
M  V30 9918 C 936.689 0.690246 4.52769 0
M  V30 9919 N 938.18 0.643084 4.58714 0
M  V30 9920 C 938.915 0.909483 5.66141 0
M  V30 9921 N 938.411 1.24226 6.81572 0
M  V30 9922 N 940.204 0.836018 5.55848 0
M  V30 9923 H 932.355 1.26893 1.70329 0
M  V30 9924 H 934.618 0.514986 0.795923 0
M  V30 9925 H 934.324 1.38669 3.23209 0
M  V30 9926 H 934.198 -0.281563 3.76148 0
M  V30 9927 H 936.585 -0.706375 2.86521 0
M  V30 9928 H 936.666 0.987373 2.35976 0
M  V30 9929 H 936.31 1.70472 4.78437 0
M  V30 9930 H 936.24 -0.00903075 5.26599 0
M  V30 9931 H 938.731 0.397138 3.75807 0
M  V30 9932 H 939.044 1.4313 7.5943 0
M  V30 9933 H 937.389 1.28038 6.83104 0
M  V30 9934 H 940.58 0.575637 4.64547 0
M  V30 9935 H 940.753 1.047 6.39486 0
M  V30 9936 N 934.159 -1.57557 0.0367827 0
M  V30 9937 C 935.406 -1.92114 -0.640185 0
M  V30 9938 C 935.734 -0.913887 -1.71693 0
M  V30 9939 O 934.989 0.0760343 -1.95552 0
M  V30 9940 C 935.288 -3.33387 -1.28794 0
M  V30 9941 C 934.954 -4.4961 -0.340819 0
M  V30 9942 C 933.616 -4.81133 -0.0801574 0
M  V30 9943 C 935.968 -5.20283 0.309106 0
M  V30 9944 C 933.296 -5.80683 0.838107 0
M  V30 9945 C 935.648 -6.20813 1.21547 0
M  V30 9946 C 934.312 -6.50773 1.48495 0
M  V30 9947 H 933.582 -0.702996 -0.23426 0
M  V30 9948 H 936.229 -1.91238 0.100188 0
M  V30 9949 H 934.534 -3.30561 -2.10324 0
M  V30 9950 H 936.231 -3.57399 -1.81843 0
M  V30 9951 H 932.821 -4.25002 -0.554161 0
M  V30 9952 H 937.005 -4.96153 0.120794 0
M  V30 9953 H 932.261 -6.02238 1.05451 0
M  V30 9954 H 936.435 -6.74692 1.72522 0
M  V30 9955 H 934.062 -7.27727 2.19814 0
M  V30 9956 N 935.637 0.236453 -1.55816 0
M  V30 9957 C 936.862 0.98449 -1.82545 0
M  V30 9958 C 937.287 1.77755 -0.615206 0
M  V30 9959 O 936.645 1.75982 0.435895 0
M  V30 9960 C 936.693 1.88973 -3.07118 0
M  V30 9961 O 935.797 2.98298 -2.84766 0
M  V30 9962 H 935.138 0.279577 -0.602273 0
M  V30 9963 H 937.668 0.254277 -2.03014 0
M  V30 9964 H 937.678 2.3024 -3.36829 0
M  V30 9965 H 936.353 1.30671 -3.94839 0
M  V30 9966 H 934.93 2.61085 -2.6625 0
M  V30 9967 N 937.115 1.49373 0.502552 0
M  V30 9968 C 938.045 1.68839 1.61294 0
M  V30 9969 C 939.026 0.537096 1.61398 0
M  V30 9970 O 940.211 0.772764 1.78163 0
M  V30 9971 C 937.341 1.75347 2.99784 0
M  V30 9972 C 936.295 2.90251 3.14545 0
M  V30 9973 C 935.621 2.8187 4.54371 0
M  V30 9974 C 936.921 4.31207 2.94717 0
M  V30 9975 H 938.615 2.61803 1.45257 0
M  V30 9976 H 936.161 1.25987 0.697371 0
M  V30 9977 H 938.114 1.87552 3.77362 0
M  V30 9978 H 936.838 0.789814 3.16906 0
M  V30 9979 H 935.497 2.77646 2.39392 0
M  V30 9980 H 935.145 1.83416 4.68367 0
M  V30 9981 H 934.845 3.5899 4.65188 0
M  V30 9982 H 936.369 2.96081 5.34012 0
M  V30 9983 H 937.783 4.44501 3.62065 0
M  V30 9984 H 936.18 5.09536 3.17007 0
M  V30 9985 H 937.25 4.45759 1.90857 0
M  V30 9986 N 938.594 -0.753485 1.38421 0
M  V30 9987 C 939.871 -1.50318 1.25155 0
M  V30 9988 C 940.251 -2.10588 -0.147003 0
M  V30 9989 O 939.599 -1.97071 -1.15651 0
M  V30 9990 C 939.809 -2.56946 2.36177 0
M  V30 9991 C 941.157 -3.23846 2.74607 0
M  V30 9992 O 942.181 -2.67251 2.3549 0
M  V30 9993 O 941.04 -4.2621 3.42064 0
M  V30 9994 H 938.134 -0.666624 0.48943 0
M  V30 9995 H 940.68 -0.788887 1.50249 0
M  V30 9996 H 939.452 -2.1066 3.29754 0
M  V30 9997 H 939.075 -3.35956 2.12648 0
M  V30 9998 N 940.072 -1.23292 -0.981677 0
M  V30 9999 C 941.32 -1.06214 -1.71939 0
M  V30 10000 C 941.641 0.401989 -1.90812 0
M  V30 10001 O 940.911 1.28825 -1.47584 0
M  V30 10002 H 939.491 -0.390042 -0.637084 0
M  V30 10003 H 942.153 -1.54988 -1.18173 0
M  V30 10004 H 941.249 -1.54904 -2.70945 0
M  V30 10005 N 941.55 1.18024 -1.04442 0
M  V30 10006 C 942.46 2.25436 -0.649276 0
M  V30 10007 C 943.476 1.70915 0.326189 0
M  V30 10008 O 944.652 2.00592 0.180174 0
M  V30 10009 C 941.717 3.46693 -0.0222558 0
M  V30 10010 C 940.778 4.16332 -1.0472 0
M  V30 10011 C 940.011 5.31799 -0.450011 0
M  V30 10012 O 940.234 5.65544 0.742717 0
M  V30 10013 O 939.168 5.90209 -1.18056 0
M  V30 10014 H 942.994 2.61508 -1.54426 0
M  V30 10015 H 940.579 1.25178 -0.81552 0
M  V30 10016 H 942.461 4.20132 0.326597 0
M  V30 10017 H 941.136 3.12436 0.84649 0
M  V30 10018 H 940.043 3.44944 -1.44792 0
M  V30 10019 H 941.376 4.54598 -1.88684 0
M  V30 10020 N 943.028 0.824394 1.34319 0
M  V30 10021 C 943.991 0.252696 2.27803 0
M  V30 10022 C 944.991 -0.570254 1.50349 0
M  V30 10023 O 946.181 -0.386145 1.69866 0
M  V30 10024 C 943.313 -0.645575 3.34731 0
M  V30 10025 H 944.506 1.07742 2.79878 0
M  V30 10026 H 942.059 0.596367 1.44475 0
M  V30 10027 H 942.794 -1.4933 2.87873 0
M  V30 10028 H 942.579 -0.0569478 3.92059 0
M  V30 10029 H 944.069 -1.03933 4.0446 0
M  V30 10030 N 944.506 -1.46559 0.579492 0
M  V30 10031 C 945.752 -2.03272 0.0722569 0
M  V30 10032 C 946.107 -1.44334 -1.27222 0
M  V30 10033 O 945.4 -0.597848 -1.82034 0
M  V30 10034 C 945.594 -3.57357 -0.0552803 0
M  V30 10035 C 945.423 -4.31238 1.27529 0
M  V30 10036 C 944.193 -4.70272 1.84857 0
M  V30 10037 C 946.391 -4.64978 2.19773 0
M  V30 10038 N 944.373 -5.2889 3.11687 0
M  V30 10039 C 945.744 -5.24132 3.31189 0
M  V30 10040 C 947.799 -4.46908 2.19493 0
M  V30 10041 C 946.502 -5.67123 4.42452 0
M  V30 10042 C 948.528 -4.90914 3.29784 0
M  V30 10043 C 947.89 -5.50136 4.3992 0
M  V30 10044 H 943.989 -0.778937 0.0691416 0
M  V30 10045 H 946.573 -1.78754 0.771683 0
M  V30 10046 H 944.744 -3.81595 -0.723868 0
M  V30 10047 H 946.476 -4.00714 -0.566606 0
M  V30 10048 H 943.231 -4.5293 1.38388 0
M  V30 10049 H 943.655 -5.62723 3.76393 0
M  V30 10050 H 948.297 -4.00459 1.35617 0
M  V30 10051 H 946.015 -6.12552 5.27073 0
M  V30 10052 H 949.601 -4.78687 3.30682 0
M  V30 10053 H 948.481 -5.83564 5.23854 0
M  V30 10054 N 945.984 -0.3171 -1.54377 0
M  V30 10055 C 946.916 0.58571 -2.2159 0
M  V30 10056 C 947.929 1.08495 -1.21378 0
M  V30 10057 O 949.118 0.999638 -1.47883 0
M  V30 10058 C 946.218 1.8157 -2.86156 0
M  V30 10059 C 945.391 1.45625 -4.12447 0
M  V30 10060 C 944.45 2.54308 -4.60667 0
M  V30 10061 O 943.476 2.18724 -5.25498 0
M  V30 10062 N 944.678 3.85129 -4.34345 0
M  V30 10063 H 947.443 0.0102247 -2.99698 0
M  V30 10064 H 945.004 -0.140011 -1.61293 0
M  V30 10065 H 946.996 2.53657 -3.15341 0
M  V30 10066 H 945.566 2.29919 -2.11793 0
M  V30 10067 H 944.786 0.567294 -3.90097 0
M  V30 10068 H 946.074 1.19169 -4.94648 0
M  V30 10069 H 945.472 4.16841 -3.8244 0
M  V30 10070 H 944.029 4.53466 -4.68201 0
M  V30 10071 N 947.462 1.57535 -0.0451378 0
M  V30 10072 C 948.71 1.92071 0.628743 0
M  V30 10073 C 949.031 0.923635 1.71738 0
M  V30 10074 O 948.301 -0.0324376 1.95873 0
M  V30 10075 H 946.881 0.708995 0.235233 0
M  V30 10076 H 949.543 1.9466 -0.0967177 0
M  V30 10077 H 948.639 2.9314 1.07123 0
M  V30 10078 N 948.94 -0.228186 1.55939 0
M  V30 10079 C 950.186 -0.954964 1.78909 0
M  V30 10080 C 950.519 -1.8425 0.613648 0
M  V30 10081 O 949.794 -1.90604 -0.38737 0
M  V30 10082 C 950.077 -1.79957 3.1191 0
M  V30 10083 C 949.93 -0.938968 4.3989 0
M  V30 10084 C 951.249 -2.77859 3.41295 0
M  V30 10085 H 948.368 -0.345745 0.650868 0
M  V30 10086 H 951.01 -0.224244 1.88672 0
M  V30 10087 H 949.16 -2.42256 3.03717 0
M  V30 10088 H 950.832 -0.333225 4.60095 0
M  V30 10089 H 949.075 -0.244096 4.33113 0
M  V30 10090 H 949.746 -1.56416 5.29375 0
M  V30 10091 H 952.222 -2.25695 3.49572 0
M  V30 10092 H 951.098 -3.34062 4.35538 0
M  V30 10093 H 951.359 -3.55266 2.63132 0
M  V30 10094 N 950.418 -1.49637 -0.494624 0
M  V30 10095 C 951.643 -1.63431 -1.27691 0
M  V30 10096 C 952.068 -0.30813 -1.85559 0
M  V30 10097 O 951.426 0.725083 -1.66169 0
M  V30 10098 C 951.474 -2.71043 -2.3784 0
M  V30 10099 O 950.578 -2.3066 -3.41862 0
M  V30 10100 H 949.919 -0.546804 -0.376698 0
M  V30 10101 H 952.449 -1.95866 -0.591413 0
M  V30 10102 H 952.459 -2.93406 -2.83508 0
M  V30 10103 H 951.134 -3.67306 -1.95088 0
M  V30 10104 H 949.711 -2.18652 -3.02069 0
M  V30 10105 N 951.896 0.746133 -1.38819 0
M  V30 10106 C 952.806 1.89063 -1.38897 0
M  V30 10107 C 953.822 1.71648 -0.28513 0
M  V30 10108 O 954.998 1.94443 -0.524783 0
M  V30 10109 C 952.063 3.24523 -1.22007 0
M  V30 10110 C 951.124 3.54411 -2.42263 0
M  V30 10111 C 950.357 4.83408 -2.26169 0
M  V30 10112 O 950.58 5.56325 -1.25931 0
M  V30 10113 O 949.514 5.12943 -3.14918 0
M  V30 10114 H 953.34 1.91951 -2.35347 0
M  V30 10115 H 950.925 0.892433 -1.19816 0
M  V30 10116 H 952.807 4.05496 -1.14677 0
M  V30 10117 H 951.482 3.2243 -0.286455 0
M  V30 10118 H 950.389 2.73569 -2.55168 0
M  V30 10119 H 951.722 3.61273 -3.3428 0
M  V30 10120 N 953.375 1.23811 0.975125 0
M  V30 10121 C 954.285 1.0408 2.10249 0
M  V30 10122 C 955.301 -0.0162404 1.73992 0
M  V30 10123 O 956.477 0.180346 2.00591 0
M  V30 10124 C 953.542 0.640013 3.40741 0
M  V30 10125 C 952.603 1.7727 3.90991 0
M  V30 10126 C 951.836 1.39094 5.15256 0
M  V30 10127 O 952.059 0.277483 5.69725 0
M  V30 10128 O 950.993 2.21392 5.59704 0
M  V30 10129 H 954.819 1.98575 2.29786 0
M  V30 10130 H 952.404 1.02563 1.08633 0
M  V30 10131 H 954.286 0.427684 4.19224 0
M  V30 10132 H 952.961 -0.27589 3.22522 0
M  V30 10133 H 951.868 2.03971 3.13602 0
M  V30 10134 H 953.201 2.66711 4.13674 0
M  V30 10135 N 954.853 -1.17469 1.05066 0
M  V30 10136 C 955.816 -2.19648 0.654793 0
M  V30 10137 C 956.816 -1.58107 -0.293063 0
M  V30 10138 O 958.006 -1.74029 -0.077106 0
M  V30 10139 C 955.138 -3.40878 -0.0384437 0
M  V30 10140 H 956.331 -2.56184 1.55915 0
M  V30 10141 H 953.884 -1.31528 0.844396 0
M  V30 10142 H 954.619 -3.09885 -0.956133 0
M  V30 10143 H 954.404 -3.86792 0.642961 0
M  V30 10144 H 955.894 -4.1651 -0.301568 0
M  V30 10145 N 956.331 -0.831506 -1.3388 0
M  V30 10146 C 957.278 -0.257449 -2.2936 0
M  V30 10147 C 958.248 0.622604 -1.5399 0
M  V30 10148 O 959.433 0.562432 -1.82322 0
M  V30 10149 C 956.573 0.567587 -3.404 0
M  V30 10150 C 955.686 -0.335666 -4.30694 0
M  V30 10151 C 954.821 0.499762 -5.28844 0
M  V30 10152 C 953.86 -0.402343 -6.10776 0
M  V30 10153 N 952.997 0.39452 -7.00991 0
M  V30 10154 H 957.837 -1.077 -2.77857 0
M  V30 10155 H 955.374 -0.542589 -1.36727 0
M  V30 10156 H 957.332 1.06133 -4.03474 0
M  V30 10157 H 955.962 1.35217 -2.93115 0
M  V30 10158 H 955.014 -0.94768 -3.68406 0
M  V30 10159 H 956.326 -1.02896 -4.88072 0
M  V30 10160 H 955.48 1.05763 -5.9741 0
M  V30 10161 H 954.219 1.22652 -4.72025 0
M  V30 10162 H 953.224 -0.972288 -5.41135 0
M  V30 10163 H 954.449 -1.12735 -6.69677 0
M  V30 10164 H 952.395 1.1048 -6.4663 0
M  V30 10165 H 952.312 -0.240209 -7.55618 0
M  V30 10166 H 953.58 0.934867 -7.73874 0
M  V30 10167 N 957.809 1.4625 -0.587256 0
M  V30 10168 C 958.719 2.34147 0.145744 0
M  V30 10169 C 959.735 1.50026 0.881376 0
M  V30 10170 O 960.911 1.82884 0.843539 0
M  V30 10171 C 957.976 3.27294 1.14366 0
M  V30 10172 C 957.037 4.27317 0.412199 0
M  V30 10173 C 956.27 5.16013 1.36257 0
M  V30 10174 O 956.493 5.0773 2.59934 0
M  V30 10175 O 955.427 5.95569 0.870681 0
M  V30 10176 H 959.253 2.98187 -0.576055 0
M  V30 10177 H 956.838 1.45299 -0.347628 0
M  V30 10178 H 958.72 3.84747 1.71894 0
M  V30 10179 H 957.395 2.65845 1.84684 0
M  V30 10180 H 956.302 3.73538 -0.205036 0
M  V30 10181 H 957.635 4.91564 -0.250104 0
M  V30 10182 N 959.287 0.325282 1.54207 0
M  V30 10183 C 960.217 -0.532574 2.27345 0
M  V30 10184 C 961.198 -1.11791 1.28206 0
M  V30 10185 O 962.383 -1.14272 1.57021 0
M  V30 10186 C 959.513 -1.69274 3.03255 0
M  V30 10187 C 958.467 -1.23662 4.09746 0
M  V30 10188 C 957.793 -2.48386 4.73506 0
M  V30 10189 C 959.093 -0.350244 5.21124 0
M  V30 10190 H 960.787 0.0775108 2.993 0
M  V30 10191 H 958.333 0.0387193 1.43948 0
M  V30 10192 H 960.286 -2.29917 3.53152 0
M  V30 10193 H 959.01 -2.32944 2.28921 0
M  V30 10194 H 957.669 -0.653106 3.60735 0
M  V30 10195 H 957.317 -3.10424 3.95786 0
M  V30 10196 H 957.017 -2.18558 5.45441 0
M  V30 10197 H 958.541 -3.09789 5.26178 0
M  V30 10198 H 959.955 -0.863011 5.66767 0
M  V30 10199 H 958.352 -0.14466 5.99926 0
M  V30 10200 H 959.422 0.618457 4.8094 0
M  V30 10201 N 960.765 -1.57509 0.0534917 0
M  V30 10202 C 962.011 -1.93068 -0.62069 0
M  V30 10203 C 962.344 -0.932313 -1.70357 0
M  V30 10204 O 961.619 0.0413393 -1.94456 0
M  V30 10205 C 961.902 -3.38997 -1.21463 0
M  V30 10206 C 961.755 -4.49583 -0.13965 0
M  V30 10207 C 963.074 -3.85366 -2.12558 0
M  V30 10208 H 960.193 -0.702083 -0.224163 0
M  V30 10209 H 962.835 -1.89647 0.115729 0
M  V30 10210 H 960.985 -3.42043 -1.84226 0
M  V30 10211 H 962.657 -4.58664 0.492411 0
M  V30 10212 H 960.9 -4.30525 0.532006 0
M  V30 10213 H 961.571 -5.48781 -0.595287 0
M  V30 10214 H 964.047 -3.8421 -1.59755 0
M  V30 10215 H 962.923 -4.8812 -2.51058 0
M  V30 10216 H 963.184 -3.22256 -3.02661 0
M  V30 10217 N 962.243 0.219913 -1.56058 0
M  V30 10218 C 963.659 0.569685 -1.49086 0
M  V30 10219 C 963.859 1.87066 -0.748903 0
M  V30 10220 O 962.915 2.50838 -0.289235 0
M  V30 10221 C 964.228 0.647397 -2.93648 0
M  V30 10222 C 965.776 0.737914 -3.04177 0
M  V30 10223 C 966.251 0.846957 -4.50101 0
M  V30 10224 N 967.742 0.911136 -4.5415 0
M  V30 10225 C 968.477 1.01525 -5.64341 0
M  V30 10226 N 967.973 1.0832 -6.8428 0
M  V30 10227 N 969.766 1.05051 -5.52196 0
M  V30 10228 H 961.917 -0.633778 -2.02724 0
M  V30 10229 H 964.18 -0.222583 -0.921499 0
M  V30 10230 H 963.886 -0.238987 -3.50887 0
M  V30 10231 H 963.76 1.51046 -3.45637 0
M  V30 10232 H 966.147 1.61474 -2.47002 0
M  V30 10233 H 966.228 -0.150845 -2.55355 0
M  V30 10234 H 965.872 -0.0254166 -5.07894 0
M  V30 10235 H 965.802 1.75116 -4.96631 0
M  V30 10236 H 968.293 0.868869 -3.67776 0
M  V30 10237 H 968.606 1.16247 -7.64007 0
M  V30 10238 H 966.951 1.05231 -6.86987 0
M  V30 10239 H 970.142 0.994086 -4.57423 0
M  V30 10240 H 970.315 1.12819 -6.38103 0
M  V30 10241 N 963.721 1.49897 0.486681 0
M  V30 10242 C 964.969 1.59789 1.23742 0
M  V30 10243 C 965.29 0.293056 1.92785 0
M  V30 10244 O 964.56 -0.688534 1.83401 0
M  V30 10245 H 963.14 0.588775 0.459731 0
M  V30 10246 H 965.802 1.86597 0.562808 0
M  V30 10247 H 964.898 2.40121 1.9937 0
M  V30 10248 N 965.199 -0.738761 1.39212 0
M  V30 10249 C 966.129 -1.86602 1.40364 0
M  V30 10250 C 967.11 -1.67984 0.267495 0
M  V30 10251 O 968.295 -1.88358 0.472765 0
M  V30 10252 C 965.425 -3.24308 1.24265 0
M  V30 10253 C 964.379 -3.57557 2.35239 0
M  V30 10254 C 963.705 -4.94159 2.04233 0
M  V30 10255 C 965.005 -3.60914 3.77543 0
M  V30 10256 H 966.699 -1.85896 2.34698 0
M  V30 10257 H 964.245 -0.892959 1.1297 0
M  V30 10258 H 966.198 -4.02838 1.23692 0
M  V30 10259 H 964.922 -3.25531 0.263974 0
M  V30 10260 H 963.581 -2.81354 2.35022 0
M  V30 10261 H 963.229 -4.91959 1.04813 0
M  V30 10262 H 962.929 -5.17373 2.78567 0
M  V30 10263 H 964.453 -5.7505 2.05303 0
M  V30 10264 H 965.867 -4.29528 3.79709 0
M  V30 10265 H 964.264 -3.95644 4.51205 0
M  V30 10266 H 965.334 -2.60803 4.08791 0
M  V30 10267 N 966.677 -1.24326 -0.968545 0
M  V30 10268 C 967.607 -1.05951 -2.08079 0
M  V30 10269 C 968.588 0.0272666 -1.70078 0
M  V30 10270 O 969.773 -0.139644 -1.93697 0
M  V30 10271 C 966.903 -0.662623 -3.4092 0
M  V30 10272 C 965.857 -1.69807 -3.92873 0
M  V30 10273 C 965.183 -1.15628 -5.22048 0
M  V30 10274 C 966.483 -3.09383 -4.20808 0
M  V30 10275 H 968.177 -1.98984 -2.23709 0
M  V30 10276 H 965.723 -0.958112 -1.075 0
M  V30 10277 H 967.676 -0.521071 -4.18166 0
M  V30 10278 H 966.4 0.303399 -3.25188 0
M  V30 10279 H 965.059 -1.82783 -3.17783 0
M  V30 10280 H 964.707 -0.180888 -5.02675 0
M  V30 10281 H 964.407 -1.84822 -5.57776 0
M  V30 10282 H 965.931 -1.02683 -6.01904 0
M  V30 10283 H 967.345 -2.99642 -4.88761 0
M  V30 10284 H 965.742 -3.75923 -4.67763 0
M  V30 10285 H 966.812 -3.57486 -3.27616 0
M  V30 10286 N 968.156 1.1691 -1.05688 0
M  V30 10287 C 969.384 1.91204 -0.790485 0
M  V30 10288 C 969.799 1.77095 0.654434 0
M  V30 10289 O 969.156 1.11146 1.44751 0
M  V30 10290 C 969.207 3.42108 -1.16808 0
M  V30 10291 O 968.928 3.55788 -2.55629 0
M  V30 10292 C 970.429 4.33466 -0.92855 0
M  V30 10293 H 967.649 0.606508 -0.287035 0
M  V30 10294 H 970.193 1.48225 -1.40888 0
M  V30 10295 H 968.348 3.82814 -0.59434 0
M  V30 10296 H 968.762 4.49321 -2.70575 0
M  V30 10297 H 970.236 5.37836 -1.24245 0
M  V30 10298 H 970.713 4.38989 0.136016 0
M  V30 10299 H 971.319 3.98481 -1.48638 0
M  V30 10300 N 969.634 0.838594 1.33437 0
M  V30 10301 C 970.88 0.434813 1.98084 0
M  V30 10302 C 971.213 -1.00331 1.66275 0
M  V30 10303 O 970.488 -1.70139 0.942501 0
M  V30 10304 C 970.771 0.655602 3.54082 0
M  V30 10305 C 970.624 2.14097 3.95578 0
M  V30 10306 C 971.943 0.101576 4.39983 0
M  V30 10307 H 969.062 0.159456 0.719544 0
M  V30 10308 H 971.704 1.05406 1.58081 0
M  V30 10309 H 969.854 0.128501 3.88287 0
M  V30 10310 H 971.526 2.73292 3.71631 0
M  V30 10311 H 969.769 2.62558 3.4532 0
M  V30 10312 H 970.44 2.24621 5.04231 0
M  V30 10313 H 972.916 0.552122 4.12421 0
M  V30 10314 H 971.792 0.28575 5.48156 0
M  V30 10315 H 972.053 -0.994616 4.30767 0
M  V30 10316 N 971.112 -1.45937 0.595003 0
M  V30 10317 C 972.389 -1.95592 0.0178748 0
M  V30 10318 C 972.769 -1.53758 -1.44643 0
M  V30 10319 O 972.117 -0.794104 -2.14257 0
M  V30 10320 C 972.327 -3.4841 0.202789 0
M  V30 10321 C 973.675 -4.2453 0.0770121 0
M  V30 10322 O 974.699 -3.55954 0.132257 0
M  V30 10323 O 973.558 -5.46479 -0.0484271 0
M  V30 10324 H 970.652 -0.825888 -0.0428702 0
M  V30 10325 H 973.198 -1.56162 0.664184 0
M  V30 10326 H 971.97 -3.71787 1.22027 0
M  V30 10327 H 971.593 -3.947 -0.479376 0
M  V30 10328 N 972.59 -0.333456 -1.54032 0
M  V30 10329 C 974.001 0.15256 -1.86076 0
M  V30 10330 C 974.352 1.50819 -1.25492 0
M  V30 10331 O 973.477 2.08903 -0.564665 0
M  V30 10332 C 974.072 0.283599 -3.37611 0
M  V30 10333 C 972.631 0.713841 -3.69569 0
M  V30 10334 C 971.778 -0.158515 -2.76847 0
M  V30 10335 H 974.729 -0.553404 -1.48738 0
M  V30 10336 H 974.75 1.11284 -3.63863 0
M  V30 10337 H 974.262 -0.703193 -3.81676 0
M  V30 10338 H 972.363 1.71002 -3.31042 0
M  V30 10339 H 972.476 0.510731 -4.7637 0
M  V30 10340 H 970.84 0.367531 -2.52034 0
M  V30 10341 H 971.623 -1.14226 -3.2374 0
M  V30 10342 N 974.068 1.57479 -0.061844 0
M  V30 10343 C 975.031 2.1104 0.894127 0
M  V30 10344 C 976.031 1.03227 1.23292 0
M  V30 10345 O 977.221 1.29256 1.16784 0
M  V30 10346 C 974.353 2.6035 2.20069 0
M  V30 10347 H 975.546 2.96807 0.429619 0
M  V30 10348 H 973.099 1.55181 0.18672 0
M  V30 10349 H 973.834 1.78008 2.71079 0
M  V30 10350 H 973.619 3.39146 1.9678 0
M  V30 10351 H 975.109 3.019 2.88525 0
M  V30 10352 N 975.546 -0.211634 1.56173 0
M  V30 10353 C 976.493 -1.26231 1.93221 0
M  V30 10354 C 977.463 -1.46076 0.790641 0
M  V30 10355 O 978.648 -1.59482 1.04739 0
M  V30 10356 C 975.788 -2.60559 2.26281 0
M  V30 10357 C 974.901 -2.48431 3.5342 0
M  V30 10358 C 974.036 -3.7535 3.7588 0
M  V30 10359 C 973.075 -3.57985 4.96501 0
M  V30 10360 N 972.212 -4.76877 5.15299 0
M  V30 10361 H 977.052 -0.939367 2.82807 0
M  V30 10362 H 974.589 -0.452511 1.39967 0
M  V30 10363 H 976.547 -3.38796 2.43461 0
M  V30 10364 H 975.177 -2.9093 1.39855 0
M  V30 10365 H 974.229 -1.61577 3.44379 0
M  V30 10366 H 975.541 -2.31526 4.41811 0
M  V30 10367 H 974.695 -4.62029 3.9321 0
M  V30 10368 H 973.434 -3.95191 2.85788 0
M  V30 10369 H 972.439 -2.69691 4.79111 0
M  V30 10370 H 973.664 -3.39605 5.88086 0
M  V30 10371 H 971.61 -4.97013 4.28152 0
M  V30 10372 H 971.527 -4.62735 5.9784 0
M  V30 10373 H 972.795 -5.64954 5.37073 0
M  V30 10374 N 977.024 -1.50153 -0.478725 0
M  V30 10375 C 978.44 -1.3741 -0.811833 0
M  V30 10376 C 978.64 -0.424303 -1.96982 0
M  V30 10377 O 977.696 0.13588 -2.52134 0
M  V30 10378 C 979.009 -2.78616 -1.13108 0
M  V30 10379 C 980.557 -2.87477 -1.23798 0
M  V30 10380 C 981.032 -4.295 -1.5904 0
M  V30 10381 N 982.523 -4.32415 -1.66047 0
M  V30 10382 C 983.258 -5.39295 -1.94805 0
M  V30 10383 N 982.754 -6.56392 -2.21635 0
M  V30 10384 N 984.547 -5.26731 -1.96243 0
M  V30 10385 H 976.698 -2.10486 0.284531 0
M  V30 10386 H 978.961 -0.945786 0.0647585 0
M  V30 10387 H 978.667 -3.49921 -0.35334 0
M  V30 10388 H 978.541 -3.15382 -2.06915 0
M  V30 10389 H 980.928 -2.16396 -2.00641 0
M  V30 10390 H 981.009 -2.54264 -0.279888 0
M  V30 10391 H 980.653 -5.01115 -0.827404 0
M  V30 10392 H 980.583 -4.60194 -2.55987 0
M  V30 10393 H 983.074 -3.47975 -1.47383 0
M  V30 10394 H 983.387 -7.33658 -2.4283 0
M  V30 10395 H 981.732 -6.59579 -2.19043 0
M  V30 10396 H 984.923 -4.34249 -1.74773 0
M  V30 10397 H 985.096 -6.10115 -2.1832 0
M  V30 10398 N 978.502 0.731368 -1.39602 0
M  V30 10399 C 979.432 1.85855 -1.41351 0
M  V30 10400 C 980.413 1.67839 -0.2764 0
M  V30 10401 O 981.598 1.88104 -0.482747 0
M  V30 10402 C 978.728 3.23644 -1.25983 0
M  V30 10403 C 977.682 3.56304 -2.37132 0
M  V30 10404 C 977.008 4.93069 -2.0685 0
M  V30 10405 C 978.308 3.58906 -3.79452 0
M  V30 10406 H 980.002 1.84648 -2.3568 0
M  V30 10407 H 977.548 0.886955 -1.13442 0
M  V30 10408 H 979.501 4.02176 -1.25826 0
M  V30 10409 H 978.225 3.25387 -0.281234 0
M  V30 10410 H 976.884 2.80104 -2.36511 0
M  V30 10411 H 976.532 4.91396 -1.0742 0
M  V30 10412 H 976.232 5.15888 -2.81306 0
M  V30 10413 H 977.756 5.73953 -2.0835 0
M  V30 10414 H 979.17 4.27508 -3.81982 0
M  V30 10415 H 977.567 3.93246 -4.53297 0
M  V30 10416 H 978.637 2.58631 -4.10168 0
M  V30 10417 N 979.98 1.24838 0.961938 0
M  V30 10418 C 980.927 1.04582 2.05745 0
M  V30 10419 C 981.897 -0.0427281 1.66045 0
M  V30 10420 O 983.082 0.113026 1.90465 0
M  V30 10421 C 980.222 0.66284 3.38675 0
M  V30 10422 C 979.335 1.82548 3.91536 0
M  V30 10423 C 978.47 1.38753 5.12758 0
M  V30 10424 C 977.509 2.51976 5.5783 0
M  V30 10425 N 976.646 2.09009 6.70268 0
M  V30 10426 H 981.486 1.98343 2.22405 0
M  V30 10427 H 979.023 0.987822 1.08998 0
M  V30 10428 H 980.981 0.421788 4.15062 0
M  V30 10429 H 979.611 -0.237776 3.21923 0
M  V30 10430 H 978.663 2.18004 3.11735 0
M  V30 10431 H 979.975 2.67601 4.20941 0
M  V30 10432 H 979.129 1.1057 5.96539 0
M  V30 10433 H 977.868 0.507618 4.85051 0
M  V30 10434 H 976.873 2.80912 4.72619 0
M  V30 10435 H 978.098 3.40534 5.87549 0
M  V30 10436 H 976.044 1.23423 6.44285 0
M  V30 10437 H 975.961 2.87613 6.99153 0
M  V30 10438 H 977.229 1.83981 7.57477 0
M  V30 10439 N 981.458 -1.16348 1.06306 0
M  V30 10440 C 982.388 -2.2291 0.695234 0
M  V30 10441 C 983.369 -1.67208 -0.312343 0
M  V30 10442 O 984.554 -1.93293 -0.187442 0
M  V30 10443 C 981.684 -3.47205 0.0810149 0
M  V30 10444 C 980.638 -4.15801 1.01458 0
M  V30 10445 C 979.964 -5.3405 0.263656 0
M  V30 10446 C 981.264 -4.66766 2.34365 0
M  V30 10447 H 982.958 -2.53934 1.58613 0
M  V30 10448 H 980.504 -1.22056 0.76409 0
M  V30 10449 H 982.457 -4.2098 -0.18818 0
M  V30 10450 H 981.181 -3.15482 -0.844897 0
M  V30 10451 H 979.84 -3.43954 1.26852 0
M  V30 10452 H 979.488 -4.9858 -0.665378 0
M  V30 10453 H 979.188 -5.80885 0.88582 0
M  V30 10454 H 980.712 -6.106 0.00200994 0
M  V30 10455 H 982.126 -5.3212 2.13356 0
M  V30 10456 H 980.523 -5.24223 2.9208 0
M  V30 10457 H 981.593 -3.82969 2.97426 0
M  V30 10458 N 982.937 -0.845659 -1.3299 0
M  V30 10459 C 983.847 -0.2864 -2.32845 0
M  V30 10460 C 984.863 0.591105 -1.63652 0
M  V30 10461 O 986.039 0.493615 -1.95257 0
M  V30 10462 C 983.104 0.523636 -3.42723 0
M  V30 10463 C 982.165 -0.378945 -4.27624 0
M  V30 10464 C 981.398 0.392526 -5.32255 0
M  V30 10465 O 981.621 1.6235 -5.46808 0
M  V30 10466 O 980.555 -0.237 -6.01433 0
M  V30 10467 H 984.381 -1.11346 -2.82552 0
M  V30 10468 H 981.966 -0.608356 -1.36453 0
M  V30 10469 H 983.848 0.983718 -4.09757 0
M  V30 10470 H 982.523 1.32764 -2.95221 0
M  V30 10471 H 981.43 -0.887012 -3.63432 0
M  V30 10472 H 982.763 -1.1479 -4.78627 0
M  V30 10473 N 984.415 1.45619 -0.602734 0
M  V30 10474 C 985.663 2.01873 -0.095844 0
M  V30 10475 C 985.984 1.47427 1.27633 0
M  V30 10476 O 985.254 0.666652 1.84208 0
M  V30 10477 H 983.834 0.746295 -0.0324408 0
M  V30 10478 H 986.496 1.78478 -0.783037 0
M  V30 10479 H 985.592 3.12072 -0.0419507 0
M  V30 10480 N 985.893 0.34162 1.53853 0
M  V30 10481 C 986.823 -0.508431 2.27897 0
M  V30 10482 C 987.804 -1.10425 1.29384 0
M  V30 10483 O 988.989 -1.126 1.58224 0
M  V30 10484 C 986.119 -1.66048 3.05034 0
M  V30 10485 C 985.073 -1.19309 4.11035 0
M  V30 10486 C 984.399 -2.4335 4.76114 0
M  V30 10487 C 985.699 -0.294952 5.21467 0
M  V30 10488 H 987.393 0.109251 2.99201 0
M  V30 10489 H 984.939 0.0539847 1.43899 0
M  V30 10490 H 986.892 -2.26158 3.5557 0
M  V30 10491 H 985.616 -2.30503 2.31379 0
M  V30 10492 H 984.275 -0.614809 3.61408 0
M  V30 10493 H 983.923 -3.06208 3.99056 0
M  V30 10494 H 983.623 -2.1276 5.47729 0
M  V30 10495 H 985.147 -3.0419 5.29434 0
M  V30 10496 H 986.561 -0.80285 5.67651 0
M  V30 10497 H 984.958 -0.0810221 6.00045 0
M  V30 10498 H 986.028 0.669433 4.80257 0
M  V30 10499 N 987.371 -1.57444 0.0701946 0
M  V30 10500 C 988.787 -1.57009 -0.286431 0
M  V30 10501 C 988.987 -1.07946 -1.70147 0
M  V30 10502 O 988.043 -0.744622 -2.41271 0
M  V30 10503 C 989.356 -3.00542 -0.0975466 0
M  V30 10504 C 990.904 -3.12553 -0.167205 0
M  V30 10505 C 991.379 -4.58 -0.00662047 0
M  V30 10506 N 992.87 -4.63158 -0.0622778 0
M  V30 10507 C 993.605 -5.73388 0.0375831 0
M  V30 10508 N 993.101 -6.92537 0.190873 0
M  V30 10509 N 994.894 -5.62097 -0.0193672 0
M  V30 10510 H 987.045 -1.87651 0.995023 0
M  V30 10511 H 989.308 -0.865006 0.387902 0
M  V30 10512 H 989.014 -3.40543 0.878822 0
M  V30 10513 H 988.888 -3.67485 -0.850547 0
M  V30 10514 H 991.275 -2.72439 -1.13406 0
M  V30 10515 H 991.356 -2.48251 0.616871 0
M  V30 10516 H 991 -4.98803 0.956992 0
M  V30 10517 H 990.93 -5.20332 -0.810081 0
M  V30 10518 H 993.421 -3.77475 -0.179229 0
M  V30 10519 H 993.734 -7.72365 0.25926 0
M  V30 10520 H 992.079 -6.94632 0.226214 0
M  V30 10521 H 995.27 -4.67897 -0.137815 0
M  V30 10522 H 995.443 -6.4797 0.0619121 0
M  V30 10523 N 988.849 0.203349 -1.56283 0
M  V30 10524 C 990.097 0.923183 -1.79782 0
M  V30 10525 C 990.418 1.84134 -0.64185 0
M  V30 10526 O 989.688 1.92922 0.340292 0
M  V30 10527 H 988.268 0.343881 -0.66314 0
M  V30 10528 H 990.93 0.210837 -1.93756 0
M  V30 10529 H 990.026 1.51921 -2.72629 0
M  V30 10530 N 990.327 1.50405 0.470755 0
M  V30 10531 C 991.552 1.65442 1.25075 0
M  V30 10532 C 991.977 0.337612 1.85045 0
M  V30 10533 O 991.335 -0.698555 1.67302 0
M  V30 10534 C 991.383 2.74793 2.33498 0
M  V30 10535 O 990.487 2.36069 3.3815 0
M  V30 10536 H 989.828 0.552728 0.367951 0
M  V30 10537 H 992.358 1.96782 0.560177 0
M  V30 10538 H 992.368 2.97879 2.78804 0
M  V30 10539 H 991.043 3.70363 1.8922 0
M  V30 10540 H 989.62 2.2343 2.98552 0
M  V30 10541 N 991.805 -0.723954 1.39988 0
M  V30 10542 C 993.03 -1.5182 1.41299 0
M  V30 10543 C 993.455 -1.88096 0.0122636 0
M  V30 10544 O 992.813 -1.52687 -0.977559 0
M  V30 10545 C 992.861 -2.77532 2.30235 0
M  V30 10546 O 991.965 -3.73903 1.73984 0
M  V30 10547 H 991.306 -0.458058 0.480707 0
M  V30 10548 H 993.836 -0.892291 1.84118 0
M  V30 10549 H 993.846 -3.2615 2.45132 0
M  V30 10550 H 992.521 -2.50462 3.32026 0
M  V30 10551 H 991.098 -3.32715 1.68389 0
M  V30 10552 N 993.283 -1.25346 -0.955304 0
M  V30 10553 C 994.529 -1.11226 -1.70295 0
M  V30 10554 C 994.884 0.343362 -1.89311 0
M  V30 10555 O 994.177 1.24953 -1.45249 0
M  V30 10556 C 994.371 -1.7993 -3.08804 0
M  V30 10557 C 994.2 -3.32023 -3.033 0
M  V30 10558 C 992.97 -4.01274 -3.07094 0
M  V30 10559 C 995.168 -4.28431 -2.84519 0
M  V30 10560 N 993.15 -5.40149 -2.91741 0
M  V30 10561 C 994.521 -5.54386 -2.7759 0
M  V30 10562 C 996.576 -4.18854 -2.69194 0
M  V30 10563 C 995.279 -6.71859 -2.56902 0
M  V30 10564 C 997.305 -5.36018 -2.49876 0
M  V30 10565 C 996.667 -6.60913 -2.43667 0
M  V30 10566 H 992.766 -0.461707 -0.631151 0
M  V30 10567 H 995.35 -1.58437 -1.13162 0
M  V30 10568 H 993.521 -1.35214 -3.64104 0
M  V30 10569 H 995.253 -1.58557 -3.72346 0
M  V30 10570 H 992.008 -3.52529 -3.1626 0
M  V30 10571 H 992.432 -6.13029 -2.8727 0
M  V30 10572 H 997.074 -3.23043 -2.7277 0
M  V30 10573 H 994.792 -7.67781 -2.52068 0
M  V30 10574 H 998.378 -5.30468 -2.38944 0
M  V30 10575 H 997.258 -7.50045 -2.28914 0
M  V30 10576 N 994.761 1.15782 -1.06922 0
M  V30 10577 C 995.691 2.22538 -0.707045 0
M  V30 10578 C 996.672 1.67371 0.303471 0
M  V30 10579 O 997.857 1.9339 0.177189 0
M  V30 10580 C 994.987 3.47158 -0.0994269 0
M  V30 10581 C 993.941 4.15257 -1.03661 0
M  V30 10582 C 993.267 5.33902 -0.291974 0
M  V30 10583 C 994.567 4.65516 -2.36837 0
M  V30 10584 H 996.261 2.53089 -1.59958 0
M  V30 10585 H 993.807 1.21649 -0.770552 0
M  V30 10586 H 995.76 4.21073 0.165852 0
M  V30 10587 H 994.484 3.15926 0.828155 0
M  V30 10588 H 993.143 3.43276 -1.28674 0
M  V30 10589 H 992.791 4.98926 0.638928 0
M  V30 10590 H 992.491 5.80407 -0.916613 0
M  V30 10591 H 994.015 6.1059 -0.0343915 0
M  V30 10592 H 995.429 5.30981 -2.16175 0
M  V30 10593 H 993.826 5.22666 -2.94856 0
M  V30 10594 H 994.896 3.81387 -2.99453 0
M  V30 10595 N 996.239 0.8527 1.3254 0
M  V30 10596 C 997.171 0.253181 2.27797 0
M  V30 10597 C 998.184 -0.573977 1.52346 0
M  V30 10598 O 999.373 -0.398786 1.73988 0
M  V30 10599 C 996.473 -0.661034 3.32391 0
M  V30 10600 C 995.646 0.12984 4.37207 0
M  V30 10601 C 994.705 -0.709837 5.2139 0
M  V30 10602 O 993.731 -0.144056 5.69018 0
M  V30 10603 N 994.933 -2.0249 5.44039 0
M  V30 10604 H 997.698 1.07171 2.79883 0
M  V30 10605 H 995.259 0.712491 1.45379 0
M  V30 10606 H 997.251 -1.22806 3.85617 0
M  V30 10607 H 995.821 -1.38025 2.80478 0
M  V30 10608 H 995.041 0.878289 3.84291 0
M  V30 10609 H 996.329 0.673141 5.04328 0
M  V30 10610 H 995.727 -2.50792 5.0707 0
M  V30 10611 H 994.284 -2.5401 6.00269 0
M  V30 10612 N 997.718 -1.45297 0.610449 0
M  V30 10613 C 998.995 -1.95562 0.0386189 0
M  V30 10614 C 999.375 -1.55284 -1.43004 0
M  V30 10615 O 998.723 -0.816785 -2.13403 0
M  V30 10616 C 998.933 -3.48176 0.239731 0
M  V30 10617 C 1000.28 -4.24425 0.122035 0
M  V30 10618 O 1001.3 -3.55794 0.170003 0
M  V30 10619 O 1000.16 -5.46499 0.00953695 0
M  V30 10620 H 997.258 -0.826296 -0.0341081 0
M  V30 10621 H 999.804 -1.55449 0.68071 0
M  V30 10622 H 998.576 -3.70471 1.25963 0
M  V30 10623 H 998.199 -3.95186 -0.437486 0
M  V30 10624 N 999.196 -0.349774 -1.5367 0
M  V30 10625 C 1000.44 0.244343 -2.00617 0
M  V30 10626 C 1000.76 1.50567 -1.23914 0
M  V30 10627 O 1000.03 1.92784 -0.348016 0
M  V30 10628 H 998.615 0.0932792 -0.741153 0
M  V30 10629 H 1001.28 -0.472367 -1.89089 0
M  V30 10630 H 1000.37 0.482433 -3.08349 0
M  V30 10631 N 1000.67 1.57404 -0.0785433 0
M  V30 10632 C 1001.9 1.98492 0.601292 0
M  V30 10633 C 1002.32 0.956832 1.61945 0
M  V30 10634 O 1001.68 -0.0767502 1.81137 0
M  V30 10635 C 1001.73 3.38596 1.24036 0
M  V30 10636 O 1000.83 3.38461 2.35622 0
M  V30 10637 H 1000.17 0.645882 0.154054 0
M  V30 10638 H 1002.7 2.04012 -0.155056 0
M  V30 10639 H 1002.71 3.75929 1.5856 0
M  V30 10640 H 1001.39 4.12952 0.494341 0
M  V30 10641 H 999.967 3.12906 2.02841 0
M  V30 10642 N 1002.15 -0.195058 1.56388 0
M  V30 10643 C 1003.11 -1.2254 1.93692 0
M  V30 10644 C 1004.11 -1.38437 0.81804 0
M  V30 10645 O 1005.3 -1.36248 1.08545 0
M  V30 10646 C 1002.44 -2.59476 2.21099 0
M  V30 10647 H 1003.63 -0.906544 2.8587 0
M  V30 10648 H 1001.18 -0.436577 1.50079 0
M  V30 10649 H 1001.92 -2.96417 1.31558 0
M  V30 10650 H 1001.7 -2.4931 3.02634 0
M  V30 10651 H 1003.19 -3.33777 2.50964 0
M  V30 10652 N 1003.63 -1.50653 -0.462772 0
M  V30 10653 C 1005.05 -1.38263 -0.797213 0
M  V30 10654 C 1005.25 -0.445172 -1.96521 0
M  V30 10655 O 1004.3 0.10913 -2.52264 0
M  V30 10656 C 1005.61 -2.798 -1.10146 0
M  V30 10657 C 1007.16 -2.88774 -1.20742 0
M  V30 10658 C 1007.64 -4.31163 -1.54476 0
M  V30 10659 N 1009.13 -4.34152 -1.61451 0
M  V30 10660 C 1009.86 -5.4133 -1.89074 0
M  V30 10661 N 1009.36 -6.58705 -2.1466 0
M  V30 10662 N 1011.15 -5.28783 -1.90645 0
M  V30 10663 H 1003.3 -2.10172 0.30684 0
M  V30 10664 H 1005.57 -0.945046 0.0747862 0
M  V30 10665 H 1005.27 -3.50276 -0.316207 0
M  V30 10666 H 1005.15 -3.17559 -2.03559 0
M  V30 10667 H 1007.53 -2.18512 -1.98334 0
M  V30 10668 H 1007.61 -2.54547 -0.252904 0
M  V30 10669 H 1007.26 -5.01965 -0.774207 0
M  V30 10670 H 1007.19 -4.62883 -2.51092 0
M  V30 10671 H 1009.68 -3.49519 -1.43684 0
M  V30 10672 H 1009.99 -7.36192 -2.35035 0
M  V30 10673 H 1008.34 -6.61866 -2.12035 0
M  V30 10674 H 1011.53 -4.36078 -1.70158 0
M  V30 10675 H 1011.7 -6.12396 -2.11836 0
M  V30 10676 N 1005.11 0.71652 -1.4037 0
M  V30 10677 C 1006.33 1.51069 -1.42102 0
M  V30 10678 C 1006.76 1.88087 -0.0222387 0
M  V30 10679 O 1006.12 1.53204 0.969448 0
M  V30 10680 C 1006.16 2.76307 -2.31704 0
M  V30 10681 O 1005.27 3.72975 -1.75964 0
M  V30 10682 H 1004.61 0.455502 -0.483129 0
M  V30 10683 H 1007.14 0.882514 -1.84588 0
M  V30 10684 H 1007.15 3.24846 -2.46859 0
M  V30 10685 H 1005.82 2.48698 -3.3335 0
M  V30 10686 H 1004.4 3.31818 -1.70151 0
M  V30 10687 N 1006.59 1.25851 0.948643 0
M  V30 10688 C 1007.81 1.13813 1.73382 0
M  V30 10689 C 1008.24 -0.303615 1.85633 0
M  V30 10690 O 1007.59 -1.21997 1.34114 0
M  V30 10691 C 1007.64 1.80388 3.12238 0
M  V30 10692 O 1006.75 1.08759 3.978 0
M  V30 10693 H 1006.09 0.397006 0.532243 0
M  V30 10694 H 1008.62 1.66529 1.18866 0
M  V30 10695 H 1008.63 1.86913 3.62667 0
M  V30 10696 H 1007.3 2.85278 3.02637 0
M  V30 10697 H 1005.88 1.10157 3.56258 0
M  V30 10698 N 1008.06 -1.15214 1.07534 0
M  V30 10699 C 1009.48 -1.67628 0.822045 0
M  V30 10700 C 1009.83 -1.8503 -0.652571 0
M  V30 10701 O 1008.95 -1.55497 -1.50498 0
M  V30 10702 C 1009.55 -3.04489 1.48566 0
M  V30 10703 C 1008.11 -3.53974 1.27983 0
M  V30 10704 C 1007.25 -2.29656 1.55414 0
M  V30 10705 H 1010.2 -0.994016 1.23713 0
M  V30 10706 H 1010.22 -3.69509 0.907916 0
M  V30 10707 H 1009.74 -2.91792 2.55888 0
M  V30 10708 H 1007.84 -3.71908 0.226906 0
M  V30 10709 H 1007.95 -4.35298 2.0013 0
M  V30 10710 H 1006.31 -2.35289 0.975251 0
M  V30 10711 H 1007.1 -2.19544 2.63923 0
M  V30 10712 N 1009.54 -0.859717 -1.32086 0
M  V30 10713 C 1010.95 -0.519529 -1.79326 0
M  V30 10714 C 1011.3 0.96295 -1.70944 0
M  V30 10715 O 1010.43 1.75139 -1.27104 0
M  V30 10716 C 1011.02 -0.936267 -3.25606 0
M  V30 10717 C 1009.58 -0.647899 -3.70782 0
M  V30 10718 C 1008.73 -1.13323 -2.53087 0
M  V30 10719 H 1011.68 -1.04643 -1.19312 0
M  V30 10720 H 1011.7 -0.254714 -3.79646 0
M  V30 10721 H 1011.21 -2.01527 -3.31675 0
M  V30 10722 H 1009.32 0.420172 -3.70223 0
M  V30 10723 H 1009.43 -1.21774 -4.63366 0
M  V30 10724 H 1007.79 -0.553325 -2.48617 0
M  V30 10725 H 1008.58 -2.21945 -2.61907 0
M  V30 10726 N 1011.02 1.44971 -0.618145 0
M  V30 10727 C 1011.95 2.33357 0.0815955 0
M  V30 10728 C 1012.93 1.47451 0.848072 0
M  V30 10729 O 1014.12 1.762 0.816532 0
M  V30 10730 C 1011.25 3.30324 1.07253 0
M  V30 10731 C 1010.2 4.25948 0.418563 0
M  V30 10732 C 1009.53 5.12685 1.51849 0
M  V30 10733 C 1010.83 5.18024 -0.66697 0
M  V30 10734 H 1012.52 2.92115 -0.656442 0
M  V30 10735 H 1010.07 1.40465 -0.317129 0
M  V30 10736 H 1012.02 3.91033 1.57069 0
M  V30 10737 H 1010.74 2.69748 1.8413 0
M  V30 10738 H 1009.4 3.66553 -0.0588308 0
M  V30 10739 H 1009.05 4.4847 2.2778 0
M  V30 10740 H 1008.75 5.7747 1.08637 0
M  V30 10741 H 1010.27 5.76264 2.01871 0
M  V30 10742 H 1011.69 5.72744 -0.252448 0
M  V30 10743 H 1010.09 5.91343 -1.02146 0
M  V30 10744 H 1011.16 4.59817 -1.53936 0
M  V30 10745 N 1012.5 0.357919 1.53482 0
M  V30 10746 C 1013.91 0.00655107 1.59599 0
M  V30 10747 C 1014.11 -1.47449 1.37336 0
M  V30 10748 O 1013.17 -2.2351 1.17472 0
M  V30 10749 C 1014.48 0.455617 2.97228 0
M  V30 10750 C 1016.03 0.409183 3.10314 0
M  V30 10751 C 1016.51 0.833941 4.50344 0
M  V30 10752 N 1018 0.788695 4.56436 0
M  V30 10753 C 1018.73 1.08914 5.62961 0
M  V30 10754 N 1018.23 1.45847 6.77274 0
M  V30 10755 N 1020.02 1.01243 5.52907 0
M  V30 10756 H 1012.17 1.32248 1.66206 0
M  V30 10757 H 1014.44 0.540047 0.779136 0
M  V30 10758 H 1014.14 1.48881 3.18634 0
M  V30 10759 H 1014.02 -0.161751 3.76853 0
M  V30 10760 H 1016.4 -0.614863 2.88623 0
M  V30 10761 H 1016.48 1.06195 2.32715 0
M  V30 10762 H 1016.13 1.85607 4.72771 0
M  V30 10763 H 1016.06 0.158507 5.26361 0
M  V30 10764 H 1018.55 0.516497 3.74354 0
M  V30 10765 H 1018.86 1.67218 7.54492 0
M  V30 10766 H 1017.21 1.49705 6.78685 0
M  V30 10767 H 1020.4 0.723137 4.62481 0
M  V30 10768 H 1020.57 1.24991 6.35831 0
M  V30 10769 N 1013.98 -1.5736 0.0868897 0
M  V30 10770 C 1015.2 -1.98388 -0.587349 0
M  V30 10771 C 1015.62 -0.965757 -1.6223 0
M  V30 10772 O 1014.98 0.0456981 -1.82443 0
M  V30 10773 C 1015.03 -3.39479 -1.24242 0
M  V30 10774 O 1014.75 -4.37393 -0.248878 0
M  V30 10775 C 1016.25 -3.95465 -2.00305 0
M  V30 10776 H 1013.47 -0.652111 -0.15809 0
M  V30 10777 H 1016.01 -2.03843 0.163754 0
M  V30 10778 H 1014.17 -3.35063 -1.94451 0
M  V30 10779 H 1014.58 -5.19525 -0.720678 0
M  V30 10780 H 1016.06 -4.96363 -2.41511 0
M  V30 10781 H 1016.53 -3.32832 -2.86565 0
M  V30 10782 H 1017.14 -4.03328 -1.34931 0
M  V30 10783 N 1015.45 0.186762 -1.56489 0
M  V30 10784 C 1016.87 0.750675 -1.70944 0
M  V30 10785 C 1017.22 1.83483 -0.694858 0
M  V30 10786 O 1016.34 2.159 0.147009 0
M  V30 10787 C 1016.94 1.36843 -3.09934 0
M  V30 10788 C 1015.5 1.87934 -3.26125 0
M  V30 10789 C 1014.64 0.75242 -2.66897 0
M  V30 10790 H 1017.59 -0.0384292 -1.58653 0
M  V30 10791 H 1017.61 2.23795 -3.07727 0
M  V30 10792 H 1017.13 0.579135 -3.83755 0
M  V30 10793 H 1015.23 2.69556 -2.57235 0
M  V30 10794 H 1015.34 2.0354 -4.33715 0
M  V30 10795 H 1013.7 1.16888 -2.26295 0
M  V30 10796 H 1014.49 -0.0247769 -3.43291 0
M  V30 10797 N 1016.93 1.50896 0.454776 0
M  V30 10798 C 1018.21 1.53227 1.21576 0
M  V30 10799 C 1018.59 0.286358 2.09149 0
M  V30 10800 O 1017.94 -0.729469 2.16543 0
M  V30 10801 C 1018.15 2.83693 2.03271 0
M  V30 10802 C 1019.5 3.34981 2.60908 0
M  V30 10803 O 1020.52 2.85126 2.13499 0
M  V30 10804 O 1019.38 4.21929 3.4733 0
M  V30 10805 H 1016.47 0.615306 0.552564 0
M  V30 10806 H 1019.02 1.63197 0.465266 0
M  V30 10807 H 1017.79 3.65839 1.38843 0
M  V30 10808 H 1017.41 2.76803 2.85422 0
M  V30 10809 N 1018.41 -0.709066 1.40748 0
M  V30 10810 C 1019.66 -1.47119 1.39585 0
M  V30 10811 C 1019.99 -1.942 0.000245323 0
M  V30 10812 O 1019.26 -1.68609 -0.969593 0
M  V30 10813 C 1019.55 -2.69266 2.39099 0
M  V30 10814 C 1019.4 -2.28037 3.8771 0
M  V30 10815 C 1020.72 -3.71438 2.36055 0
M  V30 10816 H 1017.84 -0.533632 0.508336 0
M  V30 10817 H 1020.48 -0.808718 1.7193 0
M  V30 10818 H 1018.63 -3.25788 2.11647 0
M  V30 10819 H 1020.3 -1.76946 4.26014 0
M  V30 10820 H 1018.55 -1.59966 4.03229 0
M  V30 10821 H 1019.22 -3.15621 4.52866 0
M  V30 10822 H 1021.69 -3.24559 2.60385 0
M  V30 10823 H 1020.57 -4.54532 3.07721 0
M  V30 10824 H 1020.83 -4.20193 1.37443 0
M  V30 10825 N 1019.89 -1.26353 -0.941956 0
M  V30 10826 C 1020.82 -1.10341 -2.05784 0
M  V30 10827 C 1021.8 -0.00881565 -1.70098 0
M  V30 10828 O 1022.99 -0.180699 -1.93357 0
M  V30 10829 C 1020.12 -0.734788 -3.39438 0
M  V30 10830 C 1019.07 -1.78103 -3.89183 0
M  V30 10831 C 1018.4 -1.26675 -5.19478 0
M  V30 10832 C 1019.7 -3.1824 -4.14151 0
M  V30 10833 H 1021.39 -2.03684 -2.19438 0
M  V30 10834 H 1018.94 -0.980698 -1.05443 0
M  V30 10835 H 1020.89 -0.609653 -4.16967 0
M  V30 10836 H 1019.61 0.234354 -3.25758 0
M  V30 10837 H 1018.27 -1.89482 -3.13835 0
M  V30 10838 H 1017.92 -0.287472 -5.02178 0
M  V30 10839 H 1017.62 -1.96612 -5.53731 0
M  V30 10840 H 1019.14 -1.15427 -5.99591 0
M  V30 10841 H 1020.56 -3.09942 -4.82296 0
M  V30 10842 H 1018.95 -3.8576 -4.59684 0
M  V30 10843 H 1020.02 -3.64354 -3.19959 0
M  V30 10844 N 1021.37 1.14642 -1.08144 0
M  V30 10845 C 1022.28 2.23257 -0.720668 0
M  V30 10846 C 1023.29 1.71866 0.271648 0
M  V30 10847 O 1024.47 2.01064 0.116266 0
M  V30 10848 C 1021.53 3.46447 -0.132542 0
M  V30 10849 C 1020.6 4.12789 -1.17913 0
M  V30 10850 C 1019.83 5.30099 -0.618971 0
M  V30 10851 O 1020.05 5.6762 0.562418 0
M  V30 10852 O 1018.99 5.86154 -1.36774 0
M  V30 10853 H 1022.81 2.56463 -1.62667 0
M  V30 10854 H 1020.4 1.22521 -0.854932 0
M  V30 10855 H 1022.28 4.20959 0.19277 0
M  V30 10856 H 1020.95 3.14971 0.746662 0
M  V30 10857 H 1019.86 3.40163 -1.55693 0
M  V30 10858 H 1021.19 4.48365 -2.03051 0
M  V30 10859 N 1022.85 0.866709 1.31628 0
M  V30 10860 C 1024.07 0.48956 2.01539 0
M  V30 10861 C 1024.5 -0.909556 1.64647 0
M  V30 10862 O 1023.85 -1.59959 0.853391 0
M  V30 10863 C 1023.9 0.650176 3.5469 0
M  V30 10864 O 1023.01 -0.311908 4.11219 0
M  V30 10865 H 1022.35 0.195144 0.634677 0
M  V30 10866 H 1024.88 1.16923 1.679 0
M  V30 10867 H 1024.89 0.542236 4.04381 0
M  V30 10868 H 1023.56 1.67038 3.80882 0
M  V30 10869 H 1022.14 -0.159197 3.7256 0
M  V30 10870 N 1024.32 -1.44642 0.625825 0
M  V30 10871 C 1025.55 -2.06971 0.133373 0
M  V30 10872 C 1025.97 -1.46421 -1.18078 0
M  V30 10873 O 1025.33 -0.563676 -1.72315 0
M  V30 10874 C 1025.38 -3.6059 0.0265097 0
M  V30 10875 O 1024.48 -3.99615 -1.01889 0
M  V30 10876 H 1023.82 -0.658873 0.0823568 0
M  V30 10877 H 1026.35 -1.85601 0.861002 0
M  V30 10878 H 1026.36 -4.07663 -0.1658 0
M  V30 10879 H 1025.04 -4.04043 0.985986 0
M  V30 10880 H 1023.62 -3.64183 -0.801577 0
M  V30 10881 N 1025.8 -0.366053 -1.5329 0
M  V30 10882 C 1027.05 0.223051 -2.00865 0
M  V30 10883 C 1027.37 1.49244 -1.25504 0
M  V30 10884 O 1026.64 1.92404 -0.368444 0
M  V30 10885 H 1025.22 0.085413 -0.742101 0
M  V30 10886 H 1027.88 -0.492396 -1.88578 0
M  V30 10887 H 1026.98 0.449701 -3.08843 0
M  V30 10888 N 1027.28 1.57312 -0.0952337 0
M  V30 10889 C 1028.69 1.81589 0.433875 0
M  V30 10890 C 1029.04 1.01086 1.68155 0
M  V30 10891 O 1028.17 0.240272 2.15062 0
M  V30 10892 C 1028.76 3.29366 0.793931 0
M  V30 10893 C 1027.32 3.54407 1.26778 0
M  V30 10894 C 1026.47 2.76035 0.264518 0
M  V30 10895 H 1029.42 1.55426 -0.320675 0
M  V30 10896 H 1029.44 3.42697 1.65345 0
M  V30 10897 H 1028.95 3.87932 -0.114334 0
M  V30 10898 H 1027.05 3.01173 2.19376 0
M  V30 10899 H 1027.17 4.63055 1.22952 0
M  V30 10900 H 1025.53 2.43509 0.746691 0
M  V30 10901 H 1026.31 3.37349 -0.636429 0
M  V30 10902 N 1028.76 -0.17846 1.56586 0
M  V30 10903 C 1029.72 -1.20479 1.94981 0
M  V30 10904 C 1030.72 -1.37561 0.832677 0
M  V30 10905 O 1031.91 -1.35089 1.09984 0
M  V30 10906 C 1029.04 -2.57117 2.23839 0
M  V30 10907 H 1030.24 -0.876173 2.86816 0
M  V30 10908 H 1027.79 -0.420635 1.50534 0
M  V30 10909 H 1028.52 -2.95005 1.34695 0
M  V30 10910 H 1028.31 -2.46086 3.05261 0
M  V30 10911 H 1029.8 -3.31096 2.5449 0
M  V30 10912 N 1030.24 -1.51135 -0.446768 0
M  V30 10913 C 1031.48 -1.63578 -1.19875 0
M  V30 10914 C 1031.81 -0.346478 -1.91084 0
M  V30 10915 O 1031.09 0.653447 -1.83195 0
M  V30 10916 C 1031.37 -2.83275 -2.22323 0
M  V30 10917 C 1031.23 -4.22155 -1.55259 0
M  V30 10918 C 1032.54 -2.98496 -3.23401 0
M  V30 10919 H 1029.66 -0.595333 -0.434452 0
M  V30 10920 H 1032.31 -1.83593 -0.48923 0
M  V30 10921 H 1030.46 -2.6634 -2.82834 0
M  V30 10922 H 1032.13 -4.50736 -0.981571 0
M  V30 10923 H 1030.37 -4.25288 -0.855122 0
M  V30 10924 H 1031.04 -5.01882 -2.29823 0
M  V30 10925 H 1033.52 -3.14079 -2.72935 0
M  V30 10926 H 1032.39 -3.83828 -3.92386 0
M  V30 10927 H 1032.65 -2.10157 -3.88956 0
M  V30 10928 N 1031.71 0.701592 -1.41122 0
M  V30 10929 C 1033.13 1.01143 -1.23459 0
M  V30 10930 C 1033.33 2.01144 -0.11968 0
M  V30 10931 O 1032.39 2.47132 0.517889 0
M  V30 10932 C 1033.7 1.54179 -2.58165 0
M  V30 10933 C 1035.25 1.66093 -2.65296 0
M  V30 10934 C 1035.72 2.22532 -4.00304 0
M  V30 10935 N 1037.21 2.299 -4.0212 0
M  V30 10936 C 1037.95 2.74584 -5.0338 0
M  V30 10937 N 1037.44 3.18917 -6.15032 0
M  V30 10938 N 1039.24 2.74094 -4.90743 0
M  V30 10939 H 1031.39 0.0390087 -2.12364 0
M  V30 10940 H 1033.65 0.0798848 -0.944628 0
M  V30 10941 H 1033.36 0.881587 -3.40472 0
M  V30 10942 H 1033.23 2.52488 -2.80231 0
M  V30 10943 H 1035.62 2.31227 -1.83352 0
M  V30 10944 H 1035.7 0.663461 -2.47046 0
M  V30 10945 H 1035.34 1.58016 -4.82694 0
M  V30 10946 H 1035.27 3.2302 -4.15891 0
M  V30 10947 H 1037.76 1.98607 -3.21502 0
M  V30 10948 H 1038.08 3.5162 -6.88174 0
M  V30 10949 H 1036.42 3.1684 -6.18577 0
M  V30 10950 H 1039.61 2.38804 -4.02604 0
M  V30 10951 H 1039.79 3.086 -5.69798 0
M  V30 10952 N 1033.19 1.2685 0.935242 0
M  V30 10953 C 1034.42 1.15645 1.72165 0
M  V30 10954 C 1034.84 -0.283909 1.85945 0
M  V30 10955 O 1034.2 -1.20567 1.354 0
M  V30 10956 C 1034.25 1.83689 3.10307 0
M  V30 10957 O 1033.35 1.12972 3.96625 0
M  V30 10958 H 1032.69 0.402629 0.528002 0
M  V30 10959 H 1035.22 1.67781 1.17093 0
M  V30 10960 H 1035.23 1.90749 3.60664 0
M  V30 10961 H 1033.91 2.88472 2.99595 0
M  V30 10962 H 1032.48 1.13929 3.5507 0
M  V30 10963 N 1034.67 -1.14067 1.0875 0
M  V30 10964 C 1035.92 -1.84819 0.817698 0
M  V30 10965 C 1036.24 -1.83545 -0.658488 0
M  V30 10966 O 1035.51 -1.28633 -1.47751 0
M  V30 10967 H 1034.09 -0.68433 0.299502 0
M  V30 10968 H 1036.75 -1.38208 1.37421 0
M  V30 10969 H 1035.85 -2.89541 1.16501 0
M  V30 10970 N 1036.15 -0.873678 -1.31166 0
M  V30 10971 C 1037.08 -0.348011 -2.30892 0
M  V30 10972 C 1038.06 0.563092 -1.60509 0
M  V30 10973 O 1039.24 0.479332 -1.88192 0
M  V30 10974 C 1036.37 0.448158 -3.44396 0
M  V30 10975 C 1035.33 -0.370179 -4.26396 0
M  V30 10976 C 1034.65 0.551903 -5.31844 0
M  V30 10977 C 1035.95 -1.60624 -4.96988 0
M  V30 10978 H 1037.65 -1.18134 -2.75109 0
M  V30 10979 H 1035.19 -0.569502 -1.3226 0
M  V30 10980 H 1037.15 0.826458 -4.13216 0
M  V30 10981 H 1035.87 1.31503 -2.98956 0
M  V30 10982 H 1034.53 -0.730472 -3.59249 0
M  V30 10983 H 1034.18 1.41616 -4.82653 0
M  V30 10984 H 1033.88 0.00823478 -5.87599 0
M  V30 10985 H 1035.4 0.926965 -6.03523 0
M  V30 10986 H 1036.82 -1.29917 -5.58386 0
M  V30 10987 H 1035.21 -2.08926 -5.62557 0
M  V30 10988 H 1036.28 -2.357 -4.23761 0
M  V30 10989 N 1037.63 1.44308 -0.633487 0
M  V30 10990 C 1038.57 2.32455 0.0821956 0
M  V30 10991 C 1039.57 1.47482 0.833388 0
M  V30 10992 O 1040.77 1.63812 0.746021 0
M  V30 10993 H 1037.15 0.750631 0.045352 0
M  V30 10994 H 1039.12 2.90566 -0.679282 0
M  V30 10995 C 1037.87 3.31512 1.04858 0
M  V30 10996 H 1037.19 3.96908 0.479979 0
M  V30 10997 H 1038.63 3.95865 1.51879 0
M  V30 10998 C 1037.09 2.60615 2.13498 0
M  V30 10999 O 1037.62 2.40682 3.21613 0
M  V30 11000 N 1035.83 2.20315 1.89499 0
M  V30 11001 H 1035.37 2.36726 1.01581 0
M  V30 11002 H 1035.33 1.73205 2.62388 0
M  V30 11003 N 1039.1 0.374177 1.53094 0
M  V30 11004 C 1040.07 -0.455999 2.24618 0
M  V30 11005 C 1041.07 -1.00269 1.25709 0
M  V30 11006 O 1042.26 -0.887077 1.49922 0
M  V30 11007 C 1039.39 -1.63822 2.98957 0
M  V30 11008 H 1040.58 0.169986 2.99418 0
M  V30 11009 H 1038.14 0.126015 1.55791 0
M  V30 11010 H 1038.87 -2.30205 2.28421 0
M  V30 11011 H 1038.66 -1.25308 3.71538 0
M  V30 11012 H 1040.15 -2.22633 3.53305 0
M  V30 11013 N 1040.58 -1.57259 0.103575 0
M  V30 11014 C 1041.81 -1.99 -0.566275 0
M  V30 11015 C 1042.23 -0.982909 -1.61197 0
M  V30 11016 O 1041.58 0.026345 -1.82481 0
M  V30 11017 C 1041.63 -3.40778 -1.20635 0
M  V30 11018 O 1041.35 -4.37632 -0.202472 0
M  V30 11019 C 1042.86 -3.97567 -1.961 0
M  V30 11020 H 1040.08 -0.653751 -0.151164 0
M  V30 11021 H 1042.62 -2.03658 0.185365 0
M  V30 11022 H 1040.77 -3.37107 -1.90886 0
M  V30 11023 H 1041.19 -5.2026 -0.665535 0
M  V30 11024 H 1042.66 -4.98897 -2.36233 0
M  V30 11025 H 1043.14 -3.35853 -2.83018 0
M  V30 11026 H 1043.75 -4.04737 -1.30645 0
M  V30 11027 N 1042.06 0.170153 -1.56679 0
M  V30 11028 C 1043.31 0.886592 -1.8206 0
M  V30 11029 C 1043.64 1.82194 -0.680839 0
M  V30 11030 O 1042.89 1.92866 0.331822 0
M  V30 11031 C 1043.19 1.71402 -3.13618 0
M  V30 11032 C 1042.86 0.927489 -4.41258 0
M  V30 11033 C 1041.52 0.710417 -4.75927 0
M  V30 11034 C 1043.87 0.375855 -5.19843 0
M  V30 11035 C 1041.2 -0.0693691 -5.86659 0
M  V30 11036 C 1043.55 -0.390849 -6.31391 0
M  V30 11037 C 1042.21 -0.61871 -6.64626 0
M  V30 11038 H 1041.48 0.324427 -0.666204 0
M  V30 11039 H 1044.13 0.151464 -1.909 0
M  V30 11040 H 1042.44 2.51858 -3.00125 0
M  V30 11041 H 1044.13 2.27141 -3.30466 0
M  V30 11042 H 1040.72 1.10672 -4.14065 0
M  V30 11043 H 1044.91 0.530897 -4.93452 0
M  V30 11044 H 1040.16 -0.255637 -6.10865 0
M  V30 11045 H 1044.34 -0.825544 -6.9149 0
M  V30 11046 H 1041.96 -1.22482 -7.50268 0
M  V30 11047 N 1043.54 1.5137 0.438746 0
M  V30 11048 C 1044.47 1.67264 1.55236 0
M  V30 11049 C 1045.45 0.520238 1.54053 0
M  V30 11050 O 1046.63 0.743897 1.73201 0
M  V30 11051 C 1043.76 1.68492 2.93816 0
M  V30 11052 C 1042.81 2.8968 3.1303 0
M  V30 11053 S 1043.64 4.50514 2.89478 0
M  V30 11054 C 1044.8 4.54485 4.30342 0
M  V30 11055 H 1045.03 2.61456 1.4152 0
M  V30 11056 H 1042.56 1.41036 0.628341 0
M  V30 11057 H 1044.52 1.69884 3.73697 0
M  V30 11058 H 1043.18 0.754787 3.04896 0
M  V30 11059 H 1042.37 2.86936 4.14347 0
M  V30 11060 H 1041.98 2.86022 2.40972 0
M  V30 11061 H 1044.27 4.30039 5.2352 0
M  V30 11062 H 1045.21 5.56288 4.3812 0
M  V30 11063 H 1045.62 3.83824 4.13931 0
M  V30 11064 N 1045.02 -0.694098 1.41492 0
M  V30 11065 C 1045.98 -1.78976 1.43179 0
M  V30 11066 C 1046.98 -1.57539 0.322191 0
M  V30 11067 O 1048.17 -1.64185 0.582138 0
M  V30 11068 C 1045.3 -3.17368 1.2446 0
M  V30 11069 H 1046.49 -1.78874 2.40716 0
M  V30 11070 H 1044.05 -0.901867 1.27656 0
M  V30 11071 H 1044.78 -3.23109 0.277691 0
M  V30 11072 H 1044.57 -3.3433 2.04856 0
M  V30 11073 H 1046.06 -3.97345 1.28479 0
M  V30 11074 N 1046.49 -1.27344 -0.928501 0
M  V30 11075 C 1047.74 -1.13635 -1.6761 0
M  V30 11076 C 1048.07 0.317957 -1.91884 0
M  V30 11077 O 1047.32 1.24904 -1.50657 0
M  V30 11078 C 1047.62 -1.86439 -3.04918 0
M  V30 11079 C 1047.29 -3.36298 -3.00358 0
M  V30 11080 C 1045.95 -3.77173 -2.98821 0
M  V30 11081 C 1048.3 -4.31921 -2.91708 0
M  V30 11082 C 1045.63 -5.12037 -2.86417 0
M  V30 11083 C 1047.98 -5.66841 -2.80846 0
M  V30 11084 C 1046.65 -6.07011 -2.77659 0
M  V30 11085 H 1045.92 -0.415821 -0.61333 0
M  V30 11086 H 1048.56 -1.57943 -1.08288 0
M  V30 11087 H 1046.87 -1.34638 -3.6794 0
M  V30 11088 H 1048.57 -1.73261 -3.61637 0
M  V30 11089 H 1045.16 -3.0379 -3.0234 0
M  V30 11090 H 1049.34 -4.01314 -2.91994 0
M  V30 11091 H 1044.6 -5.42307 -2.82336 0
M  V30 11092 H 1048.77 -6.40608 -2.73119 0
M  V30 11093 H 1046.4 -7.11467 -2.67804 0
M  V30 11094 N 1047.97 1.13488 -1.09353 0
M  V30 11095 C 1048.92 2.20949 -0.726923 0
M  V30 11096 C 1049.91 1.67205 0.271816 0
M  V30 11097 O 1051.12 1.79505 0.133356 0
M  V30 11098 H 1047.5 0.719985 -0.217086 0
M  V30 11099 H 1049.47 2.49134 -1.6424 0
M  V30 11100 C 1048.22 3.47319 -0.162822 0
M  V30 11101 H 1047.54 3.89011 -0.922527 0
M  V30 11102 H 1048.98 4.23963 0.0557734 0
M  V30 11103 C 1047.44 3.18376 1.10175 0
M  V30 11104 O 1047.97 3.3707 2.18511 0
M  V30 11105 N 1046.17 2.72262 1.01597 0
M  V30 11106 H 1045.72 2.5725 0.134289 0
M  V30 11107 H 1045.68 2.53272 1.86281 0
M  V30 11108 N 1049.45 0.880621 1.30701 0
M  V30 11109 C 1050.87 0.574015 1.4892 0
M  V30 11110 C 1051.07 -0.889312 1.80813 0
M  V30 11111 O 1050.12 -1.67082 1.89314 0
M  V30 11112 C 1051.44 1.48341 2.61563 0
M  V30 11113 C 1052.98 1.48658 2.75445 0
M  V30 11114 C 1053.46 2.3818 3.91196 0
M  V30 11115 N 1054.95 2.36119 3.985 0
M  V30 11116 C 1055.69 3.02101 4.87363 0
M  V30 11117 N 1055.18 3.77293 5.81052 0
M  V30 11118 N 1056.97 2.91356 4.80696 0
M  V30 11119 H 1049.13 1.82732 1.08271 0
M  V30 11120 H 1051.39 0.781939 0.535981 0
M  V30 11121 H 1051.09 2.52515 2.44804 0
M  V30 11122 H 1050.97 1.18977 3.57944 0
M  V30 11123 H 1053.36 0.452374 2.91612 0
M  V30 11124 H 1053.44 1.8205 1.79698 0
M  V30 11125 H 1053.08 3.41683 3.75786 0
M  V30 11126 H 1053.01 2.02106 4.86272 0
M  V30 11127 H 1055.5 1.81474 3.31475 0
M  V30 11128 H 1055.81 4.24742 6.45612 0
M  V30 11129 H 1054.16 3.81401 5.80998 0
M  V30 11130 H 1057.35 2.32143 4.06481 0
M  V30 11131 H 1057.52 3.43056 5.49742 0
M  V30 11132 N 1050.93 -1.4397 0.641131 0
M  V30 11133 C 1052.18 -2.01548 0.149333 0
M  V30 11134 C 1052.5 -1.50759 -1.23679 0
M  V30 11135 O 1051.77 -0.715257 -1.82376 0
M  V30 11136 H 1050.35 -0.745173 0.0522161 0
M  V30 11137 H 1053.01 -1.7634 0.830082 0
M  V30 11138 H 1052.11 -3.11851 0.124676 0
M  V30 11139 N 1052.41 -0.382291 -1.52893 0
M  V30 11140 C 1053.35 0.456234 -2.26246 0
M  V30 11141 C 1054.32 1.06366 -1.27575 0
M  V30 11142 O 1055.51 1.09301 -1.5639 0
M  V30 11143 C 1052.65 1.5813 -3.06739 0
M  V30 11144 C 1051.76 0.997416 -4.20328 0
M  V30 11145 C 1050.9 2.09296 -4.8823 0
M  V30 11146 C 1049.94 1.4846 -5.93823 0
M  V30 11147 N 1049.07 2.51916 -6.55349 0
M  V30 11148 H 1053.91 -0.175761 -2.97481 0
M  V30 11149 H 1051.45 -0.0985046 -1.4677 0
M  V30 11150 H 1053.41 2.24426 -3.51694 0
M  V30 11151 H 1052.04 2.18371 -2.37727 0
M  V30 11152 H 1051.09 0.224251 -3.79738 0
M  V30 11153 H 1052.4 0.512784 -4.96157 0
M  V30 11154 H 1051.56 2.83377 -5.36453 0
M  V30 11155 H 1050.3 2.61116 -4.1191 0
M  V30 11156 H 1049.3 0.729001 -5.44946 0
M  V30 11157 H 1050.53 0.97443 -6.72073 0
M  V30 11158 H 1048.47 3.02919 -5.81873 0
M  V30 11159 H 1048.39 2.08188 -7.26769 0
M  V30 11160 H 1049.66 3.25649 -7.08218 0
M  V30 11161 N 1053.89 1.57202 -0.111913 0
M  V30 11162 C 1055.3 1.57713 0.244702 0
M  V30 11163 C 1055.5 1.12419 1.67225 0
M  V30 11164 O 1054.56 0.808329 2.39212 0
M  V30 11165 C 1055.87 3.00695 0.0178289 0
M  V30 11166 C 1057.42 3.12887 0.0842781 0
M  V30 11167 C 1057.89 4.57856 -0.114812 0
M  V30 11168 N 1059.38 4.6316 -0.0605423 0
M  V30 11169 C 1060.12 5.73086 -0.189594 0
M  V30 11170 N 1059.62 6.91787 -0.37442 0
M  V30 11171 N 1061.41 5.6195 -0.12967 0
M  V30 11172 H 1053.56 1.84947 -1.04443 0
M  V30 11173 H 1055.82 0.854418 -0.4107 0
M  V30 11174 H 1055.53 3.38093 -0.968802 0
M  V30 11175 H 1055.4 3.69611 0.752815 0
M  V30 11176 H 1057.79 2.7535 1.06143 0
M  V30 11177 H 1057.87 2.46528 -0.682474 0
M  V30 11178 H 1057.51 4.9609 -1.0889 0
M  V30 11179 H 1057.44 5.22297 0.671839 0
M  V30 11180 H 1059.94 3.77817 0.0790856 0
M  V30 11181 H 1060.25 7.71406 -0.463948 0
M  V30 11182 H 1058.59 6.93788 -0.410303 0
M  V30 11183 H 1061.78 4.68098 0.0137115 0
M  V30 11184 H 1061.96 6.47578 -0.233688 0
M  V30 11185 N 1055.36 -0.161842 1.56767 0
M  V30 11186 C 1056.27 -1.21996 2.00385 0
M  V30 11187 C 1057.29 -1.4789 0.916768 0
M  V30 11188 O 1058.47 -1.59852 1.22513 0
M  V30 11189 C 1055.53 -2.53695 2.36305 0
M  V30 11190 C 1054.59 -2.3558 3.58888 0
M  V30 11191 C 1053.82 -3.60998 3.93085 0
M  V30 11192 O 1054.05 -4.6657 3.28129 0
M  V30 11193 O 1052.98 -3.54544 4.86397 0
M  V30 11194 H 1056.81 -0.879701 2.9068 0
M  V30 11195 H 1054.39 -0.369437 1.4476 0
M  V30 11196 H 1056.27 -3.31366 2.60335 0
M  V30 11197 H 1054.95 -2.87281 1.49169 0
M  V30 11198 H 1053.86 -1.55908 3.40064 0
M  V30 11199 H 1055.19 -2.06915 4.46595 0
M  V30 11200 N 1056.84 -1.516 -0.430713 0
M  V30 11201 C 1058.09 -1.64271 -1.17726 0
M  V30 11202 C 1058.41 -0.364406 -1.91565 0
M  V30 11203 O 1057.68 0.619991 -1.8583 0
M  V30 11204 H 1056.26 -0.605432 -0.437562 0
M  V30 11205 H 1058.92 -1.88557 -0.493166 0
M  V30 11206 H 1058.02 -2.47355 -1.90321 0
M  V30 11207 N 1058.32 0.686584 -1.41858 0
M  V30 11208 C 1059.57 1.44665 -1.41698 0
M  V30 11209 C 1059.89 1.94478 -0.0292442 0
M  V30 11210 O 1059.15 1.70512 0.960421 0
M  V30 11211 C 1059.45 2.66793 -2.37816 0
M  V30 11212 C 1059.11 2.35587 -3.8446 0
M  V30 11213 C 1057.78 2.26788 -4.24406 0
M  V30 11214 C 1060.13 2.10028 -4.77009 0
M  V30 11215 C 1057.46 1.90538 -5.54898 0
M  V30 11216 C 1059.81 1.75285 -6.07831 0
M  V30 11217 C 1058.47 1.64987 -6.46789 0
M  V30 11218 H 1057.74 0.529367 -0.518509 0
M  V30 11219 H 1060.39 0.783938 -1.74719 0
M  V30 11220 H 1058.69 3.38041 -1.9808 0
M  V30 11221 H 1060.39 3.24953 -2.34961 0
M  V30 11222 H 1056.98 2.43334 -3.52826 0
M  V30 11223 H 1061.17 2.15766 -4.46944 0
M  V30 11224 H 1056.42 1.81125 -5.83955 0
M  V30 11225 H 1060.6 1.5453 -6.79039 0
M  V30 11226 H 1058.22 1.36667 -7.47814 0
M  V30 11227 N 1059.8 1.27835 0.921735 0
M  V30 11228 C 1061.04 1.14523 1.67005 0
M  V30 11229 C 1061.37 -0.307776 1.92049 0
M  V30 11230 O 1060.63 -1.24103 1.51317 0
M  V30 11231 C 1060.93 1.88054 3.03925 0
M  V30 11232 C 1060.59 3.37886 2.9857 0
M  V30 11233 C 1059.25 3.78752 2.96817 0
M  V30 11234 C 1061.61 4.33462 2.89414 0
M  V30 11235 C 1058.93 5.13549 2.83698 0
M  V30 11236 C 1061.29 5.68322 2.77836 0
M  V30 11237 C 1059.95 6.08475 2.74436 0
M  V30 11238 H 1059.22 0.419068 0.611116 0
M  V30 11239 H 1061.87 1.58515 1.07449 0
M  V30 11240 H 1060.17 1.36587 3.67221 0
M  V30 11241 H 1061.87 1.75176 3.60714 0
M  V30 11242 H 1058.46 3.05389 3.00725 0
M  V30 11243 H 1062.64 4.02857 2.89862 0
M  V30 11244 H 1057.9 5.43796 2.79456 0
M  V30 11245 H 1062.07 6.42048 2.69717 0
M  V30 11246 H 1059.7 7.12877 2.64027 0
M  V30 11247 N 1061.28 -1.12907 1.09954 0
M  V30 11248 C 1062.21 -2.20585 0.765799 0
M  V30 11249 C 1063.19 -1.68117 -0.258989 0
M  V30 11250 O 1064.37 -1.93792 -0.125853 0
M  V30 11251 C 1061.5 -3.46772 0.191435 0
M  V30 11252 C 1060.46 -4.12363 1.14635 0
M  V30 11253 C 1059.78 -5.3294 0.433426 0
M  V30 11254 C 1061.08 -4.59073 2.49096 0
M  V30 11255 H 1062.78 -2.48759 1.66612 0
M  V30 11256 H 1060.32 -1.19563 0.802534 0
M  V30 11257 H 1062.27 -4.21365 -0.0541535 0
M  V30 11258 H 1061 -3.18011 -0.744101 0
M  V30 11259 H 1059.66 -3.39744 1.37731 0
M  V30 11260 H 1059.31 -5.00444 -0.506422 0
M  V30 11261 H 1059.01 -5.77772 1.07018 0
M  V30 11262 H 1060.53 -6.10284 0.196267 0
M  V30 11263 H 1061.94 -5.25063 2.30177 0
M  V30 11264 H 1060.34 -5.14665 3.0861 0
M  V30 11265 H 1061.41 -3.73313 3.0946 0
M  V30 11266 N 1062.75 -0.88754 -1.30232 0
M  V30 11267 C 1063.7 -0.354497 -2.28061 0
M  V30 11268 C 1064.67 0.556732 -1.56492 0
M  V30 11269 O 1065.86 0.484597 -1.84543 0
M  V30 11270 C 1063 0.422701 -3.42501 0
M  V30 11271 C 1062.11 -0.518036 -4.28883 0
M  V30 11272 C 1061.24 0.275011 -5.30488 0
M  V30 11273 C 1060.28 -0.661032 -6.0852 0
M  V30 11274 N 1059.42 0.0968509 -7.02033 0
M  V30 11275 H 1064.26 -1.19388 -2.73039 0
M  V30 11276 H 1061.8 -0.600091 -1.34303 0
M  V30 11277 H 1063.75 0.889249 -4.07613 0
M  V30 11278 H 1062.38 1.22664 -2.98586 0
M  V30 11279 H 1061.44 -1.10308 -3.64055 0
M  V30 11280 H 1062.75 -1.23504 -4.83268 0
M  V30 11281 H 1061.9 0.803301 -6.01358 0
M  V30 11282 H 1060.64 1.02522 -4.76802 0
M  V30 11283 H 1059.65 -1.20093 -5.36524 0
M  V30 11284 H 1060.87 -1.41037 -6.64293 0
M  V30 11285 H 1058.82 0.829548 -6.50734 0
M  V30 11286 H 1058.73 -0.560476 -7.5392 0
M  V30 11287 H 1060 0.6058 -7.77142 0
M  V30 11288 N 1064.23 1.43628 -0.648757 0
M  V30 11289 C 1065.46 2.06732 -0.166284 0
M  V30 11290 C 1065.88 1.48281 1.15734 0
M  V30 11291 O 1065.24 0.591018 1.71396 0
M  V30 11292 C 1065.29 3.60502 -0.0838732 0
M  V30 11293 O 1064.39 4.01186 0.955185 0
M  V30 11294 H 1063.73 0.657479 -0.0928285 0
M  V30 11295 H 1066.26 1.84208 -0.890421 0
M  V30 11296 H 1066.27 4.07875 0.100923 0
M  V30 11297 H 1064.95 4.02424 -1.05014 0
M  V30 11298 H 1063.53 3.65412 0.743537 0
M  V30 11299 N 1065.71 0.390394 1.52688 0
M  V30 11300 C 1066.96 -0.191729 2.01892 0
M  V30 11301 C 1067.29 -1.4637 1.27631 0
M  V30 11302 O 1066.56 -1.90809 0.377094 0
M  V30 11303 C 1066.85 -0.458535 3.57169 0
M  V30 11304 C 1066.7 0.828796 4.42098 0
M  V30 11305 C 1068.02 -1.2487 4.22014 0
M  V30 11306 H 1065.14 -0.0682091 0.733837 0
M  V30 11307 H 1067.78 0.520176 1.82741 0
M  V30 11308 H 1065.93 -1.06498 3.73618 0
M  V30 11309 H 1067.6 1.46562 4.37398 0
M  V30 11310 H 1065.85 1.44388 4.09066 0
M  V30 11311 H 1066.52 0.596746 5.48765 0
M  V30 11312 H 1068.99 -0.735452 4.09549 0
M  V30 11313 H 1067.87 -1.40412 5.30637 0
M  V30 11314 H 1068.13 -2.2642 3.79719 0
M  V30 11315 N 1067.19 -1.57141 0.120249 0
M  V30 11316 C 1068.1 -2.18925 -0.843155 0
M  V30 11317 C 1069.11 -1.16575 -1.29175 0
M  V30 11318 O 1070.29 -1.4905 -1.35448 0
M  V30 11319 C 1067.36 -2.7775 -2.075 0
M  V30 11320 C 1066.42 -3.95139 -1.6782 0
M  V30 11321 C 1065.65 -4.51149 -2.85132 0
M  V30 11322 O 1065.87 -4.06056 -4.00593 0
M  V30 11323 O 1064.81 -5.41815 -2.62145 0
M  V30 11324 H 1068.63 -3.01707 -0.347357 0
M  V30 11325 H 1066.22 -1.49028 -0.105427 0
M  V30 11326 H 1068.1 -3.15243 -2.79643 0
M  V30 11327 H 1066.77 -1.97998 -2.56083 0
M  V30 11328 H 1065.68 -3.62412 -0.927807 0
M  V30 11329 H 1067.01 -4.7633 -1.23977 0
M  V30 11330 N 1068.67 0.153526 -1.5685 0
M  V30 11331 C 1069.61 1.20896 -1.98713 0
M  V30 11332 C 1070.61 1.44839 -0.878529 0
M  V30 11333 O 1071.81 1.45208 -1.0637 0
M  V30 11334 H 1068.19 0.406797 -0.632472 0
M  V30 11335 H 1070.16 0.829145 -2.86649 0
M  V30 11336 C 1068.91 2.53642 -2.37825 0
M  V30 11337 H 1068.23 2.36047 -3.22679 0
M  V30 11338 H 1069.67 3.26136 -2.70946 0
M  V30 11339 C 1068.13 3.13706 -1.22841 0
M  V30 11340 O 1068.66 3.98246 -0.525626 0
M  V30 11341 N 1066.87 2.73059 -0.99435 0
M  V30 11342 H 1066.41 2.0441 -1.56761 0
M  V30 11343 H 1066.37 3.1358 -0.226883 0
M  V30 11344 N 1070.14 1.51827 0.422667 0
M  V30 11345 C 1071.11 1.7359 1.49663 0
M  V30 11346 C 1072.11 0.605811 1.48952 0
M  V30 11347 O 1073.3 0.87354 1.50715 0
M  V30 11348 C 1070.43 1.80585 2.8914 0
M  V30 11349 H 1071.62 2.69453 1.31664 0
M  V30 11350 H 1069.18 1.42038 0.652298 0
M  V30 11351 H 1069.91 0.865895 3.12526 0
M  V30 11352 H 1069.7 2.62729 2.9106 0
M  V30 11353 H 1071.19 1.99212 3.67021 0
M  V30 11354 N 1071.62 -0.679052 1.4222 0
M  V30 11355 C 1073.03 -1.25953 1.37815 0
M  V30 11356 C 1073.38 -1.96077 0.0693215 0
M  V30 11357 O 1072.51 -1.99765 -0.832047 0
M  V30 11358 C 1073.1 -2.29063 2.49631 0
M  V30 11359 C 1071.66 -2.82647 2.48571 0
M  V30 11360 C 1070.81 -1.56909 2.28637 0
M  V30 11361 H 1073.76 -0.472714 1.51496 0
M  V30 11362 H 1073.78 -3.10708 2.19638 0
M  V30 11363 H 1073.29 -1.77996 3.44876 0
M  V30 11364 H 1071.4 -3.37846 1.57132 0
M  V30 11365 H 1071.51 -3.31952 3.45463 0
M  V30 11366 H 1069.87 -1.83323 1.76819 0
M  V30 11367 H 1070.66 -1.07814 3.25931 0
M  V30 11368 N 1073.1 -1.28322 -0.914942 0
M  V30 11369 C 1074.03 -1.14681 -2.03398 0
M  V30 11370 C 1075.01 -0.0448939 -1.70041 0
M  V30 11371 O 1076.2 -0.221672 -1.92931 0
M  V30 11372 C 1073.33 -0.806623 -3.37803 0
M  V30 11373 C 1072.28 -1.86318 -3.85318 0
M  V30 11374 C 1071.61 -1.37665 -5.16674 0
M  V30 11375 C 1072.91 -3.26953 -4.07307 0
M  V30 11376 H 1074.6 -2.08293 -2.15068 0
M  V30 11377 H 1072.15 -1.00284 -1.03339 0
M  V30 11378 H 1074.1 -0.69796 -4.1558 0
M  V30 11379 H 1072.82 0.165203 -3.26182 0
M  V30 11380 H 1071.48 -1.96096 -3.09745 0
M  V30 11381 H 1071.13 -0.393927 -5.01455 0
M  V30 11382 H 1070.83 -2.08313 -5.49435 0
M  V30 11383 H 1072.35 -1.28119 -5.97007 0
M  V30 11384 H 1073.77 -3.20102 -4.75613 0
M  V30 11385 H 1072.17 -3.95424 -4.51398 0
M  V30 11386 H 1073.24 -3.71059 -3.12159 0
M  V30 11387 N 1074.58 1.12322 -1.10551 0
M  V30 11388 C 1075.54 2.16273 -0.758844 0
M  V30 11389 C 1076.54 1.59325 0.217294 0
M  V30 11390 O 1077.73 1.74199 -0.00601346 0
M  V30 11391 C 1074.86 3.40674 -0.124238 0
M  V30 11392 H 1076.06 2.48454 -1.6796 0
M  V30 11393 H 1073.61 1.2735 -0.906188 0
M  V30 11394 H 1074.34 3.14094 0.807194 0
M  V30 11395 H 1074.13 3.83284 -0.826772 0
M  V30 11396 H 1075.62 4.17474 0.102502 0
M  V30 11397 N 1076.06 0.894434 1.2976 0
M  V30 11398 C 1077 0.366586 2.2787 0
M  V30 11399 C 1077.97 -0.548425 1.56785 0
M  V30 11400 O 1079.16 -0.474804 1.84798 0
M  V30 11401 C 1076.3 -0.404531 3.42721 0
M  V30 11402 C 1075.41 0.540774 4.28602 0
M  V30 11403 C 1074.55 -0.246875 5.30626 0
M  V30 11404 C 1073.59 0.693294 6.08161 0
M  V30 11405 N 1072.72 -0.059619 7.02075 0
M  V30 11406 H 1077.56 1.20834 2.72402 0
M  V30 11407 H 1075.1 0.607205 1.33983 0
M  V30 11408 H 1077.06 -0.86762 4.08079 0
M  V30 11409 H 1075.69 -1.21078 2.99232 0
M  V30 11410 H 1074.74 1.12237 3.63465 0
M  V30 11411 H 1076.05 1.26065 4.82606 0
M  V30 11412 H 1075.21 -0.771398 6.01776 0
M  V30 11413 H 1073.94 -0.999918 4.77339 0
M  V30 11414 H 1072.95 1.22936 5.35879 0
M  V30 11415 H 1074.17 1.44558 6.63536 0
M  V30 11416 H 1072.12 -0.795026 6.51165 0
M  V30 11417 H 1072.04 0.60045 7.53612 0
M  V30 11418 H 1073.31 -0.564577 7.77453 0
M  V30 11419 N 1077.53 -1.43282 0.656365 0
M  V30 11420 C 1078.95 -1.56272 0.324213 0
M  V30 11421 C 1079.15 -1.63946 -1.1715 0
M  V30 11422 O 1078.21 -1.59625 -1.95643 0
M  V30 11423 C 1079.52 -2.82204 1.03833 0
M  V30 11424 C 1081.07 -2.95952 1.01889 0
M  V30 11425 C 1081.54 -4.2472 1.71397 0
M  V30 11426 N 1083.03 -4.31591 1.68176 0
M  V30 11427 C 1083.77 -5.30001 2.1883 0
M  V30 11428 N 1083.26 -6.34671 2.77785 0
M  V30 11429 N 1085.06 -5.21676 2.09311 0
M  V30 11430 H 1077.21 -1.36544 1.62694 0
M  V30 11431 H 1079.47 -0.655999 0.684375 0
M  V30 11432 H 1079.18 -2.82608 2.09346 0
M  V30 11433 H 1079.05 -3.72527 0.591878 0
M  V30 11434 H 1081.44 -2.95087 -0.0278431 0
M  V30 11435 H 1081.52 -2.0691 1.50406 0
M  V30 11436 H 1081.16 -4.26346 2.76028 0
M  V30 11437 H 1081.09 -5.12665 1.20342 0
M  V30 11438 H 1083.58 -3.56573 1.25157 0
M  V30 11439 H 1083.9 -7.06087 3.14104 0
M  V30 11440 H 1082.24 -6.35285 2.81847 0
M  V30 11441 H 1085.43 -4.3882 1.62955 0
M  V30 11442 H 1085.61 -5.9821 2.49095 0
M  V30 11443 N 1079.01 -0.398486 -1.52479 0
M  V30 11444 C 1080.43 -0.0488635 -1.59525 0
M  V30 11445 C 1080.63 1.43756 -1.41197 0
M  V30 11446 O 1079.69 2.20317 -1.23357 0
M  V30 11447 C 1081 -0.534262 -2.95916 0
M  V30 11448 C 1082.55 -0.491314 -3.0912 0
M  V30 11449 C 1083.02 -0.953049 -4.47974 0
M  V30 11450 N 1084.51 -0.909434 -4.54184 0
M  V30 11451 C 1085.25 -1.23801 -5.59876 0
M  V30 11452 N 1084.74 -1.63752 -6.73169 0
M  V30 11453 N 1086.54 -1.15867 -5.50028 0
M  V30 11454 H 1078.69 -1.36608 -1.62641 0
M  V30 11455 H 1080.95 -0.560515 -0.764544 0
M  V30 11456 H 1080.66 -1.57277 -3.14574 0
M  V30 11457 H 1080.53 0.0617787 -3.77149 0
M  V30 11458 H 1082.92 0.538123 -2.90152 0
M  V30 11459 H 1083 -1.12327 -2.29818 0
M  V30 11460 H 1082.64 -1.98076 -4.67684 0
M  V30 11461 H 1082.57 -0.298007 -5.25756 0
M  V30 11462 H 1085.06 -0.615569 -3.72853 0
M  V30 11463 H 1085.38 -1.87163 -7.49793 0
M  V30 11464 H 1083.72 -1.67647 -6.74477 0
M  V30 11465 H 1086.91 -0.845502 -4.60401 0
M  V30 11466 H 1087.09 -1.41805 -6.32294 0
M  V30 11467 N 1080.49 1.57075 -0.12858 0
M  V30 11468 C 1081.44 2.15816 0.818064 0
M  V30 11469 C 1082.41 1.08581 1.25696 0
M  V30 11470 O 1083.59 1.36535 1.33277 0
M  V30 11471 C 1080.73 2.76943 2.05905 0
M  V30 11472 C 1079.85 3.98514 1.66764 0
M  V30 11473 C 1078.98 4.47698 2.85902 0
M  V30 11474 C 1078.02 5.61778 2.43047 0
M  V30 11475 N 1077.16 6.05662 3.5513 0
M  V30 11476 H 1082 2.9638 0.310318 0
M  V30 11477 H 1079.53 1.46418 0.141472 0
M  V30 11478 H 1081.49 3.10519 2.78629 0
M  V30 11479 H 1080.12 1.99053 2.54122 0
M  V30 11480 H 1079.17 3.71038 0.838766 0
M  V30 11481 H 1080.49 4.81215 1.31277 0
M  V30 11482 H 1079.64 4.83233 3.66839 0
M  V30 11483 H 1078.38 3.63967 3.24622 0
M  V30 11484 H 1077.38 5.25838 1.60544 0
M  V30 11485 H 1078.61 6.47282 2.05433 0
M  V30 11486 H 1076.56 5.2487 3.93506 0
M  V30 11487 H 1076.47 6.83242 3.23598 0
M  V30 11488 H 1077.74 6.45838 4.36479 0
M  V30 11489 N 1081.97 -0.145205 1.5693 0
M  V30 11490 C 1082.9 -1.20438 1.95006 0
M  V30 11491 C 1083.91 -1.39085 0.846114 0
M  V30 11492 O 1085.1 -1.38625 1.12452 0
M  V30 11493 C 1082.2 -2.56892 2.21043 0
M  V30 11494 C 1081.38 -2.59197 3.52329 0
M  V30 11495 C 1080.44 -3.77204 3.66884 0
M  V30 11496 O 1079.46 -3.61995 4.39259 0
M  V30 11497 N 1080.66 -4.9473 3.03682 0
M  V30 11498 H 1083.43 -0.880709 2.86467 0
M  V30 11499 H 1080.99 -0.334751 1.58401 0
M  V30 11500 H 1082.98 -3.34349 2.2802 0
M  V30 11501 H 1081.55 -2.81544 1.35838 0
M  V30 11502 H 1080.77 -1.67644 3.56776 0
M  V30 11503 H 1082.06 -2.57771 4.3867 0
M  V30 11504 H 1081.46 -5.09989 2.44801 0
M  V30 11505 H 1080.01 -5.69956 3.16218 0
M  V30 11506 N 1083.45 -1.52049 -0.414609 0
M  V30 11507 C 1084.39 -1.74998 -1.5048 0
M  V30 11508 C 1085.36 -0.592251 -1.55182 0
M  V30 11509 O 1086.55 -0.829203 -1.7184 0
M  V30 11510 C 1083.69 -1.90157 -2.87983 0
M  V30 11511 C 1082.8 -3.17789 -2.92633 0
M  V30 11512 C 1081.94 -3.23411 -4.21401 0
M  V30 11513 C 1080.98 -4.45267 -4.20004 0
M  V30 11514 N 1080.11 -4.48312 -5.40334 0
M  V30 11515 H 1084.95 -2.68046 -1.30212 0
M  V30 11516 H 1082.49 -1.32824 -0.632154 0
M  V30 11517 H 1084.45 -1.96929 -3.67797 0
M  V30 11518 H 1083.08 -1.00496 -3.06758 0
M  V30 11519 H 1082.13 -3.20216 -2.05343 0
M  V30 11520 H 1083.44 -4.07634 -2.87465 0
M  V30 11521 H 1082.6 -3.29224 -5.09604 0
M  V30 11522 H 1081.34 -2.31495 -4.29257 0
M  V30 11523 H 1080.34 -4.39606 -3.30192 0
M  V30 11524 H 1081.57 -5.38472 -4.13793 0
M  V30 11525 H 1079.51 -3.59277 -5.48868 0
M  V30 11526 H 1079.43 -5.31994 -5.37139 0
M  V30 11527 H 1080.7 -4.58347 -6.30506 0
M  V30 11528 N 1084.93 0.6715 -1.42579 0
M  V30 11529 C 1085.86 1.79693 -1.49107 0
M  V30 11530 C 1086.84 1.66516 -0.347338 0
M  V30 11531 O 1088.02 1.85887 -0.562094 0
M  V30 11532 C 1085.15 3.1801 -1.39596 0
M  V30 11533 C 1084.11 3.45926 -2.5203 0
M  V30 11534 C 1083.43 4.83852 -2.27577 0
M  V30 11535 C 1084.73 3.4249 -3.94333 0
M  V30 11536 H 1086.43 1.74486 -2.433 0
M  V30 11537 H 1083.97 0.838042 -1.17102 0
M  V30 11538 H 1085.92 3.96478 -1.42771 0
M  V30 11539 H 1084.65 3.23901 -0.418989 0
M  V30 11540 H 1083.31 2.6982 -2.48178 0
M  V30 11541 H 1082.96 4.86398 -1.28165 0
M  V30 11542 H 1082.66 5.03493 -3.02934 0
M  V30 11543 H 1084.18 5.646 -2.32506 0
M  V30 11544 H 1085.59 4.10922 -3.9977 0
M  V30 11545 H 1083.99 3.73666 -4.69568 0
M  V30 11546 H 1085.06 2.41002 -4.20768 0
M  V30 11547 N 1086.4 1.28806 0.908124 0
M  V30 11548 C 1087.82 1.06634 1.18749 0
M  V30 11549 C 1088.02 -0.187729 2.00624 0
M  V30 11550 O 1087.08 -0.88784 2.36376 0
M  V30 11551 C 1088.39 2.31703 1.91661 0
M  V30 11552 C 1089.94 2.36939 2.04521 0
M  V30 11553 C 1090.41 3.61789 2.80843 0
M  V30 11554 N 1091.9 3.62462 2.88402 0
M  V30 11555 C 1092.64 4.55746 3.47971 0
M  V30 11556 N 1092.13 5.59353 4.08774 0
M  V30 11557 N 1093.93 4.43331 3.45564 0
M  V30 11558 H 1086.08 2.09299 0.36164 0
M  V30 11559 H 1088.34 0.921479 0.222668 0
M  V30 11560 H 1088.05 3.23096 1.38931 0
M  V30 11561 H 1087.92 2.38556 2.92183 0
M  V30 11562 H 1090.31 1.4604 2.5643 0
M  V30 11563 H 1090.39 2.34077 1.03159 0
M  V30 11564 H 1090.03 4.53035 2.29612 0
M  V30 11565 H 1089.96 3.61907 3.82532 0
M  V30 11566 H 1092.45 2.87544 2.45208 0
M  V30 11567 H 1092.77 6.26668 4.52224 0
M  V30 11568 H 1091.11 5.63173 4.07261 0
M  V30 11569 H 1094.3 3.61587 2.97276 0
M  V30 11570 H 1094.48 5.16216 3.91695 0
M  V30 11571 N 1087.88 -1.11734 1.11145 0
M  V30 11572 C 1089.11 -1.87755 0.881062 0
M  V30 11573 C 1089.53 -1.79461 -0.563496 0
M  V30 11574 O 1088.89 -1.15481 -1.39763 0
M  V30 11575 C 1088.94 -3.34641 1.34342 0
M  V30 11576 O 1088.04 -4.09195 0.513157 0
M  V30 11577 H 1087.38 -0.583111 0.317613 0
M  V30 11578 H 1089.91 -1.41256 1.48013 0
M  V30 11579 H 1089.92 -3.85486 1.33658 0
M  V30 11580 H 1088.6 -3.39994 2.39534 0
M  V30 11581 H 1087.17 -3.68269 0.585833 0
M  V30 11582 N 1089.36 -0.901303 -1.29284 0
M  V30 11583 C 1090.32 -0.385081 -2.25942 0
M  V30 11584 C 1091.32 0.481626 -1.53418 0
M  V30 11585 O 1092.51 0.286451 -1.71829 0
M  V30 11586 C 1089.64 0.449319 -3.37926 0
M  V30 11587 H 1090.84 -1.23877 -2.7312 0
M  V30 11588 H 1088.39 -0.679586 -1.40753 0
M  V30 11589 H 1089.13 1.32292 -2.9609 0
M  V30 11590 H 1088.91 -0.171731 -3.91724 0
M  V30 11591 H 1090.4 0.801746 -4.09831 0
M  V30 11592 N 1090.84 1.42931 -0.663954 0
M  V30 11593 C 1092.07 2.06028 -0.189808 0
M  V30 11594 C 1092.48 1.49827 1.14879 0
M  V30 11595 O 1091.84 0.633778 1.71142 0
M  V30 11596 C 1091.89 3.61349 -0.104343 0
M  V30 11597 O 1091.61 4.15463 -1.39004 0
M  V30 11598 C 1093.11 4.4154 0.394599 0
M  V30 11599 H 1090.33 0.664259 -0.0948744 0
M  V30 11600 H 1092.87 1.83255 -0.907632 0
M  V30 11601 H 1091.03 3.83271 0.564103 0
M  V30 11602 H 1091.44 5.09233 -1.25626 0
M  V30 11603 H 1092.92 5.50525 0.403329 0
M  V30 11604 H 1093.39 4.1534 1.4279 0
M  V30 11605 H 1094 4.24612 -0.241729 0
M  V30 11606 N 1092.32 0.406567 1.52266 0
M  V30 11607 C 1093.28 -0.408251 2.25535 0
M  V30 11608 C 1094.28 -0.975795 1.27808 0
M  V30 11609 O 1095.47 -0.855077 1.5177 0
M  V30 11610 C 1092.6 -1.57443 3.02365 0
M  V30 11611 H 1093.79 0.233459 2.9899 0
M  V30 11612 H 1091.35 0.159032 1.55489 0
M  V30 11613 H 1092.08 -2.25308 2.33252 0
M  V30 11614 H 1091.87 -1.17399 3.74112 0
M  V30 11615 H 1093.36 -2.15088 3.57948 0
M  V30 11616 N 1093.79 -1.57004 0.136909 0
M  V30 11617 C 1095.02 -2.00587 -0.527209 0
M  V30 11618 C 1095.44 -1.01628 -1.58283 0
M  V30 11619 O 1094.8 0.00946934 -1.81298 0
M  V30 11620 C 1094.85 -3.42967 -1.11384 0
M  V30 11621 O 1093.95 -3.46973 -2.22898 0
M  V30 11622 H 1093.3 -0.651155 -0.129976 0
M  V30 11623 H 1095.83 -2.03296 0.230667 0
M  V30 11624 H 1095.84 -3.81555 -1.44499 0
M  V30 11625 H 1094.51 -4.14502 -0.340736 0
M  V30 11626 H 1093.09 -3.20219 -1.91087 0
M  V30 11627 N 1095.27 0.136881 -1.57004 0
M  V30 11628 C 1096.69 0.489856 -1.51897 0
M  V30 11629 C 1096.89 1.82833 -0.847009 0
M  V30 11630 O 1095.94 2.48952 -0.421792 0
M  V30 11631 C 1097.26 0.490831 -2.96667 0
M  V30 11632 C 1098.81 0.575639 -3.07661 0
M  V30 11633 C 1099.28 0.607178 -4.53957 0
M  V30 11634 N 1100.77 0.66912 -4.58342 0
M  V30 11635 C 1101.51 0.714675 -5.68929 0
M  V30 11636 N 1101 0.718959 -6.89059 0
M  V30 11637 N 1102.8 0.756326 -5.56988 0
M  V30 11638 H 1094.95 -0.740347 -1.99079 0
M  V30 11639 H 1097.21 -0.271116 -0.908405 0
M  V30 11640 H 1096.92 -0.424648 -3.49127 0
M  V30 11641 H 1096.79 1.32512 -3.53158 0
M  V30 11642 H 1099.18 1.48154 -2.55215 0
M  V30 11643 H 1099.26 -0.285991 -2.54196 0
M  V30 11644 H 1098.9 -0.294604 -5.07045 0
M  V30 11645 H 1098.83 1.48544 -5.05215 0
M  V30 11646 H 1101.32 0.672697 -3.71864 0
M  V30 11647 H 1101.64 0.755848 -7.69095 0
M  V30 11648 H 1099.98 0.686671 -6.91599 0
M  V30 11649 H 1103.17 0.750219 -4.62049 0
M  V30 11650 H 1103.34 0.788363 -6.43186 0
M  V30 11651 N 1096.75 1.52266 0.40654 0
M  V30 11652 C 1098.17 1.41127 0.745348 0
M  V30 11653 C 1098.37 0.517802 1.94733 0
M  V30 11654 O 1097.42 -0.0154286 2.52495 0
M  V30 11655 C 1098.74 2.83696 0.996859 0
M  V30 11656 C 1100.28 2.93056 1.09942 0
M  V30 11657 C 1100.76 4.36599 1.38367 0
M  V30 11658 N 1102.25 4.39845 1.45226 0
M  V30 11659 C 1102.98 5.47975 1.68852 0
M  V30 11660 N 1102.48 6.66219 1.90065 0
M  V30 11661 N 1104.27 5.35494 1.70888 0
M  V30 11662 H 1096.42 2.08888 -0.384632 0
M  V30 11663 H 1098.69 0.941619 -0.109809 0
M  V30 11664 H 1098.39 3.51208 0.185986 0
M  V30 11665 H 1098.27 3.24895 1.91632 0
M  V30 11666 H 1100.65 2.25723 1.90088 0
M  V30 11667 H 1100.74 2.5531 0.158256 0
M  V30 11668 H 1100.38 5.04492 0.587373 0
M  V30 11669 H 1100.31 4.71883 2.33739 0
M  V30 11670 H 1102.8 3.54611 1.30612 0
M  V30 11671 H 1103.11 7.44408 2.0755 0
M  V30 11672 H 1101.46 6.69279 1.87325 0
M  V30 11673 H 1104.65 4.42093 1.53856 0
M  V30 11674 H 1104.82 6.19837 1.88962 0
M  V30 11675 N 1098.23 -0.663929 1.42933 0
M  V30 11676 C 1099.48 -1.42111 1.43697 0
M  V30 11677 C 1099.8 -1.94913 0.0583858 0
M  V30 11678 O 1099.07 -1.73757 -0.904719 0
M  V30 11679 H 1097.65 -0.527391 0.529026 0
M  V30 11680 H 1100.31 -0.783766 1.78446 0
M  V30 11681 H 1099.41 -2.26877 2.1432 0
M  V30 11682 N 1099.71 -1.29285 -0.901281 0
M  V30 11683 C 1100.93 -1.20169 -1.69039 0
M  V30 11684 C 1101.36 0.234509 -1.86632 0
M  V30 11685 O 1100.71 1.16935 -1.38549 0
M  V30 11686 C 1100.76 -1.91852 -3.05328 0
M  V30 11687 O 1099.87 -1.23448 -3.9349 0
M  V30 11688 H 1099.21 -0.416486 -0.517141 0
M  V30 11689 H 1101.74 -1.70826 -1.12603 0
M  V30 11690 H 1101.75 -2.00244 -3.5548 0
M  V30 11691 H 1100.42 -2.96313 -2.91841 0
M  V30 11692 H 1099 -1.23303 -3.51924 0
M  V30 11693 N 1101.18 1.11143 -1.11736 0
M  V30 11694 C 1102.6 1.64462 -0.883693 0
M  V30 11695 C 1102.95 1.87324 0.583448 0
M  V30 11696 O 1102.07 1.60975 1.44623 0
M  V30 11697 C 1102.67 2.98765 -1.59764 0
M  V30 11698 C 1101.23 3.4898 -1.41032 0
M  V30 11699 C 1100.37 2.23729 -1.63831 0
M  V30 11700 H 1103.32 0.947415 -1.27317 0
M  V30 11701 H 1103.34 3.65885 -1.04443 0
M  V30 11702 H 1102.86 2.82094 -2.66542 0
M  V30 11703 H 1100.96 3.7081 -0.364781 0
M  V30 11704 H 1101.07 4.27571 -2.16148 0
M  V30 11705 H 1099.43 2.31507 -1.06191 0
M  V30 11706 H 1100.22 2.09597 -2.7189 0
M  V30 11707 N 1102.66 0.908147 1.28804 0
M  V30 11708 C 1103.63 0.397058 2.25735 0
M  V30 11709 C 1104.63 -0.473483 1.53671 0
M  V30 11710 O 1105.82 -0.277335 1.71978 0
M  V30 11711 C 1102.95 -0.431392 3.38159 0
M  V30 11712 H 1104.14 1.25323 2.72459 0
M  V30 11713 H 1101.69 0.687041 1.4039 0
M  V30 11714 H 1102.43 -1.3072 2.96787 0
M  V30 11715 H 1102.21 0.192502 3.91627 0
M  V30 11716 H 1103.7 -0.78 4.10251 0
M  V30 11717 N 1104.14 -1.42577 0.671525 0
M  V30 11718 C 1105.55 -1.84736 0.270084 0
M  V30 11719 C 1105.9 -1.56212 -1.18711 0
M  V30 11720 O 1105.03 -1.02028 -1.90838 0
M  V30 11721 C 1105.62 -3.35334 0.483409 0
M  V30 11722 C 1104.18 -3.76154 0.136119 0
M  V30 11723 C 1103.33 -2.66179 0.777444 0
M  V30 11724 H 1106.28 -1.3247 0.873919 0
M  V30 11725 H 1106.3 -3.79573 -0.265483 0
M  V30 11726 H 1105.81 -3.56063 1.54405 0
M  V30 11727 H 1103.91 -3.61033 -0.921209 0
M  V30 11728 H 1104.03 -4.75645 0.574356 0
M  V30 11729 H 1102.39 -2.53841 0.209055 0
M  V30 11730 H 1103.17 -2.89732 1.84148 0
M  V30 11731 N 1105.62 -0.414636 -1.52048 0
M  V30 11732 C 1106.58 0.396285 -2.25748 0
M  V30 11733 C 1107.58 0.969003 -1.28324 0
M  V30 11734 O 1108.77 0.847016 -1.52221 0
M  V30 11735 C 1105.9 1.55838 -3.03195 0
M  V30 11736 H 1107.1 -0.249311 -2.98862 0
M  V30 11737 H 1104.65 -0.167276 -1.55402 0
M  V30 11738 H 1105.38 2.24068 -2.34444 0
M  V30 11739 H 1105.17 1.15414 -3.74729 0
M  V30 11740 H 1106.66 2.13187 -3.59084 0
M  V30 11741 N 1107.1 1.56929 -0.145233 0
M  V30 11742 C 1108.04 2.17958 0.812237 0
M  V30 11743 C 1109.04 1.13608 1.25657 0
M  V30 11744 O 1110.24 1.31861 1.22526 0
M  V30 11745 H 1106.62 0.697876 0.28013 0
M  V30 11746 H 1108.59 2.97146 0.273297 0
M  V30 11747 C 1107.34 2.81418 2.04203 0
M  V30 11748 H 1106.66 3.61427 1.70911 0
M  V30 11749 H 1108.1 3.27624 2.69144 0
M  V30 11750 C 1106.56 1.79835 2.84888 0
M  V30 11751 O 1107.09 1.26773 3.81171 0
M  V30 11752 N 1105.3 1.49179 2.49387 0
M  V30 11753 H 1104.84 1.9252 1.71154 0
M  V30 11754 H 1104.8 0.81458 3.03664 0
M  V30 11755 N 1108.58 -0.128553 1.57075 0
M  V30 11756 C 1109.99 -0.686713 1.73612 0
M  V30 11757 C 1110.34 -1.80778 0.762478 0
M  V30 11758 O 1109.46 -2.16297 -0.0667779 0
M  V30 11759 C 1110.06 -1.25246 3.148 0
M  V30 11760 C 1108.62 -1.757 3.32876 0
M  V30 11761 C 1107.76 -0.652844 2.69506 0
M  V30 11762 H 1110.71 0.0972859 1.58402 0
M  V30 11763 H 1110.74 -2.1222 3.15821 0
M  V30 11764 H 1110.25 -0.436308 3.8564 0
M  V30 11765 H 1108.35 -2.59824 2.67063 0
M  V30 11766 H 1108.46 -1.87302 4.4097 0
M  V30 11767 H 1106.83 -1.08408 2.30477 0
M  V30 11768 H 1107.61 0.15217 3.42963 0
M  V30 11769 N 1110.05 -1.5248 -0.398459 0
M  V30 11770 C 1111.3 -1.66731 -1.14215 0
M  V30 11771 C 1111.62 -0.404957 -1.90749 0
M  V30 11772 O 1110.89 0.580434 -1.87104 0
M  V30 11773 H 1109.47 -0.614577 -0.424622 0
M  V30 11774 H 1112.13 -1.89561 -0.453059 0
M  V30 11775 H 1111.23 -2.51336 -1.85031 0
M  V30 11776 N 1111.53 0.65634 -1.43283 0
M  V30 11777 C 1112.95 0.971645 -1.26614 0
M  V30 11778 C 1113.15 2.00662 -0.183612 0
M  V30 11779 O 1112.2 2.48654 0.439003 0
M  V30 11780 C 1113.52 1.45888 -2.6294 0
M  V30 11781 C 1115.06 1.57569 -2.70446 0
M  V30 11782 C 1115.54 2.09684 -4.07181 0
M  V30 11783 N 1117.03 2.16991 -4.0923 0
M  V30 11784 C 1117.77 2.5843 -5.11861 0
M  V30 11785 N 1117.26 2.99188 -6.24867 0
M  V30 11786 N 1119.05 2.58342 -4.99215 0
M  V30 11787 H 1111.21 -0.028573 -2.12381 0
M  V30 11788 H 1113.47 0.0497918 -0.946691 0
M  V30 11789 H 1113.17 0.772823 -3.43104 0
M  V30 11790 H 1113.05 2.43445 -2.88122 0
M  V30 11791 H 1115.44 2.25277 -1.90616 0
M  V30 11792 H 1115.52 0.584529 -2.49032 0
M  V30 11793 H 1115.16 1.42579 -4.87477 0
M  V30 11794 H 1115.09 3.09625 -4.25958 0
M  V30 11795 H 1117.58 1.88278 -3.27658 0
M  V30 11796 H 1117.89 3.29549 -6.99012 0
M  V30 11797 H 1116.24 2.97 -6.28344 0
M  V30 11798 H 1119.43 2.25875 -4.09998 0
M  V30 11799 H 1119.6 2.90316 -5.79328 0
M  V30 11800 N 1113.01 1.29761 0.894412 0
M  V30 11801 C 1113.97 1.15335 1.98067 0
M  V30 11802 C 1114.97 0.0872804 1.60563 0
M  V30 11803 O 1116.16 0.334645 1.70955 0
M  V30 11804 C 1113.29 0.764907 3.32208 0
M  V30 11805 H 1114.49 2.11829 2.12293 0
M  V30 11806 H 1112.04 1.13023 1.0796 0
M  V30 11807 H 1112.78 -0.199948 3.23683 0
M  V30 11808 H 1112.56 1.53523 3.60795 0
M  V30 11809 H 1114.05 0.687176 4.11907 0
M  V30 11810 N 1114.49 -1.10549 1.12324 0
M  V30 11811 C 1115.9 -1.63991 0.892402 0
M  V30 11812 C 1116.25 -1.87631 -0.573506 0
M  V30 11813 O 1115.37 -1.6174 -1.43768 0
M  V30 11814 C 1115.97 -2.97914 1.61347 0
M  V30 11815 C 1114.53 -3.48227 1.42881 0
M  V30 11816 C 1113.68 -2.22857 1.65015 0
M  V30 11817 H 1116.63 -0.94065 1.27818 0
M  V30 11818 H 1116.65 -3.65326 1.06382 0
M  V30 11819 H 1116.16 -2.80677 2.68034 0
M  V30 11820 H 1114.26 -3.70611 0.384441 0
M  V30 11821 H 1114.37 -4.26419 2.18413 0
M  V30 11822 H 1112.74 -2.30941 1.07417 0
M  V30 11823 H 1113.52 -2.08152 2.72997 0
M  V30 11824 N 1115.97 -0.914965 -1.28321 0
M  V30 11825 C 1117.21 -0.549562 -1.95212 0
M  V30 11826 C 1117.54 0.904658 -1.71842 0
M  V30 11827 O 1116.82 1.64354 -1.04009 0
M  V30 11828 C 1117.1 -0.860927 -3.49657 0
M  V30 11829 C 1116.96 -2.36797 -3.82423 0
M  V30 11830 C 1118.27 -0.357926 -4.38642 0
M  V30 11831 H 1115.39 -0.201136 -0.709023 0
M  V30 11832 H 1118.04 -1.14443 -1.51667 0
M  V30 11833 H 1116.19 -0.354665 -3.86878 0
M  V30 11834 H 1117.86 -2.94494 -3.55065 0
M  V30 11835 H 1116.1 -2.82245 -3.29424 0
M  V30 11836 H 1116.77 -2.53637 -4.90278 0
M  V30 11837 H 1119.25 -0.791636 -4.085 0
M  V30 11838 H 1118.12 -0.604855 -5.45557 0
M  V30 11839 H 1118.38 0.741775 -4.35833 0
M  V30 11840 N 1117.44 1.42219 -0.679077 0
M  V30 11841 C 1118.41 2.29197 -0.0125475 0
M  V30 11842 C 1119.41 1.43544 0.724691 0
M  V30 11843 O 1120.6 1.64884 0.562052 0
M  V30 11844 C 1117.73 3.26122 0.992846 0
M  V30 11845 H 1118.92 2.89629 -0.778154 0
M  V30 11846 H 1116.47 1.4993 -0.44166 0
M  V30 11847 H 1117.21 2.70637 1.78679 0
M  V30 11848 H 1116.99 3.89302 0.467544 0
M  V30 11849 H 1118.48 3.91339 1.45751 0
M  V30 11850 N 1118.92 0.422693 1.51826 0
M  V30 11851 C 1120.15 -0.15017 2.06856 0
M  V30 11852 C 1120.57 -1.36946 1.28948 0
M  V30 11853 O 1119.93 -1.78393 0.32338 0
M  V30 11854 C 1119.98 -0.465563 3.57582 0
M  V30 11855 O 1119.08 -1.55442 3.81984 0
M  V30 11856 H 1118.42 -0.00827931 0.663948 0
M  V30 11857 H 1120.95 0.599806 1.95611 0
M  V30 11858 H 1120.96 -0.720279 4.01592 0
M  V30 11859 H 1119.64 0.425679 4.13716 0
M  V30 11860 H 1118.21 -1.29081 3.49846 0
M  V30 11861 N 1120.4 -1.5685 0.153553 0
M  V30 11862 C 1121.35 -2.1709 -0.783626 0
M  V30 11863 C 1122.32 -1.10567 -1.23952 0
M  V30 11864 O 1123.5 -1.38638 -1.31088 0
M  V30 11865 C 1120.64 -2.80183 -2.01473 0
M  V30 11866 C 1119.75 -4.01117 -1.60403 0
M  V30 11867 C 1118.89 -4.5219 -2.78743 0
M  V30 11868 C 1117.93 -5.65574 -2.34079 0
M  V30 11869 N 1117.07 -6.11235 -3.4545 0
M  V30 11870 H 1121.91 -2.96836 -0.263127 0
M  V30 11871 H 1119.44 -1.46625 -0.11816 0
M  V30 11872 H 1121.4 -3.14912 -2.73654 0
M  V30 11873 H 1120.03 -2.03071 -2.50923 0
M  V30 11874 H 1119.08 -3.72325 -0.779631 0
M  V30 11875 H 1120.39 -4.83243 -1.23605 0
M  V30 11876 H 1119.55 -4.89008 -3.59105 0
M  V30 11877 H 1118.29 -3.69085 -3.18791 0
M  V30 11878 H 1117.29 -5.28326 -1.52158 0
M  V30 11879 H 1118.52 -6.50468 -1.95109 0
M  V30 11880 H 1116.46 -5.31064 -3.85106 0
M  V30 11881 H 1116.38 -6.88304 -3.12687 0
M  V30 11882 H 1117.65 -6.527 -4.26149 0
M  V30 11883 N 1121.88 0.120221 -1.57141 0
M  V30 11884 C 1123.13 0.826586 -1.84423 0
M  V30 11885 C 1123.45 1.80473 -0.738553 0
M  V30 11886 O 1122.72 1.94454 0.23755 0
M  V30 11887 H 1121.3 0.308246 -0.680436 0
M  V30 11888 H 1123.96 0.107835 -1.94601 0
M  V30 11889 H 1123.05 1.37256 -2.80298 0
M  V30 11890 N 1123.36 1.52689 0.390367 0
M  V30 11891 C 1124.32 1.76726 1.45947 0
M  V30 11892 C 1125.32 0.637269 1.47633 0
M  V30 11893 O 1126.51 0.905312 1.48828 0
M  V30 11894 C 1123.64 1.86678 2.85244 0
M  V30 11895 H 1124.83 2.72185 1.25918 0
M  V30 11896 H 1122.39 1.4339 0.622023 0
M  V30 11897 H 1123.12 0.931991 3.10619 0
M  V30 11898 H 1122.91 2.68843 2.85422 0
M  V30 11899 H 1124.4 2.06952 3.62713 0
M  V30 11900 N 1124.83 -0.648732 1.43629 0
M  V30 11901 C 1126.25 -1.23001 1.40455 0
M  V30 11902 C 1126.6 -1.95886 0.110897 0
M  V30 11903 O 1125.72 -2.01485 -0.789487 0
M  V30 11904 C 1126.32 -2.23716 2.54434 0
M  V30 11905 C 1124.88 -2.77311 2.54511 0
M  V30 11906 C 1124.02 -1.52024 2.31914 0
M  V30 11907 H 1126.97 -0.440473 1.52465 0
M  V30 11908 H 1126.99 -3.05979 2.26179 0
M  V30 11909 H 1126.51 -1.7064 3.48574 0
M  V30 11910 H 1124.61 -3.34437 1.64263 0
M  V30 11911 H 1124.72 -3.2455 3.52426 0
M  V30 11912 H 1123.08 -1.79531 1.80667 0
M  V30 11913 H 1123.87 -1.00876 3.28145 0
M  V30 11914 N 1126.31 -1.30234 -0.887518 0
M  V30 11915 C 1127.73 -1.0851 -1.17037 0
M  V30 11916 C 1127.93 0.155788 -2.00897 0
M  V30 11917 O 1126.98 0.850123 -2.37759 0
M  V30 11918 C 1128.3 -2.34723 -1.87951 0
M  V30 11919 C 1129.85 -2.40163 -2.00726 0
M  V30 11920 C 1130.32 -3.66211 -2.75051 0
M  V30 11921 N 1131.81 -3.67004 -2.82599 0
M  V30 11922 C 1132.55 -4.61224 -3.40676 0
M  V30 11923 N 1132.04 -5.65786 -3.99823 0
M  V30 11924 N 1133.84 -4.48772 -3.38467 0
M  V30 11925 H 1125.99 -2.09847 -0.328297 0
M  V30 11926 H 1128.25 -0.924904 -0.20798 0
M  V30 11927 H 1127.96 -3.25265 -1.33773 0
M  V30 11928 H 1127.83 -2.43175 -2.8835 0
M  V30 11929 H 1130.22 -1.50101 -2.54074 0
M  V30 11930 H 1130.3 -2.35688 -0.994218 0
M  V30 11931 H 1129.94 -4.56631 -2.22376 0
M  V30 11932 H 1129.87 -3.67947 -3.76726 0
M  V30 11933 H 1132.36 -2.91409 -2.40602 0
M  V30 11934 H 1132.68 -6.33783 -4.42197 0
M  V30 11935 H 1131.02 -5.69581 -3.9825 0
M  V30 11936 H 1134.21 -3.6627 -2.91485 0
M  V30 11937 H 1134.38 -5.22382 -3.83433 0
M  V30 11938 N 1127.79 1.09952 -1.12909 0
M  V30 11939 C 1129.21 1.34051 -0.866172 0
M  V30 11940 C 1129.41 1.95169 0.501125 0
M  V30 11941 O 1128.46 2.19458 1.24878 0
M  V30 11942 C 1129.78 2.25738 -1.98653 0
M  V30 11943 C 1131.32 2.39261 -2.01799 0
M  V30 11944 C 1131.8 3.3428 -3.13083 0
M  V30 11945 N 1133.29 3.41851 -3.12558 0
M  V30 11946 C 1134.02 4.15358 -3.95304 0
M  V30 11947 N 1133.52 4.91709 -4.88051 0
M  V30 11948 N 1135.31 4.11027 -3.83423 0
M  V30 11949 H 1127.46 0.686521 -2.00999 0
M  V30 11950 H 1129.73 0.364913 -0.874953 0
M  V30 11951 H 1129.43 1.88048 -2.97205 0
M  V30 11952 H 1129.31 3.26085 -1.89601 0
M  V30 11953 H 1131.69 2.76218 -1.03864 0
M  V30 11954 H 1131.78 1.38712 -2.14925 0
M  V30 11955 H 1131.42 2.98048 -4.11254 0
M  V30 11956 H 1131.35 4.34721 -2.97195 0
M  V30 11957 H 1133.84 2.87405 -2.45371 0
M  V30 11958 H 1134.15 5.45212 -5.47689 0
M  V30 11959 H 1132.5 4.90816 -4.92061 0
M  V30 11960 H 1135.69 3.50477 -3.10296 0
M  V30 11961 H 1135.86 4.68054 -4.4814 0
M  V30 11962 N 1129.27 0.921757 1.27833 0
M  V30 11963 C 1130.23 0.420978 2.25301 0
M  V30 11964 C 1131.23 -0.457158 1.54165 0
M  V30 11965 O 1132.42 -0.259079 1.72263 0
M  V30 11966 C 1129.55 -0.395501 3.38598 0
M  V30 11967 H 1130.75 1.28206 2.71115 0
M  V30 11968 H 1128.3 0.701893 1.39654 0
M  V30 11969 H 1129.03 -1.27565 2.98157 0
M  V30 11970 H 1128.82 0.234029 3.91401 0
M  V30 11971 H 1130.31 -0.736444 4.11055 0
M  V30 11972 N 1130.75 -1.41857 0.686609 0
M  V30 11973 C 1131.69 -2.326 0.0041351 0
M  V30 11974 C 1132.69 -1.50474 -0.778077 0
M  V30 11975 O 1133.89 -1.66468 -0.684709 0
M  V30 11976 H 1130.27 -0.751797 -0.0174615 0
M  V30 11977 H 1132.24 -2.87844 0.786656 0
M  V30 11978 C 1130.99 -3.35175 -0.924819 0
M  V30 11979 H 1130.31 -3.98416 -0.332339 0
M  V30 11980 H 1131.75 -4.01229 -1.37082 0
M  V30 11981 C 1130.21 -2.68359 -2.03679 0
M  V30 11982 O 1130.74 -2.52453 -3.12459 0
M  V30 11983 N 1128.95 -2.27196 -1.81192 0
M  V30 11984 H 1128.49 -2.40333 -0.92725 0
M  V30 11985 H 1128.45 -1.82824 -2.55778 0
M  V30 11986 N 1132.22 -0.430739 -1.51599 0
M  V30 11987 C 1133.47 0.137657 -2.01631 0
M  V30 11988 C 1133.79 1.43787 -1.31721 0
M  V30 11989 O 1133.06 1.90668 -0.449717 0
M  V30 11990 H 1131.64 0.0538611 -0.745056 0
M  V30 11991 H 1134.31 -0.571935 -1.86319 0
M  V30 11992 H 1133.4 0.318305 -3.10473 0
M  V30 11993 N 1133.7 1.56767 -0.161869 0
M  V30 11994 C 1135.11 1.83265 0.356466 0
M  V30 11995 C 1135.46 1.08127 1.63716 0
M  V30 11996 O 1134.59 0.33127 2.13849 0
M  V30 11997 C 1135.18 3.32437 0.653521 0
M  V30 11998 C 1133.74 3.59465 1.11633 0
M  V30 11999 C 1132.89 2.76909 0.147204 0
M  V30 12000 H 1135.84 1.53926 -0.386308 0
M  V30 12001 H 1135.86 3.49401 1.50662 0
M  V30 12002 H 1135.37 3.87098 -0.278766 0
M  V30 12003 H 1133.48 3.10206 2.06404 0
M  V30 12004 H 1133.59 4.67853 1.03202 0
M  V30 12005 H 1131.95 2.46457 0.642739 0
M  V30 12006 H 1132.74 3.34346 -0.778938 0
M  V30 12007 N 1135.18 -0.111886 1.57202 0
M  V30 12008 C 1136.11 -1.13796 2.03894 0
M  V30 12009 C 1137.09 -1.4277 0.924696 0
M  V30 12010 O 1138.28 -1.53089 1.19488 0
M  V30 12011 C 1135.41 -2.46229 2.44925 0
M  V30 12012 C 1134.36 -2.31702 3.59859 0
M  V30 12013 C 1133.69 -3.69161 3.86813 0
M  V30 12014 C 1134.99 -1.77158 4.91337 0
M  V30 12015 H 1136.68 -0.749581 2.89865 0
M  V30 12016 H 1134.23 -0.359126 1.3945 0
M  V30 12017 H 1136.18 -3.18267 2.76195 0
M  V30 12018 H 1134.9 -2.86971 1.55933 0
M  V30 12019 H 1133.56 -1.62112 3.28809 0
M  V30 12020 H 1133.21 -4.07401 2.95015 0
M  V30 12021 H 1132.91 -3.60292 4.6418 0
M  V30 12022 H 1134.43 -4.42693 4.20542 0
M  V30 12023 H 1135.85 -2.3902 5.21097 0
M  V30 12024 H 1134.25 -1.79091 5.72753 0
M  V30 12025 H 1135.32 -0.729675 4.79379 0
M  V30 12026 N 1136.66 -1.52894 -0.382264 0
M  V30 12027 C 1138.07 -1.60135 -0.959887 0
M  V30 12028 C 1138.42 -0.458363 -1.90771 0
M  V30 12029 O 1137.55 0.417614 -2.12332 0
M  V30 12030 C 1138.14 -2.90243 -1.74769 0
M  V30 12031 C 1136.7 -2.99874 -2.27491 0
M  V30 12032 C 1135.85 -2.55302 -1.0824 0
M  V30 12033 H 1138.8 -1.57875 -0.161589 0
M  V30 12034 H 1138.82 -2.77108 -2.60751 0
M  V30 12035 H 1138.33 -3.73412 -1.0576 0
M  V30 12036 H 1136.43 -2.21258 -2.99793 0
M  V30 12037 H 1136.54 -4.04643 -2.56516 0
M  V30 12038 H 1134.91 -2.09781 -1.44444 0
M  V30 12039 H 1135.69 -3.40872 -0.407553 0
M  V30 12040 N 1138.14 0.641106 -1.43971 0
M  V30 12041 C 1139.55 1.22254 -1.41106 0
M  V30 12042 C 1139.9 1.95825 -0.121284 0
M  V30 12043 O 1139.02 2.01901 0.77879 0
M  V30 12044 C 1139.62 2.22364 -2.55617 0
M  V30 12045 C 1138.18 2.75957 -2.55978 0
M  V30 12046 C 1137.33 1.50792 -2.32717 0
M  V30 12047 H 1140.28 0.432381 -1.52696 0
M  V30 12048 H 1140.3 3.04775 -2.27799 0
M  V30 12049 H 1139.81 1.68789 -3.49474 0
M  V30 12050 H 1137.91 3.33562 -1.66034 0
M  V30 12051 H 1138.02 3.22676 -3.54142 0
M  V30 12052 H 1136.39 1.7857 -1.81617 0
M  V30 12053 H 1137.17 0.991343 -3.28675 0
M  V30 12054 N 1139.62 1.30703 0.880598 0
M  V30 12055 C 1140.84 1.22843 1.67106 0
M  V30 12056 C 1141.27 -0.204788 1.86982 0
M  V30 12057 O 1140.62 -1.14716 1.40392 0
M  V30 12058 C 1140.67 1.96685 3.02237 0
M  V30 12059 O 1139.78 1.29693 3.91476 0
M  V30 12060 H 1139.12 0.424661 0.51045 0
M  V30 12061 H 1141.65 1.72596 1.09871 0
M  V30 12062 H 1141.66 2.05874 3.52249 0
M  V30 12063 H 1140.33 3.00919 2.8709 0
M  V30 12064 H 1138.91 1.28886 3.49918 0
M  V30 12065 O 1141.13 -1.01687 1.25467 0
M  V30 12066 H 1141.82 -1.63523 1.03826 0
M  V30 END ATOM
M  V30 BEGIN BOND
M  V30 END BOND
M  V30 END CTAB
M  END
$$$$
