drugbank_target|Q03181 Peroxisome proliferator-activated receptor delta (DB00132; DB00159; DB00197; DB00313; DB00374; DB00412; DB00605; DB01393; DB02746; DB03338; DB04224; DB04801; DB05187; DB05188; DB05416; DB07070; DB07691; DB07724; DB08078; DB09006; DB09462; DB13873; DB13961)
 OpenBabel12092119453D

  0  0  0     0  0            999 V3000
M  V30 BEGIN CTAB
M  V30 COUNTS 6998 7069 0 0 0
M  V30 BEGIN ATOM
M  V30 1 H -0.908 1.98254 -0.117106 0
M  V30 2 N 0 1.576 0 0
M  V30 3 C 0.933 2.03868 1.02534 0
M  V30 4 C 1.911 0.928543 1.3348 0
M  V30 5 O 3.095 1.19667 1.45644 0
M  V30 6 C 0.222 2.43627 2.35294 0
M  V30 7 C -0.732 3.65373 2.2001 0
M  V30 8 S 0.101 5.13292 1.52614 0
M  V30 9 C 1.257 5.56322 2.86805 0
M  V30 10 H 1.49 2.90518 0.631377 0
M  V30 11 H -0.977 1.52953 0.210867 0
M  V30 12 H 0.981 2.67203 3.11629 0
M  V30 13 H -0.358 1.57376 2.7183 0
M  V30 14 H -1.165 3.90944 3.18086 0
M  V30 15 H -1.563 3.418 1.51819 0
M  V30 16 H 0.729 5.58782 3.83104 0
M  V30 17 H 1.672 6.56266 2.65933 0
M  V30 18 H 2.08 4.83886 2.90714 0
M  V30 19 N 1.4781 -0.272755 1.55222 0
M  V30 20 C 2.3881 -1.35918 1.91216 0
M  V30 21 C 3.4041 -1.54026 0.809436 0
M  V30 22 O 4.5801 -1.68148 1.10852 0
M  V30 23 C 1.6451 -2.69834 2.17693 0
M  V30 24 C 0.7061 -2.6047 3.41253 0
M  V30 25 C -0.0609 -3.88 3.66458 0
M  V30 26 O 0.1621 -4.88693 2.94169 0
M  V30 27 O -0.9039 -3.88189 4.59992 0
M  V30 28 H 2.9221 -1.0839 2.83699 0
M  V30 29 H 0.5071 -0.471301 1.41771 0
M  V30 30 H 2.3891 -3.49017 2.36147 0
M  V30 31 H 1.0641 -2.97148 1.28392 0
M  V30 32 H -0.0289 -1.79663 3.28134 0
M  V30 33 H 1.3041 -2.38106 4.30774 0
M  V30 34 N 2.9562 -1.48159 -0.537278 0
M  V30 35 C 3.8882 -1.58218 -1.65831 0
M  V30 36 C 4.9012 -0.466948 -1.5596 0
M  V30 37 O 6.0902 -0.73747 -1.62553 0
M  V30 38 C 3.1902 -1.48906 -3.04434 0
M  V30 39 C 2.3632 -2.75343 -3.3986 0
M  V30 40 C 1.4222 -2.59588 -4.57712 0
M  V30 41 O 0.4482 -3.33457 -4.61297 0
M  V30 42 N 1.6502 -1.68724 -5.55439 0
M  V30 43 H 4.4152 -2.54891 -1.57641 0
M  V30 44 H 1.9762 -1.4479 -0.724386 0
M  V30 45 H 3.9682 -1.36072 -3.81139 0
M  V30 46 H 2.5382 -0.602368 -3.06741 0
M  V30 47 H 1.7582 -3.02795 -2.52406 0
M  V30 48 H 3.0462 -3.5924 -3.60311 0
M  V30 49 H 2.4442 -1.07898 -5.55315 0
M  V30 50 H 1.0012 -1.61832 -6.3139 0
M  V30 51 N 4.4343 0.785586 -1.36625 0
M  V30 52 C 5.8453 1.36101 -1.27803 0
M  V30 53 C 6.1963 1.96035 0.0804875 0
M  V30 54 O 5.3213 1.92834 0.982042 0
M  V30 55 C 5.9163 2.47442 -2.31426 0
M  V30 56 C 4.4753 3.00789 -2.26281 0
M  V30 57 C 3.6223 1.73896 -2.15999 0
M  V30 58 H 6.5733 0.586928 -1.47448 0
M  V30 59 H 6.5943 3.2656 -1.95291 0
M  V30 60 H 6.1063 2.03791 -3.30289 0
M  V30 61 H 4.2073 3.48851 -1.30896 0
M  V30 62 H 4.3203 3.57343 -3.19128 0
M  V30 63 H 2.6843 1.9628 -1.62316 0
M  V30 64 H 3.4673 1.32368 -3.16755 0
M  V30 65 N 5.9124 1.20967 1.01018 0
M  V30 66 C 6.8444 0.922059 2.09835 0
M  V30 67 C 7.8574 -0.0927106 1.62536 0
M  V30 68 O 9.0464 0.139127 1.77957 0
M  V30 69 C 6.1464 0.362004 3.36961 0
M  V30 70 C 5.3194 1.42986 4.13369 0
M  V30 71 C 4.3784 0.879976 5.1879 0
M  V30 72 O 3.4044 1.56219 5.47343 0
M  V30 73 N 4.6064 -0.307396 5.79686 0
M  V30 74 H 7.3714 1.8588 2.35093 0
M  V30 75 H 4.9324 1.11422 1.1746 0
M  V30 76 H 6.9244 -0.0201474 4.04695 0
M  V30 77 H 5.4944 -0.479437 3.08902 0
M  V30 78 H 4.7144 1.98608 3.40512 0
M  V30 79 H 6.0024 2.14885 4.61196 0
M  V30 80 H 5.4004 -0.878796 5.58832 0
M  V30 81 H 3.9574 -0.631115 6.48737 0
M  V30 82 N 7.3905 -1.2043 1.01659 0
M  V30 83 C 8.3005 -2.2689 0.596484 0
M  V30 84 C 9.3165 -1.70107 -0.36599 0
M  V30 85 O 10.4925 -2.00117 -0.226942 0
M  V30 86 C 7.5575 -3.4665 -0.0586659 0
M  V30 87 C 6.6185 -4.18662 0.949751 0
M  V30 88 C 5.8515 -5.32705 0.32577 0
M  V30 89 O 6.0745 -5.63656 -0.874509 0
M  V30 90 O 5.0085 -5.92803 1.04249 0
M  V30 91 H 8.8345 -2.65041 1.4828 0
M  V30 92 H 6.4195 -1.27048 0.786082 0
M  V30 93 H 8.3015 -4.19256 -0.424564 0
M  V30 94 H 6.9765 -3.10375 -0.91918 0
M  V30 95 H 5.8835 -3.48229 1.36702 0
M  V30 96 H 7.2165 -4.58878 1.78023 0
M  V30 97 N 8.8686 -0.792821 -1.36206 0
M  V30 98 C 9.7786 -0.194808 -2.3379 0
M  V30 99 C 10.7946 0.654869 -1.61206 0
M  V30 100 O 11.9706 0.569856 -1.9317 0
M  V30 101 C 9.0356 0.657721 -3.40404 0
M  V30 102 C 8.0966 -0.210849 -4.28782 0
M  V30 103 C 7.3296 0.601086 -5.30304 0
M  V30 104 O 7.5526 1.83682 -5.40016 0
M  V30 105 O 6.4866 -0.000808277 -6.019 0
M  V30 106 H 10.3126 -1.00172 -2.86704 0
M  V30 107 H 7.8976 -0.554341 -1.38735 0
M  V30 108 H 9.7796 1.14375 -4.05581 0
M  V30 109 H 8.4546 1.44247 -2.89784 0
M  V30 110 H 7.3616 -0.743714 -3.66633 0
M  V30 111 H 8.6946 -0.959195 -4.82763 0
M  V30 112 N 10.3467 1.47872 -0.545128 0
M  V30 113 C 11.3097 2.28337 0.198717 0
M  V30 114 C 12.3097 1.36255 0.853888 0
M  V30 115 O 13.4997 1.59003 0.711606 0
M  V30 116 C 10.6317 3.15585 1.28915 0
M  V30 117 H 11.8247 2.95567 -0.507941 0
M  V30 118 H 9.3777 1.53362 -0.301616 0
M  V30 119 H 10.1127 2.53019 2.02859 0
M  V30 120 H 9.8977 3.83337 0.824309 0
M  V30 121 H 11.3877 3.76243 1.81194 0
M  V30 122 N 11.8248 0.280983 1.55075 0
M  V30 123 C 13.2358 -0.215629 1.85451 0
M  V30 124 C 13.5868 -1.54991 1.203 0
M  V30 125 O 12.7118 -2.10699 0.493435 0
M  V30 126 C 13.3068 -0.398026 3.36454 0
M  V30 127 C 11.8658 -0.838866 3.66933 0
M  V30 128 C 11.0128 0.064458 2.77225 0
M  V30 129 H 13.9638 0.502601 1.50531 0
M  V30 130 H 13.9848 -1.23569 3.59876 0
M  V30 131 H 13.4968 0.573241 3.83843 0
M  V30 132 H 11.5978 -1.8214 3.25048 0
M  V30 133 H 11.7108 -0.672123 4.74362 0
M  V30 134 H 10.0748 -0.452863 2.50642 0
M  V30 135 H 10.8578 1.03172 3.2743 0
M  V30 136 N 13.3029 -1.57598 0.00835791 0
M  V30 137 C 14.2129 -2.12385 -0.996487 0
M  V30 138 C 15.2289 -1.07108 -1.37127 0
M  V30 139 O 16.4049 -1.39055 -1.4569 0
M  V30 140 C 13.4699 -2.62314 -2.26699 0
M  V30 141 C 12.5309 -3.82225 -1.95456 0
M  V30 142 C 11.7639 -4.29763 -3.16449 0
M  V30 143 O 11.9869 -3.76584 -4.28416 0
M  V30 144 O 10.9209 -5.21832 -2.99958 0
M  V30 145 H 14.7469 -2.98479 -0.560725 0
M  V30 146 H 12.3319 -1.47903 -0.210987 0
M  V30 147 H 14.2139 -2.94589 -3.01322 0
M  V30 148 H 12.8889 -1.79313 -2.69497 0
M  V30 149 H 11.7959 -3.54909 -1.18282 0
M  V30 150 H 13.1289 -4.66324 -1.57489 0
M  V30 151 N 14.781 0.264519 -1.55364 0
M  V30 152 C 16.027 0.99646 -1.76631 0
M  V30 153 C 16.36 1.85632 -0.570478 0
M  V30 154 O 15.635 1.89647 0.43175 0
M  V30 155 C 15.918 1.87187 -3.07625 0
M  V30 156 C 15.771 1.04138 -4.37579 0
M  V30 157 C 17.09 2.85749 -3.34717 0
M  V30 158 H 14.209 0.360841 -0.642622 0
M  V30 159 H 16.851 0.268218 -1.88097 0
M  V30 160 H 15.001 2.49279 -2.9798 0
M  V30 161 H 16.673 0.440517 -4.59192 0
M  V30 162 H 14.916 0.345115 -4.32425 0
M  V30 163 H 15.587 1.68729 -5.2558 0
M  V30 164 H 18.063 2.33793 -3.4421 0
M  V30 165 H 16.939 3.44136 -4.27623 0
M  V30 166 H 17.2 3.61311 -2.54768 0
M  V30 167 N 16.2591 1.48442 0.529413 0
M  V30 168 C 17.6751 1.34575 0.858004 0
M  V30 169 C 17.8751 0.3572 1.98309 0
M  V30 170 O 16.9311 -0.221379 2.51528 0
M  V30 171 C 18.2441 2.74617 1.22499 0
M  V30 172 C 19.7921 2.83109 1.33484 0
M  V30 173 C 20.2671 4.23854 1.73526 0
M  V30 174 N 21.7581 4.2653 1.80628 0
M  V30 175 C 22.4931 5.32372 2.12997 0
M  V30 176 N 21.9891 6.48491 2.43786 0
M  V30 177 N 23.7821 5.19766 2.14008 0
M  V30 178 H 15.9331 2.1133 -0.212925 0
M  V30 179 H 18.1961 0.947439 -0.0326199 0
M  V30 180 H 17.9021 3.4852 0.471905 0
M  V30 181 H 17.7761 3.08177 2.17501 0
M  V30 182 H 20.1631 2.09462 2.0787 0
M  V30 183 H 20.2441 2.53168 0.366027 0
M  V30 184 H 19.8881 4.98018 0.997013 0
M  V30 185 H 19.8181 4.5124 2.71459 0
M  V30 186 H 22.3091 3.42772 1.59108 0
M  V30 187 H 22.6221 7.24993 2.67592 0
M  V30 188 H 20.9671 6.51765 2.41304 0
M  V30 189 H 24.1581 4.28066 1.89412 0
M  V30 190 H 24.3311 6.02354 2.38902 0
M  V30 191 N 17.7372 -0.778329 1.37039 0
M  V30 192 C 18.6472 -1.92253 1.34446 0
M  V30 193 C 19.6632 -1.72267 0.244991 0
M  V30 194 O 20.8392 -1.95615 0.479258 0
M  V30 195 C 17.9042 -3.27282 1.144 0
M  V30 196 C 16.9652 -3.59969 2.33925 0
M  V30 197 C 16.1982 -4.88555 2.14825 0
M  V30 198 O 16.4212 -5.59113 1.12912 0
M  V30 199 O 15.3552 -5.20153 3.02861 0
M  V30 200 H 19.1812 -1.97392 2.30803 0
M  V30 201 H 16.7662 -0.920154 1.17701 0
M  V30 202 H 18.6482 -4.08062 1.05182 0
M  V30 203 H 17.3232 -3.23011 0.211124 0
M  V30 204 H 16.2302 -2.7945 2.48714 0
M  V30 205 H 17.5632 -3.68976 3.25757 0
M  V30 206 N 19.2153 -1.21501 -1.00376 0
M  V30 207 C 20.1253 -0.991447 -2.12621 0
M  V30 208 C 21.1413 0.0568446 -1.73907 0
M  V30 209 O 22.3173 -0.13348 -2.00957 0
M  V30 210 C 19.3823 -0.560312 -3.42142 0
M  V30 211 C 18.4433 -1.68096 -3.95022 0
M  V30 212 C 17.6763 -1.2703 -5.18362 0
M  V30 213 O 17.8993 -0.144438 -5.70217 0
M  V30 214 O 16.8333 -2.08269 -5.64719 0
M  V30 215 H 20.6593 -1.93158 -2.34358 0
M  V30 216 H 18.2443 -0.999999 -1.10997 0
M  V30 217 H 20.1263 -0.329724 -4.20108 0
M  V30 218 H 18.8013 0.351089 -3.2179 0
M  V30 219 H 17.7083 -1.96597 -3.18278 0
M  V30 220 H 19.0413 -2.56983 -4.19786 0
M  V30 221 N 20.6934 1.19889 -1.02296 0
M  V30 222 C 21.6034 2.26571 -0.608508 0
M  V30 223 C 22.6194 1.70299 0.356964 0
M  V30 224 O 23.7954 2.00235 0.216326 0
M  V30 225 C 20.8604 3.46677 0.0402814 0
M  V30 226 C 19.9214 4.18153 -0.97194 0
M  V30 227 C 19.1544 5.32525 -0.354016 0
M  V30 228 O 19.3774 5.64112 0.844604 0
M  V30 229 O 18.3114 5.92242 -1.07391 0
M  V30 230 H 22.1374 2.64251 -1.49684 0
M  V30 231 H 19.7224 1.26629 -0.792809 0
M  V30 232 H 21.6044 4.19475 0.402324 0
M  V30 233 H 20.2794 3.10858 0.902707 0
M  V30 234 H 19.1864 3.47499 -1.38546 0
M  V30 235 H 20.5194 4.57927 -1.80454 0
M  V30 236 N 22.1715 0.800033 1.35784 0
M  V30 237 C 23.0815 0.207204 2.33683 0
M  V30 238 C 24.0975 -0.64631 1.61551 0
M  V30 239 O 25.2735 -0.559604 1.93469 0
M  V30 240 C 22.3385 -0.639659 3.40748 0
M  V30 241 C 21.3995 0.233585 4.28664 0
M  V30 242 C 20.6325 -0.572954 5.30616 0
M  V30 243 O 20.8555 -1.80816 5.40982 0
M  V30 244 O 19.7895 0.0327285 6.01891 0
M  V30 245 H 23.6155 1.01692 2.86169 0
M  V30 246 H 21.2005 0.561691 1.38439 0
M  V30 247 H 23.0825 -1.12223 4.06182 0
M  V30 248 H 21.7575 -1.42708 2.90544 0
M  V30 249 H 20.6645 0.763147 3.66233 0
M  V30 250 H 21.9975 0.984784 4.82248 0
M  V30 251 N 23.6496 -1.47581 0.552962 0
M  V30 252 C 24.5966 -2.29957 -0.197108 0
M  V30 253 C 25.5666 -1.38799 -0.912359 0
M  V30 254 O 26.7516 -1.67761 -0.908888 0
M  V30 255 C 23.8916 -3.22672 -1.22379 0
M  V30 256 C 23.0046 -4.28919 -0.515038 0
M  V30 257 C 22.1396 -5.0879 -1.52664 0
M  V30 258 C 21.1786 -6.06815 -0.802631 0
M  V30 259 N 20.3156 -6.7966 -1.76086 0
M  V30 260 H 25.1556 -2.93578 0.511486 0
M  V30 261 H 22.6926 -1.4471 0.264067 0
M  V30 262 H 24.6506 -3.74845 -1.83159 0
M  V30 263 H 23.2806 -2.60925 -1.90047 0
M  V30 264 H 22.3326 -3.79835 0.207192 0
M  V30 265 H 23.6446 -4.98773 0.0523425 0
M  V30 266 H 22.7986 -5.65091 -2.20809 0
M  V30 267 H 21.5376 -4.38828 -2.12794 0
M  V30 268 H 20.5426 -5.49695 -0.107238 0
M  V30 269 H 21.7676 -6.78784 -0.207135 0
M  V30 270 H 19.7136 -6.12432 -2.35081 0
M  V30 271 H 19.6306 -7.45669 -1.24552 0
M  V30 272 H 20.8986 -7.40538 -2.43359 0
M  V30 273 N 25.1277 -0.289203 -1.54924 0
M  V30 274 C 26.0377 0.601863 -2.26748 0
M  V30 275 C 27.0537 1.15834 -1.2984 0
M  V30 276 O 28.2297 1.18564 -1.62802 0
M  V30 277 C 25.2947 1.76299 -2.98529 0
M  V30 278 C 24.3557 1.24178 -4.10948 0
M  V30 279 C 23.5887 2.34757 -4.79296 0
M  V30 280 O 23.8117 3.54411 -4.46933 0
M  V30 281 O 22.7457 2.02115 -5.66951 0
M  V30 282 H 26.5717 0.0195879 -3.03694 0
M  V30 283 H 24.1567 -0.0560868 -1.49295 0
M  V30 284 H 26.0387 2.43973 -3.43592 0
M  V30 285 H 24.7137 2.33209 -2.24488 0
M  V30 286 H 23.6207 0.531104 -3.70311 0
M  V30 287 H 24.9537 0.718252 -4.86931 0
M  V30 288 N 26.6058 1.57591 -0.0167156 0
M  V30 289 C 27.5158 2.1291 0.98521 0
M  V30 290 C 28.5318 1.07834 1.36557 0
M  V30 291 O 29.7078 1.39826 1.44951 0
M  V30 292 C 26.7728 2.63512 2.25305 0
M  V30 293 C 25.8338 3.83256 1.93426 0
M  V30 294 C 25.0668 4.31435 3.14165 0
M  V30 295 O 25.2898 3.78851 4.26413 0
M  V30 296 O 24.2238 5.23416 2.97186 0
M  V30 297 H 28.0498 2.98772 0.544888 0
M  V30 298 H 25.6348 1.48012 0.203141 0
M  V30 299 H 27.5168 2.96183 2.99756 0
M  V30 300 H 26.1918 1.8074 2.68542 0
M  V30 301 H 25.0988 3.55531 1.16398 0
M  V30 302 H 26.4318 4.67153 1.55013 0
M  V30 303 N 28.0839 -0.256276 1.55502 0
M  V30 304 C 29.3299 -0.987079 1.77157 0
M  V30 305 C 29.6629 -1.85327 0.580315 0
M  V30 306 O 28.9379 -1.89874 -0.421686 0
M  V30 307 C 29.2209 -1.85553 3.08613 0
M  V30 308 C 29.0739 -1.01816 4.38125 0
M  V30 309 C 30.3929 -2.8397 3.36228 0
M  V30 310 H 27.5119 -0.357428 0.644526 0
M  V30 311 H 30.1539 -0.258239 1.88237 0
M  V30 312 H 28.3039 -2.47695 2.99298 0
M  V30 313 H 29.9759 -0.416159 4.59419 0
M  V30 314 H 28.2189 -0.322178 4.32602 0
M  V30 315 H 28.8899 -1.65939 5.26468 0
M  V30 316 H 31.3659 -2.31964 3.45445 0
M  V30 317 H 30.2419 -3.41864 4.29442 0
M  V30 318 H 30.5029 -3.59955 2.56681 0
M  V30 319 N 29.562 -1.4872 -0.521534 0
M  V30 320 C 30.525 -1.63379 -1.60748 0
M  V30 321 C 31.525 -0.50661 -1.52611 0
M  V30 322 O 32.715 -0.772601 -1.5613 0
M  V30 323 C 29.847 -1.61192 -3.00383 0
M  V30 324 H 31.04 -2.60217 -1.49087 0
M  V30 325 H 28.593 -1.37444 -0.744235 0
M  V30 326 H 29.328 -0.65863 -3.17541 0
M  V30 327 H 29.113 -2.43032 -3.07698 0
M  V30 328 H 30.603 -1.7466 -3.7932 0
M  V30 329 N 31.0401 0.771051 -1.3745 0
M  V30 330 C 31.9501 1.91538 -1.35464 0
M  V30 331 C 32.9661 1.72134 -0.254123 0
M  V30 332 O 34.1421 1.95358 -0.489626 0
M  V30 333 C 31.2071 3.26671 -1.16134 0
M  V30 334 C 30.2681 3.58723 -2.35831 0
M  V30 335 C 29.5011 4.87409 -2.17413 0
M  V30 336 O 29.7241 5.58506 -1.15876 0
M  V30 337 O 28.6581 5.18539 -3.05615 0
M  V30 338 H 32.4841 1.96165 -2.31847 0
M  V30 339 H 30.0691 0.9139 -1.18187 0
M  V30 340 H 31.9511 4.07499 -1.07345 0
M  V30 341 H 30.6261 3.22894 -0.228251 0
M  V30 342 H 29.5331 2.78127 -2.50192 0
M  V30 343 H 30.8661 3.67243 -3.27709 0
M  V30 344 N 32.5182 1.22032 0.997298 0
M  V30 345 C 33.4812 0.987909 2.06816 0
M  V30 346 C 34.4812 -0.0440084 1.6074 0
M  V30 347 O 35.6712 0.194053 1.73116 0
M  V30 348 C 32.8032 0.49132 3.37341 0
M  V30 349 H 33.9962 1.93803 2.28868 0
M  V30 350 H 31.5492 1.03838 1.16822 0
M  V30 351 H 32.2842 -0.463364 3.20973 0
M  V30 352 H 32.0692 1.23575 3.72118 0
M  V30 353 H 33.5592 0.348824 4.16141 0
M  V30 354 N 33.9963 -1.19345 1.0293 0
M  V30 355 C 34.9063 -2.26245 0.620515 0
M  V30 356 C 35.9223 -1.70486 -0.347928 0
M  V30 357 O 37.0983 -2.00347 -0.205704 0
M  V30 358 C 34.1633 -3.46693 -0.0218957 0
M  V30 359 C 33.2243 -4.17632 0.994102 0
M  V30 360 C 32.4573 -5.32329 0.382253 0
M  V30 361 O 32.6803 -5.64552 -0.814676 0
M  V30 362 O 31.6143 -5.91664 1.10531 0
M  V30 363 H 35.4403 -2.63453 1.51083 0
M  V30 364 H 33.0253 -1.26207 0.799513 0
M  V30 365 H 34.9073 -4.19683 -0.380072 0
M  V30 366 H 33.5823 -3.11333 -0.886209 0
M  V30 367 H 32.4893 -3.4676 1.40387 0
M  V30 368 H 33.8223 -4.56964 1.8288 0
M  V30 369 N 35.4744 -0.807222 -1.35358 0
M  V30 370 C 36.7224 -0.387122 -1.98358 0
M  V30 371 C 37.0434 1.04942 -1.64354 0
M  V30 372 O 36.3134 1.72615 -0.926339 0
M  V30 373 H 34.8934 -0.140154 -0.733734 0
M  V30 374 H 37.5554 -1.0332 -1.6526 0
M  V30 375 H 36.6514 -0.493352 -3.08176 0
M  V30 376 N 36.9525 1.47285 -0.560781 0
M  V30 377 C 37.9155 2.28535 0.174488 0
M  V30 378 C 38.9155 1.37153 0.839388 0
M  V30 379 O 40.1055 1.59748 0.694702 0
M  V30 380 C 37.2375 3.16934 1.25561 0
M  V30 381 H 38.4305 2.95012 -0.539262 0
M  V30 382 H 35.9835 1.53034 -0.317865 0
M  V30 383 H 36.7185 2.55157 2.00164 0
M  V30 384 H 36.5035 3.8419 0.783604 0
M  V30 385 H 37.9935 3.78143 1.77193 0
M  V30 386 N 38.4306 0.297415 1.54768 0
M  V30 387 C 39.8416 -0.195947 1.85669 0
M  V30 388 C 40.1926 -1.53707 1.21937 0
M  V30 389 O 39.3176 -2.10164 0.515754 0
M  V30 390 C 39.9126 -0.362318 3.36857 0
M  V30 391 C 38.4716 -0.799901 3.67802 0
M  V30 392 C 37.6186 0.0938578 2.77141 0
M  V30 393 H 40.5696 0.518538 1.4999 0
M  V30 394 H 40.5906 -1.19745 3.61167 0
M  V30 395 H 40.1026 0.613921 3.83214 0
M  V30 396 H 38.2036 -1.78682 3.26961 0
M  V30 397 H 38.3166 -0.621773 4.75048 0
M  V30 398 H 36.6806 -0.426254 2.51108 0
M  V30 399 H 37.4636 1.06639 3.26318 0
M  V30 400 N 39.9087 -1.5758 0.0250728 0
M  V30 401 C 40.8187 -2.1343 -0.973905 0
M  V30 402 C 41.8347 -1.08556 -1.35984 0
M  V30 403 O 43.0107 -1.40592 -1.44207 0
M  V30 404 C 40.0757 -2.64703 -2.23904 0
M  V30 405 C 39.1367 -3.84276 -1.91391 0
M  V30 406 C 38.3697 -4.33095 -3.11873 0
M  V30 407 O 38.5927 -3.81107 -4.24398 0
M  V30 408 O 37.5267 -5.24984 -2.94406 0
M  V30 409 H 41.3527 -2.99057 -0.529036 0
M  V30 410 H 38.9377 -1.48118 -0.195288 0
M  V30 411 H 40.8197 -2.97769 -2.98181 0
M  V30 412 H 39.4947 -1.82161 -2.6758 0
M  V30 413 H 38.4017 -3.56143 -1.14511 0
M  V30 414 H 39.7347 -4.67968 -1.52534 0
M  V30 415 N 41.3868 0.248026 -1.55636 0
M  V30 416 C 42.3168 1.31079 -1.93237 0
M  V30 417 C 43.2978 1.50264 -0.797174 0
M  V30 418 O 44.4828 1.62891 -1.05737 0
M  V30 419 C 41.6128 2.66575 -2.22609 0
M  V30 420 C 40.5668 2.62087 -3.3837 0
M  V30 421 C 39.8928 4.01369 -3.53281 0
M  V30 422 C 41.1928 2.19171 -4.7409 0
M  V30 423 H 42.8868 0.998556 -2.82257 0
M  V30 424 H 40.4328 0.47891 -1.35803 0
M  V30 425 H 42.3858 3.41057 -2.47503 0
M  V30 426 H 41.1098 2.99432 -1.30414 0
M  V30 427 H 39.7688 1.90063 -3.13483 0
M  V30 428 H 39.4168 4.31489 -2.58508 0
M  V30 429 H 39.1168 3.99254 -4.31127 0
M  V30 430 H 40.6408 4.77552 -3.80495 0
M  V30 431 H 42.0548 2.83384 -4.98363 0
M  V30 432 H 40.4518 2.2817 -5.5503 0
M  V30 433 H 41.5218 1.14336 -4.71227 0
M  V30 434 N 42.8649 1.48995 0.513639 0
M  V30 435 C 43.8129 1.65199 1.63744 0
M  V30 436 C 44.8069 0.51809 1.61283 0
M  V30 437 O 46.0129 0.697335 1.65943 0
M  V30 438 H 42.3879 0.52069 0.542574 0
M  V30 439 H 44.3589 2.59552 1.47226 0
M  V30 440 C 43.1079 1.72409 3.01945 0
M  V30 441 H 42.4309 2.59029 3.04539 0
M  V30 442 H 43.8709 1.87785 3.80148 0
M  V30 443 C 42.3299 0.46618 3.33659 0
M  V30 444 O 42.8599 -0.413744 3.99564 0
M  V30 445 N 41.0659 0.332931 2.88687 0
M  V30 446 H 40.6129 1.04996 2.35231 0
M  V30 447 H 40.5709 -0.507665 3.10274 0
M  V30 448 N 44.343 -0.763751 1.37857 0
M  V30 449 C 45.591 -1.51957 1.33243 0
M  V30 450 C 45.912 -1.94835 -0.0801709 0
M  V30 451 O 45.182 -1.66894 -1.02582 0
M  V30 452 H 43.762 -0.563626 0.49024 0
M  V30 453 H 46.424 -0.908504 1.7243 0
M  V30 454 H 45.52 -2.41523 1.97669 0
M  V30 455 N 45.8211 -1.22559 -0.990812 0
M  V30 456 C 47.0691 -1.04933 -1.72724 0
M  V30 457 C 47.3901 0.416158 -1.90508 0
M  V30 458 O 46.6601 1.29918 -1.46622 0
M  V30 459 H 45.2401 -0.385296 -0.639965 0
M  V30 460 H 47.9021 -1.54105 -1.19322 0
M  V30 461 H 46.9981 -1.52886 -2.72089 0
M  V30 462 N 47.2992 1.18797 -1.03562 0
M  V30 463 C 48.7102 1.70322 -0.764676 0
M  V30 464 C 49.0612 1.82708 0.714996 0
M  V30 465 O 48.1862 1.50299 1.55689 0
M  V30 466 C 48.7812 3.09356 -1.38145 0
M  V30 467 C 47.3402 3.58114 -1.15895 0
M  V30 468 C 46.4872 2.34798 -1.4753 0
M  V30 469 H 49.4382 1.03543 -1.20268 0
M  V30 470 H 49.4592 3.72378 -0.781977 0
M  V30 471 H 48.9712 3.00309 -2.45837 0
M  V30 472 H 47.0722 3.72464 -0.100544 0
M  V30 473 H 47.1852 4.4184 -1.8524 0
M  V30 474 H 45.5492 2.38464 -0.894829 0
M  V30 475 H 46.3322 2.28375 -2.56319 0
M  V30 476 N 48.7773 0.814389 1.34928 0
M  V30 477 C 49.7093 0.187834 2.28429 0
M  V30 478 C 50.7223 -0.617374 1.5064 0
M  V30 479 O 51.9113 -0.448454 1.72775 0
M  V30 480 C 49.0113 -0.755962 3.30361 0
M  V30 481 C 48.1843 0.00456686 4.374 0
M  V30 482 C 47.2433 -0.858876 5.19143 0
M  V30 483 O 46.2693 -0.306968 5.68372 0
M  V30 484 N 47.4713 -2.17988 5.38016 0
M  V30 485 H 50.2363 0.991105 2.82838 0
M  V30 486 H 47.7973 0.670561 1.4736 0
M  V30 487 H 49.7893 -1.338 3.81942 0
M  V30 488 H 48.3593 -1.46001 2.7641 0
M  V30 489 H 47.5793 0.767865 3.86649 0
M  V30 490 H 48.8673 0.528422 5.06049 0
M  V30 491 H 48.2653 -2.65212 4.99679 0
M  V30 492 H 46.8223 -2.71098 5.92747 0
M  V30 493 N 50.2554 -1.46986 0.568584 0
M  V30 494 C 51.2054 -2.27179 -0.193339 0
M  V30 495 C 52.1894 -1.35035 -0.874895 0
M  V30 496 O 53.3814 -1.5931 -0.771322 0
M  V30 497 C 50.5104 -3.21063 -1.21546 0
M  V30 498 C 49.5964 -4.2069 -0.536738 0
M  V30 499 N 49.9874 -5.04218 0.399673 0
M  V30 500 C 48.2854 -4.38961 -0.789254 0
M  V30 501 C 48.9864 -5.76242 0.795017 0
M  V30 502 N 47.9624 -5.434 0.1473 0
M  V30 503 H 51.7644 -2.89146 0.526458 0
M  V30 504 H 49.2784 -1.57664 0.389342 0
M  V30 505 H 51.2754 -3.77209 -1.77536 0
M  V30 506 H 49.9354 -2.60654 -1.93623 0
M  V30 507 H 50.9464 -5.12077 0.774454 0
M  V30 508 H 47.6234 -3.89713 -1.49767 0
M  V30 509 H 49.0134 -6.53417 1.56513 0
M  V30 510 N 51.7335 -0.305618 -1.54608 0
M  V30 511 C 52.6965 0.555591 -2.22364 0
M  V30 512 C 53.6965 1.05768 -1.21119 0
M  V30 513 O 54.8865 0.952972 -1.45822 0
M  V30 514 C 52.0185 1.76974 -2.91364 0
M  V30 515 H 53.2115 -0.0364572 -2.99878 0
M  V30 516 H 50.7645 -0.0565007 -1.56198 0
M  V30 517 H 51.4995 2.40151 -2.17941 0
M  V30 518 H 51.2845 1.41732 -3.65588 0
M  V30 519 H 52.7745 2.38148 -3.43038 0
M  V30 520 N 53.2116 1.57565 -0.0334293 0
M  V30 521 C 54.1416 2.13511 0.945265 0
M  V30 522 C 55.1226 1.05231 1.33643 0
M  V30 523 O 56.3076 1.33084 1.41429 0
M  V30 524 C 53.4376 2.6657 2.22616 0
M  V30 525 C 52.3916 3.79676 1.97561 0
M  V30 526 C 51.7176 4.1918 3.31952 0
M  V30 527 C 53.0176 5.0557 1.31135 0
M  V30 528 H 54.7116 2.95538 0.479325 0
M  V30 529 H 52.2576 1.42166 0.229115 0
M  V30 530 H 54.2106 3.04344 2.91466 0
M  V30 531 H 52.9346 1.8171 2.71384 0
M  V30 532 H 51.5936 3.42347 1.31127 0
M  V30 533 H 51.2416 3.31296 3.78487 0
M  V30 534 H 50.9416 4.95402 3.15992 0
M  V30 535 H 52.4656 4.59541 4.02063 0
M  V30 536 H 53.8796 5.40903 1.89992 0
M  V30 537 H 52.2766 5.86818 1.25559 0
M  V30 538 H 53.3466 4.84062 0.284894 0
M  V30 539 N 54.6897 -0.239769 1.55765 0
M  V30 540 C 56.1007 -0.808263 1.68297 0
M  V30 541 C 56.4517 -1.85736 0.632181 0
M  V30 542 O 55.5767 -2.15277 -0.220204 0
M  V30 543 C 56.1717 -1.47284 3.05111 0
M  V30 544 C 54.7307 -1.98895 3.19559 0
M  V30 545 C 53.8777 -0.842575 2.64189 0
M  V30 546 H 56.8287 -0.0154422 1.58692 0
M  V30 547 H 56.8497 -2.34111 2.99954 0
M  V30 548 H 56.3617 -0.709053 3.81568 0
M  V30 549 H 54.4627 -2.78132 2.47938 0
M  V30 550 H 54.5757 -2.18143 4.26556 0
M  V30 551 H 52.9397 -1.24501 2.22197 0
M  V30 552 H 53.7227 -0.0917552 3.43177 0
M  V30 553 N 56.1678 -1.49265 -0.50573 0
M  V30 554 C 57.3928 -1.62478 -1.28902 0
M  V30 555 C 57.8178 -0.294332 -1.85783 0
M  V30 556 O 57.1758 0.737412 -1.65626 0
M  V30 557 C 57.2238 -2.69268 -2.39848 0
M  V30 558 O 56.3278 -2.28113 -3.43567 0
M  V30 559 H 55.6688 -0.54399 -0.380751 0
M  V30 560 H 58.1988 -1.95421 -0.605952 0
M  V30 561 H 58.2088 -2.91291 -2.85681 0
M  V30 562 H 56.8838 -3.65846 -1.97812 0
M  V30 563 H 55.4608 -2.16401 -3.03685 0
M  V30 564 N 57.6459 0.756429 -1.3826 0
M  V30 565 C 58.8709 1.55077 -1.37717 0
M  V30 566 C 59.2959 1.88073 0.03164 0
M  V30 567 O 58.6539 1.50364 1.01293 0
M  V30 568 C 58.7019 2.8283 -2.23695 0
M  V30 569 O 57.8059 3.77862 -1.6521 0
M  V30 570 H 57.1469 0.469152 -0.469885 0
M  V30 571 H 59.6769 0.935019 -1.81985 0
M  V30 572 H 59.6869 3.31783 -2.37453 0
M  V30 573 H 58.3619 2.58144 -3.2609 0
M  V30 574 H 56.9389 3.36555 -1.60578 0
M  V30 575 N 59.124 1.23083 0.984299 0
M  V30 576 C 60.349 1.088 1.76571 0
M  V30 577 C 60.774 -0.356657 1.84688 0
M  V30 578 O 60.132 -1.25788 1.30565 0
M  V30 579 C 60.18 1.71371 3.17277 0
M  V30 580 O 59.284 0.973213 4.00752 0
M  V30 581 H 58.625 0.381599 0.543395 0
M  V30 582 H 61.155 1.63057 1.23587 0
M  V30 583 H 61.165 1.76449 3.67872 0
M  V30 584 H 59.84 2.76493 3.10684 0
M  V30 585 H 58.417 0.999078 3.59267 0
M  V30 586 N 60.6021 -1.18246 1.0419 0
M  V30 587 C 61.8321 -1.91916 0.764961 0
M  V30 588 C 62.2401 -1.76485 -0.681898 0
M  V30 589 O 61.5831 -1.09275 -1.47664 0
M  V30 590 C 61.6451 -3.4373 1.05309 0
M  V30 591 C 61.3091 -3.8294 2.4941 0
M  V30 592 C 62.3061 -3.86621 3.47592 0
M  V30 593 C 59.9911 -4.142 2.84155 0
M  V30 594 C 61.9851 -4.21013 4.78568 0
M  V30 595 C 59.6721 -4.48262 4.15337 0
M  V30 596 C 60.6701 -4.51645 5.12353 0
M  V30 597 O 60.3581 -4.84911 6.41183 0
M  V30 598 H 60.0901 -0.61606 0.278292 0
M  V30 599 H 62.6441 -1.50947 1.39299 0
M  V30 600 H 60.8741 -3.84946 0.367933 0
M  V30 601 H 62.5631 -3.9865 0.763752 0
M  V30 602 H 63.3291 -3.62607 3.22089 0
M  V30 603 H 59.2081 -4.10743 2.09311 0
M  V30 604 H 62.7521 -4.23568 5.54289 0
M  V30 605 H 58.6491 -4.71737 4.40607 0
M  V30 606 H 59.4171 -5.02809 6.45852 0
M  V30 607 N 62.0802 -0.821533 -1.34494 0
M  V30 608 C 63.3082 -0.421884 -2.02553 0
M  V30 609 C 63.7232 0.971745 -1.61872 0
M  V30 610 O 63.0802 1.62864 -0.823496 0
M  V30 611 C 63.1312 -0.51285 -3.57844 0
M  V30 612 O 62.8522 -1.85155 -3.97051 0
M  V30 613 C 64.3532 -0.107921 -4.43169 0
M  V30 614 H 61.5732 -0.169482 -0.649243 0
M  V30 615 H 64.1172 -1.1093 -1.71798 0
M  V30 616 H 62.2722 0.126474 -3.87193 0
M  V30 617 H 62.6862 -1.82482 -4.91732 0
M  V30 618 H 64.1602 -0.222657 -5.51551 0
M  V30 619 H 64.6372 0.948401 -4.28838 0
M  V30 620 H 65.2432 -0.720989 -4.19144 0
M  V30 621 N 63.5583 1.46682 -0.576371 0
M  V30 622 C 64.8353 1.95599 0.00703437 0
M  V30 623 C 65.2153 1.51904 1.46589 0
M  V30 624 O 64.5633 0.766755 2.15251 0
M  V30 625 C 64.7733 3.4864 -0.158404 0
M  V30 626 C 66.1213 4.24594 -0.0229439 0
M  V30 627 O 67.1453 3.56094 -0.0869173 0
M  V30 628 O 66.0043 5.46373 0.118015 0
M  V30 629 H 63.0983 0.825275 0.053384 0
M  V30 630 H 65.6443 1.56996 -0.644244 0
M  V30 631 H 64.4163 3.7331 -1.17282 0
M  V30 632 H 64.0393 3.94057 0.5296 0
M  V30 633 N 65.0364 0.313813 1.54444 0
M  V30 634 C 65.9664 -0.549454 2.26943 0
M  V30 635 C 66.9474 -1.12741 1.27372 0
M  V30 636 O 68.1324 -1.15436 1.56167 0
M  V30 637 C 65.2624 -1.71523 3.01989 0
M  V30 638 C 64.2164 -1.26703 4.08816 0
M  V30 639 C 63.5424 -2.51898 4.71647 0
M  V30 640 C 64.8424 -0.388962 5.2085 0
M  V30 641 H 66.5364 0.0552661 2.99349 0
M  V30 642 H 64.0824 0.0280207 1.43973 0
M  V30 643 H 66.0354 -2.32535 3.51433 0
M  V30 644 H 64.7594 -2.34639 2.27183 0
M  V30 645 H 63.4184 -0.679896 3.6024 0
M  V30 646 H 63.0664 -3.13356 3.93468 0
M  V30 647 H 62.7664 -2.22605 5.43802 0
M  V30 648 H 64.2904 -3.1369 5.23861 0
M  V30 649 H 65.7044 -0.905107 5.6611 0
M  V30 650 H 64.1014 -0.18924 5.99802 0
M  V30 651 H 65.1714 0.582699 4.81386 0
M  V30 652 N 66.5145 -1.57545 0.0417849 0
M  V30 653 C 67.7395 -1.97035 -0.647455 0
M  V30 654 C 68.1645 -0.918775 -1.64135 0
M  V30 655 O 67.5225 0.119006 -1.80909 0
M  V30 656 C 67.5705 -3.35609 -1.31905 0
M  V30 657 O 66.6745 -3.3287 -2.43457 0
M  V30 658 H 66.0155 -0.64211 -0.169086 0
M  V30 659 H 68.5455 -2.04318 0.107399 0
M  V30 660 H 68.5555 -3.72126 -1.67291 0
M  V30 661 H 67.2305 -4.11685 -0.590586 0
M  V30 662 H 65.8075 -3.08087 -2.10088 0
M  V30 663 N 67.9926 0.231505 -1.5589 0
M  V30 664 C 69.4086 0.580748 -1.48659 0
M  V30 665 C 69.6086 1.87617 -0.73498 0
M  V30 666 O 68.6646 2.51046 -0.270586 0
M  V30 667 C 69.9776 0.669202 -2.93159 0
M  V30 668 C 71.5256 0.760499 -3.03621 0
M  V30 669 C 72.0006 0.880383 -4.49459 0
M  V30 670 N 73.4916 0.944861 -4.53461 0
M  V30 671 C 74.2266 1.05716 -5.63571 0
M  V30 672 N 73.7226 1.13403 -6.83456 0
M  V30 673 N 75.5156 1.09152 -5.514 0
M  V30 674 H 67.6666 -0.618695 -2.03189 0
M  V30 675 H 69.9296 -0.215728 -0.923128 0
M  V30 676 H 69.6356 -0.212904 -3.51055 0
M  V30 677 H 69.5096 1.5361 -3.44505 0
M  V30 678 H 71.8966 1.63305 -2.45796 0
M  V30 679 H 71.9776 -0.131864 -2.5546 0
M  V30 680 H 71.6216 0.0123284 -5.07899 0
M  V30 681 H 71.5516 1.78802 -4.95316 0
M  V30 682 H 74.0426 0.896176 -3.6712 0
M  V30 683 H 74.3556 1.21921 -7.63122 0
M  V30 684 H 72.7006 1.10333 -6.86186 0
M  V30 685 H 75.8916 1.02805 -4.56671 0
M  V30 686 H 76.0646 1.17558 -6.37247 0
M  V30 687 N 69.4707 1.49531 0.497807 0
M  V30 688 C 70.6957 1.63159 1.28039 0
M  V30 689 C 71.1207 0.30418 1.85624 0
M  V30 690 O 70.4787 -0.728618 1.66015 0
M  V30 691 C 70.5267 2.70537 2.38416 0
M  V30 692 O 69.6307 2.29931 3.42353 0
M  V30 693 H 68.9717 0.546001 0.377861 0
M  V30 694 H 71.5017 1.9574 0.59558 0
M  V30 695 H 71.5117 2.92802 2.84132 0
M  V30 696 H 70.1867 3.6689 1.95869 0
M  V30 697 H 68.7637 2.18009 3.02533 0
M  V30 698 N 70.9488 -0.749086 1.3866 0
M  V30 699 C 72.1738 -1.54344 1.38538 0
M  V30 700 C 72.5988 -1.88088 -0.0216655 0
M  V30 701 O 71.9568 -1.50899 -1.00494 0
M  V30 702 C 72.0048 -2.8164 2.25192 0
M  V30 703 O 71.1088 -3.7698 1.67212 0
M  V30 704 H 70.4498 -0.466654 0.472367 0
M  V30 705 H 72.9798 -0.925355 1.82478 0
M  V30 706 H 72.9898 -3.30519 2.3921 0
M  V30 707 H 71.6648 -2.56411 3.27454 0
M  V30 708 H 70.2418 -3.35699 1.6236 0
M  V30 709 N 72.4269 -1.23603 -0.977757 0
M  V30 710 C 73.6519 -1.09735 -1.75991 0
M  V30 711 C 74.0769 0.346858 -1.84874 0
M  V30 712 O 73.4349 1.25093 -1.3123 0
M  V30 713 C 73.4829 -1.73051 -3.16363 0
M  V30 714 O 72.5869 -0.994452 -4.0023 0
M  V30 715 H 71.9279 -0.384476 -0.541364 0
M  V30 716 H 74.4579 -1.6371 -1.2272 0
M  V30 717 H 74.4679 -1.78398 -3.66931 0
M  V30 718 H 73.1429 -2.78137 -3.09213 0
M  V30 719 H 71.7199 -1.01812 -3.58732 0
M  V30 720 N 73.905 1.17692 -1.04816 0
M  V30 721 C 75.316 1.69501 -0.782698 0
M  V30 722 C 75.667 1.83456 0.695577 0
M  V30 723 O 74.792 1.51942 1.54086 0
M  V30 724 C 75.387 3.07874 -1.41419 0
M  V30 725 C 73.946 3.56864 -1.19686 0
M  V30 726 C 73.093 2.3322 -1.50012 0
M  V30 727 H 76.044 1.02262 -1.2136 0
M  V30 728 H 76.065 3.71528 -0.821428 0
M  V30 729 H 75.577 2.97685 -2.49009 0
M  V30 730 H 73.678 3.72337 -0.140043 0
M  V30 731 H 73.791 4.39851 -1.89916 0
M  V30 732 H 72.155 2.37501 -0.920071 0
M  V30 733 H 72.938 2.25644 -2.58727 0
M  V30 734 N 75.3831 0.828654 1.34056 0
M  V30 735 C 76.7941 0.477534 1.8049 0
M  V30 736 C 77.1451 -1.00258 1.6865 0
M  V30 737 O 76.2701 -1.78057 1.22982 0
M  V30 738 C 76.8651 0.860018 3.27703 0
M  V30 739 C 75.4241 0.561185 3.72193 0
M  V30 740 C 74.5711 1.07385 2.55663 0
M  V30 741 H 77.5221 1.0183 1.21722 0
M  V30 742 H 77.5431 0.166038 3.80138 0
M  V30 743 H 77.0551 1.93731 3.36288 0
M  V30 744 H 75.1561 -0.506465 3.69142 0
M  V30 745 H 75.2691 1.10926 4.66082 0
M  V30 746 H 73.6331 0.495149 2.49841 0
M  V30 747 H 74.4161 2.15771 2.67016 0
M  V30 748 N 76.8612 -1.46375 0.584142 0
M  V30 749 C 78.0862 -2.07268 0.0740405 0
M  V30 750 C 78.5112 -1.42979 -1.22223 0
M  V30 751 O 77.8692 -0.514092 -1.73859 0
M  V30 752 C 77.9172 -3.60518 -0.0767769 0
M  V30 753 O 77.0212 -3.96533 -1.13292 0
M  V30 754 H 76.3622 -0.660961 0.0634524 0
M  V30 755 H 78.8922 -1.87991 0.807492 0
M  V30 756 H 78.9022 -4.07021 -0.282489 0
M  V30 757 H 77.5772 -4.06702 0.86986 0
M  V30 758 H 76.1542 -3.61738 -0.905553 0
M  V30 759 N 78.3393 -0.321999 -1.54275 0
M  V30 760 C 79.2693 0.537411 -2.27231 0
M  V30 761 C 80.2503 1.12064 -1.27968 0
M  V30 762 O 81.4353 1.14606 -1.56777 0
M  V30 763 C 78.5653 1.69919 -3.02894 0
M  V30 764 C 77.5193 1.24534 -4.09482 0
M  V30 765 C 76.8453 2.49394 -4.72977 0
M  V30 766 C 78.1453 0.361335 -5.21049 0
M  V30 767 H 79.8393 -0.0711406 -2.99315 0
M  V30 768 H 77.3853 -0.0356555 -1.43956 0
M  V30 769 H 79.3383 2.30668 -3.52662 0
M  V30 770 H 78.0623 2.33431 -2.28424 0
M  V30 771 H 76.7213 0.660782 -3.60596 0
M  V30 772 H 76.3693 3.11265 -3.95124 0
M  V30 773 H 76.0693 2.19718 -5.44975 0
M  V30 774 H 77.5933 3.10908 -5.25517 0
M  V30 775 H 79.0073 0.875072 -5.66582 0
M  V30 776 H 77.4043 0.157428 -5.99893 0
M  V30 777 H 78.4743 -0.60822 -4.8107 0
M  V30 778 N 79.8174 1.5752 -0.0501392 0
M  V30 779 C 80.7474 2.14502 0.922566 0
M  V30 780 C 81.7284 1.06642 1.3252 0
M  V30 781 O 82.9134 1.34577 1.4001 0
M  V30 782 C 80.0434 2.68916 2.19776 0
M  V30 783 C 78.9974 3.8175 1.93523 0
M  V30 784 C 78.3234 4.22677 3.27487 0
M  V30 785 C 79.6234 5.06932 1.25765 0
M  V30 786 H 81.3174 2.9603 0.447952 0
M  V30 787 H 78.8634 1.42401 0.214024 0
M  V30 788 H 80.8164 3.07419 2.88222 0
M  V30 789 H 79.5404 1.84578 2.69441 0
M  V30 790 H 78.1994 3.43718 1.27489 0
M  V30 791 H 77.8474 3.35291 3.74952 0
M  V30 792 H 77.5474 4.98725 3.1072 0
M  V30 793 H 79.0714 4.63779 3.97166 0
M  V30 794 H 80.4854 5.42888 1.84244 0
M  V30 795 H 78.8824 5.88116 1.19328 0
M  V30 796 H 79.9524 4.84337 0.233536 0
M  V30 797 N 81.2955 -0.223234 1.56011 0
M  V30 798 C 82.5725 -0.972108 1.69733 0
M  V30 799 C 82.9525 -2.02485 0.59691 0
M  V30 800 O 82.3005 -2.25037 -0.396324 0
M  V30 801 C 82.5105 -1.58407 3.10979 0
M  V30 802 C 83.8585 -2.07696 3.70334 0
M  V30 803 O 84.8825 -1.68304 3.1393 0
M  V30 804 O 83.7415 -2.80096 4.69264 0
M  V30 805 H 80.8355 -0.453993 0.691245 0
M  V30 806 H 83.3815 -0.215149 1.68331 0
M  V30 807 H 82.1535 -0.823831 3.82529 0
M  V30 808 H 81.7765 -2.40661 3.16493 0
M  V30 809 N 82.7736 -1.49793 -0.48987 0
M  V30 810 C 83.7056 -1.63413 -1.60713 0
M  V30 811 C 84.7186 -0.516329 -1.54395 0
M  V30 812 O 85.9076 -0.788812 -1.60125 0
M  V30 813 C 83.0076 -1.58516 -2.99543 0
M  V30 814 C 82.1806 -2.86016 -3.30928 0
M  V30 815 C 81.2396 -2.74018 -4.49222 0
M  V30 816 O 80.2656 -3.47964 -4.50455 0
M  V30 817 N 81.4676 -1.86309 -5.4979 0
M  V30 818 H 84.2326 -2.59777 -1.49452 0
M  V30 819 H 81.7936 -1.47022 -0.677955 0
M  V30 820 H 83.7856 -1.48128 -3.76617 0
M  V30 821 H 82.3556 -0.69965 -3.0467 0
M  V30 822 H 81.5756 -3.10672 -2.42645 0
M  V30 823 H 82.8636 -3.70521 -3.487 0
M  V30 824 H 82.2616 -1.2551 -5.51601 0
M  V30 825 H 80.8186 -1.81837 -6.25922 0
M  V30 826 N 84.2517 0.741722 -1.39055 0
M  V30 827 C 85.1817 1.869 -1.39966 0
M  V30 828 C 86.1627 1.6804 -0.26392 0
M  V30 829 O 87.3477 1.88458 -0.468755 0
M  V30 830 C 84.4777 3.24572 -1.23574 0
M  V30 831 C 83.4317 3.58056 -2.34477 0
M  V30 832 C 82.7577 4.94593 -2.0318 0
M  V30 833 C 84.0577 3.61716 -3.76774 0
M  V30 834 H 85.7517 1.86395 -2.34302 0
M  V30 835 H 83.2977 0.895361 -1.1278 0
M  V30 836 H 85.2507 4.031 -1.22834 0
M  V30 837 H 83.9747 3.25587 -0.257045 0
M  V30 838 H 82.6337 2.81854 -2.34423 0
M  V30 839 H 82.2817 4.92181 -1.03765 0
M  V30 840 H 81.9817 5.17964 -2.77465 0
M  V30 841 H 83.5057 5.75486 -2.04079 0
M  V30 842 H 84.9197 4.30335 -3.78794 0
M  V30 843 H 83.3167 3.96603 -4.50362 0
M  V30 844 H 84.3867 2.61672 -4.08235 0
M  V30 845 N 85.7298 1.2412 0.971189 0
M  V30 846 C 86.6618 0.988349 2.06795 0
M  V30 847 C 87.6748 -0.0409541 1.62748 0
M  V30 848 O 88.8638 0.195673 1.77424 0
M  V30 849 C 85.9638 0.469023 3.35639 0
M  V30 850 C 85.1368 1.56065 4.08611 0
M  V30 851 C 84.1958 1.04458 5.15728 0
M  V30 852 O 83.2218 1.73553 5.42096 0
M  V30 853 N 84.4238 -0.122817 5.8037 0
M  V30 854 H 87.1888 1.93265 2.29061 0
M  V30 855 H 84.7498 1.15102 1.13856 0
M  V30 856 H 86.7418 0.108613 4.04554 0
M  V30 857 H 85.3118 -0.380919 3.1027 0
M  V30 858 H 84.5318 2.09341 3.34021 0
M  V30 859 H 85.8198 2.29449 4.54126 0
M  V30 860 H 85.2178 -0.700563 5.61345 0
M  V30 861 H 83.7748 -0.424404 6.50417 0
M  V30 862 N 87.2079 -1.17134 1.05439 0
M  V30 863 C 88.1409 -2.2012 0.601855 0
M  V30 864 C 89.1189 -1.58314 -0.370854 0
M  V30 865 O 90.3029 -1.8638 -0.281882 0
M  V30 866 C 87.4299 -3.38491 -0.118868 0
M  V30 867 C 86.4759 -4.18752 0.809242 0
M  V30 868 S 87.3089 -4.83602 2.29977 0
M  V30 869 C 88.4649 -6.0536 1.59029 0
M  V30 870 H 88.6979 -2.58165 1.47438 0
M  V30 871 H 86.2309 -1.27788 0.866573 0
M  V30 872 H 88.1889 -4.07084 -0.528495 0
M  V30 873 H 86.8499 -2.98829 -0.967465 0
M  V30 874 H 86.0429 -5.03373 0.251379 0
M  V30 875 H 85.6449 -3.5561 1.15835 0
M  V30 876 H 87.9369 -6.71615 0.891017 0
M  V30 877 H 88.8799 -6.65679 2.41407 0
M  V30 878 H 89.2879 -5.54138 1.07663 0
M  V30 879 N 88.686 -0.835752 -1.33615 0
M  V30 880 C 89.934 -0.429109 -1.97492 0
M  V30 881 C 90.255 1.01433 -1.66543 0
M  V30 882 O 89.525 1.70611 -0.962744 0
M  V30 883 H 88.105 -0.155686 -0.730596 0
M  V30 884 H 90.767 -1.06802 -1.63031 0
M  V30 885 H 89.863 -0.55861 -3.0706 0
M  V30 886 N 90.1641 1.46063 -0.591896 0
M  V30 887 C 91.4041 2.04228 -0.0838014 0
M  V30 888 C 91.7681 1.45231 1.25587 0
M  V30 889 O 92.9691 1.94653 1.85375 0
M  V30 890 C 91.2401 3.57389 -0.0286282 0
M  V30 891 S 92.7991 4.3678 0.420557 0
M  V30 892 H 89.6171 0.709762 -0.0419319 0
M  V30 893 H 92.2191 1.78983 -0.786465 0
M  V30 894 H 90.9231 3.97843 -1.00743 0
M  V30 895 H 90.4541 3.87185 0.69652 0
M  V30 896 H 92.4691 4.67131 1.67341 0
M  V30 897 N 91.6422 0.330177 1.54103 0
M  V30 898 C 92.9192 -0.325007 1.92881 0
M  V30 899 C 93.2992 -1.6934 1.26045 0
M  V30 900 O 92.6472 -2.24855 0.406526 0
M  V30 901 C 92.8572 -0.410634 3.46576 0
M  V30 902 C 94.2052 -0.667801 4.19316 0
M  V30 903 O 95.2292 -0.49329 3.52768 0
M  V30 904 O 94.0882 -1.00491 5.37181 0
M  V30 905 H 91.1822 -0.186873 0.80561 0
M  V30 906 H 93.7282 0.380376 1.65382 0
M  V30 907 H 92.5002 0.550164 3.87413 0
M  V30 908 H 92.1232 -1.16333 3.802 0
M  V30 909 N 93.1203 -1.57491 0.0584922 0
M  V30 910 C 94.3683 -1.92597 -0.612436 0
M  V30 911 C 94.6893 -0.938162 -1.70949 0
M  V30 912 O 93.9593 0.0158301 -1.95894 0
M  V30 913 H 92.5393 -0.710964 -0.229214 0
M  V30 914 H 95.2013 -1.94571 0.113218 0
M  V30 915 H 94.2973 -2.94038 -1.04633 0
M  V30 916 N 94.5984 0.214957 -1.56127 0
M  V30 917 C 95.5614 1.24997 -1.92116 0
M  V30 918 C 96.5614 1.39467 -0.800344 0
M  V30 919 O 97.7514 1.37619 -1.06802 0
M  V30 920 C 94.8834 2.62271 -2.17777 0
M  V30 921 H 96.0764 0.942875 -2.84693 0
M  V30 922 H 93.6294 0.455654 -1.49511 0
M  V30 923 H 94.3644 2.98068 -1.27773 0
M  V30 924 H 94.1494 2.53143 -2.99434 0
M  V30 925 H 95.6394 3.36946 -2.46693 0
M  V30 926 N 96.0765 1.50051 0.48192 0
M  V30 927 C 97.3015 1.64508 1.26301 0
M  V30 928 C 97.7265 0.323851 1.85291 0
M  V30 929 O 97.0845 -0.710969 1.66778 0
M  V30 930 C 97.1325 2.7305 2.35533 0
M  V30 931 O 96.2365 2.3355 3.39895 0
M  V30 932 H 95.5775 0.549978 0.372048 0
M  V30 933 H 98.1075 1.9636 0.574786 0
M  V30 934 H 98.1175 2.95799 2.8101 0
M  V30 935 H 96.7925 3.68946 1.91967 0
M  V30 936 H 95.3695 2.21205 3.00204 0
M  V30 937 N 97.5546 -0.734337 1.39446 0
M  V30 938 C 98.7946 -1.50655 1.38139 0
M  V30 939 C 99.1586 -1.91986 -0.0228701 0
M  V30 940 O 100.36 -2.68318 -0.160947 0
M  V30 941 C 98.6306 -2.71251 2.32718 0
M  V30 942 S 100.19 -3.60892 2.49605 0
M  V30 943 H 97.0076 -0.515315 0.489869 0
M  V30 944 H 99.6096 -0.860392 1.75549 0
M  V30 945 H 98.3136 -2.39027 3.33608 0
M  V30 946 H 97.8446 -3.40795 1.96526 0
M  V30 947 H 99.8596 -4.64899 1.73446 0
M  V30 948 N 99.0327 -1.24633 -0.964593 0
M  V30 949 C 100.281 -1.08573 -1.70459 0
M  V30 950 C 100.602 0.375655 -1.91347 0
M  V30 951 O 99.8717 1.26779 -1.49345 0
M  V30 952 H 98.4517 -0.398784 -0.631649 0
M  V30 953 H 101.114 -1.56601 -1.16026 0
M  V30 954 H 100.21 -1.58623 -2.68785 0
M  V30 955 N 100.511 1.16574 -1.06058 0
M  V30 956 C 101.736 1.91493 -0.796562 0
M  V30 957 C 102.161 1.76773 0.642868 0
M  V30 958 O 101.519 1.09142 1.44768 0
M  V30 959 C 101.567 3.40293 -1.19303 0
M  V30 960 O 100.671 4.11074 -0.330394 0
M  V30 961 H 100.012 0.596678 -0.291326 0
M  V30 962 H 102.542 1.47708 -1.41575 0
M  V30 963 H 102.552 3.91057 -1.16356 0
M  V30 964 H 101.227 3.50326 -2.24153 0
M  V30 965 H 99.8038 3.70513 -0.421225 0
M  V30 966 N 101.989 0.842826 1.3317 0
M  V30 967 C 102.919 0.294028 2.31641 0
M  V30 968 C 103.9 -0.600401 1.59151 0
M  V30 969 O 105.085 -0.523124 1.87022 0
M  V30 970 C 102.215 -0.528416 3.43257 0
M  V30 971 C 101.169 0.27056 4.27144 0
M  V30 972 C 100.495 -0.675881 5.30411 0
M  V30 973 C 101.795 1.48981 5.00602 0
M  V30 974 H 103.489 1.11681 2.77791 0
M  V30 975 H 101.035 0.538478 1.33553 0
M  V30 976 H 102.988 -0.922674 4.11175 0
M  V30 977 H 101.712 -1.38445 2.95805 0
M  V30 978 H 100.371 0.646427 3.60856 0
M  V30 979 H 100.019 -1.52842 4.79216 0
M  V30 980 H 99.7189 -0.145374 5.8742 0
M  V30 981 H 101.243 -1.06757 6.01195 0
M  V30 982 H 102.657 1.16849 5.61266 0
M  V30 983 H 101.054 1.95739 5.6728 0
M  V30 984 H 102.124 2.25746 4.29147 0
M  V30 985 N 103.467 -1.45747 0.599634 0
M  V30 986 C 104.415 -2.322 -0.136426 0
M  V30 987 C 105.409 -1.45497 -0.867583 0
M  V30 988 O 106.615 -1.62027 -0.78405 0
M  V30 989 H 102.99 -0.749368 -0.0628588 0
M  V30 990 H 104.961 -2.92072 0.611281 0
M  V30 991 C 103.71 -3.28974 -1.12567 0
M  V30 992 H 103.033 -3.9568 -0.572484 0
M  V30 993 H 104.473 -3.92212 -1.61077 0
M  V30 994 C 102.932 -2.55561 -2.19523 0
M  V30 995 O 103.462 -2.33111 -3.27143 0
M  V30 996 N 101.668 -2.15832 -1.94589 0
M  V30 997 H 101.215 -2.3429 -1.07078 0
M  V30 998 H 101.173 -1.67034 -2.66359 0
M  V30 999 N 104.945 -0.338344 -1.53925 0
M  V30 1000 C 105.878 0.563758 -2.21127 0
M  V30 1001 C 106.856 1.10433 -1.19345 0
M  V30 1002 O 108.04 1.16557 -1.48144 0
M  V30 1003 C 105.167 1.77505 -2.88461 0
M  V30 1004 C 104.213 1.3644 -4.04087 0
M  V30 1005 S 105.046 0.388593 -5.34088 0
M  V30 1006 C 106.202 1.60683 -6.04923 0
M  V30 1007 H 106.435 -0.00704546 -2.97299 0
M  V30 1008 H 103.968 -0.122418 -1.53914 0
M  V30 1009 H 105.926 2.46999 -3.27875 0
M  V30 1010 H 104.587 2.31706 -2.12064 0
M  V30 1011 H 103.78 2.26739 -4.50117 0
M  V30 1012 H 103.382 0.748998 -3.66423 0
M  V30 1013 H 105.674 2.54209 -6.28 0
M  V30 1014 H 106.617 1.18842 -6.98056 0
M  V30 1015 H 107.025 1.80052 -5.35015 0
M  V30 1016 N 106.423 1.57458 -0.0668435 0
M  V30 1017 C 107.333 2.15937 0.916975 0
M  V30 1018 C 108.349 1.12123 1.33058 0
M  V30 1019 O 109.525 1.44366 1.40429 0
M  V30 1020 C 106.59 2.70547 2.16807 0
M  V30 1021 C 105.651 3.89215 1.81135 0
M  V30 1022 C 104.884 4.41211 3.0028 0
M  V30 1023 O 105.107 3.92225 4.14144 0
M  V30 1024 O 104.041 5.32605 2.80384 0
M  V30 1025 H 107.867 3.00354 0.449561 0
M  V30 1026 H 105.452 1.48584 0.155949 0
M  V30 1027 H 107.334 3.0557 2.90181 0
M  V30 1028 H 106.009 1.89192 2.62656 0
M  V30 1029 H 104.916 3.59054 1.05028 0
M  V30 1030 H 106.249 4.71848 1.40073 0
M  V30 1031 N 107.901 -0.206675 1.56239 0
M  V30 1032 C 109.141 -0.93574 1.81723 0
M  V30 1033 C 109.505 -1.80927 0.642609 0
M  V30 1034 O 110.706 -2.57323 0.777081 0
M  V30 1035 C 108.977 -1.74012 3.12177 0
M  V30 1036 S 110.536 -2.52279 3.59028 0
M  V30 1037 H 107.354 -0.314065 0.637875 0
M  V30 1038 H 109.956 -0.200071 1.94474 0
M  V30 1039 H 108.66 -1.0888 3.95693 0
M  V30 1040 H 108.191 -2.51782 3.02274 0
M  V30 1041 H 110.206 -3.76209 3.23545 0
M  V30 1042 N 109.379 -1.50304 -0.473955 0
M  V30 1043 C 110.795 -1.37667 -0.807466 0
M  V30 1044 C 110.995 -0.430555 -1.96846 0
M  V30 1045 O 110.051 0.127874 -2.52176 0
M  V30 1046 C 111.364 -2.78974 -1.12223 0
M  V30 1047 C 112.912 -2.87868 -1.22885 0
M  V30 1048 C 113.387 -4.30003 -1.57676 0
M  V30 1049 N 114.878 -4.3294 -1.64673 0
M  V30 1050 C 115.613 -5.3991 -1.93091 0
M  V30 1051 N 115.109 -6.57092 -2.1955 0
M  V30 1052 N 116.902 -5.27351 -1.94569 0
M  V30 1053 H 109.053 -2.10394 0.291212 0
M  V30 1054 H 111.316 -0.945575 0.0677609 0
M  V30 1055 H 111.022 -3.50031 -0.342229 0
M  V30 1056 H 110.896 -3.16038 -2.05913 0
M  V30 1057 H 113.283 -2.17032 -1.99953 0
M  V30 1058 H 113.364 -2.54352 -0.271814 0
M  V30 1059 H 113.008 -5.01375 -0.81149 0
M  V30 1060 H 112.938 -4.61004 -2.54525 0
M  V30 1061 H 115.429 -3.48441 -1.46277 0
M  V30 1062 H 115.742 -7.34425 -2.405 0
M  V30 1063 H 114.087 -6.60272 -2.16948 0
M  V30 1064 H 117.278 -4.34801 -1.73394 0
M  V30 1065 H 117.451 -6.10805 -2.16381 0
M  V30 1066 N 110.857 0.726932 -1.39834 0
M  V30 1067 C 112.103 1.48884 -1.377 0
M  V30 1068 C 112.436 1.94185 0.0244852 0
M  V30 1069 O 111.711 1.67361 0.990986 0
M  V30 1070 C 111.994 2.72288 -2.3565 0
M  V30 1071 C 111.847 2.32956 -3.84775 0
M  V30 1072 C 113.166 3.74414 -2.31306 0
M  V30 1073 H 110.285 0.540062 -0.5015 0
M  V30 1074 H 112.927 0.830547 -1.70886 0
M  V30 1075 H 111.077 3.28457 -2.07481 0
M  V30 1076 H 112.749 1.82356 -4.23726 0
M  V30 1077 H 110.992 1.65088 -4.01159 0
M  V30 1078 H 111.663 3.21362 -4.4881 0
M  V30 1079 H 114.139 3.27849 -2.56231 0
M  V30 1080 H 113.015 4.58414 -3.01907 0
M  V30 1081 H 113.276 4.21909 -1.32081 0
M  V30 1082 N 112.336 1.25143 0.95797 0
M  V30 1083 C 113.576 1.10893 1.71703 0
M  V30 1084 C 113.94 -0.34478 1.88879 0
M  V30 1085 O 115.141 -0.609014 2.6181 0
M  V30 1086 C 113.412 1.83889 3.06463 0
M  V30 1087 S 114.971 1.85491 3.97666 0
M  V30 1088 H 111.789 0.396428 0.590226 0
M  V30 1089 H 114.391 1.58618 1.14283 0
M  V30 1090 H 113.095 2.88756 2.9163 0
M  V30 1091 H 112.626 1.36538 3.68946 0
M  V30 1092 H 114.641 0.929553 4.87415 0
M  V30 1093 N 113.814 -1.1601 1.06675 0
M  V30 1094 C 115.062 -1.86264 0.784229 0
M  V30 1095 C 115.383 -1.82328 -0.691488 0
M  V30 1096 O 114.653 -1.25947 -1.50047 0
M  V30 1097 H 113.233 -0.689621 0.28711 0
M  V30 1098 H 115.895 -1.40664 1.34906 0
M  V30 1099 H 114.991 -2.91595 1.11259 0
M  V30 1100 N 115.292 -0.849877 -1.32721 0
M  V30 1101 C 116.569 -0.372405 -1.92022 0
M  V30 1102 C 116.949 1.1435 -1.77447 0
M  V30 1103 O 116.297 1.96296 -1.16962 0
M  V30 1104 C 116.507 -0.831482 -3.3895 0
M  V30 1105 C 117.855 -0.845882 -4.16089 0
M  V30 1106 O 118.879 -0.775806 -3.47649 0
M  V30 1107 O 117.738 -0.943753 -5.38289 0
M  V30 1108 H 114.832 -0.107667 -0.819961 0
M  V30 1109 H 117.378 -0.93646 -1.41522 0
M  V30 1110 H 116.15 -1.87448 -3.4348 0
M  V30 1111 H 115.773 -0.24461 -3.96847 0
M  V30 1112 N 116.77 1.45427 -0.607355 0
M  V30 1113 C 117.717 2.3053 0.111625 0
M  V30 1114 C 118.687 1.4209 0.860216 0
M  V30 1115 O 119.872 1.71019 0.845998 0
M  V30 1116 C 117.012 3.26992 1.10319 0
M  V30 1117 C 116.125 4.30535 0.355493 0
M  V30 1118 C 115.26 5.14105 1.33676 0
M  V30 1119 C 114.299 6.09376 0.576862 0
M  V30 1120 N 113.436 6.85727 1.5074 0
M  V30 1121 H 118.276 2.91477 -0.620093 0
M  V30 1122 H 115.813 1.43631 -0.317594 0
M  V30 1123 H 117.771 3.81385 1.6912 0
M  V30 1124 H 116.401 2.67799 1.80232 0
M  V30 1125 H 115.453 3.78805 -0.348023 0
M  V30 1126 H 116.765 4.98235 -0.237423 0
M  V30 1127 H 115.919 5.72897 1.99684 0
M  V30 1128 H 114.658 4.46423 1.9636 0
M  V30 1129 H 113.663 5.49715 -0.0968519 0
M  V30 1130 H 114.888 6.79085 -0.0449341 0
M  V30 1131 H 112.834 6.20735 2.12189 0
M  V30 1132 H 112.751 7.49778 0.967913 0
M  V30 1133 H 114.019 7.4906 2.15706 0
M  V30 1134 N 118.248 0.346503 1.53744 0
M  V30 1135 C 119.211 -0.496439 2.23759 0
M  V30 1136 C 120.211 -1.0252 1.2388 0
M  V30 1137 O 121.401 -0.913974 1.48297 0
M  V30 1138 C 118.533 -1.69187 2.95954 0
M  V30 1139 H 119.726 0.115952 2.99676 0
M  V30 1140 H 117.279 0.0978939 1.55993 0
M  V30 1141 H 118.014 -2.34288 2.24231 0
M  V30 1142 H 117.799 -1.31989 3.69217 0
M  V30 1143 H 119.289 -2.28969 3.49232 0
M  V30 1144 N 119.726 -1.57421 0.075193 0
M  V30 1145 C 120.951 -1.98364 -0.605515 0
M  V30 1146 C 121.376 -0.953383 -1.62149 0
M  V30 1147 O 120.734 0.0806053 -1.81121 0
M  V30 1148 C 120.782 -3.38332 -1.24756 0
M  V30 1149 O 119.886 -3.37959 -2.36342 0
M  V30 1150 H 119.227 -0.645553 -0.155428 0
M  V30 1151 H 121.757 -2.04044 0.150714 0
M  V30 1152 H 121.767 -3.75591 -1.5936 0
M  V30 1153 H 120.442 -4.12846 -0.503129 0
M  V30 1154 H 119.019 -3.12474 -2.03506 0
M  V30 1155 N 121.204 0.198386 -1.56346 0
M  V30 1156 C 122.452 0.91747 -1.80075 0
M  V30 1157 C 122.773 1.83929 -0.647692 0
M  V30 1158 O 122.043 1.93029 0.334166 0
M  V30 1159 H 120.623 0.341774 -0.664228 0
M  V30 1160 H 123.285 0.204684 -1.93822 0
M  V30 1161 H 122.381 1.51055 -2.7311 0
M  V30 1162 N 122.682 1.50554 0.465978 0
M  V30 1163 C 123.929 1.61798 1.21768 0
M  V30 1164 C 124.257 0.320696 1.91838 0
M  V30 1165 O 123.512 -0.693724 1.82992 0
M  V30 1166 C 123.811 2.75152 2.28093 0
M  V30 1167 C 123.477 4.15454 1.75239 0
M  V30 1168 C 122.139 4.53628 1.60546 0
M  V30 1169 C 124.491 5.03121 1.36083 0
M  V30 1170 C 121.819 5.77204 1.05128 0
M  V30 1171 C 124.171 6.27249 0.821056 0
M  V30 1172 C 122.835 6.64221 0.660795 0
M  V30 1173 H 122.105 0.592063 0.445582 0
M  V30 1174 H 124.752 1.84503 0.512927 0
M  V30 1175 H 123.057 2.46556 3.04496 0
M  V30 1176 H 124.754 2.81055 2.86023 0
M  V30 1177 H 121.344 3.85341 1.87644 0
M  V30 1178 H 125.528 4.74257 1.46267 0
M  V30 1179 H 120.784 6.0452 0.91462 0
M  V30 1180 H 124.958 6.94537 0.509018 0
M  V30 1181 H 122.585 7.59854 0.229226 0
M  V30 1182 N 124.16 -0.719506 1.40217 0
M  V30 1183 C 125.11 -1.8251 1.36653 0
M  V30 1184 C 126.094 -1.59028 0.244732 0
M  V30 1185 O 127.286 -1.70268 0.483524 0
M  V30 1186 C 124.415 -3.20599 1.22763 0
M  V30 1187 C 123.501 -3.49858 2.39708 0
M  V30 1188 N 123.892 -3.49957 3.6519 0
M  V30 1189 C 122.19 -3.80297 2.33002 0
M  V30 1190 C 122.891 -3.77449 4.42614 0
M  V30 1191 N 121.867 -3.96002 3.72402 0
M  V30 1192 H 125.669 -1.80914 2.31619 0
M  V30 1193 H 123.183 -0.918455 1.33933 0
M  V30 1194 H 125.18 -3.99766 1.18292 0
M  V30 1195 H 123.84 -3.23424 0.287614 0
M  V30 1196 H 124.851 -3.309 3.98404 0
M  V30 1197 H 121.528 -3.90635 1.47346 0
M  V30 1198 H 122.918 -3.83863 5.51451 0
M  V30 1199 N 125.638 -1.25649 -0.95132 0
M  V30 1200 C 126.868 -1.13179 -1.72841 0
M  V30 1201 C 127.276 0.316827 -1.86528 0
M  V30 1202 O 126.619 1.22948 -1.3649 0
M  V30 1203 C 126.681 -1.71644 -3.15878 0
M  V30 1204 C 126.345 -3.20667 -3.25609 0
M  V30 1205 C 127.342 -4.17616 -3.09666 0
M  V30 1206 C 125.027 -3.6094 -3.49324 0
M  V30 1207 C 127.021 -5.52817 -3.17289 0
M  V30 1208 C 124.708 -4.96278 -3.56584 0
M  V30 1209 C 125.706 -5.92025 -3.40581 0
M  V30 1210 O 125.394 -7.24899 -3.47528 0
M  V30 1211 H 125.126 -0.395389 -0.54831 0
M  V30 1212 H 127.68 -1.66566 -1.20187 0
M  V30 1213 H 125.91 -1.12707 -3.69911 0
M  V30 1214 H 127.599 -1.54225 -3.75459 0
M  V30 1215 H 128.365 -3.87842 -2.91211 0
M  V30 1216 H 124.244 -2.86907 -3.6084 0
M  V30 1217 H 127.788 -6.2753 -3.04716 0
M  V30 1218 H 123.685 -5.25716 -3.74556 0
M  V30 1219 H 124.453 -7.33039 -3.64138 0
M  V30 1220 N 127.117 1.15442 -1.07289 0
M  V30 1221 C 128.365 1.85845 -0.794096 0
M  V30 1222 C 128.686 1.82692 0.681809 0
M  V30 1223 O 127.956 1.26741 1.49377 0
M  V30 1224 H 126.536 0.688089 -0.290763 0
M  V30 1225 H 129.198 1.39947 -1.3565 0
M  V30 1226 H 128.294 2.91001 -1.12804 0
M  V30 1227 N 128.595 0.856903 1.32268 0
M  V30 1228 C 129.841 0.462069 1.97466 0
M  V30 1229 C 130.174 -0.980298 1.67642 0
M  V30 1230 O 129.449 -1.68824 0.965858 0
M  V30 1231 C 129.732 0.704336 3.53145 0
M  V30 1232 C 129.585 2.19529 3.9259 0
M  V30 1233 C 130.904 0.1622 4.39801 0
M  V30 1234 H 128.023 0.169357 0.717278 0
M  V30 1235 H 130.665 1.07574 1.56614 0
M  V30 1236 H 128.815 0.181999 3.88073 0
M  V30 1237 H 130.487 2.78387 3.67829 0
M  V30 1238 H 128.73 2.67292 3.41668 0
M  V30 1239 H 129.401 2.31549 5.01088 0
M  V30 1240 H 131.877 0.608905 4.11621 0
M  V30 1241 H 130.753 0.361265 5.4771 0
M  V30 1242 H 131.014 -0.935158 4.32096 0
M  V30 1243 N 130.073 -1.45103 0.615059 0
M  V30 1244 C 131.023 -2.27679 -0.120966 0
M  V30 1245 C 132.007 -1.3775 -0.831491 0
M  V30 1246 O 133.199 -1.61683 -0.720249 0
M  V30 1247 C 130.328 -3.24767 -1.1127 0
M  V30 1248 C 129.414 -4.22184 -0.402627 0
M  V30 1249 N 129.805 -5.02692 0.559884 0
M  V30 1250 C 128.103 -4.4125 -0.649202 0
M  V30 1251 C 128.804 -5.73421 0.977942 0
M  V30 1252 N 127.78 -5.42657 0.320104 0
M  V30 1253 H 131.582 -2.87325 0.618181 0
M  V30 1254 H 129.096 -1.56345 0.439304 0
M  V30 1255 H 131.093 -3.82666 -1.65446 0
M  V30 1256 H 129.753 -2.66682 -1.85232 0
M  V30 1257 H 130.764 -5.09354 0.936976 0
M  V30 1258 H 127.441 -3.9428 -1.37293 0
M  V30 1259 H 128.831 -6.48107 1.77222 0
M  V30 1260 N 131.551 -0.354651 -1.53558 0
M  V30 1261 C 132.514 0.484566 -2.24019 0
M  V30 1262 C 133.514 1.01861 -1.24422 0
M  V30 1263 O 134.704 0.906097 -1.4878 0
M  V30 1264 C 131.836 1.67615 -2.96847 0
M  V30 1265 H 133.029 -0.131843 -2.9961 0
M  V30 1266 H 130.582 -0.106165 -1.55939 0
M  V30 1267 H 131.317 2.33095 -2.25471 0
M  V30 1268 H 131.102 1.30029 -3.69912 0
M  V30 1269 H 132.592 2.27114 -3.50441 0
M  V30 1270 N 133.029 1.57378 -0.0835403 0
M  V30 1271 C 134.269 1.95808 0.586381 0
M  V30 1272 C 134.633 0.963706 1.66062 0
M  V30 1273 O 135.834 1.23608 2.38693 0
M  V30 1274 C 134.105 3.38808 1.13771 0
M  V30 1275 S 135.664 3.99225 1.82112 0
M  V30 1276 H 132.482 0.684675 0.191679 0
M  V30 1277 H 135.084 1.94843 -0.160194 0
M  V30 1278 H 133.788 4.08954 0.344197 0
M  V30 1279 H 133.319 3.43344 1.92038 0
M  V30 1280 H 135.334 3.87087 3.10449 0
M  V30 1281 N 134.507 -0.190092 1.56449 0
M  V30 1282 C 135.417 -1.25591 1.98152 0
M  V30 1283 C 136.433 -1.49519 0.889944 0
M  V30 1284 O 137.609 -1.62036 1.19609 0
M  V30 1285 C 134.674 -2.57916 2.3169 0
M  V30 1286 C 133.735 -2.42015 3.5458 0
M  V30 1287 C 132.968 -3.6803 3.8651 0
M  V30 1288 O 133.191 -4.72413 3.1966 0
M  V30 1289 O 132.125 -3.6326 4.79923 0
M  V30 1290 H 135.951 -0.931988 2.89046 0
M  V30 1291 H 133.536 -0.395488 1.4407 0
M  V30 1292 H 135.418 -3.36008 2.54316 0
M  V30 1293 H 134.093 -2.89925 1.43963 0
M  V30 1294 H 133 -1.62017 3.37196 0
M  V30 1295 H 134.333 -2.14937 4.4279 0
M  V30 1296 N 135.985 -1.50799 -0.457987 0
M  V30 1297 C 137.233 -1.62121 -1.2067 0
M  V30 1298 C 137.554 -0.329793 -1.92191 0
M  V30 1299 O 136.824 0.653409 -1.84682 0
M  V30 1300 H 135.404 -0.597441 -0.448411 0
M  V30 1301 H 138.066 -1.87637 -0.527096 0
M  V30 1302 H 137.162 -2.43882 -1.94751 0
M  V30 1303 N 137.463 0.71206 -1.40597 0
M  V30 1304 C 138.703 1.48438 -1.40519 0
M  V30 1305 C 139.067 1.91998 -0.00767611 0
M  V30 1306 O 140.268 2.6854 0.118239 0
M  V30 1307 C 138.539 2.67514 -2.37004 0
M  V30 1308 S 140.098 3.56875 -2.55315 0
M  V30 1309 H 136.916 0.507457 -0.498005 0
M  V30 1310 H 139.518 0.832355 -1.76896 0
M  V30 1311 H 138.222 2.33689 -3.37368 0
M  V30 1312 H 137.753 3.37625 -2.01923 0
M  V30 1313 H 139.768 4.62081 -1.8082 0
M  V30 1314 N 138.941 1.26152 0.944643 0
M  V30 1315 C 139.888 1.07408 2.04285 0
M  V30 1316 C 140.858 -0.0198413 1.66088 0
M  V30 1317 O 142.043 0.139264 1.90291 0
M  V30 1318 C 139.183 0.70945 3.37729 0
M  V30 1319 C 138.296 1.87926 3.88983 0
M  V30 1320 C 137.431 1.45807 5.10797 0
M  V30 1321 C 136.47 2.5964 5.54305 0
M  V30 1322 N 135.607 2.18226 6.67324 0
M  V30 1323 H 140.447 2.01389 2.1965 0
M  V30 1324 H 137.984 1.00275 1.07626 0
M  V30 1325 H 139.942 0.478948 4.14442 0
M  V30 1326 H 138.572 -0.193389 3.2222 0
M  V30 1327 H 137.624 2.22279 3.08701 0
M  V30 1328 H 138.936 2.73377 4.17213 0
M  V30 1329 H 138.09 1.18781 5.94959 0
M  V30 1330 H 136.829 0.574414 4.84305 0
M  V30 1331 H 135.834 2.87399 4.68702 0
M  V30 1332 H 137.059 3.48599 5.828 0
M  V30 1333 H 135.005 1.3229 6.42523 0
M  V30 1334 H 134.922 2.97221 6.95123 0
M  V30 1335 H 136.19 1.94403 7.54869 0
M  V30 1336 N 140.419 -1.14872 1.07899 0
M  V30 1337 C 141.667 -1.85422 0.803941 0
M  V30 1338 C 141.988 -1.83051 -0.67211 0
M  V30 1339 O 141.258 -1.27532 -1.48703 0
M  V30 1340 H 139.838 -0.686537 0.294408 0
M  V30 1341 H 142.5 -1.39226 1.3639 0
M  V30 1342 H 141.596 -2.90399 1.14346 0
M  V30 1343 N 141.898 -0.863906 -1.31812 0
M  V30 1344 C 143.145 -0.471836 -1.96926 0
M  V30 1345 C 143.473 0.974578 -1.68322 0
M  V30 1346 O 142.728 1.7003 -0.968933 0
M  V30 1347 C 143.027 -0.668547 -3.51091 0
M  V30 1348 C 142.693 -2.08683 -3.99703 0
M  V30 1349 C 141.355 -2.47471 -4.12688 0
M  V30 1350 C 143.707 -3.01207 -4.25351 0
M  V30 1351 C 141.035 -3.78037 -4.4867 0
M  V30 1352 C 143.387 -4.31282 -4.62794 0
M  V30 1353 C 142.051 -4.69992 -4.73987 0
M  V30 1354 H 141.321 -0.172657 -0.720604 0
M  V30 1355 H 143.968 -1.09573 -1.57054 0
M  V30 1356 H 142.273 0.0385252 -3.91781 0
M  V30 1357 H 143.97 -0.345102 -3.99512 0
M  V30 1358 H 140.56 -1.77566 -3.90087 0
M  V30 1359 H 144.744 -2.72469 -4.14819 0
M  V30 1360 H 140 -4.078 -4.55532 0
M  V30 1361 H 144.174 -5.03031 -4.81594 0
M  V30 1362 H 141.801 -5.71207 -5.01624 0
M  V30 1363 N 143.376 1.44774 -0.622745 0
M  V30 1364 C 144.623 2.02121 -0.1239 0
M  V30 1365 C 144.951 1.48915 1.25118 0
M  V30 1366 O 144.206 0.660045 1.84233 0
M  V30 1367 C 144.505 3.57364 -0.0508323 0
M  V30 1368 C 144.171 4.29787 -1.36358 0
M  V30 1369 C 142.833 4.4929 -1.72314 0
M  V30 1370 C 145.185 4.71062 -2.23048 0
M  V30 1371 C 142.513 5.07325 -2.94682 0
M  V30 1372 C 144.865 5.30452 -3.44679 0
M  V30 1373 C 143.529 5.48175 -3.80868 0
M  V30 1374 H 142.799 0.739612 -0.0453381 0
M  V30 1375 H 145.446 1.73648 -0.807389 0
M  V30 1376 H 143.751 3.85202 0.715991 0
M  V30 1377 H 145.448 3.99456 0.351533 0
M  V30 1378 H 142.038 4.14932 -1.07375 0
M  V30 1379 H 146.222 4.55715 -1.96565 0
M  V30 1380 H 141.478 5.19235 -3.22809 0
M  V30 1381 H 145.652 5.61385 -4.12092 0
M  V30 1382 H 143.279 5.92912 -4.75773 0
M  V30 1383 N 144.854 0.36279 1.53368 0
M  V30 1384 C 146.27 0.0116182 1.59596 0
M  V30 1385 C 146.47 -1.47012 1.37803 0
M  V30 1386 O 145.526 -2.23136 1.18181 0
M  V30 1387 C 146.839 0.465052 2.97082 0
M  V30 1388 C 148.387 0.419033 3.10182 0
M  V30 1389 C 148.862 0.848235 4.50077 0
M  V30 1390 N 150.353 0.803183 4.56183 0
M  V30 1391 C 151.088 1.107 5.62613 0
M  V30 1392 N 150.584 1.47996 6.76808 0
M  V30 1393 N 152.377 1.02998 5.52583 0
M  V30 1394 H 144.528 1.32775 1.65785 0
M  V30 1395 H 146.791 0.542518 0.777417 0
M  V30 1396 H 146.497 1.49892 3.18159 0
M  V30 1397 H 146.371 -0.149786 3.76902 0
M  V30 1398 H 148.758 -0.605696 2.88817 0
M  V30 1399 H 148.839 1.06933 2.32377 0
M  V30 1400 H 148.483 1.87107 4.7218 0
M  V30 1401 H 148.413 0.175218 5.26308 0
M  V30 1402 H 150.904 0.52838 3.74188 0
M  V30 1403 H 151.217 1.69613 7.53957 0
M  V30 1404 H 149.562 1.51859 6.78206 0
M  V30 1405 H 152.753 0.737817 4.62249 0
M  V30 1406 H 152.926 1.2701 6.35431 0
M  V30 1407 N 146.332 -1.57332 0.0918853 0
M  V30 1408 C 147.748 -1.57389 -0.264766 0
M  V30 1409 C 147.948 -1.10281 -1.68643 0
M  V30 1410 O 147.004 -0.777801 -2.40222 0
M  V30 1411 C 148.317 -3.00648 -0.0561195 0
M  V30 1412 C 149.865 -3.12754 -0.124116 0
M  V30 1413 C 150.34 -4.57965 0.0564972 0
M  V30 1414 N 151.831 -4.632 0.00155611 0
M  V30 1415 C 152.566 -5.73281 0.116598 0
M  V30 1416 N 152.062 -6.92208 0.286294 0
M  V30 1417 N 153.855 -5.6207 0.0580973 0
M  V30 1418 H 146.006 -1.86262 1.02079 0
M  V30 1419 H 148.269 -0.859579 0.399786 0
M  V30 1420 H 147.975 -3.393 0.925669 0
M  V30 1421 H 147.849 -3.68623 -0.799823 0
M  V30 1422 H 150.236 -2.73976 -1.09641 0
M  V30 1423 H 150.317 -2.47377 0.651024 0
M  V30 1424 H 149.961 -4.97436 1.02564 0
M  V30 1425 H 149.891 -5.21399 -0.738297 0
M  V30 1426 H 152.382 -3.77686 -0.127192 0
M  V30 1427 H 152.695 -7.71934 0.365676 0
M  V30 1428 H 151.04 -6.94254 0.32192 0
M  V30 1429 H 154.231 -4.68043 -0.0733204 0
M  V30 1430 H 154.404 -6.47824 0.151203 0
M  V30 1431 N 147.81 0.181792 -1.56548 0
M  V30 1432 C 149.038 0.915947 -1.85521 0
M  V30 1433 C 149.453 1.76282 -0.676016 0
M  V30 1434 O 148.81 1.79012 0.355077 0
M  V30 1435 C 148.861 1.80126 -3.13427 0
M  V30 1436 O 148.582 0.988562 -4.26801 0
M  V30 1437 C 150.083 2.64597 -3.55673 0
M  V30 1438 H 147.303 0.26661 -0.61576 0
M  V30 1439 H 149.847 0.185039 -2.03661 0
M  V30 1440 H 148.002 2.48563 -2.97145 0
M  V30 1441 H 148.416 1.59308 -4.99721 0
M  V30 1442 H 149.89 3.2235 -4.48101 0
M  V30 1443 H 150.367 3.38958 -2.79292 0
M  V30 1444 H 150.973 2.0151 -3.74532 0
M  V30 1445 N 149.288 1.51039 0.449983 0
M  V30 1446 C 150.537 1.62317 1.19733 0
M  V30 1447 C 150.85 0.339101 1.92638 0
M  V30 1448 O 152.056 0.331069 2.69474 0
M  V30 1449 C 150.512 2.86608 2.17678 0
M  V30 1450 C 150.12 4.21972 1.50479 0
M  V30 1451 C 151.864 3.07239 2.92924 0
M  V30 1452 C 149.771 5.37426 2.46834 0
M  V30 1453 H 148.701 0.604532 0.450619 0
M  V30 1454 H 151.352 1.77494 0.465625 0
M  V30 1455 H 149.734 2.65037 2.94231 0
M  V30 1456 H 150.908 4.53878 0.795716 0
M  V30 1457 H 149.223 4.07117 0.874344 0
M  V30 1458 H 151.82 3.90668 3.65079 0
M  V30 1459 H 152.163 2.19807 3.5354 0
M  V30 1460 H 152.696 3.29091 2.23481 0
M  V30 1461 H 149.435 6.27079 1.90926 0
M  V30 1462 H 148.955 5.09912 3.15832 0
M  V30 1463 H 150.634 5.68862 3.08228 0
M  V30 1464 N 150.766 -0.704594 1.40972 0
M  V30 1465 C 152.182 -1.01406 1.23244 0
M  V30 1466 C 152.382 -2.01169 0.115399 0
M  V30 1467 O 151.438 -2.47021 -0.523147 0
M  V30 1468 C 152.751 -1.54728 2.57836 0
M  V30 1469 C 154.299 -1.66658 2.64942 0
M  V30 1470 C 154.774 -2.23383 3.9983 0
M  V30 1471 N 156.265 -2.30756 4.01629 0
M  V30 1472 C 157 -2.75655 5.02794 0
M  V30 1473 N 156.496 -3.20225 6.14352 0
M  V30 1474 N 158.289 -2.75138 4.90159 0
M  V30 1475 H 150.44 -0.0435285 2.12355 0
M  V30 1476 H 152.703 -0.0818951 0.944456 0
M  V30 1477 H 152.409 -0.888832 3.40283 0
M  V30 1478 H 152.283 -2.53084 2.79693 0
M  V30 1479 H 154.67 -2.31617 1.8286 0
M  V30 1480 H 154.751 -0.668717 2.46904 0
M  V30 1481 H 154.395 -1.59043 4.82357 0
M  V30 1482 H 154.325 -3.23904 4.15203 0
M  V30 1483 H 156.816 -1.99291 3.21079 0
M  V30 1484 H 157.129 -3.53084 6.87424 0
M  V30 1485 H 155.474 -3.18156 6.17901 0
M  V30 1486 H 158.665 -2.39661 4.02095 0
M  V30 1487 H 158.838 -3.09812 5.6914 0
M  V30 1488 N 152.244 -1.26651 -0.937939 0
M  V30 1489 C 153.177 -1.02811 -2.03728 0
M  V30 1490 C 154.155 0.0481915 -1.62529 0
M  V30 1491 O 155.339 -0.0948839 -1.88261 0
M  V30 1492 C 152.466 -0.557517 -3.3408 0
M  V30 1493 C 151.512 -1.62686 -3.94253 0
M  V30 1494 S 152.345 -3.21667 -4.28125 0
M  V30 1495 C 153.501 -2.76384 -5.61572 0
M  V30 1496 H 153.734 -1.95891 -2.23638 0
M  V30 1497 H 151.267 -1.10367 -1.07974 0
M  V30 1498 H 153.225 -0.292674 -4.09455 0
M  V30 1499 H 151.886 0.353062 -3.12109 0
M  V30 1500 H 151.079 -1.24866 -4.88287 0
M  V30 1501 H 150.681 -1.84324 -3.25424 0
M  V30 1502 H 152.973 -2.2105 -6.40424 0
M  V30 1503 H 153.916 -3.69123 -6.0428 0
M  V30 1504 H 154.324 -2.15847 -5.21604 0
M  V30 1505 N 153.722 1.14298 -1.08507 0
M  V30 1506 C 154.669 2.19414 -0.715965 0
M  V30 1507 C 155.639 1.63399 0.298326 0
M  V30 1508 O 156.824 1.89929 0.182101 0
M  V30 1509 C 153.964 3.44845 -0.132534 0
M  V30 1510 C 153.077 4.15007 -1.19973 0
M  V30 1511 C 152.212 5.28024 -0.580048 0
M  V30 1512 C 151.251 5.9002 -1.62921 0
M  V30 1513 N 150.388 6.94485 -1.03125 0
M  V30 1514 H 155.228 2.50336 -1.61666 0
M  V30 1515 H 152.765 1.2293 -0.807882 0
M  V30 1516 H 154.723 4.16601 0.223454 0
M  V30 1517 H 153.353 3.14403 0.731467 0
M  V30 1518 H 152.405 3.41629 -1.67313 0
M  V30 1519 H 153.717 4.57178 -1.99473 0
M  V30 1520 H 152.871 6.06455 -0.172364 0
M  V30 1521 H 151.61 4.87076 0.246603 0
M  V30 1522 H 150.615 5.10291 -2.04654 0
M  V30 1523 H 151.84 6.33042 -2.45835 0
M  V30 1524 H 149.786 6.55612 -0.225711 0
M  V30 1525 H 149.703 7.35148 -1.76334 0
M  V30 1526 H 150.971 7.7679 -0.649458 0
M  V30 1527 N 155.201 0.870884 1.31352 0
M  V30 1528 C 156.131 0.343096 2.30966 0
M  V30 1529 C 157.112 -0.566507 1.60389 0
M  V30 1530 O 158.297 -0.483336 1.88089 0
M  V30 1531 C 155.427 -0.455487 3.443 0
M  V30 1532 C 154.381 0.361103 4.26474 0
M  V30 1533 C 153.707 -0.563221 5.31725 0
M  V30 1534 C 155.007 1.59566 4.97329 0
M  V30 1535 H 156.701 1.17548 2.75359 0
M  V30 1536 H 154.247 0.566686 1.32381 0
M  V30 1537 H 156.2 -0.83525 4.13039 0
M  V30 1538 H 154.924 -1.32139 2.98675 0
M  V30 1539 H 153.583 0.722825 3.59403 0
M  V30 1540 H 153.231 -1.42643 4.82351 0
M  V30 1541 H 152.931 -0.0207409 5.87596 0
M  V30 1542 H 154.455 -0.939808 6.03324 0
M  V30 1543 H 155.869 1.28728 5.58661 0
M  V30 1544 H 154.266 2.07728 5.63 0
M  V30 1545 H 155.336 2.34798 4.24262 0
M  V30 1546 N 156.679 -1.44442 0.630414 0
M  V30 1547 C 157.589 -2.34476 -0.0761693 0
M  V30 1548 C 158.605 -1.52576 -0.836449 0
M  V30 1549 O 159.781 -1.85307 -0.788874 0
M  V30 1550 C 156.846 -3.30545 -1.04599 0
M  V30 1551 C 155.907 -4.28352 -0.28516 0
M  V30 1552 C 155.14 -5.19831 -1.20878 0
M  V30 1553 O 155.363 -5.15223 -2.44747 0
M  V30 1554 O 154.297 -5.97892 -0.693491 0
M  V30 1555 H 158.123 -2.96345 0.664324 0
M  V30 1556 H 155.708 -1.44203 0.39061 0
M  V30 1557 H 157.59 -3.89681 -1.60396 0
M  V30 1558 H 156.265 -2.7121 -1.76711 0
M  V30 1559 H 155.172 -3.72764 0.315837 0
M  V30 1560 H 156.505 -4.90605 0.395924 0
M  V30 1561 N 158.157 -0.370918 -1.53173 0
M  V30 1562 C 159.387 0.217389 -2.05453 0
M  V30 1563 C 159.795 1.42568 -1.24382 0
M  V30 1564 O 159.138 1.81571 -0.278839 0
M  V30 1565 C 159.2 0.669827 -3.53205 0
M  V30 1566 C 158.864 -0.4225 -4.55043 0
M  V30 1567 C 159.861 -1.27407 -5.04047 0
M  V30 1568 C 157.546 -0.58427 -4.9889 0
M  V30 1569 C 159.54 -2.27271 -5.95505 0
M  V30 1570 C 157.227 -1.58627 -5.90153 0
M  V30 1571 C 158.225 -2.42892 -6.38351 0
M  V30 1572 O 157.913 -3.41382 -7.27814 0
M  V30 1573 H 157.645 0.0408171 -0.674767 0
M  V30 1574 H 160.199 -0.5292 -1.98466 0
M  V30 1575 H 158.429 1.4681 -3.57748 0
M  V30 1576 H 160.118 1.18173 -3.88317 0
M  V30 1577 H 160.884 -1.16031 -4.70916 0
M  V30 1578 H 156.763 0.061851 -4.60959 0
M  V30 1579 H 160.307 -2.93079 -6.33049 0
M  V30 1580 H 156.204 -1.70048 -6.22699 0
M  V30 1581 H 156.972 -3.37173 -7.45826 0
M  V30 1582 N 159.635 1.57281 -0.100228 0
M  V30 1583 C 160.545 2.17833 0.870965 0
M  V30 1584 C 161.561 1.14921 1.30649 0
M  V30 1585 O 162.737 1.47313 1.37335 0
M  V30 1586 C 159.802 2.75085 2.1102 0
M  V30 1587 C 158.863 3.9297 1.72838 0
M  V30 1588 C 158.096 4.47482 2.90854 0
M  V30 1589 O 158.319 4.00922 4.05731 0
M  V30 1590 O 157.253 5.38433 2.69023 0
M  V30 1591 H 161.079 3.0124 0.38575 0
M  V30 1592 H 158.664 1.48881 0.124397 0
M  V30 1593 H 160.546 3.11656 2.83634 0
M  V30 1594 H 159.221 1.94721 2.58584 0
M  V30 1595 H 158.128 3.61201 0.973883 0
M  V30 1596 H 159.461 4.74713 1.30033 0
M  V30 1597 N 161.113 -0.173488 1.56642 0
M  V30 1598 C 162.06 -1.21482 1.96242 0
M  V30 1599 C 163.03 -1.44104 0.826027 0
M  V30 1600 O 164.215 -1.5688 1.08597 0
M  V30 1601 C 161.355 -2.54964 2.32567 0
M  V30 1602 C 160.468 -2.39739 3.59373 0
M  V30 1603 C 159.603 -3.66072 3.84921 0
M  V30 1604 C 158.642 -3.45771 5.05083 0
M  V30 1605 N 157.779 -4.64169 5.26775 0
M  V30 1606 H 162.619 -0.870123 2.85014 0
M  V30 1607 H 160.156 -0.418245 1.41029 0
M  V30 1608 H 162.114 -3.32758 2.5165 0
M  V30 1609 H 160.744 -2.87433 1.46908 0
M  V30 1610 H 159.796 -1.53131 3.48217 0
M  V30 1611 H 161.108 -2.20683 4.47326 0
M  V30 1612 H 160.262 -4.52303 4.0436 0
M  V30 1613 H 159.001 -3.88105 2.9534 0
M  V30 1614 H 158.006 -2.57927 4.85545 0
M  V30 1615 H 159.231 -3.25163 5.96193 0
M  V30 1616 H 157.177 -4.86425 4.40144 0
M  V30 1617 H 157.094 -4.48019 6.08946 0
M  V30 1618 H 158.362 -5.51689 5.5069 0
M  V30 1619 N 162.591 -1.51276 -0.441967 0
M  V30 1620 C 163.831 -1.65372 -1.20132 0
M  V30 1621 C 164.195 -0.359871 -1.88597 0
M  V30 1622 O 165.396 -0.376551 -2.66149 0
M  V30 1623 C 163.667 -2.8207 -2.1948 0
M  V30 1624 S 165.226 -3.16467 -3.03964 0
M  V30 1625 H 162.044 -0.582669 -0.407453 0
M  V30 1626 H 164.646 -1.89166 -0.493609 0
M  V30 1627 H 163.35 -3.74523 -1.67812 0
M  V30 1628 H 162.881 -2.6045 -2.94838 0
M  V30 1629 H 164.896 -2.62543 -4.21053 0
M  V30 1630 N 164.069 0.697108 -1.41344 0
M  V30 1631 C 164.979 1.84088 -1.45427 0
M  V30 1632 C 165.995 1.70545 -0.34501 0
M  V30 1633 O 167.171 1.92488 -0.592492 0
M  V30 1634 C 164.236 3.20056 -1.33286 0
M  V30 1635 C 163.297 3.45718 -2.54514 0
M  V30 1636 C 162.53 4.75199 -2.42944 0
M  V30 1637 O 162.753 5.51579 -1.45318 0
M  V30 1638 O 161.687 5.0161 -3.32672 0
M  V30 1639 H 165.513 1.836 -2.41919 0
M  V30 1640 H 163.098 0.849966 -1.22866 0
M  V30 1641 H 164.98 4.01236 -1.28794 0
M  V30 1642 H 163.655 3.2123 -0.39909 0
M  V30 1643 H 162.562 2.64474 -2.64583 0
M  V30 1644 H 163.895 3.49356 -3.46715 0
M  V30 1645 N 165.547 1.27147 0.931209 0
M  V30 1646 C 166.963 1.04475 1.20653 0
M  V30 1647 C 167.163 -0.223885 2.00252 0
M  V30 1648 O 166.219 -0.930332 2.34736 0
M  V30 1649 C 167.532 2.28209 1.95809 0
M  V30 1650 C 169.08 2.33211 2.08762 0
M  V30 1651 C 169.555 3.56665 2.87323 0
M  V30 1652 N 171.046 3.57201 2.94892 0
M  V30 1653 C 171.781 4.49395 3.56134 0
M  V30 1654 N 171.277 5.51889 4.18796 0
M  V30 1655 N 173.07 4.37026 3.53504 0
M  V30 1656 H 165.221 2.08612 0.399333 0
M  V30 1657 H 167.484 0.917312 0.239253 0
M  V30 1658 H 167.19 3.20538 1.44736 0
M  V30 1659 H 167.064 2.33247 2.96438 0
M  V30 1660 H 169.451 1.41391 2.59023 0
M  V30 1661 H 169.532 2.32178 1.07364 0
M  V30 1662 H 169.176 4.4882 2.37746 0
M  V30 1663 H 169.106 3.54948 3.88998 0
M  V30 1664 H 171.597 2.83074 2.50354 0
M  V30 1665 H 171.91 6.18409 4.63454 0
M  V30 1666 H 170.255 5.55735 4.17353 0
M  V30 1667 H 173.446 3.56166 3.03749 0
M  V30 1668 H 173.619 5.09067 4.00942 0
M  V30 1669 N 167.025 -1.13721 1.09112 0
M  V30 1670 C 168.25 -1.89314 0.847053 0
M  V30 1671 C 168.675 -1.78416 -0.595774 0
M  V30 1672 O 168.033 -1.12942 -1.41823 0
M  V30 1673 C 168.081 -3.3701 1.28284 0
M  V30 1674 O 167.185 -4.10054 0.439267 0
M  V30 1675 H 166.526 -0.588745 0.307044 0
M  V30 1676 H 169.056 -1.43902 1.45442 0
M  V30 1677 H 169.066 -3.87834 1.26683 0
M  V30 1678 H 167.741 -3.4426 2.33363 0
M  V30 1679 H 166.318 -3.69266 0.519312 0
M  V30 1680 N 168.503 -0.877838 -1.30888 0
M  V30 1681 C 169.743 -0.499301 -1.98208 0
M  V30 1682 C 170.107 0.932649 -1.67826 0
M  V30 1683 O 171.308 1.41694 -2.28421 0
M  V30 1684 C 169.579 -0.758221 -3.49265 0
M  V30 1685 S 171.138 -0.480719 -4.36159 0
M  V30 1686 H 167.956 -0.186062 -0.686223 0
M  V30 1687 H 170.558 -1.13556 -1.59139 0
M  V30 1688 H 169.262 -1.79903 -3.68867 0
M  V30 1689 H 168.793 -0.109247 -3.93248 0
M  V30 1690 H 170.808 0.683698 -4.91467 0
M  V30 1691 N 169.982 1.44106 -0.638065 0
M  V30 1692 C 170.929 2.30715 0.062701 0
M  V30 1693 C 171.899 1.43882 0.829883 0
M  V30 1694 O 173.084 1.72775 0.809532 0
M  V30 1695 C 170.224 3.29258 1.03358 0
M  V30 1696 C 169.337 4.31192 0.26409 0
M  V30 1697 C 168.472 5.16825 1.22741 0
M  V30 1698 C 167.511 6.10462 0.447475 0
M  V30 1699 N 166.648 6.8877 1.36161 0
M  V30 1700 H 171.488 2.90096 -0.681781 0
M  V30 1701 H 169.025 1.42925 -0.347988 0
M  V30 1702 H 170.983 3.84886 1.60992 0
M  V30 1703 H 169.613 2.71562 1.74511 0
M  V30 1704 H 168.665 3.77981 -0.428295 0
M  V30 1705 H 169.977 4.97619 -0.343052 0
M  V30 1706 H 169.131 5.77004 1.87487 0
M  V30 1707 H 167.87 4.50488 1.86847 0
M  V30 1708 H 166.875 5.49386 -0.213433 0
M  V30 1709 H 168.1 6.78837 -0.188968 0
M  V30 1710 H 166.046 6.25096 1.98975 0
M  V30 1711 H 165.963 7.51663 0.808656 0
M  V30 1712 H 167.231 7.53467 1.99769 0
M  V30 1713 N 171.46 0.379036 1.52974 0
M  V30 1714 C 172.709 -0.207612 2.00629 0
M  V30 1715 C 173.022 -1.48758 1.27006 0
M  V30 1716 O 174.228 -2.15365 1.65318 0
M  V30 1717 C 172.684 -0.42053 3.57435 0
M  V30 1718 C 172.292 0.845587 4.39948 0
M  V30 1719 C 174.036 -0.964102 4.13407 0
M  V30 1720 C 171.943 0.601513 5.88333 0
M  V30 1721 H 170.873 -0.0813591 0.749598 0
M  V30 1722 H 173.524 0.499853 1.76561 0
M  V30 1723 H 171.906 -1.18959 3.7771 0
M  V30 1724 H 173.08 1.61848 4.31442 0
M  V30 1725 H 171.395 1.31336 3.95145 0
M  V30 1726 H 173.992 -1.16225 5.21916 0
M  V30 1727 H 174.335 -1.93019 3.68849 0
M  V30 1728 H 174.868 -0.25487 3.96983 0
M  V30 1729 H 171.607 1.53831 6.37194 0
M  V30 1730 H 171.127 -0.132628 5.99653 0
M  V30 1731 H 172.806 0.232134 6.46583 0
M  V30 1732 N 172.938 -1.57226 0.108567 0
M  V30 1733 C 173.87 -2.11809 -0.875752 0
M  V30 1734 C 174.883 -1.05839 -1.23701 0
M  V30 1735 O 176.072 -1.33245 -1.18778 0
M  V30 1736 C 173.172 -2.59411 -2.18081 0
M  V30 1737 C 172.345 -3.89364 -1.99284 0
M  V30 1738 C 171.404 -4.22672 -3.13424 0
M  V30 1739 O 170.43 -4.91668 -2.86795 0
M  V30 1740 N 171.632 -3.79154 -4.3957 0
M  V30 1741 H 174.397 -2.9689 -0.409477 0
M  V30 1742 H 171.958 -1.61721 -0.076158 0
M  V30 1743 H 173.95 -2.7873 -2.93414 0
M  V30 1744 H 172.52 -1.79268 -2.5609 0
M  V30 1745 H 171.74 -3.79059 -1.08203 0
M  V30 1746 H 173.028 -4.74358 -1.84017 0
M  V30 1747 H 172.426 -3.23486 -4.64083 0
M  V30 1748 H 170.983 -4.03602 -5.11809 0
M  V30 1749 N 174.416 0.165178 -1.56732 0
M  V30 1750 C 175.363 1.2044 -1.96883 0
M  V30 1751 C 176.333 1.43664 -0.833657 0
M  V30 1752 O 177.518 1.56302 -1.09427 0
M  V30 1753 C 174.658 2.53727 -2.33916 0
M  V30 1754 C 173.771 2.3783 -3.6064 0
M  V30 1755 C 172.906 3.64026 -3.86857 0
M  V30 1756 C 171.945 3.43088 -5.06909 0
M  V30 1757 N 171.082 4.61369 -5.29229 0
M  V30 1758 H 175.922 0.854996 -2.85471 0
M  V30 1759 H 173.459 0.41076 -1.41249 0
M  V30 1760 H 175.417 3.31419 -2.53411 0
M  V30 1761 H 174.047 2.8665 -1.48431 0
M  V30 1762 H 173.099 1.51282 -3.49024 0
M  V30 1763 H 174.411 2.18308 -4.4849 0
M  V30 1764 H 173.565 4.50152 -4.06753 0
M  V30 1765 H 172.304 3.86533 -2.97394 0
M  V30 1766 H 171.309 2.55349 -4.86906 0
M  V30 1767 H 172.534 3.21997 -5.97909 0
M  V30 1768 H 170.48 4.84084 -4.42718 0
M  V30 1769 H 170.397 4.44783 -6.11313 0
M  V30 1770 H 171.665 5.48761 -5.53608 0
M  V30 1771 N 175.894 1.51508 0.433938 0
M  V30 1772 C 176.841 1.73068 1.52696 0
M  V30 1773 C 177.811 0.572441 1.55924 0
M  V30 1774 O 178.996 0.807253 1.72882 0
M  V30 1775 C 176.136 1.86474 2.90381 0
M  V30 1776 C 175.249 3.14037 2.96656 0
M  V30 1777 C 174.384 3.18019 4.25485 0
M  V30 1778 C 173.423 4.39882 4.2564 0
M  V30 1779 N 172.56 4.41394 5.45999 0
M  V30 1780 H 177.4 2.66366 1.33615 0
M  V30 1781 H 174.937 1.32008 0.649018 0
M  V30 1782 H 176.895 1.92229 3.70275 0
M  V30 1783 H 175.525 0.965809 3.08013 0
M  V30 1784 H 174.577 3.17575 2.09404 0
M  V30 1785 H 175.889 4.0394 2.92633 0
M  V30 1786 H 175.043 3.22708 5.13755 0
M  V30 1787 H 173.782 2.2601 4.3217 0
M  V30 1788 H 172.787 4.35366 3.35763 0
M  V30 1789 H 174.012 5.33159 4.20617 0
M  V30 1790 H 171.958 3.52258 5.53399 0
M  V30 1791 H 171.875 5.25111 5.4387 0
M  V30 1792 H 173.143 4.50281 6.36292 0
M  V30 1793 N 177.372 -0.689602 1.41712 0
M  V30 1794 C 178.32 -1.82475 1.44242 0
M  V30 1795 C 179.314 -1.66354 0.319774 0
M  V30 1796 O 180.52 -1.73143 0.492089 0
M  V30 1797 H 176.895 -0.601416 0.451445 0
M  V30 1798 H 178.866 -1.77458 2.39899 0
M  V30 1799 C 177.615 -3.20535 1.3473 0
M  V30 1800 H 176.938 -3.33559 2.20405 0
M  V30 1801 H 178.378 -4.00023 1.40562 0
M  V30 1802 C 176.837 -3.36846 0.0603281 0
M  V30 1803 O 177.367 -3.91656 -0.892663 0
M  V30 1804 N 175.573 -2.90595 -0.0177039 0
M  V30 1805 H 175.12 -2.46178 0.758572 0
M  V30 1806 H 175.078 -3.01886 -0.878201 0
M  V30 1807 N 178.85 -1.27639 -0.924453 0
M  V30 1808 C 180.266 -1.05113 -1.20097 0
M  V30 1809 C 180.466 0.213262 -2.00368 0
M  V30 1810 O 179.522 0.91787 -2.35226 0
M  V30 1811 C 180.835 -2.29244 -1.94596 0
M  V30 1812 C 182.383 -2.34315 -2.07522 0
M  V30 1813 C 182.858 -3.58183 -2.85427 0
M  V30 1814 N 184.349 -3.5876 -2.92994 0
M  V30 1815 C 185.084 -4.51277 -3.53746 0
M  V30 1816 N 184.58 -5.54102 -4.15863 0
M  V30 1817 N 186.373 -4.38894 -3.51181 0
M  V30 1818 H 178.524 -2.08821 -0.388264 0
M  V30 1819 H 180.787 -0.918568 -0.234385 0
M  V30 1820 H 180.493 -3.21301 -1.43034 0
M  V30 1821 H 180.367 -2.34816 -2.95197 0
M  V30 1822 H 182.754 -1.42762 -2.58269 0
M  V30 1823 H 182.835 -2.32744 -1.06131 0
M  V30 1824 H 182.479 -4.50074 -2.35363 0
M  V30 1825 H 182.409 -3.57006 -3.8711 0
M  V30 1826 H 184.9 -2.84398 -2.4885 0
M  V30 1827 H 185.213 -6.20859 -4.60168 0
M  V30 1828 H 183.558 -5.57941 -4.144 0
M  V30 1829 H 186.749 -3.57772 -3.01856 0
M  V30 1830 H 186.922 -5.11186 -3.98237 0
M  V30 1831 N 180.328 1.1314 -1.09713 0
M  V30 1832 C 181.276 2.20717 -0.733934 0
M  V30 1833 C 182.27 1.6729 0.266506 0
M  V30 1834 O 183.476 1.79547 0.127656 0
M  V30 1835 H 179.851 0.719292 -0.21937 0
M  V30 1836 H 181.822 2.48611 -1.6503 0
M  V30 1837 C 180.571 3.47265 -0.173849 0
M  V30 1838 H 179.894 3.88716 -0.934873 0
M  V30 1839 H 181.334 4.23979 0.0423126 0
M  V30 1840 C 179.793 3.18724 1.09164 0
M  V30 1841 O 180.323 3.37762 2.17439 0
M  V30 1842 N 178.529 2.72583 1.00732 0
M  V30 1843 H 178.076 2.57291 0.126121 0
M  V30 1844 H 178.034 2.53862 1.85476 0
M  V30 1845 N 181.806 0.884767 1.30421 0
M  V30 1846 C 182.753 0.349642 2.28136 0
M  V30 1847 C 183.723 -0.560061 1.56373 0
M  V30 1848 O 184.908 -0.488524 1.8444 0
M  V30 1849 C 182.048 -0.42999 3.42411 0
M  V30 1850 C 181.161 0.508907 4.28992 0
M  V30 1851 C 180.296 -0.286301 5.30428 0
M  V30 1852 C 179.335 0.648079 6.08659 0
M  V30 1853 N 178.472 -0.111792 7.02011 0
M  V30 1854 H 183.312 1.18807 2.73293 0
M  V30 1855 H 180.849 0.597231 1.3443 0
M  V30 1856 H 182.807 -0.897923 4.07423 0
M  V30 1857 H 181.437 -1.23299 2.98324 0
M  V30 1858 H 180.489 1.09533 3.64289 0
M  V30 1859 H 181.801 1.22475 4.8353 0
M  V30 1860 H 180.955 -0.816098 6.01186 0
M  V30 1861 H 179.694 -1.03536 4.76583 0
M  V30 1862 H 178.699 1.18951 5.36778 0
M  V30 1863 H 179.924 1.39623 6.64592 0
M  V30 1864 H 177.87 -0.843395 6.50556 0
M  V30 1865 H 177.787 0.544429 7.54037 0
M  V30 1866 H 179.055 -0.622339 7.77012 0
M  V30 1867 N 183.284 -1.43765 0.645699 0
M  V30 1868 C 184.524 -2.03776 0.159542 0
M  V30 1869 C 184.888 -1.49792 -1.2011 0
M  V30 1870 O 186.089 -2.01398 -1.78023 0
M  V30 1871 C 184.36 -3.57036 0.161251 0
M  V30 1872 S 185.919 -4.3804 -0.258159 0
M  V30 1873 H 182.737 -0.707717 0.0682454 0
M  V30 1874 H 185.339 -1.75941 0.852352 0
M  V30 1875 H 184.043 -3.9383 1.15439 0
M  V30 1876 H 183.574 -3.89503 -0.552339 0
M  V30 1877 H 185.589 -4.7302 -1.49889 0
M  V30 1878 N 184.763 -0.387143 -1.52771 0
M  V30 1879 C 185.695 0.484089 -2.2403 0
M  V30 1880 C 186.708 1.02849 -1.26198 0
M  V30 1881 O 187.897 0.931186 -1.52286 0
M  V30 1882 C 184.997 1.68337 -2.94136 0
M  V30 1883 C 184.17 1.26672 -4.18656 0
M  V30 1884 C 183.229 2.33045 -4.7178 0
M  V30 1885 O 182.255 1.94541 -5.34923 0
M  V30 1886 N 183.457 3.64929 -4.5145 0
M  V30 1887 H 186.222 -0.126404 -2.99433 0
M  V30 1888 H 183.783 -0.213392 -1.60488 0
M  V30 1889 H 185.775 2.39019 -3.26577 0
M  V30 1890 H 184.345 2.20025 -2.22053 0
M  V30 1891 H 183.565 0.388878 -3.92277 0
M  V30 1892 H 184.853 0.964964 -4.99566 0
M  V30 1893 H 184.251 3.98974 -4.01044 0
M  V30 1894 H 182.808 4.31651 -4.88386 0
M  V30 1895 N 186.241 1.57166 -0.116904 0
M  V30 1896 C 187.471 1.99184 0.548586 0
M  V30 1897 C 187.879 0.995436 1.60897 0
M  V30 1898 O 187.222 -0.0201293 1.83689 0
M  V30 1899 C 187.284 3.37611 1.23526 0
M  V30 1900 C 186.948 4.55857 0.323077 0
M  V30 1901 C 187.945 5.18056 -0.437476 0
M  V30 1902 C 185.63 5.01751 0.234761 0
M  V30 1903 C 187.624 6.24536 -1.2741 0
M  V30 1904 C 185.311 6.08093 -0.605496 0
M  V30 1905 C 186.309 6.69352 -1.35856 0
M  V30 1906 O 185.997 7.7364 -2.18487 0
M  V30 1907 H 185.729 0.659148 0.149999 0
M  V30 1908 H 188.283 2.0443 -0.199428 0
M  V30 1909 H 186.513 3.29113 2.0303 0
M  V30 1910 H 188.202 3.63932 1.79745 0
M  V30 1911 H 188.968 4.83516 -0.379105 0
M  V30 1912 H 184.847 4.53817 0.810601 0
M  V30 1913 H 188.391 6.72281 -1.86237 0
M  V30 1914 H 184.288 6.42063 -0.665268 0
M  V30 1915 H 185.056 7.90727 -2.11406 0
M  V30 1916 N 187.719 -0.156864 1.56817 0
M  V30 1917 C 188.959 -0.877453 1.84608 0
M  V30 1918 C 189.323 -1.78791 0.699845 0
M  V30 1919 O 190.524 -2.5472 0.858553 0
M  V30 1920 C 188.795 -1.63992 3.17555 0
M  V30 1921 S 190.354 -2.40729 3.66872 0
M  V30 1922 H 187.172 -0.293612 0.647544 0
M  V30 1923 H 189.774 -0.138099 1.95012 0
M  V30 1924 H 188.478 -0.962363 3.98957 0
M  V30 1925 H 188.009 -2.42038 3.10131 0
M  V30 1926 H 190.024 -3.65725 3.3535 0
M  V30 1927 N 189.197 -1.51736 -0.425897 0
M  V30 1928 C 190.613 -1.40166 -0.76326 0
M  V30 1929 C 190.813 -0.492962 -1.95377 0
M  V30 1930 O 189.869 0.0475815 -2.52455 0
M  V30 1931 C 191.182 -2.82403 -1.03291 0
M  V30 1932 C 192.73 -2.91632 -1.13665 0
M  V30 1933 C 193.205 -4.34801 -1.43916 0
M  V30 1934 N 194.696 -4.3796 -1.50816 0
M  V30 1935 C 195.431 -5.4578 -1.75817 0
M  V30 1936 N 194.927 -6.63744 -1.98534 0
M  V30 1937 N 196.72 -5.33274 -1.77694 0
M  V30 1938 H 188.871 -2.09361 0.358 0
M  V30 1939 H 191.134 -0.942941 0.0978094 0
M  V30 1940 H 190.84 -3.50943 -0.230696 0
M  V30 1941 H 190.714 -3.22428 -1.95754 0
M  V30 1942 H 193.101 -2.23284 -1.92947 0
M  V30 1943 H 193.182 -2.55088 -0.190756 0
M  V30 1944 H 192.826 -5.03703 -0.65157 0
M  V30 1945 H 192.756 -4.68868 -2.39729 0
M  V30 1946 H 195.247 -3.52919 -1.35118 0
M  V30 1947 H 195.56 -7.41704 -2.17013 0
M  V30 1948 H 193.905 -6.66839 -1.95832 0
M  V30 1949 H 197.096 -4.40098 -1.59473 0
M  V30 1950 H 197.269 -6.1738 -1.9684 0
M  V30 1951 N 190.675 0.682077 -1.42076 0
M  V30 1952 C 191.922 1.44215 -1.42156 0
M  V30 1953 C 192.25 1.94468 -0.0354186 0
M  V30 1954 O 191.505 1.70816 0.955002 0
M  V30 1955 C 191.804 2.66036 -2.38662 0
M  V30 1956 C 191.47 2.34366 -3.85206 0
M  V30 1957 C 190.132 2.25439 -4.25124 0
M  V30 1958 C 192.484 2.08513 -4.77673 0
M  V30 1959 C 189.812 1.88775 -5.55501 0
M  V30 1960 C 192.164 1.73354 -6.08384 0
M  V30 1961 C 190.828 1.62933 -6.47309 0
M  V30 1962 H 190.098 0.527718 -0.520187 0
M  V30 1963 H 192.745 0.778387 -1.74967 0
M  V30 1964 H 191.05 3.3741 -1.99152 0
M  V30 1965 H 192.747 3.24205 -2.35991 0
M  V30 1966 H 189.337 2.42213 -3.53597 0
M  V30 1967 H 193.521 2.14346 -4.47626 0
M  V30 1968 H 188.777 1.7927 -5.84527 0
M  V30 1969 H 192.951 1.52373 -6.79526 0
M  V30 1970 H 190.578 1.34292 -7.48244 0
M  V30 1971 N 192.153 1.28127 0.917671 0
M  V30 1972 C 193.085 1.07517 2.02417 0
M  V30 1973 C 194.098 0.0281099 1.62776 0
M  V30 1974 O 195.287 0.270748 1.76435 0
M  V30 1975 C 192.387 0.610957 3.33347 0
M  V30 1976 C 191.56 1.73255 4.01624 0
M  V30 1977 C 190.619 1.26238 5.10833 0
M  V30 1978 O 189.645 1.96389 5.34247 0
M  V30 1979 N 190.847 0.123448 5.80369 0
M  V30 1980 H 193.612 2.02806 2.20658 0
M  V30 1981 H 191.173 1.19827 1.08871 0
M  V30 1982 H 193.165 0.280101 4.0373 0
M  V30 1983 H 191.735 -0.24898 3.11607 0
M  V30 1984 H 190.955 2.23319 3.24842 0
M  V30 1985 H 192.243 2.48503 4.43986 0
M  V30 1986 H 191.641 -0.461847 5.63812 0
M  V30 1987 H 190.198 -0.148158 6.51632 0
M  V30 1988 N 193.631 -1.12557 1.10312 0
M  V30 1989 C 194.578 -2.18247 0.750781 0
M  V30 1990 C 195.548 -1.63853 -0.272293 0
M  V30 1991 O 196.733 -1.90195 -0.151862 0
M  V30 1992 C 193.873 -3.44591 0.187379 0
M  V30 1993 C 192.986 -4.13046 1.2656 0
M  V30 1994 C 192.121 -5.27034 0.663978 0
M  V30 1995 C 191.16 -5.87353 1.72287 0
M  V30 1996 N 190.297 -6.92757 1.1416 0
M  V30 1997 H 195.137 -2.47732 1.65628 0
M  V30 1998 H 192.674 -1.21629 0.827337 0
M  V30 1999 H 194.632 -4.16904 -0.157148 0
M  V30 2000 H 193.262 -3.15527 -0.681355 0
M  V30 2001 H 192.314 -3.38924 1.72727 0
M  V30 2002 H 193.626 -4.53947 2.06721 0
M  V30 2003 H 192.78 -6.06104 0.268824 0
M  V30 2004 H 191.519 -4.87407 -0.169082 0
M  V30 2005 H 190.524 -5.06971 2.12746 0
M  V30 2006 H 191.749 -6.29051 2.55875 0
M  V30 2007 H 189.695 -6.5517 0.329984 0
M  V30 2008 H 189.612 -7.3225 1.88007 0
M  V30 2009 H 190.88 -7.75658 0.772956 0
M  V30 2010 N 195.109 -0.891671 -1.2995 0
M  V30 2011 C 196.349 -0.520296 -1.97667 0
M  V30 2012 C 196.713 0.914797 -1.68806 0
M  V30 2013 O 197.914 1.39263 -2.29911 0
M  V30 2014 C 196.185 -0.795222 -3.48441 0
M  V30 2015 S 197.744 -0.526953 -4.35624 0
M  V30 2016 H 194.562 -0.19333 -0.684211 0
M  V30 2017 H 197.164 -1.15238 -1.57926 0
M  V30 2018 H 195.868 -1.83805 -3.66938 0
M  V30 2019 H 195.399 -0.15095 -3.9311 0
M  V30 2020 H 197.414 0.631533 -4.92165 0
M  V30 2021 N 196.587 1.43421 -0.653314 0
M  V30 2022 C 197.517 2.33487 0.0246656 0
M  V30 2023 C 198.498 1.49475 0.811863 0
M  V30 2024 O 199.683 1.78139 0.773322 0
M  V30 2025 C 196.813 3.32841 0.99166 0
M  V30 2026 C 195.767 4.26842 0.314568 0
M  V30 2027 C 195.093 5.16236 1.39302 0
M  V30 2028 C 196.393 5.16243 -0.793095 0
M  V30 2029 H 198.087 2.90427 -0.727481 0
M  V30 2030 H 195.633 1.39649 -0.351287 0
M  V30 2031 H 197.586 3.94747 1.47487 0
M  V30 2032 H 196.31 2.74158 1.77497 0
M  V30 2033 H 194.969 3.663 -0.148199 0
M  V30 2034 H 194.617 4.53891 2.16776 0
M  V30 2035 H 194.317 5.79948 0.945223 0
M  V30 2036 H 195.841 5.81015 1.87759 0
M  V30 2037 H 197.255 5.71958 -0.392039 0
M  V30 2038 H 195.652 5.88676 -1.16536 0
M  V30 2039 H 196.722 4.55927 -1.65103 0
M  V30 2040 N 198.065 0.39524 1.52563 0
M  V30 2041 C 199.028 -0.425001 2.25225 0
M  V30 2042 C 200.028 -0.985266 1.27079 0
M  V30 2043 O 201.218 -0.866332 1.5113 0
M  V30 2044 C 198.35 -1.59686 3.01186 0
M  V30 2045 H 199.543 0.211233 2.99155 0
M  V30 2046 H 197.096 0.147472 1.55603 0
M  V30 2047 H 197.831 -2.27035 2.31572 0
M  V30 2048 H 197.616 -1.20176 3.73229 0
M  V30 2049 H 199.106 -2.17743 3.5634 0
M  V30 2050 N 199.544 -1.57102 0.125237 0
M  V30 2051 C 200.474 -2.18659 -0.819174 0
M  V30 2052 C 201.455 -1.12843 -1.27281 0
M  V30 2053 O 202.64 -1.41104 -1.33429 0
M  V30 2054 C 199.77 -2.79096 -2.06695 0
M  V30 2055 C 198.724 -3.90548 -1.75088 0
M  V30 2056 C 198.05 -4.37821 -3.06948 0
M  V30 2057 C 199.35 -5.12356 -1.01435 0
M  V30 2058 H 201.044 -2.9783 -0.306202 0
M  V30 2059 H 198.59 -1.4326 -0.145839 0
M  V30 2060 H 200.543 -3.2082 -2.73226 0
M  V30 2061 H 199.267 -1.97223 -2.60328 0
M  V30 2062 H 197.926 -3.49409 -1.10944 0
M  V30 2063 H 197.574 -3.52799 -3.58527 0
M  V30 2064 H 197.274 -5.12982 -2.86571 0
M  V30 2065 H 198.798 -4.822 -3.74587 0
M  V30 2066 H 200.212 -5.5106 -1.58132 0
M  V30 2067 H 198.609 -5.9314 -0.911319 0
M  V30 2068 H 199.679 -4.849 -0.00218681 0
M  V30 2069 N 201.022 0.148545 -1.56898 0
M  V30 2070 C 202.27 0.859717 -1.82902 0
M  V30 2071 C 202.591 1.81775 -0.70588 0
M  V30 2072 O 201.861 1.93994 0.272586 0
M  V30 2073 H 200.441 0.320469 -0.674766 0
M  V30 2074 H 203.103 0.142918 -1.94375 0
M  V30 2075 H 202.199 1.4229 -2.77777 0
M  V30 2076 N 202.5 1.5196 0.417844 0
M  V30 2077 C 203.433 1.69387 1.52916 0
M  V30 2078 C 204.411 0.541419 1.53321 0
M  V30 2079 O 205.595 0.767695 1.72159 0
M  V30 2080 C 202.722 1.72525 2.91467 0
M  V30 2081 C 201.768 2.93967 3.09008 0
M  V30 2082 S 202.601 4.54461 2.83242 0
M  V30 2083 C 203.757 4.60372 4.24038 0
M  V30 2084 H 203.99 2.63382 1.37903 0
M  V30 2085 H 201.523 1.41889 0.608845 0
M  V30 2086 H 203.481 1.75018 3.7132 0
M  V30 2087 H 202.142 0.796733 3.03827 0
M  V30 2088 H 201.335 2.92619 4.10353 0
M  V30 2089 H 200.937 2.89316 2.37007 0
M  V30 2090 H 203.229 4.37213 5.17544 0
M  V30 2091 H 204.172 5.62273 4.30412 0
M  V30 2092 H 204.58 3.89492 4.08602 0
M  V30 2093 N 203.978 -0.674533 1.42435 0
M  V30 2094 C 205.203 -1.46784 1.46524 0
M  V30 2095 C 205.628 -1.87938 0.078066 0
M  V30 2096 O 204.986 -1.56014 -0.92354 0
M  V30 2097 C 205.034 -2.69307 2.39805 0
M  V30 2098 O 204.138 -3.67587 1.86959 0
M  V30 2099 H 203.479 -0.440959 0.496439 0
M  V30 2100 H 206.009 -0.827326 1.87127 0
M  V30 2101 H 206.019 -3.17374 2.56393 0
M  V30 2102 H 204.694 -2.38692 3.40586 0
M  V30 2103 H 203.271 -3.2662 1.79927 0
M  V30 2104 N 205.456 -1.28612 -0.910864 0
M  V30 2105 C 206.406 -1.09423 -2.00026 0
M  V30 2106 C 207.39 -0.0170079 -1.60891 0
M  V30 2107 O 208.582 -0.237472 -1.754 0
M  V30 2108 C 205.711 -0.76114 -3.34756 0
M  V30 2109 C 204.797 -1.87735 -3.80285 0
M  V30 2110 N 205.188 -3.11938 -3.98156 0
M  V30 2111 C 203.486 -1.76786 -4.09467 0
M  V30 2112 C 204.187 -3.84687 -4.36338 0
M  V30 2113 N 203.163 -3.12555 -4.44759 0
M  V30 2114 H 206.965 -2.03658 -2.11898 0
M  V30 2115 H 204.479 -1.19573 -1.09891 0
M  V30 2116 H 206.476 -0.604743 -4.12491 0
M  V30 2117 H 205.136 0.173403 -3.24237 0
M  V30 2118 H 206.147 -3.47516 -3.83996 0
M  V30 2119 H 202.824 -0.905284 -4.07567 0
M  V30 2120 H 204.214 -4.91518 -4.58104 0
M  V30 2121 N 206.934 1.1197 -1.10907 0
M  V30 2122 C 207.882 2.19927 -0.757303 0
M  V30 2123 C 208.876 1.67564 0.248747 0
M  V30 2124 O 210.082 1.79672 0.108605 0
M  V30 2125 H 206.457 0.716925 -0.226987 0
M  V30 2126 H 208.428 2.46847 -1.67658 0
M  V30 2127 C 207.177 3.47061 -0.210671 0
M  V30 2128 H 206.5 3.87703 -0.976049 0
M  V30 2129 H 207.94 4.24 -0.0026584 0
M  V30 2130 C 206.399 3.19864 1.05777 0
M  V30 2131 O 206.929 3.40049 2.13845 0
M  V30 2132 N 205.135 2.73636 0.978349 0
M  V30 2133 H 204.682 2.5741 0.0988246 0
M  V30 2134 H 204.64 2.55815 1.82773 0
M  V30 2135 N 208.412 0.89855 1.29475 0
M  V30 2136 C 209.375 0.380272 2.26023 0
M  V30 2137 C 210.375 -0.484891 1.53315 0
M  V30 2138 O 211.565 -0.290108 1.71767 0
M  V30 2139 C 208.697 -0.45651 3.3783 0
M  V30 2140 H 209.89 1.23295 2.73383 0
M  V30 2141 H 207.443 0.676589 1.40897 0
M  V30 2142 H 208.178 -1.32922 2.95808 0
M  V30 2143 H 207.963 0.163393 3.91759 0
M  V30 2144 H 209.453 -0.810466 4.0966 0
M  V30 2145 N 209.89 -1.43072 0.660911 0
M  V30 2146 C 211.139 -2.00942 0.174735 0
M  V30 2147 C 211.452 -1.52797 -1.22117 0
M  V30 2148 O 212.658 -2.02991 -1.80297 0
M  V30 2149 C 211.114 -3.58948 0.261559 0
M  V30 2150 C 210.722 -4.16085 1.66064 0
M  V30 2151 C 212.466 -4.24173 -0.166617 0
M  V30 2152 C 210.373 -5.6641 1.70098 0
M  V30 2153 H 209.303 -0.751483 0.0615631 0
M  V30 2154 H 211.954 -1.63955 0.824069 0
M  V30 2155 H 210.336 -3.93372 -0.455421 0
M  V30 2156 H 211.51 -3.93147 2.40359 0
M  V30 2157 H 209.825 -3.6326 2.03546 0
M  V30 2158 H 212.422 -5.34471 -0.156433 0
M  V30 2159 H 212.765 -3.98647 -1.19943 0
M  V30 2160 H 213.298 -3.94659 0.498875 0
M  V30 2161 H 210.037 -5.96715 2.71315 0
M  V30 2162 H 209.557 -5.91382 1.00139 0
M  V30 2163 H 211.236 -6.30585 1.44816 0
M  V30 2164 N 211.368 -0.403325 -1.52352 0
M  V30 2165 C 212.784 -0.0539281 -1.59509 0
M  V30 2166 C 212.984 1.43307 -1.41652 0
M  V30 2167 O 212.04 2.19924 -1.24056 0
M  V30 2168 C 213.353 -0.543654 -2.95745 0
M  V30 2169 C 214.901 -0.501125 -3.08962 0
M  V30 2170 C 215.376 -0.967267 -4.47669 0
M  V30 2171 N 216.867 -0.923849 -4.53893 0
M  V30 2172 C 217.602 -1.25578 -5.5948 0
M  V30 2173 N 217.098 -1.65889 -6.72646 0
M  V30 2174 N 218.891 -1.17613 -5.49658 0
M  V30 2175 H 211.042 -1.37123 -1.62206 0
M  V30 2176 H 213.305 -0.56294 -0.76276 0
M  V30 2177 H 213.011 -1.58275 -3.14073 0
M  V30 2178 H 212.885 0.0498042 -3.77167 0
M  V30 2179 H 215.272 0.528909 -2.90321 0
M  V30 2180 H 215.353 -1.13056 -2.2946 0
M  V30 2181 H 214.997 -1.9956 -4.67053 0
M  V30 2182 H 214.927 -0.314698 -5.25659 0
M  V30 2183 H 217.418 -0.627403 -3.72655 0
M  V30 2184 H 217.731 -1.89543 -7.49195 0
M  V30 2185 H 216.076 -1.69787 -6.73942 0
M  V30 2186 H 219.267 -0.860115 -4.6013 0
M  V30 2187 H 219.44 -1.43812 -6.3184 0
M  V30 2188 N 212.846 1.57033 -0.133567 0
M  V30 2189 C 214.093 1.95686 0.520877 0
M  V30 2190 C 214.421 1.0177 1.6575 0
M  V30 2191 O 213.676 0.0443195 1.9565 0
M  V30 2192 C 213.975 3.40674 1.08057 0
M  V30 2193 C 213.641 4.50855 0.0637899 0
M  V30 2194 C 212.303 4.80716 -0.215757 0
M  V30 2195 C 214.655 5.17398 -0.62835 0
M  V30 2196 C 211.983 5.74433 -1.19348 0
M  V30 2197 C 214.335 6.12167 -1.5948 0
M  V30 2198 C 212.999 6.40414 -1.88218 0
M  V30 2199 H 212.269 0.716067 0.190602 0
M  V30 2200 H 214.916 1.9026 -0.217556 0
M  V30 2201 H 213.221 3.42865 1.89606 0
M  V30 2202 H 214.918 3.67902 1.59529 0
M  V30 2203 H 211.508 4.27605 0.291855 0
M  V30 2204 H 215.692 4.94472 -0.425562 0
M  V30 2205 H 210.948 5.94616 -1.42272 0
M  V30 2206 H 215.122 6.6281 -2.13671 0
M  V30 2207 H 212.749 7.12838 -2.64133 0
M  V30 2208 N 214.325 -0.140222 1.56975 0
M  V30 2209 C 215.573 -0.850005 1.83356 0
M  V30 2210 C 215.894 -1.81399 0.71551 0
M  V30 2211 O 215.164 -1.94136 -0.262294 0
M  V30 2212 H 213.744 -0.316886 0.676456 0
M  V30 2213 H 216.406 -0.132608 1.94448 0
M  V30 2214 H 215.502 -1.40814 2.78528 0
M  V30 2215 N 215.803 -1.52179 -0.40978 0
M  V30 2216 C 217.219 -1.40968 -0.74835 0
M  V30 2217 C 217.419 -0.513657 -1.94843 0
M  V30 2218 O 216.475 0.0208026 -2.52491 0
M  V30 2219 C 217.788 -2.83483 -1.0029 0
M  V30 2220 C 219.336 -2.92821 -1.10565 0
M  V30 2221 C 219.811 -4.36303 -1.39296 0
M  V30 2222 N 221.302 -4.39535 -1.46162 0
M  V30 2223 C 222.037 -5.47614 -1.70018 0
M  V30 2224 N 221.533 -6.65812 -1.91483 0
M  V30 2225 N 223.326 -5.35129 -1.72027 0
M  V30 2226 H 215.477 -2.0897 0.380186 0
M  V30 2227 H 217.74 -0.94185 0.107805 0
M  V30 2228 H 217.446 -3.51168 -0.193461 0
M  V30 2229 H 217.32 -3.24487 -1.92323 0
M  V30 2230 H 219.707 -2.25318 -1.90568 0
M  V30 2231 H 219.788 -2.55276 -0.16369 0
M  V30 2232 H 219.432 -5.04366 -0.598109 0
M  V30 2233 H 219.362 -4.71385 -2.34743 0
M  V30 2234 H 221.853 -3.54332 -1.31367 0
M  V30 2235 H 222.166 -7.43964 -2.09134 0
M  V30 2236 H 220.511 -6.68879 -1.88749 0
M  V30 2237 H 223.702 -4.41764 -1.54796 0
M  V30 2238 H 223.875 -6.19433 -1.9028 0
M  V30 2239 N 217.281 0.66697 -1.42791 0
M  V30 2240 C 218.214 1.79177 -1.41318 0
M  V30 2241 C 219.192 1.60234 -0.276401 0
M  V30 2242 O 220.376 1.82602 -0.46785 0
M  V30 2243 C 217.503 3.16289 -1.21157 0
M  V30 2244 C 216.549 3.53964 -2.37932 0
M  V30 2245 S 217.382 3.55501 -4.00474 0
M  V30 2246 C 218.538 4.95292 -3.8267 0
M  V30 2247 H 218.771 1.80153 -2.365 0
M  V30 2248 H 216.304 0.838357 -1.29657 0
M  V30 2249 H 218.262 3.95428 -1.10212 0
M  V30 2250 H 216.923 3.1289 -0.275481 0
M  V30 2251 H 216.116 4.53646 -2.19594 0
M  V30 2252 H 215.718 2.82204 -2.45432 0
M  V30 2253 H 218.01 5.83584 -3.44145 0
M  V30 2254 H 218.953 5.18679 -4.82055 0
M  V30 2255 H 219.361 4.68179 -3.15386 0
M  V30 2256 N 218.759 1.29093 0.90403 0
M  V30 2257 C 220.17 1.15186 1.46932 0
M  V30 2258 C 220.521 -0.254587 1.94541 0
M  V30 2259 O 219.646 -1.14972 1.83332 0
M  V30 2260 C 220.241 2.08492 2.67051 0
M  V30 2261 C 218.8 1.98621 3.19729 0
M  V30 2262 C 217.947 1.9967 1.92425 0
M  V30 2263 H 220.898 1.41641 0.715789 0
M  V30 2264 H 220.919 1.65461 3.42641 0
M  V30 2265 H 220.431 3.10847 2.3237 0
M  V30 2266 H 218.532 0.993389 3.59114 0
M  V30 2267 H 218.645 2.86068 3.8432 0
M  V30 2268 H 217.009 1.44208 2.09943 0
M  V30 2269 H 217.792 3.03721 1.60026 0
M  V30 2270 N 220.237 -1.11381 1.11499 0
M  V30 2271 C 221.147 -2.21019 0.786628 0
M  V30 2272 C 222.163 -1.72597 -0.220507 0
M  V30 2273 O 223.339 -2.01321 -0.0565251 0
M  V30 2274 C 220.404 -3.459 0.235333 0
M  V30 2275 C 219.465 -4.09107 1.30115 0
M  V30 2276 C 218.698 -5.28027 0.776068 0
M  V30 2277 O 218.921 -5.6904 -0.393661 0
M  V30 2278 O 217.855 -5.81835 1.54114 0
M  V30 2279 H 221.681 -2.51521 1.70209 0
M  V30 2280 H 219.266 -1.19928 0.890928 0
M  V30 2281 H 221.148 -4.21346 -0.067715 0
M  V30 2282 H 219.823 -3.17049 -0.652828 0
M  V30 2283 H 218.73 -3.35391 1.65722 0
M  V30 2284 H 220.063 -4.42139 2.16273 0
M  V30 2285 N 221.715 -0.905404 -1.28997 0
M  V30 2286 C 222.678 -0.392253 -2.25819 0
M  V30 2287 C 223.678 0.476753 -1.5357 0
M  V30 2288 O 224.868 0.280994 -1.71919 0
M  V30 2289 C 222 0.438588 -3.38067 0
M  V30 2290 H 223.193 -1.24743 -2.72725 0
M  V30 2291 H 220.746 -0.684051 -1.40536 0
M  V30 2292 H 221.481 1.31352 -2.96508 0
M  V30 2293 H 221.266 -0.184167 -3.91667 0
M  V30 2294 H 222.756 0.78873 -4.10084 0
M  V30 2295 N 223.193 1.4272 -0.668489 0
M  V30 2296 C 224.103 2.34596 0.0139753 0
M  V30 2297 C 225.119 1.5474 0.795703 0
M  V30 2298 O 226.295 1.87334 0.739466 0
M  V30 2299 C 223.36 3.33202 0.957982 0
M  V30 2300 C 222.421 4.28957 0.17149 0
M  V30 2301 C 221.654 5.22853 1.07053 0
M  V30 2302 O 221.877 5.21531 2.31001 0
M  V30 2303 O 220.811 5.9952 0.534727 0
M  V30 2304 H 224.637 2.9448 -0.742661 0
M  V30 2305 H 222.222 1.43117 -0.428705 0
M  V30 2306 H 224.104 3.93796 1.50008 0
M  V30 2307 H 222.779 2.758 1.69458 0
M  V30 2308 H 221.686 3.71796 -0.414558 0
M  V30 2309 H 223.019 4.89383 -0.52586 0
M  V30 2310 N 224.671 0.411399 1.52136 0
M  V30 2311 C 225.618 -0.412975 2.27075 0
M  V30 2312 C 226.588 -1.03912 1.29582 0
M  V30 2313 O 227.773 -1.06296 1.58448 0
M  V30 2314 C 224.913 -1.52247 3.09701 0
M  V30 2315 C 224.026 -0.917021 4.22155 0
M  V30 2316 C 223.161 -1.9994 4.92135 0
M  V30 2317 C 222.2 -1.37101 5.96548 0
M  V30 2318 N 221.337 -2.39364 6.60038 0
M  V30 2319 H 226.177 0.232499 2.97092 0
M  V30 2320 H 223.714 0.126496 1.46555 0
M  V30 2321 H 225.672 -2.17674 3.55913 0
M  V30 2322 H 224.302 -2.13794 2.41851 0
M  V30 2323 H 223.354 -0.151742 3.80097 0
M  V30 2324 H 224.666 -0.418006 4.97045 0
M  V30 2325 H 223.82 -2.73088 5.41763 0
M  V30 2326 H 222.559 -2.53208 4.16818 0
M  V30 2327 H 221.564 -0.624873 5.46237 0
M  V30 2328 H 222.789 -0.845998 6.7381 0
M  V30 2329 H 220.735 -2.91759 5.87548 0
M  V30 2330 H 220.652 -1.9428 7.3061 0
M  V30 2331 H 221.92 -3.12074 7.14304 0
M  V30 2332 N 226.149 -1.5696 0.141893 0
M  V30 2333 C 227.565 -1.58151 -0.21456 0
M  V30 2334 C 227.765 -1.1559 -1.65049 0
M  V30 2335 O 226.821 -0.853832 -2.37626 0
M  V30 2336 C 228.134 -3.00674 0.0395576 0
M  V30 2337 C 229.682 -3.1299 -0.0245529 0
M  V30 2338 C 230.157 -4.57554 0.202167 0
M  V30 2339 N 231.648 -4.62961 0.148919 0
M  V30 2340 C 232.383 -5.7262 0.298924 0
M  V30 2341 N 231.879 -6.90947 0.50637 0
M  V30 2342 N 233.672 -5.61601 0.236886 0
M  V30 2343 H 225.823 -1.8292 1.07953 0
M  V30 2344 H 228.086 -0.846425 0.42693 0
M  V30 2345 H 227.792 -3.36183 1.03315 0
M  V30 2346 H 227.666 -3.70981 -0.682143 0
M  V30 2347 H 230.053 -2.77326 -1.00869 0
M  V30 2348 H 230.134 -2.4518 0.729396 0
M  V30 2349 H 229.778 -4.93922 1.18338 0
M  V30 2350 H 229.708 -5.23484 -0.572044 0
M  V30 2351 H 232.199 -3.77899 -0.00697015 0
M  V30 2352 H 232.512 -7.7038 0.611076 0
M  V30 2353 H 230.857 -6.92878 0.542628 0
M  V30 2354 H 234.048 -4.68039 0.0756209 0
M  V30 2355 H 234.221 -6.47015 0.357227 0
M  V30 2356 N 227.627 0.131896 -1.57047 0
M  V30 2357 C 228.574 1.16236 -1.99393 0
M  V30 2358 C 229.544 1.41863 -0.863943 0
M  V30 2359 O 230.729 1.53946 -1.12718 0
M  V30 2360 C 227.869 2.48708 -2.39245 0
M  V30 2361 C 226.982 2.30127 -3.65603 0
M  V30 2362 C 226.117 3.55738 -3.94492 0
M  V30 2363 C 225.156 3.32259 -5.14073 0
M  V30 2364 N 224.293 4.50039 -5.38896 0
M  V30 2365 H 229.133 0.794251 -2.87221 0
M  V30 2366 H 226.67 0.380707 -1.42088 0
M  V30 2367 H 228.628 3.25969 -2.60384 0
M  V30 2368 H 227.258 2.83437 -1.54478 0
M  V30 2369 H 226.31 1.43845 -3.52154 0
M  V30 2370 H 227.622 2.08746 -4.5302 0
M  V30 2371 H 226.776 4.41423 -4.1621 0
M  V30 2372 H 225.515 3.80138 -3.05526 0
M  V30 2373 H 224.52 2.44963 -4.92212 0
M  V30 2374 H 225.745 3.09242 -6.04604 0
M  V30 2375 H 223.691 4.74584 -4.52886 0
M  V30 2376 H 223.608 4.31716 -6.2061 0
M  V30 2377 H 224.876 5.36895 -5.65123 0
M  V30 2378 N 229.106 1.52395 0.401703 0
M  V30 2379 C 230.036 1.79231 1.49661 0
M  V30 2380 C 231.017 0.643654 1.57452 0
M  V30 2381 O 232.202 0.889989 1.72606 0
M  V30 2382 C 229.332 1.94971 2.87409 0
M  V30 2383 C 228.286 3.10604 2.94465 0
M  V30 2384 C 227.612 3.11577 4.34538 0
M  V30 2385 C 228.912 4.49921 2.6527 0
M  V30 2386 H 230.606 2.70917 1.27454 0
M  V30 2387 H 228.152 1.30362 0.6117 0
M  V30 2388 H 230.105 2.12328 3.63999 0
M  V30 2389 H 228.829 0.999632 3.10926 0
M  V30 2390 H 227.488 2.93009 2.20321 0
M  V30 2391 H 227.136 2.14277 4.55076 0
M  V30 2392 H 226.836 3.89247 4.40183 0
M  V30 2393 H 228.36 3.31073 5.13053 0
M  V30 2394 H 229.774 4.67683 3.31581 0
M  V30 2395 H 228.171 5.29564 2.82281 0
M  V30 2396 H 229.241 4.57507 1.60671 0
M  V30 2397 N 230.584 -0.659388 1.43143 0
M  V30 2398 C 231.83 -1.42145 1.44647 0
M  V30 2399 C 232.163 -1.9408 0.0681907 0
M  V30 2400 O 231.438 -1.71899 -0.910007 0
M  V30 2401 C 231.721 -2.60735 2.48373 0
M  V30 2402 C 231.574 -2.14332 3.95451 0
M  V30 2403 C 232.893 -3.62951 2.48906 0
M  V30 2404 H 230.012 -0.51552 0.526696 0
M  V30 2405 H 232.654 -0.748069 1.74654 0
M  V30 2406 H 230.804 -3.18184 2.22916 0
M  V30 2407 H 232.476 -1.61932 4.31944 0
M  V30 2408 H 230.719 -1.4576 4.08578 0
M  V30 2409 H 231.39 -2.99583 4.63631 0
M  V30 2410 H 233.866 -3.1525 2.71582 0
M  V30 2411 H 232.742 -4.43487 3.23435 0
M  V30 2412 H 233.003 -4.15126 1.52061 0
M  V30 2413 N 232.062 -1.29571 -0.897171 0
M  V30 2414 C 233.025 -1.14913 -1.98312 0
M  V30 2415 C 234.025 -0.0838629 -1.60581 0
M  V30 2416 O 235.215 -0.331006 -1.71026 0
M  V30 2417 C 232.347 -0.757835 -3.3237 0
M  V30 2418 H 233.54 -2.11377 -2.12743 0
M  V30 2419 H 231.093 -1.12793 -1.08201 0
M  V30 2420 H 231.828 0.206837 -3.2364 0
M  V30 2421 H 231.613 -1.52755 -3.61121 0
M  V30 2422 H 233.103 -0.678408 -4.12053 0
M  V30 2423 N 233.54 1.10788 -1.12088 0
M  V30 2424 C 234.788 1.8231 -0.872205 0
M  V30 2425 C 235.109 1.85419 0.603709 0
M  V30 2426 O 234.379 1.32963 1.43867 0
M  V30 2427 H 232.959 0.675137 -0.319686 0
M  V30 2428 H 235.621 1.34068 -1.41463 0
M  V30 2429 H 234.717 2.85955 -1.25045 0
M  V30 2430 N 235.018 0.912232 1.28515 0
M  V30 2431 C 235.948 0.416403 2.29757 0
M  V30 2432 C 236.929 -0.515194 1.6211 0
M  V30 2433 O 238.114 -0.423253 1.89532 0
M  V30 2434 C 235.244 -0.34572 3.45575 0
M  V30 2435 C 234.198 0.496599 4.25109 0
M  V30 2436 C 233.524 -0.393771 5.33248 0
M  V30 2437 C 234.824 1.75307 4.92001 0
M  V30 2438 H 236.518 1.26249 2.7148 0
M  V30 2439 H 234.064 0.608515 1.30511 0
M  V30 2440 H 236.017 -0.703422 4.15488 0
M  V30 2441 H 234.741 -1.2257 3.02728 0
M  V30 2442 H 233.4 0.8368 3.56922 0
M  V30 2443 H 233.048 -1.27225 4.86644 0
M  V30 2444 H 232.748 0.166209 5.87365 0
M  V30 2445 H 234.272 -0.747389 6.06009 0
M  V30 2446 H 235.686 1.46437 5.54283 0
M  V30 2447 H 234.083 2.25534 5.56106 0
M  V30 2448 H 235.153 2.48176 4.16577 0
M  V30 2449 N 236.496 -1.42363 0.676048 0
M  V30 2450 C 237.724 -2.05859 0.207268 0
M  V30 2451 C 238.139 -1.50796 -1.13605 0
M  V30 2452 O 237.496 -0.648265 -1.70598 0
M  V30 2453 C 237.547 -3.61248 0.134975 0
M  V30 2454 O 237.268 -4.1427 1.42521 0
M  V30 2455 C 238.769 -4.41859 -0.357151 0
M  V30 2456 H 235.989 -0.663431 0.100503 0
M  V30 2457 H 238.533 -1.82479 0.923136 0
M  V30 2458 H 236.688 -3.83735 -0.531588 0
M  V30 2459 H 237.102 -5.0815 1.29939 0
M  V30 2460 H 238.576 -5.50847 -0.356641 0
M  V30 2461 H 239.053 -4.16536 -1.39264 0
M  V30 2462 H 239.659 -4.24392 0.27772 0
M  V30 2463 N 237.974 -0.419461 -1.51915 0
M  V30 2464 C 238.937 0.389116 -2.25873 0
M  V30 2465 C 239.937 0.964924 -1.28631 0
M  V30 2466 O 241.127 0.842179 -1.52489 0
M  V30 2467 C 238.259 1.54874 -3.03689 0
M  V30 2468 H 239.452 -0.258799 -2.98781 0
M  V30 2469 H 237.005 -0.172209 -1.55348 0
M  V30 2470 H 237.74 2.23323 -2.35154 0
M  V30 2471 H 237.525 1.14223 -3.75094 0
M  V30 2472 H 239.015 2.12046 -3.59759 0
M  V30 2473 N 239.452 1.56882 -0.150215 0
M  V30 2474 C 240.4 2.18214 0.805313 0
M  V30 2475 C 241.394 1.14006 1.25296 0
M  V30 2476 O 242.6 1.3225 1.22107 0
M  V30 2477 H 238.975 0.698762 0.277913 0
M  V30 2478 H 240.946 2.97231 0.263862 0
M  V30 2479 C 239.695 2.82065 2.03309 0
M  V30 2480 H 239.018 3.61968 1.69763 0
M  V30 2481 H 240.458 3.28477 2.68103 0
M  V30 2482 C 238.917 1.80739 2.84315 0
M  V30 2483 O 239.447 1.27983 3.80767 0
M  V30 2484 N 237.653 1.4997 2.48913 0
M  V30 2485 H 237.2 1.93062 1.70542 0
M  V30 2486 H 237.158 0.824217 3.03404 0
M  V30 2487 N 240.93 -0.123565 1.57115 0
M  V30 2488 C 241.84 -1.17074 2.033 0
M  V30 2489 C 242.856 -1.4561 0.952559 0
M  V30 2490 O 244.032 -1.56817 1.26374 0
M  V30 2491 C 241.097 -2.47857 2.42421 0
M  V30 2492 C 240.158 -2.26758 3.64526 0
M  V30 2493 C 239.391 -3.51305 4.01771 0
M  V30 2494 O 239.614 -4.5843 3.39409 0
M  V30 2495 O 238.548 -3.42578 4.94898 0
M  V30 2496 H 242.374 -0.808555 2.92739 0
M  V30 2497 H 239.959 -0.334027 1.45618 0
M  V30 2498 H 241.841 -3.2492 2.68338 0
M  V30 2499 H 240.516 -2.83558 1.5613 0
M  V30 2500 H 239.423 -1.47569 3.43765 0
M  V30 2501 H 240.756 -1.95963 4.51508 0
M  V30 2502 N 242.408 -1.52605 -0.393616 0
M  V30 2503 C 243.656 -1.67093 -1.13685 0
M  V30 2504 C 243.977 -0.411011 -1.90619 0
M  V30 2505 O 243.247 0.574491 -1.87287 0
M  V30 2506 H 241.827 -0.615923 -0.422668 0
M  V30 2507 H 244.489 -1.89704 -0.447039 0
M  V30 2508 H 243.585 -2.51922 -1.84232 0
M  V30 2509 N 243.887 0.651787 -1.4349 0
M  V30 2510 C 245.112 1.44434 -1.48841 0
M  V30 2511 C 245.537 1.8779 -0.107955 0
M  V30 2512 O 244.895 1.57464 0.898602 0
M  V30 2513 C 244.943 2.65458 -2.44059 0
M  V30 2514 O 244.047 3.64566 -1.92784 0
M  V30 2515 H 243.388 0.433005 -0.503391 0
M  V30 2516 H 245.918 0.797451 -1.88419 0
M  V30 2517 H 245.928 3.13255 -2.6141 0
M  V30 2518 H 244.603 2.33244 -3.4434 0
M  V30 2519 H 243.18 3.23716 -1.851 0
M  V30 2520 N 245.365 1.30045 0.890287 0
M  V30 2521 C 246.297 1.11786 2.00091 0
M  V30 2522 C 247.31 0.0626307 1.62679 0
M  V30 2523 O 248.499 0.308112 1.75821 0
M  V30 2524 C 245.599 0.681527 3.31977 0
M  V30 2525 C 244.772 1.81735 3.97858 0
M  V30 2526 C 243.831 1.37045 5.08041 0
M  V30 2527 O 242.857 2.07677 5.29961 0
M  V30 2528 N 244.059 0.246525 5.79976 0
M  V30 2529 H 246.824 2.07441 2.16306 0
M  V30 2530 H 244.385 1.2211 1.06305 0
M  V30 2531 H 246.377 0.365675 4.03045 0
M  V30 2532 H 244.947 -0.182828 3.12065 0
M  V30 2533 H 244.167 2.30159 3.20032 0
M  V30 2534 H 245.455 2.57865 4.38615 0
M  V30 2535 H 244.853 -0.34215 5.64664 0
M  V30 2536 H 243.41 -0.00990438 6.51799 0
M  V30 2537 N 246.843 -1.10192 1.12674 0
M  V30 2538 C 248.073 -1.85713 0.905213 0
M  V30 2539 C 248.481 -1.81056 -0.549108 0
M  V30 2540 O 247.824 -1.19927 -1.39151 0
M  V30 2541 C 247.886 -3.34972 1.30516 0
M  V30 2542 C 247.55 -3.63385 2.77129 0
M  V30 2543 C 248.547 -3.59772 3.75313 0
M  V30 2544 C 246.232 -3.91981 3.14096 0
M  V30 2545 C 248.226 -3.84354 5.08479 0
M  V30 2546 C 245.913 -4.16218 4.47443 0
M  V30 2547 C 246.911 -4.12395 5.44444 0
M  V30 2548 O 246.599 -4.36014 6.75387 0
M  V30 2549 H 246.331 -0.593719 0.323223 0
M  V30 2550 H 248.885 -1.40198 1.50112 0
M  V30 2551 H 247.115 -3.81156 0.652463 0
M  V30 2552 H 248.804 -3.91886 1.05736 0
M  V30 2553 H 249.57 -3.37716 3.48099 0
M  V30 2554 H 245.449 -3.94085 2.39202 0
M  V30 2555 H 248.993 -3.81285 5.84181 0
M  V30 2556 H 244.89 -4.37754 4.74386 0
M  V30 2557 H 245.658 -4.53516 6.8137 0
M  V30 2558 N 248.321 -0.919034 -1.28029 0
M  V30 2559 C 249.269 -0.401753 -2.29104 0
M  V30 2560 C 250.263 0.509354 -1.61561 0
M  V30 2561 O 251.469 0.390014 -1.75724 0
M  V30 2562 H 247.844 -0.111331 -0.743713 0
M  V30 2563 H 249.815 -1.2672 -2.70156 0
M  V30 2564 C 248.564 0.338148 -3.46052 0
M  V30 2565 H 247.887 -0.353732 -3.98232 0
M  V30 2566 H 249.327 0.664653 -4.18758 0
M  V30 2567 C 247.786 1.54798 -2.99231 0
M  V30 2568 O 248.316 2.64696 -3.02157 0
M  V30 2569 N 246.522 1.3968 -2.54829 0
M  V30 2570 H 246.069 0.502698 -2.52647 0
M  V30 2571 H 246.027 2.20755 -2.23863 0
M  V30 2572 N 249.799 1.42003 -0.683588 0
M  V30 2573 C 251.21 1.84501 -0.285736 0
M  V30 2574 C 251.561 1.57213 1.17382 0
M  V30 2575 O 250.686 1.03642 1.89966 0
M  V30 2576 C 251.281 3.34912 -0.511821 0
M  V30 2577 C 249.84 3.76025 -0.168005 0
M  V30 2578 C 248.987 2.6551 -0.799983 0
M  V30 2579 H 251.938 1.31724 -0.885119 0
M  V30 2580 H 251.959 3.79784 0.233292 0
M  V30 2581 H 251.471 3.54741 -1.57418 0
M  V30 2582 H 249.572 3.61801 0.890567 0
M  V30 2583 H 249.685 4.75141 -0.614661 0
M  V30 2584 H 248.049 2.53654 -0.230568 0
M  V30 2585 H 248.832 2.8816 -1.86597 0
M  V30 2586 N 251.277 0.427512 1.51691 0
M  V30 2587 C 252.209 -0.424521 2.25234 0
M  V30 2588 C 253.222 -0.994671 1.2888 0
M  V30 2589 O 254.411 -0.890483 1.54702 0
M  V30 2590 C 251.511 -1.60479 2.98496 0
M  V30 2591 C 250.684 -1.15527 4.21868 0
M  V30 2592 C 249.743 -2.20454 4.77793 0
M  V30 2593 O 248.769 -1.8029 5.39893 0
M  V30 2594 N 249.971 -3.52831 4.60967 0
M  V30 2595 H 252.736 0.205749 2.98993 0
M  V30 2596 H 250.297 0.255867 1.59865 0
M  V30 2597 H 252.289 -2.30276 3.32799 0
M  V30 2598 H 250.859 -2.14061 2.27809 0
M  V30 2599 H 250.079 -0.284736 3.9317 0
M  V30 2600 H 251.367 -0.832173 5.01949 0
M  V30 2601 H 250.765 -3.88201 4.11481 0
M  V30 2602 H 249.322 -4.18551 4.99658 0
M  V30 2603 N 252.755 -1.56801 0.158532 0
M  V30 2604 C 254.001 -1.96781 -0.490405 0
M  V30 2605 C 254.334 -1.04397 -1.63753 0
M  V30 2606 O 253.609 -0.0885805 -1.94298 0
M  V30 2607 C 253.892 -3.4635 -0.985594 0
M  V30 2608 C 253.745 -4.49512 0.160824 0
M  V30 2609 C 255.064 -3.98697 -1.86355 0
M  V30 2610 H 252.183 -0.715482 -0.176788 0
M  V30 2611 H 254.825 -1.88451 0.242088 0
M  V30 2612 H 252.975 -3.53579 -1.60978 0
M  V30 2613 H 254.647 -4.54353 0.797537 0
M  V30 2614 H 252.89 -4.26013 0.818256 0
M  V30 2615 H 253.561 -5.51531 -0.227569 0
M  V30 2616 H 256.037 -3.94019 -1.33746 0
M  V30 2617 H 254.913 -5.03792 -2.17909 0
M  V30 2618 H 255.174 -3.41744 -2.8047 0
M  V30 2619 N 254.233 0.115231 -1.57178 0
M  V30 2620 C 255.196 1.12526 -1.99676 0
M  V30 2621 C 256.196 1.34095 -0.88742 0
M  V30 2622 O 257.386 1.30548 -1.15337 0
M  V30 2623 C 254.518 2.4789 -2.34015 0
M  V30 2624 H 255.711 0.759912 -2.90113 0
M  V30 2625 H 253.264 0.359648 -1.52106 0
M  V30 2626 H 253.999 2.89339 -1.4647 0
M  V30 2627 H 253.784 2.33588 -3.14927 0
M  V30 2628 H 255.274 3.20575 -2.67622 0
M  V30 2629 N 255.711 1.52812 0.385517 0
M  V30 2630 C 256.988 1.5861 1.14465 0
M  V30 2631 C 257.368 0.381402 2.07626 0
M  V30 2632 O 256.716 -0.629999 2.19643 0
M  V30 2633 C 256.926 2.92664 1.90128 0
M  V30 2634 C 258.274 3.46526 2.45367 0
M  V30 2635 O 259.298 2.94562 2.0028 0
M  V30 2636 O 258.157 4.37323 3.27736 0
M  V30 2637 H 255.251 0.639855 0.523941 0
M  V30 2638 H 257.797 1.65149 0.390389 0
M  V30 2639 H 256.569 3.71788 1.22022 0
M  V30 2640 H 256.192 2.89527 2.72507 0
M  V30 2641 N 257.189 -0.644168 1.43834 0
M  V30 2642 C 258.119 -1.76814 1.52509 0
M  V30 2643 C 259.1 -1.65823 0.379052 0
M  V30 2644 O 260.285 -1.84781 0.597466 0
M  V30 2645 C 257.415 -3.15288 1.4564 0
M  V30 2646 C 256.369 -3.41053 2.58586 0
M  V30 2647 C 255.695 -4.79421 2.36769 0
M  V30 2648 C 256.995 -3.34902 4.00797 0
M  V30 2649 H 258.689 -1.69812 2.46586 0
M  V30 2650 H 256.235 -0.815542 1.1868 0
M  V30 2651 H 258.188 -3.93681 1.50311 0
M  V30 2652 H 256.912 -3.23043 0.480725 0
M  V30 2653 H 255.571 -2.65035 2.53282 0
M  V30 2654 H 255.219 -4.83863 1.37424 0
M  V30 2655 H 254.919 -4.9762 3.12487 0
M  V30 2656 H 256.443 -5.6006 2.43238 0
M  V30 2657 H 257.857 -4.03218 4.07539 0
M  V30 2658 H 256.254 -3.64637 4.76613 0
M  V30 2659 H 257.324 -2.32928 4.25291 0
M  V30 2660 N 258.668 -1.30515 -0.883378 0
M  V30 2661 C 259.615 -1.17032 -1.98927 0
M  V30 2662 C 260.585 -0.0594241 -1.65994 0
M  V30 2663 O 261.77 -0.229895 -1.8941 0
M  V30 2664 C 258.91 -0.869777 -3.33959 0
M  V30 2665 C 258.023 -2.06271 -3.79574 0
M  V30 2666 C 257.158 -1.70011 -5.03259 0
M  V30 2667 C 256.197 -2.8579 -5.41286 0
M  V30 2668 N 255.334 -2.49816 -6.56153 0
M  V30 2669 H 260.174 -2.1164 -2.09792 0
M  V30 2670 H 257.711 -1.05296 -1.02719 0
M  V30 2671 H 259.669 -0.676138 -4.11685 0
M  V30 2672 H 258.299 0.0394332 -3.22776 0
M  V30 2673 H 257.351 -2.36755 -2.97744 0
M  V30 2674 H 258.663 -2.92971 -4.03694 0
M  V30 2675 H 257.817 -1.47032 -5.88614 0
M  V30 2676 H 256.556 -0.804829 -4.81013 0
M  V30 2677 H 255.561 -3.09434 -4.54456 0
M  V30 2678 H 256.786 -3.76008 -5.65504 0
M  V30 2679 H 254.732 -1.62795 -6.35479 0
M  V30 2680 H 254.649 -3.30048 -6.8015 0
M  V30 2681 H 255.917 -2.30197 -7.44735 0
M  V30 2682 N 260.146 1.09593 -1.13257 0
M  V30 2683 C 261.109 2.14359 -0.811358 0
M  V30 2684 C 262.109 1.59808 0.178377 0
M  V30 2685 O 263.299 1.74132 -0.0484911 0
M  V30 2686 C 260.431 3.40269 -0.207276 0
M  V30 2687 H 261.624 2.44284 -1.73969 0
M  V30 2688 H 259.177 1.25102 -0.936973 0
M  V30 2689 H 259.912 3.15969 0.73036 0
M  V30 2690 H 259.697 3.81154 -0.919992 0
M  V30 2691 H 261.187 4.176 0.000667944 0
M  V30 2692 N 261.624 0.925811 1.2754 0
M  V30 2693 C 262.871 0.565255 1.94451 0
M  V30 2694 C 263.199 -0.89316 1.7278 0
M  V30 2695 O 262.454 -1.65213 1.04895 0
M  V30 2696 C 262.753 0.835296 3.47502 0
M  V30 2697 C 262.419 2.27515 3.89291 0
M  V30 2698 C 261.081 2.66879 4.00411 0
M  V30 2699 C 263.433 3.21158 4.10496 0
M  V30 2700 C 260.761 3.99014 4.30122 0
M  V30 2701 C 263.113 4.52871 4.4169 0
M  V30 2702 C 261.777 4.92072 4.51023 0
M  V30 2703 H 261.047 0.206841 0.711546 0
M  V30 2704 H 263.694 1.16942 1.51647 0
M  V30 2705 H 261.999 0.148442 3.91519 0
M  V30 2706 H 263.696 0.535322 3.97411 0
M  V30 2707 H 260.286 1.95976 3.81171 0
M  V30 2708 H 264.47 2.9195 4.01346 0
M  V30 2709 H 259.726 4.2907 4.35556 0
M  V30 2710 H 263.9 5.25436 4.57045 0
M  V30 2711 H 261.527 5.9449 4.738 0
M  V30 2712 N 263.102 -1.41638 0.69111 0
M  V30 2713 C 264.327 -2.06148 0.227583 0
M  V30 2714 C 264.752 -1.51652 -1.11281 0
M  V30 2715 O 264.11 -0.64164 -1.69566 0
M  V30 2716 C 264.158 -3.60095 0.190858 0
M  V30 2717 O 263.262 -4.03845 -0.835664 0
M  V30 2718 H 262.603 -0.654434 0.112306 0
M  V30 2719 H 265.133 -1.81484 0.944714 0
M  V30 2720 H 265.143 -4.07995 0.020207 0
M  V30 2721 H 263.818 -3.99129 1.16915 0
M  V30 2722 H 262.395 -3.67458 -0.63473 0
M  V30 2723 N 264.58 -0.43555 -1.51462 0
M  V30 2724 C 265.527 0.376797 -2.27703 0
M  V30 2725 C 266.497 1.01838 -1.31219 0
M  V30 2726 O 267.682 1.03762 -1.60119 0
M  V30 2727 C 264.822 1.47301 -3.12084 0
M  V30 2728 C 263.935 0.849744 -4.2356 0
M  V30 2729 C 263.07 1.92086 -4.95254 0
M  V30 2730 C 262.109 1.27593 -5.98654 0
M  V30 2731 N 261.246 2.28833 -6.63762 0
M  V30 2732 H 266.086 -0.279734 -2.96684 0
M  V30 2733 H 263.623 -0.149795 -1.46335 0
M  V30 2734 H 265.581 2.11984 -3.59331 0
M  V30 2735 H 264.211 2.0992 -2.45221 0
M  V30 2736 H 263.263 0.0912529 -3.80291 0
M  V30 2737 H 264.575 0.338878 -4.97648 0
M  V30 2738 H 263.729 2.64435 -5.46039 0
M  V30 2739 H 262.468 2.46545 -4.20793 0
M  V30 2740 H 261.473 0.537893 -5.47162 0
M  V30 2741 H 262.698 0.738693 -6.7507 0
M  V30 2742 H 260.644 2.82375 -5.92115 0
M  V30 2743 H 260.561 1.82632 -7.33608 0
M  V30 2744 H 261.829 3.00671 -7.19178 0
M  V30 2745 N 266.058 1.56714 -0.166846 0
M  V30 2746 C 267.008 2.14338 0.777382 0
M  V30 2747 C 267.992 1.07642 1.19591 0
M  V30 2748 O 269.184 1.33775 1.15902 0
M  V30 2749 C 266.313 2.78417 2.00846 0
M  V30 2750 C 265.399 3.92264 1.61212 0
M  V30 2751 N 265.79 4.97268 0.925104 0
M  V30 2752 C 264.088 4.03342 1.90346 0
M  V30 2753 C 264.789 5.77093 0.730627 0
M  V30 2754 N 263.765 5.2854 1.27067 0
M  V30 2755 H 267.567 2.9289 0.243466 0
M  V30 2756 H 265.081 1.62364 0.0339954 0
M  V30 2757 H 267.078 3.18073 2.69509 0
M  V30 2758 H 265.738 2.01344 2.54736 0
M  V30 2759 H 266.749 5.14601 0.583646 0
M  V30 2760 H 263.426 3.37368 2.45946 0
M  V30 2761 H 264.816 6.71638 0.187668 0
M  V30 2762 N 267.536 -0.106894 1.57237 0
M  V30 2763 C 268.785 -0.811163 1.8467 0
M  V30 2764 C 269.098 -1.80469 0.754342 0
M  V30 2765 O 270.304 -2.55601 0.915439 0
M  V30 2766 C 268.76 -1.49337 3.27454 0
M  V30 2767 C 268.368 -0.540217 4.44731 0
M  V30 2768 C 270.112 -2.18206 3.64124 0
M  V30 2769 C 268.019 -1.22634 5.78545 0
M  V30 2770 H 266.949 -0.306679 0.688813 0
M  V30 2771 H 269.6 -0.0639887 1.83388 0
M  V30 2772 H 267.982 -2.2876 3.23241 0
M  V30 2773 H 269.156 0.221659 4.60267 0
M  V30 2774 H 267.471 0.042146 4.16379 0
M  V30 2775 H 270.068 -2.70253 4.61376 0
M  V30 2776 H 270.411 -2.96562 2.92158 0
M  V30 2777 H 270.944 -1.45658 3.70174 0
M  V30 2778 H 267.683 -0.483832 6.53712 0
M  V30 2779 H 267.203 -1.95993 5.66874 0
M  V30 2780 H 268.882 -1.75615 6.2271 0
M  V30 2781 N 269.014 -1.53014 -0.377408 0
M  V30 2782 C 270.244 -1.72265 -1.14054 0
M  V30 2783 C 270.652 -0.44601 -1.83868 0
M  V30 2784 O 269.995 0.590095 -1.73964 0
M  V30 2785 C 270.057 -2.82492 -2.22348 0
M  V30 2786 C 269.721 -4.23233 -1.72402 0
M  V30 2787 C 270.718 -5.05992 -1.19448 0
M  V30 2788 C 268.403 -4.696 -1.78273 0
M  V30 2789 C 270.397 -6.33203 -0.730268 0
M  V30 2790 C 268.084 -5.96792 -1.31464 0
M  V30 2791 C 269.082 -6.78424 -0.789297 0
M  V30 2792 O 268.77 -8.0323 -0.328077 0
M  V30 2793 H 268.502 -0.579873 -0.347453 0
M  V30 2794 H 271.056 -2.00502 -0.445882 0
M  V30 2795 H 269.286 -2.49702 -2.95272 0
M  V30 2796 H 270.975 -2.90034 -2.83963 0
M  V30 2797 H 271.741 -4.71349 -1.14259 0
M  V30 2798 H 267.62 -4.06142 -2.18106 0
M  V30 2799 H 271.164 -6.96868 -0.319542 0
M  V30 2800 H 267.061 -6.30937 -1.36342 0
M  V30 2801 H 267.829 -8.1727 -0.448493 0
M  V30 2802 N 270.492 0.636531 -1.44174 0
M  V30 2803 C 271.44 1.76995 -1.50915 0
M  V30 2804 C 272.434 1.65053 -0.381295 0
M  V30 2805 O 273.64 1.71197 -0.55601 0
M  V30 2806 H 270.015 0.584247 -0.473455 0
M  V30 2807 H 271.986 1.68432 -2.4632 0
M  V30 2808 C 270.735 3.15314 -1.46534 0
M  V30 2809 H 270.058 3.25149 -2.32633 0
M  V30 2810 H 271.498 3.9453 -1.55312 0
M  V30 2811 C 269.957 3.3639 -0.185305 0
M  V30 2812 O 270.487 3.94699 0.746688 0
M  V30 2813 N 268.693 2.9046 -0.0901606 0
M  V30 2814 H 268.24 2.43193 -0.849416 0
M  V30 2815 H 268.198 3.04937 0.765553 0
M  V30 2816 N 271.97 1.30982 0.876444 0
M  V30 2817 C 272.933 1.18054 1.96459 0
M  V30 2818 C 273.933 0.109399 1.60427 0
M  V30 2819 O 275.123 0.358173 1.70478 0
M  V30 2820 C 272.255 0.810616 3.31122 0
M  V30 2821 H 273.448 2.14735 2.09354 0
M  V30 2822 H 271.001 1.145 1.06392 0
M  V30 2823 H 271.736 -0.155322 3.23928 0
M  V30 2824 H 271.521 1.58481 3.58645 0
M  V30 2825 H 273.011 0.743876 4.10921 0
M  V30 2826 N 273.449 -1.08991 1.13837 0
M  V30 2827 C 274.679 -1.84743 0.924859 0
M  V30 2828 C 275.087 -1.81629 -0.529874 0
M  V30 2829 O 274.43 -1.21397 -1.37872 0
M  V30 2830 C 274.492 -3.33568 1.34061 0
M  V30 2831 C 274.156 -3.60425 2.80968 0
M  V30 2832 C 275.153 -3.55771 3.79108 0
M  V30 2833 C 272.838 -3.88627 3.18236 0
M  V30 2834 C 274.832 -3.78939 5.12527 0
M  V30 2835 C 272.519 -4.11449 4.51833 0
M  V30 2836 C 273.517 -4.06598 5.48787 0
M  V30 2837 O 273.205 -4.28826 6.79973 0
M  V30 2838 H 272.937 -0.590258 0.329502 0
M  V30 2839 H 275.491 -1.38598 1.51591 0
M  V30 2840 H 273.721 -3.80442 0.692853 0
M  V30 2841 H 275.41 -3.90743 1.09886 0
M  V30 2842 H 276.176 -3.34005 3.51661 0
M  V30 2843 H 272.055 -3.91526 2.43369 0
M  V30 2844 H 275.599 -3.75068 5.88192 0
M  V30 2845 H 271.496 -4.32698 4.79002 0
M  V30 2846 H 272.264 -4.46264 6.86142 0
M  V30 2847 N 274.927 -0.932562 -1.27047 0
M  V30 2848 C 275.857 -0.452902 -2.29066 0
M  V30 2849 C 276.838 0.489338 -1.62909 0
M  V30 2850 O 278.023 0.393046 -1.90181 0
M  V30 2851 C 275.153 0.290698 -3.46081 0
M  V30 2852 C 274.107 -0.564168 -4.24265 0
M  V30 2853 C 273.433 0.308886 -5.33807 0
M  V30 2854 C 274.733 -1.83112 -4.89149 0
M  V30 2855 H 276.427 -1.30552 -2.69437 0
M  V30 2856 H 273.973 -0.629201 -1.29526 0
M  V30 2857 H 275.926 0.637233 -4.16554 0
M  V30 2858 H 274.65 1.17738 -3.0464 0
M  V30 2859 H 273.309 -0.893477 -3.55545 0
M  V30 2860 H 272.957 1.19467 -4.88607 0
M  V30 2861 H 272.657 -0.259633 -5.87026 0
M  V30 2862 H 274.181 0.650884 -6.07121 0
M  V30 2863 H 275.595 -1.55236 -5.51883 0
M  V30 2864 H 273.992 -2.34353 -5.52448 0
M  V30 2865 H 275.062 -2.54772 -4.12576 0
M  V30 2866 N 276.405 1.4127 -0.698611 0
M  V30 2867 C 277.352 2.30773 -0.0352094 0
M  V30 2868 C 278.322 1.47273 0.768111 0
M  V30 2869 O 279.507 1.76053 0.735524 0
M  V30 2870 C 276.647 3.33346 0.893 0
M  V30 2871 C 275.76 4.31924 0.0809695 0
M  V30 2872 C 274.895 5.21566 1.0071 0
M  V30 2873 C 273.934 6.11811 0.188155 0
M  V30 2874 N 273.071 6.93926 1.06825 0
M  V30 2875 H 277.911 2.86943 -0.804207 0
M  V30 2876 H 275.448 1.4132 -0.408294 0
M  V30 2877 H 277.406 3.91368 1.44523 0
M  V30 2878 H 276.036 2.78719 1.62836 0
M  V30 2879 H 275.088 3.75825 -0.588224 0
M  V30 2880 H 276.4 4.95716 -0.553801 0
M  V30 2881 H 275.554 5.84437 1.62845 0
M  V30 2882 H 274.293 4.58008 1.67572 0
M  V30 2883 H 273.298 5.47986 -0.446254 0
M  V30 2884 H 274.523 6.77425 -0.476716 0
M  V30 2885 H 272.469 6.32973 1.72283 0
M  V30 2886 H 272.386 7.54416 0.489123 0
M  V30 2887 H 273.654 7.61262 1.67632 0
M  V30 2888 N 277.883 0.443576 1.51229 0
M  V30 2889 C 278.831 -0.37904 2.29491 0
M  V30 2890 C 279.825 -1.0153 1.35603 0
M  V30 2891 O 281.031 -0.94955 1.52917 0
M  V30 2892 H 277.406 -0.141053 0.738653 0
M  V30 2893 H 279.377 0.301799 2.9687 0
M  V30 2894 C 278.126 -1.46426 3.15364 0
M  V30 2895 H 277.449 -0.984037 3.87501 0
M  V30 2896 H 278.889 -2.01297 3.7317 0
M  V30 2897 C 277.348 -2.45099 2.31146 0
M  V30 2898 O 277.878 -3.49773 1.9754 0
M  V30 2899 N 276.084 -2.16139 1.94249 0
M  V30 2900 H 275.631 -1.31044 2.21777 0
M  V30 2901 H 275.589 -2.82398 1.38198 0
M  V30 2902 N 279.361 -1.56624 0.175154 0
M  V30 2903 C 280.608 -1.96999 -0.468811 0
M  V30 2904 C 280.936 -1.06129 -1.62994 0
M  V30 2905 O 280.191 -0.0961771 -1.95464 0
M  V30 2906 C 280.49 -3.43419 -0.989864 0
M  V30 2907 C 280.156 -4.50866 0.0557687 0
M  V30 2908 C 278.818 -4.79975 0.343134 0
M  V30 2909 C 281.17 -5.15551 0.765308 0
M  V30 2910 C 278.498 -5.71066 1.34536 0
M  V30 2911 C 280.85 -6.07724 1.75654 0
M  V30 2912 C 279.514 -6.35199 2.05132 0
M  V30 2913 H 278.784 -0.720869 -0.17155 0
M  V30 2914 H 281.431 -1.89616 0.267924 0
M  V30 2915 H 279.736 -3.47772 -1.80449 0
M  V30 2916 H 281.433 -3.72002 -1.49719 0
M  V30 2917 H 278.023 -4.28229 -0.178381 0
M  V30 2918 H 282.207 -4.9317 0.556513 0
M  V30 2919 H 277.463 -5.90635 1.57988 0
M  V30 2920 H 281.637 -6.56912 2.31169 0
M  V30 2921 H 279.264 -7.05584 2.8294 0
M  V30 2922 N 280.839 0.0985539 -1.57292 0
M  V30 2923 C 281.787 1.1387 -2.02821 0
M  V30 2924 C 282.781 1.41676 -0.928666 0
M  V30 2925 O 283.987 1.41398 -1.11385 0
M  V30 2926 H 280.362 0.384419 -0.646317 0
M  V30 2927 H 282.333 0.728347 -2.89375 0
M  V30 2928 C 281.082 2.45166 -2.46554 0
M  V30 2929 H 280.405 2.24613 -3.3074 0
M  V30 2930 H 281.845 3.16456 -2.8219 0
M  V30 2931 C 280.304 3.09216 -1.33742 0
M  V30 2932 O 280.834 3.96163 -0.66464 0
M  V30 2933 N 279.04 2.69413 -1.08928 0
M  V30 2934 H 278.587 1.98801 -1.63817 0
M  V30 2935 H 278.545 3.12594 -0.336458 0
M  V30 2936 N 282.317 1.53212 0.369288 0
M  V30 2937 C 283.25 1.74166 1.4745 0
M  V30 2938 C 284.228 0.589923 1.51521 0
M  V30 2939 O 285.412 0.822078 1.69629 0
M  V30 2940 C 282.539 1.81711 2.8583 0
M  V30 2941 C 281.585 3.03649 2.99499 0
M  V30 2942 S 282.418 4.63242 2.6864 0
M  V30 2943 C 283.574 4.7363 4.09177 0
M  V30 2944 H 283.807 2.67636 1.29454 0
M  V30 2945 H 281.34 1.43754 0.563396 0
M  V30 2946 H 283.298 1.86743 3.65564 0
M  V30 2947 H 281.959 0.89299 3.01139 0
M  V30 2948 H 281.152 3.05526 4.00836 0
M  V30 2949 H 280.754 2.9671 2.27683 0
M  V30 2950 H 283.046 4.53456 5.03372 0
M  V30 2951 H 283.989 5.75682 4.12306 0
M  V30 2952 H 284.397 4.02295 3.96004 0
M  V30 2953 N 283.795 -0.628877 1.44509 0
M  V30 2954 C 285.023 -1.41554 1.50897 0
M  V30 2955 C 285.438 -1.8832 0.134564 0
M  V30 2956 O 284.795 -1.60969 -0.859965 0
M  V30 2957 C 284.846 -2.63435 2.47556 0
M  V30 2958 O 284.567 -2.18619 3.79654 0
M  V30 2959 C 286.068 -3.56537 2.63431 0
M  V30 2960 H 283.288 -0.434044 0.511709 0
M  V30 2961 H 285.832 -0.768895 1.89495 0
M  V30 2962 H 283.987 -3.24187 2.12089 0
M  V30 2963 H 284.401 -2.97652 4.31861 0
M  V30 2964 H 285.875 -4.38657 3.35088 0
M  V30 2965 H 286.352 -4.05493 1.68738 0
M  V30 2966 H 286.958 -3.01653 2.9981 0
M  V30 2967 N 285.273 -1.31445 -0.869486 0
M  V30 2968 C 286.22 -1.19135 -1.97675 0
M  V30 2969 C 287.19 -0.0770266 -1.65921 0
M  V30 2970 O 288.375 -0.249972 -1.89155 0
M  V30 2971 C 285.515 -0.905149 -3.33018 0
M  V30 2972 C 284.628 -2.10285 -3.77365 0
M  V30 2973 C 283.763 -1.75339 -5.01427 0
M  V30 2974 C 282.802 -2.91515 -5.38224 0
M  V30 2975 N 281.939 -2.56762 -6.53466 0
M  V30 2976 H 286.779 -2.13853 -2.07535 0
M  V30 2977 H 284.316 -1.06379 -1.01597 0
M  V30 2978 H 286.274 -0.719765 -4.10944 0
M  V30 2979 H 284.904 0.00519624 -3.228 0
M  V30 2980 H 283.956 -2.39899 -2.95216 0
M  V30 2981 H 285.268 -2.97237 -4.00564 0
M  V30 2982 H 284.422 -1.53266 -5.87022 0
M  V30 2983 H 283.161 -0.855801 -4.80133 0
M  V30 2984 H 282.166 -3.14237 -4.51149 0
M  V30 2985 H 283.391 -3.81985 -5.61484 0
M  V30 2986 H 281.337 -1.69526 -6.33717 0
M  V30 2987 H 281.254 -3.37243 -6.76612 0
M  V30 2988 H 282.522 -2.38083 -7.42251 0
M  V30 2989 N 286.751 1.08385 -1.14413 0
M  V30 2990 C 287.698 2.15311 -0.831265 0
M  V30 2991 C 288.668 1.64751 0.211292 0
M  V30 2992 O 289.853 1.90627 0.0811674 0
M  V30 2993 C 286.993 3.43658 -0.315143 0
M  V30 2994 C 286.106 4.08064 -1.41802 0
M  V30 2995 C 285.241 5.24207 -0.859126 0
M  V30 2996 C 284.28 5.80554 -1.93967 0
M  V30 2997 N 283.417 6.88042 -1.39793 0
M  V30 2998 H 288.257 2.41415 -1.74708 0
M  V30 2999 H 285.794 1.18474 -0.871909 0
M  V30 3000 H 287.752 4.172 0.00230884 0
M  V30 3001 H 286.382 3.17839 0.56378 0
M  V30 3002 H 285.434 3.3228 -1.85187 0
M  V30 3003 H 286.746 4.45962 -2.23427 0
M  V30 3004 H 285.9 6.04689 -0.49359 0
M  V30 3005 H 284.639 4.87699 -0.011932 0
M  V30 3006 H 283.644 4.98725 -2.31415 0
M  V30 3007 H 284.869 6.19121 -2.79046 0
M  V30 3008 H 282.815 6.53493 -0.572919 0
M  V30 3009 H 282.732 7.24767 -2.15054 0
M  V30 3010 H 284 7.72255 -1.0603 0
M  V30 3011 N 288.23 0.939286 1.26551 0
M  V30 3012 C 289.177 0.446088 2.26448 0
M  V30 3013 C 290.147 -0.493234 1.58608 0
M  V30 3014 O 291.332 -0.409857 1.86346 0
M  V30 3015 C 288.472 -0.284375 3.43926 0
M  V30 3016 C 287.585 0.690399 4.26448 0
M  V30 3017 C 286.72 -0.0610712 5.31165 0
M  V30 3018 C 285.759 0.905649 6.05363 0
M  V30 3019 N 284.896 0.186055 7.01853 0
M  V30 3020 H 289.736 1.30291 2.68008 0
M  V30 3021 H 287.273 0.65371 1.31776 0
M  V30 3022 H 289.231 -0.724313 4.10864 0
M  V30 3023 H 287.861 -1.10535 3.03285 0
M  V30 3024 H 286.913 1.24885 3.59316 0
M  V30 3025 H 288.225 1.42873 4.779 0
M  V30 3026 H 287.379 -0.56038 6.04106 0
M  V30 3027 H 286.118 -0.832297 4.80546 0
M  V30 3028 H 285.123 1.4161 5.3125 0
M  V30 3029 H 286.348 1.67685 6.58072 0
M  V30 3030 H 284.294 -0.566714 6.53548 0
M  V30 3031 H 284.211 0.863752 7.51049 0
M  V30 3032 H 285.479 -0.292221 7.78952 0
M  V30 3033 N 289.708 -1.40897 0.706093 0
M  V30 3034 C 290.671 -2.29131 0.0562841 0
M  V30 3035 C 291.671 -1.44901 -0.697166 0
M  V30 3036 O 292.861 -1.65926 -0.530484 0
M  V30 3037 C 289.993 -3.27957 -0.93043 0
M  V30 3038 H 291.186 -2.88091 0.833284 0
M  V30 3039 H 288.739 -1.4906 0.470192 0
M  V30 3040 H 289.474 -2.73997 -1.73482 0
M  V30 3041 H 289.259 -3.90124 -0.393166 0
M  V30 3042 H 290.749 -3.94049 -1.38256 0
M  V30 3043 N 291.186 -0.45159 -1.50991 0
M  V30 3044 C 292.602 -0.104647 -1.59257 0
M  V30 3045 C 292.802 1.38728 -1.4614 0
M  V30 3046 O 291.858 2.15866 -1.30989 0
M  V30 3047 C 293.171 -0.637468 -2.93865 0
M  V30 3048 C 294.719 -0.599166 -3.07212 0
M  V30 3049 C 295.194 -1.1092 -4.44366 0
M  V30 3050 N 296.685 -1.06778 -4.50725 0
M  V30 3051 C 297.42 -1.43314 -5.55201 0
M  V30 3052 N 296.916 -1.87204 -6.67028 0
M  V30 3053 N 298.709 -1.3504 -5.45638 0
M  V30 3054 H 290.86 -1.42214 -1.57762 0
M  V30 3055 H 293.123 -0.586921 -0.744465 0
M  V30 3056 H 292.829 -1.68187 -3.08879 0
M  V30 3057 H 292.703 -0.0702139 -3.77135 0
M  V30 3058 H 295.09 0.436277 -2.91857 0
M  V30 3059 H 295.171 -1.20299 -2.25747 0
M  V30 3060 H 294.815 -2.14318 -4.60467 0
M  V30 3061 H 294.745 -0.481773 -5.24392 0
M  V30 3062 H 297.236 -0.745643 -3.70471 0
M  V30 3063 H 297.549 -2.13282 -7.42786 0
M  V30 3064 H 295.894 -1.91142 -6.68199 0
M  V30 3065 H 299.085 -1.00607 -4.57161 0
M  V30 3066 H 299.258 -1.63841 -6.26945 0
M  V30 3067 N 292.664 1.56529 -0.183458 0
M  V30 3068 C 293.889 2.02064 0.467428 0
M  V30 3069 C 294.314 1.06282 1.55196 0
M  V30 3070 O 293.672 0.0443565 1.81246 0
M  V30 3071 C 293.72 3.46122 1.01153 0
M  V30 3072 O 292.824 3.53437 2.12499 0
M  V30 3073 H 292.165 0.654726 0.110588 0
M  V30 3074 H 294.695 2.02521 -0.290917 0
M  V30 3075 H 294.705 3.85676 1.33108 0
M  V30 3076 H 293.38 4.15331 0.217533 0
M  V30 3077 H 291.957 3.2575 1.81497 0
M  V30 3078 N 294.142 -0.090211 1.57342 0
M  V30 3079 C 295.391 -0.791531 1.8552 0
M  V30 3080 C 295.704 -1.79659 0.773441 0
M  V30 3081 O 296.91 -2.54616 0.942497 0
M  V30 3082 C 295.366 -1.45856 3.2902 0
M  V30 3083 C 294.974 -0.493017 4.45279 0
M  V30 3084 C 296.718 -2.14332 3.66418 0
M  V30 3085 C 294.625 -1.16491 5.79814 0
M  V30 3086 H 293.555 -0.299356 0.692027 0
M  V30 3087 H 296.206 -0.0445343 1.83446 0
M  V30 3088 H 294.588 -2.25318 3.2565 0
M  V30 3089 H 295.762 0.270464 4.60006 0
M  V30 3090 H 294.077 0.0863061 4.16311 0
M  V30 3091 H 296.674 -2.65344 4.64216 0
M  V30 3092 H 297.017 -2.93447 2.95287 0
M  V30 3093 H 297.55 -1.41724 3.71698 0
M  V30 3094 H 294.289 -0.41447 6.54188 0
M  V30 3095 H 293.809 -1.8997 5.68921 0
M  V30 3096 H 295.488 -1.69001 6.24538 0
M  V30 3097 N 295.62 -1.53406 -0.361157 0
M  V30 3098 C 296.55 -1.83136 -1.44857 0
M  V30 3099 C 297.531 -0.685174 -1.5569 0
M  V30 3100 O 298.716 -0.93544 -1.70186 0
M  V30 3101 C 295.846 -2.02522 -2.82138 0
M  V30 3102 C 294.8 -3.18302 -2.86126 0
M  V30 3103 C 294.126 -3.22989 -4.26125 0
M  V30 3104 C 295.426 -4.56796 -2.53248 0
M  V30 3105 H 297.12 -2.74201 -1.20226 0
M  V30 3106 H 294.666 -1.31938 -0.576922 0
M  V30 3107 H 296.619 -2.21904 -3.58241 0
M  V30 3108 H 295.343 -1.08172 -3.08166 0
M  V30 3109 H 294.002 -2.98747 -2.12475 0
M  V30 3110 H 293.65 -2.26267 -4.49235 0
M  V30 3111 H 293.35 -4.00781 -4.29708 0
M  V30 3112 H 294.874 -3.44559 -5.04094 0
M  V30 3113 H 296.288 -4.7631 -3.19064 0
M  V30 3114 H 294.685 -5.36862 -2.68141 0
M  V30 3115 H 295.755 -4.61606 -1.48484 0
M  V30 3116 N 297.098 0.621204 -1.44841 0
M  V30 3117 C 298.326 1.40752 -1.51646 0
M  V30 3118 C 298.741 1.88246 -0.144549 0
M  V30 3119 O 298.098 1.61422 0.851416 0
M  V30 3120 C 298.149 2.62119 -2.4895 0
M  V30 3121 O 297.87 2.16602 -3.80808 0
M  V30 3122 C 299.371 3.55135 -2.65319 0
M  V30 3123 H 296.591 0.431325 -0.514004 0
M  V30 3124 H 299.135 0.758835 -1.899 0
M  V30 3125 H 297.29 3.23058 -2.13805 0
M  V30 3126 H 297.704 2.95358 -4.33433 0
M  V30 3127 H 299.178 4.36874 -3.37409 0
M  V30 3128 H 299.655 4.04592 -1.70886 0
M  V30 3129 H 300.261 3.00058 -3.01405 0
M  V30 3130 N 298.576 1.31904 0.862503 0
M  V30 3131 C 299.824 1.21776 1.61292 0
M  V30 3132 C 300.145 -0.222413 1.93727 0
M  V30 3133 O 299.415 -1.1451 1.58947 0
M  V30 3134 H 297.995 0.447717 0.597962 0
M  V30 3135 H 300.657 1.65326 1.03215 0
M  V30 3136 H 299.753 1.7948 2.5533 0
M  V30 3137 N 300.054 -1.07777 1.14986 0
M  V30 3138 C 301.001 -2.14867 0.842672 0
M  V30 3139 C 301.971 -1.6486 -0.202552 0
M  V30 3140 O 303.156 -1.90668 -0.0710568 0
M  V30 3141 C 300.296 -3.43486 0.333363 0
M  V30 3142 C 299.409 -4.07306 1.43965 0
M  V30 3143 C 298.544 -5.23744 0.886914 0
M  V30 3144 C 297.583 -5.79517 1.97043 0
M  V30 3145 N 296.72 -6.87291 1.4344 0
M  V30 3146 H 301.56 -2.40485 1.75986 0
M  V30 3147 H 299.097 -1.1801 0.878179 0
M  V30 3148 H 301.055 -4.17195 0.0198163 0
M  V30 3149 H 299.685 -3.18133 -0.546916 0
M  V30 3150 H 298.737 -3.31293 1.86946 0
M  V30 3151 H 300.049 -4.44771 2.25788 0
M  V30 3152 H 299.203 -6.04419 0.525651 0
M  V30 3153 H 297.942 -4.87685 0.0377957 0
M  V30 3154 H 296.947 -4.97491 2.34057 0
M  V30 3155 H 298.172 -6.17632 2.82325 0
M  V30 3156 H 296.118 -6.5318 0.607567 0
M  V30 3157 H 296.035 -7.23617 2.18895 0
M  V30 3158 H 297.303 -7.71682 1.10124 0
M  V30 3159 N 301.532 -0.945985 -1.26051 0
M  V30 3160 C 302.495 -0.463897 -2.24456 0
M  V30 3161 C 303.495 0.427655 -1.55009 0
M  V30 3162 O 304.685 0.226157 -1.72726 0
M  V30 3163 C 301.817 0.330812 -3.39291 0
M  V30 3164 H 303.01 -1.33357 -2.68619 0
M  V30 3165 H 300.563 -0.728416 -1.38289 0
M  V30 3166 H 301.298 1.21852 -3.00537 0
M  V30 3167 H 301.083 -0.308679 -3.90883 0
M  V30 3168 H 302.573 0.657865 -4.12386 0
M  V30 3169 N 303.011 1.40521 -0.713556 0
M  V30 3170 C 304.236 2.05759 -0.26035 0
M  V30 3171 C 304.661 1.53403 1.08854 0
M  V30 3172 O 304.019 0.668535 1.68524 0
M  V30 3173 C 304.067 3.59745 -0.248122 0
M  V30 3174 O 303.171 4.05123 0.77131 0
M  V30 3175 H 302.512 0.652564 -0.122703 0
M  V30 3176 H 305.042 1.79958 -0.973467 0
M  V30 3177 H 305.052 4.07911 -0.0851129 0
M  V30 3178 H 303.727 3.97218 -1.2325 0
M  V30 3179 H 302.304 3.68422 0.57619 0
M  V30 3180 N 304.489 0.459591 1.5075 0
M  V30 3181 C 305.439 -0.358926 2.25157 0
M  V30 3182 C 306.423 -0.971285 1.28276 0
M  V30 3183 O 307.615 -0.885739 1.53244 0
M  V30 3184 C 304.744 -1.44695 3.11317 0
M  V30 3185 C 303.83 -0.842894 4.15639 0
M  V30 3186 N 304.221 0.0299373 5.05791 0
M  V30 3187 C 302.519 -1.10809 4.32015 0
M  V30 3188 C 303.22 0.371563 5.80512 0
M  V30 3189 N 302.196 -0.250409 5.43023 0
M  V30 3190 H 305.998 0.313636 2.92222 0
M  V30 3191 H 303.512 0.273021 1.60089 0
M  V30 3192 H 305.509 -2.04641 3.63218 0
M  V30 3193 H 304.169 -2.12162 2.45799 0
M  V30 3194 H 305.18 0.39797 5.16369 0
M  V30 3195 H 301.857 -1.7786 3.77719 0
M  V30 3196 H 303.247 1.08319 6.63111 0
M  V30 3197 N 305.967 -1.56429 0.191757 0
M  V30 3198 C 307.195 -2.01867 -0.453586 0
M  V30 3199 C 307.61 -1.07191 -1.5542 0
M  V30 3200 O 306.967 -0.0762108 -1.82341 0
M  V30 3201 C 307.018 -3.47017 -1.013 0
M  V30 3202 O 306.739 -4.38078 0.0437005 0
M  V30 3203 C 308.24 -4.07956 -1.73456 0
M  V30 3204 H 305.46 -0.661211 -0.114199 0
M  V30 3205 H 308.004 -2.02295 0.299483 0
M  V30 3206 H 306.159 -3.47298 -1.71647 0
M  V30 3207 H 306.573 -5.23178 -0.372212 0
M  V30 3208 H 308.047 -5.1138 -2.07833 0
M  V30 3209 H 308.524 -3.51222 -2.63704 0
M  V30 3210 H 309.13 -4.11437 -1.07702 0
M  V30 3211 N 307.445 0.0818655 -1.57387 0
M  V30 3212 C 308.408 1.08265 -2.02018 0
M  V30 3213 C 309.408 1.32183 -0.915664 0
M  V30 3214 O 310.598 1.28073 -1.18081 0
M  V30 3215 C 307.73 2.42871 -2.39221 0
M  V30 3216 H 308.923 0.698204 -2.91659 0
M  V30 3217 H 306.476 0.327303 -1.52835 0
M  V30 3218 H 307.211 2.86167 -1.52575 0
M  V30 3219 H 306.996 2.26855 -3.19811 0
M  V30 3220 H 308.486 3.14826 -2.74362 0
M  V30 3221 N 308.923 1.53595 0.353017 0
M  V30 3222 C 310.334 1.61937 0.929153 0
M  V30 3223 C 310.685 0.494686 1.89861 0
M  V30 3224 O 309.81 -0.377017 2.1309 0
M  V30 3225 C 310.405 2.93526 1.69199 0
M  V30 3226 C 308.964 3.04161 2.21727 0
M  V30 3227 C 308.111 2.57322 1.03348 0
M  V30 3228 H 311.062 1.58155 0.131431 0
M  V30 3229 H 311.083 2.82034 2.55416 0
M  V30 3230 H 310.595 3.75362 0.986144 0
M  V30 3231 H 308.696 2.26938 2.95516 0
M  V30 3232 H 308.809 4.09465 2.48748 0
M  V30 3233 H 307.173 2.12499 1.40414 0
M  V30 3234 H 307.956 3.41588 0.342428 0
M  V30 3235 N 310.401 -0.613514 1.45168 0
M  V30 3236 C 311.648 -1.37268 1.48875 0
M  V30 3237 C 311.976 -1.94077 0.128161 0
M  V30 3238 O 311.231 -1.75178 -0.872416 0
M  V30 3239 C 311.53 -2.54347 2.51083 0
M  V30 3240 C 311.196 -2.1572 3.95949 0
M  V30 3241 C 309.858 -2.04899 4.35396 0
M  V30 3242 C 312.21 -1.85485 4.87078 0
M  V30 3243 C 309.538 -1.62057 5.63875 0
M  V30 3244 C 311.89 -1.4413 6.15962 0
M  V30 3245 C 310.554 -1.31863 6.54346 0
M  V30 3246 H 309.824 -0.502299 0.544773 0
M  V30 3247 H 312.471 -0.694021 1.78481 0
M  V30 3248 H 310.776 -3.27524 2.15024 0
M  V30 3249 H 312.473 -3.12577 2.51191 0
M  V30 3250 H 309.063 -2.25066 3.64751 0
M  V30 3251 H 313.247 -1.92745 4.57343 0
M  V30 3252 H 308.503 -1.51177 5.92415 0
M  V30 3253 H 312.677 -1.19778 6.86022 0
M  V30 3254 H 310.304 -0.984392 7.538 0
M  V30 3255 N 311.879 -1.3236 -0.855495 0
M  V30 3256 C 313.125 -1.23054 -1.612 0
M  V30 3257 C 313.458 0.207404 -1.93089 0
M  V30 3258 O 312.733 1.14432 -1.57275 0
M  V30 3259 C 313.016 -2.08937 -2.93287 0
M  V30 3260 C 312.869 -3.61105 -2.68185 0
M  V30 3261 C 314.188 -1.94986 -3.94549 0
M  V30 3262 H 311.307 -0.448364 -0.584926 0
M  V30 3263 H 313.949 -1.62297 -0.987917 0
M  V30 3264 H 312.099 -1.75599 -3.46551 0
M  V30 3265 H 313.771 -4.04652 -2.21483 0
M  V30 3266 H 312.014 -3.83813 -2.02164 0
M  V30 3267 H 312.685 -4.16522 -3.62234 0
M  V30 3268 H 315.161 -2.24189 -3.5054 0
M  V30 3269 H 314.037 -2.57356 -4.84829 0
M  V30 3270 H 314.298 -0.917263 -4.3248 0
M  V30 3271 N 313.357 1.07166 -1.15556 0
M  V30 3272 C 314.606 1.79181 -0.926132 0
M  V30 3273 C 314.919 1.87768 0.547967 0
M  V30 3274 O 316.125 2.56323 0.895036 0
M  V30 3275 C 314.581 3.22 -1.60761 0
M  V30 3276 C 314.189 3.21607 -3.11886 0
M  V30 3277 C 315.933 3.9861 -1.4598 0
M  V30 3278 C 313.84 4.59092 -3.72812 0
M  V30 3279 H 312.77 0.67154 -0.342856 0
M  V30 3280 H 315.421 1.2027 -1.3859 0
M  V30 3281 H 313.803 3.81115 -1.07553 0
M  V30 3282 H 314.977 2.72127 -3.71865 0
M  V30 3283 H 313.292 2.58495 -3.2645 0
M  V30 3284 H 315.889 5.00225 -1.88888 0
M  V30 3285 H 316.232 4.143 -0.407541 0
M  V30 3286 H 316.765 3.45996 -1.96295 0
M  V30 3287 H 313.504 4.48606 -4.77946 0
M  V30 3288 H 313.024 5.08803 -3.17616 0
M  V30 3289 H 314.703 5.28059 -3.73848 0
M  V30 3290 N 314.835 0.952656 1.25548 0
M  V30 3291 C 315.785 0.442033 2.23674 0
M  V30 3292 C 316.769 -0.467632 1.53955 0
M  V30 3293 O 317.961 -0.301006 1.74422 0
M  V30 3294 C 315.09 -0.280816 3.4215 0
M  V30 3295 C 314.176 0.646803 4.19139 0
M  V30 3296 N 314.567 1.77759 4.73535 0
M  V30 3297 C 312.865 0.454617 4.43677 0
M  V30 3298 C 313.566 2.35658 5.31827 0
M  V30 3299 N 312.542 1.64333 5.18166 0
M  V30 3300 H 316.344 1.30505 2.63336 0
M  V30 3301 H 313.858 0.809904 1.40763 0
M  V30 3302 H 315.855 -0.663747 4.11582 0
M  V30 3303 H 314.515 -1.14046 3.04012 0
M  V30 3304 H 315.526 2.15949 4.7073 0
M  V30 3305 H 312.203 -0.362312 4.15925 0
M  V30 3306 H 313.593 3.30998 5.84713 0
M  V30 3307 N 316.313 -1.40141 0.720998 0
M  V30 3308 C 317.59 -1.94677 0.189757 0
M  V30 3309 C 317.97 -1.65879 -1.30566 0
M  V30 3310 O 317.318 -0.979391 -2.06447 0
M  V30 3311 C 317.528 -3.45279 0.508304 0
M  V30 3312 C 318.876 -4.22209 0.449934 0
M  V30 3313 O 319.9 -3.53413 0.444677 0
M  V30 3314 O 318.759 -5.44788 0.432189 0
M  V30 3315 H 315.853 -0.826459 0.0299026 0
M  V30 3316 H 318.399 -1.49719 0.7989 0
M  V30 3317 H 317.171 -3.59619 1.54239 0
M  V30 3318 H 316.794 -3.97386 -0.130525 0
M  V30 3319 N 317.792 -0.46758 -1.50504 0
M  V30 3320 C 319.041 0.0902868 -2.01498 0
M  V30 3321 C 319.354 1.411 -1.35463 0
M  V30 3322 O 320.56 2.0536 -1.77594 0
M  V30 3323 C 319.016 0.21142 -3.59278 0
M  V30 3324 C 318.624 -1.10065 -4.34269 0
M  V30 3325 C 320.368 0.721433 -4.18325 0
M  V30 3326 C 318.275 -0.943505 -5.83825 0
M  V30 3327 H 317.205 0.037517 -0.753066 0
M  V30 3328 H 319.856 -0.601943 -1.73346 0
M  V30 3329 H 318.238 0.967352 -3.84003 0
M  V30 3330 H 319.412 -1.86726 -4.21272 0
M  V30 3331 H 317.727 -1.5415 -3.86816 0
M  V30 3332 H 320.324 0.85598 -5.27804 0
M  V30 3333 H 320.667 1.71186 -3.79475 0
M  V30 3334 H 321.2 0.0229843 -3.97793 0
M  V30 3335 H 317.939 -1.90719 -6.27141 0
M  V30 3336 H 317.459 -0.217213 -5.99407 0
M  V30 3337 H 319.138 -0.608715 -6.4413 0
M  V30 3338 N 319.27 1.56325 -0.20005 0
M  V30 3339 C 320.18 2.22931 0.730668 0
M  V30 3340 C 321.196 1.22997 1.23076 0
M  V30 3341 O 322.372 1.55748 1.27689 0
M  V30 3342 C 319.437 2.87948 1.93098 0
M  V30 3343 C 318.498 4.03166 1.47497 0
M  V30 3344 C 317.731 4.65073 2.61807 0
M  V30 3345 O 317.954 4.25913 3.79413 0
M  V30 3346 O 316.888 5.54452 2.34237 0
M  V30 3347 H 320.714 3.03084 0.193391 0
M  V30 3348 H 318.299 1.49371 0.0294621 0
M  V30 3349 H 320.181 3.29063 2.6324 0
M  V30 3350 H 318.856 2.10771 2.45677 0
M  V30 3351 H 317.763 3.66664 0.742201 0
M  V30 3352 H 319.096 4.82022 0.995796 0
M  V30 3353 N 320.748 -0.0735177 1.57428 0
M  V30 3354 C 321.976 -0.785969 1.9139 0
M  V30 3355 C 322.391 -1.71207 0.795847 0
M  V30 3356 O 321.748 -1.81033 -0.230915 0
M  V30 3357 C 321.799 -1.58107 3.25091 0
M  V30 3358 O 321.52 -0.6922 4.32597 0
M  V30 3359 C 323.021 -2.39467 3.73055 0
M  V30 3360 H 320.241 -0.223558 0.632663 0
M  V30 3361 H 322.785 -0.044302 2.04452 0
M  V30 3362 H 320.94 -2.27503 3.13562 0
M  V30 3363 H 321.354 -1.24504 5.09508 0
M  V30 3364 H 322.828 -2.90716 4.69242 0
M  V30 3365 H 323.305 -3.18913 3.01979 0
M  V30 3366 H 323.911 -1.7523 3.87523 0
M  V30 3367 N 322.226 -1.5378 -0.344866 0
M  V30 3368 C 323.156 -1.84662 -1.42906 0
M  V30 3369 C 324.137 -0.701648 -1.54955 0
M  V30 3370 O 325.322 -0.953438 -1.69184 0
M  V30 3371 C 322.452 -2.05503 -2.79974 0
M  V30 3372 C 321.406 -3.21318 -2.82734 0
M  V30 3373 C 320.732 -3.2749 -4.22675 0
M  V30 3374 C 322.032 -4.59456 -2.48389 0
M  V30 3375 H 323.726 -2.75461 -1.17311 0
M  V30 3376 H 321.272 -1.32542 -0.562896 0
M  V30 3377 H 323.225 -2.25691 -3.55867 0
M  V30 3378 H 321.949 -1.11434 -3.07002 0
M  V30 3379 H 320.608 -3.00984 -2.09294 0
M  V30 3380 H 320.256 -2.31019 -4.4681 0
M  V30 3381 H 319.956 -4.05316 -4.25433 0
M  V30 3382 H 321.48 -3.49887 -5.00412 0
M  V30 3383 H 322.894 -4.79667 -3.13995 0
M  V30 3384 H 321.291 -5.39675 -2.62432 0
M  V30 3385 H 322.361 -4.63155 -1.4358 0
M  V30 3386 N 323.704 0.605807 -1.45491 0
M  V30 3387 C 324.95 1.36481 -1.50813 0
M  V30 3388 C 325.305 1.91826 -0.148469 0
M  V30 3389 O 324.598 1.72211 0.839869 0
M  V30 3390 C 324.792 2.53012 -2.52428 0
M  V30 3391 C 324.621 2.09078 -3.98141 0
M  V30 3392 C 323.391 1.95167 -4.66088 0
M  V30 3393 C 325.589 1.66438 -4.86624 0
M  V30 3394 N 323.571 1.45062 -5.96515 0
M  V30 3395 C 324.942 1.27761 -6.06694 0
M  V30 3396 C 326.997 1.54046 -4.7347 0
M  V30 3397 C 325.7 0.779286 -7.15066 0
M  V30 3398 C 327.726 1.05618 -5.81892 0
M  V30 3399 C 327.088 0.67906 -7.01119 0
M  V30 3400 H 323.187 0.493267 -0.606805 0
M  V30 3401 H 325.771 0.692347 -1.81974 0
M  V30 3402 H 323.942 3.17851 -2.23215 0
M  V30 3403 H 325.674 3.19897 -2.47887 0
M  V30 3404 H 322.429 2.16407 -4.21266 0
M  V30 3405 H 322.853 1.22237 -6.65873 0
M  V30 3406 H 327.495 1.81827 -3.81705 0
M  V30 3407 H 325.213 0.489026 -8.06619 0
M  V30 3408 H 328.799 0.964529 -5.73749 0
M  V30 3409 H 327.679 0.310091 -7.83587 0
M  V30 3410 N 325.182 1.32811 0.848464 0
M  V30 3411 C 326.114 1.18095 1.96433 0
M  V30 3412 C 327.127 0.114354 1.62398 0
M  V30 3413 O 328.316 0.363892 1.74751 0
M  V30 3414 C 325.416 0.786798 3.2964 0
M  V30 3415 C 324.589 1.943 3.91875 0
M  V30 3416 C 323.648 1.53138 5.03423 0
M  V30 3417 O 322.674 2.24432 5.23086 0
M  V30 3418 N 323.876 0.430915 5.78898 0
M  V30 3419 H 326.641 2.14218 2.09597 0
M  V30 3420 H 324.202 1.2543 1.02367 0
M  V30 3421 H 326.194 0.493715 4.01677 0
M  V30 3422 H 324.764 -0.0834541 3.12489 0
M  V30 3423 H 323.984 2.40224 3.12547 0
M  V30 3424 H 325.272 2.71689 4.30189 0
M  V30 3425 H 324.67 -0.162333 5.65467 0
M  V30 3426 H 323.227 0.197466 6.51501 0
M  V30 3427 N 326.66 -1.06551 1.16123 0
M  V30 3428 C 327.623 -2.12132 0.867906 0
M  V30 3429 C 328.623 -1.60224 -0.135944 0
M  V30 3430 O 329.813 -1.73943 0.0946422 0
M  V30 3431 C 326.945 -3.396 0.297419 0
M  V30 3432 H 328.138 -2.39586 1.80385 0
M  V30 3433 H 325.691 -1.22574 0.969812 0
M  V30 3434 H 326.426 -3.17794 -0.64633 0
M  V30 3435 H 326.211 -3.78581 1.02073 0
M  V30 3436 H 327.701 -4.17455 0.110052 0
M  V30 3437 N 328.138 -0.959301 -1.25041 0
M  V30 3438 C 329.048 -0.489994 -2.29426 0
M  V30 3439 C 330.064 0.444944 -1.68215 0
M  V30 3440 O 331.24 0.320046 -1.98841 0
M  V30 3441 C 328.305 0.220309 -3.45999 0
M  V30 3442 C 327.366 -0.753418 -4.22637 0
M  V30 3443 C 326.599 -0.076918 -5.33645 0
M  V30 3444 O 326.822 1.13649 -5.58963 0
M  V30 3445 O 325.756 -0.764824 -5.97021 0
M  V30 3446 H 329.582 -1.35755 -2.71669 0
M  V30 3447 H 327.167 -0.725961 -1.30576 0
M  V30 3448 H 329.049 0.619677 -4.16819 0
M  V30 3449 H 327.724 1.06296 -3.0575 0
M  V30 3450 H 326.631 -1.20308 -3.54227 0
M  V30 3451 H 327.964 -1.56423 -4.66683 0
M  V30 3452 N 329.616 1.39756 -0.72842 0
M  V30 3453 C 330.563 2.30647 -0.0841519 0
M  V30 3454 C 331.533 1.48869 0.7367 0
M  V30 3455 O 332.718 1.77574 0.698015 0
M  V30 3456 C 329.858 3.35165 0.822091 0
M  V30 3457 C 328.971 4.31999 -0.0106663 0
M  V30 3458 C 328.106 5.23585 0.896241 0
M  V30 3459 C 327.145 6.12072 0.0583381 0
M  V30 3460 N 326.282 6.96035 0.920818 0
M  V30 3461 H 331.122 2.85173 -0.864891 0
M  V30 3462 H 328.659 1.40422 -0.438179 0
M  V30 3463 H 330.617 3.94345 1.36189 0
M  V30 3464 H 329.247 2.8211 1.56888 0
M  V30 3465 H 328.299 3.74492 -0.66781 0
M  V30 3466 H 329.611 4.9443 -0.658825 0
M  V30 3467 H 328.765 5.87759 1.50412 0
M  V30 3468 H 327.504 4.61459 1.57819 0
M  V30 3469 H 326.509 5.46916 -0.562389 0
M  V30 3470 H 327.734 6.76261 -0.6203 0
M  V30 3471 H 325.68 6.36485 1.58818 0
M  V30 3472 H 325.597 7.55284 0.32899 0
M  V30 3473 H 326.865 7.64646 1.51447 0
M  V30 3474 N 331.094 0.475555 1.50254 0
M  V30 3475 C 332.342 -0.077738 2.0195 0
M  V30 3476 C 332.663 -1.39813 1.35931 0
M  V30 3477 O 331.933 -1.89249 0.506123 0
M  V30 3478 H 330.513 -0.031719 0.746326 0
M  V30 3479 H 333.175 0.626995 1.84539 0
M  V30 3480 H 332.271 -0.225995 3.11281 0
M  V30 3481 N 332.573 -1.56217 0.208337 0
M  V30 3482 C 333.503 -2.22694 -0.702116 0
M  V30 3483 C 334.484 -1.19432 -1.2112 0
M  V30 3484 O 335.669 -1.47978 -1.25762 0
M  V30 3485 C 332.799 -2.8966 -1.9161 0
M  V30 3486 C 331.753 -3.9928 -1.5414 0
M  V30 3487 C 331.079 -4.53476 -2.83308 0
M  V30 3488 C 332.379 -5.17012 -0.741339 0
M  V30 3489 H 334.073 -2.99034 -0.147898 0
M  V30 3490 H 331.619 -1.43831 -0.0696951 0
M  V30 3491 H 333.572 -3.34852 -2.55836 0
M  V30 3492 H 332.296 -2.10746 -2.49507 0
M  V30 3493 H 330.955 -3.54799 -0.922668 0
M  V30 3494 H 330.603 -3.71308 -3.39322 0
M  V30 3495 H 330.303 -5.27451 -2.58976 0
M  V30 3496 H 331.827 -5.01378 -3.485 0
M  V30 3497 H 333.241 -5.58667 -1.28699 0
M  V30 3498 H 331.638 -5.97137 -0.595627 0
M  V30 3499 H 332.708 -4.8423 0.254851 0
M  V30 3500 N 334.051 0.0651679 -1.57465 0
M  V30 3501 C 335.297 0.764193 -1.87851 0
M  V30 3502 C 335.63 1.76889 -0.801495 0
M  V30 3503 O 334.905 1.93594 0.187528 0
M  V30 3504 C 335.188 1.46625 -3.28897 0
M  V30 3505 C 335.041 0.477515 -4.47258 0
M  V30 3506 C 336.36 2.4095 -3.68281 0
M  V30 3507 H 333.479 0.276351 -0.683227 0
M  V30 3508 H 336.121 0.0272868 -1.8998 0
M  V30 3509 H 334.271 2.09438 -3.27212 0
M  V30 3510 H 335.943 -0.145922 -4.61069 0
M  V30 3511 H 334.186 -0.206576 -4.33308 0
M  V30 3512 H 334.857 1.0065 -5.42746 0
M  V30 3513 H 337.333 1.88209 -3.71102 0
M  V30 3514 H 336.209 2.87072 -4.67847 0
M  V30 3515 H 336.47 3.26049 -2.98571 0
M  V30 3516 N 335.529 1.53961 0.336706 0
M  V30 3517 C 336.775 1.7273 1.07406 0
M  V30 3518 C 337.13 0.488095 1.86106 0
M  V30 3519 O 336.423 -0.519379 1.84426 0
M  V30 3520 C 336.617 2.93493 2.03953 0
M  V30 3521 C 336.446 4.29039 1.34744 0
M  V30 3522 C 335.216 4.93416 1.08942 0
M  V30 3523 C 337.414 5.08501 0.770115 0
M  V30 3524 N 335.396 6.12821 0.363864 0
M  V30 3525 C 336.767 6.19752 0.175472 0
M  V30 3526 C 338.822 4.93349 0.671633 0
M  V30 3527 C 337.525 7.17503 -0.508081 0
M  V30 3528 C 339.551 5.914 0.0018076 0
M  V30 3529 C 338.913 7.01993 -0.581835 0
M  V30 3530 H 335.012 0.685026 0.377177 0
M  V30 3531 H 337.596 1.91403 0.356815 0
M  V30 3532 H 335.767 2.76308 2.72962 0
M  V30 3533 H 337.499 3.00949 2.70577 0
M  V30 3534 H 334.254 4.53099 1.37833 0
M  V30 3535 H 334.678 6.76998 0.0156092 0
M  V30 3536 H 339.32 4.08007 1.1086 0
M  V30 3537 H 337.038 8.02414 -0.956918 0
M  V30 3538 H 340.624 5.81753 -0.0738538 0
M  V30 3539 H 339.504 7.76561 -1.09192 0
M  V30 3540 N 337.007 -0.598083 1.45811 0
M  V30 3541 C 337.954 -1.7082 1.55207 0
M  V30 3542 C 338.924 -1.61278 0.39732 0
M  V30 3543 O 340.109 -1.80717 0.612038 0
M  V30 3544 C 337.249 -3.09144 1.53376 0
M  V30 3545 C 336.362 -3.29423 2.79472 0
M  V30 3546 C 335.497 -4.57907 2.69248 0
M  V30 3547 C 334.536 -4.71476 3.90354 0
M  V30 3548 N 333.673 -5.9127 3.78608 0
M  V30 3549 H 338.513 -1.62125 2.50039 0
M  V30 3550 H 336.05 -0.790389 1.24062 0
M  V30 3551 H 338.008 -3.89186 1.50301 0
M  V30 3552 H 336.638 -3.16773 0.620876 0
M  V30 3553 H 335.69 -2.43091 2.92594 0
M  V30 3554 H 337.002 -3.3532 3.69272 0
M  V30 3555 H 336.156 -5.46157 2.64192 0
M  V30 3556 H 334.895 -4.54423 1.77063 0
M  V30 3557 H 333.9 -3.81648 3.95759 0
M  V30 3558 H 335.125 -4.76751 4.83617 0
M  V30 3559 H 333.071 -5.88813 2.89199 0
M  V30 3560 H 332.988 -5.98369 4.6205 0
M  V30 3561 H 334.256 -6.81992 3.77501 0
M  V30 3562 N 338.485 -1.33259 -0.841409 0
M  V30 3563 C 339.417 -1.19136 -1.95804 0
M  V30 3564 C 340.43 -0.122965 -1.62335 0
M  V30 3565 O 341.619 -0.373154 -1.74556 0
M  V30 3566 C 338.719 -0.804268 -3.29218 0
M  V30 3567 C 337.892 -1.96376 -3.90839 0
M  V30 3568 C 336.951 -1.55806 -5.02604 0
M  V30 3569 O 335.977 -2.27203 -5.21888 0
M  V30 3570 N 337.179 -0.461609 -5.78662 0
M  V30 3571 H 339.944 -2.15326 -2.08458 0
M  V30 3572 H 337.505 -1.25971 -1.017 0
M  V30 3573 H 339.497 -0.51501 -4.0141 0
M  V30 3574 H 338.067 0.0668809 -3.12528 0
M  V30 3575 H 337.287 -2.41879 -3.11269 0
M  V30 3576 H 338.575 -2.73966 -4.28742 0
M  V30 3577 H 337.973 0.132343 -5.65545 0
M  V30 3578 H 336.53 -0.232013 -6.51387 0
M  V30 3579 N 339.963 1.05934 -1.16686 0
M  V30 3580 C 340.893 2.1546 -0.899949 0
M  V30 3581 C 341.874 1.69391 0.155154 0
M  V30 3582 O 343.059 1.94199 0.00648693 0
M  V30 3583 C 340.189 3.44939 -0.404241 0
M  V30 3584 C 339.143 4.04536 -1.39767 0
M  V30 3585 C 338.469 5.29268 -0.760216 0
M  V30 3586 C 339.769 4.42893 -2.76845 0
M  V30 3587 H 341.463 2.38046 -1.81588 0
M  V30 3588 H 339.009 1.14404 -0.874514 0
M  V30 3589 H 340.962 4.20901 -0.204971 0
M  V30 3590 H 339.686 3.21983 0.547206 0
M  V30 3591 H 338.345 3.30635 -1.58355 0
M  V30 3592 H 337.993 5.02611 0.197831 0
M  V30 3593 H 337.693 5.70101 -1.42332 0
M  V30 3594 H 339.217 6.07924 -0.57105 0
M  V30 3595 H 340.631 5.09921 -2.62019 0
M  V30 3596 H 339.028 4.94721 -3.39663 0
M  V30 3597 H 340.098 3.53584 -3.31823 0
M  V30 3598 N 341.441 0.965919 1.2453 0
M  V30 3599 C 342.687 0.62776 1.92839 0
M  V30 3600 C 343.02 -0.834694 1.75347 0
M  V30 3601 O 342.295 -1.60031 1.10546 0
M  V30 3602 C 342.578 1.00109 3.45905 0
M  V30 3603 C 342.431 2.52011 3.72573 0
M  V30 3604 C 343.75 0.53435 4.36844 0
M  V30 3605 H 340.869 0.229537 0.700344 0
M  V30 3606 H 343.511 1.2046 1.46933 0
M  V30 3607 H 341.661 0.510238 3.85135 0
M  V30 3608 H 343.333 3.08559 3.42912 0
M  V30 3609 H 341.576 2.95287 3.17786 0
M  V30 3610 H 342.247 2.73183 4.79661 0
M  V30 3611 H 344.723 0.955565 4.04979 0
M  V30 3612 H 343.599 0.824152 5.42678 0
M  V30 3613 H 343.86 -0.565589 4.38467 0
M  V30 3614 N 342.919 -1.39368 0.735821 0
M  V30 3615 C 343.867 -2.32443 0.0855131 0
M  V30 3616 C 344.861 -1.53104 -0.724954 0
M  V30 3617 O 346.067 -1.68762 -0.626047 0
M  V30 3618 H 342.442 -0.751948 0.00885257 0
M  V30 3619 H 344.413 -2.84916 0.886883 0
M  V30 3620 C 343.162 -3.38206 -0.806983 0
M  V30 3621 H 342.485 -3.99335 -0.19274 0
M  V30 3622 H 343.925 -4.05779 -1.2296 0
M  V30 3623 C 342.384 -2.75321 -1.94165 0
M  V30 3624 O 342.914 -2.63231 -3.03435 0
M  V30 3625 N 341.12 -2.33396 -1.73132 0
M  V30 3626 H 340.667 -2.4343 -0.842596 0
M  V30 3627 H 340.625 -1.91661 -2.49225 0
M  V30 3628 N 344.397 -0.483516 -1.5 0
M  V30 3629 C 345.645 0.067027 -2.01989 0
M  V30 3630 C 345.966 1.3909 -1.36671 0
M  V30 3631 O 345.236 1.88978 -0.516152 0
M  V30 3632 H 343.816 0.0277606 -0.746484 0
M  V30 3633 H 346.478 -0.636773 -1.84204 0
M  V30 3634 H 345.574 0.209484 -3.11396 0
M  V30 3635 N 345.875 1.56104 -0.216619 0
M  V30 3636 C 346.805 2.23063 0.690296 0
M  V30 3637 C 347.786 1.20072 1.20485 0
M  V30 3638 O 348.971 1.48643 1.24976 0
M  V30 3639 C 346.101 2.90672 1.90072 0
M  V30 3640 C 345.055 4.00092 1.5202 0
M  V30 3641 C 344.381 4.54972 2.80899 0
M  V30 3642 C 345.681 5.17398 0.71391 0
M  V30 3643 H 347.375 2.99109 0.132038 0
M  V30 3644 H 344.921 1.43866 0.0620664 0
M  V30 3645 H 346.874 3.36204 2.54057 0
M  V30 3646 H 345.598 2.12066 2.48386 0
M  V30 3647 H 344.257 3.55283 0.903839 0
M  V30 3648 H 343.905 3.73102 3.37348 0
M  V30 3649 H 343.605 5.28817 2.56176 0
M  V30 3650 H 345.129 5.0322 3.45836 0
M  V30 3651 H 346.543 5.59342 1.25735 0
M  V30 3652 H 344.94 5.97444 0.563951 0
M  V30 3653 H 346.01 4.84088 -0.280527 0
M  V30 3654 N 347.353 -0.0568162 1.57498 0
M  V30 3655 C 348.764 -0.606858 1.76562 0
M  V30 3656 C 349.115 -1.77114 0.844094 0
M  V30 3657 O 348.24 -2.16376 0.0318911 0
M  V30 3658 C 348.835 -1.10766 3.20182 0
M  V30 3659 C 347.394 -1.60344 3.40539 0
M  V30 3660 C 346.541 -0.529311 2.72201 0
M  V30 3661 H 349.492 0.169393 1.57793 0
M  V30 3662 H 349.513 -1.97602 3.25167 0
M  V30 3663 H 349.025 -0.26006 3.87228 0
M  V30 3664 H 347.126 -2.47379 2.78629 0
M  V30 3665 H 347.239 -1.67006 4.4905 0
M  V30 3666 H 345.603 -0.977893 2.35179 0
M  V30 3667 H 346.386 0.308352 3.41912 0
M  V30 3668 N 348.832 -1.54138 -0.328536 0
M  V30 3669 C 350.243 -1.63395 -0.903272 0
M  V30 3670 C 350.594 -0.524828 -1.8905 0
M  V30 3671 O 349.719 0.343068 -2.13663 0
M  V30 3672 C 350.314 -2.9618 -1.64507 0
M  V30 3673 C 348.873 -3.0765 -2.1686 0
M  V30 3674 C 348.02 -2.58933 -0.992416 0
M  V30 3675 H 350.971 -1.58344 -0.106253 0
M  V30 3676 H 350.992 -2.86061 -2.50897 0
M  V30 3677 H 350.504 -3.76884 -0.926302 0
M  V30 3678 H 348.605 -2.31611 -2.91868 0
M  V30 3679 H 348.718 -4.1337 -2.42202 0
M  V30 3680 H 347.082 -2.14706 -1.37016 0
M  V30 3681 H 347.865 -3.42089 -0.288041 0
M  V30 3682 N 350.31 0.590341 -1.46126 0
M  V30 3683 C 351.54 1.37304 -1.54373 0
M  V30 3684 C 351.948 1.88332 -0.181071 0
M  V30 3685 O 351.291 1.63852 0.830559 0
M  V30 3686 C 351.353 2.6012 -2.48149 0
M  V30 3687 C 351.017 2.30613 -3.94546 0
M  V30 3688 C 352.014 1.89915 -4.83971 0
M  V30 3689 C 349.699 2.42993 -4.39613 0
M  V30 3690 C 351.693 1.61981 -6.16475 0
M  V30 3691 C 349.38 2.14672 -5.72153 0
M  V30 3692 C 350.378 1.7423 -6.60404 0
M  V30 3693 O 350.066 1.46251 -7.90485 0
M  V30 3694 H 349.798 0.426086 -0.524811 0
M  V30 3695 H 352.352 0.72539 -1.92165 0
M  V30 3696 H 350.582 3.27664 -2.05361 0
M  V30 3697 H 352.271 3.22182 -2.46887 0
M  V30 3698 H 353.037 1.79872 -4.50412 0
M  V30 3699 H 348.916 2.73435 -3.71153 0
M  V30 3700 H 352.46 1.30341 -6.85315 0
M  V30 3701 H 348.357 2.24337 -6.05263 0
M  V30 3702 H 349.125 1.6016 -8.02677 0
M  V30 3703 N 351.788 1.33704 0.83433 0
M  V30 3704 C 352.735 1.24335 1.94447 0
M  V30 3705 C 353.705 0.120991 1.65659 0
M  V30 3706 O 354.89 0.300035 1.88426 0
M  V30 3707 C 352.03 0.993124 3.30501 0
M  V30 3708 C 351.143 2.20217 3.71657 0
M  V30 3709 C 350.278 1.88572 4.96602 0
M  V30 3710 C 349.317 3.05683 5.30306 0
M  V30 3711 N 348.454 2.73997 6.46429 0
M  V30 3712 H 353.294 2.1928 2.01792 0
M  V30 3713 H 350.831 1.09035 0.987404 0
M  V30 3714 H 352.789 0.828467 4.08892 0
M  V30 3715 H 351.419 0.0803902 3.227 0
M  V30 3716 H 350.471 2.47642 2.88752 0
M  V30 3717 H 351.783 3.07752 3.92543 0
M  V30 3718 H 350.937 1.68776 5.82752 0
M  V30 3719 H 349.676 0.982799 4.77695 0
M  V30 3720 H 348.681 3.26088 4.42659 0
M  V30 3721 H 349.906 3.96737 5.51159 0
M  V30 3722 H 347.852 1.86268 6.28999 0
M  V30 3723 H 347.769 3.55064 6.67432 0
M  V30 3724 H 349.037 2.57679 7.35678 0
M  V30 3725 N 353.266 -1.05314 1.17247 0
M  V30 3726 C 354.176 -2.16538 0.90268 0
M  V30 3727 C 355.192 -1.73523 -0.128707 0
M  V30 3728 O 356.368 -2.01337 0.0502701 0
M  V30 3729 C 353.433 -3.44167 0.418356 0
M  V30 3730 C 352.494 -4.01635 1.51618 0
M  V30 3731 C 351.727 -5.23171 1.05487 0
M  V30 3732 O 351.95 -5.70327 -0.0914715 0
M  V30 3733 O 350.884 -5.72848 1.8474 0
M  V30 3734 H 354.71 -2.42145 1.83302 0
M  V30 3735 H 352.295 -1.15037 0.953246 0
M  V30 3736 H 354.177 -4.21112 0.155726 0
M  V30 3737 H 352.852 -3.20063 -0.48385 0
M  V30 3738 H 351.759 -3.26135 1.83268 0
M  V30 3739 H 353.092 -4.30053 2.39405 0
M  V30 3740 N 354.744 -0.972509 -1.24016 0
M  V30 3741 C 355.993 -0.632603 -1.91523 0
M  V30 3742 C 356.306 0.836641 -1.76804 0
M  V30 3743 O 357.512 1.28728 -2.39043 0
M  V30 3744 C 355.968 -1.08082 -3.43287 0
M  V30 3745 C 355.576 -2.57386 -3.66683 0
M  V30 3746 C 357.32 -0.814288 -4.16617 0
M  V30 3747 C 355.227 -2.95915 -5.12043 0
M  V30 3748 H 354.157 -0.232898 -0.717129 0
M  V30 3749 H 356.808 -1.17936 -1.40582 0
M  V30 3750 H 355.19 -0.462339 -3.93292 0
M  V30 3751 H 356.364 -3.24405 -3.27258 0
M  V30 3752 H 354.679 -2.81701 -3.06649 0
M  V30 3753 H 357.276 -1.0781 -5.23718 0
M  V30 3754 H 357.619 0.24955 -4.15551 0
M  V30 3755 H 358.152 -1.39397 -3.72577 0
M  V30 3756 H 354.891 -4.0139 -5.18234 0
M  V30 3757 H 354.411 -2.33584 -5.52448 0
M  V30 3758 H 356.09 -2.86086 -5.80314 0
M  V30 3759 N 356.222 1.38976 -0.743202 0
M  V30 3760 C 357.447 2.05161 -0.303936 0
M  V30 3761 C 357.872 1.55677 1.05576 0
M  V30 3762 O 357.23 0.704131 1.67068 0
M  V30 3763 C 357.278 3.59138 -0.324373 0
M  V30 3764 O 356.382 4.06668 0.685204 0
M  V30 3765 H 355.723 0.649815 -0.136518 0
M  V30 3766 H 358.253 1.77852 -1.01142 0
M  V30 3767 H 358.263 4.07639 -0.171618 0
M  V30 3768 H 356.938 3.94515 -1.31647 0
M  V30 3769 H 355.515 3.69561 0.497913 0
M  V30 3770 N 357.7 0.491464 1.49741 0
M  V30 3771 C 358.946 -0.0565092 2.02721 0
M  V30 3772 C 359.279 -1.37522 1.37118 0
M  V30 3773 O 358.554 -1.87866 0.503645 0
M  V30 3774 C 358.837 -0.219051 3.59433 0
M  V30 3775 C 358.69 1.12211 4.35579 0
M  V30 3776 C 360.009 -0.964157 4.29409 0
M  V30 3777 H 357.128 -0.0190627 0.736753 0
M  V30 3778 H 359.77 0.641021 1.7886 0
M  V30 3779 H 357.92 -0.813165 3.79895 0
M  V30 3780 H 359.592 1.75437 4.26637 0
M  V30 3781 H 357.835 1.71377 3.98513 0
M  V30 3782 H 358.506 0.961794 5.43556 0
M  V30 3783 H 360.982 -0.460378 4.13545 0
M  V30 3784 H 359.858 -1.04671 5.38828 0
M  V30 3785 H 360.119 -2.00563 3.93988 0
M  V30 3786 N 359.178 -1.55987 0.224894 0
M  V30 3787 C 360.128 -2.17076 -0.697296 0
M  V30 3788 C 361.112 -1.12006 -1.15514 0
M  V30 3789 O 362.304 -1.37985 -1.10857 0
M  V30 3790 C 359.433 -2.85679 -1.90374 0
M  V30 3791 C 358.519 -3.97977 -1.46543 0
M  V30 3792 N 358.91 -5.00359 -0.739909 0
M  V30 3793 C 357.208 -4.10128 -1.75245 0
M  V30 3794 C 357.909 -5.79407 -0.515939 0
M  V30 3795 N 356.885 -5.32892 -1.07364 0
M  V30 3796 H 360.687 -2.93592 -0.134594 0
M  V30 3797 H 358.201 -1.62379 0.0262885 0
M  V30 3798 H 360.198 -3.27857 -2.57518 0
M  V30 3799 H 358.858 -2.1066 -2.47088 0
M  V30 3800 H 359.869 -5.16412 -0.392253 0
M  V30 3801 H 356.546 -3.46263 -2.33255 0
M  V30 3802 H 357.936 -6.71872 0.0617349 0
M  V30 3803 N 360.656 0.0484629 -1.57525 0
M  V30 3804 C 361.902 0.744226 -1.88651 0
M  V30 3805 C 362.235 1.76029 -0.820212 0
M  V30 3806 O 361.51 1.93782 0.166985 0
M  V30 3807 C 361.793 1.43128 -3.30434 0
M  V30 3808 C 361.646 0.43005 -4.47739 0
M  V30 3809 C 362.965 2.37031 -3.70816 0
M  V30 3810 H 360.084 0.269089 -0.68612 0
M  V30 3811 H 362.726 0.00713532 -1.89999 0
M  V30 3812 H 360.876 2.05956 -3.29415 0
M  V30 3813 H 362.548 -0.194816 -4.60888 0
M  V30 3814 H 360.791 -0.252522 -4.33064 0
M  V30 3815 H 361.462 0.948874 -5.43783 0
M  V30 3816 H 363.938 1.84263 -3.73077 0
M  V30 3817 H 362.814 2.82094 -4.70865 0
M  V30 3818 H 363.075 3.22864 -3.02012 0
M  V30 3819 N 362.134 1.5431 0.320358 0
M  V30 3820 C 363.381 1.72668 1.05792 0
M  V30 3821 C 363.709 0.502084 1.87908 0
M  V30 3822 O 362.964 -0.516149 1.88771 0
M  V30 3823 C 363.263 2.95639 2.00828 0
M  V30 3824 C 362.929 4.30265 1.34843 0
M  V30 3825 C 361.591 4.66865 1.16578 0
M  V30 3826 C 363.943 5.13801 0.875095 0
M  V30 3827 C 361.271 5.84597 0.496336 0
M  V30 3828 C 363.623 6.32219 0.219463 0
M  V30 3829 C 362.287 6.67495 0.0246915 0
M  V30 3830 H 361.557 0.631837 0.387121 0
M  V30 3831 H 364.204 1.88552 0.334735 0
M  V30 3832 H 362.509 2.74456 2.79609 0
M  V30 3833 H 364.206 3.07038 2.57932 0
M  V30 3834 H 360.796 4.01472 1.50061 0
M  V30 3835 H 364.98 4.86039 1.00398 0
M  V30 3836 H 360.236 6.10486 0.334264 0
M  V30 3837 H 364.41 6.96227 -0.155291 0
M  V30 3838 H 362.037 7.5858 -0.496065 0
M  V30 3839 N 363.613 -0.582584 1.46437 0
M  V30 3840 C 364.843 -1.36484 1.55099 0
M  V30 3841 C 365.251 -1.88233 0.191056 0
M  V30 3842 O 364.594 -1.6429 -0.821858 0
M  V30 3843 C 364.656 -2.588 2.49525 0
M  V30 3844 C 364.32 -2.28517 3.95764 0
M  V30 3845 C 365.317 -1.87346 4.84972 0
M  V30 3846 C 363.002 -2.40658 4.40896 0
M  V30 3847 C 364.996 -1.5871 6.17325 0
M  V30 3848 C 362.683 -2.11635 5.73284 0
M  V30 3849 C 363.681 -1.70725 6.61318 0
M  V30 3850 O 363.369 -1.42057 7.91249 0
M  V30 3851 H 363.101 -0.423297 0.527063 0
M  V30 3852 H 365.655 -0.715188 1.92547 0
M  V30 3853 H 363.885 -3.26571 2.07095 0
M  V30 3854 H 365.574 -3.20868 2.48593 0
M  V30 3855 H 366.34 -1.77481 4.5136 0
M  V30 3856 H 362.219 -2.71463 3.72598 0
M  V30 3857 H 365.763 -1.26704 6.85997 0
M  V30 3858 H 361.66 -2.21124 6.06444 0
M  V30 3859 H 362.428 -1.55901 8.03515 0
M  V30 3860 N 365.091 -1.34144 -0.827227 0
M  V30 3861 C 366.507 -1.13732 -1.11969 0
M  V30 3862 C 366.707 0.0640463 -2.01398 0
M  V30 3863 O 365.763 0.740856 -2.41387 0
M  V30 3864 C 367.076 -2.43047 -1.77055 0
M  V30 3865 C 368.624 -2.49063 -1.89569 0
M  V30 3866 C 369.099 -3.78369 -2.58072 0
M  V30 3867 N 370.59 -3.79505 -2.65575 0
M  V30 3868 C 371.325 -4.76274 -3.19297 0
M  V30 3869 N 370.821 -5.83424 -3.73616 0
M  V30 3870 N 372.614 -4.63735 -3.17658 0
M  V30 3871 H 364.765 -2.11126 -0.232296 0
M  V30 3872 H 367.028 -0.933424 -0.165602 0
M  V30 3873 H 366.734 -3.31025 -1.18807 0
M  V30 3874 H 366.608 -2.56066 -2.76966 0
M  V30 3875 H 368.995 -1.61527 -2.46968 0
M  V30 3876 H 369.076 -2.39975 -0.885745 0
M  V30 3877 H 368.72 -4.66293 -2.01329 0
M  V30 3878 H 368.65 -3.84737 -3.59562 0
M  V30 3879 H 371.141 -3.02074 -2.27068 0
M  V30 3880 H 371.454 -6.53282 -4.12846 0
M  V30 3881 H 369.799 -5.87143 -3.71871 0
M  V30 3882 H 372.99 -3.79177 -2.74486 0
M  V30 3883 H 373.163 -5.39318 -3.59221 0
M  V30 3884 N 366.569 1.04691 -1.17803 0
M  V30 3885 C 367.809 1.79352 -0.980423 0
M  V30 3886 C 368.173 1.85853 0.481958 0
M  V30 3887 O 369.374 2.56656 0.798809 0
M  V30 3888 C 367.645 3.19088 -1.6099 0
M  V30 3889 S 369.204 4.10164 -1.55918 0
M  V30 3890 H 366.022 0.617631 -0.352211 0
M  V30 3891 H 368.624 1.25575 -1.49837 0
M  V30 3892 H 367.328 3.11962 -2.66661 0
M  V30 3893 H 366.859 3.77941 -1.09197 0
M  V30 3894 H 368.874 4.92907 -0.570685 0
M  V30 3895 N 368.047 0.979072 1.23499 0
M  V30 3896 C 368.979 0.476271 2.24197 0
M  V30 3897 C 369.992 -0.421166 1.57258 0
M  V30 3898 O 371.181 -0.225515 1.7707 0
M  V30 3899 C 368.281 -0.330503 3.37285 0
M  V30 3900 C 367.454 0.559744 4.33804 0
M  V30 3901 C 366.513 -0.192954 5.25846 0
M  V30 3902 O 365.539 0.416978 5.67671 0
M  V30 3903 N 366.741 -1.47932 5.61334 0
M  V30 3904 H 369.506 1.34211 2.67969 0
M  V30 3905 H 367.067 0.852189 1.37657 0
M  V30 3906 H 369.059 -0.842361 3.95836 0
M  V30 3907 H 367.629 -1.09734 2.92707 0
M  V30 3908 H 366.849 1.25245 3.73775 0
M  V30 3909 H 368.137 1.1665 4.95248 0
M  V30 3910 H 367.535 -1.9964 5.29302 0
M  V30 3911 H 366.092 -1.93664 6.22364 0
M  V30 3912 N 369.525 -1.3858 0.750561 0
M  V30 3913 C 370.765 -2.02032 0.310258 0
M  V30 3914 C 371.129 -1.58288 -1.08668 0
M  V30 3915 O 372.33 -2.14049 -1.62593 0
M  V30 3916 C 370.601 -3.54856 0.425647 0
M  V30 3917 S 372.16 -4.38748 0.0674797 0
M  V30 3918 H 368.978 -0.700705 0.120554 0
M  V30 3919 H 371.58 -1.69134 0.980512 0
M  V30 3920 H 370.284 -3.84182 1.44335 0
M  V30 3921 H 369.815 -3.92527 -0.261894 0
M  V30 3922 H 371.83 -4.82835 -1.14388 0
M  V30 3923 N 371.003 -0.499398 -1.49478 0
M  V30 3924 C 372.231 0.0425456 -2.06856 0
M  V30 3925 C 372.646 1.30964 -1.35992 0
M  V30 3926 O 372.003 1.77172 -0.437762 0
M  V30 3927 C 372.054 0.301735 -3.60239 0
M  V30 3928 O 371.775 -0.915127 -4.28436 0
M  V30 3929 C 373.276 0.887499 -4.34325 0
M  V30 3930 H 370.496 -0.0197482 -0.670709 0
M  V30 3931 H 373.04 -0.696297 -1.92281 0
M  V30 3932 H 371.195 0.990556 -3.74522 0
M  V30 3933 H 371.609 -0.676993 -5.20113 0
M  V30 3934 H 373.083 1.01845 -5.42523 0
M  V30 3935 H 373.56 1.88488 -3.96698 0
M  V30 3936 H 374.166 0.236196 -4.24644 0
M  V30 3937 N 372.481 1.55866 -0.233164 0
M  V30 3938 C 373.709 2.02998 0.399905 0
M  V30 3939 C 374.124 1.11274 1.52524 0
M  V30 3940 O 373.481 0.124528 1.82075 0
M  V30 3941 C 373.532 3.4958 0.920639 0
M  V30 3942 O 373.253 4.37808 -0.159834 0
M  V30 3943 C 374.754 4.12411 1.62578 0
M  V30 3944 H 371.974 0.664006 0.0966281 0
M  V30 3945 H 374.518 2.0143 -0.353013 0
M  V30 3946 H 372.673 3.51727 1.62379 0
M  V30 3947 H 373.087 5.23981 0.23337 0
M  V30 3948 H 374.561 5.16711 1.94201 0
M  V30 3949 H 375.038 3.5809 2.54299 0
M  V30 3950 H 375.644 4.14148 0.967553 0
M  V30 3951 N 373.959 -0.0401083 1.57549 0
M  V30 3952 C 375.205 -0.734211 1.89043 0
M  V30 3953 C 375.538 -1.75591 0.829535 0
M  V30 3954 O 374.813 -1.93868 -0.156706 0
M  V30 3955 C 375.096 -1.41374 3.31188 0
M  V30 3956 C 374.949 -0.406299 4.47961 0
M  V30 3957 C 376.268 -2.35061 3.72068 0
M  V30 3958 H 373.387 -0.265447 0.687537 0
M  V30 3959 H 376.029 0.00294087 1.9 0
M  V30 3960 H 374.179 -2.04206 3.30503 0
M  V30 3961 H 375.851 0.219255 4.60779 0
M  V30 3962 H 374.094 0.275485 4.32924 0
M  V30 3963 H 374.765 -0.920022 5.44279 0
M  V30 3964 H 377.241 -1.82282 3.74049 0
M  V30 3965 H 376.117 -2.79593 4.72355 0
M  V30 3966 H 376.378 -3.21258 3.0372 0
M  V30 3967 N 375.437 -1.54477 -0.31217 0
M  V30 3968 C 376.347 -1.87695 -1.4074 0
M  V30 3969 C 377.363 -0.769975 -1.56036 0
M  V30 3970 O 378.539 -1.06537 -1.70915 0
M  V30 3971 C 375.604 -2.10755 -2.75287 0
M  V30 3972 C 374.665 -3.34514 -2.69071 0
M  V30 3973 C 373.898 -3.56465 -3.97201 0
M  V30 3974 O 374.121 -2.81637 -4.96021 0
M  V30 3975 O 373.055 -4.49964 -3.9977 0
M  V30 3976 H 376.881 -2.80849 -1.15574 0
M  V30 3977 H 374.466 -1.40526 -0.507228 0
M  V30 3978 H 376.348 -2.27188 -3.54913 0
M  V30 3979 H 375.023 -1.20788 -3.0032 0
M  V30 3980 H 373.93 -3.23456 -1.87955 0
M  V30 3981 H 375.263 -4.24575 -2.48992 0
M  V30 3982 N 376.915 0.57481 -1.46744 0
M  V30 3983 C 378.143 1.35856 -1.56047 0
M  V30 3984 C 378.558 1.87691 -0.204365 0
M  V30 3985 O 377.915 1.64049 0.79963 0
M  V30 3986 C 377.966 2.54066 -2.57163 0
M  V30 3987 O 377.687 2.04377 -3.87507 0
M  V30 3988 C 379.188 3.46514 -2.76483 0
M  V30 3989 H 376.408 0.414754 -0.527466 0
M  V30 3990 H 378.952 0.698035 -1.92218 0
M  V30 3991 H 377.107 3.16092 -2.23974 0
M  V30 3992 H 377.521 2.81419 -4.4261 0
M  V30 3993 H 378.995 4.25919 -3.51137 0
M  V30 3994 H 379.472 3.98951 -1.83671 0
M  V30 3995 H 380.078 2.90318 -3.10799 0
M  V30 3996 N 378.394 1.34581 0.820102 0
M  V30 3997 C 379.64 1.27285 1.57881 0
M  V30 3998 C 379.973 -0.156137 1.93571 0
M  V30 3999 O 379.248 -1.10222 1.60254 0
M  V30 4000 C 379.531 2.16639 2.87645 0
M  V30 4001 C 379.384 3.68088 2.58517 0
M  V30 4002 C 380.703 2.05378 3.8924 0
M  V30 4003 H 377.822 0.463714 0.572833 0
M  V30 4004 H 380.464 1.64859 0.944539 0
M  V30 4005 H 378.614 1.84725 3.41773 0
M  V30 4006 H 380.286 4.10382 2.10676 0
M  V30 4007 H 378.529 3.89038 1.91917 0
M  V30 4008 H 379.2 4.2598 3.51063 0
M  V30 4009 H 381.676 2.33404 3.44473 0
M  V30 4010 H 380.552 2.7012 4.77835 0
M  V30 4011 H 380.813 1.0316 4.29896 0
M  V30 4012 N 379.872 -1.04064 1.18357 0
M  V30 4013 C 381.288 -1.2947 0.933258 0
M  V30 4014 C 381.488 -1.97466 -0.401169 0
M  V30 4015 O 380.544 -2.25528 -1.13549 0
M  V30 4016 C 381.857 -2.15337 2.09882 0
M  V30 4017 C 383.405 -2.28683 2.13712 0
M  V30 4018 C 383.88 -3.17917 3.29686 0
M  V30 4019 N 385.371 -3.25504 3.29547 0
M  V30 4020 C 386.106 -3.94706 4.15926 0
M  V30 4021 N 385.602 -4.66239 5.12439 0
M  V30 4022 N 387.395 -3.90986 4.0384 0
M  V30 4023 H 379.546 -0.583359 2.04232 0
M  V30 4024 H 381.809 -0.319921 0.892387 0
M  V30 4025 H 381.515 -1.72682 3.06389 0
M  V30 4026 H 381.389 -3.16015 2.05947 0
M  V30 4027 H 383.776 -2.70575 1.17784 0
M  V30 4028 H 383.857 -1.27596 2.21705 0
M  V30 4029 H 383.501 -2.76736 4.25887 0
M  V30 4030 H 383.431 -4.19036 3.1893 0
M  V30 4031 H 385.922 -2.74547 2.59677 0
M  V30 4032 H 386.235 -5.16638 5.74722 0
M  V30 4033 H 384.58 -4.65143 5.16398 0
M  V30 4034 H 387.771 -3.34234 3.27727 0
M  V30 4035 H 387.944 -4.44646 4.71375 0
M  V30 4036 N 381.35 -0.985608 -1.22978 0
M  V30 4037 C 382.26 -0.538548 -2.28335 0
M  V30 4038 C 383.276 0.409163 -1.69121 0
M  V30 4039 O 384.452 0.277797 -1.99475 0
M  V30 4040 C 381.517 0.146867 -3.46389 0
M  V30 4041 C 380.578 -0.842896 -4.20944 0
M  V30 4042 C 379.811 -0.190095 -5.33361 0
M  V30 4043 O 380.034 1.01767 -5.61248 0
M  V30 4044 O 378.968 -0.891289 -5.95264 0
M  V30 4045 H 382.794 -1.41487 -2.68729 0
M  V30 4046 H 380.379 -0.753495 -1.29007 0
M  V30 4047 H 382.261 0.531125 -4.1804 0
M  V30 4048 H 380.936 0.997871 -3.07935 0
M  V30 4049 H 379.843 -1.27795 -3.51595 0
M  V30 4050 H 381.176 -1.66287 -4.6326 0
M  V30 4051 N 382.828 1.3818 -0.7579 0
M  V30 4052 C 383.758 2.33027 -0.148597 0
M  V30 4053 C 384.739 1.55085 0.69875 0
M  V30 4054 O 385.924 1.83384 0.639053 0
M  V30 4055 C 383.054 3.3928 0.742034 0
M  V30 4056 C 382.008 4.28 -0.00291946 0
M  V30 4057 C 381.334 5.25146 1.00625 0
M  V30 4058 C 382.634 5.08938 -1.17385 0
M  V30 4059 H 384.328 2.84231 -0.940909 0
M  V30 4060 H 381.874 1.36659 -0.453908 0
M  V30 4061 H 383.827 4.046 1.17799 0
M  V30 4062 H 382.551 2.86569 1.56671 0
M  V30 4063 H 381.21 3.64192 -0.419504 0
M  V30 4064 H 380.858 4.68721 1.8251 0
M  V30 4065 H 380.558 5.85361 0.512428 0
M  V30 4066 H 382.082 5.93342 1.44143 0
M  V30 4067 H 383.496 5.67474 -0.815224 0
M  V30 4068 H 381.893 5.7841 -1.59882 0
M  V30 4069 H 382.963 4.42424 -1.98468 0
M  V30 4070 N 384.306 0.507319 1.49211 0
M  V30 4071 C 385.534 -0.0315749 2.06876 0
M  V30 4072 C 385.949 -1.30241 1.36685 0
M  V30 4073 O 385.306 -1.76937 0.447152 0
M  V30 4074 C 385.357 -0.282627 3.60393 0
M  V30 4075 O 385.078 0.937835 4.27944 0
M  V30 4076 C 386.579 -0.864453 4.3479 0
M  V30 4077 H 383.799 0.0233048 0.670595 0
M  V30 4078 H 386.343 0.706484 1.91909 0
M  V30 4079 H 384.498 -0.97068 3.75042 0
M  V30 4080 H 384.912 0.704567 5.19746 0
M  V30 4081 H 386.386 -0.989664 5.43056 0
M  V30 4082 H 386.863 -1.86382 3.97692 0
M  V30 4083 H 387.469 -0.213672 4.24763 0
M  V30 4084 N 385.784 -1.5574 0.241426 0
M  V30 4085 C 386.694 -2.2479 -0.671305 0
M  V30 4086 C 387.71 -1.26217 -1.19772 0
M  V30 4087 O 388.886 -1.59079 -1.23514 0
M  V30 4088 C 385.951 -2.92966 -1.85396 0
M  V30 4089 C 385.012 -4.06935 -1.36756 0
M  V30 4090 C 384.245 -4.71851 -2.49384 0
M  V30 4091 O 384.468 -4.35823 -3.67987 0
M  V30 4092 O 383.402 -5.60467 -2.19454 0
M  V30 4093 H 387.228 -3.0349 -0.112966 0
M  V30 4094 H 384.813 -1.49397 0.0101513 0
M  V30 4095 H 386.695 -3.35927 -2.54423 0
M  V30 4096 H 385.37 -2.17211 -2.40002 0
M  V30 4097 H 384.277 -3.68503 -0.644726 0
M  V30 4098 H 385.61 -4.84492 -0.867647 0
M  V30 4099 N 387.262 0.0317525 -1.57568 0
M  V30 4100 C 388.509 0.723104 -1.89149 0
M  V30 4101 C 388.837 1.75504 -0.838377 0
M  V30 4102 O 388.092 1.95037 0.160982 0
M  V30 4103 C 388.391 1.43167 -3.27472 0
M  V30 4104 C 388.057 0.535972 -4.47703 0
M  V30 4105 C 386.719 0.289262 -4.8033 0
M  V30 4106 C 389.071 -0.0826125 -5.21135 0
M  V30 4107 C 386.399 -0.584853 -5.83778 0
M  V30 4108 C 388.751 -0.944414 -6.25511 0
M  V30 4109 C 387.415 -1.20061 -6.56614 0
M  V30 4110 H 386.685 0.264602 -0.692146 0
M  V30 4111 H 389.332 -0.0169496 -1.91492 0
M  V30 4112 H 387.637 2.24497 -3.21105 0
M  V30 4113 H 389.334 1.97209 -3.49155 0
M  V30 4114 H 385.924 0.738414 -4.22191 0
M  V30 4115 H 390.108 0.0950302 -4.96209 0
M  V30 4116 H 385.364 -0.79168 -6.06253 0
M  V30 4117 H 389.538 -1.43026 -6.81554 0
M  V30 4118 H 387.165 -1.87967 -7.36595 0
M  V30 4119 N 388.74 1.54641 0.303973 0
M  V30 4120 C 389.703 1.84646 1.35789 0
M  V30 4121 C 390.703 0.7192 1.4382 0
M  V30 4122 O 391.893 0.987491 1.43507 0
M  V30 4123 C 389.025 2.02407 2.74307 0
M  V30 4124 H 390.218 2.78829 1.10429 0
M  V30 4125 H 387.771 1.46658 0.540487 0
M  V30 4126 H 388.506 1.10502 3.04893 0
M  V30 4127 H 388.291 2.84453 2.69868 0
M  V30 4128 H 389.781 2.27002 3.50514 0
M  V30 4129 N 390.218 -0.567019 1.47046 0
M  V30 4130 C 391.165 -1.67489 1.58796 0
M  V30 4131 C 392.135 -1.60399 0.43144 0
M  V30 4132 O 393.32 -1.79378 0.650233 0
M  V30 4133 C 390.46 -3.05821 1.59899 0
M  V30 4134 C 389.573 -3.2342 2.86397 0
M  V30 4135 C 388.708 -4.52093 2.789 0
M  V30 4136 C 387.747 -4.6309 4.00267 0
M  V30 4137 N 386.884 -5.83106 3.91064 0
M  V30 4138 H 391.724 -1.56785 2.53422 0
M  V30 4139 H 389.261 -0.763896 1.2571 0
M  V30 4140 H 391.219 -3.8591 1.58522 0
M  V30 4141 H 389.849 -3.15384 0.687929 0
M  V30 4142 H 388.901 -2.3683 2.97684 0
M  V30 4143 H 390.213 -3.27412 3.76301 0
M  V30 4144 H 389.367 -5.4043 2.75718 0
M  V30 4145 H 388.106 -4.50565 1.86662 0
M  V30 4146 H 387.111 -3.73168 4.03765 0
M  V30 4147 H 388.336 -4.66386 4.93621 0
M  V30 4148 H 386.282 -5.82546 3.01623 0
M  V30 4149 H 386.199 -5.88434 4.74638 0
M  V30 4150 H 387.467 -6.73831 3.91882 0
M  V30 4151 N 391.696 -1.35014 -0.812953 0
M  V30 4152 C 392.921 -1.31187 -1.60639 0
M  V30 4153 C 393.346 0.109382 -1.87782 0
M  V30 4154 O 392.704 1.07424 -1.46047 0
M  V30 4155 C 392.752 -2.11809 -2.91838 0
M  V30 4156 O 391.856 -1.49444 -3.8437 0
M  V30 4157 H 391.197 -0.450084 -0.488181 0
M  V30 4158 H 393.727 -1.77963 -1.00947 0
M  V30 4159 H 393.737 -2.23531 -3.41318 0
M  V30 4160 H 392.412 -3.15137 -2.71407 0
M  V30 4161 H 390.989 -1.46524 -3.42907 0
M  V30 4162 N 393.175 1.03435 -1.18907 0
M  V30 4163 C 394.424 1.76143 -0.982669 0
M  V30 4164 C 394.737 1.89416 0.487953 0
M  V30 4165 O 395.943 2.59041 0.813036 0
M  V30 4166 C 394.399 3.16722 -1.70924 0
M  V30 4167 C 394.007 3.11522 -3.21959 0
M  V30 4168 C 395.751 3.93764 -1.58588 0
M  V30 4169 C 393.658 4.46999 -3.87228 0
M  V30 4170 H 392.588 0.660292 -0.364047 0
M  V30 4171 H 395.239 1.158 -1.42347 0
M  V30 4172 H 393.621 3.775 -1.19623 0
M  V30 4173 H 394.795 2.60158 -3.80335 0
M  V30 4174 H 393.11 2.47978 -3.34508 0
M  V30 4175 H 395.707 4.93963 -2.04707 0
M  V30 4176 H 396.05 4.12794 -0.539142 0
M  V30 4177 H 396.583 3.39576 -2.07203 0
M  V30 4178 H 393.322 4.33174 -4.91976 0
M  V30 4179 H 392.842 4.98441 -3.33642 0
M  V30 4180 H 394.521 5.15898 -3.90459 0
M  V30 4181 N 394.653 0.992116 1.22453 0
M  V30 4182 C 396.064 0.702776 1.72968 0
M  V30 4183 C 396.415 -0.780399 1.80012 0
M  V30 4184 O 395.54 -1.61007 1.44589 0
M  V30 4185 C 396.135 1.26903 3.14135 0
M  V30 4186 C 394.694 1.02909 3.62059 0
M  V30 4187 C 393.841 1.38969 2.39964 0
M  V30 4188 H 396.792 1.16457 1.07812 0
M  V30 4189 H 396.813 0.647223 3.74955 0
M  V30 4190 H 396.325 2.34851 3.08977 0
M  V30 4191 H 394.426 -0.0337979 3.72585 0
M  V30 4192 H 394.539 1.69191 4.48231 0
M  V30 4193 H 392.903 0.808279 2.41535 0
M  V30 4194 H 393.686 2.4792 2.37467 0
M  V30 4195 N 396.131 -1.37776 0.765217 0
M  V30 4196 C 397.356 -2.04651 0.336537 0
M  V30 4197 C 397.781 -1.57337 -1.03086 0
M  V30 4198 O 397.139 -0.730621 -1.65927 0
M  V30 4199 C 397.187 -3.58577 0.381468 0
M  V30 4200 O 396.291 -4.07706 -0.62042 0
M  V30 4201 H 395.632 -0.64756 0.146838 0
M  V30 4202 H 398.162 -1.76221 1.03959 0
M  V30 4203 H 398.172 -4.07314 0.236448 0
M  V30 4204 H 396.847 -3.9237 1.37907 0
M  V30 4205 H 395.424 -3.70306 -0.439056 0
M  V30 4206 N 397.609 -0.515225 -1.4894 0
M  V30 4207 C 398.856 0.024215 -2.02486 0
M  V30 4208 C 399.184 1.35671 -1.39368 0
M  V30 4209 O 398.439 1.88566 -0.523574 0
M  V30 4210 C 398.738 0.210595 -3.56779 0
M  V30 4211 C 398.404 -1.04569 -4.38607 0
M  V30 4212 C 397.066 -1.39002 -4.60686 0
M  V30 4213 C 399.418 -1.88008 -4.86109 0
M  V30 4214 C 396.746 -2.568 -5.27514 0
M  V30 4215 C 399.098 -3.04972 -5.54234 0
M  V30 4216 C 397.762 -3.39768 -5.74555 0
M  V30 4217 H 397.032 0.00886088 -0.740947 0
M  V30 4218 H 399.679 -0.678263 -1.79086 0
M  V30 4219 H 397.984 0.99572 -3.78936 0
M  V30 4220 H 399.681 0.642659 -3.95817 0
M  V30 4221 H 396.271 -0.767497 -4.21672 0
M  V30 4222 H 400.455 -1.62719 -4.68867 0
M  V30 4223 H 395.711 -2.8398 -5.41447 0
M  V30 4224 H 399.885 -3.69943 -5.90013 0
M  V30 4225 H 397.512 -4.31148 -6.26112 0
M  V30 4226 N 399.087 1.5561 -0.249682 0
M  V30 4227 C 400.312 2.03865 0.381305 0
M  V30 4228 C 400.737 1.12769 1.50548 0
M  V30 4229 O 400.095 0.121189 1.80895 0
M  V30 4230 C 400.143 3.50101 0.863816 0
M  V30 4231 O 399.247 3.62132 1.97318 0
M  V30 4232 H 398.588 0.658827 0.0827194 0
M  V30 4233 H 401.118 2.01105 -0.376552 0
M  V30 4234 H 401.128 3.90975 1.1663 0
M  V30 4235 H 399.803 4.1588 0.0411816 0
M  V30 4236 H 398.38 3.33155 1.67517 0
M  V30 4237 N 400.565 -0.0233959 1.57583 0
M  V30 4238 C 401.79 -0.728376 1.94189 0
M  V30 4239 C 402.215 -1.67793 0.850119 0
M  V30 4240 O 401.573 -1.80262 -0.19371 0
M  V30 4241 C 401.621 -1.45669 3.29868 0
M  V30 4242 O 400.725 -2.57013 3.22518 0
M  V30 4243 H 400.066 -0.195493 0.63457 0
M  V30 4244 H 402.596 0.0228214 2.04587 0
M  V30 4245 H 402.606 -1.82535 3.6489 0
M  V30 4246 H 401.281 -0.760314 4.08891 0
M  V30 4247 H 399.858 -2.22648 2.99136 0
M  V30 4248 N 402.043 -1.548 -0.295768 0
M  V30 4249 C 402.973 -1.89115 -1.36959 0
M  V30 4250 C 403.954 -0.75059 -1.52644 0
M  V30 4251 O 405.139 -1.00678 -1.66065 0
M  V30 4252 C 402.269 -2.14307 -2.73295 0
M  V30 4253 C 401.223 -3.30151 -2.72368 0
M  V30 4254 C 400.549 -3.40772 -4.12042 0
M  V30 4255 C 401.849 -4.67126 -2.33646 0
M  V30 4256 H 403.543 -2.79053 -1.08488 0
M  V30 4257 H 401.089 -1.34266 -0.520443 0
M  V30 4258 H 403.042 -2.36898 -3.48507 0
M  V30 4259 H 401.766 -1.21145 -3.03301 0
M  V30 4260 H 400.425 -3.0749 -1.99613 0
M  V30 4261 H 400.073 -2.45117 -4.39234 0
M  V30 4262 H 399.773 -4.18645 -4.12322 0
M  V30 4263 H 401.297 -3.6563 -4.89027 0
M  V30 4264 H 402.711 -4.89414 -2.98575 0
M  V30 4265 H 401.108 -5.47751 -2.45129 0
M  V30 4266 H 402.178 -4.67489 -1.28772 0
M  V30 4267 N 403.521 0.559213 -1.47345 0
M  V30 4268 C 404.768 1.31648 -1.53867 0
M  V30 4269 C 405.096 1.93468 -0.200104 0
M  V30 4270 O 404.351 1.78295 0.806799 0
M  V30 4271 C 404.65 2.44853 -2.6035 0
M  V30 4272 C 404.316 2.00876 -4.03683 0
M  V30 4273 C 402.978 1.88599 -4.42701 0
M  V30 4274 C 405.33 1.67279 -4.93626 0
M  V30 4275 C 402.658 1.41017 -5.69501 0
M  V30 4276 C 405.01 1.21169 -6.20887 0
M  V30 4277 C 403.674 1.07487 -6.58789 0
M  V30 4278 H 402.944 0.481734 -0.56304 0
M  V30 4279 H 405.591 0.627301 -1.80934 0
M  V30 4280 H 403.896 3.19318 -2.27032 0
M  V30 4281 H 405.593 3.03039 -2.62619 0
M  V30 4282 H 402.183 2.11374 -3.72853 0
M  V30 4283 H 406.367 1.75638 -4.64182 0
M  V30 4284 H 401.623 1.29086 -5.97618 0
M  V30 4285 H 405.797 0.942345 -6.89995 0
M  V30 4286 H 403.424 0.703946 -7.56934 0
M  V30 4287 N 404.999 1.35443 0.805782 0
M  V30 4288 C 405.929 1.31095 1.93226 0
M  V30 4289 C 406.91 0.185244 1.69088 0
M  V30 4290 O 408.095 0.380332 1.90439 0
M  V30 4291 C 405.225 1.08299 3.29983 0
M  V30 4292 C 404.179 2.17519 3.68605 0
M  V30 4293 C 403.505 1.79887 5.03532 0
M  V30 4294 C 404.805 3.5949 3.78898 0
M  V30 4295 H 406.499 2.25352 1.97122 0
M  V30 4296 H 404.045 1.0848 0.946996 0
M  V30 4297 H 405.998 1.03897 4.08391 0
M  V30 4298 H 404.722 0.104885 3.26432 0
M  V30 4299 H 403.381 2.2102 2.92482 0
M  V30 4300 H 403.029 0.80693 4.96485 0
M  V30 4301 H 402.729 2.53001 5.30344 0
M  V30 4302 H 404.253 1.77011 5.84379 0
M  V30 4303 H 405.667 3.58307 4.47536 0
M  V30 4304 H 404.064 4.31371 4.1718 0
M  V30 4305 H 405.134 3.95584 2.80431 0
M  V30 4306 N 406.477 -1.02803 1.19454 0
M  V30 4307 C 407.425 -2.13213 0.929673 0
M  V30 4308 C 408.419 -1.69011 -0.114806 0
M  V30 4309 O 409.625 -1.79967 0.0345147 0
M  V30 4310 H 406 -0.69662 0.28324 0
M  V30 4311 H 407.971 -2.32744 1.86743 0
M  V30 4312 C 406.72 -3.4429 0.485797 0
M  V30 4313 H 406.043 -3.7872 1.28105 0
M  V30 4314 H 407.483 -4.22638 0.339582 0
M  V30 4315 C 405.942 -3.27258 -0.800244 0
M  V30 4316 O 406.472 -3.55967 -1.86146 0
M  V30 4317 N 404.678 -2.80545 -0.75781 0
M  V30 4318 H 404.225 -2.57382 0.106039 0
M  V30 4319 H 404.183 -2.6953 -1.61867 0
M  V30 4320 N 407.956 -0.998596 -1.21925 0
M  V30 4321 C 409.233 -0.593401 -1.86382 0
M  V30 4322 C 409.613 0.92916 -1.89552 0
M  V30 4323 O 408.961 1.81347 -1.39017 0
M  V30 4324 C 409.171 -1.22039 -3.26967 0
M  V30 4325 C 410.519 -1.32449 -4.03413 0
M  V30 4326 O 411.543 -1.17522 -3.36254 0
M  V30 4327 O 410.402 -1.56395 -5.23644 0
M  V30 4328 H 407.496 -0.202385 -0.801854 0
M  V30 4329 H 410.042 -1.09484 -1.29659 0
M  V30 4330 H 408.814 -2.26158 -3.19325 0
M  V30 4331 H 408.437 -0.704906 -3.91301 0
M  V30 4332 N 409.434 1.37368 -0.772513 0
M  V30 4333 C 410.366 2.28899 -0.117502 0
M  V30 4334 C 411.379 1.4867 0.663405 0
M  V30 4335 O 412.568 1.71314 0.501372 0
M  V30 4336 C 409.668 3.2788 0.857192 0
M  V30 4337 C 408.841 4.37207 0.129938 0
M  V30 4338 C 407.9 5.16257 1.01811 0
M  V30 4339 O 406.926 5.67159 0.481601 0
M  V30 4340 N 408.128 5.31058 2.3443 0
M  V30 4341 H 410.893 2.85752 -0.903662 0
M  V30 4342 H 408.454 1.49353 -0.62493 0
M  V30 4343 H 410.446 3.77647 1.45482 0
M  V30 4344 H 409.016 2.7179 1.54432 0
M  V30 4345 H 408.236 3.88827 -0.648605 0
M  V30 4346 H 409.524 5.07434 -0.372559 0
M  V30 4347 H 408.922 4.91287 2.80452 0
M  V30 4348 H 407.479 5.84131 2.89197 0
M  V30 4349 N 410.912 0.523116 1.48665 0
M  V30 4350 C 412.158 -0.0134963 2.02796 0
M  V30 4351 C 412.491 -1.34582 1.40004 0
M  V30 4352 O 411.766 -1.86756 0.543381 0
M  V30 4353 C 412.049 -0.14276 3.59817 0
M  V30 4354 C 411.902 1.21425 4.331 0
M  V30 4355 C 413.221 -0.872856 4.31357 0
M  V30 4356 H 410.34 -0.00343074 0.736992 0
M  V30 4357 H 412.982 0.678816 1.7746 0
M  V30 4358 H 411.132 -0.732401 3.81534 0
M  V30 4359 H 412.804 1.84447 4.2282 0
M  V30 4360 H 411.047 1.79791 3.94788 0
M  V30 4361 H 411.718 1.07687 5.41394 0
M  V30 4362 H 414.194 -0.372555 4.14429 0
M  V30 4363 H 413.07 -0.932185 5.40927 0
M  V30 4364 H 413.331 -1.92161 3.98154 0
M  V30 4365 N 412.39 -1.55475 0.257931 0
M  V30 4366 C 413.618 -2.03609 -0.367559 0
M  V30 4367 C 414.033 -1.13687 -1.50734 0
M  V30 4368 O 413.39 -0.153479 -1.81853 0
M  V30 4369 C 413.441 -3.51001 -0.864908 0
M  V30 4370 O 413.162 -4.37499 0.229465 0
M  V30 4371 C 414.663 -4.14946 -1.55997 0
M  V30 4372 H 411.883 -0.665459 -0.0860521 0
M  V30 4373 H 414.427 -2.00843 0.385014 0
M  V30 4374 H 412.582 -3.54266 -1.56762 0
M  V30 4375 H 412.996 -5.24286 -0.14998 0
M  V30 4376 H 414.47 -5.19735 -1.85956 0
M  V30 4377 H 414.947 -3.6209 -2.4857 0
M  V30 4378 H 415.553 -4.15635 -0.901543 0
M  V30 4379 N 413.868 0.0150385 -1.57593 0
M  V30 4380 C 414.798 1.01047 -2.10503 0
M  V30 4381 C 415.779 1.36816 -1.01071 0
M  V30 4382 O 416.964 1.45455 -1.28672 0
M  V30 4383 C 414.094 2.30708 -2.59598 0
M  V30 4384 C 413.048 2.09142 -3.73421 0
M  V30 4385 C 412.374 3.44685 -4.08774 0
M  V30 4386 C 413.674 1.46619 -5.01298 0
M  V30 4387 H 415.368 0.569978 -2.93925 0
M  V30 4388 H 412.914 0.272724 -1.41394 0
M  V30 4389 H 414.867 3.00687 -2.95238 0
M  V30 4390 H 413.591 2.76843 -1.73279 0
M  V30 4391 H 412.25 1.41592 -3.38153 0
M  V30 4392 H 411.898 3.88495 -3.195 0
M  V30 4393 H 411.598 3.31077 -4.8545 0
M  V30 4394 H 413.122 4.16004 -4.4696 0
M  V30 4395 H 414.536 2.06535 -5.34805 0
M  V30 4396 H 412.933 1.43544 -5.82679 0
M  V30 4397 H 414.003 0.433611 -4.82957 0
M  V30 4398 N 415.346 1.54954 0.287554 0
M  V30 4399 C 416.276 1.89839 1.35954 0
M  V30 4400 C 417.257 0.758675 1.52244 0
M  V30 4401 O 418.442 1.01557 1.65529 0
M  V30 4402 C 415.572 2.15753 2.72154 0
M  V30 4403 C 414.526 3.3159 2.70614 0
M  V30 4404 C 413.852 3.42952 4.10229 0
M  V30 4405 C 415.152 4.68359 2.31165 0
M  V30 4406 H 416.846 2.79625 1.07007 0
M  V30 4407 H 414.392 1.3454 0.513316 0
M  V30 4408 H 416.345 2.38743 3.47246 0
M  V30 4409 H 415.069 1.22752 3.02654 0
M  V30 4410 H 413.728 3.08545 1.97979 0
M  V30 4411 H 413.376 2.47443 4.37928 0
M  V30 4412 H 413.076 4.20826 4.10097 0
M  V30 4413 H 414.6 3.68218 4.87081 0
M  V30 4414 H 416.014 4.9099 2.95976 0
M  V30 4415 H 414.411 5.49044 2.42221 0
M  V30 4416 H 415.481 4.68165 1.26291 0
M  V30 4417 N 416.824 -0.551391 1.4764 0
M  V30 4418 C 417.771 -1.65796 1.60563 0
M  V30 4419 C 418.741 -1.59932 0.448428 0
M  V30 4420 O 419.926 -1.78679 0.669222 0
M  V30 4421 C 417.066 -3.04108 1.63133 0
M  V30 4422 C 416.179 -3.20365 2.89811 0
M  V30 4423 C 415.314 -4.49109 2.8368 0
M  V30 4424 C 414.353 -4.58819 4.05156 0
M  V30 4425 N 413.49 -5.78926 3.97227 0
M  V30 4426 H 418.33 -1.54088 2.5507 0
M  V30 4427 H 415.867 -0.75052 1.26513 0
M  V30 4428 H 417.825 -3.84207 1.62606 0
M  V30 4429 H 416.455 -3.14637 0.721341 0
M  V30 4430 H 415.507 -2.33659 3.00179 0
M  V30 4431 H 416.819 -3.23402 3.79753 0
M  V30 4432 H 415.973 -5.37475 2.81434 0
M  V30 4433 H 414.712 -4.4856 1.91431 0
M  V30 4434 H 413.717 -3.68864 4.077 0
M  V30 4435 H 414.942 -4.61124 4.98539 0
M  V30 4436 H 412.888 -5.79314 3.07785 0
M  V30 4437 H 412.805 -5.83367 4.80853 0
M  V30 4438 H 414.073 -6.69637 3.99007 0
M  V30 4439 N 418.302 -1.35869 -0.798587 0
M  V30 4440 C 419.532 -1.32529 -1.58491 0
M  V30 4441 C 419.94 0.0975405 -1.88948 0
M  V30 4442 O 419.283 1.06224 -1.49874 0
M  V30 4443 C 419.345 -2.07247 -2.9375 0
M  V30 4444 C 419.009 -3.56391 -2.86068 0
M  V30 4445 C 420.006 -4.50824 -2.58947 0
M  V30 4446 C 417.691 -3.9915 -3.04933 0
M  V30 4447 C 419.685 -5.85993 -2.5078 0
M  V30 4448 C 417.372 -5.34413 -2.96389 0
M  V30 4449 C 418.37 -6.27646 -2.69349 0
M  V30 4450 O 418.058 -7.60426 -2.60782 0
M  V30 4451 H 417.79 -0.456529 -0.498556 0
M  V30 4452 H 420.344 -1.79425 -0.999799 0
M  V30 4453 H 418.574 -1.55001 -3.54276 0
M  V30 4454 H 420.263 -1.96883 -3.54954 0
M  V30 4455 H 421.029 -4.19104 -2.44084 0
M  V30 4456 H 416.908 -3.26961 -3.24989 0
M  V30 4457 H 420.452 -6.58735 -2.29595 0
M  V30 4458 H 416.349 -5.65743 -3.10813 0
M  V30 4459 H 417.117 -7.70444 -2.76331 0
M  V30 4460 N 419.78 1.02168 -1.19998 0
M  V30 4461 C 421.028 1.75338 -1.00504 0
M  V30 4462 C 421.349 1.89387 0.464506 0
M  V30 4463 O 420.619 1.43268 1.33608 0
M  V30 4464 H 419.199 0.649564 -0.368885 0
M  V30 4465 H 421.861 1.23205 -1.51018 0
M  V30 4466 H 420.957 2.75892 -1.45912 0
M  V30 4467 N 421.258 1.00505 1.21394 0
M  V30 4468 C 422.504 0.688793 1.90745 0
M  V30 4469 C 422.837 -0.778486 1.77914 0
M  V30 4470 O 422.112 -1.56433 1.15581 0
M  V30 4471 C 422.395 1.11063 3.42545 0
M  V30 4472 C 422.248 2.63737 3.64367 0
M  V30 4473 C 423.567 0.673059 4.34923 0
M  V30 4474 H 420.686 0.251702 0.692687 0
M  V30 4475 H 423.328 1.25074 1.43026 0
M  V30 4476 H 421.478 0.632508 3.83317 0
M  V30 4477 H 423.15 3.19313 3.32922 0
M  V30 4478 H 421.393 3.05248 3.08231 0
M  V30 4479 H 422.064 2.88305 4.70727 0
M  V30 4480 H 424.54 1.08392 4.01734 0
M  V30 4481 H 423.416 0.996383 5.39781 0
M  V30 4482 H 423.677 -0.425808 4.40045 0
M  V30 4483 N 422.737 -1.36956 0.779787 0
M  V30 4484 C 423.687 -2.27539 0.144892 0
M  V30 4485 C 424.671 -1.46493 -0.665488 0
M  V30 4486 O 425.863 -1.68968 -0.527141 0
M  V30 4487 C 422.992 -3.35512 -0.727082 0
M  V30 4488 C 422.078 -4.24001 0.0915642 0
M  V30 4489 N 422.469 -4.92757 1.14125 0
M  V30 4490 C 420.767 -4.45807 -0.131141 0
M  V30 4491 C 421.468 -5.58138 1.6388 0
M  V30 4492 N 420.444 -5.35241 0.94962 0
M  V30 4493 H 424.246 -2.78176 0.948446 0
M  V30 4494 H 421.76 -1.50169 0.618315 0
M  V30 4495 H 423.757 -3.99324 -1.19776 0
M  V30 4496 H 422.417 -2.86431 -1.52929 0
M  V30 4497 H 423.428 -4.94984 1.52353 0
M  V30 4498 H 420.105 -4.07582 -0.904621 0
M  V30 4499 H 421.495 -6.23071 2.51461 0
M  V30 4500 N 424.215 -0.530993 -1.48385 0
M  V30 4501 C 425.125 0.23503 -2.3342 0
M  V30 4502 C 426.141 0.93801 -1.46552 0
M  V30 4503 O 427.317 0.912745 -1.7953 0
M  V30 4504 C 424.382 1.26778 -3.22689 0
M  V30 4505 C 423.443 0.575038 -4.25431 0
M  V30 4506 C 422.676 1.55858 -5.10435 0
M  V30 4507 O 422.899 2.79129 -4.97437 0
M  V30 4508 O 421.833 1.09742 -5.91811 0
M  V30 4509 H 425.659 -0.461794 -3.00169 0
M  V30 4510 H 423.244 -0.291903 -1.46521 0
M  V30 4511 H 425.126 1.86457 -3.77904 0
M  V30 4512 H 423.801 1.94699 -2.586 0
M  V30 4513 H 422.708 -0.0622782 -3.74048 0
M  V30 4514 H 424.041 -0.062253 -4.92161 0
M  V30 4515 N 425.693 1.55336 -0.266172 0
M  V30 4516 C 426.656 2.20878 0.612001 0
M  V30 4517 C 427.656 1.18388 1.08816 0
M  V30 4518 O 428.846 1.4335 0.989774 0
M  V30 4519 C 425.978 2.86765 1.84332 0
M  V30 4520 H 427.171 2.99873 0.0398718 0
M  V30 4521 H 424.724 1.56291 -0.0167309 0
M  V30 4522 H 425.459 2.11759 2.45619 0
M  V30 4523 H 425.244 3.61862 1.5099 0
M  V30 4524 H 426.734 3.36867 2.46801 0
M  V30 4525 N 427.171 -0.0066808 1.57599 0
M  V30 4526 C 428.42 -0.692078 1.89455 0
M  V30 4527 C 428.733 -1.75306 0.867586 0
M  V30 4528 O 429.939 -2.49262 1.07614 0
M  V30 4529 C 428.395 -1.2821 3.36289 0
M  V30 4530 C 428.003 -0.256291 4.47266 0
M  V30 4531 C 429.747 -1.94608 3.77264 0
M  V30 4532 C 427.654 -0.855927 5.85173 0
M  V30 4533 H 426.584 -0.262252 0.706923 0
M  V30 4534 H 429.235 0.052769 1.83424 0
M  V30 4535 H 427.617 -2.0774 3.37135 0
M  V30 4536 H 428.791 0.513923 4.57925 0
M  V30 4537 H 427.106 0.306862 4.15268 0
M  V30 4538 H 429.703 -2.40364 4.77629 0
M  V30 4539 H 430.046 -2.77382 3.10427 0
M  V30 4540 H 430.579 -1.21822 3.78688 0
M  V30 4541 H 427.318 -0.0671161 6.55466 0
M  V30 4542 H 426.838 -1.59546 5.78191 0
M  V30 4543 H 428.517 -1.35658 6.32618 0
M  V30 4544 N 428.649 -1.55105 -0.279332 0
M  V30 4545 C 429.896 -1.75412 -1.01177 0
M  V30 4546 C 430.224 -0.551728 -1.86511 0
M  V30 4547 O 429.479 0.465919 -1.90073 0
M  V30 4548 C 429.778 -3.0086 -1.92919 0
M  V30 4549 C 429.444 -4.33689 -1.23387 0
M  V30 4550 C 428.106 -4.69792 -1.04159 0
M  V30 4551 C 430.458 -5.15941 -0.738562 0
M  V30 4552 C 427.786 -5.85707 -0.341166 0
M  V30 4553 C 430.138 -6.32579 -0.0517636 0
M  V30 4554 C 428.802 -6.67326 0.152292 0
M  V30 4555 H 428.072 -0.641879 -0.370233 0
M  V30 4556 H 430.719 -1.89373 -0.284627 0
M  V30 4557 H 429.024 -2.81773 -2.72234 0
M  V30 4558 H 430.721 -3.13768 -2.49701 0
M  V30 4559 H 427.311 -4.05309 -1.39364 0
M  V30 4560 H 431.495 -4.8853 -0.874764 0
M  V30 4561 H 426.751 -6.11157 -0.172287 0
M  V30 4562 H 430.925 -6.9557 0.339828 0
M  V30 4563 H 428.552 -7.56998 0.697014 0
M  V30 4564 N 430.127 0.543554 -1.4793 0
M  V30 4565 C 431.09 1.63156 -1.60975 0
M  V30 4566 C 432.09 1.53346 -0.483899 0
M  V30 4567 O 433.28 1.5726 -0.749339 0
M  V30 4568 C 430.412 3.02743 -1.56716 0
M  V30 4569 H 431.605 1.52934 -2.57975 0
M  V30 4570 H 429.158 0.764557 -1.36324 0
M  V30 4571 H 429.893 3.18484 -0.611418 0
M  V30 4572 H 429.678 3.11272 -2.38438 0
M  V30 4573 H 431.168 3.81871 -1.6901 0
M  V30 4574 N 431.605 1.3629 0.791371 0
M  V30 4575 C 432.538 1.24816 1.9104 0
M  V30 4576 C 433.516 0.132739 1.62057 0
M  V30 4577 O 434.7 0.303527 1.8604 0
M  V30 4578 C 431.827 0.925355 3.25814 0
M  V30 4579 C 430.873 2.05495 3.7373 0
M  V30 4580 S 431.706 3.67255 3.89723 0
M  V30 4581 C 432.862 3.37084 5.27376 0
M  V30 4582 H 433.095 2.19533 2.00481 0
M  V30 4583 H 430.628 1.21684 0.950393 0
M  V30 4584 H 432.586 0.745924 4.03666 0
M  V30 4585 H 431.247 -0.00400098 3.141 0
M  V30 4586 H 430.44 1.7836 4.71385 0
M  V30 4587 H 430.042 2.1935 3.02922 0
M  V30 4588 H 432.334 2.90856 6.1189 0
M  V30 4589 H 433.277 4.33995 5.59512 0
M  V30 4590 H 433.685 2.7248 4.94383 0
M  V30 4591 N 433.083 -1.0153 1.20538 0
M  V30 4592 C 434.013 -2.11972 0.979295 0
M  V30 4593 C 434.994 -1.6985 -0.0921787 0
M  V30 4594 O 436.179 -1.94089 0.0655932 0
M  V30 4595 C 433.309 -3.43201 0.531984 0
M  V30 4596 C 432.263 -3.9907 1.54685 0
M  V30 4597 C 431.589 -5.26082 0.956127 0
M  V30 4598 C 432.889 -4.32313 2.93092 0
M  V30 4599 H 434.583 -2.31143 1.90298 0
M  V30 4600 H 432.129 -1.11079 0.916372 0
M  V30 4601 H 434.082 -4.1985 0.361044 0
M  V30 4602 H 432.806 -3.23792 -0.427327 0
M  V30 4603 H 431.465 -3.2453 1.70517 0
M  V30 4604 H 431.113 -5.02999 -0.0111538 0
M  V30 4605 H 430.813 -5.64426 1.63393 0
M  V30 4606 H 432.337 -6.05386 0.796284 0
M  V30 4607 H 433.751 -4.99845 2.80763 0
M  V30 4608 H 432.148 -4.81774 3.57791 0
M  V30 4609 H 433.218 -3.41025 3.44717 0
M  V30 4610 N 434.561 -1.01147 -1.20859 0
M  V30 4611 C 435.524 -0.582224 -2.21682 0
M  V30 4612 C 436.524 0.344887 -1.57058 0
M  V30 4613 O 437.714 0.134281 -1.73682 0
M  V30 4614 C 434.846 0.150496 -3.40568 0
M  V30 4615 H 436.039 -1.47408 -2.61172 0
M  V30 4616 H 433.592 -0.800695 -1.34233 0
M  V30 4617 H 434.327 1.0575 -3.06574 0
M  V30 4618 H 434.112 -0.515444 -3.88697 0
M  V30 4619 H 435.602 0.438344 -4.15293 0
M  V30 4620 N 436.039 1.36541 -0.78704 0
M  V30 4621 C 437.264 2.0409 -0.369053 0
M  V30 4622 C 437.689 1.58957 1.00569 0
M  V30 4623 O 437.047 0.756926 1.64743 0
M  V30 4624 C 437.095 3.57924 -0.438466 0
M  V30 4625 O 436.199 4.08642 0.555479 0
M  V30 4626 H 435.54 0.645142 -0.157122 0
M  V30 4627 H 438.07 1.74545 -1.06749 0
M  V30 4628 H 438.08 4.06887 -0.301218 0
M  V30 4629 H 436.755 3.90127 -1.44132 0
M  V30 4630 H 435.332 3.70958 0.380088 0
M  V30 4631 N 437.518 0.538854 1.48102 0
M  V30 4632 C 438.767 0.0059532 2.01699 0
M  V30 4633 C 439.08 -1.34476 1.42041 0
M  V30 4634 O 440.286 -1.96653 1.87189 0
M  V30 4635 C 438.742 -0.0397627 3.59878 0
M  V30 4636 C 438.35 1.30659 4.28523 0
M  V30 4637 C 440.094 -0.521024 4.2129 0
M  V30 4638 C 438.001 1.22098 5.78659 0
M  V30 4639 H 436.931 -0.00154456 0.753998 0
M  V30 4640 H 439.582 0.683963 1.70277 0
M  V30 4641 H 437.964 -0.783037 3.88181 0
M  V30 4642 H 439.138 2.06613 4.11883 0
M  V30 4643 H 437.453 1.7243 3.79021 0
M  V30 4644 H 440.05 -0.603184 5.31287 0
M  V30 4645 H 440.393 -1.52885 3.8721 0
M  V30 4646 H 440.926 0.166834 3.9745 0
M  V30 4647 H 437.665 2.20424 6.17328 0
M  V30 4648 H 437.185 0.50295 5.97688 0
M  V30 4649 H 438.864 0.915345 6.40492 0
M  V30 4650 N 438.996 -1.55193 0.274407 0
M  V30 4651 C 440.242 -1.99877 -0.343086 0
M  V30 4652 C 440.575 -1.16256 -1.55558 0
M  V30 4653 O 439.85 -0.232462 -1.93106 0
M  V30 4654 C 440.133 -3.52706 -0.725965 0
M  V30 4655 C 439.986 -4.47081 0.493818 0
M  V30 4656 C 441.305 -4.11422 -1.56268 0
M  V30 4657 H 438.424 -0.726625 -0.123229 0
M  V30 4658 H 441.066 -1.86136 0.38121 0
M  V30 4659 H 439.216 -3.64546 -1.34307 0
M  V30 4660 H 440.888 -4.47186 1.13237 0
M  V30 4661 H 439.131 -4.1877 1.13201 0
M  V30 4662 H 439.802 -5.51699 0.18217 0
M  V30 4663 H 442.278 -4.02855 -1.04151 0
M  V30 4664 H 441.154 -5.18568 -1.79939 0
M  V30 4665 H 441.415 -3.61607 -2.54348 0
M  V30 4666 N 440.474 -0.00167713 -1.576 0
M  V30 4667 C 441.422 1.0074 -2.09652 0
M  V30 4668 C 442.416 1.35483 -1.01689 0
M  V30 4669 O 443.622 1.34028 -1.20152 0
M  V30 4670 H 439.997 0.342537 -0.669457 0
M  V30 4671 H 441.968 0.542841 -2.93421 0
M  V30 4672 C 440.717 2.2899 -2.61647 0
M  V30 4673 H 440.04 2.03124 -3.44355 0
M  V30 4674 H 441.48 2.9787 -3.01744 0
M  V30 4675 C 439.939 3.00085 -1.53136 0
M  V30 4676 O 440.469 3.91135 -0.91524 0
M  V30 4677 N 438.675 2.6194 -1.25841 0
M  V30 4678 H 438.222 1.8798 -1.76129 0
M  V30 4679 H 438.18 3.09822 -0.534576 0
M  V30 4680 N 441.952 1.55251 0.271103 0
M  V30 4681 C 442.899 1.88261 1.33516 0
M  V30 4682 C 443.869 0.734296 1.48988 0
M  V30 4683 O 445.054 0.985741 1.63364 0
M  V30 4684 C 442.194 2.16168 2.69008 0
M  V30 4685 C 441.307 3.43678 2.61743 0
M  V30 4686 C 440.442 3.61276 3.89427 0
M  V30 4687 C 439.481 4.82472 3.7668 0
M  V30 4688 N 438.618 4.96717 4.96202 0
M  V30 4689 H 443.458 2.79015 1.04665 0
M  V30 4690 H 440.995 1.38137 0.505618 0
M  V30 4691 H 442.953 2.30349 3.47844 0
M  V30 4692 H 441.583 1.28646 2.96057 0
M  V30 4693 H 440.635 3.37959 1.74607 0
M  V30 4694 H 441.947 4.3265 2.48224 0
M  V30 4695 H 441.101 3.75284 4.76704 0
M  V30 4696 H 439.84 2.70492 4.05814 0
M  V30 4697 H 438.845 4.68465 2.87786 0
M  V30 4698 H 440.07 5.74692 3.61809 0
M  V30 4699 H 438.016 4.08865 5.12997 0
M  V30 4700 H 437.933 5.79738 4.85222 0
M  V30 4701 H 439.201 5.15113 5.85046 0
M  V30 4702 N 443.43 -0.535701 1.48216 0
M  V30 4703 C 444.707 -1.29683 1.46429 0
M  V30 4704 C 445.087 -2.10391 0.172852 0
M  V30 4705 O 444.435 -2.12282 -0.845488 0
M  V30 4706 C 444.645 -2.18313 2.72287 0
M  V30 4707 C 445.993 -2.78639 3.20383 0
M  V30 4708 O 447.017 -2.28604 2.73164 0
M  V30 4709 O 445.876 -3.69636 4.02531 0
M  V30 4710 H 442.97 -0.585026 0.584529 0
M  V30 4711 H 445.516 -0.552827 1.60443 0
M  V30 4712 H 444.288 -1.58421 3.57797 0
M  V30 4713 H 443.911 -2.99971 2.60966 0
M  V30 4714 N 444.908 -1.36708 -0.784132 0
M  V30 4715 C 446.156 -1.30972 -1.53918 0
M  V30 4716 C 446.477 0.109086 -1.94695 0
M  V30 4717 O 445.747 1.05048 -1.65353 0
M  V30 4718 H 444.327 -0.481819 -0.570841 0
M  V30 4719 H 446.989 -1.71063 -0.934002 0
M  V30 4720 H 446.085 -1.94061 -2.44431 0
M  V30 4721 N 446.386 1.0089 -1.21074 0
M  V30 4722 C 447.316 2.1145 -0.990523 0
M  V30 4723 C 448.297 1.69897 0.0831699 0
M  V30 4724 O 449.482 1.94052 -0.0758853 0
M  V30 4725 C 446.612 3.42914 -0.550177 0
M  V30 4726 C 445.566 3.98244 -1.56799 0
M  V30 4727 C 444.892 5.25568 -0.984013 0
M  V30 4728 C 446.192 4.30752 -2.95381 0
M  V30 4729 H 447.886 2.3013 -1.91521 0
M  V30 4730 H 445.432 1.10592 -0.92225 0
M  V30 4731 H 447.385 4.19653 -0.383305 0
M  V30 4732 H 446.109 3.24014 0.41015 0
M  V30 4733 H 444.768 3.23621 -1.72236 0
M  V30 4734 H 444.416 5.02998 -0.0155216 0
M  V30 4735 H 444.116 5.63551 -1.66384 0
M  V30 4736 H 445.64 6.04955 -0.828378 0
M  V30 4737 H 447.054 4.98349 -2.8341 0
M  V30 4738 H 445.451 4.79869 -3.60341 0
M  V30 4739 H 446.521 3.39192 -3.46521 0
M  V30 4740 N 447.864 1.01787 1.20321 0
M  V30 4741 C 448.794 0.609625 2.25401 0
M  V30 4742 C 449.775 -0.375951 1.65893 0
M  V30 4743 O 450.96 -0.261101 1.92437 0
M  V30 4744 C 448.09 -0.0515995 3.47262 0
M  V30 4745 C 447.044 0.855095 4.19371 0
M  V30 4746 C 446.37 0.0595757 5.34667 0
M  V30 4747 C 447.67 2.16374 4.75373 0
M  V30 4748 H 449.364 1.48803 2.59804 0
M  V30 4749 H 446.91 0.716934 1.24884 0
M  V30 4750 H 448.863 -0.348764 4.19954 0
M  V30 4751 H 447.587 -0.964726 3.12027 0
M  V30 4752 H 446.246 1.13628 3.48546 0
M  V30 4753 H 445.894 -0.85524 4.95676 0
M  V30 4754 H 445.594 0.663406 5.83843 0
M  V30 4755 H 447.118 -0.231105 6.10162 0
M  V30 4756 H 448.532 1.92885 5.39878 0
M  V30 4757 H 446.929 2.71853 5.34991 0
M  V30 4758 H 447.999 2.82589 3.94045 0
M  V30 4759 N 449.342 -1.36122 0.79427 0
M  V30 4760 C 450.588 -1.99406 0.369452 0
M  V30 4761 C 450.921 -1.62886 -1.05743 0
M  V30 4762 O 450.196 -0.886053 -1.73145 0
M  V30 4763 C 450.479 -3.56046 0.538833 0
M  V30 4764 C 450.332 -4.02404 2.00976 0
M  V30 4765 C 451.651 -4.40079 -0.0431359 0
M  V30 4766 H 448.77 -0.724397 0.135712 0
M  V30 4767 H 451.412 -1.61461 1.00151 0
M  V30 4768 H 449.562 -3.885 0.000771004 0
M  V30 4769 H 451.234 -3.80415 2.60926 0
M  V30 4770 H 449.477 -3.53765 2.51063 0
M  V30 4771 H 450.148 -5.11344 2.07922 0
M  V30 4772 H 452.624 -4.14013 0.416228 0
M  V30 4773 H 451.5 -5.48799 0.105374 0
M  V30 4774 H 451.761 -4.27264 -1.13571 0
M  V30 4775 N 450.82 -0.546701 -1.47814 0
M  V30 4776 C 451.783 0.196287 -2.28358 0
M  V30 4777 C 452.783 0.852437 -1.36346 0
M  V30 4778 O 453.973 0.709913 -1.59078 0
M  V30 4779 C 451.105 1.28579 -3.15722 0
M  V30 4780 H 452.298 -0.511086 -2.95513 0
M  V30 4781 H 449.851 -0.303248 -1.5333 0
M  V30 4782 H 450.586 2.0259 -2.53235 0
M  V30 4783 H 450.371 0.820229 -3.83425 0
M  V30 4784 H 451.861 1.80793 -3.76435 0
M  V30 4785 N 452.299 1.55045 -0.282633 0
M  V30 4786 C 453.247 2.24254 0.617478 0
M  V30 4787 C 454.241 1.24215 1.15183 0
M  V30 4788 O 455.447 1.42123 1.10459 0
M  V30 4789 H 451.822 0.719801 0.217693 0
M  V30 4790 H 453.793 2.98398 0.0110076 0
M  V30 4791 C 452.542 2.98281 1.78672 0
M  V30 4792 H 451.865 3.75053 1.38475 0
M  V30 4793 H 453.305 3.50017 2.393 0
M  V30 4794 C 451.764 2.04184 2.67975 0
M  V30 4795 O 452.294 1.59792 3.6855 0
M  V30 4796 N 450.5 1.70526 2.35307 0
M  V30 4797 H 450.047 2.06821 1.53567 0
M  V30 4798 H 450.005 1.07839 2.95327 0
M  V30 4799 N 453.777 0.010035 1.57597 0
M  V30 4800 C 455.025 -0.671371 1.90623 0
M  V30 4801 C 455.346 -1.73753 0.885151 0
M  V30 4802 O 454.616 -1.95752 -0.0760611 0
M  V30 4803 H 453.196 -0.250968 0.703579 0
M  V30 4804 H 455.858 0.0533325 1.94827 0
M  V30 4805 H 454.954 -1.13626 2.90681 0
M  V30 4806 N 455.255 -1.55392 -0.262866 0
M  V30 4807 C 456.48 -1.80847 -1.01533 0
M  V30 4808 C 456.905 -0.584946 -1.78774 0
M  V30 4809 O 456.263 0.465701 -1.75217 0
M  V30 4810 C 456.311 -3.03866 -1.94159 0
M  V30 4811 O 455.415 -2.79662 -3.03089 0
M  V30 4812 H 454.756 -0.597441 -0.289759 0
M  V30 4813 H 457.286 -2.02553 -0.288698 0
M  V30 4814 H 457.296 -3.32872 -2.35924 0
M  V30 4815 H 455.971 -3.92564 -1.37354 0
M  V30 4816 H 454.548 -2.61781 -2.65566 0
M  V30 4817 N 456.733 0.527833 -1.48498 0
M  V30 4818 C 457.981 1.28101 -1.56316 0
M  V30 4819 C 458.302 1.9352 -0.239781 0
M  V30 4820 O 457.572 1.81433 0.738849 0
M  V30 4821 H 456.152 0.475793 -0.575873 0
M  V30 4822 H 458.814 0.614052 -1.84974 0
M  V30 4823 H 457.91 2.05916 -2.34532 0
M  V30 4824 N 458.211 1.37122 0.776871 0
M  V30 4825 C 459.458 1.32047 1.53524 0
M  V30 4826 C 459.786 -0.0965631 1.9426 0
M  V30 4827 O 459.041 -1.06866 1.63945 0
M  V30 4828 C 459.34 2.20068 2.81611 0
M  V30 4829 C 459.006 3.68423 2.59953 0
M  V30 4830 C 457.668 4.08854 2.53755 0
M  V30 4831 C 460.02 4.62431 2.40431 0
M  V30 4832 C 457.348 5.41417 2.26018 0
M  V30 4833 C 459.7 5.95225 2.14219 0
M  V30 4834 C 458.364 6.34767 2.06462 0
M  V30 4835 H 457.634 0.483196 0.561785 0
M  V30 4836 H 460.281 1.69284 0.895268 0
M  V30 4837 H 458.586 1.75809 3.50141 0
M  V30 4838 H 460.283 2.13458 3.39465 0
M  V30 4839 H 456.873 3.36354 2.65638 0
M  V30 4840 H 461.057 4.32057 2.44213 0
M  V30 4841 H 456.313 5.71022 2.18504 0
M  V30 4842 H 460.487 6.67626 1.98112 0
M  V30 4843 H 458.114 7.37413 1.84733 0
M  V30 4844 N 459.689 -1.00246 1.21608 0
M  V30 4845 C 460.935 -1.74319 1.03638 0
M  V30 4846 C 461.268 -1.89408 -0.428749 0
M  V30 4847 O 460.543 -1.43026 -1.3181 0
M  V30 4848 C 460.826 -3.15431 1.73711 0
M  V30 4849 C 460.679 -3.08049 3.27759 0
M  V30 4850 C 461.998 -4.14407 1.48173 0
M  V30 4851 H 459.117 -0.632741 0.377899 0
M  V30 4852 H 461.759 -1.16853 1.49818 0
M  V30 4853 H 459.909 -3.64493 1.34452 0
M  V30 4854 H 461.581 -2.66681 3.76403 0
M  V30 4855 H 459.824 -2.45088 3.57931 0
M  V30 4856 H 460.495 -4.07862 3.71958 0
M  V30 4857 H 462.971 -3.74061 1.82258 0
M  V30 4858 H 461.847 -5.11279 1.99713 0
M  V30 4859 H 462.108 -4.40174 0.412273 0
M  V30 4860 N 461.167 -1.02423 -1.1978 0
M  V30 4861 C 462.395 -0.737456 -1.93311 0
M  V30 4862 C 462.81 0.703023 -1.75223 0
M  V30 4863 O 462.167 1.47761 -1.07112 0
M  V30 4864 C 462.218 -1.0733 -3.45199 0
M  V30 4865 O 461.939 -2.4572 -3.62702 0
M  V30 4866 C 463.44 -0.80866 -4.35862 0
M  V30 4867 H 460.66 -0.2702 -0.614193 0
M  V30 4868 H 463.204 -1.36747 -1.52054 0
M  V30 4869 H 461.359 -0.488545 -3.84307 0
M  V30 4870 H 461.773 -2.58081 -4.56612 0
M  V30 4871 H 463.247 -1.09365 -5.41057 0
M  V30 4872 H 463.724 0.257025 -4.38447 0
M  V30 4873 H 464.33 -1.37592 -4.02428 0
M  V30 4874 N 462.645 1.35699 -0.801477 0
M  V30 4875 C 464.061 1.52065 -0.484596 0
M  V30 4876 C 464.261 1.75215 0.995084 0
M  V30 4877 O 463.317 1.79061 1.78026 0
M  V30 4878 C 464.63 2.69908 -1.32552 0
M  V30 4879 C 466.178 2.83784 -1.32044 0
M  V30 4880 C 466.653 4.04646 -2.14536 0
M  V30 4881 N 468.144 4.11814 -2.12046 0
M  V30 4882 C 468.879 5.04437 -2.72636 0
M  V30 4883 N 468.375 6.02426 -3.42133 0
M  V30 4884 N 470.168 4.97144 -2.62305 0
M  V30 4885 H 462.319 1.18928 -1.75983 0
M  V30 4886 H 464.582 0.581455 -0.748741 0
M  V30 4887 H 464.288 2.59363 -2.37537 0
M  V30 4888 H 464.162 3.64376 -0.975181 0
M  V30 4889 H 466.549 2.93783 -0.27846 0
M  V30 4890 H 466.63 1.90188 -1.71062 0
M  V30 4891 H 466.274 3.95407 -3.18772 0
M  V30 4892 H 466.204 4.97413 -1.72882 0
M  V30 4893 H 468.695 3.41664 -1.61476 0
M  V30 4894 H 469.008 6.69688 -3.85666 0
M  V30 4895 H 467.353 6.02615 -3.46237 0
M  V30 4896 H 470.544 4.19546 -2.07603 0
M  V30 4897 H 470.717 5.69138 -3.09815 0
M  V30 4898 N 464.123 0.554532 1.47522 0
M  V30 4899 C 465.033 -0.197865 2.33764 0
M  V30 4900 C 466.049 -0.914576 1.48025 0
M  V30 4901 O 467.225 -0.884067 1.80959 0
M  V30 4902 C 464.29 -1.21628 3.24665 0
M  V30 4903 C 463.351 -0.507283 4.26292 0
M  V30 4904 C 462.584 -1.47718 5.1285 0
M  V30 4905 O 462.807 -2.7118 5.01814 0
M  V30 4906 O 461.741 -1.00313 5.93482 0
M  V30 4907 H 465.567 0.50949 2.99396 0
M  V30 4908 H 463.152 0.315176 1.46038 0
M  V30 4909 H 465.034 -1.80421 3.80823 0
M  V30 4910 H 463.709 -1.9056 2.61665 0
M  V30 4911 H 462.616 0.121778 3.73902 0
M  V30 4912 H 463.949 0.140544 4.91999 0
M  V30 4913 N 465.601 -1.54893 0.290851 0
M  V30 4914 C 466.848 -1.99933 -0.321391 0
M  V30 4915 C 467.176 -1.17927 -1.54672 0
M  V30 4916 O 466.431 -0.240902 -1.94212 0
M  V30 4917 C 466.73 -3.49815 -0.732397 0
M  V30 4918 C 466.396 -4.4921 0.390056 0
M  V30 4919 C 465.058 -4.76107 0.698223 0
M  V30 4920 C 467.41 -5.08453 1.14562 0
M  V30 4921 C 464.738 -5.59514 1.76526 0
M  V30 4922 C 467.09 -5.9302 2.2025 0
M  V30 4923 C 465.754 -6.18232 2.51684 0
M  V30 4924 H 465.024 -0.731608 -0.117605 0
M  V30 4925 H 467.671 -1.87107 0.407839 0
M  V30 4926 H 465.976 -3.60199 -1.54155 0
M  V30 4927 H 467.673 -3.82083 -1.21712 0
M  V30 4928 H 464.263 -4.28372 0.13976 0
M  V30 4929 H 468.447 -4.87683 0.920801 0
M  V30 4930 H 463.703 -5.77289 2.01364 0
M  V30 4931 H 467.877 -6.37955 2.7926 0
M  V30 4932 H 465.504 -6.82653 3.34499 0
M  V30 4933 N 467.08 -0.0183926 -1.57589 0
M  V30 4934 C 468.01 0.965596 -2.12599 0
M  V30 4935 C 468.991 1.34641 -1.0395 0
M  V30 4936 O 470.176 1.42693 -1.31729 0
M  V30 4937 C 467.306 2.25149 -2.64434 0
M  V30 4938 C 466.26 2.01175 -3.77773 0
M  V30 4939 C 465.586 3.35937 -4.15994 0
M  V30 4940 C 466.886 1.35953 -5.04296 0
M  V30 4941 H 468.58 0.507504 -2.95067 0
M  V30 4942 H 466.126 0.242671 -1.41941 0
M  V30 4943 H 468.079 2.94357 -3.01549 0
M  V30 4944 H 466.803 2.73105 -1.79112 0
M  V30 4945 H 465.462 1.34388 -3.4108 0
M  V30 4946 H 465.11 3.81631 -3.27669 0
M  V30 4947 H 464.81 3.20705 -4.92364 0
M  V30 4948 H 466.334 4.0643 -4.55683 0
M  V30 4949 H 467.748 1.95144 -5.39065 0
M  V30 4950 H 466.145 1.31152 -5.85593 0
M  V30 4951 H 467.215 0.331071 -4.83768 0
M  V30 4952 N 468.558 1.5553 0.254621 0
M  V30 4953 C 469.974 1.4778 0.602753 0
M  V30 4954 C 470.174 0.707047 1.88688 0
M  V30 4955 O 469.23 0.233288 2.5142 0
M  V30 4956 C 470.543 2.92133 0.712648 0
M  V30 4957 C 472.091 3.02458 0.805488 0
M  V30 4958 C 472.566 4.48102 0.947009 0
M  V30 4959 N 474.057 4.52008 1.01207 0
M  V30 4960 C 474.792 5.61939 1.1407 0
M  V30 4961 N 474.288 6.81697 1.23536 0
M  V30 4962 N 476.081 5.49719 1.17325 0
M  V30 4963 H 468.232 2.04085 -0.588463 0
M  V30 4964 H 470.495 0.926229 -0.202001 0
M  V30 4965 H 470.201 3.51332 -0.160766 0
M  V30 4966 H 470.075 3.42187 1.58707 0
M  V30 4967 H 472.462 2.43344 1.66936 0
M  V30 4968 H 472.543 2.55627 -0.0939266 0
M  V30 4969 H 472.187 5.07824 0.087725 0
M  V30 4970 H 472.117 4.92607 1.86135 0
M  V30 4971 H 474.608 3.65749 0.950577 0
M  V30 4972 H 474.921 7.61228 1.33236 0
M  V30 4973 H 473.266 6.84473 1.20508 0
M  V30 4974 H 476.457 4.55095 1.09573 0
M  V30 4975 H 476.63 6.35432 1.27005 0
M  V30 4976 N 470.036 -0.519951 1.48776 0
M  V30 4977 C 471.261 -1.30447 1.6124 0
M  V30 4978 C 471.686 -1.86055 0.276591 0
M  V30 4979 O 471.044 -1.64915 -0.753183 0
M  V30 4980 C 471.092 -2.42406 2.66967 0
M  V30 4981 O 470.196 -3.45728 2.24824 0
M  V30 4982 H 469.537 -0.385924 0.540332 0
M  V30 4983 H 472.067 -0.624572 1.94834 0
M  V30 4984 H 472.077 -2.88447 2.88552 0
M  V30 4985 H 470.752 -2.01294 3.63941 0
M  V30 4986 H 469.329 -3.05737 2.13494 0
M  V30 4987 N 471.514 -1.37532 -0.769588 0
M  V30 4988 C 472.444 -1.36172 -1.89682 0
M  V30 4989 C 473.425 -0.23001 -1.68538 0
M  V30 4990 O 474.61 -0.43069 -1.89364 0
M  V30 4991 C 471.74 -1.1701 -3.26995 0
M  V30 4992 C 470.694 -2.27216 -3.62708 0
M  V30 4993 C 470.02 -1.93174 -4.98586 0
M  V30 4994 C 471.32 -3.6941 -3.69234 0
M  V30 4995 H 473.014 -2.30499 -1.91078 0
M  V30 4996 H 470.56 -1.10953 -0.917902 0
M  V30 4997 H 472.513 -1.14688 -4.05493 0
M  V30 4998 H 471.237 -0.191395 -3.26039 0
M  V30 4999 H 469.896 -2.28697 -2.86519 0
M  V30 5000 H 469.544 -0.938281 -4.94171 0
M  V30 5001 H 469.244 -2.66973 -5.23449 0
M  V30 5002 H 470.768 -1.92443 -5.79481 0
M  V30 5003 H 472.182 -3.70047 -4.37879 0
M  V30 5004 H 470.579 -4.4228 -4.05597 0
M  V30 5005 H 471.649 -4.0288 -2.69844 0
M  V30 5006 N 472.992 0.995999 -1.22138 0
M  V30 5007 C 474.408 1.25917 -0.980667 0
M  V30 5008 C 474.608 1.98819 0.327604 0
M  V30 5009 O 473.664 2.29587 1.05101 0
M  V30 5010 C 474.977 2.07399 -2.17729 0
M  V30 5011 C 476.525 2.20594 -2.22052 0
M  V30 5012 C 477 3.05462 -3.41258 0
M  V30 5013 N 478.491 3.13049 -3.41401 0
M  V30 5014 C 479.226 3.78997 -4.30289 0
M  V30 5015 N 478.722 4.46899 -5.2939 0
M  V30 5016 N 480.515 3.75728 -4.18073 0
M  V30 5017 H 472.666 0.507158 -2.06256 0
M  V30 5018 H 474.929 0.28658 -0.903646 0
M  V30 5019 H 474.635 1.61191 -3.12586 0
M  V30 5020 H 474.509 3.08154 -2.17534 0
M  V30 5021 H 476.896 2.66017 -1.27745 0
M  V30 5022 H 476.977 1.1928 -2.26287 0
M  V30 5023 H 476.621 2.60739 -4.35864 0
M  V30 5024 H 476.551 4.06911 -3.34262 0
M  V30 5025 H 479.042 2.64721 -2.69688 0
M  V30 5026 H 479.355 4.94952 -5.935 0
M  V30 5027 H 477.7 4.45657 -5.33306 0
M  V30 5028 H 480.891 3.2184 -3.39907 0
M  V30 5029 H 481.064 4.26845 -4.87553 0
M  V30 5030 N 474.47 1.03057 1.19235 0
M  V30 5031 C 475.417 0.612832 2.22515 0
M  V30 5032 C 476.387 -0.374224 1.61829 0
M  V30 5033 O 477.572 -0.270501 1.88873 0
M  V30 5034 C 474.712 -0.028475 3.45088 0
M  V30 5035 C 473.825 1.00483 4.20151 0
M  V30 5036 C 472.96 0.333102 5.30155 0
M  V30 5037 C 471.999 1.3522 5.96977 0
M  V30 5038 N 471.136 0.70616 6.9854 0
M  V30 5039 H 475.976 1.49812 2.57605 0
M  V30 5040 H 473.513 0.749658 1.26564 0
M  V30 5041 H 475.471 -0.417548 4.15105 0
M  V30 5042 H 474.101 -0.877334 3.10649 0
M  V30 5043 H 473.153 1.51194 3.49062 0
M  V30 5044 H 474.465 1.77929 4.65986 0
M  V30 5045 H 473.619 -0.110725 6.06599 0
M  V30 5046 H 472.358 -0.473547 4.85396 0
M  V30 5047 H 471.363 1.80627 5.19282 0
M  V30 5048 H 472.588 2.16037 6.4382 0
M  V30 5049 H 470.534 -0.0803667 6.55951 0
M  V30 5050 H 470.451 1.41848 7.42573 0
M  V30 5051 H 471.719 0.286391 7.78974 0
M  V30 5052 N 475.948 -1.35272 0.808662 0
M  V30 5053 C 477.359 -1.81179 0.450688 0
M  V30 5054 C 477.71 -1.67143 -1.02751 0
M  V30 5055 O 476.835 -1.20325 -1.79864 0
M  V30 5056 C 477.43 -3.28943 0.811275 0
M  V30 5057 C 475.989 -3.72985 0.505871 0
M  V30 5058 C 475.136 -2.57229 1.03578 0
M  V30 5059 H 478.087 -1.2322 1.00012 0
M  V30 5060 H 478.108 -3.80342 0.109588 0
M  V30 5061 H 477.62 -3.39127 1.88718 0
M  V30 5062 H 475.721 -3.68349 -0.561209 0
M  V30 5063 H 475.834 -4.67677 1.03995 0
M  V30 5064 H 474.198 -2.50548 0.458005 0
M  V30 5065 H 474.981 -2.7019 2.11784 0
M  V30 5066 N 477.426 -0.562348 -1.47226 0
M  V30 5067 C 478.673 -0.0402165 -2.0246 0
M  V30 5068 C 479.001 1.31169 -1.43614 0
M  V30 5069 O 478.256 1.86805 -0.5833 0
M  V30 5070 C 478.555 0.0969817 -3.57268 0
M  V30 5071 C 478.221 -1.1847 -4.35058 0
M  V30 5072 C 476.883 -1.53588 -4.56031 0
M  V30 5073 C 479.235 -2.03378 -4.79882 0
M  V30 5074 C 476.563 -2.73452 -5.19077 0
M  V30 5075 C 478.915 -3.2245 -5.44251 0
M  V30 5076 C 477.579 -3.57876 -5.63455 0
M  V30 5077 H 476.849 -0.0147163 -0.740854 0
M  V30 5078 H 479.496 -0.734895 -1.76838 0
M  V30 5079 H 477.801 0.87466 -3.81912 0
M  V30 5080 H 479.498 0.516408 -3.97661 0
M  V30 5081 H 476.088 -0.90126 -4.19017 0
M  V30 5082 H 480.272 -1.77553 -4.63453 0
M  V30 5083 H 475.528 -3.01062 -5.32139 0
M  V30 5084 H 479.702 -3.88526 -5.77945 0
M  V30 5085 H 477.329 -4.50849 -6.12078 0
M  V30 5086 N 478.904 1.54736 -0.299062 0
M  V30 5087 C 480.129 2.04975 0.316254 0
M  V30 5088 C 480.554 1.17501 1.46885 0
M  V30 5089 O 479.912 0.178678 1.80417 0
M  V30 5090 C 479.96 3.52672 0.751997 0
M  V30 5091 O 479.064 3.68226 1.85697 0
M  V30 5092 H 478.405 0.661126 0.0617175 0
M  V30 5093 H 480.935 1.99805 -0.440341 0
M  V30 5094 H 480.945 3.94488 1.04133 0
M  V30 5095 H 479.62 4.158 -0.0911482 0
M  V30 5096 H 478.197 3.38316 1.56834 0
M  V30 5097 N 480.382 0.0267497 1.57577 0
M  V30 5098 C 481.659 -0.690926 1.82991 0
M  V30 5099 C 482.039 -1.90471 0.910164 0
M  V30 5100 O 481.387 -2.28474 -0.0347985 0
M  V30 5101 C 481.597 -1.07139 3.32148 0
M  V30 5102 C 482.945 -1.46402 3.98562 0
M  V30 5103 O 483.969 -1.16443 3.36629 0
M  V30 5104 O 482.828 -2.02214 5.07712 0
M  V30 5105 H 479.922 -0.338747 0.75444 0
M  V30 5106 H 482.468 0.0542506 1.69613 0
M  V30 5107 H 481.24 -0.207394 3.9075 0
M  V30 5108 H 480.863 -1.87481 3.50623 0
M  V30 5109 N 481.861 -1.55662 -0.24637 0
M  V30 5110 C 483.11 -1.7672 -0.972254 0
M  V30 5111 C 483.423 -0.59078 -1.86465 0
M  V30 5112 O 484.629 -0.684391 -2.62732 0
M  V30 5113 C 483.085 -3.12869 -1.7788 0
M  V30 5114 C 482.693 -4.38161 -0.933768 0
M  V30 5115 C 484.437 -3.43265 -2.49738 0
M  V30 5116 C 482.344 -5.6534 -1.73623 0
M  V30 5117 H 481.274 -0.658795 -0.366749 0
M  V30 5118 H 483.925 -1.82092 -0.226902 0
M  V30 5119 H 482.307 -3.01606 -2.56612 0
M  V30 5120 H 483.481 -4.60413 -0.188736 0
M  V30 5121 H 481.796 -4.15102 -0.328488 0
M  V30 5122 H 484.393 -4.35501 -3.10231 0
M  V30 5123 H 484.736 -2.64614 -3.2138 0
M  V30 5124 H 485.269 -3.55746 -1.78016 0
M  V30 5125 H 482.008 -6.46814 -1.06354 0
M  V30 5126 H 481.528 -5.47188 -2.45653 0
M  V30 5127 H 483.207 -6.04616 -2.30323 0
M  V30 5128 N 483.339 0.512053 -1.4905 0
M  V30 5129 C 484.588 1.26343 -1.57227 0
M  V30 5130 C 484.901 1.93876 -0.259155 0
M  V30 5131 O 486.107 2.70612 -0.219358 0
M  V30 5132 C 484.563 2.29343 -2.77362 0
M  V30 5133 C 484.171 1.67799 -4.15388 0
M  V30 5134 C 485.915 3.05378 -2.94864 0
M  V30 5135 C 483.822 2.68845 -5.2676 0
M  V30 5136 H 482.752 0.475231 -0.585382 0
M  V30 5137 H 485.403 0.53862 -1.75417 0
M  V30 5138 H 483.785 3.04938 -2.52643 0
M  V30 5139 H 484.959 0.982715 -4.50199 0
M  V30 5140 H 483.274 1.04194 -4.03153 0
M  V30 5141 H 485.871 3.80921 -3.75238 0
M  V30 5142 H 486.214 3.62327 -2.05 0
M  V30 5143 H 486.747 2.36898 -3.19569 0
M  V30 5144 H 483.486 2.16692 -6.18647 0
M  V30 5145 H 483.006 3.36647 -4.96416 0
M  V30 5146 H 484.685 3.31487 -5.5563 0
M  V30 5147 N 484.817 1.37938 0.762283 0
M  V30 5148 C 485.727 1.36681 1.90671 0
M  V30 5149 C 486.743 0.265078 1.71969 0
M  V30 5150 O 487.919 0.502055 1.95042 0
M  V30 5151 C 484.984 1.18211 3.25925 0
M  V30 5152 C 484.045 2.3811 3.57214 0
M  V30 5153 C 483.278 2.20512 4.86014 0
M  V30 5154 O 483.501 1.19429 5.57757 0
M  V30 5155 O 482.435 3.08911 5.16583 0
M  V30 5156 H 486.261 2.33091 1.94685 0
M  V30 5157 H 483.846 1.18767 0.906356 0
M  V30 5158 H 485.728 1.09937 4.06807 0
M  V30 5159 H 484.403 0.248807 3.22742 0
M  V30 5160 H 483.31 2.51958 2.76529 0
M  V30 5161 H 484.643 3.30041 3.65149 0
M  V30 5162 N 486.295 -0.989507 1.22664 0
M  V30 5163 C 487.706 -1.54406 1.04955 0
M  V30 5164 C 488.057 -1.92366 -0.385951 0
M  V30 5165 O 487.182 -1.75111 -1.27142 0
M  V30 5166 C 487.777 -2.80578 1.89899 0
M  V30 5167 C 486.336 -3.32464 1.76478 0
M  V30 5168 C 485.483 -2.05524 1.86159 0
M  V30 5169 H 488.434 -0.810211 1.3646 0
M  V30 5170 H 488.455 -3.53075 1.4184 0
M  V30 5171 H 487.967 -2.52918 2.94371 0
M  V30 5172 H 486.068 -3.65024 0.747528 0
M  V30 5173 H 486.181 -4.02838 2.59342 0
M  V30 5174 H 484.545 -2.19241 1.29636 0
M  V30 5175 H 485.328 -1.80258 2.92168 0
M  V30 5176 N 487.773 -1.03688 -1.18687 0
M  V30 5177 C 488.72 -0.624624 -2.22187 0
M  V30 5178 C 489.69 0.365636 -1.62026 0
M  V30 5179 O 490.875 0.260481 -1.89014 0
M  V30 5180 C 488.015 0.0101738 -3.45099 0
M  V30 5181 C 487.128 -1.02709 -4.19613 0
M  V30 5182 C 486.263 -0.361213 -5.2997 0
M  V30 5183 C 485.302 -1.38384 -5.96252 0
M  V30 5184 N 484.439 -0.743196 -6.98155 0
M  V30 5185 H 489.279 -1.51176 -2.56807 0
M  V30 5186 H 486.816 -0.75636 -1.26165 0
M  V30 5187 H 488.774 0.395528 -4.15321 0
M  V30 5188 H 487.404 0.860848 -3.1111 0
M  V30 5189 H 486.456 -1.53043 -3.48256 0
M  V30 5190 H 487.768 -1.80398 -4.65036 0
M  V30 5191 H 486.922 0.0785537 -6.06649 0
M  V30 5192 H 485.661 0.447799 -4.8564 0
M  V30 5193 H 484.666 -1.83378 -5.18317 0
M  V30 5194 H 485.891 -2.19448 -6.42666 0
M  V30 5195 H 483.837 0.0455789 -6.55984 0
M  V30 5196 H 483.754 -1.45784 -7.41811 0
M  V30 5197 H 485.022 -0.327698 -7.78811 0
M  V30 5198 N 489.251 1.34841 -0.815825 0
M  V30 5199 C 490.498 1.98499 -0.400535 0
M  V30 5200 C 490.826 1.64699 1.03463 0
M  V30 5201 O 490.081 0.907006 1.73412 0
M  V30 5202 C 490.38 3.53273 -0.541541 0
M  V30 5203 C 490.046 4.06966 -1.94138 0
M  V30 5204 C 488.708 4.21341 -2.32433 0
M  V30 5205 C 491.06 4.35933 -2.85677 0
M  V30 5206 C 488.388 4.62007 -3.61617 0
M  V30 5207 C 490.74 4.78042 -4.14317 0
M  V30 5208 C 489.404 4.90622 -4.52599 0
M  V30 5209 H 488.674 0.72636 -0.146566 0
M  V30 5210 H 491.321 1.60902 -1.0384 0
M  V30 5211 H 489.626 3.91387 0.179741 0
M  V30 5212 H 491.323 4.00497 -0.20085 0
M  V30 5213 H 487.913 3.96235 -1.63388 0
M  V30 5214 H 492.097 4.24372 -2.57337 0
M  V30 5215 H 487.353 4.69937 -3.91113 0
M  V30 5216 H 491.527 4.99415 -4.85342 0
M  V30 5217 H 489.154 5.2189 -5.52752 0
M  V30 5218 N 490.729 0.570148 1.46925 0
M  V30 5219 C 491.639 -0.173061 2.33961 0
M  V30 5220 C 492.655 -0.898825 1.48987 0
M  V30 5221 O 493.831 -0.864825 1.81887 0
M  V30 5222 C 490.896 -1.18177 3.25937 0
M  V30 5223 C 489.957 -0.462041 4.26806 0
M  V30 5224 C 489.19 -1.4227 5.14388 0
M  V30 5225 O 489.413 -2.65842 5.04662 0
M  V30 5226 O 488.347 -0.940127 5.94513 0
M  V30 5227 H 492.173 0.541216 2.98839 0
M  V30 5228 H 489.758 0.330647 1.45695 0
M  V30 5229 H 491.64 -1.76372 3.82715 0
M  V30 5230 H 490.315 -1.87774 2.63671 0
M  V30 5231 H 489.222 0.161429 3.73752 0
M  V30 5232 H 490.555 0.192719 4.91823 0
M  V30 5233 N 492.207 -1.54576 0.307264 0
M  V30 5234 C 493.454 -2.00263 -0.300167 0
M  V30 5235 C 493.782 -1.19561 -1.53413 0
M  V30 5236 O 493.037 -0.261487 -1.93945 0
M  V30 5237 C 493.336 -3.50572 -0.695253 0
M  V30 5238 C 493.002 -4.48771 0.437679 0
M  V30 5239 C 491.664 -4.7534 0.748681 0
M  V30 5240 C 494.016 -5.0721 1.19949 0
M  V30 5241 C 491.344 -5.5761 1.8245 0
M  V30 5242 C 493.696 -5.90651 2.26527 0
M  V30 5243 C 492.36 -6.15528 2.58227 0
M  V30 5244 H 491.63 -0.732814 -0.109839 0
M  V30 5245 H 494.277 -1.86664 0.427661 0
M  V30 5246 H 492.582 -3.61814 -1.50326 0
M  V30 5247 H 494.279 -3.83352 -1.17653 0
M  V30 5248 H 490.869 -4.282 0.185187 0
M  V30 5249 H 495.053 -4.86679 0.972474 0
M  V30 5250 H 490.309 -5.75121 2.07476 0
M  V30 5251 H 494.483 -6.34957 2.86011 0
M  V30 5252 H 492.11 -6.79066 3.4172 0
M  V30 5253 N 493.685 -0.035106 -1.57561 0
M  V30 5254 C 494.648 0.929819 -2.09492 0
M  V30 5255 C 495.648 1.25026 -1.01119 0
M  V30 5256 O 496.838 1.18961 -1.27255 0
M  V30 5257 C 493.97 2.24457 -2.56577 0
M  V30 5258 H 495.163 0.479935 -2.96035 0
M  V30 5259 H 492.716 0.213033 -1.54841 0
M  V30 5260 H 493.451 2.74061 -1.73382 0
M  V30 5261 H 493.236 2.02508 -3.35757 0
M  V30 5262 H 494.726 2.93607 -2.96959 0
M  V30 5263 N 495.163 1.55791 0.238111 0
M  V30 5264 C 496.409 1.78297 0.966337 0
M  V30 5265 C 496.742 0.601903 1.84637 0
M  V30 5266 O 496.017 -0.399499 1.90353 0
M  V30 5267 C 496.3 3.10758 1.81939 0
M  V30 5268 C 496.153 4.39283 0.966958 0
M  V30 5269 C 497.472 3.39519 2.80027 0
M  V30 5270 H 494.591 0.648654 0.349882 0
M  V30 5271 H 497.233 1.88525 0.236253 0
M  V30 5272 H 495.383 3.02168 2.44185 0
M  V30 5273 H 497.055 4.59873 0.362514 0
M  V30 5274 H 495.298 4.32948 0.271669 0
M  V30 5275 H 495.969 5.28368 1.59784 0
M  V30 5276 H 498.445 3.48128 2.27917 0
M  V30 5277 H 497.321 4.33402 3.36829 0
M  V30 5278 H 497.582 2.60864 3.56934 0
M  V30 5279 N 496.642 -0.504142 1.49319 0
M  V30 5280 C 497.589 -1.60603 1.65756 0
M  V30 5281 C 498.559 -1.58425 0.499082 0
M  V30 5282 O 499.744 -1.76459 0.725728 0
M  V30 5283 C 496.884 -2.98764 1.72726 0
M  V30 5284 C 495.997 -3.10982 2.99857 0
M  V30 5285 C 495.132 -4.39857 2.97824 0
M  V30 5286 C 494.171 -4.45697 4.19548 0
M  V30 5287 N 493.308 -5.65995 4.15444 0
M  V30 5288 H 498.148 -1.45895 2.59843 0
M  V30 5289 H 495.685 -0.709891 1.28837 0
M  V30 5290 H 497.643 -3.78839 1.74747 0
M  V30 5291 H 496.273 -3.12183 0.821075 0
M  V30 5292 H 495.325 -2.23991 3.07461 0
M  V30 5293 H 496.637 -3.11157 3.89849 0
M  V30 5294 H 495.791 -5.2825 2.98391 0
M  V30 5295 H 494.53 -4.42242 2.05604 0
M  V30 5296 H 493.535 -3.55707 4.19229 0
M  V30 5297 H 494.76 -4.4503 5.12957 0
M  V30 5298 H 492.706 -5.69229 3.26059 0
M  V30 5299 H 492.623 -5.67773 4.99169 0
M  V30 5300 H 493.891 -6.56604 4.20109 0
M  V30 5301 N 498.12 -1.38341 -0.754957 0
M  V30 5302 C 499.367 -1.34473 -1.51404 0
M  V30 5303 C 499.695 0.0656458 -1.94389 0
M  V30 5304 O 498.95 1.04244 -1.65625 0
M  V30 5305 C 499.249 -2.2452 -2.78075 0
M  V30 5306 C 498.915 -3.72512 -2.54059 0
M  V30 5307 C 497.577 -4.1284 -2.47218 0
M  V30 5308 C 499.929 -4.66197 -2.33044 0
M  V30 5309 C 497.257 -5.44945 -2.17376 0
M  V30 5310 C 499.609 -5.98558 -2.04723 0
M  V30 5311 C 498.273 -6.37972 -1.96337 0
M  V30 5312 H 497.543 -0.492072 -0.554027 0
M  V30 5313 H 500.19 -1.70687 -0.868223 0
M  V30 5314 H 498.495 -1.81357 -3.473 0
M  V30 5315 H 500.192 -2.18832 -3.36026 0
M  V30 5316 H 496.782 -3.40538 -2.60253 0
M  V30 5317 H 500.966 -4.35888 -2.37309 0
M  V30 5318 H 496.222 -5.74426 -2.09391 0
M  V30 5319 H 500.396 -6.70693 -1.87465 0
M  V30 5320 H 498.023 -7.40258 -1.72978 0
M  V30 5321 N 499.598 0.982988 -1.23187 0
M  V30 5322 C 500.546 2.09616 -1.00817 0
M  V30 5323 C 501.54 1.6932 0.0519995 0
M  V30 5324 O 502.746 1.79715 -0.101284 0
M  V30 5325 H 499.121 0.685628 -0.308899 0
M  V30 5326 H 501.092 2.25652 -1.95253 0
M  V30 5327 C 499.841 3.42249 -0.613243 0
M  V30 5328 H 499.164 3.73705 -1.42073 0
M  V30 5329 H 500.604 4.21086 -0.496208 0
M  V30 5330 C 499.063 3.30002 0.678233 0
M  V30 5331 O 499.593 3.6263 1.72807 0
M  V30 5332 N 497.799 2.83164 0.653165 0
M  V30 5333 H 497.346 2.56811 -0.201492 0
M  V30 5334 H 497.304 2.75352 1.51752 0
M  V30 5335 N 501.076 1.04316 1.18135 0
M  V30 5336 C 502.039 0.640794 2.2006 0
M  V30 5337 C 503.039 -0.303124 1.57917 0
M  V30 5338 O 504.229 -0.0881855 1.73977 0
M  V30 5339 C 501.361 -0.060148 3.40847 0
M  V30 5340 H 502.554 1.54281 2.57172 0
M  V30 5341 H 500.107 0.836004 1.32063 0
M  V30 5342 H 500.842 -0.975845 3.0927 0
M  V30 5343 H 500.627 0.618319 3.87194 0
M  V30 5344 H 502.117 -0.328082 4.16309 0
M  V30 5345 N 502.554 -1.34406 0.822964 0
M  V30 5346 C 503.484 -2.32052 0.259608 0
M  V30 5347 C 504.465 -1.58243 -0.623961 0
M  V30 5348 O 505.65 -1.86224 -0.55083 0
M  V30 5349 C 502.78 -3.42434 -0.579314 0
M  V30 5350 C 501.734 -4.27499 0.20712 0
M  V30 5351 C 501.06 -5.29349 -0.754547 0
M  V30 5352 C 502.36 -5.02758 1.41533 0
M  V30 5353 H 504.054 -2.79418 1.07545 0
M  V30 5354 H 501.6 -1.34338 0.518593 0
M  V30 5355 H 503.553 -4.0976 -0.983612 0
M  V30 5356 H 502.277 -2.93717 -1.4282 0
M  V30 5357 H 500.936 -3.61776 0.592787 0
M  V30 5358 H 500.584 -4.76895 -1.59939 0
M  V30 5359 H 500.284 -5.8714 -0.232561 0
M  V30 5360 H 501.808 -5.99544 -1.1567 0
M  V30 5361 H 503.222 -5.62938 1.08504 0
M  V30 5362 H 501.619 -5.70123 1.87296 0
M  V30 5363 H 502.689 -4.32451 2.1935 0
M  V30 5364 N 504.032 -0.577932 -1.46621 0
M  V30 5365 C 504.942 0.160651 -2.34049 0
M  V30 5366 C 505.958 0.890911 -1.49462 0
M  V30 5367 O 507.134 0.855166 -1.82343 0
M  V30 5368 C 504.199 1.16447 -3.26559 0
M  V30 5369 C 503.26 0.4394 -4.27045 0
M  V30 5370 C 502.493 1.3954 -5.15135 0
M  V30 5371 O 502.716 2.63162 -5.06065 0
M  V30 5372 O 501.65 0.908585 -5.95003 0
M  V30 5373 H 505.476 -0.557057 -2.98547 0
M  V30 5374 H 503.061 -0.338369 -1.45518 0
M  V30 5375 H 504.943 1.7434 -3.83645 0
M  V30 5376 H 503.618 1.86373 -2.64663 0
M  V30 5377 H 502.525 -0.181247 -3.73661 0
M  V30 5378 H 503.858 -0.218799 -4.91713 0
M  V30 5379 N 505.51 1.54411 -0.315457 0
M  V30 5380 C 506.44 2.27002 0.547039 0
M  V30 5381 C 507.421 1.27492 1.12605 0
M  V30 5382 O 508.606 1.5629 1.15269 0
M  V30 5383 C 505.736 3.02171 1.71201 0
M  V30 5384 C 504.69 4.0895 1.26268 0
M  V30 5385 C 504.016 4.71915 2.51396 0
M  V30 5386 C 505.316 5.20891 0.383419 0
M  V30 5387 H 507.01 2.99343 -0.0584517 0
M  V30 5388 H 504.556 1.4397 -0.0295527 0
M  V30 5389 H 506.509 3.51681 2.32161 0
M  V30 5390 H 505.233 2.27433 2.34397 0
M  V30 5391 H 503.892 3.60312 0.676062 0
M  V30 5392 H 503.54 3.93801 3.12937 0
M  V30 5393 H 503.24 5.44039 2.22026 0
M  V30 5394 H 504.764 5.24195 3.13133 0
M  V30 5395 H 506.178 5.66206 0.899082 0
M  V30 5396 H 504.575 5.99821 0.182857 0
M  V30 5397 H 505.645 4.81324 -0.587821 0
M  V30 5398 N 506.988 0.0434614 1.5754 0
M  V30 5399 C 508.265 -0.671479 1.83713 0
M  V30 5400 C 508.645 -1.89495 0.930315 0
M  V30 5401 O 507.993 -2.28498 -0.0105639 0
M  V30 5402 C 508.203 -1.0361 3.33266 0
M  V30 5403 C 509.551 -1.42167 4.00092 0
M  V30 5404 O 510.575 -1.12866 3.37846 0
M  V30 5405 O 509.434 -1.96817 5.09829 0
M  V30 5406 H 506.528 -0.330726 0.75799 0
M  V30 5407 H 509.074 0.0722373 1.69546 0
M  V30 5408 H 507.846 -0.165938 3.90948 0
M  V30 5409 H 507.469 -1.83751 3.52592 0
M  V30 5410 N 508.466 -1.55915 -0.229846 0
M  V30 5411 C 509.743 -1.6932 -0.979295 0
M  V30 5412 C 510.123 -0.588321 -2.02736 0
M  V30 5413 O 509.471 0.40586 -2.24867 0
M  V30 5414 C 509.681 -3.10305 -1.59724 0
M  V30 5415 C 511.029 -3.6945 -2.09264 0
M  V30 5416 O 512.053 -3.13214 -1.69633 0
M  V30 5417 O 510.912 -4.68072 -2.82082 0
M  V30 5418 H 508.006 -0.689314 -0.456919 0
M  V30 5419 H 510.552 -1.68238 -0.222283 0
M  V30 5420 H 509.324 -3.82177 -0.840039 0
M  V30 5421 H 508.947 -3.1547 -2.42001 0
M  V30 5422 N 509.944 0.496216 -1.49584 0
M  V30 5423 C 511.169 1.27865 -1.63295 0
M  V30 5424 C 511.594 1.85592 -0.306156 0
M  V30 5425 O 510.952 1.66092 0.726851 0
M  V30 5426 C 511 2.38128 -2.7079 0
M  V30 5427 O 510.104 3.42108 -2.30296 0
M  V30 5428 H 509.445 0.377279 -0.546403 0
M  V30 5429 H 511.975 0.593497 -1.95803 0
M  V30 5430 H 511.985 2.8382 -2.93104 0
M  V30 5431 H 510.66 1.95479 -3.67098 0
M  V30 5432 H 509.237 3.02301 -2.18331 0
M  V30 5433 N 511.423 1.38739 0.74761 0
M  V30 5434 C 512.7 1.25791 1.49786 0
M  V30 5435 C 513.08 -0.138075 2.10648 0
M  V30 5436 O 512.428 -1.14815 1.9756 0
M  V30 5437 C 512.638 2.37265 2.55942 0
M  V30 5438 C 513.986 2.75978 3.22679 0
M  V30 5439 O 515.01 2.36621 2.6625 0
M  V30 5440 O 513.869 3.43867 4.24756 0
M  V30 5441 H 510.963 0.492251 0.664543 0
M  V30 5442 H 513.509 1.50582 0.782511 0
M  V30 5443 H 512.281 3.30644 2.0926 0
M  V30 5444 H 511.904 2.14071 3.35051 0
M  V30 5445 N 512.901 -0.976442 1.23707 0
M  V30 5446 C 513.831 -2.08749 1.04624 0
M  V30 5447 C 514.812 -1.70057 -0.0380956 0
M  V30 5448 O 515.997 -1.93782 0.127308 0
M  V30 5449 C 513.127 -3.41335 0.640902 0
M  V30 5450 C 512.081 -3.93947 1.67302 0
M  V30 5451 C 511.407 -5.22774 1.12301 0
M  V30 5452 C 512.707 -4.22769 3.06697 0
M  V30 5453 H 514.401 -2.24972 1.97555 0
M  V30 5454 H 511.947 -1.08108 0.951247 0
M  V30 5455 H 513.9 -4.18489 0.494434 0
M  V30 5456 H 512.624 -3.24988 -0.324099 0
M  V30 5457 H 511.283 -3.18941 1.80755 0
M  V30 5458 H 510.931 -5.0278 0.148877 0
M  V30 5459 H 510.631 -5.58942 1.81267 0
M  V30 5460 H 512.155 -6.02546 0.988479 0
M  V30 5461 H 513.569 -4.90659 2.96524 0
M  V30 5462 H 511.966 -4.70147 3.72937 0
M  V30 5463 H 513.036 -3.29885 3.55392 0
M  V30 5464 N 514.379 -1.04941 -1.1758 0
M  V30 5465 C 515.342 -0.652456 -2.19717 0
M  V30 5466 C 516.342 0.294745 -1.58076 0
M  V30 5467 O 517.532 0.0789579 -1.74021 0
M  V30 5468 C 514.664 0.0420712 -3.40874 0
M  V30 5469 H 515.857 -1.55642 -2.5635 0
M  V30 5470 H 513.41 -0.842995 -1.31618 0
M  V30 5471 H 514.145 0.95943 -3.09783 0
M  V30 5472 H 513.93 -0.638844 -3.86861 0
M  V30 5473 H 515.42 0.306 -4.16477 0
M  V30 5474 N 515.857 1.33968 -0.830081 0
M  V30 5475 C 516.787 2.31911 -0.271911 0
M  V30 5476 C 517.768 1.58571 0.61556 0
M  V30 5477 O 518.953 1.86514 0.540946 0
M  V30 5478 C 516.083 3.42737 0.561146 0
M  V30 5479 C 515.037 4.27383 -0.229789 0
M  V30 5480 C 514.363 5.29742 0.726463 0
M  V30 5481 C 515.663 5.02 -1.44197 0
M  V30 5482 H 517.357 2.78844 -1.09025 0
M  V30 5483 H 514.903 1.34061 -0.52571 0
M  V30 5484 H 516.856 4.10276 0.961867 0
M  V30 5485 H 515.58 2.94471 1.41261 0
M  V30 5486 H 514.239 3.61456 -0.611964 0
M  V30 5487 H 513.887 4.77736 1.57408 0
M  V30 5488 H 513.587 5.87255 0.20142 0
M  V30 5489 H 515.111 6.00149 1.12489 0
M  V30 5490 H 516.525 5.62355 -1.11488 0
M  V30 5491 H 514.922 5.69122 -1.90317 0
M  V30 5492 H 515.992 4.31281 -2.2164 0
M  V30 5493 N 517.335 0.585699 1.46312 0
M  V30 5494 C 518.582 0.0724211 2.0237 0
M  V30 5495 C 518.91 -1.28868 1.45683 0
M  V30 5496 O 518.165 -1.85853 0.612945 0
M  V30 5497 C 518.464 -0.0401312 3.57377 0
M  V30 5498 C 518.13 1.25376 4.33119 0
M  V30 5499 C 516.792 1.60824 4.5353 0
M  V30 5500 C 519.144 2.10987 4.76586 0
M  V30 5501 C 516.472 2.81676 5.14661 0
M  V30 5502 C 518.824 3.31068 5.39052 0
M  V30 5503 C 517.488 3.66794 5.5769 0
M  V30 5504 H 516.758 0.0265007 0.740526 0
M  V30 5505 H 519.405 0.762935 1.75646 0
M  V30 5506 H 517.71 -0.813791 3.83255 0
M  V30 5507 H 519.407 -0.453078 3.98432 0
M  V30 5508 H 515.997 0.967808 4.1753 0
M  V30 5509 H 520.181 1.84904 4.60569 0
M  V30 5510 H 515.437 3.0949 5.27282 0
M  V30 5511 H 519.611 3.97672 5.71691 0
M  V30 5512 H 517.238 4.60529 6.04828 0
M  V30 5513 N 518.813 -1.54241 0.323641 0
M  V30 5514 C 520.062 -1.9975 -0.279806 0
M  V30 5515 C 520.375 -1.2156 -1.5324 0
M  V30 5516 O 521.581 -1.57447 -2.21185 0
M  V30 5517 C 520.037 -3.55686 -0.549115 0
M  V30 5518 C 519.645 -4.4271 0.686432 0
M  V30 5519 C 521.389 -4.09663 -1.11251 0
M  V30 5520 C 519.296 -5.90119 0.389022 0
M  V30 5521 H 518.226 -0.746177 -0.10833 0
M  V30 5522 H 520.877 -1.78248 0.435877 0
M  V30 5523 H 519.259 -3.73176 -1.32499 0
M  V30 5524 H 520.433 -4.36996 1.46188 0
M  V30 5525 H 518.748 -3.99623 1.17005 0
M  V30 5526 H 521.345 -5.17386 -1.34965 0
M  V30 5527 H 521.688 -3.61651 -2.06191 0
M  V30 5528 H 522.221 -3.95806 -0.39782 0
M  V30 5529 H 518.96 -6.42326 1.30759 0
M  V30 5530 H 518.48 -5.98785 -0.348722 0
M  V30 5531 H 520.159 -6.47 -0.0011164 0
M  V30 5532 N 520.291 -0.0518155 -1.57515 0
M  V30 5533 C 521.254 0.907547 -2.10467 0
M  V30 5534 C 522.254 1.23947 -1.02439 0
M  V30 5535 O 523.444 1.17604 -1.2851 0
M  V30 5536 C 520.576 2.21723 -2.58944 0
M  V30 5537 H 521.769 0.44851 -2.96527 0
M  V30 5538 H 519.322 0.196598 -1.55059 0
M  V30 5539 H 520.057 2.72206 -1.76279 0
M  V30 5540 H 519.842 1.98935 -3.37886 0
M  V30 5541 H 521.332 2.90441 -3.00056 0
M  V30 5542 N 521.769 1.56035 0.221574 0
M  V30 5543 C 522.732 1.91584 1.2581 0
M  V30 5544 C 523.732 0.794425 1.39805 0
M  V30 5545 O 524.922 1.06217 1.38071 0
M  V30 5546 C 522.054 2.16663 2.63192 0
M  V30 5547 H 523.247 2.8429 0.954935 0
M  V30 5548 H 520.8 1.49316 0.461988 0
M  V30 5549 H 521.535 1.26508 2.98607 0
M  V30 5550 H 521.32 2.98358 2.5441 0
M  V30 5551 H 522.81 2.45262 3.37988 0
M  V30 5552 N 523.247 -0.488276 1.49845 0
M  V30 5553 C 524.496 -1.23826 1.59217 0
M  V30 5554 C 524.809 -1.93439 0.289966 0
M  V30 5555 O 526.015 -2.70229 0.262382 0
M  V30 5556 C 524.471 -2.24902 2.80976 0
M  V30 5557 C 524.079 -1.6117 4.18005 0
M  V30 5558 C 525.823 -3.00648 2.99685 0
M  V30 5559 C 523.73 -2.60431 5.3097 0
M  V30 5560 H 522.66 -0.465858 0.592868 0
M  V30 5561 H 525.311 -0.510645 1.76252 0
M  V30 5562 H 523.693 -3.0088 2.57463 0
M  V30 5563 H 524.867 -0.910968 4.51706 0
M  V30 5564 H 523.182 -0.97767 4.0476 0
M  V30 5565 H 525.779 -3.74903 3.81251 0
M  V30 5566 H 526.122 -3.5902 2.10738 0
M  V30 5567 H 526.655 -2.31784 3.23297 0
M  V30 5568 H 523.394 -2.06823 6.22017 0
M  V30 5569 H 522.914 -3.28707 5.01709 0
M  V30 5570 H 524.593 -3.22606 5.60834 0
M  V30 5571 N 524.725 -1.39134 -0.740242 0
M  V30 5572 C 525.974 -1.35384 -1.49512 0
M  V30 5573 C 526.287 0.04919 -1.95538 0
M  V30 5574 O 527.493 0.209257 -2.70692 0
M  V30 5575 C 525.949 -2.37812 -2.70136 0
M  V30 5576 C 525.557 -3.83804 -2.31081 0
M  V30 5577 C 527.301 -2.4313 -3.47977 0
M  V30 5578 C 525.208 -4.77886 -3.48395 0
M  V30 5579 H 524.138 -0.503297 -0.561434 0
M  V30 5580 H 526.789 -1.64754 -0.807974 0
M  V30 5581 H 525.171 -2.01505 -3.40899 0
M  V30 5582 H 526.345 -4.29123 -1.67898 0
M  V30 5583 H 524.66 -3.81732 -1.66343 0
M  V30 5584 H 527.257 -3.10614 -4.35228 0
M  V30 5585 H 527.6 -1.45423 -3.90074 0
M  V30 5586 H 528.133 -2.78304 -2.84239 0
M  V30 5587 H 524.872 -5.76836 -3.11353 0
M  V30 5588 H 524.392 -4.3725 -4.10576 0
M  V30 5589 H 526.071 -4.96538 -4.148 0
M  V30 5590 N 526.204 0.969867 -1.24223 0
M  V30 5591 C 527.134 2.08191 -1.05729 0
M  V30 5592 C 528.115 1.70075 0.0290765 0
M  V30 5593 O 529.3 1.93712 -0.137583 0
M  V30 5594 C 526.43 3.40991 -0.658995 0
M  V30 5595 C 525.384 3.93054 -1.69389 0
M  V30 5596 C 524.71 5.22171 -1.15072 0
M  V30 5597 C 526.01 4.21137 -3.08935 0
M  V30 5598 H 527.704 2.23921 -1.98746 0
M  V30 5599 H 525.25 1.07602 -0.956967 0
M  V30 5600 H 527.203 4.18221 -0.51662 0
M  V30 5601 H 525.927 3.25155 0.30686 0
M  V30 5602 H 524.586 3.17977 -1.82444 0
M  V30 5603 H 524.234 5.02694 -0.175539 0
M  V30 5604 H 523.934 5.57973 -1.84229 0
M  V30 5605 H 525.458 6.02013 -1.02042 0
M  V30 5606 H 526.872 4.8908 -2.99121 0
M  V30 5607 H 525.269 4.68163 -3.75425 0
M  V30 5608 H 526.339 3.27996 -3.57137 0
M  V30 5609 N 527.682 1.05563 1.17022 0
M  V30 5610 C 528.922 0.777033 1.89054 0
M  V30 5611 C 529.286 -0.683617 1.79418 0
M  V30 5612 O 530.487 -1.07648 2.46303 0
M  V30 5613 C 528.758 1.24886 3.34871 0
M  V30 5614 S 530.317 1.0982 4.24835 0
M  V30 5615 H 527.135 0.282082 0.652649 0
M  V30 5616 H 529.737 1.35103 1.41306 0
M  V30 5617 H 528.441 2.30699 3.3942 0
M  V30 5618 H 527.972 0.669292 3.87665 0
M  V30 5619 H 529.987 0.02462 4.96194 0
M  V30 5620 N 529.16 -1.33526 0.837174 0
M  V30 5621 C 530.408 -1.97446 0.431211 0
M  V30 5622 C 530.729 -1.6665 -1.01255 0
M  V30 5623 O 529.999 -0.964559 -1.70508 0
M  V30 5624 H 528.579 -0.73043 0.156463 0
M  V30 5625 H 531.241 -1.62918 1.06976 0
M  V30 5626 H 530.337 -3.07001 0.561877 0
M  V30 5627 N 530.638 -0.59345 -1.46 0
M  V30 5628 C 531.915 -0.0157933 -1.95594 0
M  V30 5629 C 532.295 1.44807 -1.53604 0
M  V30 5630 O 531.643 2.14342 -0.791824 0
M  V30 5631 C 531.853 -0.199081 -3.48432 0
M  V30 5632 C 533.201 -0.0724943 -4.24538 0
M  V30 5633 O 534.225 -0.128469 -3.55968 0
M  V30 5634 O 533.084 0.0542426 -5.46473 0
M  V30 5635 H 530.178 0.043749 -0.825842 0
M  V30 5636 H 532.724 -0.662522 -1.56233 0
M  V30 5637 H 531.496 -1.21631 -3.71916 0
M  V30 5638 H 531.119 0.483576 -3.94648 0
M  V30 5639 N 532.116 1.54067 -0.331816 0
M  V30 5640 C 533.532 1.59587 0.0205388 0
M  V30 5641 C 533.732 1.34813 1.49759 0
M  V30 5642 O 532.788 1.13661 2.25471 0
M  V30 5643 C 534.101 2.97959 -0.405103 0
M  V30 5644 C 535.649 3.10964 -0.356454 0
M  V30 5645 C 536.124 4.51694 -0.757384 0
M  V30 5646 N 537.615 4.57709 -0.71111 0
M  V30 5647 C 538.35 5.64729 -0.993427 0
M  V30 5648 N 537.846 6.79652 -1.3433 0
M  V30 5649 N 539.639 5.54546 -0.918442 0
M  V30 5650 H 531.79 1.68426 -1.29407 0
M  V30 5651 H 534.053 0.78819 -0.526745 0
M  V30 5652 H 533.759 3.21115 -1.43451 0
M  V30 5653 H 533.633 3.76524 0.225692 0
M  V30 5654 H 536.02 2.87538 0.663763 0
M  V30 5655 H 536.101 2.34484 -1.02229 0
M  V30 5656 H 535.745 4.75853 -1.77555 0
M  V30 5657 H 535.675 5.26555 -0.0691444 0
M  V30 5658 H 538.166 3.75176 -0.452883 0
M  V30 5659 H 538.479 7.57221 -1.54388 0
M  V30 5660 H 536.824 6.81128 -1.38164 0
M  V30 5661 H 540.015 4.63641 -0.644536 0
M  V30 5662 H 540.188 6.37861 -1.14181 0
M  V30 5663 N 533.594 0.0601682 1.57485 0
M  V30 5664 C 535.005 -0.474217 1.80577 0
M  V30 5665 C 535.356 -1.70365 0.973147 0
M  V30 5666 O 534.481 -2.15544 0.192306 0
M  V30 5667 C 535.076 -0.867102 3.27516 0
M  V30 5668 C 533.635 -1.34642 3.51495 0
M  V30 5669 C 532.782 -0.32594 2.75378 0
M  V30 5670 H 535.733 0.285973 1.56102 0
M  V30 5671 H 535.754 -1.72938 3.38929 0
M  V30 5672 H 535.266 0.0278927 3.8809 0
M  V30 5673 H 533.367 -2.2603 2.96212 0
M  V30 5674 H 533.48 -1.33237 4.60201 0
M  V30 5675 H 531.844 -0.800749 2.41785 0
M  V30 5676 H 532.627 0.561125 3.38683 0
M  V30 5677 N 535.072 -1.5615 -0.213296 0
M  V30 5678 C 536.32 -1.79191 -0.934612 0
M  V30 5679 C 536.641 -0.630112 -1.84539 0
M  V30 5680 O 535.911 0.35257 -1.92701 0
M  V30 5681 H 534.491 -0.660937 -0.348097 0
M  V30 5682 H 537.153 -1.93618 -0.22317 0
M  V30 5683 H 536.249 -2.71656 -1.53654 0
M  V30 5684 N 536.55 0.480323 -1.50102 0
M  V30 5685 C 537.48 1.58769 -1.71215 0
M  V30 5686 C 538.461 1.60583 -0.560997 0
M  V30 5687 O 539.646 1.76996 -0.799127 0
M  V30 5688 C 536.776 2.97148 -1.79778 0
M  V30 5689 C 535.73 3.10201 -2.94888 0
M  V30 5690 C 535.056 4.50137 -2.88584 0
M  V30 5691 C 536.356 2.88283 -4.35534 0
M  V30 5692 H 538.05 1.41354 -2.6393 0
M  V30 5693 H 535.596 0.678591 -1.27008 0
M  V30 5694 H 537.549 3.74536 -1.93133 0
M  V30 5695 H 536.273 3.15699 -0.836772 0
M  V30 5696 H 534.932 2.35244 -2.81169 0
M  V30 5697 H 534.58 4.65593 -1.90349 0
M  V30 5698 H 534.28 4.59808 -3.65856 0
M  V30 5699 H 535.804 5.29558 -3.03976 0
M  V30 5700 H 537.218 3.55427 -4.49827 0
M  V30 5701 H 535.615 3.09408 -5.14186 0
M  V30 5702 H 536.685 1.84219 -4.48544 0
M  V30 5703 N 538.028 1.39524 0.732853 0
M  V30 5704 C 538.961 1.32806 1.85574 0
M  V30 5705 C 539.939 0.201354 1.61348 0
M  V30 5706 O 541.123 0.38216 1.84585 0
M  V30 5707 C 538.25 1.06271 3.21596 0
M  V30 5708 C 537.296 2.21161 3.64678 0
M  V30 5709 S 538.129 3.83454 3.73796 0
M  V30 5710 C 539.285 3.59149 5.12604 0
M  V30 5711 H 539.518 2.27838 1.9099 0
M  V30 5712 H 537.051 1.25605 0.897927 0
M  V30 5713 H 539.009 0.916461 4.00139 0
M  V30 5714 H 537.67 0.129223 3.13834 0
M  V30 5715 H 536.863 1.98193 4.63396 0
M  V30 5716 H 536.465 2.32 2.93346 0
M  V30 5717 H 538.757 3.16547 5.99003 0
M  V30 5718 H 539.7 4.57335 5.40602 0
M  V30 5719 H 540.108 2.93203 4.82382 0
M  V30 5720 N 539.506 -0.963266 1.24736 0
M  V30 5721 C 540.454 -2.07985 1.04139 0
M  V30 5722 C 541.448 -1.69381 -0.0250556 0
M  V30 5723 O 542.654 -1.79531 0.129863 0
M  V30 5724 H 539.029 -0.680627 0.319768 0
M  V30 5725 H 541 -2.22517 1.98818 0
M  V30 5726 C 539.749 -3.4123 0.667615 0
M  V30 5727 H 539.072 -3.71397 1.48 0
M  V30 5728 H 540.512 -4.20244 0.563136 0
M  V30 5729 C 538.971 -3.3104 -0.625647 0
M  V30 5730 O 539.501 -3.65334 -1.67016 0
M  V30 5731 N 537.707 -2.84168 -0.608033 0
M  V30 5732 H 537.254 -2.56458 0.242323 0
M  V30 5733 H 537.212 -2.77732 -1.47352 0
M  V30 5734 N 540.985 -1.06182 -1.16461 0
M  V30 5735 C 542.231 -0.779015 -1.87241 0
M  V30 5736 C 542.564 0.692715 -1.81425 0
M  V30 5737 O 541.839 1.5074 -1.22913 0
M  V30 5738 C 542.122 -1.2728 -3.36856 0
M  V30 5739 C 541.975 -2.80821 -3.51368 0
M  V30 5740 C 543.294 -0.879799 -4.31216 0
M  V30 5741 H 540.413 -0.284464 -0.679889 0
M  V30 5742 H 543.055 -1.31755 -1.36896 0
M  V30 5743 H 541.205 -0.814673 -3.79862 0
M  V30 5744 H 542.877 -3.34833 -3.17308 0
M  V30 5745 H 541.12 -3.19606 -2.93316 0
M  V30 5746 H 541.791 -3.10435 -4.56436 0
M  V30 5747 H 544.267 -1.27436 -3.96105 0
M  V30 5748 H 543.143 -1.25278 -5.34412 0
M  V30 5749 H 543.404 0.215372 -4.41575 0
M  V30 5750 N 542.463 1.3308 -0.844243 0
M  V30 5751 C 543.874 1.7992 -0.498566 0
M  V30 5752 C 544.225 1.69808 0.982834 0
M  V30 5753 O 543.35 1.25051 1.7661 0
M  V30 5754 C 543.945 3.26677 -0.898204 0
M  V30 5755 C 542.504 3.71513 -0.604583 0
M  V30 5756 C 541.651 2.54393 -1.10362 0
M  V30 5757 H 544.602 1.20526 -1.03244 0
M  V30 5758 H 544.623 3.79918 -0.21039 0
M  V30 5759 H 544.135 3.34004 -1.97643 0
M  V30 5760 H 542.236 3.69708 0.46335 0
M  V30 5761 H 542.349 4.64755 -1.16358 0
M  V30 5762 H 540.713 2.49246 -0.524273 0
M  V30 5763 H 541.496 2.6448 -2.18873 0
M  V30 5764 N 543.941 0.601185 1.45683 0
M  V30 5765 C 545.357 0.264315 1.57396 0
M  V30 5766 C 545.557 -1.23324 1.59353 0
M  V30 5767 O 544.613 -2.01594 1.52039 0
M  V30 5768 C 545.926 0.929839 2.85962 0
M  V30 5769 C 547.474 0.905156 2.99626 0
M  V30 5770 C 547.949 1.55057 4.30954 0
M  V30 5771 N 549.44 1.51576 4.37697 0
M  V30 5772 C 550.175 1.98436 5.37969 0
M  V30 5773 N 549.671 2.53352 6.44813 0
M  V30 5774 N 551.464 1.89242 5.29286 0
M  V30 5775 H 543.615 1.57363 1.42656 0
M  V30 5776 H 545.878 0.658831 0.681649 0
M  V30 5777 H 545.584 1.98404 2.90394 0
M  V30 5778 H 545.458 0.449224 3.74515 0
M  V30 5779 H 547.845 -0.14048 2.94765 0
M  V30 5780 H 547.926 1.42397 2.12501 0
M  V30 5781 H 547.57 2.5955 4.36573 0
M  V30 5782 H 547.5 1.00682 5.16886 0
M  V30 5783 H 549.991 1.11452 3.61091 0
M  V30 5784 H 550.304 2.86918 7.17564 0
M  V30 5785 H 548.649 2.57388 6.45582 0
M  V30 5786 H 551.84 1.46083 4.44722 0
M  V30 5787 H 552.013 2.26075 6.07284 0
M  V30 5788 N 545.419 -1.53889 0.339982 0
M  V30 5789 C 546.665 -2.01152 -0.258003 0
M  V30 5790 C 546.998 -1.22749 -1.50487 0
M  V30 5791 O 546.273 -0.314156 -1.91946 0
M  V30 5792 C 546.556 -3.55468 -0.575717 0
M  V30 5793 C 546.409 -4.44584 0.682996 0
M  V30 5794 C 547.728 -4.1768 -1.38677 0
M  V30 5795 H 544.847 -0.731198 -0.0922992 0
M  V30 5796 H 547.489 -1.84352 0.459814 0
M  V30 5797 H 545.639 -3.69914 -1.18725 0
M  V30 5798 H 547.311 -4.41981 1.32102 0
M  V30 5799 H 545.554 -4.13592 1.3086 0
M  V30 5800 H 546.225 -5.5043 0.416001 0
M  V30 5801 H 548.701 -4.0691 -0.869705 0
M  V30 5802 H 547.577 -5.25734 -1.57783 0
M  V30 5803 H 547.838 -3.72069 -2.38782 0
M  V30 5804 N 546.897 -0.0685191 -1.57451 0
M  V30 5805 C 547.807 0.914677 -2.16034 0
M  V30 5806 C 548.823 1.32938 -1.12265 0
M  V30 5807 O 549.999 1.40275 -1.44516 0
M  V30 5808 C 547.064 2.16519 -2.70777 0
M  V30 5809 C 546.125 1.80721 -3.89408 0
M  V30 5810 C 545.358 2.9981 -4.41531 0
M  V30 5811 O 545.581 4.13727 -3.92666 0
M  V30 5812 O 544.515 2.79817 -5.32903 0
M  V30 5813 H 548.341 0.446364 -3.00402 0
M  V30 5814 H 545.926 0.154367 -1.486 0
M  V30 5815 H 547.808 2.89856 -3.05878 0
M  V30 5816 H 546.483 2.62454 -1.89471 0
M  V30 5817 H 545.39 1.04646 -3.59166 0
M  V30 5818 H 546.723 1.39571 -4.71997 0
M  V30 5819 N 548.375 1.56261 0.205012 0
M  V30 5820 C 549.338 1.92908 1.23771 0
M  V30 5821 C 550.338 0.809208 1.38955 0
M  V30 5822 O 551.528 1.07676 1.36936 0
M  V30 5823 C 548.66 2.19442 2.60879 0
M  V30 5824 H 549.853 2.85287 0.924728 0
M  V30 5825 H 547.406 1.49798 0.446125 0
M  V30 5826 H 548.141 1.29668 2.97248 0
M  V30 5827 H 547.926 3.0104 2.51232 0
M  V30 5828 H 549.416 2.48833 3.35368 0
M  V30 5829 N 549.853 -0.472356 1.50355 0
M  V30 5830 C 551.102 -1.2213 1.60522 0
M  V30 5831 C 551.415 -1.9312 0.310466 0
M  V30 5832 O 552.621 -2.69936 0.291029 0
M  V30 5833 C 551.077 -2.21909 2.83345 0
M  V30 5834 C 550.685 -1.56727 4.19691 0
M  V30 5835 C 552.429 -2.97453 3.02856 0
M  V30 5836 C 550.336 -2.54785 5.33703 0
M  V30 5837 H 549.266 -0.459543 0.597776 0
M  V30 5838 H 551.917 -0.491922 1.76783 0
M  V30 5839 H 550.299 -2.98133 2.60639 0
M  V30 5840 H 551.473 -0.863007 4.52646 0
M  V30 5841 H 549.788 -0.934685 4.05774 0
M  V30 5842 H 552.385 -3.70838 3.85205 0
M  V30 5843 H 552.728 -3.56764 2.14534 0
M  V30 5844 H 553.261 -2.28342 3.25737 0
M  V30 5845 H 550 -2.00214 6.24175 0
M  V30 5846 H 549.52 -3.23367 5.05167 0
M  V30 5847 H 551.199 -3.16639 5.64224 0
M  V30 5848 N 551.331 -1.39911 -0.725443 0
M  V30 5849 C 552.263 -1.35301 -1.85003 0
M  V30 5850 C 553.276 -0.260102 -1.60709 0
M  V30 5851 O 554.465 -0.519749 -1.70766 0
M  V30 5852 C 551.565 -1.08039 -3.21218 0
M  V30 5853 C 550.738 -2.28793 -3.7279 0
M  V30 5854 C 549.797 -1.97841 -4.87591 0
M  V30 5855 O 548.823 -2.70616 -5.00755 0
M  V30 5856 N 550.025 -0.950367 -5.72668 0
M  V30 5857 H 552.79 -2.32218 -1.89459 0
M  V30 5858 H 550.351 -1.34137 -0.90658 0
M  V30 5859 H 552.343 -0.853354 -3.95601 0
M  V30 5860 H 550.913 -0.198229 -3.11971 0
M  V30 5861 H 550.133 -2.67388 -2.8965 0
M  V30 5862 H 551.421 -3.09317 -4.03981 0
M  V30 5863 H 550.819 -0.347436 -5.64632 0
M  V30 5864 H 549.376 -0.783232 -6.47077 0
M  V30 5865 N 552.809 0.956637 -1.25245 0
M  V30 5866 C 554.086 1.67716 -1.00651 0
M  V30 5867 C 554.466 2.0585 0.467866 0
M  V30 5868 O 553.814 1.77029 1.44475 0
M  V30 5869 C 554.024 2.90093 -1.94028 0
M  V30 5870 C 555.372 3.6209 -2.21756 0
M  V30 5871 O 556.396 3.00171 -1.9177 0
M  V30 5872 O 555.255 4.7358 -2.72735 0
M  V30 5873 H 552.349 0.733731 -0.381533 0
M  V30 5874 H 554.895 1.00974 -1.3639 0
M  V30 5875 H 553.667 2.58689 -2.93591 0
M  V30 5876 H 553.29 3.64566 -1.58674 0
M  V30 5877 N 554.287 1.06798 1.15896 0
M  V30 5878 C 555.515 0.808694 1.90441 0
M  V30 5879 C 555.93 -0.637506 1.77711 0
M  V30 5880 O 555.287 -1.43684 1.12522 0
M  V30 5881 C 555.338 1.20068 3.40978 0
M  V30 5882 O 555.059 2.59013 3.53333 0
M  V30 5883 C 556.56 0.96987 4.3256 0
M  V30 5884 H 553.78 0.292809 0.603742 0
M  V30 5885 H 556.324 1.42296 1.46874 0
M  V30 5886 H 554.479 0.630842 3.82229 0
M  V30 5887 H 554.893 2.7485 4.46719 0
M  V30 5888 H 556.367 1.29371 5.36626 0
M  V30 5889 H 556.844 -0.0941209 4.39099 0
M  V30 5890 H 557.45 1.52433 3.97044 0
M  V30 5891 N 555.766 -1.3263 0.851289 0
M  V30 5892 C 557.015 -1.96633 0.449267 0
M  V30 5893 C 557.328 -1.68131 -0.999562 0
M  V30 5894 O 558.534 -2.25845 -1.50685 0
M  V30 5895 C 556.99 -3.51946 0.752446 0
M  V30 5896 C 556.598 -3.89311 2.21678 0
M  V30 5897 C 558.342 -4.22437 0.417983 0
M  V30 5898 C 556.249 -5.37655 2.46336 0
M  V30 5899 H 555.179 -0.735888 0.164269 0
M  V30 5900 H 557.83 -1.51073 1.0416 0
M  V30 5901 H 556.212 -3.95899 0.0895858 0
M  V30 5902 H 557.386 -3.56378 2.92115 0
M  V30 5903 H 555.701 -3.31836 2.51543 0
M  V30 5904 H 558.298 -5.31549 0.579674 0
M  V30 5905 H 558.641 -4.11349 -0.640115 0
M  V30 5906 H 559.174 -3.84057 1.03659 0
M  V30 5907 H 555.913 -5.5376 3.50757 0
M  V30 5908 H 555.433 -5.72005 1.80473 0
M  V30 5909 H 557.112 -6.04695 2.30115 0
M  V30 5910 N 557.244 -0.608902 -1.45362 0
M  V30 5911 C 558.174 0.0964526 -2.33301 0
M  V30 5912 C 559.155 0.857444 -1.46908 0
M  V30 5913 O 560.34 0.827735 -1.75676 0
M  V30 5914 C 557.47 1.09354 -3.29635 0
M  V30 5915 C 556.424 0.445676 -4.25673 0
M  V30 5916 C 555.75 1.5511 -5.11708 0
M  V30 5917 C 557.05 -0.633972 -5.18438 0
M  V30 5918 H 558.744 -0.637829 -2.92527 0
M  V30 5919 H 556.29 -0.308178 -1.40664 0
M  V30 5920 H 558.243 1.59556 -3.90025 0
M  V30 5921 H 556.967 1.85843 -2.6857 0
M  V30 5922 H 555.626 -0.0354897 -3.66583 0
M  V30 5923 H 555.274 2.30631 -4.4701 0
M  V30 5924 H 554.974 1.12311 -5.76767 0
M  V30 5925 H 556.498 2.05537 -5.74967 0
M  V30 5926 H 557.912 -0.215974 -5.72893 0
M  V30 5927 H 556.309 -0.983789 -5.91981 0
M  V30 5928 H 557.379 -1.51005 -4.60788 0
M  V30 5929 N 558.722 1.53707 -0.348139 0
M  V30 5930 C 560.138 1.596 0.00361134 0
M  V30 5931 C 560.338 1.36394 1.4832 0
M  V30 5932 O 559.394 1.16046 2.24253 0
M  V30 5933 C 560.707 2.97512 -0.436682 0
M  V30 5934 C 562.255 3.10568 -0.389416 0
M  V30 5935 C 562.73 4.50866 -0.805249 0
M  V30 5936 N 564.221 4.56929 -0.759616 0
M  V30 5937 C 564.956 5.63643 -1.05327 0
M  V30 5938 N 564.452 6.78189 -1.41531 0
M  V30 5939 N 566.245 5.5354 -0.977207 0
M  V30 5940 H 558.396 1.67044 -1.31187 0
M  V30 5941 H 560.659 0.782559 -0.535075 0
M  V30 5942 H 560.365 3.19575 -1.46849 0
M  V30 5943 H 560.239 3.76742 0.185744 0
M  V30 5944 H 562.626 2.88226 0.633228 0
M  V30 5945 H 562.707 2.33387 -1.04711 0
M  V30 5946 H 562.351 4.73943 -1.82593 0
M  V30 5947 H 562.281 5.26452 -0.124989 0
M  V30 5948 H 564.772 3.74675 -0.49265 0
M  V30 5949 H 565.085 7.55541 -1.62411 0
M  V30 5950 H 563.43 6.79624 -1.45381 0
M  V30 5951 H 566.621 4.62932 -0.693675 0
M  V30 5952 H 566.794 6.36614 -1.2094 0
M  V30 5953 N 560.2 0.0768682 1.57412 0
M  V30 5954 C 561.163 -0.873949 2.11884 0
M  V30 5955 C 562.163 -1.22301 1.04398 0
M  V30 5956 O 563.353 -1.15545 1.30365 0
M  V30 5957 C 560.485 -2.17575 2.62438 0
M  V30 5958 H 561.678 -0.401278 2.97203 0
M  V30 5959 H 559.231 -0.171904 1.55352 0
M  V30 5960 H 559.966 -2.69368 1.80587 0
M  V30 5961 H 559.751 -1.93534 3.41009 0
M  V30 5962 H 561.241 -2.85631 3.04639 0
M  V30 5963 N 561.678 -1.56367 -0.196722 0
M  V30 5964 C 562.608 -1.97442 -1.24655 0
M  V30 5965 C 563.589 -0.846147 -1.47561 0
M  V30 5966 O 564.774 -1.11035 -1.59326 0
M  V30 5967 C 561.904 -2.31253 -2.59112 0
M  V30 5968 C 560.858 -3.46804 -2.50821 0
M  V30 5969 C 560.184 -3.66286 -3.89536 0
M  V30 5970 C 561.484 -4.8104 -2.03465 0
M  V30 5971 H 563.178 -2.85388 -0.905216 0
M  V30 5972 H 560.724 -1.37304 -0.434002 0
M  V30 5973 H 562.677 -2.58583 -3.32736 0
M  V30 5974 H 561.401 -1.40188 -2.94983 0
M  V30 5975 H 560.06 -3.19563 -1.79653 0
M  V30 5976 H 559.708 -2.72555 -4.22756 0
M  V30 5977 H 559.408 -4.4402 -3.84864 0
M  V30 5978 H 560.932 -3.9599 -4.64784 0
M  V30 5979 H 562.346 -5.07411 -2.66846 0
M  V30 5980 H 560.743 -5.62232 -2.09798 0
M  V30 5981 H 561.813 -4.74732 -0.98781 0
M  V30 5982 N 563.156 0.464375 -1.50603 0
M  V30 5983 C 564.066 1.58723 -1.72754 0
M  V30 5984 C 565.082 1.62925 -0.610844 0
M  V30 5985 O 566.258 1.8067 -0.889963 0
M  V30 5986 C 563.323 2.94897 -1.82309 0
M  V30 5987 C 562.384 3.0103 -3.06071 0
M  V30 5988 C 561.617 4.30708 -3.1516 0
M  V30 5989 O 561.84 5.2159 -2.30868 0
M  V30 5990 O 560.774 4.42571 -4.0794 0
M  V30 5991 H 564.6 1.42954 -2.67951 0
M  V30 5992 H 562.185 0.644579 -1.3478 0
M  V30 5993 H 564.067 3.75764 -1.90735 0
M  V30 5994 H 562.742 3.10851 -0.902967 0
M  V30 5995 H 561.649 2.19217 -3.03142 0
M  V30 5996 H 562.982 2.90014 -3.97684 0
M  V30 5997 N 564.634 1.40294 0.718013 0
M  V30 5998 C 565.881 1.3844 1.47786 0
M  V30 5999 C 566.209 -0.0140838 1.94495 0
M  V30 6000 O 565.464 -0.998165 1.68331 0
M  V30 6001 C 565.763 2.31814 2.72024 0
M  V30 6002 C 565.429 3.79117 2.44093 0
M  V30 6003 C 564.091 4.19249 2.36185 0
M  V30 6004 C 566.443 4.72212 2.20602 0
M  V30 6005 C 563.771 5.50516 2.02851 0
M  V30 6006 C 566.123 6.03775 1.88781 0
M  V30 6007 C 564.787 6.42953 1.79354 0
M  V30 6008 H 564.057 0.506588 0.540786 0
M  V30 6009 H 566.704 1.72929 0.822663 0
M  V30 6010 H 565.009 1.90501 3.42369 0
M  V30 6011 H 566.706 2.27664 3.30106 0
M  V30 6012 H 563.296 3.47318 2.51133 0
M  V30 6013 H 567.48 4.42026 2.25669 0
M  V30 6014 H 562.736 5.79776 1.94088 0
M  V30 6015 H 566.91 6.75428 1.69617 0
M  V30 6016 H 564.537 7.44584 1.53291 0
M  V30 6017 N 566.112 -0.949982 1.2575 0
M  V30 6018 C 567.062 -2.03297 1.03221 0
M  V30 6019 C 568.046 -1.60867 -0.0324751 0
M  V30 6020 O 569.238 -1.76047 0.183423 0
M  V30 6021 C 566.367 -3.36938 0.657841 0
M  V30 6022 C 565.453 -3.85878 1.75952 0
M  V30 6023 N 565.844 -4.0756 2.99547 0
M  V30 6024 C 564.142 -4.14709 1.64111 0
M  V30 6025 C 564.843 -4.47961 3.71087 0
M  V30 6026 N 563.819 -4.5416 2.98731 0
M  V30 6027 H 567.621 -2.1806 1.97045 0
M  V30 6028 H 565.135 -1.13516 1.16138 0
M  V30 6029 H 567.132 -4.14155 0.477614 0
M  V30 6030 H 565.792 -3.2355 -0.273025 0
M  V30 6031 H 566.803 -3.94501 3.35544 0
M  V30 6032 H 563.48 -4.10158 0.779527 0
M  V30 6033 H 564.87 -4.73002 4.77199 0
M  V30 6034 N 567.59 -1.07411 -1.15328 0
M  V30 6035 C 568.52 -0.716472 -2.22236 0
M  V30 6036 C 569.501 0.296373 -1.67498 0
M  V30 6037 O 570.686 0.168989 -1.93463 0
M  V30 6038 C 567.816 -0.114142 -3.47112 0
M  V30 6039 C 566.77 -1.05421 -4.14814 0
M  V30 6040 C 566.096 -0.314604 -5.33774 0
M  V30 6041 C 567.396 -2.38808 -4.64508 0
M  V30 6042 H 569.09 -1.61029 -2.52408 0
M  V30 6043 H 566.636 -0.775702 -1.21321 0
M  V30 6044 H 568.589 0.148001 -4.2114 0
M  V30 6045 H 567.313 0.814755 -3.16274 0
M  V30 6046 H 565.972 -1.30128 -3.42728 0
M  V30 6047 H 565.62 0.617772 -4.99192 0
M  V30 6048 H 565.32 -0.941209 -5.80013 0
M  V30 6049 H 566.844 -0.0602747 -6.1057 0
M  V30 6050 H 568.258 -2.18424 -5.3006 0
M  V30 6051 H 566.655 -2.97069 -5.21412 0
M  V30 6052 H 567.725 -3.01067 -3.80114 0
M  V30 6053 N 569.068 1.32177 -0.85831 0
M  V30 6054 C 570 2.27688 -0.262835 0
M  V30 6055 C 571.013 1.52588 0.567513 0
M  V30 6056 O 572.202 1.74156 0.391407 0
M  V30 6057 C 569.302 3.32668 0.646937 0
M  V30 6058 C 568.475 4.37148 -0.148372 0
M  V30 6059 C 567.534 5.21686 0.687728 0
M  V30 6060 O 566.56 5.69074 0.119934 0
M  V30 6061 N 567.762 5.44892 2.00182 0
M  V30 6062 H 570.527 2.79426 -1.08356 0
M  V30 6063 H 568.088 1.45076 -0.718647 0
M  V30 6064 H 570.08 3.86134 1.2117 0
M  V30 6065 H 568.65 2.81061 1.36834 0
M  V30 6066 H 567.87 3.83915 -0.894572 0
M  V30 6067 H 569.158 5.04038 -0.694514 0
M  V30 6068 H 568.556 5.08128 2.4864 0
M  V30 6069 H 567.113 6.0134 2.51463 0
M  V30 6070 N 570.547 0.616602 1.45037 0
M  V30 6071 C 571.51 -0.0871112 2.29034 0
M  V30 6072 C 572.51 -0.786414 1.40258 0
M  V30 6073 O 573.7 -0.633207 1.62284 0
M  V30 6074 C 570.832 -1.13369 3.21497 0
M  V30 6075 H 572.025 0.651497 2.92738 0
M  V30 6076 H 569.578 0.376058 1.51709 0
M  V30 6077 H 570.313 -1.90277 2.62612 0
M  V30 6078 H 570.098 -0.636358 3.86902 0
M  V30 6079 H 571.588 -1.62627 3.84633 0
M  V30 6080 N 572.025 -1.5352 0.356285 0
M  V30 6081 C 572.973 -2.26945 -0.50978 0
M  V30 6082 C 573.967 -1.29569 -1.09125 0
M  V30 6083 O 575.173 -1.47231 -1.03552 0
M  V30 6084 H 571.548 -0.729368 -0.183102 0
M  V30 6085 H 573.519 -2.98111 0.131374 0
M  V30 6086 C 572.268 -3.06466 -1.64237 0
M  V30 6087 H 571.591 -3.81233 -1.20423 0
M  V30 6088 H 573.031 -3.61035 -2.22327 0
M  V30 6089 C 571.49 -2.16737 -2.57928 0
M  V30 6090 O 572.02 -1.77195 -3.60507 0
M  V30 6091 N 570.226 -1.81558 -2.26903 0
M  V30 6092 H 569.773 -2.13913 -1.43524 0
M  V30 6093 H 569.731 -1.21806 -2.89846 0
M  V30 6094 N 573.503 -0.0852151 -1.57369 0
M  V30 6095 C 574.453 0.88767 -2.10011 0
M  V30 6096 C 575.437 1.25021 -1.01285 0
M  V30 6097 O 576.629 1.22694 -1.27574 0
M  V30 6098 C 573.758 2.15037 -2.67608 0
M  V30 6099 C 572.844 1.81371 -3.83361 0
M  V30 6100 N 573.235 1.18216 -4.91791 0
M  V30 6101 C 571.533 2.11041 -3.92909 0
M  V30 6102 C 572.234 1.02941 -5.72519 0
M  V30 6103 N 571.21 1.54351 -5.21226 0
M  V30 6104 H 575.012 0.395279 -2.9123 0
M  V30 6105 H 572.526 0.11829 -1.61969 0
M  V30 6106 H 574.523 2.85667 -3.03644 0
M  V30 6107 H 573.183 2.64851 -1.8784 0
M  V30 6108 H 574.194 0.850168 -5.10874 0
M  V30 6109 H 570.871 2.63138 -3.24136 0
M  V30 6110 H 572.261 0.536298 -6.69756 0
M  V30 6111 N 574.981 1.5647 0.188427 0
M  V30 6112 C 576.392 1.70864 0.752494 0
M  V30 6113 C 576.743 0.692905 1.83557 0
M  V30 6114 O 575.868 -0.149307 2.15884 0
M  V30 6115 C 576.463 3.09789 1.37173 0
M  V30 6116 C 575.022 3.25925 1.88281 0
M  V30 6117 C 574.169 2.66817 0.755259 0
M  V30 6118 H 577.12 1.58657 -0.0367408 0
M  V30 6119 H 577.141 3.07489 2.24122 0
M  V30 6120 H 576.653 3.83693 0.583219 0
M  V30 6121 H 574.754 2.56948 2.6983 0
M  V30 6122 H 574.867 4.33498 2.04001 0
M  V30 6123 H 573.231 2.2617 1.17128 0
M  V30 6124 H 574.014 3.43294 -0.0211237 0
M  V30 6125 N 576.459 -0.456382 1.50847 0
M  V30 6126 C 577.736 -1.21739 1.53098 0
M  V30 6127 C 578.116 -2.09179 0.284132 0
M  V30 6128 O 577.464 -2.16466 -0.731773 0
M  V30 6129 C 577.674 -2.03573 2.83477 0
M  V30 6130 C 579.022 -2.61264 3.34703 0
M  V30 6131 O 580.046 -2.13802 2.84898 0
M  V30 6132 O 578.905 -3.47779 4.21559 0
M  V30 6133 H 575.999 -0.553219 0.614718 0
M  V30 6134 H 578.545 -0.467003 1.63148 0
M  V30 6135 H 577.317 -1.39232 3.65691 0
M  V30 6136 H 576.94 -2.85716 2.76499 0
M  V30 6137 N 577.937 -1.40673 -0.710563 0
M  V30 6138 C 578.9 -1.4108 -1.80635 0
M  V30 6139 C 579.9 -0.303783 -1.57904 0
M  V30 6140 O 581.09 -0.562937 -1.64853 0
M  V30 6141 C 578.222 -1.20748 -3.18799 0
M  V30 6142 H 579.415 -2.38612 -1.81671 0
M  V30 6143 H 576.968 -1.26595 -0.916704 0
M  V30 6144 H 577.703 -0.239964 -3.23411 0
M  V30 6145 H 577.488 -2.00941 -3.36698 0
M  V30 6146 H 578.978 -1.23833 -3.98817 0
M  V30 6147 N 579.415 0.9433 -1.26252 0
M  V30 6148 C 580.347 2.04542 -1.03417 0
M  V30 6149 C 581.36 1.62799 0.0046911 0
M  V30 6150 O 582.549 1.76944 -0.235146 0
M  V30 6151 C 579.649 3.34511 -0.543671 0
M  V30 6152 C 578.822 4.05033 -1.65128 0
M  V30 6153 C 577.881 5.13273 -1.1592 0
M  V30 6154 O 576.907 5.38095 -1.85586 0
M  V30 6155 N 578.109 5.805 -0.00649279 0
M  V30 6156 H 580.874 2.24699 -1.98319 0
M  V30 6157 H 578.435 1.11264 -1.1761 0
M  V30 6158 H 580.427 4.04212 -0.198703 0
M  V30 6159 H 578.997 3.11042 0.311711 0
M  V30 6160 H 578.217 3.29275 -2.16729 0
M  V30 6161 H 579.505 4.48903 -2.39508 0
M  V30 6162 H 578.903 5.62767 0.575347 0
M  V30 6163 H 577.46 6.51201 0.279416 0
M  V30 6164 N 580.893 1.08022 1.14757 0
M  V30 6165 C 582.123 0.827646 1.89298 0
M  V30 6166 C 582.531 -0.623506 1.78631 0
M  V30 6167 O 581.874 -1.43991 1.14071 0
M  V30 6168 C 581.936 1.16553 3.40082 0
M  V30 6169 C 581.6 2.61866 3.74533 0
M  V30 6170 C 582.597 3.60116 3.74984 0
M  V30 6171 C 580.282 2.97619 4.04633 0
M  V30 6172 C 582.276 4.92151 4.05051 0
M  V30 6173 C 579.963 4.2985 4.34364 0
M  V30 6174 C 580.961 5.26926 4.34555 0
M  V30 6175 O 580.649 6.5678 4.63568 0
M  V30 6176 H 580.381 0.298396 0.606577 0
M  V30 6177 H 582.935 1.44187 1.46285 0
M  V30 6178 H 581.165 0.494296 3.83528 0
M  V30 6179 H 582.854 0.894407 3.95923 0
M  V30 6180 H 583.62 3.33837 3.51821 0
M  V30 6181 H 579.499 2.22702 4.03639 0
M  V30 6182 H 583.043 5.67915 4.05115 0
M  V30 6183 H 578.94 4.55879 4.56995 0
M  V30 6184 H 579.708 6.62035 4.81303 0
M  V30 6185 N 582.371 -1.3172 0.865308 0
M  V30 6186 C 583.301 -2.31109 0.333302 0
M  V30 6187 C 584.282 -1.60148 -0.573301 0
M  V30 6188 O 585.467 -1.87882 -0.491305 0
M  V30 6189 C 582.597 -3.44104 -0.470078 0
M  V30 6190 C 581.551 -4.26623 0.343021 0
M  V30 6191 C 580.877 -5.31482 -0.585756 0
M  V30 6192 C 582.177 -4.98001 1.57456 0
M  V30 6193 H 583.871 -2.75855 1.1638 0
M  V30 6194 H 581.417 -1.3262 0.561069 0
M  V30 6195 H 583.37 -4.12682 -0.852752 0
M  V30 6196 H 582.094 -2.98112 -1.33404 0
M  V30 6197 H 580.753 -3.59707 0.707583 0
M  V30 6198 H 580.401 -4.81741 -1.44686 0
M  V30 6199 H 580.101 -5.87582 -0.0456494 0
M  V30 6200 H 581.625 -6.0292 -0.965375 0
M  V30 6201 H 583.039 -5.59201 1.26359 0
M  V30 6202 H 581.436 -5.63876 2.05339 0
M  V30 6203 H 582.506 -4.25253 2.32997 0
M  V30 6204 N 583.85 -0.624285 -1.44708 0
M  V30 6205 C 585.096 -0.126051 -2.02107 0
M  V30 6206 C 585.425 1.2496 -1.49048 0
M  V30 6207 O 584.68 1.84163 -0.662005 0
M  V30 6208 C 584.979 -0.0546353 -3.57358 0
M  V30 6209 C 584.644 -1.36815 -4.29642 0
M  V30 6210 C 583.307 -1.72792 -4.49106 0
M  V30 6211 C 585.659 -2.23549 -4.70824 0
M  V30 6212 C 582.986 -2.95222 -5.07012 0
M  V30 6213 C 585.339 -3.45243 -5.30085 0
M  V30 6214 C 584.003 -3.81452 -5.47769 0
M  V30 6215 H 583.273 -0.0461252 -0.739563 0
M  V30 6216 H 585.92 -0.809236 -1.73562 0
M  V30 6217 H 584.225 0.711891 -3.85278 0
M  V30 6218 H 585.922 0.347282 -3.99493 0
M  V30 6219 H 582.512 -1.07817 -4.14817 0
M  V30 6220 H 586.696 -1.9705 -4.55505 0
M  V30 6221 H 581.952 -3.23361 -5.18891 0
M  V30 6222 H 586.125 -4.12689 -5.60946 0
M  V30 6223 H 583.753 -4.76403 -5.92405 0
M  V30 6224 N 585.328 1.53329 -0.364422 0
M  V30 6225 C 586.739 1.86345 0.115039 0
M  V30 6226 C 587.09 1.28505 1.4826 0
M  V30 6227 O 586.215 0.606639 2.07723 0
M  V30 6228 C 586.81 3.38114 0.215522 0
M  V30 6229 C 585.369 3.70932 0.639237 0
M  V30 6230 C 584.516 2.76471 -0.214261 0
M  V30 6231 H 587.467 1.47593 -0.583258 0
M  V30 6232 H 587.488 3.66031 1.0393 0
M  V30 6233 H 587 3.80182 -0.779948 0
M  V30 6234 H 585.101 3.3442 1.64298 0
M  V30 6235 H 585.214 4.77302 0.41465 0
M  V30 6236 H 583.578 2.52724 0.316678 0
M  V30 6237 H 584.361 3.21373 -1.20725 0
M  V30 6238 N 586.806 0.0935595 1.57322 0
M  V30 6239 C 587.753 -0.865935 2.1394 0
M  V30 6240 C 588.723 -1.28083 1.05754 0
M  V30 6241 O 589.908 -1.36285 1.33533 0
M  V30 6242 C 587.048 -2.12023 2.72287 0
M  V30 6243 C 586.161 -1.756 3.94701 0
M  V30 6244 C 585.296 -2.95804 4.41218 0
M  V30 6245 C 584.335 -2.555 5.56225 0
M  V30 6246 N 583.472 -3.68534 5.97601 0
M  V30 6247 H 588.312 -0.376261 2.95615 0
M  V30 6248 H 585.849 -0.174052 1.46067 0
M  V30 6249 H 587.807 -2.85477 3.04235 0
M  V30 6250 H 586.437 -2.58492 1.93343 0
M  V30 6251 H 585.489 -0.921208 3.69077 0
M  V30 6252 H 586.801 -1.41964 4.78171 0
M  V30 6253 H 585.955 -3.77513 4.74941 0
M  V30 6254 H 584.694 -3.32649 3.56645 0
M  V30 6255 H 583.699 -1.72218 5.22131 0
M  V30 6256 H 584.924 -2.19801 6.42545 0
M  V30 6257 H 582.87 -4.051 5.15974 0
M  V30 6258 H 582.787 -3.38737 6.75865 0
M  V30 6259 H 584.055 -4.50757 6.35955 0
M  V30 6260 N 588.284 -1.56567 -0.180126 0
M  V30 6261 C 589.214 -1.98753 -1.22553 0
M  V30 6262 C 590.195 -0.86175 -1.46656 0
M  V30 6263 O 591.38 -1.12719 -1.58139 0
M  V30 6264 C 588.51 -2.33988 -2.56645 0
M  V30 6265 C 587.464 -3.49445 -2.47128 0
M  V30 6266 C 586.79 -3.70397 -3.8563 0
M  V30 6267 C 588.09 -4.83171 -1.98352 0
M  V30 6268 H 589.784 -2.86332 -0.874896 0
M  V30 6269 H 587.33 -1.37757 -0.419414 0
M  V30 6270 H 589.283 -2.62097 -3.29974 0
M  V30 6271 H 588.007 -1.43309 -2.93479 0
M  V30 6272 H 586.666 -3.2145 -1.76254 0
M  V30 6273 H 586.314 -2.77023 -4.19842 0
M  V30 6274 H 586.014 -4.48077 -3.80132 0
M  V30 6275 H 587.538 -4.00897 -4.60558 0
M  V30 6276 H 588.952 -5.10213 -2.61449 0
M  V30 6277 H 587.349 -5.64425 -2.03823 0
M  V30 6278 H 588.419 -4.75753 -0.937402 0
M  V30 6279 N 589.762 0.448376 -1.51087 0
M  V30 6280 C 590.692 1.55102 -1.74544 0
M  V30 6281 C 591.673 1.59357 -0.594932 0
M  V30 6282 O 592.858 1.75261 -0.836491 0
M  V30 6283 C 589.988 2.93268 -1.86041 0
M  V30 6284 C 588.942 3.03877 -3.01402 0
M  V30 6285 C 588.268 4.43914 -2.98068 0
M  V30 6286 C 589.568 2.7898 -4.41551 0
M  V30 6287 H 591.262 1.35724 -2.66869 0
M  V30 6288 H 588.808 0.651498 -1.28419 0
M  V30 6289 H 590.761 3.70356 -2.01034 0
M  V30 6290 H 589.485 3.13853 -0.903548 0
M  V30 6291 H 588.144 2.29227 -2.86096 0
M  V30 6292 H 587.792 4.6145 -2.00182 0
M  V30 6293 H 587.492 4.51944 -3.75527 0
M  V30 6294 H 589.016 5.22991 -3.1514 0
M  V30 6295 H 590.43 3.45805 -4.57265 0
M  V30 6296 H 588.827 2.98431 -5.20633 0
M  V30 6297 H 589.897 1.74663 -4.5235 0
M  V30 6298 N 591.24 1.41047 0.703093 0
M  V30 6299 C 592.172 1.38228 1.82827 0
M  V30 6300 C 593.185 0.285637 1.60275 0
M  V30 6301 O 594.374 0.54685 1.69917 0
M  V30 6302 C 591.474 1.13136 3.19458 0
M  V30 6303 C 590.647 2.34695 3.69103 0
M  V30 6304 C 589.706 2.05574 4.84382 0
M  V30 6305 O 588.732 2.78549 4.96386 0
M  V30 6306 N 589.934 1.04135 5.71083 0
M  V30 6307 H 592.699 2.35203 1.85741 0
M  V30 6308 H 590.26 1.35562 0.885125 0
M  V30 6309 H 592.252 0.916183 3.94193 0
M  V30 6310 H 590.822 0.247836 3.11616 0
M  V30 6311 H 590.042 2.71963 2.85359 0
M  V30 6312 H 591.33 3.15705 3.99009 0
M  V30 6313 H 590.728 0.43722 5.64008 0
M  V30 6314 H 589.285 0.886078 6.45749 0
M  V30 6315 N 592.718 -0.936591 1.26751 0
M  V30 6316 C 593.665 -2.03597 1.08706 0
M  V30 6317 C 594.635 -1.66097 -0.00926542 0
M  V30 6318 O 595.82 -1.90199 0.151377 0
M  V30 6319 C 592.96 -3.3727 0.73094 0
M  V30 6320 C 592.073 -3.87778 1.90399 0
M  V30 6321 C 591.208 -5.09859 1.49056 0
M  V30 6322 C 590.247 -5.5264 2.63164 0
M  V30 6323 N 589.384 -6.65921 2.22471 0
M  V30 6324 H 594.224 -2.18364 2.02784 0
M  V30 6325 H 591.761 -1.06985 1.00958 0
M  V30 6326 H 593.719 -4.14128 0.505328 0
M  V30 6327 H 592.349 -3.22337 -0.172868 0
M  V30 6328 H 591.401 -3.07279 2.2424 0
M  V30 6329 H 592.713 -4.15464 2.76028 0
M  V30 6330 H 591.867 -5.9419 1.22567 0
M  V30 6331 H 590.606 -4.8393 0.60524 0
M  V30 6332 H 589.611 -4.66863 2.90377 0
M  V30 6333 H 590.836 -5.80568 3.52303 0
M  V30 6334 H 588.782 -6.41667 1.36379 0
M  V30 6335 H 588.699 -6.93216 3.01641 0
M  V30 6336 H 589.967 -7.53616 1.99205 0
M  V30 6337 N 594.196 -1.08629 -1.14182 0
M  V30 6338 C 595.129 -0.662329 -2.18377 0
M  V30 6339 C 596.107 0.327054 -1.59277 0
M  V30 6340 O 597.291 0.230376 -1.87087 0
M  V30 6341 C 594.418 0.0254765 -3.3869 0
M  V30 6342 C 593.464 -0.924414 -4.16361 0
M  V30 6343 S 594.297 -2.43226 -4.77076 0
M  V30 6344 C 595.453 -1.75663 -6.00744 0
M  V30 6345 H 595.686 -1.54501 -2.54001 0
M  V30 6346 H 593.219 -0.901484 -1.2535 0
M  V30 6347 H 595.177 0.416032 -4.08386 0
M  V30 6348 H 593.838 0.884689 -3.01384 0
M  V30 6349 H 593.031 -0.390099 -5.02488 0
M  V30 6350 H 592.633 -1.25598 -3.5228 0
M  V30 6351 H 594.925 -1.07589 -6.68903 0
M  V30 6352 H 595.868 -2.59673 -6.58768 0
M  V30 6353 H 596.276 -1.22903 -5.50958 0
M  V30 6354 N 595.674 1.31259 -0.872281 0
M  V30 6355 C 596.637 2.26744 -0.334656 0
M  V30 6356 C 597.637 1.52307 0.515681 0
M  V30 6357 O 598.827 1.71148 0.324656 0
M  V30 6358 C 595.959 3.36841 0.524482 0
M  V30 6359 H 597.152 2.75812 -1.17762 0
M  V30 6360 H 594.705 1.42232 -0.648064 0
M  V30 6361 H 595.44 2.93069 1.38855 0
M  V30 6362 H 595.225 3.92009 -0.0844299 0
M  V30 6363 H 596.715 4.07944 0.892838 0
M  V30 6364 N 597.152 0.631951 1.44375 0
M  V30 6365 C 598.429 0.067646 1.95483 0
M  V30 6366 C 598.809 -1.40683 1.57389 0
M  V30 6367 O 598.157 -2.12167 0.848375 0
M  V30 6368 C 598.367 0.291392 3.47781 0
M  V30 6369 C 599.715 0.185028 4.24197 0
M  V30 6370 O 600.739 0.222803 3.55503 0
M  V30 6371 O 599.598 0.0906642 5.46425 0
M  V30 6372 H 596.692 -0.0218379 0.826712 0
M  V30 6373 H 599.238 0.703711 1.54421 0
M  V30 6374 H 598.01 1.31449 3.68561 0
M  V30 6375 H 597.633 -0.378772 3.95792 0
M  V30 6376 N 598.631 -1.53133 0.372548 0
M  V30 6377 C 599.561 -2.28876 -0.462412 0
M  V30 6378 C 600.542 -1.31583 -1.07796 0
M  V30 6379 O 601.727 -1.60461 -1.09389 0
M  V30 6380 C 598.857 -3.08317 -1.59868 0
M  V30 6381 C 597.811 -4.13355 -1.11003 0
M  V30 6382 C 597.137 -4.8092 -2.33708 0
M  V30 6383 C 598.437 -5.21955 -0.18983 0
M  V30 6384 H 600.131 -2.9892 0.169511 0
M  V30 6385 H 597.677 -1.43761 0.0829658 0
M  V30 6386 H 599.63 -3.60055 -2.18949 0
M  V30 6387 H 598.354 -2.35976 -2.25794 0
M  V30 6388 H 597.013 -3.62573 -0.541869 0
M  V30 6389 H 596.661 -4.05144 -2.98106 0
M  V30 6390 H 596.361 -5.51904 -2.01682 0
M  V30 6391 H 597.885 -5.35455 -2.93462 0
M  V30 6392 H 599.299 -5.69153 -0.688319 0
M  V30 6393 H 597.696 -6.00087 0.0398887 0
M  V30 6394 H 598.766 -4.78811 0.766057 0
M  V30 6395 N 600.109 -0.101901 -1.5727 0
M  V30 6396 C 601.525 0.254739 -1.57554 0
M  V30 6397 C 601.725 1.67937 -1.11352 0
M  V30 6398 O 600.781 2.39722 -0.793081 0
M  V30 6399 C 602.094 0.036975 -3.00677 0
M  V30 6400 C 603.642 0.104199 -3.12827 0
M  V30 6401 C 604.117 -0.0856565 -4.5792 0
M  V30 6402 N 605.608 -0.0310498 -4.6319 0
M  V30 6403 C 606.343 -0.153099 -5.73196 0
M  V30 6404 N 605.839 -0.330364 -6.92012 0
M  V30 6405 N 607.632 -0.0938854 -5.62022 0
M  V30 6406 H 599.783 -1.03263 -1.85609 0
M  V30 6407 H 602.046 -0.405251 -0.857016 0
M  V30 6408 H 601.752 -0.947254 -3.38703 0
M  V30 6409 H 601.626 0.776335 -3.69124 0
M  V30 6410 H 604.013 1.07894 -2.74669 0
M  V30 6411 H 604.094 -0.666762 -2.46957 0
M  V30 6412 H 603.738 -1.05729 -4.96773 0
M  V30 6413 H 603.668 0.705082 -5.21858 0
M  V30 6414 H 606.159 0.103141 -3.77759 0
M  V30 6415 H 606.472 -0.41482 -7.71686 0
M  V30 6416 H 604.817 -0.366119 -6.94035 0
M  V30 6417 H 608.008 0.0435168 -4.6808 0
M  V30 6418 H 608.181 -0.19245 -6.47714 0
M  V30 6419 N 601.587 1.56661 0.17182 0
M  V30 6420 C 602.519 1.92934 1.2373 0
M  V30 6421 C 603.532 0.822385 1.40502 0
M  V30 6422 O 604.721 1.10083 1.40514 0
M  V30 6423 C 601.821 2.16651 2.60607 0
M  V30 6424 C 600.994 3.47878 2.6514 0
M  V30 6425 C 600.053 3.60429 3.83377 0
M  V30 6426 O 599.079 4.33051 3.69398 0
M  V30 6427 N 600.281 2.95241 4.99813 0
M  V30 6428 H 603.046 2.84931 0.929205 0
M  V30 6429 H 600.607 1.5781 0.361588 0
M  V30 6430 H 602.599 2.22312 3.38171 0
M  V30 6431 H 601.169 1.3104 2.83809 0
M  V30 6432 H 600.389 3.53879 1.73675 0
M  V30 6433 H 601.677 4.34232 2.6518 0
M  V30 6434 H 601.075 2.3611 5.14071 0
M  V30 6435 H 599.632 3.06499 5.75241 0
M  V30 6436 N 603.065 -0.440357 1.51323 0
M  V30 6437 C 603.995 -1.54174 1.75364 0
M  V30 6438 C 604.976 -1.59039 0.603375 0
M  V30 6439 O 606.161 -1.74815 0.845774 0
M  V30 6440 C 603.291 -2.92277 1.87593 0
M  V30 6441 C 602.245 -3.02274 3.03009 0
M  V30 6442 C 601.571 -4.42327 3.00418 0
M  V30 6443 C 602.871 -2.76634 4.43024 0
M  V30 6444 H 604.565 -1.34307 2.67585 0
M  V30 6445 H 602.111 -0.644678 1.28763 0
M  V30 6446 H 604.064 -3.69284 2.02995 0
M  V30 6447 H 602.788 -3.13369 0.920179 0
M  V30 6448 H 601.447 -2.27706 2.87307 0
M  V30 6449 H 601.095 -4.60382 2.02626 0
M  V30 6450 H 600.795 -4.49946 3.77918 0
M  V30 6451 H 602.319 -5.21312 3.17909 0
M  V30 6452 H 603.733 -3.43376 4.59093 0
M  V30 6453 H 602.13 -2.95666 5.22208 0
M  V30 6454 H 603.2 -1.72262 4.5327 0
M  V30 6455 N 604.543 -1.41418 -0.695603 0
M  V30 6456 C 605.789 -1.40982 -1.4578 0
M  V30 6457 C 606.122 -0.0187763 -1.94191 0
M  V30 6458 O 605.397 0.95346 -1.69527 0
M  V30 6459 C 605.68 -2.41657 -2.66972 0
M  V30 6460 C 605.533 -3.89869 -2.24327 0
M  V30 6461 C 606.852 -2.39589 -3.69168 0
M  V30 6462 H 603.971 -0.513405 -0.528757 0
M  V30 6463 H 606.613 -1.72693 -0.792275 0
M  V30 6464 H 604.763 -2.14746 -3.23754 0
M  V30 6465 H 606.435 -4.27683 -1.72872 0
M  V30 6466 H 604.678 -4.04737 -1.56111 0
M  V30 6467 H 605.349 -4.55857 -3.11285 0
M  V30 6468 H 607.825 -2.63471 -3.2206 0
M  V30 6469 H 606.701 -3.12044 -4.51575 0
M  V30 6470 H 606.962 -1.41447 -4.18862 0
M  V30 6471 N 606.021 0.929856 -1.27246 0
M  V30 6472 C 607.249 1.71144 -1.16265 0
M  V30 6473 C 607.664 1.867 0.280786 0
M  V30 6474 O 607.021 1.38249 1.19136 0
M  V30 6475 C 607.072 3.11222 -1.83911 0
M  V30 6476 O 606.793 2.96398 -3.22614 0
M  V30 6477 C 608.294 4.05541 -1.79028 0
M  V30 6478 H 605.514 0.535499 -0.404328 0
M  V30 6479 H 608.058 1.16492 -1.68077 0
M  V30 6480 H 606.213 3.6274 -1.36009 0
M  V30 6481 H 606.627 3.8494 -3.56261 0
M  V30 6482 H 608.101 5.01351 -2.30978 0
M  V30 6483 H 608.578 4.32589 -0.759168 0
M  V30 6484 H 609.184 3.59947 -2.26535 0
M  V30 6485 N 607.499 1.09233 1.13605 0
M  V30 6486 C 608.409 0.741939 2.22559 0
M  V30 6487 C 609.425 -0.255236 1.72118 0
M  V30 6488 O 610.601 -0.0970747 2.01166 0
M  V30 6489 C 607.666 0.165595 3.46304 0
M  V30 6490 C 606.727 1.21846 4.11645 0
M  V30 6491 C 605.96 0.669526 5.29484 0
M  V30 6492 O 606.183 -0.508228 5.68131 0
M  V30 6493 O 605.117 1.42361 5.84822 0
M  V30 6494 H 608.943 1.65107 2.54899 0
M  V30 6495 H 606.528 0.866584 1.21699 0
M  V30 6496 H 608.41 -0.152592 4.21124 0
M  V30 6497 H 607.085 -0.716573 3.15669 0
M  V30 6498 H 605.992 1.58931 3.38662 0
M  V30 6499 H 607.325 2.07321 4.46407 0
M  V30 6500 N 608.977 -1.30795 0.87923 0
M  V30 6501 C 609.927 -2.25838 0.313276 0
M  V30 6502 C 610.911 -1.51025 -0.55499 0
M  V30 6503 O 612.103 -1.72413 -0.400353 0
M  V30 6504 C 609.232 -3.39981 -0.476204 0
M  V30 6505 C 608.318 -4.22154 0.405826 0
M  V30 6506 N 608.709 -4.82934 1.50362 0
M  V30 6507 C 607.007 -4.45552 0.199909 0
M  V30 6508 C 607.708 -5.44444 2.0483 0
M  V30 6509 N 606.684 -5.26723 1.34403 0
M  V30 6510 H 610.486 -2.70374 1.15218 0
M  V30 6511 H 608 -1.45168 0.728003 0
M  V30 6512 H 609.997 -4.07108 -0.898251 0
M  V30 6513 H 608.657 -2.96986 -1.31261 0
M  V30 6514 H 609.668 -4.82319 1.8865 0
M  V30 6515 H 606.345 -4.13169 -0.599795 0
M  V30 6516 H 607.735 -6.02701 2.96986 0
M  V30 6517 N 610.455 -0.639598 -1.44038 0
M  V30 6518 C 611.418 0.0506628 -2.29144 0
M  V30 6519 C 612.418 0.764001 -1.41491 0
M  V30 6520 O 613.608 0.607309 -1.63271 0
M  V30 6521 C 610.74 1.0824 -3.2326 0
M  V30 6522 H 611.933 -0.697987 -2.91664 0
M  V30 6523 H 609.486 -0.400146 -1.51091 0
M  V30 6524 H 610.221 1.86075 -2.65606 0
M  V30 6525 H 610.006 0.574725 -3.87865 0
M  V30 6526 H 611.496 1.56487 -3.87171 0
M  V30 6527 N 611.933 1.52934 -0.380664 0
M  V30 6528 C 612.865 2.23822 0.493581 0
M  V30 6529 C 613.878 1.25761 1.03383 0
M  V30 6530 O 615.067 1.5189 0.937633 0
M  V30 6531 C 612.167 2.9342 1.69582 0
M  V30 6532 C 611.34 4.18115 1.28445 0
M  V30 6533 C 610.399 4.70788 2.35042 0
M  V30 6534 O 609.425 5.34093 1.96807 0
M  V30 6535 N 610.627 4.49899 3.66839 0
M  V30 6536 H 613.392 2.99484 -0.11371 0
M  V30 6537 H 610.953 1.60577 -0.206587 0
M  V30 6538 H 612.945 3.2556 2.40401 0
M  V30 6539 H 611.515 2.21119 2.20965 0
M  V30 6540 H 610.735 3.92109 0.405503 0
M  V30 6541 H 612.023 4.99152 0.986132 0
M  V30 6542 H 611.421 3.99349 4.0067 0
M  V30 6543 H 609.978 4.86551 4.33718 0
M  V30 6544 N 613.412 0.11024 1.57214 0
M  V30 6545 C 614.345 -0.880224 2.1054 0
M  V30 6546 C 615.323 -1.26658 1.01964 0
M  V30 6547 O 616.507 -1.36917 1.29561 0
M  V30 6548 C 613.634 -2.17676 2.59489 0
M  V30 6549 C 612.68 -1.93914 3.79868 0
M  V30 6550 S 613.513 -1.16336 5.2271 0
M  V30 6551 C 614.669 -2.47188 5.75021 0
M  V30 6552 H 614.902 -0.426614 2.94223 0
M  V30 6553 H 612.435 -0.10336 1.54054 0
M  V30 6554 H 614.393 -2.92175 2.88347 0
M  V30 6555 H 613.054 -2.60156 1.76005 0
M  V30 6556 H 612.247 -2.8996 4.12236 0
M  V30 6557 H 611.849 -1.27539 3.51582 0
M  V30 6558 H 614.141 -3.43079 5.84211 0
M  V30 6559 H 615.084 -2.19377 6.7326 0
M  V30 6560 H 615.492 -2.56154 5.03036 0
M  V30 6561 N 614.89 -1.56749 -0.16351 0
M  V30 6562 C 615.823 -1.9213 -1.23132 0
M  V30 6563 C 616.801 -0.785047 -1.42393 0
M  V30 6564 O 617.985 -1.0391 -1.57273 0
M  V30 6565 C 615.112 -2.17901 -2.59301 0
M  V30 6566 C 614.158 -3.40576 -2.5673 0
M  V30 6567 S 614.991 -4.94689 -2.05045 0
M  V30 6568 C 616.147 -5.23564 -3.42975 0
M  V30 6569 H 616.38 -2.824 -0.929383 0
M  V30 6570 H 613.913 -1.4994 -0.368418 0
M  V30 6571 H 615.871 -2.33429 -3.3767 0
M  V30 6572 H 614.532 -1.28324 -2.86691 0
M  V30 6573 H 613.725 -3.55833 -3.5693 0
M  V30 6574 H 613.327 -3.24204 -1.86462 0
M  V30 6575 H 615.619 -5.16019 -4.3901 0
M  V30 6576 H 616.562 -6.25134 -3.32586 0
M  V30 6577 H 616.97 -4.51113 -3.39348 0
M  V30 6578 N 616.368 0.432326 -1.51554 0
M  V30 6579 C 617.3 1.54357 -1.6943 0
M  V30 6580 C 618.313 1.52311 -0.574897 0
M  V30 6581 O 619.502 1.56997 -0.849369 0
M  V30 6582 C 616.602 2.93273 -1.69836 0
M  V30 6583 C 615.775 3.19768 -2.98442 0
M  V30 6584 C 614.834 4.38433 -2.90969 0
M  V30 6585 O 613.86 4.36842 -3.64908 0
M  V30 6586 N 615.062 5.42276 -2.07163 0
M  V30 6587 H 617.827 1.39426 -2.65293 0
M  V30 6588 H 615.388 0.621331 -1.49503 0
M  V30 6589 H 617.38 3.70687 -1.62399 0
M  V30 6590 H 615.95 3.01777 -0.815456 0
M  V30 6591 H 615.17 2.30607 -3.19709 0
M  V30 6592 H 616.458 3.343 -3.83563 0
M  V30 6593 H 615.856 5.46407 -1.46477 0
M  V30 6594 H 614.413 6.18524 -2.05601 0
M  V30 6595 N 617.846 1.41785 0.688094 0
M  V30 6596 C 619.262 1.24419 0.999608 0
M  V30 6597 C 619.462 0.138868 2.01021 0
M  V30 6598 O 618.518 -0.494283 2.47615 0
M  V30 6599 C 619.831 2.59625 1.51709 0
M  V30 6600 C 621.379 2.66869 1.63554 0
M  V30 6601 C 621.854 4.0241 2.18702 0
M  V30 6602 N 623.345 4.04295 2.26053 0
M  V30 6603 C 624.08 5.05977 2.69768 0
M  V30 6604 N 623.576 6.18047 3.13033 0
M  V30 6605 N 625.369 4.93336 2.69398 0
M  V30 6606 H 617.52 2.12392 0.0187427 0
M  V30 6607 H 619.783 0.945347 0.0708673 0
M  V30 6608 H 619.489 3.41297 0.849059 0
M  V30 6609 H 619.363 2.82628 2.49803 0
M  V30 6610 H 621.75 1.8555 2.29467 0
M  V30 6611 H 621.831 2.47668 0.639857 0
M  V30 6612 H 621.475 4.8418 1.53402 0
M  V30 6613 H 621.405 4.18955 3.19037 0
M  V30 6614 H 623.896 3.23383 1.9553 0
M  V30 6615 H 624.209 6.91498 3.45038 0
M  V30 6616 H 622.554 6.21572 3.10923 0
M  V30 6617 H 625.745 4.04865 2.34952 0
M  V30 6618 H 625.918 5.72717 3.03148 0
M  V30 6619 N 619.324 -0.923095 1.27737 0
M  V30 6620 C 620.573 -1.66581 1.13727 0
M  V30 6621 C 620.886 -1.9304 -0.315433 0
M  V30 6622 O 622.092 -2.65309 -0.57651 0
M  V30 6623 C 620.548 -3.00047 1.98745 0
M  V30 6624 C 620.156 -2.8127 3.48699 0
M  V30 6625 C 621.9 -3.77887 1.93395 0
M  V30 6626 C 619.807 -4.1032 4.25901 0
M  V30 6627 H 618.737 -0.624834 0.422017 0
M  V30 6628 H 621.388 -1.02514 1.52194 0
M  V30 6629 H 619.77 -3.65197 1.53125 0
M  V30 6630 H 620.944 -2.24859 4.02213 0
M  V30 6631 H 619.259 -2.16854 3.55476 0
M  V30 6632 H 621.856 -4.73526 2.48348 0
M  V30 6633 H 622.199 -4.06264 0.908605 0
M  V30 6634 H 622.732 -3.19541 2.36935 0
M  V30 6635 H 619.471 -3.8712 5.28978 0
M  V30 6636 H 618.991 -4.66377 3.77163 0
M  V30 6637 H 620.67 -4.78648 4.35321 0
M  V30 6638 N 620.802 -1.09834 -1.13024 0
M  V30 6639 C 621.749 -0.741522 -2.18564 0
M  V30 6640 C 622.719 0.279236 -1.63736 0
M  V30 6641 O 623.904 0.159923 -1.90129 0
M  V30 6642 C 621.044 -0.17277 -3.44667 0
M  V30 6643 C 620.157 -1.24808 -4.13578 0
M  V30 6644 C 619.292 -0.641631 -5.27311 0
M  V30 6645 C 618.331 -1.69795 -5.88078 0
M  V30 6646 N 617.468 -1.11223 -6.93234 0
M  V30 6647 H 622.308 -1.64576 -2.48432 0
M  V30 6648 H 619.845 -0.822174 -1.21978 0
M  V30 6649 H 621.803 0.17482 -4.16834 0
M  V30 6650 H 620.433 0.694725 -3.15235 0
M  V30 6651 H 619.485 -1.71288 -3.39653 0
M  V30 6652 H 620.797 -2.04795 -4.54819 0
M  V30 6653 H 619.951 -0.243128 -6.06213 0
M  V30 6654 H 618.69 0.189742 -4.87331 0
M  V30 6655 H 617.695 -2.10595 -5.07868 0
M  V30 6656 H 618.92 -2.53206 -6.3013 0
M  V30 6657 H 616.866 -0.302208 -6.55304 0
M  V30 6658 H 616.783 -1.84901 -7.3304 0
M  V30 6659 H 618.051 -0.740068 -7.75979 0
M  V30 6660 N 622.28 1.30327 -0.886154 0
M  V30 6661 C 623.227 2.28099 -0.352069 0
M  V30 6662 C 624.197 1.56433 0.558397 0
M  V30 6663 O 625.382 1.84492 0.486561 0
M  V30 6664 C 622.522 3.42456 0.426346 0
M  V30 6665 C 621.635 4.28938 -0.513472 0
M  V30 6666 C 620.77 5.30458 0.280657 0
M  V30 6667 C 619.809 6.0859 -0.654556 0
M  V30 6668 N 618.946 7.02022 0.104322 0
M  V30 6669 H 623.786 2.73166 -1.19097 0
M  V30 6670 H 621.323 1.34367 -0.598662 0
M  V30 6671 H 623.281 4.07518 0.893587 0
M  V30 6672 H 621.911 2.98455 1.22981 0
M  V30 6673 H 620.963 3.64173 -1.09921 0
M  V30 6674 H 622.275 4.83399 -1.2299 0
M  V30 6675 H 621.429 6.01273 0.8097 0
M  V30 6676 H 620.168 4.76693 1.03029 0
M  V30 6677 H 619.173 5.36651 -1.19522 0
M  V30 6678 H 620.398 6.64443 -1.4033 0
M  V30 6679 H 618.344 6.50645 0.836472 0
M  V30 6680 H 618.261 7.53979 -0.552453 0
M  V30 6681 H 619.529 7.77077 0.614069 0
M  V30 6682 N 623.758 0.647228 1.43697 0
M  V30 6683 C 624.986 0.16575 2.06235 0
M  V30 6684 C 625.401 -1.1662 1.48476 0
M  V30 6685 O 624.758 -1.7187 0.613762 0
M  V30 6686 C 624.809 0.0621651 3.61447 0
M  V30 6687 O 624.53 1.34146 4.17057 0
M  V30 6688 C 626.031 -0.446102 4.4105 0
M  V30 6689 H 623.251 0.0871158 0.665321 0
M  V30 6690 H 625.795 0.886183 1.84301 0
M  V30 6691 H 623.95 -0.608794 3.82587 0
M  V30 6692 H 624.364 1.19675 5.10664 0
M  V30 6693 H 625.838 -0.46755 5.50016 0
M  V30 6694 H 626.315 -1.47627 4.13646 0
M  V30 6695 H 626.921 0.192159 4.24866 0
M  V30 6696 N 625.236 -1.5273 0.388769 0
M  V30 6697 C 626.146 -2.30165 -0.453993 0
M  V30 6698 C 627.162 -1.37058 -1.07197 0
M  V30 6699 O 628.338 -1.70127 -1.0779 0
M  V30 6700 C 625.403 -3.09303 -1.56628 0
M  V30 6701 C 624.464 -4.18117 -0.973467 0
M  V30 6702 C 623.697 -4.93472 -2.03275 0
M  V30 6703 O 623.92 -4.68913 -3.24772 0
M  V30 6704 O 622.854 -5.78833 -1.65034 0
M  V30 6705 H 626.68 -3.03185 0.176816 0
M  V30 6706 H 624.265 -1.4862 0.152501 0
M  V30 6707 H 626.147 -3.58648 -2.21246 0
M  V30 6708 H 624.822 -2.39098 -2.18206 0
M  V30 6709 H 623.729 -3.7297 -0.290556 0
M  V30 6710 H 625.062 -4.90556 -0.401908 0
M  V30 6711 N 626.714 -0.118576 -1.57153 0
M  V30 6712 C 627.942 0.54726 -1.99531 0
M  V30 6713 C 628.357 1.60251 -0.998246 0
M  V30 6714 O 627.714 1.82498 0.00893106 0
M  V30 6715 C 627.765 1.17378 -3.41913 0
M  V30 6716 O 627.486 0.160703 -4.37805 0
M  V30 6717 C 628.987 1.92297 -3.9942 0
M  V30 6718 H 626.207 0.144919 -0.655164 0
M  V30 6719 H 628.751 -0.20479 -2.03472 0
M  V30 6720 H 626.906 1.87661 -3.38913 0
M  V30 6721 H 627.32 0.61586 -5.20872 0
M  V30 6722 H 628.794 2.31462 -5.01128 0
M  V30 6723 H 629.271 2.79801 -3.38538 0
M  V30 6724 H 629.877 1.26777 -4.05965 0
M  V30 6725 N 628.193 1.56834 0.155195 0
M  V30 6726 C 629.103 2.009 1.21146 0
M  V30 6727 C 630.119 0.923029 1.475 0
M  V30 6728 O 631.295 1.23189 1.59331 0
M  V30 6729 C 628.36 2.37378 2.52691 0
M  V30 6730 C 627.421 3.59883 2.34057 0
M  V30 6731 C 626.654 3.94612 3.59329 0
M  V30 6732 O 626.877 3.30104 4.65175 0
M  V30 6733 O 625.811 4.87895 3.52479 0
M  V30 6734 H 629.637 2.9105 0.867371 0
M  V30 6735 H 627.222 1.44916 0.363298 0
M  V30 6736 H 629.104 2.61737 3.3026 0
M  V30 6737 H 627.779 1.50385 2.86646 0
M  V30 6738 H 626.686 3.40722 1.54465 0
M  V30 6739 H 628.019 4.47468 2.0502 0
M  V30 6740 N 629.671 -0.424282 1.51781 0
M  V30 6741 C 630.899 -1.1947 1.68921 0
M  V30 6742 C 631.314 -1.84683 0.39213 0
M  V30 6743 O 630.671 -1.71261 -0.630554 0
M  V30 6744 C 630.722 -2.26909 2.81416 0
M  V30 6745 O 630.443 -1.64361 4.061 0
M  V30 6746 C 631.944 -3.16945 3.09937 0
M  V30 6747 H 629.164 -0.359591 0.566511 0
M  V30 6748 H 631.708 -0.501139 1.98265 0
M  V30 6749 H 629.863 -2.91959 2.54635 0
M  V30 6750 H 630.277 -2.35468 4.68674 0
M  V30 6751 H 631.751 -3.88437 3.922 0
M  V30 6752 H 632.228 -3.78451 2.22871 0
M  V30 6753 H 632.834 -2.57581 3.38426 0
M  V30 6754 N 631.149 -1.42148 -0.680565 0
M  V30 6755 C 632.374 -1.45901 -1.47403 0
M  V30 6756 C 632.799 -0.0700985 -1.87969 0
M  V30 6757 O 632.157 0.930145 -1.55621 0
M  V30 6758 C 632.205 -2.38661 -2.70321 0
M  V30 6759 O 631.309 -1.85399 -3.68376 0
M  V30 6760 H 630.65 -0.494565 -0.443059 0
M  V30 6761 H 633.18 -1.86774 -0.835251 0
M  V30 6762 H 633.19 -2.55046 -3.18458 0
M  V30 6763 H 631.865 -3.39571 -2.40134 0
M  V30 6764 H 630.442 -1.78541 -3.2738 0
M  V30 6765 N 632.627 0.916307 -1.28225 0
M  V30 6766 C 633.557 2.0352 -1.14464 0
M  V30 6767 C 634.538 1.70045 -0.0430844 0
M  V30 6768 O 635.723 1.92954 -0.219619 0
M  V30 6769 C 632.853 3.37889 -0.803027 0
M  V30 6770 C 631.807 3.85516 -1.85908 0
M  V30 6771 C 631.133 5.1682 -1.37116 0
M  V30 6772 C 632.433 4.07655 -3.26519 0
M  V30 6773 H 634.127 2.1529 -2.08064 0
M  V30 6774 H 631.673 1.03446 -1.00174 0
M  V30 6775 H 633.626 4.15654 -0.693537 0
M  V30 6776 H 632.35 3.26164 0.168674 0
M  V30 6777 H 631.009 3.09953 -1.95767 0
M  V30 6778 H 630.657 5.01497 -0.38859 0
M  V30 6779 H 630.357 5.49657 -2.07728 0
M  V30 6780 H 631.881 5.97143 -1.27484 0
M  V30 6781 H 633.295 4.75953 -3.19596 0
M  V30 6782 H 631.692 4.51818 -3.94943 0
M  V30 6783 H 632.762 3.12553 -3.70727 0
M  V30 6784 N 634.105 1.10431 1.1244 0
M  V30 6785 C 635.055 0.722378 2.16254 0
M  V30 6786 C 636.039 -0.268427 1.58645 0
M  V30 6787 O 637.231 -0.077169 1.76832 0
M  V30 6788 C 634.36 0.155763 3.42946 0
M  V30 6789 C 633.446 1.17361 4.07538 0
M  V30 6790 N 633.837 2.36429 4.47141 0
M  V30 6791 C 632.135 1.01412 4.34317 0
M  V30 6792 C 632.836 3.01259 4.97612 0
M  V30 6793 N 631.812 2.28777 4.93115 0
M  V30 6794 H 635.614 1.62876 2.4464 0
M  V30 6795 H 633.128 0.982031 1.29344 0
M  V30 6796 H 635.125 -0.135936 4.16678 0
M  V30 6797 H 633.785 -0.745339 3.1603 0
M  V30 6798 H 634.796 2.73954 4.39511 0
M  V30 6799 H 631.473 0.168574 4.1716 0
M  V30 6800 H 632.863 4.02541 5.37968 0
M  V30 6801 N 635.583 -1.29855 0.893053 0
M  V30 6802 C 636.994 -1.77946 0.564998 0
M  V30 6803 C 637.345 -1.73339 -0.919134 0
M  V30 6804 O 636.47 -1.3152 -1.71847 0
M  V30 6805 C 637.065 -3.23118 1.01883 0
M  V30 6806 C 635.624 -3.69013 0.742051 0
M  V30 6807 C 634.771 -2.50121 1.19727 0
M  V30 6808 H 637.722 -1.16611 1.07646 0
M  V30 6809 H 637.743 -3.78875 0.351249 0
M  V30 6810 H 637.255 -3.26439 2.09903 0
M  V30 6811 H 635.356 -3.71173 -0.325816 0
M  V30 6812 H 635.469 -4.60117 1.33527 0
M  V30 6813 H 633.833 -2.47128 0.616418 0
M  V30 6814 H 634.616 -2.56174 2.28538 0
M  V30 6815 N 637.061 -0.65484 -1.43351 0
M  V30 6816 C 637.991 0.0221809 -2.33489 0
M  V30 6817 C 638.972 0.810272 -1.49561 0
M  V30 6818 O 640.157 0.771426 -1.78221 0
M  V30 6819 C 637.287 0.988117 -3.32947 0
M  V30 6820 C 636.241 0.310026 -4.26876 0
M  V30 6821 C 635.567 1.38752 -5.16384 0
M  V30 6822 C 636.867 -0.798589 -5.16159 0
M  V30 6823 H 638.561 -0.730571 -2.9035 0
M  V30 6824 H 636.107 -0.352773 -1.39612 0
M  V30 6825 H 638.06 1.47067 -3.94904 0
M  V30 6826 H 636.784 1.77205 -2.74346 0
M  V30 6827 H 635.443 -0.152097 -3.66284 0
M  V30 6828 H 635.091 2.16293 -4.54121 0
M  V30 6829 H 634.791 0.939051 -5.80048 0
M  V30 6830 H 636.315 1.87141 -5.81215 0
M  V30 6831 H 637.729 -0.398126 -5.71916 0
M  V30 6832 H 636.126 -1.17163 -5.88552 0
M  V30 6833 H 637.196 -1.65588 -4.55751 0
M  V30 6834 N 638.539 1.52521 -0.396863 0
M  V30 6835 C 639.469 2.29582 0.425941 0
M  V30 6836 C 640.45 1.33281 1.05689 0
M  V30 6837 O 641.635 1.62181 1.06823 0
M  V30 6838 C 638.765 3.10821 1.54943 0
M  V30 6839 C 637.719 4.15069 1.04413 0
M  V30 6840 C 637.045 4.84578 2.26028 0
M  V30 6841 C 638.345 5.22191 0.106767 0
M  V30 6842 H 640.039 2.98612 -0.217045 0
M  V30 6843 H 637.585 1.43611 -0.105826 0
M  V30 6844 H 639.538 3.63492 2.13193 0
M  V30 6845 H 638.262 2.39538 2.22011 0
M  V30 6846 H 636.921 3.63389 0.484118 0
M  V30 6847 H 636.569 4.09835 2.91623 0
M  V30 6848 H 636.269 5.55043 1.92876 0
M  V30 6849 H 637.793 5.40056 2.84906 0
M  V30 6850 H 639.207 5.70176 0.597685 0
M  V30 6851 H 637.604 5.99947 -0.135352 0
M  V30 6852 H 638.674 4.77531 -0.842134 0
M  V30 6853 N 640.017 0.126909 1.57088 0
M  V30 6854 C 640.949 -0.850973 2.12817 0
M  V30 6855 C 641.962 -1.22457 1.07276 0
M  V30 6856 O 643.151 -1.17215 1.34622 0
M  V30 6857 C 640.251 -2.15039 2.61938 0
M  V30 6858 C 639.424 -1.94726 3.91664 0
M  V30 6859 C 638.483 -3.0847 4.26301 0
M  V30 6860 O 637.509 -2.81038 4.94981 0
M  V30 6861 N 638.711 -4.35116 3.84259 0
M  V30 6862 H 641.476 -0.3748 2.97347 0
M  V30 6863 H 639.037 -0.0572793 1.61799 0
M  V30 6864 H 641.029 -2.90141 2.82135 0
M  V30 6865 H 639.599 -2.5398 1.82244 0
M  V30 6866 H 638.819 -1.03772 3.80296 0
M  V30 6867 H 640.107 -1.78469 4.76473 0
M  V30 6868 H 639.505 -4.60276 3.2888 0
M  V30 6869 H 638.062 -5.07064 4.09548 0
M  V30 6870 N 641.495 -1.56914 -0.146875 0
M  V30 6871 C 642.405 -2.0154 -1.20079 0
M  V30 6872 C 643.421 -0.930838 -1.47008 0
M  V30 6873 O 644.597 -1.24032 -1.58676 0
M  V30 6874 C 641.662 -2.38715 -2.51428 0
M  V30 6875 C 640.723 -3.6112 -2.32145 0
M  V30 6876 C 639.956 -3.96512 -3.57231 0
M  V30 6877 O 640.179 -3.32566 -4.63418 0
M  V30 6878 O 639.113 -4.89758 -3.49887 0
M  V30 6879 H 642.939 -2.91506 -0.851924 0
M  V30 6880 H 640.524 -1.45106 -0.355607 0
M  V30 6881 H 642.406 -2.63485 -3.28867 0
M  V30 6882 H 641.081 -1.51903 -2.85845 0
M  V30 6883 H 639.988 -3.41536 -1.52656 0
M  V30 6884 H 641.321 -4.48549 -2.02644 0
M  V30 6885 N 642.974 0.416227 -1.52004 0
M  V30 6886 C 644.223 1.16088 -1.64944 0
M  V30 6887 C 644.536 1.91835 -0.381928 0
M  V30 6888 O 645.742 2.6867 -0.391013 0
M  V30 6889 C 644.198 2.1124 -2.91386 0
M  V30 6890 C 643.806 1.41042 -4.25219 0
M  V30 6891 C 645.55 2.86008 -3.13688 0
M  V30 6892 C 643.457 2.34801 -5.42791 0
M  V30 6893 H 642.387 0.437041 -0.61442 0
M  V30 6894 H 645.038 0.425971 -1.78487 0
M  V30 6895 H 643.42 2.88254 -2.71525 0
M  V30 6896 H 644.594 0.694416 -4.55538 0
M  V30 6897 H 642.909 0.78344 -4.08964 0
M  V30 6898 H 645.506 3.56286 -3.98703 0
M  V30 6899 H 645.849 3.48556 -2.27628 0
M  V30 6900 H 646.382 2.16095 -3.33988 0
M  V30 6901 H 643.121 1.7691 -6.31176 0
M  V30 6902 H 642.641 3.04395 -5.16821 0
M  V30 6903 H 644.32 2.9548 -5.75587 0
M  V30 6904 N 644.452 1.42507 0.673017 0
M  V30 6905 C 645.682 1.46261 1.45916 0
M  V30 6906 C 646.09 0.0729724 1.89059 0
M  V30 6907 O 645.433 -0.922987 1.58829 0
M  V30 6908 C 645.495 2.32853 2.73898 0
M  V30 6909 C 645.159 3.80699 2.52819 0
M  V30 6910 C 646.156 4.72307 2.17306 0
M  V30 6911 C 643.841 4.24983 2.67758 0
M  V30 6912 C 645.835 6.06192 1.97003 0
M  V30 6913 C 643.522 5.58927 2.4707 0
M  V30 6914 C 644.52 6.49348 2.11746 0
M  V30 6915 O 644.208 7.80817 1.91259 0
M  V30 6916 H 643.94 0.499561 0.455428 0
M  V30 6917 H 646.494 1.87697 0.834196 0
M  V30 6918 H 644.724 1.86268 3.38882 0
M  V30 6919 H 646.413 2.28041 3.35786 0
M  V30 6920 H 647.179 4.39378 2.05359 0
M  V30 6921 H 643.058 3.54893 2.94231 0
M  V30 6922 H 646.602 6.76731 1.69355 0
M  V30 6923 H 642.499 5.91429 2.58615 0
M  V30 6924 H 643.267 7.92194 2.05843 0
M  V30 6925 N 645.93 -0.909495 1.28709 0
M  V30 6926 C 646.877 -2.01245 1.13 0
M  V30 6927 C 647.847 -1.6608 0.0259684 0
M  V30 6928 O 649.032 -1.89835 0.191687 0
M  V30 6929 C 646.172 -3.35644 0.802315 0
M  V30 6930 C 645.285 -3.83653 1.98582 0
M  V30 6931 C 644.42 -5.06582 1.59837 0
M  V30 6932 C 643.459 -5.46934 2.74827 0
M  V30 6933 N 642.596 -6.61053 2.36546 0
M  V30 6934 H 647.436 -2.14013 2.0737 0
M  V30 6935 H 644.973 -1.0482 1.03205 0
M  V30 6936 H 646.931 -4.12963 0.593057 0
M  V30 6937 H 645.561 -3.22631 -0.104457 0
M  V30 6938 H 644.613 -3.02454 2.30708 0
M  V30 6939 H 645.925 -4.09515 2.84779 0
M  V30 6940 H 645.079 -5.91457 1.35143 0
M  V30 6941 H 643.818 -4.82537 0.707753 0
M  V30 6942 H 642.823 -4.60599 3.00215 0
M  V30 6943 H 644.048 -5.72965 3.64538 0
M  V30 6944 H 641.994 -6.3863 1.49959 0
M  V30 6945 H 641.911 -6.86662 3.16277 0
M  V30 6946 H 643.179 -7.49221 2.15146 0
M  V30 6947 N 647.408 -1.11026 -1.11852 0
M  V30 6948 C 648.685 -0.768347 -1.79877 0
M  V30 6949 C 649.065 0.744261 -1.97545 0
M  V30 6950 O 648.413 1.67271 -1.55669 0
M  V30 6951 C 648.623 -1.52648 -3.13846 0
M  V30 6952 C 649.971 -1.70297 -3.88953 0
M  V30 6953 O 650.995 -1.49037 -3.23522 0
M  V30 6954 O 649.854 -2.05593 -5.06353 0
M  V30 6955 H 646.948 -0.277891 -0.778913 0
M  V30 6956 H 649.494 -1.21343 -1.18633 0
M  V30 6957 H 648.266 -2.55564 -2.96315 0
M  V30 6958 H 647.889 -1.07466 -3.82801 0
M  V30 6959 N 648.886 1.2938 -0.899927 0
M  V30 6960 C 649.819 2.25911 -0.322386 0
M  V30 6961 C 650.797 1.52447 0.565567 0
M  V30 6962 O 651.981 1.81404 0.512324 0
M  V30 6963 C 649.108 3.3436 0.540455 0
M  V30 6964 C 648.154 4.25579 -0.280211 0
M  V30 6965 S 648.987 5.08526 -1.67814 0
M  V30 6966 C 650.143 6.20476 -0.822224 0
M  V30 6967 H 650.376 2.7455 -1.1406 0
M  V30 6968 H 647.909 1.37606 -0.700285 0
M  V30 6969 H 649.867 3.97303 1.0325 0
M  V30 6970 H 648.528 2.84416 1.33291 0
M  V30 6971 H 647.721 5.02574 0.378915 0
M  V30 6972 H 647.323 3.67287 -0.705405 0
M  V30 6973 H 649.615 6.77485 -0.0457138 0
M  V30 6974 H 650.558 6.90606 -1.56426 0
M  V30 6975 H 650.966 5.63243 -0.37651 0
M  V30 6976 N 650.364 0.662433 1.43002 0
M  V30 6977 C 651.594 0.187343 2.05749 0
M  V30 6978 C 652.002 -1.15582 1.49791 0
M  V30 6979 O 651.345 -1.72651 0.627487 0
M  V30 6980 C 651.407 0.0316493 3.59486 0
M  V30 6981 C 651.071 1.30156 4.38073 0
M  V30 6982 C 652.068 2.23234 4.69535 0
M  V30 6983 C 649.753 1.54572 4.77926 0
M  V30 6984 C 651.747 3.39012 5.39768 0
M  V30 6985 C 649.434 2.70641 5.47902 0
M  V30 6986 C 650.432 3.62687 5.78746 0
M  V30 6987 O 650.12 4.76728 6.47291 0
M  V30 6988 H 649.852 0.0915214 0.669776 0
M  V30 6989 H 652.406 0.905982 1.8434 0
M  V30 6990 H 650.636 -0.742451 3.79506 0
M  V30 6991 H 652.325 -0.401977 4.03905 0
M  V30 6992 H 653.091 2.05616 4.39257 0
M  V30 6993 H 648.97 0.83804 4.53319 0
M  V30 6994 H 652.514 4.10877 5.63761 0
M  V30 6995 H 648.411 2.88189 5.77596 0
M  V30 6996 H 649.179 4.76113 6.65777 0
M  V30 6997 O 651.881 -1.51951 0.5471 0
M  V30 6998 H 652.572 -1.93655 0.0418362 0
M  V30 END ATOM
M  V30 BEGIN BOND
M  V30 END BOND
M  V30 END CTAB
M  END
$$$$
