drugbank_target|P11802 Cyclin-dependent kinase 4 (DB02733; DB03496; DB09073; DB11730; DB12001; DB12010)
 OpenBabel12092120073D

  0  0  0     0  0            999 V3000
M  V30 BEGIN CTAB
M  V30 COUNTS 4755 4816 0 0 0
M  V30 BEGIN ATOM
M  V30 1 H -0.908 1.98254 -0.117106 0
M  V30 2 N 0 1.576 0 0
M  V30 3 C 0.933 2.03868 1.02534 0
M  V30 4 C 1.911 0.928543 1.3348 0
M  V30 5 O 3.095 1.19667 1.45644 0
M  V30 6 C 0.222 2.43627 2.35294 0
M  V30 7 C -0.732 3.65373 2.2001 0
M  V30 8 S 0.101 5.13292 1.52614 0
M  V30 9 C 1.257 5.56322 2.86805 0
M  V30 10 H 1.49 2.90518 0.631377 0
M  V30 11 H -0.977 1.52953 0.210867 0
M  V30 12 H 0.981 2.67203 3.11629 0
M  V30 13 H -0.358 1.57376 2.7183 0
M  V30 14 H -1.165 3.90944 3.18086 0
M  V30 15 H -1.563 3.418 1.51819 0
M  V30 16 H 0.729 5.58782 3.83104 0
M  V30 17 H 1.672 6.56266 2.65933 0
M  V30 18 H 2.08 4.83886 2.90714 0
M  V30 19 N 1.4781 -0.272755 1.55222 0
M  V30 20 C 2.4411 -1.32041 1.87344 0
M  V30 21 C 3.4411 -1.42342 0.74803 0
M  V30 22 O 4.6311 -1.41488 1.0162 0
M  V30 23 C 1.7631 -2.70173 2.07893 0
M  V30 24 H 2.9561 -1.04789 2.80997 0
M  V30 25 H 0.5091 -0.51083 1.47717 0
M  V30 26 H 1.2441 -3.02605 1.16622 0
M  V30 27 H 1.0291 -2.64082 2.89833 0
M  V30 28 H 2.5191 -3.45869 2.34017 0
M  V30 29 N 2.9562 -1.48159 -0.537278 0
M  V30 30 C 4.1842 -1.59454 -1.31841 0
M  V30 31 C 4.5992 -0.252065 -1.8711 0
M  V30 32 O 3.9562 0.757621 -1.66031 0
M  V30 33 C 4.0072 -2.63546 -2.47439 0
M  V30 34 O 3.7282 -3.92583 -1.94449 0
M  V30 35 C 5.2292 -2.85212 -3.39366 0
M  V30 36 H 2.4492 -0.53785 -0.401196 0
M  V30 37 H 4.9932 -1.93932 -0.648891 0
M  V30 38 H 3.1482 -2.31946 -3.1029 0
M  V30 39 H 3.5622 -4.49629 -2.70063 0
M  V30 40 H 5.0362 -3.61863 -4.16844 0
M  V30 41 H 5.5132 -1.93765 -3.94147 0
M  V30 42 H 6.1192 -3.18086 -2.82314 0
M  V30 43 N 4.4343 0.785586 -1.36625 0
M  V30 44 C 5.6593 1.57963 -1.34397 0
M  V30 45 C 6.0843 1.87964 0.071526 0
M  V30 46 O 5.4423 1.48182 1.0446 0
M  V30 47 C 5.4903 2.87511 -2.17646 0
M  V30 48 O 4.5943 3.81281 -1.57158 0
M  V30 49 H 3.9353 0.479014 -0.459828 0
M  V30 50 H 6.4653 0.973411 -1.79961 0
M  V30 51 H 6.4753 3.36745 -2.30362 0
M  V30 52 H 5.1503 2.65002 -3.20541 0
M  V30 53 H 3.7273 3.39885 -1.53403 0
M  V30 54 N 5.9124 1.20967 1.01018 0
M  V30 55 C 7.3284 0.965905 1.27053 0
M  V30 56 C 7.5284 -0.350785 1.98423 0
M  V30 57 O 6.5844 -1.07773 2.28344 0
M  V30 58 C 7.8974 2.15294 2.09926 0
M  V30 59 C 9.4454 2.19463 2.23171 0
M  V30 60 C 9.9204 3.3767 3.09424 0
M  V30 61 N 11.4114 3.37724 3.17012 0
M  V30 62 C 12.1464 4.25837 3.83993 0
M  V30 63 N 11.6424 5.24138 4.53047 0
M  V30 64 N 13.4354 4.1366 3.80581 0
M  V30 65 H 5.5864 2.0565 0.531194 0
M  V30 66 H 7.8494 0.90024 0.297106 0
M  V30 67 H 7.5554 3.10684 1.64828 0
M  V30 68 H 7.4294 2.13923 3.10672 0
M  V30 69 H 9.8164 1.24632 2.6749 0
M  V30 70 H 9.8974 2.2488 1.21912 0
M  V30 71 H 9.5414 4.32791 2.65808 0
M  V30 72 H 9.4714 3.29491 4.10784 0
M  V30 73 H 11.9624 2.6658 2.6785 0
M  V30 74 H 12.2754 5.87684 5.01844 0
M  V30 75 H 10.6204 5.28068 4.5185 0
M  V30 76 H 13.8114 3.36127 3.25785 0
M  V30 77 H 13.9844 4.82538 4.32505 0
M  V30 78 N 7.3905 -1.2043 1.01659 0
M  V30 79 C 8.6205 -1.93496 0.724081 0
M  V30 80 C 9.0285 -1.74998 -0.71918 0
M  V30 81 O 8.3715 -1.06118 -1.49949 0
M  V30 82 C 8.4335 -3.45886 0.97994 0
M  V30 83 C 8.0975 -3.88145 2.41232 0
M  V30 84 C 9.0945 -3.93907 3.39313 0
M  V30 85 C 6.7795 -4.20134 2.75305 0
M  V30 86 C 8.7735 -4.31069 4.6953 0
M  V30 87 C 6.4605 -4.56971 4.05735 0
M  V30 88 C 7.4585 -4.62411 5.02658 0
M  V30 89 O 7.1465 -4.98403 6.30754 0
M  V30 90 H 6.8785 -0.621824 0.265162 0
M  V30 91 H 9.4325 -1.53867 1.36066 0
M  V30 92 H 7.6625 -3.85639 0.286198 0
M  V30 93 H 9.3515 -4.0018 0.679021 0
M  V30 94 H 10.1175 -3.69357 3.14325 0
M  V30 95 H 5.9965 -4.1509 2.00551 0
M  V30 96 H 9.5405 -4.3523 5.45179 0
M  V30 97 H 5.4375 -4.80977 4.30502 0
M  V30 98 H 6.2055 -5.16395 6.35042 0
M  V30 99 N 8.8686 -0.792821 -1.36206 0
M  V30 100 C 9.7786 -0.194808 -2.3379 0
M  V30 101 C 10.7946 0.654869 -1.61206 0
M  V30 102 O 11.9706 0.569856 -1.9317 0
M  V30 103 C 9.0356 0.657721 -3.40404 0
M  V30 104 C 8.0966 -0.210849 -4.28782 0
M  V30 105 C 7.3296 0.601086 -5.30304 0
M  V30 106 O 7.5526 1.83682 -5.40016 0
M  V30 107 O 6.4866 -0.000808277 -6.019 0
M  V30 108 H 10.3126 -1.00172 -2.86704 0
M  V30 109 H 7.8976 -0.554341 -1.38735 0
M  V30 110 H 9.7796 1.14375 -4.05581 0
M  V30 111 H 8.4546 1.44247 -2.89784 0
M  V30 112 H 7.3616 -0.743714 -3.66633 0
M  V30 113 H 8.6946 -0.959195 -4.82763 0
M  V30 114 N 10.3467 1.47872 -0.545128 0
M  V30 115 C 11.7577 1.86384 -0.108581 0
M  V30 116 C 12.1087 1.45309 1.31832 0
M  V30 117 O 11.2337 0.850641 1.9898 0
M  V30 118 C 11.8287 3.38265 -0.190274 0
M  V30 119 C 10.3877 3.75914 0.191164 0
M  V30 120 C 9.5347 2.71926 -0.543273 0
M  V30 121 H 12.4857 1.39561 -0.755537 0
M  V30 122 H 12.5067 3.75831 0.594217 0
M  V30 123 H 12.0187 3.6813 -1.2289 0
M  V30 124 H 10.1197 3.51665 1.23136 0
M  V30 125 H 10.2327 4.78836 -0.158987 0
M  V30 126 H 8.5967 2.54697 0.0122495 0
M  V30 127 H 9.3797 3.04634 -1.58282 0
M  V30 128 N 11.8248 0.280983 1.55075 0
M  V30 129 C 13.0708 -0.33461 2.00021 0
M  V30 130 C 13.4038 -1.55063 1.16915 0
M  V30 131 O 12.6788 -1.93006 0.240646 0
M  V30 132 C 12.9618 -0.711007 3.53011 0
M  V30 133 C 12.8148 0.512766 4.46868 0
M  V30 134 C 14.1338 -1.54522 4.12081 0
M  V30 135 H 11.2528 -0.120147 0.727141 0
M  V30 136 H 13.8948 0.389097 1.85973 0
M  V30 137 H 12.0448 -1.32761 3.65112 0
M  V30 138 H 13.7168 1.15131 4.46702 0
M  V30 139 H 11.9598 1.14975 4.18286 0
M  V30 140 H 12.6308 0.205556 5.51617 0
M  V30 141 H 15.1068 -1.02442 4.03293 0
M  V30 142 H 13.9828 -1.77739 5.19327 0
M  V30 143 H 14.2438 -2.52813 3.62682 0
M  V30 144 N 13.3029 -1.57598 0.00835791 0
M  V30 145 C 14.2659 -2.07884 -0.965242 0
M  V30 146 C 15.2659 -0.989825 -1.26725 0
M  V30 147 O 16.4559 -1.25218 -1.21104 0
M  V30 148 C 13.5879 -2.52731 -2.28779 0
M  V30 149 H 14.7809 -2.95178 -0.530112 0
M  V30 150 H 12.3339 -1.54458 -0.239283 0
M  V30 151 H 13.0689 -1.68705 -2.76964 0
M  V30 152 H 12.8539 -3.32272 -2.08177 0
M  V30 153 H 14.3439 -2.91933 -2.98605 0
M  V30 154 N 14.781 0.264519 -1.55364 0
M  V30 155 C 15.691 1.34902 -1.91934 0
M  V30 156 C 16.707 1.53595 -0.817593 0
M  V30 157 O 17.883 1.67558 -1.11742 0
M  V30 158 C 14.948 2.68676 -2.19121 0
M  V30 159 C 14.009 2.58657 -3.4263 0
M  V30 160 C 13.242 3.86051 -3.68511 0
M  V30 161 O 13.465 4.87126 -2.96757 0
M  V30 162 O 12.399 3.85744 -4.62045 0
M  V30 163 H 16.225 1.06883 -2.8427 0
M  V30 164 H 13.81 0.463775 -1.42019 0
M  V30 165 H 15.692 3.47759 -2.37995 0
M  V30 166 H 14.367 2.96463 -1.29966 0
M  V30 167 H 13.274 1.7792 -3.29082 0
M  V30 168 H 14.607 2.35818 -4.32031 0
M  V30 169 N 16.2591 1.48442 0.529413 0
M  V30 170 C 17.5081 1.55742 1.28169 0
M  V30 171 C 17.8211 0.236511 1.94165 0
M  V30 172 O 19.0271 0.187761 2.7085 0
M  V30 173 C 17.4831 2.74667 2.32564 0
M  V30 174 C 17.0911 4.13402 1.72636 0
M  V30 175 C 18.8351 2.9128 3.08798 0
M  V30 176 C 16.7421 5.23587 2.74975 0
M  V30 177 H 15.6721 0.579796 0.48203 0
M  V30 178 H 18.3231 1.74776 0.559056 0
M  V30 179 H 16.7051 2.49067 3.07866 0
M  V30 180 H 17.8791 4.49022 1.03519 0
M  V30 181 H 16.1941 4.0191 1.08892 0
M  V30 182 H 18.7911 3.70767 3.85274 0
M  V30 183 H 19.1341 2.00757 3.64695 0
M  V30 184 H 19.6671 3.16782 2.40611 0
M  V30 185 H 16.4061 6.16076 2.23897 0
M  V30 186 H 15.9261 4.92454 3.42417 0
M  V30 187 H 17.6051 5.51724 3.37949 0
M  V30 188 N 17.7372 -0.778329 1.37039 0
M  V30 189 C 18.9852 -1.53361 1.31623 0
M  V30 190 C 19.3062 -1.94739 -0.100831 0
M  V30 191 O 18.5762 -1.65797 -1.04347 0
M  V30 192 H 17.1562 -0.568794 0.484234 0
M  V30 193 H 19.8182 -0.926742 1.71457 0
M  V30 194 H 18.9142 -2.43606 1.95096 0
M  V30 195 N 19.2153 -1.21501 -1.00376 0
M  V30 196 C 20.4613 -1.03452 -1.74429 0
M  V30 197 C 20.7943 0.430764 -1.89362 0
M  V30 198 O 20.0693 1.31962 -1.42886 0
M  V30 199 C 20.3523 -1.73375 -3.15615 0
M  V30 200 C 20.2053 -3.27431 -3.08397 0
M  V30 201 C 21.5243 -1.47732 -4.14564 0
M  V30 202 H 18.6433 -0.377226 -0.633143 0
M  V30 203 H 21.2853 -1.49693 -1.17013 0
M  V30 204 H 19.4353 -1.34064 -3.64636 0
M  V30 205 H 21.1073 -3.76119 -2.67081 0
M  V30 206 H 19.3503 -3.5767 -2.45468 0
M  V30 207 H 20.0213 -3.71524 -4.08258 0
M  V30 208 H 22.4973 -1.8186 -3.74254 0
M  V30 209 H 21.3733 -1.99169 -5.11491 0
M  V30 210 H 21.6343 -0.407589 -4.40217 0
M  V30 211 N 20.6934 1.19889 -1.02296 0
M  V30 212 C 21.9414 1.89046 -0.714558 0
M  V30 213 C 22.2624 1.79636 0.758681 0
M  V30 214 O 21.5324 1.20292 1.54618 0
M  V30 215 H 20.1124 0.699802 -0.261317 0
M  V30 216 H 22.7744 1.45574 -1.29592 0
M  V30 217 H 21.8704 2.95524 -1.0036 0
M  V30 218 N 22.1715 0.800033 1.35784 0
M  V30 219 C 23.1345 0.211565 2.28221 0
M  V30 220 C 24.1345 -0.59728 1.49296 0
M  V30 221 O 25.3245 -0.416721 1.69142 0
M  V30 222 C 22.4565 -0.705846 3.33513 0
M  V30 223 H 23.6495 1.02677 2.81776 0
M  V30 224 H 21.2025 0.570211 1.45528 0
M  V30 225 H 21.9375 -1.54498 2.85133 0
M  V30 226 H 21.7225 -0.127655 3.91892 0
M  V30 227 H 23.2125 -1.11211 4.02519 0
M  V30 228 N 23.6496 -1.47581 0.552962 0
M  V30 229 C 24.8796 -2.06575 0.0320091 0
M  V30 230 C 25.2876 -1.4067 -1.26525 0
M  V30 231 O 24.6306 -0.495808 -1.76883 0
M  V30 232 C 24.6926 -3.58705 -0.238913 0
M  V30 233 C 24.3566 -4.46625 0.968272 0
M  V30 234 C 25.3536 -4.85 1.87274 0
M  V30 235 C 23.0386 -4.88201 1.18175 0
M  V30 236 C 25.0326 -5.63745 2.9744 0
M  V30 237 C 22.7196 -5.66712 2.28651 0
M  V30 238 C 23.7176 -6.04394 3.18114 0
M  V30 239 O 23.4056 -6.81324 4.26676 0
M  V30 240 H 23.1376 -0.674763 0.0408689 0
M  V30 241 H 25.6916 -1.90634 0.764719 0
M  V30 242 H 23.9216 -3.72844 -1.02588 0
M  V30 243 H 25.6106 -3.99735 -0.704731 0
M  V30 244 H 26.3766 -4.53482 1.71984 0
M  V30 245 H 22.2556 -4.58339 0.494593 0
M  V30 246 H 25.7996 -5.93077 3.67296 0
M  V30 247 H 21.6966 -5.97642 2.43915 0
M  V30 248 H 22.4646 -6.99712 4.24671 0
M  V30 249 N 25.1277 -0.289203 -1.54924 0
M  V30 250 C 26.3757 0.322879 -1.99504 0
M  V30 251 C 26.6967 1.55313 -1.1791 0
M  V30 252 O 25.9667 1.94001 -0.272097 0
M  V30 253 H 24.5467 0.122291 -0.736922 0
M  V30 254 H 27.2087 -0.397802 -1.90797 0
M  V30 255 H 26.3047 0.603061 -3.06218 0
M  V30 256 N 26.6058 1.57591 -0.0167156 0
M  V30 257 C 27.8338 1.95575 0.675128 0
M  V30 258 C 28.2488 0.892542 1.6637 0
M  V30 259 O 27.6058 -0.126912 1.82058 0
M  V30 260 C 27.6568 3.33608 1.39239 0
M  V30 261 O 27.3778 4.3585 0.443444 0
M  V30 262 C 28.8788 3.86151 2.17721 0
M  V30 263 H 26.0988 0.644423 0.186978 0
M  V30 264 H 28.6428 2.0437 -0.0728 0
M  V30 265 H 26.7978 3.2607 2.09182 0
M  V30 266 H 27.2118 5.158 0.951358 0
M  V30 267 H 28.6858 4.85114 2.63379 0
M  V30 268 H 29.1628 3.19738 3.01105 0
M  V30 269 H 29.7688 3.96918 1.52761 0
M  V30 270 N 28.0839 -0.256276 1.55502 0
M  V30 271 C 29.3299 -0.987079 1.77157 0
M  V30 272 C 29.6629 -1.85327 0.580315 0
M  V30 273 O 28.9379 -1.89874 -0.421686 0
M  V30 274 C 29.2209 -1.85553 3.08613 0
M  V30 275 C 29.0739 -1.01816 4.38125 0
M  V30 276 C 30.3929 -2.8397 3.36228 0
M  V30 277 H 27.5119 -0.357428 0.644526 0
M  V30 278 H 30.1539 -0.258239 1.88237 0
M  V30 279 H 28.3039 -2.47695 2.99298 0
M  V30 280 H 29.9759 -0.416159 4.59419 0
M  V30 281 H 28.2189 -0.322178 4.32602 0
M  V30 282 H 28.8899 -1.65939 5.26468 0
M  V30 283 H 31.3659 -2.31964 3.45445 0
M  V30 284 H 30.2419 -3.41864 4.29442 0
M  V30 285 H 30.5029 -3.59955 2.56681 0
M  V30 286 N 29.562 -1.4872 -0.521534 0
M  V30 287 C 30.792 -1.6061 -1.29954 0
M  V30 288 C 31.2 -0.268728 -1.87282 0
M  V30 289 O 30.543 0.753221 -1.67548 0
M  V30 290 C 30.605 -2.60013 -2.48261 0
M  V30 291 C 30.269 -4.04874 -2.11957 0
M  V30 292 C 31.266 -4.92304 -1.67132 0
M  V30 293 C 28.951 -4.5047 -2.22221 0
M  V30 294 C 30.945 -6.2336 -1.33047 0
M  V30 295 C 28.632 -5.81544 -1.87748 0
M  V30 296 C 29.63 -6.67812 -1.43234 0
M  V30 297 O 29.318 -7.96446 -1.09217 0
M  V30 298 H 29.05 -0.544116 -0.401141 0
M  V30 299 H 31.604 -1.95339 -0.634958 0
M  V30 300 H 29.834 -2.20422 -3.17728 0
M  V30 301 H 31.523 -2.61648 -3.10315 0
M  V30 302 H 32.289 -4.58312 -1.58665 0
M  V30 303 H 28.168 -3.83504 -2.55823 0
M  V30 304 H 31.712 -6.90649 -0.982299 0
M  V30 305 H 27.609 -6.15069 -1.95858 0
M  V30 306 H 28.377 -8.09275 -1.22542 0
M  V30 307 N 31.0401 0.771051 -1.3745 0
M  V30 308 C 31.9871 1.88435 -1.3327 0
M  V30 309 C 32.9571 1.64914 -0.198136 0
M  V30 310 O 34.1421 1.86821 -0.387606 0
M  V30 311 C 31.2821 3.25509 -1.14622 0
M  V30 312 C 30.3951 3.60979 -2.37314 0
M  V30 313 C 29.5301 4.87265 -2.11533 0
M  V30 314 C 28.5691 5.15469 -3.30088 0
M  V30 315 N 27.7061 6.32944 -3.03853 0
M  V30 316 H 32.5461 1.91344 -2.28455 0
M  V30 317 H 30.0831 0.935466 -1.13523 0
M  V30 318 H 32.0411 4.04582 -1.01831 0
M  V30 319 H 30.6711 3.21974 -0.230837 0
M  V30 320 H 29.7231 2.76885 -2.60842 0
M  V30 321 H 31.0351 3.77759 -3.25729 0
M  V30 322 H 30.1891 5.74244 -1.95777 0
M  V30 323 H 28.9281 4.7259 -1.20457 0
M  V30 324 H 27.9331 4.26966 -3.46382 0
M  V30 325 H 29.1581 5.32052 -4.22016 0
M  V30 326 H 27.1041 6.19625 -2.15407 0
M  V30 327 H 27.0211 6.50143 -3.85812 0
M  V30 328 H 28.2891 7.22857 -2.91716 0
M  V30 329 N 32.5182 1.22032 0.997298 0
M  V30 330 C 33.4812 0.987909 2.06816 0
M  V30 331 C 34.4812 -0.0440084 1.6074 0
M  V30 332 O 35.6712 0.194053 1.73116 0
M  V30 333 C 32.8032 0.49132 3.37341 0
M  V30 334 H 33.9962 1.93803 2.28868 0
M  V30 335 H 31.5492 1.03838 1.16822 0
M  V30 336 H 32.2842 -0.463364 3.20973 0
M  V30 337 H 32.0692 1.23575 3.72118 0
M  V30 338 H 33.5592 0.348824 4.16141 0
M  V30 339 N 33.9963 -1.19345 1.0293 0
M  V30 340 C 35.4123 -1.41069 0.746446 0
M  V30 341 C 35.6123 -1.90078 -0.668776 0
M  V30 342 O 34.6683 -2.0778 -1.4347 0
M  V30 343 C 35.9813 -2.42141 1.78292 0
M  V30 344 C 37.5293 -2.55887 1.80252 0
M  V30 345 C 38.0043 -3.60214 2.8286 0
M  V30 346 N 39.4953 -3.67711 2.81679 0
M  V30 347 C 40.2303 -4.48128 3.57727 0
M  V30 348 N 39.7263 -5.32248 4.43491 0
M  V30 349 N 41.5193 -4.42782 3.46267 0
M  V30 350 H 33.6703 -0.858536 1.94275 0
M  V30 351 H 35.9333 -0.439541 0.839945 0
M  V30 352 H 35.6393 -2.13155 2.79746 0
M  V30 353 H 35.5133 -3.41323 1.60557 0
M  V30 354 H 37.9003 -2.84196 0.794757 0
M  V30 355 H 37.9813 -1.56858 2.02062 0
M  V30 356 H 37.6253 -3.32647 3.83807 0
M  V30 357 H 37.5553 -4.58895 2.58307 0
M  V30 358 H 40.0463 -3.07634 2.19476 0
M  V30 359 H 40.3593 -5.90729 4.98256 0
M  V30 360 H 38.7043 -5.31707 4.47564 0
M  V30 361 H 41.8953 -3.76107 2.78677 0
M  V30 362 H 42.0683 -5.05215 4.05785 0
M  V30 363 N 35.4744 -0.807222 -1.35358 0
M  V30 364 C 36.7514 -0.311126 -1.9311 0
M  V30 365 C 37.1314 1.19937 -1.73719 0
M  V30 366 O 36.4794 1.99918 -1.10657 0
M  V30 367 C 36.6894 -0.723226 -3.41424 0
M  V30 368 C 38.0374 -0.713078 -4.18569 0
M  V30 369 O 39.0614 -0.664811 -3.49941 0
M  V30 370 O 37.9204 -0.772022 -5.41019 0
M  V30 371 H 35.0144 -0.081526 -0.822972 0
M  V30 372 H 37.5604 -0.890962 -1.4443 0
M  V30 373 H 36.3324 -1.76426 -3.4927 0
M  V30 374 H 35.9554 -0.118232 -3.97424 0
M  V30 375 N 36.9525 1.47285 -0.560781 0
M  V30 376 C 38.3635 1.86258 -0.128343 0
M  V30 377 C 38.7145 1.46699 1.30284 0
M  V30 378 O 37.8395 0.871698 1.98067 0
M  V30 379 C 38.4345 3.38044 -0.22614 0
M  V30 380 C 36.9935 3.76096 0.151283 0
M  V30 381 C 36.1405 2.71335 -0.572084 0
M  V30 382 H 39.0915 1.38752 -0.770297 0
M  V30 383 H 39.1125 3.76441 0.554322 0
M  V30 384 H 38.6245 3.66806 -1.26788 0
M  V30 385 H 36.7255 3.52951 1.19399 0
M  V30 386 H 36.8385 4.78641 -0.209765 0
M  V30 387 H 35.2025 2.54696 -0.0147653 0
M  V30 388 H 35.9855 3.02938 -1.61504 0
M  V30 389 N 38.4306 0.297415 1.54768 0
M  V30 390 C 39.3806 -0.595275 2.20092 0
M  V30 391 C 40.3646 -1.10163 1.17273 0
M  V30 392 O 41.5566 -1.043 1.43006 0
M  V30 393 C 38.6856 -1.7684 2.94249 0
M  V30 394 C 37.7716 -1.27818 4.0438 0
M  V30 395 N 38.1626 -0.505695 5.03266 0
M  V30 396 C 36.4606 -1.55923 4.17857 0
M  V30 397 C 37.1616 -0.245094 5.81183 0
M  V30 398 N 36.1376 -0.823881 5.3732 0
M  V30 399 H 39.9396 0.00250837 2.939 0
M  V30 400 H 37.4536 0.102007 1.62079 0
M  V30 401 H 39.4506 -2.41944 3.39513 0
M  V30 402 H 38.1106 -2.36992 2.21957 0
M  V30 403 H 39.1216 -0.150928 5.1768 0
M  V30 404 H 35.7986 -2.16849 3.56767 0
M  V30 405 H 37.1886 0.375084 6.70852 0
M  V30 406 N 39.9087 -1.5758 0.0250728 0
M  V30 407 C 41.1337 -1.96337 -0.668317 0
M  V30 408 C 41.5587 -0.901314 -1.651 0
M  V30 409 O 40.9167 0.138187 -1.80773 0
M  V30 410 C 40.9647 -3.34191 -1.35457 0
M  V30 411 O 40.0687 -3.30269 -2.46974 0
M  V30 412 H 39.4097 -0.640281 -0.175887 0
M  V30 413 H 41.9397 -2.0442 0.0857224 0
M  V30 414 H 41.9497 -3.70331 -1.71228 0
M  V30 415 H 40.6247 -4.11036 -0.634218 0
M  V30 416 H 39.2017 -3.05841 -2.13344 0
M  V30 417 N 41.3868 0.248026 -1.55636 0
M  V30 418 C 42.6348 0.974295 -1.77065 0
M  V30 419 C 42.9558 1.85897 -0.588849 0
M  V30 420 O 42.2258 1.91868 0.395407 0
M  V30 421 H 40.8058 0.362733 -0.653019 0
M  V30 422 H 43.4678 0.266244 -1.93073 0
M  V30 423 H 42.5638 1.59667 -2.68166 0
M  V30 424 N 42.8649 1.48995 0.513639 0
M  V30 425 C 43.8149 1.61127 1.61314 0
M  V30 426 C 44.7989 0.467521 1.53958 0
M  V30 427 O 45.9909 0.719826 1.61702 0
M  V30 428 C 43.1199 1.66937 2.99978 0
M  V30 429 C 42.2059 2.86847 3.12377 0
M  V30 430 N 42.5969 4.11078 2.94701 0
M  V30 431 C 40.8949 2.84521 3.43459 0
M  V30 432 C 41.5959 4.91615 3.10949 0
M  V30 433 N 40.5719 4.24739 3.3926 0
M  V30 434 H 44.3739 2.54909 1.46282 0
M  V30 435 H 41.8879 1.45593 0.719483 0
M  V30 436 H 43.8849 1.73725 3.78979 0
M  V30 437 H 42.5449 0.742831 3.16089 0
M  V30 438 H 43.5559 4.41258 2.71131 0
M  V30 439 H 40.2329 2.01192 3.65825 0
M  V30 440 H 41.6229 6.00264 3.01882 0
M  V30 441 N 44.343 -0.763751 1.37857 0
M  V30 442 C 45.59 -1.52257 1.33506 0
M  V30 443 C 45.918 -1.94343 -0.078022 0
M  V30 444 O 45.173 -1.64958 -1.05297 0
M  V30 445 C 45.472 -2.79499 2.22745 0
M  V30 446 C 45.138 -2.56426 3.70886 0
M  V30 447 C 43.8 -2.49842 4.11257 0
M  V30 448 C 46.152 -2.36008 4.64704 0
M  V30 449 C 43.48 -2.20841 5.43549 0
M  V30 450 C 45.832 -2.0853 5.97242 0
M  V30 451 C 44.496 -2.00396 6.36709 0
M  V30 452 H 43.766 -0.557149 0.488534 0
M  V30 453 H 46.413 -0.879073 1.70131 0
M  V30 454 H 44.718 -3.48447 1.79142 0
M  V30 455 H 46.415 -3.37413 2.16688 0
M  V30 456 H 43.005 -2.62416 3.38874 0
M  V30 457 H 47.189 -2.40079 4.34368 0
M  V30 458 H 42.445 -2.13045 5.73081 0
M  V30 459 H 46.619 -1.91732 6.69486 0
M  V30 460 H 44.246 -1.77688 7.39142 0
M  V30 461 N 45.8211 -1.22559 -0.990812 0
M  V30 462 C 47.0671 -1.05297 -1.73322 0
M  V30 463 C 47.4001 0.410655 -1.89808 0
M  V30 464 O 46.6751 1.30439 -1.44277 0
M  V30 465 C 46.9581 -1.76713 -3.13759 0
M  V30 466 C 46.8111 -3.30684 -3.04907 0
M  V30 467 C 48.1301 -1.52121 -4.12974 0
M  V30 468 H 45.2491 -0.38392 -0.629106 0
M  V30 469 H 47.8911 -1.50926 -1.15418 0
M  V30 470 H 46.0411 -1.37924 -3.63193 0
M  V30 471 H 47.7131 -3.7893 -2.63077 0
M  V30 472 H 45.9561 -3.60253 -2.41661 0
M  V30 473 H 46.6271 -3.75833 -4.04294 0
M  V30 474 H 49.1031 -1.85819 -3.72304 0
M  V30 475 H 47.9791 -2.04582 -5.0935 0
M  V30 476 H 48.2401 -0.454257 -4.3976 0
M  V30 477 N 47.2992 1.18797 -1.03562 0
M  V30 478 C 48.2622 2.20464 -0.626769 0
M  V30 479 C 49.2622 1.57721 0.313173 0
M  V30 480 O 50.4522 1.73917 0.0992615 0
M  V30 481 C 47.5842 3.40802 0.0818498 0
M  V30 482 H 48.7772 2.58149 -1.5264 0
M  V30 483 H 46.3302 1.32593 -0.827578 0
M  V30 484 H 47.0652 3.08642 0.995518 0
M  V30 485 H 46.8502 3.8758 -0.593652 0
M  V30 486 H 48.3402 4.16092 0.354584 0
M  V30 487 N 48.7773 0.814389 1.34928 0
M  V30 488 C 49.7073 0.244827 2.32213 0
M  V30 489 C 50.6883 -0.634024 1.57842 0
M  V30 490 O 51.8733 -0.562676 1.8587 0
M  V30 491 C 49.0033 -0.601106 3.42058 0
M  V30 492 C 47.9573 0.179896 4.27622 0
M  V30 493 C 47.2833 -0.788237 5.28858 0
M  V30 494 C 48.5833 1.38329 5.03649 0
M  V30 495 H 50.2773 1.05763 2.80097 0
M  V30 496 H 47.8233 0.510029 1.34665 0
M  V30 497 H 49.7763 -1.00968 4.09125 0
M  V30 498 H 48.5003 -1.44688 2.92802 0
M  V30 499 H 47.1593 0.569739 3.62146 0
M  V30 500 H 46.8073 -1.62973 4.75866 0
M  V30 501 H 46.5073 -0.269942 5.8698 0
M  V30 502 H 48.0313 -1.19485 5.98795 0
M  V30 503 H 49.4453 1.04918 5.63618 0
M  V30 504 H 47.8423 1.83662 5.71304 0
M  V30 505 H 48.9123 2.16592 4.33839 0
M  V30 506 N 50.2554 -1.46986 0.568584 0
M  V30 507 C 51.2024 -2.30153 -0.172707 0
M  V30 508 C 52.1724 -1.39759 -0.897586 0
M  V30 509 O 53.3574 -1.68716 -0.891044 0
M  V30 510 C 50.4974 -3.23952 -1.1895 0
M  V30 511 C 49.6104 -4.29441 -0.469517 0
M  V30 512 C 48.7454 -5.1038 -1.47259 0
M  V30 513 C 47.7844 -6.07632 -0.738225 0
M  V30 514 N 46.9214 -6.8149 -1.68868 0
M  V30 515 H 51.7614 -2.93019 0.542596 0
M  V30 516 H 49.2984 -1.44422 0.279401 0
M  V30 517 H 51.2564 -3.76767 -1.79173 0
M  V30 518 H 49.8864 -2.62926 -1.87269 0
M  V30 519 H 48.9384 -3.79594 0.247467 0
M  V30 520 H 50.2504 -4.98689 0.105241 0
M  V30 521 H 49.4044 -5.67402 -2.14803 0
M  V30 522 H 48.1434 -4.4106 -2.08128 0
M  V30 523 H 47.1484 -5.49778 -0.0489293 0
M  V30 524 H 48.3734 -6.78966 -0.135129 0
M  V30 525 H 46.3194 -6.14891 -2.28573 0
M  V30 526 H 46.2364 -7.46948 -1.16636 0
M  V30 527 H 47.5044 -7.43078 -2.3549 0
M  V30 528 N 51.7335 -0.305618 -1.54608 0
M  V30 529 C 52.9585 0.307562 -2.05107 0
M  V30 530 C 53.3835 1.46385 -1.18123 0
M  V30 531 O 52.7415 1.8034 -0.186324 0
M  V30 532 C 52.7895 0.73704 -3.52987 0
M  V30 533 O 51.8935 1.84134 -3.6901 0
M  V30 534 H 51.2345 0.0589143 -0.661381 0
M  V30 535 H 53.7645 -0.448807 -1.99617 0
M  V30 536 H 53.7745 1.02459 -3.94925 0
M  V30 537 H 52.4495 -0.108773 -4.15758 0
M  V30 538 H 51.0265 1.55398 -3.38978 0
M  V30 539 N 53.2116 1.57565 -0.0334293 0
M  V30 540 C 54.4576 1.92262 0.645226 0
M  V30 541 C 54.7906 0.910543 1.71531 0
M  V30 542 O 54.0656 -0.066099 1.94388 0
M  V30 543 C 54.3486 3.37422 1.2577 0
M  V30 544 C 54.2016 4.49369 0.196891 0
M  V30 545 C 55.5206 3.82628 2.17449 0
M  V30 546 H 52.6396 0.699171 0.233085 0
M  V30 547 H 55.2816 1.89779 -0.0915694 0
M  V30 548 H 53.4316 3.39669 1.88566 0
M  V30 549 H 55.1036 4.59254 -0.433962 0
M  V30 550 H 53.3466 4.31168 -0.477137 0
M  V30 551 H 54.0176 5.47978 0.665124 0
M  V30 552 H 56.4936 3.82145 1.64634 0
M  V30 553 H 55.3696 4.84883 2.57254 0
M  V30 554 H 55.6306 3.18376 3.0674 0
M  V30 555 N 54.6897 -0.239769 1.55765 0
M  V30 556 C 56.1057 -0.588624 1.48349 0
M  V30 557 C 56.3057 -1.88005 0.72502 0
M  V30 558 O 55.3617 -2.51186 0.257269 0
M  V30 559 C 56.6747 -0.68474 2.928 0
M  V30 560 C 58.2227 -0.77659 3.03213 0
M  V30 561 C 58.6977 -0.904207 4.48986 0
M  V30 562 N 60.1887 -0.968896 4.52953 0
M  V30 563 C 60.9237 -1.08703 5.63002 0
M  V30 564 N 60.4197 -1.17026 6.82845 0
M  V30 565 N 62.2127 -1.12074 5.50814 0
M  V30 566 H 54.3637 0.607911 2.03515 0
M  V30 567 H 56.6267 0.21083 0.924259 0
M  V30 568 H 56.3327 0.194284 3.51163 0
M  V30 569 H 56.2067 -1.55435 3.43686 0
M  V30 570 H 58.5937 -1.64606 2.44926 0
M  V30 571 H 58.6747 0.118315 2.55526 0
M  V30 572 H 58.3187 -0.0392633 5.07885 0
M  V30 573 H 58.2487 -1.81426 4.9436 0
M  V30 574 H 60.7397 -0.915633 3.6664 0
M  V30 575 H 61.0527 -1.25966 7.62465 0
M  V30 576 H 59.3977 -1.13971 6.85591 0
M  V30 577 H 62.5887 -1.05226 4.5612 0
M  V30 578 H 62.7617 -1.20936 6.36615 0
M  V30 579 N 56.1678 -1.49265 -0.50573 0
M  V30 580 C 57.4138 -1.58748 -1.26202 0
M  V30 581 C 57.7468 -0.271227 -1.92297 0
M  V30 582 O 57.0218 0.724831 -1.80489 0
M  V30 583 C 57.3048 -2.74332 -2.33268 0
M  V30 584 C 57.1578 -4.15737 -1.71705 0
M  V30 585 C 58.4768 -2.85576 -3.34865 0
M  V30 586 H 55.5958 -0.577826 -0.457478 0
M  V30 587 H 58.2378 -1.81532 -0.560897 0
M  V30 588 H 56.3878 -2.55036 -2.93068 0
M  V30 589 H 58.0598 -4.46537 -1.15769 0
M  V30 590 H 56.3028 -4.21605 -1.02135 0
M  V30 591 H 56.9738 -4.92477 -2.49341 0
M  V30 592 H 59.4498 -3.03127 -2.8505 0
M  V30 593 H 58.3258 -3.68135 -4.07146 0
M  V30 594 H 58.5868 -1.94732 -3.96903 0
M  V30 595 N 57.6459 0.756429 -1.3826 0
M  V30 596 C 59.0569 1.33359 -1.30661 0
M  V30 597 C 59.4079 1.96161 0.0388875 0
M  V30 598 O 58.5329 1.94874 0.940918 0
M  V30 599 C 59.1279 2.42477 -2.36622 0
M  V30 600 C 57.6869 2.95922 -2.3261 0
M  V30 601 C 56.8339 1.69275 -2.19639 0
M  V30 602 H 59.7849 0.55552 -1.4866 0
M  V30 603 H 59.8059 3.22345 -2.02174 0
M  V30 604 H 59.3179 1.96739 -3.34538 0
M  V30 605 H 57.4189 3.45996 -1.38267 0
M  V30 606 H 57.5319 3.50494 -3.26636 0
M  V30 607 H 55.8959 1.92793 -1.66442 0
M  V30 608 H 56.6789 1.25619 -3.19491 0
M  V30 609 N 59.124 1.23083 0.984299 0
M  V30 610 C 60.072 1.00593 2.09723 0
M  V30 611 C 61.066 -0.0538014 1.69315 0
M  V30 612 O 62.272 0.0993719 1.79725 0
M  V30 613 H 58.647 0.30817 0.685956 0
M  V30 614 H 60.618 1.95012 2.2586 0
M  V30 615 C 59.367 0.609601 3.42314 0
M  V30 616 H 58.69 1.41675 3.73856 0
M  V30 617 H 60.13 0.491726 4.21139 0
M  V30 618 C 58.589 -0.681745 3.2993 0
M  V30 619 O 59.119 -1.73192 3.62446 0
M  V30 620 N 57.325 -0.656178 2.83095 0
M  V30 621 H 56.872 0.198759 2.56832 0
M  V30 622 H 56.83 -1.52044 2.75191 0
M  V30 623 N 60.6021 -1.18246 1.0419 0
M  V30 624 C 61.8501 -1.87886 0.744543 0
M  V30 625 C 62.1711 -1.8082 -0.730006 0
M  V30 626 O 61.4411 -1.22736 -1.52685 0
M  V30 627 H 60.0211 -0.695556 0.272417 0
M  V30 628 H 62.6831 -1.43494 1.31892 0
M  V30 629 H 61.7791 -2.9389 1.05049 0
M  V30 630 N 62.0802 -0.821533 -1.34494 0
M  V30 631 C 63.3282 -0.408139 -1.97936 0
M  V30 632 C 63.6492 1.03193 -1.65457 0
M  V30 633 O 62.9192 1.71622 -0.944595 0
M  V30 634 H 61.4992 -0.147928 -0.732206 0
M  V30 635 H 64.1612 -1.05067 -1.64155 0
M  V30 636 H 63.2572 -0.52601 -3.07635 0
M  V30 637 N 63.5583 1.46682 -0.576371 0
M  V30 638 C 64.8063 2.02013 -0.0594163 0
M  V30 639 C 65.1273 1.45101 1.30271 0
M  V30 640 O 64.3973 0.633317 1.8538 0
M  V30 641 H 62.9773 0.746759 -0.0189745 0
M  V30 642 H 65.6393 1.79862 -0.750717 0
M  V30 643 H 64.7353 3.12097 0.014345 0
M  V30 644 N 65.0364 0.313813 1.54444 0
M  V30 645 C 66.2844 -0.291099 1.99993 0
M  V30 646 C 66.6054 -1.53418 1.20366 0
M  V30 647 O 65.8754 -1.93544 0.302927 0
M  V30 648 H 64.4554 -0.110552 0.738774 0
M  V30 649 H 67.1174 0.428106 1.9014 0
M  V30 650 H 66.2134 -0.554268 3.07139 0
M  V30 651 N 66.5145 -1.57545 0.0417849 0
M  V30 652 C 67.7625 -1.91937 -0.632829 0
M  V30 653 C 68.0835 -0.919978 -1.71934 0
M  V30 654 O 67.3535 0.0366064 -1.95866 0
M  V30 655 H 65.9335 -0.708493 -0.236742 0
M  V30 656 H 68.5955 -1.9468 0.0925745 0
M  V30 657 H 67.6915 -2.92912 -1.07746 0
M  V30 658 N 67.9926 0.231505 -1.5589 0
M  V30 659 C 69.2406 0.955461 -1.78088 0
M  V30 660 C 69.5616 1.85262 -0.608533 0
M  V30 661 O 68.8316 1.92277 0.375035 0
M  V30 662 H 67.4116 0.355787 -0.656829 0
M  V30 663 H 70.0736 0.245751 -1.93344 0
M  V30 664 H 69.1696 1.56814 -2.69844 0
M  V30 665 N 69.4707 1.49531 0.497807 0
M  V30 666 C 70.7187 1.58865 1.24926 0
M  V30 667 C 71.0397 0.278721 1.92998 0
M  V30 668 O 70.3097 -0.702144 1.82885 0
M  V30 669 H 68.8897 0.585343 0.464094 0
M  V30 670 H 71.5517 1.86174 0.57666 0
M  V30 671 H 70.6477 2.38633 2.01149 0
M  V30 672 N 70.9488 -0.749086 1.3866 0
M  V30 673 C 71.8788 -1.8764 1.38973 0
M  V30 674 C 72.8598 -1.68178 0.255004 0
M  V30 675 O 74.0448 -1.88704 0.458754 0
M  V30 676 C 71.1748 -3.25222 1.21851 0
M  V30 677 C 70.1288 -3.59295 2.32575 0
M  V30 678 C 69.4548 -4.95663 2.00555 0
M  V30 679 C 70.7548 -3.63709 3.7485 0
M  V30 680 H 72.4488 -1.87635 2.3331 0
M  V30 681 H 69.9948 -0.901329 1.12303 0
M  V30 682 H 71.9478 -4.03746 1.20695 0
M  V30 683 H 70.6718 -3.25719 0.239775 0
M  V30 684 H 69.3308 -2.83093 2.32925 0
M  V30 685 H 68.9788 -4.92724 1.01154 0
M  V30 686 H 68.6788 -5.19429 2.74714 0
M  V30 687 H 70.2028 -5.7656 2.01024 0
M  V30 688 H 71.6168 -4.32338 3.76506 0
M  V30 689 H 70.0138 -3.98986 4.48252 0
M  V30 690 H 71.0838 -2.63834 4.06841 0
M  V30 691 N 72.4269 -1.23603 -0.977757 0
M  V30 692 C 73.8379 -1.06424 -1.53398 0
M  V30 693 C 74.1889 0.367578 -1.92726 0
M  V30 694 O 73.3139 1.25465 -1.76316 0
M  V30 695 C 73.9089 -1.92568 -2.78753 0
M  V30 696 C 72.4679 -1.79642 -3.30765 0
M  V30 697 C 71.6149 -1.88111 -2.03739 0
M  V30 698 H 74.5659 -1.37227 -0.797152 0
M  V30 699 H 74.5869 -1.45203 -3.51705 0
M  V30 700 H 74.0989 -2.96771 -2.50098 0
M  V30 701 H 72.1999 -0.782325 -3.64294 0
M  V30 702 H 72.3129 -2.63174 -4.00345 0
M  V30 703 H 70.6769 -1.31723 -2.17994 0
M  V30 704 H 71.4599 -2.93875 -1.77461 0
M  V30 705 N 73.905 1.17692 -1.04816 0
M  V30 706 C 75.154 1.87192 -0.751132 0
M  V30 707 C 75.467 1.8169 0.724441 0
M  V30 708 O 76.673 2.46625 1.13527 0
M  V30 709 C 75.129 3.35857 -1.29338 0
M  V30 710 C 74.737 3.4987 -2.79812 0
M  V30 711 C 76.481 4.10709 -1.07322 0
M  V30 712 C 74.388 4.92536 -3.27356 0
M  V30 713 H 73.318 0.701162 -0.277288 0
M  V30 714 H 75.969 1.32932 -1.26496 0
M  V30 715 H 74.351 3.89631 -0.707376 0
M  V30 716 H 75.525 3.06332 -3.44235 0
M  V30 717 H 73.84 2.88433 -3.00325 0
M  V30 718 H 76.437 5.15952 -1.4035 0
M  V30 719 H 76.78 4.16299 -0.0108001 0
M  V30 720 H 77.313 3.6313 -1.62423 0
M  V30 721 H 74.052 4.92119 -4.33012 0
M  V30 722 H 73.572 5.3676 -2.67673 0
M  V30 723 H 75.251 5.61288 -3.21815 0
M  V30 724 N 75.3831 0.828654 1.34056 0
M  V30 725 C 76.6081 0.431637 2.02859 0
M  V30 726 C 77.0331 -0.956339 1.61975 0
M  V30 727 O 76.3911 -1.62338 0.807228 0
M  V30 728 C 76.4391 0.548323 3.56407 0
M  V30 729 O 75.5431 -0.429556 4.10157 0
M  V30 730 H 74.8841 0.176886 0.640006 0
M  V30 731 H 77.4141 1.12066 1.71179 0
M  V30 732 H 77.4241 0.426196 4.05768 0
M  V30 733 H 76.0991 1.5606 3.8551 0
M  V30 734 H 74.6761 -0.265836 3.71951 0
M  V30 735 N 76.8612 -1.46375 0.584142 0
M  V30 736 C 78.0892 -2.06761 0.0759296 0
M  V30 737 C 78.5042 -1.43266 -1.22965 0
M  V30 738 O 77.8612 -0.538458 -1.74376 0
M  V30 739 C 77.9122 -3.61375 -0.0950384 0
M  V30 740 O 77.6332 -4.22495 1.15887 0
M  V30 741 C 79.1342 -4.38693 -0.637434 0
M  V30 742 H 76.3542 -0.668479 0.0581075 0
M  V30 743 H 78.8982 -1.8798 0.805218 0
M  V30 744 H 77.0532 -3.79578 -0.774554 0
M  V30 745 H 77.4672 -5.15385 0.973598 0
M  V30 746 H 78.9412 -5.47464 -0.706237 0
M  V30 747 H 79.4182 -4.06836 -1.65472 0
M  V30 748 H 80.0242 -4.25299 0.00725967 0
M  V30 749 N 78.3393 -0.321999 -1.54275 0
M  V30 750 C 79.5853 0.281461 -2.00837 0
M  V30 751 C 79.9183 1.51909 -1.20985 0
M  V30 752 O 79.1933 1.923 -0.291733 0
M  V30 753 C 79.4763 0.617162 -3.54772 0
M  V30 754 C 79.3293 -0.631064 -4.45351 0
M  V30 755 C 80.6483 1.43542 -4.16033 0
M  V30 756 H 77.7673 0.100826 -0.730071 0
M  V30 757 H 80.4093 -0.438268 -1.84876 0
M  V30 758 H 78.5593 1.23034 -3.68504 0
M  V30 759 H 80.2313 -1.26934 -4.43492 0
M  V30 760 H 78.4743 -1.26025 -4.15091 0
M  V30 761 H 79.1453 -0.351735 -5.50878 0
M  V30 762 H 81.6213 0.917134 -4.05867 0
M  V30 763 H 80.4973 1.63907 -5.23856 0
M  V30 764 H 80.7583 2.43108 -3.69257 0
M  V30 765 N 79.8174 1.5752 -0.0501392 0
M  V30 766 C 81.2334 1.56631 0.306402 0
M  V30 767 C 81.4334 1.0577 1.71508 0
M  V30 768 O 80.4894 0.713837 2.422 0
M  V30 769 C 81.8024 3.00393 0.135811 0
M  V30 770 C 83.3504 3.12315 0.206993 0
M  V30 771 C 83.8254 4.57954 0.064944 0
M  V30 772 N 85.3164 4.63041 0.121254 0
M  V30 773 C 86.0514 5.73389 0.0354381 0
M  V30 774 N 85.5474 6.92724 -0.102666 0
M  V30 775 N 87.3404 5.62026 0.090946 0
M  V30 776 H 79.4914 1.88903 -0.971046 0
M  V30 777 H 81.7544 0.869876 -0.376855 0
M  V30 778 H 81.4604 3.41635 -0.835384 0
M  V30 779 H 81.3344 3.66373 0.897275 0
M  V30 780 H 83.7214 2.70973 1.16866 0
M  V30 781 H 83.8024 2.49016 -0.585208 0
M  V30 782 H 83.4464 4.99981 -0.893394 0
M  V30 783 H 83.3764 5.19258 0.876277 0
M  V30 784 H 85.8674 3.77216 0.227284 0
M  V30 785 H 86.1804 7.72633 -0.160882 0
M  V30 786 H 84.5254 6.94864 -0.137737 0
M  V30 787 H 87.7164 4.67684 0.197388 0
M  V30 788 H 87.8894 6.47997 0.0206089 0
M  V30 789 N 81.2955 -0.223234 1.56011 0
M  V30 790 C 82.2055 -1.29766 1.95443 0
M  V30 791 C 83.2215 -1.51373 0.858028 0
M  V30 792 O 84.3975 -1.64536 1.16146 0
M  V30 793 C 81.4625 -2.62772 2.26167 0
M  V30 794 C 80.5235 -2.49482 3.49367 0
M  V30 795 C 79.7565 -3.76145 3.78616 0
M  V30 796 O 79.9795 -4.79087 3.09568 0
M  V30 797 O 78.9135 -3.73358 4.72109 0
M  V30 798 H 82.7395 -0.99309 2.87004 0
M  V30 799 H 80.3245 -0.425958 1.43199 0
M  V30 800 H 82.2065 -3.41327 2.47131 0
M  V30 801 H 80.8815 -2.92913 1.37781 0
M  V30 802 H 79.7885 -1.69133 3.33684 0
M  V30 803 H 81.1215 -2.2428 4.38131 0
M  V30 804 N 82.7736 -1.49793 -0.48987 0
M  V30 805 C 84.0196 -1.60078 -1.24511 0
M  V30 806 C 84.3526 -0.291608 -1.91998 0
M  V30 807 O 83.6276 0.705647 -1.81248 0
M  V30 808 C 83.9106 -2.76791 -2.30345 0
M  V30 809 C 83.7636 -4.17535 -1.67286 0
M  V30 810 C 85.0826 -2.89111 -3.31817 0
M  V30 811 H 82.2016 -0.582645 -0.451324 0
M  V30 812 H 84.8436 -1.82117 -0.541612 0
M  V30 813 H 82.9936 -2.5813 -2.90346 0
M  V30 814 H 84.6656 -4.4774 -1.11026 0
M  V30 815 H 82.9086 -4.22665 -0.976577 0
M  V30 816 H 83.5796 -4.95094 -2.44103 0
M  V30 817 H 86.0556 -3.06133 -2.81819 0
M  V30 818 H 84.9316 -3.72433 -4.03219 0
M  V30 819 H 85.1926 -1.9893 -3.94815 0
M  V30 820 N 84.2517 0.741722 -1.39055 0
M  V30 821 C 85.2147 1.83733 -1.37021 0
M  V30 822 C 86.2147 1.58542 -0.268534 0
M  V30 823 O 87.4047 1.66067 -0.526076 0
M  V30 824 C 84.5367 3.2141 -1.13617 0
M  V30 825 H 85.7297 1.86941 -2.34506 0
M  V30 826 H 83.2827 0.944676 -1.24521 0
M  V30 827 H 84.0177 3.23865 -0.167863 0
M  V30 828 H 83.8027 3.4109 -1.93391 0
M  V30 829 H 85.2927 4.01477 -1.14918 0
M  V30 830 N 85.7298 1.2412 0.971189 0
M  V30 831 C 86.6598 1.05508 2.08304 0
M  V30 832 C 87.6408 -0.0308864 1.70072 0
M  V30 833 O 88.8258 0.135521 1.93727 0
M  V30 834 C 85.9558 0.655365 3.4106 0
M  V30 835 C 84.9098 1.68971 3.93234 0
M  V30 836 C 84.2358 1.14516 5.22293 0
M  V30 837 C 85.5358 3.08487 4.21465 0
M  V30 838 H 87.2298 1.98507 2.24132 0
M  V30 839 H 84.7758 0.955821 1.07704 0
M  V30 840 H 86.7288 0.51217 4.18276 0
M  V30 841 H 85.4528 -0.31032 3.25122 0
M  V30 842 H 84.1118 1.82106 3.18171 0
M  V30 843 H 83.7598 0.170189 5.02712 0
M  V30 844 H 83.4598 1.83635 5.58168 0
M  V30 845 H 84.9838 1.01401 6.02121 0
M  V30 846 H 86.3978 2.98601 4.89398 0
M  V30 847 H 84.7948 3.74926 4.68562 0
M  V30 848 H 85.8648 3.56787 3.28376 0
M  V30 849 N 87.2079 -1.17134 1.05439 0
M  V30 850 C 88.1379 -2.2342 0.678649 0
M  V30 851 C 89.1189 -1.66971 -0.32476 0
M  V30 852 O 90.3039 -1.93149 -0.201802 0
M  V30 853 C 87.4339 -3.47256 0.0552099 0
M  V30 854 C 86.3879 -4.16543 0.98365 0
M  V30 855 C 85.7139 -5.34231 0.223961 0
M  V30 856 C 87.0139 -4.68495 2.3089 0
M  V30 857 H 88.7079 -2.55105 1.56722 0
M  V30 858 H 86.2539 -1.2262 0.754998 0
M  V30 859 H 88.2069 -4.20828 -0.21946 0
M  V30 860 H 86.9309 -3.14846 -0.868319 0
M  V30 861 H 85.5899 -3.44887 1.24293 0
M  V30 862 H 85.2379 -4.98071 -0.702412 0
M  V30 863 H 84.9379 -5.81527 0.842627 0
M  V30 864 H 86.4619 -6.10585 -0.0433671 0
M  V30 865 H 87.8759 -5.33691 2.09396 0
M  V30 866 H 86.2729 -5.26379 2.88176 0
M  V30 867 H 87.3429 -3.85169 2.94572 0
M  V30 868 N 88.686 -0.835752 -1.33615 0
M  V30 869 C 90.102 -0.523139 -1.50783 0
M  V30 870 C 90.302 0.950171 -1.77691 0
M  V30 871 O 89.358 1.73411 -1.83534 0
M  V30 872 C 90.671 -1.39378 -2.66448 0
M  V30 873 C 92.219 -1.39223 -2.80332 0
M  V30 874 C 92.694 -2.24765 -3.99055 0
M  V30 875 N 94.185 -2.22458 -4.06284 0
M  V30 876 C 94.92 -2.85386 -4.97336 0
M  V30 877 N 94.416 -3.57354 -5.93523 0
M  V30 878 N 96.209 -2.74872 -4.90308 0
M  V30 879 H 88.36 -1.78952 -1.14411 0
M  V30 880 H 90.623 -0.763297 -0.562212 0
M  V30 881 H 90.329 -2.44061 -2.53234 0
M  V30 882 H 90.203 -1.0676 -3.61776 0
M  V30 883 H 92.59 -0.353136 -2.92979 0
M  V30 884 H 92.671 -1.75846 -1.85773 0
M  V30 885 H 92.315 -3.28732 -3.87167 0
M  V30 886 H 92.245 -1.85485 -4.92852 0
M  V30 887 H 94.736 -1.70119 -3.37443 0
M  V30 888 H 95.049 -4.02584 -6.59656 0
M  V30 889 H 93.394 -3.61461 -5.93608 0
M  V30 890 H 96.585 -2.18213 -4.14126 0
M  V30 891 H 96.758 -3.24199 -5.61069 0
M  V30 892 N 90.1641 1.46063 -0.591896 0
M  V30 893 C 91.5801 1.57561 -0.254288 0
M  V30 894 C 91.7801 1.58565 1.24336 0
M  V30 895 O 90.8361 1.50753 2.02558 0
M  V30 896 C 92.1491 2.86549 -0.911611 0
M  V30 897 C 93.6971 3.00197 -0.886059 0
M  V30 898 C 94.1721 4.31933 -1.5231 0
M  V30 899 N 95.6631 4.38654 -1.48786 0
M  V30 900 C 96.3981 5.39222 -1.95006 0
M  V30 901 N 95.8941 6.46414 -2.49241 0
M  V30 902 N 97.6871 5.3048 -1.85868 0
M  V30 903 H 89.8381 1.43655 -1.56451 0
M  V30 904 H 92.1011 0.68583 -0.654478 0
M  V30 905 H 91.8071 2.91651 -1.96551 0
M  V30 906 H 91.6811 3.74794 -0.425368 0
M  V30 907 H 94.0681 2.9467 0.159246 0
M  V30 908 H 94.1491 2.13403 -1.41041 0
M  V30 909 H 93.7931 4.38217 -2.56765 0
M  V30 910 H 93.7231 5.17516 -0.973891 0
M  V30 911 H 96.2141 3.61793 -1.09151 0
M  V30 912 H 96.5271 7.19376 -2.82344 0
M  V30 913 H 94.8721 6.47208 -2.53272 0
M  V30 914 H 98.0631 4.45643 -1.43248 0
M  V30 915 H 98.2361 6.08711 -2.22204 0
M  V30 916 N 91.6422 0.330177 1.54103 0
M  V30 917 C 92.5722 -0.525353 2.27513 0
M  V30 918 C 93.5532 -1.11383 1.2856 0
M  V30 919 O 94.7382 -1.13773 1.57383 0
M  V30 920 C 91.8682 -1.6831 3.03791 0
M  V30 921 C 90.8222 -1.2236 4.10137 0
M  V30 922 C 90.1482 -2.46882 4.74293 0
M  V30 923 C 91.4482 -0.333697 5.21233 0
M  V30 924 H 93.1422 0.087013 2.99274 0
M  V30 925 H 90.6882 0.0432893 1.43935 0
M  V30 926 H 92.6412 -2.28795 3.5388 0
M  V30 927 H 91.3652 -2.32216 2.29659 0
M  V30 928 H 90.0242 -0.64165 3.60941 0
M  V30 929 H 89.6722 -3.09165 3.96769 0
M  V30 930 H 89.3722 -2.16825 5.46133 0
M  V30 931 H 90.8962 -3.08117 5.27159 0
M  V30 932 H 92.3102 -0.845013 5.67038 0
M  V30 933 H 90.7072 -0.125612 5.99969 0
M  V30 934 H 91.7772 0.633724 4.80741 0
M  V30 935 N 93.1203 -1.57491 0.0584922 0
M  V30 936 C 94.0303 -2.15448 -0.928414 0
M  V30 937 C 95.0463 -1.11416 -1.3365 0
M  V30 938 O 96.2223 -1.4362 -1.41193 0
M  V30 939 C 93.2873 -2.69393 -2.18239 0
M  V30 940 C 92.3483 -3.88249 -1.83196 0
M  V30 941 C 91.5813 -4.39613 -3.02616 0
M  V30 942 O 91.8043 -3.90023 -4.16219 0
M  V30 943 O 90.7383 -5.31111 -2.83204 0
M  V30 944 H 94.5643 -3.00112 -0.465483 0
M  V30 945 H 92.1493 -1.48499 -0.163826 0
M  V30 946 H 94.0313 -3.04026 -2.91798 0
M  V30 947 H 92.7063 -1.87796 -2.63656 0
M  V30 948 H 91.6133 -3.58492 -1.06931 0
M  V30 949 H 92.9463 -4.71098 -1.42573 0
M  V30 950 N 94.5984 0.214957 -1.56127 0
M  V30 951 C 95.5614 1.24997 -1.92116 0
M  V30 952 C 96.5614 1.39467 -0.800344 0
M  V30 953 O 97.7514 1.37619 -1.06802 0
M  V30 954 C 94.8834 2.62271 -2.17777 0
M  V30 955 H 96.0764 0.942875 -2.84693 0
M  V30 956 H 93.6294 0.455654 -1.49511 0
M  V30 957 H 94.3644 2.98068 -1.27773 0
M  V30 958 H 94.1494 2.53143 -2.99434 0
M  V30 959 H 95.6394 3.36946 -2.46693 0
M  V30 960 N 96.0765 1.50051 0.48192 0
M  V30 961 C 97.3235 1.60498 1.23477 0
M  V30 962 C 97.6515 0.300331 1.92167 0
M  V30 963 O 96.9065 -0.713094 1.82246 0
M  V30 964 C 97.2055 2.72717 2.30998 0
M  V30 965 C 96.8715 4.13572 1.79636 0
M  V30 966 C 95.5335 4.519 1.65348 0
M  V30 967 C 97.8855 5.01649 1.41412 0
M  V30 968 C 95.2135 5.76057 1.11244 0
M  V30 969 C 97.5655 6.26343 0.887538 0
M  V30 970 C 96.2295 6.63483 0.731207 0
M  V30 971 H 95.4995 0.587303 0.451836 0
M  V30 972 H 98.1465 1.83948 0.532468 0
M  V30 973 H 96.4515 2.43312 3.07094 0
M  V30 974 H 98.1485 2.78006 2.88988 0
M  V30 975 H 94.7385 3.83329 1.91721 0
M  V30 976 H 98.9225 4.72679 1.51289 0
M  V30 977 H 94.1785 6.03516 0.978686 0
M  V30 978 H 98.3525 6.93958 0.582654 0
M  V30 979 H 95.9795 7.59568 0.309806 0
M  V30 980 N 97.5546 -0.734337 1.39446 0
M  V30 981 C 98.4646 -1.87879 1.40495 0
M  V30 982 C 99.4806 -1.714 0.299672 0
M  V30 983 O 100.657 -1.93991 0.541249 0
M  V30 984 C 97.7216 -3.23477 1.24754 0
M  V30 985 C 96.7826 -3.52344 2.45259 0
M  V30 986 C 96.0156 -4.81473 2.30259 0
M  V30 987 O 96.2386 -5.55237 1.30643 0
M  V30 988 O 95.1726 -5.10254 3.19256 0
M  V30 989 H 98.9986 -1.89949 2.36966 0
M  V30 990 H 96.5836 -0.882243 1.20569 0
M  V30 991 H 98.4656 -4.04509 1.18111 0
M  V30 992 H 97.1406 -3.22176 0.313781 0
M  V30 993 H 96.0476 -2.71396 2.57478 0
M  V30 994 H 97.3806 -3.58426 3.37331 0
M  V30 995 N 99.0327 -1.24633 -0.964593 0
M  V30 996 C 99.9827 -1.00841 -2.04487 0
M  V30 997 C 100.967 0.0512468 -1.60818 0
M  V30 998 O 102.159 -0.162865 -1.76249 0
M  V30 999 C 99.2877 -0.618474 -3.37683 0
M  V30 1000 C 98.3737 -1.71437 -3.87905 0
M  V30 1001 N 98.7647 -2.9477 -4.11029 0
M  V30 1002 C 97.0627 -1.5926 -4.16596 0
M  V30 1003 C 97.7637 -3.65834 -4.52261 0
M  V30 1004 N 96.7397 -2.9341 -4.57615 0
M  V30 1005 H 100.542 -1.94487 -2.20345 0
M  V30 1006 H 98.0557 -1.14805 -1.14863 0
M  V30 1007 H 100.053 -0.429247 -4.14684 0
M  V30 1008 H 98.7127 0.310766 -3.23209 0
M  V30 1009 H 99.7237 -3.30917 -3.9839 0
M  V30 1010 H 96.4007 -0.731606 -4.1104 0
M  V30 1011 H 97.7907 -4.71646 -4.78539 0
M  V30 1012 N 100.511 1.16574 -1.06058 0
M  V30 1013 C 101.922 1.68662 -0.800632 0
M  V30 1014 C 102.273 1.84184 0.67608 0
M  V30 1015 O 101.398 1.53568 1.52466 0
M  V30 1016 C 101.993 3.06356 -1.44676 0
M  V30 1017 C 100.552 3.55575 -1.23465 0
M  V30 1018 C 99.6988 2.31616 -1.52477 0
M  V30 1019 H 102.65 1.00969 -1.22438 0
M  V30 1020 H 102.671 3.70636 -0.860788 0
M  V30 1021 H 102.183 2.95027 -2.52152 0
M  V30 1022 H 100.284 3.72167 -0.179527 0
M  V30 1023 H 100.397 4.37812 -1.94571 0
M  V30 1024 H 98.7608 2.36512 -0.945209 0
M  V30 1025 H 99.5438 2.22887 -2.61106 0
M  V30 1026 N 101.989 0.842826 1.3317 0
M  V30 1027 C 102.937 0.267495 2.31057 0
M  V30 1028 C 103.931 -0.602682 1.58316 0
M  V30 1029 O 105.137 -0.491803 1.73151 0
M  V30 1030 H 101.512 0.0677813 0.748939 0
M  V30 1031 H 103.483 1.10754 2.77085 0
M  V30 1032 C 102.232 -0.539331 3.43492 0
M  V30 1033 H 101.555 0.12095 3.99617 0
M  V30 1034 H 102.995 -0.90767 4.14171 0
M  V30 1035 C 101.454 -1.71981 2.89697 0
M  V30 1036 O 101.984 -2.81862 2.86211 0
M  V30 1037 N 100.19 -1.54299 2.46252 0
M  V30 1038 H 99.7369 -0.649143 2.49287 0
M  V30 1039 H 99.6949 -2.33431 2.10612 0
M  V30 1040 N 103.467 -1.45747 0.599634 0
M  V30 1041 C 104.713 -2.02592 0.0918643 0
M  V30 1042 C 105.046 -1.46806 -1.27128 0
M  V30 1043 O 104.321 -0.639658 -1.83681 0
M  V30 1044 C 104.604 -3.60073 0.0443398 0
M  V30 1045 C 104.457 -4.26208 1.43759 0
M  V30 1046 C 105.776 -4.35309 -0.647608 0
M  V30 1047 H 102.895 -0.736175 0.034857 0
M  V30 1048 H 105.537 -1.73694 0.770081 0
M  V30 1049 H 103.687 -3.84823 -0.533224 0
M  V30 1050 H 105.359 -4.12668 2.06162 0
M  V30 1051 H 103.602 -3.84916 2.00056 0
M  V30 1052 H 104.273 -5.35069 1.35665 0
M  V30 1053 H 106.749 -4.15805 -0.156776 0
M  V30 1054 H 105.625 -5.45038 -0.649942 0
M  V30 1055 H 105.886 -4.07598 -1.71219 0
M  V30 1056 N 104.945 -0.338344 -1.53925 0
M  V30 1057 C 106.191 0.260143 -2.01125 0
M  V30 1058 C 106.524 1.50617 -1.22589 0
M  V30 1059 O 105.799 1.91979 -0.312113 0
M  V30 1060 C 106.082 0.579499 -3.55407 0
M  V30 1061 C 105.935 -0.678264 -4.44657 0
M  V30 1062 C 107.254 1.39122 -4.17532 0
M  V30 1063 H 104.373 0.0930772 -0.731099 0
M  V30 1064 H 107.015 -0.457852 -1.84401 0
M  V30 1065 H 105.165 1.19118 -3.69788 0
M  V30 1066 H 106.837 -1.31631 -4.42121 0
M  V30 1067 H 105.08 -1.3042 -4.13731 0
M  V30 1068 H 105.751 -0.410143 -5.50474 0
M  V30 1069 H 108.227 0.874035 -4.06817 0
M  V30 1070 H 107.103 1.58342 -5.25565 0
M  V30 1071 H 107.364 2.39178 -3.71815 0
M  V30 1072 N 106.423 1.57458 -0.0668435 0
M  V30 1073 C 107.839 1.56947 0.289772 0
M  V30 1074 C 108.039 1.07584 1.70376 0
M  V30 1075 O 107.095 0.739486 2.41429 0
M  V30 1076 C 108.408 3.0052 0.103943 0
M  V30 1077 C 109.956 3.12517 0.173857 0
M  V30 1078 C 110.431 4.57997 0.0163682 0
M  V30 1079 N 111.922 4.63144 0.0721352 0
M  V30 1080 C 112.657 5.73394 -0.0253794 0
M  V30 1081 N 112.153 6.92576 -0.176133 0
M  V30 1082 N 113.946 5.62091 0.0313305 0
M  V30 1083 H 106.097 1.87863 -0.991027 0
M  V30 1084 H 108.36 0.86583 -0.38606 0
M  V30 1085 H 108.066 3.40729 -0.871572 0
M  V30 1086 H 107.94 3.67304 0.858366 0
M  V30 1087 H 110.327 2.72197 1.13985 0
M  V30 1088 H 110.408 2.48381 -0.611586 0
M  V30 1089 H 110.052 4.99005 -0.946374 0
M  V30 1090 H 109.982 5.20158 0.821153 0
M  V30 1091 H 112.473 3.77436 0.187263 0
M  V30 1092 H 112.786 7.72418 -0.242821 0
M  V30 1093 H 111.131 6.94678 -0.211429 0
M  V30 1094 H 114.322 4.67867 0.147773 0
M  V30 1095 H 114.495 6.47982 -0.048121 0
M  V30 1096 N 107.901 -0.206675 1.56239 0
M  V30 1097 C 108.831 -1.25909 1.96645 0
M  V30 1098 C 109.812 -1.48097 0.836734 0
M  V30 1099 O 110.997 -1.6003 1.10019 0
M  V30 1100 C 108.127 -2.6058 2.29599 0
M  V30 1101 C 107.081 -2.53024 3.452 0
M  V30 1102 C 106.407 -3.91861 3.63798 0
M  V30 1103 C 107.707 -2.06524 4.79734 0
M  V30 1104 H 109.401 -0.923369 2.84806 0
M  V30 1105 H 106.947 -0.442735 1.37025 0
M  V30 1106 H 108.9 -3.34375 2.56459 0
M  V30 1107 H 107.624 -2.95869 1.38307 0
M  V30 1108 H 106.283 -1.81684 3.18412 0
M  V30 1109 H 105.931 -4.24483 2.69857 0
M  V30 1110 H 105.631 -3.87683 4.4156 0
M  V30 1111 H 107.155 -4.67296 3.93022 0
M  V30 1112 H 108.569 -2.70072 5.05702 0
M  V30 1113 H 106.966 -2.13374 5.60885 0
M  V30 1114 H 108.036 -1.01802 4.74093 0
M  V30 1115 N 109.379 -1.50304 -0.473955 0
M  V30 1116 C 110.312 -1.63595 -1.59097 0
M  V30 1117 C 111.29 -0.484142 -1.55225 0
M  V30 1118 O 112.474 -0.703271 -1.7489 0
M  V30 1119 C 109.601 -1.61589 -2.97669 0
M  V30 1120 C 108.647 -2.82295 -3.19705 0
M  V30 1121 S 109.48 -4.43635 -2.99913 0
M  V30 1122 C 110.636 -4.44317 -4.40832 0
M  V30 1123 H 110.869 -2.58082 -1.47583 0
M  V30 1124 H 108.402 -1.39531 -0.661087 0
M  V30 1125 H 110.36 -1.61116 -3.7756 0
M  V30 1126 H 109.021 -0.683421 -3.06575 0
M  V30 1127 H 108.214 -2.77188 -4.20931 0
M  V30 1128 H 107.816 -2.8032 -2.47582 0
M  V30 1129 H 110.108 -4.17703 -5.33414 0
M  V30 1130 H 111.051 -5.45911 -4.50984 0
M  V30 1131 H 111.459 -3.74059 -4.22777 0
M  V30 1132 N 110.857 0.726932 -1.39834 0
M  V30 1133 C 112.134 1.47902 -1.28001 0
M  V30 1134 C 112.514 2.1083 0.106789 0
M  V30 1135 O 111.862 1.99242 1.11869 0
M  V30 1136 C 112.072 2.52392 -2.41038 0
M  V30 1137 C 113.42 3.18546 -2.80737 0
M  V30 1138 O 114.444 2.62708 -2.40547 0
M  V30 1139 O 113.303 4.19604 -3.50135 0
M  V30 1140 H 110.397 0.657163 -0.502062 0
M  V30 1141 H 112.943 0.760071 -1.51727 0
M  V30 1142 H 111.715 2.04329 -3.33715 0
M  V30 1143 H 111.338 3.31837 -2.19021 0
M  V30 1144 N 112.336 1.25143 0.95797 0
M  V30 1145 C 113.582 1.09855 1.70469 0
M  V30 1146 C 113.915 -0.360187 1.90831 0
M  V30 1147 O 113.19 -1.26568 1.47685 0
M  V30 1148 C 113.473 1.8497 3.08963 0
M  V30 1149 C 113.326 3.38652 2.96032 0
M  V30 1150 C 114.645 1.63016 4.08795 0
M  V30 1151 H 111.764 0.400465 0.618706 0
M  V30 1152 H 114.406 1.53933 1.11376 0
M  V30 1153 H 112.556 1.47505 3.59409 0
M  V30 1154 H 114.228 3.85772 2.52938 0
M  V30 1155 H 112.471 3.66534 2.32025 0
M  V30 1156 H 113.142 3.8642 3.94187 0
M  V30 1157 H 115.618 1.95625 3.67247 0
M  V30 1158 H 114.494 2.18015 5.03747 0
M  V30 1159 H 114.755 0.570692 4.38401 0
M  V30 1160 N 113.814 -1.1601 1.06675 0
M  V30 1161 C 115.054 -1.88304 0.795037 0
M  V30 1162 C 115.418 -1.80062 -0.666466 0
M  V30 1163 O 116.619 -2.47319 -1.05293 0
M  V30 1164 C 114.89 -3.33664 1.28076 0
M  V30 1165 S 116.449 -4.23768 1.13868 0
M  V30 1166 H 113.267 -0.649928 0.288296 0
M  V30 1167 H 115.869 -1.4001 1.36445 0
M  V30 1168 H 114.573 -3.37203 2.33927 0
M  V30 1169 H 114.104 -3.87009 0.706253 0
M  V30 1170 H 116.119 -4.96148 0.0719668 0
M  V30 1171 N 115.292 -0.849877 -1.32721 0
M  V30 1172 C 116.255 -0.296122 -2.27279 0
M  V30 1173 C 117.255 0.541458 -1.5141 0
M  V30 1174 O 118.445 0.353658 -1.70572 0
M  V30 1175 C 115.577 0.581579 -3.35902 0
M  V30 1176 H 116.77 -1.13064 -2.77771 0
M  V30 1177 H 114.323 -0.62383 -1.43311 0
M  V30 1178 H 115.058 1.43809 -2.9067 0
M  V30 1179 H 114.843 -0.0178814 -3.92096 0
M  V30 1180 H 116.333 0.961951 -4.0637 0
M  V30 1181 N 116.77 1.45427 -0.607355 0
M  V30 1182 C 117.998 2.06614 -0.108814 0
M  V30 1183 C 118.413 1.45204 1.2067 0
M  V30 1184 O 117.77 0.566132 1.73497 0
M  V30 1185 C 117.821 3.61481 0.0375347 0
M  V30 1186 O 117.542 4.20598 -1.22593 0
M  V30 1187 C 119.043 4.39652 0.567561 0
M  V30 1188 H 116.263 0.66747 -0.0687351 0
M  V30 1189 H 118.807 1.86675 -0.835022 0
M  V30 1190 H 116.962 3.80762 0.714068 0
M  V30 1191 H 117.376 5.1377 -1.05547 0
M  V30 1192 H 118.85 5.48518 0.61905 0
M  V30 1193 H 119.327 4.09417 1.58978 0
M  V30 1194 H 119.933 4.25234 -0.0749202 0
M  V30 1195 N 118.248 0.346503 1.53744 0
M  V30 1196 C 119.473 -0.253074 2.0585 0
M  V30 1197 C 119.898 -1.43202 1.21962 0
M  V30 1198 O 119.256 -1.79783 0.234073 0
M  V30 1199 C 119.304 -0.643193 3.54817 0
M  V30 1200 O 118.408 -1.74286 3.73762 0
M  V30 1201 H 117.749 -0.0413583 0.662711 0
M  V30 1202 H 120.279 0.501574 1.98357 0
M  V30 1203 H 120.289 -0.919526 3.97503 0
M  V30 1204 H 118.964 0.218966 4.15323 0
M  V30 1205 H 117.541 -1.46356 3.42979 0
M  V30 1206 N 119.726 -1.57421 0.075193 0
M  V30 1207 C 121.142 -1.57099 -0.281444 0
M  V30 1208 C 121.342 -1.08486 -1.69803 0
M  V30 1209 O 120.398 -0.752279 -2.41033 0
M  V30 1210 C 121.711 -3.00571 -0.0880041 0
M  V30 1211 C 123.259 -3.12605 -0.157281 0
M  V30 1212 C 123.734 -4.57999 0.0079207 0
M  V30 1213 N 125.225 -4.63176 -0.0475725 0
M  V30 1214 C 125.96 -5.73373 0.0557876 0
M  V30 1215 N 125.456 -6.92473 0.21286 0
M  V30 1216 N 127.249 -5.621 -0.00152098 0
M  V30 1217 H 119.4 -1.87335 1.00098 0
M  V30 1218 H 121.663 -0.86377 0.390646 0
M  V30 1219 H 121.369 -3.40262 0.889629 0
M  V30 1220 H 121.243 -3.67754 -0.838875 0
M  V30 1221 H 123.63 -2.72798 -1.1254 0
M  V30 1222 H 123.711 -2.48053 0.62475 0
M  V30 1223 H 123.355 -4.98496 0.972824 0
M  V30 1224 H 123.285 -5.20586 -0.793556 0
M  V30 1225 H 125.776 -3.7753 -0.167244 0
M  V30 1226 H 126.089 -7.72279 0.283781 0
M  V30 1227 H 124.434 -6.94556 0.248267 0
M  V30 1228 H 127.625 -4.67938 -0.122958 0
M  V30 1229 H 127.798 -6.47948 0.0824844 0
M  V30 1230 N 121.204 0.198386 -1.56346 0
M  V30 1231 C 122.432 0.935572 -1.84539 0
M  V30 1232 C 122.847 1.76989 -0.657281 0
M  V30 1233 O 122.204 1.78626 0.374043 0
M  V30 1234 C 122.255 1.8344 -3.11499 0
M  V30 1235 O 121.976 1.03377 -4.25728 0
M  V30 1236 C 123.477 2.68355 -3.52846 0
M  V30 1237 H 120.697 0.273126 -0.612897 0
M  V30 1238 H 123.241 0.20663 -2.03453 0
M  V30 1239 H 121.396 2.51701 -2.94492 0
M  V30 1240 H 121.81 1.64599 -4.98003 0
M  V30 1241 H 123.284 3.27085 -4.44657 0
M  V30 1242 H 123.761 3.41901 -2.75681 0
M  V30 1243 H 124.367 2.05471 -3.72373 0
M  V30 1244 N 122.682 1.50554 0.465978 0
M  V30 1245 C 123.959 1.5232 1.22712 0
M  V30 1246 C 124.339 0.270807 2.09356 0
M  V30 1247 O 123.687 -0.745541 2.15995 0
M  V30 1248 C 123.897 2.82175 2.05374 0
M  V30 1249 C 125.245 3.33033 2.6339 0
M  V30 1250 O 126.269 2.83531 2.15612 0
M  V30 1251 O 125.128 4.19336 3.50456 0
M  V30 1252 H 122.222 0.611183 0.557122 0
M  V30 1253 H 124.768 1.62847 0.477381 0
M  V30 1254 H 123.54 3.64797 1.41558 0
M  V30 1255 H 123.163 2.74675 2.87471 0
M  V30 1256 N 124.16 -0.719506 1.40217 0
M  V30 1257 C 125.576 -1.02707 1.22161 0
M  V30 1258 C 125.776 -2.0128 0.0940557 0
M  V30 1259 O 124.832 -2.46452 -0.549318 0
M  V30 1260 C 126.145 -1.57454 2.56181 0
M  V30 1261 C 127.693 -1.69458 2.63159 0
M  V30 1262 C 128.168 -2.27611 3.97438 0
M  V30 1263 N 129.659 -2.35002 3.99159 0
M  V30 1264 C 130.394 -2.80972 4.99842 0
M  V30 1265 N 129.89 -3.26723 6.10921 0
M  V30 1266 N 131.683 -2.80321 4.87213 0
M  V30 1267 H 123.834 -0.0660492 2.12297 0
M  V30 1268 H 126.097 -0.0919077 0.943534 0
M  V30 1269 H 125.803 -0.924873 3.39321 0
M  V30 1270 H 125.677 -2.56036 2.76993 0
M  V30 1271 H 128.064 -2.33543 1.80393 0
M  V30 1272 H 128.145 -0.694867 2.46181 0
M  V30 1273 H 127.789 -1.6415 4.80643 0
M  V30 1274 H 127.719 -3.2829 4.11744 0
M  V30 1275 H 130.21 -2.02685 3.18947 0
M  V30 1276 H 130.523 -3.60355 6.8364 0
M  V30 1277 H 128.868 -3.24692 6.14492 0
M  V30 1278 H 132.059 -2.43912 3.9953 0
M  V30 1279 H 132.232 -3.15831 5.65822 0
M  V30 1280 N 125.638 -1.25649 -0.95132 0
M  V30 1281 C 126.548 -1.08073 -2.08224 0
M  V30 1282 C 127.564 -0.0169666 -1.73992 0
M  V30 1283 O 128.74 -0.218593 -2.0021 0
M  V30 1284 C 125.805 -0.704922 -3.39458 0
M  V30 1285 C 124.866 -1.84699 -3.87537 0
M  V30 1286 C 124.099 -1.48902 -5.12508 0
M  V30 1287 O 124.322 -0.386156 -5.69091 0
M  V30 1288 O 123.256 -2.32033 -5.55378 0
M  V30 1289 H 127.082 -2.02924 -2.25954 0
M  V30 1290 H 124.667 -1.04618 -1.06656 0
M  V30 1291 H 126.549 -0.507609 -4.18332 0
M  V30 1292 H 125.224 0.214291 -3.2299 0
M  V30 1293 H 124.131 -2.09919 -3.09653 0
M  V30 1294 H 125.464 -2.74557 -4.08509 0
M  V30 1295 N 127.117 1.15442 -1.07289 0
M  V30 1296 C 128.366 1.85557 -0.790669 0
M  V30 1297 C 128.679 1.83186 0.685739 0
M  V30 1298 O 129.885 2.48977 1.0827 0
M  V30 1299 C 128.341 3.33038 -1.36433 0
M  V30 1300 C 127.949 3.43856 -2.8717 0
M  V30 1301 C 129.693 4.0834 -1.1601 0
M  V30 1302 C 127.6 4.85482 -3.3773 0
M  V30 1303 H 126.53 0.695122 -0.292098 0
M  V30 1304 H 129.181 1.30219 -1.29287 0
M  V30 1305 H 127.563 3.88043 -0.789864 0
M  V30 1306 H 128.737 2.98961 -3.50655 0
M  V30 1307 H 127.052 2.81998 -3.06376 0
M  V30 1308 H 129.649 5.12859 -1.51262 0
M  V30 1309 H 129.992 4.16182 -0.0991007 0
M  V30 1310 H 130.525 3.59603 -1.70089 0
M  V30 1311 H 127.264 4.82823 -4.43353 0
M  V30 1312 H 126.784 5.30961 -2.78999 0
M  V30 1313 H 128.463 5.54335 -3.33648 0
M  V30 1314 N 128.595 0.856903 1.32268 0
M  V30 1315 C 129.542 0.301172 2.28827 0
M  V30 1316 C 130.512 -0.593104 1.5515 0
M  V30 1317 O 131.697 -0.527537 1.83362 0
M  V30 1318 C 128.837 -0.502523 3.41422 0
M  V30 1319 C 127.95 0.417797 4.29975 0
M  V30 1320 C 127.085 -0.398749 5.29701 0
M  V30 1321 C 126.124 0.518827 6.09897 0
M  V30 1322 N 125.261 -0.260674 7.01616 0
M  V30 1323 H 130.101 1.12983 2.75751 0
M  V30 1324 H 127.638 0.568582 1.35667 0
M  V30 1325 H 129.596 -0.984141 4.05426 0
M  V30 1326 H 128.226 -1.29599 2.95642 0
M  V30 1327 H 127.278 1.01781 3.66531 0
M  V30 1328 H 128.59 1.12191 4.86019 0
M  V30 1329 H 127.744 -0.943435 5.9932 0
M  V30 1330 H 126.483 -1.13622 4.7428 0
M  V30 1331 H 125.488 1.07538 5.39181 0
M  V30 1332 H 126.713 1.25495 6.67404 0
M  V30 1333 H 124.659 -0.981198 6.4862 0
M  V30 1334 H 124.576 0.384364 7.55022 0
M  V30 1335 H 125.844 -0.787014 7.75517 0
M  V30 1336 N 130.073 -1.45103 0.615059 0
M  V30 1337 C 131.319 -2.02483 0.113347 0
M  V30 1338 C 131.652 -1.48146 -1.25564 0
M  V30 1339 O 130.927 -0.659104 -1.82992 0
M  V30 1340 C 131.21 -3.60005 0.0825278 0
M  V30 1341 C 131.063 -4.2466 1.48271 0
M  V30 1342 C 132.382 -4.35972 -0.601401 0
M  V30 1343 H 129.501 -0.735764 0.0426632 0
M  V30 1344 H 132.143 -1.72868 0.788461 0
M  V30 1345 H 130.293 -3.85367 -0.492378 0
M  V30 1346 H 131.965 -4.10458 2.10527 0
M  V30 1347 H 130.208 -3.82772 2.04127 0
M  V30 1348 H 130.879 -5.336 1.41332 0
M  V30 1349 H 133.355 -4.15947 -0.112666 0
M  V30 1350 H 132.231 -5.45697 -0.592097 0
M  V30 1351 H 132.492 -4.09391 -1.66887 0
M  V30 1352 N 131.551 -0.354651 -1.53558 0
M  V30 1353 C 132.779 0.239515 -2.05509 0
M  V30 1354 C 133.194 1.4333 -1.2289 0
M  V30 1355 O 132.551 1.80538 -0.266899 0
M  V30 1356 C 132.602 0.643719 -3.55723 0
M  V30 1357 O 132.323 -0.502602 -4.35207 0
M  V30 1358 C 133.824 1.29743 -4.23889 0
M  V30 1359 H 131.044 0.0442697 -0.669538 0
M  V30 1360 H 133.588 -0.509856 -1.98042 0
M  V30 1361 H 131.743 1.34302 -3.63376 0
M  V30 1362 H 132.157 -0.178172 -5.24197 0
M  V30 1363 H 133.631 1.53091 -5.30346 0
M  V30 1364 H 134.108 2.25441 -3.76926 0
M  V30 1365 H 134.714 0.639865 -4.20459 0
M  V30 1366 N 133.029 1.57378 -0.0835403 0
M  V30 1367 C 133.959 2.1641 0.87686 0
M  V30 1368 C 134.94 1.09429 1.30228 0
M  V30 1369 O 136.125 1.37516 1.37124 0
M  V30 1370 C 133.255 2.73517 2.14022 0
M  V30 1371 C 132.209 3.85769 1.85381 0
M  V30 1372 C 131.535 4.29529 3.18448 0
M  V30 1373 C 132.835 5.09486 1.14984 0
M  V30 1374 H 134.529 2.96914 0.385059 0
M  V30 1375 H 132.075 1.42823 0.18377 0
M  V30 1376 H 134.028 3.13463 2.81636 0
M  V30 1377 H 132.752 1.90252 2.65465 0
M  V30 1378 H 131.411 3.46345 1.20169 0
M  V30 1379 H 131.059 3.43169 3.67755 0
M  V30 1380 H 130.759 5.05204 3.00071 0
M  V30 1381 H 132.283 4.72099 3.8724 0
M  V30 1382 H 133.697 5.46674 1.72687 0
M  V30 1383 H 132.094 5.90515 1.06826 0
M  V30 1384 H 133.164 4.84724 0.130749 0
M  V30 1385 N 134.507 -0.190092 1.56449 0
M  V30 1386 C 135.753 -0.911052 1.81184 0
M  V30 1387 C 136.086 -1.82699 0.658396 0
M  V30 1388 O 135.361 -1.91491 -0.340775 0
M  V30 1389 C 135.644 -1.72297 3.16205 0
M  V30 1390 C 135.497 -0.831419 4.42049 0
M  V30 1391 C 136.816 -2.69454 3.47969 0
M  V30 1392 H 133.935 -0.32977 0.659106 0
M  V30 1393 H 136.577 -0.178169 1.89163 0
M  V30 1394 H 134.727 -2.34778 3.09534 0
M  V30 1395 H 136.399 -0.220929 4.60771 0
M  V30 1396 H 134.642 -0.138406 4.33579 0
M  V30 1397 H 135.313 -1.43461 5.33032 0
M  V30 1398 H 137.789 -2.17104 3.54972 0
M  V30 1399 H 136.665 -3.23342 4.43555 0
M  V30 1400 H 136.926 -3.48744 2.71717 0
M  V30 1401 N 135.985 -1.50799 -0.457987 0
M  V30 1402 C 137.232 -1.62442 -1.20908 0
M  V30 1403 C 137.56 -0.330865 -1.91665 0
M  V30 1404 O 136.815 0.68401 -1.83357 0
M  V30 1405 C 137.114 -2.76358 -2.2663 0
M  V30 1406 C 136.78 -4.16378 -1.73033 0
M  V30 1407 C 135.442 -4.54473 -1.58138 0
M  V30 1408 C 137.794 -5.03836 -1.33413 0
M  V30 1409 C 135.122 -5.77754 -1.02065 0
M  V30 1410 C 137.474 -6.27676 -0.78778 0
M  V30 1411 C 136.138 -6.64562 -0.625561 0
M  V30 1412 H 135.408 -0.594417 -0.442435 0
M  V30 1413 H 138.055 -1.84772 -0.503136 0
M  V30 1414 H 136.36 -2.48167 -3.03184 0
M  V30 1415 H 138.057 -2.82568 -2.84528 0
M  V30 1416 H 134.647 -3.86331 -1.85598 0
M  V30 1417 H 138.831 -4.75026 -1.4375 0
M  V30 1418 H 134.087 -6.04997 -0.882547 0
M  V30 1419 H 138.261 -6.94797 -0.472177 0
M  V30 1420 H 135.888 -7.59965 -0.188926 0
M  V30 1421 N 137.463 0.71206 -1.40597 0
M  V30 1422 C 138.373 1.8562 -1.43466 0
M  V30 1423 C 139.389 1.70902 -0.326902 0
M  V30 1424 O 140.565 1.93105 -0.572043 0
M  V30 1425 C 137.63 3.21451 -1.29884 0
M  V30 1426 C 136.691 3.48398 -2.50833 0
M  V30 1427 C 135.924 4.77749 -2.3789 0
M  V30 1428 O 136.147 5.53089 -1.39459 0
M  V30 1429 O 135.081 5.05111 -3.27333 0
M  V30 1430 H 138.907 1.86155 -2.39958 0
M  V30 1431 H 136.492 0.86295 -1.21957 0
M  V30 1432 H 138.374 4.02579 -1.24531 0
M  V30 1433 H 137.049 3.21636 -0.364997 0
M  V30 1434 H 135.956 2.67265 -2.61763 0
M  V30 1435 H 137.289 3.53014 -3.4299 0
M  V30 1436 N 138.941 1.26152 0.944643 0
M  V30 1437 C 139.891 1.04081 2.02857 0
M  V30 1438 C 140.875 -0.0256555 1.6088 0
M  V30 1439 O 142.067 0.190884 1.75968 0
M  V30 1440 C 139.196 0.672118 3.36656 0
M  V30 1441 C 138.282 1.77586 3.85128 0
M  V30 1442 N 138.673 3.01272 4.06287 0
M  V30 1443 C 136.971 1.65867 4.1401 0
M  V30 1444 C 137.672 3.72983 4.46384 0
M  V30 1445 N 136.648 3.00653 4.52889 0
M  V30 1446 H 140.45 1.97968 2.17223 0
M  V30 1447 H 137.964 1.16618 1.13022 0
M  V30 1448 H 139.961 0.495166 4.13949 0
M  V30 1449 H 138.621 -0.259307 3.23663 0
M  V30 1450 H 139.632 3.37213 3.93075 0
M  V30 1451 H 136.309 0.796907 4.09824 0
M  V30 1452 H 137.699 4.792 4.70975 0
M  V30 1453 N 140.419 -1.14872 1.07899 0
M  V30 1454 C 141.665 -1.86064 0.806725 0
M  V30 1455 C 141.998 -1.82434 -0.665706 0
M  V30 1456 O 141.273 -1.25138 -1.48899 0
M  V30 1457 C 141.556 -3.34929 1.32267 0
M  V30 1458 C 141.409 -3.47161 2.86006 0
M  V30 1459 C 142.728 -4.29863 0.943717 0
M  V30 1460 H 139.847 -0.675591 0.294526 0
M  V30 1461 H 142.489 -1.34925 1.33773 0
M  V30 1462 H 140.639 -3.78611 0.870974 0
M  V30 1463 H 142.311 -3.12302 3.39507 0
M  V30 1464 H 140.554 -2.88539 3.23925 0
M  V30 1465 H 141.225 -4.51777 3.17177 0
M  V30 1466 H 143.701 -3.9417 1.33302 0
M  V30 1467 H 142.577 -5.32494 1.33198 0
M  V30 1468 H 142.838 -4.41846 -0.149796 0
M  V30 1469 N 141.898 -0.863906 -1.31812 0
M  V30 1470 C 143.175 -0.39275 -1.91616 0
M  V30 1471 C 143.555 1.12461 -1.7865 0
M  V30 1472 O 142.903 1.95045 -1.19037 0
M  V30 1473 C 143.113 -0.867385 -3.38049 0
M  V30 1474 C 144.461 -0.889966 -4.15168 0
M  V30 1475 O 145.485 -0.812635 -3.46806 0
M  V30 1476 O 144.344 -1.00079 -5.37258 0
M  V30 1477 H 141.438 -0.116358 -0.818773 0
M  V30 1478 H 143.984 -0.951418 -1.40521 0
M  V30 1479 H 142.756 -1.91081 -3.41473 0
M  V30 1480 H 142.379 -0.286687 -3.96565 0
M  V30 1481 N 143.376 1.44774 -0.622745 0
M  V30 1482 C 144.308 2.28856 0.125485 0
M  V30 1483 C 145.321 1.40811 0.817069 0
M  V30 1484 O 146.51 1.65044 0.679918 0
M  V30 1485 C 143.61 3.16963 1.19949 0
M  V30 1486 C 142.783 4.33374 0.592064 0
M  V30 1487 C 141.842 5.02577 1.55893 0
M  V30 1488 O 140.868 5.58873 1.07933 0
M  V30 1489 N 142.07 5.03256 2.89334 0
M  V30 1490 H 144.835 2.93713 -0.596068 0
M  V30 1491 H 142.396 1.55129 -0.463303 0
M  V30 1492 H 144.388 3.60123 1.84644 0
M  V30 1493 H 142.958 2.53913 1.82337 0
M  V30 1494 H 142.178 3.93509 -0.233322 0
M  V30 1495 H 143.466 5.08527 0.166738 0
M  V30 1496 H 142.864 4.58836 3.30887 0
M  V30 1497 H 141.421 5.50232 3.49412 0
M  V30 1498 N 144.854 0.36279 1.53368 0
M  V30 1499 C 146.131 -0.284021 1.93527 0
M  V30 1500 C 146.511 -1.66628 1.29608 0
M  V30 1501 O 145.859 -2.23942 0.45413 0
M  V30 1502 C 146.069 -0.337028 3.47369 0
M  V30 1503 C 147.417 -0.578708 4.20638 0
M  V30 1504 O 148.441 -0.418352 3.53735 0
M  V30 1505 O 147.3 -0.89074 5.39192 0
M  V30 1506 H 144.394 -0.169743 0.809393 0
M  V30 1507 H 146.94 0.41537 1.64538 0
M  V30 1508 H 145.712 0.632217 3.86159 0
M  V30 1509 H 145.335 -1.08243 3.82582 0
M  V30 1510 N 146.332 -1.57332 0.0918853 0
M  V30 1511 C 147.262 -2.16872 -0.865371 0
M  V30 1512 C 148.243 -1.10118 -1.29646 0
M  V30 1513 O 149.428 -1.38242 -1.36392 0
M  V30 1514 C 146.558 -2.74649 -2.12569 0
M  V30 1515 C 145.512 -3.86747 -1.83333 0
M  V30 1516 C 144.838 -4.31212 -3.16166 0
M  V30 1517 C 146.138 -5.10089 -1.1228 0
M  V30 1518 H 147.832 -2.97114 -0.369307 0
M  V30 1519 H 145.378 -1.42918 -0.176194 0
M  V30 1520 H 147.331 -3.14952 -2.7997 0
M  V30 1521 H 146.055 -1.91657 -2.64452 0
M  V30 1522 H 144.714 -3.46978 -1.18331 0
M  V30 1523 H 144.362 -3.45115 -3.6593 0
M  V30 1524 H 144.062 -5.06788 -2.97388 0
M  V30 1525 H 145.586 -4.74146 -3.84731 0
M  V30 1526 H 147 -5.47582 -1.69785 0
M  V30 1527 H 145.397 -5.91073 -1.03693 0
M  V30 1528 H 146.467 -4.84786 -0.105041 0
M  V30 1529 N 147.81 0.181792 -1.56548 0
M  V30 1530 C 149.226 0.53316 -1.50431 0
M  V30 1531 C 149.426 1.85184 -0.794297 0
M  V30 1532 O 148.482 2.50058 -0.350318 0
M  V30 1533 C 149.795 0.575597 -2.9514 0
M  V30 1534 C 151.343 0.663519 -3.05886 0
M  V30 1535 C 151.818 0.736946 -4.52032 0
M  V30 1536 N 153.309 0.800118 -4.56237 0
M  V30 1537 C 154.044 0.877327 -5.66649 0
M  V30 1538 N 153.54 0.916016 -6.86718 0
M  V30 1539 N 155.333 0.915542 -5.54594 0
M  V30 1540 H 147.484 -0.683025 -2.01118 0
M  V30 1541 H 149.747 -0.244988 -0.915797 0
M  V30 1542 H 149.453 -0.324482 -3.502 0
M  V30 1543 H 149.327 1.42572 -3.49218 0
M  V30 1544 H 151.714 1.55403 -2.50867 0
M  V30 1545 H 151.795 -0.21307 -2.54911 0
M  V30 1546 H 151.439 -0.149262 -5.07681 0
M  V30 1547 H 151.369 1.62953 -5.00753 0
M  V30 1548 H 153.86 0.778926 -3.69785 0
M  V30 1549 H 154.173 0.975813 -7.66614 0
M  V30 1550 H 152.518 0.884469 -6.89349 0
M  V30 1551 H 155.709 0.882245 -4.59711 0
M  V30 1552 H 155.882 0.972253 -6.40665 0
M  V30 1553 N 149.288 1.51039 0.449983 0
M  V30 1554 C 150.516 1.66869 1.2232 0
M  V30 1555 C 150.931 0.360727 1.85322 0
M  V30 1556 O 150.288 -0.659531 1.70166 0
M  V30 1557 C 150.339 2.77524 2.31652 0
M  V30 1558 O 150.06 4.03252 1.7123 0
M  V30 1559 C 151.561 3.04512 3.2216 0
M  V30 1560 H 148.781 0.560326 0.369155 0
M  V30 1561 H 151.325 1.97385 0.534719 0
M  V30 1562 H 149.48 2.49642 2.96239 0
M  V30 1563 H 149.894 4.64609 2.43389 0
M  V30 1564 H 151.368 3.85551 3.95038 0
M  V30 1565 H 151.845 2.16415 3.8218 0
M  V30 1566 H 152.451 3.34005 2.63288 0
M  V30 1567 N 150.766 -0.704594 1.40972 0
M  V30 1568 C 151.996 -1.49138 1.42974 0
M  V30 1569 C 152.404 -1.89175 0.0308406 0
M  V30 1570 O 151.747 -1.56734 -0.958138 0
M  V30 1571 C 151.809 -2.79016 2.26694 0
M  V30 1572 C 151.473 -2.61236 3.74973 0
M  V30 1573 C 152.47 -2.27773 4.67349 0
M  V30 1574 C 150.155 -2.77158 4.18914 0
M  V30 1575 C 152.149 -2.10457 6.01653 0
M  V30 1576 C 149.836 -2.59459 5.53285 0
M  V30 1577 C 150.834 -2.26158 6.4447 0
M  V30 1578 O 150.522 -2.08605 7.76363 0
M  V30 1579 H 150.254 -0.466443 0.489292 0
M  V30 1580 H 152.808 -0.8758 1.85793 0
M  V30 1581 H 151.038 -3.42947 1.78673 0
M  V30 1582 H 152.727 -3.40782 2.20504 0
M  V30 1583 H 153.493 -2.15095 4.34694 0
M  V30 1584 H 149.372 -3.02064 3.48251 0
M  V30 1585 H 152.916 -1.84387 6.72791 0
M  V30 1586 H 148.813 -2.71725 5.85522 0
M  V30 1587 H 149.581 -2.23439 7.87412 0
M  V30 1588 N 152.244 -1.26651 -0.937939 0
M  V30 1589 C 153.174 -1.10993 -2.05433 0
M  V30 1590 C 154.155 -0.0142161 -1.70094 0
M  V30 1591 O 155.34 -0.186837 -1.93299 0
M  V30 1592 C 152.47 -0.745561 -3.39203 0
M  V30 1593 C 151.424 -1.79337 -3.88616 0
M  V30 1594 C 150.75 -1.28324 -5.19073 0
M  V30 1595 C 152.05 -3.19553 -4.13138 0
M  V30 1596 H 153.744 -2.0438 -2.1879 0
M  V30 1597 H 151.29 -0.984041 -1.05131 0
M  V30 1598 H 153.243 -0.622888 -4.16771 0
M  V30 1599 H 151.967 0.22401 -3.25831 0
M  V30 1600 H 150.626 -1.90477 -3.13231 0
M  V30 1601 H 150.274 -0.303414 -5.02084 0
M  V30 1602 H 149.974 -1.98369 -5.53103 0
M  V30 1603 H 151.498 -1.1733 -5.99221 0
M  V30 1604 H 152.912 -3.11471 -4.81309 0
M  V30 1605 H 151.309 -3.87218 -4.58457 0
M  V30 1606 H 152.379 -3.65368 -3.18801 0
M  V30 1607 N 153.722 1.14298 -1.08507 0
M  V30 1608 C 154.999 1.81544 -0.728088 0
M  V30 1609 C 155.379 1.95838 0.78808 0
M  V30 1610 O 154.727 1.51904 1.70697 0
M  V30 1611 C 154.937 3.17169 -1.45619 0
M  V30 1612 C 156.285 3.9265 -1.61591 0
M  V30 1613 O 157.309 3.26762 -1.41793 0
M  V30 1614 O 156.168 5.10807 -1.94263 0
M  V30 1615 H 153.262 0.78491 -0.260471 0
M  V30 1616 H 155.808 1.21307 -1.18671 0
M  V30 1617 H 154.58 3.01934 -2.489 0
M  V30 1618 H 154.203 3.851 -0.989124 0
M  V30 1619 N 155.201 0.870884 1.31352 0
M  V30 1620 C 156.148 0.325425 2.28494 0
M  V30 1621 C 157.118 -0.576615 1.5577 0
M  V30 1622 O 158.303 -0.508059 1.83911 0
M  V30 1623 C 155.443 -0.466283 3.41935 0
M  V30 1624 C 154.556 0.463378 4.29508 0
M  V30 1625 C 153.691 -0.342544 5.30094 0
M  V30 1626 C 152.73 0.583486 6.09313 0
M  V30 1627 N 151.867 -0.186244 7.01853 0
M  V30 1628 H 156.707 1.15901 2.74538 0
M  V30 1629 H 154.244 0.58294 1.35056 0
M  V30 1630 H 156.202 -0.941085 4.06447 0
M  V30 1631 H 154.832 -1.26456 2.97 0
M  V30 1632 H 153.884 1.05663 3.65431 0
M  V30 1633 H 155.196 1.1734 4.84802 0
M  V30 1634 H 154.35 -0.879816 6.00287 0
M  V30 1635 H 153.089 -1.08585 4.75458 0
M  V30 1636 H 152.094 1.13251 5.3801 0
M  V30 1637 H 153.319 1.32566 6.66035 0
M  V30 1638 H 151.265 -0.912348 6.49625 0
M  V30 1639 H 151.182 0.464422 7.54572 0
M  V30 1640 H 152.45 -0.704716 7.76308 0
M  V30 1641 N 156.679 -1.44442 0.630414 0
M  V30 1642 C 157.642 -2.29107 -0.0652523 0
M  V30 1643 C 158.642 -1.41002 -0.772995 0
M  V30 1644 O 159.832 -1.62881 -0.617692 0
M  V30 1645 C 156.964 -3.22564 -1.10296 0
M  V30 1646 H 158.157 -2.92103 0.679401 0
M  V30 1647 H 155.71 -1.51343 0.390517 0
M  V30 1648 H 156.445 -2.64416 -1.87762 0
M  V30 1649 H 156.23 -3.87491 -0.59941 0
M  V30 1650 H 157.72 -3.86167 -1.5895 0
M  V30 1651 N 158.157 -0.370918 -1.53173 0
M  V30 1652 C 159.568 0.107139 -1.86392 0
M  V30 1653 C 159.919 1.47714 -1.29132 0
M  V30 1654 O 159.044 2.07464 -0.615439 0
M  V30 1655 C 159.639 0.201187 -3.38202 0
M  V30 1656 C 158.198 0.623507 -3.712 0
M  V30 1657 C 157.345 -0.225978 -2.76378 0
M  V30 1658 H 160.296 -0.58951 -1.47345 0
M  V30 1659 H 160.317 1.02377 -3.66468 0
M  V30 1660 H 159.829 -0.796058 -3.79848 0
M  V30 1661 H 157.93 1.62879 -3.35114 0
M  V30 1662 H 158.043 0.394414 -4.77474 0
M  V30 1663 H 156.407 0.305962 -2.52856 0
M  V30 1664 H 157.19 -1.22086 -3.20858 0
M  V30 1665 N 159.635 1.57281 -0.100228 0
M  V30 1666 C 161.046 1.81725 0.428107 0
M  V30 1667 C 161.397 1.01619 1.67833 0
M  V30 1668 O 160.522 0.247098 2.14985 0
M  V30 1669 C 161.117 3.29617 0.78347 0
M  V30 1670 C 159.676 3.54808 1.25653 0
M  V30 1671 C 158.823 2.76118 0.255752 0
M  V30 1672 H 161.774 1.55324 -0.325608 0
M  V30 1673 H 161.795 3.4322 1.64256 0
M  V30 1674 H 161.307 3.87893 -0.12665 0
M  V30 1675 H 159.408 3.01868 2.18418 0
M  V30 1676 H 159.521 4.63443 1.21482 0
M  V30 1677 H 157.885 2.43745 0.738956 0
M  V30 1678 H 158.668 3.37145 -0.647136 0
M  V30 1679 N 161.113 -0.173488 1.56642 0
M  V30 1680 C 162.524 -0.736155 1.71574 0
M  V30 1681 C 162.875 -1.82888 0.710389 0
M  V30 1682 O 162 -2.16017 -0.1287 0
M  V30 1683 C 162.595 -1.34211 3.11083 0
M  V30 1684 C 161.154 -1.85162 3.27707 0
M  V30 1685 C 160.301 -0.729765 2.67525 0
M  V30 1686 H 163.252 0.0518786 1.58615 0
M  V30 1687 H 163.273 -2.21178 3.09613 0
M  V30 1688 H 162.785 -0.546579 3.84232 0
M  V30 1689 H 160.886 -2.67366 2.59512 0
M  V30 1690 H 160.999 -1.99855 4.35425 0
M  V30 1691 H 159.363 -1.14965 2.27278 0
M  V30 1692 H 160.146 0.0538806 3.43258 0
M  V30 1693 N 162.591 -1.51276 -0.441967 0
M  V30 1694 C 163.839 -1.63392 -1.18943 0
M  V30 1695 C 164.16 -0.350159 -1.9183 0
M  V30 1696 O 163.43 0.633784 -1.85364 0
M  V30 1697 H 162.01 -0.602164 -0.442049 0
M  V30 1698 H 164.672 -1.88186 -0.507165 0
M  V30 1699 H 163.768 -2.45934 -1.92154 0
M  V30 1700 N 164.069 0.697108 -1.41344 0
M  V30 1701 C 164.999 1.82353 -1.45841 0
M  V30 1702 C 165.98 1.67115 -0.317247 0
M  V30 1703 O 167.165 1.86871 -0.528474 0
M  V30 1704 C 164.295 3.20476 -1.33838 0
M  V30 1705 C 163.249 3.50415 -2.4575 0
M  V30 1706 C 162.575 4.87878 -2.18813 0
M  V30 1707 C 163.875 3.49546 -3.88091 0
M  V30 1708 H 165.569 1.78846 -2.40113 0
M  V30 1709 H 163.115 0.859028 -1.15571 0
M  V30 1710 H 165.068 3.98988 -1.35596 0
M  V30 1711 H 163.792 3.24604 -0.360498 0
M  V30 1712 H 162.451 2.74253 -2.43271 0
M  V30 1713 H 162.099 4.8863 -1.19371 0
M  V30 1714 H 161.799 5.08875 -2.93803 0
M  V30 1715 H 163.323 5.68702 -2.22284 0
M  V30 1716 H 164.737 4.18066 -3.92293 0
M  V30 1717 H 163.134 3.82075 -4.62751 0
M  V30 1718 H 164.204 2.48552 -4.16353 0
M  V30 1719 N 165.547 1.27147 0.931209 0
M  V30 1720 C 166.958 1.12044 1.49342 0
M  V30 1721 C 167.309 -0.295795 1.93957 0
M  V30 1722 O 166.434 -1.18835 1.80852 0
M  V30 1723 C 167.029 2.02781 2.71414 0
M  V30 1724 C 165.588 1.91794 3.2387 0
M  V30 1725 C 164.735 1.95543 1.96617 0
M  V30 1726 H 167.686 1.40091 0.745672 0
M  V30 1727 H 167.707 1.58156 3.46074 0
M  V30 1728 H 167.219 3.05848 2.38911 0
M  V30 1729 H 165.32 0.916992 3.6114 0
M  V30 1730 H 165.433 2.77852 3.90302 0
M  V30 1731 H 163.797 1.39722 2.12955 0
M  V30 1732 H 164.58 3.00259 1.66432 0
M  V30 1733 N 167.025 -1.13721 1.09112 0
M  V30 1734 C 167.988 -2.17222 0.731241 0
M  V30 1735 C 168.988 -1.59035 -0.237566 0
M  V30 1736 O 170.178 -1.74192 -0.0161704 0
M  V30 1737 C 167.31 -3.40804 0.0808443 0
M  V30 1738 H 168.503 -2.50573 1.64783 0
M  V30 1739 H 166.056 -1.28493 0.889897 0
M  V30 1740 H 166.791 -3.1304 -0.847127 0
M  V30 1741 H 166.576 -3.84306 0.777896 0
M  V30 1742 H 168.066 -4.1731 -0.155657 0
M  V30 1743 N 168.503 -0.877838 -1.30888 0
M  V30 1744 C 169.413 -0.343096 -2.32078 0
M  V30 1745 C 170.429 0.551022 -1.65045 0
M  V30 1746 O 171.605 0.445854 -1.96403 0
M  V30 1747 C 168.67 0.439905 -3.43898 0
M  V30 1748 C 167.731 -0.483111 -4.26573 0
M  V30 1749 C 166.964 0.262616 -5.33053 0
M  V30 1750 O 167.187 1.48967 -5.50604 0
M  V30 1751 O 166.121 -0.383593 -6.00676 0
M  V30 1752 H 169.947 -1.18203 -2.79753 0
M  V30 1753 H 167.532 -0.64145 -1.34929 0
M  V30 1754 H 169.414 0.883504 -4.12034 0
M  V30 1755 H 168.089 1.25526 -2.98371 0
M  V30 1756 H 166.996 -0.975374 -3.61161 0
M  V30 1757 H 168.329 -1.26427 -4.75686 0
M  V30 1758 N 169.982 1.44106 -0.638065 0
M  V30 1759 C 171.21 2.06336 -0.152615 0
M  V30 1760 C 171.625 1.47731 1.17563 0
M  V30 1761 O 170.982 0.602806 1.72257 0
M  V30 1762 C 171.033 3.61479 -0.0391491 0
M  V30 1763 O 170.754 4.17903 -1.31487 0
M  V30 1764 C 172.255 4.40757 0.474176 0
M  V30 1765 H 169.475 0.665862 -0.0828776 0
M  V30 1766 H 172.019 1.84862 -0.87443 0
M  V30 1767 H 170.174 3.82191 0.633142 0
M  V30 1768 H 170.588 5.11416 -1.16421 0
M  V30 1769 H 172.062 5.49707 0.502562 0
M  V30 1770 H 172.539 4.12697 1.50258 0
M  V30 1771 H 173.145 4.24979 -0.165102 0
M  V30 1772 N 171.46 0.379036 1.52974 0
M  V30 1773 C 172.709 -0.207612 2.00629 0
M  V30 1774 C 173.022 -1.48758 1.27006 0
M  V30 1775 O 174.228 -2.15365 1.65318 0
M  V30 1776 C 172.684 -0.42053 3.57435 0
M  V30 1777 C 172.292 0.845587 4.39948 0
M  V30 1778 C 174.036 -0.964102 4.13407 0
M  V30 1779 C 171.943 0.601513 5.88333 0
M  V30 1780 H 170.873 -0.0813591 0.749598 0
M  V30 1781 H 173.524 0.499853 1.76561 0
M  V30 1782 H 171.906 -1.18959 3.7771 0
M  V30 1783 H 173.08 1.61848 4.31442 0
M  V30 1784 H 171.395 1.31336 3.95145 0
M  V30 1785 H 173.992 -1.16225 5.21916 0
M  V30 1786 H 174.335 -1.93019 3.68849 0
M  V30 1787 H 174.868 -0.25487 3.96983 0
M  V30 1788 H 171.607 1.53831 6.37194 0
M  V30 1789 H 171.127 -0.132628 5.99653 0
M  V30 1790 H 172.806 0.232134 6.46583 0
M  V30 1791 N 172.938 -1.57226 0.108567 0
M  V30 1792 C 173.885 -2.14756 -0.845481 0
M  V30 1793 C 174.855 -1.06971 -1.27068 0
M  V30 1794 O 176.04 -1.34827 -1.35005 0
M  V30 1795 C 173.18 -2.74298 -2.09415 0
M  V30 1796 C 172.293 -3.96358 -1.71826 0
M  V30 1797 C 171.428 -4.44021 -2.9158 0
M  V30 1798 C 170.467 -5.58637 -2.50181 0
M  V30 1799 N 169.604 -6.01091 -3.62814 0
M  V30 1800 H 174.444 -2.95961 -0.348035 0
M  V30 1801 H 171.981 -1.46226 -0.160106 0
M  V30 1802 H 173.939 -3.06945 -2.82561 0
M  V30 1803 H 172.569 -1.95801 -2.56636 0
M  V30 1804 H 171.621 -3.69939 -0.885947 0
M  V30 1805 H 172.933 -4.79504 -1.37394 0
M  V30 1806 H 172.087 -4.78522 -3.72963 0
M  V30 1807 H 170.826 -3.59803 -3.29231 0
M  V30 1808 H 169.831 -5.23751 -1.67228 0
M  V30 1809 H 171.056 -6.44613 -2.13659 0
M  V30 1810 H 169.002 -5.19817 -4.00158 0
M  V30 1811 H 168.919 -6.79066 -3.32273 0
M  V30 1812 H 170.187 -6.40227 -4.44668 0
M  V30 1813 N 174.416 0.165178 -1.56732 0
M  V30 1814 C 175.693 0.908443 -1.73224 0
M  V30 1815 C 176.073 2.0013 -0.67165 0
M  V30 1816 O 175.421 2.26353 0.31253 0
M  V30 1817 C 175.631 1.46756 -3.16644 0
M  V30 1818 C 176.979 1.93809 -3.77787 0
M  V30 1819 O 178.003 1.56537 -3.1996 0
M  V30 1820 O 176.862 2.62486 -4.79336 0
M  V30 1821 H 173.956 0.428025 -0.707618 0
M  V30 1822 H 176.502 0.152526 -1.69013 0
M  V30 1823 H 175.274 0.68129 -3.85323 0
M  V30 1824 H 174.897 2.28749 -3.25207 0
M  V30 1825 N 175.894 1.51508 0.433938 0
M  V30 1826 C 176.824 1.76016 1.53429 0
M  V30 1827 C 177.805 0.610112 1.58782 0
M  V30 1828 O 178.99 0.853177 1.74455 0
M  V30 1829 C 176.12 1.88831 2.9148 0
M  V30 1830 C 175.074 3.04288 3.00987 0
M  V30 1831 C 174.4 3.0229 4.4105 0
M  V30 1832 C 175.7 4.44193 2.74754 0
M  V30 1833 H 177.394 2.68152 1.33171 0
M  V30 1834 H 174.94 1.29035 0.639214 0
M  V30 1835 H 176.893 2.04559 3.6842 0
M  V30 1836 H 175.617 0.933455 3.12976 0
M  V30 1837 H 174.276 2.8827 2.26486 0
M  V30 1838 H 173.924 2.04576 4.59519 0
M  V30 1839 H 173.624 3.79822 4.4834 0
M  V30 1840 H 175.148 3.20116 5.1996 0
M  V30 1841 H 176.562 4.60544 3.41426 0
M  V30 1842 H 174.959 5.23457 2.9345 0
M  V30 1843 H 176.029 4.53996 1.70339 0
M  V30 1844 N 177.372 -0.689602 1.41712 0
M  V30 1845 C 178.305 -1.81403 1.3845 0
M  V30 1846 C 179.283 -1.60653 0.250874 0
M  V30 1847 O 180.467 -1.83323 0.43874 0
M  V30 1848 C 177.594 -3.18176 1.1611 0
M  V30 1849 C 176.64 -3.57705 2.3227 0
M  V30 1850 S 177.473 -3.61827 3.94767 0
M  V30 1851 C 178.629 -5.01318 3.74742 0
M  V30 1852 H 178.862 -1.83893 2.33603 0
M  V30 1853 H 176.395 -0.858878 1.28307 0
M  V30 1854 H 178.353 -3.97132 1.03907 0
M  V30 1855 H 177.014 -3.13288 0.225668 0
M  V30 1856 H 176.207 -4.57082 2.12349 0
M  V30 1857 H 175.809 -2.86073 2.40911 0
M  V30 1858 H 178.101 -5.88986 3.34817 0
M  V30 1859 H 179.044 -5.26283 4.73743 0
M  V30 1860 H 179.452 -4.73138 3.07898 0
M  V30 1861 N 178.85 -1.27639 -0.924453 0
M  V30 1862 C 180.266 -1.05113 -1.20097 0
M  V30 1863 C 180.466 0.213262 -2.00368 0
M  V30 1864 O 179.522 0.91787 -2.35226 0
M  V30 1865 C 180.835 -2.29244 -1.94596 0
M  V30 1866 C 182.383 -2.34315 -2.07522 0
M  V30 1867 C 182.858 -3.58183 -2.85427 0
M  V30 1868 N 184.349 -3.5876 -2.92994 0
M  V30 1869 C 185.084 -4.51277 -3.53746 0
M  V30 1870 N 184.58 -5.54102 -4.15863 0
M  V30 1871 N 186.373 -4.38894 -3.51181 0
M  V30 1872 H 178.524 -2.08821 -0.388264 0
M  V30 1873 H 180.787 -0.918568 -0.234385 0
M  V30 1874 H 180.493 -3.21301 -1.43034 0
M  V30 1875 H 180.367 -2.34816 -2.95197 0
M  V30 1876 H 182.754 -1.42762 -2.58269 0
M  V30 1877 H 182.835 -2.32744 -1.06131 0
M  V30 1878 H 182.479 -4.50074 -2.35363 0
M  V30 1879 H 182.409 -3.57006 -3.8711 0
M  V30 1880 H 184.9 -2.84398 -2.4885 0
M  V30 1881 H 185.213 -6.20859 -4.60168 0
M  V30 1882 H 183.558 -5.57941 -4.144 0
M  V30 1883 H 186.749 -3.57772 -3.01856 0
M  V30 1884 H 186.922 -5.11186 -3.98237 0
M  V30 1885 N 180.328 1.1314 -1.09713 0
M  V30 1886 C 181.26 2.18343 -0.697056 0
M  V30 1887 C 182.273 1.60669 0.262551 0
M  V30 1888 O 183.462 1.78435 0.0481527 0
M  V30 1889 C 180.562 3.38899 -0.00684728 0
M  V30 1890 C 179.735 4.26078 -0.988741 0
M  V30 1891 C 178.794 5.25155 -0.331394 0
M  V30 1892 O 177.82 5.60701 -0.979926 0
M  V30 1893 N 179.022 5.73271 0.913261 0
M  V30 1894 H 181.787 2.5328 -1.60216 0
M  V30 1895 H 179.348 1.28491 -0.984971 0
M  V30 1896 H 181.34 4.02255 0.444191 0
M  V30 1897 H 179.91 3.02175 0.800551 0
M  V30 1898 H 179.13 3.59453 -1.61826 0
M  V30 1899 H 180.418 4.81178 -1.65364 0
M  V30 1900 H 179.816 5.46544 1.45966 0
M  V30 1901 H 178.373 6.3855 1.30757 0
M  V30 1902 N 181.806 0.884767 1.30421 0
M  V30 1903 C 183.053 0.503105 1.96151 0
M  V30 1904 C 183.381 -0.947676 1.69851 0
M  V30 1905 O 182.636 -1.68467 0.995861 0
M  V30 1906 C 182.935 0.724318 3.49983 0
M  V30 1907 C 182.601 2.15015 3.96332 0
M  V30 1908 C 181.263 2.54005 4.08699 0
M  V30 1909 C 183.615 3.07936 4.20505 0
M  V30 1910 C 180.943 3.85128 4.42599 0
M  V30 1911 C 183.295 4.3859 4.55874 0
M  V30 1912 C 181.959 4.77474 4.66449 0
M  V30 1913 H 181.229 0.184099 0.717766 0
M  V30 1914 H 183.876 1.12058 1.55291 0
M  V30 1915 H 182.181 0.0238086 3.91793 0
M  V30 1916 H 183.878 0.408617 3.98913 0
M  V30 1917 H 180.468 1.8375 3.87213 0
M  V30 1918 H 184.652 2.79033 4.10431 0
M  V30 1919 H 179.908 4.14996 4.48986 0
M  V30 1920 H 184.082 5.10629 4.7353 0
M  V30 1921 H 181.709 5.79115 4.92473 0
M  V30 1922 N 183.284 -1.43765 0.645699 0
M  V30 1923 C 184.214 -2.33471 -0.0370477 0
M  V30 1924 C 185.195 -1.49042 -0.819779 0
M  V30 1925 O 186.38 -1.77726 -0.782758 0
M  V30 1926 C 183.51 -3.32311 -1.0093 0
M  V30 1927 C 182.464 -4.2667 -0.337201 0
M  V30 1928 C 181.79 -5.1549 -1.42037 0
M  V30 1929 C 183.09 -5.16657 0.765706 0
M  V30 1930 H 184.784 -2.90809 0.712069 0
M  V30 1931 H 182.33 -1.39834 0.343876 0
M  V30 1932 H 184.283 -3.9396 -1.49578 0
M  V30 1933 H 183.007 -2.73213 -1.78948 0
M  V30 1934 H 181.666 -3.66374 0.128771 0
M  V30 1935 H 181.314 -4.52735 -2.1918 0
M  V30 1936 H 181.014 -5.79438 -0.975966 0
M  V30 1937 H 182.538 -5.80012 -1.90838 0
M  V30 1938 H 183.952 -5.72158 0.361702 0
M  V30 1939 H 182.349 -5.89286 1.13413 0
M  V30 1940 H 183.419 -4.56796 1.62683 0
M  V30 1941 N 184.763 -0.387143 -1.52771 0
M  V30 1942 C 186.179 -0.037007 -1.59557 0
M  V30 1943 C 186.379 1.44801 -1.40124 0
M  V30 1944 O 185.435 2.21227 -1.21716 0
M  V30 1945 C 186.748 -0.512256 -2.96305 0
M  V30 1946 C 188.296 -0.468328 -3.09476 0
M  V30 1947 C 188.771 -0.919731 -4.4867 0
M  V30 1948 N 190.262 -0.875656 -4.54848 0
M  V30 1949 C 190.997 -1.19637 -5.6078 0
M  V30 1950 N 190.493 -1.58745 -6.74368 0
M  V30 1951 N 192.286 -1.11776 -5.50874 0
M  V30 1952 H 184.437 -1.35395 -1.63652 0
M  V30 1953 H 186.7 -0.554818 -0.768688 0
M  V30 1954 H 186.406 -1.54935 -3.15734 0
M  V30 1955 H 186.28 0.089805 -3.77093 0
M  V30 1956 H 188.667 0.559671 -2.89744 0
M  V30 1957 H 188.748 -1.10616 -2.30646 0
M  V30 1958 H 188.392 -1.94595 -4.69143 0
M  V30 1959 H 188.322 -0.258927 -5.25963 0
M  V30 1960 H 190.813 -0.587843 -3.733 0
M  V30 1961 H 191.126 -1.81586 -7.51163 0
M  V30 1962 H 189.471 -1.6263 -6.75705 0
M  V30 1963 H 192.662 -0.811264 -4.61016 0
M  V30 1964 H 192.835 -1.37103 -6.3333 0
M  V30 1965 N 186.241 1.57166 -0.116904 0
M  V30 1966 C 187.489 1.94737 0.540533 0
M  V30 1967 C 187.81 1.00096 1.67349 0
M  V30 1968 O 187.08 0.0568854 1.95817 0
M  V30 1969 H 185.66 0.718981 0.202669 0
M  V30 1970 H 188.322 1.94017 -0.185353 0
M  V30 1971 H 187.418 2.97719 0.936483 0
M  V30 1972 N 187.719 -0.156864 1.56817 0
M  V30 1973 C 188.649 -1.19589 2.00551 0
M  V30 1974 C 189.63 -1.4536 0.883426 0
M  V30 1975 O 190.815 -1.56449 1.15054 0
M  V30 1976 C 187.945 -2.53143 2.37773 0
M  V30 1977 C 186.899 -2.41913 3.53075 0
M  V30 1978 C 186.225 -3.80088 3.76081 0
M  V30 1979 C 187.525 -1.91157 4.86062 0
M  V30 1980 H 189.219 -0.832293 2.87599 0
M  V30 1981 H 186.765 -0.398918 1.38364 0
M  V30 1982 H 188.718 -3.26047 2.66967 0
M  V30 1983 H 187.442 -2.91319 1.4765 0
M  V30 1984 H 186.101 -1.71462 3.24031 0
M  V30 1985 H 185.749 -4.15683 2.83225 0
M  V30 1986 H 185.449 -3.73439 4.53671 0
M  V30 1987 H 186.973 -4.54556 4.0769 0
M  V30 1988 H 188.387 -2.53846 5.14038 0
M  V30 1989 H 186.784 -1.95422 5.67389 0
M  V30 1990 H 187.854 -0.866673 4.77092 0
M  V30 1991 N 189.197 -1.51736 -0.425897 0
M  V30 1992 C 190.474 -1.55519 -1.1863 0
M  V30 1993 C 190.854 -0.326219 -2.08564 0
M  V30 1994 O 190.202 0.688012 -2.17896 0
M  V30 1995 C 190.412 -2.87521 -1.9782 0
M  V30 1996 C 191.76 -3.39899 -2.54468 0
M  V30 1997 O 192.784 -2.89148 -2.08019 0
M  V30 1998 O 191.643 -4.2848 -3.39215 0
M  V30 1999 H 188.737 -0.625739 -0.540721 0
M  V30 2000 H 191.283 -1.64055 -0.434038 0
M  V30 2001 H 190.055 -3.68422 -1.31836 0
M  V30 2002 H 189.678 -2.822 -2.80088 0
M  V30 2003 N 190.675 0.682077 -1.42076 0
M  V30 2004 C 191.922 1.44215 -1.42156 0
M  V30 2005 C 192.25 1.94468 -0.0354186 0
M  V30 2006 O 191.505 1.70816 0.955002 0
M  V30 2007 C 191.804 2.66036 -2.38662 0
M  V30 2008 C 191.47 2.34366 -3.85206 0
M  V30 2009 C 190.132 2.25439 -4.25124 0
M  V30 2010 C 192.484 2.08513 -4.77673 0
M  V30 2011 C 189.812 1.88775 -5.55501 0
M  V30 2012 C 192.164 1.73354 -6.08384 0
M  V30 2013 C 190.828 1.62933 -6.47309 0
M  V30 2014 H 190.098 0.527718 -0.520187 0
M  V30 2015 H 192.745 0.778387 -1.74967 0
M  V30 2016 H 191.05 3.3741 -1.99152 0
M  V30 2017 H 192.747 3.24205 -2.35991 0
M  V30 2018 H 189.337 2.42213 -3.53597 0
M  V30 2019 H 193.521 2.14346 -4.47626 0
M  V30 2020 H 188.777 1.7927 -5.84527 0
M  V30 2021 H 192.951 1.52373 -6.79526 0
M  V30 2022 H 190.578 1.34292 -7.48244 0
M  V30 2023 N 192.153 1.28127 0.917671 0
M  V30 2024 C 193.083 1.14248 2.03641 0
M  V30 2025 C 194.064 0.0412748 1.7005 0
M  V30 2026 O 195.249 0.217566 1.92977 0
M  V30 2027 C 192.379 0.799431 3.37974 0
M  V30 2028 C 191.333 1.85497 3.85713 0
M  V30 2029 C 190.659 1.36565 5.16966 0
M  V30 2030 C 191.959 3.26085 4.08002 0
M  V30 2031 H 193.653 2.07835 2.15511 0
M  V30 2032 H 191.199 1.00064 1.03553 0
M  V30 2033 H 193.152 0.689114 4.15727 0
M  V30 2034 H 191.876 -0.172145 3.26146 0
M  V30 2035 H 190.535 1.95437 3.10161 0
M  V30 2036 H 190.183 0.383253 5.01538 0
M  V30 2037 H 189.883 2.07143 5.49878 0
M  V30 2038 H 191.407 1.26848 5.97279 0
M  V30 2039 H 192.821 3.19089 4.76293 0
M  V30 2040 H 191.218 3.94462 4.52238 0
M  V30 2041 H 192.288 3.70394 3.12948 0
M  V30 2042 N 193.631 -1.12557 1.10312 0
M  V30 2043 C 194.581 -2.16331 0.720076 0
M  V30 2044 C 195.565 -1.58616 -0.270115 0
M  V30 2045 O 196.757 -1.76823 -0.0790507 0
M  V30 2046 C 193.886 -3.42963 0.152113 0
M  V30 2047 C 192.972 -4.07663 1.16927 0
M  V30 2048 N 193.363 -4.47392 2.35953 0
M  V30 2049 C 191.661 -4.34425 1.0095 0
M  V30 2050 C 192.362 -4.97932 3.0073 0
M  V30 2051 N 191.338 -4.93358 2.28252 0
M  V30 2052 H 195.14 -2.44813 1.62616 0
M  V30 2053 H 192.654 -1.29449 0.980654 0
M  V30 2054 H 194.651 -4.16664 -0.14037 0
M  V30 2055 H 193.311 -3.1595 -0.748701 0
M  V30 2056 H 194.322 -4.39802 2.73486 0
M  V30 2057 H 190.999 -4.17177 0.164134 0
M  V30 2058 H 192.389 -5.38397 4.01969 0
M  V30 2059 N 195.109 -0.891671 -1.2995 0
M  V30 2060 C 196.072 -0.36828 -2.26222 0
M  V30 2061 C 197.072 0.493014 -1.53056 0
M  V30 2062 O 198.262 0.299213 -1.71611 0
M  V30 2063 C 195.394 0.47442 -3.37583 0
M  V30 2064 H 196.587 -1.21844 -2.74033 0
M  V30 2065 H 194.14 -0.669107 -1.41254 0
M  V30 2066 H 194.875 1.34489 -2.95099 0
M  V30 2067 H 194.66 -0.142615 -3.91841 0
M  V30 2068 H 196.15 0.83218 -4.09224 0
M  V30 2069 N 196.587 1.43421 -0.653314 0
M  V30 2070 C 197.535 2.32546 0.0501531 0
M  V30 2071 C 198.529 1.48617 0.812985 0
M  V30 2072 O 199.735 1.64825 0.723375 0
M  V30 2073 H 196.11 0.751185 0.0350032 0
M  V30 2074 H 198.081 2.89602 -0.719261 0
M  V30 2075 C 196.83 3.32925 1.00279 0
M  V30 2076 H 196.153 3.97532 0.425236 0
M  V30 2077 H 197.593 3.9792 1.46409 0
M  V30 2078 C 196.052 2.63532 2.09886 0
M  V30 2079 O 196.582 2.45092 3.18265 0
M  V30 2080 N 194.788 2.22905 1.86445 0
M  V30 2081 H 194.335 2.38103 0.98309 0
M  V30 2082 H 194.293 1.76805 2.59976 0
M  V30 2083 N 198.065 0.39524 1.52563 0
M  V30 2084 C 199.305 -0.184744 2.03563 0
M  V30 2085 C 199.669 -1.43548 1.27507 0
M  V30 2086 O 200.87 -2.093 1.68662 0
M  V30 2087 C 199.141 -0.440294 3.54678 0
M  V30 2088 S 200.7 -0.989712 4.27493 0
M  V30 2089 H 197.518 -0.0515075 0.709132 0
M  V30 2090 H 200.12 0.544957 1.87751 0
M  V30 2091 H 198.824 0.477005 4.07618 0
M  V30 2092 H 198.355 -1.19825 3.74707 0
M  V30 2093 H 200.37 -2.27155 4.41152 0
M  V30 2094 N 199.544 -1.57102 0.125237 0
M  V30 2095 C 200.793 -1.94582 -0.531095 0
M  V30 2096 C 201.106 -1.01126 -1.6743 0
M  V30 2097 O 202.312 -1.28097 -2.39381 0
M  V30 2098 C 200.768 -3.45839 -0.996164 0
M  V30 2099 C 200.376 -4.47842 0.118926 0
M  V30 2100 C 202.12 -3.92227 -1.62352 0
M  V30 2101 C 200.027 -5.90284 -0.363192 0
M  V30 2102 H 198.957 -0.726391 -0.20217 0
M  V30 2103 H 201.608 -1.82339 0.206092 0
M  V30 2104 H 199.99 -3.53338 -1.78796 0
M  V30 2105 H 201.164 -4.52018 0.895358 0
M  V30 2106 H 199.479 -4.11243 0.653324 0
M  V30 2107 H 202.076 -4.96069 -1.99548 0
M  V30 2108 H 202.419 -3.32552 -2.50429 0
M  V30 2109 H 202.952 -3.87554 -0.897019 0
M  V30 2110 H 199.691 -6.53728 0.481679 0
M  V30 2111 H 199.211 -5.89515 -1.10597 0
M  V30 2112 H 200.89 -6.41752 -0.822377 0
M  V30 2113 N 201.022 0.148545 -1.56898 0
M  V30 2114 C 202.268 0.862694 -1.83536 0
M  V30 2115 C 202.601 1.80889 -0.706604 0
M  V30 2116 O 201.876 1.92328 0.289885 0
M  V30 2117 C 202.159 1.63853 -3.20662 0
M  V30 2118 C 202.012 0.713925 -4.44098 0
M  V30 2119 C 203.331 2.60133 -3.54991 0
M  V30 2120 H 200.45 0.312179 -0.667618 0
M  V30 2121 H 203.092 0.127953 -1.89569 0
M  V30 2122 H 201.242 2.26489 -3.1565 0
M  V30 2123 H 202.914 0.098686 -4.61194 0
M  V30 2124 H 201.157 0.0234019 -4.33794 0
M  V30 2125 H 201.828 1.29278 -5.36648 0
M  V30 2126 H 204.304 2.07616 -3.60603 0
M  V30 2127 H 203.18 3.11468 -4.51972 0
M  V30 2128 H 203.441 3.41417 -2.80868 0
M  V30 2129 N 202.5 1.5196 0.417844 0
M  V30 2130 C 203.45 1.7106 1.5074 0
M  V30 2131 C 204.434 0.564487 1.50673 0
M  V30 2132 O 205.626 0.821206 1.56797 0
M  V30 2133 C 202.755 1.85677 2.88754 0
M  V30 2134 C 201.841 3.06133 2.93502 0
M  V30 2135 N 202.232 4.28987 2.67962 0
M  V30 2136 C 200.53 3.05787 3.24669 0
M  V30 2137 C 201.231 5.10395 2.79055 0
M  V30 2138 N 200.207 4.45455 3.11561 0
M  V30 2139 H 204.009 2.63696 1.29775 0
M  V30 2140 H 201.523 1.49873 0.625436 0
M  V30 2141 H 203.52 1.97475 3.67164 0
M  V30 2142 H 202.18 0.942348 3.10725 0
M  V30 2143 H 203.191 4.57607 2.4252 0
M  V30 2144 H 199.868 2.2405 3.52289 0
M  V30 2145 H 201.258 6.18247 2.63097 0
M  V30 2146 N 203.978 -0.674533 1.42435 0
M  V30 2147 C 205.394 -0.98769 1.25367 0
M  V30 2148 C 205.594 -2.00879 0.158044 0
M  V30 2149 O 204.65 -2.48075 -0.470633 0
M  V30 2150 C 205.963 -1.49224 2.6106 0
M  V30 2151 C 207.511 -1.61 2.68417 0
M  V30 2152 C 207.986 -2.14852 4.04478 0
M  V30 2153 N 209.477 -2.22185 4.06434 0
M  V30 2154 C 210.212 -2.64928 5.08528 0
M  V30 2155 N 209.708 -3.07121 6.21006 0
M  V30 2156 N 211.501 -2.64679 4.95885 0
M  V30 2157 H 203.652 0.00152503 2.124 0
M  V30 2158 H 205.915 -0.0618434 0.945981 0
M  V30 2159 H 205.621 -0.816453 3.42092 0
M  V30 2160 H 205.495 -2.47094 2.84999 0
M  V30 2161 H 207.882 -2.27686 1.87732 0
M  V30 2162 H 207.963 -0.616195 2.48267 0
M  V30 2163 H 207.607 -1.48775 4.85622 0
M  V30 2164 H 207.537 -3.15024 4.2198 0
M  V30 2165 H 210.028 -1.92435 3.25234 0
M  V30 2166 H 210.341 -3.38423 6.94759 0
M  V30 2167 H 208.686 -3.04978 6.24511 0
M  V30 2168 H 211.877 -2.31078 4.07088 0
M  V30 2169 H 212.05 -2.9767 5.75584 0
M  V30 2170 N 205.456 -1.28612 -0.910864 0
M  V30 2171 C 206.733 -1.06632 -1.63979 0
M  V30 2172 C 207.113 0.393351 -2.07403 0
M  V30 2173 O 206.461 1.37999 -1.82122 0
M  V30 2174 C 206.671 -2.0436 -2.8291 0
M  V30 2175 C 208.019 -2.34666 -3.5386 0
M  V30 2176 O 209.043 -2.02467 -2.93062 0
M  V30 2177 O 207.902 -2.89631 -4.63439 0
M  V30 2178 H 204.996 -0.407737 -0.7195 0
M  V30 2179 H 207.542 -1.39942 -0.959914 0
M  V30 2180 H 206.314 -3.02727 -2.47936 0
M  V30 2181 H 205.937 -1.71714 -3.58609 0
M  V30 2182 N 206.934 1.1197 -1.10907 0
M  V30 2183 C 207.864 2.19928 -0.784473 0
M  V30 2184 C 208.845 1.6833 0.244726 0
M  V30 2185 O 210.03 1.93892 0.109418 0
M  V30 2186 C 207.16 3.46597 -0.220827 0
M  V30 2187 C 206.114 4.11376 -1.18127 0
M  V30 2188 C 205.44 5.32554 -0.478594 0
M  V30 2189 C 206.74 4.56945 -2.52979 0
M  V30 2190 H 208.434 2.47337 -1.68715 0
M  V30 2191 H 205.98 1.18879 -0.812642 0
M  V30 2192 H 207.933 4.21396 0.0184278 0
M  V30 2193 H 206.657 3.1863 0.717113 0
M  V30 2194 H 205.316 3.38564 -1.40606 0
M  V30 2195 H 204.964 5.00856 0.463976 0
M  V30 2196 H 204.664 5.76844 -1.11912 0
M  V30 2197 H 206.188 6.10096 -0.248 0
M  V30 2198 H 207.602 5.23093 -2.3462 0
M  V30 2199 H 205.999 5.1203 -3.12962 0
M  V30 2200 H 207.069 3.70676 -3.12614 0
M  V30 2201 N 208.412 0.89855 1.29475 0
M  V30 2202 C 209.359 0.373819 2.27753 0
M  V30 2203 C 210.329 -0.543444 1.56958 0
M  V30 2204 O 211.514 -0.468934 1.84948 0
M  V30 2205 C 208.654 -0.393648 3.42848 0
M  V30 2206 C 207.767 0.554379 4.28428 0
M  V30 2207 C 206.902 -0.230026 5.30702 0
M  V30 2208 C 205.941 0.712599 6.07938 0
M  V30 2209 N 205.078 -0.0373283 7.0209 0
M  V30 2210 H 209.918 1.21699 2.72017 0
M  V30 2211 H 207.455 0.611456 1.33789 0
M  V30 2212 H 209.413 -0.85466 4.08352 0
M  V30 2213 H 208.043 -1.20128 2.99615 0
M  V30 2214 H 207.095 1.13391 3.63107 0
M  V30 2215 H 208.407 1.27597 4.82204 0
M  V30 2216 H 207.561 -0.752288 6.02018 0
M  V30 2217 H 206.3 -0.984758 4.77654 0
M  V30 2218 H 205.305 1.24637 5.35486 0
M  V30 2219 H 206.53 1.46664 6.63074 0
M  V30 2220 H 204.476 -0.774348 6.51414 0
M  V30 2221 H 204.393 0.624374 7.53417 0
M  V30 2222 H 205.661 -0.539891 7.77628 0
M  V30 2223 N 209.89 -1.43072 0.660911 0
M  V30 2224 C 211.301 -1.84932 0.256348 0
M  V30 2225 C 211.652 -1.55325 -1.19868 0
M  V30 2226 O 210.777 -1.00607 -1.91591 0
M  V30 2227 C 211.372 -3.35684 0.458475 0
M  V30 2228 C 209.931 -3.76245 0.108161 0
M  V30 2229 C 209.078 -2.66749 0.757641 0
M  V30 2230 H 212.029 -1.33116 0.864051 0
M  V30 2231 H 212.05 -3.79365 -0.293683 0
M  V30 2232 H 211.562 -3.572 1.51755 0
M  V30 2233 H 209.663 -3.60338 -0.948014 0
M  V30 2234 H 209.776 -4.76058 0.538992 0
M  V30 2235 H 208.14 -2.53989 0.190185 0
M  V30 2236 H 208.923 -2.91092 1.81989 0
M  V30 2237 N 211.368 -0.403325 -1.52352 0
M  V30 2238 C 212.278 0.432009 -2.30588 0
M  V30 2239 C 213.294 1.05884 -1.38075 0
M  V30 2240 O 214.47 1.06161 -1.71148 0
M  V30 2241 C 211.535 1.53669 -3.10784 0
M  V30 2242 C 210.596 0.933525 -4.19027 0
M  V30 2243 C 209.829 1.98557 -4.9539 0
M  V30 2244 O 210.052 3.20283 -4.71991 0
M  V30 2245 O 208.986 1.59504 -5.80381 0
M  V30 2246 H 212.812 -0.205739 -3.03002 0
M  V30 2247 H 210.397 -0.166675 -1.48467 0
M  V30 2248 H 212.279 2.17814 -3.60742 0
M  V30 2249 H 210.954 2.15915 -2.41169 0
M  V30 2250 H 209.861 0.254954 -3.7323 0
M  V30 2251 H 211.194 0.35508 -4.90918 0
M  V30 2252 N 212.846 1.57033 -0.133567 0
M  V30 2253 C 213.794 2.17348 0.828412 0
M  V30 2254 C 214.788 1.12671 1.26498 0
M  V30 2255 O 215.994 1.30947 1.23502 0
M  V30 2256 H 212.369 0.695775 0.285309 0
M  V30 2257 H 214.34 2.96935 0.295372 0
M  V30 2258 C 213.089 2.79893 2.06289 0
M  V30 2259 H 212.412 3.60147 1.73592 0
M  V30 2260 H 213.852 3.25615 2.71572 0
M  V30 2261 C 212.311 1.77713 2.86216 0
M  V30 2262 O 212.841 1.23937 3.82103 0
M  V30 2263 N 211.047 1.47321 2.50489 0
M  V30 2264 H 210.594 1.91243 1.7258 0
M  V30 2265 H 210.552 0.79199 3.04261 0
M  V30 2266 N 214.325 -0.140222 1.56975 0
M  V30 2267 C 215.574 -0.850152 1.82908 0
M  V30 2268 C 215.887 -1.82028 0.715892 0
M  V30 2269 O 217.093 -2.57485 0.861016 0
M  V30 2270 C 215.549 -1.5625 3.24213 0
M  V30 2271 C 215.157 -0.63443 4.43485 0
M  V30 2272 C 216.901 -2.25881 3.59413 0
M  V30 2273 C 214.808 -1.34879 5.75814 0
M  V30 2274 H 213.738 -0.321221 0.682153 0
M  V30 2275 H 216.389 -0.102874 1.83211 0
M  V30 2276 H 214.771 -2.35565 3.18316 0
M  V30 2277 H 215.945 0.12398 4.60633 0
M  V30 2278 H 214.26 -0.0461836 4.16374 0
M  V30 2279 H 216.857 -2.79978 4.5554 0
M  V30 2280 H 217.2 -3.02693 2.85802 0
M  V30 2281 H 217.733 -1.53477 3.67001 0
M  V30 2282 H 214.472 -0.622385 6.52539 0
M  V30 2283 H 213.992 -2.07974 5.6259 0
M  V30 2284 H 215.671 -1.88784 6.18845 0
M  V30 2285 N 215.803 -1.52179 -0.40978 0
M  V30 2286 C 216.733 -1.78435 -1.5061 0
M  V30 2287 C 217.714 -0.635295 -1.57791 0
M  V30 2288 O 218.899 -0.880823 -1.73076 0
M  V30 2289 C 216.029 -1.93444 -2.88439 0
M  V30 2290 C 214.983 -3.09038 -2.96108 0
M  V30 2291 C 214.309 -3.09268 -4.36185 0
M  V30 2292 C 215.609 -4.48508 -2.67652 0
M  V30 2293 H 217.303 -2.70237 -1.28889 0
M  V30 2294 H 214.849 -1.30036 -0.618605 0
M  V30 2295 H 216.802 -2.10394 -3.65119 0
M  V30 2296 H 215.526 -0.983129 -3.11452 0
M  V30 2297 H 214.185 -2.91837 -2.21872 0
M  V30 2298 H 213.833 -2.11861 -4.56206 0
M  V30 2299 H 213.533 -3.86907 -4.42241 0
M  V30 2300 H 215.057 -3.28348 -5.14801 0
M  V30 2301 H 216.471 -4.65918 -3.34056 0
M  V30 2302 H 214.868 -5.28059 -2.85085 0
M  V30 2303 H 215.938 -4.56649 -1.63095 0
M  V30 2304 N 217.281 0.66697 -1.42791 0
M  V30 2305 C 218.527 1.4291 -1.43891 0
M  V30 2306 C 218.86 1.94114 -0.0578972 0
M  V30 2307 O 218.135 1.71414 0.91911 0
M  V30 2308 C 218.418 2.62049 -2.46987 0
M  V30 2309 C 218.271 2.16426 -3.94309 0
M  V30 2310 C 219.59 3.64266 -2.46978 0
M  V30 2311 H 216.709 0.518306 -0.523954 0
M  V30 2312 H 219.351 0.757321 -1.74255 0
M  V30 2313 H 217.501 3.19361 -2.21225 0
M  V30 2314 H 219.173 1.64221 -4.31079 0
M  V30 2315 H 217.416 1.47925 -4.078 0
M  V30 2316 H 218.087 3.02038 -4.62036 0
M  V30 2317 H 220.563 3.16686 -2.69906 0
M  V30 2318 H 219.439 4.45196 -3.21079 0
M  V30 2319 H 219.7 4.15927 -1.49857 0
M  V30 2320 N 218.759 1.29093 0.90403 0
M  V30 2321 C 219.987 1.19689 1.68766 0
M  V30 2322 C 220.402 -0.243113 1.87228 0
M  V30 2323 O 219.759 -1.16326 1.40621 0
M  V30 2324 C 219.81 1.90144 3.07453 0
M  V30 2325 O 219.531 3.2852 2.89838 0
M  V30 2326 C 221.032 1.87162 4.01852 0
M  V30 2327 H 218.252 0.415035 0.527244 0
M  V30 2328 H 220.796 1.7039 1.13082 0
M  V30 2329 H 218.951 1.43289 3.59926 0
M  V30 2330 H 219.365 3.63944 3.77684 0
M  V30 2331 H 220.839 2.41032 4.96596 0
M  V30 2332 H 221.316 0.84617 4.30972 0
M  V30 2333 H 221.922 2.33741 3.5531 0
M  V30 2334 N 220.237 -1.11381 1.11499 0
M  V30 2335 C 221.462 -1.87475 0.887019 0
M  V30 2336 C 221.887 -1.79639 -0.557796 0
M  V30 2337 O 221.245 -1.15924 -1.39396 0
M  V30 2338 C 221.293 -3.34213 1.35403 0
M  V30 2339 O 220.397 -4.0903 0.526146 0
M  V30 2340 H 219.738 -0.582099 0.319463 0
M  V30 2341 H 222.268 -1.40785 1.48461 0
M  V30 2342 H 222.278 -3.8506 1.34881 0
M  V30 2343 H 220.953 -3.39232 2.40612 0
M  V30 2344 H 219.53 -3.68082 0.597522 0
M  V30 2345 N 221.715 -0.905404 -1.28997 0
M  V30 2346 C 222.963 -0.533192 -1.9494 0
M  V30 2347 C 223.284 0.924618 -1.71685 0
M  V30 2348 O 222.554 1.65268 -1.05183 0
M  V30 2349 H 221.134 -0.194194 -0.721317 0
M  V30 2350 H 223.796 -1.15294 -1.57141 0
M  V30 2351 H 222.892 -0.72059 -3.03667 0
M  V30 2352 N 223.193 1.4272 -0.668489 0
M  V30 2353 C 224.441 2.01226 -0.187769 0
M  V30 2354 C 224.762 1.53092 1.2078 0
M  V30 2355 O 224.032 0.74993 1.80977 0
M  V30 2356 H 222.612 0.744041 -0.0664272 0
M  V30 2357 H 225.274 1.74723 -0.863583 0
M  V30 2358 H 224.37 3.11556 -0.184166 0
M  V30 2359 N 224.671 0.411399 1.52136 0
M  V30 2360 C 225.899 -0.163076 2.06256 0
M  V30 2361 C 226.314 -1.3867 1.28125 0
M  V30 2362 O 225.671 -1.79423 0.333721 0
M  V30 2363 C 225.722 -0.511252 3.57867 0
M  V30 2364 O 225.443 0.66378 4.33042 0
M  V30 2365 C 226.944 -1.13921 4.28412 0
M  V30 2366 H 224.164 -0.0193897 0.67072 0
M  V30 2367 H 226.708 0.583007 1.96013 0
M  V30 2368 H 224.863 -1.20723 3.6811 0
M  V30 2369 H 225.277 0.372601 5.23175 0
M  V30 2370 H 226.751 -1.33302 5.35663 0
M  V30 2371 H 227.228 -2.11296 3.85033 0
M  V30 2372 H 227.834 -0.483373 4.22544 0
M  V30 2373 N 226.149 -1.5696 0.141893 0
M  V30 2374 C 227.395 -1.9625 -0.511248 0
M  V30 2375 C 227.728 -1.02654 -1.64851 0
M  V30 2376 O 227.003 -0.0679676 -1.94381 0
M  V30 2377 C 227.286 -3.45285 -1.02227 0
M  V30 2378 C 227.139 -4.49658 0.113138 0
M  V30 2379 C 228.458 -3.96698 -1.90574 0
M  V30 2380 H 225.577 -0.713567 -0.184367 0
M  V30 2381 H 228.219 -1.88698 0.222087 0
M  V30 2382 H 226.369 -3.51852 -1.64719 0
M  V30 2383 H 228.041 -4.55174 0.749302 0
M  V30 2384 H 226.284 -4.26857 0.773026 0
M  V30 2385 H 226.955 -5.51258 -0.286053 0
M  V30 2386 H 229.431 -3.92578 -1.37918 0
M  V30 2387 H 228.307 -5.01453 -2.2324 0
M  V30 2388 H 228.568 -3.3875 -2.84079 0
M  V30 2389 N 227.627 0.131896 -1.57047 0
M  V30 2390 C 228.574 1.16236 -1.99393 0
M  V30 2391 C 229.544 1.41863 -0.863943 0
M  V30 2392 O 230.729 1.53946 -1.12718 0
M  V30 2393 C 227.869 2.48708 -2.39245 0
M  V30 2394 C 226.982 2.30127 -3.65603 0
M  V30 2395 C 226.117 3.55738 -3.94492 0
M  V30 2396 C 225.156 3.32259 -5.14073 0
M  V30 2397 N 224.293 4.50039 -5.38896 0
M  V30 2398 H 229.133 0.794251 -2.87221 0
M  V30 2399 H 226.67 0.380707 -1.42088 0
M  V30 2400 H 228.628 3.25969 -2.60384 0
M  V30 2401 H 227.258 2.83437 -1.54478 0
M  V30 2402 H 226.31 1.43845 -3.52154 0
M  V30 2403 H 227.622 2.08746 -4.5302 0
M  V30 2404 H 226.776 4.41423 -4.1621 0
M  V30 2405 H 225.515 3.80138 -3.05526 0
M  V30 2406 H 224.52 2.44963 -4.92212 0
M  V30 2407 H 225.745 3.09242 -6.04604 0
M  V30 2408 H 223.691 4.74584 -4.52886 0
M  V30 2409 H 223.608 4.31716 -6.2061 0
M  V30 2410 H 224.876 5.36895 -5.65123 0
M  V30 2411 N 229.106 1.52395 0.401703 0
M  V30 2412 C 230.036 1.79231 1.49661 0
M  V30 2413 C 231.017 0.643654 1.57452 0
M  V30 2414 O 232.202 0.889989 1.72606 0
M  V30 2415 C 229.332 1.94971 2.87409 0
M  V30 2416 C 228.286 3.10604 2.94465 0
M  V30 2417 C 227.612 3.11577 4.34538 0
M  V30 2418 C 228.912 4.49921 2.6527 0
M  V30 2419 H 230.606 2.70917 1.27454 0
M  V30 2420 H 228.152 1.30362 0.6117 0
M  V30 2421 H 230.105 2.12328 3.63999 0
M  V30 2422 H 228.829 0.999632 3.10926 0
M  V30 2423 H 227.488 2.93009 2.20321 0
M  V30 2424 H 227.136 2.14277 4.55076 0
M  V30 2425 H 226.836 3.89247 4.40183 0
M  V30 2426 H 228.36 3.31073 5.13053 0
M  V30 2427 H 229.774 4.67683 3.31581 0
M  V30 2428 H 228.171 5.29564 2.82281 0
M  V30 2429 H 229.241 4.57507 1.60671 0
M  V30 2430 N 230.584 -0.659388 1.43143 0
M  V30 2431 C 231.547 -1.75432 1.47501 0
M  V30 2432 C 232.547 -1.56707 0.360512 0
M  V30 2433 O 233.737 -1.62717 0.622002 0
M  V30 2434 C 230.869 -3.14239 1.32162 0
M  V30 2435 H 232.062 -1.7295 2.45006 0
M  V30 2436 H 229.615 -0.870469 1.29817 0
M  V30 2437 H 230.35 -3.22336 0.356401 0
M  V30 2438 H 230.135 -3.29235 2.12948 0
M  V30 2439 H 231.625 -3.94094 1.3813 0
M  V30 2440 N 232.062 -1.29571 -0.897171 0
M  V30 2441 C 233.339 -1.08365 -1.62839 0
M  V30 2442 C 233.719 0.371331 -2.07808 0
M  V30 2443 O 233.067 1.3606 -1.83576 0
M  V30 2444 C 233.277 -2.0735 -2.80726 0
M  V30 2445 C 234.625 -2.38406 -3.51351 0
M  V30 2446 O 235.649 -2.05564 -2.90898 0
M  V30 2447 O 234.508 -2.9453 -4.60341 0
M  V30 2448 H 231.602 -0.415345 -0.715134 0
M  V30 2449 H 234.148 -1.40952 -0.945018 0
M  V30 2450 H 232.92 -3.05339 -2.44711 0
M  V30 2451 H 232.543 -1.75507 -3.56767 0
M  V30 2452 N 233.54 1.10788 -1.12088 0
M  V30 2453 C 234.787 1.82671 -0.873931 0
M  V30 2454 C 235.115 1.85004 0.600311 0
M  V30 2455 O 234.37 1.30365 1.45957 0
M  V30 2456 C 234.669 3.29294 -1.38926 0
M  V30 2457 C 234.335 3.47113 -2.87791 0
M  V30 2458 C 232.997 3.51684 -3.28439 0
M  V30 2459 C 235.349 3.52808 -3.83635 0
M  V30 2460 C 232.677 3.59513 -4.63646 0
M  V30 2461 C 235.029 3.62169 -5.18668 0
M  V30 2462 C 233.693 3.65003 -5.58864 0
M  V30 2463 H 232.963 0.668441 -0.319794 0
M  V30 2464 H 235.61 1.30613 -1.40045 0
M  V30 2465 H 233.915 3.83894 -0.783122 0
M  V30 2466 H 235.612 3.83416 -1.17443 0
M  V30 2467 H 232.202 3.4423 -2.5535 0
M  V30 2468 H 236.386 3.4853 -3.53328 0
M  V30 2469 H 231.642 3.59987 -4.94185 0
M  V30 2470 H 235.816 3.6552 -5.92763 0
M  V30 2471 H 233.443 3.70822 -6.63623 0
M  V30 2472 N 235.018 0.912232 1.28515 0
M  V30 2473 C 236.266 0.543523 1.94654 0
M  V30 2474 C 236.587 -0.9155 1.72173 0
M  V30 2475 O 235.857 -1.64708 1.06058 0
M  V30 2476 H 234.437 0.198017 0.720277 0
M  V30 2477 H 237.099 1.16126 1.56527 0
M  V30 2478 H 236.195 0.736684 3.03281 0
M  V30 2479 N 236.496 -1.42363 0.676048 0
M  V30 2480 C 237.426 -2.33497 0.0124832 0
M  V30 2481 C 238.407 -1.50748 -0.787981 0
M  V30 2482 O 239.592 -1.79346 -0.744884 0
M  V30 2483 C 236.722 -3.34377 -0.938582 0
M  V30 2484 C 235.676 -4.27289 -0.246622 0
M  V30 2485 C 235.002 -5.18386 -1.31071 0
M  V30 2486 C 236.302 -5.14916 0.875125 0
M  V30 2487 H 237.996 -2.89233 0.773593 0
M  V30 2488 H 235.542 -1.39073 0.37346 0
M  V30 2489 H 237.495 -3.97044 -1.41188 0
M  V30 2490 H 236.219 -2.76947 -1.73113 0
M  V30 2491 H 234.878 -3.66018 0.206456 0
M  V30 2492 H 234.526 -4.57282 -2.09528 0
M  V30 2493 H 234.226 -5.81378 -0.852839 0
M  V30 2494 H 235.75 -5.83929 -1.78492 0
M  V30 2495 H 237.164 -5.71262 0.482983 0
M  V30 2496 H 235.561 -5.86747 1.25887 0
M  V30 2497 H 236.631 -4.53242 1.72335 0
M  V30 2498 N 237.974 -0.419461 -1.51915 0
M  V30 2499 C 238.937 0.389116 -2.25873 0
M  V30 2500 C 239.937 0.964924 -1.28631 0
M  V30 2501 O 241.127 0.842179 -1.52489 0
M  V30 2502 C 238.259 1.54874 -3.03689 0
M  V30 2503 H 239.452 -0.258799 -2.98781 0
M  V30 2504 H 237.005 -0.172209 -1.55348 0
M  V30 2505 H 237.74 2.23323 -2.35154 0
M  V30 2506 H 237.525 1.14223 -3.75094 0
M  V30 2507 H 239.015 2.12046 -3.59759 0
M  V30 2508 N 239.452 1.56882 -0.150215 0
M  V30 2509 C 240.868 1.58263 0.20617 0
M  V30 2510 C 241.068 1.16464 1.64434 0
M  V30 2511 O 240.124 0.866422 2.3717 0
M  V30 2512 C 241.437 3.00649 -0.0555025 0
M  V30 2513 C 242.985 3.12999 0.00795388 0
M  V30 2514 C 243.46 4.5744 -0.226429 0
M  V30 2515 N 244.951 4.62875 -0.173469 0
M  V30 2516 C 245.686 5.72454 -0.329288 0
M  V30 2517 N 245.182 6.90669 -0.543005 0
M  V30 2518 N 246.975 5.61467 -0.266666 0
M  V30 2519 H 239.126 1.82345 -1.08922 0
M  V30 2520 H 241.389 0.844149 -0.431413 0
M  V30 2521 H 241.095 3.3563 -1.05096 0
M  V30 2522 H 240.969 3.71337 0.66246 0
M  V30 2523 H 243.356 2.77857 0.993966 0
M  V30 2524 H 243.437 2.4479 -0.742388 0
M  V30 2525 H 243.081 4.93287 -1.20956 0
M  V30 2526 H 243.011 5.2378 0.544274 0
M  V30 2527 H 245.502 3.77898 -0.0130709 0
M  V30 2528 H 245.815 7.70045 -0.651922 0
M  V30 2529 H 244.16 6.92581 -0.579366 0
M  V30 2530 H 247.351 4.67992 -0.100441 0
M  V30 2531 H 247.524 6.46816 -0.391535 0
M  V30 2532 N 240.93 -0.123565 1.57115 0
M  V30 2533 C 242.179 -0.830704 1.83799 0
M  V30 2534 C 242.492 -1.81259 0.735158 0
M  V30 2535 O 243.698 -2.56558 0.888278 0
M  V30 2536 C 242.154 -1.52802 3.25852 0
M  V30 2537 C 241.762 -0.587356 4.44133 0
M  V30 2538 C 243.506 -2.22056 3.61789 0
M  V30 2539 C 241.413 -1.28764 5.77212 0
M  V30 2540 H 240.343 -0.313967 0.685522 0
M  V30 2541 H 242.994 -0.0834359 1.8331 0
M  V30 2542 H 241.376 -2.32175 3.20797 0
M  V30 2543 H 242.55 0.172829 4.60476 0
M  V30 2544 H 240.865 -0.00201892 4.164 0
M  V30 2545 H 243.462 -2.75131 4.58483 0
M  V30 2546 H 243.805 -2.99644 2.88997 0
M  V30 2547 H 244.338 -1.49576 3.68608 0
M  V30 2548 H 241.077 -0.55314 6.53162 0
M  V30 2549 H 240.597 -2.01995 5.64764 0
M  V30 2550 H 242.276 -1.8221 6.20813 0
M  V30 2551 N 242.408 -1.52605 -0.393616 0
M  V30 2552 C 243.638 -1.71046 -1.15874 0
M  V30 2553 C 244.046 -0.426483 -1.84331 0
M  V30 2554 O 243.389 0.608513 -1.73329 0
M  V30 2555 C 243.451 -2.80118 -2.25332 0
M  V30 2556 C 243.115 -4.21381 -1.76881 0
M  V30 2557 C 244.112 -5.04697 -1.24808 0
M  V30 2558 C 241.797 -4.67683 -1.83244 0
M  V30 2559 C 243.791 -6.32393 -0.797387 0
M  V30 2560 C 241.478 -5.95364 -1.37787 0
M  V30 2561 C 242.476 -6.77549 -0.861208 0
M  V30 2562 O 242.164 -8.02837 -0.413252 0
M  V30 2563 H 241.896 -0.576155 -0.353583 0
M  V30 2564 H 244.45 -2.00018 -0.467123 0
M  V30 2565 H 242.68 -2.46557 -2.97904 0
M  V30 2566 H 244.369 -2.87006 -2.87023 0
M  V30 2567 H 245.135 -4.70111 -1.19252 0
M  V30 2568 H 241.014 -4.03805 -2.22401 0
M  V30 2569 H 244.558 -6.9649 -0.393437 0
M  V30 2570 H 240.455 -6.29455 -1.43026 0
M  V30 2571 H 241.223 -8.16749 -0.53515 0
M  V30 2572 N 243.887 0.651787 -1.4349 0
M  V30 2573 C 245.112 1.44434 -1.48841 0
M  V30 2574 C 245.537 1.8779 -0.107955 0
M  V30 2575 O 244.895 1.57464 0.898602 0
M  V30 2576 C 244.943 2.65458 -2.44059 0
M  V30 2577 O 244.047 3.64566 -1.92784 0
M  V30 2578 H 243.388 0.433005 -0.503391 0
M  V30 2579 H 245.918 0.797451 -1.88419 0
M  V30 2580 H 245.928 3.13255 -2.6141 0
M  V30 2581 H 244.603 2.33244 -3.4434 0
M  V30 2582 H 243.18 3.23716 -1.851 0
M  V30 2583 N 245.365 1.30045 0.890287 0
M  V30 2584 C 246.595 1.21296 1.67245 0
M  V30 2585 C 247.003 -0.227471 1.87828 0
M  V30 2586 O 246.346 -1.16296 1.422 0
M  V30 2587 C 246.408 1.86519 3.07329 0
M  V30 2588 C 246.072 3.35837 3.09939 0
M  V30 2589 C 247.069 4.31915 2.89389 0
M  V30 2590 C 244.754 3.77196 3.31706 0
M  V30 2591 C 246.748 5.67325 2.90552 0
M  V30 2592 C 244.435 5.12725 3.32499 0
M  V30 2593 C 245.433 6.076 3.11947 0
M  V30 2594 O 245.121 7.40655 3.12547 0
M  V30 2595 H 244.853 0.4211 0.528821 0
M  V30 2596 H 247.407 1.72111 1.12103 0
M  V30 2597 H 245.637 1.30228 3.64112 0
M  V30 2598 H 247.326 1.71963 3.67673 0
M  V30 2599 H 248.092 4.01294 2.72375 0
M  V30 2600 H 243.971 3.03796 3.4674 0
M  V30 2601 H 247.515 6.41354 2.74429 0
M  V30 2602 H 243.412 5.42988 3.49047 0
M  V30 2603 H 244.18 7.49577 3.28749 0
M  V30 2604 N 246.843 -1.10192 1.12674 0
M  V30 2605 C 247.775 -2.16418 0.754701 0
M  V30 2606 C 248.788 -1.61309 -0.21986 0
M  V30 2607 O 249.977 -1.785 -0.000826841 0
M  V30 2608 C 247.077 -3.38762 0.096698 0
M  V30 2609 C 246.25 -4.23307 1.10136 0
M  V30 2610 C 245.309 -5.24092 0.470513 0
M  V30 2611 O 244.335 -5.57906 1.12824 0
M  V30 2612 N 245.537 -5.75491 -0.760948 0
M  V30 2613 H 248.302 -2.48943 1.66875 0
M  V30 2614 H 245.863 -1.25834 1.01869 0
M  V30 2615 H 247.855 -4.03291 -0.337384 0
M  V30 2616 H 246.425 -3.04192 -0.720153 0
M  V30 2617 H 245.645 -3.55036 1.71299 0
M  V30 2618 H 246.933 -4.76624 1.78064 0
M  V30 2619 H 246.331 -5.50222 -1.31424 0
M  V30 2620 H 244.888 -6.41792 -1.13781 0
M  V30 2621 N 248.321 -0.919034 -1.28029 0
M  V30 2622 C 249.254 -0.355887 -2.25408 0
M  V30 2623 C 250.232 0.542874 -1.5327 0
M  V30 2624 O 251.416 0.485338 -1.82145 0
M  V30 2625 C 248.543 0.490759 -3.35126 0
M  V30 2626 C 247.589 -0.343358 -4.25116 0
M  V30 2627 S 248.422 -1.75344 -5.05979 0
M  V30 2628 C 249.578 -0.914244 -6.19187 0
M  V30 2629 H 249.811 -1.18123 -2.72826 0
M  V30 2630 H 247.344 -0.720636 -1.36551 0
M  V30 2631 H 249.302 0.973404 -3.98792 0
M  V30 2632 H 247.963 1.29054 -2.86363 0
M  V30 2633 H 247.156 0.304266 -5.03081 0
M  V30 2634 H 246.758 -0.759851 -3.662 0
M  V30 2635 H 249.05 -0.146282 -6.77342 0
M  V30 2636 H 249.993 -1.66661 -6.88208 0
M  V30 2637 H 250.401 -0.460082 -5.62622 0
M  V30 2638 N 249.799 1.42003 -0.683588 0
M  V30 2639 C 250.762 2.29191 -0.0198243 0
M  V30 2640 C 251.762 1.43773 0.72013 0
M  V30 2641 O 252.952 1.65061 0.556815 0
M  V30 2642 C 250.084 3.26435 0.982487 0
M  V30 2643 H 251.277 2.8938 -0.787345 0
M  V30 2644 H 248.83 1.49789 -0.446418 0
M  V30 2645 H 249.565 2.71203 1.77819 0
M  V30 2646 H 249.35 3.89449 0.455182 0
M  V30 2647 H 250.84 3.918 1.44508 0
M  V30 2648 N 251.277 0.427512 1.51691 0
M  V30 2649 C 252.207 -0.3796 2.30394 0
M  V30 2650 C 253.188 -1.02982 1.35384 0
M  V30 2651 O 254.373 -1.03534 1.643 0
M  V30 2652 C 251.503 -1.48649 3.1388 0
M  V30 2653 C 250.457 -0.960294 4.17088 0
M  V30 2654 C 249.783 -2.16219 4.89033 0
M  V30 2655 C 251.083 -0.00153679 5.223 0
M  V30 2656 H 252.777 0.277164 2.98114 0
M  V30 2657 H 250.323 0.134739 1.43368 0
M  V30 2658 H 252.276 -2.05826 3.67714 0
M  V30 2659 H 251 -2.1714 2.43962 0
M  V30 2660 H 249.659 -0.410806 3.64291 0
M  V30 2661 H 249.307 -2.83307 4.15628 0
M  V30 2662 H 249.007 -1.81654 5.58816 0
M  V30 2663 H 250.531 -2.73968 5.45687 0
M  V30 2664 H 251.945 -0.482687 5.71264 0
M  V30 2665 H 250.342 0.256199 5.99553 0
M  V30 2666 H 251.412 0.938174 4.75738 0
M  V30 2667 N 252.755 -1.56801 0.158532 0
M  V30 2668 C 253.983 -2.00859 -0.496303 0
M  V30 2669 C 254.398 -1.03871 -1.57659 0
M  V30 2670 O 253.755 -0.0375165 -1.82461 0
M  V30 2671 C 253.806 -3.4479 -1.08638 0
M  V30 2672 O 253.527 -4.38072 -0.0492322 0
M  V30 2673 C 255.028 -4.04185 -1.8207 0
M  V30 2674 H 252.248 -0.65864 -0.128199 0
M  V30 2675 H 254.792 -2.02885 0.256506 0
M  V30 2676 H 252.947 -3.43579 -1.78975 0
M  V30 2677 H 253.361 -5.2227 -0.483102 0
M  V30 2678 H 254.835 -5.06857 -2.18633 0
M  V30 2679 H 255.312 -3.45549 -2.71095 0
M  V30 2680 H 255.918 -4.0906 -1.16405 0
M  V30 2681 N 254.233 0.115231 -1.57178 0
M  V30 2682 C 255.644 0.67197 -1.74188 0
M  V30 2683 C 255.995 1.80125 -0.777777 0
M  V30 2684 O 255.12 2.16346 0.0484376 0
M  V30 2685 C 255.715 1.22573 -3.1585 0
M  V30 2686 C 254.274 1.72872 -3.34353 0
M  V30 2687 C 253.421 0.629972 -2.70049 0
M  V30 2688 H 256.372 -0.110712 -1.58313 0
M  V30 2689 H 256.393 2.09535 -3.17609 0
M  V30 2690 H 255.905 0.403598 -3.85996 0
M  V30 2691 H 254.006 2.5755 -2.69256 0
M  V30 2692 H 254.119 1.83557 -4.42542 0
M  V30 2693 H 252.483 1.0645 -2.31388 0
M  V30 2694 H 253.266 -0.181241 -3.42821 0
M  V30 2695 N 255.711 1.52812 0.385517 0
M  V30 2696 C 256.957 1.68275 1.13188 0
M  V30 2697 C 257.29 0.423179 1.89533 0
M  V30 2698 O 256.565 -0.579113 1.85679 0
M  V30 2699 C 256.848 2.92001 2.1073 0
M  V30 2700 C 256.701 4.28067 1.38125 0
M  V30 2701 C 258.02 3.11283 3.11113 0
M  V30 2702 H 255.139 0.612352 0.410115 0
M  V30 2703 H 257.781 1.85415 0.414869 0
M  V30 2704 H 255.931 2.77519 2.71874 0
M  V30 2705 H 257.603 4.54324 0.799187 0
M  V30 2706 H 255.846 4.28388 0.683092 0
M  V30 2707 H 256.517 5.10733 2.09417 0
M  V30 2708 H 258.993 3.2482 2.6006 0
M  V30 2709 H 257.869 3.99325 3.76605 0
M  V30 2710 H 258.13 2.25656 3.80173 0
M  V30 2711 N 257.189 -0.644168 1.43834 0
M  V30 2712 C 258.435 -1.40603 1.46146 0
M  V30 2713 C 258.768 -1.93997 0.0887717 0
M  V30 2714 O 258.043 -1.72854 -0.891724 0
M  V30 2715 C 258.326 -2.58086 2.51124 0
M  V30 2716 C 258.179 -2.10126 3.97702 0
M  V30 2717 C 259.498 -3.60291 2.52742 0
M  V30 2718 H 256.617 -0.509905 0.532134 0
M  V30 2719 H 259.259 -0.729502 1.75437 0
M  V30 2720 H 257.409 -3.15801 2.26278 0
M  V30 2721 H 259.081 -1.57342 4.33637 0
M  V30 2722 H 257.324 -1.41419 4.10101 0
M  V30 2723 H 257.995 -2.94649 4.66783 0
M  V30 2724 H 260.471 -3.12352 2.7491 0
M  V30 2725 H 259.347 -4.40032 3.28121 0
M  V30 2726 H 259.608 -4.1349 1.56455 0
M  V30 2727 N 258.668 -1.30515 -0.883378 0
M  V30 2728 C 259.914 -1.19607 -1.63774 0
M  V30 2729 C 260.247 0.248314 -1.92606 0
M  V30 2730 O 259.522 1.17742 -1.54813 0
M  V30 2731 C 259.805 -2.02669 -2.97653 0
M  V30 2732 C 259.658 -3.55335 -2.75784 0
M  V30 2733 C 260.977 -1.86573 -3.98596 0
M  V30 2734 H 258.096 -0.435856 -0.594305 0
M  V30 2735 H 260.738 -1.60165 -1.02212 0
M  V30 2736 H 258.888 -1.68208 -3.50197 0
M  V30 2737 H 260.56 -3.99863 -2.30016 0
M  V30 2738 H 258.803 -3.79438 -2.1026 0
M  V30 2739 H 259.474 -4.08745 -3.70988 0
M  V30 2740 H 261.95 -2.16703 -3.55217 0
M  V30 2741 H 260.826 -2.47014 -4.90179 0
M  V30 2742 H 261.087 -0.825321 -4.34328 0
M  V30 2743 N 260.146 1.09593 -1.13257 0
M  V30 2744 C 261.374 1.855 -0.916378 0
M  V30 2745 C 261.789 1.81069 0.534738 0
M  V30 2746 O 261.146 1.20562 1.37007 0
M  V30 2747 C 261.197 3.33546 -1.39388 0
M  V30 2748 O 260.918 3.37927 -2.78813 0
M  V30 2749 C 262.419 4.26299 -1.21588 0
M  V30 2750 H 259.639 0.585991 -0.326887 0
M  V30 2751 H 262.183 1.38488 -1.5047 0
M  V30 2752 H 260.338 3.77992 -0.848597 0
M  V30 2753 H 260.752 4.30254 -2.9997 0
M  V30 2754 H 262.226 5.28341 -1.59876 0
M  V30 2755 H 262.703 4.38918 -0.157376 0
M  V30 2756 H 263.309 3.87668 -1.7491 0
M  V30 2757 N 261.624 0.925811 1.2754 0
M  V30 2758 C 262.554 0.440748 2.29303 0
M  V30 2759 C 263.535 -0.497971 1.62648 0
M  V30 2760 O 264.72 -0.403126 1.8997 0
M  V30 2761 C 261.85 -0.309048 3.45922 0
M  V30 2762 C 260.804 0.54166 4.24559 0
M  V30 2763 C 260.13 -0.337191 5.33636 0
M  V30 2764 C 261.43 1.80516 4.90114 0
M  V30 2765 H 263.124 1.29121 2.70126 0
M  V30 2766 H 260.67 0.622323 1.29858 0
M  V30 2767 H 262.623 -0.659315 4.1621 0
M  V30 2768 H 261.347 -1.19352 3.04011 0
M  V30 2769 H 260.006 0.874609 3.56014 0
M  V30 2770 H 259.654 -1.22056 4.87966 0
M  V30 2771 H 259.354 0.228497 5.87156 0
M  V30 2772 H 260.878 -0.683072 6.06767 0
M  V30 2773 H 262.292 1.52307 5.52698 0
M  V30 2774 H 260.689 2.3142 5.53683 0
M  V30 2775 H 261.759 2.52581 4.13921 0
M  V30 2776 N 263.102 -1.41638 0.69111 0
M  V30 2777 C 264.348 -2.02104 0.229258 0
M  V30 2778 C 264.703 -1.53741 -1.15678 0
M  V30 2779 O 263.996 -0.736849 -1.76865 0
M  V30 2780 C 264.19 -3.56714 0.221277 0
M  V30 2781 C 264.019 -4.20083 1.605 0
M  V30 2782 C 262.789 -4.54566 2.20676 0
M  V30 2783 C 264.987 -4.46587 2.55078 0
M  V30 2784 N 262.969 -5.03199 3.5166 0
M  V30 2785 C 264.34 -4.96946 3.70735 0
M  V30 2786 C 266.395 -4.28593 2.53401 0
M  V30 2787 C 265.098 -5.31203 4.8499 0
M  V30 2788 C 267.124 -4.63936 3.66765 0
M  V30 2789 C 266.486 -5.14463 4.81152 0
M  V30 2790 H 262.585 -0.771256 0.12918 0
M  V30 2791 H 265.169 -1.72251 0.907626 0
M  V30 2792 H 263.34 -3.86051 -0.426562 0
M  V30 2793 H 265.072 -4.03896 -0.254983 0
M  V30 2794 H 261.827 -4.4087 1.73005 0
M  V30 2795 H 262.251 -5.31926 4.18789 0
M  V30 2796 H 266.893 -3.88771 1.66184 0
M  V30 2797 H 264.611 -5.69951 5.72871 0
M  V30 2798 H 268.197 -4.51677 3.66714 0
M  V30 2799 H 267.077 -5.41299 5.67419 0
M  V30 2800 N 264.58 -0.43555 -1.51462 0
M  V30 2801 C 265.81 0.130053 -2.0619 0
M  V30 2802 C 266.218 1.37164 -1.30317 0
M  V30 2803 O 265.561 1.80225 -0.355598 0
M  V30 2804 C 265.623 0.519418 -3.55728 0
M  V30 2805 C 265.287 -0.615119 -4.52841 0
M  V30 2806 C 266.284 -1.48671 -4.9819 0
M  V30 2807 C 263.969 -0.795341 -4.95963 0
M  V30 2808 C 265.963 -2.52324 -5.8533 0
M  V30 2809 C 263.65 -1.83514 -5.82894 0
M  V30 2810 C 264.648 -2.69748 -6.27475 0
M  V30 2811 O 264.336 -3.71944 -7.1268 0
M  V30 2812 H 264.068 0.0121612 -0.675891 0
M  V30 2813 H 266.622 -0.6129 -1.96043 0
M  V30 2814 H 264.852 1.31505 -3.63653 0
M  V30 2815 H 266.541 1.01597 -3.92979 0
M  V30 2816 H 267.307 -1.359 -4.65571 0
M  V30 2817 H 263.186 -0.133713 -4.60806 0
M  V30 2818 H 266.73 -3.19665 -6.20048 0
M  V30 2819 H 262.627 -1.96306 -6.14926 0
M  V30 2820 H 263.395 -3.68503 -7.30854 0
M  V30 2821 N 266.058 1.56714 -0.166846 0
M  V30 2822 C 267.474 1.58473 0.189372 0
M  V30 2823 C 267.674 1.18201 1.63189 0
M  V30 2824 O 266.73 0.891528 2.36237 0
M  V30 2825 C 268.043 3.00573 -0.0873872 0
M  V30 2826 C 269.591 3.1299 -0.0252443 0
M  V30 2827 C 270.066 4.57174 -0.274934 0
M  V30 2828 N 271.557 4.62665 -0.222553 0
M  V30 2829 C 272.292 5.72072 -0.389985 0
M  V30 2830 N 271.788 6.90054 -0.616229 0
M  V30 2831 N 273.581 5.61153 -0.326202 0
M  V30 2832 H 265.732 1.8118 -1.10849 0
M  V30 2833 H 267.995 0.839525 -0.440342 0
M  V30 2834 H 267.701 3.34497 -1.0865 0
M  V30 2835 H 267.575 3.72019 0.623037 0
M  V30 2836 H 269.962 2.78895 0.96444 0
M  V30 2837 H 270.043 2.43989 -0.768309 0
M  V30 2838 H 269.687 4.91976 -1.26181 0
M  V30 2839 H 269.617 5.24328 0.48869 0
M  V30 2840 H 272.108 3.77863 -0.0531512 0
M  V30 2841 H 272.421 7.69311 -0.733559 0
M  V30 2842 H 270.766 6.91927 -0.652791 0
M  V30 2843 H 273.957 4.67859 -0.150072 0
M  V30 2844 H 274.13 6.46364 -0.460116 0
M  V30 2845 N 267.536 -0.106894 1.57237 0
M  V30 2846 C 268.499 -1.11466 2.0027 0
M  V30 2847 C 269.499 -1.33623 0.894519 0
M  V30 2848 O 270.689 -1.29935 1.16028 0
M  V30 2849 C 267.821 -2.46646 2.35327 0
M  V30 2850 H 269.014 -0.744516 2.90512 0
M  V30 2851 H 266.567 -0.351576 1.52295 0
M  V30 2852 H 267.302 -2.88558 1.48003 0
M  V30 2853 H 267.087 -2.31915 3.16161 0
M  V30 2854 H 268.577 -3.19151 2.69318 0
M  V30 2855 N 269.014 -1.53014 -0.377408 0
M  V30 2856 C 270.425 -1.60438 -0.954798 0
M  V30 2857 C 270.776 -0.464418 -1.90624 0
M  V30 2858 O 269.901 0.41087 -2.12464 0
M  V30 2859 C 270.496 -2.90797 -1.73847 0
M  V30 2860 C 269.055 -3.00595 -2.26538 0
M  V30 2861 C 268.202 -2.55645 -1.07429 0
M  V30 2862 H 271.153 -1.57926 -0.156575 0
M  V30 2863 H 271.174 -2.77935 -2.5987 0
M  V30 2864 H 270.686 -3.73746 -1.04574 0
M  V30 2865 H 268.787 -2.22208 -2.99089 0
M  V30 2866 H 268.9 -4.05456 -2.5523 0
M  V30 2867 H 267.264 -2.10239 -1.43777 0
M  V30 2868 H 268.047 -3.41 -0.396728 0
M  V30 2869 N 270.492 0.636531 -1.44174 0
M  V30 2870 C 271.402 1.77754 -1.53103 0
M  V30 2871 C 272.418 1.68928 -0.417034 0
M  V30 2872 O 273.594 1.89801 -0.6736 0
M  V30 2873 C 270.659 3.14115 -1.46741 0
M  V30 2874 C 269.72 3.34612 -2.68948 0
M  V30 2875 C 268.953 4.64467 -2.6288 0
M  V30 2876 O 269.176 5.44919 -1.68581 0
M  V30 2877 O 268.11 4.87049 -3.53648 0
M  V30 2878 H 271.936 1.73174 -2.49489 0
M  V30 2879 H 269.521 0.79709 -1.2636 0
M  V30 2880 H 271.403 3.95412 -1.45696 0
M  V30 2881 H 270.078 3.19249 -0.534975 0
M  V30 2882 H 268.985 2.53014 -2.75562 0
M  V30 2883 H 270.318 3.34336 -3.61221 0
M  V30 2884 N 271.97 1.30982 0.876444 0
M  V30 2885 C 273.216 1.20474 1.63138 0
M  V30 2886 C 273.549 -0.238096 1.92735 0
M  V30 2887 O 272.824 -1.1692 1.55435 0
M  V30 2888 C 273.107 2.04244 2.96574 0
M  V30 2889 C 272.96 3.56793 2.73896 0
M  V30 2890 C 274.279 1.88684 3.97601 0
M  V30 2891 H 271.398 0.439001 0.591985 0
M  V30 2892 H 274.04 1.60704 1.01361 0
M  V30 2893 H 272.19 1.70063 3.493 0
M  V30 2894 H 273.862 4.01077 2.27892 0
M  V30 2895 H 272.105 3.80548 2.08245 0
M  V30 2896 H 272.776 4.10706 3.68815 0
M  V30 2897 H 275.252 2.18584 3.54062 0
M  V30 2898 H 274.128 2.4961 4.88862 0
M  V30 2899 H 274.389 0.848343 4.33884 0
M  V30 2900 N 273.449 -1.08991 1.13837 0
M  V30 2901 C 274.379 -2.17771 0.842507 0
M  V30 2902 C 275.36 -1.6892 -0.20001 0
M  V30 2903 O 276.545 -1.94113 -0.0579731 0
M  V30 2904 C 273.675 -3.4589 0.312644 0
M  V30 2905 C 272.629 -4.08099 1.28992 0
M  V30 2906 C 271.955 -5.31098 0.619623 0
M  V30 2907 C 273.255 -4.50077 2.65005 0
M  V30 2908 H 274.949 -2.42777 1.75213 0
M  V30 2909 H 272.495 -1.16682 0.843875 0
M  V30 2910 H 274.448 -4.21297 0.0933043 0
M  V30 2911 H 273.172 -3.20419 -0.632382 0
M  V30 2912 H 271.831 -3.34717 1.49533 0
M  V30 2913 H 271.479 -5.0191 -0.33102 0
M  V30 2914 H 271.179 -5.73674 1.27167 0
M  V30 2915 H 272.703 -6.09224 0.409669 0
M  V30 2916 H 274.117 -5.16688 2.48407 0
M  V30 2917 H 272.514 -5.03553 3.26427 0
M  V30 2918 H 273.584 -3.62257 3.22332 0
M  V30 2919 N 274.927 -0.932562 -1.27047 0
M  V30 2920 C 275.857 -0.452902 -2.29066 0
M  V30 2921 C 276.838 0.489338 -1.62909 0
M  V30 2922 O 278.023 0.393046 -1.90181 0
M  V30 2923 C 275.153 0.290698 -3.46081 0
M  V30 2924 C 274.107 -0.564168 -4.24265 0
M  V30 2925 C 273.433 0.308886 -5.33807 0
M  V30 2926 C 274.733 -1.83112 -4.89149 0
M  V30 2927 H 276.427 -1.30552 -2.69437 0
M  V30 2928 H 273.973 -0.629201 -1.29526 0
M  V30 2929 H 275.926 0.637233 -4.16554 0
M  V30 2930 H 274.65 1.17738 -3.0464 0
M  V30 2931 H 273.309 -0.893477 -3.55545 0
M  V30 2932 H 272.957 1.19467 -4.88607 0
M  V30 2933 H 272.657 -0.259633 -5.87026 0
M  V30 2934 H 274.181 0.650884 -6.07121 0
M  V30 2935 H 275.595 -1.55236 -5.51883 0
M  V30 2936 H 273.992 -2.34353 -5.52448 0
M  V30 2937 H 275.062 -2.54772 -4.12576 0
M  V30 2938 N 276.405 1.4127 -0.698611 0
M  V30 2939 C 277.337 2.292 0.00399731 0
M  V30 2940 C 278.35 1.44944 0.741279 0
M  V30 2941 O 279.539 1.68416 0.591477 0
M  V30 2942 C 276.639 3.22875 1.02979 0
M  V30 2943 C 275.812 4.35904 0.36151 0
M  V30 2944 C 274.871 5.10134 1.29033 0
M  V30 2945 O 273.897 5.63809 0.781562 0
M  V30 2946 N 275.099 5.17885 2.6225 0
M  V30 2947 H 277.864 2.9014 -0.750921 0
M  V30 2948 H 275.425 1.52455 -0.544882 0
M  V30 2949 H 277.417 3.69404 1.65296 0
M  V30 2950 H 275.987 2.63221 1.68622 0
M  V30 2951 H 275.207 3.91719 -0.441584 0
M  V30 2952 H 276.495 5.08696 -0.103055 0
M  V30 2953 H 275.893 4.7573 3.061 0
M  V30 2954 H 274.45 5.6798 3.19754 0
M  V30 2955 N 277.883 0.443576 1.51229 0
M  V30 2956 C 279.108 -0.121648 2.07043 0
M  V30 2957 C 279.533 -1.35156 1.30823 0
M  V30 2958 O 278.891 -1.7793 0.347934 0
M  V30 2959 C 278.939 -0.41624 3.5819 0
M  V30 2960 O 278.043 -1.50163 3.8409 0
M  V30 2961 H 277.384 0.000871367 0.663999 0
M  V30 2962 H 279.914 0.626706 1.94765 0
M  V30 2963 H 279.924 -0.664867 4.02546 0
M  V30 2964 H 278.599 0.482653 4.1309 0
M  V30 2965 H 277.176 -1.24248 3.51592 0
M  V30 2966 N 279.361 -1.56624 0.175154 0
M  V30 2967 C 280.589 -2.01374 -0.474971 0
M  V30 2968 C 281.004 -1.05537 -1.56548 0
M  V30 2969 O 280.361 -0.0568668 -1.82411 0
M  V30 2970 C 280.412 -3.45923 -1.04975 0
M  V30 2971 O 280.133 -4.381 -0.00276605 0
M  V30 2972 C 281.634 -4.06093 -1.77773 0
M  V30 2973 H 278.854 -0.659962 -0.121206 0
M  V30 2974 H 281.398 -2.02601 0.27801 0
M  V30 2975 H 279.553 -3.45458 -1.75321 0
M  V30 2976 H 279.967 -5.22753 -0.427681 0
M  V30 2977 H 281.441 -5.09147 -2.13245 0
M  V30 2978 H 281.918 -3.48405 -2.67414 0
M  V30 2979 H 282.524 -4.10272 -1.12059 0
M  V30 2980 N 280.839 0.0985539 -1.57292 0
M  V30 2981 C 282.069 0.815135 -1.8984 0
M  V30 2982 C 282.477 1.7297 -0.766679 0
M  V30 2983 O 281.82 1.81698 0.270483 0
M  V30 2984 C 281.882 1.6842 -3.17608 0
M  V30 2985 C 281.546 0.94182 -4.4719 0
M  V30 2986 C 282.543 0.273212 -5.19182 0
M  V30 2987 C 280.228 0.916927 -4.9386 0
M  V30 2988 C 282.222 -0.410361 -6.36078 0
M  V30 2989 C 279.909 0.229567 -6.10669 0
M  V30 2990 C 280.907 -0.432902 -6.81627 0
M  V30 2991 O 280.595 -1.10925 -7.9621 0
M  V30 2992 H 280.327 0.238501 -0.632529 0
M  V30 2993 H 282.881 0.0812659 -2.05239 0
M  V30 2994 H 281.111 2.46022 -2.98345 0
M  V30 2995 H 282.8 2.27704 -3.36015 0
M  V30 2996 H 283.566 0.283927 -4.84168 0
M  V30 2997 H 279.445 1.42201 -4.3852 0
M  V30 2998 H 282.989 -0.928013 -6.914 0
M  V30 2999 H 278.886 0.216686 -6.45136 0
M  V30 3000 H 279.654 -1.01579 -8.12172 0
M  V30 3001 N 282.317 1.53212 0.369288 0
M  V30 3002 C 283.28 1.7872 1.43498 0
M  V30 3003 C 284.28 0.657554 1.46741 0
M  V30 3004 O 285.47 0.925736 1.47566 0
M  V30 3005 C 282.602 1.90591 2.82645 0
M  V30 3006 H 283.795 2.73894 1.22156 0
M  V30 3007 H 281.348 1.44233 0.602203 0
M  V30 3008 H 282.083 0.974709 3.09306 0
M  V30 3009 H 281.868 2.72751 2.8169 0
M  V30 3010 H 283.358 2.11931 3.59826 0
M  V30 3011 N 283.795 -0.628877 1.44509 0
M  V30 3012 C 285.023 -1.41554 1.50897 0
M  V30 3013 C 285.438 -1.8832 0.134564 0
M  V30 3014 O 284.795 -1.60969 -0.859965 0
M  V30 3015 C 284.846 -2.63435 2.47556 0
M  V30 3016 O 284.567 -2.18619 3.79654 0
M  V30 3017 C 286.068 -3.56537 2.63431 0
M  V30 3018 H 283.288 -0.434044 0.511709 0
M  V30 3019 H 285.832 -0.768895 1.89495 0
M  V30 3020 H 283.987 -3.24187 2.12089 0
M  V30 3021 H 284.401 -2.97652 4.31861 0
M  V30 3022 H 285.875 -4.38657 3.35088 0
M  V30 3023 H 286.352 -4.05493 1.68738 0
M  V30 3024 H 286.958 -3.01653 2.9981 0
M  V30 3025 N 285.273 -1.31445 -0.869486 0
M  V30 3026 C 286.684 -1.19042 -1.43826 0
M  V30 3027 C 287.035 0.202919 -1.95148 0
M  V30 3028 O 286.16 1.10071 -1.86315 0
M  V30 3029 C 286.755 -2.15499 -2.6143 0
M  V30 3030 C 285.314 -2.07028 -3.14351 0
M  V30 3031 C 284.461 -2.04701 -1.87063 0
M  V30 3032 H 287.412 -1.43489 -0.677984 0
M  V30 3033 H 287.433 -1.74488 -3.38134 0
M  V30 3034 H 286.945 -3.16899 -2.24046 0
M  V30 3035 H 285.046 -1.08825 -3.56354 0
M  V30 3036 H 285.159 -2.96157 -3.766 0
M  V30 3037 H 283.523 -1.49724 -2.06046 0
M  V30 3038 H 284.306 -3.07857 -1.51917 0
M  V30 3039 N 286.751 1.08385 -1.14413 0
M  V30 3040 C 287.997 1.81044 -0.913834 0
M  V30 3041 C 288.33 1.86004 0.558209 0
M  V30 3042 O 287.605 1.33606 1.4135 0
M  V30 3043 C 287.888 3.26648 -1.51569 0
M  V30 3044 C 287.741 3.29895 -3.0576 0
M  V30 3045 C 289.06 4.23629 -1.19273 0
M  V30 3046 H 286.179 0.65727 -0.333414 0
M  V30 3047 H 288.821 1.26896 -1.41412 0
M  V30 3048 H 286.971 3.72889 -1.09023 0
M  V30 3049 H 288.643 2.91977 -3.57137 0
M  V30 3050 H 286.886 2.69163 -3.40197 0
M  V30 3051 H 287.557 4.32516 -3.42977 0
M  V30 3052 H 290.033 3.85727 -1.56057 0
M  V30 3053 H 288.909 5.23822 -1.64017 0
M  V30 3054 H 289.17 4.41968 -0.108068 0
M  V30 3055 N 288.23 0.939286 1.26551 0
M  V30 3056 C 289.507 0.5038 1.89001 0
M  V30 3057 C 289.887 -1.01854 1.84903 0
M  V30 3058 O 289.235 -1.87773 1.30206 0
M  V30 3059 C 289.445 1.063 3.32417 0
M  V30 3060 C 290.793 1.13051 4.09273 0
M  V30 3061 O 291.817 1.01345 3.41479 0
M  V30 3062 O 290.676 1.31233 5.30509 0
M  V30 3063 H 287.77 0.163897 0.810597 0
M  V30 3064 H 290.316 1.03173 1.34735 0
M  V30 3065 H 289.088 2.10665 3.29752 0
M  V30 3066 H 288.711 0.517408 3.94219 0
M  V30 3067 N 289.708 -1.40897 0.706093 0
M  V30 3068 C 290.641 -2.282 -0.00328781 0
M  V30 3069 C 291.619 -1.42816 -0.77732 0
M  V30 3070 O 292.803 -1.72237 -0.765944 0
M  V30 3071 C 289.93 -3.23226 -1.01205 0
M  V30 3072 C 288.976 -4.25222 -0.329955 0
M  V30 3073 S 289.809 -5.27269 0.935298 0
M  V30 3074 C 290.965 -6.25859 -0.0716061 0
M  V30 3075 H 291.198 -2.88016 0.737143 0
M  V30 3076 H 288.731 -1.46191 0.496756 0
M  V30 3077 H 290.689 -3.78503 -1.58888 0
M  V30 3078 H 289.35 -2.62485 -1.72513 0
M  V30 3079 H 288.543 -4.92023 -1.09221 0
M  V30 3080 H 288.145 -3.73595 0.174069 0
M  V30 3081 H 290.437 -6.71204 -0.921521 0
M  V30 3082 H 291.38 -7.0586 0.562765 0
M  V30 3083 H 291.788 -5.62852 -0.431088 0
M  V30 3084 N 291.186 -0.45159 -1.50991 0
M  V30 3085 C 292.432 0.102439 -2.03142 0
M  V30 3086 C 292.787 1.39138 -1.32884 0
M  V30 3087 O 292.08 1.86493 -0.439438 0
M  V30 3088 C 292.274 0.361728 -3.55565 0
M  V30 3089 C 292.103 -0.900535 -4.40591 0
M  V30 3090 C 290.873 -1.43821 -4.844 0
M  V30 3091 C 293.071 -1.79063 -4.82121 0
M  V30 3092 N 291.053 -2.65153 -5.53685 0
M  V30 3093 C 292.424 -2.84991 -5.50618 0
M  V30 3094 C 294.479 -1.80334 -4.64095 0
M  V30 3095 C 293.182 -3.92155 -6.02998 0
M  V30 3096 C 295.208 -2.86442 -5.17402 0
M  V30 3097 C 294.57 -3.9109 -5.85857 0
M  V30 3098 H 290.669 -0.00204537 -0.781997 0
M  V30 3099 H 293.253 -0.615446 -1.84717 0
M  V30 3100 H 291.424 1.04865 -3.73976 0
M  V30 3101 H 293.156 0.908372 -3.94374 0
M  V30 3102 H 289.911 -0.990117 -4.63135 0
M  V30 3103 H 290.335 -3.26717 -5.92946 0
M  V30 3104 H 294.977 -1.00753 -4.1062 0
M  V30 3105 H 292.695 -4.72565 -6.55521 0
M  V30 3106 H 296.281 -2.88386 -5.05297 0
M  V30 3107 H 295.161 -4.71845 -6.26364 0
M  V30 3108 N 292.664 1.56529 -0.183458 0
M  V30 3109 C 293.889 2.02064 0.467428 0
M  V30 3110 C 294.314 1.06282 1.55196 0
M  V30 3111 O 293.672 0.0443565 1.81246 0
M  V30 3112 C 293.72 3.46122 1.01153 0
M  V30 3113 O 292.824 3.53437 2.12499 0
M  V30 3114 H 292.165 0.654726 0.110588 0
M  V30 3115 H 294.695 2.02521 -0.290917 0
M  V30 3116 H 294.705 3.85676 1.33108 0
M  V30 3117 H 293.38 4.15331 0.217533 0
M  V30 3118 H 291.957 3.2575 1.81497 0
M  V30 3119 N 294.142 -0.090211 1.57342 0
M  V30 3120 C 295.388 -0.793982 1.86611 0
M  V30 3121 C 295.721 -1.78142 0.773252 0
M  V30 3122 O 294.996 -1.93271 -0.218304 0
M  V30 3123 C 295.279 -1.51839 3.26523 0
M  V30 3124 C 295.132 -0.548609 4.46442 0
M  V30 3125 C 296.451 -2.46779 3.64401 0
M  V30 3126 H 293.57 -0.287186 0.678744 0
M  V30 3127 H 296.212 -0.0575076 1.89913 0
M  V30 3128 H 294.362 -2.14617 3.23839 0
M  V30 3129 H 296.034 0.0725513 4.61243 0
M  V30 3130 H 294.277 0.137614 4.33582 0
M  V30 3131 H 294.948 -1.09271 5.41076 0
M  V30 3132 H 297.424 -1.94089 3.68061 0
M  V30 3133 H 296.3 -2.94479 4.63221 0
M  V30 3134 H 296.561 -3.30758 2.93346 0
M  V30 3135 N 295.62 -1.53406 -0.361157 0
M  V30 3136 C 296.868 -1.69467 -1.10115 0
M  V30 3137 C 297.189 -0.451352 -1.89705 0
M  V30 3138 O 296.459 0.534636 -1.88463 0
M  V30 3139 H 295.039 -0.624749 -0.409508 0
M  V30 3140 H 297.701 -1.90609 -0.406699 0
M  V30 3141 H 296.797 -2.55774 -1.78847 0
M  V30 3142 N 297.098 0.621204 -1.44841 0
M  V30 3143 C 298.338 1.39201 -1.49674 0
M  V30 3144 C 298.702 1.91561 -0.129764 0
M  V30 3145 O 299.903 2.68748 -0.0527814 0
M  V30 3146 C 298.174 2.519 -2.53537 0
M  V30 3147 S 299.733 3.39916 -2.77494 0
M  V30 3148 H 296.551 0.474758 -0.529269 0
M  V30 3149 H 299.153 0.718171 -1.81831 0
M  V30 3150 H 297.857 2.11761 -3.51547 0
M  V30 3151 H 297.388 3.241 -2.22986 0
M  V30 3152 H 299.403 4.49646 -2.0984 0
M  V30 3153 N 298.576 1.31904 0.862503 0
M  V30 3154 C 299.825 1.21373 1.61094 0
M  V30 3155 C 300.138 -0.22504 1.94301 0
M  V30 3156 O 301.344 -0.452121 2.67709 0
M  V30 3157 C 299.8 2.12525 2.9045 0
M  V30 3158 C 299.408 3.61441 2.64697 0
M  V30 3159 C 301.152 2.10813 3.68454 0
M  V30 3160 C 299.059 4.44578 3.90006 0
M  V30 3161 H 297.989 0.450705 0.604468 0
M  V30 3162 H 300.64 1.56811 0.953027 0
M  V30 3163 H 299.022 1.69994 3.57656 0
M  V30 3164 H 300.196 4.12264 2.05851 0
M  V30 3165 H 298.511 3.65205 2.00036 0
M  V30 3166 H 301.108 2.70167 4.61426 0
M  V30 3167 H 301.451 1.09713 4.01583 0
M  V30 3168 H 301.984 2.51583 3.08141 0
M  V30 3169 H 298.723 5.46461 3.62023 0
M  V30 3170 H 298.243 3.98508 4.48276 0
M  V30 3171 H 299.922 4.57176 4.5782 0
M  V30 3172 N 300.054 -1.07777 1.14986 0
M  V30 3173 C 301.301 -1.8029 0.922056 0
M  V30 3174 C 301.629 -1.86531 -0.55105 0
M  V30 3175 O 300.884 -1.34189 -1.42449 0
M  V30 3176 C 301.183 -3.25495 1.47608 0
M  V30 3177 C 300.849 -3.39361 2.96893 0
M  V30 3178 C 299.511 -3.42852 3.37647 0
M  V30 3179 C 301.863 -3.42512 3.92854 0
M  V30 3180 C 299.191 -3.47094 4.73015 0
M  V30 3181 C 301.543 -3.4829 5.28088 0
M  V30 3182 C 300.207 -3.50058 5.68345 0
M  V30 3183 H 299.477 -0.659727 0.337404 0
M  V30 3184 H 302.124 -1.26854 1.43459 0
M  V30 3185 H 300.429 -3.81683 0.88463 0
M  V30 3186 H 302.126 -3.80168 1.27568 0
M  V30 3187 H 298.716 -3.37339 2.64387 0
M  V30 3188 H 302.9 -3.3904 3.62444 0
M  V30 3189 H 298.156 -3.46758 5.03556 0
M  V30 3190 H 302.33 -3.49675 6.02246 0
M  V30 3191 H 299.957 -3.53097 6.73221 0
M  V30 3192 N 301.532 -0.945985 -1.26051 0
M  V30 3193 C 302.495 -0.463897 -2.24456 0
M  V30 3194 C 303.495 0.427655 -1.55009 0
M  V30 3195 O 304.685 0.226157 -1.72726 0
M  V30 3196 C 301.817 0.330812 -3.39291 0
M  V30 3197 H 303.01 -1.33357 -2.68619 0
M  V30 3198 H 300.563 -0.728416 -1.38289 0
M  V30 3199 H 301.298 1.21852 -3.00537 0
M  V30 3200 H 301.083 -0.308679 -3.90883 0
M  V30 3201 H 302.573 0.657865 -4.12386 0
M  V30 3202 N 303.011 1.40521 -0.713556 0
M  V30 3203 C 303.921 2.34522 -0.0606667 0
M  V30 3204 C 304.937 1.57193 0.74607 0
M  V30 3205 O 306.113 1.89591 0.679493 0
M  V30 3206 C 303.178 3.36081 0.851491 0
M  V30 3207 C 302.239 4.29286 0.0349339 0
M  V30 3208 C 301.472 5.25994 0.903649 0
M  V30 3209 O 301.695 5.28616 2.14292 0
M  V30 3210 O 300.629 6.00918 0.343723 0
M  V30 3211 H 304.455 2.91968 -0.835972 0
M  V30 3212 H 302.04 1.41681 -0.47402 0
M  V30 3213 H 303.922 3.98369 1.37404 0
M  V30 3214 H 302.597 2.81052 1.60598 0
M  V30 3215 H 301.504 3.70289 -0.532633 0
M  V30 3216 H 302.837 4.87462 -0.681287 0
M  V30 3217 N 304.489 0.459591 1.5075 0
M  V30 3218 C 305.422 -0.386257 2.24907 0
M  V30 3219 C 306.4 -1.006 1.27744 0
M  V30 3220 O 307.584 -1.04416 1.56938 0
M  V30 3221 C 304.711 -1.54021 3.01654 0
M  V30 3222 C 303.757 -1.03898 4.13651 0
M  V30 3223 S 304.59 0.0370501 5.35487 0
M  V30 3224 C 305.746 -1.12105 6.15779 0
M  V30 3225 H 305.979 0.243272 2.96303 0
M  V30 3226 H 303.512 0.244339 1.52454 0
M  V30 3227 H 305.47 -2.20163 3.46466 0
M  V30 3228 H 304.131 -2.14121 2.29806 0
M  V30 3229 H 303.324 -1.90254 4.66711 0
M  V30 3230 H 302.926 -0.45545 3.71216 0
M  V30 3231 H 305.218 -2.03501 6.46215 0
M  V30 3232 H 306.161 -0.62995 7.05292 0
M  V30 3233 H 306.569 -1.36967 5.47631 0
M  V30 3234 N 305.967 -1.56429 0.191757 0
M  V30 3235 C 307.214 -1.97485 -0.447891 0
M  V30 3236 C 307.542 -1.07852 -1.61859 0
M  V30 3237 O 306.797 -0.116903 -1.95351 0
M  V30 3238 C 307.096 -3.44449 -0.953384 0
M  V30 3239 C 306.762 -4.50781 0.103586 0
M  V30 3240 C 305.424 -4.79584 0.394023 0
M  V30 3241 C 307.776 -5.1471 0.819946 0
M  V30 3242 C 305.104 -5.69607 1.40585 0
M  V30 3243 C 307.456 -6.05827 1.8209 0
M  V30 3244 C 306.12 -6.32987 2.11857 0
M  V30 3245 H 305.39 -0.722648 -0.163895 0
M  V30 3246 H 308.037 -1.89322 0.28802 0
M  V30 3247 H 306.342 -3.49666 -1.76751 0
M  V30 3248 H 308.039 -3.73569 -1.45765 0
M  V30 3249 H 304.629 -4.28394 -0.132951 0
M  V30 3250 H 308.813 -4.92552 0.608789 0
M  V30 3251 H 304.069 -5.88926 1.64243 0
M  V30 3252 H 308.243 -6.54424 2.38123 0
M  V30 3253 H 305.87 -7.02544 2.90407 0
M  V30 3254 N 307.445 0.0818655 -1.57387 0
M  V30 3255 C 308.861 0.436412 -1.53517 0
M  V30 3256 C 309.061 1.79758 -0.910459 0
M  V30 3257 O 308.117 2.47324 -0.508636 0
M  V30 3258 C 309.43 0.386734 -2.98203 0
M  V30 3259 C 310.978 0.467644 -3.09487 0
M  V30 3260 C 311.453 0.447978 -4.55804 0
M  V30 3261 N 312.944 0.508348 -4.60402 0
M  V30 3262 C 313.679 0.515184 -5.71081 0
M  V30 3263 N 313.175 0.477435 -6.91153 0
M  V30 3264 N 314.968 0.560988 -5.59294 0
M  V30 3265 H 307.119 -0.809546 -1.96367 0
M  V30 3266 H 309.382 -0.302733 -0.898363 0
M  V30 3267 H 309.088 -0.546539 -3.47427 0
M  V30 3268 H 308.962 1.20075 -3.57578 0
M  V30 3269 H 311.349 1.39134 -2.60242 0
M  V30 3270 H 311.43 -0.374753 -2.5304 0
M  V30 3271 H 311.074 -0.471826 -5.05704 0
M  V30 3272 H 311.004 1.30777 -5.10103 0
M  V30 3273 H 313.495 0.54218 -3.7399 0
M  V30 3274 H 313.808 0.486299 -7.71268 0
M  V30 3275 H 312.153 0.444278 -6.93579 0
M  V30 3276 H 315.344 0.5881 -4.64391 0
M  V30 3277 H 315.517 0.562846 -6.45551 0
M  V30 3278 N 308.923 1.53595 0.353017 0
M  V30 3279 C 310.339 1.43648 0.695516 0
M  V30 3280 C 310.539 0.585617 1.92802 0
M  V30 3281 O 309.595 0.0729223 2.52395 0
M  V30 3282 C 310.908 2.8701 0.896991 0
M  V30 3283 C 312.456 2.96723 0.996209 0
M  V30 3284 C 312.931 4.41173 1.23007 0
M  V30 3285 N 314.422 4.44657 1.29749 0
M  V30 3286 C 315.157 5.53547 1.49577 0
M  V30 3287 N 314.653 6.72461 1.66639 0
M  V30 3288 N 316.446 5.41145 1.52048 0
M  V30 3289 H 308.597 2.07415 -0.457481 0
M  V30 3290 H 310.86 0.9372 -0.142687 0
M  V30 3291 H 310.566 3.51644 0.0629938 0
M  V30 3292 H 310.44 3.31401 1.80148 0
M  V30 3293 H 312.827 2.32235 1.82074 0
M  V30 3294 H 312.908 2.55707 0.0688331 0
M  V30 3295 H 312.552 5.06238 0.410505 0
M  V30 3296 H 312.482 4.79772 2.17086 0
M  V30 3297 H 314.973 3.58963 1.18126 0
M  V30 3298 H 315.286 7.51214 1.81378 0
M  V30 3299 H 313.631 6.75423 1.63794 0
M  V30 3300 H 316.822 4.47205 1.38294 0
M  V30 3301 H 316.995 6.26068 1.67159 0
M  V30 3302 N 310.401 -0.613514 1.45168 0
M  V30 3303 C 311.348 -1.72456 1.53387 0
M  V30 3304 C 312.318 -1.6169 0.380191 0
M  V30 3305 O 313.503 -1.81356 0.592836 0
M  V30 3306 C 310.643 -3.10753 1.50088 0
M  V30 3307 C 309.756 -3.32368 2.75963 0
M  V30 3308 C 308.891 -4.60737 2.64376 0
M  V30 3309 C 307.93 -4.7559 3.85332 0
M  V30 3310 N 307.067 -5.95253 3.72315 0
M  V30 3311 H 311.907 -1.64768 2.48305 0
M  V30 3312 H 309.444 -0.803503 1.23216 0
M  V30 3313 H 311.402 -3.90758 1.46164 0
M  V30 3314 H 310.032 -3.17413 0.587243 0
M  V30 3315 H 309.084 -2.4618 2.89999 0
M  V30 3316 H 310.396 -3.39218 3.65695 0
M  V30 3317 H 309.55 -5.48928 2.58385 0
M  V30 3318 H 308.289 -4.56275 1.72233 0
M  V30 3319 H 307.294 -3.85824 3.91688 0
M  V30 3320 H 308.519 -4.81854 4.78533 0
M  V30 3321 H 306.465 -5.91847 2.82937 0
M  V30 3322 H 306.382 -6.03236 4.55677 0
M  V30 3323 H 307.65 -6.85958 3.70246 0
M  V30 3324 N 311.879 -1.3236 -0.855495 0
M  V30 3325 C 313.29 -1.2056 -1.42556 0
M  V30 3326 C 313.641 0.182209 -1.95352 0
M  V30 3327 O 312.766 1.08088 -1.87472 0
M  V30 3328 C 313.361 -2.1826 -2.59129 0
M  V30 3329 C 311.92 -2.10351 -3.12137 0
M  V30 3330 C 311.067 -2.06674 -1.84882 0
M  V30 3331 H 314.018 -1.442 -0.662727 0
M  V30 3332 H 314.039 -1.78064 -3.36264 0
M  V30 3333 H 313.551 -3.19257 -2.20673 0
M  V30 3334 H 311.652 -1.12599 -3.55179 0
M  V30 3335 H 311.765 -3.00135 -3.73438 0
M  V30 3336 H 310.129 -1.51901 -2.04446 0
M  V30 3337 H 310.912 -3.09451 -1.48643 0
M  V30 3338 N 313.357 1.07166 -1.15556 0
M  V30 3339 C 314.287 2.16403 -0.877046 0
M  V30 3340 C 315.268 1.69217 0.173111 0
M  V30 3341 O 316.453 1.94181 0.027084 0
M  V30 3342 C 313.583 3.45349 -0.367632 0
M  V30 3343 C 312.537 4.05995 -1.35468 0
M  V30 3344 C 311.863 5.30045 -0.704038 0
M  V30 3345 C 313.163 4.45804 -2.72132 0
M  V30 3346 H 314.857 2.39959 -1.79053 0
M  V30 3347 H 312.403 1.15325 -0.862331 0
M  V30 3348 H 314.356 4.21095 -0.160317 0
M  V30 3349 H 313.08 3.21385 0.581326 0
M  V30 3350 H 311.739 3.32296 -1.54839 0
M  V30 3351 H 311.387 5.02373 0.251128 0
M  V30 3352 H 311.087 5.71579 -1.36277 0
M  V30 3353 H 312.611 6.08495 -0.50654 0
M  V30 3354 H 314.025 5.12671 -2.56595 0
M  V30 3355 H 312.422 4.98296 -3.34397 0
M  V30 3356 H 313.492 3.57083 -3.28054 0
M  V30 3357 N 314.835 0.952656 1.25548 0
M  V30 3358 C 316.082 0.606373 1.93208 0
M  V30 3359 C 316.41 -0.85631 1.74636 0
M  V30 3360 O 315.665 -1.62951 1.08376 0
M  V30 3361 C 315.964 0.908818 3.45652 0
M  V30 3362 C 315.63 2.35722 3.84378 0
M  V30 3363 C 314.292 2.75312 3.9466 0
M  V30 3364 C 316.644 3.29793 4.03591 0
M  V30 3365 C 313.972 4.08047 4.21562 0
M  V30 3366 C 316.324 4.62138 4.31985 0
M  V30 3367 C 314.988 5.01528 4.40484 0
M  V30 3368 H 314.258 0.221888 0.706998 0
M  V30 3369 H 316.905 1.20132 1.49133 0
M  V30 3370 H 315.21 0.231456 3.91116 0
M  V30 3371 H 316.907 0.619498 3.96186 0
M  V30 3372 H 313.497 2.04017 3.76928 0
M  V30 3373 H 317.681 3.00397 3.95064 0
M  V30 3374 H 312.937 4.38212 4.26357 0
M  V30 3375 H 317.111 5.35012 4.45797 0
M  V30 3376 H 314.738 6.04406 4.61083 0
M  V30 3377 N 316.313 -1.40141 0.720998 0
M  V30 3378 C 317.553 -2.02644 0.267335 0
M  V30 3379 C 317.917 -1.55948 -1.12001 0
M  V30 3380 O 319.118 -2.10552 -1.67097 0
M  V30 3381 C 317.389 -3.55679 0.350281 0
M  V30 3382 S 318.948 -4.38793 -0.0256004 0
M  V30 3383 H 315.766 -0.703105 0.105664 0
M  V30 3384 H 318.368 -1.71175 0.944416 0
M  V30 3385 H 317.072 -3.87157 1.36153 0
M  V30 3386 H 316.603 -3.91883 -0.345096 0
M  V30 3387 H 318.618 -4.803 -1.24604 0
M  V30 3388 N 317.792 -0.46758 -1.50504 0
M  V30 3389 C 319.04 0.0884469 -2.01906 0
M  V30 3390 C 319.361 1.40532 -1.35188 0
M  V30 3391 O 318.631 1.89515 -0.496079 0
M  V30 3392 H 317.211 0.0356765 -0.746148 0
M  V30 3393 H 319.873 -0.6172 -1.84869 0
M  V30 3394 H 318.969 0.2425 -3.11156 0
M  V30 3395 N 319.27 1.56325 -0.20005 0
M  V30 3396 C 320.218 2.20666 0.735482 0
M  V30 3397 C 321.212 1.17934 1.21605 0
M  V30 3398 O 322.418 1.36068 1.17837 0
M  V30 3399 H 318.793 0.70725 0.255542 0
M  V30 3400 H 320.764 2.9792 0.169166 0
M  V30 3401 C 319.513 2.88391 1.94232 0
M  V30 3402 H 318.836 3.67185 1.58161 0
M  V30 3403 H 320.276 3.3684 2.57517 0
M  V30 3404 C 318.735 1.89692 2.78421 0
M  V30 3405 O 319.265 1.40032 3.76502 0
M  V30 3406 N 317.471 1.57813 2.44015 0
M  V30 3407 H 317.018 1.9839 1.64314 0
M  V30 3408 H 316.976 0.920325 3.00628 0
M  V30 3409 N 320.748 -0.0735177 1.57428 0
M  V30 3410 C 321.973 -0.789787 1.91774 0
M  V30 3411 C 322.398 -1.70413 0.796306 0
M  V30 3412 O 321.756 -1.79555 -0.250961 0
M  V30 3413 C 321.804 -1.5609 3.25067 0
M  V30 3414 O 320.908 -2.67144 3.14178 0
M  V30 3415 H 320.249 -0.215582 0.628029 0
M  V30 3416 H 322.779 -0.0422781 2.04556 0
M  V30 3417 H 322.789 -1.94052 3.58898 0
M  V30 3418 H 321.464 -0.890015 4.06265 0
M  V30 3419 H 320.041 -2.32052 2.91901 0
M  V30 3420 N 322.226 -1.5378 -0.344866 0
M  V30 3421 C 323.136 -1.84667 -1.4469 0
M  V30 3422 C 324.152 -0.736704 -1.57635 0
M  V30 3423 O 325.328 -1.02888 -1.73136 0
M  V30 3424 C 322.393 -2.04869 -2.79696 0
M  V30 3425 C 321.454 -3.28731 -2.76106 0
M  V30 3426 C 320.687 -3.4796 -4.04673 0
M  V30 3427 O 320.91 -2.71052 -5.01883 0
M  V30 3428 O 319.844 -4.41383 -4.09224 0
M  V30 3429 H 323.67 -2.78334 -1.21506 0
M  V30 3430 H 321.255 -1.39418 -0.536921 0
M  V30 3431 H 323.137 -2.19609 -3.59652 0
M  V30 3432 H 321.812 -1.14391 -3.02814 0
M  V30 3433 H 320.719 -3.19396 -1.94774 0
M  V30 3434 H 322.052 -4.19198 -2.57941 0
M  V30 3435 N 323.704 0.605807 -1.45491 0
M  V30 3436 C 324.667 1.69836 -1.5391 0
M  V30 3437 C 325.667 1.55261 -0.418424 0
M  V30 3438 O 326.857 1.60296 -0.681965 0
M  V30 3439 C 323.989 3.09117 -1.43734 0
M  V30 3440 H 325.182 1.63738 -2.51257 0
M  V30 3441 H 322.735 0.821689 -1.32959 0
M  V30 3442 H 323.47 3.20791 -0.475788 0
M  V30 3443 H 323.255 3.21104 -2.25021 0
M  V30 3444 H 324.745 3.88696 -1.52661 0
M  V30 3445 N 325.182 1.32811 0.848464 0
M  V30 3446 C 326.459 1.14334 1.58704 0
M  V30 3447 C 326.839 -0.293948 2.09043 0
M  V30 3448 O 326.187 -1.29153 1.88499 0
M  V30 3449 C 326.397 2.17626 2.72837 0
M  V30 3450 C 327.745 2.51282 3.42261 0
M  V30 3451 O 328.769 2.16219 2.83068 0
M  V30 3452 O 327.628 3.11413 4.49093 0
M  V30 3453 H 324.722 0.441601 0.699226 0
M  V30 3454 H 327.268 1.44362 0.892053 0
M  V30 3455 H 326.04 3.14211 2.3321 0
M  V30 3456 H 325.663 1.88628 3.50008 0
M  V30 3457 N 326.66 -1.06551 1.16123 0
M  V30 3458 C 327.592 -2.13908 0.823171 0
M  V30 3459 C 328.605 -1.61926 -0.16843 0
M  V30 3460 O 329.794 -1.78412 0.055962 0
M  V30 3461 C 326.894 -3.38283 0.204424 0
M  V30 3462 C 326.067 -4.19589 1.23548 0
M  V30 3463 C 325.126 -5.2233 0.637011 0
M  V30 3464 O 324.152 -5.54034 1.30516 0
M  V30 3465 N 325.354 -5.77621 -0.577474 0
M  V30 3466 H 328.119 -2.43508 1.74711 0
M  V30 3467 H 325.68 -1.2253 1.05821 0
M  V30 3468 H 327.672 -4.0416 -0.208909 0
M  V30 3469 H 326.242 -3.06329 -0.623012 0
M  V30 3470 H 325.462 -3.49406 1.82507 0
M  V30 3471 H 326.75 -4.70718 1.93137 0
M  V30 3472 H 326.148 -5.54125 -1.13853 0
M  V30 3473 H 324.705 -6.45087 -0.933053 0
M  V30 3474 N 328.138 -0.959301 -1.25041 0
M  V30 3475 C 329.068 -0.501388 -2.28053 0
M  V30 3476 C 330.049 0.454673 -1.63911 0
M  V30 3477 O 331.234 0.352618 -1.90972 0
M  V30 3478 C 328.364 0.217224 -3.4662 0
M  V30 3479 C 327.318 -0.654034 -4.22973 0
M  V30 3480 C 326.644 0.195589 -5.34342 0
M  V30 3481 C 327.944 -1.93447 -4.85155 0
M  V30 3482 H 329.638 -1.36238 -2.66608 0
M  V30 3483 H 327.184 -0.656534 -1.28163 0
M  V30 3484 H 329.137 0.548732 -4.17812 0
M  V30 3485 H 327.861 1.1125 -3.07068 0
M  V30 3486 H 326.52 -0.968693 -3.5357 0
M  V30 3487 H 326.168 1.09076 -4.91031 0
M  V30 3488 H 325.868 -0.384091 -5.86343 0
M  V30 3489 H 327.392 0.521958 -6.08365 0
M  V30 3490 H 328.806 -1.66908 -5.48466 0
M  V30 3491 H 327.203 -2.46018 -5.47353 0
M  V30 3492 H 328.273 -2.63466 -4.07079 0
M  V30 3493 N 329.616 1.39756 -0.72842 0
M  V30 3494 C 330.864 2.00248 -0.272946 0
M  V30 3495 C 331.185 1.58077 1.14178 0
M  V30 3496 O 330.455 0.826014 1.77634 0
M  V30 3497 H 329.035 0.740554 -0.0979247 0
M  V30 3498 H 331.697 1.70903 -0.936912 0
M  V30 3499 H 330.793 3.10495 -0.316142 0
M  V30 3500 N 331.094 0.475555 1.50254 0
M  V30 3501 C 332.041 -0.316293 2.28622 0
M  V30 3502 C 333.011 -0.983227 1.33873 0
M  V30 3503 O 334.196 -0.994805 1.62814 0
M  V30 3504 C 331.336 -1.38975 3.1588 0
M  V30 3505 C 330.449 -0.737146 4.25664 0
M  V30 3506 C 329.584 -1.78887 5.00173 0
M  V30 3507 C 328.623 -1.11676 6.01826 0
M  V30 3508 N 327.76 -2.11154 6.69596 0
M  V30 3509 H 332.6 0.358297 2.95838 0
M  V30 3510 H 330.137 0.188541 1.45887 0
M  V30 3511 H 332.095 -2.02383 3.64825 0
M  V30 3512 H 330.725 -2.03344 2.50701 0
M  V30 3513 H 329.777 0.0096065 3.80399 0
M  V30 3514 H 331.089 -0.206816 4.98371 0
M  V30 3515 H 330.243 -2.49865 5.52859 0
M  V30 3516 H 328.982 -2.35302 4.27182 0
M  V30 3517 H 327.987 -0.392633 5.48396 0
M  V30 3518 H 329.212 -0.55945 6.76792 0
M  V30 3519 H 327.158 -2.66577 5.99394 0
M  V30 3520 H 327.075 -1.63118 7.38193 0
M  V30 3521 H 328.343 -2.81497 7.26897 0
M  V30 3522 N 332.573 -1.56217 0.208337 0
M  V30 3523 C 333.822 -1.97124 -0.427204 0
M  V30 3524 C 334.135 -1.09859 -1.61835 0
M  V30 3525 O 335.341 -1.40606 -2.32255 0
M  V30 3526 C 333.797 -3.50633 -0.811442 0
M  V30 3527 C 333.405 -4.46582 0.35615 0
M  V30 3528 C 335.149 -4.00282 -1.41332 0
M  V30 3529 C 333.056 -5.91379 -0.0497852 0
M  V30 3530 H 331.986 -0.736086 -0.163381 0
M  V30 3531 H 334.637 -1.8099 0.302456 0
M  V30 3532 H 333.019 -3.62319 -1.59815 0
M  V30 3533 H 334.193 -4.46636 1.1337 0
M  V30 3534 H 332.508 -4.07202 0.870396 0
M  V30 3535 H 335.105 -5.0595 -1.72972 0
M  V30 3536 H 335.448 -3.45359 -2.32449 0
M  V30 3537 H 335.981 -3.91764 -0.690323 0
M  V30 3538 H 332.72 -6.50255 0.827529 0
M  V30 3539 H 332.24 -5.94549 -0.791926 0
M  V30 3540 H 333.919 -6.45209 -0.481042 0
M  V30 3541 N 334.051 0.0651679 -1.57465 0
M  V30 3542 C 335.298 0.763063 -1.87573 0
M  V30 3543 C 335.626 1.77242 -0.800961 0
M  V30 3544 O 334.881 1.94651 0.202316 0
M  V30 3545 C 335.18 1.50081 -3.24362 0
M  V30 3546 C 334.846 0.630816 -4.46466 0
M  V30 3547 C 333.508 0.391082 -4.79608 0
M  V30 3548 C 335.86 0.0279465 -5.21193 0
M  V30 3549 C 333.188 -0.460894 -5.84887 0
M  V30 3550 C 335.54 -0.811522 -6.27373 0
M  V30 3551 C 334.204 -1.06106 -6.59013 0
M  V30 3552 H 333.474 0.279224 -0.686378 0
M  V30 3553 H 336.121 0.0236726 -1.91485 0
M  V30 3554 H 334.426 2.31258 -3.16271 0
M  V30 3555 H 336.123 2.04571 -3.44894 0
M  V30 3556 H 332.713 0.8278 -4.2053 0
M  V30 3557 H 336.897 0.200262 -4.95896 0
M  V30 3558 H 332.153 -0.662907 -6.07796 0
M  V30 3559 H 336.327 -1.28537 -6.84435 0
M  V30 3560 H 333.954 -1.723 -7.40417 0
M  V30 3561 N 335.529 1.53961 0.336706 0
M  V30 3562 C 336.806 1.62171 1.09361 0
M  V30 3563 C 337.186 0.447263 2.06307 0
M  V30 3564 O 336.534 -0.559802 2.21537 0
M  V30 3565 C 336.744 2.98565 1.80721 0
M  V30 3566 C 338.092 3.54157 2.34218 0
M  V30 3567 O 339.116 3.00784 1.90807 0
M  V30 3568 O 337.975 4.47528 3.13657 0
M  V30 3569 H 335.069 0.6562 0.503319 0
M  V30 3570 H 337.615 1.66307 0.33765 0
M  V30 3571 H 336.387 3.75482 1.10132 0
M  V30 3572 H 336.01 2.9805 2.63158 0
M  V30 3573 N 337.007 -0.598083 1.45811 0
M  V30 3574 C 337.937 -1.71873 1.58057 0
M  V30 3575 C 338.918 -1.64533 0.431615 0
M  V30 3576 O 340.103 -1.82787 0.65595 0
M  V30 3577 C 337.233 -3.10495 1.55597 0
M  V30 3578 C 336.187 -3.32654 2.69305 0
M  V30 3579 C 335.513 -4.71646 2.51902 0
M  V30 3580 C 336.813 -3.21981 4.11248 0
M  V30 3581 H 338.507 -1.61881 2.51863 0
M  V30 3582 H 336.053 -0.777372 1.21214 0
M  V30 3583 H 338.006 -3.88699 1.6276 0
M  V30 3584 H 336.73 -3.2135 0.583255 0
M  V30 3585 H 335.389 -2.56843 2.61586 0
M  V30 3586 H 335.037 -4.79246 1.52748 0
M  V30 3587 H 334.737 -4.87426 3.2816 0
M  V30 3588 H 336.261 -5.52038 2.60933 0
M  V30 3589 H 337.675 -3.90049 4.20161 0
M  V30 3590 H 336.072 -3.49289 4.87972 0
M  V30 3591 H 337.142 -2.1928 4.32486 0
M  V30 3592 N 338.485 -1.33259 -0.841409 0
M  V30 3593 C 339.734 -1.23921 -1.59143 0
M  V30 3594 C 340.047 0.1941 -1.94635 0
M  V30 3595 O 341.253 0.409474 -2.68394 0
M  V30 3596 C 339.709 -2.17119 -2.87032 0
M  V30 3597 C 339.317 -3.65606 -2.58914 0
M  V30 3598 C 341.061 -2.16648 -3.65053 0
M  V30 3599 C 338.968 -4.50726 -3.82884 0
M  V30 3600 H 337.898 -0.460264 -0.597221 0
M  V30 3601 H 340.549 -1.58307 -0.927959 0
M  V30 3602 H 338.931 -1.75663 -3.54906 0
M  V30 3603 H 340.105 -4.15487 -1.99267 0
M  V30 3604 H 338.42 -3.68341 -1.942 0
M  V30 3605 H 341.017 -2.77474 -4.57069 0
M  V30 3606 H 341.36 -1.16088 -3.99787 0
M  V30 3607 H 341.893 -2.56453 -3.041 0
M  V30 3608 H 338.632 -5.52151 -3.53283 0
M  V30 3609 H 338.152 -4.0559 -4.41879 0
M  V30 3610 H 339.831 -4.64401 -4.50489 0
M  V30 3611 N 339.963 1.05934 -1.16686 0
M  V30 3612 C 341.211 1.78447 -0.948744 0
M  V30 3613 C 341.532 1.87813 0.524523 0
M  V30 3614 O 340.802 1.38945 1.38098 0
M  V30 3615 H 339.382 0.660971 -0.348033 0
M  V30 3616 H 342.044 1.27947 -1.47022 0
M  V30 3617 H 341.14 2.80394 -1.37061 0
M  V30 3618 N 341.441 0.965919 1.2453 0
M  V30 3619 C 342.371 0.513476 2.27784 0
M  V30 3620 C 343.352 -0.445974 1.6415 0
M  V30 3621 O 344.537 -0.342485 1.91156 0
M  V30 3622 C 341.667 -0.198839 3.4673 0
M  V30 3623 C 340.621 0.676456 4.2262 0
M  V30 3624 C 339.947 -0.167248 5.34438 0
M  V30 3625 C 341.247 1.96017 4.84123 0
M  V30 3626 H 342.941 1.3765 2.65881 0
M  V30 3627 H 340.487 0.663321 1.27813 0
M  V30 3628 H 342.44 -0.526567 4.18097 0
M  V30 3629 H 341.164 -1.0962 3.07654 0
M  V30 3630 H 339.823 0.98743 3.53052 0
M  V30 3631 H 339.471 -1.0647 4.91603 0
M  V30 3632 H 339.171 0.415181 5.86131 0
M  V30 3633 H 340.695 -0.489688 6.08633 0
M  V30 3634 H 342.109 1.69814 5.47573 0
M  V30 3635 H 340.506 2.48918 5.4604 0
M  V30 3636 H 341.576 2.65622 4.05676 0
M  V30 3637 N 342.919 -1.39368 0.735821 0
M  V30 3638 C 344.33 -1.83313 0.354015 0
M  V30 3639 C 344.681 -1.61461 -1.11466 0
M  V30 3640 O 343.806 -1.10621 -1.85989 0
M  V30 3641 C 344.401 -3.32781 0.635769 0
M  V30 3642 C 342.96 -3.75142 0.307448 0
M  V30 3643 C 342.107 -2.62358 0.897974 0
M  V30 3644 H 345.058 -1.28349 0.933398 0
M  V30 3645 H 345.079 -3.80388 -0.0921773 0
M  V30 3646 H 344.591 -3.48654 1.70476 0
M  V30 3647 H 342.692 -3.64857 -0.755674 0
M  V30 3648 H 342.805 -4.72532 0.790583 0
M  V30 3649 H 341.169 -2.52624 0.324551 0
M  V30 3650 H 341.952 -2.81036 1.97164 0
M  V30 3651 N 344.397 -0.483516 -1.5 0
M  V30 3652 C 345.808 -0.0314176 -1.86674 0
M  V30 3653 C 346.159 1.37728 -1.39733 0
M  V30 3654 O 345.284 2.02327 -0.767635 0
M  V30 3655 C 345.879 -0.0502376 -3.38763 0
M  V30 3656 C 344.438 0.346442 -3.74802 0
M  V30 3657 C 343.585 -0.430366 -2.7394 0
M  V30 3658 H 346.536 -0.697182 -1.42566 0
M  V30 3659 H 346.557 0.749116 -3.73053 0
M  V30 3660 H 346.069 -1.07563 -3.72897 0
M  V30 3661 H 344.17 1.37572 -3.46273 0
M  V30 3662 H 344.283 0.0391486 -4.79084 0
M  V30 3663 H 342.647 0.117557 -2.54429 0
M  V30 3664 H 343.43 -1.4555 -3.10918 0
M  V30 3665 N 345.875 1.56104 -0.216619 0
M  V30 3666 C 346.785 2.23694 0.706982 0
M  V30 3667 C 347.801 1.24295 1.21765 0
M  V30 3668 O 348.977 1.57094 1.2603 0
M  V30 3669 C 346.042 2.8998 1.90033 0
M  V30 3670 C 345.103 4.04708 1.43213 0
M  V30 3671 C 344.336 4.67824 2.56859 0
M  V30 3672 O 344.559 4.29913 3.74874 0
M  V30 3673 O 343.493 5.56905 2.28343 0
M  V30 3674 H 347.319 3.03272 0.161235 0
M  V30 3675 H 344.904 1.49394 0.0136177 0
M  V30 3676 H 346.786 3.31837 2.59735 0
M  V30 3677 H 345.461 2.13365 2.43428 0
M  V30 3678 H 344.368 3.6743 0.70327 0
M  V30 3679 H 345.701 4.83051 0.944615 0
M  V30 3680 N 347.353 -0.0568162 1.57498 0
M  V30 3681 C 348.63 -0.786954 1.79071 0
M  V30 3682 C 349.01 -1.95028 0.80792 0
M  V30 3683 O 348.358 -2.27968 -0.155858 0
M  V30 3684 C 348.568 -1.24594 3.26002 0
M  V30 3685 C 349.916 -1.67323 3.90241 0
M  V30 3686 O 350.94 -1.34124 3.29984 0
M  V30 3687 O 349.799 -2.28842 4.9628 0
M  V30 3688 H 346.893 -0.378262 0.735423 0
M  V30 3689 H 349.439 -0.035734 1.69662 0
M  V30 3690 H 348.211 -0.41423 3.89101 0
M  V30 3691 H 347.834 -2.05803 3.40192 0
M  V30 3692 N 348.832 -1.54138 -0.328536 0
M  V30 3693 C 350.109 -1.62749 -1.08499 0
M  V30 3694 C 350.489 -0.458198 -2.06067 0
M  V30 3695 O 349.837 0.548046 -2.2183 0
M  V30 3696 C 350.047 -2.99519 -1.79135 0
M  V30 3697 C 351.395 -3.55394 -2.32337 0
M  V30 3698 O 352.419 -3.01792 -1.89209 0
M  V30 3699 O 351.278 -4.49186 -3.11279 0
M  V30 3700 H 348.372 -0.65886 -0.499832 0
M  V30 3701 H 350.918 -1.66484 -0.328826 0
M  V30 3702 H 349.69 -3.76061 -1.08139 0
M  V30 3703 H 349.313 -2.99441 -2.61574 0
M  V30 3704 N 350.31 0.590341 -1.46126 0
M  V30 3705 C 351.556 1.34874 -1.52252 0
M  V30 3706 C 351.911 1.91658 -0.168807 0
M  V30 3707 O 351.204 1.73093 0.821556 0
M  V30 3708 C 351.398 2.5032 -2.55097 0
M  V30 3709 C 351.227 2.04843 -4.00337 0
M  V30 3710 C 349.997 1.90213 -4.68132 0
M  V30 3711 C 352.195 1.61267 -4.88362 0
M  V30 3712 N 350.177 1.38727 -5.9802 0
M  V30 3713 C 351.548 1.21319 -6.08015 0
M  V30 3714 C 353.603 1.49015 -4.75078 0
M  V30 3715 C 352.306 0.7034 -7.15852 0
M  V30 3716 C 354.332 0.994401 -5.8298 0
M  V30 3717 C 353.694 0.604659 -7.018 0
M  V30 3718 H 349.793 0.486803 -0.612002 0
M  V30 3719 H 352.377 0.673007 -1.82698 0
M  V30 3720 H 350.548 3.15466 -2.26574 0
M  V30 3721 H 352.28 3.1725 -2.51266 0
M  V30 3722 H 349.035 2.11927 -4.23537 0
M  V30 3723 H 349.459 1.15168 -6.67132 0
M  V30 3724 H 354.101 1.77768 -3.83612 0
M  V30 3725 H 351.819 0.403446 -8.07092 0
M  V30 3726 H 355.405 0.903621 -5.7474 0
M  V30 3727 H 354.285 0.226963 -7.83871 0
M  V30 3728 N 351.788 1.33704 0.83433 0
M  V30 3729 C 353.199 1.22813 1.4062 0
M  V30 3730 C 353.55 -0.151107 1.95617 0
M  V30 3731 O 352.675 -1.05092 1.89168 0
M  V30 3732 C 353.27 2.22355 2.55624 0
M  V30 3733 C 351.829 2.1529 3.08751 0
M  V30 3734 C 350.976 2.09589 1.8157 0
M  V30 3735 H 353.927 1.45236 0.639702 0
M  V30 3736 H 353.948 1.83391 3.33389 0
M  V30 3737 H 353.46 3.22728 2.15566 0
M  V30 3738 H 351.561 1.18235 3.53343 0
M  V30 3739 H 351.674 3.06038 3.68616 0
M  V30 3740 H 350.038 1.55134 2.02004 0
M  V30 3741 H 350.821 3.11777 1.43701 0
M  V30 3742 N 353.266 -1.05314 1.17247 0
M  V30 3743 C 354.682 -1.30452 0.919473 0
M  V30 3744 C 354.882 -1.9703 -0.42209 0
M  V30 3745 O 353.938 -2.24311 -1.15935 0
M  V30 3746 C 355.251 -2.17551 2.07586 0
M  V30 3747 C 356.799 -2.30937 2.11275 0
M  V30 3748 C 357.274 -3.21396 3.26296 0
M  V30 3749 N 358.765 -3.28981 3.26076 0
M  V30 3750 C 359.5 -3.99095 4.11716 0
M  V30 3751 N 358.996 -4.71648 5.07465 0
M  V30 3752 N 360.789 -3.95247 3.9967 0
M  V30 3753 H 352.94 -0.604988 2.03602 0
M  V30 3754 H 355.203 -0.329368 0.888944 0
M  V30 3755 H 354.909 -1.75921 3.0454 0
M  V30 3756 H 354.783 -3.18182 2.02584 0
M  V30 3757 H 357.17 -2.71809 1.14907 0
M  V30 3758 H 357.251 -1.2994 2.20339 0
M  V30 3759 H 356.895 -2.81238 4.22927 0
M  V30 3760 H 356.825 -4.22395 3.14467 0
M  V30 3761 H 359.316 -2.77286 2.5675 0
M  V30 3762 H 359.629 -5.22705 5.6921 0
M  V30 3763 H 357.974 -4.70594 5.11435 0
M  V30 3764 H 361.165 -3.37691 3.24164 0
M  V30 3765 H 361.338 -4.4962 4.66632 0
M  V30 3766 N 354.744 -0.972509 -1.24016 0
M  V30 3767 C 356.021 -0.553733 -1.87598 0
M  V30 3768 C 356.401 0.969158 -1.87538 0
M  V30 3769 O 355.749 1.84255 -1.35139 0
M  V30 3770 C 355.959 -1.15076 -3.29482 0
M  V30 3771 C 357.307 -1.23862 -4.06132 0
M  V30 3772 O 358.331 -1.10363 -3.38672 0
M  V30 3773 O 357.19 -1.45252 -5.26844 0
M  V30 3774 H 354.284 -0.185331 -0.805966 0
M  V30 3775 H 356.83 -1.06709 -1.31952 0
M  V30 3776 H 355.602 -2.19333 -3.2405 0
M  V30 3777 H 355.225 -0.621746 -3.92709 0
M  V30 3778 N 356.222 1.38976 -0.743202 0
M  V30 3779 C 357.468 2.0064 -0.295189 0
M  V30 3780 C 357.801 1.5885 1.11716 0
M  V30 3781 O 357.076 0.821181 1.76315 0
M  V30 3782 C 357.359 3.578 -0.406318 0
M  V30 3783 C 357.212 4.09586 -1.85903 0
M  V30 3784 C 358.531 4.39616 0.206439 0
M  V30 3785 H 355.65 0.728935 -0.108733 0
M  V30 3786 H 358.292 1.65067 -0.940897 0
M  V30 3787 H 356.442 3.88235 0.143419 0
M  V30 3788 H 358.114 3.89837 -2.46627 0
M  V30 3789 H 356.357 3.6284 -2.3776 0
M  V30 3790 H 357.028 5.18708 -1.888 0
M  V30 3791 H 359.504 4.15273 -0.262283 0
M  V30 3792 H 358.38 5.48812 0.0983819 0
M  V30 3793 H 358.641 4.22754 1.2935 0
M  V30 3794 N 357.7 0.491464 1.49741 0
M  V30 3795 C 358.925 -0.0557177 2.07325 0
M  V30 3796 C 359.35 -1.30925 1.35056 0
M  V30 3797 O 358.708 -1.76733 0.404365 0
M  V30 3798 C 358.756 -0.302074 3.59333 0
M  V30 3799 O 357.86 -1.37868 3.88672 0
M  V30 3800 H 357.201 0.0219956 0.663636 0
M  V30 3801 H 359.731 0.688352 1.92673 0
M  V30 3802 H 359.741 -0.536464 4.04458 0
M  V30 3803 H 358.416 0.61383 4.11345 0
M  V30 3804 H 356.993 -1.12999 3.55367 0
M  V30 3805 N 359.178 -1.55987 0.224894 0
M  V30 3806 C 360.108 -2.23426 -0.678457 0
M  V30 3807 C 361.089 -1.20709 -1.19847 0
M  V30 3808 O 362.274 -1.49304 -1.24186 0
M  V30 3809 C 359.404 -2.91676 -1.88527 0
M  V30 3810 C 358.358 -4.00893 -1.49896 0
M  V30 3811 C 357.684 -4.56455 -2.78483 0
M  V30 3812 C 358.984 -5.17769 -0.686461 0
M  V30 3813 H 360.678 -2.99175 -0.116173 0
M  V30 3814 H 358.224 -1.43897 -0.054436 0
M  V30 3815 H 360.177 -3.37547 -2.5227 0
M  V30 3816 H 358.901 -2.1338 -2.47258 0
M  V30 3817 H 357.56 -3.55758 -0.884985 0
M  V30 3818 H 357.208 -3.74886 -3.35365 0
M  V30 3819 H 356.908 -5.30169 -2.53368 0
M  V30 3820 H 358.432 -5.05047 -3.43162 0
M  V30 3821 H 359.846 -5.60001 -1.22767 0
M  V30 3822 H 358.243 -5.97735 -0.532259 0
M  V30 3823 H 359.313 -4.83932 0.306196 0
M  V30 3824 N 360.656 0.0484629 -1.57525 0
M  V30 3825 C 362.067 0.597486 -1.76881 0
M  V30 3826 C 362.418 1.76664 -0.853475 0
M  V30 3827 O 361.543 2.16357 -0.0433656 0
M  V30 3828 C 362.138 1.09066 -3.20765 0
M  V30 3829 C 360.697 1.58535 -3.41385 0
M  V30 3830 C 359.844 0.514868 -2.72478 0
M  V30 3831 H 362.795 -0.177758 -1.57701 0
M  V30 3832 H 362.816 1.95875 -3.2621 0
M  V30 3833 H 362.328 0.239521 -3.8736 0
M  V30 3834 H 360.429 2.45898 -2.79937 0
M  V30 3835 H 360.542 1.64622 -4.49929 0
M  V30 3836 H 358.906 0.965407 -2.35695 0
M  V30 3837 H 359.689 -0.32648 -3.41744 0
M  V30 3838 N 362.134 1.5431 0.320358 0
M  V30 3839 C 363.55 1.45091 0.664889 0
M  V30 3840 C 363.75 0.626382 1.91517 0
M  V30 3841 O 362.806 0.126443 2.52183 0
M  V30 3842 C 364.119 2.88848 0.83591 0
M  V30 3843 C 365.667 2.9877 0.933046 0
M  V30 3844 C 366.142 4.43683 1.13621 0
M  V30 3845 N 367.633 4.47309 1.20287 0
M  V30 3846 C 368.368 5.56595 1.37801 0
M  V30 3847 N 367.864 6.75844 1.52338 0
M  V30 3848 N 369.657 5.44248 1.40535 0
M  V30 3849 H 361.808 2.06398 -0.501374 0
M  V30 3850 H 364.071 0.933963 -0.162534 0
M  V30 3851 H 363.777 3.51698 -0.0116092 0
M  V30 3852 H 363.651 3.35148 1.73078 0
M  V30 3853 H 366.038 2.36045 1.77107 0
M  V30 3854 H 366.119 2.55796 0.0145782 0
M  V30 3855 H 365.763 5.06995 0.303032 0
M  V30 3856 H 365.693 4.84269 2.0686 0
M  V30 3857 H 368.184 3.61388 1.10485 0
M  V30 3858 H 368.497 7.54892 1.65403 0
M  V30 3859 H 366.842 6.78746 1.4943 0
M  V30 3860 H 370.033 4.50038 1.28777 0
M  V30 3861 H 370.206 6.29473 1.53842 0
M  V30 3862 N 363.613 -0.582584 1.46437 0
M  V30 3863 C 364.861 -1.33814 1.51453 0
M  V30 3864 C 365.182 -1.94277 0.167792 0
M  V30 3865 O 364.452 -1.78566 -0.805677 0
M  V30 3866 H 363.032 -0.496838 0.557818 0
M  V30 3867 H 365.694 -0.682281 1.82568 0
M  V30 3868 H 364.79 -2.14479 2.26728 0
M  V30 3869 N 365.091 -1.34144 -0.827227 0
M  V30 3870 C 366.054 -1.25264 -1.91942 0
M  V30 3871 C 367.054 -0.168866 -1.59911 0
M  V30 3872 O 368.244 -0.421198 -1.69031 0
M  V30 3873 C 365.376 -0.932952 -3.27885 0
M  V30 3874 H 366.569 -2.22357 -2.0124 0
M  V30 3875 H 364.122 -1.1837 -1.0207 0
M  V30 3876 H 364.857 0.0349917 -3.24281 0
M  V30 3877 H 364.642 -1.71682 -3.52516 0
M  V30 3878 H 366.132 -0.895874 -4.07877 0
M  V30 3879 N 366.569 1.04691 -1.17803 0
M  V30 3880 C 367.816 1.77782 -0.969532 0
M  V30 3881 C 368.144 1.87926 0.501401 0
M  V30 3882 O 367.399 1.37918 1.38842 0
M  V30 3883 C 367.698 3.21467 -1.56186 0
M  V30 3884 C 367.364 3.3137 -3.05786 0
M  V30 3885 C 366.026 3.3378 -3.46619 0
M  V30 3886 C 368.378 3.31976 -4.01797 0
M  V30 3887 C 365.706 3.34431 -4.82051 0
M  V30 3888 C 368.058 3.34167 -5.37136 0
M  V30 3889 C 366.722 3.34866 -5.77426 0
M  V30 3890 H 365.992 0.650549 -0.354777 0
M  V30 3891 H 368.639 1.23006 -1.46772 0
M  V30 3892 H 366.944 3.79203 -0.985515 0
M  V30 3893 H 368.641 3.76652 -1.37602 0
M  V30 3894 H 365.231 3.3021 -2.73238 0
M  V30 3895 H 369.415 3.29311 -3.71306 0
M  V30 3896 H 364.671 3.33285 -5.12573 0
M  V30 3897 H 368.845 3.33585 -6.11305 0
M  V30 3898 H 366.472 3.35124 -6.82346 0
M  V30 3899 N 368.047 0.979072 1.23499 0
M  V30 3900 C 369.458 0.684391 1.73704 0
M  V30 3901 C 369.809 -0.799448 1.79174 0
M  V30 3902 O 368.934 -1.62531 1.42873 0
M  V30 3903 C 369.529 1.23564 3.15464 0
M  V30 3904 C 368.088 0.99063 3.6313 0
M  V30 3905 C 367.235 1.36416 2.41425 0
M  V30 3906 H 370.186 1.15307 1.09041 0
M  V30 3907 H 370.207 0.607417 3.7562 0
M  V30 3908 H 369.719 2.31561 3.1145 0
M  V30 3909 H 367.82 -0.0733136 3.72528 0
M  V30 3910 H 367.933 1.64427 4.5 0
M  V30 3911 H 366.297 0.782616 2.42378 0
M  V30 3912 H 367.08 2.45387 2.40083 0
M  V30 3913 N 369.525 -1.3858 0.750561 0
M  V30 3914 C 370.936 -1.82927 0.373438 0
M  V30 3915 C 371.287 -1.62634 -1.09748 0
M  V30 3916 O 370.412 -1.12588 -1.84805 0
M  V30 3917 C 371.007 -3.32088 0.671029 0
M  V30 3918 C 369.566 -3.74795 0.34722 0
M  V30 3919 C 368.713 -2.61391 0.92575 0
M  V30 3920 H 371.664 -1.27351 0.946958 0
M  V30 3921 H 371.685 -3.80465 -0.0518269 0
M  V30 3922 H 371.197 -3.46826 1.74164 0
M  V30 3923 H 369.298 -3.65638 -0.716933 0
M  V30 3924 H 369.411 -4.71667 0.840656 0
M  V30 3925 H 367.775 -2.52265 0.351327 0
M  V30 3926 H 368.558 -2.78929 2.00133 0
M  V30 3927 N 371.003 -0.499398 -1.49478 0
M  V30 3928 C 372.419 -0.155261 -1.58843 0
M  V30 3929 C 372.619 1.34008 -1.50479 0
M  V30 3930 O 371.675 2.11589 -1.37791 0
M  V30 3931 C 372.988 -0.730636 -2.91689 0
M  V30 3932 C 374.536 -0.696599 -3.0515 0
M  V30 3933 C 375.011 -1.25001 -4.40612 0
M  V30 3934 N 376.502 -1.21064 -4.47099 0
M  V30 3935 C 377.237 -1.60905 -5.50361 0
M  V30 3936 N 376.733 -2.08331 -6.60735 0
M  V30 3937 N 378.526 -1.52331 -5.41065 0
M  V30 3938 H 370.677 -1.47162 -1.53158 0
M  V30 3939 H 372.94 -0.610309 -0.725415 0
M  V30 3940 H 372.646 -1.77928 -3.03372 0
M  V30 3941 H 372.52 -0.190161 -3.7672 0
M  V30 3942 H 374.907 0.343204 -2.93097 0
M  V30 3943 H 374.988 -1.2742 -2.21806 0
M  V30 3944 H 374.632 -2.28859 -4.53416 0
M  V30 3945 H 374.562 -0.64836 -5.22593 0
M  V30 3946 H 377.053 -0.863128 -3.67911 0
M  V30 3947 H 377.366 -2.36805 -7.35624 0
M  V30 3948 H 375.711 -2.12304 -6.6178 0
M  V30 3949 H 378.902 -1.151 -4.53729 0
M  V30 3950 H 379.075 -1.83704 -6.21415 0
M  V30 3951 N 372.481 1.55866 -0.233164 0
M  V30 3952 C 373.729 1.9821 0.394593 0
M  V30 3953 C 374.05 1.12234 1.59463 0
M  V30 3954 O 373.32 0.201981 1.94856 0
M  V30 3955 H 371.9 0.732034 0.148778 0
M  V30 3956 H 374.562 1.92107 -0.32876 0
M  V30 3957 H 373.658 3.03845 0.713063 0
M  V30 3958 N 373.959 -0.0401083 1.57549 0
M  V30 3959 C 375.37 -0.588097 1.77196 0
M  V30 3960 C 375.721 -1.76209 0.862832 0
M  V30 3961 O 374.846 -2.16331 0.0548389 0
M  V30 3962 C 375.441 -1.07363 3.21339 0
M  V30 3963 C 374 -1.56723 3.42221 0
M  V30 3964 C 373.147 -0.50041 2.72747 0
M  V30 3965 H 376.098 0.186119 1.57605 0
M  V30 3966 H 376.119 -1.94143 3.27244 0
M  V30 3967 H 375.631 -0.218975 3.87482 0
M  V30 3968 H 373.732 -2.4441 2.81237 0
M  V30 3969 H 373.845 -1.62234 4.50796 0
M  V30 3970 H 372.209 -0.952894 2.36203 0
M  V30 3971 H 372.992 0.344599 3.41566 0
M  V30 3972 N 375.437 -1.54477 -0.31217 0
M  V30 3973 C 376.853 -1.45442 -0.657185 0
M  V30 3974 C 377.053 -0.63653 -1.91182 0
M  V30 3975 O 376.109 -0.139815 -2.52113 0
M  V30 3976 C 377.422 -2.89287 -0.82058 0
M  V30 3977 C 378.97 -2.9926 -0.917188 0
M  V30 3978 C 379.445 -4.44279 -1.11267 0
M  V30 3979 N 380.936 -4.4794 -1.17914 0
M  V30 3980 C 381.671 -5.57318 -1.34848 0
M  V30 3981 N 381.167 -6.76642 -1.48752 0
M  V30 3982 N 382.96 -5.44986 -1.37647 0
M  V30 3983 H 375.111 -2.06129 0.512313 0
M  V30 3984 H 377.374 -0.933088 0.167485 0
M  V30 3985 H 377.08 -3.51687 0.0302604 0
M  V30 3986 H 376.954 -3.36061 -1.71298 0
M  V30 3987 H 379.341 -2.36981 -1.75852 0
M  V30 3988 H 379.422 -2.558 -0.00101257 0
M  V30 3989 H 379.066 -5.07149 -0.27614 0
M  V30 3990 H 378.996 -4.85359 -2.04289 0
M  V30 3991 H 381.487 -3.61969 -1.08567 0
M  V30 3992 H 381.8 -7.55758 -1.61397 0
M  V30 3993 H 380.145 -6.79529 -1.45828 0
M  V30 3994 H 383.336 -4.50715 -1.26388 0
M  V30 3995 H 383.509 -6.3028 -1.50501 0
M  V30 3996 N 376.915 0.57481 -1.46744 0
M  V30 3997 C 378.326 1.15695 -1.46532 0
M  V30 3998 C 378.677 1.95068 -0.210425 0
M  V30 3999 O 377.802 2.05241 0.685944 0
M  V30 4000 C 378.397 2.1048 -2.65487 0
M  V30 4001 C 376.956 2.64002 -2.68291 0
M  V30 4002 C 376.103 1.40026 -2.39349 0
M  V30 4003 H 379.054 0.362325 -1.54509 0
M  V30 4004 H 379.075 2.94074 -2.41455 0
M  V30 4005 H 378.587 1.52683 -3.56805 0
M  V30 4006 H 376.688 3.25646 -1.81067 0
M  V30 4007 H 376.801 3.06197 -3.68483 0
M  V30 4008 H 375.165 1.70106 -1.89568 0
M  V30 4009 H 375.948 0.840485 -3.32852 0
M  V30 4010 N 378.394 1.34581 0.820102 0
M  V30 4011 C 379.64 1.27285 1.57881 0
M  V30 4012 C 379.973 -0.156137 1.93571 0
M  V30 4013 O 379.248 -1.10222 1.60254 0
M  V30 4014 C 379.531 2.16639 2.87645 0
M  V30 4015 C 379.384 3.68088 2.58517 0
M  V30 4016 C 380.703 2.05378 3.8924 0
M  V30 4017 H 377.822 0.463714 0.572833 0
M  V30 4018 H 380.464 1.64859 0.944539 0
M  V30 4019 H 378.614 1.84725 3.41773 0
M  V30 4020 H 380.286 4.10382 2.10676 0
M  V30 4021 H 378.529 3.89038 1.91917 0
M  V30 4022 H 379.2 4.2598 3.51063 0
M  V30 4023 H 381.676 2.33404 3.44473 0
M  V30 4024 H 380.552 2.7012 4.77835 0
M  V30 4025 H 380.813 1.0316 4.29896 0
M  V30 4026 N 379.872 -1.04064 1.18357 0
M  V30 4027 C 380.804 -2.12114 0.868358 0
M  V30 4028 C 381.817 -1.62247 -0.134045 0
M  V30 4029 O 383.006 -1.78253 0.0937933 0
M  V30 4030 C 380.106 -3.37773 0.276132 0
M  V30 4031 C 379.279 -4.16874 1.3242 0
M  V30 4032 C 378.338 -5.20861 0.747662 0
M  V30 4033 O 377.364 -5.51141 1.42239 0
M  V30 4034 N 378.566 -5.78715 -0.454823 0
M  V30 4035 H 381.331 -2.39748 1.79836 0
M  V30 4036 H 378.892 -1.20258 1.08396 0
M  V30 4037 H 380.884 -4.04513 -0.123133 0
M  V30 4038 H 379.454 -3.07581 -0.557895 0
M  V30 4039 H 378.674 -3.45456 1.89878 0
M  V30 4040 H 379.962 -4.66516 2.03078 0
M  V30 4041 H 379.36 -5.56415 -1.02073 0
M  V30 4042 H 377.917 -6.46921 -0.79601 0
M  V30 4043 N 381.35 -0.985608 -1.22978 0
M  V30 4044 C 382.575 -0.675254 -1.961 0
M  V30 4045 C 383 0.752154 -1.72407 0
M  V30 4046 O 382.358 1.5131 -0.998751 0
M  V30 4047 C 382.406 -0.977899 -3.47087 0
M  V30 4048 O 381.51 -0.072685 -4.12336 0
M  V30 4049 H 380.851 -0.253443 -0.613728 0
M  V30 4050 H 383.381 -1.32061 -1.56272 0
M  V30 4051 H 383.391 -0.916739 -3.97567 0
M  V30 4052 H 382.066 -2.01807 -3.63657 0
M  V30 4053 H 380.643 -0.188703 -3.72422 0
M  V30 4054 N 382.828 1.3818 -0.7579 0
M  V30 4055 C 384.074 2.00316 -0.316453 0
M  V30 4056 C 384.407 1.60026 1.10025 0
M  V30 4057 O 383.682 0.839835 1.75434 0
M  V30 4058 C 383.965 3.57349 -0.444245 0
M  V30 4059 C 383.818 4.07591 -1.90236 0
M  V30 4060 C 385.137 4.3981 0.1598 0
M  V30 4061 H 382.256 0.727741 -0.116459 0
M  V30 4062 H 384.898 1.6406 -0.958352 0
M  V30 4063 H 383.048 3.88365 0.102233 0
M  V30 4064 H 384.72 3.87199 -2.50748 0
M  V30 4065 H 382.963 3.60297 -2.41595 0
M  V30 4066 H 383.634 5.16677 -1.94291 0
M  V30 4067 H 386.11 4.14971 -0.306314 0
M  V30 4068 H 384.986 5.48885 0.0401675 0
M  V30 4069 H 385.247 4.24102 1.24859 0
M  V30 4070 N 384.306 0.507319 1.49211 0
M  V30 4071 C 385.552 -0.0350047 2.0277 0
M  V30 4072 C 385.885 -1.3606 1.38569 0
M  V30 4073 O 385.16 -1.87321 0.523542 0
M  V30 4074 C 385.443 -0.180916 3.59645 0
M  V30 4075 C 385.296 1.16825 4.34364 0
M  V30 4076 C 386.615 -0.918558 4.30407 0
M  V30 4077 H 383.734 -0.0112473 0.736914 0
M  V30 4078 H 386.376 0.659956 1.7817 0
M  V30 4079 H 384.526 -0.772826 3.80736 0
M  V30 4080 H 386.198 1.79952 4.24753 0
M  V30 4081 H 384.441 1.75594 3.96673 0
M  V30 4082 H 385.112 1.01939 5.42506 0
M  V30 4083 H 387.588 -0.41649 4.1401 0
M  V30 4084 H 386.464 -0.989505 5.39907 0
M  V30 4085 H 386.725 -1.96373 3.96093 0
M  V30 4086 N 385.784 -1.5574 0.241426 0
M  V30 4087 C 387.195 -1.84842 -0.262755 0
M  V30 4088 C 387.546 -1.16317 -1.58003 0
M  V30 4089 O 386.671 -0.439653 -2.11887 0
M  V30 4090 C 387.266 -3.35332 -0.483523 0
M  V30 4091 C 385.825 -3.6468 -0.931977 0
M  V30 4092 C 384.972 -2.77299 -0.0061151 0
M  V30 4093 H 387.923 -1.51761 0.464129 0
M  V30 4094 H 387.944 -3.56615 -1.32688 0
M  V30 4095 H 387.456 -3.85178 0.47537 0
M  V30 4096 H 385.557 -3.20307 -1.90353 0
M  V30 4097 H 385.67 -4.72498 -0.792628 0
M  V30 4098 H 384.034 -2.49408 -0.516503 0
M  V30 4099 H 384.817 -3.2995 0.948052 0
M  V30 4100 N 387.262 0.0317525 -1.57568 0
M  V30 4101 C 388.172 1.05021 -2.0978 0
M  V30 4102 C 389.188 1.39809 -1.03583 0
M  V30 4103 O 390.364 1.49182 -1.35302 0
M  V30 4104 C 387.429 2.33301 -2.56459 0
M  V30 4105 C 386.49 2.0512 -3.77127 0
M  V30 4106 C 385.723 3.27283 -4.2157 0
M  V30 4107 O 385.946 4.37861 -3.65559 0
M  V30 4108 O 384.88 3.13141 -5.14029 0
M  V30 4109 H 388.706 0.636505 -2.96955 0
M  V30 4110 H 386.291 0.248559 -1.47318 0
M  V30 4111 H 388.173 3.08722 -2.86825 0
M  V30 4112 H 386.848 2.73973 -1.72397 0
M  V30 4113 H 385.755 1.27276 -3.51784 0
M  V30 4114 H 387.088 1.69305 -4.62165 0
M  V30 4115 N 388.74 1.54641 0.303973 0
M  V30 4116 C 389.673 1.80263 1.3993 0
M  V30 4117 C 390.651 0.653657 1.48883 0
M  V30 4118 O 391.835 0.893284 1.6599 0
M  V30 4119 C 388.962 1.9367 2.77866 0
M  V30 4120 C 388.008 3.16078 2.86351 0
M  V30 4121 S 388.841 4.74219 2.4875 0
M  V30 4122 C 389.997 4.90558 3.88721 0
M  V30 4123 H 390.23 2.72886 1.17986 0
M  V30 4124 H 387.763 1.46014 0.501918 0
M  V30 4125 H 389.721 2.0208 3.57315 0
M  V30 4126 H 388.382 1.01991 2.9708 0
M  V30 4127 H 387.575 3.22252 3.87517 0
M  V30 4128 H 387.177 3.06099 2.14893 0
M  V30 4129 H 389.469 4.74398 4.83687 0
M  V30 4130 H 390.412 5.92651 3.87518 0
M  V30 4131 H 390.82 4.18728 3.78585 0
M  V30 4132 N 390.218 -0.567019 1.47046 0
M  V30 4133 C 391.128 -1.70247 1.6141 0
M  V30 4134 C 392.144 -1.66746 0.497157 0
M  V30 4135 O 393.32 -1.86371 0.763389 0
M  V30 4136 C 390.385 -3.06756 1.61561 0
M  V30 4137 C 389.446 -3.21399 2.84607 0
M  V30 4138 C 388.679 -4.51396 2.84741 0
M  V30 4139 O 388.902 -5.36255 1.94388 0
M  V30 4140 O 387.836 -4.69621 3.76483 0
M  V30 4141 H 391.662 -1.61073 2.57467 0
M  V30 4142 H 389.247 -0.735894 1.30019 0
M  V30 4143 H 391.129 -3.8801 1.64396 0
M  V30 4144 H 389.804 -3.16333 0.686684 0
M  V30 4145 H 388.711 -2.39579 2.8732 0
M  V30 4146 H 390.044 -3.16721 3.76761 0
M  V30 4147 N 391.696 -1.35014 -0.812953 0
M  V30 4148 C 392.606 -1.2951 -1.95613 0
M  V30 4149 C 393.622 -0.20107 -1.72834 0
M  V30 4150 O 394.798 -0.42932 -1.96771 0
M  V30 4151 C 391.863 -1.06033 -3.30088 0
M  V30 4152 C 390.924 -2.24688 -3.65805 0
M  V30 4153 C 390.157 -2.02322 -4.93864 0
M  V30 4154 O 390.38 -0.986464 -5.61805 0
M  V30 4155 O 389.314 -2.89525 -5.27692 0
M  V30 4156 H 393.14 -2.25705 -2.03202 0
M  V30 4157 H 390.725 -1.15321 -0.949811 0
M  V30 4158 H 392.607 -0.94763 -4.10607 0
M  V30 4159 H 391.282 -0.128852 -3.23443 0
M  V30 4160 H 390.189 -2.41521 -2.85689 0
M  V30 4161 H 391.522 -3.16261 -3.77147 0
M  V30 4162 N 393.175 1.03435 -1.18907 0
M  V30 4163 C 394.4 1.80919 -1.01406 0
M  V30 4164 C 394.825 1.83055 0.432721 0
M  V30 4165 O 394.183 1.25252 1.31079 0
M  V30 4166 C 394.231 3.24091 -1.58105 0
M  V30 4167 O 393.335 4.04434 -0.806669 0
M  V30 4168 H 392.676 0.558709 -0.358803 0
M  V30 4169 H 395.206 1.30223 -1.57807 0
M  V30 4170 H 395.216 3.74853 -1.61087 0
M  V30 4171 H 393.891 3.21851 -2.6341 0
M  V30 4172 H 392.468 3.63091 -0.849666 0
M  V30 4173 N 394.653 0.992116 1.22453 0
M  V30 4174 C 395.901 0.666215 1.90804 0
M  V30 4175 C 396.222 -0.804152 1.77647 0
M  V30 4176 O 395.492 -1.57629 1.16318 0
M  V30 4177 H 394.072 0.243423 0.706225 0
M  V30 4178 H 396.734 1.25845 1.48825 0
M  V30 4179 H 395.83 0.928069 2.97982 0
M  V30 4180 N 396.131 -1.37776 0.765217 0
M  V30 4181 C 397.094 -2.28686 0.153416 0
M  V30 4182 C 398.094 -1.47727 -0.635081 0
M  V30 4183 O 399.284 -1.68027 -0.459632 0
M  V30 4184 C 396.416 -3.31608 -0.790495 0
M  V30 4185 H 397.609 -2.84297 0.954723 0
M  V30 4186 H 395.162 -1.46932 0.53299 0
M  V30 4187 H 395.897 -2.81109 -1.61705 0
M  V30 4188 H 395.682 -3.9144 -0.227348 0
M  V30 4189 H 397.172 -3.99559 -1.21419 0
M  V30 4190 N 397.609 -0.515225 -1.4894 0
M  V30 4191 C 398.541 0.292481 -2.27326 0
M  V30 4192 C 399.554 0.917838 -1.3446 0
M  V30 4193 O 400.743 0.798772 -1.5963 0
M  V30 4194 C 397.843 1.42803 -3.07344 0
M  V30 4195 C 397.016 0.907347 -4.27885 0
M  V30 4196 C 396.075 1.92222 -4.89834 0
M  V30 4197 O 395.101 1.48506 -5.49486 0
M  V30 4198 N 396.303 3.25355 -4.80754 0
M  V30 4199 H 399.068 -0.379721 -2.97285 0
M  V30 4200 H 396.629 -0.348638 -1.58102 0
M  V30 4201 H 398.621 2.10481 -3.45658 0
M  V30 4202 H 397.191 2.00414 -2.39902 0
M  V30 4203 H 396.411 0.0550218 -3.94162 0
M  V30 4204 H 397.699 0.538108 -5.05946 0
M  V30 4205 H 397.097 3.6355 -4.33414 0
M  V30 4206 H 395.654 3.88707 -5.23211 0
M  V30 4207 N 399.087 1.5561 -0.249682 0
M  V30 4208 C 400.017 2.24477 0.642826 0
M  V30 4209 C 400.998 1.22601 1.17911 0
M  V30 4210 O 402.183 1.5126 1.21795 0
M  V30 4211 C 399.313 2.94638 1.83863 0
M  V30 4212 C 398.267 4.03227 1.435 0
M  V30 4213 C 397.593 4.60828 2.71186 0
M  V30 4214 C 398.893 5.18796 0.604002 0
M  V30 4215 H 400.587 2.99321 0.0685625 0
M  V30 4216 H 398.133 1.43965 0.0315363 0
M  V30 4217 H 400.086 3.41517 2.46868 0
M  V30 4218 H 398.81 2.17287 2.43832 0
M  V30 4219 H 397.469 3.57121 0.828275 0
M  V30 4220 H 397.117 3.80174 3.29358 0
M  V30 4221 H 396.817 5.34132 2.44901 0
M  V30 4222 H 398.341 5.10442 3.35084 0
M  V30 4223 H 399.755 5.61883 1.13842 0
M  V30 4224 H 398.152 5.98506 0.437097 0
M  V30 4225 H 399.222 4.83384 -0.383147 0
M  V30 4226 N 400.565 -0.0233959 1.57583 0
M  V30 4227 C 401.495 -1.02162 2.09965 0
M  V30 4228 C 402.476 -1.3735 1.00344 0
M  V30 4229 O 403.661 -1.46135 1.27899 0
M  V30 4230 C 400.791 -2.32081 2.58371 0
M  V30 4231 C 399.745 -2.1112 3.72307 0
M  V30 4232 C 399.071 -3.46848 4.06941 0
M  V30 4233 C 400.371 -1.49276 5.00514 0
M  V30 4234 H 402.065 -0.585557 2.93618 0
M  V30 4235 H 399.611 -0.280218 1.41247 0
M  V30 4236 H 401.564 -3.02249 2.93639 0
M  V30 4237 H 400.288 -2.77758 1.71808 0
M  V30 4238 H 398.947 -1.43384 3.37397 0
M  V30 4239 H 398.595 -3.90184 3.17436 0
M  V30 4240 H 398.295 -3.33646 4.83688 0
M  V30 4241 H 399.819 -4.18369 4.44747 0
M  V30 4242 H 401.233 -2.09368 5.33702 0
M  V30 4243 H 399.63 -1.46632 5.8191 0
M  V30 4244 H 400.7 -0.459217 4.82721 0
M  V30 4245 N 402.043 -1.548 -0.295768 0
M  V30 4246 C 402.973 -1.89115 -1.36959 0
M  V30 4247 C 403.954 -0.75059 -1.52644 0
M  V30 4248 O 405.139 -1.00678 -1.66065 0
M  V30 4249 C 402.269 -2.14307 -2.73295 0
M  V30 4250 C 401.223 -3.30151 -2.72368 0
M  V30 4251 C 400.549 -3.40772 -4.12042 0
M  V30 4252 C 401.849 -4.67126 -2.33646 0
M  V30 4253 H 403.543 -2.79053 -1.08488 0
M  V30 4254 H 401.089 -1.34266 -0.520443 0
M  V30 4255 H 403.042 -2.36898 -3.48507 0
M  V30 4256 H 401.766 -1.21145 -3.03301 0
M  V30 4257 H 400.425 -3.0749 -1.99613 0
M  V30 4258 H 400.073 -2.45117 -4.39234 0
M  V30 4259 H 399.773 -4.18645 -4.12322 0
M  V30 4260 H 401.297 -3.6563 -4.89027 0
M  V30 4261 H 402.711 -4.89414 -2.98575 0
M  V30 4262 H 401.108 -5.47751 -2.45129 0
M  V30 4263 H 402.178 -4.67489 -1.28772 0
M  V30 4264 N 403.521 0.559213 -1.47345 0
M  V30 4265 C 404.431 1.69388 -1.62311 0
M  V30 4266 C 405.447 1.6648 -0.505993 0
M  V30 4267 O 406.623 1.85964 -0.773262 0
M  V30 4268 C 403.688 3.05894 -1.63185 0
M  V30 4269 C 402.749 3.19885 -2.86307 0
M  V30 4270 C 401.982 4.49879 -2.87131 0
M  V30 4271 O 402.205 5.35217 -1.97229 0
M  V30 4272 O 401.139 4.67618 -3.78968 0
M  V30 4273 H 404.965 1.59706 -2.58317 0
M  V30 4274 H 402.55 0.728989 -1.30407 0
M  V30 4275 H 404.432 3.87133 -1.66451 0
M  V30 4276 H 403.107 3.15964 -0.70345 0
M  V30 4277 H 402.014 2.38052 -2.88587 0
M  V30 4278 H 403.347 3.14718 -3.78435 0
M  V30 4279 N 404.999 1.35443 0.805782 0
M  V30 4280 C 405.932 1.22783 1.92353 0
M  V30 4281 C 406.91 0.115543 1.62189 0
M  V30 4282 O 408.094 0.283778 1.86352 0
M  V30 4283 C 405.221 0.890746 3.26777 0
M  V30 4284 C 404.267 2.01519 3.75889 0
M  V30 4285 S 405.1 3.63101 3.93596 0
M  V30 4286 C 406.256 3.31472 5.30921 0
M  V30 4287 H 406.489 2.17394 2.02798 0
M  V30 4288 H 404.022 1.20669 0.963245 0
M  V30 4289 H 405.98 0.703068 4.04434 0
M  V30 4290 H 404.641 -0.0373152 3.14078 0
M  V30 4291 H 403.834 1.7335 4.7325 0
M  V30 4292 H 403.436 2.16124 3.05231 0
M  V30 4293 H 405.728 2.8435 6.1494 0
M  V30 4294 H 406.671 4.28036 5.64084 0
M  V30 4295 H 407.079 2.67221 4.97246 0
M  V30 4296 N 406.477 -1.02803 1.19454 0
M  V30 4297 C 407.407 -2.12999 0.956758 0
M  V30 4298 C 408.388 -1.69743 -0.110188 0
M  V30 4299 O 409.573 -1.94148 0.0450038 0
M  V30 4300 C 406.703 -3.43746 0.495553 0
M  V30 4301 C 405.657 -4.00688 1.50443 0
M  V30 4302 C 404.983 -5.27067 0.900275 0
M  V30 4303 C 406.283 -4.35397 2.8849 0
M  V30 4304 H 407.977 -2.33148 1.87836 0
M  V30 4305 H 405.523 -1.12045 0.904539 0
M  V30 4306 H 407.476 -4.2021 0.316493 0
M  V30 4307 H 406.2 -3.23321 -0.461646 0
M  V30 4308 H 404.859 -3.2632 1.67065 0
M  V30 4309 H 404.507 -5.02959 -0.064503 0
M  V30 4310 H 404.207 -5.66127 1.57397 0
M  V30 4311 H 405.731 -6.06196 0.73203 0
M  V30 4312 H 407.145 -5.02795 2.75446 0
M  V30 4313 H 405.542 -4.85541 3.52661 0
M  V30 4314 H 406.612 -3.44662 3.41081 0
M  V30 4315 N 407.956 -0.998596 -1.21925 0
M  V30 4316 C 409.184 -0.696286 -1.94832 0
M  V30 4317 C 409.599 0.740032 -1.73692 0
M  V30 4318 O 408.956 1.5 -1.03953 0
M  V30 4319 C 409.007 -0.999833 -3.47398 0
M  V30 4320 O 408.728 -2.37972 -3.67833 0
M  V30 4321 C 410.229 -0.716025 -4.37479 0
M  V30 4322 H 407.449 -0.257111 -0.619786 0
M  V30 4323 H 409.993 -1.33491 -1.54921 0
M  V30 4324 H 408.148 -0.406918 -3.85257 0
M  V30 4325 H 408.562 -2.48338 -4.61983 0
M  V30 4326 H 410.036 -0.978642 -5.43256 0
M  V30 4327 H 410.513 0.349968 -4.37803 0
M  V30 4328 H 411.119 -1.29025 -4.05256 0
M  V30 4329 N 409.434 1.37368 -0.772513 0
M  V30 4330 C 410.681 1.99673 -0.337182 0
M  V30 4331 C 411.009 1.61324 1.0865 0
M  V30 4332 O 410.264 0.851377 1.7621 0
M  V30 4333 C 410.563 3.54817 -0.428876 0
M  V30 4334 C 410.229 4.12936 -1.81092 0
M  V30 4335 C 408.891 4.28523 -2.1891 0
M  V30 4336 C 411.243 4.44801 -2.71664 0
M  V30 4337 C 408.571 4.73277 -3.46735 0
M  V30 4338 C 410.923 4.90981 -3.98899 0
M  V30 4339 C 409.587 5.04773 -4.36761 0
M  V30 4340 H 408.857 0.730656 -0.123384 0
M  V30 4341 H 411.504 1.64124 -0.986686 0
M  V30 4342 H 409.809 3.90618 0.304167 0
M  V30 4343 H 411.506 4.00933 -0.0733334 0
M  V30 4344 H 408.096 4.01233 -1.50699 0
M  V30 4345 H 412.28 4.32344 -2.43706 0
M  V30 4346 H 407.536 4.82142 -3.75964 0
M  V30 4347 H 411.71 5.14603 -4.69208 0
M  V30 4348 H 409.337 5.39211 -5.35868 0
M  V30 4349 N 410.912 0.523116 1.48665 0
M  V30 4350 C 411.86 -0.256859 2.31177 0
M  V30 4351 C 412.854 -0.94199 1.40794 0
M  V30 4352 O 414.06 -0.867157 1.57735 0
M  V30 4353 H 410.435 -0.1017 0.745091 0
M  V30 4354 H 412.406 0.458739 2.94853 0
M  V30 4355 C 411.155 -1.29503 3.22683 0
M  V30 4356 H 410.478 -0.777248 3.92172 0
M  V30 4357 H 411.918 -1.81233 3.83315 0
M  V30 4358 C 410.377 -2.32501 2.43813 0
M  V30 4359 O 410.907 -3.3881 2.15803 0
M  V30 4360 N 409.113 -2.05538 2.05432 0
M  V30 4361 H 408.66 -1.19104 2.28412 0
M  V30 4362 H 408.618 -2.74676 1.52973 0
M  V30 4363 N 412.39 -1.55475 0.257931 0
M  V30 4364 C 413.801 -1.8511 -0.243135 0
M  V30 4365 C 414.152 -1.17986 -1.5676 0
M  V30 4366 O 413.277 -0.462102 -2.11409 0
M  V30 4367 C 413.872 -3.35826 -0.447929 0
M  V30 4368 C 412.431 -3.65647 -0.893245 0
M  V30 4369 C 411.578 -2.7729 0.0232965 0
M  V30 4370 H 414.529 -1.51261 0.480199 0
M  V30 4371 H 414.55 -3.58002 -1.28898 0
M  V30 4372 H 414.062 -3.84652 0.516196 0
M  V30 4373 H 412.163 -3.22308 -1.86945 0
M  V30 4374 H 412.276 -4.73312 -0.742469 0
M  V30 4375 H 410.64 -2.49942 -0.490021 0
M  V30 4376 H 411.423 -3.28926 0.982994 0
M  V30 4377 N 413.868 0.0150385 -1.57593 0
M  V30 4378 C 414.818 1.01943 -2.0394 0
M  V30 4379 C 415.802 1.31209 -0.931286 0
M  V30 4380 O 416.994 1.30559 -1.19513 0
M  V30 4381 C 414.123 2.31621 -2.53391 0
M  V30 4382 C 413.209 2.05384 -3.7105 0
M  V30 4383 N 413.6 1.49253 -4.83278 0
M  V30 4384 C 411.898 2.35601 -3.78693 0
M  V30 4385 C 412.599 1.39143 -5.64813 0
M  V30 4386 N 411.575 1.87187 -5.10355 0
M  V30 4387 H 415.377 0.57969 -2.88126 0
M  V30 4388 H 412.891 0.221056 -1.60888 0
M  V30 4389 H 414.888 3.044 -2.84862 0
M  V30 4390 H 413.548 2.76261 -1.70616 0
M  V30 4391 H 414.559 1.17334 -5.04433 0
M  V30 4392 H 411.236 2.8322 -3.06746 0
M  V30 4393 H 412.626 0.961153 -6.6499 0
M  V30 4394 N 415.346 1.54954 0.287554 0
M  V30 4395 C 416.293 1.86834 1.35505 0
M  V30 4396 C 417.263 0.718452 1.49758 0
M  V30 4397 O 418.448 0.968358 1.644 0
M  V30 4398 C 415.588 2.13303 2.71286 0
M  V30 4399 C 414.701 3.40883 2.65373 0
M  V30 4400 C 413.836 3.57125 3.93236 0
M  V30 4401 C 412.875 4.78449 3.81776 0
M  V30 4402 N 412.012 4.91426 5.01443 0
M  V30 4403 H 416.852 2.77889 1.07619 0
M  V30 4404 H 414.389 1.37593 0.520241 0
M  V30 4405 H 416.347 2.26646 3.50267 0
M  V30 4406 H 414.977 1.25499 2.97405 0
M  V30 4407 H 414.029 3.36088 1.78182 0
M  V30 4408 H 415.341 4.29993 2.52799 0
M  V30 4409 H 414.495 3.70207 4.80658 0
M  V30 4410 H 413.234 2.66173 4.0866 0
M  V30 4411 H 412.239 4.65386 2.92738 0
M  V30 4412 H 413.464 5.70822 3.67884 0
M  V30 4413 H 411.41 4.03401 5.17304 0
M  V30 4414 H 411.327 5.74559 4.91343 0
M  V30 4415 H 412.595 5.08879 5.90477 0
M  V30 4416 N 416.824 -0.551391 1.4764 0
M  V30 4417 C 418.24 -0.877887 1.33287 0
M  V30 4418 C 418.44 -1.98817 0.327721 0
M  V30 4419 O 417.496 -2.51171 -0.258695 0
M  V30 4420 C 418.809 -1.26563 2.72768 0
M  V30 4421 C 420.357 -1.37673 2.81097 0
M  V30 4422 C 420.832 -1.79799 4.21232 0
M  V30 4423 N 422.323 -1.8694 4.23802 0
M  V30 4424 C 423.058 -2.20876 5.29151 0
M  V30 4425 N 422.554 -2.53386 6.448 0
M  V30 4426 N 424.347 -2.217 5.16532 0
M  V30 4427 H 416.498 0.18153 2.11623 0
M  V30 4428 H 418.761 0.0185514 0.947818 0
M  V30 4429 H 418.467 -0.523591 3.47781 0
M  V30 4430 H 418.341 -2.22052 3.04915 0
M  V30 4431 H 420.728 -2.10956 2.06353 0
M  V30 4432 H 420.809 -0.40357 2.52596 0
M  V30 4433 H 420.453 -1.07083 4.96483 0
M  V30 4434 H 420.383 -2.78128 4.4716 0
M  V30 4435 H 422.874 -1.64179 3.40373 0
M  V30 4436 H 423.187 -2.78325 7.20941 0
M  V30 4437 H 421.532 -2.50953 6.48111 0
M  V30 4438 H 424.723 -1.95745 4.25207 0
M  V30 4439 H 424.896 -2.47818 5.98741 0
M  V30 4440 N 418.302 -1.35869 -0.798587 0
M  V30 4441 C 419.551 -1.28921 -1.5512 0
M  V30 4442 C 419.864 0.13208 -1.95154 0
M  V30 4443 O 421.07 0.323879 -2.69561 0
M  V30 4444 C 419.526 -2.26141 -2.79979 0
M  V30 4445 C 419.134 -3.73658 -2.47151 0
M  V30 4446 C 420.878 -2.28152 -3.57976 0
M  V30 4447 C 418.785 -4.62679 -3.6835 0
M  V30 4448 H 417.715 -0.479031 -0.582276 0
M  V30 4449 H 420.366 -1.61179 -0.877125 0
M  V30 4450 H 418.748 -1.86865 -3.49138 0
M  V30 4451 H 419.922 -4.21616 -1.85947 0
M  V30 4452 H 418.237 -3.74333 -1.82383 0
M  V30 4453 H 420.834 -2.91875 -4.4801 0
M  V30 4454 H 421.177 -1.28748 -3.95891 0
M  V30 4455 H 421.71 -2.65998 -2.95787 0
M  V30 4456 H 418.449 -5.63111 -3.35538 0
M  V30 4457 H 417.969 -4.19442 -4.28752 0
M  V30 4458 H 419.648 -4.78498 -4.35487 0
M  V30 4459 N 419.78 1.02168 -1.19998 0
M  V30 4460 C 421.005 1.79833 -1.03319 0
M  V30 4461 C 421.43 1.83504 0.413281 0
M  V30 4462 O 420.788 1.26635 1.29743 0
M  V30 4463 C 420.836 3.22396 -1.61533 0
M  V30 4464 O 419.94 4.03555 -0.849519 0
M  V30 4465 H 419.281 0.554872 -0.364709 0
M  V30 4466 H 421.811 1.28542 -1.59179 0
M  V30 4467 H 421.821 3.73124 -1.65054 0
M  V30 4468 H 420.496 3.19039 -2.66809 0
M  V30 4469 H 419.073 3.62169 -0.888129 0
M  V30 4470 N 421.258 1.00505 1.21394 0
M  V30 4471 C 422.221 0.570459 2.21987 0
M  V30 4472 C 423.221 -0.353211 1.56873 0
M  V30 4473 O 424.411 -0.14349 1.73608 0
M  V30 4474 C 421.543 -0.168555 3.40483 0
M  V30 4475 H 422.736 1.46021 2.6195 0
M  V30 4476 H 420.289 0.793565 1.34656 0
M  V30 4477 H 421.024 -1.07374 3.06009 0
M  V30 4478 H 420.809 0.494823 3.88965 0
M  V30 4479 H 422.299 -0.460362 4.15055 0
M  V30 4480 N 422.737 -1.36956 0.779787 0
M  V30 4481 C 423.984 -1.99491 0.347766 0
M  V30 4482 C 424.312 -1.61898 -1.07793 0
M  V30 4483 O 423.567 -0.86071 -1.75756 0
M  V30 4484 C 423.866 -3.54585 0.447686 0
M  V30 4485 C 423.532 -4.1197 1.83279 0
M  V30 4486 C 422.194 -4.27356 2.2118 0
M  V30 4487 C 424.546 -4.43354 2.74019 0
M  V30 4488 C 421.874 -4.71432 3.4924 0
M  V30 4489 C 424.226 -4.88858 4.01497 0
M  V30 4490 C 422.89 -5.0245 4.39432 0
M  V30 4491 H 422.16 -0.729991 0.127257 0
M  V30 4492 H 424.807 -1.63599 0.995376 0
M  V30 4493 H 423.112 -3.90773 -0.283447 0
M  V30 4494 H 424.809 -4.00888 0.0945948 0
M  V30 4495 H 421.399 -4.00428 1.52825 0
M  V30 4496 H 425.583 -4.31045 2.45995 0
M  V30 4497 H 420.839 -4.80141 3.78516 0
M  V30 4498 H 425.013 -5.12108 4.71931 0
M  V30 4499 H 422.64 -5.36362 5.38721 0
M  V30 4500 N 424.215 -0.530993 -1.48385 0
M  V30 4501 C 425.631 -0.188919 -1.58478 0
M  V30 4502 C 425.831 1.30786 -1.53288 0
M  V30 4503 O 424.887 2.08619 -1.42248 0
M  V30 4504 C 426.2 -0.792343 -2.90073 0
M  V30 4505 C 427.748 -0.76117 -3.03604 0
M  V30 4506 C 428.223 -1.34319 -4.37861 0
M  V30 4507 N 429.714 -1.3052 -4.44431 0
M  V30 4508 C 430.449 -1.72543 -5.46824 0
M  V30 4509 N 429.945 -2.22299 -6.56167 0
M  V30 4510 N 431.738 -1.63773 -5.37712 0
M  V30 4511 H 423.889 -1.50377 -1.50002 0
M  V30 4512 H 426.152 -0.625559 -0.712306 0
M  V30 4513 H 425.858 -1.84323 -2.99529 0
M  V30 4514 H 425.732 -0.270026 -3.76232 0
M  V30 4515 H 428.119 0.280957 -2.93759 0
M  V30 4516 H 428.2 -1.32097 -2.19053 0
M  V30 4517 H 427.844 -2.38425 -4.4846 0
M  V30 4518 H 427.774 -0.759064 -5.21101 0
M  V30 4519 H 430.265 -0.940973 -3.65997 0
M  V30 4520 H 430.578 -2.52356 -7.30436 0
M  V30 4521 H 428.923 -2.26293 -6.57127 0
M  V30 4522 H 432.114 -1.24698 -4.51185 0
M  V30 4523 H 432.287 -1.96844 -6.17379 0
M  V30 4524 N 425.693 1.55336 -0.266172 0
M  V30 4525 C 426.656 2.20878 0.612001 0
M  V30 4526 C 427.656 1.18388 1.08816 0
M  V30 4527 O 428.846 1.4335 0.989774 0
M  V30 4528 C 425.978 2.86765 1.84332 0
M  V30 4529 H 427.171 2.99873 0.0398718 0
M  V30 4530 H 424.724 1.56291 -0.0167309 0
M  V30 4531 H 425.459 2.11759 2.45619 0
M  V30 4532 H 425.244 3.61862 1.5099 0
M  V30 4533 H 426.734 3.36867 2.46801 0
M  V30 4534 N 427.171 -0.0066808 1.57599 0
M  V30 4535 C 428.101 -0.999296 2.11036 0
M  V30 4536 C 429.082 -1.36278 1.01795 0
M  V30 4537 O 430.267 -1.4477 1.29442 0
M  V30 4538 C 427.397 -2.29328 2.60818 0
M  V30 4539 C 426.351 -2.07159 3.74525 0
M  V30 4540 C 425.677 -3.42512 4.10596 0
M  V30 4541 C 426.977 -1.43959 5.02069 0
M  V30 4542 H 428.671 -0.554382 2.94223 0
M  V30 4543 H 426.217 -0.265221 1.41536 0
M  V30 4544 H 428.17 -2.99117 2.96828 0
M  V30 4545 H 426.894 -2.7592 1.74745 0
M  V30 4546 H 425.553 -1.39797 3.38899 0
M  V30 4547 H 425.201 -3.86795 3.21556 0
M  V30 4548 H 424.901 -3.28498 4.87199 0
M  V30 4549 H 426.425 -4.13628 4.4916 0
M  V30 4550 H 427.839 -2.03696 5.35893 0
M  V30 4551 H 426.236 -1.40452 5.83432 0
M  V30 4552 H 427.306 -0.407992 4.83181 0
M  V30 4553 N 428.649 -1.55105 -0.279332 0
M  V30 4554 C 429.581 -1.83952 -1.36727 0
M  V30 4555 C 430.594 -0.723642 -1.45833 0
M  V30 4556 O 431.783 -1.00141 -1.47763 0
M  V30 4557 C 428.883 -1.98183 -2.74912 0
M  V30 4558 C 428.056 -3.28787 -2.88475 0
M  V30 4559 C 427.115 -3.33162 -4.07295 0
M  V30 4560 O 426.141 -4.06576 -3.98353 0
M  V30 4561 N 427.343 -2.60109 -5.18964 0
M  V30 4562 H 430.108 -2.77853 -1.12328 0
M  V30 4563 H 427.669 -1.54945 -0.469442 0
M  V30 4564 H 429.661 -1.98488 -3.52682 0
M  V30 4565 H 428.231 -1.11177 -2.92162 0
M  V30 4566 H 427.451 -3.41075 -1.97641 0
M  V30 4567 H 428.739 -4.14933 -2.94463 0
M  V30 4568 H 428.137 -2.00136 -5.29115 0
M  V30 4569 H 426.694 -2.66143 -5.94988 0
M  V30 4570 N 430.127 0.543554 -1.4793 0
M  V30 4571 C 431.077 1.64527 -1.57844 0
M  V30 4572 C 432.061 1.54869 -0.436408 0
M  V30 4573 O 433.253 1.63119 -0.687101 0
M  V30 4574 C 430.382 3.03281 -1.6086 0
M  V30 4575 C 429.468 3.18093 -2.80495 0
M  V30 4576 N 429.859 3.02923 -4.05057 0
M  V30 4577 C 428.157 3.49121 -2.77543 0
M  V30 4578 C 428.858 3.20791 -4.85251 0
M  V30 4579 N 427.834 3.47749 -4.17818 0
M  V30 4580 H 431.636 1.51388 -2.5191 0
M  V30 4581 H 429.15 0.748671 -1.44113 0
M  V30 4582 H 431.147 3.82403 -1.66054 0
M  V30 4583 H 429.807 3.17521 -0.678996 0
M  V30 4584 H 430.818 2.79966 -4.35705 0
M  V30 4585 H 427.495 3.69804 -1.93781 0
M  V30 4586 H 428.885 3.13915 -5.9406 0
M  V30 4587 N 431.605 1.3629 0.791371 0
M  V30 4588 C 432.83 1.33726 1.58531 0
M  V30 4589 C 433.255 -0.0794933 1.87932 0
M  V30 4590 O 432.613 -1.05087 1.47738 0
M  V30 4591 C 432.661 2.16425 2.88431 0
M  V30 4592 O 431.765 1.5554 3.81944 0
M  V30 4593 H 431.106 0.457793 0.480959 0
M  V30 4594 H 433.636 1.79547 0.981031 0
M  V30 4595 H 433.646 2.28933 3.37718 0
M  V30 4596 H 432.321 3.19415 2.66359 0
M  V30 4597 H 430.898 1.51961 3.40532 0
M  V30 4598 N 433.083 -1.0153 1.20538 0
M  V30 4599 C 434.313 -1.78487 1.04048 0
M  V30 4600 C 434.721 -1.84631 -0.413292 0
M  V30 4601 O 434.064 -1.29919 -1.29872 0
M  V30 4602 C 434.126 -3.24367 1.55003 0
M  V30 4603 C 433.79 -3.41827 3.0332 0
M  V30 4604 C 434.787 -3.30941 4.00966 0
M  V30 4605 C 432.472 -3.67602 3.42307 0
M  V30 4606 C 434.466 -3.45577 5.35589 0
M  V30 4607 C 432.153 -3.81881 4.77085 0
M  V30 4608 C 433.151 -3.70874 5.73534 0
M  V30 4609 O 432.839 -3.84714 7.05868 0
M  V30 4610 H 432.571 -0.568108 0.366373 0
M  V30 4611 H 435.125 -1.28677 1.60098 0
M  V30 4612 H 433.355 -3.75266 0.933397 0
M  V30 4613 H 435.044 -3.82963 1.34514 0
M  V30 4614 H 435.81 -3.10964 3.72191 0
M  V30 4615 H 431.689 -3.75256 2.67776 0
M  V30 4616 H 435.233 -3.36902 6.10854 0
M  V30 4617 H 431.13 -4.01359 5.0555 0
M  V30 4618 H 431.898 -4.01724 7.13134 0
M  V30 4619 N 434.561 -1.01147 -1.20859 0
M  V30 4620 C 435.491 -0.597663 -2.25722 0
M  V30 4621 C 436.472 0.384744 -1.65692 0
M  V30 4622 O 437.657 0.271303 -1.92296 0
M  V30 4623 C 434.787 0.0700149 -3.47229 0
M  V30 4624 C 433.741 -0.832843 -4.19819 0
M  V30 4625 C 433.067 -0.0312202 -5.34691 0
M  V30 4626 C 434.367 -2.1385 -4.76514 0
M  V30 4627 H 436.061 -1.47423 -2.60589 0
M  V30 4628 H 433.607 -0.710301 -1.25263 0
M  V30 4629 H 435.56 0.37103 -4.19763 0
M  V30 4630 H 434.284 0.981259 -3.11511 0
M  V30 4631 H 432.943 -1.11778 -3.49144 0
M  V30 4632 H 432.591 0.881515 -4.95215 0
M  V30 4633 H 432.291 -0.632434 -5.84187 0
M  V30 4634 H 433.815 0.26346 -6.10031 0
M  V30 4635 H 435.229 -1.9002 -5.40893 0
M  V30 4636 H 433.626 -2.69012 -5.36426 0
M  V30 4637 H 434.696 -2.80495 -3.95538 0
M  V30 4638 N 436.039 1.36541 -0.78704 0
M  V30 4639 C 436.989 2.27459 -0.156957 0
M  V30 4640 C 437.973 1.46843 0.657709 0
M  V30 4641 O 439.165 1.69245 0.518173 0
M  V30 4642 C 436.294 3.35893 0.709278 0
M  V30 4643 C 435.38 4.23947 -0.114049 0
M  V30 4644 N 435.771 4.92145 -1.16736 0
M  V30 4645 C 434.069 4.4587 0.107497 0
M  V30 4646 C 434.77 5.57261 -1.66837 0
M  V30 4647 N 433.746 5.3473 -0.977992 0
M  V30 4648 H 437.548 2.77669 -0.963185 0
M  V30 4649 H 435.062 1.49839 -0.62627 0
M  V30 4650 H 437.059 3.99953 1.17656 0
M  V30 4651 H 435.719 2.87238 1.51408 0
M  V30 4652 H 436.73 4.94169 -1.54976 0
M  V30 4653 H 433.407 4.08056 0.882994 0
M  V30 4654 H 434.797 6.21728 -2.54762 0
M  V30 4655 N 437.518 0.538854 1.48102 0
M  V30 4656 C 438.465 -0.219042 2.29758 0
M  V30 4657 C 439.435 -0.925562 1.37922 0
M  V30 4658 O 440.62 -0.924855 1.66886 0
M  V30 4659 C 437.76 -1.25452 3.2149 0
M  V30 4660 C 436.873 -0.555943 4.28408 0
M  V30 4661 C 436.008 -1.57512 5.0731 0
M  V30 4662 C 435.047 -0.860498 6.06021 0
M  V30 4663 N 434.184 -1.82564 6.77949 0
M  V30 4664 H 439.024 0.483449 2.94052 0
M  V30 4665 H 436.561 0.250247 1.44956 0
M  V30 4666 H 438.519 -1.86727 3.7308 0
M  V30 4667 H 437.149 -1.92528 2.591 0
M  V30 4668 H 436.201 0.170938 3.80016 0
M  V30 4669 H 437.513 0.00474616 4.988 0
M  V30 4670 H 436.667 -2.26191 5.62959 0
M  V30 4671 H 435.406 -2.16972 4.36778 0
M  V30 4672 H 434.411 -0.159686 5.49568 0
M  V30 4673 H 435.636 -0.271897 6.78555 0
M  V30 4674 H 433.582 -2.40915 6.10161 0
M  V30 4675 H 433.499 -1.31662 7.44447 0
M  V30 4676 H 434.767 -2.50414 7.38182 0
M  V30 4677 N 438.996 -1.55193 0.274407 0
M  V30 4678 C 440.273 -1.91584 -0.394331 0
M  V30 4679 C 440.653 -1.19858 -1.73774 0
M  V30 4680 O 440.001 -0.3252 -2.26174 0
M  V30 4681 C 440.211 -3.4487 -0.535311 0
M  V30 4682 C 441.559 -4.16636 -0.818534 0
M  V30 4683 O 442.583 -3.5076 -0.620146 0
M  V30 4684 O 441.442 -5.33209 -1.19792 0
M  V30 4685 H 438.536 -0.798349 -0.215794 0
M  V30 4686 H 441.082 -1.66646 0.320507 0
M  V30 4687 H 439.854 -3.89145 0.410141 0
M  V30 4688 H 439.477 -3.75759 -1.29964 0
M  V30 4689 N 440.474 -0.00167713 -1.576 0
M  V30 4690 C 441.384 1.00548 -2.1196 0
M  V30 4691 C 442.4 1.3758 -1.06526 0
M  V30 4692 O 443.576 1.46278 -1.38436 0
M  V30 4693 C 440.641 2.27809 -2.6135 0
M  V30 4694 C 439.702 1.97074 -3.81393 0
M  V30 4695 C 438.935 3.18267 -4.28417 0
M  V30 4696 O 439.158 4.30009 -3.74765 0
M  V30 4697 O 438.092 3.02167 -5.20556 0
M  V30 4698 H 441.918 0.573373 -2.98238 0
M  V30 4699 H 439.503 0.217255 -1.47812 0
M  V30 4700 H 441.385 3.02568 -2.93309 0
M  V30 4701 H 440.06 2.70254 -1.78169 0
M  V30 4702 H 438.967 1.19785 -3.54404 0
M  V30 4703 H 440.3 1.59464 -4.65652 0
M  V30 4704 N 441.952 1.55251 0.271103 0
M  V30 4705 C 443.2 1.75599 1.00047 0
M  V30 4706 C 443.521 0.561188 1.8675 0
M  V30 4707 O 442.791 -0.423846 1.9126 0
M  V30 4708 H 441.371 0.647562 0.372387 0
M  V30 4709 H 444.033 1.92656 0.294876 0
M  V30 4710 H 443.129 2.65766 1.6363 0
M  V30 4711 N 443.43 -0.535701 1.48216 0
M  V30 4712 C 444.378 -1.66179 1.62749 0
M  V30 4713 C 445.372 -1.62034 0.49409 0
M  V30 4714 O 446.578 -1.6696 0.672624 0
M  V30 4715 H 442.953 -0.550244 0.512578 0
M  V30 4716 H 444.924 -1.51063 2.57337 0
M  V30 4717 C 443.673 -3.04471 1.67907 0
M  V30 4718 H 442.996 -3.08351 2.54479 0
M  V30 4719 H 444.436 -3.82894 1.82121 0
M  V30 4720 C 442.895 -3.34314 0.416596 0
M  V30 4721 O 443.425 -3.98905 -0.473014 0
M  V30 4722 N 441.631 -2.89149 0.290038 0
M  V30 4723 H 441.178 -2.36764 1.01493 0
M  V30 4724 H 441.136 -3.09486 -0.55367 0
M  V30 4725 N 444.908 -1.36708 -0.784132 0
M  V30 4726 C 446.319 -1.27947 -1.35965 0
M  V30 4727 C 446.67 0.0784013 -1.96043 0
M  V30 4728 O 445.795 0.979989 -1.92938 0
M  V30 4729 C 446.39 -2.31689 -2.47195 0
M  V30 4730 C 444.949 -2.26601 -3.00548 0
M  V30 4731 C 444.096 -2.16184 -1.73666 0
M  V30 4732 H 447.047 -1.4751 -0.585358 0
M  V30 4733 H 447.068 -1.95638 -3.26352 0
M  V30 4734 H 446.58 -3.30506 -2.03439 0
M  V30 4735 H 444.681 -1.31268 -3.48711 0
M  V30 4736 H 444.794 -3.19508 -3.57004 0
M  V30 4737 H 443.158 -1.62524 -1.96107 0
M  V30 4738 H 443.941 -3.16896 -1.32031 0
M  V30 4739 N 446.386 1.0089 -1.21074 0
M  V30 4740 C 447.296 2.13039 -0.982425 0
M  V30 4741 C 448.312 1.73881 0.0642161 0
M  V30 4742 O 449.488 2.01012 -0.12496 0
M  V30 4743 C 446.553 3.42377 -0.545803 0
M  V30 4744 C 445.614 3.95731 -1.6642 0
M  V30 4745 C 444.847 5.18896 -1.24832 0
M  V30 4746 O 445.07 5.70273 -0.120265 0
M  V30 4747 O 444.004 5.65597 -2.05873 0
M  V30 4748 H 447.83 2.35175 -1.92163 0
M  V30 4749 H 445.415 1.1142 -0.995285 0
M  V30 4750 H 447.297 4.20244 -0.311912 0
M  V30 4751 H 445.972 3.21639 0.364727 0
M  V30 4752 H 444.879 3.19108 -1.95246 0
M  V30 4753 H 446.212 4.20872 -2.55201 0
M  V30 4754 O 447.903 1.14481 1.13914 0
M  V30 4755 H 448.594 0.866659 1.7323 0
M  V30 END ATOM
M  V30 BEGIN BOND
M  V30 END BOND
M  V30 END CTAB
M  END
$$$$
