drugbank_target|Q8VP84 Anthranilate phosphoribosyltransferase (DB01632)
 OpenBabel12092120223D

  0  0  0     0  0            999 V3000
M  V30 BEGIN CTAB
M  V30 COUNTS 5215 5261 0 0 0
M  V30 BEGIN ATOM
M  V30 1 H -0.908 1.98254 -0.117106 0
M  V30 2 N 0 1.576 0 0
M  V30 3 C 0.933 2.03868 1.02534 0
M  V30 4 C 1.911 0.928543 1.3348 0
M  V30 5 O 3.095 1.19667 1.45644 0
M  V30 6 C 0.222 2.43627 2.35294 0
M  V30 7 C -0.732 3.65373 2.2001 0
M  V30 8 S 0.101 5.13292 1.52614 0
M  V30 9 C 1.257 5.56322 2.86805 0
M  V30 10 H 1.49 2.90518 0.631377 0
M  V30 11 H -0.977 1.52953 0.210867 0
M  V30 12 H 0.981 2.67203 3.11629 0
M  V30 13 H -0.358 1.57376 2.7183 0
M  V30 14 H -1.165 3.90944 3.18086 0
M  V30 15 H -1.563 3.418 1.51819 0
M  V30 16 H 0.729 5.58782 3.83104 0
M  V30 17 H 1.672 6.56266 2.65933 0
M  V30 18 H 2.08 4.83886 2.90714 0
M  V30 19 N 1.4781 -0.272755 1.55222 0
M  V30 20 C 2.4101 -1.35946 1.8453 0
M  V30 21 C 3.4231 -1.45525 0.729818 0
M  V30 22 O 4.6121 -1.47337 1.00767 0
M  V30 23 C 1.7121 -2.74069 1.99347 0
M  V30 24 C 0.8851 -2.87079 3.30007 0
M  V30 25 C -0.0559 -4.05879 3.34886 0
M  V30 26 O -1.0299 -3.96626 4.08261 0
M  V30 27 N 0.1721 -5.17857 2.62307 0
M  V30 28 H 2.9371 -1.11149 2.78327 0
M  V30 29 H 0.4981 -0.462869 1.55142 0
M  V30 30 H 2.4901 -3.51838 1.99981 0
M  V30 31 H 1.0601 -2.91688 1.12415 0
M  V30 32 H 0.2801 -1.96193 3.41909 0
M  V30 33 H 1.5681 -2.92701 4.16177 0
M  V30 34 H 0.9661 -5.28261 2.02377 0
M  V30 35 H -0.4769 -5.93855 2.68663 0
M  V30 36 N 2.9562 -1.48159 -0.537278 0
M  V30 37 C 3.9192 -1.61665 -1.62472 0
M  V30 38 C 4.9192 -0.490395 -1.5314 0
M  V30 39 O 6.1092 -0.755998 -1.5694 0
M  V30 40 C 3.2412 -1.57997 -3.02076 0
M  V30 41 H 4.4342 -2.58621 -1.51839 0
M  V30 42 H 1.9872 -1.36647 -0.758771 0
M  V30 43 H 2.7222 -0.624913 -3.18222 0
M  V30 44 H 2.5072 -2.39755 -3.10258 0
M  V30 45 H 3.9972 -1.70627 -3.81151 0
M  V30 46 N 4.4343 0.785586 -1.36625 0
M  V30 47 C 5.6623 1.57448 -1.3423 0
M  V30 48 C 6.0773 1.88649 0.0755653 0
M  V30 49 O 5.4343 1.50414 1.03354 0
M  V30 50 C 5.4853 2.89316 -2.16745 0
M  V30 51 O 5.2063 2.59459 -3.53005 0
M  V30 52 C 6.7073 3.83606 -2.22174 0
M  V30 53 H 3.9273 0.488226 -0.4603 0
M  V30 54 H 6.4713 0.974733 -1.79775 0
M  V30 55 H 4.6263 3.4575 -1.74745 0
M  V30 56 H 5.0403 3.43804 -3.96105 0
M  V30 57 H 6.5143 4.73181 -2.8426 0
M  V30 58 H 6.9913 4.21734 -1.22627 0
M  V30 59 H 7.5973 3.33104 -2.64427 0
M  V30 60 N 5.9124 1.20967 1.01018 0
M  V30 61 C 6.8424 0.988272 2.11555 0
M  V30 62 C 7.8234 -0.0849778 1.69888 0
M  V30 63 O 9.0084 0.0738202 1.9406 0
M  V30 64 C 6.1384 0.546528 3.42973 0
M  V30 65 C 5.0924 1.56375 3.9841 0
M  V30 66 C 4.4184 0.97842 5.25672 0
M  V30 67 C 5.7184 2.94922 4.31066 0
M  V30 68 H 7.4124 1.91276 2.30334 0
M  V30 69 H 4.9584 0.921073 1.1069 0
M  V30 70 H 6.9114 0.378839 4.19694 0
M  V30 71 H 5.6354 -0.413598 3.23971 0
M  V30 72 H 4.2944 1.71891 3.23804 0
M  V30 73 H 3.9424 0.0101688 5.02999 0
M  V30 74 H 3.6424 1.65784 5.63728 0
M  V30 75 H 5.1664 0.821939 6.05043 0
M  V30 76 H 6.5804 2.8288 4.9865 0
M  V30 77 H 4.9774 3.5983 4.80253 0
M  V30 78 H 6.0474 3.4616 3.39561 0
M  V30 79 N 7.3905 -1.2043 1.01659 0
M  V30 80 C 8.6395 -1.89118 0.701237 0
M  V30 81 C 8.9525 -1.79705 -0.772358 0
M  V30 82 O 10.1585 -2.43528 -1.20026 0
M  V30 83 C 8.6145 -3.39168 1.20388 0
M  V30 84 C 8.2225 -3.57166 2.70438 0
M  V30 85 C 9.9665 -4.1341 0.963953 0
M  V30 86 C 7.8735 -5.01042 3.14183 0
M  V30 87 H 6.8035 -0.708267 0.2586 0
M  V30 88 H 9.4545 -1.36239 1.22927 0
M  V30 89 H 7.8365 -3.91369 0.603824 0
M  V30 90 H 9.0105 -3.15351 3.35992 0
M  V30 91 H 7.3255 -2.96294 2.92572 0
M  V30 92 H 9.9225 -5.19491 1.26621 0
M  V30 93 H 10.2655 -4.16181 -0.099578 0
M  V30 94 H 10.7985 -3.67309 1.52738 0
M  V30 95 H 7.5375 -5.03426 4.19812 0
M  V30 96 H 7.0575 -5.43668 2.53348 0
M  V30 97 H 8.7365 -5.69623 3.0682 0
M  V30 98 N 8.8686 -0.792821 -1.36206 0
M  V30 99 C 9.8156 -0.191653 -2.30003 0
M  V30 100 C 10.7856 0.666453 -1.52143 0
M  V30 101 O 11.9706 0.61442 -1.80636 0
M  V30 102 C 9.1106 0.664848 -3.38635 0
M  V30 103 C 8.2236 -0.212175 -4.31479 0
M  V30 104 C 7.3586 0.651022 -5.27196 0
M  V30 105 C 6.3976 -0.227247 -6.11678 0
M  V30 106 N 5.5346 0.595127 -6.99573 0
M  V30 107 H 10.3746 -0.996978 -2.80828 0
M  V30 108 H 7.9116 -0.503206 -1.38225 0
M  V30 109 H 9.8696 1.17645 -4.00269 0
M  V30 110 H 8.4996 1.43557 -2.89122 0
M  V30 111 H 7.5516 -0.841777 -3.70969 0
M  V30 112 H 8.8636 -0.888751 -4.90818 0
M  V30 113 H 8.0176 1.2283 -5.94136 0
M  V30 114 H 6.7566 1.36121 -4.68319 0
M  V30 115 H 5.7616 -0.816904 -5.43697 0
M  V30 116 H 6.9866 -0.93509 -6.72631 0
M  V30 117 H 4.9326 1.28955 -6.432 0
M  V30 118 H 4.8496 -0.0236952 -7.55996 0
M  V30 119 H 6.1176 1.15613 -7.70879 0
M  V30 120 N 10.3467 1.47872 -0.545128 0
M  V30 121 C 11.7577 1.86384 -0.108581 0
M  V30 122 C 12.1087 1.45309 1.31832 0
M  V30 123 O 11.2337 0.850641 1.9898 0
M  V30 124 C 11.8287 3.38265 -0.190274 0
M  V30 125 C 10.3877 3.75914 0.191164 0
M  V30 126 C 9.5347 2.71926 -0.543273 0
M  V30 127 H 12.4857 1.39561 -0.755537 0
M  V30 128 H 12.5067 3.75831 0.594217 0
M  V30 129 H 12.0187 3.6813 -1.2289 0
M  V30 130 H 10.1197 3.51665 1.23136 0
M  V30 131 H 10.2327 4.78836 -0.158987 0
M  V30 132 H 8.5967 2.54697 0.0122495 0
M  V30 133 H 9.3797 3.04634 -1.58282 0
M  V30 134 N 11.8248 0.280983 1.55075 0
M  V30 135 C 13.0528 -0.337293 2.04132 0
M  V30 136 C 13.4678 -1.4903 1.15912 0
M  V30 137 O 12.8248 -1.81606 0.180459 0
M  V30 138 C 12.8758 -0.812706 3.52246 0
M  V30 139 O 12.5968 0.294387 4.3711 0
M  V30 140 C 14.0978 -1.4982 4.17216 0
M  V30 141 H 11.3178 -0.0761638 0.666663 0
M  V30 142 H 13.8618 0.414787 2.00249 0
M  V30 143 H 12.0168 -1.51486 3.56554 0
M  V30 144 H 12.4308 -0.0721325 5.2445 0
M  V30 145 H 13.9048 -1.7822 5.22438 0
M  V30 146 H 14.3818 -2.43168 3.65741 0
M  V30 147 H 14.9878 -0.839742 4.16927 0
M  V30 148 N 13.3029 -1.57598 0.00835791 0
M  V30 149 C 14.5519 -1.90107 -0.673968 0
M  V30 150 C 14.8649 -0.884275 -1.7447 0
M  V30 151 O 16.0709 -1.09987 -2.48224 0
M  V30 152 C 14.5269 -3.37497 -1.24995 0
M  V30 153 C 14.1349 -4.47491 -0.2136 0
M  V30 154 C 15.8789 -3.79104 -1.90999 0
M  V30 155 C 13.7859 -5.85963 -0.80005 0
M  V30 156 H 12.7159 -0.709393 -0.255495 0
M  V30 157 H 15.3669 -1.83365 0.0702693 0
M  V30 158 H 13.7489 -3.39102 -2.04513 0
M  V30 159 H 14.9229 -4.57414 0.557596 0
M  V30 160 H 13.2379 -4.14956 0.346474 0
M  V30 161 H 15.8349 -4.79901 -2.35795 0
M  V30 162 H 16.1779 -3.1306 -2.74407 0
M  V30 163 H 16.7109 -3.79833 -1.18203 0
M  V30 164 H 13.4499 -6.555 -0.00456708 0
M  V30 165 H 12.9699 -5.79687 -1.54021 0
M  V30 166 H 14.6489 -6.33884 -1.29615 0
M  V30 167 N 14.781 0.264519 -1.55364 0
M  V30 168 C 16.028 0.994986 -1.7637 0
M  V30 169 C 16.356 1.85976 -0.5695 0
M  V30 170 O 15.611 1.90509 0.44776 0
M  V30 171 C 15.91 1.9004 -3.02687 0
M  V30 172 C 15.576 1.19243 -4.34847 0
M  V30 173 C 14.238 0.996709 -4.70764 0
M  V30 174 C 16.59 0.689296 -5.16622 0
M  V30 175 C 13.918 0.285261 -5.86006 0
M  V30 176 C 16.27 -0.00860079 -6.32599 0
M  V30 177 C 14.934 -0.215963 -6.67151 0
M  V30 178 H 14.204 0.364091 -0.645383 0
M  V30 179 H 16.851 0.266543 -1.89636 0
M  V30 180 H 15.156 2.69533 -2.84357 0
M  V30 181 H 16.853 2.46695 -3.16137 0
M  V30 182 H 13.443 1.3549 -4.06621 0
M  V30 183 H 17.627 0.828108 -4.89342 0
M  V30 184 H 12.883 0.113961 -6.11294 0
M  V30 185 H 17.057 -0.406186 -6.95214 0
M  V30 186 H 14.684 -0.769217 -7.56298 0
M  V30 187 N 16.2591 1.48442 0.529413 0
M  V30 188 C 17.4871 1.60151 1.30994 0
M  V30 189 C 17.9021 0.261985 1.86973 0
M  V30 190 O 17.2591 -0.748805 1.66431 0
M  V30 191 C 17.3101 2.64854 2.46038 0
M  V30 192 O 17.0311 3.93608 1.92365 0
M  V30 193 C 18.5321 2.87007 3.37849 0
M  V30 194 H 15.7521 0.539971 0.398338 0
M  V30 195 H 18.2961 1.94273 0.638597 0
M  V30 196 H 16.4511 2.33589 3.09055 0
M  V30 197 H 16.8651 4.51055 2.67675 0
M  V30 198 H 18.3391 3.64068 4.14919 0
M  V30 199 H 18.8161 1.95852 3.93114 0
M  V30 200 H 19.4221 3.19579 2.80623 0
M  V30 201 N 17.7372 -0.778329 1.37039 0
M  V30 202 C 18.6872 -1.88142 1.28789 0
M  V30 203 C 19.6712 -1.59923 0.177063 0
M  V30 204 O 20.8632 -1.72165 0.410873 0
M  V30 205 C 17.9922 -3.25518 1.09055 0
M  V30 206 C 17.0782 -3.5971 2.24654 0
M  V30 207 N 17.4692 -3.65131 3.50018 0
M  V30 208 C 15.7672 -3.89837 2.16663 0
M  V30 209 C 16.4682 -3.95882 4.26207 0
M  V30 210 N 15.4442 -4.11441 3.55271 0
M  V30 211 H 19.2462 -1.90575 2.23737 0
M  V30 212 H 16.7602 -0.974435 1.29917 0
M  V30 213 H 18.7572 -4.04423 1.0123 0
M  V30 214 H 17.4172 -3.24353 0.15018 0
M  V30 215 H 18.4282 -3.475 3.84011 0
M  V30 216 H 15.1052 -3.96533 1.30645 0
M  V30 217 H 16.4952 -4.06907 5.34674 0
M  V30 218 N 19.2153 -1.21501 -1.00376 0
M  V30 219 C 20.1473 -0.933174 -2.09343 0
M  V30 220 C 21.1603 0.0840896 -1.62583 0
M  V30 221 O 22.3493 -0.148563 -1.77881 0
M  V30 222 C 19.4493 -0.379869 -3.36764 0
M  V30 223 C 18.6223 -1.45176 -4.12605 0
M  V30 224 C 17.6813 -0.907476 -5.18316 0
M  V30 225 O 16.7073 -1.5912 -5.46507 0
M  V30 226 N 17.9093 0.276649 -5.7984 0
M  V30 227 H 20.6743 -1.87124 -2.34104 0
M  V30 228 H 18.2353 -1.12043 -1.16867 0
M  V30 229 H 20.2273 -0.00131488 -4.047 0
M  V30 230 H 18.7973 0.463048 -3.09151 0
M  V30 231 H 18.0173 -2.00411 -3.39454 0
M  V30 232 H 19.3053 -2.17328 -4.6005 0
M  V30 233 H 18.7033 0.849147 -5.59291 0
M  V30 234 H 17.2603 0.596702 -6.49063 0
M  V30 235 N 20.6934 1.19889 -1.02296 0
M  V30 236 C 22.1044 1.71124 -0.746568 0
M  V30 237 C 22.4554 1.81939 0.734335 0
M  V30 238 O 21.5804 1.48639 1.57275 0
M  V30 239 C 22.1754 3.10804 -1.34857 0
M  V30 240 C 20.7344 3.59323 -1.1209 0
M  V30 241 C 19.8814 2.3635 -1.45031 0
M  V30 242 H 22.8324 1.04813 -1.19163 0
M  V30 243 H 22.8534 3.73186 -0.742437 0
M  V30 244 H 22.3654 3.029 -2.42638 0
M  V30 245 H 20.4664 3.7255 -0.0610337 0
M  V30 246 H 20.5794 4.4378 -1.80544 0
M  V30 247 H 18.9434 2.39399 -0.869487 0
M  V30 248 H 19.7264 2.31081 -2.53883 0
M  V30 249 N 22.1715 0.800033 1.35784 0
M  V30 250 C 23.4205 0.37387 1.98205 0
M  V30 251 C 23.7335 -1.06302 1.64193 0
M  V30 252 O 24.9395 -1.59198 2.19928 0
M  V30 253 C 23.3955 0.617532 3.54562 0
M  V30 254 C 23.0035 2.06654 3.9749 0
M  V30 255 C 24.7475 0.256401 4.23725 0
M  V30 256 C 22.6545 2.2563 5.46667 0
M  V30 257 H 21.5845 0.136055 0.741623 0
M  V30 258 H 24.2355 0.983166 1.54939 0
M  V30 259 H 22.6175 -0.0616248 3.95952 0
M  V30 260 H 23.7915 2.78296 3.67271 0
M  V30 261 H 22.1065 2.38691 3.41197 0
M  V30 262 H 24.7035 0.376318 5.33374 0
M  V30 263 H 25.0465 -0.796692 4.08606 0
M  V30 264 H 25.5795 0.889214 3.87734 0
M  V30 265 H 22.3185 3.2936 5.66747 0
M  V30 266 H 21.8385 1.58504 5.78478 0
M  V30 267 H 23.5175 2.06861 6.1304 0
M  V30 268 N 23.6496 -1.47581 0.552962 0
M  V30 269 C 24.5796 -2.32762 -0.185451 0
M  V30 270 C 25.5606 -1.43527 -0.912905 0
M  V30 271 O 26.7456 -1.72388 -0.894201 0
M  V30 272 C 23.8756 -3.25219 -1.21859 0
M  V30 273 C 22.8296 -4.23661 -0.607864 0
M  V30 274 C 22.1556 -5.05413 -1.74533 0
M  V30 275 C 23.4556 -5.20481 0.435582 0
M  V30 276 H 25.1496 -2.94749 0.525684 0
M  V30 277 H 22.6956 -1.41738 0.254251 0
M  V30 278 H 24.6486 -3.8365 -1.7433 0
M  V30 279 H 23.3726 -2.61279 -1.95961 0
M  V30 280 H 22.0316 -3.66451 -0.104489 0
M  V30 281 H 21.6796 -4.3788 -2.47529 0
M  V30 282 H 21.3796 -5.72059 -1.34249 0
M  V30 283 H 22.9036 -5.66701 -2.27338 0
M  V30 284 H 24.3176 -5.733 -0.00290157 0
M  V30 285 H 22.7146 -5.95305 0.757067 0
M  V30 286 H 23.7846 -4.66217 1.33303 0
M  V30 287 N 25.1277 -0.289203 -1.54924 0
M  V30 288 C 26.0377 0.601863 -2.26748 0
M  V30 289 C 27.0537 1.15834 -1.2984 0
M  V30 290 O 28.2297 1.18564 -1.62802 0
M  V30 291 C 25.2947 1.76299 -2.98529 0
M  V30 292 C 24.3557 1.24178 -4.10948 0
M  V30 293 C 23.5887 2.34757 -4.79296 0
M  V30 294 O 23.8117 3.54411 -4.46933 0
M  V30 295 O 22.7457 2.02115 -5.66951 0
M  V30 296 H 26.5717 0.0195879 -3.03694 0
M  V30 297 H 24.1567 -0.0560868 -1.49295 0
M  V30 298 H 26.0387 2.43973 -3.43592 0
M  V30 299 H 24.7137 2.33209 -2.24488 0
M  V30 300 H 23.6207 0.531104 -3.70311 0
M  V30 301 H 24.9537 0.718252 -4.86931 0
M  V30 302 N 26.6058 1.57591 -0.0167156 0
M  V30 303 C 27.5528 2.09462 0.969251 0
M  V30 304 C 28.5228 0.99381 1.33089 0
M  V30 305 O 29.7078 1.26726 1.42636 0
M  V30 306 C 26.8478 2.61622 2.25051 0
M  V30 307 C 25.9608 3.85666 1.94642 0
M  V30 308 C 25.0958 4.26266 3.16972 0
M  V30 309 C 24.1348 5.43101 2.82326 0
M  V30 310 N 23.2718 5.78915 3.97243 0
M  V30 311 H 28.1118 2.93428 0.519997 0
M  V30 312 H 25.6488 1.45044 0.245087 0
M  V30 313 H 27.6068 2.89949 2.99976 0
M  V30 314 H 26.2368 1.80505 2.67615 0
M  V30 315 H 25.2888 3.64145 1.10013 0
M  V30 316 H 26.6008 4.70678 1.65117 0
M  V30 317 H 25.7548 4.55963 4.00228 0
M  V30 318 H 24.4938 3.39996 3.49648 0
M  V30 319 H 23.4988 5.1311 1.97479 0
M  V30 320 H 24.7238 6.3106 2.50879 0
M  V30 321 H 22.6698 4.95602 4.29785 0
M  V30 322 H 22.5868 6.58539 3.71299 0
M  V30 323 H 23.8548 6.13212 4.81239 0
M  V30 324 N 28.0839 -0.256276 1.55502 0
M  V30 325 C 29.0139 -1.32102 1.92539 0
M  V30 326 C 29.9949 -1.50684 0.789194 0
M  V30 327 O 31.1799 -1.63449 1.04872 0
M  V30 328 C 28.3099 -2.67752 2.21192 0
M  V30 329 C 27.2639 -2.63878 3.36975 0
M  V30 330 C 26.5899 -4.03236 3.51147 0
M  V30 331 C 27.8899 -2.21682 4.72921 0
M  V30 332 H 29.5839 -1.01351 2.81724 0
M  V30 333 H 27.1299 -0.486105 1.35547 0
M  V30 334 H 29.0829 -3.42365 2.45691 0
M  V30 335 H 27.8069 -3.0012 1.28824 0
M  V30 336 H 26.4659 -1.91722 3.12471 0
M  V30 337 H 26.1139 -4.32854 2.56216 0
M  V30 338 H 25.8139 -4.01535 4.29003 0
M  V30 339 H 27.3379 -4.79563 3.77957 0
M  V30 340 H 28.7519 -2.86023 4.96854 0
M  V30 341 H 27.1489 -2.3111 5.53812 0
M  V30 342 H 28.2189 -1.16833 4.70615 0
M  V30 343 N 29.562 -1.4872 -0.521534 0
M  V30 344 C 30.809 -1.57168 -1.27689 0
M  V30 345 C 31.137 -0.249275 -1.92896 0
M  V30 346 O 30.392 0.761162 -1.80291 0
M  V30 347 C 30.691 -2.66497 -2.38148 0
M  V30 348 C 30.357 -4.08664 -1.90538 0
M  V30 349 C 29.019 -4.47357 -1.77271 0
M  V30 350 C 31.371 -4.97724 -1.54663 0
M  V30 351 C 28.699 -5.72905 -1.26478 0
M  V30 352 C 31.051 -6.2377 -1.05329 0
M  V30 353 C 29.715 -6.61311 -0.906861 0
M  V30 354 H 28.985 -0.575117 -0.467249 0
M  V30 355 H 31.632 -1.82472 -0.581051 0
M  V30 356 H 29.937 -2.35085 -3.13437 0
M  V30 357 H 31.634 -2.70246 -2.96257 0
M  V30 358 H 28.224 -3.78111 -2.01816 0
M  V30 359 H 32.408 -4.68501 -1.63768 0
M  V30 360 H 27.664 -6.00709 -1.13835 0
M  V30 361 H 31.838 -6.9217 -0.76644 0
M  V30 362 H 29.465 -7.5848 -0.511083 0
M  V30 363 N 31.0401 0.771051 -1.3745 0
M  V30 364 C 31.9871 1.88435 -1.3327 0
M  V30 365 C 32.9571 1.64914 -0.198136 0
M  V30 366 O 34.1421 1.86821 -0.387606 0
M  V30 367 C 31.2821 3.25509 -1.14622 0
M  V30 368 C 30.3951 3.60979 -2.37314 0
M  V30 369 C 29.5301 4.87265 -2.11533 0
M  V30 370 C 28.5691 5.15469 -3.30088 0
M  V30 371 N 27.7061 6.32944 -3.03853 0
M  V30 372 H 32.5461 1.91344 -2.28455 0
M  V30 373 H 30.0831 0.935466 -1.13523 0
M  V30 374 H 32.0411 4.04582 -1.01831 0
M  V30 375 H 30.6711 3.21974 -0.230837 0
M  V30 376 H 29.7231 2.76885 -2.60842 0
M  V30 377 H 31.0351 3.77759 -3.25729 0
M  V30 378 H 30.1891 5.74244 -1.95777 0
M  V30 379 H 28.9281 4.7259 -1.20457 0
M  V30 380 H 27.9331 4.26966 -3.46382 0
M  V30 381 H 29.1581 5.32052 -4.22016 0
M  V30 382 H 27.1041 6.19625 -2.15407 0
M  V30 383 H 27.0211 6.50143 -3.85812 0
M  V30 384 H 28.2891 7.22857 -2.91716 0
M  V30 385 N 32.5182 1.22032 0.997298 0
M  V30 386 C 33.7432 1.06921 1.77715 0
M  V30 387 C 34.1682 -0.376226 1.84299 0
M  V30 388 O 33.5262 -1.27165 1.29223 0
M  V30 389 C 33.5742 1.67996 3.19076 0
M  V30 390 O 32.6782 0.930653 4.01762 0
M  V30 391 H 32.0192 0.375814 0.547412 0
M  V30 392 H 34.5492 1.61737 1.25309 0
M  V30 393 H 34.5592 1.72538 3.69723 0
M  V30 394 H 33.2342 2.73182 3.13599 0
M  V30 395 H 31.8112 0.960917 3.60307 0
M  V30 396 N 33.9963 -1.19345 1.0293 0
M  V30 397 C 34.9283 -2.22036 0.56857 0
M  V30 398 C 35.9413 -1.58865 -0.355779 0
M  V30 399 O 37.1303 -1.77851 -0.152103 0
M  V30 400 C 34.2303 -3.38363 -0.190752 0
M  V30 401 C 33.4033 -4.31118 0.738643 0
M  V30 402 C 32.4623 -5.26194 0.0246497 0
M  V30 403 O 31.4883 -5.65461 0.651354 0
M  V30 404 N 32.6903 -5.66971 -1.24594 0
M  V30 405 H 35.4553 -2.6219 1.45177 0
M  V30 406 H 33.0163 -1.34015 0.908381 0
M  V30 407 H 35.0083 -3.98981 -0.677961 0
M  V30 408 H 33.5783 -2.96994 -0.975366 0
M  V30 409 H 32.7983 -3.68276 1.40593 0
M  V30 410 H 34.0863 -4.90001 1.37029 0
M  V30 411 H 33.4843 -5.37104 -1.77583 0
M  V30 412 H 32.0413 -6.2984 -1.67764 0
M  V30 413 N 35.4744 -0.807222 -1.35358 0
M  V30 414 C 36.6994 -0.399309 -2.0352 0
M  V30 415 C 37.1244 0.981986 -1.60433 0
M  V30 416 O 36.4824 1.63601 -0.781299 0
M  V30 417 C 36.5304 -0.491552 -3.57234 0
M  V30 418 O 35.6344 0.494754 -4.09421 0
M  V30 419 H 34.9754 -0.166682 -0.642739 0
M  V30 420 H 37.5054 -1.09328 -1.72941 0
M  V30 421 H 37.5154 -0.361588 -4.06395 0
M  V30 422 H 36.1904 -1.49907 -3.87944 0
M  V30 423 H 34.7674 0.324977 -3.71481 0
M  V30 424 N 36.9525 1.47285 -0.560781 0
M  V30 425 C 37.8855 2.27009 0.232821 0
M  V30 426 C 38.8635 1.34273 0.917039 0
M  V30 427 O 40.0475 1.63659 0.935315 0
M  V30 428 C 37.1745 3.11406 1.33206 0
M  V30 429 C 36.2205 4.19746 0.756019 0
M  V30 430 S 37.0535 5.34003 -0.400165 0
M  V30 431 C 38.2095 6.21964 0.700805 0
M  V30 432 H 38.4425 2.93971 -0.443683 0
M  V30 433 H 35.9755 1.50446 -0.347181 0
M  V30 434 H 37.9335 3.60601 1.96156 0
M  V30 435 H 36.5945 2.438 1.98041 0
M  V30 436 H 35.7875 4.78541 1.5816 0
M  V30 437 H 35.3895 3.73451 0.202619 0
M  V30 438 H 37.6815 6.58529 1.59202 0
M  V30 439 H 38.6245 7.07941 0.150126 0
M  V30 440 H 39.0325 5.5566 0.995083 0
M  V30 441 N 38.4306 0.297415 1.54768 0
M  V30 442 C 39.6586 -0.315623 2.04478 0
M  V30 443 C 40.0736 -1.47792 1.17486 0
M  V30 444 O 39.4306 -1.81404 0.19971 0
M  V30 445 C 39.4816 -0.7753 3.53088 0
M  V30 446 O 39.2026 0.340732 4.36773 0
M  V30 447 C 40.7036 -1.45386 4.18781 0
M  V30 448 H 37.9236 -0.0690887 0.667434 0
M  V30 449 H 40.4676 0.436003 1.99798 0
M  V30 450 H 38.6226 -1.47696 3.58141 0
M  V30 451 H 39.0366 -0.0165035 5.24497 0
M  V30 452 H 40.5106 -1.72669 5.24299 0
M  V30 453 H 40.9876 -2.39275 3.68299 0
M  V30 454 H 41.5936 -0.795475 4.17795 0
M  V30 455 N 39.9087 -1.5758 0.0250728 0
M  V30 456 C 40.8407 -2.06869 -0.986796 0
M  V30 457 C 41.8537 -0.991332 -1.29137 0
M  V30 458 O 43.0427 -1.26761 -1.25674 0
M  V30 459 C 40.1427 -2.47486 -2.31525 0
M  V30 460 C 39.3157 -3.78253 -2.19643 0
M  V30 461 C 38.3747 -4.05464 -3.35388 0
M  V30 462 O 37.4007 -4.75774 -3.12454 0
M  V30 463 N 38.6027 -3.55321 -4.59051 0
M  V30 464 H 41.3677 -2.94302 -0.566276 0
M  V30 465 H 38.9287 -1.6109 -0.161776 0
M  V30 466 H 40.9207 -2.62785 -3.07776 0
M  V30 467 H 39.4907 -1.65441 -2.65232 0
M  V30 468 H 38.7107 -3.7279 -1.28144 0
M  V30 469 H 39.9987 -4.63936 -2.08903 0
M  V30 470 H 39.3967 -2.98431 -4.80578 0
M  V30 471 H 37.9537 -3.75905 -5.32483 0
M  V30 472 N 41.3868 0.248026 -1.55636 0
M  V30 473 C 42.2968 1.32859 -1.93354 0
M  V30 474 C 43.3128 1.52719 -0.833838 0
M  V30 475 O 44.4888 1.66363 -1.13513 0
M  V30 476 C 41.5538 2.66337 -2.21958 0
M  V30 477 C 40.6148 2.55008 -3.45354 0
M  V30 478 C 39.8478 3.82121 -3.72584 0
M  V30 479 O 40.0708 4.83951 -3.01907 0
M  V30 480 O 39.0048 3.80822 -4.6611 0
M  V30 481 H 42.8308 1.03862 -2.85388 0
M  V30 482 H 40.4158 0.448686 -1.42503 0
M  V30 483 H 42.2978 3.45216 -2.4167 0
M  V30 484 H 40.9728 2.95068 -1.33103 0
M  V30 485 H 39.8798 1.7442 -3.30951 0
M  V30 486 H 41.2128 2.31222 -4.34508 0
M  V30 487 N 42.8649 1.48995 0.513639 0
M  V30 488 C 43.7749 1.67443 1.64317 0
M  V30 489 C 44.7909 0.556947 1.64846 0
M  V30 490 O 45.9669 0.830082 1.83498 0
M  V30 491 C 43.0319 1.72515 3.00732 0
M  V30 492 C 42.0929 2.96009 3.1093 0
M  V30 493 C 41.3259 3.00829 4.40837 0
M  V30 494 O 41.5489 2.13594 5.28898 0
M  V30 495 O 40.4829 3.93168 4.55744 0
M  V30 496 H 44.3089 2.63106 1.51687 0
M  V30 497 H 41.8939 1.32588 0.688543 0
M  V30 498 H 43.7759 1.78277 3.81831 0
M  V30 499 H 42.4509 0.800278 3.13651 0
M  V30 500 H 41.3579 2.9577 2.29065 0
M  V30 501 H 42.6909 3.87934 3.02933 0
M  V30 502 N 44.343 -0.763751 1.37857 0
M  V30 503 C 45.568 -1.55805 1.36893 0
M  V30 504 C 45.993 -1.88054 -0.0416135 0
M  V30 505 O 45.351 -1.49825 -1.02089 0
M  V30 506 C 45.399 -2.84012 2.22192 0
M  V30 507 O 44.503 -3.78732 1.63204 0
M  V30 508 H 43.844 -0.471638 0.46739 0
M  V30 509 H 46.374 -0.944657 1.81487 0
M  V30 510 H 46.384 -3.33037 2.35691 0
M  V30 511 H 45.059 -2.59869 3.24716 0
M  V30 512 H 43.636 -3.37402 1.58791 0
M  V30 513 N 45.8211 -1.22559 -0.990812 0
M  V30 514 C 46.7711 -0.964807 -2.0658 0
M  V30 515 C 47.7551 0.0853472 -1.60673 0
M  V30 516 O 48.9471 -0.125443 -1.76555 0
M  V30 517 C 46.0761 -0.546707 -3.38919 0
M  V30 518 C 45.1621 -1.6317 -3.91454 0
M  V30 519 N 45.5531 -2.85985 -4.17189 0
M  V30 520 C 43.8511 -1.50387 -4.19881 0
M  V30 521 C 44.5521 -3.56159 -4.59919 0
M  V30 522 N 43.5281 -2.83637 -4.63736 0
M  V30 523 H 47.3301 -1.89769 -2.24421 0
M  V30 524 H 44.8441 -1.12343 -1.17273 0
M  V30 525 H 46.8411 -0.34119 -4.15502 0
M  V30 526 H 45.5011 0.379254 -3.22478 0
M  V30 527 H 46.5121 -3.22392 -4.05319 0
M  V30 528 H 43.1891 -0.644254 -4.12499 0
M  V30 529 H 44.5791 -4.6139 -4.88435 0
M  V30 530 N 47.2992 1.18797 -1.03562 0
M  V30 531 C 48.2312 2.21731 -0.580337 0
M  V30 532 C 49.2442 1.59051 0.347349 0
M  V30 533 O 50.4332 1.77929 0.142669 0
M  V30 534 C 47.5332 3.38459 0.172805 0
M  V30 535 C 46.7062 4.3072 -0.761496 0
M  V30 536 C 45.7652 5.26174 -0.0525547 0
M  V30 537 O 44.7912 5.65108 -0.681333 0
M  V30 538 N 45.9932 5.67624 1.21586 0
M  V30 539 H 48.7582 2.61417 -1.46565 0
M  V30 540 H 46.3192 1.33531 -0.915476 0
M  V30 541 H 48.3112 3.99335 0.656793 0
M  V30 542 H 46.8812 2.97507 0.959602 0
M  V30 543 H 46.1012 3.67525 -1.42544 0
M  V30 544 H 47.3892 4.89267 -1.39626 0
M  V30 545 H 46.7872 5.38038 1.74732 0
M  V30 546 H 45.3442 6.30721 1.64421 0
M  V30 547 N 48.7773 0.814389 1.34928 0
M  V30 548 C 49.7073 0.244827 2.32213 0
M  V30 549 C 50.6883 -0.634024 1.57842 0
M  V30 550 O 51.8733 -0.562676 1.8587 0
M  V30 551 C 49.0033 -0.601106 3.42058 0
M  V30 552 C 47.9573 0.179896 4.27622 0
M  V30 553 C 47.2833 -0.788237 5.28858 0
M  V30 554 C 48.5833 1.38329 5.03649 0
M  V30 555 H 50.2773 1.05763 2.80097 0
M  V30 556 H 47.8233 0.510029 1.34665 0
M  V30 557 H 49.7763 -1.00968 4.09125 0
M  V30 558 H 48.5003 -1.44688 2.92802 0
M  V30 559 H 47.1593 0.569739 3.62146 0
M  V30 560 H 46.8073 -1.62973 4.75866 0
M  V30 561 H 46.5073 -0.269942 5.8698 0
M  V30 562 H 48.0313 -1.19485 5.98795 0
M  V30 563 H 49.4453 1.04918 5.63618 0
M  V30 564 H 47.8423 1.83662 5.71304 0
M  V30 565 H 48.9123 2.16592 4.33839 0
M  V30 566 N 50.2554 -1.46986 0.568584 0
M  V30 567 C 51.5024 -2.02441 0.0487986 0
M  V30 568 C 51.8304 -1.44169 -1.30559 0
M  V30 569 O 51.0854 -0.591213 -1.86556 0
M  V30 570 C 51.3844 -3.57306 -0.081836 0
M  V30 571 C 51.0504 -4.34552 1.20313 0
M  V30 572 C 49.7124 -4.55376 1.5552 0
M  V30 573 C 52.0644 -4.79016 2.05411 0
M  V30 574 C 49.3924 -5.17913 2.7565 0
M  V30 575 C 51.7444 -5.42879 3.24754 0
M  V30 576 C 50.4084 -5.61933 3.60261 0
M  V30 577 H 49.6784 -0.740785 0.0178567 0
M  V30 578 H 52.3254 -1.76525 0.742384 0
M  V30 579 H 50.6304 -3.8228 -0.858463 0
M  V30 580 H 52.3274 -3.97876 -0.499546 0
M  V30 581 H 48.9174 -4.18631 0.919014 0
M  V30 582 H 53.1014 -4.62696 1.79516 0
M  V30 583 H 48.3574 -5.30858 3.03315 0
M  V30 584 H 52.5314 -5.76293 3.90973 0
M  V30 585 H 50.1584 -6.10161 4.53439 0
M  V30 586 N 51.7335 -0.305618 -1.54608 0
M  V30 587 C 52.6965 0.555591 -2.22364 0
M  V30 588 C 53.6965 1.05768 -1.21119 0
M  V30 589 O 54.8865 0.952972 -1.45822 0
M  V30 590 C 52.0185 1.76974 -2.91364 0
M  V30 591 H 53.2115 -0.0364572 -2.99878 0
M  V30 592 H 50.7645 -0.0565007 -1.56198 0
M  V30 593 H 51.4995 2.40151 -2.17941 0
M  V30 594 H 51.2845 1.41732 -3.65588 0
M  V30 595 H 52.7745 2.38148 -3.43038 0
M  V30 596 N 53.2116 1.57565 -0.0334293 0
M  V30 597 C 54.1746 2.09393 0.932048 0
M  V30 598 C 55.1746 1.00986 1.25134 0
M  V30 599 O 56.3646 1.27129 1.19096 0
M  V30 600 C 53.4966 2.56338 2.2473 0
M  V30 601 H 54.6896 2.95984 0.483085 0
M  V30 602 H 52.2426 1.54819 0.21468 0
M  V30 603 H 52.9776 1.7309 2.74245 0
M  V30 604 H 52.7626 3.35542 2.02865 0
M  V30 605 H 54.2526 2.96646 2.93923 0
M  V30 606 N 54.6897 -0.239769 1.55765 0
M  V30 607 C 55.9387 -0.964754 1.77131 0
M  V30 608 C 56.2517 -1.86213 0.59868 0
M  V30 609 O 57.4577 -2.6244 0.695522 0
M  V30 610 C 55.9137 -1.76552 3.1362 0
M  V30 611 C 55.5217 -0.915185 4.38553 0
M  V30 612 C 57.2657 -2.48281 3.44321 0
M  V30 613 C 55.1727 -1.71225 5.66071 0
M  V30 614 H 54.1027 -0.363953 0.660344 0
M  V30 615 H 56.7537 -0.219181 1.82186 0
M  V30 616 H 55.1357 -2.55331 3.02691 0
M  V30 617 H 56.3097 -0.169217 4.60489 0
M  V30 618 H 54.6247 -0.310889 4.15238 0
M  V30 619 H 57.2217 -3.08382 4.36812 0
M  V30 620 H 57.5647 -3.20256 2.65973 0
M  V30 621 H 58.0977 -1.76507 3.56497 0
M  V30 622 H 54.8367 -1.03612 6.4726 0
M  V30 623 H 54.3567 -2.43331 5.48224 0
M  V30 624 H 56.0357 -2.27758 6.05587 0
M  V30 625 N 56.1678 -1.49265 -0.50573 0
M  V30 626 C 57.4138 -1.58748 -1.26202 0
M  V30 627 C 57.7468 -0.271227 -1.92297 0
M  V30 628 O 57.0218 0.724831 -1.80489 0
M  V30 629 C 57.3048 -2.74332 -2.33268 0
M  V30 630 C 57.1578 -4.15737 -1.71705 0
M  V30 631 C 58.4768 -2.85576 -3.34865 0
M  V30 632 H 55.5958 -0.577826 -0.457478 0
M  V30 633 H 58.2378 -1.81532 -0.560897 0
M  V30 634 H 56.3878 -2.55036 -2.93068 0
M  V30 635 H 58.0598 -4.46537 -1.15769 0
M  V30 636 H 56.3028 -4.21605 -1.02135 0
M  V30 637 H 56.9738 -4.92477 -2.49341 0
M  V30 638 H 59.4498 -3.03127 -2.8505 0
M  V30 639 H 58.3258 -3.68135 -4.07146 0
M  V30 640 H 58.5868 -1.94732 -3.96903 0
M  V30 641 N 57.6459 0.756429 -1.3826 0
M  V30 642 C 59.0619 1.0591 -1.19395 0
M  V30 643 C 59.2619 2.01459 -0.0406567 0
M  V30 644 O 58.3179 2.44909 0.614467 0
M  V30 645 C 59.6309 1.64191 -2.51916 0
M  V30 646 C 61.1789 1.76376 -2.58574 0
M  V30 647 C 61.6539 2.38069 -3.91264 0
M  V30 648 N 63.1449 2.45503 -3.92788 0
M  V30 649 C 63.8799 2.94126 -4.92217 0
M  V30 650 N 63.3759 3.42805 -6.02043 0
M  V30 651 N 65.1689 2.9314 -4.7961 0
M  V30 652 H 57.3199 0.122313 -2.12048 0
M  V30 653 H 59.5829 0.116892 -0.940766 0
M  V30 654 H 59.2889 1.01451 -3.3675 0
M  V30 655 H 59.1629 2.6329 -2.70108 0
M  V30 656 H 61.5499 2.38244 -1.74137 0
M  V30 657 H 61.6309 0.759894 -2.44252 0
M  V30 658 H 61.2749 1.76835 -4.76121 0
M  V30 659 H 61.2049 3.39091 -4.02895 0
M  V30 660 H 63.6959 2.1107 -3.13461 0
M  V30 661 H 64.0089 3.78354 -6.73846 0
M  V30 662 H 62.3539 3.4087 -6.05667 0
M  V30 663 H 65.5449 2.54419 -3.92923 0
M  V30 664 H 65.7179 3.30721 -5.5725 0
M  V30 665 N 59.124 1.23083 0.984299 0
M  V30 666 C 60.372 1.05848 1.72165 0
M  V30 667 C 60.693 -0.406049 1.90726 0
M  V30 668 O 59.963 -1.29139 1.47309 0
M  V30 669 H 58.543 0.388685 0.637913 0
M  V30 670 H 61.205 1.54736 1.18503 0
M  V30 671 H 60.301 1.54327 2.71274 0
M  V30 672 N 60.6021 -1.18246 1.0419 0
M  V30 673 C 61.5121 -2.25574 0.644476 0
M  V30 674 C 62.5281 -1.70845 -0.329826 0
M  V30 675 O 63.7041 -2.00554 -0.184443 0
M  V30 676 C 60.7691 -3.46697 0.014877 0
M  V30 677 C 59.8301 -4.16554 1.03834 0
M  V30 678 C 59.0631 -5.31894 0.438692 0
M  V30 679 O 59.2861 -5.65385 -0.754752 0
M  V30 680 O 58.2201 -5.90459 1.168 0
M  V30 681 H 62.0461 -2.61836 1.53869 0
M  V30 682 H 59.6311 -1.25352 0.812854 0
M  V30 683 H 61.5131 -4.20062 -0.335538 0
M  V30 684 H 60.1881 -3.12255 -0.853138 0
M  V30 685 H 59.0951 -3.45251 1.44057 0
M  V30 686 H 60.4281 -4.54998 1.87716 0
M  V30 687 N 62.0802 -0.821533 -1.34494 0
M  V30 688 C 63.0102 -0.257138 -2.3208 0
M  V30 689 C 63.9912 0.625645 -1.58176 0
M  V30 690 O 65.1762 0.552811 -1.86166 0
M  V30 691 C 62.3062 0.582958 -3.42372 0
M  V30 692 C 61.2602 -0.202571 -4.2752 0
M  V30 693 C 60.5862 0.760179 -5.29269 0
M  V30 694 C 61.8862 -1.40998 -5.02908 0
M  V30 695 H 63.5802 -1.07247 -2.79532 0
M  V30 696 H 61.1262 -0.517163 -1.34393 0
M  V30 697 H 63.0792 0.987972 -4.09655 0
M  V30 698 H 61.8032 1.43133 -2.93565 0
M  V30 699 H 60.4622 -0.588936 -3.61838 0
M  V30 700 H 60.1102 1.60447 -4.76724 0
M  V30 701 H 59.8102 0.238809 -5.87115 0
M  V30 702 H 61.3342 1.16308 -5.9942 0
M  V30 703 H 62.7482 -1.07905 -5.63054 0
M  V30 704 H 61.1452 -1.86689 -5.70322 0
M  V30 705 H 62.2152 -2.1889 -4.32684 0
M  V30 706 N 63.5583 1.46682 -0.576371 0
M  V30 707 C 64.4683 2.34032 0.163141 0
M  V30 708 C 65.4843 1.49367 0.892501 0
M  V30 709 O 66.6603 1.82252 0.857106 0
M  V30 710 C 63.7253 3.26435 1.16795 0
M  V30 711 C 62.7863 4.26998 0.443944 0
M  V30 712 C 62.0193 5.14986 1.40088 0
M  V30 713 O 62.2423 5.05785 2.637 0
M  V30 714 O 61.1763 5.94906 0.914917 0
M  V30 715 H 65.0023 2.98607 -0.55388 0
M  V30 716 H 62.5873 1.45554 -0.336821 0
M  V30 717 H 64.4693 3.83459 1.74748 0
M  V30 718 H 63.1443 2.64465 1.86655 0
M  V30 719 H 62.0513 3.7368 -0.177271 0
M  V30 720 H 63.3843 4.91736 -0.213566 0
M  V30 721 N 65.0364 0.313813 1.54444 0
M  V30 722 C 66.3134 -0.345447 1.92525 0
M  V30 723 C 66.6934 -1.70667 1.24242 0
M  V30 724 O 66.0414 -2.25273 0.382654 0
M  V30 725 C 66.2514 -0.44737 3.46121 0
M  V30 726 C 67.5994 -0.712238 4.18584 0
M  V30 727 O 68.6234 -0.530678 3.52225 0
M  V30 728 O 67.4824 -1.06183 5.36085 0
M  V30 729 H 64.5764 -0.195407 0.803583 0
M  V30 730 H 67.1224 0.362813 1.65776 0
M  V30 731 H 65.8944 0.509043 3.87975 0
M  V30 732 H 65.5174 -1.20359 3.78945 0
M  V30 733 N 66.5145 -1.57545 0.0417849 0
M  V30 734 C 67.7395 -1.97035 -0.647455 0
M  V30 735 C 68.1645 -0.918775 -1.64135 0
M  V30 736 O 67.5225 0.119006 -1.80909 0
M  V30 737 C 67.5705 -3.35609 -1.31905 0
M  V30 738 O 66.6745 -3.3287 -2.43457 0
M  V30 739 H 66.0155 -0.64211 -0.169086 0
M  V30 740 H 68.5455 -2.04318 0.107399 0
M  V30 741 H 68.5555 -3.72126 -1.67291 0
M  V30 742 H 67.2305 -4.11685 -0.590586 0
M  V30 743 H 65.8075 -3.08087 -2.10088 0
M  V30 744 N 67.9926 0.231505 -1.5589 0
M  V30 745 C 68.9246 1.31006 -1.8807 0
M  V30 746 C 69.9376 1.43539 -0.768145 0
M  V30 747 O 71.1266 1.44614 -1.04638 0
M  V30 748 C 68.2266 2.68688 -2.06543 0
M  V30 749 C 67.3996 2.78228 -3.37502 0
M  V30 750 C 66.4586 3.96857 -3.4553 0
M  V30 751 O 65.4846 3.85662 -4.18633 0
M  V30 752 N 66.6866 5.1072 -2.75944 0
M  V30 753 H 69.4516 1.03731 -2.81176 0
M  V30 754 H 67.0126 0.421573 -1.56315 0
M  V30 755 H 69.0046 3.46412 -2.09239 0
M  V30 756 H 67.5746 2.88605 -1.20109 0
M  V30 757 H 66.7946 1.87059 -3.46991 0
M  V30 758 H 68.0826 2.81564 -4.23791 0
M  V30 759 H 67.4806 5.2271 -2.16311 0
M  V30 760 H 66.0376 5.86523 -2.84314 0
M  V30 761 N 69.4707 1.49531 0.497807 0
M  V30 762 C 70.4007 1.6935 1.60757 0
M  V30 763 C 71.3817 0.542218 1.61227 0
M  V30 764 O 72.5667 0.778417 1.77917 0
M  V30 765 C 69.6967 1.76298 2.99226 0
M  V30 766 C 68.6507 2.91248 3.13622 0
M  V30 767 C 67.9767 2.83312 4.53474 0
M  V30 768 C 69.2767 4.3214 2.93346 0
M  V30 769 H 70.9707 2.62263 1.44425 0
M  V30 770 H 68.5167 1.26208 0.693367 0
M  V30 771 H 70.4697 1.88749 3.76765 0
M  V30 772 H 69.1937 0.799871 3.16654 0
M  V30 773 H 67.8527 2.78404 2.38509 0
M  V30 774 H 67.5007 1.84902 4.67782 0
M  V30 775 H 67.2007 3.60465 4.64046 0
M  V30 776 H 68.7247 2.97775 5.33069 0
M  V30 777 H 70.1387 4.45649 3.60652 0
M  V30 778 H 68.5357 5.1054 3.15387 0
M  V30 779 H 69.6057 4.46363 1.89441 0
M  V30 780 N 70.9488 -0.749086 1.3866 0
M  V30 781 C 71.9118 -1.84457 1.36045 0
M  V30 782 C 72.9118 -1.58682 0.260122 0
M  V30 783 O 74.1018 -1.66343 0.517261 0
M  V30 784 C 71.2338 -3.22008 1.11911 0
M  V30 785 H 72.4268 -1.88182 2.33512 0
M  V30 786 H 69.9798 -0.951266 1.24019 0
M  V30 787 H 70.7148 -3.2395 0.150686 0
M  V30 788 H 70.4998 -3.42111 1.91579 0
M  V30 789 H 71.9898 -4.0208 1.12788 0
M  V30 790 N 72.4269 -1.23603 -0.977757 0
M  V30 791 C 73.3899 -1.02069 -2.05218 0
M  V30 792 C 74.3899 0.0184305 -1.60789 0
M  V30 793 O 75.5799 -0.221569 -1.72785 0
M  V30 794 C 72.7119 -0.544926 -3.36517 0
M  V30 795 H 73.9049 -1.9742 -2.25755 0
M  V30 796 H 71.4579 -1.05684 -1.15155 0
M  V30 797 H 72.1929 0.412241 -3.21669 0
M  V30 798 H 71.9779 -1.2948 -3.70105 0
M  V30 799 H 73.4679 -0.414985 -4.15533 0
M  V30 800 N 73.905 1.17692 -1.04816 0
M  V30 801 C 74.868 2.19787 -0.650117 0
M  V30 802 C 75.868 1.58044 0.296427 0
M  V30 803 O 77.058 1.74012 0.0808097 0
M  V30 804 C 74.19 3.40869 0.0456987 0
M  V30 805 H 75.383 2.56516 -1.5537 0
M  V30 806 H 72.936 1.31708 -0.841594 0
M  V30 807 H 73.671 3.09681 0.962726 0
M  V30 808 H 73.456 3.86928 -0.634727 0
M  V30 809 H 74.946 4.16445 0.310432 0
M  V30 810 N 75.3831 0.828654 1.34056 0
M  V30 811 C 76.3131 0.269443 2.3194 0
M  V30 812 C 77.2941 -0.617247 1.58506 0
M  V30 813 O 78.4791 -0.542931 1.86456 0
M  V30 814 C 75.6091 -0.564793 3.42677 0
M  V30 815 C 74.5631 0.225241 4.27407 0
M  V30 816 C 73.8891 -0.7321 5.29664 0
M  V30 817 C 75.1891 1.43663 5.02154 0
M  V30 818 H 76.8831 1.08728 2.7896 0
M  V30 819 H 74.4291 0.524283 1.34117 0
M  V30 820 H 76.3821 -0.966233 4.10173 0
M  V30 821 H 75.1061 -1.41574 2.9432 0
M  V30 822 H 73.7651 0.608117 3.61521 0
M  V30 823 H 73.4131 -1.57916 4.77568 0
M  V30 824 H 73.1131 -0.20767 5.87233 0
M  V30 825 H 74.6371 -1.13128 6.00029 0
M  V30 826 H 76.0511 1.1089 5.62473 0
M  V30 827 H 74.4481 1.89711 5.69324 0
M  V30 828 H 75.5181 2.21181 4.31517 0
M  V30 829 N 76.8612 -1.46375 0.584142 0
M  V30 830 C 78.1102 -2.01585 0.0679741 0
M  V30 831 C 78.4232 -1.46109 -1.30045 0
M  V30 832 O 79.6292 -1.93148 -1.90804 0
M  V30 833 C 78.0852 -3.5983 0.0709207 0
M  V30 834 C 77.6932 -4.24303 1.43775 0
M  V30 835 C 79.4372 -4.22693 -0.391228 0
M  V30 836 C 77.3442 -5.74631 1.39834 0
M  V30 837 H 76.2742 -0.753689 0.0216421 0
M  V30 838 H 78.9252 -1.68093 0.736001 0
M  V30 839 H 77.3072 -3.90405 -0.663299 0
M  V30 840 H 78.4812 -4.05335 2.19181 0
M  V30 841 H 76.7962 -3.73539 1.84004 0
M  V30 842 H 79.3932 -5.3289 -0.439524 0
M  V30 843 H 79.7362 -3.91728 -1.40906 0
M  V30 844 H 80.2692 -3.96749 0.288974 0
M  V30 845 H 77.0082 -6.10258 2.39303 0
M  V30 846 H 76.5282 -5.95858 0.686505 0
M  V30 847 H 78.2072 -6.37375 1.11187 0
M  V30 848 N 78.3393 -0.321999 -1.54275 0
M  V30 849 C 79.5643 0.285791 -2.05422 0
M  V30 850 C 79.9893 1.45124 -1.19669 0
M  V30 851 O 79.3473 1.80132 -0.205441 0
M  V30 852 C 79.3953 0.69956 -3.53749 0
M  V30 853 O 78.4993 1.8021 -3.70942 0
M  V30 854 H 77.8403 0.0518962 -0.661969 0
M  V30 855 H 80.3703 -0.469954 -1.9913 0
M  V30 856 H 80.3803 0.982649 -3.9599 0
M  V30 857 H 79.0553 -0.152864 -4.15619 0
M  V30 858 H 77.6323 1.51794 -3.40607 0
M  V30 859 N 79.8174 1.5752 -0.0501392 0
M  V30 860 C 80.7504 2.07026 0.959962 0
M  V30 861 C 81.7284 0.970539 1.30458 0
M  V30 862 O 82.9124 1.2424 1.41763 0
M  V30 863 C 80.0394 2.5099 2.27424 0
M  V30 864 C 79.0854 3.72188 2.08275 0
M  V30 865 S 79.9184 5.17888 1.36207 0
M  V30 866 C 81.0744 5.65165 2.6896 0
M  V30 867 H 81.3074 2.9238 0.538631 0
M  V30 868 H 78.8404 1.53547 0.162099 0
M  V30 869 H 80.7984 2.76982 3.02971 0
M  V30 870 H 79.4594 1.65944 2.66686 0
M  V30 871 H 78.6524 4.00866 3.05487 0
M  V30 872 H 78.2544 3.46457 1.40868 0
M  V30 873 H 80.5464 5.70687 3.65133 0
M  V30 874 H 81.4894 6.64394 2.4492 0
M  V30 875 H 81.8974 4.9289 2.75172 0
M  V30 876 N 81.2955 -0.223234 1.56011 0
M  V30 877 C 82.2425 -1.27664 1.92277 0
M  V30 878 C 83.2125 -1.46659 0.779763 0
M  V30 879 O 84.3975 -1.60256 1.03551 0
M  V30 880 C 81.5375 -2.62234 2.24338 0
M  V30 881 C 80.6505 -2.51051 3.51564 0
M  V30 882 C 79.7855 -3.78133 3.7308 0
M  V30 883 C 78.8245 -3.61665 4.93827 0
M  V30 884 N 77.9615 -4.80693 5.11741 0
M  V30 885 H 82.8015 -0.960358 2.82101 0
M  V30 886 H 80.3385 -0.462901 1.39627 0
M  V30 887 H 82.2965 -3.40596 2.40936 0
M  V30 888 H 80.9265 -2.91961 1.3769 0
M  V30 889 H 79.9785 -1.64132 3.43169 0
M  V30 890 H 81.2905 -2.34803 4.40079 0
M  V30 891 H 80.4445 -4.64938 3.89766 0
M  V30 892 H 79.1835 -3.97304 2.82844 0
M  V30 893 H 78.1885 -2.73244 4.77093 0
M  V30 894 H 79.4135 -3.43966 5.85546 0
M  V30 895 H 77.3595 -5.00181 4.24446 0
M  V30 896 H 77.2765 -4.67165 5.94384 0
M  V30 897 H 78.5445 -5.6893 5.3286 0
M  V30 898 N 82.7736 -1.49793 -0.48987 0
M  V30 899 C 83.7066 -1.61898 -1.60823 0
M  V30 900 C 84.6846 -0.467651 -1.5573 0
M  V30 901 O 85.8686 -0.684682 -1.75626 0
M  V30 902 C 82.9956 -1.58422 -2.99366 0
M  V30 903 C 82.0416 -2.78889 -3.22682 0
M  V30 904 S 82.8746 -4.40429 -3.04602 0
M  V30 905 C 84.0306 -4.39617 -4.4552 0
M  V30 906 H 84.2636 -2.56502 -1.50312 0
M  V30 907 H 81.7966 -1.38822 -0.675849 0
M  V30 908 H 83.7546 -1.57103 -3.79248 0
M  V30 909 H 82.4156 -0.650866 -3.07283 0
M  V30 910 H 81.6086 -2.72708 -4.23847 0
M  V30 911 H 81.2106 -2.77678 -2.50541 0
M  V30 912 H 83.5026 -4.12022 -5.37814 0
M  V30 913 H 84.4456 -5.41097 -4.56749 0
M  V30 914 H 84.8536 -3.69554 -4.2672 0
M  V30 915 N 84.2517 0.741722 -1.39055 0
M  V30 916 C 85.6677 1.04638 -1.20512 0
M  V30 917 C 85.8677 2.01405 -0.0620218 0
M  V30 918 O 84.9237 2.45547 0.588457 0
M  V30 919 C 86.2367 1.6151 -2.53643 0
M  V30 920 C 87.7847 1.73623 -2.6043 0
M  V30 921 C 88.2597 2.33906 -3.93767 0
M  V30 922 N 89.7507 2.41323 -3.9537 0
M  V30 923 C 90.4857 2.88888 -4.95309 0
M  V30 924 N 89.9817 3.36401 -6.05645 0
M  V30 925 N 91.7747 2.88037 -4.82692 0
M  V30 926 H 83.9257 0.0998155 -2.12165 0
M  V30 927 H 86.1887 0.106907 -0.941953 0
M  V30 928 H 85.8947 0.978739 -3.37807 0
M  V30 929 H 85.7687 2.60411 -2.72885 0
M  V30 930 H 88.1557 2.36384 -1.76655 0
M  V30 931 H 88.2367 0.733945 -2.45045 0
M  V30 932 H 87.8807 1.71776 -4.7797 0
M  V30 933 H 87.8107 3.34799 -4.06469 0
M  V30 934 H 90.3017 2.07734 -3.15682 0
M  V30 935 H 90.6147 3.71186 -6.77821 0
M  V30 936 H 88.9597 3.34427 -6.09248 0
M  V30 937 H 92.1507 2.50237 -3.95599 0
M  V30 938 H 92.3237 3.24792 -5.60726 0
M  V30 939 N 85.7298 1.2412 0.971189 0
M  V30 940 C 86.9778 1.07668 1.71032 0
M  V30 941 C 87.2988 -0.385797 1.91146 0
M  V30 942 O 86.5688 -1.27569 1.4867 0
M  V30 943 H 85.1488 0.395429 0.633755 0
M  V30 944 H 87.8108 1.55984 1.16855 0
M  V30 945 H 86.9068 1.57195 2.69622 0
M  V30 946 N 87.2079 -1.17134 1.05439 0
M  V30 947 C 88.1179 -2.24878 0.668365 0
M  V30 948 C 89.1339 -1.71186 -0.311687 0
M  V30 949 O 90.3099 -2.00738 -0.163161 0
M  V30 950 C 87.3749 -3.46662 0.051648 0
M  V30 951 C 86.4359 -4.15429 1.08246 0
M  V30 952 C 85.6689 -5.31399 0.495082 0
M  V30 953 O 85.8919 -5.66153 -0.694743 0
M  V30 954 O 84.8259 -5.89187 1.23056 0
M  V30 955 H 88.6519 -2.60189 1.56637 0
M  V30 956 H 86.2369 -1.24482 0.826104 0
M  V30 957 H 88.1189 -4.20394 -0.290966 0
M  V30 958 H 86.7939 -3.13142 -0.819971 0
M  V30 959 H 85.7009 -3.43704 1.47711 0
M  V30 960 H 87.0339 -4.52982 1.92532 0
M  V30 961 N 88.686 -0.835752 -1.33615 0
M  V30 962 C 90.102 -0.523139 -1.50783 0
M  V30 963 C 90.302 0.950171 -1.77691 0
M  V30 964 O 89.358 1.73411 -1.83534 0
M  V30 965 C 90.671 -1.39378 -2.66448 0
M  V30 966 C 92.219 -1.39223 -2.80332 0
M  V30 967 C 92.694 -2.24765 -3.99055 0
M  V30 968 N 94.185 -2.22458 -4.06284 0
M  V30 969 C 94.92 -2.85386 -4.97336 0
M  V30 970 N 94.416 -3.57354 -5.93523 0
M  V30 971 N 96.209 -2.74872 -4.90308 0
M  V30 972 H 88.36 -1.78952 -1.14411 0
M  V30 973 H 90.623 -0.763297 -0.562212 0
M  V30 974 H 90.329 -2.44061 -2.53234 0
M  V30 975 H 90.203 -1.0676 -3.61776 0
M  V30 976 H 92.59 -0.353136 -2.92979 0
M  V30 977 H 92.671 -1.75846 -1.85773 0
M  V30 978 H 92.315 -3.28732 -3.87167 0
M  V30 979 H 92.245 -1.85485 -4.92852 0
M  V30 980 H 94.736 -1.70119 -3.37443 0
M  V30 981 H 95.049 -4.02584 -6.59656 0
M  V30 982 H 93.394 -3.61461 -5.93608 0
M  V30 983 H 96.585 -2.18213 -4.14126 0
M  V30 984 H 96.758 -3.24199 -5.61069 0
M  V30 985 N 90.1641 1.46063 -0.591896 0
M  V30 986 C 91.5751 1.85944 -0.167822 0
M  V30 987 C 91.9261 1.49429 1.27143 0
M  V30 988 O 91.0511 0.913515 1.96173 0
M  V30 989 C 91.6461 3.37489 -0.297794 0
M  V30 990 C 90.2051 3.76332 0.0714732 0
M  V30 991 C 89.3521 2.7006 -0.629509 0
M  V30 992 H 92.3031 1.37087 -0.799555 0
M  V30 993 H 92.3241 3.77532 0.474349 0
M  V30 994 H 91.8361 3.64034 -1.3454 0
M  V30 995 H 89.9371 3.55405 1.11886 0
M  V30 996 H 90.0501 4.78088 -0.311245 0
M  V30 997 H 88.4141 2.54607 -0.0687867 0
M  V30 998 H 89.1971 2.99444 -1.67894 0
M  V30 999 N 91.6422 0.330177 1.54103 0
M  V30 1000 C 92.5522 -0.541534 2.28264 0
M  V30 1001 C 93.5682 -1.12351 1.32866 0
M  V30 1002 O 94.7442 -1.14206 1.65888 0
M  V30 1003 C 91.8092 -1.68322 3.03098 0
M  V30 1004 C 90.8702 -1.13238 4.14096 0
M  V30 1005 C 90.1032 -2.21966 4.85352 0
M  V30 1006 O 90.3262 -3.42437 4.56172 0
M  V30 1007 O 89.2602 -1.87013 5.7211 0
M  V30 1008 H 93.0862 0.060938 3.03639 0
M  V30 1009 H 90.6712 0.09565 1.49093 0
M  V30 1010 H 92.5532 -2.34777 3.49939 0
M  V30 1011 H 91.2282 -2.27176 2.30593 0
M  V30 1012 H 90.1352 -0.432736 3.71589 0
M  V30 1013 H 91.4682 -0.588898 4.88664 0
M  V30 1014 N 93.1203 -1.57491 0.0584922 0
M  V30 1015 C 94.0303 -2.15448 -0.928414 0
M  V30 1016 C 95.0463 -1.11416 -1.3365 0
M  V30 1017 O 96.2223 -1.4362 -1.41193 0
M  V30 1018 C 93.2873 -2.69393 -2.18239 0
M  V30 1019 C 92.3483 -3.88249 -1.83196 0
M  V30 1020 C 91.5813 -4.39613 -3.02616 0
M  V30 1021 O 91.8043 -3.90023 -4.16219 0
M  V30 1022 O 90.7383 -5.31111 -2.83204 0
M  V30 1023 H 94.5643 -3.00112 -0.465483 0
M  V30 1024 H 92.1493 -1.48499 -0.163826 0
M  V30 1025 H 94.0313 -3.04026 -2.91798 0
M  V30 1026 H 92.7063 -1.87796 -2.63656 0
M  V30 1027 H 91.6133 -3.58492 -1.06931 0
M  V30 1028 H 92.9463 -4.71098 -1.42573 0
M  V30 1029 N 94.5984 0.214957 -1.56127 0
M  V30 1030 C 95.8474 0.936451 -1.78643 0
M  V30 1031 C 96.1604 1.85237 -0.628229 0
M  V30 1032 O 97.3664 2.613 -0.737186 0
M  V30 1033 C 95.8224 1.7154 -3.16389 0
M  V30 1034 C 95.4304 0.845299 -4.39953 0
M  V30 1035 C 97.1744 2.42772 -3.48227 0
M  V30 1036 C 95.0814 1.62198 -5.68723 0
M  V30 1037 H 94.0114 0.353401 -0.666051 0
M  V30 1038 H 96.6624 0.190169 -1.82512 0
M  V30 1039 H 95.0444 2.50484 -3.06715 0
M  V30 1040 H 96.2184 0.0959353 -4.607 0
M  V30 1041 H 94.5334 0.244789 -4.1568 0
M  V30 1042 H 97.1304 3.01394 -4.41663 0
M  V30 1043 H 97.4734 3.15984 -2.71035 0
M  V30 1044 H 98.0064 1.70813 -3.5926 0
M  V30 1045 H 94.7454 0.933011 -6.48826 0
M  V30 1046 H 94.2654 2.34579 -5.52026 0
M  V30 1047 H 95.9444 2.18095 -6.09133 0
M  V30 1048 N 96.0765 1.50051 0.48192 0
M  V30 1049 C 97.0395 1.67584 1.5636 0
M  V30 1050 C 98.0395 0.546894 1.51214 0
M  V30 1051 O 99.2295 0.813725 1.54026 0
M  V30 1052 C 96.3615 1.691 2.96003 0
M  V30 1053 H 97.5545 2.64078 1.42136 0
M  V30 1054 H 95.1075 1.39369 0.707533 0
M  V30 1055 H 95.8425 0.742589 3.15684 0
M  V30 1056 H 95.6275 2.51105 3.01146 0
M  V30 1057 H 97.1175 1.84656 3.74556 0
M  V30 1058 N 97.5546 -0.734337 1.39446 0
M  V30 1059 C 98.8026 -1.49096 1.36436 0
M  V30 1060 C 99.1236 -1.94961 -0.0388255 0
M  V30 1061 O 98.3936 -1.69033 -0.990191 0
M  V30 1062 H 96.9736 -0.5531 0.502085 0
M  V30 1063 H 99.6356 -0.871725 1.74319 0
M  V30 1064 H 98.7316 -2.37276 2.02747 0
M  V30 1065 N 99.0327 -1.24633 -0.964593 0
M  V30 1066 C 99.9957 -1.0424 -2.04124 0
M  V30 1067 C 100.996 0.00137563 -1.608 0
M  V30 1068 O 102.186 -0.239883 -1.7254 0
M  V30 1069 C 99.3177 -0.580588 -3.3592 0
M  V30 1070 H 100.511 -1.99803 -2.23649 0
M  V30 1071 H 98.0637 -1.06899 -1.14027 0
M  V30 1072 H 98.7987 0.3781 -3.22088 0
M  V30 1073 H 98.5837 -1.33398 -3.6871 0
M  V30 1074 H 100.074 -0.459034 -4.15069 0
M  V30 1075 N 100.511 1.16574 -1.06058 0
M  V30 1076 C 101.474 2.19085 -0.673392 0
M  V30 1077 C 102.474 1.5835 0.279648 0
M  V30 1078 O 103.664 1.74088 0.0623488 0
M  V30 1079 C 100.796 3.40899 0.00954234 0
M  V30 1080 H 101.989 2.54853 -1.58081 0
M  V30 1081 H 99.5418 1.30808 -0.855516 0
M  V30 1082 H 100.277 3.10684 0.929826 0
M  V30 1083 H 100.062 3.86233 -0.67573 0
M  V30 1084 H 101.552 4.1675 0.266245 0
M  V30 1085 N 101.989 0.842826 1.3317 0
M  V30 1086 C 103.214 0.453129 2.02389 0
M  V30 1087 C 103.639 -0.939105 1.6298 0
M  V30 1088 O 102.997 -1.61472 0.8244 0
M  V30 1089 C 103.045 0.586094 3.55805 0
M  V30 1090 O 102.149 -0.386029 4.10589 0
M  V30 1091 H 101.49 0.183664 0.638094 0
M  V30 1092 H 104.02 1.13875 1.69981 0
M  V30 1093 H 104.03 0.469209 4.05293 0
M  V30 1094 H 102.705 1.6014 3.83833 0
M  V30 1095 H 101.282 -0.226371 3.72212 0
M  V30 1096 N 103.467 -1.45747 0.599634 0
M  V30 1097 C 104.43 -2.28917 -0.113835 0
M  V30 1098 C 105.43 -1.3933 -0.802729 0
M  V30 1099 O 106.62 -1.61534 -0.652103 0
M  V30 1100 C 103.752 -3.20152 -1.17114 0
M  V30 1101 H 104.945 -2.93478 0.617289 0
M  V30 1102 H 102.498 -1.52137 0.358327 0
M  V30 1103 H 103.233 -2.60374 -1.93329 0
M  V30 1104 H 103.018 -3.86133 -0.681468 0
M  V30 1105 H 104.508 -3.82708 -1.67105 0
M  V30 1106 N 104.945 -0.338344 -1.53925 0
M  V30 1107 C 105.875 0.51328 -2.27789 0
M  V30 1108 C 106.856 1.107 -1.29149 0
M  V30 1109 O 108.041 1.12937 -1.57984 0
M  V30 1110 C 105.171 1.66697 -3.04679 0
M  V30 1111 C 104.125 1.20183 -4.1078 0
M  V30 1112 C 103.451 2.44363 -4.75595 0
M  V30 1113 C 104.751 0.30605 -5.21403 0
M  V30 1114 H 106.445 -0.102883 -2.99223 0
M  V30 1115 H 103.991 -0.0509219 -1.4391 0
M  V30 1116 H 105.944 2.26915 -3.55088 0
M  V30 1117 H 104.668 2.30995 -2.30887 0
M  V30 1118 H 103.327 0.622499 -3.61276 0
M  V30 1119 H 102.975 3.07057 -3.98403 0
M  V30 1120 H 102.675 2.13925 -5.47275 0
M  V30 1121 H 104.199 3.05317 -5.28786 0
M  V30 1122 H 105.613 0.814929 -5.67478 0
M  V30 1123 H 104.01 0.0937929 -6.00027 0
M  V30 1124 H 105.08 -0.65921 -4.80398 0
M  V30 1125 N 106.423 1.57458 -0.0668435 0
M  V30 1126 C 107.353 2.15468 0.899764 0
M  V30 1127 C 108.334 1.08042 1.31381 0
M  V30 1128 O 109.519 1.36054 1.38574 0
M  V30 1129 C 106.649 2.71232 2.16911 0
M  V30 1130 C 105.603 3.83781 1.89463 0
M  V30 1131 C 104.929 4.26127 3.22986 0
M  V30 1132 C 106.229 5.08238 1.20381 0
M  V30 1133 H 107.923 2.96488 0.416529 0
M  V30 1134 H 105.469 1.4262 0.198908 0
M  V30 1135 H 107.422 3.10458 2.84945 0
M  V30 1136 H 106.146 1.87426 2.67468 0
M  V30 1137 H 104.805 3.45051 1.23836 0
M  V30 1138 H 104.453 3.39249 3.71374 0
M  V30 1139 H 104.153 5.01993 3.05413 0
M  V30 1140 H 105.677 4.67966 3.92225 0
M  V30 1141 H 107.091 5.44811 1.78475 0
M  V30 1142 H 105.488 5.89349 1.13083 0
M  V30 1143 H 106.558 4.84558 0.182153 0
M  V30 1144 N 107.901 -0.206675 1.56239 0
M  V30 1145 C 108.864 -1.23976 1.92776 0
M  V30 1146 C 109.864 -1.39041 0.807729 0
M  V30 1147 O 111.054 -1.37051 1.0753 0
M  V30 1148 C 108.186 -2.61112 2.19165 0
M  V30 1149 H 109.379 -0.927764 2.85189 0
M  V30 1150 H 106.932 -0.447718 1.4975 0
M  V30 1151 H 107.667 -2.97386 1.29352 0
M  V30 1152 H 107.452 -2.51552 3.00772 0
M  V30 1153 H 108.942 -3.35633 2.48476 0
M  V30 1154 N 109.379 -1.50304 -0.473955 0
M  V30 1155 C 110.656 -1.51667 -1.23518 0
M  V30 1156 C 111.036 -0.259701 -2.09496 0
M  V30 1157 O 110.384 0.756986 -2.15597 0
M  V30 1158 C 110.594 -2.81082 -2.06868 0
M  V30 1159 C 111.942 -3.31631 -2.65153 0
M  V30 1160 O 112.966 -2.82384 -2.17113 0
M  V30 1161 O 111.825 -4.17471 -3.52675 0
M  V30 1162 H 108.919 -0.60822 -0.560355 0
M  V30 1163 H 111.465 -1.62592 -0.486011 0
M  V30 1164 H 110.237 -3.64041 -1.4349 0
M  V30 1165 H 109.86 -2.73146 -2.88924 0
M  V30 1166 N 110.857 0.726932 -1.39834 0
M  V30 1167 C 111.82 1.82269 -1.38962 0
M  V30 1168 C 112.82 1.58248 -0.285334 0
M  V30 1169 O 114.01 1.65499 -0.54366 0
M  V30 1170 C 111.142 3.20186 -1.17019 0
M  V30 1171 H 112.335 1.84443 -2.36476 0
M  V30 1172 H 109.888 0.931416 -1.25516 0
M  V30 1173 H 110.623 3.23669 -0.202204 0
M  V30 1174 H 110.408 3.3902 -1.96998 0
M  V30 1175 H 111.898 4.00235 -1.1917 0
M  V30 1176 N 112.336 1.25143 0.95797 0
M  V30 1177 C 113.268 1.01023 2.05735 0
M  V30 1178 C 114.281 -0.0236902 1.62783 0
M  V30 1179 O 115.47 0.21448 1.77207 0
M  V30 1180 C 112.57 0.504595 3.35122 0
M  V30 1181 C 111.743 1.6039 4.06932 0
M  V30 1182 C 110.802 1.09922 5.14591 0
M  V30 1183 O 109.828 1.79293 5.40225 0
M  V30 1184 N 111.03 -0.0612545 5.80468 0
M  V30 1185 H 113.795 1.95683 2.26998 0
M  V30 1186 H 111.356 1.16303 1.12629 0
M  V30 1187 H 113.348 0.151516 4.04416 0
M  V30 1188 H 111.918 -0.347989 3.10657 0
M  V30 1189 H 111.138 2.12872 3.31782 0
M  V30 1190 H 112.426 2.34252 4.51667 0
M  V30 1191 H 111.824 -0.640985 5.62057 0
M  V30 1192 H 110.381 -0.355395 6.5083 0
M  V30 1193 N 113.814 -1.1601 1.06675 0
M  V30 1194 C 115.225 -1.68235 0.809565 0
M  V30 1195 C 115.576 -1.8454 -0.666303 0
M  V30 1196 O 114.701 -1.54374 -1.5165 0
M  V30 1197 C 115.296 -3.05585 1.46299 0
M  V30 1198 C 113.855 -3.54915 1.25349 0
M  V30 1199 C 113.002 -2.30804 1.53703 0
M  V30 1200 H 115.953 -1.00318 1.22971 0
M  V30 1201 H 115.974 -3.70174 0.880431 0
M  V30 1202 H 115.486 -2.93686 2.53713 0
M  V30 1203 H 113.587 -3.72067 0.199261 0
M  V30 1204 H 113.7 -4.36774 1.9689 0
M  V30 1205 H 112.064 -2.36007 0.957739 0
M  V30 1206 H 112.847 -2.21499 2.62284 0
M  V30 1207 N 115.292 -0.849877 -1.32721 0
M  V30 1208 C 116.539 -0.450923 -1.97416 0
M  V30 1209 C 116.867 0.992376 -1.67279 0
M  V30 1210 O 116.122 1.71048 -0.950845 0
M  V30 1211 C 116.421 -0.631272 -3.51781 0
M  V30 1212 C 116.087 -2.04432 -4.01894 0
M  V30 1213 C 114.749 -2.4308 -4.1529 0
M  V30 1214 C 117.101 -2.96679 -4.28522 0
M  V30 1215 C 114.429 -3.73257 -4.52654 0
M  V30 1216 C 116.781 -4.26349 -4.67343 0
M  V30 1217 C 115.445 -4.64939 -4.78945 0
M  V30 1218 H 114.715 -0.165004 -0.722395 0
M  V30 1219 H 117.362 -1.07901 -1.58207 0
M  V30 1220 H 115.667 0.0800767 -3.91718 0
M  V30 1221 H 117.364 -0.302709 -3.99856 0
M  V30 1222 H 113.954 -1.73419 -3.91949 0
M  V30 1223 H 118.138 -2.68054 -4.17685 0
M  V30 1224 H 113.394 -4.02946 -4.59831 0
M  V30 1225 H 117.568 -4.97895 -4.86902 0
M  V30 1226 H 115.195 -5.65855 -5.07654 0
M  V30 1227 N 116.77 1.45427 -0.607355 0
M  V30 1228 C 118.181 1.85756 -0.187535 0
M  V30 1229 C 118.532 1.5077 1.25551 0
M  V30 1230 O 117.657 0.93427 1.95193 0
M  V30 1231 C 118.252 3.37154 -0.333572 0
M  V30 1232 C 116.811 3.76387 0.0315542 0
M  V30 1233 C 115.958 2.69377 -0.658117 0
M  V30 1234 H 118.909 1.36231 -0.81405 0
M  V30 1235 H 118.93 3.78014 0.43428 0
M  V30 1236 H 118.442 3.62586 -1.38393 0
M  V30 1237 H 116.543 3.56571 1.0811 0
M  V30 1238 H 116.656 4.77731 -0.361935 0
M  V30 1239 H 115.02 2.5452 -0.0957873 0
M  V30 1240 H 115.803 2.97646 -1.7106 0
M  V30 1241 N 118.248 0.346503 1.53744 0
M  V30 1242 C 119.664 -0.00530975 1.59599 0
M  V30 1243 C 119.864 -1.48465 1.36236 0
M  V30 1244 O 118.92 -2.24376 1.15808 0
M  V30 1245 C 120.233 0.433516 2.97559 0
M  V30 1246 C 121.781 0.386111 3.10609 0
M  V30 1247 C 122.256 0.800451 4.50951 0
M  V30 1248 N 123.747 0.754753 4.5701 0
M  V30 1249 C 124.482 1.04727 5.63755 0
M  V30 1250 N 123.978 1.4081 6.7834 0
M  V30 1251 N 125.771 0.971316 5.53644 0
M  V30 1252 H 117.922 1.31009 1.67184 0
M  V30 1253 H 120.185 0.534242 0.783128 0
M  V30 1254 H 119.891 1.46509 3.19731 0
M  V30 1255 H 119.765 -0.189753 3.76722 0
M  V30 1256 H 122.152 -0.636295 2.88158 0
M  V30 1257 H 122.233 1.04462 2.33498 0
M  V30 1258 H 121.877 1.82088 4.74137 0
M  V30 1259 H 121.807 0.119386 5.26465 0
M  V30 1260 H 124.298 0.488662 3.74727 0
M  V30 1261 H 124.611 1.61607 7.55714 0
M  V30 1262 H 122.956 1.44657 6.79779 0
M  V30 1263 H 126.147 0.688748 4.63005 0
M  V30 1264 H 126.32 1.20263 6.36742 0
M  V30 1265 N 119.726 -1.57421 0.075193 0
M  V30 1266 C 121.137 -1.81021 -0.456964 0
M  V30 1267 C 121.488 -0.98936 -1.69429 0
M  V30 1268 O 120.613 -0.212865 -2.15351 0
M  V30 1269 C 121.208 -3.28329 -0.83581 0
M  V30 1270 C 119.767 -3.52764 -1.31281 0
M  V30 1271 C 118.914 -2.75676 -0.299648 0
M  V30 1272 H 121.865 -1.55822 0.300856 0
M  V30 1273 H 121.886 -3.40564 -1.69696 0
M  V30 1274 H 121.398 -3.88046 0.0649238 0
M  V30 1275 H 119.499 -2.98355 -2.23193 0
M  V30 1276 H 119.612 -4.61451 -1.28839 0
M  V30 1277 H 117.976 -2.42538 -0.777641 0
M  V30 1278 H 118.759 -3.38132 0.593417 0
M  V30 1279 N 121.204 0.198386 -1.56346 0
M  V30 1280 C 122.481 0.944982 -1.71258 0
M  V30 1281 C 122.861 2.0151 -0.629048 0
M  V30 1282 O 122.209 2.25639 0.360473 0
M  V30 1283 C 122.419 1.5344 -3.1346 0
M  V30 1284 C 123.767 2.01778 -3.73591 0
M  V30 1285 O 124.791 1.63288 -3.16568 0
M  V30 1286 O 123.65 2.72594 -4.73661 0
M  V30 1287 H 120.744 0.442939 -0.69838 0
M  V30 1288 H 123.29 0.188342 -1.68652 0
M  V30 1289 H 122.062 0.762869 -3.83792 0
M  V30 1290 H 121.685 2.35596 -3.20282 0
M  V30 1291 N 122.682 1.50554 0.465978 0
M  V30 1292 C 123.912 1.65323 1.23903 0
M  V30 1293 C 124.32 0.338051 1.86155 0
M  V30 1294 O 123.663 -0.690518 1.70228 0
M  V30 1295 C 123.725 2.69048 2.3844 0
M  V30 1296 C 123.389 4.12462 1.96784 0
M  V30 1297 C 124.386 4.98168 1.48745 0
M  V30 1298 C 122.071 4.58407 2.05349 0
M  V30 1299 C 124.065 6.27868 1.0982 0
M  V30 1300 C 121.752 5.88112 1.66035 0
M  V30 1301 C 122.75 6.72668 1.18349 0
M  V30 1302 O 122.438 7.99951 0.795825 0
M  V30 1303 H 122.17 0.558629 0.38067 0
M  V30 1304 H 124.724 1.97561 0.562022 0
M  V30 1305 H 122.954 2.32062 3.09328 0
M  V30 1306 H 124.643 2.72985 3.0039 0
M  V30 1307 H 125.409 4.63885 1.41546 0
M  V30 1308 H 121.288 3.92735 2.41414 0
M  V30 1309 H 124.832 6.93819 0.725293 0
M  V30 1310 H 120.729 6.21914 1.72895 0
M  V30 1311 H 121.497 8.13265 0.924222 0
M  V30 1312 N 124.16 -0.719506 1.40217 0
M  V30 1313 C 125.437 -1.47221 1.28784 0
M  V30 1314 C 125.817 -2.10883 -0.0956067 0
M  V30 1315 O 125.165 -1.99833 -1.10811 0
M  V30 1316 C 125.375 -2.5111 2.42373 0
M  V30 1317 C 126.723 -3.17053 2.82423 0
M  V30 1318 O 127.747 -2.61429 2.41937 0
M  V30 1319 O 126.606 -4.17742 3.52355 0
M  V30 1320 H 123.7 -0.654491 0.50554 0
M  V30 1321 H 126.246 -0.752014 1.52128 0
M  V30 1322 H 125.018 -2.02556 3.34793 0
M  V30 1323 H 124.641 -3.3067 2.20778 0
M  V30 1324 N 125.638 -1.25649 -0.95132 0
M  V30 1325 C 126.885 -1.10594 -1.69633 0
M  V30 1326 C 127.213 0.352515 -1.91279 0
M  V30 1327 O 126.468 1.27601 -1.4838 0
M  V30 1328 C 126.767 -1.80909 -3.08231 0
M  V30 1329 C 126.433 -3.30825 -3.06375 0
M  V30 1330 C 125.095 -3.71722 -3.05576 0
M  V30 1331 C 127.447 -4.26589 -2.99452 0
M  V30 1332 C 124.775 -5.06788 -2.95606 0
M  V30 1333 C 127.127 -5.61683 -2.91024 0
M  V30 1334 C 125.791 -6.01904 -2.88562 0
M  V30 1335 H 125.061 -0.404691 -0.620731 0
M  V30 1336 H 127.708 -1.55964 -1.11119 0
M  V30 1337 H 126.013 -1.27979 -3.70309 0
M  V30 1338 H 127.71 -1.6671 -3.64704 0
M  V30 1339 H 124.3 -2.98287 -3.07771 0
M  V30 1340 H 128.484 -3.95982 -2.99185 0
M  V30 1341 H 123.74 -5.37126 -2.92071 0
M  V30 1342 H 127.914 -6.35578 -2.84629 0
M  V30 1343 H 125.541 -7.06521 -2.80593 0
M  V30 1344 N 127.117 1.15442 -1.07289 0
M  V30 1345 C 128.08 2.18358 -0.696591 0
M  V30 1346 C 129.08 1.58637 0.262837 0
M  V30 1347 O 130.27 1.74145 0.0438809 0
M  V30 1348 C 127.402 3.4089 -0.0266151 0
M  V30 1349 H 128.595 2.53162 -1.60776 0
M  V30 1350 H 126.148 1.29893 -0.869342 0
M  V30 1351 H 126.883 3.11653 0.896822 0
M  V30 1352 H 126.668 3.85495 -0.716657 0
M  V30 1353 H 128.158 4.17009 0.222028 0
M  V30 1354 N 128.595 0.856903 1.32268 0
M  V30 1355 C 129.872 0.382583 1.91822 0
M  V30 1356 C 130.252 -1.13407 1.78051 0
M  V30 1357 O 129.6 -1.95673 1.18001 0
M  V30 1358 C 129.81 0.849446 3.38505 0
M  V30 1359 C 131.158 0.867936 4.15634 0
M  V30 1360 O 132.182 0.794232 3.47232 0
M  V30 1361 O 131.041 0.972286 5.37781 0
M  V30 1362 H 128.135 0.112014 0.819379 0
M  V30 1363 H 130.681 0.943952 1.41024 0
M  V30 1364 H 129.453 1.89267 3.42482 0
M  V30 1365 H 129.076 0.265652 3.96712 0
M  V30 1366 N 130.073 -1.45103 0.615059 0
M  V30 1367 C 131.322 -2.01396 0.110718 0
M  V30 1368 C 131.635 -1.48834 -1.26916 0
M  V30 1369 O 132.841 -1.97152 -1.86664 0
M  V30 1370 C 131.297 -3.59599 0.14723 0
M  V30 1371 C 130.905 -4.21158 1.52743 0
M  V30 1372 C 132.649 -4.23428 -0.30148 0
M  V30 1373 C 130.556 -5.71535 1.51992 0
M  V30 1374 H 129.486 -0.753061 0.0376241 0
M  V30 1375 H 132.137 -1.66494 0.77149 0
M  V30 1376 H 130.519 -3.91724 -0.580339 0
M  V30 1377 H 131.693 -4.00594 2.2773 0
M  V30 1378 H 130.008 -3.69552 1.91886 0
M  V30 1379 H 132.605 -5.33703 -0.326392 0
M  V30 1380 H 132.948 -3.94629 -1.32565 0
M  V30 1381 H 133.481 -3.96047 0.373065 0
M  V30 1382 H 130.22 -6.05044 2.52193 0
M  V30 1383 H 129.74 -5.94268 0.81274 0
M  V30 1384 H 131.419 -6.34873 1.24681 0
M  V30 1385 N 131.551 -0.354651 -1.53558 0
M  V30 1386 C 132.797 0.238797 -2.01389 0
M  V30 1387 C 133.13 1.49309 -1.2418 0
M  V30 1388 O 132.405 1.91638 -0.332457 0
M  V30 1389 C 132.688 0.541771 -3.56001 0
M  V30 1390 C 132.541 -0.725388 -4.43912 0
M  V30 1391 C 133.86 1.34685 -4.18984 0
M  V30 1392 H 130.979 0.0853177 -0.732045 0
M  V30 1393 H 133.621 -0.477384 -1.83905 0
M  V30 1394 H 131.771 1.15189 -3.71031 0
M  V30 1395 H 133.443 -1.36313 -4.407 0
M  V30 1396 H 131.686 -1.34801 -4.12324 0
M  V30 1397 H 132.357 -0.468505 -5.50008 0
M  V30 1398 H 134.833 0.830837 -4.07721 0
M  V30 1399 H 133.709 1.52759 -5.27215 0
M  V30 1400 H 133.97 2.35221 -3.74331 0
M  V30 1401 N 133.029 1.57378 -0.0835403 0
M  V30 1402 C 134.277 1.93547 0.581718 0
M  V30 1403 C 134.598 0.96524 1.69435 0
M  V30 1404 O 133.868 0.0153369 1.95894 0
M  V30 1405 H 132.448 0.714521 0.217874 0
M  V30 1406 H 135.11 1.94366 -0.144158 0
M  V30 1407 H 134.206 2.95665 0.999423 0
M  V30 1408 N 134.507 -0.190092 1.56449 0
M  V30 1409 C 135.735 -0.925772 1.85033 0
M  V30 1410 C 136.15 -1.76638 0.666658 0
M  V30 1411 O 135.507 -1.78822 -0.364565 0
M  V30 1412 C 135.558 -1.81786 3.12468 0
M  V30 1413 O 135.279 -1.01118 4.26271 0
M  V30 1414 C 136.78 -2.6648 3.54265 0
M  V30 1415 H 134 -0.269872 0.614337 0
M  V30 1416 H 136.544 -0.195837 2.0356 0
M  V30 1417 H 134.699 -2.50136 2.95822 0
M  V30 1418 H 135.113 -1.61956 4.98869 0
M  V30 1419 H 136.587 -3.24722 4.46385 0
M  V30 1420 H 137.064 -3.40434 2.77491 0
M  V30 1421 H 137.67 -2.03493 3.73458 0
M  V30 1422 N 135.985 -1.50799 -0.457987 0
M  V30 1423 C 137.233 -1.62121 -1.2067 0
M  V30 1424 C 137.554 -0.329793 -1.92191 0
M  V30 1425 O 136.824 0.653409 -1.84682 0
M  V30 1426 H 135.404 -0.597441 -0.448411 0
M  V30 1427 H 138.066 -1.87637 -0.527096 0
M  V30 1428 H 137.162 -2.43882 -1.94751 0
M  V30 1429 N 137.463 0.71206 -1.40597 0
M  V30 1430 C 138.711 1.46907 -1.38791 0
M  V30 1431 C 139.032 1.94998 0.00780391 0
M  V30 1432 O 138.302 1.70587 0.963174 0
M  V30 1433 H 136.882 0.545043 -0.51082 0
M  V30 1434 H 139.544 0.843882 -1.75683 0
M  V30 1435 H 138.64 2.34021 -2.06496 0
M  V30 1436 N 138.941 1.26152 0.944643 0
M  V30 1437 C 140.218 1.02247 1.66748 0
M  V30 1438 C 140.598 -0.448202 2.06287 0
M  V30 1439 O 139.946 -1.42779 1.78399 0
M  V30 1440 C 140.156 1.96788 2.88228 0
M  V30 1441 C 141.504 2.25201 3.59958 0
M  V30 1442 O 142.528 1.94626 2.98327 0
M  V30 1443 O 141.387 2.77242 4.70956 0
M  V30 1444 H 138.481 0.388517 0.730057 0
M  V30 1445 H 141.027 1.37348 0.99668 0
M  V30 1446 H 139.799 2.96047 2.55875 0
M  V30 1447 H 139.422 1.62145 3.63035 0
M  V30 1448 N 140.419 -1.14872 1.07899 0
M  V30 1449 C 141.667 -1.85422 0.803941 0
M  V30 1450 C 141.988 -1.83051 -0.67211 0
M  V30 1451 O 141.258 -1.27532 -1.48703 0
M  V30 1452 H 139.838 -0.686537 0.294408 0
M  V30 1453 H 142.5 -1.39226 1.3639 0
M  V30 1454 H 141.596 -2.90399 1.14346 0
M  V30 1455 N 141.898 -0.863906 -1.31812 0
M  V30 1456 C 143.126 -0.486111 -2.01108 0
M  V30 1457 C 143.541 0.919755 -1.64882 0
M  V30 1458 O 142.898 1.60162 -0.874893 0
M  V30 1459 C 142.949 -0.626435 -3.56031 0
M  V30 1460 O 142.67 -1.97693 -3.90959 0
M  V30 1461 C 144.171 -0.248857 -4.42601 0
M  V30 1462 H 141.391 -0.190052 -0.643523 0
M  V30 1463 H 143.935 -1.1634 -1.68182 0
M  V30 1464 H 142.09 0.00322717 -3.874 0
M  V30 1465 H 142.504 -1.98034 -4.85678 0
M  V30 1466 H 143.978 -0.398016 -5.50563 0
M  V30 1467 H 144.455 0.811489 -4.31638 0
M  V30 1468 H 145.061 -0.853971 -4.16638 0
M  V30 1469 N 143.376 1.44774 -0.622745 0
M  V30 1470 C 144.324 2.32387 0.0994683 0
M  V30 1471 C 145.318 1.46859 0.844326 0
M  V30 1472 O 146.524 1.63254 0.758174 0
M  V30 1473 H 142.899 0.750273 0.0509291 0
M  V30 1474 H 144.87 2.91062 -0.65767 0
M  V30 1475 C 143.619 3.30723 1.07319 0
M  V30 1476 H 142.942 3.96541 0.509462 0
M  V30 1477 H 144.382 3.94725 1.54817 0
M  V30 1478 C 142.841 2.59021 2.15429 0
M  V30 1479 O 143.371 2.38286 3.23393 0
M  V30 1480 N 141.577 2.189 1.91131 0
M  V30 1481 H 141.124 2.35964 1.03337 0
M  V30 1482 H 141.082 1.71251 2.63668 0
M  V30 1483 N 144.854 0.36279 1.53368 0
M  V30 1484 C 146.079 -0.231226 2.06107 0
M  V30 1485 C 146.504 -1.419 1.23474 0
M  V30 1486 O 145.862 -1.79524 0.253128 0
M  V30 1487 C 145.91 -0.605523 3.5548 0
M  V30 1488 O 145.014 -1.70312 3.7559 0
M  V30 1489 H 144.355 -0.034327 0.663112 0
M  V30 1490 H 146.885 0.522584 1.97814 0
M  V30 1491 H 146.895 -0.877314 3.98456 0
M  V30 1492 H 145.57 0.263004 4.15068 0
M  V30 1493 H 144.147 -1.4271 3.44512 0
M  V30 1494 N 146.332 -1.57332 0.0918853 0
M  V30 1495 C 147.581 -1.93412 -0.572249 0
M  V30 1496 C 147.894 -0.975515 -1.69538 0
M  V30 1497 O 149.1 -1.22991 -2.42045 0
M  V30 1498 C 147.556 -3.43648 -1.0693 0
M  V30 1499 C 147.164 -4.47994 0.0239049 0
M  V30 1500 C 148.908 -3.88695 -1.70635 0
M  V30 1501 C 146.815 -5.89381 -0.488319 0
M  V30 1502 H 145.745 -0.721939 -0.217532 0
M  V30 1503 H 148.396 -1.82735 0.167369 0
M  V30 1504 H 146.778 -3.49466 -1.8625 0
M  V30 1505 H 147.952 -4.53815 0.799277 0
M  V30 1506 H 146.267 -4.12536 0.565946 0
M  V30 1507 H 148.864 -4.91725 -2.10025 0
M  V30 1508 H 149.207 -3.27166 -2.57426 0
M  V30 1509 H 149.74 -3.85564 -0.979023 0
M  V30 1510 H 146.479 -6.54602 0.342906 0
M  V30 1511 H 145.999 -5.87037 -1.23077 0
M  V30 1512 H 147.678 -6.39863 -0.958317 0
M  V30 1513 N 147.81 0.181792 -1.56548 0
M  V30 1514 C 148.758 1.24461 -1.965 0
M  V30 1515 C 149.752 1.464 -0.852261 0
M  V30 1516 O 150.958 1.47103 -1.03733 0
M  V30 1517 H 147.333 0.418138 -0.625031 0
M  V30 1518 H 149.304 0.880714 -2.85107 0
M  V30 1519 C 148.053 2.57891 -2.33212 0
M  V30 1520 H 147.376 2.41829 -3.18369 0
M  V30 1521 H 148.816 3.3097 -2.65019 0
M  V30 1522 C 147.275 3.15871 -1.17163 0
M  V30 1523 O 147.805 3.9913 -0.453708 0
M  V30 1524 N 146.011 2.74808 -0.944936 0
M  V30 1525 H 145.558 2.07205 -1.53049 0
M  V30 1526 H 145.516 3.13939 -0.170286 0
M  V30 1527 N 149.288 1.51039 0.449983 0
M  V30 1528 C 150.537 1.62317 1.19733 0
M  V30 1529 C 150.85 0.339101 1.92638 0
M  V30 1530 O 152.056 0.331069 2.69474 0
M  V30 1531 C 150.512 2.86608 2.17678 0
M  V30 1532 C 150.12 4.21972 1.50479 0
M  V30 1533 C 151.864 3.07239 2.92924 0
M  V30 1534 C 149.771 5.37426 2.46834 0
M  V30 1535 H 148.701 0.604532 0.450619 0
M  V30 1536 H 151.352 1.77494 0.465625 0
M  V30 1537 H 149.734 2.65037 2.94231 0
M  V30 1538 H 150.908 4.53878 0.795716 0
M  V30 1539 H 149.223 4.07117 0.874344 0
M  V30 1540 H 151.82 3.90668 3.65079 0
M  V30 1541 H 152.163 2.19807 3.5354 0
M  V30 1542 H 152.696 3.29091 2.23481 0
M  V30 1543 H 149.435 6.27079 1.90926 0
M  V30 1544 H 148.955 5.09912 3.15832 0
M  V30 1545 H 150.634 5.68862 3.08228 0
M  V30 1546 N 150.766 -0.704594 1.40972 0
M  V30 1547 C 151.991 -1.49858 1.43378 0
M  V30 1548 C 152.416 -1.88061 0.038184 0
M  V30 1549 O 151.774 -1.5402 -0.956425 0
M  V30 1550 C 151.822 -2.74333 2.34038 0
M  V30 1551 O 150.926 -3.7147 1.7912 0
M  V30 1552 H 150.267 -0.45139 0.486974 0
M  V30 1553 H 152.797 -0.866832 1.8533 0
M  V30 1554 H 152.807 -3.22741 2.49604 0
M  V30 1555 H 151.482 -2.45863 3.35446 0
M  V30 1556 H 150.059 -3.30363 1.72958 0
M  V30 1557 N 152.244 -1.26651 -0.937939 0
M  V30 1558 C 153.472 -1.15173 -1.7188 0
M  V30 1559 C 153.887 0.292668 -1.86518 0
M  V30 1560 O 153.244 1.20014 -1.37488 0
M  V30 1561 C 153.295 -1.81925 -3.12387 0
M  V30 1562 O 153.016 -3.2072 -2.98446 0
M  V30 1563 C 154.517 -1.76442 -4.06673 0
M  V30 1564 H 151.737 -0.400911 -0.538063 0
M  V30 1565 H 154.281 -1.67332 -1.1756 0
M  V30 1566 H 152.436 -1.33696 -3.63599 0
M  V30 1567 H 152.85 -3.53802 -3.872 0
M  V30 1568 H 154.324 -2.27781 -5.02812 0
M  V30 1569 H 154.801 -0.731608 -4.33064 0
M  V30 1570 H 155.407 -2.24238 -3.61382 0
M  V30 1571 N 153.722 1.14298 -1.08507 0
M  V30 1572 C 154.685 2.17607 -0.719711 0
M  V30 1573 C 155.685 1.58907 0.245997 0
M  V30 1574 O 156.875 1.74181 0.0254081 0
M  V30 1575 C 154.007 3.40842 -0.0627695 0
M  V30 1576 H 155.2 2.51443 -1.63452 0
M  V30 1577 H 152.753 1.28963 -0.88307 0
M  V30 1578 H 153.488 3.12587 0.863716 0
M  V30 1579 H 153.273 3.84713 -0.757504 0
M  V30 1580 H 154.763 4.17221 0.177786 0
M  V30 1581 N 155.201 0.870884 1.31352 0
M  V30 1582 C 156.426 0.495957 2.01383 0
M  V30 1583 C 156.851 -0.904324 1.64935 0
M  V30 1584 O 156.209 -1.59687 0.858466 0
M  V30 1585 C 156.257 0.661433 3.54482 0
M  V30 1586 O 155.361 -0.298851 4.11316 0
M  V30 1587 H 154.702 0.197158 0.634054 0
M  V30 1588 H 157.232 1.17455 1.67527 0
M  V30 1589 H 157.242 0.555072 4.04207 0
M  V30 1590 H 155.917 1.68246 3.8035 0
M  V30 1591 H 154.494 -0.147368 3.72609 0
M  V30 1592 N 156.679 -1.44442 0.630414 0
M  V30 1593 C 157.642 -2.29107 -0.0652523 0
M  V30 1594 C 158.642 -1.41002 -0.772995 0
M  V30 1595 O 159.832 -1.62881 -0.617692 0
M  V30 1596 C 156.964 -3.22564 -1.10296 0
M  V30 1597 H 158.157 -2.92103 0.679401 0
M  V30 1598 H 155.71 -1.51343 0.390517 0
M  V30 1599 H 156.445 -2.64416 -1.87762 0
M  V30 1600 H 156.23 -3.87491 -0.59941 0
M  V30 1601 H 157.72 -3.86167 -1.5895 0
M  V30 1602 N 158.157 -0.370918 -1.53173 0
M  V30 1603 C 159.404 0.217102 -2.01333 0
M  V30 1604 C 159.732 1.48338 -1.25802 0
M  V30 1605 O 158.987 1.92698 -0.34146 0
M  V30 1606 C 159.286 0.549696 -3.53147 0
M  V30 1607 C 158.952 -0.622872 -4.46577 0
M  V30 1608 C 157.614 -0.944595 -4.71838 0
M  V30 1609 C 159.966 -1.40819 -5.01816 0
M  V30 1610 C 157.294 -2.05351 -5.49589 0
M  V30 1611 C 159.646 -2.50757 -5.80778 0
M  V30 1612 C 158.31 -2.83458 -6.04324 0
M  V30 1613 H 157.58 0.0794431 -0.736729 0
M  V30 1614 H 160.227 -0.504481 -1.84736 0
M  V30 1615 H 158.532 1.35237 -3.6772 0
M  V30 1616 H 160.229 1.017 -3.87889 0
M  V30 1617 H 156.819 -0.36209 -4.27068 0
M  V30 1618 H 161.003 -1.17289 -4.82242 0
M  V30 1619 H 156.259 -2.3108 -5.6605 0
M  V30 1620 H 160.433 -3.12022 -6.22588 0
M  V30 1621 H 158.06 -3.69508 -6.64355 0
M  V30 1622 N 159.635 1.57281 -0.100228 0
M  V30 1623 C 160.881 1.94826 0.563101 0
M  V30 1624 C 161.214 0.982475 1.67514 0
M  V30 1625 O 160.489 0.0164069 1.94493 0
M  V30 1626 C 160.772 3.42453 1.11346 0
M  V30 1627 C 160.625 4.498 0.00612081 0
M  V30 1628 C 161.944 3.91506 2.01024 0
M  V30 1629 H 159.063 0.708428 0.203221 0
M  V30 1630 H 161.705 1.8922 -0.171979 0
M  V30 1631 H 159.855 3.47361 1.7399 0
M  V30 1632 H 161.527 4.57 -0.628357 0
M  V30 1633 H 159.77 4.28756 -0.659581 0
M  V30 1634 H 160.441 5.50306 0.432109 0
M  V30 1635 H 162.917 3.88784 1.48278 0
M  V30 1636 H 161.793 4.95358 2.36457 0
M  V30 1637 H 162.054 3.31099 2.92961 0
M  V30 1638 N 161.113 -0.173488 1.56642 0
M  V30 1639 C 162.076 -1.19859 1.95362 0
M  V30 1640 C 163.076 -1.37296 0.83704 0
M  V30 1641 O 164.266 -1.34739 1.10413 0
M  V30 1642 C 161.398 -2.56405 2.24654 0
M  V30 1643 H 162.591 -0.867062 2.87092 0
M  V30 1644 H 160.144 -0.415853 1.50666 0
M  V30 1645 H 160.879 -2.94576 1.35631 0
M  V30 1646 H 160.664 -2.45115 3.06041 0
M  V30 1647 H 162.154 -3.30287 2.5554 0
M  V30 1648 N 162.591 -1.51276 -0.441967 0
M  V30 1649 C 163.554 -1.7167 -1.51862 0
M  V30 1650 C 164.554 -0.586793 -1.49711 0
M  V30 1651 O 165.744 -0.854276 -1.51815 0
M  V30 1652 C 162.876 -1.76889 -2.91416 0
M  V30 1653 H 164.069 -2.67754 -1.35084 0
M  V30 1654 H 161.622 -1.41196 -0.670333 0
M  V30 1655 H 162.357 -0.826026 -3.13604 0
M  V30 1656 H 162.142 -2.59001 -2.94382 0
M  V30 1657 H 163.632 -1.94522 -3.69528 0
M  V30 1658 N 164.069 0.697108 -1.41344 0
M  V30 1659 C 165.294 1.49096 -1.44171 0
M  V30 1660 C 165.719 1.88038 -0.0481568 0
M  V30 1661 O 165.077 1.54525 0.948243 0
M  V30 1662 C 165.125 2.73088 -2.3549 0
M  V30 1663 O 164.229 3.70514 -1.81088 0
M  V30 1664 H 163.57 0.448801 -0.489361 0
M  V30 1665 H 166.1 0.856992 -1.85787 0
M  V30 1666 H 166.11 3.21413 -2.51312 0
M  V30 1667 H 164.785 2.44081 -3.36745 0
M  V30 1668 H 163.362 3.29441 -1.74708 0
M  V30 1669 N 165.547 1.27147 0.931209 0
M  V30 1670 C 166.787 1.14511 1.69312 0
M  V30 1671 C 167.151 -0.304638 1.89568 0
M  V30 1672 O 168.352 -0.553343 2.63043 0
M  V30 1673 C 166.623 1.90349 3.02493 0
M  V30 1674 S 168.182 1.93884 3.93642 0
M  V30 1675 H 165 0.408858 0.581684 0
M  V30 1676 H 167.602 1.61006 1.10893 0
M  V30 1677 H 166.306 2.94877 2.85439 0
M  V30 1678 H 165.837 1.44333 3.65966 0
M  V30 1679 H 167.852 1.03273 4.85334 0
M  V30 1680 N 167.025 -1.13721 1.09112 0
M  V30 1681 C 168.273 -1.84559 0.823562 0
M  V30 1682 C 168.594 -1.83754 -0.652658 0
M  V30 1683 O 167.864 -1.29102 -1.47342 0
M  V30 1684 H 166.444 -0.683376 0.301673 0
M  V30 1685 H 169.106 -1.37771 1.37859 0
M  V30 1686 H 168.202 -2.8917 1.17419 0
M  V30 1687 N 168.503 -0.877838 -1.30888 0
M  V30 1688 C 169.466 -0.344265 -2.266 0
M  V30 1689 C 170.466 0.50922 -1.52524 0
M  V30 1690 O 171.656 0.317398 -1.71284 0
M  V30 1691 C 168.788 0.510198 -3.37061 0
M  V30 1692 H 169.981 -1.1893 -2.7531 0
M  V30 1693 H 167.534 -0.654088 -1.41956 0
M  V30 1694 H 168.269 1.37612 -2.93655 0
M  V30 1695 H 168.054 -0.101047 -3.9197 0
M  V30 1696 H 169.544 0.875537 -4.08319 0
M  V30 1697 N 169.982 1.44106 -0.638065 0
M  V30 1698 C 170.929 2.30715 0.062701 0
M  V30 1699 C 171.899 1.43882 0.829883 0
M  V30 1700 O 173.084 1.72775 0.809532 0
M  V30 1701 C 170.224 3.29258 1.03358 0
M  V30 1702 C 169.337 4.31192 0.26409 0
M  V30 1703 C 168.472 5.16825 1.22741 0
M  V30 1704 C 167.511 6.10462 0.447475 0
M  V30 1705 N 166.648 6.8877 1.36161 0
M  V30 1706 H 171.488 2.90096 -0.681781 0
M  V30 1707 H 169.025 1.42925 -0.347988 0
M  V30 1708 H 170.983 3.84886 1.60992 0
M  V30 1709 H 169.613 2.71562 1.74511 0
M  V30 1710 H 168.665 3.77981 -0.428295 0
M  V30 1711 H 169.977 4.97619 -0.343052 0
M  V30 1712 H 169.131 5.77004 1.87487 0
M  V30 1713 H 167.87 4.50488 1.86847 0
M  V30 1714 H 166.875 5.49386 -0.213433 0
M  V30 1715 H 168.1 6.78837 -0.188968 0
M  V30 1716 H 166.046 6.25096 1.98975 0
M  V30 1717 H 165.963 7.51663 0.808656 0
M  V30 1718 H 167.231 7.53467 1.99769 0
M  V30 1719 N 171.46 0.379036 1.52974 0
M  V30 1720 C 172.706 -0.206727 2.01744 0
M  V30 1721 C 173.039 -1.47314 1.26539 0
M  V30 1722 O 172.314 -1.91084 0.362903 0
M  V30 1723 C 172.597 -0.485066 3.56818 0
M  V30 1724 C 172.45 0.795919 4.42702 0
M  V30 1725 C 173.769 -1.28003 4.21074 0
M  V30 1726 H 170.888 -0.0736607 0.73331 0
M  V30 1727 H 173.53 0.506581 1.83122 0
M  V30 1728 H 171.68 -1.09272 3.72816 0
M  V30 1729 H 173.352 1.43307 4.38476 0
M  V30 1730 H 171.595 1.41344 4.10127 0
M  V30 1731 H 172.266 0.555947 5.49193 0
M  V30 1732 H 174.742 -0.765867 4.08991 0
M  V30 1733 H 173.618 -1.44352 5.29579 0
M  V30 1734 H 173.879 -2.29236 3.78026 0
M  V30 1735 N 172.938 -1.57226 0.108567 0
M  V30 1736 C 173.901 -2.13602 -0.831082 0
M  V30 1737 C 174.901 -1.06841 -1.20173 0
M  V30 1738 O 176.091 -1.32666 -1.12895 0
M  V30 1739 C 173.223 -2.66769 -2.12243 0
M  V30 1740 H 174.416 -2.97951 -0.341317 0
M  V30 1741 H 171.969 -1.55667 -0.14057 0
M  V30 1742 H 172.704 -1.85977 -2.65675 0
M  V30 1743 H 172.489 -3.44839 -1.86625 0
M  V30 1744 H 173.979 -3.10332 -2.79435 0
M  V30 1745 N 174.416 0.165178 -1.56732 0
M  V30 1746 C 175.363 1.2044 -1.96883 0
M  V30 1747 C 176.333 1.43664 -0.833657 0
M  V30 1748 O 177.518 1.56302 -1.09427 0
M  V30 1749 C 174.658 2.53727 -2.33916 0
M  V30 1750 C 173.771 2.3783 -3.6064 0
M  V30 1751 C 172.906 3.64026 -3.86857 0
M  V30 1752 C 171.945 3.43088 -5.06909 0
M  V30 1753 N 171.082 4.61369 -5.29229 0
M  V30 1754 H 175.922 0.854996 -2.85471 0
M  V30 1755 H 173.459 0.41076 -1.41249 0
M  V30 1756 H 175.417 3.31419 -2.53411 0
M  V30 1757 H 174.047 2.8665 -1.48431 0
M  V30 1758 H 173.099 1.51282 -3.49024 0
M  V30 1759 H 174.411 2.18308 -4.4849 0
M  V30 1760 H 173.565 4.50152 -4.06753 0
M  V30 1761 H 172.304 3.86533 -2.97394 0
M  V30 1762 H 171.309 2.55349 -4.86906 0
M  V30 1763 H 172.534 3.21997 -5.97909 0
M  V30 1764 H 170.48 4.84084 -4.42718 0
M  V30 1765 H 170.397 4.44783 -6.11313 0
M  V30 1766 H 171.665 5.48761 -5.53608 0
M  V30 1767 N 175.894 1.51508 0.433938 0
M  V30 1768 C 176.844 1.69451 1.52546 0
M  V30 1769 C 177.828 0.548474 1.51263 0
M  V30 1770 O 179.02 0.804529 1.57659 0
M  V30 1771 C 176.149 1.82604 2.90707 0
M  V30 1772 C 175.235 3.03002 2.96733 0
M  V30 1773 N 175.626 4.26121 2.72496 0
M  V30 1774 C 173.924 3.02327 3.27894 0
M  V30 1775 C 174.625 5.07407 2.84452 0
M  V30 1776 N 173.601 4.42126 3.16269 0
M  V30 1777 H 177.403 2.62305 1.32564 0
M  V30 1778 H 174.917 1.49202 0.641297 0
M  V30 1779 H 176.914 1.93569 3.69238 0
M  V30 1780 H 175.574 0.909339 3.11707 0
M  V30 1781 H 176.585 4.55009 2.4736 0
M  V30 1782 H 173.262 2.20301 3.54646 0
M  V30 1783 H 174.652 6.15422 2.69639 0
M  V30 1784 N 177.372 -0.689602 1.41712 0
M  V30 1785 C 178.62 -1.4468 1.4111 0
M  V30 1786 C 178.941 -1.94986 0.0232196 0
M  V30 1787 O 178.211 -1.72097 -0.935913 0
M  V30 1788 H 176.791 -0.536847 0.519427 0
M  V30 1789 H 179.453 -0.815825 1.77004 0
M  V30 1790 H 178.549 -2.30706 2.10193 0
M  V30 1791 N 178.85 -1.27639 -0.924453 0
M  V30 1792 C 179.798 -1.10485 -2.04685 0
M  V30 1793 C 180.792 -0.0270421 -1.69378 0
M  V30 1794 O 181.998 -0.185008 -1.79047 0
M  V30 1795 H 178.373 -0.340546 -0.670472 0
M  V30 1796 H 180.344 -2.05566 -2.16298 0
M  V30 1797 C 179.093 -0.772229 -3.39016 0
M  V30 1798 H 178.416 -1.59351 -3.66671 0
M  V30 1799 H 179.856 -0.692097 -4.18313 0
M  V30 1800 C 178.315 0.523554 -3.32807 0
M  V30 1801 O 178.845 1.55702 -3.70297 0
M  V30 1802 N 177.051 0.520363 -2.85903 0
M  V30 1803 H 176.598 -0.32107 -2.55591 0
M  V30 1804 H 176.556 1.38742 -2.82131 0
M  V30 1805 N 180.328 1.1314 -1.09713 0
M  V30 1806 C 181.744 1.36477 -0.827423 0
M  V30 1807 C 181.944 1.93654 0.556817 0
M  V30 1808 O 181 2.15791 1.31112 0
M  V30 1809 C 182.313 2.31334 -1.92106 0
M  V30 1810 C 183.861 2.44943 -1.94864 0
M  V30 1811 C 184.336 3.4311 -3.0338 0
M  V30 1812 N 185.827 3.50662 -3.02639 0
M  V30 1813 C 186.562 4.2651 -3.83246 0
M  V30 1814 N 186.058 5.05485 -4.73768 0
M  V30 1815 N 187.851 4.2184 -3.71493 0
M  V30 1816 H 180.002 0.743807 -1.9895 0
M  V30 1817 H 182.265 0.389823 -0.864143 0
M  V30 1818 H 181.971 1.96483 -2.91698 0
M  V30 1819 H 181.845 3.31381 -1.80184 0
M  V30 1820 H 184.232 2.79079 -0.959099 0
M  V30 1821 H 184.313 1.4481 -2.10864 0
M  V30 1822 H 183.957 3.09704 -4.02549 0
M  V30 1823 H 183.887 4.43055 -2.84622 0
M  V30 1824 H 186.378 2.94315 -2.37039 0
M  V30 1825 H 186.691 5.60675 -5.3185 0
M  V30 1826 H 185.036 5.04708 -4.77802 0
M  V30 1827 H 188.227 3.5922 -3.00131 0
M  V30 1828 H 188.4 4.80697 -4.3455 0
M  V30 1829 N 181.806 0.884767 1.30421 0
M  V30 1830 C 183.031 0.517288 2.00845 0
M  V30 1831 C 183.456 -0.886779 1.65885 0
M  V30 1832 O 182.814 -1.58768 0.875354 0
M  V30 1833 C 182.862 0.698994 3.5376 0
M  V30 1834 O 181.966 -0.255208 4.1161 0
M  V30 1835 H 181.307 0.203872 0.631927 0
M  V30 1836 H 183.837 1.19225 1.66272 0
M  V30 1837 H 183.847 0.597912 4.03595 0
M  V30 1838 H 182.522 1.72271 3.78544 0
M  V30 1839 H 181.099 -0.10784 3.72744 0
M  V30 1840 N 183.284 -1.43765 0.645699 0
M  V30 1841 C 184.53 -2.02197 0.156271 0
M  V30 1842 C 184.863 -1.50776 -1.22393 0
M  V30 1843 O 184.138 -0.697771 -1.81553 0
M  V30 1844 C 184.421 -3.59749 0.158872 0
M  V30 1845 C 184.274 -4.21419 1.57245 0
M  V30 1846 C 185.593 -4.37149 -0.50879 0
M  V30 1847 H 182.712 -0.734694 0.0582602 0
M  V30 1848 H 185.354 -1.71157 0.824951 0
M  V30 1849 H 183.504 -3.86325 -0.410525 0
M  V30 1850 H 185.176 -4.059 2.19186 0
M  V30 1851 H 183.419 -3.78356 2.122 0
M  V30 1852 H 184.09 -5.30482 1.52619 0
M  V30 1853 H 186.566 -4.16093 -0.024412 0
M  V30 1854 H 185.442 -5.4683 -0.476213 0
M  V30 1855 H 185.703 -4.12839 -1.58165 0
M  V30 1856 N 184.763 -0.387143 -1.52771 0
M  V30 1857 C 186.003 0.195537 -2.03463 0
M  V30 1858 C 186.367 1.44222 -1.26744 0
M  V30 1859 O 187.568 2.10192 -1.67549 0
M  V30 1860 C 185.839 0.459097 -3.54439 0
M  V30 1861 S 187.398 1.01237 -4.26962 0
M  V30 1862 H 184.216 0.0552675 -0.708849 0
M  V30 1863 H 186.818 -0.534992 -1.88037 0
M  V30 1864 H 185.522 -0.455382 -4.07866 0
M  V30 1865 H 185.053 1.21811 -3.74066 0
M  V30 1866 H 187.068 2.29492 -4.39941 0
M  V30 1867 N 186.241 1.57166 -0.116904 0
M  V30 1868 C 187.173 2.12271 0.864507 0
M  V30 1869 C 188.186 1.06494 1.23138 0
M  V30 1870 O 189.375 1.33873 1.18069 0
M  V30 1871 C 186.475 2.60564 2.16702 0
M  V30 1872 C 185.648 3.90416 1.97216 0
M  V30 1873 C 184.707 4.24329 3.11178 0
M  V30 1874 O 183.733 4.93182 2.84184 0
M  V30 1875 N 184.935 3.8148 4.37554 0
M  V30 1876 H 187.7 2.97102 0.393726 0
M  V30 1877 H 185.261 1.61759 0.0675805 0
M  V30 1878 H 187.253 2.80282 2.91932 0
M  V30 1879 H 185.823 1.80623 2.55135 0
M  V30 1880 H 185.043 3.79627 1.06192 0
M  V30 1881 H 186.331 4.75327 1.81499 0
M  V30 1882 H 185.729 3.25943 4.62361 0
M  V30 1883 H 184.286 4.06311 5.09661 0
M  V30 1884 N 187.719 -0.156864 1.56817 0
M  V30 1885 C 189.13 -0.717916 1.72345 0
M  V30 1886 C 189.481 -1.82124 0.729747 0
M  V30 1887 O 188.606 -2.16141 -0.105781 0
M  V30 1888 C 189.201 -1.30904 3.12489 0
M  V30 1889 C 187.76 -1.81676 3.29653 0
M  V30 1890 C 186.907 -0.701349 2.68284 0
M  V30 1891 H 189.858 0.0686989 1.58551 0
M  V30 1892 H 189.879 -2.17882 3.11942 0
M  V30 1893 H 189.391 -0.505796 3.8479 0
M  V30 1894 H 187.492 -2.64598 2.62333 0
M  V30 1895 H 187.605 -1.95226 4.3752 0
M  V30 1896 H 185.969 -1.12548 2.28484 0
M  V30 1897 H 186.752 0.0902846 3.43181 0
M  V30 1898 N 189.197 -1.51736 -0.425897 0
M  V30 1899 C 190.127 -1.76827 -1.52494 0
M  V30 1900 C 191.108 -0.618524 -1.58456 0
M  V30 1901 O 192.293 -0.862416 -1.74 0
M  V30 1902 C 189.423 -1.90374 -2.90474 0
M  V30 1903 C 188.377 -3.0588 -2.99369 0
M  V30 1904 C 187.703 -3.04625 -4.3944 0
M  V30 1905 C 189.003 -4.45644 -2.72394 0
M  V30 1906 H 190.697 -2.68855 -1.31748 0
M  V30 1907 H 188.243 -1.29372 -0.632362 0
M  V30 1908 H 190.196 -2.0651 -3.6733 0
M  V30 1909 H 188.92 -0.95004 -3.12477 0
M  V30 1910 H 187.579 -2.89467 -2.24954 0
M  V30 1911 H 187.227 -2.0701 -4.58428 0
M  V30 1912 H 186.927 -3.82195 -4.46319 0
M  V30 1913 H 188.451 -3.22869 -5.18255 0
M  V30 1914 H 189.865 -4.62348 -3.38979 0
M  V30 1915 H 188.262 -5.25006 -2.9067 0
M  V30 1916 H 189.332 -4.54893 -1.67929 0
M  V30 1917 N 190.675 0.682077 -1.42076 0
M  V30 1918 C 191.638 1.77756 -1.44691 0
M  V30 1919 C 192.638 1.5726 -0.335535 0
M  V30 1920 O 193.828 1.63686 -0.596037 0
M  V30 1921 C 190.96 3.16301 -1.27146 0
M  V30 1922 H 192.153 1.76826 -2.42224 0
M  V30 1923 H 189.706 0.891012 -1.28416 0
M  V30 1924 H 190.441 3.22862 -0.305075 0
M  V30 1925 H 190.226 3.32581 -2.07683 0
M  V30 1926 H 191.716 3.96241 -1.31843 0
M  V30 1927 N 192.153 1.28127 0.917671 0
M  V30 1928 C 193.401 1.14825 1.66312 0
M  V30 1929 C 193.722 -0.304379 1.9261 0
M  V30 1930 O 192.992 -1.21149 1.53947 0
M  V30 1931 H 191.572 0.421953 0.616413 0
M  V30 1932 H 194.234 1.608 1.10134 0
M  V30 1933 H 193.33 1.68489 2.62712 0
M  V30 1934 N 193.631 -1.12557 1.10312 0
M  V30 1935 C 194.856 -1.88405 0.867085 0
M  V30 1936 C 195.281 -1.79038 -0.576817 0
M  V30 1937 O 194.639 -1.14439 -1.40618 0
M  V30 1938 C 194.687 -3.3563 1.31851 0
M  V30 1939 O 193.791 -4.09565 0.482734 0
M  V30 1940 H 193.132 -0.585455 0.313271 0
M  V30 1941 H 195.662 -1.42352 1.4696 0
M  V30 1942 H 195.672 -3.86469 1.3079 0
M  V30 1943 H 194.347 -3.41765 2.37001 0
M  V30 1944 H 192.924 -3.68695 0.558448 0
M  V30 1945 N 195.109 -0.891671 -1.2995 0
M  V30 1946 C 196.349 -0.520296 -1.97667 0
M  V30 1947 C 196.713 0.914797 -1.68806 0
M  V30 1948 O 197.914 1.39263 -2.29911 0
M  V30 1949 C 196.185 -0.795222 -3.48441 0
M  V30 1950 S 197.744 -0.526953 -4.35624 0
M  V30 1951 H 194.562 -0.19333 -0.684211 0
M  V30 1952 H 197.164 -1.15238 -1.57926 0
M  V30 1953 H 195.868 -1.83805 -3.66938 0
M  V30 1954 H 195.399 -0.15095 -3.9311 0
M  V30 1955 H 197.414 0.631533 -4.92165 0
M  V30 1956 N 196.587 1.43421 -0.653314 0
M  V30 1957 C 197.864 1.95361 -0.0966581 0
M  V30 1958 C 198.244 1.59461 1.38331 0
M  V30 1959 O 197.592 0.879777 2.10884 0
M  V30 1960 C 197.802 3.47311 -0.342988 0
M  V30 1961 C 199.15 4.23875 -0.24798 0
M  V30 1962 O 200.174 3.55133 -0.275553 0
M  V30 1963 O 199.033 5.4623 -0.171771 0
M  V30 1964 H 196.127 0.826945 0.00956291 0
M  V30 1965 H 198.673 1.5336 -0.726558 0
M  V30 1966 H 197.445 3.66569 -1.36906 0
M  V30 1967 H 197.068 3.9631 0.319975 0
M  V30 1968 N 198.065 0.39524 1.52563 0
M  V30 1969 C 198.995 -0.428384 2.29537 0
M  V30 1970 C 199.976 -1.05831 1.33169 0
M  V30 1971 O 201.161 -1.06995 1.62067 0
M  V30 1972 C 198.291 -1.55274 3.10656 0
M  V30 1973 C 197.245 -1.04855 4.14957 0
M  V30 1974 C 196.571 -2.26543 4.84337 0
M  V30 1975 C 197.871 -0.112324 5.22179 0
M  V30 1976 H 199.565 0.213867 2.98635 0
M  V30 1977 H 197.111 0.104298 1.43622 0
M  V30 1978 H 199.064 -2.1358 3.63265 0
M  V30 1979 H 197.788 -2.22266 2.39302 0
M  V30 1980 H 196.447 -0.487985 3.63338 0
M  V30 1981 H 196.095 -2.92059 4.09525 0
M  V30 1982 H 195.795 -1.93466 5.54837 0
M  V30 1983 H 197.319 -2.85481 5.39753 0
M  V30 1984 H 198.733 -0.603752 5.70112 0
M  V30 1985 H 197.13 0.128968 5.99961 0
M  V30 1986 H 198.2 0.837052 4.77621 0
M  V30 1987 N 199.544 -1.57102 0.125237 0
M  V30 1988 C 200.474 -2.18659 -0.819174 0
M  V30 1989 C 201.455 -1.12843 -1.27281 0
M  V30 1990 O 202.64 -1.41104 -1.33429 0
M  V30 1991 C 199.77 -2.79096 -2.06695 0
M  V30 1992 C 198.724 -3.90548 -1.75088 0
M  V30 1993 C 198.05 -4.37821 -3.06948 0
M  V30 1994 C 199.35 -5.12356 -1.01435 0
M  V30 1995 H 201.044 -2.9783 -0.306202 0
M  V30 1996 H 198.59 -1.4326 -0.145839 0
M  V30 1997 H 200.543 -3.2082 -2.73226 0
M  V30 1998 H 199.267 -1.97223 -2.60328 0
M  V30 1999 H 197.926 -3.49409 -1.10944 0
M  V30 2000 H 197.574 -3.52799 -3.58527 0
M  V30 2001 H 197.274 -5.12982 -2.86571 0
M  V30 2002 H 198.798 -4.822 -3.74587 0
M  V30 2003 H 200.212 -5.5106 -1.58132 0
M  V30 2004 H 198.609 -5.9314 -0.911319 0
M  V30 2005 H 199.679 -4.849 -0.00218681 0
M  V30 2006 N 201.022 0.148545 -1.56898 0
M  V30 2007 C 201.954 1.20852 -1.9475 0
M  V30 2008 C 202.967 1.39265 -0.843152 0
M  V30 2009 O 204.156 1.38864 -1.12156 0
M  V30 2010 C 201.256 2.57362 -2.20495 0
M  V30 2011 C 200.429 2.59947 -3.51776 0
M  V30 2012 C 199.488 3.77984 -3.6608 0
M  V30 2013 O 198.514 3.62929 -4.38487 0
M  V30 2014 N 199.716 4.95375 -3.02629 0
M  V30 2015 H 202.481 0.886804 -2.86279 0
M  V30 2016 H 200.042 0.338121 -1.5833 0
M  V30 2017 H 202.034 3.34833 -2.27307 0
M  V30 2018 H 200.604 2.81832 -1.35238 0
M  V30 2019 H 199.824 1.68403 -3.56419 0
M  V30 2020 H 201.112 2.58704 -4.38121 0
M  V30 2021 H 200.51 5.10509 -2.43715 0
M  V30 2022 H 199.067 5.70627 -3.15004 0
M  V30 2023 N 202.5 1.5196 0.417844 0
M  V30 2024 C 203.463 1.74065 1.49111 0
M  V30 2025 C 204.463 0.610537 1.48758 0
M  V30 2026 O 205.653 0.87832 1.50437 0
M  V30 2027 C 202.785 1.81502 2.88565 0
M  V30 2028 H 203.978 2.69869 1.30807 0
M  V30 2029 H 201.531 1.42244 0.647785 0
M  V30 2030 H 202.266 0.875813 3.1225 0
M  V30 2031 H 202.051 2.63651 2.90225 0
M  V30 2032 H 203.541 2.00376 3.66387 0
M  V30 2033 N 203.978 -0.674533 1.42435 0
M  V30 2034 C 205.225 -1.43459 1.42919 0
M  V30 2035 C 205.553 -1.94446 0.0457312 0
M  V30 2036 O 204.808 -1.7132 -0.94593 0
M  V30 2037 C 205.107 -2.64767 2.40069 0
M  V30 2038 C 204.773 -2.3232 3.86443 0
M  V30 2039 C 203.435 -2.23182 4.26314 0
M  V30 2040 C 205.787 -2.05977 4.78773 0
M  V30 2041 C 203.115 -1.85827 5.56494 0
M  V30 2042 C 205.467 -1.70125 6.09295 0
M  V30 2043 C 204.131 -1.59498 6.48164 0
M  V30 2044 H 203.401 -0.524952 0.522978 0
M  V30 2045 H 206.048 -0.769097 1.75377 0
M  V30 2046 H 204.353 -3.36349 2.00939 0
M  V30 2047 H 206.05 -3.22949 2.37707 0
M  V30 2048 H 202.64 -2.40334 3.54877 0
M  V30 2049 H 206.824 -2.11969 4.48757 0
M  V30 2050 H 202.08 -1.76168 5.8547 0
M  V30 2051 H 206.254 -1.48767 6.80324 0
M  V30 2052 H 203.881 -1.30322 7.48946 0
M  V30 2053 N 205.456 -1.28612 -0.910864 0
M  V30 2054 C 206.704 -1.15705 -1.65701 0
M  V30 2055 C 207.025 0.29416 -1.92769 0
M  V30 2056 O 206.295 1.20331 -1.54588 0
M  V30 2057 H 204.875 -0.425216 -0.614167 0
M  V30 2058 H 207.537 -1.61381 -1.0928 0
M  V30 2059 H 206.633 -1.6988 -2.61815 0
M  V30 2060 N 206.934 1.1197 -1.10907 0
M  V30 2061 C 208.183 1.82947 -0.849302 0
M  V30 2062 C 208.496 1.85275 0.627112 0
M  V30 2063 O 209.702 2.52296 1.00295 0
M  V30 2064 C 208.158 3.28529 -1.46959 0
M  V30 2065 C 207.766 3.34546 -2.97965 0
M  V30 2066 C 209.51 4.04443 -1.28942 0
M  V30 2067 C 207.417 4.74491 -3.53004 0
M  V30 2068 H 206.347 0.685477 -0.314065 0
M  V30 2069 H 208.998 1.2604 -1.33365 0
M  V30 2070 H 207.38 3.85333 -0.912917 0
M  V30 2071 H 208.554 2.87654 -3.59989 0
M  V30 2072 H 206.869 2.72108 -3.15192 0
M  V30 2073 H 209.466 5.07787 -1.67502 0
M  V30 2074 H 209.809 4.15656 -0.231456 0
M  V30 2075 H 210.342 3.5401 -1.81443 0
M  V30 2076 H 207.081 4.68474 -4.58489 0
M  V30 2077 H 206.601 5.21816 -2.9575 0
M  V30 2078 H 208.28 5.4344 -3.51115 0
M  V30 2079 N 208.412 0.89855 1.29475 0
M  V30 2080 C 209.828 0.594483 1.48115 0
M  V30 2081 C 210.028 -0.86431 1.82022 0
M  V30 2082 O 209.084 -1.64457 1.91599 0
M  V30 2083 C 210.397 1.51932 2.59494 0
M  V30 2084 C 211.945 1.5244 2.7337 0
M  V30 2085 C 212.42 2.43548 3.87877 0
M  V30 2086 N 213.911 2.41589 3.95208 0
M  V30 2087 C 214.646 3.08789 4.83153 0
M  V30 2088 N 214.142 3.85265 5.75798 0
M  V30 2089 N 215.935 2.97952 4.76635 0
M  V30 2090 H 208.086 1.84207 1.05742 0
M  V30 2091 H 210.349 0.789251 0.525154 0
M  V30 2092 H 210.055 2.55865 2.41301 0
M  V30 2093 H 209.929 1.23899 3.56271 0
M  V30 2094 H 212.316 0.492518 2.90961 0
M  V30 2095 H 212.397 1.8451 1.77172 0
M  V30 2096 H 212.041 3.46829 3.71041 0
M  V30 2097 H 211.971 2.08788 4.83441 0
M  V30 2098 H 214.462 1.86025 3.28943 0
M  V30 2099 H 214.775 4.33598 6.39697 0
M  V30 2100 H 213.12 3.89371 5.75687 0
M  V30 2101 H 216.311 2.37723 4.03244 0
M  V30 2102 H 216.484 3.50599 5.44962 0
M  V30 2103 N 209.89 -1.43072 0.660911 0
M  V30 2104 C 210.82 -2.33497 -0.0122829 0
M  V30 2105 C 211.801 -1.49903 -0.803925 0
M  V30 2106 O 212.986 -1.78546 -0.763864 0
M  V30 2107 C 210.116 -3.33363 -0.973994 0
M  V30 2108 C 209.07 -4.27003 -0.291928 0
M  V30 2109 C 208.396 -5.16967 -1.36562 0
M  V30 2110 C 209.696 -5.15816 0.820462 0
M  V30 2111 H 211.39 -2.90038 0.742873 0
M  V30 2112 H 208.936 -1.39461 0.358688 0
M  V30 2113 H 210.889 -3.95524 -1.45392 0
M  V30 2114 H 209.613 -2.75095 -1.7604 0
M  V30 2115 H 208.272 -3.66217 0.167623 0
M  V30 2116 H 207.92 -4.55034 -2.14366 0
M  V30 2117 H 207.62 -5.80441 -0.914454 0
M  V30 2118 H 209.144 -5.82003 -1.84675 0
M  V30 2119 H 210.558 -5.71742 0.422366 0
M  V30 2120 H 208.955 -5.8805 1.19656 0
M  V30 2121 H 210.025 -4.55045 1.67518 0
M  V30 2122 N 211.368 -0.403325 -1.52352 0
M  V30 2123 C 212.645 0.232611 -1.94212 0
M  V30 2124 C 213.025 1.63133 -1.33981 0
M  V30 2125 O 212.373 2.22659 -0.513344 0
M  V30 2126 C 212.583 0.244811 -3.4814 0
M  V30 2127 C 213.931 0.46698 -4.22024 0
M  V30 2128 O 214.955 0.324419 -3.5472 0
M  V30 2129 O 213.814 0.74747 -5.41364 0
M  V30 2130 H 210.908 0.148223 -0.813609 0
M  V30 2131 H 213.454 -0.458848 -1.63379 0
M  V30 2132 H 212.226 -0.734378 -3.84347 0
M  V30 2133 H 211.849 0.980611 -3.85318 0
M  V30 2134 N 212.846 1.57033 -0.133567 0
M  V30 2135 C 213.779 2.11824 0.848872 0
M  V30 2136 C 214.757 1.03833 1.2513 0
M  V30 2137 O 215.941 1.31579 1.34978 0
M  V30 2138 C 213.068 2.62692 2.138 0
M  V30 2139 C 212.114 3.82705 1.88253 0
M  V30 2140 S 212.947 5.2438 1.08563 0
M  V30 2141 C 214.103 5.78627 2.38624 0
M  V30 2142 H 214.336 2.94824 0.38289 0
M  V30 2143 H 211.869 1.5419 0.0804796 0
M  V30 2144 H 213.827 2.92652 2.87863 0
M  V30 2145 H 212.488 1.79847 2.57515 0
M  V30 2146 H 211.681 4.16496 2.83809 0
M  V30 2147 H 211.283 3.53437 1.22305 0
M  V30 2148 H 213.575 5.8924 3.34369 0
M  V30 2149 H 214.518 6.76443 2.09358 0
M  V30 2150 H 214.926 5.06783 2.48658 0
M  V30 2151 N 214.325 -0.140222 1.56975 0
M  V30 2152 C 215.55 -0.870414 1.88251 0
M  V30 2153 C 215.975 -1.73637 0.723312 0
M  V30 2154 O 215.333 -1.78329 -0.32689 0
M  V30 2155 C 215.381 -1.69737 3.18154 0
M  V30 2156 O 214.485 -2.80229 3.02565 0
M  V30 2157 H 213.826 -0.242025 0.61832 0
M  V30 2158 H 216.356 -0.128999 2.04193 0
M  V30 2159 H 216.366 -2.09099 3.50345 0
M  V30 2160 H 215.041 -1.06152 4.02125 0
M  V30 2161 H 213.618 -2.44224 2.81796 0
M  V30 2162 N 215.803 -1.52179 -0.40978 0
M  V30 2163 C 216.766 -1.74853 -1.48186 0
M  V30 2164 C 217.766 -0.618417 -1.48433 0
M  V30 2165 O 218.956 -0.886286 -1.49969 0
M  V30 2166 C 216.088 -1.8303 -2.87598 0
M  V30 2167 H 217.281 -2.70559 -1.29374 0
M  V30 2168 H 214.834 -1.42586 -0.640233 0
M  V30 2169 H 215.569 -0.89236 -3.11781 0
M  V30 2170 H 215.354 -2.65187 -2.88822 0
M  V30 2171 H 216.844 -2.02316 -3.65319 0
M  V30 2172 N 217.281 0.66697 -1.42791 0
M  V30 2173 C 218.191 1.80962 -1.49299 0
M  V30 2174 C 219.207 1.69775 -0.381108 0
M  V30 2175 O 220.383 1.91188 -0.633188 0
M  V30 2176 C 217.448 3.17156 -1.40045 0
M  V30 2177 C 216.509 3.40242 -2.6179 0
M  V30 2178 C 215.742 4.69939 -2.52969 0
M  V30 2179 O 215.965 5.48372 -1.56985 0
M  V30 2180 O 214.899 4.94441 -3.43237 0
M  V30 2181 H 218.725 1.78427 -2.45759 0
M  V30 2182 H 216.31 0.823713 -1.24641 0
M  V30 2183 H 218.192 3.98413 -1.37276 0
M  V30 2184 H 216.867 3.20312 -0.467138 0
M  V30 2185 H 215.774 2.58802 -2.70134 0
M  V30 2186 H 217.107 3.41923 -3.54047 0
M  V30 2187 N 218.759 1.29093 0.90403 0
M  V30 2188 C 220.036 1.075 1.63411 0
M  V30 2189 C 220.416 -0.382346 2.07609 0
M  V30 2190 O 219.764 -1.37031 1.82851 0
M  V30 2191 C 219.974 2.05858 2.81822 0
M  V30 2192 C 221.322 2.36539 3.52611 0
M  V30 2193 O 222.346 2.04019 2.91984 0
M  V30 2194 O 221.205 2.92085 4.61897 0
M  V30 2195 H 218.299 0.411547 0.717327 0
M  V30 2196 H 220.845 1.40449 0.952479 0
M  V30 2197 H 219.617 3.04037 2.46327 0
M  V30 2198 H 219.24 1.73613 3.57693 0
M  V30 2199 N 220.237 -1.11381 1.11499 0
M  V30 2200 C 221.462 -1.87475 0.887019 0
M  V30 2201 C 221.887 -1.79639 -0.557796 0
M  V30 2202 O 221.245 -1.15924 -1.39396 0
M  V30 2203 C 221.293 -3.34213 1.35403 0
M  V30 2204 O 220.397 -4.0903 0.526146 0
M  V30 2205 H 219.738 -0.582099 0.319463 0
M  V30 2206 H 222.268 -1.40785 1.48461 0
M  V30 2207 H 222.278 -3.8506 1.34881 0
M  V30 2208 H 220.953 -3.39232 2.40612 0
M  V30 2209 H 219.53 -3.68082 0.597522 0
M  V30 2210 N 221.715 -0.905404 -1.28997 0
M  V30 2211 C 223.131 -0.60233 -1.47798 0
M  V30 2212 C 223.331 0.854645 -1.82478 0
M  V30 2213 O 222.387 1.63439 -1.92468 0
M  V30 2214 C 223.7 -1.53306 -2.58685 0
M  V30 2215 C 225.248 -1.53887 -2.72558 0
M  V30 2216 C 225.723 -2.45602 -3.86579 0
M  V30 2217 N 227.214 -2.43681 -3.93921 0
M  V30 2218 C 227.949 -3.11347 -4.81509 0
M  V30 2219 N 227.445 -3.88313 -5.73746 0
M  V30 2220 N 229.238 -3.00476 -4.75048 0
M  V30 2221 H 221.389 -1.84765 -1.04764 0
M  V30 2222 H 223.652 -0.792025 -0.520961 0
M  V30 2223 H 223.358 -2.57141 -2.39941 0
M  V30 2224 H 223.232 -1.25787 -3.55609 0
M  V30 2225 H 225.619 -0.507941 -2.90696 0
M  V30 2226 H 225.7 -1.85447 -1.76191 0
M  V30 2227 H 225.344 -3.48792 -3.69197 0
M  V30 2228 H 225.274 -2.11349 -4.82327 0
M  V30 2229 H 227.765 -1.87767 -3.27951 0
M  V30 2230 H 228.078 -4.36985 -6.37389 0
M  V30 2231 H 226.423 -3.92419 -5.73614 0
M  V30 2232 H 229.614 -2.39858 -4.01977 0
M  V30 2233 H 229.787 -3.53485 -5.43095 0
M  V30 2234 N 223.193 1.4272 -0.668489 0
M  V30 2235 C 224.125 2.2914 0.052613 0
M  V30 2236 C 225.138 1.43339 0.771857 0
M  V30 2237 O 226.327 1.67123 0.627067 0
M  V30 2238 C 223.427 3.20618 1.09804 0
M  V30 2239 C 222.6 4.35039 0.45389 0
M  V30 2240 C 221.659 5.07282 1.39825 0
M  V30 2241 O 220.685 5.62024 0.900978 0
M  V30 2242 N 221.887 5.12206 2.73176 0
M  V30 2243 H 224.652 2.91668 -0.689209 0
M  V30 2244 H 222.213 1.53577 -0.512422 0
M  V30 2245 H 224.205 3.65815 1.73094 0
M  V30 2246 H 222.775 2.59585 1.74167 0
M  V30 2247 H 221.995 3.92567 -0.358396 0
M  V30 2248 H 223.283 5.088 0.00486972 0
M  V30 2249 H 222.681 4.6913 3.16122 0
M  V30 2250 H 221.238 5.61069 3.31729 0
M  V30 2251 N 224.671 0.411399 1.52136 0
M  V30 2252 C 225.634 -0.401089 2.25663 0
M  V30 2253 C 226.634 -0.971732 1.28117 0
M  V30 2254 O 227.824 -0.850254 1.52041 0
M  V30 2255 C 224.956 -1.56483 3.02863 0
M  V30 2256 H 226.149 0.24295 2.98914 0
M  V30 2257 H 223.702 0.163968 1.55438 0
M  V30 2258 H 224.437 -2.24567 2.33967 0
M  V30 2259 H 224.222 -1.16211 3.74483 0
M  V30 2260 H 225.712 -2.13951 3.58629 0
M  V30 2261 N 226.149 -1.5696 0.141893 0
M  V30 2262 C 227.079 -2.19516 -0.795936 0
M  V30 2263 C 228.06 -1.14187 -1.26077 0
M  V30 2264 O 229.245 -1.42511 -1.31925 0
M  V30 2265 C 226.375 -2.81272 -2.03723 0
M  V30 2266 C 225.329 -3.92384 -1.70936 0
M  V30 2267 C 224.655 -4.41052 -3.02287 0
M  V30 2268 C 225.955 -5.13403 -0.959954 0
M  V30 2269 H 227.649 -2.98138 -0.274596 0
M  V30 2270 H 225.195 -1.43406 -0.130636 0
M  V30 2271 H 227.148 -3.237 -2.69808 0
M  V30 2272 H 225.872 -1.99973 -2.58221 0
M  V30 2273 H 224.531 -3.50566 -1.07232 0
M  V30 2274 H 224.179 -3.56582 -3.54765 0
M  V30 2275 H 223.879 -5.15993 -2.81114 0
M  V30 2276 H 225.403 -4.86146 -3.69451 0
M  V30 2277 H 226.817 -5.52706 -1.52279 0
M  V30 2278 H 225.214 -5.94073 -0.848357 0
M  V30 2279 H 226.284 -4.84875 0.0492434 0
M  V30 2280 N 227.627 0.131896 -1.57047 0
M  V30 2281 C 228.904 0.871495 -1.75112 0
M  V30 2282 C 229.284 1.9866 -0.713949 0
M  V30 2283 O 228.632 2.26965 0.264447 0
M  V30 2284 C 228.842 1.40007 -3.19686 0
M  V30 2285 C 230.19 1.85752 -3.81813 0
M  V30 2286 O 231.214 1.49715 -3.23209 0
M  V30 2287 O 230.073 2.5226 -4.84796 0
M  V30 2288 H 227.167 0.412919 -0.716538 0
M  V30 2289 H 229.713 0.116641 -1.69299 0
M  V30 2290 H 228.485 0.599404 -3.86682 0
M  V30 2291 H 228.108 2.218 -3.29986 0
M  V30 2292 N 229.106 1.52395 0.401703 0
M  V30 2293 C 230.383 1.57387 1.16141 0
M  V30 2294 C 230.763 0.359359 2.08019 0
M  V30 2295 O 230.111 -0.65326 2.18963 0
M  V30 2296 C 230.321 2.90631 1.93221 0
M  V30 2297 C 231.669 3.43904 2.49028 0
M  V30 2298 O 232.693 2.92421 2.03393 0
M  V30 2299 O 231.552 4.33823 3.32356 0
M  V30 2300 H 228.646 0.634262 0.530698 0
M  V30 2301 H 231.192 1.64725 0.407883 0
M  V30 2302 H 229.964 3.70473 1.25958 0
M  V30 2303 H 229.587 2.8662 2.75563 0
M  V30 2304 N 230.584 -0.659388 1.43143 0
M  V30 2305 C 231.514 -1.78422 1.50625 0
M  V30 2306 C 232.495 -1.66216 0.361443 0
M  V30 2307 O 233.68 -1.85404 0.577834 0
M  V30 2308 C 230.81 -3.16815 1.42287 0
M  V30 2309 C 229.764 -3.43777 2.54954 0
M  V30 2310 C 229.09 -4.81905 2.31671 0
M  V30 2311 C 230.39 -3.39134 3.97222 0
M  V30 2312 H 232.084 -1.72417 2.44771 0
M  V30 2313 H 229.63 -0.828084 1.17808 0
M  V30 2314 H 231.583 -3.95253 1.46127 0
M  V30 2315 H 230.307 -3.23534 0.446435 0
M  V30 2316 H 228.966 -2.67707 2.50457 0
M  V30 2317 H 228.614 -4.85294 1.32284 0
M  V30 2318 H 228.314 -5.00906 3.07192 0
M  V30 2319 H 229.838 -5.62609 2.37284 0
M  V30 2320 H 231.252 -4.07518 4.03239 0
M  V30 2321 H 229.649 -3.69671 4.72719 0
M  V30 2322 H 230.719 -2.37426 4.22797 0
M  V30 2323 N 232.062 -1.29571 -0.897171 0
M  V30 2324 C 233.01 -1.14802 -2.02295 0
M  V30 2325 C 234.004 -0.0629637 -1.69283 0
M  V30 2326 O 235.21 -0.222945 -1.78614 0
M  V30 2327 H 231.585 -0.354692 -0.663097 0
M  V30 2328 H 233.556 -2.10108 -2.11889 0
M  V30 2329 C 232.305 -0.843966 -3.37302 0
M  V30 2330 H 231.628 -1.67093 -3.63208 0
M  V30 2331 H 233.068 -0.780672 -4.16751 0
M  V30 2332 C 231.527 0.452843 -3.33843 0
M  V30 2333 O 232.057 1.47813 -3.73516 0
M  V30 2334 N 230.263 0.459601 -2.86943 0
M  V30 2335 H 229.81 -0.375213 -2.54853 0
M  V30 2336 H 229.768 1.32726 -2.85011 0
M  V30 2337 N 233.54 1.10788 -1.12088 0
M  V30 2338 C 234.786 1.82942 -0.875226 0
M  V30 2339 C 235.119 1.84779 0.597538 0
M  V30 2340 O 234.394 1.30578 1.44152 0
M  V30 2341 C 234.677 3.29789 -1.44606 0
M  V30 2342 C 234.53 3.36307 -2.98693 0
M  V30 2343 C 235.849 4.26064 -1.10261 0
M  V30 2344 H 232.968 0.664195 -0.319397 0
M  V30 2345 H 235.61 1.29867 -1.38689 0
M  V30 2346 H 233.76 3.75118 -1.01089 0
M  V30 2347 H 235.432 2.99487 -3.50864 0
M  V30 2348 H 233.675 2.76318 -3.34411 0
M  V30 2349 H 234.346 4.39694 -3.33726 0
M  V30 2350 H 236.822 3.88951 -1.4784 0
M  V30 2351 H 235.698 5.27183 -1.52869 0
M  V30 2352 H 235.959 4.42098 -0.0142953 0
M  V30 2353 N 235.018 0.912232 1.28515 0
M  V30 2354 C 236.258 0.551677 1.96814 0
M  V30 2355 C 236.622 -0.887825 1.7024 0
M  V30 2356 O 237.823 -1.35588 2.32098 0
M  V30 2357 C 236.094 0.850555 3.47132 0
M  V30 2358 S 237.653 0.59619 4.34731 0
M  V30 2359 H 234.471 0.204191 0.681049 0
M  V30 2360 H 237.073 1.17736 1.56072 0
M  V30 2361 H 235.777 1.8962 3.63968 0
M  V30 2362 H 235.308 0.213471 3.9282 0
M  V30 2363 H 237.323 -0.553154 4.93107 0
M  V30 2364 N 236.496 -1.42363 0.676048 0
M  V30 2365 C 237.743 -2.01522 0.19883 0
M  V30 2366 C 238.071 -1.53456 -1.19505 0
M  V30 2367 O 237.326 -0.727967 -1.81657 0
M  V30 2368 C 237.625 -3.56929 0.183431 0
M  V30 2369 C 237.291 -4.24431 1.52215 0
M  V30 2370 C 235.953 -4.42585 1.8887 0
M  V30 2371 C 238.305 -4.62459 2.40377 0
M  V30 2372 C 235.633 -4.96039 3.13309 0
M  V30 2373 C 237.985 -5.17294 3.64129 0
M  V30 2374 C 236.649 -5.33661 4.00951 0
M  V30 2375 H 235.919 -0.737419 0.0727571 0
M  V30 2376 H 238.566 -1.70531 0.871281 0
M  V30 2377 H 236.871 -3.87594 -0.572532 0
M  V30 2378 H 238.568 -4.00486 -0.203035 0
M  V30 2379 H 235.158 -4.10661 1.22701 0
M  V30 2380 H 239.342 -4.48105 2.13343 0
M  V30 2381 H 234.598 -5.06896 3.41857 0
M  V30 2382 H 238.772 -5.45704 4.32644 0
M  V30 2383 H 236.399 -5.74845 4.9745 0
M  V30 2384 N 237.974 -0.419461 -1.51915 0
M  V30 2385 C 238.904 0.391813 -2.30189 0
M  V30 2386 C 239.885 1.03699 -1.34836 0
M  V30 2387 O 241.07 1.04403 -1.63748 0
M  V30 2388 C 238.2 1.50312 -3.13087 0
M  V30 2389 C 237.154 0.9824 -4.16573 0
M  V30 2390 C 236.48 2.18809 -4.8788 0
M  V30 2391 C 237.78 0.0292356 -5.22292 0
M  V30 2392 H 239.474 -0.26135 -2.98257 0
M  V30 2393 H 237.02 -0.127134 -1.43438 0
M  V30 2394 H 238.973 2.07773 -3.66617 0
M  V30 2395 H 237.697 2.18431 -2.42807 0
M  V30 2396 H 236.356 0.430119 -3.64068 0
M  V30 2397 H 236.004 2.85507 -4.14119 0
M  V30 2398 H 235.704 1.84615 -5.57845 0
M  V30 2399 H 237.228 2.76858 -5.44226 0
M  V30 2400 H 238.642 0.512976 -5.71 0
M  V30 2401 H 237.039 -0.2244 -5.9968 0
M  V30 2402 H 238.109 -0.912931 -4.76228 0
M  V30 2403 N 239.452 1.56882 -0.150215 0
M  V30 2404 C 240.699 1.96228 0.500093 0
M  V30 2405 C 241.027 1.03522 1.64661 0
M  V30 2406 O 240.282 0.0650683 1.95592 0
M  V30 2407 C 240.581 3.41801 1.04437 0
M  V30 2408 C 240.247 4.50897 0.0159671 0
M  V30 2409 C 238.909 4.8046 -0.266731 0
M  V30 2410 C 241.261 5.16703 -0.683192 0
M  V30 2411 C 238.589 5.73135 -1.25434 0
M  V30 2412 C 240.941 6.10441 -1.65964 0
M  V30 2413 C 239.605 6.38382 -1.95 0
M  V30 2414 H 238.875 0.718048 0.182997 0
M  V30 2415 H 241.522 1.90019 -0.237724 0
M  V30 2416 H 239.827 3.44857 1.85959 0
M  V30 2417 H 241.524 3.69573 1.55618 0
M  V30 2418 H 238.114 4.27891 0.246485 0
M  V30 2419 H 242.298 4.93993 -0.477983 0
M  V30 2420 H 237.554 5.93074 -1.48571 0
M  V30 2421 H 241.728 6.60507 -2.20689 0
M  V30 2422 H 239.355 7.09996 -2.71679 0
M  V30 2423 N 240.93 -0.123565 1.57115 0
M  V30 2424 C 241.893 -1.13583 1.99076 0
M  V30 2425 C 242.893 -1.34564 0.880296 0
M  V30 2426 O 244.083 -1.31158 1.14644 0
M  V30 2427 C 241.215 -2.49128 2.32698 0
M  V30 2428 H 242.408 -0.775287 2.89706 0
M  V30 2429 H 239.961 -0.36771 1.51913 0
M  V30 2430 H 240.696 -2.90111 1.44934 0
M  V30 2431 H 240.481 -2.35255 3.13684 0
M  V30 2432 H 241.971 -3.2199 2.65918 0
M  V30 2433 N 242.408 -1.52605 -0.393616 0
M  V30 2434 C 243.819 -1.59417 -0.971761 0
M  V30 2435 C 244.17 -0.444173 -1.91106 0
M  V30 2436 O 243.295 0.433382 -2.12016 0
M  V30 2437 C 243.89 -2.88936 -1.76921 0
M  V30 2438 C 242.449 -2.98175 -2.29714 0
M  V30 2439 C 241.596 -2.54491 -1.10135 0
M  V30 2440 H 244.547 -1.57751 -0.173317 0
M  V30 2441 H 244.568 -2.75163 -2.62804 0
M  V30 2442 H 244.08 -3.72616 -1.08532 0
M  V30 2443 H 242.181 -2.19024 -3.01429 0
M  V30 2444 H 242.294 -4.02726 -2.59517 0
M  V30 2445 H 240.658 -2.08702 -1.45999 0
M  V30 2446 H 241.441 -3.4056 -0.432874 0
M  V30 2447 N 243.887 0.651787 -1.4349 0
M  V30 2448 C 244.819 1.77725 -1.44729 0
M  V30 2449 C 245.832 1.59141 -0.343231 0
M  V30 2450 O 247.021 1.67835 -0.607751 0
M  V30 2451 C 244.121 3.15172 -1.24579 0
M  V30 2452 C 243.294 3.60402 -2.47849 0
M  V30 2453 C 242.353 4.76656 -2.22902 0
M  V30 2454 O 241.379 4.86022 -2.96263 0
M  V30 2455 N 242.581 5.66958 -1.24656 0
M  V30 2456 H 245.346 1.77141 -2.41746 0
M  V30 2457 H 242.907 0.835678 -1.38665 0
M  V30 2458 H 244.899 3.90634 -1.0577 0
M  V30 2459 H 243.469 3.1052 -0.360015 0
M  V30 2460 H 242.689 2.75369 -2.82073 0
M  V30 2461 H 243.977 3.87368 -3.29884 0
M  V30 2462 H 243.375 5.62065 -0.640265 0
M  V30 2463 H 241.932 6.42135 -1.1183 0
M  V30 2464 N 245.365 1.30045 0.890287 0
M  V30 2465 C 246.595 1.21296 1.67245 0
M  V30 2466 C 247.003 -0.227471 1.87828 0
M  V30 2467 O 246.346 -1.16296 1.422 0
M  V30 2468 C 246.408 1.86519 3.07329 0
M  V30 2469 C 246.072 3.35837 3.09939 0
M  V30 2470 C 247.069 4.31915 2.89389 0
M  V30 2471 C 244.754 3.77196 3.31706 0
M  V30 2472 C 246.748 5.67325 2.90552 0
M  V30 2473 C 244.435 5.12725 3.32499 0
M  V30 2474 C 245.433 6.076 3.11947 0
M  V30 2475 O 245.121 7.40655 3.12547 0
M  V30 2476 H 244.853 0.4211 0.528821 0
M  V30 2477 H 247.407 1.72111 1.12103 0
M  V30 2478 H 245.637 1.30228 3.64112 0
M  V30 2479 H 247.326 1.71963 3.67673 0
M  V30 2480 H 248.092 4.01294 2.72375 0
M  V30 2481 H 243.971 3.03796 3.4674 0
M  V30 2482 H 247.515 6.41354 2.74429 0
M  V30 2483 H 243.412 5.42988 3.49047 0
M  V30 2484 H 244.18 7.49577 3.28749 0
M  V30 2485 N 246.843 -1.10192 1.12674 0
M  V30 2486 C 247.793 -2.14754 0.765801 0
M  V30 2487 C 248.777 -1.59154 -0.236409 0
M  V30 2488 O 249.969 -1.76951 -0.0415261 0
M  V30 2489 C 247.098 -3.42563 0.224827 0
M  V30 2490 C 246.184 -4.05091 1.25548 0
M  V30 2491 N 246.575 -4.42287 2.4539 0
M  V30 2492 C 244.873 -4.32186 1.10142 0
M  V30 2493 C 245.574 -4.91441 3.11224 0
M  V30 2494 N 244.55 -4.88405 2.38666 0
M  V30 2495 H 248.352 -2.41309 1.67772 0
M  V30 2496 H 245.866 -1.27339 1.00789 0
M  V30 2497 H 247.863 -4.16868 -0.0519578 0
M  V30 2498 H 246.523 -3.17467 -0.681515 0
M  V30 2499 H 247.534 -4.33902 2.82754 0
M  V30 2500 H 244.211 -4.16735 0.252587 0
M  V30 2501 H 245.601 -5.29749 4.13298 0
M  V30 2502 N 248.321 -0.919034 -1.28029 0
M  V30 2503 C 249.549 -0.570971 -1.98866 0
M  V30 2504 C 249.964 0.848996 -1.68634 0
M  V30 2505 O 249.321 1.56307 -0.942036 0
M  V30 2506 C 249.372 -0.776876 -3.53054 0
M  V30 2507 O 249.093 -2.14097 -3.82222 0
M  V30 2508 C 250.594 -0.436356 -4.41147 0
M  V30 2509 H 247.814 -0.217175 -0.634883 0
M  V30 2510 H 250.358 -1.23368 -1.63097 0
M  V30 2511 H 248.513 -0.161085 -3.87065 0
M  V30 2512 H 248.927 -2.18455 -4.76841 0
M  V30 2513 H 250.401 -0.63117 -5.4838 0
M  V30 2514 H 250.878 0.627686 -4.34692 0
M  V30 2515 H 251.484 -1.02991 -4.12641 0
M  V30 2516 N 249.799 1.42003 -0.683588 0
M  V30 2517 C 251.047 2.01015 -0.209101 0
M  V30 2518 C 251.368 1.54365 1.19149 0
M  V30 2519 O 250.638 0.769083 1.80172 0
M  V30 2520 H 249.218 0.743294 -0.074315 0
M  V30 2521 H 251.88 1.73798 -0.882066 0
M  V30 2522 H 250.976 3.11343 -0.2172 0
M  V30 2523 N 251.277 0.427512 1.51691 0
M  V30 2524 C 252.524 -0.142229 2.02 0
M  V30 2525 C 252.852 -1.43566 1.31221 0
M  V30 2526 O 252.107 -1.91298 0.412744 0
M  V30 2527 C 252.406 -0.418249 3.54944 0
M  V30 2528 C 252.072 0.788187 4.43958 0
M  V30 2529 C 250.734 1.11906 4.68007 0
M  V30 2530 C 253.086 1.59347 4.96244 0
M  V30 2531 C 250.414 2.25608 5.41588 0
M  V30 2532 C 252.766 2.7214 5.71072 0
M  V30 2533 C 251.43 3.05692 5.93387 0
M  V30 2534 H 250.7 -0.0520451 0.73917 0
M  V30 2535 H 253.347 0.572697 1.82736 0
M  V30 2536 H 251.652 -1.21496 3.72486 0
M  V30 2537 H 253.349 -0.872339 3.91397 0
M  V30 2538 H 249.939 0.520344 4.2543 0
M  V30 2539 H 254.123 1.35106 4.77556 0
M  V30 2540 H 249.379 2.51929 5.57083 0
M  V30 2541 H 253.553 3.34914 6.10578 0
M  V30 2542 H 251.18 3.9391 6.50184 0
M  V30 2543 N 252.755 -1.56801 0.158532 0
M  V30 2544 C 254.171 -1.5837 -0.197774 0
M  V30 2545 C 254.371 -1.17334 -1.63814 0
M  V30 2546 O 253.427 -0.878988 -2.36707 0
M  V30 2547 C 254.74 -3.00615 0.0714459 0
M  V30 2548 C 256.288 -3.12999 0.00864533 0
M  V30 2549 C 256.763 -4.57313 0.250685 0
M  V30 2550 N 258.254 -4.62777 0.198014 0
M  V30 2551 C 258.989 -5.72271 0.359642 0
M  V30 2552 N 258.485 -6.90371 0.579625 0
M  V30 2553 N 260.278 -5.61318 0.296438 0
M  V30 2554 H 252.429 -1.81765 1.09887 0
M  V30 2555 H 254.692 -0.841849 0.435884 0
M  V30 2556 H 254.398 -3.35068 1.06874 0
M  V30 2557 H 254.272 -3.71683 -0.642757 0
M  V30 2558 H 256.659 -2.7838 -0.979217 0
M  V30 2559 H 256.74 -2.44393 0.755359 0
M  V30 2560 H 256.384 -4.92639 1.2357 0
M  V30 2561 H 256.314 -5.24061 -0.516489 0
M  V30 2562 H 258.805 -3.77885 0.0331115 0
M  V30 2563 H 259.118 -7.69689 0.69275 0
M  V30 2564 H 257.463 -6.92264 0.616087 0
M  V30 2565 H 260.654 -4.67932 0.125258 0
M  V30 2566 H 260.827 -6.46599 0.425831 0
M  V30 2567 N 254.233 0.115231 -1.57178 0
M  V30 2568 C 255.183 1.14707 -1.97044 0
M  V30 2569 C 256.167 1.36866 -0.845957 0
M  V30 2570 O 257.359 1.37895 -1.10968 0
M  V30 2571 C 254.488 2.47266 -2.38148 0
M  V30 2572 C 253.574 2.28566 -3.57237 0
M  V30 2573 N 253.965 1.79685 -4.72807 0
M  V30 2574 C 252.263 2.59208 -3.62943 0
M  V30 2575 C 252.964 1.74781 -5.54821 0
M  V30 2576 N 251.94 2.19264 -4.97417 0
M  V30 2577 H 255.742 0.761754 -2.83857 0
M  V30 2578 H 253.256 0.322928 -1.59157 0
M  V30 2579 H 255.253 3.219 -2.64927 0
M  V30 2580 H 253.913 2.86552 -1.52702 0
M  V30 2581 H 254.924 1.49177 -4.9595 0
M  V30 2582 H 251.601 3.02154 -2.88113 0
M  V30 2583 H 252.991 1.38212 -6.57531 0
M  V30 2584 N 255.711 1.52812 0.385517 0
M  V30 2585 C 256.674 1.77188 1.45386 0
M  V30 2586 C 257.674 0.641953 1.4743 0
M  V30 2587 O 258.864 0.910033 1.4854 0
M  V30 2588 C 255.996 1.87582 2.8465 0
M  V30 2589 H 257.189 2.72583 1.25054 0
M  V30 2590 H 254.742 1.43586 0.617467 0
M  V30 2591 H 255.477 0.941849 3.10322 0
M  V30 2592 H 255.262 2.69748 2.84567 0
M  V30 2593 H 256.752 2.08102 3.62054 0
M  V30 2594 N 257.189 -0.644168 1.43834 0
M  V30 2595 C 258.122 -1.76906 1.44151 0
M  V30 2596 C 259.1 -1.59774 0.301857 0
M  V30 2597 O 260.284 -1.81834 0.496841 0
M  V30 2598 C 257.411 -3.14321 1.26174 0
M  V30 2599 C 256.457 -3.50134 2.43533 0
M  V30 2600 S 257.29 -3.49085 4.06079 0
M  V30 2601 C 258.446 -4.89142 3.90501 0
M  V30 2602 H 258.679 -1.76368 2.39336 0
M  V30 2603 H 256.212 -0.817624 1.30974 0
M  V30 2604 H 258.17 -3.93625 1.16489 0
M  V30 2605 H 256.831 -3.12412 0.325224 0
M  V30 2606 H 256.024 -4.50095 2.26783 0
M  V30 2607 H 255.626 -2.78264 2.4989 0
M  V30 2608 H 257.918 -5.78036 3.53385 0
M  V30 2609 H 258.861 -5.10945 4.90246 0
M  V30 2610 H 259.269 -4.63102 3.22795 0
M  V30 2611 N 258.668 -1.30515 -0.883378 0
M  V30 2612 C 260.079 -1.17509 -1.45081 0
M  V30 2613 C 260.43 0.223605 -1.94922 0
M  V30 2614 O 259.555 1.12041 -1.85137 0
M  V30 2615 C 260.15 -2.12715 -2.63701 0
M  V30 2616 C 258.709 -2.03682 -3.16529 0
M  V30 2617 C 257.856 -2.02706 -1.89224 0
M  V30 2618 H 260.807 -1.42762 -0.693165 0
M  V30 2619 H 260.828 -1.70891 -3.39965 0
M  V30 2620 H 260.34 -3.14505 -2.27395 0
M  V30 2621 H 258.441 -1.05039 -3.57488 0
M  V30 2622 H 258.554 -2.92146 -3.7972 0
M  V30 2623 H 256.918 -1.4753 -2.07622 0
M  V30 2624 H 257.701 -3.06229 -1.55174 0
M  V30 2625 N 260.146 1.09593 -1.13257 0
M  V30 2626 C 261.392 1.82003 -0.89458 0
M  V30 2627 C 261.725 1.85402 0.577906 0
M  V30 2628 O 261 1.32099 1.42759 0
M  V30 2629 C 261.283 3.28237 -1.48096 0
M  V30 2630 C 261.136 3.3312 -3.02244 0
M  V30 2631 C 262.455 4.24871 -1.14774 0
M  V30 2632 H 259.574 0.66077 -0.326424 0
M  V30 2633 H 262.216 1.28389 -1.40058 0
M  V30 2634 H 260.366 3.74024 -1.05062 0
M  V30 2635 H 262.038 2.95748 -3.54021 0
M  V30 2636 H 260.281 2.72756 -3.37323 0
M  V30 2637 H 260.952 4.3613 -3.38371 0
M  V30 2638 H 263.428 3.87361 -1.51957 0
M  V30 2639 H 262.304 5.25532 -1.58452 0
M  V30 2640 H 262.565 4.42058 -0.0611849 0
M  V30 2641 N 261.624 0.925811 1.2754 0
M  V30 2642 C 263.04 0.625767 1.46821 0
M  V30 2643 C 263.24 -0.825506 1.83814 0
M  V30 2644 O 262.296 -1.60356 1.95044 0
M  V30 2645 C 263.609 1.57402 2.56213 0
M  V30 2646 C 265.157 1.58204 2.70075 0
M  V30 2647 C 265.632 2.51721 3.82623 0
M  V30 2648 N 267.123 2.49917 3.89994 0
M  V30 2649 C 267.858 3.18968 4.76494 0
M  V30 2650 N 267.354 3.97391 5.67496 0
M  V30 2651 N 269.147 3.07996 4.70208 0
M  V30 2652 H 261.298 1.86409 1.01811 0
M  V30 2653 H 263.561 0.800213 0.508295 0
M  V30 2654 H 263.267 2.60925 2.35819 0
M  V30 2655 H 263.141 1.31428 3.53563 0
M  V30 2656 H 265.528 0.554124 2.89851 0
M  V30 2657 H 265.609 1.88226 1.73218 0
M  V30 2658 H 265.253 3.54622 3.63601 0
M  V30 2659 H 265.183 2.18996 4.78903 0
M  V30 2660 H 267.674 1.9296 3.24923 0
M  V30 2661 H 267.987 4.4707 6.30356 0
M  V30 2662 H 266.332 4.01495 5.67298 0
M  V30 2663 H 269.523 2.46223 3.9811 0
M  V30 2664 H 269.696 3.6208 5.37403 0
M  V30 2665 N 263.102 -1.41638 0.69111 0
M  V30 2666 C 264.034 -2.29194 -0.0161523 0
M  V30 2667 C 265.047 -1.44549 -0.748955 0
M  V30 2668 O 266.236 -1.681 -0.6004 0
M  V30 2669 C 263.336 -3.22325 -1.0469 0
M  V30 2670 C 262.509 -4.35706 -0.384621 0
M  V30 2671 C 261.568 -5.09443 -1.31737 0
M  V30 2672 O 260.594 -5.63386 -0.811451 0
M  V30 2673 N 261.796 -5.16487 -2.64993 0
M  V30 2674 H 264.561 -2.90534 0.735523 0
M  V30 2675 H 262.122 -1.52742 0.53679 0
M  V30 2676 H 264.114 -3.68522 -1.67252 0
M  V30 2677 H 262.684 -2.62323 -1.70015 0
M  V30 2678 H 261.904 -3.91948 0.420804 0
M  V30 2679 H 263.192 -5.08743 0.0760765 0
M  V30 2680 H 262.59 -4.741 -3.08619 0
M  V30 2681 H 261.147 -5.66276 -3.22761 0
M  V30 2682 N 264.58 -0.43555 -1.51462 0
M  V30 2683 C 265.512 0.41257 -2.25456 0
M  V30 2684 C 266.525 0.987822 -1.29406 0
M  V30 2685 O 267.714 0.882266 -1.55172 0
M  V30 2686 C 264.814 1.58894 -2.99342 0
M  V30 2687 C 263.987 1.13288 -4.22474 0
M  V30 2688 C 263.046 2.17917 -4.78956 0
M  V30 2689 O 262.072 1.77425 -5.40841 0
M  V30 2690 N 263.274 3.50382 -4.62832 0
M  V30 2691 H 266.039 -0.221603 -2.9888 0
M  V30 2692 H 263.6 -0.264342 -1.59727 0
M  V30 2693 H 265.592 2.28508 -3.34015 0
M  V30 2694 H 264.162 2.12849 -2.28941 0
M  V30 2695 H 263.382 0.263881 -3.93316 0
M  V30 2696 H 264.67 0.805542 -5.02383 0
M  V30 2697 H 264.068 3.86013 -4.13534 0
M  V30 2698 H 262.625 4.15895 -5.01871 0
M  V30 2699 N 266.058 1.56714 -0.166846 0
M  V30 2700 C 266.988 2.20754 0.760913 0
M  V30 2701 C 267.969 1.16178 1.24244 0
M  V30 2702 O 269.154 1.44592 1.29641 0
M  V30 2703 C 266.284 2.84478 1.99223 0
M  V30 2704 C 265.238 3.95053 1.64672 0
M  V30 2705 C 264.564 4.45805 2.95232 0
M  V30 2706 C 265.864 5.14865 0.878155 0
M  V30 2707 H 267.558 2.98537 0.22713 0
M  V30 2708 H 265.104 1.43596 0.107805 0
M  V30 2709 H 267.057 3.27951 2.64624 0
M  V30 2710 H 265.781 2.04056 2.55007 0
M  V30 2711 H 264.44 3.52228 1.01641 0
M  V30 2712 H 264.088 3.62181 3.49047 0
M  V30 2713 H 263.788 5.204 2.7287 0
M  V30 2714 H 265.312 4.91962 3.6167 0
M  V30 2715 H 266.726 5.55059 1.43466 0
M  V30 2716 H 265.123 5.95348 0.753738 0
M  V30 2717 H 266.193 4.84735 -0.126377 0
M  V30 2718 N 267.536 -0.106894 1.57237 0
M  V30 2719 C 268.483 -1.13049 2.01217 0
M  V30 2720 C 269.453 -1.40471 0.886403 0
M  V30 2721 O 270.638 -1.52133 1.15153 0
M  V30 2722 C 267.778 -2.4487 2.43172 0
M  V30 2723 C 266.891 -2.24281 3.69218 0
M  V30 2724 C 266.026 -3.49417 4.00101 0
M  V30 2725 C 265.065 -3.24038 5.19294 0
M  V30 2726 N 264.202 -4.41409 5.45988 0
M  V30 2727 H 269.042 -0.748456 2.88448 0
M  V30 2728 H 266.579 -0.358054 1.42676 0
M  V30 2729 H 268.537 -3.21786 2.65537 0
M  V30 2730 H 267.167 -2.80944 1.58967 0
M  V30 2731 H 266.219 -1.38224 3.54398 0
M  V30 2732 H 267.531 -2.01512 4.56283 0
M  V30 2733 H 266.685 -4.34746 4.2318 0
M  V30 2734 H 265.424 -3.75229 3.11535 0
M  V30 2735 H 264.429 -2.37102 4.96047 0
M  V30 2736 H 265.654 -2.99584 6.09447 0
M  V30 2737 H 263.6 -4.67319 4.60379 0
M  V30 2738 H 263.517 -4.21788 6.274 0
M  V30 2739 H 264.785 -5.27836 5.73593 0
M  V30 2740 N 269.014 -1.53014 -0.377408 0
M  V30 2741 C 270.242 -1.72515 -1.14219 0
M  V30 2742 C 270.657 -0.448735 -1.8339 0
M  V30 2743 O 270.014 0.577592 -1.73119 0
M  V30 2744 C 270.065 -2.8826 -2.18148 0
M  V30 2745 O 269.786 -4.10962 -1.51795 0
M  V30 2746 C 271.287 -3.19536 -3.07264 0
M  V30 2747 H 268.507 -0.577301 -0.342001 0
M  V30 2748 H 271.051 -1.99712 -0.439935 0
M  V30 2749 H 269.206 -2.63492 -2.83991 0
M  V30 2750 H 269.62 -4.75693 -2.20945 0
M  V30 2751 H 271.094 -4.03959 -3.76193 0
M  V30 2752 H 271.571 -2.34403 -3.71419 0
M  V30 2753 H 272.177 -3.46186 -2.47053 0
M  V30 2754 N 270.492 0.636531 -1.44174 0
M  V30 2755 C 271.908 0.954104 -1.27941 0
M  V30 2756 C 272.108 2.0039 -0.211248 0
M  V30 2757 O 271.164 2.49236 0.404695 0
M  V30 2758 C 272.477 1.4225 -2.64925 0
M  V30 2759 C 274.025 1.53827 -2.72592 0
M  V30 2760 C 274.5 2.04053 -4.10032 0
M  V30 2761 N 275.991 2.11331 -4.12182 0
M  V30 2762 C 276.726 2.51352 -5.15374 0
M  V30 2763 N 276.222 2.90549 -6.2893 0
M  V30 2764 N 278.015 2.51438 -5.02728 0
M  V30 2765 H 270.166 -0.0578386 -2.12321 0
M  V30 2766 H 272.429 0.0367406 -0.947288 0
M  V30 2767 H 272.135 0.725466 -3.44136 0
M  V30 2768 H 272.009 2.39451 -2.9145 0
M  V30 2769 H 274.396 2.22628 -1.93702 0
M  V30 2770 H 274.477 0.550154 -2.49814 0
M  V30 2771 H 274.121 1.35848 -4.89395 0
M  V30 2772 H 274.051 3.03726 -4.30184 0
M  V30 2773 H 276.542 1.83745 -3.30222 0
M  V30 2774 H 276.855 3.19884 -7.03487 0
M  V30 2775 H 275.2 2.88313 -6.32377 0
M  V30 2776 H 278.391 2.20203 -4.13072 0
M  V30 2777 H 278.564 2.82304 -5.83274 0
M  V30 2778 N 271.97 1.30982 0.876444 0
M  V30 2779 C 273.198 1.23242 1.6619 0
M  V30 2780 C 273.613 -0.203345 1.87702 0
M  V30 2781 O 272.97 -1.13317 1.43057 0
M  V30 2782 C 273.021 1.96623 3.03351 0
M  V30 2783 O 272.742 3.34594 2.82804 0
M  V30 2784 C 274.243 1.95644 3.97792 0
M  V30 2785 H 271.463 0.426126 0.518322 0
M  V30 2786 H 274.007 1.7275 1.09442 0
M  V30 2787 H 272.162 1.50892 3.56806 0
M  V30 2788 H 272.576 3.71873 3.69879 0
M  V30 2789 H 274.05 2.51511 4.91372 0
M  V30 2790 H 274.527 0.937395 4.2908 0
M  V30 2791 H 275.133 2.41225 3.50272 0
M  V30 2792 N 273.449 -1.08991 1.13837 0
M  V30 2793 C 274.698 -1.80631 0.897509 0
M  V30 2794 C 275.011 -1.86872 -0.57777 0
M  V30 2795 O 276.217 -2.54866 -0.935701 0
M  V30 2796 C 274.673 -3.24517 1.55618 0
M  V30 2797 C 274.281 -3.26529 3.0673 0
M  V30 2798 C 276.025 -4.00882 1.3962 0
M  V30 2799 C 273.932 -4.64965 3.65461 0
M  V30 2800 H 272.862 -0.67691 0.332129 0
M  V30 2801 H 275.513 -1.2246 1.3666 0
M  V30 2802 H 273.895 -3.82778 1.01476 0
M  V30 2803 H 275.069 -2.78008 3.67489 0
M  V30 2804 H 273.384 -2.63656 3.22296 0
M  V30 2805 H 275.981 -5.03167 1.80906 0
M  V30 2806 H 276.324 -4.14896 0.341578 0
M  V30 2807 H 276.857 -3.49075 1.90766 0
M  V30 2808 H 273.596 -4.56153 4.70749 0
M  V30 2809 H 273.116 -5.13792 3.09481 0
M  V30 2810 H 274.795 -5.3394 3.654 0
M  V30 2811 N 274.927 -0.932562 -1.27047 0
M  V30 2812 C 276.174 -0.575559 -1.94148 0
M  V30 2813 C 276.502 0.883984 -1.73251 0
M  V30 2814 O 275.757 1.64655 -1.0577 0
M  V30 2815 C 276.056 -0.853713 -3.47054 0
M  V30 2816 C 275.722 -2.29577 -3.88079 0
M  V30 2817 C 274.384 -2.68999 -3.9899 0
M  V30 2818 C 276.736 -3.23331 -4.08787 0
M  V30 2819 C 274.064 -4.01289 -4.28 0
M  V30 2820 C 276.416 -4.55207 -4.39282 0
M  V30 2821 C 275.08 -4.94457 -4.48407 0
M  V30 2822 H 274.35 -0.210612 -0.710439 0
M  V30 2823 H 276.997 -1.17744 -1.51025 0
M  V30 2824 H 275.302 -0.169204 -3.91434 0
M  V30 2825 H 276.999 -0.55639 -3.97121 0
M  V30 2826 H 273.589 -1.97994 -3.80127 0
M  V30 2827 H 277.773 -2.94074 -3.99793 0
M  V30 2828 H 273.029 -4.31374 -4.33275 0
M  V30 2829 H 277.203 -5.27852 -4.54252 0
M  V30 2830 H 274.83 -5.96994 -4.7064 0
M  V30 2831 N 276.405 1.4127 -0.698611 0
M  V30 2832 C 277.353 2.32588 -0.023855 0
M  V30 2833 C 278.347 1.51128 0.765292 0
M  V30 2834 O 279.553 1.67043 0.670571 0
M  V30 2835 H 275.928 0.751918 0.0110871 0
M  V30 2836 H 277.899 2.87167 -0.811031 0
M  V30 2837 C 276.648 3.35947 0.896369 0
M  V30 2838 H 275.971 3.98684 0.298548 0
M  V30 2839 H 277.411 4.02376 1.33676 0
M  V30 2840 C 275.87 2.70076 2.01396 0
M  V30 2841 O 276.4 2.55093 3.10307 0
M  V30 2842 N 274.606 2.28724 1.79259 0
M  V30 2843 H 274.153 2.4111 0.906841 0
M  V30 2844 H 274.111 1.84986 2.54219 0
M  V30 2845 N 277.883 0.443576 1.51229 0
M  V30 2846 C 279.129 -0.120975 2.02439 0
M  V30 2847 C 279.462 -1.41815 1.32674 0
M  V30 2848 O 278.737 -1.89373 0.443622 0
M  V30 2849 C 279.02 -0.333291 3.58554 0
M  V30 2850 C 278.873 0.982968 4.38928 0
M  V30 2851 C 280.192 -1.10028 4.26124 0
M  V30 2852 H 277.311 -0.0424923 0.735774 0
M  V30 2853 H 279.953 0.583794 1.80809 0
M  V30 2854 H 278.103 -0.933614 3.77115 0
M  V30 2855 H 279.775 1.61775 4.32003 0
M  V30 2856 H 278.018 1.58611 4.03763 0
M  V30 2857 H 278.689 0.788379 5.46341 0
M  V30 2858 H 281.165 -0.591711 4.11871 0
M  V30 2859 H 280.041 -1.21761 5.35225 0
M  V30 2860 H 280.302 -2.12996 3.87408 0
M  V30 2861 N 279.361 -1.56624 0.175154 0
M  V30 2862 C 280.291 -2.21155 -0.749195 0
M  V30 2863 C 281.272 -1.16836 -1.23626 0
M  V30 2864 O 282.457 -1.45277 -1.28873 0
M  V30 2865 C 279.587 -2.8553 -1.97711 0
M  V30 2866 C 278.541 -3.95921 -1.62575 0
M  V30 2867 C 277.867 -4.47365 -2.92864 0
M  V30 2868 C 279.167 -5.15323 -0.850838 0
M  V30 2869 H 280.861 -2.98653 -0.211295 0
M  V30 2870 H 278.407 -1.43651 -0.100188 0
M  V30 2871 H 280.36 -3.2935 -2.62881 0
M  V30 2872 H 279.084 -2.05406 -2.53921 0
M  V30 2873 H 277.743 -3.52762 -0.997719 0
M  V30 2874 H 277.391 -3.64027 -3.47122 0
M  V30 2875 H 277.091 -5.21839 -2.70106 0
M  V30 2876 H 278.615 -4.93873 -3.59056 0
M  V30 2877 H 280.029 -5.55812 -1.40521 0
M  V30 2878 H 278.426 -5.95739 -0.722154 0
M  V30 2879 H 279.496 -4.84661 0.152082 0
M  V30 2880 N 280.839 0.0985539 -1.57292 0
M  V30 2881 C 282.087 0.801092 -1.85545 0
M  V30 2882 C 282.408 1.79438 -0.763353 0
M  V30 2883 O 281.678 1.94763 0.21073 0
M  V30 2884 H 280.258 0.29884 -0.684619 0
M  V30 2885 H 282.92 0.0810064 -1.94732 0
M  V30 2886 H 282.016 1.3338 -2.82163 0
M  V30 2887 N 282.317 1.53212 0.369288 0
M  V30 2888 C 283.728 1.60943 0.946276 0
M  V30 2889 C 284.079 0.47452 1.90375 0
M  V30 2890 O 283.204 -0.399597 2.12679 0
M  V30 2891 C 283.799 2.91715 1.72302 0
M  V30 2892 C 282.358 3.01792 2.24941 0
M  V30 2893 C 281.505 2.56211 1.06072 0
M  V30 2894 H 284.456 1.58007 0.148198 0
M  V30 2895 H 284.477 2.79309 2.58393 0
M  V30 2896 H 283.989 3.74295 1.0259 0
M  V30 2897 H 282.09 2.23791 2.97906 0
M  V30 2898 H 282.203 4.06803 2.53077 0
M  V30 2899 H 280.567 2.10998 1.4266 0
M  V30 2900 H 281.35 3.41206 0.378639 0
M  V30 2901 N 283.795 -0.628877 1.44509 0
M  V30 2902 C 284.725 -1.75187 1.54376 0
M  V30 2903 C 285.706 -1.65411 0.396618 0
M  V30 2904 O 286.891 -1.84137 0.617031 0
M  V30 2905 C 284.021 -3.13725 1.48976 0
M  V30 2906 C 282.975 -3.38291 2.62189 0
M  V30 2907 C 282.301 -4.76883 2.41841 0
M  V30 2908 C 283.601 -3.30632 4.04326 0
M  V30 2909 H 285.295 -1.67187 2.48373 0
M  V30 2910 H 282.841 -0.802909 1.19538 0
M  V30 2911 H 284.794 -3.92064 1.54478 0
M  V30 2912 H 283.518 -3.22515 0.514961 0
M  V30 2913 H 282.177 -2.62334 2.56079 0
M  V30 2914 H 281.825 -4.82378 1.42548 0
M  V30 2915 H 281.525 -4.94278 3.17747 0
M  V30 2916 H 283.049 -5.57449 2.49165 0
M  V30 2917 H 284.463 -3.98873 4.11793 0
M  V30 2918 H 282.86 -3.59561 4.80454 0
M  V30 2919 H 283.93 -2.28404 4.27738 0
M  V30 2920 N 285.273 -1.31445 -0.869486 0
M  V30 2921 C 286.522 -1.20517 -1.61736 0
M  V30 2922 C 286.835 0.235341 -1.94179 0
M  V30 2923 O 288.041 0.466312 -2.67465 0
M  V30 2924 C 286.497 -2.10982 -2.91573 0
M  V30 2925 C 286.105 -3.60032 -2.66611 0
M  V30 2926 C 287.849 -2.08856 -3.69567 0
M  V30 2927 C 285.756 -4.42503 -3.92358 0
M  V30 2928 H 284.686 -0.447493 -0.606849 0
M  V30 2929 H 287.337 -1.56303 -0.96133 0
M  V30 2930 H 285.719 -1.68095 -3.58553 0
M  V30 2931 H 286.893 -4.11167 -2.08035 0
M  V30 2932 H 285.208 -3.64139 -2.0197 0
M  V30 2933 H 287.805 -2.67716 -4.62852 0
M  V30 2934 H 288.148 -1.07582 -4.02159 0
M  V30 2935 H 288.681 -2.49945 -3.09471 0
M  V30 2936 H 285.42 -5.44533 -3.64916 0
M  V30 2937 H 284.94 -3.96125 -4.50383 0
M  V30 2938 H 286.619 -4.54741 -4.60238 0
M  V30 2939 N 286.751 1.08385 -1.14413 0
M  V30 2940 C 287.699 2.17406 -0.826888 0
M  V30 2941 C 288.693 1.6827 0.195312 0
M  V30 2942 O 289.899 1.79927 0.0513892 0
M  V30 2943 H 286.274 0.70934 -0.249681 0
M  V30 2944 H 288.245 2.41388 -1.75426 0
M  V30 2945 C 286.994 3.46215 -0.320979 0
M  V30 2946 H 286.317 3.84401 -1.0989 0
M  V30 2947 H 287.757 4.23777 -0.137549 0
M  V30 2948 C 286.216 3.23067 0.955472 0
M  V30 2949 O 286.746 3.4668 2.02918 0
M  V30 2950 N 284.952 2.7661 0.890798 0
M  V30 2951 H 284.499 2.57594 0.0168815 0
M  V30 2952 H 284.457 2.61501 1.74542 0
M  V30 2953 N 288.23 0.939286 1.26551 0
M  V30 2954 C 289.641 0.628782 1.75793 0
M  V30 2955 C 289.992 -0.856046 1.7654 0
M  V30 2956 O 289.117 -1.66994 1.3763 0
M  V30 2957 C 289.712 1.13465 3.19235 0
M  V30 2958 C 288.271 0.874601 3.66098 0
M  V30 2959 C 287.418 1.28667 2.45642 0
M  V30 2960 H 290.369 1.1178 1.12654 0
M  V30 2961 H 290.39 0.487609 3.77363 0
M  V30 2962 H 289.902 2.21535 3.1866 0
M  V30 2963 H 288.003 -0.191793 3.72106 0
M  V30 2964 H 288.116 1.50028 4.55004 0
M  V30 2965 H 286.48 0.705109 2.44745 0
M  V30 2966 H 287.263 2.37625 2.47769 0
M  V30 2967 N 289.708 -1.40897 0.706093 0
M  V30 2968 C 290.671 -2.29131 0.0562841 0
M  V30 2969 C 291.671 -1.44901 -0.697166 0
M  V30 2970 O 292.861 -1.65926 -0.530484 0
M  V30 2971 C 289.993 -3.27957 -0.93043 0
M  V30 2972 H 291.186 -2.88091 0.833284 0
M  V30 2973 H 288.739 -1.4906 0.470192 0
M  V30 2974 H 289.474 -2.73997 -1.73482 0
M  V30 2975 H 289.259 -3.90124 -0.393166 0
M  V30 2976 H 290.749 -3.94049 -1.38256 0
M  V30 2977 N 291.186 -0.45159 -1.50991 0
M  V30 2978 C 292.602 -0.104647 -1.59257 0
M  V30 2979 C 292.802 1.38728 -1.4614 0
M  V30 2980 O 291.858 2.15866 -1.30989 0
M  V30 2981 C 293.171 -0.637468 -2.93865 0
M  V30 2982 C 294.719 -0.599166 -3.07212 0
M  V30 2983 C 295.194 -1.1092 -4.44366 0
M  V30 2984 N 296.685 -1.06778 -4.50725 0
M  V30 2985 C 297.42 -1.43314 -5.55201 0
M  V30 2986 N 296.916 -1.87204 -6.67028 0
M  V30 2987 N 298.709 -1.3504 -5.45638 0
M  V30 2988 H 290.86 -1.42214 -1.57762 0
M  V30 2989 H 293.123 -0.586921 -0.744465 0
M  V30 2990 H 292.829 -1.68187 -3.08879 0
M  V30 2991 H 292.703 -0.0702139 -3.77135 0
M  V30 2992 H 295.09 0.436277 -2.91857 0
M  V30 2993 H 295.171 -1.20299 -2.25747 0
M  V30 2994 H 294.815 -2.14318 -4.60467 0
M  V30 2995 H 294.745 -0.481773 -5.24392 0
M  V30 2996 H 297.236 -0.745643 -3.70471 0
M  V30 2997 H 297.549 -2.13282 -7.42786 0
M  V30 2998 H 295.894 -1.91142 -6.68199 0
M  V30 2999 H 299.085 -1.00607 -4.57161 0
M  V30 3000 H 299.258 -1.63841 -6.26945 0
M  V30 3001 N 292.664 1.56529 -0.183458 0
M  V30 3002 C 294.075 1.83739 0.331177 0
M  V30 3003 C 294.426 1.10373 1.62211 0
M  V30 3004 O 293.551 0.36071 2.13373 0
M  V30 3005 C 294.146 3.33306 0.607646 0
M  V30 3006 C 292.705 3.60969 1.06668 0
M  V30 3007 C 291.852 2.77086 0.109029 0
M  V30 3008 H 294.803 1.53379 -0.407484 0
M  V30 3009 H 294.824 3.51444 1.45832 0
M  V30 3010 H 294.336 3.86677 -0.332086 0
M  V30 3011 H 292.437 3.13021 2.0211 0
M  V30 3012 H 292.55 4.69231 0.967447 0
M  V30 3013 H 290.914 2.47319 0.608714 0
M  V30 3014 H 291.697 3.33241 -0.82494 0
M  V30 3015 N 294.142 -0.090211 1.57342 0
M  V30 3016 C 295.553 -0.644173 1.75235 0
M  V30 3017 C 295.904 -1.78865 0.806335 0
M  V30 3018 O 295.029 -2.16395 -0.0140128 0
M  V30 3019 C 295.624 -1.17532 3.1776 0
M  V30 3020 C 294.183 -1.67531 3.37061 0
M  V30 3021 C 293.33 -0.58693 2.71017 0
M  V30 3022 H 296.281 0.135884 1.58117 0
M  V30 3023 H 296.302 -2.04455 3.20902 0
M  V30 3024 H 295.814 -0.342138 3.86589 0
M  V30 3025 H 293.915 -2.53234 2.73319 0
M  V30 3026 H 294.028 -1.76493 4.45406 0
M  V30 3027 H 292.392 -1.02756 2.33052 0
M  V30 3028 H 293.175 0.235758 3.4249 0
M  V30 3029 N 295.62 -1.53406 -0.361157 0
M  V30 3030 C 296.567 -1.80156 -1.44265 0
M  V30 3031 C 297.537 -0.646183 -1.53015 0
M  V30 3032 O 298.722 -0.888818 -1.68833 0
M  V30 3033 C 295.862 -2.00116 -2.81154 0
M  V30 3034 C 294.975 -3.27833 -2.81335 0
M  V30 3035 C 294.11 -3.37957 -4.09828 0
M  V30 3036 C 293.149 -4.59689 -4.04168 0
M  V30 3037 N 292.286 -4.66942 -5.24318 0
M  V30 3038 H 297.126 -2.72438 -1.20754 0
M  V30 3039 H 294.663 -1.34954 -0.585296 0
M  V30 3040 H 296.621 -2.09677 -3.60682 0
M  V30 3041 H 295.251 -1.11167 -3.03054 0
M  V30 3042 H 294.303 -3.27204 -1.94014 0
M  V30 3043 H 295.615 -4.17442 -2.73027 0
M  V30 3044 H 294.769 -3.46853 -4.97773 0
M  V30 3045 H 293.508 -2.46372 -4.20894 0
M  V30 3046 H 292.513 -4.50889 -3.14609 0
M  V30 3047 H 293.738 -5.5262 -3.947 0
M  V30 3048 H 291.684 -3.7826 -5.35962 0
M  V30 3049 H 291.601 -5.50462 -5.18197 0
M  V30 3050 H 292.869 -4.80127 -6.14084 0
M  V30 3051 N 297.098 0.621204 -1.44841 0
M  V30 3052 C 298.061 1.71459 -1.521 0
M  V30 3053 C 299.061 1.55696 -0.401933 0
M  V30 3054 O 300.251 1.61011 -0.664925 0
M  V30 3055 C 297.383 3.10624 -1.40447 0
M  V30 3056 H 298.576 1.66394 -2.49506 0
M  V30 3057 H 296.129 0.835745 -1.3208 0
M  V30 3058 H 296.864 3.21277 -0.441737 0
M  V30 3059 H 296.649 3.23473 -2.21602 0
M  V30 3060 H 298.139 3.90293 -1.4853 0
M  V30 3061 N 298.576 1.31904 0.862503 0
M  V30 3062 C 299.506 1.22782 1.98612 0
M  V30 3063 C 300.487 0.113362 1.69722 0
M  V30 3064 O 301.672 0.299218 1.91881 0
M  V30 3065 C 298.802 0.942058 3.34279 0
M  V30 3066 C 297.756 2.0169 3.77499 0
M  V30 3067 C 297.082 1.58369 5.10709 0
M  V30 3068 C 298.382 3.43096 3.93805 0
M  V30 3069 H 300.076 2.16788 2.06502 0
M  V30 3070 H 297.622 1.04366 0.992154 0
M  V30 3071 H 299.575 0.864818 4.1243 0
M  V30 3072 H 298.299 -0.0336603 3.26583 0
M  V30 3073 H 296.958 2.08416 3.01593 0
M  V30 3074 H 296.606 0.595628 4.99461 0
M  V30 3075 H 296.306 2.30279 5.40597 0
M  V30 3076 H 297.83 1.52067 5.91361 0
M  V30 3077 H 299.244 3.39003 4.62331 0
M  V30 3078 H 297.641 4.13288 4.35101 0
M  V30 3079 H 298.711 3.83334 2.96957 0
M  V30 3080 N 300.054 -1.07777 1.14986 0
M  V30 3081 C 301.303 -1.79669 0.916617 0
M  V30 3082 C 301.616 -1.87474 -0.557917 0
M  V30 3083 O 302.822 -2.55845 -0.908617 0
M  V30 3084 C 301.278 -3.22848 1.59051 0
M  V30 3085 C 300.886 -3.23257 3.10176 0
M  V30 3086 C 302.63 -3.99379 1.43864 0
M  V30 3087 C 300.537 -4.61063 3.70372 0
M  V30 3088 H 299.467 -0.673349 0.33929 0
M  V30 3089 H 302.118 -1.21003 1.37951 0
M  V30 3090 H 300.5 -3.8168 1.0553 0
M  V30 3091 H 301.674 -2.74095 3.70417 0
M  V30 3092 H 299.989 -2.60222 3.25074 0
M  V30 3093 H 302.586 -5.0122 1.86232 0
M  V30 3094 H 302.929 -4.14511 0.385564 0
M  V30 3095 H 303.462 -3.47032 1.94457 0
M  V30 3096 H 300.201 -4.51135 4.7556 0
M  V30 3097 H 299.721 -5.1048 3.14913 0
M  V30 3098 H 301.4 -5.30034 3.71043 0
M  V30 3099 N 301.532 -0.945985 -1.26051 0
M  V30 3100 C 302.78 -0.594941 -1.93145 0
M  V30 3101 C 303.101 0.86953 -1.7454 0
M  V30 3102 O 302.371 1.61838 -1.10387 0
M  V30 3103 H 300.951 -0.217044 -0.714773 0
M  V30 3104 H 303.613 -1.20235 -1.53393 0
M  V30 3105 H 302.709 -0.816835 -3.01221 0
M  V30 3106 N 303.011 1.40521 -0.713556 0
M  V30 3107 C 304.257 2.01221 -0.252564 0
M  V30 3108 C 304.59 1.56444 1.1506 0
M  V30 3109 O 303.865 0.783597 1.78017 0
M  V30 3110 C 304.148 3.58582 -0.330332 0
M  V30 3111 C 304.001 4.13437 -1.77173 0
M  V30 3112 C 305.32 4.39079 0.299641 0
M  V30 3113 H 302.439 0.731077 -0.0932471 0
M  V30 3114 H 305.081 1.67026 -0.905673 0
M  V30 3115 H 303.231 3.87844 0.225737 0
M  V30 3116 H 304.903 3.9498 -2.38303 0
M  V30 3117 H 303.146 3.67801 -2.3001 0
M  V30 3118 H 303.817 5.22597 -1.77755 0
M  V30 3119 H 306.293 4.15735 -0.174139 0
M  V30 3120 H 305.169 5.4848 0.214771 0
M  V30 3121 H 305.43 4.19915 1.38288 0
M  V30 3122 N 304.489 0.459591 1.5075 0
M  V30 3123 C 305.719 -0.0972338 2.06371 0
M  V30 3124 C 306.127 -1.35074 1.32483 0
M  V30 3125 O 305.47 -1.79637 0.384226 0
M  V30 3126 C 305.532 -0.462759 3.56509 0
M  V30 3127 C 305.196 0.687084 4.51805 0
M  V30 3128 C 306.193 1.56578 4.95761 0
M  V30 3129 C 303.878 0.874144 4.94635 0
M  V30 3130 C 305.872 2.61604 5.81242 0
M  V30 3131 C 303.559 1.92765 5.79901 0
M  V30 3132 C 304.557 2.79697 6.23104 0
M  V30 3133 O 304.245 3.83235 7.06673 0
M  V30 3134 H 303.977 -0.00140687 0.675999 0
M  V30 3135 H 306.531 0.644011 1.95043 0
M  V30 3136 H 304.761 -1.25703 3.65699 0
M  V30 3137 H 306.45 -0.953323 3.94546 0
M  V30 3138 H 307.216 1.4329 4.6335 0
M  V30 3139 H 303.095 0.207006 4.60535 0
M  V30 3140 H 306.639 3.29489 6.14884 0
M  V30 3141 H 302.536 2.06064 6.11725 0
M  V30 3142 H 303.304 3.80084 7.24899 0
M  V30 3143 N 305.967 -1.56429 0.191757 0
M  V30 3144 C 307.192 -2.02309 -0.456706 0
M  V30 3145 C 307.617 -1.07103 -1.5463 0
M  V30 3146 O 306.975 -0.0539677 -1.8122 0
M  V30 3147 C 307.023 -3.46654 -0.993159 0
M  V30 3148 O 306.127 -3.54559 -2.10622 0
M  V30 3149 H 305.468 -0.655303 -0.107114 0
M  V30 3150 H 307.998 -2.02364 0.301653 0
M  V30 3151 H 308.008 -3.86377 -1.31061 0
M  V30 3152 H 306.683 -4.1544 -0.195504 0
M  V30 3153 H 305.26 -3.26708 -1.79767 0
M  V30 3154 N 307.445 0.0818655 -1.57387 0
M  V30 3155 C 308.856 0.634871 -1.75574 0
M  V30 3156 C 309.207 1.78435 -0.815809 0
M  V30 3157 O 308.332 2.164 0.0025366 0
M  V30 3158 C 308.927 1.15845 -3.18379 0
M  V30 3159 C 307.486 1.65741 -3.37945 0
M  V30 3160 C 306.633 0.572549 -2.71325 0
M  V30 3161 H 309.584 -0.144268 -1.58043 0
M  V30 3162 H 309.605 2.02751 -3.21982 0
M  V30 3163 H 309.117 0.321631 -3.86765 0
M  V30 3164 H 307.218 2.51781 -2.74658 0
M  V30 3165 H 307.331 1.74129 -4.46336 0
M  V30 3166 H 305.695 1.01518 -2.33594 0
M  V30 3167 H 306.478 -0.253918 -3.4236 0
M  V30 3168 N 308.923 1.53595 0.353017 0
M  V30 3169 C 309.833 1.83897 1.45667 0
M  V30 3170 C 310.849 0.728334 1.58023 0
M  V30 3171 O 312.025 1.01968 1.73679 0
M  V30 3172 C 309.09 2.03383 2.80778 0
M  V30 3173 C 308.151 3.27262 2.77845 0
M  V30 3174 C 307.384 3.45809 4.06512 0
M  V30 3175 O 307.607 2.68387 5.03314 0
M  V30 3176 O 306.541 4.39207 4.11559 0
M  V30 3177 H 310.367 2.77686 1.2298 0
M  V30 3178 H 307.952 1.39132 0.544308 0
M  V30 3179 H 309.834 2.17698 3.60812 0
M  V30 3180 H 308.509 1.12783 3.03417 0
M  V30 3181 H 307.416 3.18359 1.96465 0
M  V30 3182 H 308.749 4.17824 2.60161 0
M  V30 3183 N 310.401 -0.613514 1.45168 0
M  V30 3184 C 311.331 -1.7354 1.56225 0
M  V30 3185 C 312.312 -1.64981 0.41414 0
M  V30 3186 O 313.497 -1.83472 0.636526 0
M  V30 3187 C 310.627 -3.12128 1.52295 0
M  V30 3188 C 309.581 -3.35491 2.65762 0
M  V30 3189 C 308.907 -4.74291 2.46885 0
M  V30 3190 C 310.207 -3.26325 4.0781 0
M  V30 3191 H 311.901 -1.64543 2.50132 0
M  V30 3192 H 309.447 -0.790185 1.20383 0
M  V30 3193 H 311.4 -3.90404 1.58628 0
M  V30 3194 H 310.124 -3.2195 0.549139 0
M  V30 3195 H 308.783 -2.59603 2.58847 0
M  V30 3196 H 308.431 -4.80839 1.47657 0
M  V30 3197 H 308.131 -4.9088 3.22972 0
M  V30 3198 H 309.655 -5.54775 2.55063 0
M  V30 3199 H 311.069 -3.94483 4.16 0
M  V30 3200 H 309.466 -3.54445 4.8424 0
M  V30 3201 H 310.536 -2.23855 4.30136 0
M  V30 3202 N 311.879 -1.3236 -0.855495 0
M  V30 3203 C 313.125 -1.23054 -1.612 0
M  V30 3204 C 313.458 0.207404 -1.93089 0
M  V30 3205 O 312.733 1.14432 -1.57275 0
M  V30 3206 C 313.016 -2.08937 -2.93287 0
M  V30 3207 C 312.869 -3.61105 -2.68185 0
M  V30 3208 C 314.188 -1.94986 -3.94549 0
M  V30 3209 H 311.307 -0.448364 -0.584926 0
M  V30 3210 H 313.949 -1.62297 -0.987917 0
M  V30 3211 H 312.099 -1.75599 -3.46551 0
M  V30 3212 H 313.771 -4.04652 -2.21483 0
M  V30 3213 H 312.014 -3.83813 -2.02164 0
M  V30 3214 H 312.685 -4.16522 -3.62234 0
M  V30 3215 H 315.161 -2.24189 -3.5054 0
M  V30 3216 H 314.037 -2.57356 -4.84829 0
M  V30 3217 H 314.298 -0.917263 -4.3248 0
M  V30 3218 N 313.357 1.07166 -1.15556 0
M  V30 3219 C 314.287 2.16403 -0.877046 0
M  V30 3220 C 315.268 1.69217 0.173111 0
M  V30 3221 O 316.453 1.94181 0.027084 0
M  V30 3222 C 313.583 3.45349 -0.367632 0
M  V30 3223 C 312.537 4.05995 -1.35468 0
M  V30 3224 C 311.863 5.30045 -0.704038 0
M  V30 3225 C 313.163 4.45804 -2.72132 0
M  V30 3226 H 314.857 2.39959 -1.79053 0
M  V30 3227 H 312.403 1.15325 -0.862331 0
M  V30 3228 H 314.356 4.21095 -0.160317 0
M  V30 3229 H 313.08 3.21385 0.581326 0
M  V30 3230 H 311.739 3.32296 -1.54839 0
M  V30 3231 H 311.387 5.02373 0.251128 0
M  V30 3232 H 311.087 5.71579 -1.36277 0
M  V30 3233 H 312.611 6.08495 -0.50654 0
M  V30 3234 H 314.025 5.12671 -2.56595 0
M  V30 3235 H 312.422 4.98296 -3.34397 0
M  V30 3236 H 313.492 3.57083 -3.28054 0
M  V30 3237 N 314.835 0.952656 1.25548 0
M  V30 3238 C 316.246 0.647392 1.75116 0
M  V30 3239 C 316.597 -0.837274 1.77438 0
M  V30 3240 O 315.722 -1.65525 1.39393 0
M  V30 3241 C 316.317 1.16845 3.18014 0
M  V30 3242 C 314.876 0.913382 3.6515 0
M  V30 3243 C 314.023 1.31265 2.44264 0
M  V30 3244 H 316.974 1.12968 1.11462 0
M  V30 3245 H 316.995 0.527606 3.76824 0
M  V30 3246 H 316.507 2.24902 3.16292 0
M  V30 3247 H 314.608 -0.152316 3.72289 0
M  V30 3248 H 314.721 1.54845 4.53387 0
M  V30 3249 H 313.085 0.731028 2.43984 0
M  V30 3250 H 313.868 2.40239 2.45234 0
M  V30 3251 N 316.313 -1.40141 0.720998 0
M  V30 3252 C 317.562 -2.0002 0.259804 0
M  V30 3253 C 317.875 -1.57839 -1.15526 0
M  V30 3254 O 319.081 -2.10455 -1.71525 0
M  V30 3255 C 317.537 -3.57516 0.413566 0
M  V30 3256 C 317.145 -4.08667 1.83562 0
M  V30 3257 C 318.889 -4.24498 0.0134387 0
M  V30 3258 C 316.796 -5.58686 1.93968 0
M  V30 3259 H 315.726 -0.748195 0.0933806 0
M  V30 3260 H 318.377 -1.60313 0.892866 0
M  V30 3261 H 316.759 -3.9495 -0.288169 0
M  V30 3262 H 317.933 -3.82598 2.56817 0
M  V30 3263 H 316.248 -3.543 2.1877 0
M  V30 3264 H 318.845 -5.34654 0.0703954 0
M  V30 3265 H 319.188 -4.03375 -1.02927 0
M  V30 3266 H 319.721 -3.92188 0.665815 0
M  V30 3267 H 316.46 -5.8467 2.96379 0
M  V30 3268 H 315.98 -5.86602 1.25131 0
M  V30 3269 H 317.659 -6.23875 1.71431 0
M  V30 3270 N 317.792 -0.46758 -1.50504 0
M  V30 3271 C 318.755 0.317059 -2.26996 0
M  V30 3272 C 319.755 0.923513 -1.31635 0
M  V30 3273 O 320.945 0.793239 -1.55091 0
M  V30 3274 C 318.077 1.45134 -3.08462 0
M  V30 3275 H 319.27 -0.353723 -2.97807 0
M  V30 3276 H 316.823 -0.221545 -1.54722 0
M  V30 3277 H 317.558 2.15728 -2.4214 0
M  V30 3278 H 317.343 1.02232 -3.78538 0
M  V30 3279 H 318.833 2.00493 -3.66323 0
M  V30 3280 N 319.27 1.56325 -0.20005 0
M  V30 3281 C 320.202 2.16555 0.750771 0
M  V30 3282 C 321.215 1.12871 1.1732 0
M  V30 3283 O 322.404 1.39943 1.10807 0
M  V30 3284 C 319.504 2.71684 2.02586 0
M  V30 3285 C 318.677 4.00321 1.76244 0
M  V30 3286 C 317.736 4.40227 2.88248 0
M  V30 3287 O 316.762 5.07552 2.57642 0
M  V30 3288 N 317.964 4.04138 4.16717 0
M  V30 3289 H 320.729 2.98772 0.235685 0
M  V30 3290 H 318.29 1.6189 -0.0182594 0
M  V30 3291 H 320.282 2.95363 2.76664 0
M  V30 3292 H 318.852 1.93893 2.45202 0
M  V30 3293 H 318.072 3.84723 0.85919 0
M  V30 3294 H 319.36 4.84279 1.56048 0
M  V30 3295 H 318.758 3.49993 4.44434 0
M  V30 3296 H 317.315 4.32756 4.87407 0
M  V30 3297 N 320.748 -0.0735177 1.57428 0
M  V30 3298 C 321.711 -1.07192 2.02589 0
M  V30 3299 C 322.711 -1.31695 0.922661 0
M  V30 3300 O 323.901 -1.27445 1.18758 0
M  V30 3301 C 321.033 -2.41599 2.40506 0
M  V30 3302 H 322.226 -0.682727 2.92025 0
M  V30 3303 H 319.779 -0.319193 1.53006 0
M  V30 3304 H 320.514 -2.85354 1.5409 0
M  V30 3305 H 320.299 -2.25156 3.21009 0
M  V30 3306 H 321.789 -3.13367 2.76027 0
M  V30 3307 N 322.226 -1.5378 -0.344866 0
M  V30 3308 C 323.156 -1.84662 -1.42906 0
M  V30 3309 C 324.137 -0.701648 -1.54955 0
M  V30 3310 O 325.322 -0.953438 -1.69184 0
M  V30 3311 C 322.452 -2.05503 -2.79974 0
M  V30 3312 C 321.406 -3.21318 -2.82734 0
M  V30 3313 C 320.732 -3.2749 -4.22675 0
M  V30 3314 C 322.032 -4.59456 -2.48389 0
M  V30 3315 H 323.726 -2.75461 -1.17311 0
M  V30 3316 H 321.272 -1.32542 -0.562896 0
M  V30 3317 H 323.225 -2.25691 -3.55867 0
M  V30 3318 H 321.949 -1.11434 -3.07002 0
M  V30 3319 H 320.608 -3.00984 -2.09294 0
M  V30 3320 H 320.256 -2.31019 -4.4681 0
M  V30 3321 H 319.956 -4.05316 -4.25433 0
M  V30 3322 H 321.48 -3.49887 -5.00412 0
M  V30 3323 H 322.894 -4.79667 -3.13995 0
M  V30 3324 H 321.291 -5.39675 -2.62432 0
M  V30 3325 H 322.361 -4.63155 -1.4358 0
M  V30 3326 N 323.704 0.605807 -1.45491 0
M  V30 3327 C 324.651 1.7164 -1.54299 0
M  V30 3328 C 325.621 1.61486 -0.388761 0
M  V30 3329 O 326.806 1.81039 -0.602445 0
M  V30 3330 C 323.946 3.09953 -1.51734 0
M  V30 3331 C 323.059 3.309 -2.77721 0
M  V30 3332 C 322.194 4.59329 -2.66816 0
M  V30 3333 C 321.233 4.7354 -3.87848 0
M  V30 3334 N 320.37 5.9327 -3.75467 0
M  V30 3335 H 325.21 1.63449 -2.49176 0
M  V30 3336 H 322.747 0.796957 -1.23641 0
M  V30 3337 H 324.705 3.89977 -1.48235 0
M  V30 3338 H 323.335 3.17098 -0.604068 0
M  V30 3339 H 322.387 2.44639 -2.913 0
M  V30 3340 H 323.699 3.37274 -3.67488 0
M  V30 3341 H 322.853 5.4755 -2.61292 0
M  V30 3342 H 321.592 4.55355 -1.74651 0
M  V30 3343 H 320.597 3.83741 -3.93729 0
M  V30 3344 H 321.822 4.79309 -4.81082 0
M  V30 3345 H 319.768 5.90338 -2.86072 0
M  V30 3346 H 319.685 6.00811 -4.5887 0
M  V30 3347 H 320.953 6.83984 -3.73879 0
M  V30 3348 N 325.182 1.32811 0.848464 0
M  V30 3349 C 326.428 1.23907 1.60546 0
M  V30 3350 C 326.761 -0.197161 1.93197 0
M  V30 3351 O 326.036 -1.13596 1.5788 0
M  V30 3352 C 326.319 2.10489 2.92175 0
M  V30 3353 C 326.172 3.62522 2.66266 0
M  V30 3354 C 327.491 1.97075 3.93509 0
M  V30 3355 H 324.61 0.451459 0.58254 0
M  V30 3356 H 327.252 1.62818 0.979296 0
M  V30 3357 H 325.402 1.77434 3.45614 0
M  V30 3358 H 327.074 4.05821 2.19334 0
M  V30 3359 H 325.317 3.84879 2.00126 0
M  V30 3360 H 325.988 4.18437 3.6002 0
M  V30 3361 H 328.464 2.26045 3.49346 0
M  V30 3362 H 327.34 2.59923 4.83457 0
M  V30 3363 H 327.601 0.940186 4.31987 0
M  V30 3364 N 326.66 -1.06551 1.16123 0
M  V30 3365 C 327.59 -2.15935 0.88851 0
M  V30 3366 C 328.571 -1.69306 -0.164135 0
M  V30 3367 O 329.756 -1.94193 -0.0167857 0
M  V30 3368 C 326.886 -3.45149 0.385942 0
M  V30 3369 C 325.84 -4.05271 1.3762 0
M  V30 3370 C 325.166 -5.29664 0.732137 0
M  V30 3371 C 326.466 -4.44355 2.74493 0
M  V30 3372 H 328.16 -2.39006 1.80323 0
M  V30 3373 H 325.706 -1.14866 0.868435 0
M  V30 3374 H 327.659 -4.21004 0.182647 0
M  V30 3375 H 326.383 -3.21689 -0.564274 0
M  V30 3376 H 325.042 -3.3147 1.56599 0
M  V30 3377 H 324.69 -5.02499 -0.224483 0
M  V30 3378 H 324.39 -5.70848 1.39307 0
M  V30 3379 H 325.914 -6.08218 0.538802 0
M  V30 3380 H 327.328 -5.11303 2.59311 0
M  V30 3381 H 325.725 -4.96515 3.37035 0
M  V30 3382 H 326.795 -3.55339 3.29943 0
M  V30 3383 N 328.138 -0.959301 -1.25041 0
M  V30 3384 C 329.386 -0.615393 -1.92503 0
M  V30 3385 C 329.707 0.850969 -1.75452 0
M  V30 3386 O 328.977 1.60658 -1.12098 0
M  V30 3387 H 327.557 -0.224613 -0.712431 0
M  V30 3388 H 330.219 -1.21855 -1.5211 0
M  V30 3389 H 329.315 -0.848738 -3.00338 0
M  V30 3390 N 329.616 1.39756 -0.72842 0
M  V30 3391 C 330.846 2.04651 -0.283117 0
M  V30 3392 C 331.254 1.5502 1.08469 0
M  V30 3393 O 330.597 0.707343 1.69536 0
M  V30 3394 C 330.659 3.58947 -0.199309 0
M  V30 3395 C 330.323 4.31525 -1.5045 0
M  V30 3396 C 331.32 4.5861 -2.44894 0
M  V30 3397 C 329.005 4.70195 -1.76698 0
M  V30 3398 C 330.999 5.23366 -3.63822 0
M  V30 3399 C 328.686 5.3468 -2.95906 0
M  V30 3400 C 329.684 5.61198 -3.89289 0
M  V30 3401 O 329.372 6.24347 -5.06404 0
M  V30 3402 H 329.104 0.664777 -0.122666 0
M  V30 3403 H 331.658 1.79913 -0.990987 0
M  V30 3404 H 329.888 3.82556 0.56461 0
M  V30 3405 H 331.577 4.0534 0.213125 0
M  V30 3406 H 332.343 4.29187 -2.25883 0
M  V30 3407 H 328.222 4.48916 -1.04859 0
M  V30 3408 H 331.766 5.4398 -4.36728 0
M  V30 3409 H 327.663 5.63524 -3.14819 0
M  V30 3410 H 328.431 6.42842 -5.06652 0
M  V30 3411 N 331.094 0.475555 1.50254 0
M  V30 3412 C 332.041 -0.316293 2.28622 0
M  V30 3413 C 333.011 -0.983227 1.33873 0
M  V30 3414 O 334.196 -0.994805 1.62814 0
M  V30 3415 C 331.336 -1.38975 3.1588 0
M  V30 3416 C 330.449 -0.737146 4.25664 0
M  V30 3417 C 329.584 -1.78887 5.00173 0
M  V30 3418 C 328.623 -1.11676 6.01826 0
M  V30 3419 N 327.76 -2.11154 6.69596 0
M  V30 3420 H 332.6 0.358297 2.95838 0
M  V30 3421 H 330.137 0.188541 1.45887 0
M  V30 3422 H 332.095 -2.02383 3.64825 0
M  V30 3423 H 330.725 -2.03344 2.50701 0
M  V30 3424 H 329.777 0.0096065 3.80399 0
M  V30 3425 H 331.089 -0.206816 4.98371 0
M  V30 3426 H 330.243 -2.49865 5.52859 0
M  V30 3427 H 328.982 -2.35302 4.27182 0
M  V30 3428 H 327.987 -0.392633 5.48396 0
M  V30 3429 H 329.212 -0.55945 6.76792 0
M  V30 3430 H 327.158 -2.66577 5.99394 0
M  V30 3431 H 327.075 -1.63118 7.38193 0
M  V30 3432 H 328.343 -2.81497 7.26897 0
M  V30 3433 N 332.573 -1.56217 0.208337 0
M  V30 3434 C 333.521 -2.21053 -0.723769 0
M  V30 3435 C 334.515 -1.18578 -1.20978 0
M  V30 3436 O 335.721 -1.36691 -1.17114 0
M  V30 3437 H 332.096 -0.708595 -0.251788 0
M  V30 3438 H 334.067 -2.98006 -0.153365 0
M  V30 3439 C 332.816 -2.89417 -1.927 0
M  V30 3440 H 332.139 -3.68019 -1.56212 0
M  V30 3441 H 333.579 -3.38201 -2.55727 0
M  V30 3442 C 332.038 -1.91166 -2.77411 0
M  V30 3443 O 332.568 -1.42026 -3.75754 0
M  V30 3444 N 330.774 -1.59105 -2.43175 0
M  V30 3445 H 330.321 -1.99259 -1.63259 0
M  V30 3446 H 330.279 -0.936255 -3.00136 0
M  V30 3447 N 334.051 0.0651679 -1.57465 0
M  V30 3448 C 335.014 1.06117 -2.03155 0
M  V30 3449 C 336.014 1.31204 -0.929632 0
M  V30 3450 O 337.204 1.26813 -1.19432 0
M  V30 3451 C 334.336 2.4032 -2.41783 0
M  V30 3452 H 335.529 0.667231 -2.92383 0
M  V30 3453 H 333.082 0.311075 -1.53173 0
M  V30 3454 H 333.817 2.84532 -1.55601 0
M  V30 3455 H 333.602 2.23451 -3.22199 0
M  V30 3456 H 335.092 3.11898 -2.77685 0
M  V30 3457 N 335.529 1.53961 0.336706 0
M  V30 3458 C 336.492 1.81724 1.39675 0
M  V30 3459 C 337.492 0.688532 1.45313 0
M  V30 3460 O 338.682 0.956829 1.45569 0
M  V30 3461 C 335.814 1.96543 2.78538 0
M  V30 3462 H 337.007 2.76424 1.16318 0
M  V30 3463 H 334.56 1.45478 0.571474 0
M  V30 3464 H 335.295 1.0401 3.07168 0
M  V30 3465 H 335.08 2.78665 2.75841 0
M  V30 3466 H 336.57 2.19516 3.5525 0
M  V30 3467 N 337.007 -0.598083 1.45811 0
M  V30 3468 C 338.253 -1.35882 1.50545 0
M  V30 3469 C 338.586 -1.93616 0.150445 0
M  V30 3470 O 337.861 -1.75604 -0.83628 0
M  V30 3471 C 338.144 -2.49966 2.59208 0
M  V30 3472 C 337.997 -1.97367 4.04186 0
M  V30 3473 C 339.316 -3.52068 2.64076 0
M  V30 3474 H 336.435 -0.492717 0.548087 0
M  V30 3475 H 339.077 -0.673319 1.77669 0
M  V30 3476 H 337.227 -3.08443 2.3621 0
M  V30 3477 H 338.899 -1.43466 4.38423 0
M  V30 3478 H 337.142 -1.283 4.14393 0
M  V30 3479 H 337.813 -2.79649 4.75921 0
M  V30 3480 H 340.289 -3.03448 2.84708 0
M  V30 3481 H 339.165 -4.2937 3.41954 0
M  V30 3482 H 339.426 -4.08304 1.69531 0
M  V30 3483 N 338.485 -1.33259 -0.841409 0
M  V30 3484 C 339.731 -1.24757 -1.59886 0
M  V30 3485 C 340.064 0.186913 -1.93298 0
M  V30 3486 O 339.339 1.12757 -1.5848 0
M  V30 3487 C 339.622 -2.12036 -2.91055 0
M  V30 3488 C 339.475 -3.63929 -2.6434 0
M  V30 3489 C 340.794 -1.9916 -3.92458 0
M  V30 3490 H 337.913 -0.454542 -0.580138 0
M  V30 3491 H 340.555 -1.63335 -0.970647 0
M  V30 3492 H 338.705 -1.79265 -3.44669 0
M  V30 3493 H 340.377 -4.06978 -2.17178 0
M  V30 3494 H 338.62 -3.85935 -1.98082 0
M  V30 3495 H 339.291 -4.20341 -3.57796 0
M  V30 3496 H 341.767 -2.27895 -3.48143 0
M  V30 3497 H 340.643 -2.62484 -4.82072 0
M  V30 3498 H 340.904 -0.963082 -4.31482 0
M  V30 3499 N 339.963 1.05934 -1.16686 0
M  V30 3500 C 340.913 2.11764 -0.844978 0
M  V30 3501 C 341.897 1.59922 0.177178 0
M  V30 3502 O 343.089 1.76983 -0.0241768 0
M  V30 3503 C 340.218 3.41493 -0.351812 0
M  V30 3504 C 339.304 4.00152 -1.40496 0
M  V30 3505 N 339.695 4.32874 -2.61636 0
M  V30 3506 C 337.993 4.278 -1.26106 0
M  V30 3507 C 338.694 4.79552 -3.29249 0
M  V30 3508 N 337.67 4.79211 -2.56628 0
M  V30 3509 H 341.472 2.34916 -1.76612 0
M  V30 3510 H 338.986 1.23511 -1.05446 0
M  V30 3511 H 340.983 4.16773 -0.102796 0
M  V30 3512 H 339.643 3.19778 0.56322 0
M  V30 3513 H 340.654 4.23109 -2.98663 0
M  V30 3514 H 337.331 4.15511 -0.407081 0
M  V30 3515 H 338.721 5.14045 -4.32675 0
M  V30 3516 N 341.441 0.965919 1.2453 0
M  V30 3517 C 342.689 0.625593 1.92174 0
M  V30 3518 C 343.01 -0.841652 1.75901 0
M  V30 3519 O 342.28 -1.60061 1.12948 0
M  V30 3520 H 340.86 0.228388 0.71123 0
M  V30 3521 H 343.522 1.2266 1.51461 0
M  V30 3522 H 342.618 0.864653 2.99884 0
M  V30 3523 N 342.919 -1.39368 0.735821 0
M  V30 3524 C 344.167 -2.00101 0.283562 0
M  V30 3525 C 344.488 -1.5868 -1.13338 0
M  V30 3526 O 343.758 -0.835423 -1.77193 0
M  V30 3527 H 342.338 -0.740024 0.101851 0
M  V30 3528 H 345 -1.70404 0.945962 0
M  V30 3529 H 344.096 -3.10323 0.332604 0
M  V30 3530 N 344.397 -0.483516 -1.5 0
M  V30 3531 C 345.645 0.067027 -2.01989 0
M  V30 3532 C 345.966 1.3909 -1.36671 0
M  V30 3533 O 345.236 1.88978 -0.516152 0
M  V30 3534 H 343.816 0.0277606 -0.746484 0
M  V30 3535 H 346.478 -0.636773 -1.84204 0
M  V30 3536 H 345.574 0.209484 -3.11396 0
M  V30 3537 N 345.875 1.56104 -0.216619 0
M  V30 3538 C 346.808 2.16026 0.735395 0
M  V30 3539 C 347.786 1.1032 1.1945 0
M  V30 3540 O 348.97 1.38549 1.27814 0
M  V30 3541 C 346.097 2.73656 1.99575 0
M  V30 3542 C 345.143 3.92146 1.67702 0
M  V30 3543 S 345.976 5.29397 0.806145 0
M  V30 3544 C 347.132 5.90463 2.07617 0
M  V30 3545 H 347.365 2.96439 0.226072 0
M  V30 3546 H 344.898 1.544 -0.00136639 0
M  V30 3547 H 346.856 3.075 2.71945 0
M  V30 3548 H 345.517 1.93245 2.47619 0
M  V30 3549 H 344.71 4.30954 2.61332 0
M  V30 3550 H 344.312 3.59423 1.03398 0
M  V30 3551 H 346.604 6.06136 3.02664 0
M  V30 3552 H 347.547 6.86589 1.73207 0
M  V30 3553 H 347.955 5.19252 2.21445 0
M  V30 3554 N 347.353 -0.0568162 1.57498 0
M  V30 3555 C 348.63 -0.786954 1.79071 0
M  V30 3556 C 349.01 -1.95028 0.80792 0
M  V30 3557 O 348.358 -2.27968 -0.155858 0
M  V30 3558 C 348.568 -1.24594 3.26002 0
M  V30 3559 C 349.916 -1.67323 3.90241 0
M  V30 3560 O 350.94 -1.34124 3.29984 0
M  V30 3561 O 349.799 -2.28842 4.9628 0
M  V30 3562 H 346.893 -0.378262 0.735423 0
M  V30 3563 H 349.439 -0.035734 1.69662 0
M  V30 3564 H 348.211 -0.41423 3.89101 0
M  V30 3565 H 347.834 -2.05803 3.40192 0
M  V30 3566 N 348.832 -1.54138 -0.328536 0
M  V30 3567 C 349.742 -1.86192 -1.42723 0
M  V30 3568 C 350.758 -0.753382 -1.56844 0
M  V30 3569 O 351.934 -1.04718 -1.72035 0
M  V30 3570 C 348.999 -2.07824 -2.77507 0
M  V30 3571 C 348.06 -3.31641 -2.72603 0
M  V30 3572 C 347.293 -3.52232 -4.00959 0
M  V30 3573 O 347.516 -2.7636 -4.9898 0
M  V30 3574 O 346.45 -4.45699 -4.0452 0
M  V30 3575 H 350.276 -2.79608 -1.18547 0
M  V30 3576 H 347.861 -1.3998 -0.522104 0
M  V30 3577 H 349.743 -2.23411 -3.57303 0
M  V30 3578 H 348.418 -1.17596 -3.01584 0
M  V30 3579 H 347.325 -3.21444 -1.91376 0
M  V30 3580 H 348.658 -4.2191 -2.53481 0
M  V30 3581 N 350.31 0.590341 -1.46126 0
M  V30 3582 C 351.556 1.35082 -1.51264 0
M  V30 3583 C 351.889 1.93534 -0.160711 0
M  V30 3584 O 351.164 1.76045 0.826956 0
M  V30 3585 C 351.447 2.48588 -2.6053 0
M  V30 3586 C 351.3 1.95221 -4.05227 0
M  V30 3587 C 352.619 3.50662 -2.6594 0
M  V30 3588 H 349.738 0.489803 -0.550692 0
M  V30 3589 H 352.38 0.663887 -1.78024 0
M  V30 3590 H 350.53 3.07186 -2.37843 0
M  V30 3591 H 352.202 1.41139 -4.39178 0
M  V30 3592 H 350.445 1.26101 -4.15068 0
M  V30 3593 H 351.116 2.77121 -4.77397 0
M  V30 3594 H 353.592 3.01934 -2.86313 0
M  V30 3595 H 352.468 4.27551 -3.44226 0
M  V30 3596 H 352.729 4.07399 -1.71694 0
M  V30 3597 N 351.788 1.33704 0.83433 0
M  V30 3598 C 352.751 1.24244 1.92603 0
M  V30 3599 C 353.751 0.160383 1.59998 0
M  V30 3600 O 354.941 0.412228 1.69252 0
M  V30 3601 C 352.073 0.91555 3.28376 0
M  V30 3602 H 353.266 2.21287 2.02416 0
M  V30 3603 H 350.819 1.17827 1.02696 0
M  V30 3604 H 351.554 -0.0521886 3.24258 0
M  V30 3605 H 351.339 1.69811 3.53422 0
M  V30 3606 H 352.829 0.874231 4.08347 0
M  V30 3607 N 353.266 -1.05314 1.17247 0
M  V30 3608 C 354.515 -1.77685 0.954521 0
M  V30 3609 C 354.828 -1.88616 -0.518025 0
M  V30 3610 O 356.034 -2.57714 -0.854144 0
M  V30 3611 C 354.49 -3.19402 1.65863 0
M  V30 3612 C 354.098 -3.16605 3.16963 0
M  V30 3613 C 355.842 -3.96237 1.52303 0
M  V30 3614 C 353.749 -4.53103 3.80068 0
M  V30 3615 H 352.679 -0.666 0.353496 0
M  V30 3616 H 355.33 -1.1805 1.40486 0
M  V30 3617 H 353.712 -3.79355 1.13602 0
M  V30 3618 H 354.886 -2.66176 3.76148 0
M  V30 3619 H 353.201 -2.53268 3.30521 0
M  V30 3620 H 355.798 -4.97157 1.96822 0
M  V30 3621 H 356.141 -4.136 0.473401 0
M  V30 3622 H 356.674 -3.42829 2.01775 0
M  V30 3623 H 353.413 -4.40946 4.85023 0
M  V30 3624 H 352.933 -5.03686 3.2567 0
M  V30 3625 H 354.612 -5.22045 3.82202 0
M  V30 3626 N 354.744 -0.972509 -1.24016 0
M  V30 3627 C 355.694 -0.477561 -2.22942 0
M  V30 3628 C 356.678 0.44308 -1.54679 0
M  V30 3629 O 357.87 0.273219 -1.74879 0
M  V30 3630 C 354.999 0.226348 -3.42553 0
M  V30 3631 C 354.085 -0.713403 -4.18057 0
M  V30 3632 N 354.476 -1.8527 -4.70647 0
M  V30 3633 C 352.774 -0.525145 -4.42898 0
M  V30 3634 C 353.475 -2.44089 -5.28011 0
M  V30 3635 N 352.451 -1.72556 -5.15486 0
M  V30 3636 H 356.253 -1.34678 -2.61226 0
M  V30 3637 H 353.767 -0.832196 -1.39457 0
M  V30 3638 H 355.764 0.598184 -4.12586 0
M  V30 3639 H 354.424 1.09195 -3.05788 0
M  V30 3640 H 355.435 -2.2341 -4.67235 0
M  V30 3641 H 352.112 0.296096 -4.16449 0
M  V30 3642 H 353.502 -3.40259 -5.79374 0
M  V30 3643 N 356.222 1.38976 -0.743202 0
M  V30 3644 C 357.45 2.04636 -0.30525 0
M  V30 3645 C 357.865 1.56044 1.06281 0
M  V30 3646 O 357.222 0.728921 1.67311 0
M  V30 3647 C 357.273 3.60193 -0.307177 0
M  V30 3648 O 356.994 4.06998 -1.62124 0
M  V30 3649 C 358.495 4.4306 0.145928 0
M  V30 3650 H 355.715 0.65788 -0.132041 0
M  V30 3651 H 358.259 1.77866 -1.00915 0
M  V30 3652 H 356.414 3.85835 0.347898 0
M  V30 3653 H 356.828 5.01371 -1.54036 0
M  V30 3654 H 358.302 5.51921 0.0934183 0
M  V30 3655 H 358.779 4.22706 1.19231 0
M  V30 3656 H 359.385 4.22584 -0.479886 0
M  V30 3657 N 357.7 0.491464 1.49741 0
M  V30 3658 C 359.111 0.0413169 1.86654 0
M  V30 3659 C 359.462 -1.36985 1.40462 0
M  V30 3660 O 358.587 -2.01917 0.778354 0
M  V30 3661 C 359.182 0.0682023 3.38731 0
M  V30 3662 C 357.741 -0.32656 3.74981 0
M  V30 3663 C 356.888 0.444888 2.73708 0
M  V30 3664 H 359.839 0.704733 1.42194 0
M  V30 3665 H 359.86 -0.729322 3.73445 0
M  V30 3666 H 359.372 1.09539 3.72321 0
M  V30 3667 H 357.473 -1.35734 3.46997 0
M  V30 3668 H 357.586 -0.013741 4.79098 0
M  V30 3669 H 355.95 -0.104062 2.54487 0
M  V30 3670 H 356.733 1.47197 3.10142 0
M  V30 3671 N 359.178 -1.55987 0.224894 0
M  V30 3672 C 360.406 -2.02784 -0.410665 0
M  V30 3673 C 360.821 -1.10464 -1.53112 0
M  V30 3674 O 360.178 -0.114871 -1.82138 0
M  V30 3675 C 360.229 -3.49087 -0.939165 0
M  V30 3676 O 359.95 -4.37887 0.136614 0
M  V30 3677 C 361.451 -4.11543 -1.64763 0
M  V30 3678 H 358.671 -0.663484 -0.100148 0
M  V30 3679 H 361.215 -2.01614 0.342326 0
M  V30 3680 H 359.37 -3.50861 -1.64242 0
M  V30 3681 H 359.784 -5.23849 -0.261155 0
M  V30 3682 H 361.258 -5.15673 -1.96939 0
M  V30 3683 H 361.735 -3.56736 -2.56195 0
M  V30 3684 H 362.341 -4.13629 -0.989503 0
M  V30 3685 N 360.656 0.0484629 -1.57525 0
M  V30 3686 C 361.588 1.08222 -2.02041 0
M  V30 3687 C 362.601 1.33621 -0.930012 0
M  V30 3688 O 363.79 1.3145 -1.20761 0
M  V30 3689 C 360.89 2.42818 -2.36416 0
M  V30 3690 C 360.063 2.37049 -3.67596 0
M  V30 3691 C 359.122 3.53937 -3.89378 0
M  V30 3692 O 358.148 3.34308 -4.60681 0
M  V30 3693 N 359.35 4.75126 -3.3352 0
M  V30 3694 H 362.115 0.702946 -2.9134 0
M  V30 3695 H 359.676 0.236745 -1.6016 0
M  V30 3696 H 361.668 3.197 -2.48141 0
M  V30 3697 H 360.238 2.72661 -1.52888 0
M  V30 3698 H 359.458 1.45395 -3.66407 0
M  V30 3699 H 360.746 2.30318 -4.53686 0
M  V30 3700 H 360.144 4.93976 -2.75688 0
M  V30 3701 H 358.701 5.49439 -3.50656 0
M  V30 3702 N 362.134 1.5431 0.320358 0
M  V30 3703 C 363.38 1.72924 1.05949 0
M  V30 3704 C 363.713 0.503185 1.87568 0
M  V30 3705 O 362.988 -0.499839 1.87968 0
M  V30 3706 C 363.271 3.00676 1.98156 0
M  V30 3707 C 363.124 4.3354 1.19845 0
M  V30 3708 C 364.443 3.24198 2.9763 0
M  V30 3709 H 361.562 0.629195 0.383774 0
M  V30 3710 H 364.204 1.87008 0.335854 0
M  V30 3711 H 362.354 2.888 2.59859 0
M  V30 3712 H 364.026 4.57305 0.605773 0
M  V30 3713 H 362.269 4.309 0.500784 0
M  V30 3714 H 362.94 5.19156 1.87567 0
M  V30 3715 H 365.416 3.35557 2.4605 0
M  V30 3716 H 364.292 4.14938 3.59329 0
M  V30 3717 H 364.553 2.41577 3.7026 0
M  V30 3718 N 363.613 -0.582584 1.46437 0
M  V30 3719 C 364.576 -1.67366 1.56592 0
M  V30 3720 C 365.576 -1.54575 0.443072 0
M  V30 3721 O 366.766 -1.59191 0.707381 0
M  V30 3722 C 363.898 -3.06791 1.48634 0
M  V30 3723 H 365.091 -1.5972 2.5383 0
M  V30 3724 H 362.644 -0.800432 1.34249 0
M  V30 3725 H 363.379 -3.19993 0.526763 0
M  V30 3726 H 363.164 -3.17484 2.30101 0
M  V30 3727 H 364.654 -3.86218 1.58826 0
M  V30 3728 N 365.091 -1.34144 -0.827227 0
M  V30 3729 C 366.001 -1.27428 -1.96975 0
M  V30 3730 C 367.017 -0.182728 -1.73038 0
M  V30 3731 O 368.193 -0.408426 -1.97215 0
M  V30 3732 C 365.258 -1.02526 -3.31194 0
M  V30 3733 C 364.319 -2.20796 -3.68168 0
M  V30 3734 C 363.552 -1.97073 -4.95982 0
M  V30 3735 O 363.775 -0.926822 -5.6282 0
M  V30 3736 O 362.709 -2.83912 -5.30733 0
M  V30 3737 H 366.535 -2.23537 -2.05584 0
M  V30 3738 H 364.12 -1.14307 -0.961989 0
M  V30 3739 H 366.002 -0.904026 -4.11589 0
M  V30 3740 H 364.677 -0.0945389 -3.23562 0
M  V30 3741 H 363.584 -2.38477 -2.88235 0
M  V30 3742 H 364.917 -3.12243 -3.8048 0
M  V30 3743 N 366.569 1.04691 -1.17803 0
M  V30 3744 C 367.499 2.14494 -0.92275 0
M  V30 3745 C 368.48 1.69546 0.137179 0
M  V30 3746 O 369.665 1.94195 -0.0141108 0
M  V30 3747 C 366.795 3.44491 -0.440803 0
M  V30 3748 C 365.749 4.03031 -1.4405 0
M  V30 3749 C 365.075 5.28432 -0.81631 0
M  V30 3750 C 366.375 4.39932 -2.81527 0
M  V30 3751 H 368.069 2.36107 -1.84103 0
M  V30 3752 H 365.615 1.1347 -0.886599 0
M  V30 3753 H 367.568 4.2066 -0.249602 0
M  V30 3754 H 366.292 3.22546 0.513025 0
M  V30 3755 H 364.951 3.28937 -1.61853 0
M  V30 3756 H 364.599 5.02792 0.144511 0
M  V30 3757 H 364.299 5.68559 -1.48371 0
M  V30 3758 H 365.823 6.07284 -0.635496 0
M  V30 3759 H 367.237 5.07113 -2.67412 0
M  V30 3760 H 365.634 4.9109 -3.44892 0
M  V30 3761 H 366.704 3.50045 -3.35554 0
M  V30 3762 N 368.047 0.979072 1.23499 0
M  V30 3763 C 368.995 0.510604 2.26926 0
M  V30 3764 C 369.989 -0.431691 1.63807 0
M  V30 3765 O 371.195 -0.30573 1.77385 0
M  V30 3766 H 367.57 0.146688 0.737554 0
M  V30 3767 H 369.541 1.39466 2.63803 0
M  V30 3768 C 368.29 -0.172658 3.47271 0
M  V30 3769 H 367.613 0.543331 3.96091 0
M  V30 3770 H 369.053 -0.464101 4.21452 0
M  V30 3771 C 367.512 -1.40345 3.06276 0
M  V30 3772 O 368.042 -2.49978 3.14442 0
M  V30 3773 N 366.248 -1.27362 2.61203 0
M  V30 3774 H 365.795 -0.381584 2.54758 0
M  V30 3775 H 365.753 -2.09822 2.34141 0
M  V30 3776 N 369.525 -1.3858 0.750561 0
M  V30 3777 C 370.473 -2.32339 0.110162 0
M  V30 3778 C 371.467 -1.53864 -0.708674 0
M  V30 3779 O 372.673 -1.69417 -0.608112 0
M  V30 3780 H 369.048 -0.751812 0.0168275 0
M  V30 3781 H 371.019 -2.83959 0.917053 0
M  V30 3782 C 369.768 -3.39043 -0.771067 0
M  V30 3783 H 369.091 -3.99517 -0.150374 0
M  V30 3784 H 370.531 -4.07061 -1.1865 0
M  V30 3785 C 368.99 -2.77365 -1.91234 0
M  V30 3786 O 369.52 -2.66434 -3.00626 0
M  V30 3787 N 367.726 -2.35219 -1.70646 0
M  V30 3788 H 367.273 -2.4431 -0.81673 0
M  V30 3789 H 367.231 -1.94294 -2.47178 0
M  V30 3790 N 371.003 -0.499398 -1.49478 0
M  V30 3791 C 372.251 0.0455996 -2.02049 0
M  V30 3792 C 372.572 1.37633 -1.38138 0
M  V30 3793 O 371.842 1.8842 -0.536166 0
M  V30 3794 H 370.422 0.0198416 -0.746736 0
M  V30 3795 H 373.084 -0.656274 -1.83519 0
M  V30 3796 H 372.18 0.176445 -3.11601 0
M  V30 3797 N 372.481 1.55866 -0.233164 0
M  V30 3798 C 373.391 2.24431 0.683217 0
M  V30 3799 C 374.407 1.2558 1.2044 0
M  V30 3800 O 375.583 1.58422 1.24356 0
M  V30 3801 C 372.648 2.91979 1.86947 0
M  V30 3802 C 371.709 4.06204 1.38912 0
M  V30 3803 C 370.942 4.70522 2.51883 0
M  V30 3804 O 371.165 4.33865 3.70293 0
M  V30 3805 O 370.099 5.59296 2.22423 0
M  V30 3806 H 373.925 3.03426 0.129059 0
M  V30 3807 H 371.51 1.494 -0.0022283 0
M  V30 3808 H 373.392 3.34573 2.56201 0
M  V30 3809 H 372.067 2.15935 2.41151 0
M  V30 3810 H 370.974 3.68155 0.664259 0
M  V30 3811 H 372.307 4.84025 0.893328 0
M  V30 3812 N 373.959 -0.0401083 1.57549 0
M  V30 3813 C 375.208 -0.732108 1.87944 0
M  V30 3814 C 375.521 -1.77107 0.830206 0
M  V30 3815 O 376.727 -2.51488 1.02302 0
M  V30 3816 C 375.183 -1.35315 3.33494 0
M  V30 3817 C 374.791 -0.351105 4.46622 0
M  V30 3818 C 376.535 -2.02566 3.73051 0
M  V30 3819 C 374.442 -0.979859 5.83226 0
M  V30 3820 H 373.372 -0.277188 0.701201 0
M  V30 3821 H 376.023 0.0138501 1.83495 0
M  V30 3822 H 374.405 -2.14844 3.32653 0
M  V30 3823 H 375.579 0.416674 4.58912 0
M  V30 3824 H 373.894 0.218708 4.15825 0
M  V30 3825 H 376.491 -2.50441 4.72423 0
M  V30 3826 H 376.834 -2.83904 3.04474 0
M  V30 3827 H 377.367 -1.29827 3.76018 0
M  V30 3828 H 374.106 -0.206135 6.55176 0
M  V30 3829 H 373.626 -1.71774 5.74677 0
M  V30 3830 H 375.305 -1.49046 6.29599 0
M  V30 3831 N 375.437 -1.54477 -0.31217 0
M  V30 3832 C 376.347 -1.87695 -1.4074 0
M  V30 3833 C 377.363 -0.769975 -1.56036 0
M  V30 3834 O 378.539 -1.06537 -1.70915 0
M  V30 3835 C 375.604 -2.10755 -2.75287 0
M  V30 3836 C 374.665 -3.34514 -2.69071 0
M  V30 3837 C 373.898 -3.56465 -3.97201 0
M  V30 3838 O 374.121 -2.81637 -4.96021 0
M  V30 3839 O 373.055 -4.49964 -3.9977 0
M  V30 3840 H 376.881 -2.80849 -1.15574 0
M  V30 3841 H 374.466 -1.40526 -0.507228 0
M  V30 3842 H 376.348 -2.27188 -3.54913 0
M  V30 3843 H 375.023 -1.20788 -3.0032 0
M  V30 3844 H 373.93 -3.23456 -1.87955 0
M  V30 3845 H 375.263 -4.24575 -2.48992 0
M  V30 3846 N 376.915 0.57481 -1.46744 0
M  V30 3847 C 378.14 1.36341 -1.56288 0
M  V30 3848 C 378.565 1.86954 -0.207347 0
M  V30 3849 O 377.923 1.62006 0.813871 0
M  V30 3850 C 377.971 2.52147 -2.57787 0
M  V30 3851 O 377.075 3.53834 -2.11838 0
M  V30 3852 H 376.416 0.405713 -0.525636 0
M  V30 3853 H 378.946 0.696453 -1.92382 0
M  V30 3854 H 378.956 2.98958 -2.77648 0
M  V30 3855 H 377.631 2.14663 -3.5622 0
M  V30 3856 H 376.208 3.1345 -2.01999 0
M  V30 3857 N 378.394 1.34581 0.820102 0
M  V30 3858 C 379.624 1.29991 1.6058 0
M  V30 3859 C 380.032 -0.127588 1.88769 0
M  V30 3860 O 379.375 -1.08595 1.48165 0
M  V30 3861 C 379.437 2.02548 2.9701 0
M  V30 3862 C 379.101 3.51794 2.91701 0
M  V30 3863 C 380.098 4.46647 2.66087 0
M  V30 3864 C 377.783 3.94249 3.11245 0
M  V30 3865 C 379.777 5.81929 2.60071 0
M  V30 3866 C 377.464 5.2963 3.04853 0
M  V30 3867 C 378.462 6.23282 2.793 0
M  V30 3868 O 378.15 7.56181 2.72847 0
M  V30 3869 H 377.882 0.448539 0.505756 0
M  V30 3870 H 380.436 1.77811 1.02822 0
M  V30 3871 H 378.666 1.49345 3.56697 0
M  V30 3872 H 380.355 1.91211 3.58041 0
M  V30 3873 H 381.121 4.15168 2.5072 0
M  V30 3874 H 377 3.21749 3.30149 0
M  V30 3875 H 380.544 6.54999 2.40046 0
M  V30 3876 H 376.441 5.60727 3.19774 0
M  V30 3877 H 377.209 7.6595 2.88553 0
M  V30 3878 N 379.872 -1.04064 1.18357 0
M  V30 3879 C 380.804 -2.12114 0.868358 0
M  V30 3880 C 381.817 -1.62247 -0.134045 0
M  V30 3881 O 383.006 -1.78253 0.0937933 0
M  V30 3882 C 380.106 -3.37773 0.276132 0
M  V30 3883 C 379.279 -4.16874 1.3242 0
M  V30 3884 C 378.338 -5.20861 0.747662 0
M  V30 3885 O 377.364 -5.51141 1.42239 0
M  V30 3886 N 378.566 -5.78715 -0.454823 0
M  V30 3887 H 381.331 -2.39748 1.79836 0
M  V30 3888 H 378.892 -1.20258 1.08396 0
M  V30 3889 H 380.884 -4.04513 -0.123133 0
M  V30 3890 H 379.454 -3.07581 -0.557895 0
M  V30 3891 H 378.674 -3.45456 1.89878 0
M  V30 3892 H 379.962 -4.66516 2.03078 0
M  V30 3893 H 379.36 -5.56415 -1.02073 0
M  V30 3894 H 377.917 -6.46921 -0.79601 0
M  V30 3895 N 381.35 -0.985608 -1.22978 0
M  V30 3896 C 382.28 -0.549649 -2.26939 0
M  V30 3897 C 383.261 0.419803 -1.64838 0
M  V30 3898 O 384.446 0.31203 -1.91677 0
M  V30 3899 C 381.576 0.143652 -3.47003 0
M  V30 3900 C 380.53 -0.743606 -4.21491 0
M  V30 3901 C 379.856 0.0822027 -5.34637 0
M  V30 3902 C 381.156 -2.03694 -4.80943 0
M  V30 3903 H 382.85 -1.41862 -2.63658 0
M  V30 3904 H 380.396 -0.683571 -1.26741 0
M  V30 3905 H 382.349 0.459985 -4.18882 0
M  V30 3906 H 381.073 1.04711 -3.09359 0
M  V30 3907 H 379.732 -1.04347 -3.51436 0
M  V30 3908 H 379.38 0.986359 -4.93234 0
M  V30 3909 H 379.08 -0.508377 -5.85397 0
M  V30 3910 H 380.604 0.392797 -6.09335 0
M  V30 3911 H 382.018 -1.78504 -5.44802 0
M  V30 3912 H 380.415 -2.57573 -5.42011 0
M  V30 3913 H 381.485 -2.72042 -4.01399 0
M  V30 3914 N 382.828 1.3818 -0.7579 0
M  V30 3915 C 384.053 2.04827 -0.325679 0
M  V30 3916 C 384.478 1.56788 1.03919 0
M  V30 3917 O 383.836 0.721811 1.66312 0
M  V30 3918 C 383.884 3.58774 -0.362447 0
M  V30 3919 O 382.988 4.07372 0.642033 0
M  V30 3920 H 382.329 0.64833 -0.143402 0
M  V30 3921 H 384.859 1.7677 -1.03023 0
M  V30 3922 H 384.869 4.07434 -0.214844 0
M  V30 3923 H 383.544 3.93096 -1.35824 0
M  V30 3924 H 382.121 3.70068 0.458688 0
M  V30 3925 N 384.306 0.507319 1.49211 0
M  V30 3926 C 385.717 0.0611118 1.866 0
M  V30 3927 C 386.068 -1.35488 1.41907 0
M  V30 3928 O 385.193 -2.0108 0.799726 0
M  V30 3929 C 385.788 0.104125 3.3864 0
M  V30 3930 C 384.347 -0.28677 3.75306 0
M  V30 3931 C 383.494 0.473893 2.73221 0
M  V30 3932 H 386.445 0.719775 1.41439 0
M  V30 3933 H 386.466 -0.689672 3.74198 0
M  V30 3934 H 385.978 1.13482 3.71138 0
M  V30 3935 H 384.079 -1.32046 3.48417 0
M  V30 3936 H 384.192 0.0370745 4.79086 0
M  V30 3937 H 382.556 -0.0770644 2.54583 0
M  V30 3938 H 383.339 1.50478 3.08563 0
M  V30 3939 N 385.784 -1.5574 0.241426 0
M  V30 3940 C 386.716 -2.18469 -0.693091 0
M  V30 3941 C 387.729 -1.15942 -1.14286 0
M  V30 3942 O 388.918 -1.42832 -1.07058 0
M  V30 3943 C 386.018 -2.7696 -1.95311 0
M  V30 3944 C 385.191 -4.04853 -1.65568 0
M  V30 3945 C 384.25 -4.47715 -2.76474 0
M  V30 3946 O 383.276 -5.14205 -2.44094 0
M  V30 3947 N 384.478 -4.15044 -4.05855 0
M  V30 3948 H 387.243 -2.99292 -0.156388 0
M  V30 3949 H 384.804 -1.61784 0.0611752 0
M  V30 3950 H 386.796 -3.02594 -2.68736 0
M  V30 3951 H 385.366 -2.00326 -2.39975 0
M  V30 3952 H 384.586 -3.86865 -0.756886 0
M  V30 3953 H 385.874 -4.88246 -1.43153 0
M  V30 3954 H 385.272 -3.61654 -4.34998 0
M  V30 3955 H 383.829 -4.45526 -4.75762 0
M  V30 3956 N 387.262 0.0317525 -1.57568 0
M  V30 3957 C 388.539 0.758366 -1.803 0
M  V30 3958 C 388.919 1.93718 -0.838845 0
M  V30 3959 O 388.267 2.28187 0.119571 0
M  V30 3960 C 388.477 1.19392 -3.27943 0
M  V30 3961 C 389.825 1.61094 -3.92854 0
M  V30 3962 O 390.849 1.28857 -3.32076 0
M  V30 3963 O 389.708 2.20918 -4.99858 0
M  V30 3964 H 386.802 0.366514 -0.741348 0
M  V30 3965 H 389.348 0.00873765 -1.69698 0
M  V30 3966 H 388.12 0.352275 -3.89711 0
M  V30 3967 H 387.743 2.00365 -3.43424 0
M  V30 3968 N 388.74 1.54641 0.303973 0
M  V30 3969 C 389.987 1.7378 1.03955 0
M  V30 3970 C 390.315 0.521986 1.87365 0
M  V30 3971 O 389.57 -0.496099 1.89308 0
M  V30 3972 C 389.869 2.97753 1.97681 0
M  V30 3973 C 389.535 4.31671 1.30271 0
M  V30 3974 C 388.197 4.68075 1.11619 0
M  V30 3975 C 390.549 5.147 0.82055 0
M  V30 3976 C 387.877 5.8509 0.434304 0
M  V30 3977 C 390.229 6.32416 0.152395 0
M  V30 3978 C 388.893 6.67484 -0.0461067 0
M  V30 3979 H 388.163 0.635908 0.380398 0
M  V30 3980 H 390.81 1.88896 0.314718 0
M  V30 3981 H 389.115 2.77406 2.76682 0
M  V30 3982 H 390.812 3.09756 2.54661 0
M  V30 3983 H 387.402 4.03041 1.45795 0
M  V30 3984 H 391.586 4.87077 0.952374 0
M  V30 3985 H 386.842 6.10806 0.269495 0
M  V30 3986 H 391.016 6.96023 -0.229126 0
M  V30 3987 H 388.643 7.58011 -0.576494 0
M  V30 3988 N 390.218 -0.567019 1.47046 0
M  V30 3989 C 391.466 -1.322 1.52864 0
M  V30 3990 C 391.787 -1.94088 0.188388 0
M  V30 3991 O 391.057 -1.7941 -0.786693 0
M  V30 3992 H 389.637 -0.490894 0.563056 0
M  V30 3993 H 392.299 -0.662879 1.83281 0
M  V30 3994 H 391.395 -2.12062 2.2899 0
M  V30 3995 N 391.696 -1.35014 -0.812953 0
M  V30 3996 C 392.626 -1.30069 -1.93919 0
M  V30 3997 C 393.607 -0.176275 -1.69184 0
M  V30 3998 O 394.792 -0.370227 -1.90638 0
M  V30 3999 C 391.922 -1.06547 -3.30552 0
M  V30 4000 C 390.876 -2.15561 -3.69753 0
M  V30 4001 C 390.202 -1.77214 -5.04479 0
M  V30 4002 C 391.502 -3.57476 -3.808 0
M  V30 4003 H 393.196 -2.24303 -1.98314 0
M  V30 4004 H 390.742 -1.07977 -0.952736 0
M  V30 4005 H 392.695 -1.01729 -4.08937 0
M  V30 4006 H 391.419 -0.0875719 -3.26483 0
M  V30 4007 H 390.078 -2.19466 -2.9365 0
M  V30 4008 H 389.726 -0.780589 -4.96906 0
M  V30 4009 H 389.426 -2.50184 -5.31678 0
M  V30 4010 H 390.95 -1.7391 -5.8531 0
M  V30 4011 H 392.364 -3.55929 -4.4943 0
M  V30 4012 H 390.761 -4.29152 -4.19462 0
M  V30 4013 H 391.831 -3.94091 -2.82525 0
M  V30 4014 N 393.175 1.03435 -1.18907 0
M  V30 4015 C 394.107 2.1165 -0.879595 0
M  V30 4016 C 395.12 1.62316 0.125439 0
M  V30 4017 O 396.309 1.78201 -0.103245 0
M  V30 4018 C 393.409 3.37622 -0.294042 0
M  V30 4019 C 392.582 4.16166 -1.34629 0
M  V30 4020 C 391.641 5.20457 -0.775274 0
M  V30 4021 O 390.667 5.50379 -1.4516 0
M  V30 4022 N 391.869 5.78949 0.424126 0
M  V30 4023 H 394.634 2.38791 -1.81105 0
M  V30 4024 H 392.195 1.19681 -1.09032 0
M  V30 4025 H 394.187 4.04572 0.101679 0
M  V30 4026 H 392.757 3.07873 0.541575 0
M  V30 4027 H 391.977 3.44444 -1.91707 0
M  V30 4028 H 393.265 4.65432 -2.05549 0
M  V30 4029 H 392.663 5.56948 0.991209 0
M  V30 4030 H 391.22 6.47334 0.761691 0
M  V30 4031 N 394.653 0.992116 1.22453 0
M  V30 4032 C 395.878 0.685644 1.95739 0
M  V30 4033 C 396.303 -0.743 1.72804 0
M  V30 4034 O 395.661 -1.50778 1.00676 0
M  V30 4035 C 395.709 0.996293 3.46564 0
M  V30 4036 O 394.813 0.0945512 4.12292 0
M  V30 4037 H 394.154 0.256694 0.612376 0
M  V30 4038 H 396.684 1.32888 1.5557 0
M  V30 4039 H 396.694 0.93781 3.97076 0
M  V30 4040 H 395.369 2.03733 3.62582 0
M  V30 4041 H 393.946 0.208451 3.72317 0
M  V30 4042 N 396.131 -1.37776 0.765217 0
M  V30 4043 C 397.361 -2.03828 0.337277 0
M  V30 4044 C 397.769 -1.57841 -1.04321 0
M  V30 4045 O 397.112 -0.752043 -1.67601 0
M  V30 4046 C 397.174 -3.58292 0.294407 0
M  V30 4047 C 396.838 -4.27384 1.61838 0
M  V30 4048 C 397.835 -4.51956 2.56967 0
M  V30 4049 C 395.52 -4.65345 1.89102 0
M  V30 4050 C 397.514 -5.13536 3.77571 0
M  V30 4051 C 395.201 -5.26647 3.09978 0
M  V30 4052 C 396.199 -5.50679 4.04032 0
M  V30 4053 O 395.887 -6.10702 5.2278 0
M  V30 4054 H 395.619 -0.661292 0.140248 0
M  V30 4055 H 398.173 -1.77222 1.03834 0
M  V30 4056 H 396.403 -3.83918 -0.462983 0
M  V30 4057 H 398.092 -4.05763 -0.105581 0
M  V30 4058 H 398.858 -4.23048 2.37183 0
M  V30 4059 H 394.737 -4.45978 1.16725 0
M  V30 4060 H 398.281 -5.3221 4.50997 0
M  V30 4061 H 394.178 -5.54979 3.29649 0
M  V30 4062 H 394.946 -6.29183 5.23517 0
M  V30 4063 N 397.609 -0.515225 -1.4894 0
M  V30 4064 C 398.834 0.022727 -2.07388 0
M  V30 4065 C 399.259 1.2876 -1.37122 0
M  V30 4066 O 398.617 1.76067 -0.432431 0
M  V30 4067 C 398.665 0.244869 -3.59768 0
M  V30 4068 O 397.769 1.31667 -3.90817 0
M  V30 4069 H 397.11 -0.0325506 -0.663202 0
M  V30 4070 H 399.64 -0.718918 -1.91553 0
M  V30 4071 H 399.65 0.47205 -4.0526 0
M  V30 4072 H 398.325 -0.679194 -4.10317 0
M  V30 4073 H 396.902 1.07331 -3.5712 0
M  V30 4074 N 399.087 1.5561 -0.249682 0
M  V30 4075 C 400.017 2.24477 0.642826 0
M  V30 4076 C 400.998 1.22601 1.17911 0
M  V30 4077 O 402.183 1.5126 1.21795 0
M  V30 4078 C 399.313 2.94638 1.83863 0
M  V30 4079 C 398.267 4.03227 1.435 0
M  V30 4080 C 397.593 4.60828 2.71186 0
M  V30 4081 C 398.893 5.18796 0.604002 0
M  V30 4082 H 400.587 2.99321 0.0685625 0
M  V30 4083 H 398.133 1.43965 0.0315363 0
M  V30 4084 H 400.086 3.41517 2.46868 0
M  V30 4085 H 398.81 2.17287 2.43832 0
M  V30 4086 H 397.469 3.57121 0.828275 0
M  V30 4087 H 397.117 3.80174 3.29358 0
M  V30 4088 H 396.817 5.34132 2.44901 0
M  V30 4089 H 398.341 5.10442 3.35084 0
M  V30 4090 H 399.755 5.61883 1.13842 0
M  V30 4091 H 398.152 5.98506 0.437097 0
M  V30 4092 H 399.222 4.83384 -0.383147 0
M  V30 4093 N 400.565 -0.0233959 1.57583 0
M  V30 4094 C 401.513 -1.04063 2.08023 0
M  V30 4095 C 402.507 -1.37084 0.995204 0
M  V30 4096 O 403.713 -1.35923 1.18004 0
M  V30 4097 H 400.088 -0.353144 0.663922 0
M  V30 4098 H 402.059 -0.589453 2.9252 0
M  V30 4099 C 400.808 -2.33123 2.57971 0
M  V30 4100 H 400.131 -2.08577 3.4108 0
M  V30 4101 H 401.571 -3.02632 2.96967 0
M  V30 4102 C 400.03 -3.02483 1.48342 0
M  V30 4103 O 400.56 -3.92541 0.852898 0
M  V30 4104 N 398.766 -2.63909 1.21658 0
M  V30 4105 H 398.313 -1.90758 1.73116 0
M  V30 4106 H 398.271 -3.10633 0.485218 0
M  V30 4107 N 402.043 -1.548 -0.295768 0
M  V30 4108 C 403.006 -1.85363 -1.34808 0
M  V30 4109 C 404.006 -0.726817 -1.43436 0
M  V30 4110 O 405.196 -0.995088 -1.42981 0
M  V30 4111 C 402.328 -2.03859 -2.73229 0
M  V30 4112 H 403.521 -2.7941 -1.08949 0
M  V30 4113 H 401.074 -1.46942 -0.532702 0
M  V30 4114 H 401.809 -1.12117 -3.04303 0
M  V30 4115 H 401.594 -2.8588 -2.68356 0
M  V30 4116 H 403.084 -2.28857 -3.49305 0
M  V30 4117 N 403.521 0.559213 -1.47345 0
M  V30 4118 C 404.451 1.67622 -1.62558 0
M  V30 4119 C 405.432 1.63331 -0.475087 0
M  V30 4120 O 406.617 1.80983 -0.704182 0
M  V30 4121 C 403.747 3.0626 -1.63774 0
M  V30 4122 C 402.701 3.25397 -2.7803 0
M  V30 4123 C 402.027 4.64801 -2.64318 0
M  V30 4124 C 403.327 3.10965 -4.19641 0
M  V30 4125 H 405.021 1.55146 -2.56067 0
M  V30 4126 H 402.567 0.744961 -1.23233 0
M  V30 4127 H 404.52 3.84247 -1.73008 0
M  V30 4128 H 403.244 3.1969 -0.66825 0
M  V30 4129 H 401.903 2.49817 -2.68304 0
M  V30 4130 H 401.551 4.75028 -1.65401 0
M  V30 4131 H 401.251 4.78555 -3.40968 0
M  V30 4132 H 402.775 5.44926 -2.75478 0
M  V30 4133 H 404.189 3.78772 -4.30354 0
M  V30 4134 H 402.586 3.36229 -4.97062 0
M  V30 4135 H 403.656 2.07736 -4.38148 0
M  V30 4136 N 404.999 1.35443 0.805782 0
M  V30 4137 C 405.931 1.24285 1.92577 0
M  V30 4138 C 406.944 0.165962 1.61952 0
M  V30 4139 O 408.133 0.419303 1.73505 0
M  V30 4140 C 405.233 0.891272 3.2697 0
M  V30 4141 C 404.406 2.06669 3.85495 0
M  V30 4142 C 403.465 1.69077 4.98297 0
M  V30 4143 O 402.491 2.4096 5.15681 0
M  V30 4144 N 403.693 0.614869 5.77234 0
M  V30 4145 H 406.458 2.20777 2.02676 0
M  V30 4146 H 404.019 1.28623 0.983243 0
M  V30 4147 H 406.011 0.621256 3.99903 0
M  V30 4148 H 404.581 0.016004 3.12596 0
M  V30 4149 H 403.801 2.50046 3.04747 0
M  V30 4150 H 405.089 2.85237 4.21328 0
M  V30 4151 H 404.487 0.017648 5.65697 0
M  V30 4152 H 403.044 0.404636 6.50543 0
M  V30 4153 N 406.477 -1.02803 1.19454 0
M  V30 4154 C 407.725 -1.75869 0.995722 0
M  V30 4155 C 408.046 -1.89138 -0.474543 0
M  V30 4156 O 407.316 -1.42558 -1.34366 0
M  V30 4157 H 405.896 -0.651511 0.365435 0
M  V30 4158 H 408.558 -1.24004 1.50363 0
M  V30 4159 H 407.654 -2.76661 1.44447 0
M  V30 4160 N 407.956 -0.998596 -1.21925 0
M  V30 4161 C 409.204 -0.676325 -1.90448 0
M  V30 4162 C 409.525 0.794719 -1.78071 0
M  V30 4163 O 408.795 1.5701 -1.17152 0
M  V30 4164 H 407.375 -0.247165 -0.704925 0
M  V30 4165 H 410.037 -1.26633 -1.48156 0
M  V30 4166 H 409.133 -0.943858 -2.97486 0
M  V30 4167 N 409.434 1.37368 -0.772513 0
M  V30 4168 C 410.662 2.03942 -0.348588 0
M  V30 4169 C 411.077 1.58264 1.02947 0
M  V30 4170 O 410.434 0.764246 1.65727 0
M  V30 4171 C 410.485 3.5946 -0.38351 0
M  V30 4172 O 410.206 4.03468 -1.70721 0
M  V30 4173 C 411.707 4.4327 0.0519152 0
M  V30 4174 H 408.927 0.654931 -0.145966 0
M  V30 4175 H 411.471 1.75686 -1.04665 0
M  V30 4176 H 409.626 3.86486 0.265978 0
M  V30 4177 H 410.04 4.97991 -1.64636 0
M  V30 4178 H 411.514 5.51995 -0.0236733 0
M  V30 4179 H 411.991 4.2514 1.10238 0
M  V30 4180 H 412.597 4.21471 -0.569415 0
M  V30 4181 N 410.912 0.523116 1.48665 0
M  V30 4182 C 412.323 0.0808997 1.86525 0
M  V30 4183 C 412.674 -1.33975 1.43336 0
M  V30 4184 O 411.799 -2.00221 0.821009 0
M  V30 4185 C 412.394 0.140037 3.3851 0
M  V30 4186 C 410.953 -0.246948 3.75589 0
M  V30 4187 C 410.1 0.502845 2.72703 0
M  V30 4188 H 413.051 0.734736 1.40667 0
M  V30 4189 H 413.072 -0.649945 3.74908 0
M  V30 4190 H 412.584 1.17412 3.69914 0
M  V30 4191 H 410.685 -1.28343 3.49798 0
M  V30 4192 H 410.798 0.0878859 4.79019 0
M  V30 4193 H 409.162 -0.0500581 2.54651 0
M  V30 4194 H 409.945 1.53743 3.0695 0
M  V30 4195 N 412.39 -1.55475 0.257931 0
M  V30 4196 C 413.3 -2.2549 -0.647425 0
M  V30 4197 C 414.316 -1.2748 -1.18427 0
M  V30 4198 O 415.492 -1.6038 -1.2182 0
M  V30 4199 C 412.557 -2.94916 -1.82278 0
M  V30 4200 C 411.618 -4.08363 -1.32432 0
M  V30 4201 C 410.851 -4.74469 -2.44366 0
M  V30 4202 O 411.074 -4.39701 -3.63344 0
M  V30 4203 O 410.008 -5.62763 -2.13497 0
M  V30 4204 H 413.834 -3.03593 -0.0807707 0
M  V30 4205 H 411.419 -1.49377 0.0259962 0
M  V30 4206 H 413.301 -3.38606 -2.50846 0
M  V30 4207 H 411.976 -2.19744 -2.37685 0
M  V30 4208 H 410.883 -3.69166 -0.605605 0
M  V30 4209 H 412.216 -4.85385 -0.816211 0
M  V30 4210 N 413.868 0.0150385 -1.57593 0
M  V30 4211 C 414.778 1.02791 -2.10882 0
M  V30 4212 C 415.794 1.38702 -1.0506 0
M  V30 4213 O 416.97 1.47739 -1.36877 0
M  V30 4214 C 414.035 2.30568 -2.58919 0
M  V30 4215 C 413.096 2.01108 -3.79281 0
M  V30 4216 C 412.329 3.22794 -4.25018 0
M  V30 4217 O 412.552 4.33959 -3.70183 0
M  V30 4218 O 411.486 3.07672 -5.17322 0
M  V30 4219 H 415.312 0.604973 -2.97613 0
M  V30 4220 H 412.897 0.23292 -1.47573 0
M  V30 4221 H 414.779 3.05662 -2.90084 0
M  V30 4222 H 413.454 2.72129 -1.75293 0
M  V30 4223 H 412.361 1.23537 -3.53114 0
M  V30 4224 H 413.694 1.64394 -4.63935 0
M  V30 4225 N 415.346 1.54954 0.287554 0
M  V30 4226 C 416.294 1.87606 1.37502 0
M  V30 4227 C 417.288 0.751001 1.51843 0
M  V30 4228 O 418.494 0.935169 1.53801 0
M  V30 4229 H 414.869 0.595231 0.459569 0
M  V30 4230 H 416.84 2.78477 1.07206 0
M  V30 4231 C 415.589 2.15183 2.73115 0
M  V30 4232 H 414.912 3.01234 2.62866 0
M  V30 4233 H 416.352 2.4196 3.48183 0
M  V30 4234 C 414.811 0.954686 3.2309 0
M  V30 4235 O 415.341 0.181949 4.01288 0
M  V30 4236 N 413.547 0.756368 2.80584 0
M  V30 4237 H 413.094 1.38643 2.17108 0
M  V30 4238 H 413.052 -0.0430391 3.14371 0
M  V30 4239 N 416.824 -0.551391 1.4764 0
M  V30 4240 C 418.24 -0.877887 1.33287 0
M  V30 4241 C 418.44 -1.98817 0.327721 0
M  V30 4242 O 417.496 -2.51171 -0.258695 0
M  V30 4243 C 418.809 -1.26563 2.72768 0
M  V30 4244 C 420.357 -1.37673 2.81097 0
M  V30 4245 C 420.832 -1.79799 4.21232 0
M  V30 4246 N 422.323 -1.8694 4.23802 0
M  V30 4247 C 423.058 -2.20876 5.29151 0
M  V30 4248 N 422.554 -2.53386 6.448 0
M  V30 4249 N 424.347 -2.217 5.16532 0
M  V30 4250 H 416.498 0.18153 2.11623 0
M  V30 4251 H 418.761 0.0185514 0.947818 0
M  V30 4252 H 418.467 -0.523591 3.47781 0
M  V30 4253 H 418.341 -2.22052 3.04915 0
M  V30 4254 H 420.728 -2.10956 2.06353 0
M  V30 4255 H 420.809 -0.40357 2.52596 0
M  V30 4256 H 420.453 -1.07083 4.96483 0
M  V30 4257 H 420.383 -2.78128 4.4716 0
M  V30 4258 H 422.874 -1.64179 3.40373 0
M  V30 4259 H 423.187 -2.78325 7.20941 0
M  V30 4260 H 421.532 -2.50953 6.48111 0
M  V30 4261 H 424.723 -1.95745 4.25207 0
M  V30 4262 H 424.896 -2.47818 5.98741 0
M  V30 4263 N 418.302 -1.35869 -0.798587 0
M  V30 4264 C 419.579 -1.20145 -1.54352 0
M  V30 4265 C 419.959 0.216161 -2.0999 0
M  V30 4266 O 419.307 1.22068 -1.93162 0
M  V30 4267 C 419.517 -2.27602 -2.64572 0
M  V30 4268 C 420.865 -2.63811 -3.32699 0
M  V30 4269 O 421.889 -2.26576 -2.74849 0
M  V30 4270 O 420.748 -3.27866 -4.37226 0
M  V30 4271 H 417.842 -0.467248 -0.682355 0
M  V30 4272 H 420.388 -1.47574 -0.837859 0
M  V30 4273 H 419.16 -3.2265 -2.21388 0
M  V30 4274 H 418.783 -2.01488 -3.42766 0
M  V30 4275 N 419.78 1.02168 -1.19998 0
M  V30 4276 C 421.029 1.75091 -1.0013 0
M  V30 4277 C 421.342 1.89923 0.467835 0
M  V30 4278 O 422.548 2.59888 0.785515 0
M  V30 4279 C 421.004 3.14892 -1.74273 0
M  V30 4280 C 420.612 3.0809 -3.25245 0
M  V30 4281 C 422.356 3.9206 -1.62755 0
M  V30 4282 C 420.263 4.42867 -3.91948 0
M  V30 4283 H 419.193 0.656394 -0.37103 0
M  V30 4284 H 421.844 1.14284 -1.43567 0
M  V30 4285 H 420.226 3.7621 -1.2362 0
M  V30 4286 H 421.4 2.5611 -3.83072 0
M  V30 4287 H 419.715 2.44416 -3.3712 0
M  V30 4288 H 422.312 4.91764 -2.09934 0
M  V30 4289 H 422.655 4.12199 -0.582894 0
M  V30 4290 H 423.188 3.37359 -2.10793 0
M  V30 4291 H 419.927 4.27931 -4.96543 0
M  V30 4292 H 419.447 4.94874 -3.3891 0
M  V30 4293 H 421.126 5.11728 -3.95909 0
M  V30 4294 N 421.258 1.00505 1.21394 0
M  V30 4295 C 422.188 0.585684 2.26035 0
M  V30 4296 C 423.169 -0.393525 1.65485 0
M  V30 4297 O 424.354 -0.281497 1.92149 0
M  V30 4298 C 421.484 -0.0884283 3.47187 0
M  V30 4299 C 420.438 0.810567 4.20254 0
M  V30 4300 C 419.764 0.00286382 5.347 0
M  V30 4301 C 421.064 2.1132 4.77641 0
M  V30 4302 H 422.758 1.46039 2.61368 0
M  V30 4303 H 420.304 0.703648 1.25638 0
M  V30 4304 H 422.257 -0.393286 4.19561 0
M  V30 4305 H 420.981 -0.997766 3.10986 0
M  V30 4306 H 419.64 1.09925 3.49731 0
M  V30 4307 H 419.288 -0.907765 4.94741 0
M  V30 4308 H 418.988 0.601444 5.84514 0
M  V30 4309 H 420.512 -0.295808 6.09883 0
M  V30 4310 H 421.926 1.87148 5.41893 0
M  V30 4311 H 420.323 2.66164 5.37845 0
M  V30 4312 H 421.393 2.78393 3.9702 0
M  V30 4313 N 422.737 -1.36956 0.779787 0
M  V30 4314 C 423.7 -2.2851 0.177662 0
M  V30 4315 C 424.7 -1.48393 -0.619377 0
M  V30 4316 O 425.89 -1.68505 -0.441785 0
M  V30 4317 C 423.022 -3.32428 -0.755279 0
M  V30 4318 H 424.215 -2.83269 0.984823 0
M  V30 4319 H 421.768 -1.46358 0.548544 0
M  V30 4320 H 422.503 -2.82808 -1.58714 0
M  V30 4321 H 422.288 -3.91659 -0.185817 0
M  V30 4322 H 423.778 -4.00824 -1.17174 0
M  V30 4323 N 424.215 -0.530993 -1.48385 0
M  V30 4324 C 425.631 -0.188919 -1.58478 0
M  V30 4325 C 425.831 1.30786 -1.53288 0
M  V30 4326 O 424.887 2.08619 -1.42248 0
M  V30 4327 C 426.2 -0.792343 -2.90073 0
M  V30 4328 C 427.748 -0.76117 -3.03604 0
M  V30 4329 C 428.223 -1.34319 -4.37861 0
M  V30 4330 N 429.714 -1.3052 -4.44431 0
M  V30 4331 C 430.449 -1.72543 -5.46824 0
M  V30 4332 N 429.945 -2.22299 -6.56167 0
M  V30 4333 N 431.738 -1.63773 -5.37712 0
M  V30 4334 H 423.889 -1.50377 -1.50002 0
M  V30 4335 H 426.152 -0.625559 -0.712306 0
M  V30 4336 H 425.858 -1.84323 -2.99529 0
M  V30 4337 H 425.732 -0.270026 -3.76232 0
M  V30 4338 H 428.119 0.280957 -2.93759 0
M  V30 4339 H 428.2 -1.32097 -2.19053 0
M  V30 4340 H 427.844 -2.38425 -4.4846 0
M  V30 4341 H 427.774 -0.759064 -5.21101 0
M  V30 4342 H 430.265 -0.940973 -3.65997 0
M  V30 4343 H 430.578 -2.52356 -7.30436 0
M  V30 4344 H 428.923 -2.26293 -6.57127 0
M  V30 4345 H 432.114 -1.24698 -4.51185 0
M  V30 4346 H 432.287 -1.96844 -6.17379 0
M  V30 4347 N 425.693 1.55336 -0.266172 0
M  V30 4348 C 426.623 2.25146 0.618981 0
M  V30 4349 C 427.604 1.23845 1.16604 0
M  V30 4350 O 428.789 1.52544 1.20183 0
M  V30 4351 C 425.919 2.96572 1.80728 0
M  V30 4352 C 424.873 4.04726 1.39215 0
M  V30 4353 C 424.199 4.63678 2.66283 0
M  V30 4354 C 425.499 5.19407 0.548942 0
M  V30 4355 H 427.193 2.99377 0.0368116 0
M  V30 4356 H 424.739 1.43991 0.0162651 0
M  V30 4357 H 426.692 3.44116 2.43232 0
M  V30 4358 H 425.416 2.19861 2.41514 0
M  V30 4359 H 424.075 3.57979 0.790351 0
M  V30 4360 H 423.723 3.83646 3.25308 0
M  V30 4361 H 423.423 5.367 2.39222 0
M  V30 4362 H 424.947 5.13967 3.29651 0
M  V30 4363 H 426.361 5.63059 1.07876 0
M  V30 4364 H 424.758 5.98936 0.373593 0
M  V30 4365 H 425.828 4.8295 -0.434394 0
M  V30 4366 N 427.171 -0.0066808 1.57599 0
M  V30 4367 C 428.101 -0.999296 2.11036 0
M  V30 4368 C 429.082 -1.36278 1.01795 0
M  V30 4369 O 430.267 -1.4477 1.29442 0
M  V30 4370 C 427.397 -2.29328 2.60818 0
M  V30 4371 C 426.351 -2.07159 3.74525 0
M  V30 4372 C 425.677 -3.42512 4.10596 0
M  V30 4373 C 426.977 -1.43959 5.02069 0
M  V30 4374 H 428.671 -0.554382 2.94223 0
M  V30 4375 H 426.217 -0.265221 1.41536 0
M  V30 4376 H 428.17 -2.99117 2.96828 0
M  V30 4377 H 426.894 -2.7592 1.74745 0
M  V30 4378 H 425.553 -1.39797 3.38899 0
M  V30 4379 H 425.201 -3.86795 3.21556 0
M  V30 4380 H 424.901 -3.28498 4.87199 0
M  V30 4381 H 426.425 -4.13628 4.4916 0
M  V30 4382 H 427.839 -2.03696 5.35893 0
M  V30 4383 H 426.236 -1.40452 5.83432 0
M  V30 4384 H 427.306 -0.407992 4.83181 0
M  V30 4385 N 428.649 -1.55105 -0.279332 0
M  V30 4386 C 429.581 -1.83952 -1.36727 0
M  V30 4387 C 430.594 -0.723642 -1.45833 0
M  V30 4388 O 431.783 -1.00141 -1.47763 0
M  V30 4389 C 428.883 -1.98183 -2.74912 0
M  V30 4390 C 428.056 -3.28787 -2.88475 0
M  V30 4391 C 427.115 -3.33162 -4.07295 0
M  V30 4392 O 426.141 -4.06576 -3.98353 0
M  V30 4393 N 427.343 -2.60109 -5.18964 0
M  V30 4394 H 430.108 -2.77853 -1.12328 0
M  V30 4395 H 427.669 -1.54945 -0.469442 0
M  V30 4396 H 429.661 -1.98488 -3.52682 0
M  V30 4397 H 428.231 -1.11177 -2.92162 0
M  V30 4398 H 427.451 -3.41075 -1.97641 0
M  V30 4399 H 428.739 -4.14933 -2.94463 0
M  V30 4400 H 428.137 -2.00136 -5.29115 0
M  V30 4401 H 426.694 -2.66143 -5.94988 0
M  V30 4402 N 430.127 0.543554 -1.4793 0
M  V30 4403 C 431.375 1.29752 -1.54948 0
M  V30 4404 C 431.696 1.93764 -0.219242 0
M  V30 4405 O 430.966 1.80639 0.75805 0
M  V30 4406 H 429.546 0.481874 -0.570795 0
M  V30 4407 H 432.208 0.633636 -1.84312 0
M  V30 4408 H 431.304 2.08392 -2.32334 0
M  V30 4409 N 431.605 1.3629 0.791371 0
M  V30 4410 C 432.552 1.30458 1.90393 0
M  V30 4411 C 433.522 0.173632 1.6519 0
M  V30 4412 O 434.707 0.35983 1.87376 0
M  V30 4413 C 431.847 1.09777 3.27174 0
M  V30 4414 C 430.96 2.31929 3.64462 0
M  V30 4415 C 430.095 2.04276 4.90352 0
M  V30 4416 C 429.134 3.224 5.20312 0
M  V30 4417 N 428.271 2.94424 6.37385 0
M  V30 4418 H 433.111 2.25589 1.94714 0
M  V30 4419 H 430.648 1.12122 0.952216 0
M  V30 4420 H 432.606 0.958133 4.06049 0
M  V30 4421 H 431.236 0.183014 3.22281 0
M  V30 4422 H 430.288 2.56703 2.80727 0
M  V30 4423 H 431.6 3.20085 3.82553 0
M  V30 4424 H 430.754 1.87231 5.77087 0
M  V30 4425 H 429.493 1.13428 4.74326 0
M  V30 4426 H 428.498 3.40005 4.32061 0
M  V30 4427 H 429.723 4.14071 5.38258 0
M  V30 4428 H 427.669 2.06185 6.22755 0
M  V30 4429 H 427.586 3.76118 6.55798 0
M  V30 4430 H 428.854 2.80953 7.27108 0
M  V30 4431 N 433.083 -1.0153 1.20538 0
M  V30 4432 C 434.331 -1.74803 1.01432 0
M  V30 4433 C 434.652 -1.8963 -0.454456 0
M  V30 4434 O 433.922 -1.43975 -1.32846 0
M  V30 4435 H 432.502 -0.647598 0.372324 0
M  V30 4436 H 435.164 -1.22402 1.5167 0
M  V30 4437 H 434.26 -2.75114 1.47373 0
M  V30 4438 N 434.561 -1.01147 -1.20859 0
M  V30 4439 C 435.838 -0.613136 -1.85742 0
M  V30 4440 C 436.218 0.909004 -1.90526 0
M  V30 4441 O 435.566 1.79862 -1.40932 0
M  V30 4442 C 435.776 -1.255 -3.25654 0
M  V30 4443 C 437.124 -1.3672 -4.01986 0
M  V30 4444 O 438.148 -1.21082 -3.34989 0
M  V30 4445 O 437.007 -1.6194 -5.21956 0
M  V30 4446 H 434.101 -0.210878 -0.799662 0
M  V30 4447 H 436.647 -1.10853 -1.2849 0
M  V30 4448 H 435.419 -2.29532 -3.16908 0
M  V30 4449 H 435.042 -0.746369 -3.90532 0
M  V30 4450 N 436.039 1.36541 -0.78704 0
M  V30 4451 C 437.002 2.28413 -0.189778 0
M  V30 4452 C 438.002 1.48719 0.611499 0
M  V30 4453 O 439.192 1.68737 0.432842 0
M  V30 4454 C 436.324 3.32824 0.737638 0
M  V30 4455 H 437.517 2.82743 -0.999831 0
M  V30 4456 H 435.07 1.46065 -0.556298 0
M  V30 4457 H 435.805 2.83646 1.57212 0
M  V30 4458 H 435.59 3.91752 0.165044 0
M  V30 4459 H 437.08 4.0144 1.15047 0
M  V30 4460 N 437.518 0.538854 1.48102 0
M  V30 4461 C 438.481 -0.208395 2.28251 0
M  V30 4462 C 439.481 -0.859656 1.35892 0
M  V30 4463 O 440.671 -0.71834 1.58699 0
M  V30 4464 C 437.803 -1.30252 3.15035 0
M  V30 4465 H 438.996 0.495407 2.9578 0
M  V30 4466 H 436.549 0.295112 1.53489 0
M  V30 4467 H 437.284 -2.0393 2.52157 0
M  V30 4468 H 437.069 -0.840551 3.82985 0
M  V30 4469 H 438.559 -1.82787 3.75471 0
M  V30 4470 N 438.996 -1.55193 0.274407 0
M  V30 4471 C 439.946 -2.19184 -0.627882 0
M  V30 4472 C 440.93 -1.15625 -1.11892 0
M  V30 4473 O 442.122 -1.41441 -1.06411 0
M  V30 4474 C 439.251 -2.91591 -1.81189 0
M  V30 4475 C 438.337 -4.02438 -1.33807 0
M  V30 4476 N 438.728 -5.0246 -0.580349 0
M  V30 4477 C 437.026 -4.15496 -1.62109 0
M  V30 4478 C 437.727 -5.80756 -0.331344 0
M  V30 4479 N 436.703 -5.36038 -0.903556 0
M  V30 4480 H 440.505 -2.93871 -0.0411216 0
M  V30 4481 H 438.019 -1.62213 0.0779348 0
M  V30 4482 H 440.016 -3.35883 -2.46957 0
M  V30 4483 H 438.676 -2.18414 -2.40261 0
M  V30 4484 H 439.687 -5.17399 -0.227762 0
M  V30 4485 H 436.364 -3.53509 -2.22121 0
M  V30 4486 H 437.754 -6.71335 0.275454 0
M  V30 4487 N 440.474 -0.00167713 -1.576 0
M  V30 4488 C 441.437 0.974046 -2.07473 0
M  V30 4489 C 442.437 1.27143 -0.984444 0
M  V30 4490 O 443.627 1.21633 -1.24703 0
M  V30 4491 C 440.759 2.29849 -2.51759 0
M  V30 4492 H 441.952 0.54262 -2.9495 0
M  V30 4493 H 439.505 0.245829 -1.54355 0
M  V30 4494 H 440.24 2.77677 -1.67529 0
M  V30 4495 H 440.025 2.09584 -3.31386 0
M  V30 4496 H 441.515 2.9984 -2.90664 0
M  V30 4497 N 441.952 1.55251 0.271103 0
M  V30 4498 C 443.368 1.47133 0.618393 0
M  V30 4499 C 443.568 0.686994 1.89427 0
M  V30 4500 O 442.624 0.206609 2.51653 0
M  V30 4501 C 443.937 2.91361 0.743593 0
M  V30 4502 C 445.485 3.01587 0.837522 0
M  V30 4503 C 445.96 4.47073 0.994483 0
M  V30 4504 N 447.451 4.50909 1.05996 0
M  V30 4505 C 448.186 5.60698 1.20024 0
M  V30 4506 N 447.682 6.80348 1.30759 0
M  V30 4507 N 449.475 5.48444 1.23149 0
M  V30 4508 H 441.626 2.04698 -0.566784 0
M  V30 4509 H 443.889 0.928319 -0.192165 0
M  V30 4510 H 443.595 3.51483 -0.123493 0
M  V30 4511 H 443.469 3.40484 1.62328 0
M  V30 4512 H 445.856 2.4156 1.69507 0
M  V30 4513 H 445.937 2.55713 -0.0668086 0
M  V30 4514 H 445.581 5.07703 0.141582 0
M  V30 4515 H 445.511 4.90605 1.91349 0
M  V30 4516 H 448.002 3.6472 0.989316 0
M  V30 4517 H 448.315 7.59772 1.41303 0
M  V30 4518 H 446.66 6.83156 1.27761 0
M  V30 4519 H 449.851 4.53907 1.14394 0
M  V30 4520 H 450.024 6.34049 1.33738 0
M  V30 4521 N 443.43 -0.535701 1.48216 0
M  V30 4522 C 444.362 -1.65662 1.58394 0
M  V30 4523 C 445.375 -1.5591 0.468607 0
M  V30 4524 O 446.564 -1.62475 0.7392 0
M  V30 4525 C 443.664 -3.04276 1.4923 0
M  V30 4526 C 442.837 -3.39567 2.75705 0
M  V30 4527 C 441.896 -4.57436 2.60075 0
M  V30 4528 O 440.922 -4.60942 3.33948 0
M  V30 4529 N 442.124 -5.55259 1.69315 0
M  V30 4530 H 444.889 -1.5737 2.55058 0
M  V30 4531 H 442.45 -0.722845 1.44867 0
M  V30 4532 H 444.442 -3.80994 1.36477 0
M  V30 4533 H 443.012 -3.06677 0.605632 0
M  V30 4534 H 442.232 -2.52083 3.03064 0
M  V30 4535 H 443.52 -3.59929 3.59623 0
M  V30 4536 H 442.918 -5.552 1.08489 0
M  V30 4537 H 441.475 -6.31218 1.62504 0
M  V30 4538 N 444.908 -1.36708 -0.784132 0
M  V30 4539 C 446.154 -1.31426 -1.54451 0
M  V30 4540 C 446.487 0.10476 -1.93917 0
M  V30 4541 O 445.762 1.05934 -1.6312 0
M  V30 4542 C 446.045 -2.24189 -2.818 0
M  V30 4543 C 445.898 -3.74813 -2.48667 0
M  V30 4544 C 447.217 -2.15626 -3.83658 0
M  V30 4545 H 444.336 -0.478739 -0.560337 0
M  V30 4546 H 446.978 -1.67305 -0.900498 0
M  V30 4547 H 445.128 -1.93722 -3.36755 0
M  V30 4548 H 446.8 -4.15823 -1.99722 0
M  V30 4549 H 445.043 -3.93989 -1.81535 0
M  V30 4550 H 445.714 -4.35138 -3.39646 0
M  V30 4551 H 448.19 -2.42456 -3.38163 0
M  V30 4552 H 447.066 -2.82694 -4.70506 0
M  V30 4553 H 447.327 -1.14522 -4.27009 0
M  V30 4554 N 446.386 1.0089 -1.21074 0
M  V30 4555 C 447.349 2.0775 -0.968129 0
M  V30 4556 C 448.349 1.6069 0.0593445 0
M  V30 4557 O 449.539 1.73293 -0.177525 0
M  V30 4558 C 446.671 3.37794 -0.459108 0
M  V30 4559 H 447.864 2.30707 -1.9161 0
M  V30 4560 H 445.417 1.17807 -1.02719 0
M  V30 4561 H 446.152 3.20516 0.49397 0
M  V30 4562 H 445.937 3.7328 -1.20019 0
M  V30 4563 H 447.427 4.16454 -0.309099 0
M  V30 4564 N 447.864 1.01787 1.20321 0
M  V30 4565 C 448.827 0.593972 2.2137 0
M  V30 4566 C 449.827 -0.336553 1.57239 0
M  V30 4567 O 451.017 -0.125069 1.7375 0
M  V30 4568 C 448.149 -0.132433 3.40643 0
M  V30 4569 H 449.342 1.48791 2.60387 0
M  V30 4570 H 446.895 0.807803 1.33807 0
M  V30 4571 H 447.63 -1.04123 3.0713 0
M  V30 4572 H 447.415 0.53605 3.88418 0
M  V30 4573 H 448.905 -0.416314 4.1552 0
M  V30 4574 N 449.342 -1.36122 0.79427 0
M  V30 4575 C 450.29 -2.31871 0.184023 0
M  V30 4576 C 451.284 -1.56041 -0.659365 0
M  V30 4577 O 452.49 -1.71266 -0.553906 0
M  V30 4578 H 448.865 -0.750896 0.0407373 0
M  V30 4579 H 450.836 -2.80898 1.00693 0
M  V30 4580 C 449.585 -3.41324 -0.662813 0
M  V30 4581 H 448.908 -3.99793 -0.0231944 0
M  V30 4582 H 450.348 -4.10629 -1.05639 0
M  V30 4583 C 448.807 -2.83308 -1.82313 0
M  V30 4584 O 449.337 -2.75863 -2.91997 0
M  V30 4585 N 447.543 -2.40529 -1.63077 0
M  V30 4586 H 447.09 -2.46785 -0.738591 0
M  V30 4587 H 447.048 -2.02059 -2.40872 0
M  V30 4588 N 450.82 -0.546701 -1.47814 0
M  V30 4589 C 452.066 -0.0187684 -2.02791 0
M  V30 4590 C 452.399 1.32338 -1.42128 0
M  V30 4591 O 451.674 1.85867 -0.573023 0
M  V30 4592 C 451.957 0.0854985 -3.59998 0
M  V30 4593 C 451.81 -1.283 -4.31114 0
M  V30 4594 C 453.129 0.80412 -4.32691 0
M  V30 4595 H 450.248 -0.0082946 -0.736953 0
M  V30 4596 H 452.89 -0.706962 -1.76358 0
M  V30 4597 H 451.04 0.671609 -3.82651 0
M  V30 4598 H 452.712 -1.91151 -4.19832 0
M  V30 4599 H 450.955 -1.86049 -3.91878 0
M  V30 4600 H 451.626 -1.16287 -5.39612 0
M  V30 4601 H 454.102 0.306576 -4.14969 0
M  V30 4602 H 452.978 0.846011 -5.42341 0
M  V30 4603 H 453.239 1.85802 -4.01161 0
M  V30 4604 N 452.299 1.55045 -0.282633 0
M  V30 4605 C 453.262 2.21515 0.588539 0
M  V30 4606 C 454.262 1.19535 1.07554 0
M  V30 4607 O 455.452 1.44391 0.974514 0
M  V30 4608 C 452.584 2.88704 1.8128 0
M  V30 4609 H 453.777 2.99899 0.00806397 0
M  V30 4610 H 451.33 1.56265 -0.0333067 0
M  V30 4611 H 452.065 2.14352 2.43359 0
M  V30 4612 H 451.85 3.63443 1.47144 0
M  V30 4613 H 453.34 3.39465 2.43214 0
M  V30 4614 N 453.777 0.010035 1.57597 0
M  V30 4615 C 454.707 -0.976857 2.12084 0
M  V30 4616 C 455.688 -1.35191 1.03235 0
M  V30 4617 O 456.873 -1.43389 1.3097 0
M  V30 4618 C 454.003 -2.26548 2.63236 0
M  V30 4619 C 452.957 -2.03175 3.76701 0
M  V30 4620 C 452.283 -3.38138 4.14206 0
M  V30 4621 C 453.583 -1.38625 5.03568 0
M  V30 4622 H 455.277 -0.523145 2.94794 0
M  V30 4623 H 452.823 -0.250195 1.4181 0
M  V30 4624 H 454.776 -2.95952 2.99984 0
M  V30 4625 H 453.5 -2.74051 1.77661 0
M  V30 4626 H 452.159 -1.36195 3.40362 0
M  V30 4627 H 451.807 -3.83363 3.25641 0
M  V30 4628 H 451.507 -3.23312 4.90656 0
M  V30 4629 H 453.031 -4.08841 4.53521 0
M  V30 4630 H 454.445 -1.98 5.38023 0
M  V30 4631 H 452.842 -1.34256 5.84889 0
M  V30 4632 H 453.912 -0.356722 4.83586 0
M  V30 4633 N 455.255 -1.55392 -0.262866 0
M  V30 4634 C 456.185 -1.91978 -1.32917 0
M  V30 4635 C 457.166 -0.7828 -1.51017 0
M  V30 4636 O 458.351 -1.04178 -1.63892 0
M  V30 4637 C 455.481 -2.20055 -2.68687 0
M  V30 4638 C 454.435 -3.35854 -2.65304 0
M  V30 4639 C 453.761 -3.49435 -4.04721 0
M  V30 4640 C 455.061 -4.71977 -2.23685 0
M  V30 4641 H 456.755 -2.81292 -1.02544 0
M  V30 4642 H 454.301 -1.3534 -0.491846 0
M  V30 4643 H 456.254 -2.44237 -3.43404 0
M  V30 4644 H 454.978 -1.27551 -3.00663 0
M  V30 4645 H 453.637 -3.11655 -1.93045 0
M  V30 4646 H 453.285 -2.54379 -4.33936 0
M  V30 4647 H 452.985 -4.27297 -4.0335 0
M  V30 4648 H 454.509 -3.7592 -4.81161 0
M  V30 4649 H 455.923 -4.95637 -2.88127 0
M  V30 4650 H 454.32 -5.52828 -2.33456 0
M  V30 4651 H 455.39 -4.70115 -1.18827 0
M  V30 4652 N 456.733 0.527833 -1.48498 0
M  V30 4653 C 457.663 1.64136 -1.66077 0
M  V30 4654 C 458.644 1.62286 -0.509625 0
M  V30 4655 O 459.829 1.79449 -0.742413 0
M  V30 4656 C 456.959 3.02717 -1.70234 0
M  V30 4657 C 455.913 3.19426 -2.8487 0
M  V30 4658 C 455.239 4.5909 -2.74118 0
M  V30 4659 C 456.539 3.01993 -4.26142 0
M  V30 4660 H 458.233 1.4968 -2.593 0
M  V30 4661 H 455.779 0.718654 -1.24785 0
M  V30 4662 H 457.732 3.80491 -1.8112 0
M  V30 4663 H 456.456 3.18201 -0.735911 0
M  V30 4664 H 455.115 2.4407 -2.73542 0
M  V30 4665 H 454.763 4.71413 -1.7544 0
M  V30 4666 H 454.463 4.71214 -3.51042 0
M  V30 4667 H 455.987 5.3896 -2.86974 0
M  V30 4668 H 457.401 3.69558 -4.38292 0
M  V30 4669 H 455.798 3.2561 -5.04082 0
M  V30 4670 H 456.868 1.98396 -4.42456 0
M  V30 4671 N 458.211 1.37122 0.776871 0
M  V30 4672 C 459.158 1.3247 1.88998 0
M  V30 4673 C 460.128 0.191143 1.64997 0
M  V30 4674 O 461.313 0.379683 1.86984 0
M  V30 4675 C 458.453 1.13241 3.25992 0
M  V30 4676 C 457.566 2.35782 3.61982 0
M  V30 4677 C 456.701 2.09465 4.88158 0
M  V30 4678 C 455.74 3.279 5.16864 0
M  V30 4679 N 454.877 3.01167 6.34226 0
M  V30 4680 H 459.717 2.27642 1.9231 0
M  V30 4681 H 457.254 1.13125 0.94027 0
M  V30 4682 H 459.212 1.00115 4.0501 0
M  V30 4683 H 457.842 0.217186 3.22069 0
M  V30 4684 H 456.894 2.59666 2.77989 0
M  V30 4685 H 458.206 3.24125 3.79137 0
M  V30 4686 H 457.36 1.93341 5.75069 0
M  V30 4687 H 456.099 1.18452 4.73097 0
M  V30 4688 H 455.104 3.44569 4.2843 0
M  V30 4689 H 456.329 4.19757 5.33836 0
M  V30 4690 H 454.275 2.12779 6.20533 0
M  V30 4691 H 454.192 3.83052 6.51772 0
M  V30 4692 H 455.46 2.88649 7.24087 0
M  V30 4693 N 459.689 -1.00246 1.21608 0
M  V30 4694 C 460.619 -2.10921 1.00172 0
M  V30 4695 C 461.6 -1.69938 -0.0741587 0
M  V30 4696 O 462.785 -1.94009 0.0861753 0
M  V30 4697 C 459.915 -3.42618 0.568355 0
M  V30 4698 C 458.869 -3.97407 1.58909 0
M  V30 4699 C 458.195 -5.25038 1.01187 0
M  V30 4700 C 459.495 -4.2918 2.97661 0
M  V30 4701 H 461.189 -2.29112 1.92739 0
M  V30 4702 H 458.735 -1.10101 0.928102 0
M  V30 4703 H 460.688 -4.19444 0.405555 0
M  V30 4704 H 459.412 -3.24227 -0.392961 0
M  V30 4705 H 458.071 -3.22703 1.73949 0
M  V30 4706 H 457.719 -5.02982 0.0421965 0
M  V30 4707 H 457.419 -5.62661 1.6937 0
M  V30 4708 H 458.943 -6.04507 0.860448 0
M  V30 4709 H 460.357 -4.96839 2.86049 0
M  V30 4710 H 458.754 -4.77952 3.6288 0
M  V30 4711 H 459.824 -3.3735 3.48315 0
M  V30 4712 N 461.167 -1.02423 -1.1978 0
M  V30 4713 C 462.414 -0.717988 -1.89344 0
M  V30 4714 C 462.742 0.753036 -1.79331 0
M  V30 4715 O 461.997 1.56355 -1.17692 0
M  V30 4716 C 462.296 -1.1088 -3.39765 0
M  V30 4717 C 461.962 -2.57731 -3.6998 0
M  V30 4718 C 460.624 -2.97854 -3.77937 0
M  V30 4719 C 462.976 -3.52763 -3.83677 0
M  V30 4720 C 460.304 -4.31931 -3.97054 0
M  V30 4721 C 462.656 -4.86538 -4.04306 0
M  V30 4722 C 461.32 -5.26356 -4.10494 0
M  V30 4723 H 460.59 -0.26273 -0.692859 0
M  V30 4724 H 463.237 -1.28623 -1.41875 0
M  V30 4725 H 461.542 -0.459094 -3.89101 0
M  V30 4726 H 463.239 -0.849432 -3.919 0
M  V30 4727 H 459.829 -2.25646 -3.64393 0
M  V30 4728 H 464.013 -3.2292 -3.76877 0
M  V30 4729 H 459.269 -4.62324 -4.00083 0
M  V30 4730 H 463.443 -5.60093 -4.13846 0
M  V30 4731 H 461.07 -6.3026 -4.2506 0
M  V30 4732 N 462.645 1.35699 -0.801477 0
M  V30 4733 C 463.893 1.9852 -0.37871 0
M  V30 4734 C 464.214 1.63907 1.05638 0
M  V30 4735 O 463.484 0.919013 1.73006 0
M  V30 4736 H 462.064 0.734322 -0.137042 0
M  V30 4737 H 464.726 1.65697 -1.02619 0
M  V30 4738 H 463.822 3.08382 -0.480284 0
M  V30 4739 N 464.123 0.554532 1.47522 0
M  V30 4740 C 465.055 -0.232106 2.28022 0
M  V30 4741 C 466.068 -0.881865 1.36847 0
M  V30 4742 O 467.257 -0.756168 1.61692 0
M  V30 4743 C 464.357 -1.34604 3.11022 0
M  V30 4744 C 463.53 -0.793582 4.30141 0
M  V30 4745 C 462.589 -1.79168 4.94758 0
M  V30 4746 O 461.615 -1.33886 5.5323 0
M  V30 4747 N 462.817 -3.12495 4.89211 0
M  V30 4748 H 465.582 0.458407 2.96173 0
M  V30 4749 H 463.143 0.390433 1.57122 0
M  V30 4750 H 465.135 -2.01243 3.51118 0
M  V30 4751 H 463.705 -1.93983 2.45131 0
M  V30 4752 H 462.925 0.0495025 3.94169 0
M  V30 4753 H 464.213 -0.403776 5.07195 0
M  V30 4754 H 463.611 -3.51931 4.42901 0
M  V30 4755 H 462.168 -3.74698 5.33333 0
M  V30 4756 N 465.601 -1.54893 0.290851 0
M  V30 4757 C 466.878 -1.91991 -0.373989 0
M  V30 4758 C 467.258 -1.21694 -1.72493 0
M  V30 4759 O 466.606 -0.34917 -2.25816 0
M  V30 4760 C 466.816 -3.45419 -0.498703 0
M  V30 4761 C 468.164 -4.1748 -0.774298 0
M  V30 4762 O 469.188 -3.51398 -0.582908 0
M  V30 4763 O 468.047 -5.3445 -1.14129 0
M  V30 4764 H 465.141 -0.800593 -0.207315 0
M  V30 4765 H 467.687 -1.66297 0.338164 0
M  V30 4766 H 466.459 -3.88688 0.451392 0
M  V30 4767 H 466.082 -3.77117 -1.25972 0
M  V30 4768 N 467.08 -0.0183926 -1.57589 0
M  V30 4769 C 468.028 0.985111 -2.10709 0
M  V30 4770 C 469.022 1.34397 -1.0312 0
M  V30 4771 O 470.228 1.32746 -1.21567 0
M  V30 4772 H 466.603 0.335418 -0.673052 0
M  V30 4773 H 468.574 0.511689 -2.9398 0
M  V30 4774 C 467.323 2.26202 -2.64061 0
M  V30 4775 H 466.646 1.9946 -3.4649 0
M  V30 4776 H 468.086 2.94652 -3.04887 0
M  V30 4777 C 466.545 2.98444 -1.5631 0
M  V30 4778 O 467.075 3.90142 -0.956674 0
M  V30 4779 N 465.281 2.6059 -1.28612 0
M  V30 4780 H 464.828 1.86101 -1.78112 0
M  V30 4781 H 464.786 3.09238 -0.567406 0
M  V30 4782 N 468.558 1.5553 0.254621 0
M  V30 4783 C 469.488 1.9268 1.31897 0
M  V30 4784 C 470.469 0.790797 1.506 0
M  V30 4785 O 471.654 1.05045 1.63337 0
M  V30 4786 C 468.784 2.21477 2.67517 0
M  V30 4787 C 467.738 3.37256 2.63519 0
M  V30 4788 C 467.064 3.51576 4.02862 0
M  V30 4789 C 468.364 4.73157 2.21179 0
M  V30 4790 H 470.058 2.81832 1.01051 0
M  V30 4791 H 467.604 1.35599 0.484662 0
M  V30 4792 H 469.557 2.46055 3.42104 0
M  V30 4793 H 468.281 1.29144 2.99982 0
M  V30 4794 H 466.94 3.12675 1.9139 0
M  V30 4795 H 466.588 2.56676 4.32581 0
M  V30 4796 H 466.288 4.2943 4.01078 0
M  V30 4797 H 467.812 3.78467 4.79161 0
M  V30 4798 H 469.226 4.97158 2.85494 0
M  V30 4799 H 467.623 5.54058 2.30521 0
M  V30 4800 H 468.693 4.70739 1.16332 0
M  V30 4801 N 470.036 -0.519951 1.48776 0
M  V30 4802 C 471.452 -0.849418 1.35119 0
M  V30 4803 C 471.652 -1.98077 0.36982 0
M  V30 4804 O 470.708 -2.51664 -0.205359 0
M  V30 4805 C 472.021 -1.20748 2.75391 0
M  V30 4806 C 473.569 -1.31679 2.83954 0
M  V30 4807 C 474.044 -1.70824 4.24951 0
M  V30 4808 N 475.535 -1.77908 4.27672 0
M  V30 4809 C 476.27 -2.09603 5.33717 0
M  V30 4810 N 475.766 -2.39652 6.5003 0
M  V30 4811 N 477.559 -2.10694 5.21119 0
M  V30 4812 H 469.71 0.226377 2.1119 0
M  V30 4813 H 471.973 0.0386519 0.947212 0
M  V30 4814 H 471.679 -0.449703 3.48813 0
M  V30 4815 H 471.553 -2.15534 3.09556 0
M  V30 4816 H 473.94 -2.06532 2.10781 0
M  V30 4817 H 474.021 -0.3499 2.53396 0
M  V30 4818 H 473.665 -0.965282 4.98643 0
M  V30 4819 H 473.595 -2.6858 4.52959 0
M  V30 4820 H 476.086 -1.56923 3.43779 0
M  V30 4821 H 476.399 -2.6297 7.26682 0
M  V30 4822 H 474.744 -2.37149 6.53288 0
M  V30 4823 H 477.935 -1.86682 4.29264 0
M  V30 4824 H 478.108 -2.35062 6.03863 0
M  V30 4825 N 471.514 -1.37532 -0.769588 0
M  V30 4826 C 472.464 -1.29984 -1.87318 0
M  V30 4827 C 473.448 -0.187242 -1.59807 0
M  V30 4828 O 474.64 -0.421827 -1.719 0
M  V30 4829 C 471.769 -1.11126 -3.24817 0
M  V30 4830 C 470.855 -2.26939 -3.58273 0
M  V30 4831 N 471.246 -3.52336 -3.62895 0
M  V30 4832 C 469.544 -2.19141 -3.8845 0
M  V30 4833 C 470.245 -4.28719 -3.9316 0
M  V30 4834 N 469.221 -3.57884 -4.0917 0
M  V30 4835 H 473.023 -2.24946 -1.89147 0
M  V30 4836 H 470.537 -1.30535 -0.966143 0
M  V30 4837 H 472.534 -1.03803 -4.0377 0
M  V30 4838 H 471.194 -0.17083 -3.2425 0
M  V30 4839 H 472.205 -3.86216 -3.45048 0
M  V30 4840 H 468.882 -1.33167 -3.95693 0
M  V30 4841 H 470.272 -5.37254 -4.03494 0
M  V30 4842 N 472.992 0.995999 -1.22138 0
M  V30 4843 C 473.94 2.10673 -0.985876 0
M  V30 4844 C 474.934 1.69255 0.0699553 0
M  V30 4845 O 476.14 1.79812 -0.0822176 0
M  V30 4846 H 472.515 0.688865 -0.30161 0
M  V30 4847 H 474.486 2.27711 -1.92848 0
M  V30 4848 C 473.235 3.42881 -0.576909 0
M  V30 4849 H 472.558 3.75191 -1.38101 0
M  V30 4850 H 473.998 4.21589 -0.451518 0
M  V30 4851 C 472.457 3.29265 0.713196 0
M  V30 4852 O 472.987 3.60777 1.76643 0
M  V30 4853 N 471.193 2.82456 0.683162 0
M  V30 4854 H 470.74 2.5701 -0.174242 0
M  V30 4855 H 470.698 2.73727 1.54663 0
M  V30 4856 N 474.47 1.03057 1.19235 0
M  V30 4857 C 475.433 0.617418 2.20727 0
M  V30 4858 C 476.433 -0.319856 1.57587 0
M  V30 4859 O 477.623 -0.106633 1.73873 0
M  V30 4860 C 474.755 -0.096296 3.40764 0
M  V30 4861 H 475.948 1.51544 2.58794 0
M  V30 4862 H 473.501 0.821949 1.32942 0
M  V30 4863 H 474.236 -1.00859 3.08217 0
M  V30 4864 H 474.021 0.577217 3.87828 0
M  V30 4865 H 475.511 -0.372219 4.15938 0
M  V30 4866 N 475.948 -1.35272 0.808662 0
M  V30 4867 C 476.88 -2.28507 0.178149 0
M  V30 4868 C 477.893 -1.50377 -0.623754 0
M  V30 4869 O 479.082 -1.72583 -0.455774 0
M  V30 4870 C 476.182 -3.30038 -0.769959 0
M  V30 4871 C 475.355 -4.37398 -0.0139749 0
M  V30 4872 C 474.414 -5.18775 -0.880875 0
M  V30 4873 O 473.44 -5.68236 -0.331059 0
M  V30 4874 N 474.642 -5.37087 -2.20267 0
M  V30 4875 H 477.407 -2.83255 0.979106 0
M  V30 4876 H 474.968 -1.47643 0.664308 0
M  V30 4877 H 476.96 -3.81371 -1.35418 0
M  V30 4878 H 475.53 -2.75789 -1.47171 0
M  V30 4879 H 474.75 -3.86971 0.751468 0
M  V30 4880 H 476.038 -5.06268 0.506965 0
M  V30 4881 H 475.436 -4.9855 -2.67328 0
M  V30 4882 H 473.993 -5.91593 -2.73608 0
M  V30 4883 N 477.426 -0.562348 -1.47226 0
M  V30 4884 C 478.356 0.170627 -2.32876 0
M  V30 4885 C 479.337 0.903748 -1.44106 0
M  V30 4886 O 480.522 0.883206 -1.72954 0
M  V30 4887 C 477.652 1.19786 -3.25989 0
M  V30 4888 C 476.606 0.580875 -4.2404 0
M  V30 4889 C 475.932 1.71311 -5.06514 0
M  V30 4890 C 477.232 -0.468714 -5.20193 0
M  V30 4891 H 478.926 -0.544441 -2.94408 0
M  V30 4892 H 476.472 -0.263271 -1.41573 0
M  V30 4893 H 478.425 1.71884 -3.84752 0
M  V30 4894 H 477.149 1.94294 -2.62521 0
M  V30 4895 H 475.808 0.0811538 -3.6651 0
M  V30 4896 H 475.456 2.44736 -4.39447 0
M  V30 4897 H 475.156 1.30604 -5.72902 0
M  V30 4898 H 476.68 2.23725 -5.68137 0
M  V30 4899 H 478.094 -0.0336028 -5.7329 0
M  V30 4900 H 476.491 -0.794957 -5.94811 0
M  V30 4901 H 477.561 -1.36269 -4.65359 0
M  V30 4902 N 478.904 1.54736 -0.299062 0
M  V30 4903 C 479.867 2.22127 0.565012 0
M  V30 4904 C 480.867 1.20669 1.06281 0
M  V30 4905 O 482.057 1.45417 0.959145 0
M  V30 4906 C 479.189 2.90611 1.78208 0
M  V30 4907 H 480.382 2.99891 -0.0237448 0
M  V30 4908 H 477.935 1.5622 -0.0498788 0
M  V30 4909 H 478.67 2.16921 2.41072 0
M  V30 4910 H 478.455 3.64984 1.43281 0
M  V30 4911 H 479.945 3.42026 2.396 0
M  V30 4912 N 480.382 0.0267497 1.57577 0
M  V30 4913 C 481.312 -0.954308 2.13108 0
M  V30 4914 C 482.293 -1.34088 1.04663 0
M  V30 4915 O 483.478 -1.41992 1.32484 0
M  V30 4916 C 480.608 -2.23744 2.65624 0
M  V30 4917 C 479.562 -1.99168 3.78835 0
M  V30 4918 C 478.888 -3.33726 4.17769 0
M  V30 4919 C 480.188 -1.33277 5.0501 0
M  V30 4920 H 481.882 -0.491848 2.95332 0
M  V30 4921 H 479.428 -0.23514 1.42067 0
M  V30 4922 H 481.381 -2.92754 3.03106 0
M  V30 4923 H 480.105 -2.72151 1.80558 0
M  V30 4924 H 478.764 -1.32577 3.41788 0
M  V30 4925 H 478.412 -3.79888 3.29688 0
M  V30 4926 H 478.112 -3.18089 4.94058 0
M  V30 4927 H 479.636 -4.04008 4.57832 0
M  V30 4928 H 481.05 -1.92283 5.40093 0
M  V30 4929 H 479.447 -1.28045 5.8628 0
M  V30 4930 H 480.517 -0.305411 4.83937 0
M  V30 4931 N 481.861 -1.55662 -0.24637 0
M  V30 4932 C 482.771 -1.93495 -1.32653 0
M  V30 4933 C 483.787 -0.835462 -1.5263 0
M  V30 4934 O 484.963 -1.1369 -1.66242 0
M  V30 4935 C 482.028 -2.22242 -2.66101 0
M  V30 4936 C 481.089 -3.45625 -2.54641 0
M  V30 4937 C 480.322 -3.72991 -3.81724 0
M  V30 4938 O 480.545 -3.02421 -4.8363 0
M  V30 4939 O 479.479 -4.66515 -3.80325 0
M  V30 4940 H 483.305 -2.85498 -1.03559 0
M  V30 4941 H 480.89 -1.42551 -0.44717 0
M  V30 4942 H 482.772 -2.42037 -3.44958 0
M  V30 4943 H 481.447 -1.33417 -2.94926 0
M  V30 4944 H 480.354 -3.31136 -1.74067 0
M  V30 4945 H 481.687 -4.34754 -2.3076 0
M  V30 4946 N 483.339 0.512053 -1.4905 0
M  V30 4947 C 484.567 1.29116 -1.61669 0
M  V30 4948 C 484.982 1.86655 -0.283787 0
M  V30 4949 O 484.339 1.67293 0.729331 0
M  V30 4950 C 484.39 2.4293 -2.67707 0
M  V30 4951 O 484.111 1.87758 -3.95826 0
M  V30 4952 C 485.612 3.34476 -2.90931 0
M  V30 4953 H 482.832 0.392009 -0.544583 0
M  V30 4954 H 485.376 0.615881 -1.95006 0
M  V30 4955 H 483.531 3.06308 -2.37179 0
M  V30 4956 H 483.945 2.62393 -4.54148 0
M  V30 4957 H 485.419 4.10642 -3.68886 0
M  V30 4958 H 485.896 3.90801 -2.00427 0
M  V30 4959 H 486.502 2.76874 -3.22832 0
M  V30 4960 N 484.817 1.37938 0.762283 0
M  V30 4961 C 486.066 1.32989 1.51647 0
M  V30 4962 C 486.379 -0.0802922 1.95435 0
M  V30 4963 O 487.585 -0.252295 2.70325 0
M  V30 4964 C 486.041 2.33485 2.73885 0
M  V30 4965 C 485.649 3.80079 2.37157 0
M  V30 4966 C 487.393 2.37563 3.51801 0
M  V30 4967 C 485.3 4.72283 3.55954 0
M  V30 4968 H 484.23 0.494301 0.56937 0
M  V30 4969 H 486.881 1.63448 0.834083 0
M  V30 4970 H 485.263 1.96056 3.44061 0
M  V30 4971 H 486.437 4.26398 1.74704 0
M  V30 4972 H 484.752 3.79037 1.72395 0
M  V30 4973 H 487.349 3.0365 4.40114 0
M  V30 4974 H 487.692 1.39199 3.92338 0
M  V30 4975 H 488.225 2.73747 2.8863 0
M  V30 4976 H 484.964 5.7181 3.2049 0
M  V30 4977 H 484.484 4.30663 4.1748 0
M  V30 4978 H 486.163 4.89876 4.22647 0
M  V30 4979 N 486.295 -0.989507 1.22664 0
M  V30 4980 C 487.711 -1.25395 0.987331 0
M  V30 4981 C 487.911 -1.9899 -0.317056 0
M  V30 4982 O 486.967 -2.30141 -1.03882 0
M  V30 4983 C 488.28 -2.06242 2.18826 0
M  V30 4984 C 489.828 -2.19413 2.23219 0
M  V30 4985 C 490.303 -3.03648 3.42873 0
M  V30 4986 N 491.794 -3.11234 3.43056 0
M  V30 4987 C 492.529 -3.7671 4.32293 0
M  V30 4988 N 492.025 -4.44085 5.31752 0
M  V30 4989 N 493.818 -3.73505 4.2006 0
M  V30 4990 H 485.969 -0.496212 2.06522 0
M  V30 4991 H 488.232 -0.281784 0.905153 0
M  V30 4992 H 487.938 -1.59531 3.13437 0
M  V30 4993 H 487.812 -3.06996 2.19165 0
M  V30 4994 H 490.199 -2.65336 1.29154 0
M  V30 4995 H 490.28 -1.18078 2.26917 0
M  V30 4996 H 489.924 -2.58424 4.37241 0
M  V30 4997 H 489.854 -4.05132 3.36416 0
M  V30 4998 H 492.345 -2.63287 2.71088 0
M  V30 4999 H 492.658 -4.91797 5.96117 0
M  V30 5000 H 491.003 -4.42822 5.35662 0
M  V30 5001 H 494.194 -3.20033 3.41609 0
M  V30 5002 H 494.367 -4.24253 4.8981 0
M  V30 5003 N 487.773 -1.03688 -1.18687 0
M  V30 5004 C 488.998 -0.757819 -1.93059 0
M  V30 5005 C 489.423 0.678353 -1.75442 0
M  V30 5006 O 488.781 1.46938 -1.06203 0
M  V30 5007 C 488.829 -1.12423 -3.42627 0
M  V30 5008 O 487.933 -0.247505 -4.11657 0
M  V30 5009 H 487.274 -0.279245 -0.602427 0
M  V30 5010 H 489.804 -1.3857 -1.5053 0
M  V30 5011 H 489.814 -1.08454 -3.93322 0
M  V30 5012 H 488.489 -2.17049 -3.54771 0
M  V30 5013 H 487.066 -0.34649 -3.71287 0
M  V30 5014 N 489.251 1.34841 -0.815825 0
M  V30 5015 C 490.499 1.98107 -0.399744 0
M  V30 5016 C 490.82 1.65019 1.03894 0
M  V30 5017 O 490.09 0.937311 1.72021 0
M  V30 5018 H 488.67 0.732827 -0.144823 0
M  V30 5019 H 491.332 1.64599 -1.0437 0
M  V30 5020 H 490.428 3.07856 -0.512965 0
M  V30 5021 N 490.729 0.570148 1.46925 0
M  V30 5022 C 491.957 0.0561966 2.06824 0
M  V30 5023 C 492.372 -1.24326 1.42086 0
M  V30 5024 O 491.729 -1.74882 0.521794 0
M  V30 5025 C 491.78 -0.129517 3.61268 0
M  V30 5026 O 491.501 1.1185 4.23581 0
M  V30 5027 C 493.002 -0.679266 4.38065 0
M  V30 5028 H 490.222 0.0517261 0.669003 0
M  V30 5029 H 492.766 0.787243 1.8874 0
M  V30 5030 H 490.921 -0.810739 3.78822 0
M  V30 5031 H 491.335 0.924375 5.1629 0
M  V30 5032 H 492.809 -0.758445 5.46765 0
M  V30 5033 H 493.286 -1.69346 4.05239 0
M  V30 5034 H 493.892 -0.0333237 4.25287 0
M  V30 5035 N 492.207 -1.54576 0.307264 0
M  V30 5036 C 493.17 -2.22423 -0.553224 0
M  V30 5037 C 494.17 -1.21231 -1.05639 0
M  V30 5038 O 495.36 -1.45923 -0.951419 0
M  V30 5039 C 492.492 -2.91552 -1.76664 0
M  V30 5040 H 493.685 -2.99874 0.0396484 0
M  V30 5041 H 491.238 -1.56192 0.0581629 0
M  V30 5042 H 491.973 -2.18196 -2.39918 0
M  V30 5043 H 491.758 -3.65738 -1.41343 0
M  V30 5044 H 493.248 -3.43292 -2.37783 0
M  V30 5045 N 493.685 -0.035106 -1.57561 0
M  V30 5046 C 494.932 0.642229 -1.92046 0
M  V30 5047 C 495.26 1.7179 -0.91206 0
M  V30 5048 O 494.515 1.95544 0.0781153 0
M  V30 5049 C 494.814 1.29149 -3.3325 0
M  V30 5050 C 494.48 0.345604 -4.49574 0
M  V30 5051 C 493.142 0.0852775 -4.81124 0
M  V30 5052 C 495.494 -0.303569 -5.20315 0
M  V30 5053 C 492.822 -0.831927 -5.80772 0
M  V30 5054 C 495.174 -1.20886 -6.20942 0
M  V30 5055 C 493.838 -1.47802 -6.50931 0
M  V30 5056 H 493.108 0.235008 -0.702746 0
M  V30 5057 H 495.755 -0.0981529 -1.91248 0
M  V30 5058 H 494.06 2.10676 -3.30337 0
M  V30 5059 H 495.757 1.82223 -3.57205 0
M  V30 5060 H 492.347 0.558683 -4.24943 0
M  V30 5061 H 496.531 -0.115515 -4.96166 0
M  V30 5062 H 491.787 -1.0481 -6.02349 0
M  V30 5063 H 495.961 -1.71804 -6.74875 0
M  V30 5064 H 493.588 -2.19039 -7.2796 0
M  V30 5065 N 495.163 1.55791 0.238111 0
M  V30 5066 C 496.073 1.94196 1.31625 0
M  V30 5067 C 497.089 0.843545 1.52185 0
M  V30 5068 O 498.265 1.1457 1.65637 0
M  V30 5069 C 495.33 2.2365 2.64918 0
M  V30 5070 C 494.391 3.46971 2.52804 0
M  V30 5071 C 493.624 3.7501 3.79741 0
M  V30 5072 O 493.847 3.04982 4.82019 0
M  V30 5073 O 492.781 4.68525 3.77846 0
M  V30 5074 H 496.607 2.86044 1.02043 0
M  V30 5075 H 494.192 1.42786 0.439603 0
M  V30 5076 H 496.074 2.43863 3.4367 0
M  V30 5077 H 494.749 1.34979 2.94215 0
M  V30 5078 H 493.656 3.32055 1.72309 0
M  V30 5079 H 494.989 4.35971 2.28451 0
M  V30 5080 N 496.642 -0.504142 1.49319 0
M  V30 5081 C 498.058 -0.835039 1.36012 0
M  V30 5082 C 498.258 -1.97674 0.390808 0
M  V30 5083 O 497.314 -2.51867 -0.178655 0
M  V30 5084 C 498.627 -1.17821 2.76656 0
M  V30 5085 C 500.175 -1.2866 2.85334 0
M  V30 5086 C 500.65 -1.66307 4.26739 0
M  V30 5087 N 502.141 -1.73362 4.29534 0
M  V30 5088 C 502.876 -2.0393 5.35911 0
M  V30 5089 N 502.372 -2.32744 6.52535 0
M  V30 5090 N 504.165 -2.05155 5.23324 0
M  V30 5091 H 496.316 0.248764 2.10938 0
M  V30 5092 H 498.579 0.0486962 0.946748 0
M  V30 5093 H 498.285 -0.412682 3.4927 0
M  V30 5094 H 498.159 -2.12239 3.11825 0
M  V30 5095 H 500.546 -2.04285 2.1296 0
M  V30 5096 H 500.627 -0.323004 2.53752 0
M  V30 5097 H 500.271 -0.91234 4.99639 0
M  V30 5098 H 500.201 -2.63761 4.55782 0
M  V30 5099 H 502.692 -1.53268 3.45424 0
M  V30 5100 H 503.005 -2.55248 7.2943 0
M  V30 5101 H 501.35 -2.30207 6.55767 0
M  V30 5102 H 504.541 -1.82119 4.3122 0
M  V30 5103 H 504.714 -2.28644 6.06322 0
M  V30 5104 N 498.12 -1.38341 -0.754957 0
M  V30 5105 C 499.366 -1.34672 -1.51628 0
M  V30 5106 C 499.699 0.0636036 -1.94096 0
M  V30 5107 O 498.974 1.0245 -1.6533 0
M  V30 5108 C 499.257 -2.30116 -2.76981 0
M  V30 5109 C 499.11 -3.80003 -2.4066 0
M  V30 5110 C 500.429 -2.23715 -3.78998 0
M  V30 5111 H 497.548 -0.490517 -0.550056 0
M  V30 5112 H 500.19 -1.69178 -0.864807 0
M  V30 5113 H 498.34 -2.00821 -3.3257 0
M  V30 5114 H 500.012 -4.19966 -1.90856 0
M  V30 5115 H 498.255 -3.97751 -1.73137 0
M  V30 5116 H 498.926 -4.42244 -3.30339 0
M  V30 5117 H 501.402 -2.49574 -3.32945 0
M  V30 5118 H 500.278 -2.9261 -4.64403 0
M  V30 5119 H 500.539 -1.23554 -4.24484 0
M  V30 5120 N 499.598 0.982988 -1.23187 0
M  V30 5121 C 500.826 1.75921 -1.08901 0
M  V30 5122 C 501.241 1.85341 0.359719 0
M  V30 5123 O 500.598 1.33072 1.24892 0
M  V30 5124 C 500.649 3.18742 -1.70545 0
M  V30 5125 O 500.37 3.09814 -3.09753 0
M  V30 5126 C 501.871 4.1277 -1.61667 0
M  V30 5127 H 499.091 0.552166 -0.381252 0
M  V30 5128 H 501.635 1.23516 -1.62985 0
M  V30 5129 H 499.79 3.68182 -1.20501 0
M  V30 5130 H 500.204 3.99703 -3.39614 0
M  V30 5131 H 501.678 5.10697 -2.09506 0
M  V30 5132 H 502.155 4.3542 -0.575009 0
M  V30 5133 H 502.761 3.69232 -2.11064 0
M  V30 5134 N 501.076 1.04316 1.18135 0
M  V30 5135 C 502.039 0.640794 2.2006 0
M  V30 5136 C 503.039 -0.303124 1.57917 0
M  V30 5137 O 504.229 -0.0881855 1.73977 0
M  V30 5138 C 501.361 -0.060148 3.40847 0
M  V30 5139 H 502.554 1.54281 2.57172 0
M  V30 5140 H 500.107 0.836004 1.32063 0
M  V30 5141 H 500.842 -0.975845 3.0927 0
M  V30 5142 H 500.627 0.618319 3.87194 0
M  V30 5143 H 502.117 -0.328082 4.16309 0
M  V30 5144 N 502.554 -1.34406 0.822964 0
M  V30 5145 C 503.484 -2.32052 0.259608 0
M  V30 5146 C 504.465 -1.58243 -0.623961 0
M  V30 5147 O 505.65 -1.86224 -0.55083 0
M  V30 5148 C 502.78 -3.42434 -0.579314 0
M  V30 5149 C 501.734 -4.27499 0.20712 0
M  V30 5150 C 501.06 -5.29349 -0.754547 0
M  V30 5151 C 502.36 -5.02758 1.41533 0
M  V30 5152 H 504.054 -2.79418 1.07545 0
M  V30 5153 H 501.6 -1.34338 0.518593 0
M  V30 5154 H 503.553 -4.0976 -0.983612 0
M  V30 5155 H 502.277 -2.93717 -1.4282 0
M  V30 5156 H 500.936 -3.61776 0.592787 0
M  V30 5157 H 500.584 -4.76895 -1.59939 0
M  V30 5158 H 500.284 -5.8714 -0.232561 0
M  V30 5159 H 501.808 -5.99544 -1.1567 0
M  V30 5160 H 503.222 -5.62938 1.08504 0
M  V30 5161 H 501.619 -5.70123 1.87296 0
M  V30 5162 H 502.689 -4.32451 2.1935 0
M  V30 5163 N 504.032 -0.577932 -1.46621 0
M  V30 5164 C 504.995 0.147805 -2.28723 0
M  V30 5165 C 505.995 0.823325 -1.38123 0
M  V30 5166 O 507.185 0.676011 -1.60548 0
M  V30 5167 C 504.317 1.21853 -3.18378 0
M  V30 5168 H 505.51 -0.573654 -2.94362 0
M  V30 5169 H 503.063 -0.335703 -1.52652 0
M  V30 5170 H 503.798 1.97173 -2.57475 0
M  V30 5171 H 503.583 0.738714 -3.85078 0
M  V30 5172 H 505.073 1.72768 -3.80186 0
M  V30 5173 N 505.51 1.54411 -0.315457 0
M  V30 5174 C 506.473 2.22713 0.54142 0
M  V30 5175 C 507.473 1.2179 1.04995 0
M  V30 5176 O 508.663 1.46426 0.943667 0
M  V30 5177 C 505.795 2.92485 1.75116 0
M  V30 5178 H 506.988 2.99849 -0.0555508 0
M  V30 5179 H 504.541 1.56159 -0.0664453 0
M  V30 5180 H 505.276 2.19466 2.38758 0
M  V30 5181 H 505.061 3.66483 1.39401 0
M  V30 5182 H 506.551 3.44548 2.35959 0
M  V30 5183 N 506.988 0.0434614 1.5754 0
M  V30 5184 C 508.404 -0.313039 1.565 0
M  V30 5185 C 508.604 -1.71954 1.05043 0
M  V30 5186 O 507.66 -2.425 0.703564 0
M  V30 5187 C 508.973 -0.148544 3.00333 0
M  V30 5188 C 510.521 -0.220231 3.12224 0
M  V30 5189 C 510.996 -0.0843565 4.57922 0
M  V30 5190 N 512.487 -0.140881 4.62986 0
M  V30 5191 C 513.222 -0.0597443 5.73369 0
M  V30 5192 N 512.718 0.0733004 6.92761 0
M  V30 5193 N 514.511 -0.11477 5.61983 0
M  V30 5194 H 506.662 0.96303 1.89313 0
M  V30 5195 H 508.925 0.373164 0.871466 0
M  V30 5196 H 508.631 0.820894 3.41986 0
M  V30 5197 H 508.505 -0.912798 3.65989 0
M  V30 5198 H 510.892 -1.18014 2.70475 0
M  V30 5199 H 510.973 0.574646 2.49262 0
M  V30 5200 H 510.617 0.872192 5.00355 0
M  V30 5201 H 510.547 -0.898281 5.18882 0
M  V30 5202 H 513.038 -0.243273 3.77116 0
M  V30 5203 H 513.351 0.128128 7.72694 0
M  V30 5204 H 511.696 0.10828 6.94916 0
M  V30 5205 H 514.887 -0.217212 4.67596 0
M  V30 5206 H 515.06 -0.0480779 6.47982 0
M  V30 5207 N 508.466 -1.55915 -0.229846 0
M  V30 5208 C 509.714 -1.7819 -0.953565 0
M  V30 5209 C 510.035 -0.610504 -1.85197 0
M  V30 5210 O 509.305 0.372988 -1.92316 0
M  V30 5211 H 507.885 -0.657208 -0.355087 0
M  V30 5212 H 510.547 -1.9337 -0.243693 0
M  V30 5213 H 509.643 -2.70011 -1.56527 0
M  V30 5214 O 509.983 0.375361 -1.57077 0
M  V30 5215 H 510.674 1.02655 -1.64261 0
M  V30 END ATOM
M  V30 BEGIN BOND
M  V30 END BOND
M  V30 END CTAB
M  END
$$$$
