drugbank_target|Q14457 Beclin-1 (DB00783; DB13952; DB13953; DB13954; DB13955; DB13956)
 OpenBabel12092121063D

  0  0  0     0  0            999 V3000
M  V30 BEGIN CTAB
M  V30 COUNTS 7175 7239 0 0 0
M  V30 BEGIN ATOM
M  V30 1 H -0.908 1.98254 -0.117106 0
M  V30 2 N 0 1.576 0 0
M  V30 3 C 0.933 2.03868 1.02534 0
M  V30 4 C 1.911 0.928543 1.3348 0
M  V30 5 O 3.095 1.19667 1.45644 0
M  V30 6 C 0.222 2.43627 2.35294 0
M  V30 7 C -0.732 3.65373 2.2001 0
M  V30 8 S 0.101 5.13292 1.52614 0
M  V30 9 C 1.257 5.56322 2.86805 0
M  V30 10 H 1.49 2.90518 0.631377 0
M  V30 11 H -0.977 1.52953 0.210867 0
M  V30 12 H 0.981 2.67203 3.11629 0
M  V30 13 H -0.358 1.57376 2.7183 0
M  V30 14 H -1.165 3.90944 3.18086 0
M  V30 15 H -1.563 3.418 1.51819 0
M  V30 16 H 0.729 5.58782 3.83104 0
M  V30 17 H 1.672 6.56266 2.65933 0
M  V30 18 H 2.08 4.83886 2.90714 0
M  V30 19 N 1.4781 -0.272755 1.55222 0
M  V30 20 C 2.3881 -1.35918 1.91216 0
M  V30 21 C 3.4041 -1.54026 0.809436 0
M  V30 22 O 4.5801 -1.68148 1.10852 0
M  V30 23 C 1.6451 -2.69834 2.17693 0
M  V30 24 C 0.7061 -2.6047 3.41253 0
M  V30 25 C -0.0609 -3.88 3.66458 0
M  V30 26 O 0.1621 -4.88693 2.94169 0
M  V30 27 O -0.9039 -3.88189 4.59992 0
M  V30 28 H 2.9221 -1.0839 2.83699 0
M  V30 29 H 0.5071 -0.471301 1.41771 0
M  V30 30 H 2.3891 -3.49017 2.36147 0
M  V30 31 H 1.0641 -2.97148 1.28392 0
M  V30 32 H -0.0289 -1.79663 3.28134 0
M  V30 33 H 1.3041 -2.38106 4.30774 0
M  V30 34 N 2.9562 -1.48159 -0.537278 0
M  V30 35 C 4.2042 -1.55497 -1.29094 0
M  V30 36 C 4.5252 -0.227454 -1.93669 0
M  V30 37 O 3.7952 0.750386 -1.80959 0
M  V30 38 H 2.3752 -0.572832 -0.47945 0
M  V30 39 H 5.0372 -1.84579 -0.625818 0
M  V30 40 H 4.1332 -2.33216 -2.07405 0
M  V30 41 N 4.4343 0.785586 -1.36625 0
M  V30 42 C 5.6593 1.57963 -1.34397 0
M  V30 43 C 6.0843 1.87964 0.071526 0
M  V30 44 O 5.4423 1.48182 1.0446 0
M  V30 45 C 5.4903 2.87511 -2.17646 0
M  V30 46 O 4.5943 3.81281 -1.57158 0
M  V30 47 H 3.9353 0.479014 -0.459828 0
M  V30 48 H 6.4653 0.973411 -1.79961 0
M  V30 49 H 6.4753 3.36745 -2.30362 0
M  V30 50 H 5.1503 2.65002 -3.20541 0
M  V30 51 H 3.7273 3.39885 -1.53403 0
M  V30 52 N 5.9124 1.20967 1.01018 0
M  V30 53 C 6.8594 0.964281 2.09691 0
M  V30 54 C 7.8294 -0.107853 1.65749 0
M  V30 55 O 9.0144 0.0381987 1.90762 0
M  V30 56 C 6.1544 0.52943 3.41015 0
M  V30 57 C 5.2674 1.67043 3.98398 0
M  V30 58 C 4.4024 1.18525 5.17808 0
M  V30 59 C 3.4414 2.29892 5.67288 0
M  V30 60 N 2.5784 1.82546 6.77954 0
M  V30 61 H 7.4184 1.89463 2.30017 0
M  V30 62 H 4.9554 0.944289 1.1279 0
M  V30 63 H 6.9134 0.258588 4.16398 0
M  V30 64 H 5.5434 -0.363919 3.20742 0
M  V30 65 H 4.5954 2.05603 3.20049 0
M  V30 66 H 5.9074 2.50877 4.31117 0
M  V30 67 H 5.0614 0.870762 6.00419 0
M  V30 68 H 3.8004 0.316887 4.86669 0
M  V30 69 H 2.8054 2.6215 4.83278 0
M  V30 70 H 4.0304 3.17216 6.00459 0
M  V30 71 H 1.9764 0.980454 6.48632 0
M  V30 72 H 1.8934 2.59956 7.09901 0
M  V30 73 H 3.1614 1.54115 7.64113 0
M  V30 74 N 7.3905 -1.2043 1.01659 0
M  V30 75 C 8.6185 -1.93777 0.725132 0
M  V30 76 C 9.0335 -1.74772 -0.714166 0
M  V30 77 O 8.3905 -1.06169 -1.4844 0
M  V30 78 C 8.4415 -3.45876 1.05129 0
M  V30 79 O 8.1625 -3.6426 2.43406 0
M  V30 80 C 9.6635 -4.36368 0.780891 0
M  V30 81 H 6.8835 -0.615901 0.266284 0
M  V30 82 H 9.4275 -1.52922 1.35776 0
M  V30 83 H 7.5825 -3.8461 0.464065 0
M  V30 84 H 7.9965 -4.58246 2.55169 0
M  V30 85 H 9.4705 -5.41743 1.05918 0
M  V30 86 H 9.9475 -4.38275 -0.284937 0
M  V30 87 H 10.5535 -4.03296 1.35027 0
M  V30 88 N 8.8686 -0.792821 -1.36206 0
M  V30 89 C 10.0936 -0.377701 -2.03932 0
M  V30 90 C 10.5186 0.998947 -1.59382 0
M  V30 91 O 9.8766 1.64421 -0.763903 0
M  V30 92 C 9.9246 -0.453635 -3.57735 0
M  V30 93 O 9.0286 0.538151 -4.08874 0
M  V30 94 H 8.3696 -0.159855 -0.644471 0
M  V30 95 H 10.8996 -1.07488 -1.7409 0
M  V30 96 H 10.9096 -0.318464 -4.06755 0
M  V30 97 H 9.5846 -1.45784 -3.89512 0
M  V30 98 H 8.1616 0.364359 -3.71116 0
M  V30 99 N 10.3467 1.47872 -0.545128 0
M  V30 100 C 11.2947 2.31533 0.222512 0
M  V30 101 C 12.2887 1.42177 0.920985 0
M  V30 102 O 13.4947 1.59005 0.843645 0
M  V30 103 H 9.8697 0.746519 0.0906278 0
M  V30 104 H 11.8407 2.94139 -0.50246 0
M  V30 105 C 10.5897 3.2457 1.24699 0
M  V30 106 H 9.9127 3.93283 0.718944 0
M  V30 107 H 11.3527 3.85963 1.75523 0
M  V30 108 C 9.8117 2.47237 2.28856 0
M  V30 109 O 10.3417 2.20808 3.35569 0
M  V30 110 N 8.5477 2.08461 2.02466 0
M  V30 111 H 8.0947 2.30155 1.157 0
M  V30 112 H 8.0527 1.57033 2.72375 0
M  V30 113 N 11.8248 0.280983 1.55075 0
M  V30 114 C 12.7728 -0.619864 2.24188 0
M  V30 115 C 13.7668 -1.15315 1.24092 0
M  V30 116 O 14.9728 -1.1061 1.42005 0
M  V30 117 H 11.3478 -0.218459 0.719569 0
M  V30 118 H 13.3188 -0.0141831 2.98397 0
M  V30 119 C 12.0678 -1.7899 2.98091 0
M  V30 120 H 11.3908 -1.38874 3.74905 0
M  V30 121 H 12.8308 -2.39672 3.49762 0
M  V30 122 C 11.2898 -2.68192 2.03899 0
M  V30 123 O 11.8198 -3.6872 1.594 0
M  V30 124 N 10.0258 -2.35488 1.70275 0
M  V30 125 H 9.5728 -1.53787 2.06658 0
M  V30 126 H 9.5308 -2.95442 1.07524 0
M  V30 127 N 13.3029 -1.57598 0.00835791 0
M  V30 128 C 14.5279 -1.95617 -0.689103 0
M  V30 129 C 14.9529 -0.883753 -1.66046 0
M  V30 130 O 14.3109 0.157352 -1.80616 0
M  V30 131 C 14.3589 -3.32736 -1.38994 0
M  V30 132 O 13.4629 -3.27631 -2.50463 0
M  V30 133 H 12.8039 -0.638379 -0.182668 0
M  V30 134 H 15.3339 -2.045 0.064036 0
M  V30 135 H 15.3439 -3.68494 -1.75147 0
M  V30 136 H 14.0189 -4.1034 -0.677778 0
M  V30 137 H 12.5959 -3.03561 -2.16576 0
M  V30 138 N 14.781 0.264519 -1.55364 0
M  V30 139 C 16.009 1.013 -1.80405 0
M  V30 140 C 16.424 1.79618 -0.581622 0
M  V30 141 O 15.781 1.76879 0.449468 0
M  V30 142 C 15.832 1.96487 -3.03439 0
M  V30 143 O 15.553 1.21341 -4.20961 0
M  V30 144 C 17.054 2.83079 -3.41147 0
M  V30 145 H 14.274 0.298875 -0.600762 0
M  V30 146 H 16.818 0.292736 -2.02394 0
M  V30 147 H 14.973 2.63965 -2.83551 0
M  V30 148 H 15.387 1.85573 -4.90574 0
M  V30 149 H 16.861 3.4565 -4.30384 0
M  V30 150 H 17.338 3.53286 -2.60932 0
M  V30 151 H 17.944 2.2108 -3.63323 0
M  V30 152 N 16.2591 1.48442 0.529413 0
M  V30 153 C 17.1921 1.57577 1.65059 0
M  V30 154 C 18.1701 0.426198 1.56915 0
M  V30 155 O 19.3541 0.637877 1.77379 0
M  V30 156 C 16.4811 1.5043 3.03461 0
M  V30 157 C 15.5271 2.70235 3.29962 0
M  V30 158 S 16.3601 4.32198 3.16172 0
M  V30 159 C 17.5161 4.2765 4.57019 0
M  V30 160 H 17.7491 2.52427 1.5706 0
M  V30 161 H 15.2821 1.36982 0.712417 0
M  V30 162 H 17.2401 1.46992 3.8328 0
M  V30 163 H 15.9011 0.569167 3.089 0
M  V30 164 H 15.0941 2.61374 4.30929 0
M  V30 165 H 14.6961 2.70938 2.57815 0
M  V30 166 H 16.9881 3.97618 5.48549 0
M  V30 167 H 17.9311 5.28797 4.70934 0
M  V30 168 H 18.3391 3.5811 4.36368 0
M  V30 169 N 17.7372 -0.778329 1.37039 0
M  V30 170 C 18.6692 -1.90034 1.2814 0
M  V30 171 C 19.6822 -1.61585 0.198558 0
M  V30 172 O 20.8712 -1.72625 0.454175 0
M  V30 173 C 17.9712 -3.25108 0.956968 0
M  V30 174 C 17.1442 -3.81253 2.14394 0
M  V30 175 C 16.2032 -4.94789 1.79082 0
M  V30 176 O 15.2292 -5.10721 2.51301 0
M  V30 177 N 16.4312 -5.75878 0.731043 0
M  V30 178 H 19.1962 -1.98186 2.24816 0
M  V30 179 H 16.7572 -0.957129 1.30578 0
M  V30 180 H 18.7492 -3.9857 0.701701 0
M  V30 181 H 17.3192 -3.125 0.0789812 0
M  V30 182 H 16.5392 -2.99647 2.56135 0
M  V30 183 H 17.8272 -4.15495 2.93668 0
M  V30 184 H 17.2252 -5.65547 0.131618 0
M  V30 185 H 15.7822 -6.49596 0.535622 0
M  V30 186 N 19.2153 -1.21501 -1.00376 0
M  V30 187 C 20.4613 -1.03452 -1.74429 0
M  V30 188 C 20.7943 0.430764 -1.89362 0
M  V30 189 O 20.0693 1.31962 -1.42886 0
M  V30 190 C 20.3523 -1.73375 -3.15615 0
M  V30 191 C 20.2053 -3.27431 -3.08397 0
M  V30 192 C 21.5243 -1.47732 -4.14564 0
M  V30 193 H 18.6433 -0.377226 -0.633143 0
M  V30 194 H 21.2853 -1.49693 -1.17013 0
M  V30 195 H 19.4353 -1.34064 -3.64636 0
M  V30 196 H 21.1073 -3.76119 -2.67081 0
M  V30 197 H 19.3503 -3.5767 -2.45468 0
M  V30 198 H 20.0213 -3.71524 -4.08258 0
M  V30 199 H 22.4973 -1.8186 -3.74254 0
M  V30 200 H 21.3733 -1.99169 -5.11491 0
M  V30 201 H 21.6343 -0.407589 -4.40217 0
M  V30 202 N 20.6934 1.19889 -1.02296 0
M  V30 203 C 21.9184 1.9393 -0.735237 0
M  V30 204 C 22.3434 1.74639 0.698782 0
M  V30 205 O 21.7014 1.04481 1.48167 0
M  V30 206 C 21.7494 3.43916 -1.08417 0
M  V30 207 O 20.8534 4.11917 -0.199446 0
M  V30 208 H 20.1944 0.605645 -0.272196 0
M  V30 209 H 22.7244 1.52137 -1.36804 0
M  V30 210 H 22.7344 3.9456 -1.03856 0
M  V30 211 H 21.4094 3.5728 -2.12894 0
M  V30 212 H 19.9864 3.71666 -0.303136 0
M  V30 213 N 22.1715 0.800033 1.35784 0
M  V30 214 C 23.4185 0.377342 1.98953 0
M  V30 215 C 23.7465 -1.05378 1.6348 0
M  V30 216 O 23.0015 -1.74459 0.886707 0
M  V30 217 C 23.3005 0.500276 3.53881 0
M  V30 218 C 22.9665 1.89375 4.09204 0
M  V30 219 C 21.6285 2.27499 4.24025 0
M  V30 220 C 23.9805 2.8057 4.39238 0
M  V30 221 C 21.3085 3.562 4.66195 0
M  V30 222 C 23.6605 4.0871 4.82844 0
M  V30 223 C 22.3245 4.46843 4.95871 0
M  V30 224 H 21.5945 0.138079 0.728021 0
M  V30 225 H 24.2415 1.01955 1.62103 0
M  V30 226 H 22.5465 -0.225405 3.91151 0
M  V30 227 H 24.2435 0.154097 4.00704 0
M  V30 228 H 20.8335 1.58753 3.98115 0
M  V30 229 H 25.0175 2.52367 4.27346 0
M  V30 230 H 20.2735 3.85602 4.74469 0
M  V30 231 H 24.4475 4.79481 5.05046 0
M  V30 232 H 22.0745 5.46623 5.28306 0
M  V30 233 N 23.6496 -1.47581 0.552962 0
M  V30 234 C 24.8956 -2.02782 0.0273648 0
M  V30 235 C 25.2286 -1.42687 -1.31734 0
M  V30 236 O 24.5036 -0.580897 -1.85623 0
M  V30 237 C 24.7866 -3.60031 -0.0702371 0
M  V30 238 C 24.6396 -4.30566 1.30126 0
M  V30 239 C 25.9586 -4.33028 -0.785771 0
M  V30 240 H 23.0776 -0.736912 0.0114185 0
M  V30 241 H 25.7196 -1.76056 0.714432 0
M  V30 242 H 23.8696 -3.82932 -0.655382 0
M  V30 243 H 25.5416 -4.19018 1.92929 0
M  V30 244 H 23.7846 -3.91086 1.87709 0
M  V30 245 H 24.4556 -5.39114 1.18573 0
M  V30 246 H 26.9316 -4.15095 -0.288982 0
M  V30 247 H 25.8076 -5.42695 -0.823013 0
M  V30 248 H 26.0686 -4.01945 -1.841 0
M  V30 249 N 25.1277 -0.289203 -1.54924 0
M  V30 250 C 26.3677 0.324536 -2.01807 0
M  V30 251 C 26.7317 1.5199 -1.17316 0
M  V30 252 O 27.9327 2.20422 -1.53843 0
M  V30 253 C 26.2037 0.683578 -3.50802 0
M  V30 254 S 27.7627 1.28185 -4.19659 0
M  V30 255 H 24.5807 0.100236 -0.703899 0
M  V30 256 H 27.1827 -0.414325 -1.91059 0
M  V30 257 H 25.8867 -0.195073 -4.09936 0
M  V30 258 H 25.4177 1.45354 -3.65562 0
M  V30 259 H 27.4327 2.57006 -4.24456 0
M  V30 260 N 26.6058 1.57591 -0.0167156 0
M  V30 261 C 27.5378 2.06343 0.997753 0
M  V30 262 C 28.5508 0.984469 1.29661 0
M  V30 263 O 29.7398 1.26093 1.26344 0
M  V30 264 C 26.8398 2.46255 2.32834 0
M  V30 265 C 26.0128 3.77083 2.21646 0
M  V30 266 C 25.0718 4.0368 3.37534 0
M  V30 267 O 24.0978 4.7411 3.14973 0
M  V30 268 N 25.2998 3.52881 4.60929 0
M  V30 269 H 28.0648 2.93997 0.581875 0
M  V30 270 H 25.6258 1.61002 0.170316 0
M  V30 271 H 27.6178 2.61149 3.09166 0
M  V30 272 H 26.1878 1.64032 2.66106 0
M  V30 273 H 25.4078 3.72106 1.30119 0
M  V30 274 H 26.6958 4.62822 2.11361 0
M  V30 275 H 26.0938 2.95878 4.82154 0
M  V30 276 H 24.6508 3.73076 5.34469 0
M  V30 277 N 28.0839 -0.256276 1.55502 0
M  V30 278 C 29.4999 -0.604325 1.47716 0
M  V30 279 C 29.6999 -1.88763 0.705039 0
M  V30 280 O 28.7559 -2.51445 0.230613 0
M  V30 281 C 30.0689 -0.715756 2.92057 0
M  V30 282 C 31.6169 -0.808706 3.02372 0
M  V30 283 C 32.0919 -0.951777 4.48001 0
M  V30 284 N 33.5829 -1.01688 4.519 0
M  V30 285 C 34.3179 -1.14668 5.61817 0
M  V30 286 N 33.8139 -1.24261 6.81565 0
M  V30 287 N 35.6069 -1.1791 5.49594 0
M  V30 288 H 27.7579 0.586291 2.04148 0
M  V30 289 H 30.0209 0.201015 0.926443 0
M  V30 290 H 29.7269 0.157027 3.51349 0
M  V30 291 H 29.6009 -1.59071 3.42018 0
M  V30 292 H 31.9879 -1.67195 2.43166 0
M  V30 293 H 32.0689 0.0912063 2.55637 0
M  V30 294 H 31.7129 -0.0931291 5.07815 0
M  V30 295 H 31.6429 -1.86659 4.92408 0
M  V30 296 H 34.1339 -0.954468 3.65648 0
M  V30 297 H 34.4469 -1.34046 7.61086 0
M  V30 298 H 32.7919 -1.21236 6.84344 0
M  V30 299 H 35.9829 -1.10057 4.54978 0
M  V30 300 H 36.1559 -1.27681 6.35296 0
M  V30 301 N 29.562 -1.4872 -0.521534 0
M  V30 302 C 30.802 -1.58771 -1.28729 0
M  V30 303 C 31.166 -0.259394 -1.9024 0
M  V30 304 O 32.367 -0.234942 -2.67771 0
M  V30 305 C 30.638 -2.70039 -2.34124 0
M  V30 306 S 32.197 -2.9991 -3.20312 0
M  V30 307 H 29.015 -0.560251 -0.437767 0
M  V30 308 H 31.617 -1.86283 -0.593188 0
M  V30 309 H 30.321 -3.65101 -1.87429 0
M  V30 310 H 29.852 -2.44455 -3.08229 0
M  V30 311 H 31.867 -2.39855 -4.34378 0
M  V30 312 N 31.0401 0.771051 -1.3745 0
M  V30 313 C 32.2651 1.56529 -1.36065 0
M  V30 314 C 32.6901 1.88029 0.0515859 0
M  V30 315 O 32.0481 1.49282 1.02882 0
M  V30 316 C 32.0961 2.85187 -2.20683 0
M  V30 317 O 31.2001 3.79593 -1.61193 0
M  V30 318 H 30.5411 0.47411 -0.464883 0
M  V30 319 H 33.0711 0.954269 -1.80983 0
M  V30 320 H 33.0811 3.34283 -2.33921 0
M  V30 321 H 31.7561 2.61588 -3.23334 0
M  V30 322 H 30.3331 3.38239 -1.56999 0
M  V30 323 N 32.5182 1.22032 0.997298 0
M  V30 324 C 33.4502 0.944263 2.08845 0
M  V30 325 C 34.4632 -0.0754663 1.62625 0
M  V30 326 O 35.6522 0.157994 1.77799 0
M  V30 327 C 32.7522 0.397723 3.36558 0
M  V30 328 C 31.9252 1.47362 4.11829 0
M  V30 329 C 30.9842 0.934951 5.17827 0
M  V30 330 O 30.0102 1.62016 5.45655 0
M  V30 331 N 31.2122 -0.245895 5.79979 0
M  V30 332 H 33.9772 1.88363 2.33109 0
M  V30 333 H 31.5382 1.12661 1.16272 0
M  V30 334 H 33.5302 0.0227771 4.04694 0
M  V30 335 H 32.1002 -0.446646 3.09393 0
M  V30 336 H 31.3202 2.02208 3.38386 0
M  V30 337 H 32.6082 2.19764 4.58891 0
M  V30 338 H 32.0062 -0.819475 5.59733 0
M  V30 339 H 30.5632 -0.562272 6.4937 0
M  V30 340 N 33.9963 -1.19345 1.0293 0
M  V30 341 C 35.4073 -1.70725 0.755633 0
M  V30 342 C 35.7583 -1.82326 -0.724676 0
M  V30 343 O 34.8833 -1.49471 -1.56484 0
M  V30 344 C 35.4783 -3.10084 1.36503 0
M  V30 345 C 34.0373 -3.58723 1.13994 0
M  V30 346 C 33.1843 -2.35577 1.46283 0
M  V30 347 H 36.1353 -1.0418 1.19718 0
M  V30 348 H 36.1563 -3.72787 0.762217 0
M  V30 349 H 35.6683 -3.01609 2.44241 0
M  V30 350 H 33.7693 -3.72512 0.0807901 0
M  V30 351 H 33.8823 -4.42816 1.82894 0
M  V30 352 H 32.2463 -2.38935 0.88217 0
M  V30 353 H 33.0293 -2.29731 2.55105 0
M  V30 354 N 35.4744 -0.807222 -1.35358 0
M  V30 355 C 36.4044 -0.232509 -2.3234 0
M  V30 356 C 37.3854 0.642386 -1.57504 0
M  V30 357 O 38.5704 0.572526 -1.85569 0
M  V30 358 C 35.7004 0.619238 -3.41735 0
M  V30 359 C 34.6544 -0.157215 -4.27711 0
M  V30 360 C 33.9804 0.816273 -5.28433 0
M  V30 361 C 35.2804 -1.35656 -5.04376 0
M  V30 362 H 36.9744 -1.04276 -2.80654 0
M  V30 363 H 34.5204 -0.50288 -1.34934 0
M  V30 364 H 36.4734 1.03137 -4.08584 0
M  V30 365 H 35.1974 1.46239 -2.92031 0
M  V30 366 H 33.8564 -0.550525 -3.62443 0
M  V30 367 H 33.5044 1.65494 -4.74996 0
M  V30 368 H 33.2044 0.301067 -5.86828 0
M  V30 369 H 34.7284 1.22659 -5.98153 0
M  V30 370 H 36.1424 -1.01927 -5.64166 0
M  V30 371 H 34.5394 -1.8063 -5.7227 0
M  V30 372 H 35.6094 -2.14288 -4.34981 0
M  V30 373 N 36.9525 1.47285 -0.560781 0
M  V30 374 C 37.8995 2.30058 0.18491 0
M  V30 375 C 38.8695 1.39281 0.904986 0
M  V30 376 O 40.0545 1.68241 0.899979 0
M  V30 377 C 37.1945 3.23317 1.20666 0
M  V30 378 C 36.3075 4.29186 0.492285 0
M  V30 379 C 35.4425 5.09592 1.49964 0
M  V30 380 C 34.4815 6.07232 0.770439 0
M  V30 381 N 33.6185 6.80584 1.72479 0
M  V30 382 H 38.4585 2.93302 -0.527048 0
M  V30 383 H 35.9955 1.44568 -0.271738 0
M  V30 384 H 37.9535 3.75811 1.81168 0
M  V30 385 H 36.5835 2.61929 1.88661 0
M  V30 386 H 35.6355 3.7972 -0.227333 0
M  V30 387 H 36.9475 4.98738 -0.0787929 0
M  V30 388 H 36.1015 5.66254 2.17809 0
M  V30 389 H 34.8405 4.3995 2.10464 0
M  V30 390 H 33.8455 5.49745 0.0780846 0
M  V30 391 H 35.0705 6.78884 0.171134 0
M  V30 392 H 33.0165 6.1367 2.3183 0
M  V30 393 H 32.9335 7.46319 1.20596 0
M  V30 394 H 34.2015 7.41818 2.39428 0
M  V30 395 N 38.4306 0.297415 1.54768 0
M  V30 396 C 39.3606 -0.573494 2.26348 0
M  V30 397 C 40.3416 -1.14085 1.26169 0
M  V30 398 O 41.5266 -1.17086 1.54934 0
M  V30 399 C 38.6566 -1.74716 3.00153 0
M  V30 400 C 37.6106 -1.31032 4.07449 0
M  V30 401 C 36.9366 -2.56887 4.68949 0
M  V30 402 C 38.2366 -0.444183 5.20408 0
M  V30 403 H 39.9306 0.0235131 2.99391 0
M  V30 404 H 37.4766 0.0127488 1.43994 0
M  V30 405 H 39.4296 -2.3625 3.48947 0
M  V30 406 H 38.1536 -2.37035 2.24682 0
M  V30 407 H 36.8126 -0.718066 3.59499 0
M  V30 408 H 36.4606 -3.17512 3.90122 0
M  V30 409 H 36.1606 -2.2836 5.41411 0
M  V30 410 H 37.6846 -3.19229 5.20505 0
M  V30 411 H 39.0986 -0.9651 5.65118 0
M  V30 412 H 37.4956 -0.252846 5.99567 0
M  V30 413 H 38.5656 0.531609 4.81977 0
M  V30 414 N 39.9087 -1.5758 0.0250728 0
M  V30 415 C 41.1857 -1.82917 -0.692873 0
M  V30 416 C 41.5657 -0.908137 -1.90568 0
M  V30 417 O 40.9137 0.0372298 -2.2847 0
M  V30 418 C 41.1237 -3.32034 -1.07492 0
M  V30 419 C 42.4717 -3.98406 -1.46826 0
M  V30 420 O 43.4957 -3.36505 -1.16801 0
M  V30 421 O 42.3547 -5.07497 -2.02754 0
M  V30 422 H 39.4487 -0.754079 -0.33955 0
M  V30 423 H 41.9947 -1.69619 0.0524456 0
M  V30 424 H 40.7667 -3.90728 -0.211552 0
M  V30 425 H 40.3897 -3.50424 -1.87854 0
M  V30 426 N 41.3868 0.248026 -1.55636 0
M  V30 427 C 42.6148 0.993808 -1.81469 0
M  V30 428 C 43.0298 1.78991 -0.60064 0
M  V30 429 O 42.3868 1.77345 0.430682 0
M  V30 430 C 42.4378 1.93258 -3.05506 0
M  V30 431 O 42.1588 1.16869 -4.22224 0
M  V30 432 C 43.6598 2.79444 -3.4413 0
M  V30 433 H 40.8798 0.292486 -0.603898 0
M  V30 434 H 43.4238 0.271253 -2.02693 0
M  V30 435 H 41.5788 2.60943 -2.86335 0
M  V30 436 H 41.9928 1.80359 -4.92515 0
M  V30 437 H 43.4668 3.41066 -4.34026 0
M  V30 438 H 43.9438 3.50499 -2.64665 0
M  V30 439 H 44.5498 2.17214 -3.65648 0
M  V30 440 N 42.8649 1.48995 0.513639 0
M  V30 441 C 44.0899 1.61792 1.29762 0
M  V30 442 C 44.5149 0.284475 1.85936 0
M  V30 443 O 43.8729 -0.746185 1.65232 0
M  V30 444 C 43.9209 2.67993 2.41272 0
M  V30 445 O 43.0249 2.26287 3.44772 0
M  V30 446 H 42.3659 0.541963 0.38363 0
M  V30 447 H 44.8959 1.95097 0.616307 0
M  V30 448 H 44.9059 2.89772 2.87221 0
M  V30 449 H 43.5809 3.64791 1.9975 0
M  V30 450 H 42.1579 2.14788 3.04829 0
M  V30 451 N 44.343 -0.763751 1.37857 0
M  V30 452 C 45.59 -1.52257 1.33506 0
M  V30 453 C 45.918 -1.94343 -0.078022 0
M  V30 454 O 45.173 -1.64958 -1.05297 0
M  V30 455 C 45.472 -2.79499 2.22745 0
M  V30 456 C 45.138 -2.56426 3.70886 0
M  V30 457 C 43.8 -2.49842 4.11257 0
M  V30 458 C 46.152 -2.36008 4.64704 0
M  V30 459 C 43.48 -2.20841 5.43549 0
M  V30 460 C 45.832 -2.0853 5.97242 0
M  V30 461 C 44.496 -2.00396 6.36709 0
M  V30 462 H 43.766 -0.557149 0.488534 0
M  V30 463 H 46.413 -0.879073 1.70131 0
M  V30 464 H 44.718 -3.48447 1.79142 0
M  V30 465 H 46.415 -3.37413 2.16688 0
M  V30 466 H 43.005 -2.62416 3.38874 0
M  V30 467 H 47.189 -2.40079 4.34368 0
M  V30 468 H 42.445 -2.13045 5.73081 0
M  V30 469 H 46.619 -1.91732 6.69486 0
M  V30 470 H 44.246 -1.77688 7.39142 0
M  V30 471 N 45.8211 -1.22559 -0.990812 0
M  V30 472 C 46.7681 -0.997519 -2.0813 0
M  V30 473 C 47.7381 0.0814702 -1.659 0
M  V30 474 O 48.9231 -0.0685424 -1.90677 0
M  V30 475 C 46.0631 -0.583615 -3.40129 0
M  V30 476 C 45.1761 -1.7336 -3.9569 0
M  V30 477 C 44.3111 -1.26748 -5.15857 0
M  V30 478 C 43.3501 -2.38888 -5.63559 0
M  V30 479 N 42.4871 -1.93308 -6.74964 0
M  V30 480 H 47.3271 -1.93099 -2.26973 0
M  V30 481 H 44.8641 -0.962114 -1.11273 0
M  V30 482 H 46.8221 -0.324801 -4.15934 0
M  V30 483 H 45.4521 0.312845 -3.2128 0
M  V30 484 H 44.5041 -2.10669 -3.16738 0
M  V30 485 H 45.8161 -2.57704 -4.27071 0
M  V30 486 H 44.9701 -0.966173 -5.98957 0
M  V30 487 H 43.7091 -0.394272 -4.86104 0
M  V30 488 H 42.7141 -2.69805 -4.79046 0
M  V30 489 H 43.9391 -3.26728 -5.95336 0
M  V30 490 H 41.8851 -1.08352 -6.4699 0
M  V30 491 H 41.8021 -2.71217 -7.05675 0
M  V30 492 H 43.0701 -1.66252 -7.61564 0
M  V30 493 N 47.2992 1.18797 -1.03562 0
M  V30 494 C 48.5482 1.87978 -0.731235 0
M  V30 495 C 48.8612 1.80911 0.743671 0
M  V30 496 O 50.0672 2.45407 1.16137 0
M  V30 497 C 48.5232 3.3721 -1.25768 0
M  V30 498 C 48.1312 3.52818 -2.76085 0
M  V30 499 C 49.8752 4.11825 -1.0296 0
M  V30 500 C 47.7822 4.9598 -3.22114 0
M  V30 501 H 46.7122 0.704063 -0.269835 0
M  V30 502 H 49.3632 1.34266 -1.25079 0
M  V30 503 H 47.7452 3.90359 -0.666011 0
M  V30 504 H 48.9192 3.09965 -3.40966 0
M  V30 505 H 47.2342 2.91602 -2.97249 0
M  V30 506 H 49.8312 5.17411 -1.34869 0
M  V30 507 H 50.1742 4.16287 0.0333546 0
M  V30 508 H 50.7072 3.64833 -1.58562 0
M  V30 509 H 47.4462 4.96684 -4.27768 0
M  V30 510 H 46.9662 5.39569 -2.61965 0
M  V30 511 H 48.6452 5.6467 -3.15844 0
M  V30 512 N 48.7773 0.814389 1.34928 0
M  V30 513 C 49.7073 0.244827 2.32213 0
M  V30 514 C 50.6883 -0.634024 1.57842 0
M  V30 515 O 51.8733 -0.562676 1.8587 0
M  V30 516 C 49.0033 -0.601106 3.42058 0
M  V30 517 C 47.9573 0.179896 4.27622 0
M  V30 518 C 47.2833 -0.788237 5.28858 0
M  V30 519 C 48.5833 1.38329 5.03649 0
M  V30 520 H 50.2773 1.05763 2.80097 0
M  V30 521 H 47.8233 0.510029 1.34665 0
M  V30 522 H 49.7763 -1.00968 4.09125 0
M  V30 523 H 48.5003 -1.44688 2.92802 0
M  V30 524 H 47.1593 0.569739 3.62146 0
M  V30 525 H 46.8073 -1.62973 4.75866 0
M  V30 526 H 46.5073 -0.269942 5.8698 0
M  V30 527 H 48.0313 -1.19485 5.98795 0
M  V30 528 H 49.4453 1.04918 5.63618 0
M  V30 529 H 47.8423 1.83662 5.71304 0
M  V30 530 H 48.9123 2.16592 4.33839 0
M  V30 531 N 50.2554 -1.46986 0.568584 0
M  V30 532 C 51.5324 -1.95592 -0.0174074 0
M  V30 533 C 51.9124 -1.51124 -1.47393 0
M  V30 534 O 51.2604 -0.755329 -2.15655 0
M  V30 535 C 51.4704 -3.48719 0.139913 0
M  V30 536 C 52.8184 -4.246 0.000426376 0
M  V30 537 O 53.8424 -3.56135 0.0680316 0
M  V30 538 O 52.7014 -5.46302 -0.146988 0
M  V30 539 H 49.7954 -0.82498 -0.0577599 0
M  V30 540 H 52.3414 -1.57335 0.635909 0
M  V30 541 H 51.1134 -3.73927 1.15301 0
M  V30 542 H 50.7364 -3.93771 -0.550491 0
M  V30 543 N 51.7335 -0.305618 -1.54608 0
M  V30 544 C 53.1495 0.0476228 -1.59529 0
M  V30 545 C 53.3495 1.52025 -1.32252 0
M  V30 546 O 52.4055 2.27368 -1.09818 0
M  V30 547 C 53.7185 -0.354471 -2.98603 0
M  V30 548 C 55.2665 -0.303622 -3.11524 0
M  V30 549 C 55.7415 -0.680608 -4.52915 0
M  V30 550 N 57.2325 -0.63332 -4.5885 0
M  V30 551 C 57.9675 -0.897432 -5.66334 0
M  V30 552 N 57.4635 -1.22775 -6.81834 0
M  V30 553 N 59.2565 -0.824186 -5.56025 0
M  V30 554 H 51.4075 -1.2653 -1.70599 0
M  V30 555 H 53.6705 -0.513291 -0.797017 0
M  V30 556 H 53.3765 -1.3798 -3.23503 0
M  V30 557 H 53.2505 0.289568 -3.76087 0
M  V30 558 H 55.6375 0.712472 -2.8637 0
M  V30 559 H 55.7185 -0.982348 -2.36185 0
M  V30 560 H 55.3625 -1.69453 -4.78799 0
M  V30 561 H 55.2925 0.0202385 -5.26596 0
M  V30 562 H 57.7835 -0.389138 -3.75891 0
M  V30 563 H 58.0965 -1.41513 -7.59733 0
M  V30 564 H 56.4415 -1.26583 -6.83375 0
M  V30 565 H 59.6325 -0.565748 -4.64669 0
M  V30 566 H 59.8055 -1.03338 -6.39707 0
M  V30 567 N 53.2116 1.57565 -0.0334293 0
M  V30 568 C 54.4576 1.92262 0.645226 0
M  V30 569 C 54.7906 0.910543 1.71531 0
M  V30 570 O 54.0656 -0.066099 1.94388 0
M  V30 571 C 54.3486 3.37422 1.2577 0
M  V30 572 C 54.2016 4.49369 0.196891 0
M  V30 573 C 55.5206 3.82628 2.17449 0
M  V30 574 H 52.6396 0.699171 0.233085 0
M  V30 575 H 55.2816 1.89779 -0.0915694 0
M  V30 576 H 53.4316 3.39669 1.88566 0
M  V30 577 H 55.1036 4.59254 -0.433962 0
M  V30 578 H 53.3466 4.31168 -0.477137 0
M  V30 579 H 54.0176 5.47978 0.665124 0
M  V30 580 H 56.4936 3.82145 1.64634 0
M  V30 581 H 55.3696 4.84883 2.57254 0
M  V30 582 H 55.6306 3.18376 3.0674 0
M  V30 583 N 54.6897 -0.239769 1.55765 0
M  V30 584 C 55.9177 -0.98417 1.81994 0
M  V30 585 C 56.3327 -1.7867 0.610124 0
M  V30 586 O 55.6897 -1.77571 -0.421271 0
M  V30 587 C 55.7407 -1.91635 3.06526 0
M  V30 588 O 55.4617 -1.14629 4.22838 0
M  V30 589 C 56.9627 -2.77616 3.45607 0
M  V30 590 H 54.1827 -0.28928 0.605441 0
M  V30 591 H 56.7267 -0.260499 2.02834 0
M  V30 592 H 54.8817 -2.5942 2.87715 0
M  V30 593 H 55.2957 -1.77745 4.93464 0
M  V30 594 H 56.7697 -3.38759 4.35828 0
M  V30 595 H 57.2467 -3.4909 2.6652 0
M  V30 596 H 57.8527 -2.15271 3.66795 0
M  V30 597 N 56.1678 -1.49265 -0.50573 0
M  V30 598 C 57.4168 -1.57761 -1.25675 0
M  V30 599 C 57.7298 -0.267371 -1.93764 0
M  V30 600 O 58.9358 -0.230827 -2.70517 0
M  V30 601 C 57.3918 -2.78332 -2.28165 0
M  V30 602 C 56.9998 -4.16096 -1.66037 0
M  V30 603 C 58.7438 -2.96155 -3.04125 0
M  V30 604 C 56.6508 -5.27895 -2.6661 0
M  V30 605 H 55.5808 -0.587391 -0.472745 0
M  V30 606 H 58.2318 -1.75644 -0.53118 0
M  V30 607 H 56.6138 -2.53934 -3.03865 0
M  V30 608 H 57.7878 -4.50612 -0.963622 0
M  V30 609 H 56.1028 -4.03591 -1.02484 0
M  V30 610 H 58.6998 -3.76849 -3.79327 0
M  V30 611 H 59.0428 -2.06534 -3.61455 0
M  V30 612 H 59.5758 -3.2057 -2.35541 0
M  V30 613 H 56.3148 -6.1956 -2.14068 0
M  V30 614 H 55.8348 -4.97839 -3.34539 0
M  V30 615 H 57.5138 -5.57031 -3.29129 0
M  V30 616 N 57.6459 0.756429 -1.3826 0
M  V30 617 C 58.5779 1.87971 -1.31147 0
M  V30 618 C 59.5909 1.61248 -0.224239 0
M  V30 619 O 60.7799 1.71881 -0.481581 0
M  V30 620 C 57.8799 3.23545 -1.00857 0
M  V30 621 C 57.0529 3.77794 -2.20432 0
M  V30 622 C 56.1119 4.91877 -1.86931 0
M  V30 623 O 55.1379 5.06659 -2.59395 0
M  V30 624 N 56.3399 5.74643 -0.822568 0
M  V30 625 H 59.1049 1.94585 -2.2794 0
M  V30 626 H 56.6659 0.936234 -1.32084 0
M  V30 627 H 58.6579 3.97403 -0.765021 0
M  V30 628 H 57.2279 3.12335 -0.128687 0
M  V30 629 H 56.4479 2.95534 -2.6087 0
M  V30 630 H 57.7359 4.10771 -3.00241 0
M  V30 631 H 57.1339 5.65266 -0.221575 0
M  V30 632 H 55.6909 6.48661 -0.638899 0
M  V30 633 N 59.124 1.23083 0.984299 0
M  V30 634 C 60.034 1.02515 2.11016 0
M  V30 635 C 61.05 -0.0291702 1.73976 0
M  V30 636 O 62.226 0.165434 2.00719 0
M  V30 637 C 59.291 0.614673 3.41208 0
M  V30 638 C 58.352 1.74359 3.92297 0
M  V30 639 C 57.585 1.35261 5.16275 0
M  V30 640 O 57.808 0.235136 5.69915 0
M  V30 641 O 56.742 2.17227 5.61334 0
M  V30 642 H 60.568 1.96862 2.31255 0
M  V30 643 H 58.153 1.01753 1.09392 0
M  V30 644 H 60.035 0.396518 4.1953 0
M  V30 645 H 58.71 -0.299851 3.22308 0
M  V30 646 H 57.617 2.01635 3.1511 0
M  V30 647 H 58.95 2.63629 4.15645 0
M  V30 648 N 60.6021 -1.18246 1.0419 0
M  V30 649 C 61.5321 -2.24127 0.654914 0
M  V30 650 C 62.5131 -1.66617 -0.342451 0
M  V30 651 O 63.6981 -1.92924 -0.222277 0
M  V30 652 C 60.8281 -3.47295 0.0183757 0
M  V30 653 C 59.7821 -4.17563 0.939414 0
M  V30 654 C 59.1081 -5.34438 0.167286 0
M  V30 655 C 60.4081 -4.70917 2.25908 0
M  V30 656 H 62.1021 -2.56753 1.54007 0
M  V30 657 H 59.6481 -1.23414 0.74195 0
M  V30 658 H 61.6011 -4.20572 -0.264082 0
M  V30 659 H 60.3251 -3.13907 -0.901664 0
M  V30 660 H 58.9841 -3.46186 1.20628 0
M  V30 661 H 58.6321 -4.97298 -0.7552 0
M  V30 662 H 58.3321 -5.82388 0.780901 0
M  V30 663 H 59.8561 -6.10504 -0.108125 0
M  V30 664 H 61.2701 -5.35882 2.03724 0
M  V30 665 H 59.6671 -5.29406 2.82577 0
M  V30 666 H 60.7371 -3.88272 2.9047 0
M  V30 667 N 62.0802 -0.821533 -1.34494 0
M  V30 668 C 63.3082 -0.421884 -2.02553 0
M  V30 669 C 63.7232 0.971745 -1.61872 0
M  V30 670 O 63.0802 1.62864 -0.823496 0
M  V30 671 C 63.1312 -0.51285 -3.57844 0
M  V30 672 O 62.8522 -1.85155 -3.97051 0
M  V30 673 C 64.3532 -0.107921 -4.43169 0
M  V30 674 H 61.5732 -0.169482 -0.649243 0
M  V30 675 H 64.1172 -1.1093 -1.71798 0
M  V30 676 H 62.2722 0.126474 -3.87193 0
M  V30 677 H 62.6862 -1.82482 -4.91732 0
M  V30 678 H 64.1602 -0.222657 -5.51551 0
M  V30 679 H 64.6372 0.948401 -4.28838 0
M  V30 680 H 65.2432 -0.720989 -4.19144 0
M  V30 681 N 63.5583 1.46682 -0.576371 0
M  V30 682 C 64.5213 2.28707 0.150239 0
M  V30 683 C 65.5213 1.38035 0.824794 0
M  V30 684 O 66.7113 1.60476 0.677719 0
M  V30 685 C 63.8433 3.18248 1.22192 0
M  V30 686 H 65.0363 2.94423 -0.570521 0
M  V30 687 H 62.5893 1.52688 -0.334078 0
M  V30 688 H 63.3243 2.57265 1.97447 0
M  V30 689 H 63.1093 3.85 0.742812 0
M  V30 690 H 64.5993 3.80001 1.73172 0
M  V30 691 N 65.0364 0.313813 1.54444 0
M  V30 692 C 66.4474 -0.176243 1.85866 0
M  V30 693 C 66.7984 -1.52405 1.23561 0
M  V30 694 O 65.9234 -2.09605 0.538016 0
M  V30 695 C 66.5184 -0.32657 3.37222 0
M  V30 696 C 65.0774 -0.760846 3.6863 0
M  V30 697 C 64.2244 0.123247 2.77026 0
M  V30 698 H 67.1754 0.534418 1.49431 0
M  V30 699 H 67.1964 -1.15908 3.62416 0
M  V30 700 H 66.7084 0.654531 3.82541 0
M  V30 701 H 64.8094 -1.75204 3.28838 0
M  V30 702 H 64.9224 -0.571353 4.75681 0
M  V30 703 H 63.2864 -0.399597 2.51546 0
M  V30 704 H 64.0694 1.10094 3.25168 0
M  V30 705 N 66.5145 -1.57545 0.0417849 0
M  V30 706 C 67.4445 -2.14009 -0.933929 0
M  V30 707 C 68.4255 -1.05938 -1.33083 0
M  V30 708 O 69.6105 -1.33833 -1.40721 0
M  V30 709 C 66.7405 -2.67747 -2.21199 0
M  V30 710 C 65.6945 -3.80718 -1.95544 0
M  V30 711 C 65.0205 -4.20935 -3.29724 0
M  V30 712 C 66.3205 -5.06258 -1.28452 0
M  V30 713 H 68.0145 -2.95788 -0.463645 0
M  V30 714 H 65.5605 -1.42285 -0.221573 0
M  V30 715 H 67.5135 -3.05886 -2.89848 0
M  V30 716 H 66.2375 -1.83147 -2.70416 0
M  V30 717 H 64.8965 -3.43037 -1.2931 0
M  V30 718 H 64.5445 -3.33298 -3.76724 0
M  V30 719 H 64.2445 -4.9707 -3.13361 0
M  V30 720 H 65.7685 -4.61666 -3.9962 0
M  V30 721 H 67.1825 -5.41903 -1.8712 0
M  V30 722 H 65.5795 -5.87475 -1.22445 0
M  V30 723 H 66.6495 -4.84207 -0.259219 0
M  V30 724 N 67.9926 0.231505 -1.5589 0
M  V30 725 C 68.9226 1.29022 -1.94617 0
M  V30 726 C 69.9036 1.4941 -0.813067 0
M  V30 727 O 71.0886 1.6176 -1.07459 0
M  V30 728 C 68.2186 2.64199 -2.25424 0
M  V30 729 C 67.1726 2.58484 -3.41131 0
M  V30 730 C 66.4986 3.97599 -3.57518 0
M  V30 731 C 67.7986 2.1413 -4.76388 0
M  V30 732 H 69.4926 0.968563 -2.83301 0
M  V30 733 H 67.0386 0.464479 -1.36303 0
M  V30 734 H 68.9916 3.38413 -2.51107 0
M  V30 735 H 67.7156 2.98032 -1.33583 0
M  V30 736 H 66.3746 1.86727 -3.15481 0
M  V30 737 H 66.0226 4.28723 -2.6307 0
M  V30 738 H 65.7226 3.94659 -4.35337 0
M  V30 739 H 67.2466 4.7349 -3.85538 0
M  V30 740 H 68.6606 2.78083 -5.01341 0
M  V30 741 H 67.0576 2.2227 -5.57419 0
M  V30 742 H 68.1276 1.09331 -4.72414 0
M  V30 743 N 69.4707 1.49531 0.497807 0
M  V30 744 C 70.6987 1.62893 1.27567 0
M  V30 745 C 71.1137 0.301585 1.86376 0
M  V30 746 O 70.4707 -0.713335 1.67982 0
M  V30 747 C 70.5217 2.70013 2.40364 0
M  V30 748 O 70.2427 3.976 1.83972 0
M  V30 749 C 71.7437 2.94109 3.31685 0
M  V30 750 H 68.9637 0.548298 0.386794 0
M  V30 751 H 71.5077 1.95584 0.597245 0
M  V30 752 H 69.6627 2.40092 3.04031 0
M  V30 753 H 70.0767 4.56631 2.58047 0
M  V30 754 H 71.5507 3.72788 4.07104 0
M  V30 755 H 72.0277 2.04147 3.88871 0
M  V30 756 H 72.6337 3.2546 2.73781 0
M  V30 757 N 70.9488 -0.749086 1.3866 0
M  V30 758 C 72.1768 -1.53834 1.38358 0
M  V30 759 C 72.5918 -1.88783 -0.0255219 0
M  V30 760 O 71.9488 -1.53101 -0.993292 0
M  V30 761 C 71.9998 -2.83468 2.2434 0
M  V30 762 O 71.7208 -2.50008 3.5976 0
M  V30 763 C 73.2218 -3.7758 2.32267 0
M  V30 764 H 70.4418 -0.47585 0.473083 0
M  V30 765 H 72.9858 -0.926726 1.82297 0
M  V30 766 H 71.1408 -3.40995 1.83851 0
M  V30 767 H 71.5548 -3.33182 4.05081 0
M  V30 768 H 73.0288 -4.65478 2.96706 0
M  V30 769 H 73.5058 -4.18334 1.33765 0
M  V30 770 H 74.1118 -3.25976 2.73166 0
M  V30 771 N 72.4269 -1.23603 -0.977757 0
M  V30 772 C 73.3899 -1.02069 -2.05218 0
M  V30 773 C 74.3899 0.0184305 -1.60789 0
M  V30 774 O 75.5799 -0.221569 -1.72785 0
M  V30 775 C 72.7119 -0.544926 -3.36517 0
M  V30 776 H 73.9049 -1.9742 -2.25755 0
M  V30 777 H 71.4579 -1.05684 -1.15155 0
M  V30 778 H 72.1929 0.412241 -3.21669 0
M  V30 779 H 71.9779 -1.2948 -3.70105 0
M  V30 780 H 73.4679 -0.414985 -4.15533 0
M  V30 781 N 73.905 1.17692 -1.04816 0
M  V30 782 C 74.837 2.21103 -0.603822 0
M  V30 783 C 75.85 1.59411 0.33046 0
M  V30 784 O 77.039 1.7807 0.12379 0
M  V30 785 C 74.139 3.38623 0.136898 0
M  V30 786 C 73.312 4.29888 -0.807137 0
M  V30 787 C 72.371 5.26088 -0.10836 0
M  V30 788 O 71.397 5.64353 -0.741232 0
M  V30 789 N 72.599 5.68882 1.15558 0
M  V30 790 H 75.364 2.59848 -1.49329 0
M  V30 791 H 72.925 1.32553 -0.929587 0
M  V30 792 H 74.917 4.00009 0.614401 0
M  V30 793 H 73.487 2.98508 0.927993 0
M  V30 794 H 72.707 3.65993 -1.46434 0
M  V30 795 H 73.995 4.87759 -1.44807 0
M  V30 796 H 73.393 5.39861 1.69015 0
M  V30 797 H 71.95 6.32429 1.57722 0
M  V30 798 N 75.3831 0.828654 1.34056 0
M  V30 799 C 76.3461 0.259927 2.27721 0
M  V30 800 C 77.3461 -0.565478 1.50529 0
M  V30 801 O 78.5361 -0.38075 1.69988 0
M  V30 802 C 75.6681 -0.634944 3.34935 0
M  V30 803 H 76.8611 1.0863 2.79534 0
M  V30 804 H 74.4141 0.600951 1.44285 0
M  V30 805 H 75.1491 -1.48416 2.88346 0
M  V30 806 H 74.9341 -0.0444999 3.92075 0
M  V30 807 H 76.4241 -1.02648 4.04788 0
M  V30 808 N 76.8612 -1.46375 0.584142 0
M  V30 809 C 77.8082 -2.30323 -0.148286 0
M  V30 810 C 78.7782 -1.40703 -0.882713 0
M  V30 811 O 79.9632 -1.69651 -0.873099 0
M  V30 812 C 77.1032 -3.25196 -1.15507 0
M  V30 813 C 76.2162 -4.29915 -0.423943 0
M  V30 814 C 75.3512 -5.11914 -1.41838 0
M  V30 815 C 74.3902 -6.08381 -0.673736 0
M  V30 816 N 73.5272 -6.83242 -1.6163 0
M  V30 817 H 78.3672 -2.92427 0.573644 0
M  V30 818 H 75.9042 -1.44118 0.294703 0
M  V30 819 H 77.8622 -3.78646 -1.75166 0
M  V30 820 H 76.4922 -2.64898 -1.8447 0
M  V30 821 H 75.5442 -3.7931 0.287714 0
M  V30 822 H 76.8562 -4.98549 0.158128 0
M  V30 823 H 76.0102 -5.69648 -2.08773 0
M  V30 824 H 74.7492 -4.43243 -2.03438 0
M  V30 825 H 73.7542 -5.49799 0.00938483 0
M  V30 826 H 74.9792 -6.79071 -0.0631082 0
M  V30 827 H 72.9252 -6.1728 -2.22038 0
M  V30 828 H 72.8422 -7.48144 -1.08707 0
M  V30 829 H 74.1102 -7.45534 -2.27596 0
M  V30 830 N 78.3393 -0.321999 -1.54275 0
M  V30 831 C 79.7503 0.166384 -1.85957 0
M  V30 832 C 80.1013 1.51747 -1.24367 0
M  V30 833 O 79.2263 2.09317 -0.549124 0
M  V30 834 C 79.8213 0.308681 -3.37391 0
M  V30 835 C 78.3803 0.741286 -3.69028 0
M  V30 836 C 77.5273 -0.137937 -2.76957 0
M  V30 837 H 80.4783 -0.542335 -1.49146 0
M  V30 838 H 80.4993 1.13984 -3.63026 0
M  V30 839 H 80.0113 -0.674809 -3.82188 0
M  V30 840 H 78.1123 1.73458 -3.29762 0
M  V30 841 H 78.2253 0.546118 -4.75977 0
M  V30 842 H 76.5893 0.386251 -2.51754 0
M  V30 843 H 77.3723 -1.11816 -3.2458 0
M  V30 844 N 79.8174 1.5752 -0.0501392 0
M  V30 845 C 81.0654 1.9227 0.622642 0
M  V30 846 C 81.3864 0.929083 1.71444 0
M  V30 847 O 80.6564 -0.0262186 1.95882 0
M  V30 848 H 79.2364 0.709739 0.232981 0
M  V30 849 H 81.8984 1.94628 -0.102898 0
M  V30 850 H 80.9944 2.93479 1.06191 0
M  V30 851 N 81.2955 -0.223234 1.56011 0
M  V30 852 C 82.2055 -1.29766 1.95443 0
M  V30 853 C 83.2215 -1.51373 0.858028 0
M  V30 854 O 84.3975 -1.64536 1.16146 0
M  V30 855 C 81.4625 -2.62772 2.26167 0
M  V30 856 C 80.5235 -2.49482 3.49367 0
M  V30 857 C 79.7565 -3.76145 3.78616 0
M  V30 858 O 79.9795 -4.79087 3.09568 0
M  V30 859 O 78.9135 -3.73358 4.72109 0
M  V30 860 H 82.7395 -0.99309 2.87004 0
M  V30 861 H 80.3245 -0.425958 1.43199 0
M  V30 862 H 82.2065 -3.41327 2.47131 0
M  V30 863 H 80.8815 -2.92913 1.37781 0
M  V30 864 H 79.7885 -1.69133 3.33684 0
M  V30 865 H 81.1215 -2.2428 4.38131 0
M  V30 866 N 82.7736 -1.49793 -0.48987 0
M  V30 867 C 84.0016 -1.63568 -1.26701 0
M  V30 868 C 84.4166 -0.311465 -1.86213 0
M  V30 869 O 83.7736 0.704416 -1.68357 0
M  V30 870 C 83.8246 -2.71284 -2.38929 0
M  V30 871 O 83.5456 -3.9857 -1.81861 0
M  V30 872 C 85.0466 -2.95864 -3.3012 0
M  V30 873 H 82.2666 -0.550342 -0.383881 0
M  V30 874 H 84.8106 -1.95898 -0.586864 0
M  V30 875 H 82.9656 -2.417 -3.02753 0
M  V30 876 H 83.3796 -4.57993 -2.55622 0
M  V30 877 H 84.8536 -3.74941 -4.05121 0
M  V30 878 H 85.3306 -2.06206 -3.87783 0
M  V30 879 H 85.9366 -3.26907 -2.72051 0
M  V30 880 N 84.2517 0.741722 -1.39055 0
M  V30 881 C 85.1837 1.8657 -1.33133 0
M  V30 882 C 86.1967 1.61001 -0.241329 0
M  V30 883 O 87.3857 1.7136 -0.499784 0
M  V30 884 C 84.4857 3.22457 -1.04283 0
M  V30 885 C 83.6587 3.75435 -2.24427 0
M  V30 886 C 82.7177 4.89867 -1.92138 0
M  V30 887 O 81.7437 5.03879 -2.64754 0
M  V30 888 N 82.9457 5.73738 -0.88347 0
M  V30 889 H 85.7107 1.92156 -2.29991 0
M  V30 890 H 83.2717 0.922172 -1.3307 0
M  V30 891 H 85.2637 3.9657 -0.807128 0
M  V30 892 H 83.8337 3.12181 -0.161807 0
M  V30 893 H 83.0537 2.92751 -2.6399 0
M  V30 894 H 84.3417 4.07563 -3.04581 0
M  V30 895 H 83.7397 5.64999 -0.281517 0
M  V30 896 H 82.2967 6.47947 -0.707662 0
M  V30 897 N 85.7298 1.2412 0.971189 0
M  V30 898 C 86.6398 1.04747 2.09917 0
M  V30 899 C 87.6558 -0.0107162 1.73997 0
M  V30 900 O 88.8318 0.186714 2.00533 0
M  V30 901 C 85.8968 0.650828 3.40537 0
M  V30 902 C 84.9578 1.7851 3.90426 0
M  V30 903 C 84.1908 1.40729 5.14812 0
M  V30 904 O 84.4138 0.29557 5.69634 0
M  V30 905 O 83.3478 2.23168 5.58999 0
M  V30 906 H 87.1738 1.99304 2.29154 0
M  V30 907 H 84.7588 1.02908 1.08307 0
M  V30 908 H 86.6408 0.440992 4.19086 0
M  V30 909 H 85.3158 -0.265649 3.22608 0
M  V30 910 H 84.2228 2.04966 3.12953 0
M  V30 911 H 85.5558 2.68023 4.12825 0
M  V30 912 N 87.2079 -1.17134 1.05439 0
M  V30 913 C 88.1179 -2.24878 0.668365 0
M  V30 914 C 89.1339 -1.71186 -0.311687 0
M  V30 915 O 90.3099 -2.00738 -0.163161 0
M  V30 916 C 87.3749 -3.46662 0.051648 0
M  V30 917 C 86.4359 -4.15429 1.08246 0
M  V30 918 C 85.6689 -5.31399 0.495082 0
M  V30 919 O 85.8919 -5.66153 -0.694743 0
M  V30 920 O 84.8259 -5.89187 1.23056 0
M  V30 921 H 88.6519 -2.60189 1.56637 0
M  V30 922 H 86.2369 -1.24482 0.826104 0
M  V30 923 H 88.1189 -4.20394 -0.290966 0
M  V30 924 H 86.7939 -3.13142 -0.819971 0
M  V30 925 H 85.7009 -3.43704 1.47711 0
M  V30 926 H 87.0339 -4.52982 1.92532 0
M  V30 927 N 88.686 -0.835752 -1.33615 0
M  V30 928 C 89.596 -0.269088 -2.33052 0
M  V30 929 C 90.612 0.603251 -1.63208 0
M  V30 930 O 91.788 0.508112 -1.94885 0
M  V30 931 C 88.853 0.549091 -3.42324 0
M  V30 932 C 87.914 -0.347156 -4.27894 0
M  V30 933 C 87.147 0.43207 -5.31948 0
M  V30 934 O 87.37 1.66409 -5.45586 0
M  V30 935 O 86.304 -0.192298 -6.01593 0
M  V30 936 H 90.13 -1.09243 -2.83372 0
M  V30 937 H 87.715 -0.598198 -1.36901 0
M  V30 938 H 89.597 1.01414 -4.09015 0
M  V30 939 H 88.272 1.34955 -2.94226 0
M  V30 940 H 87.179 -0.859979 -3.64081 0
M  V30 941 H 88.512 -1.1123 -4.79467 0
M  V30 942 N 90.1641 1.46063 -0.591896 0
M  V30 943 C 91.3921 2.06717 -0.0868936 0
M  V30 944 C 91.8071 1.43916 1.22203 0
M  V30 945 O 91.1641 0.547698 1.74088 0
M  V30 946 C 91.2151 3.6142 0.0758725 0
M  V30 947 O 90.9361 4.21874 -1.18126 0
M  V30 948 C 92.4371 4.39025 0.61416 0
M  V30 949 H 89.6571 0.668162 -0.0616518 0
M  V30 950 H 92.2011 1.8755 -0.815175 0
M  V30 951 H 90.3561 3.79983 0.754413 0
M  V30 952 H 90.7701 5.14861 -1.00092 0
M  V30 953 H 92.2441 5.4783 0.677193 0
M  V30 954 H 92.7211 4.07708 1.63312 0
M  V30 955 H 93.3271 4.2529 -0.0298142 0
M  V30 956 N 91.6422 0.330177 1.54103 0
M  V30 957 C 92.5902 -0.548226 2.26047 0
M  V30 958 C 93.5842 -1.11309 1.27698 0
M  V30 959 O 94.7902 -1.06036 1.45452 0
M  V30 960 H 91.1652 -0.195456 0.726155 0
M  V30 961 H 93.1362 0.0807567 2.98291 0
M  V30 962 C 91.8852 -1.69415 3.03634 0
M  V30 963 H 91.2082 -1.26876 3.79134 0
M  V30 964 H 92.6482 -2.28423 3.5721 0
M  V30 965 C 91.1072 -2.61569 2.12328 0
M  V30 966 O 91.6372 -3.63462 1.7105 0
M  V30 967 N 89.8432 -2.29952 1.77681 0
M  V30 968 H 89.3902 -1.47134 2.11446 0
M  V30 969 H 89.3482 -2.91871 1.16869 0
M  V30 970 N 93.1203 -1.57491 0.0584922 0
M  V30 971 C 94.3453 -1.97711 -0.62652 0
M  V30 972 C 94.7703 -0.936132 -1.63151 0
M  V30 973 O 94.1283 0.099811 -1.81025 0
M  V30 974 C 94.1763 -3.36989 -1.28338 0
M  V30 975 O 93.2803 -3.35433 -2.39913 0
M  V30 976 H 92.6213 -0.643868 -0.162266 0
M  V30 977 H 95.1513 -2.04193 0.129064 0
M  V30 978 H 95.1613 -3.73879 -1.63335 0
M  V30 979 H 93.8363 -4.12289 -0.546889 0
M  V30 980 H 92.4133 -3.10298 -2.06809 0
M  V30 981 N 94.5984 0.214957 -1.56127 0
M  V30 982 C 95.8464 0.936518 -1.79091 0
M  V30 983 C 96.1674 1.84606 -0.628148 0
M  V30 984 O 95.4374 1.92664 0.35462 0
M  V30 985 H 94.0174 0.3488 -0.660566 0
M  V30 986 H 96.6794 0.22523 -1.93594 0
M  V30 987 H 95.7754 1.53943 -2.71492 0
M  V30 988 N 96.0765 1.50051 0.48192 0
M  V30 989 C 96.9865 1.7089 1.60728 0
M  V30 990 C 98.0025 0.591788 1.63627 0
M  V30 991 O 99.1785 0.868817 1.81696 0
M  V30 992 C 96.2435 1.78855 2.97005 0
M  V30 993 C 95.3045 3.02537 3.04581 0
M  V30 994 C 94.5375 3.10112 4.34357 0
M  V30 995 O 94.7605 2.24765 5.24249 0
M  V30 996 O 93.6945 4.02747 4.47301 0
M  V30 997 H 97.5205 2.66264 1.46072 0
M  V30 998 H 95.1055 1.34018 0.660264 0
M  V30 999 H 96.9875 1.86336 3.77964 0
M  V30 1000 H 95.6625 0.866628 3.11883 0
M  V30 1001 H 94.5695 3.00563 2.22739 0
M  V30 1002 H 95.9025 3.94272 2.94636 0
M  V30 1003 N 97.5546 -0.734337 1.39446 0
M  V30 1004 C 98.4646 -1.87879 1.40495 0
M  V30 1005 C 99.4806 -1.714 0.299672 0
M  V30 1006 O 100.657 -1.93991 0.541249 0
M  V30 1007 C 97.7216 -3.23477 1.24754 0
M  V30 1008 C 96.7826 -3.52344 2.45259 0
M  V30 1009 C 96.0156 -4.81473 2.30259 0
M  V30 1010 O 96.2386 -5.55237 1.30643 0
M  V30 1011 O 95.1726 -5.10254 3.19256 0
M  V30 1012 H 98.9986 -1.89949 2.36966 0
M  V30 1013 H 96.5836 -0.882243 1.20569 0
M  V30 1014 H 98.4656 -4.04509 1.18111 0
M  V30 1015 H 97.1406 -3.22176 0.313781 0
M  V30 1016 H 96.0476 -2.71396 2.57478 0
M  V30 1017 H 97.3806 -3.58426 3.37331 0
M  V30 1018 N 99.0327 -1.24633 -0.964593 0
M  V30 1019 C 100.444 -1.08045 -1.5226 0
M  V30 1020 C 100.795 0.347116 -1.93105 0
M  V30 1021 O 99.9197 1.23588 -1.77637 0
M  V30 1022 C 100.515 -1.95514 -2.76695 0
M  V30 1023 C 99.0737 -1.8314 -3.28841 0
M  V30 1024 C 98.2207 -1.90262 -2.01732 0
M  V30 1025 H 101.172 -1.38064 -0.782553 0
M  V30 1026 H 101.193 -1.48925 -3.50145 0
M  V30 1027 H 100.705 -2.99407 -2.46936 0
M  V30 1028 H 98.8057 -0.82092 -3.63444 0
M  V30 1029 H 98.9187 -2.67406 -3.97531 0
M  V30 1030 H 97.2827 -1.34027 -2.16584 0
M  V30 1031 H 98.0657 -2.9574 -1.74334 0
M  V30 1032 N 100.511 1.16574 -1.06058 0
M  V30 1033 C 101.758 1.87047 -0.775873 0
M  V30 1034 C 102.086 1.81562 0.697534 0
M  V30 1035 O 101.341 1.22445 1.52662 0
M  V30 1036 C 101.64 3.36195 -1.21275 0
M  V30 1037 C 101.306 3.6188 -2.68986 0
M  V30 1038 C 99.9678 3.68599 -3.09335 0
M  V30 1039 C 102.32 3.72648 -3.64394 0
M  V30 1040 C 99.6478 3.83584 -4.43937 0
M  V30 1041 C 102 3.89154 -4.98741 0
M  V30 1042 C 100.664 3.94114 -5.3873 0
M  V30 1043 H 99.9338 0.684452 -0.283912 0
M  V30 1044 H 102.581 1.37853 -1.32925 0
M  V30 1045 H 100.886 3.87505 -0.578528 0
M  V30 1046 H 102.583 3.89103 -0.969542 0
M  V30 1047 H 99.1728 3.57281 -2.36744 0
M  V30 1048 H 103.357 3.66769 -3.34356 0
M  V30 1049 H 98.6128 3.85677 -4.74409 0
M  V30 1050 H 102.787 3.96427 -5.72554 0
M  V30 1051 H 100.414 4.05478 -6.43033 0
M  V30 1052 N 101.989 0.842826 1.3317 0
M  V30 1053 C 103.238 0.436738 1.96915 0
M  V30 1054 C 103.551 -1.01025 1.67491 0
M  V30 1055 O 104.757 -1.5212 2.24881 0
M  V30 1056 C 103.213 0.730021 3.52418 0
M  V30 1057 C 102.821 2.19195 3.90714 0
M  V30 1058 C 104.565 0.391076 4.22695 0
M  V30 1059 C 102.472 2.42907 5.39212 0
M  V30 1060 H 101.402 0.15958 0.736919 0
M  V30 1061 H 104.053 1.03196 1.51733 0
M  V30 1062 H 102.435 0.0643755 3.95948 0
M  V30 1063 H 103.609 2.8984 3.58231 0
M  V30 1064 H 101.924 2.49425 3.33431 0
M  V30 1065 H 104.521 0.545817 5.31907 0
M  V30 1066 H 104.864 -0.666294 4.10933 0
M  V30 1067 H 105.397 1.01212 3.84709 0
M  V30 1068 H 102.136 3.47224 5.55982 0
M  V30 1069 H 101.656 1.76827 5.73142 0
M  V30 1070 H 103.335 2.2626 6.06148 0
M  V30 1071 N 103.467 -1.45747 0.599634 0
M  V30 1072 C 104.377 -2.34262 -0.125888 0
M  V30 1073 C 105.393 -1.50768 -0.868625 0
M  V30 1074 O 106.569 -1.83592 -0.828003 0
M  V30 1075 C 103.634 -3.28252 -1.11587 0
M  V30 1076 C 102.695 -4.27651 -0.375956 0
M  V30 1077 C 101.928 -5.1715 -1.31877 0
M  V30 1078 O 102.151 -5.09916 -2.55621 0
M  V30 1079 O 101.085 -5.96286 -0.820157 0
M  V30 1080 H 104.911 -2.97688 0.601315 0
M  V30 1081 H 102.496 -1.44999 0.359934 0
M  V30 1082 H 104.378 -3.86191 -1.68626 0
M  V30 1083 H 103.053 -2.67401 -1.82424 0
M  V30 1084 H 101.96 -3.7335 0.236698 0
M  V30 1085 H 103.293 -4.91334 0.29177 0
M  V30 1086 N 104.945 -0.338344 -1.53925 0
M  V30 1087 C 106.173 0.261298 -2.05243 0
M  V30 1088 C 106.588 1.44625 -1.21363 0
M  V30 1089 O 105.945 1.80811 -0.247736 0
M  V30 1090 C 105.996 0.681412 -3.5502 0
M  V30 1091 O 105.717 -0.456414 -4.35716 0
M  V30 1092 C 107.218 1.34232 -4.22489 0
M  V30 1093 H 104.438 0.0513685 -0.669031 0
M  V30 1094 H 106.982 -0.488822 -1.98572 0
M  V30 1095 H 105.137 1.38148 -3.61931 0
M  V30 1096 H 105.551 -0.122564 -5.24357 0
M  V30 1097 H 107.025 1.58708 -5.28693 0
M  V30 1098 H 107.502 2.29426 -3.74514 0
M  V30 1099 H 108.108 0.684424 -4.19757 0
M  V30 1100 N 106.423 1.57458 -0.0668435 0
M  V30 1101 C 107.834 1.80776 0.466558 0
M  V30 1102 C 108.185 0.980361 1.69951 0
M  V30 1103 O 107.31 0.201441 2.1546 0
M  V30 1104 C 107.905 3.27881 0.85321 0
M  V30 1105 C 106.464 3.52062 1.3315 0
M  V30 1106 C 105.611 2.75513 0.314264 0
M  V30 1107 H 108.562 1.5598 -0.292588 0
M  V30 1108 H 108.583 3.39659 1.715 0
M  V30 1109 H 108.095 3.88075 -0.0443439 0
M  V30 1110 H 106.196 2.97167 2.24772 0
M  V30 1111 H 106.309 4.60762 1.31285 0
M  V30 1112 H 104.673 2.42123 0.790492 0
M  V30 1113 H 105.456 3.38442 -0.575477 0
M  V30 1114 N 107.901 -0.206675 1.56239 0
M  V30 1115 C 109.317 -0.557025 1.49564 0
M  V30 1116 C 109.517 -1.86424 0.764735 0
M  V30 1117 O 108.573 -2.50584 0.310491 0
M  V30 1118 C 109.886 -0.622478 2.94186 0
M  V30 1119 C 111.434 -0.712099 3.04792 0
M  V30 1120 C 111.909 -0.808767 4.50803 0
M  V30 1121 N 113.4 -0.8726 4.54907 0
M  V30 1122 C 114.135 -0.967365 5.65181 0
M  V30 1123 N 113.631 -1.02515 6.85173 0
M  V30 1124 N 115.424 -1.00366 5.53067 0
M  V30 1125 H 107.575 0.650943 2.02179 0
M  V30 1126 H 109.838 0.230387 0.919579 0
M  V30 1127 H 109.544 0.268727 3.50672 0
M  V30 1128 H 109.418 -1.4811 3.46905 0
M  V30 1129 H 111.805 -1.59374 2.48363 0
M  V30 1130 H 111.886 0.172489 2.55218 0
M  V30 1131 H 111.53 0.0684754 5.07854 0
M  V30 1132 H 111.46 -1.70899 4.98098 0
M  V30 1133 H 113.951 -0.837657 3.68499 0
M  V30 1134 H 114.264 -1.09765 7.64965 0
M  V30 1135 H 112.609 -0.994026 6.87855 0
M  V30 1136 H 115.8 -0.95527 4.58249 0
M  V30 1137 H 115.973 -1.07405 6.39037 0
M  V30 1138 N 109.379 -1.50304 -0.473955 0
M  V30 1139 C 110.311 -1.65109 -1.58971 0
M  V30 1140 C 111.324 -0.532676 -1.53839 0
M  V30 1141 O 112.513 -0.805751 -1.59279 0
M  V30 1142 C 109.613 -1.61684 -2.97845 0
M  V30 1143 C 108.786 -2.8951 -3.27876 0
M  V30 1144 C 107.845 -2.78768 -4.4629 0
M  V30 1145 O 106.871 -3.52722 -4.46739 0
M  V30 1146 N 108.073 -1.9213 -5.47783 0
M  V30 1147 H 110.838 -2.61347 -1.46689 0
M  V30 1148 H 108.399 -1.47732 -0.662324 0
M  V30 1149 H 110.391 -1.52114 -3.75024 0
M  V30 1150 H 108.961 -0.731925 -3.03911 0
M  V30 1151 H 108.181 -3.13228 -2.39336 0
M  V30 1152 H 109.469 -3.74199 -3.4475 0
M  V30 1153 H 108.867 -1.31353 -5.50239 0
M  V30 1154 H 107.424 -1.88466 -6.23958 0
M  V30 1155 N 110.857 0.726932 -1.39834 0
M  V30 1156 C 112.134 1.47902 -1.28001 0
M  V30 1157 C 112.514 2.1083 0.106789 0
M  V30 1158 O 111.862 1.99242 1.11869 0
M  V30 1159 C 112.072 2.52392 -2.41038 0
M  V30 1160 C 113.42 3.18546 -2.80737 0
M  V30 1161 O 114.444 2.62708 -2.40547 0
M  V30 1162 O 113.303 4.19604 -3.50135 0
M  V30 1163 H 110.397 0.657163 -0.502062 0
M  V30 1164 H 112.943 0.760071 -1.51727 0
M  V30 1165 H 111.715 2.04329 -3.33715 0
M  V30 1166 H 111.338 3.31837 -2.19021 0
M  V30 1167 N 112.336 1.25143 0.95797 0
M  V30 1168 C 113.584 1.09476 1.69881 0
M  V30 1169 C 113.905 -0.365502 1.91544 0
M  V30 1170 O 113.175 -1.25985 1.50015 0
M  V30 1171 H 111.755 0.402128 0.629525 0
M  V30 1172 H 114.417 1.57214 1.15194 0
M  V30 1173 H 113.513 1.60046 2.6794 0
M  V30 1174 N 113.814 -1.1601 1.06675 0
M  V30 1175 C 115.06 -1.86909 0.786945 0
M  V30 1176 C 115.393 -1.81717 -0.685018 0
M  V30 1177 O 114.668 -1.23551 -1.50218 0
M  V30 1178 C 114.951 -3.36313 1.28707 0
M  V30 1179 C 114.804 -3.50175 2.82308 0
M  V30 1180 C 116.123 -4.3084 0.898071 0
M  V30 1181 H 113.242 -0.678677 0.287343 0
M  V30 1182 H 115.884 -1.36336 1.32334 0
M  V30 1183 H 114.034 -3.79513 0.830768 0
M  V30 1184 H 115.706 -3.15886 3.36175 0
M  V30 1185 H 113.949 -2.91959 3.20847 0
M  V30 1186 H 114.62 -4.55116 3.12368 0
M  V30 1187 H 117.096 -3.95561 1.29114 0
M  V30 1188 H 115.972 -5.33876 1.27543 0
M  V30 1189 H 116.233 -4.41662 -0.196651 0
M  V30 1190 N 115.292 -0.849877 -1.32721 0
M  V30 1191 C 116.517 -0.463856 -2.02146 0
M  V30 1192 C 116.942 0.930449 -1.63476 0
M  V30 1193 O 116.3 1.61033 -0.832952 0
M  V30 1194 C 116.348 -0.604955 -3.55489 0
M  V30 1195 O 115.452 0.36425 -4.10788 0
M  V30 1196 H 114.793 -0.187046 -0.637111 0
M  V30 1197 H 117.323 -1.14775 -1.69375 0
M  V30 1198 H 117.333 -0.490696 -4.05038 0
M  V30 1199 H 116.008 -1.62174 -3.82978 0
M  V30 1200 H 114.585 0.206628 -3.72327 0
M  V30 1201 N 116.77 1.45427 -0.607355 0
M  V30 1202 C 118.186 1.57283 -0.270985 0
M  V30 1203 C 118.386 1.59875 1.22647 0
M  V30 1204 O 117.442 1.52893 2.00948 0
M  V30 1205 C 118.755 2.85566 -0.941952 0
M  V30 1206 C 120.303 2.9924 -0.917849 0
M  V30 1207 C 120.778 4.30293 -1.56882 0
M  V30 1208 N 122.269 4.37051 -1.5343 0
M  V30 1209 C 123.004 5.37123 -2.00715 0
M  V30 1210 N 122.5 6.43734 -2.56084 0
M  V30 1211 N 124.293 5.28479 -1.91484 0
M  V30 1212 H 116.444 1.41988 -1.57966 0
M  V30 1213 H 118.707 0.67885 -0.661715 0
M  V30 1214 H 118.413 2.8955 -1.99633 0
M  V30 1215 H 118.287 3.74322 -0.465096 0
M  V30 1216 H 120.674 2.94822 0.127984 0
M  V30 1217 H 120.755 2.11895 -1.43297 0
M  V30 1218 H 120.399 4.35469 -2.61398 0
M  V30 1219 H 120.329 5.16454 -1.02873 0
M  V30 1220 H 122.82 3.60615 -1.12982 0
M  V30 1221 H 123.133 7.16341 -2.89958 0
M  V30 1222 H 121.478 6.44485 -2.60122 0
M  V30 1223 H 124.669 4.44098 -1.47967 0
M  V30 1224 H 124.842 6.0632 -2.28648 0
M  V30 1225 N 118.248 0.346503 1.53744 0
M  V30 1226 C 119.664 -0.00530975 1.59599 0
M  V30 1227 C 119.864 -1.48465 1.36236 0
M  V30 1228 O 118.92 -2.24376 1.15808 0
M  V30 1229 C 120.233 0.433516 2.97559 0
M  V30 1230 C 121.781 0.386111 3.10609 0
M  V30 1231 C 122.256 0.800451 4.50951 0
M  V30 1232 N 123.747 0.754753 4.5701 0
M  V30 1233 C 124.482 1.04727 5.63755 0
M  V30 1234 N 123.978 1.4081 6.7834 0
M  V30 1235 N 125.771 0.971316 5.53644 0
M  V30 1236 H 117.922 1.31009 1.67184 0
M  V30 1237 H 120.185 0.534242 0.783128 0
M  V30 1238 H 119.891 1.46509 3.19731 0
M  V30 1239 H 119.765 -0.189753 3.76722 0
M  V30 1240 H 122.152 -0.636295 2.88158 0
M  V30 1241 H 122.233 1.04462 2.33498 0
M  V30 1242 H 121.877 1.82088 4.74137 0
M  V30 1243 H 121.807 0.119386 5.26465 0
M  V30 1244 H 124.298 0.488662 3.74727 0
M  V30 1245 H 124.611 1.61607 7.55714 0
M  V30 1246 H 122.956 1.44657 6.79779 0
M  V30 1247 H 126.147 0.688748 4.63005 0
M  V30 1248 H 126.32 1.20263 6.36742 0
M  V30 1249 N 119.726 -1.57421 0.075193 0
M  V30 1250 C 120.973 -1.93618 -0.593146 0
M  V30 1251 C 121.301 -0.955484 -1.69413 0
M  V30 1252 O 120.556 0.0283251 -1.9568 0
M  V30 1253 C 120.855 -3.36428 -1.20626 0
M  V30 1254 C 120.521 -4.50307 -0.231078 0
M  V30 1255 C 119.183 -4.81186 0.0371936 0
M  V30 1256 C 121.535 -5.19374 0.435888 0
M  V30 1257 C 118.863 -5.78466 0.979461 0
M  V30 1258 C 121.215 -6.17665 1.3665 0
M  V30 1259 C 119.879 -6.46958 1.6432 0
M  V30 1260 H 119.149 -0.708499 -0.217047 0
M  V30 1261 H 121.796 -1.90937 0.146793 0
M  V30 1262 H 120.101 -3.35592 -2.02201 0
M  V30 1263 H 121.798 -3.61727 -1.73073 0
M  V30 1264 H 118.388 -4.26227 -0.450357 0
M  V30 1265 H 122.572 -4.95711 0.241748 0
M  V30 1266 H 117.828 -5.99487 1.20106 0
M  V30 1267 H 122.002 -6.70284 1.88924 0
M  V30 1268 H 119.629 -7.2215 2.37494 0
M  V30 1269 N 121.204 0.198386 -1.56346 0
M  V30 1270 C 122.453 0.917451 -1.79627 0
M  V30 1271 C 122.766 1.8456 -0.64784 0
M  V30 1272 O 123.972 2.60504 -0.764859 0
M  V30 1273 C 122.428 1.68175 -3.18191 0
M  V30 1274 C 122.036 0.798589 -4.40825 0
M  V30 1275 C 123.78 2.39065 -3.50782 0
M  V30 1276 C 121.687 1.56157 -5.70411 0
M  V30 1277 H 120.617 0.346317 -0.669762 0
M  V30 1278 H 123.268 0.170801 -1.82703 0
M  V30 1279 H 121.65 2.47216 -3.09354 0
M  V30 1280 H 122.824 0.0470665 -4.60776 0
M  V30 1281 H 121.139 0.200686 -4.15916 0
M  V30 1282 H 123.736 2.96692 -4.44835 0
M  V30 1283 H 124.079 3.13091 -2.74371 0
M  V30 1284 H 124.612 1.66993 -3.61052 0
M  V30 1285 H 121.351 0.864142 -6.49779 0
M  V30 1286 H 120.871 2.2871 -5.54483 0
M  V30 1287 H 122.55 2.11622 -6.11412 0
M  V30 1288 N 122.682 1.50554 0.465978 0
M  V30 1289 C 124.093 1.54599 1.04671 0
M  V30 1290 C 124.444 0.352488 1.93008 0
M  V30 1291 O 123.569 -0.534044 2.09707 0
M  V30 1292 C 124.164 2.80166 1.90505 0
M  V30 1293 C 122.723 2.86876 2.43678 0
M  V30 1294 C 121.87 2.48947 1.22151 0
M  V30 1295 H 124.821 1.56744 0.248384 0
M  V30 1296 H 124.842 2.62311 2.75633 0
M  V30 1297 H 124.354 3.67013 1.26186 0
M  V30 1298 H 122.455 2.04393 3.11536 0
M  V30 1299 H 122.568 3.89885 2.78436 0
M  V30 1300 H 120.932 2.01498 1.5579 0
M  V30 1301 H 121.715 3.38107 0.594866 0
M  V30 1302 N 124.16 -0.719506 1.40217 0
M  V30 1303 C 125.571 -1.29848 1.34151 0
M  V30 1304 C 125.922 -1.96196 0.0131349 0
M  V30 1305 O 125.047 -1.973 -0.88892 0
M  V30 1306 C 125.642 -2.36118 2.42968 0
M  V30 1307 C 124.201 -2.8965 2.40374 0
M  V30 1308 C 123.348 -1.63393 2.24049 0
M  V30 1309 H 126.299 -0.51591 1.5008 0
M  V30 1310 H 126.32 -3.16871 2.10649 0
M  V30 1311 H 125.832 -1.878 3.39636 0
M  V30 1312 H 123.933 -3.42208 1.47392 0
M  V30 1313 H 124.046 -3.4171 3.35814 0
M  V30 1314 H 122.41 -1.88312 1.71495 0
M  V30 1315 H 123.193 -1.17104 3.2271 0
M  V30 1316 N 125.638 -1.25649 -0.95132 0
M  V30 1317 C 126.601 -1.06399 -2.03007 0
M  V30 1318 C 127.601 -0.0156794 -1.60792 0
M  V30 1319 O 128.791 -0.25817 -1.72276 0
M  V30 1320 C 125.923 -0.616184 -3.35285 0
M  V30 1321 H 127.116 -2.02164 -2.21517 0
M  V30 1322 H 124.669 -1.08103 -1.12887 0
M  V30 1323 H 125.404 0.343917 -3.22471 0
M  V30 1324 H 125.189 -1.37301 -3.67275 0
M  V30 1325 H 126.679 -0.503032 -4.14559 0
M  V30 1326 N 127.117 1.15442 -1.07289 0
M  V30 1327 C 128.533 1.38201 -0.798288 0
M  V30 1328 C 128.733 1.92429 0.597769 0
M  V30 1329 O 127.789 2.12962 1.3566 0
M  V30 1330 C 129.102 2.35357 -1.87156 0
M  V30 1331 C 130.65 2.49021 -1.89624 0
M  V30 1332 C 131.125 3.49468 -2.96034 0
M  V30 1333 N 132.616 3.57003 -2.95132 0
M  V30 1334 C 133.351 4.34543 -3.74112 0
M  V30 1335 N 132.847 5.15421 -4.6294 0
M  V30 1336 N 134.64 4.29625 -3.62462 0
M  V30 1337 H 126.791 0.78584 -1.97328 0
M  V30 1338 H 129.054 0.408065 -0.855679 0
M  V30 1339 H 128.76 2.02626 -2.87464 0
M  V30 1340 H 128.634 3.35129 -1.73114 0
M  V30 1341 H 131.021 2.81051 -0.899687 0
M  V30 1342 H 131.102 1.4925 -2.07745 0
M  V30 1343 H 130.746 3.18173 -3.95889 0
M  V30 1344 H 130.676 4.48992 -2.75161 0
M  V30 1345 H 133.167 2.99276 -2.30743 0
M  V30 1346 H 133.48 5.7183 -5.19837 0
M  V30 1347 H 131.825 5.14729 -4.66989 0
M  V30 1348 H 135.016 3.65505 -2.92444 0
M  V30 1349 H 135.189 4.89807 -4.24256 0
M  V30 1350 N 128.595 0.856903 1.32268 0
M  V30 1351 C 129.528 0.247937 2.26849 0
M  V30 1352 C 130.506 -0.615382 1.50505 0
M  V30 1353 O 131.69 -0.571689 1.79622 0
M  V30 1354 C 128.817 -0.650093 3.32403 0
M  V30 1355 C 127.863 0.140138 4.2627 0
M  V30 1356 S 128.696 1.51004 5.13769 0
M  V30 1357 C 129.852 0.61778 6.22844 0
M  V30 1358 H 130.085 1.04971 2.78152 0
M  V30 1359 H 127.618 0.654665 1.39834 0
M  V30 1360 H 129.576 -1.16256 3.93694 0
M  V30 1361 H 128.237 -1.4257 2.7988 0
M  V30 1362 H 127.43 -0.543945 5.01056 0
M  V30 1363 H 127.032 0.584267 3.69408 0
M  V30 1364 H 129.324 -0.177053 6.77269 0
M  V30 1365 H 130.267 1.33636 6.95375 0
M  V30 1366 H 130.675 0.191124 5.64176 0
M  V30 1367 N 130.073 -1.45103 0.615059 0
M  V30 1368 C 131.006 -2.27717 -0.148408 0
M  V30 1369 C 131.984 -1.37584 -0.866572 0
M  V30 1370 O 133.168 -1.67017 -0.87393 0
M  V30 1371 C 130.295 -3.16136 -1.21557 0
M  V30 1372 C 129.341 -4.22263 -0.599712 0
M  V30 1373 S 130.174 -5.3215 0.598081 0
M  V30 1374 C 131.33 -6.24137 -0.469484 0
M  V30 1375 H 131.563 -2.92121 0.552483 0
M  V30 1376 H 129.096 -1.49054 0.402778 0
M  V30 1377 H 131.054 -3.67633 -1.82638 0
M  V30 1378 H 129.715 -2.50982 -1.88857 0
M  V30 1379 H 128.908 -4.84081 -1.4029 0
M  V30 1380 H 128.51 -3.73945 -0.063876 0
M  V30 1381 H 130.802 -6.63984 -1.34652 0
M  V30 1382 H 131.745 -7.0801 0.112725 0
M  V30 1383 H 132.153 -5.58971 -0.788168 0
M  V30 1384 N 131.551 -0.354651 -1.53558 0
M  V30 1385 C 132.776 0.242153 -2.05981 0
M  V30 1386 C 133.201 1.42553 -1.2272 0
M  V30 1387 O 132.559 1.79656 -0.243604 0
M  V30 1388 C 132.607 0.624367 -3.55154 0
M  V30 1389 O 131.711 1.72301 -3.74681 0
M  V30 1390 H 131.052 0.0378432 -0.662921 0
M  V30 1391 H 133.582 -0.512087 -1.98088 0
M  V30 1392 H 133.592 0.898433 -3.97985 0
M  V30 1393 H 132.267 -0.240989 -4.15201 0
M  V30 1394 H 130.844 1.44535 -3.4375 0
M  V30 1395 N 133.029 1.57378 -0.0835403 0
M  V30 1396 C 134.257 1.98263 0.59157 0
M  V30 1397 C 134.672 0.962302 1.62435 0
M  V30 1398 O 134.029 -0.049581 1.82433 0
M  V30 1399 C 134.08 3.39214 1.24965 0
M  V30 1400 O 133.801 4.37339 0.258186 0
M  V30 1401 C 135.302 3.95038 2.01147 0
M  V30 1402 H 132.522 0.651773 0.159477 0
M  V30 1403 H 135.066 2.03878 -0.159415 0
M  V30 1404 H 133.221 3.34649 1.95164 0
M  V30 1405 H 133.635 5.19371 0.731734 0
M  V30 1406 H 135.109 4.95848 2.42567 0
M  V30 1407 H 135.586 3.32222 2.87272 0
M  V30 1408 H 136.192 4.0304 1.35789 0
M  V30 1409 N 134.507 -0.190092 1.56449 0
M  V30 1410 C 135.417 -1.25591 1.98152 0
M  V30 1411 C 136.433 -1.49519 0.889944 0
M  V30 1412 O 137.609 -1.62036 1.19609 0
M  V30 1413 C 134.674 -2.57916 2.3169 0
M  V30 1414 C 133.735 -2.42015 3.5458 0
M  V30 1415 C 132.968 -3.6803 3.8651 0
M  V30 1416 O 133.191 -4.72413 3.1966 0
M  V30 1417 O 132.125 -3.6326 4.79923 0
M  V30 1418 H 135.951 -0.931988 2.89046 0
M  V30 1419 H 133.536 -0.395488 1.4407 0
M  V30 1420 H 135.418 -3.36008 2.54316 0
M  V30 1421 H 134.093 -2.89925 1.43963 0
M  V30 1422 H 133 -1.62017 3.37196 0
M  V30 1423 H 134.333 -2.14937 4.4279 0
M  V30 1424 N 135.985 -1.50799 -0.457987 0
M  V30 1425 C 137.21 -1.66496 -1.23668 0
M  V30 1426 C 137.635 -0.353288 -1.84752 0
M  V30 1427 O 136.993 0.684346 -1.67888 0
M  V30 1428 C 137.041 -2.76763 -2.3116 0
M  V30 1429 O 136.145 -2.38928 -3.36136 0
M  V30 1430 H 135.486 -0.555828 -0.363252 0
M  V30 1431 H 138.016 -1.9725 -0.543474 0
M  V30 1432 H 138.026 -3.00232 -2.76269 0
M  V30 1433 H 136.701 -3.71954 -1.86073 0
M  V30 1434 H 135.278 -2.25953 -2.96647 0
M  V30 1435 N 137.463 0.71206 -1.40597 0
M  V30 1436 C 138.426 1.80785 -1.40888 0
M  V30 1437 C 139.426 1.57937 -0.302103 0
M  V30 1438 O 140.616 1.64913 -0.561182 0
M  V30 1439 C 137.748 3.18927 -1.20409 0
M  V30 1440 H 138.941 1.81924 -2.38419 0
M  V30 1441 H 136.494 0.91805 -1.26497 0
M  V30 1442 H 137.229 3.23436 -0.236522 0
M  V30 1443 H 137.014 3.36911 -2.00582 0
M  V30 1444 H 138.504 3.98949 -1.23408 0
M  V30 1445 N 138.941 1.26152 0.944643 0
M  V30 1446 C 139.889 1.07215 2.06417 0
M  V30 1447 C 140.883 9.2007e-05 1.694 0
M  V30 1448 O 142.089 0.1565 1.79318 0
M  V30 1449 H 138.464 0.329837 0.675805 0
M  V30 1450 H 140.435 2.02099 2.19541 0
M  V30 1451 C 139.184 0.718197 3.40202 0
M  V30 1452 H 138.507 1.53497 3.69159 0
M  V30 1453 H 139.947 0.625459 4.19361 0
M  V30 1454 C 138.406 -0.576435 3.31932 0
M  V30 1455 O 138.936 -1.61574 3.67773 0
M  V30 1456 N 137.142 -0.565781 2.85039 0
M  V30 1457 H 136.689 0.280367 2.5607 0
M  V30 1458 H 136.647 -1.43213 2.79888 0
M  V30 1459 N 140.419 -1.14872 1.07899 0
M  V30 1460 C 141.644 -1.90202 0.826926 0
M  V30 1461 C 142.069 -1.77774 -0.614664 0
M  V30 1462 O 141.427 -1.11431 -1.43013 0
M  V30 1463 C 141.475 -3.38352 1.24702 0
M  V30 1464 O 140.579 -4.10497 0.39575 0
M  V30 1465 H 139.92 -0.591968 0.300782 0
M  V30 1466 H 142.45 -1.45437 1.43907 0
M  V30 1467 H 142.46 -3.89156 1.22563 0
M  V30 1468 H 141.135 -3.46715 2.29698 0
M  V30 1469 H 139.712 -3.69796 0.480117 0
M  V30 1470 N 141.898 -0.863906 -1.31812 0
M  V30 1471 C 143.145 -0.471836 -1.96926 0
M  V30 1472 C 143.473 0.974578 -1.68322 0
M  V30 1473 O 142.728 1.7003 -0.968933 0
M  V30 1474 C 143.027 -0.668547 -3.51091 0
M  V30 1475 C 142.693 -2.08683 -3.99703 0
M  V30 1476 C 141.355 -2.47471 -4.12688 0
M  V30 1477 C 143.707 -3.01207 -4.25351 0
M  V30 1478 C 141.035 -3.78037 -4.4867 0
M  V30 1479 C 143.387 -4.31282 -4.62794 0
M  V30 1480 C 142.051 -4.69992 -4.73987 0
M  V30 1481 H 141.321 -0.172657 -0.720604 0
M  V30 1482 H 143.968 -1.09573 -1.57054 0
M  V30 1483 H 142.273 0.0385252 -3.91781 0
M  V30 1484 H 143.97 -0.345102 -3.99512 0
M  V30 1485 H 140.56 -1.77566 -3.90087 0
M  V30 1486 H 144.744 -2.72469 -4.14819 0
M  V30 1487 H 140 -4.078 -4.55532 0
M  V30 1488 H 144.174 -5.03031 -4.81594 0
M  V30 1489 H 141.801 -5.71207 -5.01624 0
M  V30 1490 N 143.376 1.44774 -0.622745 0
M  V30 1491 C 144.604 2.06487 -0.130722 0
M  V30 1492 C 145.019 1.46476 1.19123 0
M  V30 1493 O 144.376 0.584502 1.72887 0
M  V30 1494 C 144.427 3.615 -0.000807207 0
M  V30 1495 O 144.148 4.19274 -1.27048 0
M  V30 1496 C 145.649 4.40229 0.520898 0
M  V30 1497 H 142.869 0.666704 -0.0758106 0
M  V30 1498 H 145.413 1.85779 -0.854774 0
M  V30 1499 H 143.568 3.81498 0.673643 0
M  V30 1500 H 143.982 5.12622 -1.1099 0
M  V30 1501 H 145.456 5.49144 0.560838 0
M  V30 1502 H 145.933 4.1108 1.54627 0
M  V30 1503 H 146.539 4.25131 -0.120018 0
M  V30 1504 N 144.854 0.36279 1.53368 0
M  V30 1505 C 145.784 -0.476976 2.28576 0
M  V30 1506 C 146.765 -1.08631 1.30894 0
M  V30 1507 O 147.95 -1.10409 1.59761 0
M  V30 1508 C 145.08 -1.61828 3.07293 0
M  V30 1509 C 144.034 -1.13633 4.1264 0
M  V30 1510 C 143.36 -2.36766 4.79423 0
M  V30 1511 C 144.66 -0.223061 5.21823 0
M  V30 1512 H 146.354 0.150474 2.99022 0
M  V30 1513 H 143.9 0.0738103 1.43811 0
M  V30 1514 H 145.853 -2.21237 3.58653 0
M  V30 1515 H 144.577 -2.27292 2.34533 0
M  V30 1516 H 143.236 -0.564945 3.62221 0
M  V30 1517 H 142.884 -3.0068 4.03238 0
M  V30 1518 H 142.584 -2.05192 5.50609 0
M  V30 1519 H 144.108 -2.96865 5.33576 0
M  V30 1520 H 145.522 -0.724545 5.68703 0
M  V30 1521 H 143.919 0.001678 6.001 0
M  V30 1522 H 144.989 0.735553 4.79289 0
M  V30 1523 N 146.332 -1.57332 0.0918853 0
M  V30 1524 C 147.581 -1.93412 -0.572249 0
M  V30 1525 C 147.894 -0.975515 -1.69538 0
M  V30 1526 O 149.1 -1.22991 -2.42045 0
M  V30 1527 C 147.556 -3.43648 -1.0693 0
M  V30 1528 C 147.164 -4.47994 0.0239049 0
M  V30 1529 C 148.908 -3.88695 -1.70635 0
M  V30 1530 C 146.815 -5.89381 -0.488319 0
M  V30 1531 H 145.745 -0.721939 -0.217532 0
M  V30 1532 H 148.396 -1.82735 0.167369 0
M  V30 1533 H 146.778 -3.49466 -1.8625 0
M  V30 1534 H 147.952 -4.53815 0.799277 0
M  V30 1535 H 146.267 -4.12536 0.565946 0
M  V30 1536 H 148.864 -4.91725 -2.10025 0
M  V30 1537 H 149.207 -3.27166 -2.57426 0
M  V30 1538 H 149.74 -3.85564 -0.979023 0
M  V30 1539 H 146.479 -6.54602 0.342906 0
M  V30 1540 H 145.999 -5.87037 -1.23077 0
M  V30 1541 H 147.678 -6.39863 -0.958317 0
M  V30 1542 N 147.81 0.181792 -1.56548 0
M  V30 1543 C 149.058 0.89832 -1.81038 0
M  V30 1544 C 149.379 1.83232 -0.667164 0
M  V30 1545 O 148.649 1.93372 0.313673 0
M  V30 1546 H 147.229 0.33471 -0.667816 0
M  V30 1547 H 149.891 0.184116 -1.94028 0
M  V30 1548 H 148.987 1.4815 -2.74696 0
M  V30 1549 N 149.288 1.51039 0.449983 0
M  V30 1550 C 150.198 1.74261 1.57067 0
M  V30 1551 C 151.214 0.626363 1.62335 0
M  V30 1552 O 152.39 0.907162 1.79812 0
M  V30 1553 C 149.455 1.85114 2.93144 0
M  V30 1554 C 148.516 3.0893 2.98095 0
M  V30 1555 C 147.749 3.19256 4.27681 0
M  V30 1556 O 147.972 2.35835 5.19363 0
M  V30 1557 O 146.906 4.12144 4.38658 0
M  V30 1558 H 150.732 2.69303 1.40391 0
M  V30 1559 H 148.317 1.35389 0.631688 0
M  V30 1560 H 150.199 1.94311 3.73926 0
M  V30 1561 H 148.874 0.932588 3.09975 0
M  V30 1562 H 147.781 3.0522 2.16314 0
M  V30 1563 H 149.114 4.00433 2.86206 0
M  V30 1564 N 150.766 -0.704594 1.40972 0
M  V30 1565 C 151.729 -1.80035 1.41845 0
M  V30 1566 C 152.729 -1.57774 0.310474 0
M  V30 1567 O 153.919 -1.64613 0.56992 0
M  V30 1568 C 151.051 -3.18284 1.22098 0
M  V30 1569 H 152.244 -1.80658 2.3938 0
M  V30 1570 H 149.797 -0.911329 1.26982 0
M  V30 1571 H 150.532 -3.23306 0.253672 0
M  V30 1572 H 150.317 -3.35843 2.02366 0
M  V30 1573 H 151.807 -3.98289 1.25522 0
M  V30 1574 N 152.244 -1.26651 -0.937939 0
M  V30 1575 C 153.469 -1.15279 -1.72411 0
M  V30 1576 C 153.894 0.287866 -1.85884 0
M  V30 1577 O 153.252 1.20855 -1.35143 0
M  V30 1578 C 153.3 -1.83028 -3.10698 0
M  V30 1579 O 152.404 -1.12128 -3.96864 0
M  V30 1580 H 151.745 -0.401504 -0.528858 0
M  V30 1581 H 154.275 -1.67531 -1.1745 0
M  V30 1582 H 154.285 -1.89981 -3.6107 0
M  V30 1583 H 152.96 -2.87833 -3.00208 0
M  V30 1584 H 151.537 -1.13173 -3.55312 0
M  V30 1585 N 153.722 1.14298 -1.08507 0
M  V30 1586 C 154.999 1.81544 -0.728088 0
M  V30 1587 C 155.379 1.95838 0.78808 0
M  V30 1588 O 154.727 1.51904 1.70697 0
M  V30 1589 C 154.937 3.17169 -1.45619 0
M  V30 1590 C 156.285 3.9265 -1.61591 0
M  V30 1591 O 157.309 3.26762 -1.41793 0
M  V30 1592 O 156.168 5.10807 -1.94263 0
M  V30 1593 H 153.262 0.78491 -0.260471 0
M  V30 1594 H 155.808 1.21307 -1.18671 0
M  V30 1595 H 154.58 3.01934 -2.489 0
M  V30 1596 H 154.203 3.851 -0.989124 0
M  V30 1597 N 155.201 0.870884 1.31352 0
M  V30 1598 C 156.449 0.48132 1.96285 0
M  V30 1599 C 156.77 -0.969813 1.69173 0
M  V30 1600 O 156.04 -1.67998 1.00764 0
M  V30 1601 H 154.62 0.175002 0.726212 0
M  V30 1602 H 157.282 1.11087 1.60143 0
M  V30 1603 H 156.378 0.639825 3.05471 0
M  V30 1604 N 156.679 -1.44442 0.630414 0
M  V30 1605 C 157.927 -2.01653 0.134351 0
M  V30 1606 C 158.248 -1.49836 -1.24796 0
M  V30 1607 O 157.518 -0.701684 -1.82902 0
M  V30 1608 H 156.098 -0.74554 0.0466769 0
M  V30 1609 H 158.76 -1.76952 0.816955 0
M  V30 1610 H 157.856 -3.11935 0.101498 0
M  V30 1611 N 158.157 -0.370918 -1.53173 0
M  V30 1612 C 159.385 0.217704 -2.05751 0
M  V30 1613 C 159.8 1.42018 -1.24404 0
M  V30 1614 O 159.157 1.80245 -0.286033 0
M  V30 1615 C 159.208 0.605954 -3.56385 0
M  V30 1616 O 158.929 -0.548734 -4.3465 0
M  V30 1617 C 160.43 1.2524 -4.25241 0
M  V30 1618 H 157.65 0.0371659 -0.66997 0
M  V30 1619 H 160.194 -0.530832 -1.9749 0
M  V30 1620 H 158.349 1.3044 -3.6478 0
M  V30 1621 H 158.763 -0.23376 -5.23979 0
M  V30 1622 H 160.237 1.47458 -5.3194 0
M  V30 1623 H 160.714 2.2143 -3.79296 0
M  V30 1624 H 161.32 0.595233 -4.21114 0
M  V30 1625 N 159.635 1.57281 -0.100228 0
M  V30 1626 C 160.568 2.09976 0.893612 0
M  V30 1627 C 161.546 1.01155 1.27304 0
M  V30 1628 O 162.73 1.28687 1.37739 0
M  V30 1629 C 159.857 2.58098 2.19324 0
M  V30 1630 C 158.903 3.78626 1.96328 0
M  V30 1631 S 159.736 5.21959 1.19662 0
M  V30 1632 C 160.892 5.73435 2.50844 0
M  V30 1633 H 161.125 2.93946 0.44534 0
M  V30 1634 H 158.658 1.53985 0.113167 0
M  V30 1635 H 160.616 2.8648 2.94005 0
M  V30 1636 H 159.277 1.74344 2.61272 0
M  V30 1637 H 158.47 4.10382 2.92579 0
M  V30 1638 H 158.072 3.50763 1.29775 0
M  V30 1639 H 160.364 5.82015 3.46792 0
M  V30 1640 H 161.307 6.7185 2.23659 0
M  V30 1641 H 161.715 5.01395 2.59352 0
M  V30 1642 N 161.113 -0.173488 1.56642 0
M  V30 1643 C 162.023 -1.23482 1.99473 0
M  V30 1644 C 163.039 -1.48567 0.905752 0
M  V30 1645 O 164.215 -1.60758 1.21321 0
M  V30 1646 C 161.28 -2.55444 2.34413 0
M  V30 1647 C 160.341 -2.38241 3.57127 0
M  V30 1648 C 159.574 -3.63909 3.90392 0
M  V30 1649 O 159.797 -4.68996 3.24653 0
M  V30 1650 O 158.731 -3.58149 4.83749 0
M  V30 1651 H 162.557 -0.901279 2.90018 0
M  V30 1652 H 160.142 -0.380185 1.44482 0
M  V30 1653 H 162.024 -3.33292 2.57865 0
M  V30 1654 H 160.699 -2.88382 1.4703 0
M  V30 1655 H 159.606 -1.58431 3.38896 0
M  V30 1656 H 160.939 -2.10228 4.45045 0
M  V30 1657 N 162.591 -1.51276 -0.441967 0
M  V30 1658 C 163.539 -1.72823 -1.55676 0
M  V30 1659 C 164.533 -0.59445 -1.58627 0
M  V30 1660 O 165.739 -0.775715 -1.62427 0
M  V30 1661 H 162.114 -0.545983 -0.517113 0
M  V30 1662 H 164.085 -2.6628 -1.34675 0
M  V30 1663 C 162.834 -1.86619 -2.93375 0
M  V30 1664 H 162.157 -2.73264 -2.91834 0
M  V30 1665 H 163.597 -2.05709 -3.70756 0
M  V30 1666 C 162.056 -0.624842 -3.31055 0
M  V30 1667 O 162.586 0.222636 -4.01083 0
M  V30 1668 N 160.792 -0.470288 -2.86769 0
M  V30 1669 H 160.339 -1.161 -2.29953 0
M  V30 1670 H 160.297 0.359051 -3.12343 0
M  V30 1671 N 164.069 0.697108 -1.41344 0
M  V30 1672 C 164.999 1.82353 -1.45841 0
M  V30 1673 C 165.98 1.67115 -0.317247 0
M  V30 1674 O 167.165 1.86871 -0.528474 0
M  V30 1675 C 164.295 3.20476 -1.33838 0
M  V30 1676 C 163.249 3.50415 -2.4575 0
M  V30 1677 C 162.575 4.87878 -2.18813 0
M  V30 1678 C 163.875 3.49546 -3.88091 0
M  V30 1679 H 165.569 1.78846 -2.40113 0
M  V30 1680 H 163.115 0.859028 -1.15571 0
M  V30 1681 H 165.068 3.98988 -1.35596 0
M  V30 1682 H 163.792 3.24604 -0.360498 0
M  V30 1683 H 162.451 2.74253 -2.43271 0
M  V30 1684 H 162.099 4.8863 -1.19371 0
M  V30 1685 H 161.799 5.08875 -2.93803 0
M  V30 1686 H 163.323 5.68702 -2.22284 0
M  V30 1687 H 164.737 4.18066 -3.92293 0
M  V30 1688 H 163.134 3.82075 -4.62751 0
M  V30 1689 H 164.204 2.48552 -4.16353 0
M  V30 1690 N 165.547 1.27147 0.931209 0
M  V30 1691 C 166.772 1.16191 1.71797 0
M  V30 1692 C 167.197 -0.278004 1.86034 0
M  V30 1693 O 166.555 -1.20137 1.35782 0
M  V30 1694 C 166.603 1.84673 3.09723 0
M  V30 1695 O 165.707 1.14231 3.96264 0
M  V30 1696 H 165.048 0.404303 0.526721 0
M  V30 1697 H 167.578 1.68152 1.1656 0
M  V30 1698 H 167.588 1.91893 3.60057 0
M  V30 1699 H 166.263 2.89421 2.98677 0
M  V30 1700 H 164.84 1.15056 3.54706 0
M  V30 1701 N 167.025 -1.13721 1.09112 0
M  V30 1702 C 168.441 -1.36914 0.820174 0
M  V30 1703 C 168.641 -1.93356 -0.567079 0
M  V30 1704 O 167.697 -2.15093 -1.32255 0
M  V30 1705 C 169.01 -2.3235 1.90877 0
M  V30 1706 C 170.558 -2.45973 1.93562 0
M  V30 1707 C 171.033 -3.44714 3.01556 0
M  V30 1708 N 172.524 -3.52263 3.00775 0
M  V30 1709 C 173.259 -4.28536 3.80978 0
M  V30 1710 N 172.755 -5.07991 4.71081 0
M  V30 1711 N 174.548 -4.23804 3.69251 0
M  V30 1712 H 166.699 -0.754348 1.98553 0
M  V30 1713 H 168.962 -0.3944 0.862063 0
M  V30 1714 H 168.668 -1.98027 2.90651 0
M  V30 1715 H 168.542 -3.32332 1.78424 0
M  V30 1716 H 170.929 -2.79584 0.944286 0
M  V30 1717 H 171.01 -1.45926 2.10093 0
M  V30 1718 H 170.654 -3.11835 4.00901 0
M  V30 1719 H 170.584 -4.44558 2.82269 0
M  V30 1720 H 173.075 -2.95567 2.35475 0
M  V30 1721 H 173.388 -5.63487 5.28869 0
M  V30 1722 H 171.733 -5.07235 4.75119 0
M  V30 1723 H 174.924 -3.60806 2.98222 0
M  V30 1724 H 175.097 -4.82995 4.31995 0
M  V30 1725 N 168.503 -0.877838 -1.30888 0
M  V30 1726 C 169.919 -0.570844 -1.49042 0
M  V30 1727 C 170.119 0.893159 -1.80624 0
M  V30 1728 O 169.175 1.67485 -1.88958 0
M  V30 1729 C 170.488 -1.47784 -2.61878 0
M  V30 1730 C 172.036 -1.48071 -2.75761 0
M  V30 1731 C 172.511 -2.37347 -3.91702 0
M  V30 1732 N 174.002 -2.35271 -3.99001 0
M  V30 1733 C 174.737 -3.01063 -4.88004 0
M  V30 1734 N 174.233 -3.76055 -5.81854 0
M  V30 1735 N 176.026 -2.90332 -4.81315 0
M  V30 1736 H 168.177 -1.82502 -1.0866 0
M  V30 1737 H 170.44 -0.780797 -0.537644 0
M  V30 1738 H 170.146 -2.51993 -2.45341 0
M  V30 1739 H 170.02 -1.18215 -3.58197 0
M  V30 1740 H 172.407 -0.446166 -2.91708 0
M  V30 1741 H 172.488 -1.81668 -1.80085 0
M  V30 1742 H 172.132 -3.40883 -3.76512 0
M  V30 1743 H 172.062 -2.01071 -4.86701 0
M  V30 1744 H 174.553 -1.80768 -3.3186 0
M  V30 1745 H 174.866 -4.23366 -6.46514 0
M  V30 1746 H 173.211 -3.80163 -5.81808 0
M  V30 1747 H 176.402 -2.31278 -4.06974 0
M  V30 1748 H 176.575 -3.41885 -5.50471 0
M  V30 1749 N 169.982 1.44106 -0.638065 0
M  V30 1750 C 170.912 2.33448 0.0494287 0
M  V30 1751 C 171.893 1.48606 0.827672 0
M  V30 1752 O 173.078 1.77308 0.792173 0
M  V30 1753 C 170.208 3.31771 1.02691 0
M  V30 1754 C 169.162 4.26485 0.359823 0
M  V30 1755 C 168.488 5.14729 1.44769 0
M  V30 1756 C 169.788 5.17056 -0.738296 0
M  V30 1757 H 171.482 2.91183 -0.696636 0
M  V30 1758 H 169.028 1.40014 -0.336456 0
M  V30 1759 H 170.981 3.93161 1.51666 0
M  V30 1760 H 169.705 2.7226 1.80395 0
M  V30 1761 H 168.364 3.66437 -0.10934 0
M  V30 1762 H 168.012 4.51566 2.21578 0
M  V30 1763 H 167.712 5.78913 1.00668 0
M  V30 1764 H 169.236 5.78991 1.93911 0
M  V30 1765 H 170.65 5.72342 -0.331354 0
M  V30 1766 H 169.047 5.89879 -1.10286 0
M  V30 1767 H 170.117 4.57652 -1.60258 0
M  V30 1768 N 171.46 0.379036 1.52974 0
M  V30 1769 C 172.407 -0.461048 2.26148 0
M  V30 1770 C 173.377 -1.06637 1.27349 0
M  V30 1771 O 174.562 -1.09633 1.56157 0
M  V30 1772 C 171.702 -1.58782 3.06402 0
M  V30 1773 C 170.815 -1.00636 4.20115 0
M  V30 1774 C 169.95 -2.10334 4.87784 0
M  V30 1775 C 168.989 -1.49724 5.93506 0
M  V30 1776 N 168.126 -2.5331 6.54812 0
M  V30 1777 H 172.966 0.169429 2.97518 0
M  V30 1778 H 170.503 0.0953806 1.4679 0
M  V30 1779 H 172.461 -2.25174 3.51215 0
M  V30 1780 H 171.091 -2.18876 2.37261 0
M  V30 1781 H 170.143 -0.232332 3.7969 0
M  V30 1782 H 171.455 -0.523343 4.96047 0
M  V30 1783 H 170.609 -2.84519 5.35849 0
M  V30 1784 H 169.348 -2.61992 4.11353 0
M  V30 1785 H 168.353 -0.740598 5.44789 0
M  V30 1786 H 169.578 -0.988732 6.71864 0
M  V30 1787 H 167.524 -3.04156 5.81227 0
M  V30 1788 H 167.441 -2.09734 7.26325 0
M  V30 1789 H 168.709 -3.27155 7.07524 0
M  V30 1790 N 172.938 -1.57226 0.108567 0
M  V30 1791 C 174.184 -1.95121 -0.552761 0
M  V30 1792 C 174.517 -0.991345 -1.66991 0
M  V30 1793 O 173.792 -0.0267211 -1.94482 0
M  V30 1794 C 174.075 -3.43039 -1.09528 0
M  V30 1795 C 173.928 -4.49797 0.0177332 0
M  V30 1796 C 175.247 -3.92567 -1.98945 0
M  V30 1797 H 172.366 -0.709496 -0.199461 0
M  V30 1798 H 175.008 -1.89126 0.182011 0
M  V30 1799 H 173.158 -3.48279 -1.72146 0
M  V30 1800 H 174.83 -4.56661 0.652584 0
M  V30 1801 H 173.073 -4.284 0.682309 0
M  V30 1802 H 173.744 -5.50528 -0.402919 0
M  V30 1803 H 176.22 -3.89565 -1.46214 0
M  V30 1804 H 175.096 -4.96605 -2.33827 0
M  V30 1805 H 175.357 -3.32648 -2.91201 0
M  V30 1806 N 174.416 0.165178 -1.56732 0
M  V30 1807 C 175.644 0.896218 -1.86482 0
M  V30 1808 C 176.059 1.75555 -0.694675 0
M  V30 1809 O 175.416 1.79379 0.33607 0
M  V30 1810 C 175.467 1.76792 -3.1532 0
M  V30 1811 O 175.188 0.943239 -4.27825 0
M  V30 1812 C 176.689 2.6081 -3.58459 0
M  V30 1813 H 173.909 0.260064 -0.618553 0
M  V30 1814 H 176.453 0.163428 -2.03846 0
M  V30 1815 H 174.608 2.45398 -2.99764 0
M  V30 1816 H 175.022 1.53998 -5.01383 0
M  V30 1817 H 176.496 3.17579 -4.51495 0
M  V30 1818 H 176.973 3.35977 -2.82872 0
M  V30 1819 H 177.579 1.97526 -3.76648 0
M  V30 1820 N 175.894 1.51508 0.433938 0
M  V30 1821 C 177.142 1.6402 1.18075 0
M  V30 1822 C 177.463 0.360328 1.91642 0
M  V30 1823 O 176.733 -0.623945 1.85698 0
M  V30 1824 H 175.313 0.6045 0.43885 0
M  V30 1825 H 177.975 1.88452 0.497178 0
M  V30 1826 H 177.071 2.46949 1.90847 0
M  V30 1827 N 177.372 -0.689602 1.41712 0
M  V30 1828 C 178.649 -1.44457 1.31877 0
M  V30 1829 C 179.029 -2.11039 -0.0508537 0
M  V30 1830 O 178.377 -2.02138 -1.06547 0
M  V30 1831 C 178.587 -2.45913 2.47645 0
M  V30 1832 C 179.935 -3.10991 2.89084 0
M  V30 1833 O 180.959 -2.56238 2.47428 0
M  V30 1834 O 179.818 -4.10174 3.61137 0
M  V30 1835 H 176.912 -0.64362 0.519309 0
M  V30 1836 H 179.458 -0.719576 1.53689 0
M  V30 1837 H 178.23 -1.95409 3.39015 0
M  V30 1838 H 177.853 -3.25913 2.27742 0
M  V30 1839 N 178.85 -1.27639 -0.924453 0
M  V30 1840 C 179.78 -1.13166 -2.04244 0
M  V30 1841 C 180.761 -0.032256 -1.70069 0
M  V30 1842 O 181.946 -0.207328 -1.9309 0
M  V30 1843 C 179.076 -0.781496 -3.38393 0
M  V30 1844 C 178.03 -1.83449 -3.86692 0
M  V30 1845 C 177.356 -1.33822 -5.17683 0
M  V30 1846 C 178.656 -3.23917 -4.09726 0
M  V30 1847 H 180.35 -2.06689 -2.1661 0
M  V30 1848 H 177.896 -0.995136 -1.04082 0
M  V30 1849 H 179.849 -0.667057 -4.16087 0
M  V30 1850 H 178.573 0.189439 -3.2605 0
M  V30 1851 H 177.232 -1.93789 -3.11193 0
M  V30 1852 H 176.88 -0.35665 -5.01734 0
M  V30 1853 H 176.58 -2.04224 -5.50968 0
M  V30 1854 H 178.104 -1.23679 -5.97943 0
M  V30 1855 H 179.518 -3.16559 -4.77978 0
M  V30 1856 H 177.915 -3.92059 -4.54324 0
M  V30 1857 H 178.985 -3.68729 -3.14908 0
M  V30 1858 N 180.328 1.1314 -1.09713 0
M  V30 1859 C 181.575 1.84484 -0.834987 0
M  V30 1860 C 181.903 1.83689 0.639418 0
M  V30 1861 O 181.158 1.2724 1.4869 0
M  V30 1862 C 181.457 3.32167 -1.3191 0
M  V30 1863 C 181.123 3.53139 -2.80363 0
M  V30 1864 C 179.785 3.58571 -3.20905 0
M  V30 1865 C 182.137 3.60866 -3.76065 0
M  V30 1866 C 179.465 3.69267 -4.55916 0
M  V30 1867 C 181.817 3.73089 -5.10869 0
M  V30 1868 C 180.481 3.76775 -5.50996 0
M  V30 1869 H 179.751 0.675073 -0.305544 0
M  V30 1870 H 182.398 1.33554 -1.37243 0
M  V30 1871 H 180.703 3.85469 -0.701517 0
M  V30 1872 H 182.4 3.85821 -1.09284 0
M  V30 1873 H 178.99 3.49569 -2.47991 0
M  V30 1874 H 183.174 3.55946 -3.45855 0
M  V30 1875 H 178.43 3.70388 -4.86438 0
M  V30 1876 H 182.604 3.78011 -5.84877 0
M  V30 1877 H 180.231 3.84815 -6.55608 0
M  V30 1878 N 181.806 0.884767 1.30421 0
M  V30 1879 C 183.083 0.423185 1.90967 0
M  V30 1880 C 183.463 -1.09605 1.80416 0
M  V30 1881 O 182.811 -1.93126 1.22125 0
M  V30 1882 C 183.021 0.921056 3.36627 0
M  V30 1883 C 184.369 0.955903 4.137 0
M  V30 1884 O 185.393 0.867706 3.4547 0
M  V30 1885 O 184.252 1.08614 5.35598 0
M  V30 1886 H 181.346 0.129369 0.816819 0
M  V30 1887 H 183.892 0.973653 1.3899 0
M  V30 1888 H 182.664 1.96489 3.3839 0
M  V30 1889 H 182.287 0.349741 3.96059 0
M  V30 1890 N 183.284 -1.43765 0.645699 0
M  V30 1891 C 184.533 -2.01116 0.153412 0
M  V30 1892 C 184.846 -1.51493 -1.23731 0
M  V30 1893 O 186.052 -2.01067 -1.8244 0
M  V30 1894 C 184.508 -3.59206 0.223473 0
M  V30 1895 C 184.116 -4.17823 1.61642 0
M  V30 1896 C 185.86 -4.23972 -0.211597 0
M  V30 1897 C 183.767 -5.68183 1.64081 0
M  V30 1898 H 182.697 -0.752093 0.0535891 0
M  V30 1899 H 185.348 -1.6482 0.806633 0
M  V30 1900 H 183.73 -3.92867 -0.497118 0
M  V30 1901 H 184.904 -3.95674 2.36176 0
M  V30 1902 H 183.219 -3.65399 1.99681 0
M  V30 1903 H 185.816 -5.34275 -0.213112 0
M  V30 1904 H 186.159 -3.97352 -1.24165 0
M  V30 1905 H 186.692 -3.95166 0.456988 0
M  V30 1906 H 183.431 -5.99559 2.64971 0
M  V30 1907 H 182.951 -5.9241 0.938611 0
M  V30 1908 H 184.63 -6.32085 1.3812 0
M  V30 1909 N 184.763 -0.387143 -1.52771 0
M  V30 1910 C 185.696 0.493123 -2.22808 0
M  V30 1911 C 186.674 1.0658 -1.22798 0
M  V30 1912 O 187.858 1.11785 -1.51777 0
M  V30 1913 C 184.985 1.68238 -2.93962 0
M  V30 1914 C 184.031 1.23515 -4.08223 0
M  V30 1915 S 184.864 0.21848 -5.35054 0
M  V30 1916 C 186.02 1.41357 -6.09729 0
M  V30 1917 H 186.253 -0.101625 -2.97126 0
M  V30 1918 H 183.786 -0.171323 -1.53447 0
M  V30 1919 H 185.744 2.36443 -3.35567 0
M  V30 1920 H 184.405 2.24842 -2.19328 0
M  V30 1921 H 183.598 2.12304 -4.57103 0
M  V30 1922 H 183.2 0.632044 -3.68621 0
M  V30 1923 H 185.492 2.34101 -6.3577 0
M  V30 1924 H 186.435 0.965736 -7.01484 0
M  V30 1925 H 186.843 1.6294 -5.40473 0
M  V30 1926 N 186.241 1.57166 -0.116904 0
M  V30 1927 C 187.466 1.999 0.55271 0
M  V30 1928 C 187.891 0.996039 1.59564 0
M  V30 1929 O 187.249 -0.032556 1.81271 0
M  V30 1930 C 187.297 3.4152 1.15742 0
M  V30 1931 O 186.401 3.44106 2.27299 0
M  V30 1932 H 185.742 0.649447 0.138258 0
M  V30 1933 H 188.272 2.03573 -0.204759 0
M  V30 1934 H 188.282 3.79684 1.49346 0
M  V30 1935 H 186.957 4.14034 0.393493 0
M  V30 1936 H 185.534 3.17759 1.9515 0
M  V30 1937 N 187.719 -0.156864 1.56817 0
M  V30 1938 C 188.967 -0.869404 1.82444 0
M  V30 1939 C 189.288 -1.82147 0.69623 0
M  V30 1940 O 188.558 -1.93847 -0.28287 0
M  V30 1941 H 187.138 -0.324043 0.673056 0
M  V30 1942 H 189.8 -0.153224 1.94297 0
M  V30 1943 H 188.896 -1.43761 2.77019 0
M  V30 1944 N 189.197 -1.51736 -0.425897 0
M  V30 1945 C 190.129 -1.70083 -1.53638 0
M  V30 1946 C 191.142 -0.581349 -1.52066 0
M  V30 1947 O 192.331 -0.856017 -1.56635 0
M  V30 1948 C 189.431 -1.71078 -2.9255 0
M  V30 1949 C 188.604 -2.99795 -3.185 0
M  V30 1950 C 187.663 -2.92825 -4.37196 0
M  V30 1951 O 186.689 -3.66756 -4.35291 0
M  V30 1952 N 187.891 -2.0946 -5.41393 0
M  V30 1953 H 190.656 -2.65882 -1.383 0
M  V30 1954 H 188.217 -1.49765 -0.614988 0
M  V30 1955 H 190.209 -1.63969 -3.69995 0
M  V30 1956 H 188.779 -0.828242 -3.01428 0
M  V30 1957 H 187.999 -3.20684 -2.2925 0
M  V30 1958 H 189.287 -3.84977 -3.32671 0
M  V30 1959 H 188.685 -1.48792 -5.45781 0
M  V30 1960 H 187.242 -2.08221 -6.17647 0
M  V30 1961 N 190.675 0.682077 -1.42076 0
M  V30 1962 C 191.903 1.47057 -1.4554 0
M  V30 1963 C 192.318 1.8869 -0.0645779 0
M  V30 1964 O 191.675 1.57666 0.919115 0
M  V30 1965 C 191.726 2.72442 -2.37609 0
M  V30 1966 O 191.447 2.32559 -3.71279 0
M  V30 1967 C 192.948 3.66069 -2.50017 0
M  V30 1968 H 190.168 0.452737 -0.495248 0
M  V30 1969 H 192.712 0.838695 -1.8651 0
M  V30 1970 H 190.867 3.31835 -1.9991 0
M  V30 1971 H 191.281 3.13475 -4.20516 0
M  V30 1972 H 192.755 4.50792 -3.18576 0
M  V30 1973 H 193.232 4.11476 -1.53572 0
M  V30 1974 H 193.838 3.12572 -2.88407 0
M  V30 1975 N 192.153 1.28127 0.917671 0
M  V30 1976 C 193.43 1.05761 1.64542 0
M  V30 1977 C 193.81 -0.404344 2.07191 0
M  V30 1978 O 193.158 -1.38963 1.81388 0
M  V30 1979 C 193.368 2.02857 2.83989 0
M  V30 1980 C 194.716 2.32786 3.551 0
M  V30 1981 O 195.74 2.0091 2.94132 0
M  V30 1982 O 194.599 2.87169 4.64969 0
M  V30 1983 H 191.693 0.403916 0.721652 0
M  V30 1984 H 194.239 1.39431 0.967322 0
M  V30 1985 H 193.011 3.01407 2.49538 0
M  V30 1986 H 192.634 1.69809 3.59514 0
M  V30 1987 N 193.631 -1.12557 1.10312 0
M  V30 1988 C 194.877 -1.84311 0.846011 0
M  V30 1989 C 195.21 -1.83805 -0.626859 0
M  V30 1990 O 194.485 -1.28268 -1.46211 0
M  V30 1991 C 194.768 -3.32048 1.39341 0
M  V30 1992 C 194.621 -3.41016 2.93305 0
M  V30 1993 C 195.94 -4.27764 1.03468 0
M  V30 1994 H 193.059 -0.669192 0.30879 0
M  V30 1995 H 195.701 -1.32057 1.36605 0
M  V30 1996 H 193.851 -3.76678 0.951087 0
M  V30 1997 H 195.523 -3.05031 3.46055 0
M  V30 1998 H 193.766 -2.81603 3.29973 0
M  V30 1999 H 194.437 -4.44948 3.26689 0
M  V30 2000 H 196.913 -3.91253 1.41633 0
M  V30 2001 H 195.789 -5.29549 1.44463 0
M  V30 2002 H 196.05 -4.42064 -0.0560404 0
M  V30 2003 N 195.109 -0.891671 -1.2995 0
M  V30 2004 C 196.386 -0.433307 -1.9074 0
M  V30 2005 C 196.766 1.08646 -1.80995 0
M  V30 2006 O 196.114 1.92476 -1.23147 0
M  V30 2007 C 196.324 -0.938895 -3.36134 0
M  V30 2008 C 197.672 -0.977829 -4.13187 0
M  V30 2009 O 198.696 -0.886015 -3.45005 0
M  V30 2010 O 197.555 -1.11453 -5.35015 0
M  V30 2011 H 194.649 -0.133699 -0.816121 0
M  V30 2012 H 197.195 -0.981011 -1.38471 0
M  V30 2013 H 195.967 -1.98281 -3.37343 0
M  V30 2014 H 195.59 -0.37074 -3.95868 0
M  V30 2015 N 196.587 1.43421 -0.653314 0
M  V30 2016 C 197.537 2.2792 0.060558 0
M  V30 2017 C 198.521 1.39906 0.794677 0
M  V30 2018 O 199.713 1.63536 0.677128 0
M  V30 2019 C 196.842 3.27603 1.0262 0
M  V30 2020 C 195.928 4.23104 0.290551 0
M  V30 2021 N 196.319 5.01031 -0.692967 0
M  V30 2022 C 194.617 4.42816 0.531984 0
M  V30 2023 C 195.318 5.70626 -1.12963 0
M  V30 2024 N 194.294 5.41617 -0.463867 0
M  V30 2025 H 198.096 2.85585 -0.694143 0
M  V30 2026 H 195.61 1.55126 -0.480602 0
M  V30 2027 H 197.607 3.86918 1.55242 0
M  V30 2028 H 196.267 2.71499 1.78096 0
M  V30 2029 H 197.278 5.0669 -1.07169 0
M  V30 2030 H 193.955 3.97782 1.26791 0
M  V30 2031 H 195.345 6.4318 -1.94343 0
M  V30 2032 N 198.065 0.39524 1.52563 0
M  V30 2033 C 199.476 -0.0774719 1.86539 0
M  V30 2034 C 199.827 -1.45641 1.31466 0
M  V30 2035 O 198.952 -2.06459 0.648367 0
M  V30 2036 C 199.547 -0.147356 3.38479 0
M  V30 2037 C 198.106 -0.564373 3.72145 0
M  V30 2038 C 197.253 0.269919 2.75983 0
M  V30 2039 H 200.204 0.612876 1.46388 0
M  V30 2040 H 200.225 -0.965343 3.68051 0
M  V30 2041 H 199.737 0.856387 3.78534 0
M  V30 2042 H 197.838 -1.57527 3.37663 0
M  V30 2043 H 197.951 -0.318402 4.78041 0
M  V30 2044 H 196.315 -0.265696 2.5331 0
M  V30 2045 H 197.098 1.27175 3.18875 0
M  V30 2046 N 199.544 -1.57102 0.125237 0
M  V30 2047 C 200.474 -2.18659 -0.819174 0
M  V30 2048 C 201.455 -1.12843 -1.27281 0
M  V30 2049 O 202.64 -1.41104 -1.33429 0
M  V30 2050 C 199.77 -2.79096 -2.06695 0
M  V30 2051 C 198.724 -3.90548 -1.75088 0
M  V30 2052 C 198.05 -4.37821 -3.06948 0
M  V30 2053 C 199.35 -5.12356 -1.01435 0
M  V30 2054 H 201.044 -2.9783 -0.306202 0
M  V30 2055 H 198.59 -1.4326 -0.145839 0
M  V30 2056 H 200.543 -3.2082 -2.73226 0
M  V30 2057 H 199.267 -1.97223 -2.60328 0
M  V30 2058 H 197.926 -3.49409 -1.10944 0
M  V30 2059 H 197.574 -3.52799 -3.58527 0
M  V30 2060 H 197.274 -5.12982 -2.86571 0
M  V30 2061 H 198.798 -4.822 -3.74587 0
M  V30 2062 H 200.212 -5.5106 -1.58132 0
M  V30 2063 H 198.609 -5.9314 -0.911319 0
M  V30 2064 H 199.679 -4.849 -0.00218681 0
M  V30 2065 N 201.022 0.148545 -1.56898 0
M  V30 2066 C 202.262 0.86765 -1.85071 0
M  V30 2067 C 202.626 1.78417 -0.709317 0
M  V30 2068 O 203.827 2.54261 -0.872049 0
M  V30 2069 C 202.098 1.62306 -3.1842 0
M  V30 2070 S 203.657 2.3878 -3.68143 0
M  V30 2071 H 200.475 0.290174 -0.649092 0
M  V30 2072 H 203.077 0.127755 -1.95082 0
M  V30 2073 H 201.781 0.941192 -3.99462 0
M  V30 2074 H 201.312 2.4039 -3.1141 0
M  V30 2075 H 203.327 3.63942 -3.37285 0
M  V30 2076 N 202.5 1.5196 0.417844 0
M  V30 2077 C 203.41 1.77554 1.53336 0
M  V30 2078 C 204.426 0.660655 1.6097 0
M  V30 2079 O 205.602 0.945099 1.77848 0
M  V30 2080 C 202.667 1.91291 2.89152 0
M  V30 2081 C 201.728 3.15183 2.91475 0
M  V30 2082 C 200.961 3.28256 4.20813 0
M  V30 2083 O 201.184 2.46798 5.14244 0
M  V30 2084 O 200.118 4.21356 4.29817 0
M  V30 2085 H 203.944 2.7222 1.34647 0
M  V30 2086 H 201.529 1.36698 0.602828 0
M  V30 2087 H 203.411 2.02199 3.69721 0
M  V30 2088 H 202.086 0.998129 3.07927 0
M  V30 2089 H 200.993 3.09739 2.09791 0
M  V30 2090 H 202.326 4.06414 2.77648 0
M  V30 2091 N 203.978 -0.674533 1.42435 0
M  V30 2092 C 204.888 -1.81751 1.48337 0
M  V30 2093 C 205.904 -1.69975 0.372099 0
M  V30 2094 O 207.08 -1.91521 0.62304 0
M  V30 2095 C 204.145 -3.17895 1.38361 0
M  V30 2096 C 203.206 -3.41625 2.59982 0
M  V30 2097 C 202.439 -4.71274 2.50473 0
M  V30 2098 O 202.662 -5.49197 1.54075 0
M  V30 2099 O 201.596 -4.96254 3.4061 0
M  V30 2100 H 205.422 -1.79728 2.44809 0
M  V30 2101 H 203.007 -0.830312 1.24202 0
M  V30 2102 H 204.889 -3.99136 1.35161 0
M  V30 2103 H 203.564 -3.20555 0.450144 0
M  V30 2104 H 202.471 -2.60231 2.68757 0
M  V30 2105 H 203.804 -3.43796 3.52229 0
M  V30 2106 N 205.456 -1.28612 -0.910864 0
M  V30 2107 C 206.696 -1.1719 -1.67469 0
M  V30 2108 C 207.06 0.274441 -1.90028 0
M  V30 2109 O 208.261 0.511425 -2.6389 0
M  V30 2110 C 206.532 -1.95137 -2.99427 0
M  V30 2111 S 208.091 -2.00122 -3.90508 0
M  V30 2112 H 204.909 -0.41806 -0.575106 0
M  V30 2113 H 207.511 -1.6275 -1.08317 0
M  V30 2114 H 206.215 -2.99381 -2.80712 0
M  V30 2115 H 205.746 -1.50137 -3.63624 0
M  V30 2116 H 207.761 -1.10981 -4.8363 0
M  V30 2117 N 206.934 1.1197 -1.10907 0
M  V30 2118 C 208.162 1.87402 -0.876824 0
M  V30 2119 C 208.577 1.79894 0.573025 0
M  V30 2120 O 207.934 1.17629 1.39534 0
M  V30 2121 C 207.985 3.36428 -1.32282 0
M  V30 2122 O 207.706 3.43765 -2.71582 0
M  V30 2123 C 209.207 4.28783 -1.12518 0
M  V30 2124 H 206.427 0.592793 -0.314384 0
M  V30 2125 H 208.971 1.41649 -1.47499 0
M  V30 2126 H 207.126 3.79706 -0.768229 0
M  V30 2127 H 207.54 4.3652 -2.90776 0
M  V30 2128 H 209.014 5.31613 -1.48633 0
M  V30 2129 H 209.491 4.39153 -0.0642394 0
M  V30 2130 H 210.097 3.91291 -1.66648 0
M  V30 2131 N 208.412 0.89855 1.29475 0
M  V30 2132 C 209.689 0.443416 1.90508 0
M  V30 2133 C 210.069 -1.07685 1.81569 0
M  V30 2134 O 209.417 -1.9182 1.24166 0
M  V30 2135 C 209.627 0.956708 3.35631 0
M  V30 2136 C 210.975 0.999728 4.12663 0
M  V30 2137 O 211.999 0.904299 3.4453 0
M  V30 2138 O 210.858 1.14289 5.34416 0
M  V30 2139 H 207.952 0.138025 0.815401 0
M  V30 2140 H 210.498 0.98834 1.37949 0
M  V30 2141 H 209.27 2.00067 3.36287 0
M  V30 2142 H 208.893 0.391728 3.95666 0
M  V30 2143 N 209.89 -1.43072 0.660911 0
M  V30 2144 C 211.118 -2.06067 0.185422 0
M  V30 2145 C 211.533 -1.49582 -1.15198 0
M  V30 2146 O 210.89 -0.630134 -1.71276 0
M  V30 2147 C 210.941 -3.61371 0.0966523 0
M  V30 2148 O 210.662 -4.15758 1.38119 0
M  V30 2149 C 212.163 -4.41455 -0.403996 0
M  V30 2150 H 209.383 -0.664459 0.0934604 0
M  V30 2151 H 211.927 -1.83447 0.90373 0
M  V30 2152 H 210.082 -3.8315 -0.572259 0
M  V30 2153 H 210.496 -5.09499 1.24542 0
M  V30 2154 H 211.97 -5.50437 -0.415045 0
M  V30 2155 H 212.447 -4.15036 -1.43674 0
M  V30 2156 H 213.053 -4.24663 0.232691 0
M  V30 2157 N 211.368 -0.403325 -1.52352 0
M  V30 2158 C 212.298 0.416205 -2.29761 0
M  V30 2159 C 213.279 1.05123 -1.33728 0
M  V30 2160 O 214.464 1.06134 -1.62632 0
M  V30 2161 C 211.594 1.53624 -3.11475 0
M  V30 2162 C 210.548 1.02653 -4.15507 0
M  V30 2163 C 209.874 2.23971 -4.85532 0
M  V30 2164 C 211.174 0.08463 -5.22231 0
M  V30 2165 H 212.868 -0.229701 -2.98518 0
M  V30 2166 H 210.414 -0.111913 -1.43564 0
M  V30 2167 H 212.367 2.1165 -3.64393 0
M  V30 2168 H 211.091 2.20994 -2.40477 0
M  V30 2169 H 209.75 0.46871 -3.63591 0
M  V30 2170 H 209.398 2.89883 -4.11068 0
M  V30 2171 H 209.098 1.90521 -5.55856 0
M  V30 2172 H 210.622 2.82614 -5.41259 0
M  V30 2173 H 212.036 0.573509 -5.70424 0
M  V30 2174 H 210.433 -0.160783 -5.99885 0
M  V30 2175 H 211.503 -0.86237 -4.7717 0
M  V30 2176 N 212.846 1.57033 -0.133567 0
M  V30 2177 C 213.776 2.1909 0.807567 0
M  V30 2178 C 214.757 1.13517 1.26681 0
M  V30 2179 O 215.942 1.41809 1.32679 0
M  V30 2180 C 213.072 2.80188 2.05212 0
M  V30 2181 C 212.026 3.91471 1.73015 0
M  V30 2182 C 211.352 4.39443 3.04622 0
M  V30 2183 C 212.652 5.12886 0.987168 0
M  V30 2184 H 214.346 2.97988 0.290403 0
M  V30 2185 H 211.892 1.43335 0.138239 0
M  V30 2186 H 213.845 3.22264 2.71521 0
M  V30 2187 H 212.569 1.98601 2.59278 0
M  V30 2188 H 211.228 3.49993 1.0909 0
M  V30 2189 H 210.876 3.54695 3.56651 0
M  V30 2190 H 210.576 5.14495 2.83847 0
M  V30 2191 H 212.1 4.8418 3.72024 0
M  V30 2192 H 213.514 5.51891 1.55208 0
M  V30 2193 H 211.911 5.93615 0.87985 0
M  V30 2194 H 212.981 4.84894 -0.0235286 0
M  V30 2195 N 214.325 -0.140222 1.56975 0
M  V30 2196 C 215.602 -0.880769 1.74648 0
M  V30 2197 C 215.982 -1.99036 0.703404 0
M  V30 2198 O 215.33 -2.26821 -0.27648 0
M  V30 2199 C 215.54 -1.417 3.18939 0
M  V30 2200 C 216.888 -1.87774 3.80823 0
M  V30 2201 O 217.912 -1.51427 3.2241 0
M  V30 2202 O 216.771 -2.54827 4.83452 0
M  V30 2203 H 213.865 -0.416713 0.714338 0
M  V30 2204 H 216.411 -0.125618 1.69234 0
M  V30 2205 H 215.183 -0.619902 3.86359 0
M  V30 2206 H 214.806 -2.23546 3.28805 0
M  V30 2207 N 215.803 -1.52179 -0.40978 0
M  V30 2208 C 216.735 -1.71703 -1.51825 0
M  V30 2209 C 217.748 -0.597445 -1.51441 0
M  V30 2210 O 218.937 -0.872582 -1.55719 0
M  V30 2211 C 216.037 -1.74171 -2.90719 0
M  V30 2212 C 215.21 -3.03156 -3.15302 0
M  V30 2213 C 214.269 -2.97445 -4.34065 0
M  V30 2214 O 213.295 -3.71352 -4.31377 0
M  V30 2215 N 214.497 -2.15191 -5.39141 0
M  V30 2216 H 217.262 -2.67334 -1.35472 0
M  V30 2217 H 214.823 -1.50409 -0.599069 0
M  V30 2218 H 216.815 -1.67884 -3.68235 0
M  V30 2219 H 215.385 -0.860166 -3.00533 0
M  V30 2220 H 214.605 -3.23097 -2.25836 0
M  V30 2221 H 215.893 -3.88484 -3.28569 0
M  V30 2222 H 215.291 -1.54573 -5.44173 0
M  V30 2223 H 213.848 -2.1476 -6.15403 0
M  V30 2224 N 217.281 0.66697 -1.42791 0
M  V30 2225 C 218.211 1.79218 -1.49677 0
M  V30 2226 C 219.192 1.66405 -0.352623 0
M  V30 2227 O 220.377 1.85708 -0.567993 0
M  V30 2228 C 217.507 3.17565 -1.40605 0
M  V30 2229 C 216.461 3.45124 -2.53127 0
M  V30 2230 C 215.787 4.83127 -2.29112 0
M  V30 2231 C 217.087 3.41236 -3.95418 0
M  V30 2232 H 218.781 1.73713 -2.43853 0
M  V30 2233 H 216.327 0.83432 -1.17367 0
M  V30 2234 H 218.28 3.96022 -1.44029 0
M  V30 2235 H 217.004 3.23767 -0.429271 0
M  V30 2236 H 215.663 2.69031 -2.49034 0
M  V30 2237 H 215.311 4.85988 -1.29709 0
M  V30 2238 H 215.011 5.02528 -3.04531 0
M  V30 2239 H 216.535 5.63859 -2.34297 0
M  V30 2240 H 217.949 4.09651 -4.01073 0
M  V30 2241 H 216.346 3.72173 -4.70752 0
M  V30 2242 H 217.416 2.39665 -4.21532 0
M  V30 2243 N 218.759 1.29093 0.90403 0
M  V30 2244 C 220.036 1.075 1.63411 0
M  V30 2245 C 220.416 -0.382346 2.07609 0
M  V30 2246 O 219.764 -1.37031 1.82851 0
M  V30 2247 C 219.974 2.05858 2.81822 0
M  V30 2248 C 221.322 2.36539 3.52611 0
M  V30 2249 O 222.346 2.04019 2.91984 0
M  V30 2250 O 221.205 2.92085 4.61897 0
M  V30 2251 H 218.299 0.411547 0.717327 0
M  V30 2252 H 220.845 1.40449 0.952479 0
M  V30 2253 H 219.617 3.04037 2.46327 0
M  V30 2254 H 219.24 1.73613 3.57693 0
M  V30 2255 N 220.237 -1.11381 1.11499 0
M  V30 2256 C 221.465 -1.86934 0.88675 0
M  V30 2257 C 221.88 -1.80195 -0.563476 0
M  V30 2258 O 221.237 -1.18367 -1.38908 0
M  V30 2259 C 221.288 -3.35722 1.34064 0
M  V30 2260 O 221.009 -3.4232 2.73401 0
M  V30 2261 C 222.51 -4.2818 1.14791 0
M  V30 2262 H 219.73 -0.591117 0.317523 0
M  V30 2263 H 222.274 -1.40865 1.48248 0
M  V30 2264 H 220.429 -3.79294 0.788355 0
M  V30 2265 H 220.843 -4.34971 2.93087 0
M  V30 2266 H 222.317 -5.30817 1.5145 0
M  V30 2267 H 222.794 -4.39113 0.0875279 0
M  V30 2268 H 223.4 -3.90402 1.68721 0
M  V30 2269 N 221.715 -0.905404 -1.28997 0
M  V30 2270 C 222.647 -0.344748 -2.26592 0
M  V30 2271 C 223.66 0.512135 -1.54535 0
M  V30 2272 O 224.849 0.328368 -1.75454 0
M  V30 2273 C 221.949 0.526587 -3.34784 0
M  V30 2274 C 221.122 -0.305871 -4.36329 0
M  V30 2275 C 220.181 0.499209 -5.23827 0
M  V30 2276 O 219.207 -0.0853004 -5.69136 0
M  V30 2277 N 220.409 1.80408 -5.51755 0
M  V30 2278 H 223.174 -1.18359 -2.75338 0
M  V30 2279 H 220.735 -0.770481 -1.42391 0
M  V30 2280 H 222.727 1.07171 -3.90252 0
M  V30 2281 H 221.297 1.26613 -2.85811 0
M  V30 2282 H 220.517 -1.0324 -3.80441 0
M  V30 2283 H 221.805 -0.875773 -5.01206 0
M  V30 2284 H 221.203 2.3016 -5.16762 0
M  V30 2285 H 219.76 2.29621 -6.10014 0
M  V30 2286 N 223.193 1.4272 -0.668489 0
M  V30 2287 C 224.123 2.335 -0.000100175 0
M  V30 2288 C 225.104 1.50328 0.795964 0
M  V30 2289 O 226.289 1.78949 0.754385 0
M  V30 2290 C 223.419 3.33874 0.956302 0
M  V30 2291 C 222.373 4.27152 0.269278 0
M  V30 2292 C 221.699 5.17684 1.33818 0
M  V30 2293 C 222.999 5.15373 -0.847805 0
M  V30 2294 H 224.693 2.89639 -0.758244 0
M  V30 2295 H 222.239 1.39269 -0.366079 0
M  V30 2296 H 224.192 3.9629 1.43292 0
M  V30 2297 H 222.916 2.76025 1.74579 0
M  V30 2298 H 221.575 3.66123 -0.187042 0
M  V30 2299 H 221.223 4.56165 2.1195 0
M  V30 2300 H 220.923 5.80918 0.883659 0
M  V30 2301 H 222.447 5.82974 1.81586 0
M  V30 2302 H 223.861 5.7151 -0.452681 0
M  V30 2303 H 222.258 5.87407 -1.22773 0
M  V30 2304 H 223.328 4.5415 -1.69929 0
M  V30 2305 N 224.671 0.411399 1.52136 0
M  V30 2306 C 225.619 -0.427633 2.28635 0
M  V30 2307 C 226.613 -1.04383 1.33419 0
M  V30 2308 O 227.819 -0.981772 1.50868 0
M  V30 2309 H 224.194 -0.156689 0.735495 0
M  V30 2310 H 226.165 0.238761 2.97443 0
M  V30 2311 C 224.914 -1.53082 3.12188 0
M  V30 2312 H 224.237 -1.06601 3.85326 0
M  V30 2313 H 225.677 -2.09167 3.68816 0
M  V30 2314 C 224.136 -2.49946 2.25895 0
M  V30 2315 O 224.666 -3.53884 1.90076 0
M  V30 2316 N 222.872 -2.2021 1.8962 0
M  V30 2317 H 222.419 -1.35719 2.18948 0
M  V30 2318 H 222.377 -2.85266 1.32176 0
M  V30 2319 N 226.149 -1.5696 0.141893 0
M  V30 2320 C 227.395 -1.9625 -0.511248 0
M  V30 2321 C 227.728 -1.02654 -1.64851 0
M  V30 2322 O 227.003 -0.0679676 -1.94381 0
M  V30 2323 C 227.286 -3.45285 -1.02227 0
M  V30 2324 C 227.139 -4.49658 0.113138 0
M  V30 2325 C 228.458 -3.96698 -1.90574 0
M  V30 2326 H 225.577 -0.713567 -0.184367 0
M  V30 2327 H 228.219 -1.88698 0.222087 0
M  V30 2328 H 226.369 -3.51852 -1.64719 0
M  V30 2329 H 228.041 -4.55174 0.749302 0
M  V30 2330 H 226.284 -4.26857 0.773026 0
M  V30 2331 H 226.955 -5.51258 -0.286053 0
M  V30 2332 H 229.431 -3.92578 -1.37918 0
M  V30 2333 H 228.307 -5.01453 -2.2324 0
M  V30 2334 H 228.568 -3.3875 -2.84079 0
M  V30 2335 N 227.627 0.131896 -1.57047 0
M  V30 2336 C 228.855 0.856461 -1.88341 0
M  V30 2337 C 229.27 1.74042 -0.731757 0
M  V30 2338 O 228.627 1.80051 0.297945 0
M  V30 2339 C 228.678 1.70064 -3.18999 0
M  V30 2340 O 228.399 0.852278 -4.2973 0
M  V30 2341 C 229.9 2.53148 -3.63911 0
M  V30 2342 H 227.12 0.246885 -0.62393 0
M  V30 2343 H 229.664 0.120152 -2.04147 0
M  V30 2344 H 227.819 2.38984 -3.04902 0
M  V30 2345 H 228.233 1.43329 -5.04537 0
M  V30 2346 H 229.707 3.07931 -4.58129 0
M  V30 2347 H 230.184 3.29901 -2.89935 0
M  V30 2348 H 230.79 1.89492 -3.80753 0
M  V30 2349 N 229.106 1.52395 0.401703 0
M  V30 2350 C 230.016 1.7917 1.51444 0
M  V30 2351 C 231.032 0.677691 1.6026 0
M  V30 2352 O 232.208 0.963909 1.76835 0
M  V30 2353 C 229.273 1.94347 2.87107 0
M  V30 2354 C 228.334 3.18257 2.88116 0
M  V30 2355 C 227.567 3.32701 4.17308 0
M  V30 2356 O 227.79 2.52238 5.11598 0
M  V30 2357 O 226.724 4.25891 4.25324 0
M  V30 2358 H 230.55 2.73633 1.31752 0
M  V30 2359 H 228.135 1.3733 0.588296 0
M  V30 2360 H 230.017 2.06109 3.67555 0
M  V30 2361 H 228.692 1.03073 3.06851 0
M  V30 2362 H 227.599 3.11947 2.06494 0
M  V30 2363 H 228.932 4.09336 2.73322 0
M  V30 2364 N 230.584 -0.659388 1.43143 0
M  V30 2365 C 231.532 -1.79374 1.4808 0
M  V30 2366 C 232.526 -1.65639 0.354988 0
M  V30 2367 O 233.732 -1.7206 0.528704 0
M  V30 2368 H 230.107 -0.591705 0.4641 0
M  V30 2369 H 232.078 -1.72329 2.43609 0
M  V30 2370 C 230.827 -3.17606 1.41499 0
M  V30 2371 H 230.15 -3.28809 2.27431 0
M  V30 2372 H 231.59 -3.96951 1.49015 0
M  V30 2373 C 230.049 -3.36642 0.131765 0
M  V30 2374 O 230.579 -3.93461 -0.809386 0
M  V30 2375 N 228.785 -2.90567 0.0439396 0
M  V30 2376 H 228.332 -2.44513 0.810619 0
M  V30 2377 H 228.29 -3.03681 -0.813969 0
M  V30 2378 N 232.062 -1.29571 -0.897171 0
M  V30 2379 C 232.972 -1.16808 -2.03453 0
M  V30 2380 C 233.988 -0.0907471 -1.73763 0
M  V30 2381 O 235.164 -0.303312 -1.99103 0
M  V30 2382 C 232.229 -0.848264 -3.36163 0
M  V30 2383 C 231.29 -2.0097 -3.79354 0
M  V30 2384 C 230.523 -1.70505 -5.05731 0
M  V30 2385 O 230.746 -0.62718 -5.66941 0
M  V30 2386 O 229.68 -2.5538 -5.45036 0
M  V30 2387 H 233.506 -2.12325 -2.17144 0
M  V30 2388 H 231.091 -1.09047 -1.02123 0
M  V30 2389 H 232.973 -0.684581 -4.15802 0
M  V30 2390 H 231.648 0.0771071 -3.23608 0
M  V30 2391 H 230.555 -2.22863 -3.00471 0
M  V30 2392 H 231.888 -2.91636 -3.96496 0
M  V30 2393 N 233.54 1.10788 -1.12088 0
M  V30 2394 C 234.78 1.84297 -0.883974 0
M  V30 2395 C 235.144 1.83036 0.579797 0
M  V30 2396 O 236.345 2.52061 0.933734 0
M  V30 2397 C 234.616 3.27173 -1.43849 0
M  V30 2398 S 236.175 4.17853 -1.33957 0
M  V30 2399 H 232.993 0.635433 -0.318977 0
M  V30 2400 H 235.595 1.33341 -1.4297 0
M  V30 2401 H 234.299 3.25658 -2.49749 0
M  V30 2402 H 233.83 3.83198 -0.890096 0
M  V30 2403 H 235.845 4.95239 -0.308603 0
M  V30 2404 N 235.018 0.912232 1.28515 0
M  V30 2405 C 235.95 0.35676 2.26406 0
M  V30 2406 C 236.963 -0.503933 1.54804 0
M  V30 2407 O 238.152 -0.319059 1.75625 0
M  V30 2408 C 235.252 -0.508825 3.35058 0
M  V30 2409 C 234.425 0.329007 4.36161 0
M  V30 2410 C 233.484 -0.471422 5.24084 0
M  V30 2411 O 232.51 0.115482 5.69083 0
M  V30 2412 N 233.712 -1.77479 5.52704 0
M  V30 2413 H 236.477 1.19818 2.74707 0
M  V30 2414 H 234.038 0.778022 1.4198 0
M  V30 2415 H 236.03 -1.051 3.90815 0
M  V30 2416 H 234.6 -1.25095 2.86478 0
M  V30 2417 H 233.82 1.05256 3.79888 0
M  V30 2418 H 235.108 0.90234 5.00735 0
M  V30 2419 H 234.506 -2.27417 5.17975 0
M  V30 2420 H 233.063 -2.26382 6.11224 0
M  V30 2421 N 236.496 -1.42363 0.676048 0
M  V30 2422 C 237.444 -2.32596 -0.0131507 0
M  V30 2423 C 238.438 -1.49891 -0.789238 0
M  V30 2424 O 239.644 -1.65955 -0.697061 0
M  V30 2425 H 236.019 -0.751647 -0.0230481 0
M  V30 2426 H 237.99 -2.88421 0.765243 0
M  V30 2427 C 236.739 -3.34479 -0.949702 0
M  V30 2428 H 236.062 -3.98158 -0.361938 0
M  V30 2429 H 237.502 -4.00199 -1.4006 0
M  V30 2430 C 235.961 -2.66838 -2.05667 0
M  V30 2431 O 236.491 -2.50124 -3.14326 0
M  V30 2432 N 234.697 -2.25843 -1.82875 0
M  V30 2433 H 234.244 -2.39637 -0.945085 0
M  V30 2434 H 234.202 -1.80918 -2.5713 0
M  V30 2435 N 237.974 -0.419461 -1.51915 0
M  V30 2436 C 239.204 0.151915 -2.06041 0
M  V30 2437 C 239.612 1.38539 -1.28855 0
M  V30 2438 O 238.955 1.80592 -0.336463 0
M  V30 2439 C 239.017 0.557119 -3.55157 0
M  V30 2440 C 238.681 -0.567054 -4.53468 0
M  V30 2441 C 239.678 -1.43379 -4.99738 0
M  V30 2442 C 237.363 -0.742693 -4.96779 0
M  V30 2443 C 239.357 -2.46102 -5.87973 0
M  V30 2444 C 237.044 -1.77322 -5.84808 0
M  V30 2445 C 238.042 -2.63078 -6.30301 0
M  V30 2446 O 237.73 -3.64364 -7.16585 0
M  V30 2447 H 237.462 0.0193293 -0.675724 0
M  V30 2448 H 240.016 -0.592073 -1.96682 0
M  V30 2449 H 238.246 1.35355 -3.62238 0
M  V30 2450 H 239.935 1.05759 -3.9188 0
M  V30 2451 H 240.701 -1.30954 -4.66986 0
M  V30 2452 H 236.58 -0.0848307 -4.60922 0
M  V30 2453 H 240.124 -3.13071 -6.23404 0
M  V30 2454 H 236.021 -1.89773 -6.16974 0
M  V30 2455 H 236.789 -3.60731 -7.34721 0
M  V30 2456 N 239.452 1.56882 -0.150215 0
M  V30 2457 C 240.399 2.16922 0.788244 0
M  V30 2458 C 241.369 1.10303 1.24187 0
M  V30 2459 O 242.554 1.38359 1.31383 0
M  V30 2460 C 239.694 2.79754 2.02068 0
M  V30 2461 C 238.807 4.00775 1.61257 0
M  V30 2462 C 237.942 4.51595 2.79705 0
M  V30 2463 C 236.981 5.65074 2.35282 0
M  V30 2464 N 236.118 6.10499 3.4675 0
M  V30 2465 H 240.958 2.96779 0.269444 0
M  V30 2466 H 238.495 1.46599 0.12128 0
M  V30 2467 H 240.453 3.14329 2.74323 0
M  V30 2468 H 239.083 2.02536 2.51354 0
M  V30 2469 H 238.135 3.72158 0.787553 0
M  V30 2470 H 239.447 4.82978 1.24633 0
M  V30 2471 H 238.601 4.88242 3.60145 0
M  V30 2472 H 237.34 3.68406 3.19576 0
M  V30 2473 H 236.345 5.28 1.53283 0
M  V30 2474 H 237.57 6.50052 1.96493 0
M  V30 2475 H 235.516 5.30243 3.86236 0
M  V30 2476 H 235.433 6.87637 3.14152 0
M  V30 2477 H 236.701 6.51791 4.27537 0
M  V30 2478 N 240.93 -0.123565 1.57115 0
M  V30 2479 C 242.346 -0.476961 1.52306 0
M  V30 2480 C 242.546 -1.82109 0.86248 0
M  V30 2481 O 241.602 -2.48586 0.442884 0
M  V30 2482 C 242.915 -0.465661 2.97073 0
M  V30 2483 C 244.463 -0.549534 3.08138 0
M  V30 2484 C 244.938 -0.568669 4.54456 0
M  V30 2485 N 246.429 -0.630237 4.58892 0
M  V30 2486 C 247.164 -0.666415 5.69514 0
M  V30 2487 N 246.66 -0.660514 6.89644 0
M  V30 2488 N 248.453 -0.709077 5.5761 0
M  V30 2489 H 240.604 0.757198 1.98445 0
M  V30 2490 H 242.867 0.278808 0.906074 0
M  V30 2491 H 242.573 0.454232 3.48754 0
M  V30 2492 H 242.447 -1.29513 3.54269 0
M  V30 2493 H 244.834 -1.45985 2.56461 0
M  V30 2494 H 244.915 0.307532 2.53945 0
M  V30 2495 H 244.559 0.337581 5.06777 0
M  V30 2496 H 244.489 -1.44256 5.06456 0
M  V30 2497 H 246.98 -0.641146 3.72421 0
M  V30 2498 H 247.293 -0.690616 7.69708 0
M  V30 2499 H 245.638 -0.628012 6.92157 0
M  V30 2500 H 248.829 -0.711019 4.62668 0
M  V30 2501 H 249.002 -0.733804 6.43832 0
M  V30 2502 N 242.408 -1.52605 -0.393616 0
M  V30 2503 C 243.648 -1.6911 -1.1481 0
M  V30 2504 C 244.012 -0.41969 -1.87357 0
M  V30 2505 O 245.213 -0.461034 -2.64817 0
M  V30 2506 C 243.484 -2.88909 -2.10395 0
M  V30 2507 S 245.043 -3.25977 -2.93742 0
M  V30 2508 H 241.861 -0.595337 -0.38871 0
M  V30 2509 H 244.463 -1.90641 -0.433178 0
M  V30 2510 H 243.167 -3.79672 -1.55812 0
M  V30 2511 H 242.698 -2.69698 -2.86403 0
M  V30 2512 H 244.713 -2.75806 -4.12487 0
M  V30 2513 N 243.887 0.651787 -1.4349 0
M  V30 2514 C 244.817 1.77621 -1.51569 0
M  V30 2515 C 245.798 1.66022 -0.370253 0
M  V30 2516 O 246.983 1.85095 -0.587658 0
M  V30 2517 C 244.113 3.16056 -1.43966 0
M  V30 2518 C 243.067 3.4242 -2.56774 0
M  V30 2519 C 242.393 4.8067 -2.34223 0
M  V30 2520 C 243.693 3.37023 -3.99015 0
M  V30 2521 H 245.387 1.71117 -2.45681 0
M  V30 2522 H 242.933 0.821825 -1.18246 0
M  V30 2523 H 244.886 3.94472 -1.48221 0
M  V30 2524 H 243.61 3.23293 -0.463586 0
M  V30 2525 H 242.269 2.66375 -2.51873 0
M  V30 2526 H 241.917 4.84585 -1.34856 0
M  V30 2527 H 241.617 4.9927 -3.09844 0
M  V30 2528 H 243.141 5.61342 -2.40265 0
M  V30 2529 H 244.555 4.05374 -4.05395 0
M  V30 2530 H 242.952 3.67159 -4.74673 0
M  V30 2531 H 244.022 2.3518 -4.2405 0
M  V30 2532 N 245.365 1.30045 0.890287 0
M  V30 2533 C 246.275 1.17885 2.02831 0
M  V30 2534 C 247.291 0.0999609 1.73713 0
M  V30 2535 O 248.467 0.313867 1.98939 0
M  V30 2536 C 245.532 0.866079 3.35708 0
M  V30 2537 C 244.593 2.02979 3.78283 0
M  V30 2538 C 243.826 1.73184 5.0482 0
M  V30 2539 O 244.049 0.657237 5.66601 0
M  V30 2540 O 242.983 2.58267 5.43674 0
M  V30 2541 H 246.809 2.13474 2.16015 0
M  V30 2542 H 244.394 1.09587 1.01543 0
M  V30 2543 H 246.276 0.706623 4.15433 0
M  V30 2544 H 244.951 -0.0599443 3.23644 0
M  V30 2545 H 243.858 2.24454 2.99285 0
M  V30 2546 H 245.191 2.93734 3.94944 0
M  V30 2547 N 246.843 -1.10192 1.12674 0
M  V30 2548 C 248.092 -1.81573 0.8783 0
M  V30 2549 C 248.405 -1.86249 -0.597557 0
M  V30 2550 O 249.611 -2.5386 -0.962681 0
M  V30 2551 C 248.067 -3.26149 1.52167 0
M  V30 2552 C 247.675 -3.29763 3.03249 0
M  V30 2553 C 249.419 -4.0234 1.3536 0
M  V30 2554 C 247.326 -4.68815 3.60508 0
M  V30 2555 H 246.256 -0.680394 0.324931 0
M  V30 2556 H 248.907 -1.23902 1.35353 0
M  V30 2557 H 247.289 -3.83832 0.974104 0
M  V30 2558 H 248.463 -2.8189 3.6452 0
M  V30 2559 H 246.778 -2.67059 3.19481 0
M  V30 2560 H 249.375 -5.05058 1.75559 0
M  V30 2561 H 249.718 -4.15235 0.297554 0
M  V30 2562 H 250.251 -3.51079 1.87052 0
M  V30 2563 H 246.99 -4.61121 4.65884 0
M  V30 2564 H 246.51 -5.17045 3.04014 0
M  V30 2565 H 248.189 -5.37785 3.59717 0
M  V30 2566 N 248.321 -0.919034 -1.28029 0
M  V30 2567 C 249.251 -0.428581 -2.29533 0
M  V30 2568 C 250.232 0.50659 -1.62381 0
M  V30 2569 O 251.417 0.413195 -1.89753 0
M  V30 2570 C 248.547 0.327388 -3.45753 0
M  V30 2571 C 247.501 -0.519137 -4.2484 0
M  V30 2572 C 246.827 0.365486 -5.33449 0
M  V30 2573 C 248.127 -1.77914 -4.91064 0
M  V30 2574 H 249.821 -1.27687 -2.70807 0
M  V30 2575 H 247.367 -0.615428 -1.30186 0
M  V30 2576 H 249.32 0.681378 -4.15855 0
M  V30 2577 H 248.044 1.20963 -3.03374 0
M  V30 2578 H 246.703 -0.855717 -3.56473 0
M  V30 2579 H 246.351 1.24642 -4.87312 0
M  V30 2580 H 246.051 -0.197356 -5.87268 0
M  V30 2581 H 247.575 0.715241 -6.06396 0
M  V30 2582 H 248.989 -1.49374 -5.53498 0
M  V30 2583 H 247.386 -2.2848 -5.54903 0
M  V30 2584 H 248.456 -2.50382 -4.15255 0
M  V30 2585 N 249.799 1.42003 -0.683588 0
M  V30 2586 C 250.709 2.34597 -0.0109075 0
M  V30 2587 C 251.725 1.55576 0.779245 0
M  V30 2588 O 252.901 1.88107 0.719555 0
M  V30 2589 C 249.966 3.34199 0.922588 0
M  V30 2590 C 249.027 4.29115 0.125984 0
M  V30 2591 C 248.26 5.23959 1.01502 0
M  V30 2592 O 248.483 5.23952 2.25456 0
M  V30 2593 O 247.417 6.00053 0.47111 0
M  V30 2594 H 251.243 2.93675 -0.773853 0
M  V30 2595 H 248.828 1.42654 -0.443861 0
M  V30 2596 H 250.71 3.95365 1.45823 0
M  V30 2597 H 249.385 2.77582 1.66523 0
M  V30 2598 H 248.292 3.71335 -0.453969 0
M  V30 2599 H 249.625 4.88798 -0.577736 0
M  V30 2600 N 251.277 0.427512 1.51691 0
M  V30 2601 C 252.209 -0.424521 2.25234 0
M  V30 2602 C 253.222 -0.994671 1.2888 0
M  V30 2603 O 254.411 -0.890483 1.54702 0
M  V30 2604 C 251.511 -1.60479 2.98496 0
M  V30 2605 C 250.684 -1.15527 4.21868 0
M  V30 2606 C 249.743 -2.20454 4.77793 0
M  V30 2607 O 248.769 -1.8029 5.39893 0
M  V30 2608 N 249.971 -3.52831 4.60967 0
M  V30 2609 H 252.736 0.205749 2.98993 0
M  V30 2610 H 250.297 0.255867 1.59865 0
M  V30 2611 H 252.289 -2.30276 3.32799 0
M  V30 2612 H 250.859 -2.14061 2.27809 0
M  V30 2613 H 250.079 -0.284736 3.9317 0
M  V30 2614 H 251.367 -0.832173 5.01949 0
M  V30 2615 H 250.765 -3.88201 4.11481 0
M  V30 2616 H 249.322 -4.18551 4.99658 0
M  V30 2617 N 252.755 -1.56801 0.158532 0
M  V30 2618 C 253.688 -2.13148 -0.815065 0
M  V30 2619 C 254.666 -1.0581 -1.23462 0
M  V30 2620 O 255.85 -1.3371 -1.32868 0
M  V30 2621 C 252.977 -2.6606 -2.09594 0
M  V30 2622 C 252.023 -3.85651 -1.82141 0
M  V30 2623 S 252.856 -5.26041 -1.00207 0
M  V30 2624 C 254.012 -5.8235 -2.29389 0
M  V30 2625 H 254.245 -2.95396 -0.335937 0
M  V30 2626 H 251.778 -1.54299 -0.0559391 0
M  V30 2627 H 253.736 -2.97195 -2.8317 0
M  V30 2628 H 252.397 -1.83921 -2.54621 0
M  V30 2629 H 251.59 -4.20958 -2.77147 0
M  V30 2630 H 251.192 -3.55338 -1.16667 0
M  V30 2631 H 253.484 -5.94485 -3.24952 0
M  V30 2632 H 254.427 -6.79688 -1.9857 0
M  V30 2633 H 254.835 -5.10675 -2.40564 0
M  V30 2634 N 254.233 0.115231 -1.57178 0
M  V30 2635 C 255.181 1.16014 -2.01602 0
M  V30 2636 C 256.175 1.42653 -0.913587 0
M  V30 2637 O 257.381 1.42571 -1.09879 0
M  V30 2638 H 253.756 0.391252 -0.642204 0
M  V30 2639 H 255.727 0.758998 -2.88586 0
M  V30 2640 C 254.476 2.47767 -2.4394 0
M  V30 2641 H 253.799 2.28108 -3.28339 0
M  V30 2642 H 255.239 3.19432 -2.78818 0
M  V30 2643 C 253.698 3.10617 -1.30455 0
M  V30 2644 O 254.228 3.96846 -0.622585 0
M  V30 2645 N 252.434 2.70553 -1.06064 0
M  V30 2646 H 251.981 2.00527 -1.61699 0
M  V30 2647 H 251.939 3.12934 -0.303284 0
M  V30 2648 N 255.711 1.52812 0.385517 0
M  V30 2649 C 256.621 1.80766 1.49535 0
M  V30 2650 C 257.637 0.694651 1.59532 0
M  V30 2651 O 258.813 0.982611 1.75803 0
M  V30 2652 C 255.878 1.97381 2.85029 0
M  V30 2653 C 254.939 3.21295 2.84724 0
M  V30 2654 C 254.172 3.37108 4.13756 0
M  V30 2655 O 254.395 2.5765 5.08893 0
M  V30 2656 O 253.329 4.30378 4.20783 0
M  V30 2657 H 257.155 2.75015 1.28842 0
M  V30 2658 H 254.74 1.37946 0.573697 0
M  V30 2659 H 256.622 2.09996 3.65349 0
M  V30 2660 H 255.297 1.06322 3.05741 0
M  V30 2661 H 254.204 3.1412 2.03174 0
M  V30 2662 H 255.537 4.12212 2.68965 0
M  V30 2663 N 257.189 -0.644168 1.43834 0
M  V30 2664 C 258.466 -1.40188 1.36406 0
M  V30 2665 C 258.846 -2.11094 0.0163124 0
M  V30 2666 O 258.194 -2.05426 -1.00062 0
M  V30 2667 C 258.404 -2.3791 2.55343 0
M  V30 2668 C 259.752 -3.01637 2.98832 0
M  V30 2669 O 260.776 -2.48237 2.55455 0
M  V30 2670 O 259.635 -3.98477 3.74003 0
M  V30 2671 H 256.729 -0.626773 0.539523 0
M  V30 2672 H 259.275 -0.670317 1.559 0
M  V30 2673 H 258.047 -1.84525 3.4506 0
M  V30 2674 H 257.67 -3.18503 2.37995 0
M  V30 2675 N 258.668 -1.30515 -0.883378 0
M  V30 2676 C 259.945 -1.10086 -1.6168 0
M  V30 2677 C 260.325 0.349269 -2.08191 0
M  V30 2678 O 259.673 1.34105 -1.85008 0
M  V30 2679 C 259.883 -2.10315 -2.78511 0
M  V30 2680 C 261.231 -2.42119 -3.48803 0
M  V30 2681 O 262.255 -2.08638 -2.88702 0
M  V30 2682 O 261.114 -2.99396 -4.57192 0
M  V30 2683 H 258.208 -0.422907 -0.710689 0
M  V30 2684 H 260.754 -1.41947 -0.930015 0
M  V30 2685 H 259.526 -3.07917 -2.41459 0
M  V30 2686 H 259.149 -1.79282 -3.54886 0
M  V30 2687 N 260.146 1.09593 -1.13257 0
M  V30 2688 C 261.371 1.8604 -0.916732 0
M  V30 2689 C 261.796 1.80504 0.529146 0
M  V30 2690 O 261.154 1.18127 1.37534 0
M  V30 2691 C 261.202 3.32017 -1.40703 0
M  V30 2692 O 260.306 4.08141 -0.591153 0
M  V30 2693 H 259.647 0.576943 -0.328683 0
M  V30 2694 H 262.177 1.38405 -1.50682 0
M  V30 2695 H 262.187 3.82865 -1.4099 0
M  V30 2696 H 260.862 3.35361 -2.45979 0
M  V30 2697 H 259.439 3.67084 -0.656005 0
M  V30 2698 N 261.624 0.925811 1.2754 0
M  V30 2699 C 262.534 0.428993 2.30644 0
M  V30 2700 C 263.55 -0.489387 1.66976 0
M  V30 2701 O 264.726 -0.372653 1.97922 0
M  V30 2702 C 261.791 -0.311967 3.45294 0
M  V30 2703 C 260.852 0.641098 4.24486 0
M  V30 2704 C 260.085 -0.0645955 5.33661 0
M  V30 2705 O 260.308 -1.28429 5.55754 0
M  V30 2706 O 259.242 0.606265 5.98839 0
M  V30 2707 H 263.068 1.28504 2.75173 0
M  V30 2708 H 260.653 0.691086 1.32455 0
M  V30 2709 H 262.535 -0.729972 4.15029 0
M  V30 2710 H 261.21 -1.14365 3.02824 0
M  V30 2711 H 260.117 1.10874 3.57292 0
M  V30 2712 H 261.45 1.43995 4.70666 0
M  V30 2713 N 263.102 -1.41638 0.69111 0
M  V30 2714 C 264.034 -2.29194 -0.0161523 0
M  V30 2715 C 265.047 -1.44549 -0.748955 0
M  V30 2716 O 266.236 -1.681 -0.6004 0
M  V30 2717 C 263.336 -3.22325 -1.0469 0
M  V30 2718 C 262.509 -4.35706 -0.384621 0
M  V30 2719 C 261.568 -5.09443 -1.31737 0
M  V30 2720 O 260.594 -5.63386 -0.811451 0
M  V30 2721 N 261.796 -5.16487 -2.64993 0
M  V30 2722 H 264.561 -2.90534 0.735523 0
M  V30 2723 H 262.122 -1.52742 0.53679 0
M  V30 2724 H 264.114 -3.68522 -1.67252 0
M  V30 2725 H 262.684 -2.62323 -1.70015 0
M  V30 2726 H 261.904 -3.91948 0.420804 0
M  V30 2727 H 263.192 -5.08743 0.0760765 0
M  V30 2728 H 262.59 -4.741 -3.08619 0
M  V30 2729 H 261.147 -5.66276 -3.22761 0
M  V30 2730 N 264.58 -0.43555 -1.51462 0
M  V30 2731 C 265.51 0.367376 -2.30592 0
M  V30 2732 C 266.491 1.02263 -1.35928 0
M  V30 2733 O 267.676 1.02661 -1.64847 0
M  V30 2734 C 264.806 1.46983 -3.14664 0
M  V30 2735 C 263.76 0.938161 -4.17591 0
M  V30 2736 C 263.086 2.13622 -4.90173 0
M  V30 2737 C 264.386 -0.0261621 -5.22293 0
M  V30 2738 H 266.08 -0.292969 -2.97963 0
M  V30 2739 H 263.626 -0.14234 -1.43295 0
M  V30 2740 H 265.579 2.03873 -3.688 0
M  V30 2741 H 264.303 2.15843 -2.4511 0
M  V30 2742 H 262.962 0.391481 -3.64504 0
M  V30 2743 H 262.61 2.81098 -4.17124 0
M  V30 2744 H 262.31 1.78688 -5.59772 0
M  V30 2745 H 263.834 2.7107 -5.47132 0
M  V30 2746 H 265.248 0.452384 -5.71512 0
M  V30 2747 H 263.645 -0.287992 -5.99409 0
M  V30 2748 H 264.715 -0.963391 -4.75233 0
M  V30 2749 N 266.058 1.56714 -0.166846 0
M  V30 2750 C 266.99 2.14914 0.796537 0
M  V30 2751 C 268.003 1.10357 1.19688 0
M  V30 2752 O 269.192 1.37561 1.13751 0
M  V30 2753 C 266.292 2.67326 2.08303 0
M  V30 2754 C 265.465 3.96493 1.84696 0
M  V30 2755 C 264.524 4.34014 2.97521 0
M  V30 2756 O 263.55 5.01973 2.6835 0
M  V30 2757 N 264.752 3.95208 4.25196 0
M  V30 2758 H 267.517 2.98205 0.299006 0
M  V30 2759 H 265.078 1.61892 0.0160839 0
M  V30 2760 H 267.07 2.89428 2.82867 0
M  V30 2761 H 265.64 1.88649 2.4926 0
M  V30 2762 H 264.86 3.82814 0.940602 0
M  V30 2763 H 266.148 4.8086 1.66285 0
M  V30 2764 H 265.546 3.40487 4.51758 0
M  V30 2765 H 264.103 4.2232 4.96477 0
M  V30 2766 N 267.536 -0.106894 1.57237 0
M  V30 2767 C 268.469 -1.16125 1.96444 0
M  V30 2768 C 269.447 -1.3947 0.835871 0
M  V30 2769 O 270.631 -1.53425 1.09513 0
M  V30 2770 C 267.758 -2.51277 2.27107 0
M  V30 2771 C 266.804 -2.44285 3.4961 0
M  V30 2772 S 267.637 -1.87077 5.01759 0
M  V30 2773 C 268.793 -3.23877 5.35588 0
M  V30 2774 H 269.026 -0.826971 2.85567 0
M  V30 2775 H 266.559 -0.314124 1.51171 0
M  V30 2776 H 268.517 -3.29035 2.45451 0
M  V30 2777 H 267.178 -2.81879 1.38576 0
M  V30 2778 H 266.371 -3.4387 3.68469 0
M  V30 2779 H 265.973 -1.74652 3.30715 0
M  V30 2780 H 268.265 -4.20122 5.31511 0
M  V30 2781 H 269.208 -3.09833 6.36717 0
M  V30 2782 H 269.616 -3.22864 4.63054 0
M  V30 2783 N 269.014 -1.53014 -0.377408 0
M  V30 2784 C 269.924 -1.81557 -1.48574 0
M  V30 2785 C 270.94 -0.703102 -1.59162 0
M  V30 2786 O 272.116 -0.99192 -1.75279 0
M  V30 2787 C 269.181 -1.9889 -2.83978 0
M  V30 2788 C 268.242 -3.22801 -2.83016 0
M  V30 2789 C 267.475 -3.39298 -4.11962 0
M  V30 2790 O 267.698 -2.60345 -5.0752 0
M  V30 2791 O 266.632 -4.32604 -4.18494 0
M  V30 2792 H 270.458 -2.75695 -1.27382 0
M  V30 2793 H 268.043 -1.38248 -0.566373 0
M  V30 2794 H 269.925 -2.11931 -3.6423 0
M  V30 2795 H 268.6 -1.07942 -3.05172 0
M  V30 2796 H 267.507 -3.15193 -2.01505 0
M  V30 2797 H 268.84 -4.13632 -2.66775 0
M  V30 2798 N 270.492 0.636531 -1.44174 0
M  V30 2799 C 271.422 1.76003 -1.53444 0
M  V30 2800 C 272.403 1.65619 -0.387841 0
M  V30 2801 O 273.588 1.84461 -0.607257 0
M  V30 2802 C 270.718 3.14511 -1.4731 0
M  V30 2803 C 269.672 3.39677 -2.60391 0
M  V30 2804 C 268.998 4.78159 -2.39308 0
M  V30 2805 C 270.298 3.32772 -4.02567 0
M  V30 2806 H 271.992 1.68501 -2.47483 0
M  V30 2807 H 269.538 0.809237 -1.19111 0
M  V30 2808 H 271.491 3.92878 -1.52397 0
M  V30 2809 H 270.215 3.22783 -0.49785 0
M  V30 2810 H 268.874 2.63688 -2.54684 0
M  V30 2811 H 268.522 4.83128 -1.39988 0
M  V30 2812 H 268.222 4.95956 -3.15122 0
M  V30 2813 H 269.746 5.58762 -2.46205 0
M  V30 2814 H 271.16 4.01051 -4.09672 0
M  V30 2815 H 269.557 3.62104 -4.7854 0
M  V30 2816 H 270.627 2.30669 -4.2652 0
M  V30 2817 N 271.97 1.30982 0.876444 0
M  V30 2818 C 272.917 1.18085 1.98304 0
M  V30 2819 C 273.887 0.0682263 1.6596 0
M  V30 2820 O 275.072 0.239937 1.89285 0
M  V30 2821 C 272.212 0.887475 3.33493 0
M  V30 2822 C 271.325 2.08281 3.78475 0
M  V30 2823 C 270.46 1.72678 5.0235 0
M  V30 2824 C 269.499 2.88657 5.39762 0
M  V30 2825 N 268.636 2.53292 6.54819 0
M  V30 2826 H 273.476 2.1275 2.08666 0
M  V30 2827 H 271.013 1.05839 1.02159 0
M  V30 2828 H 272.971 0.697961 4.1132 0
M  V30 2829 H 271.601 -0.022315 3.22792 0
M  V30 2830 H 270.653 2.3833 2.96484 0
M  V30 2831 H 271.965 2.95108 4.02135 0
M  V30 2832 H 271.119 1.50151 5.87826 0
M  V30 2833 H 269.858 0.830327 4.8058 0
M  V30 2834 H 268.863 3.1184 4.52809 0
M  V30 2835 H 270.088 3.79002 5.63502 0
M  V30 2836 H 268.034 1.66163 6.34607 0
M  V30 2837 H 267.951 3.3365 6.7839 0
M  V30 2838 H 269.219 2.34143 7.43503 0
M  V30 2839 N 273.449 -1.08991 1.13837 0
M  V30 2840 C 274.359 -2.19301 0.833333 0
M  V30 2841 C 275.375 -1.73026 -0.183847 0
M  V30 2842 O 276.551 -2.01395 -0.0138092 0
M  V30 2843 C 273.616 -3.45323 0.308651 0
M  V30 2844 C 272.677 -4.06255 1.38764 0
M  V30 2845 C 271.91 -5.26262 0.887896 0
M  V30 2846 O 272.133 -5.69747 -0.27287 0
M  V30 2847 O 271.067 -5.78435 1.66421 0
M  V30 2848 H 274.893 -2.47854 1.75506 0
M  V30 2849 H 272.478 -1.18012 0.916166 0
M  V30 2850 H 274.36 -4.21394 0.0216739 0
M  V30 2851 H 273.035 -3.18362 -0.585431 0
M  V30 2852 H 271.942 -3.318 1.72799 0
M  V30 2853 H 273.275 -4.37452 2.25602 0
M  V30 2854 N 274.927 -0.932562 -1.27047 0
M  V30 2855 C 275.857 -0.452902 -2.29066 0
M  V30 2856 C 276.838 0.489338 -1.62909 0
M  V30 2857 O 278.023 0.393046 -1.90181 0
M  V30 2858 C 275.153 0.290698 -3.46081 0
M  V30 2859 C 274.107 -0.564168 -4.24265 0
M  V30 2860 C 273.433 0.308886 -5.33807 0
M  V30 2861 C 274.733 -1.83112 -4.89149 0
M  V30 2862 H 276.427 -1.30552 -2.69437 0
M  V30 2863 H 273.973 -0.629201 -1.29526 0
M  V30 2864 H 275.926 0.637233 -4.16554 0
M  V30 2865 H 274.65 1.17738 -3.0464 0
M  V30 2866 H 273.309 -0.893477 -3.55545 0
M  V30 2867 H 272.957 1.19467 -4.88607 0
M  V30 2868 H 272.657 -0.259633 -5.87026 0
M  V30 2869 H 274.181 0.650884 -6.07121 0
M  V30 2870 H 275.595 -1.55236 -5.51883 0
M  V30 2871 H 273.992 -2.34353 -5.52448 0
M  V30 2872 H 275.062 -2.54772 -4.12576 0
M  V30 2873 N 276.405 1.4127 -0.698611 0
M  V30 2874 C 277.368 2.29158 -0.044132 0
M  V30 2875 C 278.368 1.44529 0.704841 0
M  V30 2876 O 279.558 1.65643 0.539276 0
M  V30 2877 C 276.69 3.27459 0.947809 0
M  V30 2878 H 277.883 2.88529 -0.817994 0
M  V30 2879 H 275.436 1.49307 -0.46228 0
M  V30 2880 H 276.171 2.73073 1.74933 0
M  V30 2881 H 275.956 3.8991 0.41385 0
M  V30 2882 H 277.446 3.93311 1.40344 0
M  V30 2883 N 277.883 0.443576 1.51229 0
M  V30 2884 C 278.813 -0.355142 2.30783 0
M  V30 2885 C 279.794 -1.0154 1.36468 0
M  V30 2886 O 280.979 -1.01785 1.65389 0
M  V30 2887 C 278.109 -1.45312 3.15439 0
M  V30 2888 C 277.063 -0.916002 4.18083 0
M  V30 2889 C 276.389 -2.1102 4.91299 0
M  V30 2890 C 277.689 0.0538602 5.22272 0
M  V30 2891 H 279.383 0.308767 2.97804 0
M  V30 2892 H 276.929 0.149937 1.43217 0
M  V30 2893 H 278.882 -2.01914 3.69876 0
M  V30 2894 H 277.606 -2.14541 2.46252 0
M  V30 2895 H 276.265 -0.372145 3.64706 0
M  V30 2896 H 275.913 -2.78882 4.18609 0
M  V30 2897 H 275.613 -1.75717 5.60712 0
M  V30 2898 H 277.137 -2.68164 5.48562 0
M  V30 2899 H 278.551 -0.422069 5.71744 0
M  V30 2900 H 276.948 0.319776 5.99247 0
M  V30 2901 H 278.018 0.98858 4.74716 0
M  V30 2902 N 279.361 -1.56624 0.175154 0
M  V30 2903 C 280.271 -2.21741 -0.766042 0
M  V30 2904 C 281.287 -1.21023 -1.25018 0
M  V30 2905 O 282.463 -1.53697 -1.3015 0
M  V30 2906 C 279.528 -2.84839 -1.97655 0
M  V30 2907 C 278.589 -4.00769 -1.53892 0
M  V30 2908 C 277.822 -4.60849 -2.69173 0
M  V30 2909 O 278.045 -4.19823 -3.86141 0
M  V30 2910 O 276.979 -5.50655 -2.43028 0
M  V30 2911 H 280.805 -3.02738 -0.241585 0
M  V30 2912 H 278.39 -1.49305 -0.053222 0
M  V30 2913 H 280.272 -3.24834 -2.68442 0
M  V30 2914 H 278.947 -2.06836 -2.48999 0
M  V30 2915 H 277.854 -3.65436 -0.80044 0
M  V30 2916 H 279.187 -4.80376 -1.07236 0
M  V30 2917 N 280.839 0.0985539 -1.57292 0
M  V30 2918 C 281.749 1.13824 -2.05137 0
M  V30 2919 C 282.765 1.44076 -0.975604 0
M  V30 2920 O 283.941 1.54786 -1.28853 0
M  V30 2921 C 281.006 2.43969 -2.46333 0
M  V30 2922 C 280.067 2.2093 -3.68087 0
M  V30 2923 C 279.3 3.44869 -4.0731 0
M  V30 2924 O 279.523 4.52972 -3.46659 0
M  V30 2925 O 278.457 3.34661 -5.00285 0
M  V30 2926 H 282.283 0.761881 -2.93988 0
M  V30 2927 H 279.868 0.310818 -1.46131 0
M  V30 2928 H 281.75 3.20609 -2.73473 0
M  V30 2929 H 280.425 2.81038 -1.60621 0
M  V30 2930 H 279.332 1.42081 -3.46069 0
M  V30 2931 H 280.665 1.88755 -4.54568 0
M  V30 2932 N 282.317 1.53212 0.369288 0
M  V30 2933 C 283.227 1.82342 1.47609 0
M  V30 2934 C 284.243 0.711532 1.58787 0
M  V30 2935 O 285.419 1.0012 1.74751 0
M  V30 2936 C 282.484 2.00393 2.8292 0
M  V30 2937 C 281.545 3.24297 2.81301 0
M  V30 2938 C 280.778 3.41478 4.10157 0
M  V30 2939 O 281.001 2.63033 5.06132 0
M  V30 2940 O 279.935 4.34817 4.16194 0
M  V30 2941 H 283.761 2.76366 1.25918 0
M  V30 2942 H 281.346 1.38547 0.559034 0
M  V30 2943 H 283.228 2.13859 3.63101 0
M  V30 2944 H 281.903 1.09559 3.04596 0
M  V30 2945 H 280.81 3.16257 1.99831 0
M  V30 2946 H 282.143 4.15041 2.64578 0
M  V30 2947 N 283.795 -0.628877 1.44509 0
M  V30 2948 C 285.211 -0.947305 1.28446 0
M  V30 2949 C 285.411 -2.00275 0.221872 0
M  V30 2950 O 284.467 -2.49447 -0.391471 0
M  V30 2951 C 285.78 -1.40843 2.65676 0
M  V30 2952 C 287.328 -1.52379 2.73404 0
M  V30 2953 C 287.803 -2.01875 4.11109 0
M  V30 2954 N 289.294 -2.09142 4.13296 0
M  V30 2955 C 290.029 -2.48615 5.16699 0
M  V30 2956 N 289.525 -2.87209 6.30462 0
M  V30 2957 N 291.318 -2.48768 5.04054 0
M  V30 2958 H 283.469 0.0690977 2.12288 0
M  V30 2959 H 285.732 -0.0317164 0.947469 0
M  V30 2960 H 285.438 -0.707206 3.44516 0
M  V30 2961 H 285.312 -2.37902 2.92716 0
M  V30 2962 H 287.699 -2.21598 1.9488 0
M  V30 2963 H 287.78 -0.536898 2.50102 0
M  V30 2964 H 287.424 -1.3325 4.90109 0
M  V30 2965 H 287.354 -3.0144 4.31789 0
M  V30 2966 H 289.845 -1.81991 3.31191 0
M  V30 2967 H 290.158 -3.16149 7.05174 0
M  V30 2968 H 288.503 -2.84955 6.33897 0
M  V30 2969 H 291.694 -2.18009 4.14234 0
M  V30 2970 H 291.867 -2.79207 5.84763 0
M  V30 2971 N 285.273 -1.31445 -0.869486 0
M  V30 2972 C 286.203 -1.21727 -1.99261 0
M  V30 2973 C 287.184 -0.104359 -1.6978 0
M  V30 2974 O 288.369 -0.289038 -1.92037 0
M  V30 2975 C 285.499 -0.924317 -3.34774 0
M  V30 2976 C 284.453 -1.99685 -3.78563 0
M  V30 2977 C 283.779 -1.55658 -5.11541 0
M  V30 2978 C 285.079 -3.41003 -3.95619 0
M  V30 2979 H 286.773 -2.1569 -2.07649 0
M  V30 2980 H 284.319 -1.03839 -0.997675 0
M  V30 2981 H 286.272 -0.842934 -4.12883 0
M  V30 2982 H 284.996 0.0509793 -3.2656 0
M  V30 2983 H 283.655 -2.06813 -3.02694 0
M  V30 2984 H 283.303 -0.569132 -4.9977 0
M  V30 2985 H 283.003 -2.27409 -5.41811 0
M  V30 2986 H 284.527 -1.48928 -5.92159 0
M  V30 2987 H 285.941 -3.36547 -4.64122 0
M  V30 2988 H 284.338 -4.10975 -4.37286 0
M  V30 2989 H 285.408 -3.81754 -2.98985 0
M  V30 2990 N 286.751 1.08385 -1.14413 0
M  V30 2991 C 288 1.80153 -0.907076 0
M  V30 2992 C 288.313 1.87176 0.567851 0
M  V30 2993 O 289.519 2.55359 0.922172 0
M  V30 2994 C 287.975 3.23687 -1.57336 0
M  V30 2995 C 287.583 3.24897 -3.08457 0
M  V30 2996 C 289.327 4.00136 -1.41744 0
M  V30 2997 C 287.234 4.6302 -3.67921 0
M  V30 2998 H 286.164 0.675139 -0.335714 0
M  V30 2999 H 288.815 1.21733 -1.37307 0
M  V30 3000 H 287.197 3.82234 -1.03505 0
M  V30 3001 H 288.371 2.76055 -3.68958 0
M  V30 3002 H 286.686 2.61943 -3.2369 0
M  V30 3003 H 289.283 5.02201 -1.83572 0
M  V30 3004 H 289.626 4.14709 -0.363576 0
M  V30 3005 H 290.159 3.48058 -1.92614 0
M  V30 3006 H 286.898 4.5365 -4.73161 0
M  V30 3007 H 286.418 5.12143 -3.12201 0
M  V30 3008 H 288.097 5.31994 -3.68227 0
M  V30 3009 N 288.23 0.939286 1.26551 0
M  V30 3010 C 289.162 0.404704 2.25599 0
M  V30 3011 C 290.175 -0.470983 1.55838 0
M  V30 3012 O 291.364 -0.281734 1.76263 0
M  V30 3013 C 288.464 -0.43764 3.36062 0
M  V30 3014 C 287.637 0.421449 4.35365 0
M  V30 3015 C 286.696 -0.36015 5.24966 0
M  V30 3016 O 285.722 0.236167 5.6871 0
M  V30 3017 N 286.924 -1.65715 5.56344 0
M  V30 3018 H 289.689 1.25618 2.72103 0
M  V30 3019 H 287.25 0.807963 1.40298 0
M  V30 3020 H 289.242 -0.967866 3.92956 0
M  V30 3021 H 287.812 -1.18991 2.89067 0
M  V30 3022 H 287.032 1.1329 3.7757 0
M  V30 3023 H 288.32 1.00835 4.98708 0
M  V30 3024 H 287.718 -2.16378 5.22682 0
M  V30 3025 H 286.275 -2.13366 6.15888 0
M  V30 3026 N 289.708 -1.40897 0.706093 0
M  V30 3027 C 290.618 -2.3455 0.0482286 0
M  V30 3028 C 291.634 -1.56796 -0.754396 0
M  V30 3029 O 292.81 -1.89228 -0.689538 0
M  V30 3030 C 289.875 -3.35625 -0.869303 0
M  V30 3031 C 288.936 -4.29261 -0.0576994 0
M  V30 3032 C 288.169 -5.25508 -0.931531 0
M  V30 3033 O 288.392 -5.27472 -2.17092 0
M  V30 3034 O 287.326 -6.00727 -0.375587 0
M  V30 3035 H 291.152 -2.92407 0.820476 0
M  V30 3036 H 288.737 -1.4193 0.4665 0
M  V30 3037 H 290.619 -3.97635 -1.39514 0
M  V30 3038 H 289.294 -2.80196 -1.62086 0
M  V30 3039 H 288.201 -3.70566 0.512988 0
M  V30 3040 H 289.534 -4.87817 0.655426 0
M  V30 3041 N 291.186 -0.45159 -1.50991 0
M  V30 3042 C 292.116 0.342898 -2.30969 0
M  V30 3043 C 293.097 1.00815 -1.37005 0
M  V30 3044 O 294.282 1.00907 -1.65926 0
M  V30 3045 C 291.412 1.43637 -3.16205 0
M  V30 3046 C 290.366 0.893818 -4.18563 0
M  V30 3047 C 289.692 2.08411 -4.92411 0
M  V30 3048 C 290.992 -0.0815568 -5.22236 0
M  V30 3049 H 292.686 -0.324556 -2.97636 0
M  V30 3050 H 290.232 -0.157531 -1.43136 0
M  V30 3051 H 292.185 1.9995 -3.70942 0
M  V30 3052 H 290.909 2.13232 -2.47386 0
M  V30 3053 H 289.568 0.352798 -3.64898 0
M  V30 3054 H 289.216 2.76658 -4.20082 0
M  V30 3055 H 288.916 1.72741 -5.61636 0
M  V30 3056 H 290.44 2.65251 -5.49976 0
M  V30 3057 H 291.854 0.391742 -5.7196 0
M  V30 3058 H 290.251 -0.351551 -5.99069 0
M  V30 3059 H 291.321 -1.01374 -4.74185 0
M  V30 3060 N 292.664 1.56529 -0.183458 0
M  V30 3061 C 293.574 2.22144 0.754272 0
M  V30 3062 C 294.59 1.21684 1.24374 0
M  V30 3063 O 295.766 1.54385 1.29333 0
M  V30 3064 C 292.831 2.85884 1.96141 0
M  V30 3065 C 291.892 4.01579 1.51765 0
M  V30 3066 C 291.125 4.6227 2.66725 0
M  V30 3067 O 291.348 4.21865 3.83909 0
M  V30 3068 O 290.282 5.51936 2.40104 0
M  V30 3069 H 294.108 3.02861 0.225527 0
M  V30 3070 H 291.693 1.49331 0.0453032 0
M  V30 3071 H 293.575 3.26253 2.66715 0
M  V30 3072 H 292.25 2.08154 2.47899 0
M  V30 3073 H 291.157 3.65856 0.781049 0
M  V30 3074 H 292.49 4.80938 1.04686 0
M  V30 3075 N 294.142 -0.090211 1.57342 0
M  V30 3076 C 295.419 -0.824761 1.77361 0
M  V30 3077 C 295.799 -1.96698 0.76637 0
M  V30 3078 O 295.147 -2.27586 -0.204179 0
M  V30 3079 C 295.357 -1.31481 3.23286 0
M  V30 3080 C 296.705 -1.75563 3.86604 0
M  V30 3081 O 297.729 -1.41093 3.27065 0
M  V30 3082 O 296.588 -2.39317 4.91314 0
M  V30 3083 H 293.682 -0.393776 0.727234 0
M  V30 3084 H 296.228 -0.0717138 1.69548 0
M  V30 3085 H 295 -0.496671 3.88135 0
M  V30 3086 H 294.623 -2.12973 3.35751 0
M  V30 3087 N 295.62 -1.53406 -0.361157 0
M  V30 3088 C 296.866 -1.70054 -1.10496 0
M  V30 3089 C 297.199 -0.453278 -1.88836 0
M  V30 3090 O 296.474 0.5495 -1.86576 0
M  V30 3091 C 296.757 -2.95317 -2.06058 0
M  V30 3092 C 296.61 -4.3021 -1.31298 0
M  V30 3093 C 297.929 -3.16193 -3.06121 0
M  V30 3094 H 295.048 -0.618799 -0.400321 0
M  V30 3095 H 297.69 -1.86052 -0.385318 0
M  V30 3096 H 295.84 -2.81809 -2.67425 0
M  V30 3097 H 297.512 -4.55538 -0.726807 0
M  V30 3098 H 295.755 -4.29421 -0.614853 0
M  V30 3099 H 296.426 -5.14 -2.01265 0
M  V30 3100 H 298.902 -3.28916 -2.5486 0
M  V30 3101 H 297.778 -4.05266 -3.70204 0
M  V30 3102 H 298.039 -2.31676 -3.76535 0
M  V30 3103 N 297.098 0.621204 -1.44841 0
M  V30 3104 C 298.008 1.7612 -1.5498 0
M  V30 3105 C 299.024 1.68477 -0.434927 0
M  V30 3106 O 300.2 1.89076 -0.693693 0
M  V30 3107 C 297.265 3.1254 -1.50065 0
M  V30 3108 C 296.326 3.31741 -2.72482 0
M  V30 3109 C 295.559 4.61653 -2.67792 0
M  V30 3110 O 295.782 5.431 -1.74352 0
M  V30 3111 O 294.716 4.83271 -3.58794 0
M  V30 3112 H 298.542 1.70518 -2.51311 0
M  V30 3113 H 296.127 0.783643 -1.27198 0
M  V30 3114 H 298.009 3.93844 -1.49882 0
M  V30 3115 H 296.684 3.18663 -0.568806 0
M  V30 3116 H 295.591 2.50077 -2.7823 0
M  V30 3117 H 296.924 3.30486 -3.64746 0
M  V30 3118 N 298.576 1.31904 0.862503 0
M  V30 3119 C 299.523 1.20182 1.9704 0
M  V30 3120 C 300.493 0.0858247 1.65878 0
M  V30 3121 O 301.678 0.26 1.8902 0
M  V30 3122 C 298.818 0.922797 3.32533 0
M  V30 3123 C 297.931 2.12284 3.76244 0
M  V30 3124 C 297.066 1.77996 5.00491 0
M  V30 3125 C 296.105 2.94366 5.36671 0
M  V30 3126 N 295.242 2.60223 6.52095 0
M  V30 3127 H 300.082 2.14951 2.06398 0
M  V30 3128 H 297.619 1.06917 1.01031 0
M  V30 3129 H 299.577 0.741548 4.10557 0
M  V30 3130 H 298.207 0.0119227 3.22798 0
M  V30 3131 H 297.259 2.41461 2.9394 0
M  V30 3132 H 298.571 2.99357 3.98982 0
M  V30 3133 H 297.725 1.56377 5.862 0
M  V30 3134 H 296.464 0.881252 4.79672 0
M  V30 3135 H 295.469 3.16625 4.49476 0
M  V30 3136 H 296.694 3.84957 5.59451 0
M  V30 3137 H 294.64 1.72884 6.32809 0
M  V30 3138 H 294.557 3.40827 6.74814 0
M  V30 3139 H 295.825 2.42016 7.40978 0
M  V30 3140 N 300.054 -1.07777 1.14986 0
M  V30 3141 C 301.002 -2.16964 0.838406 0
M  V30 3142 C 301.996 -1.68372 -0.186386 0
M  V30 3143 O 303.202 -1.79951 -0.0418465 0
M  V30 3144 H 299.577 -0.708006 0.253439 0
M  V30 3145 H 301.548 -2.40454 1.76704 0
M  V30 3146 C 300.297 -3.4604 0.339335 0
M  V30 3147 H 299.62 -3.83813 1.11927 0
M  V30 3148 H 301.06 -4.23698 0.160021 0
M  V30 3149 C 299.519 -3.23569 -0.938325 0
M  V30 3150 O 300.049 -3.47752 -2.01077 0
M  V30 3151 N 298.255 -2.77079 -0.876117 0
M  V30 3152 H 297.802 -2.576 -0.00322037 0
M  V30 3153 H 297.76 -2.62422 -1.73153 0
M  V30 3154 N 301.532 -0.945985 -1.26051 0
M  V30 3155 C 302.948 -0.649045 -1.45807 0
M  V30 3156 C 303.148 0.796158 -1.85104 0
M  V30 3157 O 302.204 1.57233 -1.97571 0
M  V30 3158 C 303.517 -1.61458 -2.53677 0
M  V30 3159 C 305.065 -1.62481 -2.67524 0
M  V30 3160 C 305.54 -2.57776 -3.7857 0
M  V30 3161 N 307.031 -2.5609 -3.85969 0
M  V30 3162 C 307.766 -3.26508 -4.7136 0
M  V30 3163 N 307.262 -4.0637 -5.61102 0
M  V30 3164 N 309.055 -3.15437 -4.65248 0
M  V30 3165 H 301.206 -1.88005 -0.988328 0
M  V30 3166 H 303.469 -0.808198 -0.4955 0
M  V30 3167 H 303.175 -2.64644 -2.31638 0
M  V30 3168 H 303.049 -1.37036 -3.51427 0
M  V30 3169 H 305.436 -0.600167 -2.88933 0
M  V30 3170 H 305.517 -1.90958 -1.70202 0
M  V30 3171 H 305.161 -3.60361 -3.57913 0
M  V30 3172 H 305.091 -2.26587 -4.75359 0
M  V30 3173 H 307.582 -1.98105 -3.21812 0
M  V30 3174 H 307.895 -4.57042 -6.23164 0
M  V30 3175 H 306.24 -4.10469 -5.60839 0
M  V30 3176 H 309.431 -2.52525 -3.94143 0
M  V30 3177 H 309.604 -3.70584 -5.31575 0
M  V30 3178 N 303.011 1.40521 -0.713556 0
M  V30 3179 C 303.958 2.30723 -0.059684 0
M  V30 3180 C 304.928 1.48079 0.752448 0
M  V30 3181 O 306.113 1.76823 0.71681 0
M  V30 3182 C 303.253 3.34274 0.857594 0
M  V30 3183 C 302.366 4.31986 0.0351536 0
M  V30 3184 C 301.501 5.22605 0.951724 0
M  V30 3185 C 300.54 6.11976 0.123253 0
M  V30 3186 N 299.677 6.9502 0.99459 0
M  V30 3187 H 304.517 2.86074 -0.834596 0
M  V30 3188 H 302.054 1.40879 -0.42326 0
M  V30 3189 H 304.012 3.92879 1.40364 0
M  V30 3190 H 302.642 2.8043 1.59871 0
M  V30 3191 H 301.694 3.7518 -0.628052 0
M  V30 3192 H 303.006 4.95101 -0.606347 0
M  V30 3193 H 302.16 5.86131 1.56638 0
M  V30 3194 H 300.899 4.59759 1.62705 0
M  V30 3195 H 299.904 5.47482 -0.50435 0
M  V30 3196 H 301.129 6.76881 -0.548539 0
M  V30 3197 H 299.075 6.34764 1.6556 0
M  V30 3198 H 298.992 7.54892 0.40908 0
M  V30 3199 H 300.26 7.62997 1.59549 0
M  V30 3200 N 304.489 0.459591 1.5075 0
M  V30 3201 C 305.738 -0.100971 2.01447 0
M  V30 3202 C 306.051 -1.41816 1.34713 0
M  V30 3203 O 307.257 -2.06299 1.76502 0
M  V30 3204 C 305.713 -0.23047 3.59161 0
M  V30 3205 C 305.321 1.0776 4.34847 0
M  V30 3206 C 307.065 -0.743608 4.17936 0
M  V30 3207 C 304.972 0.91253 5.84317 0
M  V30 3208 H 303.902 -0.0415102 0.752856 0
M  V30 3209 H 306.553 0.592742 1.73663 0
M  V30 3210 H 304.935 -0.987703 3.83485 0
M  V30 3211 H 306.109 1.8449 4.22256 0
M  V30 3212 H 304.424 1.52097 3.87628 0
M  V30 3213 H 307.021 -0.883959 5.27343 0
M  V30 3214 H 307.364 -1.73196 3.78562 0
M  V30 3215 H 307.897 -0.04408 3.97776 0
M  V30 3216 H 304.636 1.87391 6.28144 0
M  V30 3217 H 304.156 0.185422 5.99513 0
M  V30 3218 H 305.835 0.574547 6.44444 0
M  V30 3219 N 305.967 -1.56429 0.191757 0
M  V30 3220 C 307.213 -1.97777 -0.448554 0
M  V30 3221 C 307.546 -1.07847 -1.61501 0
M  V30 3222 O 306.821 -0.129774 -1.94067 0
M  V30 3223 C 307.104 -3.48362 -0.911906 0
M  V30 3224 C 306.957 -4.4907 0.256136 0
M  V30 3225 C 308.276 -4.02561 -1.77857 0
M  V30 3226 H 305.395 -0.719071 -0.161572 0
M  V30 3227 H 308.037 -1.87896 0.282007 0
M  V30 3228 H 306.187 -3.56914 -1.53442 0
M  V30 3229 H 307.859 -4.5256 0.893733 0
M  V30 3230 H 306.102 -4.24181 0.908436 0
M  V30 3231 H 306.773 -5.51889 -0.11053 0
M  V30 3232 H 309.249 -3.96767 -1.25359 0
M  V30 3233 H 308.125 -5.08301 -2.07174 0
M  V30 3234 H 308.386 -3.47616 -2.73158 0
M  V30 3235 N 307.445 0.0818655 -1.57387 0
M  V30 3236 C 308.408 1.08265 -2.02018 0
M  V30 3237 C 309.408 1.32183 -0.915664 0
M  V30 3238 O 310.598 1.28073 -1.18081 0
M  V30 3239 C 307.73 2.42871 -2.39221 0
M  V30 3240 H 308.923 0.698204 -2.91659 0
M  V30 3241 H 306.476 0.327303 -1.52835 0
M  V30 3242 H 307.211 2.86167 -1.52575 0
M  V30 3243 H 306.996 2.26855 -3.19811 0
M  V30 3244 H 308.486 3.14826 -2.74362 0
M  V30 3245 N 308.923 1.53595 0.353017 0
M  V30 3246 C 309.833 1.83897 1.45667 0
M  V30 3247 C 310.849 0.728334 1.58023 0
M  V30 3248 O 312.025 1.01968 1.73679 0
M  V30 3249 C 309.09 2.03383 2.80778 0
M  V30 3250 C 308.151 3.27262 2.77845 0
M  V30 3251 C 307.384 3.45809 4.06512 0
M  V30 3252 O 307.607 2.68387 5.03314 0
M  V30 3253 O 306.541 4.39207 4.11559 0
M  V30 3254 H 310.367 2.77686 1.2298 0
M  V30 3255 H 307.952 1.39132 0.544308 0
M  V30 3256 H 309.834 2.17698 3.60812 0
M  V30 3257 H 308.509 1.12783 3.03417 0
M  V30 3258 H 307.416 3.18359 1.96465 0
M  V30 3259 H 308.749 4.17824 2.60161 0
M  V30 3260 N 310.401 -0.613514 1.45168 0
M  V30 3261 C 311.349 -1.74572 1.53712 0
M  V30 3262 C 312.343 -1.64426 0.407505 0
M  V30 3263 O 313.549 -1.70291 0.583176 0
M  V30 3264 H 309.924 -0.576641 0.48269 0
M  V30 3265 H 311.895 -1.64492 2.48968 0
M  V30 3266 C 310.644 -3.12943 1.51532 0
M  V30 3267 H 309.967 -3.21407 2.37776 0
M  V30 3268 H 311.407 -3.9201 1.61569 0
M  V30 3269 C 309.866 -3.36053 0.238798 0
M  V30 3270 O 310.396 -3.95837 -0.6838 0
M  V30 3271 N 308.602 -2.9028 0.136359 0
M  V30 3272 H 308.149 -2.41811 0.887999 0
M  V30 3273 H 308.107 -3.06116 -0.716944 0
M  V30 3274 N 311.879 -1.3236 -0.855495 0
M  V30 3275 C 312.809 -1.23833 -1.97958 0
M  V30 3276 C 313.79 -0.122361 -1.69659 0
M  V30 3277 O 314.975 -0.30939 -1.9172 0
M  V30 3278 C 312.105 -0.959772 -3.33775 0
M  V30 3279 C 311.059 -2.03689 -3.76424 0
M  V30 3280 C 310.385 -1.61075 -5.09862 0
M  V30 3281 C 311.685 -3.4518 -3.9198 0
M  V30 3282 H 313.379 -2.1788 -2.0535 0
M  V30 3283 H 310.925 -1.04891 -0.986605 0
M  V30 3284 H 312.878 -0.886678 -4.11966 0
M  V30 3285 H 311.602 0.0163404 -3.26596 0
M  V30 3286 H 310.261 -2.10012 -3.00484 0
M  V30 3287 H 309.909 -0.622107 -4.99138 0
M  V30 3288 H 309.609 -2.33143 -5.39368 0
M  V30 3289 H 311.133 -1.55201 -5.90546 0
M  V30 3290 H 312.547 -3.4145 -4.60526 0
M  V30 3291 H 310.944 -4.1559 -4.32903 0
M  V30 3292 H 312.014 -3.84903 -2.94919 0
M  V30 3293 N 313.357 1.07166 -1.15556 0
M  V30 3294 C 314.267 2.17947 -0.868116 0
M  V30 3295 C 315.283 1.73297 0.156297 0
M  V30 3296 O 316.459 2.01392 -0.0182327 0
M  V30 3297 C 313.524 3.44789 -0.36355 0
M  V30 3298 C 312.585 4.03996 -1.45209 0
M  V30 3299 C 311.818 5.24783 -0.971508 0
M  V30 3300 O 312.041 5.70109 0.182194 0
M  V30 3301 O 310.975 5.75715 -1.75603 0
M  V30 3302 H 314.801 2.4503 -1.79427 0
M  V30 3303 H 312.386 1.16539 -0.934824 0
M  V30 3304 H 314.268 4.21307 -0.0887113 0
M  V30 3305 H 312.943 3.19253 0.534708 0
M  V30 3306 H 311.85 3.29009 -1.78056 0
M  V30 3307 H 313.183 4.33808 -2.32533 0
M  V30 3308 N 314.835 0.952656 1.25548 0
M  V30 3309 C 315.782 0.47008 2.25962 0
M  V30 3310 C 316.752 -0.476384 1.59122 0
M  V30 3311 O 317.937 -0.39007 1.8677 0
M  V30 3312 C 315.077 -0.247881 3.44209 0
M  V30 3313 C 314.19 0.735591 4.25691 0
M  V30 3314 C 313.325 -0.0047306 5.312 0
M  V30 3315 C 312.364 0.969805 6.04368 0
M  V30 3316 N 311.501 0.260486 7.01617 0
M  V30 3317 H 316.341 1.33126 2.66611 0
M  V30 3318 H 313.878 0.66765 1.31076 0
M  V30 3319 H 315.836 -0.680695 4.1161 0
M  V30 3320 H 314.466 -1.07312 3.0444 0
M  V30 3321 H 313.518 1.28689 3.57971 0
M  V30 3322 H 314.83 1.47934 4.76358 0
M  V30 3323 H 313.984 -0.496275 6.04667 0
M  V30 3324 H 312.723 -0.781282 4.81401 0
M  V30 3325 H 311.728 1.47237 5.29718 0
M  V30 3326 H 312.953 1.74655 6.56256 0
M  V30 3327 H 310.899 -0.497364 6.54112 0
M  V30 3328 H 310.816 0.943362 7.50091 0
M  V30 3329 H 312.084 -0.209587 7.79218 0
M  V30 3330 N 316.313 -1.40141 0.720998 0
M  V30 3331 C 317.559 -2.01084 0.263231 0
M  V30 3332 C 317.892 -1.57052 -1.14229 0
M  V30 3333 O 317.167 -0.793027 -1.77599 0
M  V30 3334 C 317.45 -3.58401 0.349344 0
M  V30 3335 C 317.303 -4.12491 1.79363 0
M  V30 3336 C 318.622 -4.39231 -0.276351 0
M  V30 3337 H 315.741 -0.730572 0.0971228 0
M  V30 3338 H 318.383 -1.66543 0.914518 0
M  V30 3339 H 316.533 -3.87958 -0.205165 0
M  V30 3340 H 318.205 -3.93711 2.40394 0
M  V30 3341 H 316.448 -3.66576 2.31958 0
M  V30 3342 H 317.119 -5.21646 1.80524 0
M  V30 3343 H 319.595 -4.15637 0.196184 0
M  V30 3344 H 318.471 -5.48586 -0.185681 0
M  V30 3345 H 318.732 -4.20643 -1.36059 0
M  V30 3346 N 317.792 -0.46758 -1.50504 0
M  V30 3347 C 318.724 0.364655 -2.26281 0
M  V30 3348 C 319.737 0.960151 -1.31472 0
M  V30 3349 O 320.926 0.849153 -1.57008 0
M  V30 3350 C 318.026 1.52509 -3.02645 0
M  V30 3351 C 317.199 1.04302 -4.24782 0
M  V30 3352 C 316.258 2.07709 -4.8347 0
M  V30 3353 O 315.284 1.65913 -5.44483 0
M  V30 3354 N 316.486 3.40485 -4.70159 0
M  V30 3355 H 319.251 -0.28495 -2.98342 0
M  V30 3356 H 316.812 -0.298163 -1.59131 0
M  V30 3357 H 318.804 2.21371 -3.38787 0
M  V30 3358 H 317.374 2.07945 -2.33404 0
M  V30 3359 H 316.594 0.180393 -3.93787 0
M  V30 3360 H 317.882 0.698798 -5.03978 0
M  V30 3361 H 317.28 3.77155 -4.21629 0
M  V30 3362 H 315.837 4.05156 -5.1058 0
M  V30 3363 N 319.27 1.56325 -0.20005 0
M  V30 3364 C 320.233 2.18084 0.705132 0
M  V30 3365 C 321.233 1.13666 1.1374 0
M  V30 3366 O 322.423 1.39023 1.04968 0
M  V30 3367 C 319.555 2.78689 1.96329 0
M  V30 3368 H 320.748 2.99435 0.167023 0
M  V30 3369 H 318.301 1.56221 0.0495725 0
M  V30 3370 H 319.036 2.0115 2.5438 0
M  V30 3371 H 318.821 3.55133 1.66202 0
M  V30 3372 H 320.311 3.26096 2.60866 0
M  V30 3373 N 320.748 -0.0735177 1.57428 0
M  V30 3374 C 321.658 -1.10547 2.06922 0
M  V30 3375 C 322.674 -1.42506 0.998402 0
M  V30 3376 O 323.85 -1.52717 1.31299 0
M  V30 3377 C 320.915 -2.40019 2.50184 0
M  V30 3378 C 319.976 -2.15046 3.71556 0
M  V30 3379 C 319.209 -3.38345 4.12745 0
M  V30 3380 O 319.432 -4.47399 3.53822 0
M  V30 3381 O 318.366 -3.2666 5.05546 0
M  V30 3382 H 322.192 -0.715013 2.95163 0
M  V30 3383 H 319.777 -0.287531 1.46607 0
M  V30 3384 H 321.659 -3.16218 2.78539 0
M  V30 3385 H 320.334 -2.78447 1.65072 0
M  V30 3386 H 319.241 -1.36558 3.48285 0
M  V30 3387 H 320.574 -1.81499 4.57514 0
M  V30 3388 N 322.226 -1.5378 -0.344866 0
M  V30 3389 C 323.189 -1.80981 -1.40637 0
M  V30 3390 C 324.189 -0.680816 -1.45676 0
M  V30 3391 O 325.379 -0.949095 -1.46075 0
M  V30 3392 C 322.511 -1.95063 -2.79577 0
M  V30 3393 H 323.704 -2.75803 -1.17783 0
M  V30 3394 H 321.257 -1.45173 -0.579181 0
M  V30 3395 H 321.992 -1.02379 -3.07716 0
M  V30 3396 H 321.777 -2.77198 -2.77315 0
M  V30 3397 H 323.267 -2.17629 -3.56409 0
M  V30 3398 N 323.704 0.605807 -1.45491 0
M  V30 3399 C 324.614 1.74466 -1.56839 0
M  V30 3400 C 325.63 1.68006 -0.452772 0
M  V30 3401 O 326.806 1.8833 -0.713708 0
M  V30 3402 C 323.871 3.10931 -1.53371 0
M  V30 3403 C 322.932 3.28832 -2.75986 0
M  V30 3404 C 322.165 4.58787 -2.72673 0
M  V30 3405 O 322.388 5.4122 -1.80102 0
M  V30 3406 O 321.322 4.79438 -3.63899 0
M  V30 3407 H 325.148 1.67843 -2.53106 0
M  V30 3408 H 322.733 0.770108 -1.28022 0
M  V30 3409 H 324.615 3.92233 -1.54051 0
M  V30 3410 H 323.29 3.18042 -0.602572 0
M  V30 3411 H 322.197 2.47112 -2.80867 0
M  V30 3412 H 323.53 3.26599 -3.68231 0
M  V30 3413 N 325.182 1.32811 0.848464 0
M  V30 3414 C 326.598 1.11937 1.13764 0
M  V30 3415 C 326.798 -0.0960789 2.01271 0
M  V30 3416 O 325.854 -0.779165 2.40178 0
M  V30 3417 C 327.167 2.402 1.809 0
M  V30 3418 C 328.715 2.46016 1.93508 0
M  V30 3419 C 329.19 3.74215 2.64059 0
M  V30 3420 N 330.681 3.75232 2.71579 0
M  V30 3421 C 331.416 4.71134 3.26833 0
M  V30 3422 N 330.912 5.77406 3.8285 0
M  V30 3423 N 332.705 4.58623 3.24995 0
M  V30 3424 H 324.856 2.1073 0.265855 0
M  V30 3425 H 327.119 0.930671 0.180431 0
M  V30 3426 H 326.825 3.29093 1.24058 0
M  V30 3427 H 326.699 2.51628 2.81004 0
M  V30 3428 H 329.086 1.57577 2.49506 0
M  V30 3429 H 329.167 2.38536 0.923811 0
M  V30 3430 H 328.811 4.63031 2.08722 0
M  V30 3431 H 328.741 3.78968 3.65637 0
M  V30 3432 H 331.232 2.98423 2.31845 0
M  V30 3433 H 331.545 6.46632 4.23187 0
M  V30 3434 H 329.89 5.81152 3.81165 0
M  V30 3435 H 333.081 3.74762 2.80484 0
M  V30 3436 H 333.254 5.33535 3.67756 0
M  V30 3437 N 326.66 -1.06551 1.16123 0
M  V30 3438 C 327.59 -2.15935 0.88851 0
M  V30 3439 C 328.571 -1.69306 -0.164135 0
M  V30 3440 O 329.756 -1.94193 -0.0167857 0
M  V30 3441 C 326.886 -3.45149 0.385942 0
M  V30 3442 C 325.84 -4.05271 1.3762 0
M  V30 3443 C 325.166 -5.29664 0.732137 0
M  V30 3444 C 326.466 -4.44355 2.74493 0
M  V30 3445 H 328.16 -2.39006 1.80323 0
M  V30 3446 H 325.706 -1.14866 0.868435 0
M  V30 3447 H 327.659 -4.21004 0.182647 0
M  V30 3448 H 326.383 -3.21689 -0.564274 0
M  V30 3449 H 325.042 -3.3147 1.56599 0
M  V30 3450 H 324.69 -5.02499 -0.224483 0
M  V30 3451 H 324.39 -5.70848 1.39307 0
M  V30 3452 H 325.914 -6.08218 0.538802 0
M  V30 3453 H 327.328 -5.11303 2.59311 0
M  V30 3454 H 325.725 -4.96515 3.37035 0
M  V30 3455 H 326.795 -3.55339 3.29943 0
M  V30 3456 N 328.138 -0.959301 -1.25041 0
M  V30 3457 C 329.415 -0.533805 -1.88175 0
M  V30 3458 C 329.795 0.988994 -1.865 0
M  V30 3459 O 329.143 1.85677 -1.33177 0
M  V30 3460 C 329.353 -1.11575 -3.30684 0
M  V30 3461 C 330.701 -1.19548 -4.07423 0
M  V30 3462 O 331.725 -1.06765 -3.39823 0
M  V30 3463 O 330.584 -1.39656 -5.28354 0
M  V30 3464 H 327.678 -0.176772 -0.807887 0
M  V30 3465 H 330.224 -1.05303 -1.33076 0
M  V30 3466 H 328.996 -2.15884 -3.26358 0
M  V30 3467 H 328.619 -0.580059 -3.93346 0
M  V30 3468 N 329.616 1.39756 -0.72842 0
M  V30 3469 C 330.548 2.29157 -0.0446202 0
M  V30 3470 C 331.561 1.46484 0.710367 0
M  V30 3471 O 332.75 1.69632 0.55562 0
M  V30 3472 C 329.85 3.24987 0.961071 0
M  V30 3473 C 329.023 4.36572 0.268967 0
M  V30 3474 C 328.082 5.12756 1.18184 0
M  V30 3475 O 327.108 5.6534 0.661794 0
M  V30 3476 N 328.31 5.23331 2.51206 0
M  V30 3477 H 331.075 2.88482 -0.812295 0
M  V30 3478 H 328.636 1.51265 -0.577098 0
M  V30 3479 H 330.628 3.72827 1.57423 0
M  V30 3480 H 329.198 2.66739 1.63 0
M  V30 3481 H 328.418 3.90694 -0.524574 0
M  V30 3482 H 329.706 5.08363 -0.210934 0
M  V30 3483 H 329.104 4.82116 2.9594 0
M  V30 3484 H 327.661 5.74634 3.07634 0
M  V30 3485 N 331.094 0.475555 1.50254 0
M  V30 3486 C 332.004 -0.321501 2.32387 0
M  V30 3487 C 333.02 -0.991755 1.42969 0
M  V30 3488 O 334.196 -0.978747 1.76018 0
M  V30 3489 C 331.261 -1.38667 3.17762 0
M  V30 3490 C 330.322 -0.732538 4.23004 0
M  V30 3491 C 329.555 -1.74695 5.04299 0
M  V30 3492 O 329.778 -2.97399 4.86734 0
M  V30 3493 O 328.712 -1.31631 5.8733 0
M  V30 3494 H 332.538 0.350071 3.01676 0
M  V30 3495 H 330.123 0.237321 1.47503 0
M  V30 3496 H 332.005 -2.00354 3.70724 0
M  V30 3497 H 330.68 -2.04163 2.51196 0
M  V30 3498 H 329.587 -0.0765902 3.74022 0
M  V30 3499 H 330.92 -0.120452 4.92053 0
M  V30 3500 N 332.573 -1.56217 0.208337 0
M  V30 3501 C 333.483 -2.23316 -0.718836 0
M  V30 3502 C 334.499 -1.23648 -1.22422 0
M  V30 3503 O 335.675 -1.56423 -1.26861 0
M  V30 3504 C 332.74 -2.88968 -1.91568 0
M  V30 3505 C 331.801 -4.03943 -1.45357 0
M  V30 3506 C 331.034 -4.66455 -2.59337 0
M  V30 3507 O 331.257 -4.27919 -3.77149 0
M  V30 3508 O 330.191 -5.55686 -2.31293 0
M  V30 3509 H 334.017 -3.03182 -0.177315 0
M  V30 3510 H 331.602 -1.49384 -0.0215402 0
M  V30 3511 H 333.484 -3.30455 -2.61491 0
M  V30 3512 H 332.159 -2.12071 -2.44556 0
M  V30 3513 H 331.066 -3.67052 -0.722746 0
M  V30 3514 H 332.399 -4.82543 -0.970219 0
M  V30 3515 N 334.051 0.0651679 -1.57465 0
M  V30 3516 C 335.014 1.06117 -2.03155 0
M  V30 3517 C 336.014 1.31204 -0.929632 0
M  V30 3518 O 337.204 1.26813 -1.19432 0
M  V30 3519 C 334.336 2.4032 -2.41783 0
M  V30 3520 H 335.529 0.667231 -2.92383 0
M  V30 3521 H 333.082 0.311075 -1.53173 0
M  V30 3522 H 333.817 2.84532 -1.55601 0
M  V30 3523 H 333.602 2.23451 -3.22199 0
M  V30 3524 H 335.092 3.11898 -2.77685 0
M  V30 3525 N 335.529 1.53961 0.336706 0
M  V30 3526 C 336.461 1.78751 1.4346 0
M  V30 3527 C 337.474 0.669019 1.48418 0
M  V30 3528 O 338.663 0.945884 1.51378 0
M  V30 3529 C 335.763 1.87844 2.82078 0
M  V30 3530 C 334.936 3.17854 3.00479 0
M  V30 3531 C 333.995 3.17816 4.19379 0
M  V30 3532 O 333.021 3.91511 4.13168 0
M  V30 3533 N 334.223 2.40669 5.2826 0
M  V30 3534 H 336.988 2.73493 1.22563 0
M  V30 3535 H 334.549 1.53096 0.526625 0
M  V30 3536 H 336.541 1.85261 3.59806 0
M  V30 3537 H 335.111 1.00257 2.96086 0
M  V30 3538 H 334.331 3.33504 2.10163 0
M  V30 3539 H 335.619 4.03718 3.0966 0
M  V30 3540 H 335.017 1.8036 5.36178 0
M  V30 3541 H 333.574 2.43877 6.04456 0
M  V30 3542 N 337.007 -0.598083 1.45811 0
M  V30 3543 C 338.237 -1.38121 1.53643 0
M  V30 3544 C 338.645 -1.88425 0.171081 0
M  V30 3545 O 337.988 -1.63409 -0.839237 0
M  V30 3546 C 338.05 -2.61432 2.46766 0
M  V30 3547 C 337.714 -2.32702 3.93318 0
M  V30 3548 C 338.711 -1.92479 4.82957 0
M  V30 3549 C 336.396 -2.45321 4.38318 0
M  V30 3550 C 338.39 -1.65248 6.15607 0
M  V30 3551 C 336.077 -2.17703 5.71007 0
M  V30 3552 C 337.075 -1.7773 6.5947 0
M  V30 3553 O 336.763 -1.50441 7.89698 0
M  V30 3554 H 336.495 -0.428863 0.522544 0
M  V30 3555 H 339.049 -0.73557 1.91777 0
M  V30 3556 H 337.279 -3.28749 2.0362 0
M  V30 3557 H 338.968 -3.23487 2.45175 0
M  V30 3558 H 339.734 -1.82258 4.49452 0
M  V30 3559 H 335.613 -2.75399 3.69697 0
M  V30 3560 H 339.157 -1.33973 6.84614 0
M  V30 3561 H 335.054 -2.27544 6.04065 0
M  V30 3562 H 335.822 -1.64415 8.01817 0
M  V30 3563 N 338.485 -1.33259 -0.841409 0
M  V30 3564 C 339.417 -1.19136 -1.95804 0
M  V30 3565 C 340.43 -0.122965 -1.62335 0
M  V30 3566 O 341.619 -0.373154 -1.74556 0
M  V30 3567 C 338.719 -0.804268 -3.29218 0
M  V30 3568 C 337.892 -1.96376 -3.90839 0
M  V30 3569 C 336.951 -1.55806 -5.02604 0
M  V30 3570 O 335.977 -2.27203 -5.21888 0
M  V30 3571 N 337.179 -0.461609 -5.78662 0
M  V30 3572 H 339.944 -2.15326 -2.08458 0
M  V30 3573 H 337.505 -1.25971 -1.017 0
M  V30 3574 H 339.497 -0.51501 -4.0141 0
M  V30 3575 H 338.067 0.0668809 -3.12528 0
M  V30 3576 H 337.287 -2.41879 -3.11269 0
M  V30 3577 H 338.575 -2.73966 -4.28742 0
M  V30 3578 H 337.973 0.132343 -5.65545 0
M  V30 3579 H 336.53 -0.232013 -6.51387 0
M  V30 3580 N 339.963 1.05934 -1.16686 0
M  V30 3581 C 341.379 1.30938 -0.912542 0
M  V30 3582 C 341.579 1.96803 0.432533 0
M  V30 3583 O 340.635 2.23693 1.17123 0
M  V30 3584 C 341.948 2.18649 -2.06429 0
M  V30 3585 C 343.496 2.32055 -2.10047 0
M  V30 3586 C 343.971 3.23122 -3.24586 0
M  V30 3587 N 345.462 3.30706 -3.24327 0
M  V30 3588 C 346.197 4.01273 -4.09594 0
M  V30 3589 N 345.693 4.74332 -5.04956 0
M  V30 3590 N 347.486 3.97361 -3.97569 0
M  V30 3591 H 339.637 0.615777 -2.03278 0
M  V30 3592 H 341.9 0.334077 -0.887185 0
M  V30 3593 H 341.606 1.77534 -3.03603 0
M  V30 3594 H 341.48 3.19252 -2.00894 0
M  V30 3595 H 343.867 2.72415 -1.13464 0
M  V30 3596 H 343.948 1.31107 -2.19647 0
M  V30 3597 H 343.592 2.83477 -4.2143 0
M  V30 3598 H 343.522 4.24057 -3.12223 0
M  V30 3599 H 346.013 2.78644 -2.55276 0
M  V30 3600 H 346.326 5.25716 -5.6643 0
M  V30 3601 H 344.671 4.733 -5.08933 0
M  V30 3602 H 347.862 3.39405 -3.22369 0
M  V30 3603 H 348.035 4.52089 -4.64241 0
M  V30 3604 N 341.441 0.965919 1.2453 0
M  V30 3605 C 342.351 0.502154 2.29163 0
M  V30 3606 C 343.367 -0.436017 1.68448 0
M  V30 3607 O 344.543 -0.309497 1.99008 0
M  V30 3608 C 341.608 -0.201956 3.46111 0
M  V30 3609 C 340.669 0.775821 4.22232 0
M  V30 3610 C 339.902 0.105217 5.33596 0
M  V30 3611 O 340.125 -1.10683 5.59558 0
M  V30 3612 O 339.059 0.796475 5.96607 0
M  V30 3613 H 342.885 1.37194 2.70946 0
M  V30 3614 H 340.47 0.732875 1.30189 0
M  V30 3615 H 342.352 -0.597564 4.17142 0
M  V30 3616 H 341.027 -1.04673 3.06309 0
M  V30 3617 H 339.934 1.22185 3.53584 0
M  V30 3618 H 341.267 1.58896 4.65846 0
M  V30 3619 N 342.919 -1.39368 0.735821 0
M  V30 3620 C 344.149 -2.04498 0.293967 0
M  V30 3621 C 344.557 -1.55593 -1.07645 0
M  V30 3622 O 343.9 -0.716324 -1.69158 0
M  V30 3623 C 343.962 -3.58836 0.218342 0
M  V30 3624 C 343.626 -4.30721 1.52736 0
M  V30 3625 C 344.623 -4.57305 2.47322 0
M  V30 3626 C 342.308 -4.69251 1.79189 0
M  V30 3627 C 344.302 -5.21429 3.66593 0
M  V30 3628 C 341.989 -5.33104 2.98737 0
M  V30 3629 C 342.987 -5.59125 3.9226 0
M  V30 3630 O 342.675 -6.21653 5.09708 0
M  V30 3631 H 342.407 -0.664118 0.126189 0
M  V30 3632 H 344.961 -1.79385 1.00051 0
M  V30 3633 H 343.191 -3.8285 -0.544314 0
M  V30 3634 H 344.88 -4.05447 -0.191626 0
M  V30 3635 H 345.646 -4.27983 2.28156 0
M  V30 3636 H 341.525 -4.48354 1.07239 0
M  V30 3637 H 345.069 -5.41656 4.39607 0
M  V30 3638 H 340.966 -5.61846 3.17803 0
M  V30 3639 H 341.734 -6.40146 5.10054 0
M  V30 3640 N 344.397 -0.483516 -1.5 0
M  V30 3641 C 345.622 0.0667119 -2.07293 0
M  V30 3642 C 346.047 1.3164 -1.3436 0
M  V30 3643 O 345.405 1.76945 -0.394987 0
M  V30 3644 C 345.453 0.321126 -3.59167 0
M  V30 3645 O 344.557 1.39927 -3.87936 0
M  V30 3646 H 343.898 -0.0184758 -0.663743 0
M  V30 3647 H 346.428 -0.678125 -1.93035 0
M  V30 3648 H 346.438 0.557906 -4.04168 0
M  V30 3649 H 345.113 -0.592007 -4.11665 0
M  V30 3650 H 343.69 1.14882 -3.54763 0
M  V30 3651 N 345.875 1.56104 -0.216619 0
M  V30 3652 C 346.785 2.23694 0.706982 0
M  V30 3653 C 347.801 1.24295 1.21765 0
M  V30 3654 O 348.977 1.57094 1.2603 0
M  V30 3655 C 346.042 2.8998 1.90033 0
M  V30 3656 C 345.103 4.04708 1.43213 0
M  V30 3657 C 344.336 4.67824 2.56859 0
M  V30 3658 O 344.559 4.29913 3.74874 0
M  V30 3659 O 343.493 5.56905 2.28343 0
M  V30 3660 H 347.319 3.03272 0.161235 0
M  V30 3661 H 344.904 1.49394 0.0136177 0
M  V30 3662 H 346.786 3.31837 2.59735 0
M  V30 3663 H 345.461 2.13365 2.43428 0
M  V30 3664 H 344.368 3.6743 0.70327 0
M  V30 3665 H 345.701 4.83051 0.944615 0
M  V30 3666 N 347.353 -0.0568162 1.57498 0
M  V30 3667 C 348.6 -0.753104 1.87975 0
M  V30 3668 C 348.928 -1.76815 0.81035 0
M  V30 3669 O 348.183 -1.94756 -0.19199 0
M  V30 3670 C 348.482 -1.48359 3.25153 0
M  V30 3671 C 348.148 -0.60713 4.46794 0
M  V30 3672 C 346.81 -0.365642 4.79809 0
M  V30 3673 C 349.162 -0.000305978 5.212 0
M  V30 3674 C 346.49 0.491905 5.84634 0
M  V30 3675 C 348.842 0.844781 6.26934 0
M  V30 3676 C 347.506 1.096 6.58441 0
M  V30 3677 H 346.776 -0.27558 0.687849 0
M  V30 3678 H 349.423 -0.0135173 1.91495 0
M  V30 3679 H 347.728 -2.29577 3.17492 0
M  V30 3680 H 349.425 -2.02739 3.45974 0
M  V30 3681 H 346.015 -0.805487 4.20963 0
M  V30 3682 H 350.199 -0.173961 4.95995 0
M  V30 3683 H 345.455 0.695131 6.07436 0
M  V30 3684 H 349.629 1.32165 6.83744 0
M  V30 3685 H 347.256 1.76224 7.39492 0
M  V30 3686 N 348.832 -1.54138 -0.328536 0
M  V30 3687 C 349.779 -1.83176 -1.40411 0
M  V30 3688 C 350.749 -0.678494 -1.5161 0
M  V30 3689 O 351.934 -0.92443 -1.6691 0
M  V30 3690 C 349.074 -2.06035 -2.76846 0
M  V30 3691 C 348.187 -3.33727 -2.74318 0
M  V30 3692 C 347.322 -3.46574 -4.02567 0
M  V30 3693 C 346.361 -4.68159 -3.94327 0
M  V30 3694 N 345.498 -4.77959 -5.14296 0
M  V30 3695 H 350.338 -2.74938 -1.14948 0
M  V30 3696 H 347.875 -1.36166 -0.556538 0
M  V30 3697 H 349.833 -2.1728 -3.56153 0
M  V30 3698 H 348.463 -1.1757 -3.00628 0
M  V30 3699 H 347.515 -3.31246 -1.8703 0
M  V30 3700 H 348.827 -4.23139 -2.64111 0
M  V30 3701 H 347.981 -3.57333 -4.90304 0
M  V30 3702 H 346.72 -2.55245 -4.15574 0
M  V30 3703 H 345.725 -4.57461 -3.04974 0
M  V30 3704 H 346.95 -5.60868 -3.82889 0
M  V30 3705 H 344.896 -3.89544 -5.27818 0
M  V30 3706 H 344.813 -5.6133 -5.06404 0
M  V30 3707 H 346.081 -4.93044 -6.03761 0
M  V30 3708 N 350.31 0.590341 -1.46126 0
M  V30 3709 C 351.726 0.912917 -1.30912 0
M  V30 3710 C 351.926 1.99616 -0.274893 0
M  V30 3711 O 350.982 2.50397 0.325197 0
M  V30 3712 C 352.295 1.3375 -2.69317 0
M  V30 3713 C 353.843 1.45077 -2.77348 0
M  V30 3714 C 354.318 1.90904 -4.16317 0
M  V30 3715 N 355.809 1.9811 -4.18696 0
M  V30 3716 C 356.544 2.34828 -5.23109 0
M  V30 3717 N 356.04 2.70393 -6.37856 0
M  V30 3718 N 357.833 2.35317 -5.10473 0
M  V30 3719 H 349.984 -0.125358 -2.1203 0
M  V30 3720 H 352.247 0.00658481 -0.947977 0
M  V30 3721 H 351.953 0.615614 -3.4627 0
M  V30 3722 H 351.827 2.30058 -2.9892 0
M  V30 3723 H 354.214 2.16353 -2.00687 0
M  V30 3724 H 354.295 0.4704 -2.51438 0
M  V30 3725 H 353.939 1.20209 -4.9347 0
M  V30 3726 H 353.869 2.89886 -4.39629 0
M  V30 3727 H 356.36 1.73146 -3.359 0
M  V30 3728 H 356.673 2.97341 -7.13308 0
M  V30 3729 H 355.018 2.68048 -6.41229 0
M  V30 3730 H 358.209 2.0695 -4.19868 0
M  V30 3731 H 358.382 2.63605 -5.9196 0
M  V30 3732 N 351.788 1.33704 0.83433 0
M  V30 3733 C 352.72 1.20172 1.9517 0
M  V30 3734 C 353.733 0.131572 1.62267 0
M  V30 3735 O 354.922 0.382406 1.74356 0
M  V30 3736 C 352.022 0.821716 3.28787 0
M  V30 3737 C 351.195 1.98446 3.89792 0
M  V30 3738 C 350.254 1.58469 5.01771 0
M  V30 3739 O 349.28 2.29968 5.20676 0
M  V30 3740 N 350.482 0.492291 5.78409 0
M  V30 3741 H 353.247 2.16429 2.07313 0
M  V30 3742 H 350.808 1.26509 1.0103 0
M  V30 3743 H 352.8 0.536291 4.01131 0
M  V30 3744 H 351.37 -0.0503058 3.1256 0
M  V30 3745 H 350.59 2.43526 3.09982 0
M  V30 3746 H 351.878 2.76236 4.27283 0
M  V30 3747 H 351.276 -0.102349 5.65607 0
M  V30 3748 H 349.833 0.266555 6.51255 0
M  V30 3749 N 353.266 -1.05314 1.17247 0
M  V30 3750 C 354.198 -2.13023 0.845812 0
M  V30 3751 C 355.211 -1.62096 -0.151246 0
M  V30 3752 O 356.4 -1.78343 0.0748818 0
M  V30 3753 C 353.5 -3.38047 0.240292 0
M  V30 3754 C 352.673 -4.18255 1.27991 0
M  V30 3755 C 351.732 -5.21625 0.692375 0
M  V30 3756 O 350.758 -5.52619 1.36385 0
M  V30 3757 N 351.96 -5.78201 -0.516178 0
M  V30 3758 H 354.725 -2.41642 1.77283 0
M  V30 3759 H 352.286 -1.21401 1.07115 0
M  V30 3760 H 354.278 -4.04359 -0.16603 0
M  V30 3761 H 352.848 -3.06972 -0.590487 0
M  V30 3762 H 352.068 -3.47451 1.86203 0
M  V30 3763 H 353.356 -4.68643 1.98119 0
M  V30 3764 H 352.754 -5.55301 -1.07969 0
M  V30 3765 H 351.311 -6.4604 -0.86458 0
M  V30 3766 N 354.744 -0.972509 -1.24016 0
M  V30 3767 C 355.674 -0.525548 -2.27509 0
M  V30 3768 C 356.655 0.437262 -1.64384 0
M  V30 3769 O 357.84 0.332343 -1.91335 0
M  V30 3770 C 354.97 0.180448 -3.46831 0
M  V30 3771 C 353.924 -0.698859 -4.22256 0
M  V30 3772 C 353.25 0.138903 -5.3452 0
M  V30 3773 C 354.55 -1.98582 -4.83076 0
M  V30 3774 H 356.244 -1.39058 -2.65148 0
M  V30 3775 H 353.79 -0.67009 -1.27459 0
M  V30 3776 H 355.743 0.504387 -4.18371 0
M  V30 3777 H 354.467 1.07987 -3.08231 0
M  V30 3778 H 353.126 -1.00614 -3.52523 0
M  V30 3779 H 352.774 1.03862 -4.9216 0
M  V30 3780 H 352.474 -0.446259 -5.85903 0
M  V30 3781 H 353.998 0.457404 -6.08884 0
M  V30 3782 H 355.412 -1.72715 -5.46665 0
M  V30 3783 H 353.809 -2.5181 -5.44713 0
M  V30 3784 H 354.879 -2.67769 -4.04262 0
M  V30 3785 N 356.222 1.38976 -0.743202 0
M  V30 3786 C 357.132 2.3434 -0.110399 0
M  V30 3787 C 358.148 1.58741 0.712559 0
M  V30 3788 O 359.324 1.9099 0.639125 0
M  V30 3789 C 356.389 3.37812 0.780012 0
M  V30 3790 C 355.45 4.29263 -0.0561319 0
M  V30 3791 C 354.683 5.27793 0.791875 0
M  V30 3792 O 354.906 5.33043 2.03031 0
M  V30 3793 O 353.84 6.01512 0.216183 0
M  V30 3794 H 357.666 2.90129 -0.897714 0
M  V30 3795 H 355.251 1.40643 -0.503966 0
M  V30 3796 H 357.133 4.01194 1.28923 0
M  V30 3797 H 355.808 2.84395 1.546 0
M  V30 3798 H 354.715 3.69076 -0.611056 0
M  V30 3799 H 356.048 4.85907 -0.784531 0
M  V30 3800 N 357.7 0.491464 1.49741 0
M  V30 3801 C 358.63 -0.28154 2.31796 0
M  V30 3802 C 359.611 -0.971473 1.3963 0
M  V30 3803 O 360.796 -0.964719 1.68543 0
M  V30 3804 C 357.926 -1.35203 3.19902 0
M  V30 3805 C 356.88 -0.782529 4.20786 0
M  V30 3806 C 356.206 -1.95283 4.97764 0
M  V30 3807 C 357.506 0.21999 5.21837 0
M  V30 3808 H 359.2 0.403355 2.96671 0
M  V30 3809 H 356.746 0.195425 1.42668 0
M  V30 3810 H 358.699 -1.90045 3.76113 0
M  V30 3811 H 357.423 -2.06598 2.52953 0
M  V30 3812 H 356.082 -0.255928 3.65706 0
M  V30 3813 H 355.73 -2.65423 4.2727 0
M  V30 3814 H 355.43 -1.57789 5.66018 0
M  V30 3815 H 356.954 -2.50577 5.56816 0
M  V30 3816 H 358.368 -0.23996 5.72798 0
M  V30 3817 H 356.765 0.51026 5.97927 0
M  V30 3818 H 357.835 1.13911 4.7133 0
M  V30 3819 N 359.178 -1.55987 0.224894 0
M  V30 3820 C 360.455 -1.90232 -0.455083 0
M  V30 3821 C 360.835 -1.14269 -1.77499 0
M  V30 3822 O 360.183 -0.253079 -2.27094 0
M  V30 3823 C 360.393 -3.42993 -0.644758 0
M  V30 3824 C 361.741 -4.13821 -0.950669 0
M  V30 3825 O 362.765 -3.4861 -0.731423 0
M  V30 3826 O 361.624 -5.29128 -1.36695 0
M  V30 3827 H 358.718 -0.79108 -0.241084 0
M  V30 3828 H 361.264 -1.67581 0.267327 0
M  V30 3829 H 360.036 -3.90252 0.28613 0
M  V30 3830 H 359.659 -3.71434 -1.41853 0
M  V30 3831 N 360.656 0.0484629 -1.57525 0
M  V30 3832 C 361.933 0.777447 -1.79486 0
M  V30 3833 C 362.313 1.94597 -0.818251 0
M  V30 3834 O 361.661 2.28047 0.143767 0
M  V30 3835 C 361.871 1.22864 -3.26658 0
M  V30 3836 C 363.219 1.65251 -3.91123 0
M  V30 3837 O 364.243 1.32372 -3.3069 0
M  V30 3838 O 363.102 2.26207 -4.97486 0
M  V30 3839 H 360.196 0.374357 -0.737419 0
M  V30 3840 H 362.742 0.0267359 -1.69679 0
M  V30 3841 H 361.514 0.393589 -3.89316 0
M  V30 3842 H 361.137 2.03996 -3.41279 0
M  V30 3843 N 362.134 1.5431 0.320358 0
M  V30 3844 C 363.044 1.86946 1.41734 0
M  V30 3845 C 364.06 0.761689 1.56443 0
M  V30 3846 O 365.236 1.05629 1.71477 0
M  V30 3847 C 362.301 2.09293 2.76401 0
M  V30 3848 C 361.362 3.33082 2.70841 0
M  V30 3849 C 360.595 3.54353 3.99086 0
M  V30 3850 O 360.818 2.79002 4.97508 0
M  V30 3851 O 359.752 4.47838 4.0215 0
M  V30 3852 H 363.578 2.80232 1.17062 0
M  V30 3853 H 361.163 1.40255 0.514673 0
M  V30 3854 H 363.045 2.25303 3.56113 0
M  V30 3855 H 361.72 1.19194 3.00956 0
M  V30 3856 H 360.627 3.22454 1.89668 0
M  V30 3857 H 361.96 4.23249 2.5124 0
M  V30 3858 N 363.613 -0.582584 1.46437 0
M  V30 3859 C 364.543 -1.70187 1.59871 0
M  V30 3860 C 365.524 -1.64066 0.449042 0
M  V30 3861 O 366.709 -1.82081 0.6753 0
M  V30 3862 C 363.839 -3.08827 1.58881 0
M  V30 3863 C 362.793 -3.29779 2.72819 0
M  V30 3864 C 362.119 -4.68947 2.5689 0
M  V30 3865 C 363.419 -3.17601 4.1464 0
M  V30 3866 H 365.113 -1.592 2.53566 0
M  V30 3867 H 362.659 -0.764472 1.22032 0
M  V30 3868 H 364.612 -3.86951 1.66873 0
M  V30 3869 H 363.336 -3.20713 0.617306 0
M  V30 3870 H 361.995 -2.54054 2.64296 0
M  V30 3871 H 361.643 -4.77599 1.57823 0
M  V30 3872 H 361.343 -4.83919 3.33312 0
M  V30 3873 H 362.867 -5.4924 2.66773 0
M  V30 3874 H 364.281 -3.8557 4.24274 0
M  V30 3875 H 362.678 -3.44094 4.9165 0
M  V30 3876 H 363.748 -2.14681 4.34788 0
M  V30 3877 N 365.091 -1.34144 -0.827227 0
M  V30 3878 C 366.038 -1.25364 -1.93785 0
M  V30 3879 C 367.008 -0.129774 -1.65592 0
M  V30 3880 O 368.193 -0.310024 -1.88264 0
M  V30 3881 C 365.333 -1.01064 -3.2997 0
M  V30 3882 C 364.446 -2.22185 -3.70484 0
M  V30 3883 C 363.581 -1.91203 -4.95595 0
M  V30 3884 C 362.62 -3.08491 -5.28677 0
M  V30 3885 N 361.757 -2.77421 -6.44967 0
M  V30 3886 H 366.597 -2.20347 -2.00627 0
M  V30 3887 H 364.134 -1.09558 -0.981608 0
M  V30 3888 H 366.092 -0.850139 -4.08446 0
M  V30 3889 H 364.722 -0.0975026 -3.22653 0
M  V30 3890 H 363.774 -2.4917 -2.87434 0
M  V30 3891 H 365.086 -3.0983 -3.90905 0
M  V30 3892 H 364.24 -1.71864 -5.81848 0
M  V30 3893 H 362.979 -1.00812 -4.77167 0
M  V30 3894 H 361.984 -3.28431 -4.40923 0
M  V30 3895 H 363.209 -3.99655 -5.49047 0
M  V30 3896 H 361.155 -1.89601 -6.28003 0
M  V30 3897 H 361.072 -3.58598 -6.6554 0
M  V30 3898 H 362.34 -2.61577 -7.34301 0
M  V30 3899 N 366.569 1.04691 -1.17803 0
M  V30 3900 C 367.794 1.81984 -0.994813 0
M  V30 3901 C 368.219 1.82586 0.452112 0
M  V30 3902 O 367.577 1.23854 1.324 0
M  V30 3903 C 367.625 3.2575 -1.54659 0
M  V30 3904 O 366.729 4.05267 -0.763728 0
M  V30 3905 H 366.07 0.562483 -0.352857 0
M  V30 3906 H 368.6 1.3189 -1.56417 0
M  V30 3907 H 368.61 3.76541 -1.57102 0
M  V30 3908 H 367.285 3.24627 -2.59981 0
M  V30 3909 H 365.862 3.63972 -0.811108 0
M  V30 3910 N 368.047 0.979072 1.23499 0
M  V30 3911 C 369.293 0.648178 1.92163 0
M  V30 3912 C 369.626 -0.816049 1.76222 0
M  V30 3913 O 368.901 -1.58849 1.12237 0
M  V30 3914 C 369.184 1.03773 3.44824 0
M  V30 3915 C 369.037 2.55948 3.69879 0
M  V30 3916 C 370.356 0.580653 4.36253 0
M  V30 3917 H 367.475 0.236952 0.69787 0
M  V30 3918 H 370.117 1.22012 1.45647 0
M  V30 3919 H 368.267 0.551058 3.84572 0
M  V30 3920 H 369.939 3.12179 3.3962 0
M  V30 3921 H 368.182 2.98641 3.14636 0
M  V30 3922 H 368.853 2.78255 4.76737 0
M  V30 3923 H 371.329 0.998465 4.03943 0
M  V30 3924 H 370.205 0.881663 5.41773 0
M  V30 3925 H 370.466 -0.519052 4.39042 0
M  V30 3926 N 369.525 -1.3858 0.750561 0
M  V30 3927 C 370.435 -2.34278 0.122825 0
M  V30 3928 C 371.451 -1.59116 -0.704131 0
M  V30 3929 O 372.627 -1.91326 -0.628987 0
M  V30 3930 C 369.692 -3.38221 -0.762086 0
M  V30 3931 C 368.753 -4.29227 0.078896 0
M  V30 3932 C 367.986 -5.28205 -0.763874 0
M  V30 3933 O 368.209 -5.34112 -2.00201 0
M  V30 3934 O 367.143 -6.01618 -0.18428 0
M  V30 3935 H 370.969 -2.89649 0.913088 0
M  V30 3936 H 368.554 -1.40374 0.511417 0
M  V30 3937 H 370.436 -4.01872 -1.26793 0
M  V30 3938 H 369.111 -2.85211 -1.5309 0
M  V30 3939 H 368.018 -3.68747 0.630621 0
M  V30 3940 H 369.351 -4.85484 0.810289 0
M  V30 3941 N 371.003 -0.499398 -1.49478 0
M  V30 3942 C 371.951 0.293604 -2.3074 0
M  V30 3943 C 372.945 0.96427 -1.39277 0
M  V30 3944 O 374.151 0.892141 -1.56336 0
M  V30 3945 H 370.526 0.113541 -0.743379 0
M  V30 3946 H 372.497 -0.411772 -2.95545 0
M  V30 3947 C 371.246 1.3462 -3.20582 0
M  V30 3948 H 370.569 0.83954 -3.90886 0
M  V30 3949 H 372.009 1.87308 -3.80384 0
M  V30 3950 C 370.468 2.36351 -2.40083 0
M  V30 3951 O 370.998 3.422 -2.10385 0
M  V30 3952 N 369.204 2.0878 -2.02137 0
M  V30 3953 H 368.751 1.22723 -2.26488 0
M  V30 3954 H 368.709 2.77075 -1.48583 0
M  V30 3955 N 372.481 1.55866 -0.233164 0
M  V30 3956 C 373.413 2.18099 0.704668 0
M  V30 3957 C 374.426 1.15334 1.14899 0
M  V30 3958 O 375.615 1.42262 1.07814 0
M  V30 3959 C 372.715 2.7592 1.96777 0
M  V30 3960 C 371.888 4.03969 1.67713 0
M  V30 3961 C 370.947 4.46242 2.78845 0
M  V30 3962 O 369.973 5.12903 2.46818 0
M  V30 3963 N 371.175 4.12886 4.08051 0
M  V30 3964 H 373.94 2.99205 0.172258 0
M  V30 3965 H 371.501 1.61815 -0.0525945 0
M  V30 3966 H 373.493 3.01165 2.70337 0
M  V30 3967 H 372.063 1.99051 2.41034 0
M  V30 3968 H 371.283 3.86459 0.777391 0
M  V30 3969 H 372.571 4.8748 1.4574 0
M  V30 3970 H 371.969 3.59342 4.3691 0
M  V30 3971 H 370.526 4.42997 4.78118 0
M  V30 3972 N 373.959 -0.0401083 1.57549 0
M  V30 3973 C 374.892 -1.07689 2.01192 0
M  V30 3974 C 375.87 -1.358 0.894273 0
M  V30 3975 O 377.054 -1.48642 1.15921 0
M  V30 3976 C 374.181 -2.41418 2.3756 0
M  V30 3977 C 373.227 -2.29237 3.59656 0
M  V30 3978 S 374.06 -1.65628 5.09242 0
M  V30 3979 C 375.216 -3.0087 5.48843 0
M  V30 3980 H 375.449 -0.705108 2.88817 0
M  V30 3981 H 372.982 -0.249724 1.52367 0
M  V30 3982 H 374.94 -3.18329 2.59186 0
M  V30 3983 H 373.601 -2.75747 1.50407 0
M  V30 3984 H 372.794 -3.27932 3.82722 0
M  V30 3985 H 372.396 -1.60469 3.37825 0
M  V30 3986 H 374.688 -3.97201 5.48851 0
M  V30 3987 H 375.631 -2.82549 6.49286 0
M  V30 3988 H 376.039 -3.02934 4.76331 0
M  V30 3989 N 375.437 -1.54477 -0.31217 0
M  V30 3990 C 376.853 -1.45442 -0.657185 0
M  V30 3991 C 377.053 -0.63653 -1.91182 0
M  V30 3992 O 376.109 -0.139815 -2.52113 0
M  V30 3993 C 377.422 -2.89287 -0.82058 0
M  V30 3994 C 378.97 -2.9926 -0.917188 0
M  V30 3995 C 379.445 -4.44279 -1.11267 0
M  V30 3996 N 380.936 -4.4794 -1.17914 0
M  V30 3997 C 381.671 -5.57318 -1.34848 0
M  V30 3998 N 381.167 -6.76642 -1.48752 0
M  V30 3999 N 382.96 -5.44986 -1.37647 0
M  V30 4000 H 375.111 -2.06129 0.512313 0
M  V30 4001 H 377.374 -0.933088 0.167485 0
M  V30 4002 H 377.08 -3.51687 0.0302604 0
M  V30 4003 H 376.954 -3.36061 -1.71298 0
M  V30 4004 H 379.341 -2.36981 -1.75852 0
M  V30 4005 H 379.422 -2.558 -0.00101257 0
M  V30 4006 H 379.066 -5.07149 -0.27614 0
M  V30 4007 H 378.996 -4.85359 -2.04289 0
M  V30 4008 H 381.487 -3.61969 -1.08567 0
M  V30 4009 H 381.8 -7.55758 -1.61397 0
M  V30 4010 H 380.145 -6.79529 -1.45828 0
M  V30 4011 H 383.336 -4.50715 -1.26388 0
M  V30 4012 H 383.509 -6.3028 -1.50501 0
M  V30 4013 N 376.915 0.57481 -1.46744 0
M  V30 4014 C 378.145 1.35659 -1.55821 0
M  V30 4015 C 378.553 1.88129 -0.201036 0
M  V30 4016 O 377.896 1.64723 0.813134 0
M  V30 4017 C 377.958 2.57473 -2.50894 0
M  V30 4018 C 377.622 2.26415 -3.9697 0
M  V30 4019 C 378.619 1.84771 -4.85958 0
M  V30 4020 C 376.304 2.38316 -4.42166 0
M  V30 4021 C 378.298 1.55434 -6.18158 0
M  V30 4022 C 375.985 2.08591 -5.74398 0
M  V30 4023 C 376.983 1.67216 -6.62214 0
M  V30 4024 O 376.671 1.37859 -7.91991 0
M  V30 4025 H 376.403 0.420496 -0.529301 0
M  V30 4026 H 378.957 0.704967 -1.92923 0
M  V30 4027 H 377.187 3.25468 -2.08824 0
M  V30 4028 H 378.876 3.19546 -2.50291 0
M  V30 4029 H 379.642 1.75085 -4.52295 0
M  V30 4030 H 375.521 2.69483 -3.74032 0
M  V30 4031 H 379.065 1.23065 -6.86659 0
M  V30 4032 H 374.962 2.17905 -6.07608 0
M  V30 4033 H 375.73 1.51638 -8.04331 0
M  V30 4034 N 378.394 1.34581 0.820102 0
M  V30 4035 C 379.357 1.2628 1.91275 0
M  V30 4036 C 380.357 0.177344 1.59819 0
M  V30 4037 O 381.547 0.430156 1.68806 0
M  V30 4038 C 378.679 0.950327 3.27386 0
M  V30 4039 H 379.872 2.23421 2.00057 0
M  V30 4040 H 377.425 1.1891 1.0144 0
M  V30 4041 H 378.16 -0.0177938 3.24295 0
M  V30 4042 H 377.945 1.73549 3.51601 0
M  V30 4043 H 379.435 0.917492 4.07396 0
M  V30 4044 N 379.872 -1.04064 1.18357 0
M  V30 4045 C 380.804 -2.12114 0.868358 0
M  V30 4046 C 381.817 -1.62247 -0.134045 0
M  V30 4047 O 383.006 -1.78253 0.0937933 0
M  V30 4048 C 380.106 -3.37773 0.276132 0
M  V30 4049 C 379.279 -4.16874 1.3242 0
M  V30 4050 C 378.338 -5.20861 0.747662 0
M  V30 4051 O 377.364 -5.51141 1.42239 0
M  V30 4052 N 378.566 -5.78715 -0.454823 0
M  V30 4053 H 381.331 -2.39748 1.79836 0
M  V30 4054 H 378.892 -1.20258 1.08396 0
M  V30 4055 H 380.884 -4.04513 -0.123133 0
M  V30 4056 H 379.454 -3.07581 -0.557895 0
M  V30 4057 H 378.674 -3.45456 1.89878 0
M  V30 4058 H 379.962 -4.66516 2.03078 0
M  V30 4059 H 379.36 -5.56415 -1.02073 0
M  V30 4060 H 377.917 -6.46921 -0.79601 0
M  V30 4061 N 381.35 -0.985608 -1.22978 0
M  V30 4062 C 382.578 -0.675582 -1.95559 0
M  V30 4063 C 382.993 0.758413 -1.72897 0
M  V30 4064 O 382.35 1.51094 -1.02357 0
M  V30 4065 C 382.401 -0.96293 -3.48439 0
M  V30 4066 O 382.122 -2.34057 -3.70336 0
M  V30 4067 C 383.623 -0.669585 -4.38214 0
M  V30 4068 H 380.843 -0.250523 -0.622478 0
M  V30 4069 H 383.387 -1.3184 -1.56328 0
M  V30 4070 H 381.542 -0.366033 -3.85667 0
M  V30 4071 H 381.956 -2.43424 -4.64591 0
M  V30 4072 H 383.43 -0.920967 -5.44263 0
M  V30 4073 H 383.907 0.396383 -4.37408 0
M  V30 4074 H 384.513 -1.2472 -4.06602 0
M  V30 4075 N 382.828 1.3818 -0.7579 0
M  V30 4076 C 383.76 2.2901 -0.0932177 0
M  V30 4077 C 384.773 1.47958 0.679136 0
M  V30 4078 O 385.962 1.70773 0.519514 0
M  V30 4079 C 383.062 3.26953 0.89192 0
M  V30 4080 C 382.235 4.37045 0.176303 0
M  V30 4081 C 381.294 5.15148 1.07281 0
M  V30 4082 O 380.32 5.66616 0.541728 0
M  V30 4083 N 381.522 5.28542 2.40049 0
M  V30 4084 H 384.287 2.86694 -0.873303 0
M  V30 4085 H 381.848 1.50007 -0.609054 0
M  V30 4086 H 383.84 3.76083 1.49479 0
M  V30 4087 H 382.41 2.70136 1.57306 0
M  V30 4088 H 381.63 3.89493 -0.607328 0
M  V30 4089 H 382.918 5.07801 -0.318718 0
M  V30 4090 H 382.316 4.88285 2.85647 0
M  V30 4091 H 380.873 5.8103 2.95376 0
M  V30 4092 N 384.306 0.507319 1.49211 0
M  V30 4093 C 385.236 -0.256939 2.32082 0
M  V30 4094 C 386.217 -0.956609 1.40652 0
M  V30 4095 O 387.402 -0.946788 1.69557 0
M  V30 4096 C 384.532 -1.31802 3.21318 0
M  V30 4097 C 383.486 -0.737855 4.21592 0
M  V30 4098 C 382.812 -1.89992 4.99807 0
M  V30 4099 C 384.112 0.275325 5.21574 0
M  V30 4100 H 385.806 0.434798 2.96226 0
M  V30 4101 H 383.352 0.210546 1.42452 0
M  V30 4102 H 385.305 -1.86045 3.78107 0
M  V30 4103 H 384.029 -2.03903 2.5513 0
M  V30 4104 H 382.688 -0.217126 3.65956 0
M  V30 4105 H 382.336 -2.60877 4.30061 0
M  V30 4106 H 382.036 -1.51777 5.6766 0
M  V30 4107 H 383.56 -2.44657 5.59442 0
M  V30 4108 H 384.974 -0.179193 5.7302 0
M  V30 4109 H 383.371 0.573649 5.97352 0
M  V30 4110 H 384.441 1.18903 4.70096 0
M  V30 4111 N 385.784 -1.5574 0.241426 0
M  V30 4112 C 387.061 -1.90704 -0.434881 0
M  V30 4113 C 387.441 -1.16145 -1.76277 0
M  V30 4114 O 386.789 -0.277152 -2.26813 0
M  V30 4115 C 386.999 -3.43657 -0.608343 0
M  V30 4116 C 388.347 -4.14806 -0.906725 0
M  V30 4117 O 389.371 -3.49366 -0.694408 0
M  V30 4118 O 388.23 -5.30548 -1.31075 0
M  V30 4119 H 385.324 -0.793592 -0.23268 0
M  V30 4120 H 387.87 -1.67288 0.285086 0
M  V30 4121 H 386.642 -3.89927 0.327505 0
M  V30 4122 H 386.265 -3.72918 -1.37906 0
M  V30 4123 N 387.262 0.0317525 -1.57568 0
M  V30 4124 C 388.209 1.0332 -2.06382 0
M  V30 4125 C 389.179 1.36082 -0.952414 0
M  V30 4126 O 390.364 1.46466 -1.2228 0
M  V30 4127 C 387.504 2.32989 -2.54578 0
M  V30 4128 C 386.617 2.0641 -3.79498 0
M  V30 4129 C 385.752 3.2993 -4.16317 0
M  V30 4130 C 384.791 2.98893 -5.34162 0
M  V30 4131 N 383.928 4.14857 -5.66426 0
M  V30 4132 H 388.768 0.609982 -2.9169 0
M  V30 4133 H 386.305 0.289573 -1.44222 0
M  V30 4134 H 388.263 3.0875 -2.80587 0
M  V30 4135 H 386.893 2.73039 -1.7219 0
M  V30 4136 H 385.945 1.21158 -3.6059 0
M  V30 4137 H 387.257 1.79513 -4.65378 0
M  V30 4138 H 386.411 4.1406 -4.4344 0
M  V30 4139 H 385.15 3.59938 -3.29083 0
M  V30 4140 H 384.155 2.13164 -5.06795 0
M  V30 4141 H 385.38 2.70165 -6.23047 0
M  V30 4142 H 383.326 4.44821 -4.82151 0
M  V30 4143 H 383.243 3.91374 -6.4681 0
M  V30 4144 H 384.511 4.99868 -5.98124 0
M  V30 4145 N 388.74 1.54641 0.303973 0
M  V30 4146 C 389.67 1.88386 1.3796 0
M  V30 4147 C 390.651 0.742485 1.5304 0
M  V30 4148 O 391.836 0.997959 1.66597 0
M  V30 4149 C 388.966 2.12854 2.74427 0
M  V30 4150 C 387.92 3.28702 2.74115 0
M  V30 4151 C 387.246 3.38582 4.13844 0
M  V30 4152 C 388.546 4.65881 2.3612 0
M  V30 4153 H 390.24 2.78474 1.09966 0
M  V30 4154 H 387.786 1.33988 0.527556 0
M  V30 4155 H 389.739 2.35047 3.49758 0
M  V30 4156 H 388.463 1.19535 3.03939 0
M  V30 4157 H 387.122 3.06428 2.0124 0
M  V30 4158 H 386.77 2.42784 4.40528 0
M  V30 4159 H 386.47 4.16453 4.14537 0
M  V30 4160 H 387.994 3.63031 4.90959 0
M  V30 4161 H 389.408 4.87823 3.01167 0
M  V30 4162 H 387.805 5.46444 2.48031 0
M  V30 4163 H 388.875 4.66799 1.3125 0
M  V30 4164 N 390.218 -0.567019 1.47046 0
M  V30 4165 C 391.165 -1.67489 1.58796 0
M  V30 4166 C 392.135 -1.60399 0.43144 0
M  V30 4167 O 393.32 -1.79378 0.650233 0
M  V30 4168 C 390.46 -3.05821 1.59899 0
M  V30 4169 C 389.573 -3.2342 2.86397 0
M  V30 4170 C 388.708 -4.52093 2.789 0
M  V30 4171 C 387.747 -4.6309 4.00267 0
M  V30 4172 N 386.884 -5.83106 3.91064 0
M  V30 4173 H 391.724 -1.56785 2.53422 0
M  V30 4174 H 389.261 -0.763896 1.2571 0
M  V30 4175 H 391.219 -3.8591 1.58522 0
M  V30 4176 H 389.849 -3.15384 0.687929 0
M  V30 4177 H 388.901 -2.3683 2.97684 0
M  V30 4178 H 390.213 -3.27412 3.76301 0
M  V30 4179 H 389.367 -5.4043 2.75718 0
M  V30 4180 H 388.106 -4.50565 1.86662 0
M  V30 4181 H 387.111 -3.73168 4.03765 0
M  V30 4182 H 388.336 -4.66386 4.93621 0
M  V30 4183 H 386.282 -5.82546 3.01623 0
M  V30 4184 H 386.199 -5.88434 4.74638 0
M  V30 4185 H 387.467 -6.73831 3.91882 0
M  V30 4186 N 391.696 -1.35014 -0.812953 0
M  V30 4187 C 392.643 -1.27412 -1.92444 0
M  V30 4188 C 393.613 -0.14733 -1.65445 0
M  V30 4189 O 394.798 -0.329974 -1.87925 0
M  V30 4190 C 391.938 -1.04558 -3.28879 0
M  V30 4191 C 391.051 -2.26101 -3.68106 0
M  V30 4192 C 390.186 -1.96449 -4.9354 0
M  V30 4193 C 389.225 -3.14081 -5.25376 0
M  V30 4194 N 388.362 -2.84246 -6.41988 0
M  V30 4195 H 393.202 -2.22463 -1.98278 0
M  V30 4196 H 390.739 -1.10593 -0.969933 0
M  V30 4197 H 392.697 -0.893413 -4.07522 0
M  V30 4198 H 391.327 -0.131719 -3.22531 0
M  V30 4199 H 390.379 -2.52204 -2.84775 0
M  V30 4200 H 391.691 -3.13959 -3.87597 0
M  V30 4201 H 390.845 -1.78026 -5.79993 0
M  V30 4202 H 389.584 -1.05867 -4.76071 0
M  V30 4203 H 388.589 -3.33089 -4.37415 0
M  V30 4204 H 389.814 -4.05455 -5.44778 0
M  V30 4205 H 387.76 -1.96252 -6.25956 0
M  V30 4206 H 387.677 -3.65637 -6.61699 0
M  V30 4207 H 388.945 -2.6935 -7.31485 0
M  V30 4208 N 393.175 1.03435 -1.18907 0
M  V30 4209 C 394.403 1.80381 -1.01342 0
M  V30 4210 C 394.818 1.83649 0.438005 0
M  V30 4211 O 394.175 1.27655 1.30424 0
M  V30 4212 C 394.226 3.25689 -1.56873 0
M  V30 4213 O 393.947 3.22673 -2.96334 0
M  V30 4214 C 395.448 4.19255 -1.44014 0
M  V30 4215 H 392.668 0.56784 -0.35749 0
M  V30 4216 H 395.212 1.30317 -1.576 0
M  V30 4217 H 393.367 3.72962 -1.04777 0
M  V30 4218 H 393.781 4.13748 -3.22355 0
M  V30 4219 H 395.255 5.19123 -1.87657 0
M  V30 4220 H 395.732 4.37467 -0.389815 0
M  V30 4221 H 396.338 3.77851 -1.95214 0
M  V30 4222 N 394.653 0.992116 1.22453 0
M  V30 4223 C 395.601 0.534644 2.26372 0
M  V30 4224 C 396.595 -0.414293 1.64256 0
M  V30 4225 O 397.801 -0.286899 1.77699 0
M  V30 4226 H 394.176 0.154502 0.735957 0
M  V30 4227 H 396.147 1.42256 2.62309 0
M  V30 4228 C 394.896 -0.135815 3.47435 0
M  V30 4229 H 394.219 0.585311 3.95492 0
M  V30 4230 H 395.659 -0.419374 4.21921 0
M  V30 4231 C 394.118 -1.37089 3.07747 0
M  V30 4232 O 394.648 -2.46629 3.17076 0
M  V30 4233 N 392.854 -1.24585 2.62539 0
M  V30 4234 H 392.401 -0.354542 2.55149 0
M  V30 4235 H 392.359 -2.07327 2.36353 0
M  V30 4236 N 396.131 -1.37776 0.765217 0
M  V30 4237 C 397.377 -2.00145 0.327072 0
M  V30 4238 C 397.71 -1.60607 -1.09175 0
M  V30 4239 O 396.985 -0.849127 -1.74986 0
M  V30 4240 C 397.268 -3.57109 0.46319 0
M  V30 4241 C 397.121 -4.06576 1.92395 0
M  V30 4242 C 398.44 -4.39888 -0.136473 0
M  V30 4243 H 395.559 -0.727113 0.120316 0
M  V30 4244 H 398.201 -1.63549 0.967039 0
M  V30 4245 H 396.351 -3.88414 -0.0816358 0
M  V30 4246 H 398.023 -3.85864 2.52798 0
M  V30 4247 H 396.266 -3.59011 2.43503 0
M  V30 4248 H 396.937 -5.15639 1.97028 0
M  V30 4249 H 399.413 -4.14803 0.328317 0
M  V30 4250 H 398.289 -5.48899 -0.0110582 0
M  V30 4251 H 398.55 -4.24758 -1.22608 0
M  V30 4252 N 397.609 -0.515225 -1.4894 0
M  V30 4253 C 398.856 0.024215 -2.02486 0
M  V30 4254 C 399.184 1.35671 -1.39368 0
M  V30 4255 O 398.439 1.88566 -0.523574 0
M  V30 4256 C 398.738 0.210595 -3.56779 0
M  V30 4257 C 398.404 -1.04569 -4.38607 0
M  V30 4258 C 397.066 -1.39002 -4.60686 0
M  V30 4259 C 399.418 -1.88008 -4.86109 0
M  V30 4260 C 396.746 -2.568 -5.27514 0
M  V30 4261 C 399.098 -3.04972 -5.54234 0
M  V30 4262 C 397.762 -3.39768 -5.74555 0
M  V30 4263 H 397.032 0.00886088 -0.740947 0
M  V30 4264 H 399.679 -0.678263 -1.79086 0
M  V30 4265 H 397.984 0.99572 -3.78936 0
M  V30 4266 H 399.681 0.642659 -3.95817 0
M  V30 4267 H 396.271 -0.767497 -4.21672 0
M  V30 4268 H 400.455 -1.62719 -4.68867 0
M  V30 4269 H 395.711 -2.8398 -5.41447 0
M  V30 4270 H 399.885 -3.69943 -5.90013 0
M  V30 4271 H 397.512 -4.31148 -6.26112 0
M  V30 4272 N 399.087 1.5561 -0.249682 0
M  V30 4273 C 400.035 2.22894 0.664906 0
M  V30 4274 C 401.029 1.21743 1.17792 0
M  V30 4275 O 402.235 1.39748 1.13449 0
M  V30 4276 H 398.61 0.715022 0.232912 0
M  V30 4277 H 400.581 2.98307 0.0742998 0
M  V30 4278 C 399.33 2.94424 1.84959 0
M  V30 4279 H 398.653 3.72031 1.46399 0
M  V30 4280 H 400.093 3.44862 2.4667 0
M  V30 4281 C 398.552 1.98454 2.72245 0
M  V30 4282 O 399.082 1.51939 3.71857 0
M  V30 4283 N 397.288 1.65496 2.38871 0
M  V30 4284 H 396.835 2.03517 1.57919 0
M  V30 4285 H 396.793 1.0155 2.97548 0
M  V30 4286 N 400.565 -0.0233959 1.57583 0
M  V30 4287 C 401.528 -1.00693 2.05897 0
M  V30 4288 C 402.528 -1.28693 0.964092 0
M  V30 4289 O 403.718 -1.23602 1.22753 0
M  V30 4290 C 400.85 -2.33825 2.4807 0
M  V30 4291 H 402.043 -0.589476 2.9405 0
M  V30 4292 H 399.596 -0.270354 1.53944 0
M  V30 4293 H 400.331 -2.80307 1.6309 0
M  V30 4294 H 400.116 -2.1483 3.2801 0
M  V30 4295 H 401.606 -3.04426 2.85857 0
M  V30 4296 N 402.043 -1.548 -0.295768 0
M  V30 4297 C 403.271 -1.78327 -1.04914 0
M  V30 4298 C 403.686 -0.545316 -1.80753 0
M  V30 4299 O 403.043 0.485013 -1.75937 0
M  V30 4300 C 403.094 -2.99418 -2.02561 0
M  V30 4301 O 402.815 -4.18431 -1.29798 0
M  V30 4302 C 404.316 -3.35375 -2.89895 0
M  V30 4303 H 401.536 -0.594618 -0.310918 0
M  V30 4304 H 404.08 -2.01763 -0.333454 0
M  V30 4305 H 402.235 -2.78175 -2.69624 0
M  V30 4306 H 402.649 -4.86736 -1.95419 0
M  V30 4307 H 404.123 -4.23332 -3.54251 0
M  V30 4308 H 404.6 -2.53761 -3.58472 0
M  V30 4309 H 405.206 -3.58796 -2.28355 0
M  V30 4310 N 403.521 0.559213 -1.47345 0
M  V30 4311 C 404.768 1.31648 -1.53867 0
M  V30 4312 C 405.096 1.93468 -0.200104 0
M  V30 4313 O 404.351 1.78295 0.806799 0
M  V30 4314 C 404.65 2.44853 -2.6035 0
M  V30 4315 C 404.316 2.00876 -4.03683 0
M  V30 4316 C 402.978 1.88599 -4.42701 0
M  V30 4317 C 405.33 1.67279 -4.93626 0
M  V30 4318 C 402.658 1.41017 -5.69501 0
M  V30 4319 C 405.01 1.21169 -6.20887 0
M  V30 4320 C 403.674 1.07487 -6.58789 0
M  V30 4321 H 402.944 0.481734 -0.56304 0
M  V30 4322 H 405.591 0.627301 -1.80934 0
M  V30 4323 H 403.896 3.19318 -2.27032 0
M  V30 4324 H 405.593 3.03039 -2.62619 0
M  V30 4325 H 402.183 2.11374 -3.72853 0
M  V30 4326 H 406.367 1.75638 -4.64182 0
M  V30 4327 H 401.623 1.29086 -5.97618 0
M  V30 4328 H 405.797 0.942345 -6.89995 0
M  V30 4329 H 403.424 0.703946 -7.56934 0
M  V30 4330 N 404.999 1.35443 0.805782 0
M  V30 4331 C 405.949 1.24972 1.90699 0
M  V30 4332 C 406.933 0.144806 1.60247 0
M  V30 4333 O 408.125 0.376102 1.72958 0
M  V30 4334 C 405.254 1.02475 3.27649 0
M  V30 4335 C 404.34 2.17361 3.64164 0
M  V30 4336 N 404.731 3.42591 3.72109 0
M  V30 4337 C 403.029 2.08765 3.94123 0
M  V30 4338 C 403.73 4.18144 4.04389 0
M  V30 4339 N 402.706 3.4691 4.18515 0
M  V30 4340 H 406.508 2.19852 1.95044 0
M  V30 4341 H 404.022 1.27928 1.00041 0
M  V30 4342 H 406.019 0.930617 4.06381 0
M  V30 4343 H 404.679 0.0848009 3.24589 0
M  V30 4344 H 405.69 3.76932 3.55166 0
M  V30 4345 H 402.367 1.22629 3.99084 0
M  V30 4346 H 403.757 5.26367 4.17597 0
M  V30 4347 N 406.477 -1.02803 1.19454 0
M  V30 4348 C 407.726 -1.7562 0.991996 0
M  V30 4349 C 408.039 -1.89672 -0.477901 0
M  V30 4350 O 409.245 -2.59468 -0.799287 0
M  V30 4351 C 407.701 -3.15812 1.72601 0
M  V30 4352 C 407.309 -3.0981 3.23607 0
M  V30 4353 C 409.053 -3.92918 1.60674 0
M  V30 4354 C 406.96 -4.44939 3.89594 0
M  V30 4355 H 405.89 -0.658352 0.367543 0
M  V30 4356 H 408.541 -1.15044 1.42959 0
M  V30 4357 H 406.923 -3.7686 1.21624 0
M  V30 4358 H 408.097 -2.58138 3.81709 0
M  V30 4359 H 406.412 -2.46201 3.35819 0
M  V30 4360 H 409.009 -4.9287 2.07323 0
M  V30 4361 H 409.352 -4.12502 0.561025 0
M  V30 4362 H 409.885 -3.38472 2.09001 0
M  V30 4363 H 406.624 -4.30559 4.94267 0
M  V30 4364 H 406.144 -4.96664 3.36281 0
M  V30 4365 H 407.823 -5.1382 3.93189 0
M  V30 4366 N 407.956 -0.998596 -1.21925 0
M  V30 4367 C 409.202 -0.688337 -1.91399 0
M  V30 4368 C 409.557 0.771805 -1.76241 0
M  V30 4369 O 408.85 1.55153 -1.1242 0
M  V30 4370 C 409.044 -1.03648 -3.42041 0
M  V30 4371 C 408.873 -2.52892 -3.71855 0
M  V30 4372 C 407.643 -3.19389 -3.91559 0
M  V30 4373 C 409.841 -3.5103 -3.75875 0
M  V30 4374 N 407.823 -4.5805 -4.08734 0
M  V30 4375 C 409.194 -4.75174 -3.98259 0
M  V30 4376 C 411.249 -3.45257 -3.58751 0
M  V30 4377 C 409.952 -5.94247 -4.05294 0
M  V30 4378 C 411.978 -4.63712 -3.67049 0
M  V30 4379 C 411.34 -5.86658 -3.89887 0
M  V30 4380 H 407.439 -0.303251 -0.720807 0
M  V30 4381 H 410.023 -1.27977 -1.46731 0
M  V30 4382 H 408.194 -0.473569 -3.85502 0
M  V30 4383 H 409.926 -0.681619 -3.98919 0
M  V30 4384 H 406.681 -2.69846 -3.89205 0
M  V30 4385 H 407.105 -5.29989 -4.21237 0
M  V30 4386 H 411.747 -2.51215 -3.40075 0
M  V30 4387 H 409.465 -6.88687 -4.22772 0
M  V30 4388 H 413.051 -4.6084 -3.5513 0
M  V30 4389 H 411.931 -6.76786 -3.96144 0
M  V30 4390 N 409.434 1.37368 -0.772513 0
M  V30 4391 C 410.384 2.27613 -0.132823 0
M  V30 4392 C 411.368 1.46138 0.673247 0
M  V30 4393 O 412.56 1.68686 0.536095 0
M  V30 4394 C 409.689 3.35122 0.744864 0
M  V30 4395 C 408.775 4.24044 -0.0690771 0
M  V30 4396 N 409.166 4.93355 -1.1151 0
M  V30 4397 C 407.464 4.45731 0.154782 0
M  V30 4398 C 408.165 5.59 -1.60917 0
M  V30 4399 N 407.141 5.35737 -0.921222 0
M  V30 4400 H 410.943 2.78675 -0.933681 0
M  V30 4401 H 408.457 1.50494 -0.610342 0
M  V30 4402 H 410.454 3.98683 1.21892 0
M  V30 4403 H 409.114 2.85616 1.54446 0
M  V30 4404 H 410.125 4.95785 -1.49726 0
M  V30 4405 H 406.802 4.07096 0.926224 0
M  V30 4406 H 408.192 6.24395 -2.48153 0
M  V30 4407 N 410.912 0.523116 1.48665 0
M  V30 4408 C 412.137 -0.0117284 2.07397 0
M  V30 4409 C 412.562 -1.28031 1.37803 0
M  V30 4410 O 411.92 -1.75836 0.441762 0
M  V30 4411 C 411.968 -0.225786 3.59892 0
M  V30 4412 O 411.072 -1.29592 3.91509 0
M  V30 4413 H 410.413 0.0360673 0.66302 0
M  V30 4414 H 412.943 0.729066 1.9117 0
M  V30 4415 H 412.953 -0.450552 4.05505 0
M  V30 4416 H 411.628 0.700944 4.09951 0
M  V30 4417 H 410.205 -1.05436 3.57684 0
M  V30 4418 N 412.39 -1.55475 0.257931 0
M  V30 4419 C 413.638 -1.98813 -0.363009 0
M  V30 4420 C 413.959 -1.14757 -1.57657 0
M  V30 4421 O 413.229 -0.232956 -1.9451 0
M  V30 4422 H 411.809 -0.734308 -0.137113 0
M  V30 4423 H 414.471 -1.9156 0.359281 0
M  V30 4424 H 413.567 -3.04941 -0.664634 0
M  V30 4425 N 413.868 0.0150385 -1.57593 0
M  V30 4426 C 414.8 1.03912 -2.04291 0
M  V30 4427 C 415.813 1.31618 -0.958146 0
M  V30 4428 O 417.002 1.28859 -1.23522 0
M  V30 4429 C 414.102 2.37749 -2.41514 0
M  V30 4430 C 413.275 2.29198 -3.72541 0
M  V30 4431 C 412.334 3.45598 -3.96797 0
M  V30 4432 O 411.36 3.24461 -4.67668 0
M  V30 4433 N 412.562 4.67945 -3.43523 0
M  V30 4434 H 415.327 0.64099 -2.92765 0
M  V30 4435 H 412.888 0.20272 -1.60626 0
M  V30 4436 H 414.88 3.14364 -2.54867 0
M  V30 4437 H 413.45 2.69357 -1.58637 0
M  V30 4438 H 412.67 1.3759 -3.69408 0
M  V30 4439 H 413.958 2.20642 -4.5847 0
M  V30 4440 H 413.356 4.88017 -2.86104 0
M  V30 4441 H 411.913 5.41878 -3.62232 0
M  V30 4442 N 415.346 1.54954 0.287554 0
M  V30 4443 C 416.593 1.74873 1.02106 0
M  V30 4444 C 416.921 0.541829 1.86801 0
M  V30 4445 O 416.176 -0.475992 1.89823 0
M  V30 4446 C 416.475 2.99833 1.94512 0
M  V30 4447 C 416.141 4.33029 1.25686 0
M  V30 4448 C 414.803 4.69233 1.06649 0
M  V30 4449 C 417.155 5.15542 0.765913 0
M  V30 4450 C 414.483 5.85518 0.372222 0
M  V30 4451 C 416.835 6.32542 0.0853101 0
M  V30 4452 C 415.499 6.67398 -0.1169 0
M  V30 4453 H 414.769 0.639906 0.373632 0
M  V30 4454 H 417.416 1.89219 0.294665 0
M  V30 4455 H 415.721 2.80325 2.73725 0
M  V30 4456 H 417.418 3.1244 2.51361 0
M  V30 4457 H 414.008 4.04564 1.41512 0
M  V30 4458 H 418.192 4.88059 0.90066 0
M  V30 4459 H 413.448 6.11057 0.204695 0
M  V30 4460 H 417.622 6.95741 -0.302936 0
M  V30 4461 H 415.249 7.57357 -0.656859 0
M  V30 4462 N 416.824 -0.551391 1.4764 0
M  V30 4463 C 418.072 -1.30572 1.54258 0
M  V30 4464 C 418.393 -1.93877 0.208963 0
M  V30 4465 O 417.663 -1.80234 -0.767619 0
M  V30 4466 H 416.243 -0.484894 0.568231 0
M  V30 4467 H 418.905 -0.643402 1.83974 0
M  V30 4468 H 418.001 -2.09621 2.31226 0
M  V30 4469 N 418.302 -1.35869 -0.798587 0
M  V30 4470 C 419.53 -1.32722 -1.58722 0
M  V30 4471 C 419.945 0.0935631 -1.88568 0
M  V30 4472 O 419.302 1.04784 -1.49421 0
M  V30 4473 C 419.353 -2.13974 -2.91371 0
M  V30 4474 O 419.074 -3.50514 -2.62815 0
M  V30 4475 C 420.575 -2.18504 -3.85708 0
M  V30 4476 H 417.795 -0.45562 -0.492596 0
M  V30 4477 H 420.339 -1.78837 -0.991843 0
M  V30 4478 H 418.494 -1.71438 -3.47402 0
M  V30 4479 H 418.908 -3.92806 -3.47568 0
M  V30 4480 H 420.382 -2.79732 -4.75872 0
M  V30 4481 H 420.859 -1.18597 -4.22885 0
M  V30 4482 H 421.465 -2.61236 -3.35612 0
M  V30 4483 N 419.78 1.02168 -1.19998 0
M  V30 4484 C 421.029 1.75091 -1.0013 0
M  V30 4485 C 421.342 1.89923 0.467835 0
M  V30 4486 O 422.548 2.59888 0.785515 0
M  V30 4487 C 421.004 3.14892 -1.74273 0
M  V30 4488 C 420.612 3.0809 -3.25245 0
M  V30 4489 C 422.356 3.9206 -1.62755 0
M  V30 4490 C 420.263 4.42867 -3.91948 0
M  V30 4491 H 419.193 0.656394 -0.37103 0
M  V30 4492 H 421.844 1.14284 -1.43567 0
M  V30 4493 H 420.226 3.7621 -1.2362 0
M  V30 4494 H 421.4 2.5611 -3.83072 0
M  V30 4495 H 419.715 2.44416 -3.3712 0
M  V30 4496 H 422.312 4.91764 -2.09934 0
M  V30 4497 H 422.655 4.12199 -0.582894 0
M  V30 4498 H 423.188 3.37359 -2.10793 0
M  V30 4499 H 419.927 4.27931 -4.96543 0
M  V30 4500 H 419.447 4.94874 -3.3891 0
M  V30 4501 H 421.126 5.11728 -3.95909 0
M  V30 4502 N 421.258 1.00505 1.21394 0
M  V30 4503 C 422.206 0.558623 2.25792 0
M  V30 4504 C 423.2 -0.396848 1.64686 0
M  V30 4505 O 424.406 -0.268035 1.77993 0
M  V30 4506 H 420.781 0.1623 0.734277 0
M  V30 4507 H 422.752 1.4503 2.60785 0
M  V30 4508 C 421.501 -0.0989574 3.47559 0
M  V30 4509 H 420.824 0.627225 3.94849 0
M  V30 4510 H 422.264 -0.3746 4.22342 0
M  V30 4511 C 420.723 -1.33817 3.09184 0
M  V30 4512 O 421.253 -2.43252 3.19674 0
M  V30 4513 N 419.459 -1.21793 2.63846 0
M  V30 4514 H 419.006 -0.32746 2.5551 0
M  V30 4515 H 418.964 -2.04809 2.38539 0
M  V30 4516 N 422.737 -1.36956 0.779787 0
M  V30 4517 C 423.685 -2.32053 0.15942 0
M  V30 4518 C 424.679 -1.55333 -0.675878 0
M  V30 4519 O 425.885 -1.70668 -0.57204 0
M  V30 4520 H 422.26 -0.751286 0.0327707 0
M  V30 4521 H 424.231 -2.8195 0.977078 0
M  V30 4522 C 422.98 -3.40602 -0.698977 0
M  V30 4523 H 422.303 -3.99746 -0.0655966 0
M  V30 4524 H 423.743 -4.09486 -1.09989 0
M  V30 4525 C 422.202 -2.81359 -1.85307 0
M  V30 4526 O 422.732 -2.72751 -2.94906 0
M  V30 4527 N 420.938 -2.38786 -1.65619 0
M  V30 4528 H 420.485 -2.45987 -0.764725 0
M  V30 4529 H 420.443 -1.99493 -2.43002 0
M  V30 4530 N 424.215 -0.530993 -1.48385 0
M  V30 4531 C 425.462 0.0027373 -2.025 0
M  V30 4532 C 425.79 1.34186 -1.40799 0
M  V30 4533 O 425.045 1.88 -0.543544 0
M  V30 4534 C 425.344 0.172742 -3.56982 0
M  V30 4535 C 425.01 -1.09215 -4.37473 0
M  V30 4536 C 423.672 -1.43881 -4.59186 0
M  V30 4537 C 426.024 -1.93153 -4.84088 0
M  V30 4538 C 423.352 -2.62381 -5.2476 0
M  V30 4539 C 425.704 -3.10833 -5.50968 0
M  V30 4540 C 424.368 -3.45843 -5.70919 0
M  V30 4541 H 423.638 0.00100165 -0.740999 0
M  V30 4542 H 426.285 -0.697219 -1.78357 0
M  V30 4543 H 424.59 0.955473 -3.79971 0
M  V30 4544 H 426.287 0.600642 -3.96476 0
M  V30 4545 H 422.877 -0.812177 -4.20834 0
M  V30 4546 H 427.061 -1.67683 -4.67115 0
M  V30 4547 H 422.317 -2.89707 -5.38405 0
M  V30 4548 H 426.491 -3.7618 -5.86056 0
M  V30 4549 H 424.118 -4.37764 -6.21503 0
M  V30 4550 N 425.693 1.55336 -0.266172 0
M  V30 4551 C 427.109 1.59356 0.0882065 0
M  V30 4552 C 427.309 1.2834 1.55342 0
M  V30 4553 O 426.365 1.03996 2.30089 0
M  V30 4554 C 427.678 2.99409 -0.278364 0
M  V30 4555 C 429.226 3.12196 -0.224243 0
M  V30 4556 C 429.701 4.545 -0.565123 0
M  V30 4557 N 431.192 4.60313 -0.51634 0
M  V30 4558 C 431.927 5.68434 -0.753013 0
M  V30 4559 N 431.423 6.84738 -1.05383 0
M  V30 4560 N 433.216 5.57942 -0.682414 0
M  V30 4561 H 425.367 1.73764 -1.22147 0
M  V30 4562 H 427.63 0.809822 -0.492841 0
M  V30 4563 H 427.336 3.2691 -1.29703 0
M  V30 4564 H 427.21 3.75228 0.385186 0
M  V30 4565 H 429.597 2.84464 0.78512 0
M  V30 4566 H 429.678 2.38609 -0.921922 0
M  V30 4567 H 429.322 4.82956 -1.57213 0
M  V30 4568 H 429.252 5.26374 0.154248 0
M  V30 4569 H 431.743 3.7676 -0.29335 0
M  V30 4570 H 432.056 7.63088 -1.22133 0
M  V30 4571 H 430.401 6.86375 -1.09151 0
M  V30 4572 H 433.592 4.65958 -0.44731 0
M  V30 4573 H 433.765 6.4213 -0.870248 0
M  V30 4574 N 427.171 -0.0066808 1.57599 0
M  V30 4575 C 428.101 -0.999296 2.11036 0
M  V30 4576 C 429.082 -1.36278 1.01795 0
M  V30 4577 O 430.267 -1.4477 1.29442 0
M  V30 4578 C 427.397 -2.29328 2.60818 0
M  V30 4579 C 426.351 -2.07159 3.74525 0
M  V30 4580 C 425.677 -3.42512 4.10596 0
M  V30 4581 C 426.977 -1.43959 5.02069 0
M  V30 4582 H 428.671 -0.554382 2.94223 0
M  V30 4583 H 426.217 -0.265221 1.41536 0
M  V30 4584 H 428.17 -2.99117 2.96828 0
M  V30 4585 H 426.894 -2.7592 1.74745 0
M  V30 4586 H 425.553 -1.39797 3.38899 0
M  V30 4587 H 425.201 -3.86795 3.21556 0
M  V30 4588 H 424.901 -3.28498 4.87199 0
M  V30 4589 H 426.425 -4.13628 4.4916 0
M  V30 4590 H 427.839 -2.03696 5.35893 0
M  V30 4591 H 426.236 -1.40452 5.83432 0
M  V30 4592 H 427.306 -0.407992 4.83181 0
M  V30 4593 N 428.649 -1.55105 -0.279332 0
M  V30 4594 C 429.897 -1.75066 -1.00977 0
M  V30 4595 C 430.218 -0.551276 -1.87045 0
M  V30 4596 O 429.488 0.433984 -1.91032 0
M  V30 4597 H 428.068 -0.645578 -0.375816 0
M  V30 4598 H 430.73 -1.92497 -0.305089 0
M  V30 4599 H 429.826 -2.64894 -1.65038 0
M  V30 4600 N 430.127 0.543554 -1.4793 0
M  V30 4601 C 431.543 0.870806 -1.3375 0
M  V30 4602 C 431.743 1.9864 -0.338261 0
M  V30 4603 O 430.799 2.51305 0.245371 0
M  V30 4604 C 432.112 1.25114 -2.73435 0
M  V30 4605 C 433.66 1.3618 -2.81823 0
M  V30 4606 C 434.135 1.77563 -4.22179 0
M  V30 4607 N 435.626 1.8469 -4.24787 0
M  V30 4608 C 436.361 2.18067 -5.30315 0
M  V30 4609 N 435.857 2.49963 -6.46135 0
M  V30 4610 N 437.65 2.18958 -5.17701 0
M  V30 4611 H 429.801 -0.19275 -2.11524 0
M  V30 4612 H 432.064 -0.0235777 -0.947707 0
M  V30 4613 H 431.77 0.50514 -3.48053 0
M  V30 4614 H 431.644 2.20431 -3.06088 0
M  V30 4615 H 434.031 2.09859 -2.07468 0
M  V30 4616 H 434.112 0.390169 -2.52807 0
M  V30 4617 H 433.756 1.04449 -4.97044 0
M  V30 4618 H 433.686 2.75753 -4.48629 0
M  V30 4619 H 436.177 1.62372 -3.41239 0
M  V30 4620 H 436.49 2.74497 -7.22406 0
M  V30 4621 H 434.835 2.47513 -6.49432 0
M  V30 4622 H 438.026 1.93488 -4.2624 0
M  V30 4623 H 438.199 2.44639 -6.00047 0
M  V30 4624 N 431.605 1.3629 0.791371 0
M  V30 4625 C 432.535 1.33137 1.91825 0
M  V30 4626 C 433.516 0.203168 1.68882 0
M  V30 4627 O 434.701 0.400509 1.90025 0
M  V30 4628 C 431.831 1.11793 3.28816 0
M  V30 4629 C 430.785 2.21417 3.66277 0
M  V30 4630 C 430.111 1.85218 5.01596 0
M  V30 4631 C 431.411 3.63489 3.75064 0
M  V30 4632 H 433.105 2.2743 1.9472 0
M  V30 4633 H 430.651 1.09479 0.935437 0
M  V30 4634 H 432.604 1.08222 4.07266 0
M  V30 4635 H 431.328 0.139501 3.26302 0
M  V30 4636 H 429.987 2.2411 2.90121 0
M  V30 4637 H 429.635 0.859544 4.95602 0
M  V30 4638 H 429.335 2.58611 5.27631 0
M  V30 4639 H 430.859 1.832 5.82469 0
M  V30 4640 H 432.273 3.63034 4.43711 0
M  V30 4641 H 430.67 4.35771 4.12582 0
M  V30 4642 H 431.74 3.98536 2.76219 0
M  V30 4643 N 433.083 -1.0153 1.20538 0
M  V30 4644 C 434.494 -1.56598 1.01657 0
M  V30 4645 C 434.845 -1.91505 -0.426668 0
M  V30 4646 O 433.97 -1.72375 -1.30827 0
M  V30 4647 C 434.565 -2.84542 1.83905 0
M  V30 4648 C 433.124 -3.36133 1.69386 0
M  V30 4649 C 432.271 -2.09427 1.81757 0
M  V30 4650 H 435.222 -0.838974 1.34711 0
M  V30 4651 H 435.243 -3.56004 1.34319 0
M  V30 4652 H 434.755 -2.59105 2.8894 0
M  V30 4653 H 432.856 -3.66528 0.669933 0
M  V30 4654 H 432.969 -4.08248 2.50739 0
M  V30 4655 H 431.333 -2.21941 1.24957 0
M  V30 4656 H 432.116 -1.86414 2.88279 0
M  V30 4657 N 434.561 -1.01147 -1.20859 0
M  V30 4658 C 435.786 -0.716698 -1.94623 0
M  V30 4659 C 436.211 0.715415 -1.73964 0
M  V30 4660 O 435.569 1.49157 -1.03062 0
M  V30 4661 C 435.617 -1.0513 -3.44935 0
M  V30 4662 O 434.721 -0.160131 -4.12089 0
M  V30 4663 H 434.062 -0.266404 -0.608214 0
M  V30 4664 H 436.592 -1.35346 -1.53436 0
M  V30 4665 H 436.602 -1.00086 -3.95533 0
M  V30 4666 H 435.277 -2.09475 -3.59295 0
M  V30 4667 H 433.854 -0.267657 -3.71938 0
M  V30 4668 N 436.039 1.36541 -0.78704 0
M  V30 4669 C 437.285 1.99599 -0.358872 0
M  V30 4670 C 437.618 1.62323 1.06606 0
M  V30 4671 O 436.893 0.876858 1.73613 0
M  V30 4672 C 437.176 3.56327 -0.519944 0
M  V30 4673 C 437.029 4.03464 -1.98839 0
M  V30 4674 C 438.348 4.4005 0.0664737 0
M  V30 4675 H 435.467 0.725107 -0.131869 0
M  V30 4676 H 438.109 1.6199 -0.992936 0
M  V30 4677 H 436.259 3.88495 0.0198321 0
M  V30 4678 H 437.931 3.81793 -2.58905 0
M  V30 4679 H 436.174 3.55092 -2.49183 0
M  V30 4680 H 436.845 5.12439 -2.05207 0
M  V30 4681 H 439.321 4.14228 -0.394267 0
M  V30 4682 H 438.197 5.48847 -0.0762682 0
M  V30 4683 H 438.458 4.26655 1.15835 0
M  V30 4684 N 437.518 0.538854 1.48102 0
M  V30 4685 C 438.929 0.100679 1.86428 0
M  V30 4686 C 439.28 -1.32447 1.44749 0
M  V30 4687 O 438.405 -1.99339 0.842199 0
M  V30 4688 C 439 0.175933 3.38343 0
M  V30 4689 C 437.559 -0.207098 3.7583 0
M  V30 4690 C 436.706 0.531741 2.72154 0
M  V30 4691 H 439.657 0.749614 1.3988 0
M  V30 4692 H 439.678 -0.610144 3.75576 0
M  V30 4693 H 439.19 1.21328 3.68648 0
M  V30 4694 H 437.291 -1.24626 3.5114 0
M  V30 4695 H 437.404 0.138687 4.78899 0
M  V30 4696 H 435.768 -0.0230462 2.5469 0
M  V30 4697 H 436.551 1.56989 3.05302 0
M  V30 4698 N 438.996 -1.55193 0.274407 0
M  V30 4699 C 440.242 -1.99877 -0.343086 0
M  V30 4700 C 440.575 -1.16256 -1.55558 0
M  V30 4701 O 439.85 -0.232462 -1.93106 0
M  V30 4702 C 440.133 -3.52706 -0.725965 0
M  V30 4703 C 439.986 -4.47081 0.493818 0
M  V30 4704 C 441.305 -4.11422 -1.56268 0
M  V30 4705 H 438.424 -0.726625 -0.123229 0
M  V30 4706 H 441.066 -1.86136 0.38121 0
M  V30 4707 H 439.216 -3.64546 -1.34307 0
M  V30 4708 H 440.888 -4.47186 1.13237 0
M  V30 4709 H 439.131 -4.1877 1.13201 0
M  V30 4710 H 439.802 -5.51699 0.18217 0
M  V30 4711 H 442.278 -4.02855 -1.04151 0
M  V30 4712 H 441.154 -5.18568 -1.79939 0
M  V30 4713 H 441.415 -3.61607 -2.54348 0
M  V30 4714 N 440.474 -0.00167713 -1.576 0
M  V30 4715 C 441.384 1.00548 -2.1196 0
M  V30 4716 C 442.4 1.3758 -1.06526 0
M  V30 4717 O 443.576 1.46278 -1.38436 0
M  V30 4718 C 440.641 2.27809 -2.6135 0
M  V30 4719 C 439.702 1.97074 -3.81393 0
M  V30 4720 C 438.935 3.18267 -4.28417 0
M  V30 4721 O 439.158 4.30009 -3.74765 0
M  V30 4722 O 438.092 3.02167 -5.20556 0
M  V30 4723 H 441.918 0.573373 -2.98238 0
M  V30 4724 H 439.503 0.217255 -1.47812 0
M  V30 4725 H 441.385 3.02568 -2.93309 0
M  V30 4726 H 440.06 2.70254 -1.78169 0
M  V30 4727 H 438.967 1.19785 -3.54404 0
M  V30 4728 H 440.3 1.59464 -4.65652 0
M  V30 4729 N 441.952 1.55251 0.271103 0
M  V30 4730 C 443.198 1.7713 0.999832 0
M  V30 4731 C 443.553 0.56659 1.83868 0
M  V30 4732 O 442.846 -0.44069 1.86463 0
M  V30 4733 C 443.04 3.01879 1.91321 0
M  V30 4734 C 442.869 4.34368 1.16426 0
M  V30 4735 C 441.639 4.97593 0.879169 0
M  V30 4736 C 443.837 5.1131 0.553749 0
M  V30 4737 N 441.819 6.13813 0.103618 0
M  V30 4738 C 443.19 6.19938 -0.0875442 0
M  V30 4739 C 445.245 4.95754 0.461782 0
M  V30 4740 C 443.948 7.14703 -0.811942 0
M  V30 4741 C 445.974 5.90875 -0.249027 0
M  V30 4742 C 445.336 6.98893 -0.879051 0
M  V30 4743 H 441.435 0.700407 0.347784 0
M  V30 4744 H 444.019 1.92744 0.275314 0
M  V30 4745 H 442.19 2.87637 2.60997 0
M  V30 4746 H 443.922 3.12154 2.57569 0
M  V30 4747 H 440.677 4.58538 1.18491 0
M  V30 4748 H 441.101 6.76455 -0.271543 0
M  V30 4749 H 445.743 4.12342 0.934552 0
M  V30 4750 H 443.461 7.97634 -1.29639 0
M  V30 4751 H 447.047 5.80916 -0.320529 0
M  V30 4752 H 445.927 7.71231 -1.42031 0
M  V30 4753 N 443.43 -0.535701 1.48216 0
M  V30 4754 C 444.378 -1.66179 1.62749 0
M  V30 4755 C 445.372 -1.62034 0.49409 0
M  V30 4756 O 446.578 -1.6696 0.672624 0
M  V30 4757 H 442.953 -0.550244 0.512578 0
M  V30 4758 H 444.924 -1.51063 2.57337 0
M  V30 4759 C 443.673 -3.04471 1.67907 0
M  V30 4760 H 442.996 -3.08351 2.54479 0
M  V30 4761 H 444.436 -3.82894 1.82121 0
M  V30 4762 C 442.895 -3.34314 0.416596 0
M  V30 4763 O 443.425 -3.98905 -0.473014 0
M  V30 4764 N 441.631 -2.89149 0.290038 0
M  V30 4765 H 441.178 -2.36764 1.01493 0
M  V30 4766 H 441.136 -3.09486 -0.55367 0
M  V30 4767 N 444.908 -1.36708 -0.784132 0
M  V30 4768 C 445.818 -1.3363 -1.92822 0
M  V30 4769 C 446.834 -0.237686 -1.72369 0
M  V30 4770 O 448.01 -0.470962 -1.95816 0
M  V30 4771 C 445.075 -1.13011 -3.27764 0
M  V30 4772 C 444.136 -2.32397 -3.60957 0
M  V30 4773 C 443.369 -2.12752 -4.89461 0
M  V30 4774 O 443.592 -1.10541 -5.59586 0
M  V30 4775 O 442.526 -3.00653 -5.21432 0
M  V30 4776 H 446.352 -2.29964 -1.98369 0
M  V30 4777 H 443.937 -1.1731 -0.925136 0
M  V30 4778 H 445.819 -1.03451 -4.08504 0
M  V30 4779 H 444.494 -0.19743 -3.23097 0
M  V30 4780 H 443.401 -2.47527 -2.80502 0
M  V30 4781 H 444.734 -3.2419 -3.70354 0
M  V30 4782 N 446.386 1.0089 -1.21074 0
M  V30 4783 C 447.635 1.74019 -1.01981 0
M  V30 4784 C 447.948 1.90408 0.447665 0
M  V30 4785 O 449.154 2.60707 0.757906 0
M  V30 4786 C 447.61 3.13026 -1.77603 0
M  V30 4787 C 447.218 3.04623 -3.28495 0
M  V30 4788 C 448.962 3.90312 -1.66904 0
M  V30 4789 C 446.869 4.38685 -3.96623 0
M  V30 4790 H 445.799 0.652422 -0.377971 0
M  V30 4791 H 448.45 1.12755 -1.44771 0
M  V30 4792 H 446.832 3.74878 -1.27604 0
M  V30 4793 H 448.006 2.52032 -3.85767 0
M  V30 4794 H 446.321 2.40827 -3.39693 0
M  V30 4795 H 448.918 4.8951 -2.15138 0
M  V30 4796 H 449.261 4.11558 -0.62658 0
M  V30 4797 H 449.794 3.35104 -2.14359 0
M  V30 4798 H 446.533 4.22641 -5.01054 0
M  V30 4799 H 446.053 4.91252 -3.4414 0
M  V30 4800 H 447.732 5.075 -4.01314 0
M  V30 4801 N 447.864 1.01787 1.20321 0
M  V30 4802 C 448.812 0.58254 2.25187 0
M  V30 4803 C 449.806 -0.379359 1.65098 0
M  V30 4804 O 451.012 -0.249142 1.78267 0
M  V30 4805 H 447.387 0.170078 0.732514 0
M  V30 4806 H 449.358 1.47788 2.59232 0
M  V30 4807 C 448.107 -0.0620885 3.47645 0
M  V30 4808 H 447.43 0.669069 3.94162 0
M  V30 4809 H 448.87 -0.329784 4.22716 0
M  V30 4810 C 447.329 -1.3053 3.10586 0
M  V30 4811 O 447.859 -2.39848 3.22236 0
M  V30 4812 N 446.065 -1.18988 2.65123 0
M  V30 4813 H 445.612 -0.300341 2.55843 0
M  V30 4814 H 445.57 -2.02267 2.40698 0
M  V30 4815 N 449.342 -1.36122 0.79427 0
M  V30 4816 C 450.305 -2.28309 0.201889 0
M  V30 4817 C 451.305 -1.49041 -0.603603 0
M  V30 4818 O 452.495 -1.68964 -0.423888 0
M  V30 4819 C 449.627 -3.3321 -0.719978 0
M  V30 4820 H 450.82 -2.82208 1.01481 0
M  V30 4821 H 448.373 -1.45768 0.564037 0
M  V30 4822 H 449.108 -2.84475 -1.55706 0
M  V30 4823 H 448.893 -3.91835 -0.144266 0
M  V30 4824 H 450.383 -4.02044 -1.12916 0
M  V30 4825 N 450.82 -0.546701 -1.47814 0
M  V30 4826 C 451.783 0.196287 -2.28358 0
M  V30 4827 C 452.783 0.852437 -1.36346 0
M  V30 4828 O 453.973 0.709913 -1.59078 0
M  V30 4829 C 451.105 1.28579 -3.15722 0
M  V30 4830 H 452.298 -0.511086 -2.95513 0
M  V30 4831 H 449.851 -0.303248 -1.5333 0
M  V30 4832 H 450.586 2.0259 -2.53235 0
M  V30 4833 H 450.371 0.820229 -3.83425 0
M  V30 4834 H 451.861 1.80793 -3.76435 0
M  V30 4835 N 452.299 1.55045 -0.282633 0
M  V30 4836 C 453.545 2.0078 0.325436 0
M  V30 4837 C 453.9 1.1676 1.52921 0
M  V30 4838 O 453.193 0.231475 1.90197 0
M  V30 4839 C 453.387 3.49422 0.750938 0
M  V30 4840 C 453.216 4.47827 -0.410056 0
M  V30 4841 C 451.986 4.97288 -0.896239 0
M  V30 4842 C 454.184 4.98903 -1.24902 0
M  V30 4843 N 452.166 5.79508 -2.02591 0
M  V30 4844 C 453.537 5.78644 -2.22646 0
M  V30 4845 C 455.592 4.81126 -1.2815 0
M  V30 4846 C 454.295 6.42502 -3.23393 0
M  V30 4847 C 456.321 5.45789 -2.27745 0
M  V30 4848 C 455.683 6.25348 -3.24222 0
M  V30 4849 H 451.782 0.77747 0.08405 0
M  V30 4850 H 454.366 1.90369 -0.408368 0
M  V30 4851 H 452.537 3.60159 1.45395 0
M  V30 4852 H 454.269 3.81978 1.33698 0
M  V30 4853 H 451.024 4.71219 -0.474277 0
M  V30 4854 H 451.448 6.25308 -2.59459 0
M  V30 4855 H 456.09 4.19215 -0.549397 0
M  V30 4856 H 453.808 7.03558 -3.97533 0
M  V30 4857 H 457.394 5.33972 -2.31009 0
M  V30 4858 H 456.274 6.74498 -4.00027 0
M  V30 4859 N 453.777 0.010035 1.57597 0
M  V30 4860 C 455.025 -0.671371 1.90623 0
M  V30 4861 C 455.346 -1.73753 0.885151 0
M  V30 4862 O 454.616 -1.95752 -0.0760611 0
M  V30 4863 H 453.196 -0.250968 0.703579 0
M  V30 4864 H 455.858 0.0533325 1.94827 0
M  V30 4865 H 454.954 -1.13626 2.90681 0
M  V30 4866 N 455.255 -1.55392 -0.262866 0
M  V30 4867 C 456.187 -1.85392 -1.34768 0
M  V30 4868 C 457.2 -0.739069 -1.45057 0
M  V30 4869 O 458.389 -1.01703 -1.46693 0
M  V30 4870 C 455.489 -2.01088 -2.72795 0
M  V30 4871 C 454.662 -3.31828 -2.84972 0
M  V30 4872 C 453.721 -3.37464 -4.03738 0
M  V30 4873 O 452.747 -4.10778 -3.94018 0
M  V30 4874 N 453.949 -2.65599 -5.16176 0
M  V30 4875 H 456.714 -2.79029 -1.09375 0
M  V30 4876 H 454.275 -1.55434 -0.452981 0
M  V30 4877 H 456.267 -2.02217 -3.50557 0
M  V30 4878 H 454.837 -1.1427 -2.90966 0
M  V30 4879 H 454.057 -3.43152 -1.94012 0
M  V30 4880 H 455.345 -4.18032 -2.90045 0
M  V30 4881 H 454.743 -2.05736 -5.26962 0
M  V30 4882 H 453.3 -2.72439 -5.92132 0
M  V30 4883 N 456.733 0.527833 -1.48498 0
M  V30 4884 C 457.961 1.30823 -1.6029 0
M  V30 4885 C 458.376 1.86945 -0.263974 0
M  V30 4886 O 457.733 1.6651 0.747034 0
M  V30 4887 C 457.784 2.45756 -2.65116 0
M  V30 4888 O 457.505 1.91946 -3.93813 0
M  V30 4889 C 459.006 3.37543 -2.87367 0
M  V30 4890 H 456.226 0.397763 -0.540394 0
M  V30 4891 H 458.77 0.636529 -1.94341 0
M  V30 4892 H 456.925 3.08806 -2.33917 0
M  V30 4893 H 457.339 2.67195 -4.51339 0
M  V30 4894 H 458.813 4.14532 -3.6451 0
M  V30 4895 H 459.29 3.92905 -1.9627 0
M  V30 4896 H 459.896 2.80283 -3.19878 0
M  V30 4897 N 458.211 1.37122 0.776871 0
M  V30 4898 C 459.457 1.32243 1.53752 0
M  V30 4899 C 459.79 -0.0944745 1.9397 0
M  V30 4900 O 459.065 -1.05068 1.6368 0
M  V30 4901 C 459.348 2.25681 2.80607 0
M  V30 4902 C 459.201 3.76127 2.46676 0
M  V30 4903 C 460.52 2.17657 3.82509 0
M  V30 4904 H 457.639 0.481704 0.557791 0
M  V30 4905 H 460.281 1.6778 0.891612 0
M  V30 4906 H 458.431 1.95505 3.35723 0
M  V30 4907 H 460.103 4.16877 1.97513 0
M  V30 4908 H 458.346 3.94946 1.79443 0
M  V30 4909 H 459.017 4.36933 3.37333 0
M  V30 4910 H 461.493 2.44245 3.36873 0
M  V30 4911 H 460.369 2.85185 4.69 0
M  V30 4912 H 460.63 1.16785 4.26396 0
M  V30 4913 N 459.689 -1.00246 1.21608 0
M  V30 4914 C 460.619 -2.10921 1.00172 0
M  V30 4915 C 461.6 -1.69938 -0.0741587 0
M  V30 4916 O 462.785 -1.94009 0.0861753 0
M  V30 4917 C 459.915 -3.42618 0.568355 0
M  V30 4918 C 458.869 -3.97407 1.58909 0
M  V30 4919 C 458.195 -5.25038 1.01187 0
M  V30 4920 C 459.495 -4.2918 2.97661 0
M  V30 4921 H 461.189 -2.29112 1.92739 0
M  V30 4922 H 458.735 -1.10101 0.928102 0
M  V30 4923 H 460.688 -4.19444 0.405555 0
M  V30 4924 H 459.412 -3.24227 -0.392961 0
M  V30 4925 H 458.071 -3.22703 1.73949 0
M  V30 4926 H 457.719 -5.02982 0.0421965 0
M  V30 4927 H 457.419 -5.62661 1.6937 0
M  V30 4928 H 458.943 -6.04507 0.860448 0
M  V30 4929 H 460.357 -4.96839 2.86049 0
M  V30 4930 H 458.754 -4.77952 3.6288 0
M  V30 4931 H 459.824 -3.3735 3.48315 0
M  V30 4932 N 461.167 -1.02423 -1.1978 0
M  V30 4933 C 462.097 -0.62157 -2.25075 0
M  V30 4934 C 463.078 0.367148 -1.6609 0
M  V30 4935 O 464.263 0.250892 -1.92573 0
M  V30 4936 C 461.393 0.0331826 -3.47284 0
M  V30 4937 C 460.347 -0.877323 -4.18912 0
M  V30 4938 C 459.673 -0.0879296 -5.34628 0
M  V30 4939 C 460.973 -2.18892 -4.74219 0
M  V30 4940 H 462.667 -1.50179 -2.59011 0
M  V30 4941 H 460.213 -0.723547 -1.24502 0
M  V30 4942 H 462.166 0.326488 -4.20133 0
M  V30 4943 H 460.89 0.948164 -3.12534 0
M  V30 4944 H 459.549 -1.15475 -3.47938 0
M  V30 4945 H 459.197 0.828941 -4.96123 0
M  V30 4946 H 458.897 -0.694359 -5.83483 0
M  V30 4947 H 460.421 0.198743 -6.10276 0
M  V30 4948 H 461.835 -1.95746 -5.38847 0
M  V30 4949 H 460.232 -2.74686 -5.33542 0
M  V30 4950 H 461.302 -2.84674 -3.92541 0
M  V30 4951 N 462.645 1.35699 -0.801477 0
M  V30 4952 C 463.575 2.32436 -0.222658 0
M  V30 4953 C 464.556 1.5723 0.649057 0
M  V30 4954 O 465.741 1.85324 0.580387 0
M  V30 4955 C 462.871 3.41469 0.633719 0
M  V30 4956 C 461.825 4.27774 -0.139083 0
M  V30 4957 C 461.151 5.28082 0.838666 0
M  V30 4958 C 462.451 5.04946 -1.33517 0
M  V30 4959 H 464.145 2.81094 -1.03086 0
M  V30 4960 H 461.691 1.35146 -0.497155 0
M  V30 4961 H 463.644 4.08143 1.04868 0
M  V30 4962 H 462.368 2.91408 1.47475 0
M  V30 4963 H 461.027 3.62673 -0.535156 0
M  V30 4964 H 460.675 4.7429 1.67506 0
M  V30 4965 H 460.375 5.86695 0.32594 0
M  V30 4966 H 461.899 5.97628 1.25194 0
M  V30 4967 H 463.313 5.64593 -0.995349 0
M  V30 4968 H 461.71 5.7303 -1.78202 0
M  V30 4969 H 462.78 4.35886 -2.12442 0
M  V30 4970 N 464.123 0.554532 1.47522 0
M  V30 4971 C 465.073 -0.215008 2.26984 0
M  V30 4972 C 466.057 -0.88774 1.34194 0
M  V30 4973 O 467.249 -0.786489 1.58567 0
M  V30 4974 C 464.378 -1.24604 3.19889 0
M  V30 4975 C 463.464 -0.576857 4.20159 0
M  V30 4976 N 463.855 0.351541 5.04577 0
M  V30 4977 C 462.153 -0.831104 4.38188 0
M  V30 4978 C 462.854 0.739995 5.76974 0
M  V30 4979 N 461.83 0.0954407 5.43516 0
M  V30 4980 H 465.632 0.498843 2.89636 0
M  V30 4981 H 463.146 0.374279 1.58028 0
M  V30 4982 H 465.143 -1.81128 3.75498 0
M  V30 4983 H 463.803 -1.96101 2.58794 0
M  V30 4984 H 464.814 0.725556 5.12792 0
M  V30 4985 H 461.491 -1.53479 3.88266 0
M  V30 4986 H 462.881 1.50271 6.5488 0
M  V30 4987 N 465.601 -1.54893 0.290851 0
M  V30 4988 C 466.564 -2.21824 -0.576784 0
M  V30 4989 C 467.564 -1.20104 -1.06919 0
M  V30 4990 O 468.754 -1.44906 -0.966843 0
M  V30 4991 C 465.886 -2.89662 -1.79747 0
M  V30 4992 H 467.079 -2.99899 0.00784051 0
M  V30 4993 H 464.632 -1.56245 0.0415934 0
M  V30 4994 H 465.367 -2.15639 -2.42219 0
M  V30 4995 H 465.152 -3.64219 -1.45214 0
M  V30 4996 H 466.642 -3.4075 -2.4141 0
M  V30 4997 N 467.08 -0.0183926 -1.57589 0
M  V30 4998 C 468.01 0.965596 -2.12599 0
M  V30 4999 C 468.991 1.34641 -1.0395 0
M  V30 5000 O 470.176 1.42693 -1.31729 0
M  V30 5001 C 467.306 2.25149 -2.64434 0
M  V30 5002 C 466.26 2.01175 -3.77773 0
M  V30 5003 C 465.586 3.35937 -4.15994 0
M  V30 5004 C 466.886 1.35953 -5.04296 0
M  V30 5005 H 468.58 0.507504 -2.95067 0
M  V30 5006 H 466.126 0.242671 -1.41941 0
M  V30 5007 H 468.079 2.94357 -3.01549 0
M  V30 5008 H 466.803 2.73105 -1.79112 0
M  V30 5009 H 465.462 1.34388 -3.4108 0
M  V30 5010 H 465.11 3.81631 -3.27669 0
M  V30 5011 H 464.81 3.20705 -4.92364 0
M  V30 5012 H 466.334 4.0643 -4.55683 0
M  V30 5013 H 467.748 1.95144 -5.39065 0
M  V30 5014 H 466.145 1.31152 -5.85593 0
M  V30 5015 H 467.215 0.331071 -4.83768 0
M  V30 5016 N 468.558 1.5553 0.254621 0
M  V30 5017 C 469.521 1.88872 1.29846 0
M  V30 5018 C 470.521 0.764591 1.41459 0
M  V30 5019 O 471.711 1.03265 1.40293 0
M  V30 5020 C 468.843 2.11032 2.67728 0
M  V30 5021 H 470.036 2.82201 1.01502 0
M  V30 5022 H 467.589 1.48303 0.493556 0
M  V30 5023 H 468.324 1.20146 3.01223 0
M  V30 5024 H 468.109 2.92895 2.60682 0
M  V30 5025 H 469.599 2.38038 3.43115 0
M  V30 5026 N 470.036 -0.519951 1.48776 0
M  V30 5027 C 470.984 -1.64443 1.64503 0
M  V30 5028 C 471.978 -1.61501 0.511248 0
M  V30 5029 O 473.184 -1.66238 0.690294 0
M  V30 5030 H 469.559 -0.544776 0.518385 0
M  V30 5031 H 471.53 -1.48325 2.58925 0
M  V30 5032 C 470.279 -3.02673 1.71127 0
M  V30 5033 H 469.602 -3.05635 2.57735 0
M  V30 5034 H 471.042 -3.80941 1.86172 0
M  V30 5035 C 469.501 -3.33854 0.452032 0
M  V30 5036 O 470.031 -3.99385 -0.430678 0
M  V30 5037 N 468.237 -2.88825 0.32069 0
M  V30 5038 H 467.784 -2.35674 1.03998 0
M  V30 5039 H 467.742 -3.10056 -0.520814 0
M  V30 5040 N 471.514 -1.37532 -0.769588 0
M  V30 5041 C 472.461 -1.3347 -1.88293 0
M  V30 5042 C 473.431 -0.199891 -1.64893 0
M  V30 5043 O 474.616 -0.389594 -1.8678 0
M  V30 5044 C 471.756 -1.14968 -3.25387 0
M  V30 5045 C 470.869 -2.37698 -3.60727 0
M  V30 5046 C 470.004 -2.12051 -4.8704 0
M  V30 5047 C 469.043 -3.30636 -5.15117 0
M  V30 5048 N 468.18 -3.04527 -6.3262 0
M  V30 5049 H 473.02 -2.28658 -1.911 0
M  V30 5050 H 470.557 -1.13622 -0.934257 0
M  V30 5051 H 472.515 -1.02261 -4.04473 0
M  V30 5052 H 471.145 -0.234263 -3.21949 0
M  V30 5053 H 470.197 -2.61137 -2.76608 0
M  V30 5054 H 471.509 -3.26131 -3.77413 0
M  V30 5055 H 470.663 -1.96388 -5.74035 0
M  V30 5056 H 469.402 -1.20959 -4.72462 0
M  V30 5057 H 468.407 -3.46836 -4.26597 0
M  V30 5058 H 469.632 -4.22582 -5.31603 0
M  V30 5059 H 467.578 -2.16067 -6.19396 0
M  V30 5060 H 467.495 -3.86503 -6.49732 0
M  V30 5061 H 468.763 -2.92485 -7.22546 0
M  V30 5062 N 472.992 0.995999 -1.22138 0
M  V30 5063 C 473.925 2.08302 -0.931952 0
M  V30 5064 C 474.903 1.62127 0.123956 0
M  V30 5065 O 476.087 1.88499 -0.00696004 0
M  V30 5066 C 473.214 3.36317 -0.401068 0
M  V30 5067 C 472.26 4.01413 -1.44117 0
M  V30 5068 S 473.093 4.42664 -3.01345 0
M  V30 5069 C 474.249 5.73853 -2.49887 0
M  V30 5070 H 474.482 2.32532 -1.85246 0
M  V30 5071 H 472.015 1.13005 -1.0521 0
M  V30 5072 H 473.973 4.10375 -0.101352 0
M  V30 5073 H 472.634 3.10123 0.498272 0
M  V30 5074 H 471.827 4.9358 -1.01952 0
M  V30 5075 H 471.429 3.33668 -1.68943 0
M  V30 5076 H 473.721 6.50039 -1.90934 0
M  V30 5077 H 474.664 6.20841 -3.40532 0
M  V30 5078 H 475.072 5.31105 -1.9128 0
M  V30 5079 N 474.47 1.03057 1.19235 0
M  V30 5080 C 475.718 0.726581 1.88587 0
M  V30 5081 C 476.039 -0.747227 1.80115 0
M  V30 5082 O 475.309 -1.53849 1.21274 0
M  V30 5083 H 473.889 0.265768 0.698124 0
M  V30 5084 H 476.551 1.30516 1.44746 0
M  V30 5085 H 475.647 1.0224 2.94879 0
M  V30 5086 N 475.948 -1.35272 0.808662 0
M  V30 5087 C 476.878 -2.32315 0.234981 0
M  V30 5088 C 477.859 -1.57572 -0.64071 0
M  V30 5089 O 479.044 -1.8563 -0.570551 0
M  V30 5090 C 476.174 -3.41801 -0.615601 0
M  V30 5091 C 475.128 -4.27694 0.161767 0
M  V30 5092 C 474.454 -5.28519 -0.810649 0
M  V30 5093 C 475.754 -5.04231 1.36193 0
M  V30 5094 H 477.448 -2.80543 1.04575 0
M  V30 5095 H 474.994 -1.3488 0.504315 0
M  V30 5096 H 476.947 -4.08693 -1.02702 0
M  V30 5097 H 475.671 -2.92186 -1.45928 0
M  V30 5098 H 474.33 -3.62384 0.554382 0
M  V30 5099 H 473.978 -4.75171 -1.64988 0
M  V30 5100 H 473.678 -5.8686 -0.294822 0
M  V30 5101 H 475.202 -5.98283 -1.22023 0
M  V30 5102 H 476.616 -5.64058 1.02528 0
M  V30 5103 H 475.013 -5.72077 1.81239 0
M  V30 5104 H 476.083 -4.34753 2.14751 0
M  V30 5105 N 477.426 -0.562348 -1.47226 0
M  V30 5106 C 478.373 0.182461 -2.30078 0
M  V30 5107 C 479.343 0.903503 -1.39377 0
M  V30 5108 O 480.528 0.898188 -1.68337 0
M  V30 5109 C 477.668 1.20322 -3.23445 0
M  V30 5110 C 476.781 0.487717 -4.29238 0
M  V30 5111 C 475.916 1.49422 -5.09752 0
M  V30 5112 C 474.955 0.763976 -6.07314 0
M  V30 5113 N 474.092 1.71755 -6.80768 0
M  V30 5114 H 478.932 -0.530169 -2.93246 0
M  V30 5115 H 476.469 -0.273276 -1.44539 0
M  V30 5116 H 478.427 1.80768 -3.76004 0
M  V30 5117 H 477.057 1.88382 -2.6213 0
M  V30 5118 H 476.109 -0.231374 -3.79696 0
M  V30 5119 H 477.421 -0.0841003 -4.98729 0
M  V30 5120 H 476.575 2.17206 -5.66486 0
M  V30 5121 H 475.314 2.09995 -4.40174 0
M  V30 5122 H 474.319 0.0722344 -5.49753 0
M  V30 5123 H 475.544 0.16391 -6.78902 0
M  V30 5124 H 473.49 2.31177 -6.13916 0
M  V30 5125 H 473.407 1.19802 -7.46447 0
M  V30 5126 H 474.675 2.38638 -7.42073 0
M  V30 5127 N 478.904 1.54736 -0.299062 0
M  V30 5128 C 480.151 2.00101 0.310784 0
M  V30 5129 C 480.479 1.18746 1.54045 0
M  V30 5130 O 479.734 0.251198 1.94081 0
M  V30 5131 C 480.033 3.50199 0.713835 0
M  V30 5132 C 479.699 4.48997 -0.413873 0
M  V30 5133 C 478.361 4.7573 -0.723462 0
M  V30 5134 C 480.713 5.07839 -1.17257 0
M  V30 5135 C 478.041 5.5857 -1.79491 0
M  V30 5136 C 480.393 5.91844 -2.23392 0
M  V30 5137 C 479.057 6.16889 -2.54959 0
M  V30 5138 H 478.327 0.732221 0.113724 0
M  V30 5139 H 480.974 1.86888 -0.417756 0
M  V30 5140 H 479.279 3.61012 1.52243 0
M  V30 5141 H 480.976 3.82723 1.19684 0
M  V30 5142 H 477.566 4.28292 -0.162476 0
M  V30 5143 H 481.75 4.87188 -0.946651 0
M  V30 5144 H 477.006 5.76213 -2.04423 0
M  V30 5145 H 481.18 6.36465 -2.8264 0
M  V30 5146 H 478.807 6.80869 -3.38114 0
M  V30 5147 N 480.382 0.0267497 1.57577 0
M  V30 5148 C 481.314 -0.984594 2.06974 0
M  V30 5149 C 482.327 -1.29032 0.992705 0
M  V30 5150 O 483.516 -1.25539 1.26895 0
M  V30 5151 C 480.616 -2.31262 2.47732 0
M  V30 5152 C 479.789 -2.1924 3.78487 0
M  V30 5153 C 478.848 -3.34956 4.05821 0
M  V30 5154 O 477.874 -3.11948 4.76106 0
M  V30 5155 N 479.076 -4.58672 3.55809 0
M  V30 5156 H 481.841 -0.563143 2.94362 0
M  V30 5157 H 479.402 -0.160061 1.61107 0
M  V30 5158 H 481.394 -3.07496 2.63112 0
M  V30 5159 H 479.964 -2.65056 1.65723 0
M  V30 5160 H 479.184 -1.27747 3.72927 0
M  V30 5161 H 480.472 -2.08409 4.64158 0
M  V30 5162 H 479.87 -4.8026 2.98942 0
M  V30 5163 H 478.427 -5.32083 3.76472 0
M  V30 5164 N 481.861 -1.55662 -0.24637 0
M  V30 5165 C 483.277 -1.48098 -0.594907 0
M  V30 5166 C 483.477 -0.717044 -1.8831 0
M  V30 5167 O 482.533 -0.246618 -2.51293 0
M  V30 5168 C 483.846 -2.92507 -0.697146 0
M  V30 5169 C 485.394 -3.02881 -0.789436 0
M  V30 5170 C 485.869 -4.48598 -0.923232 0
M  V30 5171 N 487.36 -4.52538 -0.988088 0
M  V30 5172 C 488.095 -5.62536 -1.11089 0
M  V30 5173 N 487.591 -6.82342 -1.19919 0
M  V30 5174 N 489.384 -5.50334 -1.14408 0
M  V30 5175 H 481.535 -2.0377 0.599278 0
M  V30 5176 H 483.798 -0.925145 0.20691 0
M  V30 5177 H 483.504 -3.51242 0.179396 0
M  V30 5178 H 483.378 -3.43024 -1.5689 0
M  V30 5179 H 485.765 -2.44226 -1.65643 0
M  V30 5180 H 485.846 -2.55574 0.107482 0
M  V30 5181 H 485.49 -5.07864 -0.0607927 0
M  V30 5182 H 485.42 -4.93587 -1.8352 0
M  V30 5183 H 487.911 -3.66248 -0.931167 0
M  V30 5184 H 488.224 -7.61924 -1.29197 0
M  V30 5185 H 486.569 -6.85102 -1.16876 0
M  V30 5186 H 489.76 -4.5567 -1.07158 0
M  V30 5187 H 489.933 -6.36096 -1.23634 0
M  V30 5188 N 483.339 0.512053 -1.4905 0
M  V30 5189 C 484.569 1.28928 -1.61434 0
M  V30 5190 C 484.977 1.87107 -0.280647 0
M  V30 5191 O 484.32 1.68024 0.742537 0
M  V30 5192 C 484.382 2.466 -2.61588 0
M  V30 5193 C 484.046 2.09375 -4.06216 0
M  V30 5194 C 485.043 1.63994 -4.93358 0
M  V30 5195 C 482.728 2.19348 -4.51876 0
M  V30 5196 C 484.722 1.29076 -6.24194 0
M  V30 5197 C 482.409 1.84041 -5.82728 0
M  V30 5198 C 483.407 1.38978 -6.68711 0
M  V30 5199 O 483.095 1.04144 -7.97126 0
M  V30 5200 H 482.827 0.397668 -0.546659 0
M  V30 5201 H 485.381 0.622507 -1.9574 0
M  V30 5202 H 483.611 3.16318 -2.22441 0
M  V30 5203 H 485.3 3.08642 -2.63619 0
M  V30 5204 H 486.066 1.55744 -4.59313 0
M  V30 5205 H 481.945 2.53376 -3.85125 0
M  V30 5206 H 485.489 0.938303 -6.91261 0
M  V30 5207 H 481.386 1.91938 -6.16304 0
M  V30 5208 H 482.154 1.17387 -8.10039 0
M  V30 5209 N 484.817 1.37938 0.762283 0
M  V30 5210 C 486.233 1.18945 1.06415 0
M  V30 5211 C 486.433 0.0321163 2.01474 0
M  V30 5212 O 485.489 -0.624844 2.44647 0
M  V30 5213 C 486.802 2.51218 1.65258 0
M  V30 5214 C 488.35 2.57824 1.7747 0
M  V30 5215 C 488.825 3.90251 2.39725 0
M  V30 5216 N 490.316 3.91744 2.47166 0
M  V30 5217 C 491.051 4.90966 2.96209 0
M  V30 5218 N 490.547 6.00585 3.45354 0
M  V30 5219 N 492.34 4.78363 2.9517 0
M  V30 5220 H 484.491 2.11994 0.131301 0
M  V30 5221 H 486.754 0.940262 0.120879 0
M  V30 5222 H 486.46 3.36317 1.02878 0
M  V30 5223 H 486.334 2.68989 2.64433 0
M  V30 5224 H 488.721 1.73126 2.3898 0
M  V30 5225 H 488.802 2.43928 0.770241 0
M  V30 5226 H 488.446 4.75368 1.78852 0
M  V30 5227 H 488.376 4.01454 3.40796 0
M  V30 5228 H 490.867 3.12563 2.12397 0
M  V30 5229 H 491.18 6.72236 3.81207 0
M  V30 5230 H 489.525 6.04217 3.43434 0
M  V30 5231 H 492.716 3.91841 2.56082 0
M  V30 5232 H 492.889 5.55843 3.33081 0
M  V30 5233 N 486.295 -0.989507 1.22664 0
M  V30 5234 C 487.225 -2.09847 1.02404 0
M  V30 5235 C 488.206 -1.70007 -0.0561303 0
M  V30 5236 O 489.391 -1.93906 0.106748 0
M  V30 5237 C 486.521 -3.41996 0.604663 0
M  V30 5238 C 485.475 -3.95699 1.63115 0
M  V30 5239 C 484.801 -5.23936 1.0675 0
M  V30 5240 C 486.101 -4.25999 3.02196 0
M  V30 5241 H 487.795 -2.27054 1.95158 0
M  V30 5242 H 485.341 -1.09111 0.939727 0
M  V30 5243 H 487.294 -4.1899 0.45002 0
M  V30 5244 H 486.018 -3.24626 -0.35855 0
M  V30 5245 H 484.677 -3.2084 1.77362 0
M  V30 5246 H 484.325 -5.02909 0.0955422 0
M  V30 5247 H 484.025 -5.60833 1.75328 0
M  V30 5248 H 485.549 -6.0356 0.924516 0
M  V30 5249 H 486.963 -4.93777 2.91303 0
M  V30 5250 H 485.36 -4.74076 3.67929 0
M  V30 5251 H 486.43 -3.33636 3.51873 0
M  V30 5252 N 487.773 -1.03688 -1.18687 0
M  V30 5253 C 489.019 -0.739123 -1.88851 0
M  V30 5254 C 489.352 0.731042 -1.79915 0
M  V30 5255 O 488.627 1.53313 -1.19688 0
M  V30 5256 C 488.91 -1.20106 -3.3948 0
M  V30 5257 C 488.763 -2.73304 -3.57246 0
M  V30 5258 C 490.082 -0.788134 -4.32986 0
M  V30 5259 H 487.201 -0.269978 -0.68577 0
M  V30 5260 H 489.843 -1.28822 -1.3966 0
M  V30 5261 H 487.993 -0.733915 -3.81505 0
M  V30 5262 H 489.665 -3.28027 -3.24339 0
M  V30 5263 H 487.908 -3.13313 -3.00029 0
M  V30 5264 H 488.579 -3.00684 -4.62918 0
M  V30 5265 H 491.055 -1.19005 -3.98719 0
M  V30 5266 H 489.931 -1.13915 -5.36949 0
M  V30 5267 H 490.192 0.308988 -4.41019 0
M  V30 5268 N 489.251 1.34841 -0.815825 0
M  V30 5269 C 490.662 1.80937 -0.46029 0
M  V30 5270 C 491.013 1.67685 1.01863 0
M  V30 5271 O 490.138 1.21277 1.79223 0
M  V30 5272 C 490.733 3.28509 -0.828708 0
M  V30 5273 C 489.292 3.72712 -0.525644 0
M  V30 5274 C 488.439 2.56676 -1.04941 0
M  V30 5275 H 491.39 1.22688 -1.00664 0
M  V30 5276 H 491.411 3.80279 -0.129757 0
M  V30 5277 H 490.923 3.38122 -1.90513 0
M  V30 5278 H 489.024 3.68642 0.541666 0
M  V30 5279 H 489.137 4.67119 -1.06474 0
M  V30 5280 H 487.501 2.50302 -0.471286 0
M  V30 5281 H 488.284 2.69063 -2.13214 0
M  V30 5282 N 490.729 0.570148 1.46925 0
M  V30 5283 C 491.959 0.0561151 2.06524 0
M  V30 5284 C 492.367 -1.24874 1.42137 0
M  V30 5285 O 491.71 -1.76292 0.516417 0
M  V30 5286 C 491.772 -0.197035 3.5896 0
M  V30 5287 C 491.436 1.02033 4.45464 0
M  V30 5288 C 492.433 1.92921 4.82781 0
M  V30 5289 C 490.118 1.23864 4.86788 0
M  V30 5290 C 492.112 3.03999 5.60235 0
M  V30 5291 C 489.799 2.35249 5.64004 0
M  V30 5292 C 490.797 3.25146 6.0064 0
M  V30 5293 O 490.485 4.34598 6.76299 0
M  V30 5294 H 490.217 0.0487409 0.674241 0
M  V30 5295 H 492.771 0.786915 1.89728 0
M  V30 5296 H 491.001 -0.982299 3.74016 0
M  V30 5297 H 492.69 -0.658032 4.00531 0
M  V30 5298 H 493.456 1.77265 4.51444 0
M  V30 5299 H 489.335 0.54805 4.57731 0
M  V30 5300 H 492.879 3.74192 5.8875 0
M  V30 5301 H 488.776 2.50873 5.94755 0
M  V30 5302 H 489.544 4.32808 6.94708 0
M  V30 5303 N 492.207 -1.54576 0.307264 0
M  V30 5304 C 493.455 -1.99867 -0.299574 0
M  V30 5305 C 493.776 -1.19714 -1.53927 0
M  V30 5306 O 493.046 -0.29472 -1.9367 0
M  V30 5307 H 491.626 -0.738299 -0.113683 0
M  V30 5308 H 494.288 -1.9032 0.420042 0
M  V30 5309 H 493.384 -3.06901 -0.567283 0
M  V30 5310 N 493.685 -0.035106 -1.57561 0
M  V30 5311 C 494.633 0.962707 -2.11742 0
M  V30 5312 C 495.627 1.33296 -1.0454 0
M  V30 5313 O 496.833 1.31449 -1.22968 0
M  V30 5314 H 493.208 0.32826 -0.676572 0
M  V30 5315 H 495.179 0.48048 -2.94506 0
M  V30 5316 C 493.928 2.23388 -2.66445 0
M  V30 5317 H 493.251 1.95774 -3.48587 0
M  V30 5318 H 494.691 2.91402 -3.07995 0
M  V30 5319 C 493.15 2.96769 -1.59467 0
M  V30 5320 O 493.68 3.89105 -0.998 0
M  V30 5321 N 491.886 2.59212 -1.31369 0
M  V30 5322 H 491.433 1.84202 -1.80076 0
M  V30 5323 H 491.391 3.08618 -0.600173 0
M  V30 5324 N 495.163 1.55791 0.238111 0
M  V30 5325 C 496.113 1.87444 1.29803 0
M  V30 5326 C 497.097 0.736043 1.43078 0
M  V30 5327 O 498.289 0.998146 1.46171 0
M  V30 5328 C 495.418 2.18028 2.65177 0
M  V30 5329 C 494.504 3.38217 2.55871 0
M  V30 5330 N 494.895 4.57264 2.16202 0
M  V30 5331 C 493.193 3.41502 2.86866 0
M  V30 5332 C 493.894 5.3941 2.17744 0
M  V30 5333 N 492.87 4.78695 2.57589 0
M  V30 5334 H 496.672 2.7701 0.981965 0
M  V30 5335 H 494.186 1.56135 0.44672 0
M  V30 5336 H 496.183 2.38873 3.4168 0
M  V30 5337 H 494.843 1.29765 2.97643 0
M  V30 5338 H 495.854 4.82727 1.87602 0
M  V30 5339 H 492.531 2.63536 3.23813 0
M  V30 5340 H 493.921 6.44671 1.89339 0
M  V30 5341 N 496.642 -0.504142 1.49319 0
M  V30 5342 C 497.867 -1.28729 1.62615 0
M  V30 5343 C 498.292 -1.85752 0.296309 0
M  V30 5344 O 497.65 -1.65704 -0.735649 0
M  V30 5345 C 497.698 -2.39561 2.69524 0
M  V30 5346 O 496.802 -3.43324 2.28478 0
M  V30 5347 H 496.143 -0.380172 0.544395 0
M  V30 5348 H 498.673 -0.603872 1.95485 0
M  V30 5349 H 498.683 -2.8537 2.91595 0
M  V30 5350 H 497.358 -1.97423 3.66056 0
M  V30 5351 H 495.935 -3.03455 2.16725 0
M  V30 5352 N 498.12 -1.38341 -0.754957 0
M  V30 5353 C 499.35 -1.37504 -1.54195 0
M  V30 5354 C 499.758 0.0373787 -1.89163 0
M  V30 5355 O 499.101 1.01402 -1.53178 0
M  V30 5356 C 499.163 -2.16488 -2.87008 0
M  V30 5357 C 498.827 -3.65311 -2.74585 0
M  V30 5358 C 499.824 -4.58834 -2.44474 0
M  V30 5359 C 497.509 -4.08649 -2.9208 0
M  V30 5360 C 499.503 -5.93675 -2.32011 0
M  V30 5361 C 497.19 -5.43571 -2.79237 0
M  V30 5362 C 498.188 -6.35898 -2.49245 0
M  V30 5363 O 497.876 -7.68338 -2.36458 0
M  V30 5364 H 497.608 -0.472159 -0.483779 0
M  V30 5365 H 500.162 -1.82515 -0.94221 0
M  V30 5366 H 498.392 -1.66194 -3.49166 0
M  V30 5367 H 500.081 -2.08076 -3.4851 0
M  V30 5368 H 500.847 -4.26657 -2.30627 0
M  V30 5369 H 496.726 -3.37134 -3.14422 0
M  V30 5370 H 500.27 -6.65706 -2.08522 0
M  V30 5371 H 496.167 -5.75345 -2.92657 0
M  V30 5372 H 496.935 -7.78845 -2.5168 0
M  V30 5373 N 499.598 0.982988 -1.23187 0
M  V30 5374 C 500.528 2.09301 -1.03515 0
M  V30 5375 C 501.509 1.70035 0.0471136 0
M  V30 5376 O 502.694 1.93847 -0.117029 0
M  V30 5377 C 499.824 3.4167 -0.622791 0
M  V30 5378 C 498.778 3.94828 -1.65211 0
M  V30 5379 C 498.104 5.23362 -1.09527 0
M  V30 5380 C 499.404 4.2439 -3.04451 0
M  V30 5381 H 501.098 2.26016 -1.96359 0
M  V30 5382 H 498.644 1.08611 -0.945501 0
M  V30 5383 H 500.597 4.18746 -0.472233 0
M  V30 5384 H 499.321 3.24811 0.341329 0
M  V30 5385 H 497.98 3.19895 -1.79061 0
M  V30 5386 H 497.628 5.02852 -0.122211 0
M  V30 5387 H 497.328 5.59895 -1.783 0
M  V30 5388 H 498.852 6.03062 -0.956511 0
M  V30 5389 H 500.266 4.92225 -2.93917 0
M  V30 5390 H 498.663 4.72118 -3.70438 0
M  V30 5391 H 499.733 3.31765 -3.53638 0
M  V30 5392 N 501.076 1.04316 1.18135 0
M  V30 5393 C 501.986 0.646876 2.25505 0
M  V30 5394 C 503.002 -0.328008 1.7088 0
M  V30 5395 O 504.178 -0.182309 2.00573 0
M  V30 5396 C 501.243 0.0185664 3.46695 0
M  V30 5397 C 500.304 1.04277 4.16443 0
M  V30 5398 C 499.537 0.444352 5.31847 0
M  V30 5399 O 499.76 -0.748735 5.65465 0
M  V30 5400 O 498.694 1.17428 5.90334 0
M  V30 5401 H 502.52 1.54147 2.61672 0
M  V30 5402 H 500.105 0.814188 1.25265 0
M  V30 5403 H 501.987 -0.331068 4.20097 0
M  V30 5404 H 500.662 -0.849814 3.12346 0
M  V30 5405 H 499.569 1.44425 3.45098 0
M  V30 5406 H 500.902 1.882 4.54798 0
M  V30 5407 N 502.554 -1.34406 0.822964 0
M  V30 5408 C 503.779 -2.0304 0.423034 0
M  V30 5409 C 504.204 -1.61568 -0.963196 0
M  V30 5410 O 503.562 -0.800339 -1.62678 0
M  V30 5411 C 503.61 -3.56636 0.53321 0
M  V30 5412 O 502.714 -4.09971 -0.446939 0
M  V30 5413 H 502.055 -0.64075 0.174171 0
M  V30 5414 H 504.585 -1.71653 1.11339 0
M  V30 5415 H 504.595 -4.05945 0.408991 0
M  V30 5416 H 503.27 -3.86168 1.54425 0
M  V30 5417 H 501.847 -3.71835 -0.281601 0
M  V30 5418 N 504.032 -0.577932 -1.46621 0
M  V30 5419 C 504.962 0.145917 -2.33044 0
M  V30 5420 C 505.943 0.888412 -1.45056 0
M  V30 5421 O 507.128 0.864812 -1.73881 0
M  V30 5422 C 504.258 1.16322 -3.27241 0
M  V30 5423 C 503.212 0.535868 -4.24632 0
M  V30 5424 C 502.538 1.65929 -5.08303 0
M  V30 5425 C 503.838 -0.523861 -5.19666 0
M  V30 5426 H 505.532 -0.575636 -2.93814 0
M  V30 5427 H 503.078 -0.278272 -1.41286 0
M  V30 5428 H 505.031 1.67793 -3.86553 0
M  V30 5429 H 503.755 1.91498 -2.64567 0
M  V30 5430 H 502.414 0.0422759 -3.66576 0
M  V30 5431 H 502.062 2.40061 -4.42018 0
M  V30 5432 H 501.762 1.2452 -5.74255 0
M  V30 5433 H 503.286 2.17686 -5.70478 0
M  V30 5434 H 504.7 -0.0944059 -5.73222 0
M  V30 5435 H 503.097 -0.858 -5.93935 0
M  V30 5436 H 504.167 -1.41197 -4.63887 0
M  V30 5437 N 505.51 1.54411 -0.315457 0
M  V30 5438 C 506.738 2.04833 0.291738 0
M  V30 5439 C 507.153 1.19203 1.46411 0
M  V30 5440 O 506.51 0.220867 1.81159 0
M  V30 5441 C 506.561 3.53969 0.73404 0
M  V30 5442 O 506.282 4.36346 -0.391682 0
M  V30 5443 C 507.783 4.2045 1.40489 0
M  V30 5444 H 505.003 0.668195 0.0612947 0
M  V30 5445 H 507.547 1.99276 -0.45929 0
M  V30 5446 H 505.702 3.5984 1.43506 0
M  V30 5447 H 506.116 5.24481 -0.0447088 0
M  V30 5448 H 507.59 5.26278 1.66539 0
M  V30 5449 H 508.067 3.71067 2.3496 0
M  V30 5450 H 508.673 4.18694 0.746662 0
M  V30 5451 N 506.988 0.0434614 1.5754 0
M  V30 5452 C 508.265 -0.671479 1.83713 0
M  V30 5453 C 508.645 -1.89495 0.930315 0
M  V30 5454 O 507.993 -2.28498 -0.0105639 0
M  V30 5455 C 508.203 -1.0361 3.33266 0
M  V30 5456 C 509.551 -1.42167 4.00092 0
M  V30 5457 O 510.575 -1.12866 3.37846 0
M  V30 5458 O 509.434 -1.96817 5.09829 0
M  V30 5459 H 506.528 -0.330726 0.75799 0
M  V30 5460 H 509.074 0.0722373 1.69546 0
M  V30 5461 H 507.846 -0.165938 3.90948 0
M  V30 5462 H 507.469 -1.83751 3.52592 0
M  V30 5463 N 508.466 -1.55915 -0.229846 0
M  V30 5464 C 509.413 -1.91734 -1.28478 0
M  V30 5465 C 510.383 -0.773539 -1.46988 0
M  V30 5466 O 511.568 -1.02871 -1.60693 0
M  V30 5467 C 508.708 -2.23224 -2.63182 0
M  V30 5468 C 507.821 -3.50497 -2.52539 0
M  V30 5469 C 506.956 -3.71474 -3.79711 0
M  V30 5470 C 505.995 -4.92289 -3.63755 0
M  V30 5471 N 505.132 -5.09698 -4.82858 0
M  V30 5472 H 509.972 -2.81692 -0.972308 0
M  V30 5473 H 507.509 -1.39429 -0.468815 0
M  V30 5474 H 509.467 -2.3949 -3.41614 0
M  V30 5475 H 508.097 -1.36451 -2.92542 0
M  V30 5476 H 507.149 -3.4247 -1.65585 0
M  V30 5477 H 508.461 -4.39079 -2.36666 0
M  V30 5478 H 507.615 -3.87791 -4.66586 0
M  V30 5479 H 506.354 -2.81157 -3.985 0
M  V30 5480 H 505.359 -4.7593 -2.75264 0
M  V30 5481 H 506.584 -5.84083 -3.46445 0
M  V30 5482 H 504.53 -4.22322 -5.01976 0
M  V30 5483 H 504.447 -5.92399 -4.69681 0
M  V30 5484 H 505.715 -5.30443 -5.71183 0
M  V30 5485 N 509.944 0.496216 -1.49584 0
M  V30 5486 C 511.169 1.27865 -1.63295 0
M  V30 5487 C 511.594 1.85592 -0.306156 0
M  V30 5488 O 510.952 1.66092 0.726851 0
M  V30 5489 C 511 2.38128 -2.7079 0
M  V30 5490 O 510.104 3.42108 -2.30296 0
M  V30 5491 H 509.445 0.377279 -0.546403 0
M  V30 5492 H 511.975 0.593497 -1.95803 0
M  V30 5493 H 511.985 2.8382 -2.93104 0
M  V30 5494 H 510.66 1.95479 -3.67098 0
M  V30 5495 H 509.237 3.02301 -2.18331 0
M  V30 5496 N 511.423 1.38739 0.74761 0
M  V30 5497 C 512.37 1.36449 1.86146 0
M  V30 5498 C 513.34 0.226098 1.64554 0
M  V30 5499 O 514.525 0.41926 1.86137 0
M  V30 5500 C 511.665 1.2013 3.23516 0
M  V30 5501 C 510.778 2.43407 3.56899 0
M  V30 5502 C 509.913 2.19773 4.83605 0
M  V30 5503 C 508.952 3.3879 5.09792 0
M  V30 5504 N 508.089 3.14553 6.27695 0
M  V30 5505 H 512.929 2.3167 1.87438 0
M  V30 5506 H 510.466 1.15094 0.916063 0
M  V30 5507 H 512.424 1.08683 4.02795 0
M  V30 5508 H 511.054 0.285453 3.21535 0
M  V30 5509 H 510.106 2.65504 2.72418 0
M  V30 5510 H 511.418 3.32094 3.72176 0
M  V30 5511 H 510.572 2.05496 5.70838 0
M  V30 5512 H 509.311 1.28461 4.70478 0
M  V30 5513 H 508.316 3.53579 4.21025 0
M  V30 5514 H 509.541 4.30986 5.24812 0
M  V30 5515 H 507.487 2.25893 6.1588 0
M  V30 5516 H 507.404 3.96791 6.435 0
M  V30 5517 H 508.672 3.03943 7.17801 0
M  V30 5518 N 512.901 -0.976442 1.23707 0
M  V30 5519 C 513.811 -2.10359 1.03856 0
M  V30 5520 C 514.827 -1.73991 -0.0180919 0
M  V30 5521 O 516.003 -2.0061 0.178211 0
M  V30 5522 C 513.068 -3.40809 0.636387 0
M  V30 5523 C 512.129 -3.91179 1.76854 0
M  V30 5524 C 511.362 -5.15404 1.38546 0
M  V30 5525 O 511.585 -5.69754 0.27142 0
M  V30 5526 O 510.519 -5.5994 2.20797 0
M  V30 5527 H 514.345 -2.29997 1.98331 0
M  V30 5528 H 511.93 -1.08742 1.02448 0
M  V30 5529 H 513.812 -4.19269 0.423223 0
M  V30 5530 H 512.487 -3.22493 -0.279322 0
M  V30 5531 H 511.394 -3.13819 2.03638 0
M  V30 5532 H 512.727 -4.13958 2.6627 0
M  V30 5533 N 514.379 -1.04941 -1.1758 0
M  V30 5534 C 515.309 -0.669172 -2.23706 0
M  V30 5535 C 516.29 0.331835 -1.66832 0
M  V30 5536 O 517.475 0.209988 -1.93061 0
M  V30 5537 C 514.605 -0.0404889 -3.47276 0
M  V30 5538 C 513.559 -0.965983 -4.16957 0
M  V30 5539 C 512.885 -0.201312 -5.34321 0
M  V30 5540 C 514.185 -2.28902 -4.69469 0
M  V30 5541 H 515.879 -1.55639 -2.55767 0
M  V30 5542 H 513.425 -0.749793 -1.22939 0
M  V30 5543 H 515.378 0.237298 -4.20731 0
M  V30 5544 H 514.102 0.881658 -3.14475 0
M  V30 5545 H 512.761 -1.22829 -3.45411 0
M  V30 5546 H 512.409 0.723519 -4.97769 0
M  V30 5547 H 512.109 -0.817968 -5.81879 0
M  V30 5548 H 513.633 0.0692499 -6.10561 0
M  V30 5549 H 515.047 -2.07132 -5.34574 0
M  V30 5550 H 513.444 -2.85942 -5.27596 0
M  V30 5551 H 514.514 -2.92937 -3.86414 0
M  V30 5552 N 515.857 1.33968 -0.830081 0
M  V30 5553 C 517.268 1.80439 -0.479455 0
M  V30 5554 C 517.619 1.68756 1.00079 0
M  V30 5555 O 516.744 1.23171 1.77927 0
M  V30 5556 C 517.339 3.27611 -0.863505 0
M  V30 5557 C 515.898 3.72133 -0.565145 0
M  V30 5558 C 515.045 2.55549 -1.07657 0
M  V30 5559 H 517.996 1.21614 -1.0196 0
M  V30 5560 H 518.017 3.8012 -0.170083 0
M  V30 5561 H 517.529 3.36082 -1.94089 0
M  V30 5562 H 515.63 3.69196 0.502536 0
M  V30 5563 H 515.743 4.65963 -1.11422 0
M  V30 5564 H 514.107 2.49788 -0.497807 0
M  V30 5565 H 514.89 2.66786 -2.16055 0
M  V30 5566 N 517.335 0.585699 1.46312 0
M  V30 5567 C 518.265 -0.133556 2.33118 0
M  V30 5568 C 519.246 -0.880707 1.45525 0
M  V30 5569 O 520.431 -0.855579 1.74337 0
M  V30 5570 C 517.561 -1.14585 3.27853 0
M  V30 5571 C 516.515 -0.513341 4.2491 0
M  V30 5572 C 515.841 -1.63231 5.09175 0
M  V30 5573 C 517.141 0.551413 5.19381 0
M  V30 5574 H 518.835 0.59121 2.93505 0
M  V30 5575 H 516.381 0.285761 1.41136 0
M  V30 5576 H 518.334 -1.65741 3.87438 0
M  V30 5577 H 517.058 -1.90093 2.65579 0
M  V30 5578 H 515.717 -0.0228349 3.66593 0
M  V30 5579 H 515.365 -2.37713 4.43285 0
M  V30 5580 H 515.065 -1.21473 5.74907 0
M  V30 5581 H 516.589 -2.14658 5.71624 0
M  V30 5582 H 518.003 0.124804 5.73164 0
M  V30 5583 H 516.4 0.889486 5.93471 0
M  V30 5584 H 517.47 1.43655 4.63132 0
M  V30 5585 N 518.813 -1.54241 0.323641 0
M  V30 5586 C 520.043 -2.04687 -0.280464 0
M  V30 5587 C 520.451 -1.19939 -1.46326 0
M  V30 5588 O 519.794 -0.222872 -1.82343 0
M  V30 5589 C 519.856 -3.50978 -0.778123 0
M  V30 5590 C 519.52 -4.56127 0.282371 0
M  V30 5591 C 520.517 -5.07726 1.11847 0
M  V30 5592 C 518.202 -5.00451 0.430582 0
M  V30 5593 C 520.196 -6.02212 2.08851 0
M  V30 5594 C 517.883 -5.94752 1.40404 0
M  V30 5595 C 518.881 -6.45519 2.23147 0
M  V30 5596 O 518.569 -7.37968 3.1884 0
M  V30 5597 H 518.301 -0.673192 -0.0615473 0
M  V30 5598 H 520.855 -1.99999 0.467921 0
M  V30 5599 H 519.085 -3.53064 -1.57742 0
M  V30 5600 H 520.774 -3.84499 -1.30058 0
M  V30 5601 H 521.54 -4.74261 1.01496 0
M  V30 5602 H 517.419 -4.6055 -0.203569 0
M  V30 5603 H 520.963 -6.41761 2.73474 0
M  V30 5604 H 516.86 -6.27633 1.5082 0
M  V30 5605 H 517.628 -7.55841 3.14079 0
M  V30 5606 N 520.291 -0.0518155 -1.57515 0
M  V30 5607 C 521.531 0.625712 -1.94587 0
M  V30 5608 C 521.895 1.6797 -0.930053 0
M  V30 5609 O 523.096 2.41135 -1.18774 0
M  V30 5610 C 521.367 1.20574 -3.36447 0
M  V30 5611 S 522.926 1.90118 -3.95475 0
M  V30 5612 H 519.744 0.205434 -0.680675 0
M  V30 5613 H 522.346 -0.120906 -1.95126 0
M  V30 5614 H 521.05 0.426521 -4.08178 0
M  V30 5615 H 520.581 1.98916 -3.39405 0
M  V30 5616 H 522.596 3.18184 -3.80753 0
M  V30 5617 N 521.769 1.56035 0.221574 0
M  V30 5618 C 522.994 1.83476 0.967026 0
M  V30 5619 C 523.419 0.632139 1.7716 0
M  V30 5620 O 522.777 -0.419082 1.7639 0
M  V30 5621 C 522.825 3.08907 1.86034 0
M  V30 5622 O 521.929 2.876 2.95567 0
M  V30 5623 H 521.27 0.604913 0.273817 0
M  V30 5624 H 523.8 2.03247 0.234893 0
M  V30 5625 H 523.81 3.3901 2.27016 0
M  V30 5626 H 522.485 3.96068 1.26898 0
M  V30 5627 H 521.062 2.6873 2.58532 0
M  V30 5628 N 523.247 -0.488276 1.49845 0
M  V30 5629 C 524.495 -1.23911 1.59657 0
M  V30 5630 C 524.816 -1.92816 0.291005 0
M  V30 5631 O 524.086 -1.83328 -0.690485 0
M  V30 5632 H 522.666 -0.460357 0.588286 0
M  V30 5633 H 525.328 -0.564794 1.86537 0
M  V30 5634 H 524.424 -1.99625 2.39909 0
M  V30 5635 N 524.725 -1.39134 -0.740242 0
M  V30 5636 C 525.973 -1.35803 -1.49673 0
M  V30 5637 C 526.294 0.0470897 -1.94943 0
M  V30 5638 O 525.564 0.997347 -1.68611 0
M  V30 5639 H 524.144 -0.499736 -0.555224 0
M  V30 5640 H 526.806 -1.73947 -0.879107 0
M  V30 5641 H 525.902 -2.0174 -2.38133 0
M  V30 5642 N 526.204 0.969867 -1.24223 0
M  V30 5643 C 527.134 2.08191 -1.05729 0
M  V30 5644 C 528.115 1.70075 0.0290765 0
M  V30 5645 O 529.3 1.93712 -0.137583 0
M  V30 5646 C 526.43 3.40991 -0.658995 0
M  V30 5647 C 525.384 3.93054 -1.69389 0
M  V30 5648 C 524.71 5.22171 -1.15072 0
M  V30 5649 C 526.01 4.21137 -3.08935 0
M  V30 5650 H 527.704 2.23921 -1.98746 0
M  V30 5651 H 525.25 1.07602 -0.956967 0
M  V30 5652 H 527.203 4.18221 -0.51662 0
M  V30 5653 H 525.927 3.25155 0.30686 0
M  V30 5654 H 524.586 3.17977 -1.82444 0
M  V30 5655 H 524.234 5.02694 -0.175539 0
M  V30 5656 H 523.934 5.57973 -1.84229 0
M  V30 5657 H 525.458 6.02013 -1.02042 0
M  V30 5658 H 526.872 4.8908 -2.99121 0
M  V30 5659 H 525.269 4.68163 -3.75425 0
M  V30 5660 H 526.339 3.27996 -3.57137 0
M  V30 5661 N 527.682 1.05563 1.17022 0
M  V30 5662 C 529.098 0.777684 1.39371 0
M  V30 5663 C 529.298 -0.626269 1.91521 0
M  V30 5664 O 528.354 -1.38806 2.10924 0
M  V30 5665 C 529.667 1.83642 2.3811 0
M  V30 5666 C 531.215 1.85907 2.51809 0
M  V30 5667 C 531.69 2.90813 3.53824 0
M  V30 5668 N 533.181 2.898 3.61345 0
M  V30 5669 C 533.916 3.6762 4.40049 0
M  V30 5670 N 533.412 4.55237 5.22237 0
M  V30 5671 N 535.205 3.56044 4.34959 0
M  V30 5672 H 527.356 1.9614 0.815047 0
M  V30 5673 H 529.619 0.849527 0.420722 0
M  V30 5674 H 529.325 2.84425 2.06871 0
M  V30 5675 H 529.199 1.6812 3.37662 0
M  V30 5676 H 531.586 0.857865 2.82356 0
M  V30 5677 H 531.667 2.05506 1.52318 0
M  V30 5678 H 531.311 3.91122 3.24015 0
M  V30 5679 H 531.241 2.68465 4.53028 0
M  V30 5680 H 533.732 2.26274 3.02669 0
M  V30 5681 H 534.045 5.11291 5.79484 0
M  V30 5682 H 532.39 4.59296 5.21605 0
M  V30 5683 H 535.581 2.86986 3.69806 0
M  V30 5684 H 535.754 4.16938 4.96051 0
M  V30 5685 N 529.16 -1.33526 0.837174 0
M  V30 5686 C 530.407 -1.97837 0.432064 0
M  V30 5687 C 530.735 -1.66324 -1.00829 0
M  V30 5688 O 529.99 -0.93448 -1.71948 0
M  V30 5689 C 530.289 -3.52367 0.597675 0
M  V30 5690 C 529.955 -4.03826 2.00587 0
M  V30 5691 C 528.617 -4.1759 2.39106 0
M  V30 5692 C 530.969 -4.31333 2.92576 0
M  V30 5693 C 528.297 -4.56195 3.68921 0
M  V30 5694 C 530.649 -4.7139 4.2187 0
M  V30 5695 C 529.313 -4.8336 4.60347 0
M  V30 5696 H 528.583 -0.723937 0.158104 0
M  V30 5697 H 531.23 -1.5923 1.06387 0
M  V30 5698 H 529.535 -3.91624 -0.117452 0
M  V30 5699 H 531.232 -4.00126 0.26454 0
M  V30 5700 H 527.822 -3.93586 1.69671 0
M  V30 5701 H 532.006 -4.20224 2.64056 0
M  V30 5702 H 527.262 -4.63655 3.9854 0
M  V30 5703 H 531.436 -4.91631 4.93226 0
M  V30 5704 H 529.063 -5.1303 5.60985 0
M  V30 5705 N 530.638 -0.59345 -1.46 0
M  V30 5706 C 531.885 -0.0831523 -2.02329 0
M  V30 5707 C 532.213 1.28093 -1.46364 0
M  V30 5708 O 531.468 1.85526 -0.622793 0
M  V30 5709 C 531.767 0.021178 -3.57394 0
M  V30 5710 C 531.433 -1.27671 -4.32448 0
M  V30 5711 C 530.095 -1.63227 -4.5267 0
M  V30 5712 C 532.447 -2.13511 -4.7546 0
M  V30 5713 C 529.775 -2.84401 -5.1316 0
M  V30 5714 C 532.127 -3.33922 -5.37289 0
M  V30 5715 C 530.791 -3.69747 -5.55737 0
M  V30 5716 H 530.061 -0.0304276 -0.740375 0
M  V30 5717 H 532.708 -0.772239 -1.75239 0
M  V30 5718 H 531.013 0.793454 -3.83682 0
M  V30 5719 H 532.71 0.431942 -3.98667 0
M  V30 5720 H 529.3 -0.989937 -4.17011 0
M  V30 5721 H 533.484 -1.87344 -4.59582 0
M  V30 5722 H 528.74 -3.12282 -5.25633 0
M  V30 5723 H 532.914 -4.00698 -5.69574 0
M  V30 5724 H 530.541 -4.6373 -6.02377 0
M  V30 5725 N 532.116 1.54067 -0.331816 0
M  V30 5726 C 533.362 2.01713 0.261395 0
M  V30 5727 C 533.717 1.21566 1.49129 0
M  V30 5728 O 533.01 0.291867 1.89364 0
M  V30 5729 C 533.204 3.51634 0.639392 0
M  V30 5730 C 533.033 4.46295 -0.552321 0
M  V30 5731 C 531.803 4.94185 -1.05399 0
M  V30 5732 C 534.001 4.94677 -1.40711 0
M  V30 5733 N 531.983 5.7277 -2.20925 0
M  V30 5734 C 533.354 5.71267 -2.40943 0
M  V30 5735 C 535.409 4.76805 -1.43392 0
M  V30 5736 C 534.112 6.31889 -3.4367 0
M  V30 5737 C 536.138 5.38268 -2.44994 0
M  V30 5738 C 535.5 6.14716 -3.43952 0
M  V30 5739 H 531.599 0.77975 0.0592729 0
M  V30 5740 H 534.183 1.88974 -0.468726 0
M  V30 5741 H 532.354 3.64603 1.33863 0
M  V30 5742 H 534.086 3.86038 1.21478 0
M  V30 5743 H 530.841 4.69472 -0.623952 0
M  V30 5744 H 531.265 6.16737 -2.79222 0
M  V30 5745 H 535.907 4.17255 -0.682489 0
M  V30 5746 H 533.625 6.90554 -4.19715 0
M  V30 5747 H 537.211 5.26352 -2.4788 0
M  V30 5748 H 536.091 6.6143 -4.21283 0
M  V30 5749 N 533.594 0.0601682 1.57485 0
M  V30 5750 C 534.871 -0.651956 1.84415 0
M  V30 5751 C 535.251 -1.88498 0.950361 0
M  V30 5752 O 534.599 -2.28496 0.0136719 0
M  V30 5753 C 534.809 -1.00069 3.34346 0
M  V30 5754 C 536.157 -1.37915 4.01578 0
M  V30 5755 O 537.181 -1.09277 3.39024 0
M  V30 5756 O 536.04 -1.91399 5.11887 0
M  V30 5757 H 533.134 -0.322668 0.761455 0
M  V30 5758 H 535.68 0.0902159 1.6946 0
M  V30 5759 H 534.452 -0.124463 3.91102 0
M  V30 5760 H 534.075 -1.80001 3.54521 0
M  V30 5761 N 535.072 -1.5615 -0.213296 0
M  V30 5762 C 536.02 -1.93953 -1.28394 0
M  V30 5763 C 537.014 -0.822592 -1.48087 0
M  V30 5764 O 538.22 -1.00748 -1.49164 0
M  V30 5765 H 534.595 -0.61648 -0.430646 0
M  V30 5766 H 536.566 -2.83275 -0.937977 0
M  V30 5767 C 535.315 -2.27969 -2.62537 0
M  V30 5768 H 534.638 -3.13432 -2.48194 0
M  V30 5769 H 536.078 -2.58297 -3.36242 0
M  V30 5770 C 534.537 -1.10775 -3.18167 0
M  V30 5771 O 535.067 -0.373201 -3.99963 0
M  V30 5772 N 533.273 -0.889377 -2.76656 0
M  V30 5773 H 532.82 -1.48843 -2.10246 0
M  V30 5774 H 532.778 -0.107 -3.14218 0
M  V30 5775 N 536.55 0.480323 -1.50102 0
M  V30 5776 C 537.497 1.57946 -1.6829 0
M  V30 5777 C 538.467 1.57611 -0.524223 0
M  V30 5778 O 539.652 1.75282 -0.753709 0
M  V30 5779 C 536.792 2.95978 -1.77457 0
M  V30 5780 C 535.905 3.06173 -3.04766 0
M  V30 5781 C 535.04 4.35063 -3.04784 0
M  V30 5782 C 534.079 4.38966 -4.26586 0
M  V30 5783 N 533.216 5.59314 -4.24396 0
M  V30 5784 H 538.056 1.41743 -2.62131 0
M  V30 5785 H 535.593 0.689304 -1.2995 0
M  V30 5786 H 537.551 3.76011 -1.80752 0
M  V30 5787 H 536.181 3.10837 -0.870637 0
M  V30 5788 H 535.233 2.19071 -3.10986 0
M  V30 5789 H 536.545 3.04916 -3.9475 0
M  V30 5790 H 535.699 5.23436 -3.06757 0
M  V30 5791 H 534.438 4.38915 -2.12614 0
M  V30 5792 H 533.443 3.48992 -4.24835 0
M  V30 5793 H 534.668 4.36813 -5.19972 0
M  V30 5794 H 532.614 5.63969 -3.35074 0
M  V30 5795 H 532.531 5.5976 -5.08138 0
M  V30 5796 H 533.799 6.49837 -4.30502 0
M  V30 5797 N 538.028 1.39524 0.732853 0
M  V30 5798 C 539.275 1.36865 1.49246 0
M  V30 5799 C 539.603 -0.0347118 1.94469 0
M  V30 5800 O 538.858 -1.01596 1.67262 0
M  V30 5801 C 539.157 2.28916 2.74468 0
M  V30 5802 C 538.823 3.76506 2.481 0
M  V30 5803 C 537.485 4.16721 2.40619 0
M  V30 5804 C 539.837 4.69846 2.25598 0
M  V30 5805 C 537.165 5.48334 2.08679 0
M  V30 5806 C 539.517 6.01739 1.95174 0
M  V30 5807 C 538.181 6.41015 1.86163 0
M  V30 5808 H 537.451 0.500824 0.546129 0
M  V30 5809 H 540.098 1.72047 0.840958 0
M  V30 5810 H 538.403 1.86859 3.4437 0
M  V30 5811 H 540.1 2.2415 3.32502 0
M  V30 5812 H 536.69 3.44635 2.54803 0
M  V30 5813 H 540.874 4.39608 2.30344 0
M  V30 5814 H 536.13 5.77685 2.00226 0
M  V30 5815 H 540.304 6.73591 1.76771 0
M  V30 5816 H 537.931 7.42917 1.61179 0
M  V30 5817 N 539.506 -0.963266 1.24736 0
M  V30 5818 C 540.783 -1.68248 0.9976 0
M  V30 5819 C 541.163 -2.05599 -0.478776 0
M  V30 5820 O 540.511 -1.7626 -1.45412 0
M  V30 5821 C 540.721 -2.91118 1.92487 0
M  V30 5822 C 542.069 -3.63261 2.19833 0
M  V30 5823 O 543.093 -3.01184 1.90176 0
M  V30 5824 O 541.952 -4.75019 2.7022 0
M  V30 5825 H 539.046 -0.735744 0.377637 0
M  V30 5826 H 541.592 -1.01696 1.35853 0
M  V30 5827 H 540.364 -2.60242 2.92215 0
M  V30 5828 H 539.987 -3.65402 1.56738 0
M  V30 5829 N 540.985 -1.06182 -1.16461 0
M  V30 5830 C 541.935 -0.641619 -2.18786 0
M  V30 5831 C 542.919 0.327122 -1.5754 0
M  V30 5832 O 544.111 0.142746 -1.76423 0
M  V30 5833 C 541.24 -0.0283734 -3.43288 0
M  V30 5834 C 540.326 -1.02154 -4.11613 0
M  V30 5835 N 540.717 -2.19671 -4.55608 0
M  V30 5836 C 539.015 -0.852229 -4.37782 0
M  V30 5837 C 539.716 -2.82583 -5.0845 0
M  V30 5838 N 538.692 -2.10318 -5.01266 0
M  V30 5839 H 542.494 -1.53684 -2.50516 0
M  V30 5840 H 540.008 -0.933349 -1.329 0
M  V30 5841 H 542.005 0.29049 -4.15887 0
M  V30 5842 H 540.665 0.862118 -3.13046 0
M  V30 5843 H 541.676 -2.57453 -4.49375 0
M  V30 5844 H 538.353 -0.0136314 -4.17498 0
M  V30 5845 H 539.743 -3.82298 -5.52538 0
M  V30 5846 N 542.463 1.3308 -0.844243 0
M  V30 5847 C 543.426 2.27403 -0.286485 0
M  V30 5848 C 544.426 1.51179 0.547872 0
M  V30 5849 O 545.616 1.70421 0.360886 0
M  V30 5850 C 542.748 3.35653 0.595813 0
M  V30 5851 H 543.941 2.78248 -1.11885 0
M  V30 5852 H 541.494 1.43574 -0.617749 0
M  V30 5853 H 542.229 2.90058 1.4504 0
M  V30 5854 H 542.014 3.921 -0.00125994 0
M  V30 5855 H 543.504 4.05958 0.979168 0
M  V30 5856 N 543.941 0.601185 1.45683 0
M  V30 5857 C 544.874 -0.17013 2.27565 0
M  V30 5858 C 545.852 -0.879661 1.36751 0
M  V30 5859 O 547.036 -0.889827 1.66176 0
M  V30 5860 C 544.163 -1.24568 3.14961 0
M  V30 5861 C 543.209 -0.639978 4.21671 0
M  V30 5862 S 544.042 0.547275 5.32696 0
M  V30 5863 C 545.198 -0.529019 6.2366 0
M  V30 5864 H 545.431 0.524583 2.92635 0
M  V30 5865 H 542.964 0.388537 1.49431 0
M  V30 5866 H 544.922 -1.86138 3.65873 0
M  V30 5867 H 543.583 -1.91243 2.49169 0
M  V30 5868 H 542.776 -1.44903 4.8272 0
M  V30 5869 H 542.378 -0.0995558 3.73867 0
M  V30 5870 H 544.67 -1.40981 6.62669 0
M  V30 5871 H 545.613 0.0451599 7.08086 0
M  V30 5872 H 546.021 -0.84147 5.58193 0
M  V30 5873 N 545.419 -1.53889 0.339982 0
M  V30 5874 C 546.665 -2.01152 -0.258003 0
M  V30 5875 C 546.998 -1.22749 -1.50487 0
M  V30 5876 O 546.273 -0.314156 -1.91946 0
M  V30 5877 C 546.556 -3.55468 -0.575717 0
M  V30 5878 C 546.409 -4.44584 0.682996 0
M  V30 5879 C 547.728 -4.1768 -1.38677 0
M  V30 5880 H 544.847 -0.731198 -0.0922992 0
M  V30 5881 H 547.489 -1.84352 0.459814 0
M  V30 5882 H 545.639 -3.69914 -1.18725 0
M  V30 5883 H 547.311 -4.41981 1.32102 0
M  V30 5884 H 545.554 -4.13592 1.3086 0
M  V30 5885 H 546.225 -5.5043 0.416001 0
M  V30 5886 H 548.701 -4.0691 -0.869705 0
M  V30 5887 H 547.577 -5.25734 -1.57783 0
M  V30 5888 H 547.838 -3.72069 -2.38782 0
M  V30 5889 N 546.897 -0.0685191 -1.57451 0
M  V30 5890 C 547.86 0.885173 -2.11417 0
M  V30 5891 C 548.86 1.22853 -1.03748 0
M  V30 5892 O 550.05 1.16235 -1.2975 0
M  V30 5893 C 547.182 2.18964 -2.61281 0
M  V30 5894 H 548.375 0.417034 -2.96986 0
M  V30 5895 H 545.928 0.18014 -1.55258 0
M  V30 5896 H 546.663 2.70321 -1.79156 0
M  V30 5897 H 546.448 1.9534 -3.39977 0
M  V30 5898 H 547.938 2.87242 -3.0312 0
M  V30 5899 N 548.375 1.56261 0.205012 0
M  V30 5900 C 549.622 1.8004 0.926927 0
M  V30 5901 C 549.95 0.640086 1.83666 0
M  V30 5902 O 549.205 -0.374702 1.92079 0
M  V30 5903 C 549.504 3.09722 1.78345 0
M  V30 5904 C 549.17 4.39082 1.02555 0
M  V30 5905 C 547.832 4.74226 0.816256 0
M  V30 5906 C 550.184 5.18877 0.491559 0
M  V30 5907 C 547.512 5.86668 0.0613287 0
M  V30 5908 C 549.864 6.32105 -0.250107 0
M  V30 5909 C 548.528 6.6584 -0.470508 0
M  V30 5910 H 547.798 0.658812 0.339187 0
M  V30 5911 H 550.445 1.90515 0.19395 0
M  V30 5912 H 548.75 2.9444 2.5848 0
M  V30 5913 H 550.447 3.25324 2.34446 0
M  V30 5914 H 547.037 4.11497 1.19868 0
M  V30 5915 H 551.221 4.92147 0.640684 0
M  V30 5916 H 546.477 6.11283 -0.119501 0
M  V30 5917 H 550.651 6.93157 -0.671307 0
M  V30 5918 H 548.278 7.5281 -1.05739 0
M  V30 5919 N 549.853 -0.472356 1.50355 0
M  V30 5920 C 550.783 -1.57859 1.72055 0
M  V30 5921 C 551.764 -1.60283 0.569505 0
M  V30 5922 O 552.949 -1.7657 0.808503 0
M  V30 5923 C 550.079 -2.96191 1.81351 0
M  V30 5924 C 549.033 -3.08633 2.96529 0
M  V30 5925 C 548.359 -4.486 2.90968 0
M  V30 5926 C 549.659 -2.85969 4.37057 0
M  V30 5927 H 551.353 -1.39953 2.64676 0
M  V30 5928 H 548.899 -0.671846 1.27367 0
M  V30 5929 H 550.852 -3.73507 1.95117 0
M  V30 5930 H 549.576 -3.15251 0.853502 0
M  V30 5931 H 548.235 -2.33749 2.82413 0
M  V30 5932 H 547.883 -4.64577 1.92815 0
M  V30 5933 H 547.583 -4.57861 3.68289 0
M  V30 5934 H 549.107 -5.27938 3.0678 0
M  V30 5935 H 550.521 -3.53036 4.51706 0
M  V30 5936 H 548.918 -3.06677 5.15819 0
M  V30 5937 H 549.988 -1.81838 4.49514 0
M  V30 5938 N 551.331 -1.39911 -0.725443 0
M  V30 5939 C 552.608 -1.28158 -1.47766 0
M  V30 5940 C 552.988 0.104545 -2.10841 0
M  V30 5941 O 552.336 1.11657 -1.99361 0
M  V30 5942 C 552.546 -2.41306 -2.52135 0
M  V30 5943 C 553.894 -2.81076 -3.18247 0
M  V30 5944 O 554.918 -2.40827 -2.62452 0
M  V30 5945 O 553.777 -3.50581 -4.19231 0
M  V30 5946 H 550.871 -0.502761 -0.656628 0
M  V30 5947 H 553.417 -1.51808 -0.758456 0
M  V30 5948 H 552.189 -3.33932 -2.03974 0
M  V30 5949 H 551.812 -2.19374 -3.31603 0
M  V30 5950 N 552.809 0.956637 -1.25245 0
M  V30 5951 C 554.049 1.71585 -1.11076 0
M  V30 5952 C 554.413 1.88916 0.34277 0
M  V30 5953 O 555.614 2.61875 0.606227 0
M  V30 5954 C 553.885 3.06267 -1.84215 0
M  V30 5955 S 555.444 3.97469 -1.85914 0
M  V30 5956 H 552.262 0.589803 -0.397055 0
M  V30 5957 H 554.864 1.14114 -1.58739 0
M  V30 5958 H 553.568 2.91322 -2.89067 0
M  V30 5959 H 553.099 3.688 -1.36931 0
M  V30 5960 H 555.114 4.87316 -0.93474 0
M  V30 5961 N 554.287 1.06798 1.15896 0
M  V30 5962 C 555.533 0.788934 1.86825 0
M  V30 5963 C 555.866 -0.683084 1.8179 0
M  V30 5964 O 555.141 -1.50086 1.23711 0
M  V30 5965 C 555.424 1.29065 3.36176 0
M  V30 5966 C 555.277 2.8268 3.49874 0
M  V30 5967 C 556.596 0.902655 4.30744 0
M  V30 5968 H 553.715 0.288066 0.678371 0
M  V30 5969 H 556.357 1.32479 1.36195 0
M  V30 5970 H 554.507 0.834806 3.79425 0
M  V30 5971 H 556.179 3.36511 3.15528 0
M  V30 5972 H 554.422 3.21157 2.91617 0
M  V30 5973 H 555.093 3.12852 4.54783 0
M  V30 5974 H 557.569 1.29535 3.95424 0
M  V30 5975 H 556.445 1.28111 5.3374 0
M  V30 5976 H 556.706 -0.191951 4.41683 0
M  V30 5977 N 555.766 -1.3263 0.851289 0
M  V30 5978 C 556.698 -2.27824 0.250757 0
M  V30 5979 C 557.711 -1.52285 -0.575598 0
M  V30 5980 O 558.9 -1.73946 -0.400638 0
M  V30 5981 C 556 -3.3232 -0.664571 0
M  V30 5982 C 555.173 -4.37221 0.125187 0
M  V30 5983 C 554.232 -5.21314 -0.715385 0
M  V30 5984 O 553.258 -5.69002 -0.150111 0
M  V30 5985 N 554.46 -5.43823 -2.03069 0
M  V30 5986 H 557.225 -2.79997 1.06873 0
M  V30 5987 H 554.786 -1.45455 0.710943 0
M  V30 5988 H 556.778 -3.85486 -1.23216 0
M  V30 5989 H 555.348 -2.80331 -1.38323 0
M  V30 5990 H 554.568 -3.84384 0.874199 0
M  V30 5991 H 555.856 -5.04399 0.667774 0
M  V30 5992 H 555.254 -5.06803 -2.51332 0
M  V30 5993 H 553.811 -5.99998 -2.54648 0
M  V30 5994 N 557.244 -0.608902 -1.45362 0
M  V30 5995 C 558.176 0.147318 -2.28726 0
M  V30 5996 C 559.189 0.830468 -1.40025 0
M  V30 5997 O 560.378 0.695636 -1.64387 0
M  V30 5998 C 557.478 1.22968 -3.15804 0
M  V30 5999 C 556.651 0.633391 -4.3279 0
M  V30 6000 C 555.71 1.60682 -5.01067 0
M  V30 6001 O 554.736 1.13261 -5.57818 0
M  V30 6002 N 555.938 2.94123 -5.00472 0
M  V30 6003 H 558.703 -0.568014 -2.94268 0
M  V30 6004 H 556.264 -0.448479 -1.55564 0
M  V30 6005 H 558.256 1.88072 -3.58345 0
M  V30 6006 H 556.826 1.84752 -2.52162 0
M  V30 6007 H 556.046 -0.195762 -3.93714 0
M  V30 6008 H 557.334 0.215255 -5.08344 0
M  V30 6009 H 556.732 3.3525 -4.55657 0
M  V30 6010 H 555.289 3.54646 -5.46872 0
M  V30 6011 N 558.722 1.53707 -0.348139 0
M  V30 6012 C 559.969 2.00988 0.246966 0
M  V30 6013 C 560.297 1.23586 1.50189 0
M  V30 6014 O 559.552 0.312817 1.93184 0
M  V30 6015 C 559.851 3.52292 0.602061 0
M  V30 6016 C 559.517 4.47453 -0.556509 0
M  V30 6017 C 558.179 4.73188 -0.874446 0
M  V30 6018 C 560.531 5.03851 -1.33354 0
M  V30 6019 C 557.859 5.52577 -1.9717 0
M  V30 6020 C 560.211 5.84437 -2.42108 0
M  V30 6021 C 558.875 6.08465 -2.74456 0
M  V30 6022 H 558.145 0.735469 0.0903712 0
M  V30 6023 H 560.792 1.85464 -0.477001 0
M  V30 6024 H 559.097 3.65672 1.40681 0
M  V30 6025 H 560.794 3.86337 1.07447 0
M  V30 6026 H 557.384 4.27558 -0.298652 0
M  V30 6027 H 561.568 4.8393 -1.10117 0
M  V30 6028 H 556.824 5.69418 -2.22651 0
M  V30 6029 H 560.998 6.27151 -3.02745 0
M  V30 6030 H 558.625 6.69768 -3.59604 0
M  V30 6031 N 560.2 0.0768682 1.57412 0
M  V30 6032 C 561.147 -0.888577 2.13009 0
M  V30 6033 C 562.117 -1.29198 1.0439 0
M  V30 6034 O 563.302 -1.37694 1.3208 0
M  V30 6035 C 560.442 -2.14899 2.70023 0
M  V30 6036 C 559.555 -1.79777 3.92816 0
M  V30 6037 C 558.69 -3.00467 4.38056 0
M  V30 6038 C 557.729 -2.61385 5.53484 0
M  V30 6039 N 556.866 -3.74851 5.93659 0
M  V30 6040 H 561.706 -0.407593 2.95199 0
M  V30 6041 H 559.243 -0.189534 1.45874 0
M  V30 6042 H 561.201 -2.88688 3.0119 0
M  V30 6043 H 559.831 -2.60529 1.9059 0
M  V30 6044 H 558.883 -0.960301 3.68079 0
M  V30 6045 H 560.195 -1.47027 4.76639 0
M  V30 6046 H 559.349 -3.82529 4.7091 0
M  V30 6047 H 558.088 -3.36413 3.53097 0
M  V30 6048 H 557.093 -1.77746 5.20275 0
M  V30 6049 H 558.318 -2.26603 6.40178 0
M  V30 6050 H 556.264 -4.1055 5.11649 0
M  V30 6051 H 556.181 -3.45887 6.72234 0
M  V30 6052 H 557.449 -4.57477 6.31138 0
M  V30 6053 N 561.678 -1.56367 -0.196722 0
M  V30 6054 C 562.588 -1.97617 -1.2643 0
M  V30 6055 C 563.604 -0.883598 -1.49895 0
M  V30 6056 O 564.78 -1.18921 -1.62541 0
M  V30 6057 C 561.845 -2.30595 -2.58895 0
M  V30 6058 C 560.906 -3.53551 -2.43516 0
M  V30 6059 C 560.139 -3.84946 -3.69665 0
M  V30 6060 O 560.362 -3.17655 -4.73763 0
M  V30 6061 O 559.296 -4.78379 -3.65291 0
M  V30 6062 H 563.122 -2.88648 -0.944233 0
M  V30 6063 H 560.707 -1.43901 -0.401592 0
M  V30 6064 H 562.589 -2.52889 -3.37083 0
M  V30 6065 H 561.264 -1.42732 -2.90533 0
M  V30 6066 H 560.171 -3.36507 -1.63445 0
M  V30 6067 H 561.504 -4.41875 -2.16812 0
M  V30 6068 N 563.156 0.464375 -1.50603 0
M  V30 6069 C 564.066 1.58723 -1.72754 0
M  V30 6070 C 565.082 1.62925 -0.610844 0
M  V30 6071 O 566.258 1.8067 -0.889963 0
M  V30 6072 C 563.323 2.94897 -1.82309 0
M  V30 6073 C 562.384 3.0103 -3.06071 0
M  V30 6074 C 561.617 4.30708 -3.1516 0
M  V30 6075 O 561.84 5.2159 -2.30868 0
M  V30 6076 O 560.774 4.42571 -4.0794 0
M  V30 6077 H 564.6 1.42954 -2.67951 0
M  V30 6078 H 562.185 0.644579 -1.3478 0
M  V30 6079 H 564.067 3.75764 -1.90735 0
M  V30 6080 H 562.742 3.10851 -0.902967 0
M  V30 6081 H 561.649 2.19217 -3.03142 0
M  V30 6082 H 562.982 2.90014 -3.97684 0
M  V30 6083 N 564.634 1.40294 0.718013 0
M  V30 6084 C 565.88 1.38645 1.48005 0
M  V30 6085 C 566.213 -0.0121202 1.94196 0
M  V30 6086 O 565.488 -0.980309 1.67989 0
M  V30 6087 C 565.771 2.37379 2.70782 0
M  V30 6088 C 565.624 3.8625 2.30501 0
M  V30 6089 C 566.943 2.33685 3.72933 0
M  V30 6090 H 564.062 0.504928 0.536858 0
M  V30 6091 H 566.704 1.71411 0.819649 0
M  V30 6092 H 564.854 2.09568 3.27129 0
M  V30 6093 H 566.526 4.24879 1.79655 0
M  V30 6094 H 564.769 4.02202 1.6253 0
M  V30 6095 H 565.44 4.50847 3.18498 0
M  V30 6096 H 567.916 2.58314 3.2621 0
M  V30 6097 H 566.792 3.0482 4.56482 0
M  V30 6098 H 567.053 1.34765 4.21059 0
M  V30 6099 N 566.112 -0.949982 1.2575 0
M  V30 6100 C 567.022 -2.08109 1.08295 0
M  V30 6101 C 568.038 -1.7399 0.0188181 0
M  V30 6102 O 569.214 -2.00187 0.220724 0
M  V30 6103 C 566.279 -3.39383 0.708534 0
M  V30 6104 C 565.34 -3.8734 1.85111 0
M  V30 6105 C 564.573 -5.12349 1.49447 0
M  V30 6106 O 564.796 -5.6905 0.392212 0
M  V30 6107 O 563.73 -5.5513 2.32624 0
M  V30 6108 H 567.556 -2.25738 2.03165 0
M  V30 6109 H 565.141 -1.06545 1.04731 0
M  V30 6110 H 567.023 -4.18277 0.512061 0
M  V30 6111 H 565.698 -3.23013 -0.210854 0
M  V30 6112 H 564.605 -3.09429 2.10248 0
M  V30 6113 H 565.938 -4.08216 2.74991 0
M  V30 6114 N 567.59 -1.07411 -1.15328 0
M  V30 6115 C 568.537 -0.694995 -2.20087 0
M  V30 6116 C 569.507 0.313904 -1.63107 0
M  V30 6117 O 570.692 0.200216 -1.89747 0
M  V30 6118 C 567.832 -0.0996218 -3.44956 0
M  V30 6119 C 566.945 -1.16007 -4.16133 0
M  V30 6120 C 566.08 -0.529636 -5.28553 0
M  V30 6121 C 565.119 -1.57283 -5.91548 0
M  V30 6122 N 564.256 -0.964932 -6.95438 0
M  V30 6123 H 569.096 -1.5927 -2.51867 0
M  V30 6124 H 566.633 -0.796115 -1.23695 0
M  V30 6125 H 568.591 0.263197 -4.16369 0
M  V30 6126 H 567.221 0.761435 -3.13691 0
M  V30 6127 H 566.273 -1.64045 -3.4321 0
M  V30 6128 H 567.585 -1.95101 -4.59061 0
M  V30 6129 H 566.739 -0.114487 -6.06592 0
M  V30 6130 H 565.478 0.29307 -4.86819 0
M  V30 6131 H 564.483 -1.99775 -5.12221 0
M  V30 6132 H 565.708 -2.39783 -6.35359 0
M  V30 6133 H 563.654 -0.16314 -6.55797 0
M  V30 6134 H 563.571 -1.69311 -7.36797 0
M  V30 6135 H 564.839 -0.575305 -7.77374 0
M  V30 6136 N 569.068 1.32177 -0.85831 0
M  V30 6137 C 570.316 1.96735 -0.462568 0
M  V30 6138 C 570.637 1.6824 0.985911 0
M  V30 6139 O 569.907 0.991564 1.68952 0
M  V30 6140 H 568.487 0.727849 -0.168064 0
M  V30 6141 H 571.149 1.61195 -1.09554 0
M  V30 6142 H 570.245 3.06068 -0.610647 0
M  V30 6143 N 570.547 0.616602 1.45037 0
M  V30 6144 C 571.457 -0.0985401 2.34393 0
M  V30 6145 C 572.473 -0.850971 1.51771 0
M  V30 6146 O 573.649 -0.806521 1.84546 0
M  V30 6147 C 570.714 -1.07748 3.29532 0
M  V30 6148 C 569.775 -0.326022 4.2806 0
M  V30 6149 C 569.008 -1.25833 5.18654 0
M  V30 6150 O 569.231 -2.49652 5.12864 0
M  V30 6151 O 568.165 -0.750512 5.97203 0
M  V30 6152 H 571.991 0.636016 2.96966 0
M  V30 6153 H 569.576 0.376832 1.44569 0
M  V30 6154 H 571.458 -1.64107 3.88133 0
M  V30 6155 H 570.133 -1.79291 2.69512 0
M  V30 6156 H 569.04 0.280253 3.73049 0
M  V30 6157 H 570.373 0.349091 4.9096 0
M  V30 6158 N 572.025 -1.5352 0.356285 0
M  V30 6159 C 573.253 -2.05534 -0.237328 0
M  V30 6160 C 573.668 -1.23043 -1.43199 0
M  V30 6161 O 573.025 -0.268821 -1.80509 0
M  V30 6162 C 573.076 -3.55791 -0.639933 0
M  V30 6163 O 572.797 -4.35154 0.507233 0
M  V30 6164 C 574.298 -4.24027 -1.29292 0
M  V30 6165 H 571.518 -0.669585 -0.0435572 0
M  V30 6166 H 574.062 -1.97988 0.511963 0
M  V30 6167 H 572.217 -3.63518 -1.33915 0
M  V30 6168 H 572.631 -5.24178 0.18375 0
M  V30 6169 H 574.105 -5.30509 -1.52527 0
M  V30 6170 H 574.582 -3.77166 -2.25039 0
M  V30 6171 H 575.188 -4.20527 -0.63539 0
M  V30 6172 N 573.503 -0.0852151 -1.57369 0
M  V30 6173 C 574.919 0.271436 -1.57275 0
M  V30 6174 C 575.119 1.69109 -1.09565 0
M  V30 6175 O 574.175 2.40549 -0.767611 0
M  V30 6176 C 575.488 0.0688638 -3.00621 0
M  V30 6177 C 577.036 0.137373 -3.12698 0
M  V30 6178 C 577.511 -0.0370832 -4.57985 0
M  V30 6179 N 579.002 0.0180794 -4.63196 0
M  V30 6180 C 579.737 -0.0922953 -5.73326 0
M  V30 6181 N 579.233 -0.256948 -6.92323 0
M  V30 6182 N 581.026 -0.0342702 -5.6209 0
M  V30 6183 H 573.177 -1.01288 -1.86693 0
M  V30 6184 H 575.44 -0.396138 -0.861266 0
M  V30 6185 H 575.146 -0.911277 -3.39689 0
M  V30 6186 H 575.02 0.815442 -3.6828 0
M  V30 6187 H 577.407 1.10801 -2.73509 0
M  V30 6188 H 577.488 -0.640532 -2.47651 0
M  V30 6189 H 577.132 -1.00455 -4.97867 0
M  V30 6190 H 577.062 0.760392 -5.21081 0
M  V30 6191 H 579.553 0.143202 -3.77629 0
M  V30 6192 H 579.866 -0.332949 -7.72082 0
M  V30 6193 H 578.211 -0.292487 -6.94384 0
M  V30 6194 H 581.402 0.0931605 -4.68007 0
M  V30 6195 H 581.575 -0.12374 -6.47882 0
M  V30 6196 N 574.981 1.5647 0.188427 0
M  V30 6197 C 576.228 1.81013 0.907779 0
M  V30 6198 C 576.556 0.65953 1.82977 0
M  V30 6199 O 575.811 -0.354308 1.92466 0
M  V30 6200 C 576.11 3.11596 1.7505 0
M  V30 6201 C 575.776 4.40145 0.978922 0
M  V30 6202 C 574.438 4.75066 0.765912 0
M  V30 6203 C 576.79 5.19369 0.436498 0
M  V30 6204 C 574.118 5.867 -0.00089868 0
M  V30 6205 C 576.47 6.31805 -0.317136 0
M  V30 6206 C 575.134 6.65303 -0.541103 0
M  V30 6207 H 574.404 0.662373 0.33218 0
M  V30 6208 H 577.051 1.9071 0.173732 0
M  V30 6209 H 575.356 2.97165 2.55343 0
M  V30 6210 H 577.053 3.27793 2.30983 0
M  V30 6211 H 573.643 4.12745 1.15497 0
M  V30 6212 H 577.827 4.92799 0.588449 0
M  V30 6213 H 573.083 6.11122 -0.184329 0
M  V30 6214 H 577.257 6.92406 -0.744788 0
M  V30 6215 H 574.884 7.51646 -1.13718 0
M  V30 6216 N 576.459 -0.456382 1.50847 0
M  V30 6217 C 577.699 -1.21704 1.64218 0
M  V30 6218 C 578.063 -1.88932 0.341859 0
M  V30 6219 O 579.264 -2.66497 0.351137 0
M  V30 6220 C 577.535 -2.22162 2.79962 0
M  V30 6221 S 579.094 -3.0697 3.13552 0
M  V30 6222 H 575.912 -0.412995 0.578754 0
M  V30 6223 H 578.514 -0.511637 1.88686 0
M  V30 6224 H 577.218 -1.71379 3.72904 0
M  V30 6225 H 576.749 -2.9731 2.57624 0
M  V30 6226 H 578.764 -4.23539 2.58513 0
M  V30 6227 N 577.937 -1.40673 -0.710563 0
M  V30 6228 C 578.867 -1.44095 -1.83736 0
M  V30 6229 C 579.848 -0.301286 -1.67411 0
M  V30 6230 O 581.033 -0.510618 -1.87367 0
M  V30 6231 C 578.163 -1.30773 -3.21738 0
M  V30 6232 C 577.117 -2.42395 -3.52745 0
M  V30 6233 C 576.443 -2.14147 -4.89944 0
M  V30 6234 C 577.743 -3.84738 -3.53234 0
M  V30 6235 H 579.437 -2.38396 -1.81129 0
M  V30 6236 H 576.983 -1.14746 -0.870017 0
M  V30 6237 H 578.936 -1.31783 -4.00264 0
M  V30 6238 H 577.66 -0.329507 -3.24934 0
M  V30 6239 H 576.319 -2.40643 -2.76562 0
M  V30 6240 H 575.967 -1.14703 -4.89747 0
M  V30 6241 H 575.667 -2.88934 -5.11655 0
M  V30 6242 H 577.191 -2.16848 -5.70797 0
M  V30 6243 H 578.605 -3.88286 -4.2179 0
M  V30 6244 H 577.002 -4.59085 -3.86473 0
M  V30 6245 H 578.072 -4.13962 -2.52514 0
M  V30 6246 N 579.415 0.9433 -1.26252 0
M  V30 6247 C 580.826 1.50404 -1.10614 0
M  V30 6248 C 581.177 1.93666 0.31429 0
M  V30 6249 O 580.302 1.79709 1.20555 0
M  V30 6250 C 580.897 2.73336 -2.00182 0
M  V30 6251 C 579.456 3.25686 -1.88695 0
M  V30 6252 C 578.603 1.98474 -1.93658 0
M  V30 6253 H 581.554 0.759006 -1.39373 0
M  V30 6254 H 581.575 3.47567 -1.54847 0
M  V30 6255 H 581.087 2.41818 -3.03555 0
M  V30 6256 H 579.188 3.61998 -0.882489 0
M  V30 6257 H 579.301 3.92935 -2.74115 0
M  V30 6258 H 577.665 2.14278 -1.37684 0
M  V30 6259 H 578.448 1.6929 -2.98657 0
M  V30 6260 N 580.893 1.08022 1.14757 0
M  V30 6261 C 582.123 0.827646 1.89298 0
M  V30 6262 C 582.531 -0.623506 1.78631 0
M  V30 6263 O 581.874 -1.43991 1.14071 0
M  V30 6264 C 581.936 1.16553 3.40082 0
M  V30 6265 C 581.6 2.61866 3.74533 0
M  V30 6266 C 582.597 3.60116 3.74984 0
M  V30 6267 C 580.282 2.97619 4.04633 0
M  V30 6268 C 582.276 4.92151 4.05051 0
M  V30 6269 C 579.963 4.2985 4.34364 0
M  V30 6270 C 580.961 5.26926 4.34555 0
M  V30 6271 O 580.649 6.5678 4.63568 0
M  V30 6272 H 580.381 0.298396 0.606577 0
M  V30 6273 H 582.935 1.44187 1.46285 0
M  V30 6274 H 581.165 0.494296 3.83528 0
M  V30 6275 H 582.854 0.894407 3.95923 0
M  V30 6276 H 583.62 3.33837 3.51821 0
M  V30 6277 H 579.499 2.22702 4.03639 0
M  V30 6278 H 583.043 5.67915 4.05115 0
M  V30 6279 H 578.94 4.55879 4.56995 0
M  V30 6280 H 579.708 6.62035 4.81303 0
M  V30 6281 N 582.371 -1.3172 0.865308 0
M  V30 6282 C 583.787 -1.4958 0.556596 0
M  V30 6283 C 583.987 -1.79763 -0.910353 0
M  V30 6284 O 583.043 -1.87351 -1.6928 0
M  V30 6285 C 584.356 -2.63277 1.45279 0
M  V30 6286 C 585.904 -2.77161 1.45433 0
M  V30 6287 C 586.379 -3.93949 2.33598 0
M  V30 6288 N 587.87 -4.01228 2.31453 0
M  V30 6289 C 588.605 -4.90855 2.96393 0
M  V30 6290 N 588.101 -5.85416 3.70486 0
M  V30 6291 N 589.894 -4.84063 2.85726 0
M  V30 6292 H 582.045 -1.10396 1.81456 0
M  V30 6293 H 584.308 -0.54507 0.775631 0
M  V30 6294 H 584.014 -2.47734 2.49641 0
M  V30 6295 H 583.888 -3.59309 1.14792 0
M  V30 6296 H 586.275 -2.9212 0.41831 0
M  V30 6297 H 586.356 -1.8181 1.79941 0
M  V30 6298 H 586 -3.79748 3.37274 0
M  V30 6299 H 585.93 -4.88598 1.96417 0
M  V30 6300 H 588.421 -3.3357 1.77593 0
M  V30 6301 H 588.734 -6.50525 4.17178 0
M  V30 6302 H 587.079 -5.85409 3.74594 0
M  V30 6303 H 590.27 -4.09163 2.27384 0
M  V30 6304 H 590.443 -5.53708 3.36617 0
M  V30 6305 N 583.85 -0.624285 -1.44708 0
M  V30 6306 C 584.783 0.133905 -2.27807 0
M  V30 6307 C 585.76 0.857794 -1.38133 0
M  V30 6308 O 586.945 0.863277 -1.6757 0
M  V30 6309 C 584.072 1.19541 -3.16903 0
M  V30 6310 C 583.118 0.572813 -4.22636 0
M  V30 6311 S 583.951 -0.631953 -5.31758 0
M  V30 6312 C 585.106 0.429733 -6.24423 0
M  V30 6313 H 585.34 -0.571072 -2.91764 0
M  V30 6314 H 582.873 -0.412261 -1.48794 0
M  V30 6315 H 584.831 1.80293 -3.68788 0
M  V30 6316 H 583.492 1.87255 -2.5218 0
M  V30 6317 H 582.685 1.37205 -4.84965 0
M  V30 6318 H 582.287 0.0400641 -3.73979 0
M  V30 6319 H 584.579 1.30421 -6.64828 0
M  V30 6320 H 585.522 -0.157804 -7.07924 0
M  V30 6321 H 585.93 0.75256 -5.59461 0
M  V30 6322 N 585.328 1.53329 -0.364422 0
M  V30 6323 C 586.605 1.93557 0.281962 0
M  V30 6324 C 586.985 1.29786 1.6649 0
M  V30 6325 O 586.333 0.456512 2.23893 0
M  V30 6326 C 586.543 3.47405 0.333331 0
M  V30 6327 C 587.891 4.20699 0.574231 0
M  V30 6328 O 588.915 3.53779 0.414588 0
M  V30 6329 O 587.774 5.39287 0.885002 0
M  V30 6330 H 584.868 0.809573 0.168881 0
M  V30 6331 H 587.414 1.64494 -0.417121 0
M  V30 6332 H 586.186 3.86091 -0.636326 0
M  V30 6333 H 585.809 3.82697 1.07836 0
M  V30 6334 N 586.806 0.0935595 1.57322 0
M  V30 6335 C 588.052 -0.571355 1.94585 0
M  V30 6336 C 588.385 -1.67929 0.975366 0
M  V30 6337 O 587.66 -1.94498 0.00816206 0
M  V30 6338 C 587.943 -1.12797 3.41978 0
M  V30 6339 C 587.796 -0.0251881 4.49793 0
M  V30 6340 C 589.115 -2.02682 3.90651 0
M  V30 6341 H 586.234 -0.206223 0.70756 0
M  V30 6342 H 588.876 0.163956 1.89291 0
M  V30 6343 H 587.026 -1.75461 3.4662 0
M  V30 6344 H 588.698 0.608979 4.57263 0
M  V30 6345 H 586.941 0.641399 4.29032 0
M  V30 6346 H 587.612 -0.455433 5.50118 0
M  V30 6347 H 590.088 -1.49925 3.88152 0
M  V30 6348 H 588.964 -2.38555 4.94351 0
M  V30 6349 H 589.225 -2.94362 3.29854 0
M  V30 6350 N 588.284 -1.56567 -0.180126 0
M  V30 6351 C 589.194 -1.98947 -1.24327 0
M  V30 6352 C 590.21 -0.899446 -1.4895 0
M  V30 6353 O 591.386 -1.20639 -1.61271 0
M  V30 6354 C 588.451 -2.33328 -2.56435 0
M  V30 6355 C 587.512 -3.56114 -2.39752 0
M  V30 6356 C 586.745 -3.88845 -3.65561 0
M  V30 6357 O 586.968 -3.22662 -4.70368 0
M  V30 6358 O 585.902 -4.82226 -3.60197 0
M  V30 6359 H 589.728 -2.89634 -0.913565 0
M  V30 6360 H 587.313 -1.44319 -0.386306 0
M  V30 6361 H 589.195 -2.5645 -3.34382 0
M  V30 6362 H 587.87 -1.45806 -2.89002 0
M  V30 6363 H 586.777 -3.38221 -1.59866 0
M  V30 6364 H 588.11 -4.4415 -2.12113 0
M  V30 6365 N 589.762 0.448376 -1.51087 0
M  V30 6366 C 590.709 1.54341 -1.71603 0
M  V30 6367 C 591.679 1.56463 -0.557536 0
M  V30 6368 O 592.864 1.73644 -0.79072 0
M  V30 6369 C 590.004 2.92148 -1.83695 0
M  V30 6370 C 589.117 2.99639 -3.11192 0
M  V30 6371 C 588.252 4.285 -3.13944 0
M  V30 6372 C 587.291 4.29819 -4.35801 0
M  V30 6373 N 586.428 5.50186 -4.36164 0
M  V30 6374 H 591.268 1.36151 -2.65079 0
M  V30 6375 H 588.805 0.661585 -1.31383 0
M  V30 6376 H 590.763 3.72093 -1.88687 0
M  V30 6377 H 589.393 3.0892 -0.936374 0
M  V30 6378 H 588.445 2.12425 -3.15562 0
M  V30 6379 H 589.757 2.96474 -4.01129 0
M  V30 6380 H 588.911 5.16811 -3.17791 0
M  V30 6381 H 587.65 4.34307 -2.21876 0
M  V30 6382 H 586.655 3.39902 -4.32142 0
M  V30 6383 H 587.88 4.25685 -5.29121 0
M  V30 6384 H 585.826 5.56735 -3.46961 0
M  V30 6385 H 585.743 5.48856 -5.19897 0
M  V30 6386 H 587.011 6.40559 -4.44189 0
M  V30 6387 N 591.24 1.41047 0.703093 0
M  V30 6388 C 592.488 1.39723 1.4602 0
M  V30 6389 C 592.809 0.00461257 1.94999 0
M  V30 6390 O 592.079 -0.952292 1.71196 0
M  V30 6391 H 590.659 0.514281 0.541779 0
M  V30 6392 H 593.321 1.76217 0.832678 0
M  V30 6393 H 592.417 2.07982 2.32701 0
M  V30 6394 N 592.718 -0.936591 1.26751 0
M  V30 6395 C 593.665 -2.03597 1.08706 0
M  V30 6396 C 594.635 -1.66097 -0.00926542 0
M  V30 6397 O 595.82 -1.90199 0.151377 0
M  V30 6398 C 592.96 -3.3727 0.73094 0
M  V30 6399 C 592.073 -3.87778 1.90399 0
M  V30 6400 C 591.208 -5.09859 1.49056 0
M  V30 6401 C 590.247 -5.5264 2.63164 0
M  V30 6402 N 589.384 -6.65921 2.22471 0
M  V30 6403 H 594.224 -2.18364 2.02784 0
M  V30 6404 H 591.761 -1.06985 1.00958 0
M  V30 6405 H 593.719 -4.14128 0.505328 0
M  V30 6406 H 592.349 -3.22337 -0.172868 0
M  V30 6407 H 591.401 -3.07279 2.2424 0
M  V30 6408 H 592.713 -4.15464 2.76028 0
M  V30 6409 H 591.867 -5.9419 1.22567 0
M  V30 6410 H 590.606 -4.8393 0.60524 0
M  V30 6411 H 589.611 -4.66863 2.90377 0
M  V30 6412 H 590.836 -5.80568 3.52303 0
M  V30 6413 H 588.782 -6.41667 1.36379 0
M  V30 6414 H 588.699 -6.93216 3.01641 0
M  V30 6415 H 589.967 -7.53616 1.99205 0
M  V30 6416 N 594.196 -1.08629 -1.14182 0
M  V30 6417 C 595.445 -0.812271 -1.84621 0
M  V30 6418 C 595.758 0.664313 -1.83973 0
M  V30 6419 O 596.964 1.05357 -2.50224 0
M  V30 6420 C 595.42 -1.4031 -3.31423 0
M  V30 6421 C 595.028 -2.91164 -3.40481 0
M  V30 6422 C 596.772 -1.20767 -4.06959 0
M  V30 6423 C 594.679 -3.43373 -4.81507 0
M  V30 6424 H 593.609 -0.30019 -0.691666 0
M  V30 6425 H 596.26 -1.30798 -1.28701 0
M  V30 6426 H 594.642 -0.835096 -3.87094 0
M  V30 6427 H 595.816 -3.5412 -2.94848 0
M  V30 6428 H 594.131 -3.09646 -2.78403 0
M  V30 6429 H 596.728 -1.57237 -5.11058 0
M  V30 6430 H 597.071 -0.147664 -4.16038 0
M  V30 6431 H 597.604 -1.74274 -3.57594 0
M  V30 6432 H 594.343 -4.48958 -4.77616 0
M  V30 6433 H 593.863 -2.85176 -5.27669 0
M  V30 6434 H 595.542 -3.40095 -5.50404 0
M  V30 6435 N 595.674 1.31259 -0.872281 0
M  V30 6436 C 596.584 2.32221 -0.333255 0
M  V30 6437 C 597.6 1.6481 0.558013 0
M  V30 6438 O 598.776 1.96212 0.454175 0
M  V30 6439 C 595.841 3.43708 0.454479 0
M  V30 6440 C 594.902 4.26774 -0.465024 0
M  V30 6441 C 594.135 5.32937 0.28521 0
M  V30 6442 O 594.358 5.49968 1.513 0
M  V30 6443 O 593.292 6.00834 -0.358126 0
M  V30 6444 H 597.118 2.80252 -1.17016 0
M  V30 6445 H 594.703 1.352 -0.635724 0
M  V30 6446 H 596.585 4.11656 0.900963 0
M  V30 6447 H 595.26 2.97836 1.26789 0
M  V30 6448 H 594.167 3.61571 -0.960055 0
M  V30 6449 H 595.5 4.76217 -1.2441 0
M  V30 6450 N 597.152 0.631951 1.44375 0
M  V30 6451 C 598.429 0.067646 1.95483 0
M  V30 6452 C 598.809 -1.40683 1.57389 0
M  V30 6453 O 598.157 -2.12167 0.848375 0
M  V30 6454 C 598.367 0.291392 3.47781 0
M  V30 6455 C 599.715 0.185028 4.24197 0
M  V30 6456 O 600.739 0.222803 3.55503 0
M  V30 6457 O 599.598 0.0906642 5.46425 0
M  V30 6458 H 596.692 -0.0218379 0.826712 0
M  V30 6459 H 599.238 0.703711 1.54421 0
M  V30 6460 H 598.01 1.31449 3.68561 0
M  V30 6461 H 597.633 -0.378772 3.95792 0
M  V30 6462 N 598.631 -1.53133 0.372548 0
M  V30 6463 C 599.859 -2.05774 -0.215515 0
M  V30 6464 C 600.274 -1.24555 -1.41886 0
M  V30 6465 O 599.631 -0.287951 -1.80214 0
M  V30 6466 C 599.682 -3.5645 -0.602161 0
M  V30 6467 O 599.403 -4.34591 0.553359 0
M  V30 6468 C 600.904 -4.25374 -1.24787 0
M  V30 6469 H 598.124 -0.670009 -0.0364529 0
M  V30 6470 H 600.668 -1.97434 0.532934 0
M  V30 6471 H 598.823 -3.64918 -1.30052 0
M  V30 6472 H 599.237 -5.23954 0.239336 0
M  V30 6473 H 600.711 -5.32097 -1.46891 0
M  V30 6474 H 601.188 -3.79531 -2.21026 0
M  V30 6475 H 601.794 -4.21177 -0.590752 0
M  V30 6476 N 600.109 -0.101901 -1.5727 0
M  V30 6477 C 601.357 0.559091 -1.94213 0
M  V30 6478 C 601.678 1.68297 -0.984948 0
M  V30 6479 O 600.948 1.95863 -0.0381975 0
M  V30 6480 H 599.528 0.20952 -0.717015 0
M  V30 6481 H 602.19 -0.166831 -1.94185 0
M  V30 6482 H 601.286 0.96485 -2.96811 0
M  V30 6483 N 601.587 1.56661 0.17182 0
M  V30 6484 C 602.835 1.81606 0.886774 0
M  V30 6485 C 603.156 0.678818 1.82803 0
M  V30 6486 O 602.426 -0.301354 1.93568 0
M  V30 6487 H 601.006 0.669934 0.330451 0
M  V30 6488 H 603.668 1.94142 0.171757 0
M  V30 6489 H 602.764 2.75634 1.46398 0
M  V30 6490 N 603.065 -0.440357 1.51323 0
M  V30 6491 C 604.29 -1.21716 1.67928 0
M  V30 6492 C 604.715 -1.84328 0.374826 0
M  V30 6493 O 604.073 -1.68675 -0.664706 0
M  V30 6494 C 604.121 -2.27914 2.79442 0
M  V30 6495 O 603.225 -3.33325 2.42834 0
M  V30 6496 H 602.566 -0.35674 0.560029 0
M  V30 6497 H 605.096 -0.520417 1.97871 0
M  V30 6498 H 605.106 -2.72746 3.03436 0
M  V30 6499 H 603.781 -1.8172 3.741 0
M  V30 6500 H 602.358 -2.9399 2.294 0
M  V30 6501 N 604.543 -1.41418 -0.695603 0
M  V30 6502 C 605.791 -1.40496 -1.45277 0
M  V30 6503 C 606.112 -0.0149538 -1.94994 0
M  V30 6504 O 605.382 0.9432 -1.71699 0
M  V30 6505 H 603.962 -0.517147 -0.539044 0
M  V30 6506 H 606.624 -1.76656 -0.823321 0
M  V30 6507 H 605.72 -2.09214 -2.31595 0
M  V30 6508 N 606.021 0.929856 -1.27246 0
M  V30 6509 C 607.269 1.674 -1.13233 0
M  V30 6510 C 607.59 1.92311 0.322744 0
M  V30 6511 O 606.86 1.52784 1.22612 0
M  V30 6512 H 605.44 0.620411 -0.416052 0
M  V30 6513 H 608.102 1.11663 -1.59741 0
M  V30 6514 H 607.198 2.64308 -1.65975 0
M  V30 6515 N 607.499 1.09233 1.13605 0
M  V30 6516 C 608.724 0.849067 1.89224 0
M  V30 6517 C 609.149 -0.593875 1.78479 0
M  V30 6518 O 608.507 -1.41703 1.13092 0
M  V30 6519 C 608.555 1.28642 3.36873 0
M  V30 6520 O 607.659 0.44363 4.10007 0
M  V30 6521 H 607 0.30767 0.588417 0
M  V30 6522 H 609.53 1.45595 1.43748 0
M  V30 6523 H 609.54 1.27096 3.87699 0
M  V30 6524 H 608.215 2.33729 3.44011 0
M  V30 6525 H 606.792 0.523241 3.69211 0
M  V30 6526 N 608.977 -1.30795 0.87923 0
M  V30 6527 C 610.207 -2.00237 0.50881 0
M  V30 6528 C 610.615 -1.66115 -0.905682 0
M  V30 6529 O 609.958 -0.89138 -1.60624 0
M  V30 6530 C 610.02 -3.54508 0.597003 0
M  V30 6531 C 609.684 -4.12131 1.97477 0
M  V30 6532 C 610.681 -4.28552 2.94346 0
M  V30 6533 C 608.366 -4.47644 2.2786 0
M  V30 6534 C 610.36 -4.79689 4.19735 0
M  V30 6535 C 608.047 -4.98481 3.53496 0
M  V30 6536 C 609.045 -5.14456 4.49248 0
M  V30 6537 O 608.733 -5.64199 5.72656 0
M  V30 6538 H 608.465 -0.647026 0.195788 0
M  V30 6539 H 611.019 -1.67785 1.1848 0
M  V30 6540 H 609.249 -3.86461 -0.135945 0
M  V30 6541 H 610.938 -4.05198 0.238684 0
M  V30 6542 H 611.704 -4.01424 2.72183 0
M  V30 6543 H 607.583 -4.34481 1.54102 0
M  V30 6544 H 611.127 -4.92073 4.9448 0
M  V30 6545 H 607.024 -5.25044 3.75498 0
M  V30 6546 H 607.792 -5.82551 5.74957 0
M  V30 6547 N 610.455 -0.639598 -1.44038 0
M  V30 6548 C 611.68 -0.153117 -2.06834 0
M  V30 6549 C 612.105 1.16676 -1.47541 0
M  V30 6550 O 611.463 1.71769 -0.580093 0
M  V30 6551 C 611.511 -0.0609169 -3.60549 0
M  V30 6552 O 610.615 0.98071 -4.00569 0
M  V30 6553 H 609.956 -0.0886402 -0.658057 0
M  V30 6554 H 612.486 -0.878674 -1.84771 0
M  V30 6555 H 612.496 0.126892 -4.07803 0
M  V30 6556 H 611.171 -1.0245 -4.03084 0
M  V30 6557 H 609.748 0.766789 -3.64931 0
M  V30 6558 N 611.933 1.52934 -0.380664 0
M  V30 6559 C 613.182 2.00651 0.205477 0
M  V30 6560 C 613.495 1.27164 1.48623 0
M  V30 6561 O 614.701 1.65547 2.15189 0
M  V30 6562 C 613.157 3.57479 0.416726 0
M  V30 6563 C 612.765 4.39857 -0.850268 0
M  V30 6564 C 614.509 4.13509 0.959702 0
M  V30 6565 C 612.416 5.88269 -0.607773 0
M  V30 6566 H 611.346 0.749684 0.0805614 0
M  V30 6567 H 613.997 1.76508 -0.501732 0
M  V30 6568 H 612.379 3.77836 1.18557 0
M  V30 6569 H 613.553 4.31269 -1.62307 0
M  V30 6570 H 611.868 3.95005 -1.31756 0
M  V30 6571 H 614.465 5.22039 1.15669 0
M  V30 6572 H 614.808 3.69054 1.92626 0
M  V30 6573 H 615.341 3.9701 0.250645 0
M  V30 6574 H 612.08 6.3703 -1.54509 0
M  V30 6575 H 611.6 5.99667 0.126247 0
M  V30 6576 H 613.279 6.46558 -0.239014 0
M  V30 6577 N 613.412 0.11024 1.57214 0
M  V30 6578 C 614.359 -0.843195 2.14846 0
M  V30 6579 C 615.329 -1.26954 1.07107 0
M  V30 6580 O 616.514 -1.34861 1.34971 0
M  V30 6581 C 613.654 -2.09123 2.74521 0
M  V30 6582 C 612.767 -1.71404 3.96541 0
M  V30 6583 C 611.902 -2.91107 4.44331 0
M  V30 6584 C 610.941 -2.49586 5.58903 0
M  V30 6585 N 610.078 -3.62175 6.01477 0
M  V30 6586 H 614.918 -0.344886 2.95998 0
M  V30 6587 H 612.455 -0.15855 1.46243 0
M  V30 6588 H 614.413 -2.82234 3.07246 0
M  V30 6589 H 613.043 -2.56427 1.96074 0
M  V30 6590 H 612.095 -0.88201 3.70033 0
M  V30 6591 H 613.407 -1.36884 4.7965 0
M  V30 6592 H 612.561 -3.72454 4.78919 0
M  V30 6593 H 611.3 -3.28848 3.60153 0
M  V30 6594 H 610.305 -1.6667 5.23929 0
M  V30 6595 H 611.53 -2.12973 6.4484 0
M  V30 6596 H 609.476 -3.99605 5.20242 0
M  V30 6597 H 609.393 -3.3155 6.79419 0
M  V30 6598 H 610.661 -4.43987 6.407 0
M  V30 6599 N 614.89 -1.56749 -0.16351 0
M  V30 6600 C 616.118 -1.86577 -0.894233 0
M  V30 6601 C 616.533 -0.696543 -1.75481 0
M  V30 6602 O 615.89 0.334161 -1.79415 0
M  V30 6603 C 615.941 -3.15508 -1.76456 0
M  V30 6604 O 615.662 -4.27926 -0.938685 0
M  V30 6605 C 617.163 -3.58737 -2.60428 0
M  V30 6606 H 614.383 -0.618829 -0.259405 0
M  V30 6607 H 616.927 -2.03863 -0.161259 0
M  V30 6608 H 615.082 -3.00025 -2.45079 0
M  V30 6609 H 615.496 -5.01546 -1.53465 0
M  V30 6610 H 616.97 -4.51832 -3.17099 0
M  V30 6611 H 617.447 -2.83229 -3.35675 0
M  V30 6612 H 618.053 -3.76858 -1.97125 0
M  V30 6613 N 616.368 0.432326 -1.51554 0
M  V30 6614 C 617.3 1.54357 -1.6943 0
M  V30 6615 C 618.313 1.52311 -0.574897 0
M  V30 6616 O 619.502 1.56997 -0.849369 0
M  V30 6617 C 616.602 2.93273 -1.69836 0
M  V30 6618 C 615.775 3.19768 -2.98442 0
M  V30 6619 C 614.834 4.38433 -2.90969 0
M  V30 6620 O 613.86 4.36842 -3.64908 0
M  V30 6621 N 615.062 5.42276 -2.07163 0
M  V30 6622 H 617.827 1.39426 -2.65293 0
M  V30 6623 H 615.388 0.621331 -1.49503 0
M  V30 6624 H 617.38 3.70687 -1.62399 0
M  V30 6625 H 615.95 3.01777 -0.815456 0
M  V30 6626 H 615.17 2.30607 -3.19709 0
M  V30 6627 H 616.458 3.343 -3.83563 0
M  V30 6628 H 615.856 5.46407 -1.46477 0
M  V30 6629 H 614.413 6.18524 -2.05601 0
M  V30 6630 N 617.846 1.41785 0.688094 0
M  V30 6631 C 619.093 1.41544 1.44816 0
M  V30 6632 C 619.421 0.0271746 1.94481 0
M  V30 6633 O 618.676 -0.962235 1.7041 0
M  V30 6634 C 618.975 2.37532 2.67046 0
M  V30 6635 C 618.641 3.84209 2.35996 0
M  V30 6636 C 617.303 4.24165 2.27239 0
M  V30 6637 C 619.655 4.76785 2.10536 0
M  V30 6638 C 616.983 5.54695 1.91128 0
M  V30 6639 C 619.335 6.07644 1.75931 0
M  V30 6640 C 617.999 6.46613 1.65675 0
M  V30 6641 H 617.269 0.517945 0.529919 0
M  V30 6642 H 619.916 1.74635 0.785797 0
M  V30 6643 H 618.221 1.9772 3.38251 0
M  V30 6644 H 619.918 2.34615 3.25203 0
M  V30 6645 H 616.508 3.52567 2.4371 0
M  V30 6646 H 620.692 4.46714 2.16242 0
M  V30 6647 H 615.948 5.83762 1.81746 0
M  V30 6648 H 620.122 6.78874 1.55252 0
M  V30 6649 H 617.749 7.47668 1.37463 0
M  V30 6650 N 619.324 -0.923095 1.27737 0
M  V30 6651 C 620.272 -2.04567 1.10703 0
M  V30 6652 C 621.266 -1.69375 0.0288445 0
M  V30 6653 O 622.472 -1.79027 0.186913 0
M  V30 6654 H 618.847 -0.670109 0.34126 0
M  V30 6655 H 620.818 -2.1608 2.05796 0
M  V30 6656 C 619.567 -3.38934 0.775837 0
M  V30 6657 H 618.89 -3.66501 1.59741 0
M  V30 6658 H 620.33 -4.18239 0.696548 0
M  V30 6659 C 618.789 -3.32863 -0.520012 0
M  V30 6660 O 619.319 -3.70462 -1.55308 0
M  V30 6661 N 617.525 -2.85958 -0.51732 0
M  V30 6662 H 617.072 -2.55557 0.32379 0
M  V30 6663 H 617.03 -2.82279 -1.38441 0
M  V30 6664 N 620.802 -1.09834 -1.13024 0
M  V30 6665 C 622.027 -0.85909 -1.88771 0
M  V30 6666 C 622.452 0.584402 -1.78791 0
M  V30 6667 O 621.81 1.41101 -1.13842 0
M  V30 6668 C 621.858 -1.30427 -3.36186 0
M  V30 6669 O 620.962 -0.465368 -4.09766 0
M  V30 6670 H 620.303 -0.310786 -0.586778 0
M  V30 6671 H 622.833 -1.46355 -1.42973 0
M  V30 6672 H 622.843 -1.2915 -3.8702 0
M  V30 6673 H 621.518 -2.3555 -3.42767 0
M  V30 6674 H 620.095 -0.542814 -3.68928 0
M  V30 6675 N 622.28 1.30327 -0.886154 0
M  V30 6676 C 623.19 2.31854 -0.357866 0
M  V30 6677 C 624.206 1.65392 0.540502 0
M  V30 6678 O 625.382 1.96683 0.433339 0
M  V30 6679 C 622.447 3.44171 0.417999 0
M  V30 6680 C 621.508 4.26257 -0.510263 0
M  V30 6681 C 620.741 5.3321 0.228669 0
M  V30 6682 O 620.964 5.51542 1.45458 0
M  V30 6683 O 619.898 6.0042 -0.421832 0
M  V30 6684 H 623.724 2.78995 -1.19982 0
M  V30 6685 H 621.309 1.34518 -0.650028 0
M  V30 6686 H 623.191 4.12588 0.857251 0
M  V30 6687 H 621.866 2.99164 1.23623 0
M  V30 6688 H 620.773 3.60533 -0.99835 0
M  V30 6689 H 622.106 4.74871 -1.29454 0
M  V30 6690 N 623.758 0.647228 1.43697 0
M  V30 6691 C 624.668 -0.0487997 2.34549 0
M  V30 6692 C 625.684 -0.818586 1.53542 0
M  V30 6693 O 626.86 -0.767195 1.86215 0
M  V30 6694 C 623.925 -1.00734 3.31743 0
M  V30 6695 C 622.986 -0.23515 4.28655 0
M  V30 6696 C 622.219 -1.14803 5.21206 0
M  V30 6697 O 622.442 -2.38717 5.18045 0
M  V30 6698 O 621.376 -0.623667 5.9866 0
M  V30 6699 H 625.202 0.698863 2.9555 0
M  V30 6700 H 622.787 0.407412 1.43738 0
M  V30 6701 H 624.669 -1.55837 3.91526 0
M  V30 6702 H 623.344 -1.73534 2.73254 0
M  V30 6703 H 622.251 0.359319 3.7237 0
M  V30 6704 H 623.584 0.453152 4.9011 0
M  V30 6705 N 625.236 -1.5273 0.388769 0
M  V30 6706 C 626.168 -2.24081 -0.481704 0
M  V30 6707 C 627.181 -1.26307 -1.02715 0
M  V30 6708 O 628.37 -1.52386 -0.929565 0
M  V30 6709 C 625.47 -2.94315 -1.68024 0
M  V30 6710 C 624.643 -4.18791 -1.26226 0
M  V30 6711 C 623.702 -4.72028 -2.32542 0
M  V30 6712 O 622.728 -5.35129 -1.93972 0
M  V30 6713 N 623.93 -4.51838 -3.64448 0
M  V30 6714 H 626.695 -2.9942 0.129591 0
M  V30 6715 H 624.256 -1.60465 0.2151 0
M  V30 6716 H 626.248 -3.26831 -2.38671 0
M  V30 6717 H 624.818 -2.22287 -2.19789 0
M  V30 6718 H 624.038 -3.92318 -0.384703 0
M  V30 6719 H 625.326 -4.99668 -0.959647 0
M  V30 6720 H 624.724 -4.01468 -3.98547 0
M  V30 6721 H 623.281 -4.88845 -4.31131 0
M  V30 6722 N 626.714 -0.118576 -1.57153 0
M  V30 6723 C 627.96 0.534078 -1.96263 0
M  V30 6724 C 628.315 1.64316 -1.0009 0
M  V30 6725 O 627.608 1.91575 -0.0308582 0
M  V30 6726 C 627.802 1.11303 -3.39627 0
M  V30 6727 C 627.631 0.0615624 -4.49658 0
M  V30 6728 C 626.401 -0.370103 -5.03943 0
M  V30 6729 C 628.599 -0.719249 -5.09246 0
M  V30 6730 N 626.581 -1.40738 -5.9755 0
M  V30 6731 C 627.952 -1.60774 -5.98792 0
M  V30 6732 C 630.007 -0.770183 -4.91907 0
M  V30 6733 C 628.71 -2.54272 -6.72858 0
M  V30 6734 C 630.736 -1.69288 -5.66653 0
M  V30 6735 C 630.098 -2.56894 -6.55885 0
M  V30 6736 H 626.197 0.165072 -0.764379 0
M  V30 6737 H 628.781 -0.206596 -1.93601 0
M  V30 6738 H 626.952 1.82342 -3.42937 0
M  V30 6739 H 628.684 1.72996 -3.65861 0
M  V30 6740 H 625.439 0.0222121 -4.73595 0
M  V30 6741 H 625.863 -1.92493 -6.49057 0
M  V30 6742 H 630.505 -0.106999 -4.22665 0
M  V30 6743 H 628.223 -3.21605 -7.41347 0
M  V30 6744 H 631.809 -1.73772 -5.55243 0
M  V30 6745 H 630.689 -3.27131 -7.1271 0
M  V30 6746 N 628.193 1.56834 0.155195 0
M  V30 6747 C 629.421 1.87049 0.884326 0
M  V30 6748 C 629.836 0.705839 1.7511 0
M  V30 6749 O 629.193 -0.324641 1.79589 0
M  V30 6750 C 629.244 3.1644 1.74781 0
M  V30 6751 O 628.965 4.28417 0.915978 0
M  V30 6752 C 630.466 3.60113 2.58522 0
M  V30 6753 H 627.686 0.620196 0.25612 0
M  V30 6754 H 630.23 2.03946 0.150445 0
M  V30 6755 H 628.385 3.01321 2.43484 0
M  V30 6756 H 628.799 5.02353 1.50803 0
M  V30 6757 H 630.273 4.53508 3.14698 0
M  V30 6758 H 630.75 2.85005 3.34169 0
M  V30 6759 H 631.356 3.77898 1.95124 0
M  V30 6760 N 629.671 -0.424282 1.51781 0
M  V30 6761 C 630.618 -1.51591 1.74037 0
M  V30 6762 C 631.588 -1.55556 0.582358 0
M  V30 6763 O 632.773 -1.72364 0.818245 0
M  V30 6764 C 629.913 -2.89188 1.8832 0
M  V30 6765 C 629.026 -2.9465 3.1592 0
M  V30 6766 C 628.161 -4.23452 3.20721 0
M  V30 6767 C 627.2 -4.22831 4.42584 0
M  V30 6768 N 626.337 -5.43178 4.44862 0
M  V30 6769 H 631.177 -1.31917 2.67212 0
M  V30 6770 H 628.714 -0.640599 1.32419 0
M  V30 6771 H 630.672 -3.69044 1.94583 0
M  V30 6772 H 629.302 -3.07392 0.985402 0
M  V30 6773 H 628.354 -2.07378 3.18902 0
M  V30 6774 H 629.666 -2.90055 4.05795 0
M  V30 6775 H 628.82 -5.1169 3.25973 0
M  V30 6776 H 627.559 -4.30722 2.28757 0
M  V30 6777 H 626.564 -3.32984 4.37495 0
M  V30 6778 H 627.789 -4.17213 5.35826 0
M  V30 6779 H 625.735 -5.51145 3.55775 0
M  V30 6780 H 625.652 -5.40515 5.28563 0
M  V30 6781 H 626.92 -6.33412 4.54324 0
M  V30 6782 N 631.149 -1.42148 -0.680565 0
M  V30 6783 C 632.112 -1.4488 -1.77602 0
M  V30 6784 C 633.112 -0.337209 -1.57224 0
M  V30 6785 O 634.302 -0.597778 -1.63622 0
M  V30 6786 C 631.434 -1.27483 -3.16166 0
M  V30 6787 H 632.627 -2.42412 -1.76568 0
M  V30 6788 H 630.18 -1.28511 -0.889645 0
M  V30 6789 H 630.915 -0.30851 -3.22829 0
M  V30 6790 H 630.7 -2.08037 -3.3236 0
M  V30 6791 H 632.19 -1.32265 -3.96101 0
M  V30 6792 N 632.627 0.916307 -1.28225 0
M  V30 6793 C 633.557 2.0352 -1.14464 0
M  V30 6794 C 634.538 1.70045 -0.0430844 0
M  V30 6795 O 635.723 1.92954 -0.219619 0
M  V30 6796 C 632.853 3.37889 -0.803027 0
M  V30 6797 C 631.807 3.85516 -1.85908 0
M  V30 6798 C 631.133 5.1682 -1.37116 0
M  V30 6799 C 632.433 4.07655 -3.26519 0
M  V30 6800 H 634.127 2.1529 -2.08064 0
M  V30 6801 H 631.673 1.03446 -1.00174 0
M  V30 6802 H 633.626 4.15654 -0.693537 0
M  V30 6803 H 632.35 3.26164 0.168674 0
M  V30 6804 H 631.009 3.09953 -1.95767 0
M  V30 6805 H 630.657 5.01497 -0.38859 0
M  V30 6806 H 630.357 5.49657 -2.07728 0
M  V30 6807 H 631.881 5.97143 -1.27484 0
M  V30 6808 H 633.295 4.75953 -3.19596 0
M  V30 6809 H 631.692 4.51818 -3.94943 0
M  V30 6810 H 632.762 3.12553 -3.70727 0
M  V30 6811 N 634.105 1.10431 1.1244 0
M  V30 6812 C 635.052 0.753103 2.18167 0
M  V30 6813 C 636.022 -0.270549 1.63882 0
M  V30 6814 O 637.207 -0.149837 1.90211 0
M  V30 6815 C 634.347 0.191046 3.44571 0
M  V30 6816 C 633.46 1.26999 4.12911 0
M  V30 6817 C 632.595 0.669586 5.26963 0
M  V30 6818 C 631.634 1.72912 5.87169 0
M  V30 6819 N 630.771 1.14898 6.92635 0
M  V30 6820 H 635.611 1.65892 2.47556 0
M  V30 6821 H 633.148 0.828631 1.21541 0
M  V30 6822 H 635.106 -0.152712 4.1692 0
M  V30 6823 H 633.736 -0.677997 3.15599 0
M  V30 6824 H 632.788 1.73087 3.3874 0
M  V30 6825 H 634.1 2.07204 4.53727 0
M  V30 6826 H 633.254 0.275274 6.06075 0
M  V30 6827 H 631.993 -0.163895 4.87425 0
M  V30 6828 H 630.998 2.13286 5.06744 0
M  V30 6829 H 632.223 2.56544 6.28778 0
M  V30 6830 H 630.169 0.336956 6.55134 0
M  V30 6831 H 630.086 1.88786 7.32049 0
M  V30 6832 H 631.354 0.78121 7.75576 0
M  V30 6833 N 635.583 -1.29855 0.893053 0
M  V30 6834 C 636.83 -1.95826 0.515585 0
M  V30 6835 C 637.158 -1.70451 -0.936842 0
M  V30 6836 O 636.413 -1.00657 -1.67829 0
M  V30 6837 C 636.712 -3.49515 0.746588 0
M  V30 6838 C 636.378 -3.94955 2.17535 0
M  V30 6839 C 635.04 -4.07073 2.56603 0
M  V30 6840 C 637.392 -4.18536 3.10607 0
M  V30 6841 C 634.72 -4.40138 3.87938 0
M  V30 6842 C 637.072 -4.53073 4.41484 0
M  V30 6843 C 635.736 -4.634 4.80434 0
M  V30 6844 H 635.006 -0.71658 0.188666 0
M  V30 6845 H 637.653 -1.54574 1.13045 0
M  V30 6846 H 635.958 -3.9177 0.0487551 0
M  V30 6847 H 637.655 -3.98644 0.434009 0
M  V30 6848 H 634.245 -3.86035 1.86212 0
M  V30 6849 H 638.429 -4.08646 2.81641 0
M  V30 6850 H 633.685 -4.46335 4.17846 0
M  V30 6851 H 637.859 -4.70269 5.13634 0
M  V30 6852 H 635.486 -4.88775 5.82239 0
M  V30 6853 N 637.061 -0.65484 -1.43351 0
M  V30 6854 C 637.994 0.0855537 -2.2804 0
M  V30 6855 C 638.972 0.828301 -1.39921 0
M  V30 6856 O 640.156 0.827539 -1.69364 0
M  V30 6857 C 637.283 1.12792 -3.19368 0
M  V30 6858 C 636.329 0.483037 -4.23756 0
M  V30 6859 S 637.162 -0.744605 -5.30298 0
M  V30 6860 C 638.318 0.297187 -6.25194 0
M  V30 6861 H 638.551 -0.632831 -2.90487 0
M  V30 6862 H 636.084 -0.44373 -1.47886 0
M  V30 6863 H 638.042 1.7243 -3.72529 0
M  V30 6864 H 636.703 1.81863 -2.56095 0
M  V30 6865 H 635.896 1.26888 -4.87766 0
M  V30 6866 H 635.498 -0.0392713 -3.73979 0
M  V30 6867 H 637.79 1.1629 -6.67445 0
M  V30 6868 H 638.733 -0.30793 -7.0743 0
M  V30 6869 H 639.141 0.633721 -5.60932 0
M  V30 6870 N 638.539 1.52521 -0.396863 0
M  V30 6871 C 639.469 2.29582 0.425941 0
M  V30 6872 C 640.45 1.33281 1.05689 0
M  V30 6873 O 641.635 1.62181 1.06823 0
M  V30 6874 C 638.765 3.10821 1.54943 0
M  V30 6875 C 637.719 4.15069 1.04413 0
M  V30 6876 C 637.045 4.84578 2.26028 0
M  V30 6877 C 638.345 5.22191 0.106767 0
M  V30 6878 H 640.039 2.98612 -0.217045 0
M  V30 6879 H 637.585 1.43611 -0.105826 0
M  V30 6880 H 639.538 3.63492 2.13193 0
M  V30 6881 H 638.262 2.39538 2.22011 0
M  V30 6882 H 636.921 3.63389 0.484118 0
M  V30 6883 H 636.569 4.09835 2.91623 0
M  V30 6884 H 636.269 5.55043 1.92876 0
M  V30 6885 H 637.793 5.40056 2.84906 0
M  V30 6886 H 639.207 5.70176 0.597685 0
M  V30 6887 H 637.604 5.99947 -0.135352 0
M  V30 6888 H 638.674 4.77531 -0.842134 0
M  V30 6889 N 640.017 0.126909 1.57088 0
M  V30 6890 C 641.245 -0.53667 1.99819 0
M  V30 6891 C 641.66 -1.5972 1.00673 0
M  V30 6892 O 641.017 -1.825 0.000747365 0
M  V30 6893 C 641.068 -1.15563 3.42531 0
M  V30 6894 O 640.789 -0.137483 4.37884 0
M  V30 6895 C 642.29 -1.90176 4.00435 0
M  V30 6896 H 639.51 -0.141443 0.655923 0
M  V30 6897 H 642.054 0.215578 2.03361 0
M  V30 6898 H 640.209 -1.85861 3.39904 0
M  V30 6899 H 640.623 -0.588229 5.21191 0
M  V30 6900 H 642.097 -2.28801 5.02349 0
M  V30 6901 H 642.574 -2.78002 3.40017 0
M  V30 6902 H 643.18 -1.24623 4.06632 0
M  V30 6903 N 641.495 -1.56914 -0.146875 0
M  V30 6904 C 642.443 -1.99224 -1.20053 0
M  V30 6905 C 643.437 -0.884661 -1.44465 0
M  V30 6906 O 644.643 -1.06984 -1.44756 0
M  V30 6907 H 641.018 -0.634191 -0.404112 0
M  V30 6908 H 642.989 -2.86998 -0.816987 0
M  V30 6909 C 641.738 -2.38899 -2.52632 0
M  V30 6910 H 641.061 -3.23677 -2.34677 0
M  V30 6911 H 642.501 -2.72326 -3.24984 0
M  V30 6912 C 640.96 -1.2417 -3.13183 0
M  V30 6913 O 641.49 -0.542503 -3.9802 0
M  V30 6914 N 639.696 -1.00592 -2.72635 0
M  V30 6915 H 639.243 -1.57627 -2.03744 0
M  V30 6916 H 639.201 -0.240174 -3.13481 0
M  V30 6917 N 642.974 0.416227 -1.52004 0
M  V30 6918 C 643.904 1.51365 -1.77795 0
M  V30 6919 C 644.885 1.58059 -0.628601 0
M  V30 6920 O 646.07 1.73447 -0.873478 0
M  V30 6921 C 643.2 2.89256 -1.92219 0
M  V30 6922 C 642.154 2.97415 -3.0778 0
M  V30 6923 C 641.48 4.37492 -3.07417 0
M  V30 6924 C 642.78 2.69551 -4.47369 0
M  V30 6925 H 644.474 1.30033 -2.69688 0
M  V30 6926 H 642.02 0.624112 -1.29772 0
M  V30 6927 H 643.973 3.66008 -2.08845 0
M  V30 6928 H 642.697 3.11866 -0.969917 0
M  V30 6929 H 641.356 2.23107 -2.90893 0
M  V30 6930 H 641.004 4.571 -2.09925 0
M  V30 6931 H 640.704 4.43877 -3.85029 0
M  V30 6932 H 642.228 5.16188 -3.26162 0
M  V30 6933 H 643.642 3.36028 -4.64497 0
M  V30 6934 H 642.039 2.87321 -5.26846 0
M  V30 6935 H 643.109 1.65029 -4.55953 0
M  V30 6936 N 644.452 1.42507 0.673017 0
M  V30 6937 C 645.399 1.46124 1.78651 0
M  V30 6938 C 646.369 0.313007 1.63124 0
M  V30 6939 O 647.554 0.517337 1.83653 0
M  V30 6940 C 644.694 1.3711 3.16694 0
M  V30 6941 C 643.807 2.61983 3.43495 0
M  V30 6942 C 642.942 2.45098 4.71275 0
M  V30 6943 C 641.981 3.65336 4.91117 0
M  V30 6944 N 641.118 3.47383 6.10139 0
M  V30 6945 H 645.958 2.4128 1.74895 0
M  V30 6946 H 643.495 1.19788 0.853766 0
M  V30 6947 H 645.453 1.29881 3.96468 0
M  V30 6948 H 644.083 0.45549 3.1957 0
M  V30 6949 H 643.135 2.79571 2.57961 0
M  V30 6950 H 644.447 3.51355 3.5405 0
M  V30 6951 H 643.601 2.35466 5.59143 0
M  V30 6952 H 642.34 1.53219 4.63007 0
M  V30 6953 H 641.345 3.754 4.0169 0
M  V30 6954 H 642.57 4.58199 5.01229 0
M  V30 6955 H 640.516 2.58222 6.0304 0
M  V30 6956 H 640.433 4.30344 6.21563 0
M  V30 6957 H 641.701 3.41565 7.00681 0
M  V30 6958 N 645.93 -0.909495 1.28709 0
M  V30 6959 C 647.176 -1.66175 1.17293 0
M  V30 6960 C 647.531 -1.90426 -0.274891 0
M  V30 6961 O 646.824 -1.49659 -1.19635 0
M  V30 6962 C 647.018 -3.02117 1.90945 0
M  V30 6963 C 646.847 -2.91134 3.42741 0
M  V30 6964 C 645.617 -2.92429 4.12085 0
M  V30 6965 C 647.815 -2.68889 4.3841 0
M  V30 6966 N 645.797 -2.72078 5.50315 0
M  V30 6967 C 647.168 -2.57423 5.64033 0
M  V30 6968 C 649.223 -2.53919 4.28287 0
M  V30 6969 C 647.926 -2.32513 6.80683 0
M  V30 6970 C 649.952 -2.3039 5.44678 0
M  V30 6971 C 649.314 -2.19682 6.69268 0
M  V30 6972 H 645.413 -0.614095 0.48416 0
M  V30 6973 H 647.997 -1.07377 1.62414 0
M  V30 6974 H 646.168 -3.58993 1.48252 0
M  V30 6975 H 647.9 -3.66388 1.71878 0
M  V30 6976 H 644.655 -3.03345 3.63701 0
M  V30 6977 H 645.079 -2.64983 6.22987 0
M  V30 6978 H 649.721 -2.60946 3.32666 0
M  V30 6979 H 647.439 -2.24225 7.76369 0
M  V30 6980 H 651.025 -2.19665 5.38738 0
M  V30 6981 H 649.905 -2.01725 7.5781 0
M  V30 6982 N 647.408 -1.11026 -1.11852 0
M  V30 6983 C 648.656 -0.854769 -1.83134 0
M  V30 6984 C 648.977 0.621375 -1.84835 0
M  V30 6985 O 648.247 1.45129 -1.31584 0
M  V30 6986 H 646.827 -0.313229 -0.678157 0
M  V30 6987 H 649.489 -1.40178 -1.35411 0
M  V30 6988 H 648.585 -1.22311 -2.87135 0
M  V30 6989 N 648.886 1.2938 -0.899927 0
M  V30 6990 C 649.816 2.30144 -0.39446 0
M  V30 6991 C 650.797 1.61611 0.530639 0
M  V30 6992 O 651.982 1.89119 0.441319 0
M  V30 6993 C 649.112 3.45229 0.37868 0
M  V30 6994 C 648.066 4.25564 -0.456012 0
M  V30 6995 C 647.392 5.32848 0.444637 0
M  V30 6996 C 648.692 4.93651 -1.70605 0
M  V30 6997 H 650.386 2.72673 -1.23653 0
M  V30 6998 H 647.932 1.31086 -0.596034 0
M  V30 6999 H 649.885 4.14797 0.743037 0
M  V30 7000 H 648.609 3.01545 1.25453 0
M  V30 7001 H 647.268 3.57704 -0.802704 0
M  V30 7002 H 646.916 4.85408 1.31863 0
M  V30 7003 H 646.616 5.87497 -0.110154 0
M  V30 7004 H 648.14 6.05268 0.805182 0
M  V30 7005 H 649.554 5.55655 -1.41141 0
M  V30 7006 H 647.951 5.58233 -2.20217 0
M  V30 7007 H 649.021 4.18926 -2.4419 0
M  V30 7008 N 650.364 0.662433 1.43002 0
M  V30 7009 C 651.327 -0.0142016 2.29196 0
M  V30 7010 C 652.327 -0.741394 1.42688 0
M  V30 7011 O 653.517 -0.581257 1.64216 0
M  V30 7012 C 650.649 -1.03084 3.24941 0
M  V30 7013 H 651.842 0.7443 2.90517 0
M  V30 7014 H 649.395 0.424133 1.50435 0
M  V30 7015 H 650.13 -1.81826 2.68533 0
M  V30 7016 H 649.915 -0.512946 3.8873 0
M  V30 7017 H 651.405 -1.50308 3.89612 0
M  V30 7018 N 651.842 -1.52309 0.404946 0
M  V30 7019 C 653.088 -2.02731 -0.164857 0
M  V30 7020 C 653.443 -1.28543 -1.43159 0
M  V30 7021 O 652.736 -0.381883 -1.87756 0
M  V30 7022 C 652.93 -3.54284 -0.470895 0
M  V30 7023 C 652.759 -4.43152 0.764625 0
M  V30 7024 C 651.529 -4.88594 1.28858 0
M  V30 7025 C 653.727 -4.874 1.64152 0
M  V30 7026 N 651.709 -5.61577 2.48001 0
M  V30 7027 C 653.08 -5.59121 2.67924 0
M  V30 7028 C 655.135 -4.69421 1.65978 0
M  V30 7029 C 653.838 -6.14772 3.73427 0
M  V30 7030 C 655.864 -5.25966 2.70396 0
M  V30 7031 C 655.226 -5.97606 3.7289 0
M  V30 7032 H 651.325 -0.78169 -0.0220025 0
M  V30 7033 H 653.909 -1.86522 0.558354 0
M  V30 7034 H 652.08 -3.70574 -1.16315 0
M  V30 7035 H 653.812 -3.91394 -1.02921 0
M  V30 7036 H 650.567 -4.6596 0.847232 0
M  V30 7037 H 650.991 -6.02712 3.08329 0
M  V30 7038 H 655.633 -4.13524 0.88079 0
M  V30 7039 H 653.351 -6.69743 4.52184 0
M  V30 7040 H 656.937 -5.13926 2.72711 0
M  V30 7041 H 655.817 -6.40577 4.52361 0
M  V30 7042 N 653.32 -0.135238 -1.57019 0
M  V30 7043 C 654.566 0.519563 -1.96032 0
M  V30 7044 C 654.899 1.65284 -1.01955 0
M  V30 7045 O 654.174 1.94408 -0.059727 0
M  V30 7046 C 654.457 1.0369 -3.44848 0
M  V30 7047 C 654.31 -0.0940754 -4.49702 0
M  V30 7048 C 655.629 1.92254 -3.95887 0
M  V30 7049 H 652.748 0.18739 -0.712779 0
M  V30 7050 H 655.39 -0.214086 -1.8879 0
M  V30 7051 H 653.54 1.66209 -3.5115 0
M  V30 7052 H 655.212 -0.73 -4.55487 0
M  V30 7053 H 653.455 -0.754924 -4.27181 0
M  V30 7054 H 654.126 0.309419 -5.51132 0
M  V30 7055 H 656.602 1.39581 -3.9199 0
M  V30 7056 H 655.478 2.25364 -5.00502 0
M  V30 7057 H 655.739 2.85513 -3.37543 0
M  V30 7058 N 654.798 1.5699 0.138552 0
M  V30 7059 C 656.023 1.88344 0.86841 0
M  V30 7060 C 656.448 0.725159 1.7356 0
M  V30 7061 O 655.806 -0.324992 1.78363 0
M  V30 7062 C 655.854 3.18334 1.69398 0
M  V30 7063 O 654.958 3.02863 2.79907 0
M  V30 7064 H 654.299 0.618577 0.241367 0
M  V30 7065 H 656.829 2.04207 0.126826 0
M  V30 7066 H 656.839 3.50567 2.08726 0
M  V30 7067 H 655.514 4.02238 1.05725 0
M  V30 7068 H 654.091 2.82056 2.43924 0
M  V30 7069 N 656.276 -0.40816 1.52223 0
M  V30 7070 C 657.501 -1.18127 1.70472 0
M  V30 7071 C 657.926 -1.83491 0.41384 0
M  V30 7072 O 657.284 -1.70047 -0.628778 0
M  V30 7073 C 657.332 -2.21935 2.84213 0
M  V30 7074 O 656.436 -3.28099 2.4985 0
M  V30 7075 H 655.777 -0.344781 0.56747 0
M  V30 7076 H 658.307 -0.478328 1.9893 0
M  V30 7077 H 658.317 -2.66248 3.09153 0
M  V30 7078 H 656.992 -1.73744 3.7787 0
M  V30 7079 H 655.569 -2.89058 2.35584 0
M  V30 7080 N 657.755 -1.42862 -0.66545 0
M  V30 7081 C 658.687 -1.43026 -1.79098 0
M  V30 7082 C 659.7 -0.32803 -1.59461 0
M  V30 7083 O 660.889 -0.591709 -1.68407 0
M  V30 7084 C 657.989 -1.21566 -3.16346 0
M  V30 7085 C 657.162 -2.44399 -3.62751 0
M  V30 7086 C 656.221 -2.18344 -4.78761 0
M  V30 7087 O 655.247 -2.91611 -4.88827 0
M  V30 7088 N 656.449 -1.1924 -5.68122 0
M  V30 7089 H 659.214 -2.40045 -1.79439 0
M  V30 7090 H 656.775 -1.37861 -0.848872 0
M  V30 7091 H 658.767 -1.02037 -3.91625 0
M  V30 7092 H 657.337 -0.330368 -3.10849 0
M  V30 7093 H 656.557 -2.79433 -2.78048 0
M  V30 7094 H 657.845 -3.26173 -3.90498 0
M  V30 7095 H 657.243 -0.586603 -5.6265 0
M  V30 7096 H 655.8 -1.05698 -6.43173 0
M  V30 7097 N 659.233 0.902656 -1.29189 0
M  V30 7098 C 660.48 1.65287 -1.16989 0
M  V30 7099 C 660.808 1.92485 0.279232 0
M  V30 7100 O 660.063 1.53143 1.21843 0
M  V30 7101 C 660.362 3.011 -1.92545 0
M  V30 7102 C 660.028 2.93521 -3.42281 0
M  V30 7103 C 658.69 2.91161 -3.83117 0
M  V30 7104 C 661.042 2.82947 -4.3771 0
M  V30 7105 C 658.37 2.76043 -5.17704 0
M  V30 7106 C 660.722 2.69368 -5.72384 0
M  V30 7107 C 659.386 2.65373 -6.12482 0
M  V30 7108 H 658.656 0.604828 -0.428094 0
M  V30 7109 H 661.303 1.05084 -1.60092 0
M  V30 7110 H 659.608 3.65153 -1.42024 0
M  V30 7111 H 661.305 3.58073 -1.80512 0
M  V30 7112 H 657.895 2.96158 -3.09819 0
M  V30 7113 H 662.079 2.83849 -4.07116 0
M  V30 7114 H 657.335 2.71352 -5.47885 0
M  V30 7115 H 661.509 2.60156 -6.45981 0
M  V30 7116 H 659.136 2.53415 -7.16718 0
M  V30 7117 N 660.711 1.11618 1.11262 0
M  V30 7118 C 661.941 0.88745 1.86569 0
M  V30 7119 C 662.349 -0.56636 1.80524 0
M  V30 7120 O 661.692 -1.40289 1.18594 0
M  V30 7121 C 661.754 1.27313 3.36202 0
M  V30 7122 C 661.418 2.73649 3.66013 0
M  V30 7123 C 662.415 3.71863 3.63337 0
M  V30 7124 C 660.1 3.10342 3.9496 0
M  V30 7125 C 662.094 5.04788 3.89188 0
M  V30 7126 C 659.781 4.43451 4.20469 0
M  V30 7127 C 660.779 5.40484 4.17572 0
M  V30 7128 O 660.467 6.71195 4.42439 0
M  V30 7129 H 660.199 0.317543 0.596777 0
M  V30 7130 H 662.753 1.48768 1.41624 0
M  V30 7131 H 660.983 0.616062 3.81761 0
M  V30 7132 H 662.672 1.01991 3.92877 0
M  V30 7133 H 663.438 3.44861 3.41022 0
M  V30 7134 H 659.317 2.35431 3.9635 0
M  V30 7135 H 662.861 5.80516 3.86842 0
M  V30 7136 H 658.758 4.70187 4.42261 0
M  V30 7137 H 659.526 6.77012 4.59997 0
M  V30 7138 N 662.189 -1.289 0.906776 0
M  V30 7139 C 663.137 -2.29477 0.379873 0
M  V30 7140 C 664.131 -1.61068 -0.524747 0
M  V30 7141 O 665.337 -1.75344 -0.406765 0
M  V30 7142 H 661.712 -0.744742 0.10423 0
M  V30 7143 H 663.683 -2.71353 1.24137 0
M  V30 7144 C 662.432 -3.45713 -0.371154 0
M  V30 7145 H 661.755 -3.98551 0.315716 0
M  V30 7146 H 663.195 -4.18105 -0.704581 0
M  V30 7147 C 661.654 -2.9774 -1.57646 0
M  V30 7148 O 662.184 -2.99618 -2.67567 0
M  V30 7149 N 660.39 -2.53485 -1.42105 0
M  V30 7150 H 659.937 -2.52156 -0.526783 0
M  V30 7151 H 659.895 -2.21747 -2.22881 0
M  V30 7152 N 663.667 -0.670007 -1.42649 0
M  V30 7153 C 664.614 0.0112928 -2.30797 0
M  V30 7154 C 665.584 0.797627 -1.45695 0
M  V30 7155 O 666.769 0.770845 -1.74535 0
M  V30 7156 C 663.909 0.95998 -3.31479 0
M  V30 7157 C 663.022 0.167975 -4.31673 0
M  V30 7158 C 662.157 1.11198 -5.19431 0
M  V30 7159 C 661.196 0.311381 -6.11307 0
M  V30 7160 N 660.333 1.20784 -6.91633 0
M  V30 7161 H 665.173 -0.746231 -2.88505 0
M  V30 7162 H 662.71 -0.379739 -1.42114 0
M  V30 7163 H 664.668 1.52379 -3.88377 0
M  V30 7164 H 663.298 1.68419 -2.75382 0
M  V30 7165 H 662.35 -0.512385 -3.76933 0
M  V30 7166 H 663.662 -0.453814 -4.96731 0
M  V30 7167 H 662.816 1.74587 -5.81037 0
M  V30 7168 H 661.555 1.76766 -4.54538 0
M  V30 7169 H 660.56 -0.335758 -5.48774 0
M  V30 7170 H 661.785 -0.340135 -6.78248 0
M  V30 7171 H 659.731 1.85001 -6.29373 0
M  V30 7172 H 659.648 0.64102 -7.53277 0
M  V30 7173 H 660.916 1.82936 -7.5773 0
M  V30 7174 O 665.184 1.51659 -0.55515 0
M  V30 7175 H 665.875 1.9363 -0.0521056 0
M  V30 END ATOM
M  V30 BEGIN BOND
M  V30 END BOND
M  V30 END CTAB
M  END
$$$$
