drugbank_target|Q16832 Discoidin domain-containing receptor 2 (DB08896; DB12010)
 OpenBabel12092120583D

  0  0  0     0  0            999 V3000
M  V30 BEGIN CTAB
M  V30 COUNTS 13440 13611 0 0 0
M  V30 BEGIN ATOM
M  V30 1 H -0.908 1.98254 -0.117106 0
M  V30 2 N 0 1.576 0 0
M  V30 3 C 0.933 2.03868 1.02534 0
M  V30 4 C 1.911 0.928543 1.3348 0
M  V30 5 O 3.095 1.19667 1.45644 0
M  V30 6 C 0.222 2.43627 2.35294 0
M  V30 7 C -0.732 3.65373 2.2001 0
M  V30 8 S 0.101 5.13292 1.52614 0
M  V30 9 C 1.257 5.56322 2.86805 0
M  V30 10 H 1.49 2.90518 0.631377 0
M  V30 11 H -0.977 1.52953 0.210867 0
M  V30 12 H 0.981 2.67203 3.11629 0
M  V30 13 H -0.358 1.57376 2.7183 0
M  V30 14 H -1.165 3.90944 3.18086 0
M  V30 15 H -1.563 3.418 1.51819 0
M  V30 16 H 0.729 5.58782 3.83104 0
M  V30 17 H 1.672 6.56266 2.65933 0
M  V30 18 H 2.08 4.83886 2.90714 0
M  V30 19 N 1.4781 -0.272755 1.55222 0
M  V30 20 C 2.7271 -1.00211 1.75045 0
M  V30 21 C 3.0401 -1.87441 0.559046 0
M  V30 22 O 4.2461 -2.63856 0.639698 0
M  V30 23 C 2.7021 -1.83165 3.09804 0
M  V30 24 C 2.3101 -1.008 4.36513 0
M  V30 25 C 4.0541 -2.55529 3.38977 0
M  V30 26 C 1.9611 -1.83194 5.62311 0
M  V30 27 H 0.8911 -0.377878 0.652476 0
M  V30 28 H 3.5421 -0.257776 1.8168 0
M  V30 29 H 1.9241 -2.61694 2.97207 0
M  V30 30 H 3.0981 -0.266855 4.60027 0
M  V30 31 H 1.4131 -0.398897 4.14485 0
M  V30 32 H 4.0101 -3.17578 4.30172 0
M  V30 33 H 4.3531 -3.25825 2.59121 0
M  V30 34 H 4.8861 -1.84029 3.52673 0
M  V30 35 H 1.6251 -1.17318 6.44916 0
M  V30 36 H 1.1451 -2.54905 5.4294 0
M  V30 37 H 2.8241 -2.40552 6.00619 0
M  V30 38 N 2.9562 -1.48159 -0.537278 0
M  V30 39 C 3.8862 -1.65029 -1.6519 0
M  V30 40 C 4.8672 -0.499281 -1.62607 0
M  V30 41 O 6.0522 -0.730972 -1.79918 0
M  V30 42 C 3.1822 -1.68303 -3.03795 0
M  V30 43 C 2.1362 -2.8283 -3.21234 0
M  V30 44 C 1.4622 -2.71189 -4.60826 0
M  V30 45 C 2.7622 -4.24211 -3.04701 0
M  V30 46 H 4.4562 -2.58341 -1.51328 0
M  V30 47 H 2.0022 -1.24325 -0.726585 0
M  V30 48 H 3.9552 -1.78693 -3.81637 0
M  V30 49 H 2.6792 -0.715635 -3.18663 0
M  V30 50 H 1.3382 -2.71983 -2.45807 0
M  V30 51 H 0.9862 -1.72435 -4.7252 0
M  V30 52 H 0.6862 -3.48035 -4.7344 0
M  V30 53 H 2.2102 -2.83537 -5.40777 0
M  V30 54 H 3.6242 -4.3593 -3.72341 0
M  V30 55 H 2.0212 -5.01998 -3.28813 0
M  V30 56 H 3.0912 -4.41184 -2.01209 0
M  V30 57 N 4.4343 0.785586 -1.36625 0
M  V30 58 C 5.6833 1.53883 -1.30396 0
M  V30 59 C 5.9963 1.95271 0.113452 0
M  V30 60 O 7.2023 2.69858 0.298142 0
M  V30 61 C 5.6583 2.77808 -2.28802 0
M  V30 62 C 5.2663 2.43574 -3.75999 0
M  V30 63 C 7.0103 3.55783 -2.31558 0
M  V30 64 C 4.9173 3.63919 -4.66173 0
M  V30 65 H 3.8473 0.577678 -0.484566 0
M  V30 66 H 6.4983 0.861705 -1.62009 0
M  V30 67 H 4.8803 3.47339 -1.90188 0
M  V30 68 H 6.0543 1.81916 -4.23371 0
M  V30 69 H 4.3693 1.78803 -3.76056 0
M  V30 70 H 6.9663 4.45205 -2.96137 0
M  V30 71 H 7.3093 3.94644 -1.3252 0
M  V30 72 H 7.8423 2.93235 -2.68809 0
M  V30 73 H 4.5813 3.3015 -5.66287 0
M  V30 74 H 4.1013 4.2473 -4.23515 0
M  V30 75 H 5.7803 4.30901 -4.82632 0
M  V30 76 N 5.9124 1.20967 1.01018 0
M  V30 77 C 7.3234 1.02319 1.56165 0
M  V30 78 C 7.6744 -0.418546 1.91684 0
M  V30 79 O 6.7994 -1.30096 1.72928 0
M  V30 80 C 7.3944 1.85109 2.8376 0
M  V30 81 C 5.9534 1.70809 3.35412 0
M  V30 82 C 5.1004 1.82643 2.08655 0
M  V30 83 H 8.0514 1.35065 0.833255 0
M  V30 84 H 8.0724 1.35827 3.55431 0
M  V30 85 H 7.5844 2.90035 2.57878 0
M  V30 86 H 5.6854 0.685464 3.66241 0
M  V30 87 H 5.7984 2.52467 4.07182 0
M  V30 88 H 4.1624 1.25896 2.21409 0
M  V30 89 H 4.9454 2.89066 1.85191 0
M  V30 90 N 7.3905 -1.2043 1.01659 0
M  V30 91 C 8.8065 -1.41852 0.731442 0
M  V30 92 C 9.0065 -1.89358 -0.688898 0
M  V30 93 O 8.0625 -2.06247 -1.45666 0
M  V30 94 C 9.3755 -2.44019 1.75714 0
M  V30 95 C 10.9235 -2.57785 1.77527 0
M  V30 96 C 11.3985 -3.63194 2.79023 0
M  V30 97 N 12.8895 -3.70678 2.77763 0
M  V30 98 C 13.6245 -4.51897 3.52954 0
M  V30 99 N 13.1205 -5.36921 4.37821 0
M  V30 100 N 14.9135 -4.4643 3.41551 0
M  V30 101 H 7.0645 -0.879093 1.93354 0
M  V30 102 H 9.3275 -0.448425 0.835236 0
M  V30 103 H 9.0335 -2.1611 2.77469 0
M  V30 104 H 8.9075 -3.43007 1.56927 0
M  V30 105 H 11.2945 -2.85023 0.764569 0
M  V30 106 H 11.3755 -1.58992 2.00387 0
M  V30 107 H 11.0195 -3.36699 3.80258 0
M  V30 108 H 10.9495 -4.61609 2.53425 0
M  V30 109 H 13.4405 -3.09944 2.16201 0
M  V30 110 H 13.7535 -5.95981 4.91962 0
M  V30 111 H 12.0985 -5.36424 4.41899 0
M  V30 112 H 15.2895 -3.79042 2.74672 0
M  V30 113 H 15.4625 -5.09491 4.00404 0
M  V30 114 N 8.8686 -0.792821 -1.36206 0
M  V30 115 C 9.8016 -0.139422 -2.27774 0
M  V30 116 C 10.7796 0.68649 -1.47398 0
M  V30 117 O 11.9636 0.656738 -1.7669 0
M  V30 118 C 9.0906 0.807947 -3.28922 0
M  V30 119 C 8.1366 0.0633999 -4.26453 0
M  V30 120 S 8.9696 -1.26319 -5.20388 0
M  V30 121 C 10.1256 -0.31991 -6.25082 0
M  V30 122 H 10.3586 -0.915809 -2.82843 0
M  V30 123 H 7.8916 -0.587203 -1.42798 0
M  V30 124 H 9.8496 1.34908 -3.87699 0
M  V30 125 H 8.5106 1.55761 -2.72759 0
M  V30 126 H 7.7036 0.782386 -4.9789 0
M  V30 127 H 7.3056 -0.407352 -3.71775 0
M  V30 128 H 9.5976 0.499985 -6.75653 0
M  V30 129 H 10.5406 -1.00307 -7.00959 0
M  V30 130 H 10.9486 0.0782694 -5.64446 0
M  V30 131 N 10.3467 1.47872 -0.545128 0
M  V30 132 C 11.2767 2.32661 0.197793 0
M  V30 133 C 12.2577 1.43041 0.920504 0
M  V30 134 O 13.4427 1.71912 0.90333 0
M  V30 135 C 10.5727 3.24569 1.23582 0
M  V30 136 C 9.5267 4.23333 0.630323 0
M  V30 137 C 8.8527 5.0448 1.77211 0
M  V30 138 C 10.1527 5.20704 -0.407974 0
M  V30 139 H 11.8467 2.95024 -0.510045 0
M  V30 140 H 9.3927 1.4187 -0.246731 0
M  V30 141 H 11.3457 3.8272 1.76362 0
M  V30 142 H 10.0697 2.60236 1.97344 0
M  V30 143 H 8.7287 3.6639 0.123922 0
M  V30 144 H 8.3767 4.36561 2.49847 0
M  V30 145 H 8.0767 5.71339 1.37281 0
M  V30 146 H 9.6007 5.65487 2.3034 0
M  V30 147 H 11.0147 5.7329 0.033305 0
M  V30 148 H 9.4117 5.95699 -0.725486 0
M  V30 149 H 10.4817 4.66917 -1.30828 0
M  V30 150 N 11.8248 0.280983 1.55075 0
M  V30 151 C 12.7548 -0.597469 2.25727 0
M  V30 152 C 13.7358 -1.15417 1.24952 0
M  V30 153 O 14.9208 -1.18722 1.53684 0
M  V30 154 C 12.0508 -1.7789 2.98283 0
M  V30 155 C 11.0048 -1.35347 4.06036 0
M  V30 156 C 10.3308 -2.61846 4.66198 0
M  V30 157 C 11.6308 -0.499354 5.19907 0
M  V30 158 H 13.3248 -0.00824265 2.99399 0
M  V30 159 H 10.8708 -0.0025244 1.44 0
M  V30 160 H 12.8238 -2.39937 3.46422 0
M  V30 161 H 11.5478 -2.39405 2.22155 0
M  V30 162 H 10.2068 -0.756156 3.58717 0
M  V30 163 H 9.8548 -3.21632 3.86732 0
M  V30 164 H 9.5548 -2.3409 5.38958 0
M  V30 165 H 11.0788 -3.24732 5.1709 0
M  V30 166 H 12.4928 -1.02498 5.64063 0
M  V30 167 H 10.8898 -0.316424 5.99265 0
M  V30 168 H 11.9598 0.480459 4.82514 0
M  V30 169 N 13.3029 -1.57598 0.00835791 0
M  V30 170 C 14.5489 -1.91211 -0.675732 0
M  V30 171 C 14.8819 -0.883139 -1.72958 0
M  V30 172 O 14.1569 0.097016 -1.94258 0
M  V30 173 C 14.4399 -3.35379 -1.31123 0
M  V30 174 C 14.2929 -4.48999 -0.268356 0
M  V30 175 C 15.6119 -3.7912 -2.23508 0
M  V30 176 H 12.7309 -0.695374 -0.244179 0
M  V30 177 H 15.3729 -1.89901 0.0613655 0
M  V30 178 H 13.5229 -3.36626 -1.93946 0
M  V30 179 H 15.1949 -4.59887 0.360844 0
M  V30 180 H 13.4379 -4.31873 0.408482 0
M  V30 181 H 14.1089 -5.46851 -0.752218 0
M  V30 182 H 16.5849 -3.79477 -1.70693 0
M  V30 183 H 15.4609 -4.80729 -2.64936 0
M  V30 184 H 15.7219 -3.13455 -3.11766 0
M  V30 185 N 14.781 0.264519 -1.55364 0
M  V30 186 C 15.711 1.33121 -1.91836 0
M  V30 187 C 16.692 1.51101 -0.781192 0
M  V30 188 O 17.877 1.64003 -1.04003 0
M  V30 189 C 15.007 2.68921 -2.19769 0
M  V30 190 C 13.961 2.65661 -3.35571 0
M  V30 191 C 13.287 4.05093 -3.49004 0
M  V30 192 C 14.587 2.24187 -4.71739 0
M  V30 193 H 16.281 1.02844 -2.81182 0
M  V30 194 H 13.827 0.493286 -1.35287 0
M  V30 195 H 15.78 3.43663 -2.43872 0
M  V30 196 H 14.504 3.00799 -1.27231 0
M  V30 197 H 13.163 1.93377 -3.1145 0
M  V30 198 H 12.811 4.34206 -2.53917 0
M  V30 199 H 12.511 4.03804 -4.26868 0
M  V30 200 H 14.035 4.81561 -3.75408 0
M  V30 201 H 15.449 2.88654 -4.9533 0
M  V30 202 H 13.846 2.34044 -5.52579 0
M  V30 203 H 14.916 1.19327 -4.69988 0
M  V30 204 N 16.2591 1.48442 0.529413 0
M  V30 205 C 17.5061 1.56488 1.28521 0
M  V30 206 C 17.8341 0.239042 1.93025 0
M  V30 207 O 17.0891 -0.770713 1.79885 0
M  V30 208 C 17.3881 2.6523 2.39558 0
M  V30 209 C 17.0541 4.07648 1.92702 0
M  V30 210 C 15.7161 4.46411 1.79641 0
M  V30 211 C 18.0681 4.96896 1.573 0
M  V30 212 C 15.3961 5.72226 1.29514 0
M  V30 213 C 17.7481 6.23202 1.08636 0
M  V30 214 C 16.4121 6.60821 0.941919 0
M  V30 215 H 15.6821 0.572631 0.470292 0
M  V30 216 H 18.3291 1.82161 0.59072 0
M  V30 217 H 16.6341 2.33419 3.14679 0
M  V30 218 H 18.3311 2.68671 2.97686 0
M  V30 219 H 14.9211 3.77036 2.03819 0
M  V30 220 H 19.1051 4.67626 1.66251 0
M  V30 221 H 14.3611 6.00097 1.17019 0
M  V30 222 H 18.5351 6.91753 0.803136 0
M  V30 223 H 16.1621 7.58198 0.5513 0
M  V30 224 N 17.7372 -0.778329 1.37039 0
M  V30 225 C 18.6672 -1.90546 1.34962 0
M  V30 226 C 19.6482 -1.68681 0.219274 0
M  V30 227 O 20.8332 -1.89634 0.418624 0
M  V30 228 C 17.9632 -3.27734 1.14925 0
M  V30 229 C 16.9172 -3.64147 2.24902 0
M  V30 230 C 16.2432 -4.99806 1.89996 0
M  V30 231 C 17.5432 -3.71579 3.67051 0
M  V30 232 H 19.2372 -1.92541 2.29277 0
M  V30 233 H 16.7832 -0.924948 1.10366 0
M  V30 234 H 18.7362 -4.06215 1.12104 0
M  V30 235 H 17.4602 -3.26154 0.170631 0
M  V30 236 H 16.1192 -2.8797 2.26868 0
M  V30 237 H 15.7672 -4.94759 0.906796 0
M  V30 238 H 15.4672 -5.25139 2.63634 0
M  V30 239 H 16.9912 -5.80694 1.88749 0
M  V30 240 H 18.4052 -4.40227 3.67251 0
M  V30 241 H 16.8022 -4.08405 4.39688 0
M  V30 242 H 17.8722 -2.72404 4.01154 0
M  V30 243 N 19.2153 -1.21501 -1.00376 0
M  V30 244 C 20.1453 -0.999478 -2.11028 0
M  V30 245 C 21.1263 0.0759671 -1.6993 0
M  V30 246 O 22.3113 -0.0841106 -1.94018 0
M  V30 247 C 19.4413 -0.564709 -3.42678 0
M  V30 248 C 18.3953 -1.58486 -3.97576 0
M  V30 249 C 17.7213 -1.00628 -5.25146 0
M  V30 250 C 19.0213 -2.97204 -4.29496 0
M  V30 251 H 20.7153 -1.92495 -2.29317 0
M  V30 252 H 18.2613 -0.92693 -1.102 0
M  V30 253 H 20.2143 -0.401091 -4.19487 0
M  V30 254 H 18.9383 0.396411 -3.24185 0
M  V30 255 H 17.5973 -1.73606 -3.22888 0
M  V30 256 H 17.2453 -0.0368439 -5.02987 0
M  V30 257 H 16.9453 -1.68771 -5.62841 0
M  V30 258 H 18.4693 -0.854015 -6.04598 0
M  V30 259 H 19.8833 -2.8552 -4.97143 0
M  V30 260 H 18.2803 -3.62372 -4.78338 0
M  V30 261 H 19.3503 -3.47956 -3.3772 0
M  V30 262 N 20.6934 1.19889 -1.02296 0
M  V30 263 C 21.6234 2.25141 -0.619174 0
M  V30 264 C 22.6044 1.66051 0.368915 0
M  V30 265 O 23.7894 1.92546 0.252941 0
M  V30 266 C 20.9194 3.4728 0.0368783 0
M  V30 267 C 19.8734 4.19005 -0.872865 0
M  V30 268 C 19.1994 5.34637 -0.0822402 0
M  V30 269 C 20.4994 4.74452 -2.18387 0
M  V30 270 H 22.1934 2.59171 -1.49903 0
M  V30 271 H 19.7394 1.24579 -0.722222 0
M  V30 272 H 21.6924 4.20098 0.330958 0
M  V30 273 H 20.4164 3.12433 0.95149 0
M  V30 274 H 19.0754 3.48061 -1.15105 0
M  V30 275 H 18.7234 4.96034 0.83422 0
M  V30 276 H 18.4234 5.83557 -0.688149 0
M  V30 277 H 19.9474 6.10255 0.205238 0
M  V30 278 H 21.3614 5.39055 -1.95172 0
M  V30 279 H 19.7584 5.33834 -2.74119 0
M  V30 280 H 20.8284 3.92844 -2.84257 0
M  V30 281 N 22.1715 0.800033 1.35784 0
M  V30 282 C 23.5825 0.439142 1.81462 0
M  V30 283 C 23.9335 -1.03813 1.66485 0
M  V30 284 O 23.0585 -1.80626 1.19177 0
M  V30 285 C 23.6535 0.790314 3.29453 0
M  V30 286 C 22.2125 0.482111 3.733 0
M  V30 287 C 21.3595 1.01938 2.57883 0
M  V30 288 H 24.3105 0.992254 1.23855 0
M  V30 289 H 24.3315 0.0853677 3.80404 0
M  V30 290 H 23.8435 1.86554 3.40322 0
M  V30 291 H 21.9445 -0.584652 3.67984 0
M  V30 292 H 22.0575 1.01015 4.6833 0
M  V30 293 H 20.4215 0.442043 2.50835 0
M  V30 294 H 21.2045 2.10059 2.71533 0
M  V30 295 N 23.6496 -1.47581 0.552962 0
M  V30 296 C 24.8986 -2.01684 0.0251995 0
M  V30 297 C 25.2116 -1.43317 -1.33115 0
M  V30 298 O 26.4176 -1.89057 -1.94858 0
M  V30 299 C 24.8736 -3.599 -0.00542052 0
M  V30 300 C 24.4816 -4.27257 1.34742 0
M  V30 301 C 26.2256 -4.21768 -0.4808 0
M  V30 302 C 24.1326 -5.77467 1.27614 0
M  V30 303 H 23.0626 -0.753979 0.00565033 0
M  V30 304 H 25.7136 -1.69616 0.70018 0
M  V30 305 H 24.0956 -3.88911 -0.745961 0
M  V30 306 H 25.2696 -4.09893 2.10534 0
M  V30 307 H 23.5846 -3.77358 1.76039 0
M  V30 308 H 26.1816 -5.31838 -0.55246 0
M  V30 309 H 26.5246 -3.88651 -1.49184 0
M  V30 310 H 27.0576 -3.97273 0.204752 0
M  V30 311 H 23.7966 -6.15196 2.26304 0
M  V30 312 H 23.3166 -5.9718 0.55996 0
M  V30 313 H 24.9956 -6.3959 0.976421 0
M  V30 314 N 25.1277 -0.289203 -1.54924 0
M  V30 315 C 26.0577 0.58549 -2.2604 0
M  V30 316 C 27.0387 1.14753 -1.25562 0
M  V30 317 O 28.2237 1.17906 -1.54311 0
M  V30 318 C 25.3537 1.76305 -2.99222 0
M  V30 319 C 24.3077 1.33191 -4.06748 0
M  V30 320 C 23.6337 2.5937 -4.6758 0
M  V30 321 C 24.9337 0.471775 -5.20165 0
M  V30 322 H 26.6277 -0.00763532 -2.99399 0
M  V30 323 H 24.1737 -0.00511229 -1.43999 0
M  V30 324 H 26.1267 2.38097 -3.47689 0
M  V30 325 H 24.8507 2.38223 -2.23422 0
M  V30 326 H 23.5097 0.737121 -3.59113 0
M  V30 327 H 23.1577 3.19576 -3.88433 0
M  V30 328 H 22.8577 2.31228 -5.40192 0
M  V30 329 H 24.3817 3.21985 -5.18804 0
M  V30 330 H 25.7957 0.995056 -5.64599 0
M  V30 331 H 24.1927 0.284639 -5.99425 0
M  V30 332 H 25.2627 -0.506041 -4.82252 0
M  V30 333 N 26.6058 1.57591 -0.0167156 0
M  V30 334 C 27.8308 1.9598 0.67872 0
M  V30 335 C 28.2558 0.892546 1.65575 0
M  V30 336 O 27.6138 -0.147772 1.80697 0
M  V30 337 C 27.6618 3.33468 1.37227 0
M  V30 338 O 26.7658 3.28954 2.48722 0
M  V30 339 H 26.1068 0.639339 0.17928 0
M  V30 340 H 28.6368 2.04463 -0.0748802 0
M  V30 341 H 28.6468 3.69417 1.7319 0
M  V30 342 H 27.3218 4.10694 0.656007 0
M  V30 343 H 25.8988 3.04705 2.14963 0
M  V30 344 N 28.0839 -0.256276 1.55502 0
M  V30 345 C 29.3089 -1.00766 1.81276 0
M  V30 346 C 29.7339 -1.78524 0.59252 0
M  V30 347 O 29.0919 -1.75413 -0.45827 0
M  V30 348 C 29.1399 -1.92869 3.04687 0
M  V30 349 O 28.2439 -3.019 2.80945 0
M  V30 350 H 27.5849 -0.287224 0.598664 0
M  V30 351 H 30.1149 -0.280109 2.02674 0
M  V30 352 H 30.1249 -2.34511 3.33869 0
M  V30 353 H 28.7999 -1.35689 3.93143 0
M  V30 354 H 27.3769 -2.64454 2.62904 0
M  V30 355 N 29.562 -1.4872 -0.521534 0
M  V30 356 C 30.525 -1.63379 -1.60748 0
M  V30 357 C 31.525 -0.50661 -1.52611 0
M  V30 358 O 32.715 -0.772601 -1.5613 0
M  V30 359 C 29.847 -1.61192 -3.00383 0
M  V30 360 H 31.04 -2.60217 -1.49087 0
M  V30 361 H 28.593 -1.37444 -0.744235 0
M  V30 362 H 29.328 -0.65863 -3.17541 0
M  V30 363 H 29.113 -2.43032 -3.07698 0
M  V30 364 H 30.603 -1.7466 -3.7932 0
M  V30 365 N 31.0401 0.771051 -1.3745 0
M  V30 366 C 31.9871 1.88435 -1.3327 0
M  V30 367 C 32.9571 1.64914 -0.198136 0
M  V30 368 O 34.1421 1.86821 -0.387606 0
M  V30 369 C 31.2821 3.25509 -1.14622 0
M  V30 370 C 30.3951 3.60979 -2.37314 0
M  V30 371 C 29.5301 4.87265 -2.11533 0
M  V30 372 C 28.5691 5.15469 -3.30088 0
M  V30 373 N 27.7061 6.32944 -3.03853 0
M  V30 374 H 32.5461 1.91344 -2.28455 0
M  V30 375 H 30.0831 0.935466 -1.13523 0
M  V30 376 H 32.0411 4.04582 -1.01831 0
M  V30 377 H 30.6711 3.21974 -0.230837 0
M  V30 378 H 29.7231 2.76885 -2.60842 0
M  V30 379 H 31.0351 3.77759 -3.25729 0
M  V30 380 H 30.1891 5.74244 -1.95777 0
M  V30 381 H 28.9281 4.7259 -1.20457 0
M  V30 382 H 27.9331 4.26966 -3.46382 0
M  V30 383 H 29.1581 5.32052 -4.22016 0
M  V30 384 H 27.1041 6.19625 -2.15407 0
M  V30 385 H 27.0211 6.50143 -3.85812 0
M  V30 386 H 28.2891 7.22857 -2.91716 0
M  V30 387 N 32.5182 1.22032 0.997298 0
M  V30 388 C 33.4812 0.987909 2.06816 0
M  V30 389 C 34.4812 -0.0440084 1.6074 0
M  V30 390 O 35.6712 0.194053 1.73116 0
M  V30 391 C 32.8032 0.49132 3.37341 0
M  V30 392 H 33.9962 1.93803 2.28868 0
M  V30 393 H 31.5492 1.03838 1.16822 0
M  V30 394 H 32.2842 -0.463364 3.20973 0
M  V30 395 H 32.0692 1.23575 3.72118 0
M  V30 396 H 33.5592 0.348824 4.16141 0
M  V30 397 N 33.9963 -1.19345 1.0293 0
M  V30 398 C 34.9283 -2.22036 0.56857 0
M  V30 399 C 35.9413 -1.58865 -0.355779 0
M  V30 400 O 37.1303 -1.77851 -0.152103 0
M  V30 401 C 34.2303 -3.38363 -0.190752 0
M  V30 402 C 33.4033 -4.31118 0.738643 0
M  V30 403 C 32.4623 -5.26194 0.0246497 0
M  V30 404 O 31.4883 -5.65461 0.651354 0
M  V30 405 N 32.6903 -5.66971 -1.24594 0
M  V30 406 H 35.4553 -2.6219 1.45177 0
M  V30 407 H 33.0163 -1.34015 0.908381 0
M  V30 408 H 35.0083 -3.98981 -0.677961 0
M  V30 409 H 33.5783 -2.96994 -0.975366 0
M  V30 410 H 32.7983 -3.68276 1.40593 0
M  V30 411 H 34.0863 -4.90001 1.37029 0
M  V30 412 H 33.4843 -5.37104 -1.77583 0
M  V30 413 H 32.0413 -6.2984 -1.67764 0
M  V30 414 N 35.4744 -0.807222 -1.35358 0
M  V30 415 C 36.7204 -0.388463 -1.99045 0
M  V30 416 C 37.0534 1.04184 -1.63888 0
M  V30 417 O 36.3284 1.72292 -0.902535 0
M  V30 418 C 36.6114 -0.572783 -3.55515 0
M  V30 419 C 36.4644 -2.04807 -4.00468 0
M  V30 420 C 37.7834 0.00114064 -4.401 0
M  V30 421 H 34.9024 -0.142619 -0.723069 0
M  V30 422 H 37.5444 -1.01687 -1.60498 0
M  V30 423 H 35.6944 -0.0378425 -3.88482 0
M  V30 424 H 37.3664 -2.64544 -3.77908 0
M  V30 425 H 35.6094 -2.54427 -3.51353 0
M  V30 426 H 36.2804 -2.12792 -5.09337 0
M  V30 427 H 38.7564 -0.455716 -4.13597 0
M  V30 428 H 37.6324 -0.157737 -5.48673 0
M  V30 429 H 37.8934 1.09488 -4.28328 0
M  V30 430 N 36.9525 1.47285 -0.560781 0
M  V30 431 C 37.9005 2.31756 0.197942 0
M  V30 432 C 38.8945 1.43146 0.905854 0
M  V30 433 O 40.1005 1.59891 0.826733 0
M  V30 434 H 36.4755 0.747438 0.0827049 0
M  V30 435 H 38.4465 2.9359 -0.533629 0
M  V30 436 C 37.1955 3.25874 1.21249 0
M  V30 437 H 36.5185 3.94023 0.67719 0
M  V30 438 H 37.9585 3.87803 1.71419 0
M  V30 439 C 36.4175 2.49651 2.26221 0
M  V30 440 O 36.9475 2.24355 3.33208 0
M  V30 441 N 35.1535 2.10597 2.00243 0
M  V30 442 H 34.7005 2.31369 1.13252 0
M  V30 443 H 34.6585 1.59913 2.70694 0
M  V30 444 N 38.4306 0.297415 1.54768 0
M  V30 445 C 39.8416 -0.195947 1.85669 0
M  V30 446 C 40.1926 -1.53707 1.21937 0
M  V30 447 O 39.3176 -2.10164 0.515754 0
M  V30 448 C 39.9126 -0.362318 3.36857 0
M  V30 449 C 38.4716 -0.799901 3.67802 0
M  V30 450 C 37.6186 0.0938578 2.77141 0
M  V30 451 H 40.5696 0.518538 1.4999 0
M  V30 452 H 40.5906 -1.19745 3.61167 0
M  V30 453 H 40.1026 0.613921 3.83214 0
M  V30 454 H 38.2036 -1.78682 3.26961 0
M  V30 455 H 38.3166 -0.621773 4.75048 0
M  V30 456 H 36.6806 -0.426254 2.51108 0
M  V30 457 H 37.4636 1.06639 3.26318 0
M  V30 458 N 39.9087 -1.5758 0.0250728 0
M  V30 459 C 40.8717 -2.08896 -0.943139 0
M  V30 460 C 41.8717 -1.00321 -1.25668 0
M  V30 461 O 43.0617 -1.26495 -1.19769 0
M  V30 462 C 40.1937 -2.55143 -2.26086 0
M  V30 463 H 41.3867 -2.95723 -0.498775 0
M  V30 464 H 38.9397 -1.54703 -0.222888 0
M  V30 465 H 39.6747 -1.71633 -2.75159 0
M  V30 466 H 39.4597 -3.34461 -2.04641 0
M  V30 467 H 40.9497 -2.95083 -2.95492 0
M  V30 468 N 41.3868 0.248026 -1.55636 0
M  V30 469 C 42.6358 0.974134 -1.76617 0
M  V30 470 C 42.9488 1.86528 -0.588796 0
M  V30 471 O 44.1548 2.62805 -0.681594 0
M  V30 472 C 42.6108 1.78213 -3.12679 0
M  V30 473 C 42.2188 0.93843 -4.38061 0
M  V30 474 C 43.9628 2.50104 -3.42999 0
M  V30 475 C 41.8698 1.74225 -5.65155 0
M  V30 476 H 40.7998 0.36745 -0.658405 0
M  V30 477 H 43.4508 0.22884 -1.82067 0
M  V30 478 H 41.8328 2.56933 -3.01333 0
M  V30 479 H 43.0068 0.193635 -4.60393 0
M  V30 480 H 41.3218 0.332905 -4.15067 0
M  V30 481 H 43.9188 3.10694 -4.3517 0
M  V30 482 H 44.2618 3.21662 -2.64271 0
M  V30 483 H 44.7948 1.78395 -3.55556 0
M  V30 484 H 41.5338 1.07043 -6.46701 0
M  V30 485 H 41.0538 2.46235 -5.46926 0
M  V30 486 H 42.7328 2.30967 -6.0437 0
M  V30 487 N 42.8649 1.48995 0.513639 0
M  V30 488 C 44.1049 1.59452 1.27885 0
M  V30 489 C 44.4689 0.269479 1.90099 0
M  V30 490 O 45.6699 0.249139 2.67643 0
M  V30 491 C 43.9409 2.71277 2.32688 0
M  V30 492 S 45.4999 3.01604 3.18717 0
M  V30 493 H 42.3179 0.562565 0.434789 0
M  V30 494 H 44.9199 1.86595 0.583301 0
M  V30 495 H 43.6239 3.66089 1.8549 0
M  V30 496 H 43.1549 2.46086 3.06929 0
M  V30 497 H 45.1699 2.42155 4.331 0
M  V30 498 N 44.343 -0.763751 1.37857 0
M  V30 499 C 45.759 -1.06542 1.18832 0
M  V30 500 C 45.959 -2.01478 0.0299722 0
M  V30 501 O 45.015 -2.4458 -0.627447 0
M  V30 502 C 46.328 -1.65525 2.51042 0
M  V30 503 C 47.876 -1.77745 2.57635 0
M  V30 504 C 48.351 -2.4014 3.89996 0
M  V30 505 N 49.842 -2.47582 3.91481 0
M  V30 506 C 50.577 -2.96732 4.9065 0
M  V30 507 N 50.073 -3.45993 6.00217 0
M  V30 508 N 51.866 -2.95679 4.78048 0
M  V30 509 H 44.017 -0.133556 2.1198 0
M  V30 510 H 46.28 -0.121879 0.940133 0
M  V30 511 H 45.986 -1.03236 3.36207 0
M  V30 512 H 45.86 -2.64719 2.68707 0
M  V30 513 H 48.247 -2.39164 1.72872 0
M  V30 514 H 48.328 -0.772836 2.43846 0
M  V30 515 H 47.972 -1.79358 4.75177 0
M  V30 516 H 47.902 -3.41223 4.01092 0
M  V30 517 H 50.393 -2.1273 3.12337 0
M  V30 518 H 50.706 -3.81922 6.7183 0
M  V30 519 H 49.051 -3.44077 6.03851 0
M  V30 520 H 52.242 -2.56499 3.91568 0
M  V30 521 H 52.415 -3.33672 5.55488 0
M  V30 522 N 45.8211 -1.22559 -0.990812 0
M  V30 523 C 47.0511 -1.07623 -1.76355 0
M  V30 524 C 47.4591 0.37601 -1.85426 0
M  V30 525 O 46.8021 1.27228 -1.32509 0
M  V30 526 C 46.8641 -1.61507 -3.21179 0
M  V30 527 C 46.5281 -3.10146 -3.35646 0
M  V30 528 C 47.5251 -4.07553 -3.22796 0
M  V30 529 C 45.2101 -3.49644 -3.60631 0
M  V30 530 C 47.2041 -5.42442 -3.34716 0
M  V30 531 C 44.8911 -4.84682 -3.72192 0
M  V30 532 C 45.8891 -5.8089 -3.59243 0
M  V30 533 O 45.5771 -7.13476 -3.70415 0
M  V30 534 H 45.3091 -0.377745 -0.560611 0
M  V30 535 H 47.8631 -1.62658 -1.25425 0
M  V30 536 H 46.0931 -1.00881 -3.73309 0
M  V30 537 H 47.7821 -1.42202 -3.80175 0
M  V30 538 H 48.5481 -3.78381 -3.03403 0
M  V30 539 H 44.4271 -2.75282 -3.69785 0
M  V30 540 H 47.9711 -6.17518 -3.24526 0
M  V30 541 H 43.8681 -5.13534 -3.91092 0
M  V30 542 H 44.6361 -7.21083 -3.87275 0
M  V30 543 N 47.2992 1.18797 -1.03562 0
M  V30 544 C 48.7102 1.70322 -0.764676 0
M  V30 545 C 49.0612 1.82708 0.714996 0
M  V30 546 O 48.1862 1.50299 1.55689 0
M  V30 547 C 48.7812 3.09356 -1.38145 0
M  V30 548 C 47.3402 3.58114 -1.15895 0
M  V30 549 C 46.4872 2.34798 -1.4753 0
M  V30 550 H 49.4382 1.03543 -1.20268 0
M  V30 551 H 49.4592 3.72378 -0.781977 0
M  V30 552 H 48.9712 3.00309 -2.45837 0
M  V30 553 H 47.0722 3.72464 -0.100544 0
M  V30 554 H 47.1852 4.4184 -1.8524 0
M  V30 555 H 45.5492 2.38464 -0.894829 0
M  V30 556 H 46.3322 2.28375 -2.56319 0
M  V30 557 N 48.7773 0.814389 1.34928 0
M  V30 558 C 49.7073 0.244827 2.32213 0
M  V30 559 C 50.6883 -0.634024 1.57842 0
M  V30 560 O 51.8733 -0.562676 1.8587 0
M  V30 561 C 49.0033 -0.601106 3.42058 0
M  V30 562 C 47.9573 0.179896 4.27622 0
M  V30 563 C 47.2833 -0.788237 5.28858 0
M  V30 564 C 48.5833 1.38329 5.03649 0
M  V30 565 H 50.2773 1.05763 2.80097 0
M  V30 566 H 47.8233 0.510029 1.34665 0
M  V30 567 H 49.7763 -1.00968 4.09125 0
M  V30 568 H 48.5003 -1.44688 2.92802 0
M  V30 569 H 47.1593 0.569739 3.62146 0
M  V30 570 H 46.8073 -1.62973 4.75866 0
M  V30 571 H 46.5073 -0.269942 5.8698 0
M  V30 572 H 48.0313 -1.19485 5.98795 0
M  V30 573 H 49.4453 1.04918 5.63618 0
M  V30 574 H 47.8423 1.83662 5.71304 0
M  V30 575 H 48.9123 2.16592 4.33839 0
M  V30 576 N 50.2554 -1.46986 0.568584 0
M  V30 577 C 51.5034 -2.02041 0.0487022 0
M  V30 578 C 51.8244 -1.44408 -1.31039 0
M  V30 579 O 51.0944 -0.623477 -1.85714 0
M  V30 580 H 49.6744 -0.746849 0.015014 0
M  V30 581 H 52.3364 -1.80257 0.741168 0
M  V30 582 H 51.4324 -3.12085 -0.0308961 0
M  V30 583 N 51.7335 -0.305618 -1.54608 0
M  V30 584 C 52.6665 0.610536 -2.19881 0
M  V30 585 C 53.6445 1.1294 -1.16976 0
M  V30 586 O 54.8285 1.19673 -1.45638 0
M  V30 587 C 51.9555 1.83583 -2.84631 0
M  V30 588 C 51.0015 1.4498 -4.01102 0
M  V30 589 S 51.8345 0.501793 -5.33144 0
M  V30 590 C 52.9905 1.73478 -6.01379 0
M  V30 591 H 53.2235 0.0560177 -2.97247 0
M  V30 592 H 50.7565 -0.0897434 -1.54139 0
M  V30 593 H 52.7145 2.53898 -3.22562 0
M  V30 594 H 51.3755 2.36152 -2.07102 0
M  V30 595 H 50.5685 2.36236 -4.45206 0
M  V30 596 H 50.1705 0.826553 -3.64752 0
M  V30 597 H 52.4625 2.67473 -6.22467 0
M  V30 598 H 53.4055 1.33622 -6.95378 0
M  V30 599 H 53.8135 1.9136 -5.31076 0
M  V30 600 N 53.2116 1.57565 -0.0334293 0
M  V30 601 C 54.4366 1.96689 0.657895 0
M  V30 602 C 54.8616 0.910057 1.64619 0
M  V30 603 O 54.2196 -0.128598 1.80843 0
M  V30 604 C 54.2676 3.34905 1.33683 0
M  V30 605 O 53.3716 3.31574 2.45219 0
M  V30 606 H 52.7126 0.641205 0.172489 0
M  V30 607 H 55.2426 2.04372 -0.0965621 0
M  V30 608 H 55.2526 3.71234 1.69262 0
M  V30 609 H 53.9276 4.11366 0.612411 0
M  V30 610 H 52.5046 3.06968 2.11719 0
M  V30 611 N 54.6897 -0.239769 1.55765 0
M  V30 612 C 55.9377 -0.964892 1.77579 0
M  V30 613 C 56.2587 -1.85582 0.598699 0
M  V30 614 O 55.5287 -1.92075 -0.385226 0
M  V30 615 H 54.1087 -0.359265 0.654933 0
M  V30 616 H 56.7707 -0.256001 1.93211 0
M  V30 617 H 55.8667 -1.58243 2.69009 0
M  V30 618 N 56.1678 -1.49265 -0.50573 0
M  V30 619 C 57.4158 -1.582 -1.25766 0
M  V30 620 C 57.7368 -0.268482 -1.93143 0
M  V30 621 O 57.0068 0.711833 -1.8251 0
M  V30 622 H 55.5868 -0.582873 -0.467191 0
M  V30 623 H 58.2488 -1.85865 -0.586525 0
M  V30 624 H 57.3448 -2.37563 -2.02412 0
M  V30 625 N 57.6459 0.756429 -1.3826 0
M  V30 626 C 58.5779 1.87971 -1.31147 0
M  V30 627 C 59.5909 1.61248 -0.224239 0
M  V30 628 O 60.7799 1.71881 -0.481581 0
M  V30 629 C 57.8799 3.23545 -1.00857 0
M  V30 630 C 57.0529 3.77794 -2.20432 0
M  V30 631 C 56.1119 4.91877 -1.86931 0
M  V30 632 O 55.1379 5.06659 -2.59395 0
M  V30 633 N 56.3399 5.74643 -0.822568 0
M  V30 634 H 59.1049 1.94585 -2.2794 0
M  V30 635 H 56.6659 0.936234 -1.32084 0
M  V30 636 H 58.6579 3.97403 -0.765021 0
M  V30 637 H 57.2279 3.12335 -0.128687 0
M  V30 638 H 56.4479 2.95534 -2.6087 0
M  V30 639 H 57.7359 4.10771 -3.00241 0
M  V30 640 H 57.1339 5.65266 -0.221575 0
M  V30 641 H 55.6909 6.48661 -0.638899 0
M  V30 642 N 59.124 1.23083 0.984299 0
M  V30 643 C 60.373 1.05466 1.71929 0
M  V30 644 C 60.686 -0.409211 1.91272 0
M  V30 645 O 61.892 -0.705226 2.62181 0
M  V30 646 C 60.348 1.83874 3.09384 0
M  V30 647 C 59.956 3.34566 2.97943 0
M  V30 648 C 61.7 1.74734 3.8687 0
M  V30 649 C 59.607 4.05381 4.30605 0
M  V30 650 H 58.537 0.391039 0.644674 0
M  V30 651 H 61.188 1.47013 1.09815 0
M  V30 652 H 59.57 1.35131 3.72231 0
M  V30 653 H 60.744 3.90767 2.44209 0
M  V30 654 H 59.059 3.44476 2.33934 0
M  V30 655 H 61.656 2.24957 4.85076 0
M  V30 656 H 61.999 0.709372 4.10212 0
M  V30 657 H 62.532 2.21067 3.30717 0
M  V30 658 H 59.271 5.09467 4.1246 0
M  V30 659 H 58.791 3.53967 4.84218 0
M  V30 660 H 60.47 4.11458 4.99311 0
M  V30 661 N 60.6021 -1.18246 1.0419 0
M  V30 662 C 62.0131 -1.69914 0.773698 0
M  V30 663 C 62.3641 -1.83085 -0.705297 0
M  V30 664 O 61.4891 -1.51123 -1.5489 0
M  V30 665 C 62.0841 -3.08619 1.39784 0
M  V30 666 C 60.6431 -3.57494 1.17792 0
M  V30 667 C 59.7901 -2.34013 1.48773 0
M  V30 668 H 62.7411 -1.02904 1.20816 0
M  V30 669 H 62.7621 -3.71958 0.801714 0
M  V30 670 H 62.2741 -2.99001 2.47426 0
M  V30 671 H 60.3751 -3.72406 0.120295 0
M  V30 672 H 60.4881 -4.40852 1.87581 0
M  V30 673 H 58.8521 -2.37986 0.907463 0
M  V30 674 H 59.6351 -2.27013 2.57527 0
M  V30 675 N 62.0802 -0.821533 -1.34494 0
M  V30 676 C 63.3572 -0.33159 -1.92769 0
M  V30 677 C 63.7372 1.18088 -1.74981 0
M  V30 678 O 63.0852 1.98733 -1.12772 0
M  V30 679 C 63.2952 -0.759398 -3.40638 0
M  V30 680 C 64.6432 -0.757433 -4.1779 0
M  V30 681 O 65.6672 -0.70189 -3.49216 0
M  V30 682 O 64.5262 -0.829361 -5.4017 0
M  V30 683 H 61.6202 -0.0902502 -0.822061 0
M  V30 684 H 64.1662 -0.906231 -1.43477 0
M  V30 685 H 62.9382 -1.8012 -3.47379 0
M  V30 686 H 62.5612 -0.160378 -3.97276 0
M  V30 687 N 63.5583 1.46682 -0.576371 0
M  V30 688 C 64.4683 2.34032 0.163141 0
M  V30 689 C 65.4843 1.49367 0.892501 0
M  V30 690 O 66.6603 1.82252 0.857106 0
M  V30 691 C 63.7253 3.26435 1.16795 0
M  V30 692 C 62.7863 4.26998 0.443944 0
M  V30 693 C 62.0193 5.14986 1.40088 0
M  V30 694 O 62.2423 5.05785 2.637 0
M  V30 695 O 61.1763 5.94906 0.914917 0
M  V30 696 H 65.0023 2.98607 -0.55388 0
M  V30 697 H 62.5873 1.45554 -0.336821 0
M  V30 698 H 64.4693 3.83459 1.74748 0
M  V30 699 H 63.1443 2.64465 1.86655 0
M  V30 700 H 62.0513 3.7368 -0.177271 0
M  V30 701 H 63.3843 4.91736 -0.213566 0
M  V30 702 N 65.0364 0.313813 1.54444 0
M  V30 703 C 66.3134 -0.345447 1.92525 0
M  V30 704 C 66.6934 -1.70667 1.24242 0
M  V30 705 O 66.0414 -2.25273 0.382654 0
M  V30 706 C 66.2514 -0.44737 3.46121 0
M  V30 707 C 67.5994 -0.712238 4.18584 0
M  V30 708 O 68.6234 -0.530678 3.52225 0
M  V30 709 O 67.4824 -1.06183 5.36085 0
M  V30 710 H 64.5764 -0.195407 0.803583 0
M  V30 711 H 67.1224 0.362813 1.65776 0
M  V30 712 H 65.8944 0.509043 3.87975 0
M  V30 713 H 65.5174 -1.20359 3.78945 0
M  V30 714 N 66.5145 -1.57545 0.0417849 0
M  V30 715 C 67.7635 -1.91494 -0.633492 0
M  V30 716 C 68.0765 -0.921084 -1.72556 0
M  V30 717 O 69.2825 -1.15228 -2.45835 0
M  V30 718 C 67.7385 -3.40072 -1.17808 0
M  V30 719 C 67.3465 -4.47843 -0.118633 0
M  V30 720 C 69.0905 -3.8307 -1.82915 0
M  V30 721 C 66.9975 -5.87529 -0.675578 0
M  V30 722 H 65.9275 -0.714653 -0.24039 0
M  V30 723 H 68.5785 -1.83175 0.109148 0
M  V30 724 H 66.9605 -3.43364 -1.97274 0
M  V30 725 H 68.1345 -4.56128 0.654494 0
M  V30 726 H 66.4495 -4.14128 0.434414 0
M  V30 727 H 69.0465 -4.84794 -2.25563 0
M  V30 728 H 69.3895 -3.1881 -2.67705 0
M  V30 729 H 69.9225 -3.82255 -1.10119 0
M  V30 730 H 66.6615 -6.55362 0.134475 0
M  V30 731 H 66.1815 -5.82824 -1.4169 0
M  V30 732 H 67.8605 -6.36491 -1.1614 0
M  V30 733 N 67.9926 0.231505 -1.5589 0
M  V30 734 C 69.2206 0.974505 -1.82513 0
M  V30 735 C 69.6356 1.78344 -0.619591 0
M  V30 736 O 68.9926 1.77792 0.411848 0
M  V30 737 C 69.0436 1.90007 -3.07538 0
M  V30 738 O 68.7646 1.12385 -4.2344 0
M  V30 739 C 70.2656 2.75779 -3.47075 0
M  V30 740 H 67.4856 0.286065 -0.606966 0
M  V30 741 H 70.0296 0.249739 -2.02969 0
M  V30 742 H 68.1846 2.57891 -2.89086 0
M  V30 743 H 68.5986 1.75125 -4.944 0
M  V30 744 H 70.0726 3.36443 -4.37619 0
M  V30 745 H 70.5496 3.47672 -2.68367 0
M  V30 746 H 71.1556 2.13323 -3.67931 0
M  V30 747 N 69.4707 1.49531 0.497807 0
M  V30 748 C 70.4337 1.65916 1.58128 0
M  V30 749 C 71.4337 0.530825 1.51786 0
M  V30 750 O 72.6237 0.797342 1.54881 0
M  V30 751 C 69.7557 1.65951 2.9778 0
M  V30 752 H 70.9487 2.62556 1.44929 0
M  V30 753 H 68.5017 1.38611 0.722275 0
M  V30 754 H 69.2367 0.709065 3.16453 0
M  V30 755 H 69.0217 2.47897 3.03792 0
M  V30 756 H 70.5117 1.80673 3.76493 0
M  V30 757 N 70.9488 -0.749086 1.3866 0
M  V30 758 C 72.1738 -1.54344 1.38538 0
M  V30 759 C 72.5988 -1.88088 -0.0216655 0
M  V30 760 O 71.9568 -1.50899 -1.00494 0
M  V30 761 C 72.0048 -2.8164 2.25192 0
M  V30 762 O 71.1088 -3.7698 1.67212 0
M  V30 763 H 70.4498 -0.466654 0.472367 0
M  V30 764 H 72.9798 -0.925355 1.82478 0
M  V30 765 H 72.9898 -3.30519 2.3921 0
M  V30 766 H 71.6648 -2.56411 3.27454 0
M  V30 767 H 70.2418 -3.35699 1.6236 0
M  V30 768 N 72.4269 -1.23603 -0.977757 0
M  V30 769 C 73.6519 -1.09735 -1.75991 0
M  V30 770 C 74.0769 0.346858 -1.84874 0
M  V30 771 O 73.4349 1.25093 -1.3123 0
M  V30 772 C 73.4829 -1.73051 -3.16363 0
M  V30 773 O 72.5869 -0.994452 -4.0023 0
M  V30 774 H 71.9279 -0.384476 -0.541364 0
M  V30 775 H 74.4579 -1.6371 -1.2272 0
M  V30 776 H 74.4679 -1.78398 -3.66931 0
M  V30 777 H 73.1429 -2.78137 -3.09213 0
M  V30 778 H 71.7199 -1.01812 -3.58732 0
M  V30 779 N 73.905 1.17692 -1.04816 0
M  V30 780 C 74.837 2.21103 -0.603822 0
M  V30 781 C 75.85 1.59411 0.33046 0
M  V30 782 O 77.039 1.7807 0.12379 0
M  V30 783 C 74.139 3.38623 0.136898 0
M  V30 784 C 73.312 4.29888 -0.807137 0
M  V30 785 C 72.371 5.26088 -0.10836 0
M  V30 786 O 71.397 5.64353 -0.741232 0
M  V30 787 N 72.599 5.68882 1.15558 0
M  V30 788 H 75.364 2.59848 -1.49329 0
M  V30 789 H 72.925 1.32553 -0.929587 0
M  V30 790 H 74.917 4.00009 0.614401 0
M  V30 791 H 73.487 2.98508 0.927993 0
M  V30 792 H 72.707 3.65993 -1.46434 0
M  V30 793 H 73.995 4.87759 -1.44807 0
M  V30 794 H 73.393 5.39861 1.69015 0
M  V30 795 H 71.95 6.32429 1.57722 0
M  V30 796 N 75.3831 0.828654 1.34056 0
M  V30 797 C 76.6291 0.429279 1.98818 0
M  V30 798 C 76.9841 -0.998011 1.64492 0
M  V30 799 O 76.2771 -1.68652 0.909228 0
M  V30 800 C 76.4711 0.575226 3.52741 0
M  V30 801 C 76.3001 2.01515 4.02022 0
M  V30 802 C 75.0701 2.64825 4.30344 0
M  V30 803 C 77.2681 2.98261 4.18981 0
M  V30 804 N 75.2501 3.99998 4.65698 0
M  V30 805 C 76.6211 4.18356 4.57578 0
M  V30 806 C 78.6761 2.94802 4.01243 0
M  V30 807 C 77.3791 5.35454 4.80293 0
M  V30 808 C 79.4051 4.11121 4.25128 0
M  V30 809 C 78.7671 5.29969 4.64018 0
M  V30 810 H 74.8661 0.205304 0.754569 0
M  V30 811 H 77.4501 1.07457 1.62361 0
M  V30 812 H 75.6211 -0.0401962 3.88379 0
M  V30 813 H 77.3531 0.148292 4.04428 0
M  V30 814 H 74.1081 2.16027 4.21461 0
M  V30 815 H 74.5321 4.69653 4.87601 0
M  V30 816 H 79.1741 2.04054 3.70299 0
M  V30 817 H 76.8921 6.26755 5.10102 0
M  V30 818 H 80.4781 4.0985 4.12934 0
M  V30 819 H 79.3581 6.18479 4.82134 0
M  V30 820 N 76.8612 -1.46375 0.584142 0
M  V30 821 C 78.0862 -2.07268 0.0740405 0
M  V30 822 C 78.5112 -1.42979 -1.22223 0
M  V30 823 O 77.8692 -0.514092 -1.73859 0
M  V30 824 C 77.9172 -3.60518 -0.0767769 0
M  V30 825 O 77.0212 -3.96533 -1.13292 0
M  V30 826 H 76.3622 -0.660961 0.0634524 0
M  V30 827 H 78.8922 -1.87991 0.807492 0
M  V30 828 H 78.9022 -4.07021 -0.282489 0
M  V30 829 H 77.5772 -4.06702 0.86986 0
M  V30 830 H 76.1542 -3.61738 -0.905553 0
M  V30 831 N 78.3393 -0.321999 -1.54275 0
M  V30 832 C 79.2493 0.553631 -2.27974 0
M  V30 833 C 80.2653 1.13054 -1.32268 0
M  V30 834 O 81.4413 1.15084 -1.6528 0
M  V30 835 C 78.5063 1.69927 -3.02201 0
M  V30 836 C 77.5673 1.15433 -4.1349 0
M  V30 837 C 76.8003 2.24537 -4.84168 0
M  V30 838 O 77.0233 3.44852 -4.5435 0
M  V30 839 O 75.9573 1.90044 -5.7111 0
M  V30 840 H 79.7833 -0.0448345 -3.03667 0
M  V30 841 H 77.3683 -0.0877418 -1.49142 0
M  V30 842 H 79.2503 2.3663 -3.48689 0
M  V30 843 H 77.9253 2.28395 -2.29385 0
M  V30 844 H 76.8323 0.452436 -3.71354 0
M  V30 845 H 78.1653 0.614805 -4.88345 0
M  V30 846 N 79.8174 1.5752 -0.0501392 0
M  V30 847 C 81.0424 1.97376 0.636997 0
M  V30 848 C 81.4674 0.927466 1.63645 0
M  V30 849 O 80.8254 -0.10941 1.8097 0
M  V30 850 C 80.8734 3.36304 1.30123 0
M  V30 851 O 79.9774 3.34156 2.41689 0
M  V30 852 H 79.3184 0.642998 0.165679 0
M  V30 853 H 81.8484 2.04258 -0.118233 0
M  V30 854 H 81.8584 3.73008 1.65315 0
M  V30 855 H 80.5334 4.11993 0.568746 0
M  V30 856 H 79.1104 3.09196 2.08451 0
M  V30 857 N 81.2955 -0.223234 1.56011 0
M  V30 858 C 82.5235 -0.964812 1.83027 0
M  V30 859 C 82.9385 -1.78013 0.62904 0
M  V30 860 O 82.2955 -1.78008 -0.402414 0
M  V30 861 C 82.3465 -1.88373 3.08542 0
M  V30 862 O 82.0675 -1.10137 4.2403 0
M  V30 863 C 83.5685 -2.73934 3.48533 0
M  V30 864 H 80.7885 -0.282842 0.608475 0
M  V30 865 H 83.3325 -0.238971 2.03099 0
M  V30 866 H 81.4875 -2.56354 2.9045 0
M  V30 867 H 81.9015 -1.72501 4.95322 0
M  V30 868 H 83.3755 -3.34117 4.39397 0
M  V30 869 H 83.8525 -3.46244 2.70207 0
M  V30 870 H 84.4585 -2.11369 3.69057 0
M  V30 871 N 82.7736 -1.49793 -0.48987 0
M  V30 872 C 83.7366 -1.66752 -1.57246 0
M  V30 873 C 84.7366 -0.538867 -1.51502 0
M  V30 874 O 85.9266 -0.805545 -1.54456 0
M  V30 875 C 83.0586 -1.67528 -2.96896 0
M  V30 876 H 84.2516 -2.63321 -1.43534 0
M  V30 877 H 81.8046 -1.38992 -0.714914 0
M  V30 878 H 82.5396 -0.725837 -3.16073 0
M  V30 879 H 82.3246 -2.49504 -3.02473 0
M  V30 880 H 83.8146 -1.82667 -3.7553 0
M  V30 881 N 84.2517 0.741722 -1.39055 0
M  V30 882 C 85.2147 1.83733 -1.37021 0
M  V30 883 C 86.2147 1.58542 -0.268534 0
M  V30 884 O 87.4047 1.66067 -0.526076 0
M  V30 885 C 84.5367 3.2141 -1.13617 0
M  V30 886 H 85.7297 1.86941 -2.34506 0
M  V30 887 H 83.2827 0.944676 -1.24521 0
M  V30 888 H 84.0177 3.23865 -0.167863 0
M  V30 889 H 83.8027 3.4109 -1.93391 0
M  V30 890 H 85.2927 4.01477 -1.14918 0
M  V30 891 N 85.7298 1.2412 0.971189 0
M  V30 892 C 86.6768 1.0305 2.06517 0
M  V30 893 C 87.6468 -0.0550666 1.66009 0
M  V30 894 O 88.8318 0.0988688 1.90544 0
M  V30 895 C 85.9718 0.637653 3.39158 0
M  V30 896 C 85.0848 1.79633 3.92882 0
M  V30 897 C 84.2198 1.34939 5.13775 0
M  V30 898 C 83.2588 2.47823 5.59687 0
M  V30 899 N 82.3958 2.04022 6.71803 0
M  V30 900 H 87.2358 1.96685 2.23873 0
M  V30 901 H 84.7728 0.979694 1.09729 0
M  V30 902 H 86.7308 0.390931 4.15364 0
M  V30 903 H 85.3608 -0.261693 3.21737 0
M  V30 904 H 84.4128 2.15681 3.13346 0
M  V30 905 H 85.7248 2.64466 4.22918 0
M  V30 906 H 84.8788 1.06134 5.97345 0
M  V30 907 H 83.6178 0.471557 4.85415 0
M  V30 908 H 82.6228 2.77392 4.74693 0
M  V30 909 H 83.8478 3.36158 5.90063 0
M  V30 910 H 81.7938 1.18632 6.45184 0
M  V30 911 H 81.7108 2.82409 7.01271 0
M  V30 912 H 82.9788 1.78347 7.58823 0
M  V30 913 N 87.2079 -1.17134 1.05439 0
M  V30 914 C 88.4379 -1.91094 0.785274 0
M  V30 915 C 88.8459 -1.77198 -0.663142 0
M  V30 916 O 88.1889 -1.10835 -1.46497 0
M  V30 917 C 88.2509 -3.42594 1.08949 0
M  V30 918 C 87.9149 -3.80274 2.53458 0
M  V30 919 C 88.9119 -3.82912 3.51673 0
M  V30 920 C 86.5969 -4.11162 2.88532 0
M  V30 921 C 88.5909 -4.15913 4.83006 0
M  V30 922 C 86.2779 -4.43831 4.20068 0
M  V30 923 C 87.2759 -4.46185 5.17115 0
M  V30 924 O 86.9639 -4.78083 6.46291 0
M  V30 925 H 86.6959 -0.613073 0.284811 0
M  V30 926 H 89.2499 -1.49461 1.40893 0
M  V30 927 H 87.4799 -3.84534 0.408741 0
M  V30 928 H 89.1689 -3.97817 0.805991 0
M  V30 929 H 89.9349 -3.5917 3.25917 0
M  V30 930 H 85.8139 -4.085 2.13656 0
M  V30 931 H 89.3579 -4.17665 5.5875 0
M  V30 932 H 85.2549 -4.67037 4.45586 0
M  V30 933 H 86.0229 -4.9593 6.51149 0
M  V30 934 N 88.686 -0.835752 -1.33615 0
M  V30 935 C 89.934 -0.429109 -1.97492 0
M  V30 936 C 90.255 1.01433 -1.66543 0
M  V30 937 O 89.525 1.70611 -0.962744 0
M  V30 938 H 88.105 -0.155686 -0.730596 0
M  V30 939 H 90.767 -1.06802 -1.63031 0
M  V30 940 H 89.863 -0.55861 -3.0706 0
M  V30 941 N 90.1641 1.46063 -0.591896 0
M  V30 942 C 91.5801 1.57561 -0.254288 0
M  V30 943 C 91.7801 1.58565 1.24336 0
M  V30 944 O 90.8361 1.50753 2.02558 0
M  V30 945 C 92.1491 2.86549 -0.911611 0
M  V30 946 C 93.6971 3.00197 -0.886059 0
M  V30 947 C 94.1721 4.31933 -1.5231 0
M  V30 948 N 95.6631 4.38654 -1.48786 0
M  V30 949 C 96.3981 5.39222 -1.95006 0
M  V30 950 N 95.8941 6.46414 -2.49241 0
M  V30 951 N 97.6871 5.3048 -1.85868 0
M  V30 952 H 89.8381 1.43655 -1.56451 0
M  V30 953 H 92.1011 0.68583 -0.654478 0
M  V30 954 H 91.8071 2.91651 -1.96551 0
M  V30 955 H 91.6811 3.74794 -0.425368 0
M  V30 956 H 94.0681 2.9467 0.159246 0
M  V30 957 H 94.1491 2.13403 -1.41041 0
M  V30 958 H 93.7931 4.38217 -2.56765 0
M  V30 959 H 93.7231 5.17516 -0.973891 0
M  V30 960 H 96.2141 3.61793 -1.09151 0
M  V30 961 H 96.5271 7.19376 -2.82344 0
M  V30 962 H 94.8721 6.47208 -2.53272 0
M  V30 963 H 98.0631 4.45643 -1.43248 0
M  V30 964 H 98.2361 6.08711 -2.22204 0
M  V30 965 N 91.6422 0.330177 1.54103 0
M  V30 966 C 92.5722 -0.525353 2.27513 0
M  V30 967 C 93.5532 -1.11383 1.2856 0
M  V30 968 O 94.7382 -1.13773 1.57383 0
M  V30 969 C 91.8682 -1.6831 3.03791 0
M  V30 970 C 90.8222 -1.2236 4.10137 0
M  V30 971 C 90.1482 -2.46882 4.74293 0
M  V30 972 C 91.4482 -0.333697 5.21233 0
M  V30 973 H 93.1422 0.087013 2.99274 0
M  V30 974 H 90.6882 0.0432893 1.43935 0
M  V30 975 H 92.6412 -2.28795 3.5388 0
M  V30 976 H 91.3652 -2.32216 2.29659 0
M  V30 977 H 90.0242 -0.64165 3.60941 0
M  V30 978 H 89.6722 -3.09165 3.96769 0
M  V30 979 H 89.3722 -2.16825 5.46133 0
M  V30 980 H 90.8962 -3.08117 5.27159 0
M  V30 981 H 92.3102 -0.845013 5.67038 0
M  V30 982 H 90.7072 -0.125612 5.99969 0
M  V30 983 H 91.7772 0.633724 4.80741 0
M  V30 984 N 93.1203 -1.57491 0.0584922 0
M  V30 985 C 94.3973 -1.84346 -0.653918 0
M  V30 986 C 94.7773 -0.948355 -1.88599 0
M  V30 987 O 94.1253 -0.0112403 -2.28497 0
M  V30 988 C 94.3353 -3.34239 -1.00425 0
M  V30 989 C 95.6833 -4.01431 -1.38342 0
M  V30 990 O 96.7073 -3.38907 -1.09637 0
M  V30 991 O 95.5663 -5.11683 -1.91943 0
M  V30 992 H 92.6603 -0.761112 -0.323478 0
M  V30 993 H 95.2063 -1.6947 0.0884125 0
M  V30 994 H 93.9783 -3.91089 -0.128625 0
M  V30 995 H 93.6013 -3.54329 -1.80378 0
M  V30 996 N 94.5984 0.214957 -1.56127 0
M  V30 997 C 95.8234 0.95924 -1.83884 0
M  V30 998 C 96.2484 1.7689 -0.639644 0
M  V30 999 O 95.6064 1.76566 0.411601 0
M  V30 1000 C 95.6544 1.84723 -3.09693 0
M  V30 1001 O 94.7584 2.94346 -2.8885 0
M  V30 1002 H 94.0994 0.27125 -0.606069 0
M  V30 1003 H 96.6294 0.226276 -2.03345 0
M  V30 1004 H 96.6394 2.25576 -3.39969 0
M  V30 1005 H 95.3144 1.25218 -3.96602 0
M  V30 1006 H 93.8914 2.57391 -2.69823 0
M  V30 1007 N 96.0765 1.50051 0.48192 0
M  V30 1008 C 96.9865 1.7089 1.60728 0
M  V30 1009 C 98.0025 0.591788 1.63627 0
M  V30 1010 O 99.1785 0.868817 1.81696 0
M  V30 1011 C 96.2435 1.78855 2.97005 0
M  V30 1012 C 95.3045 3.02537 3.04581 0
M  V30 1013 C 94.5375 3.10112 4.34357 0
M  V30 1014 O 94.7605 2.24765 5.24249 0
M  V30 1015 O 93.6945 4.02747 4.47301 0
M  V30 1016 H 97.5205 2.66264 1.46072 0
M  V30 1017 H 95.1055 1.34018 0.660264 0
M  V30 1018 H 96.9875 1.86336 3.77964 0
M  V30 1019 H 95.6625 0.866628 3.11883 0
M  V30 1020 H 94.5695 3.00563 2.22739 0
M  V30 1021 H 95.9025 3.94272 2.94636 0
M  V30 1022 N 97.5546 -0.734337 1.39446 0
M  V30 1023 C 98.4646 -1.87879 1.40495 0
M  V30 1024 C 99.4806 -1.714 0.299672 0
M  V30 1025 O 100.657 -1.93991 0.541249 0
M  V30 1026 C 97.7216 -3.23477 1.24754 0
M  V30 1027 C 96.7826 -3.52344 2.45259 0
M  V30 1028 C 96.0156 -4.81473 2.30259 0
M  V30 1029 O 96.2386 -5.55237 1.30643 0
M  V30 1030 O 95.1726 -5.10254 3.19256 0
M  V30 1031 H 98.9986 -1.89949 2.36966 0
M  V30 1032 H 96.5836 -0.882243 1.20569 0
M  V30 1033 H 98.4656 -4.04509 1.18111 0
M  V30 1034 H 97.1406 -3.22176 0.313781 0
M  V30 1035 H 96.0476 -2.71396 2.57478 0
M  V30 1036 H 97.3806 -3.58426 3.37331 0
M  V30 1037 N 99.0327 -1.24633 -0.964593 0
M  V30 1038 C 100.281 -1.08573 -1.70459 0
M  V30 1039 C 100.602 0.375655 -1.91347 0
M  V30 1040 O 99.8717 1.26779 -1.49345 0
M  V30 1041 H 98.4517 -0.398784 -0.631649 0
M  V30 1042 H 101.114 -1.56601 -1.16026 0
M  V30 1043 H 100.21 -1.58623 -2.68785 0
M  V30 1044 N 100.511 1.16574 -1.06058 0
M  V30 1045 C 101.788 1.83048 -0.689416 0
M  V30 1046 C 102.168 1.94122 0.829443 0
M  V30 1047 O 101.516 1.48249 1.7388 0
M  V30 1048 C 101.726 3.20186 -1.38859 0
M  V30 1049 C 103.074 3.95989 -1.53226 0
M  V30 1050 O 104.098 3.29696 -1.3483 0
M  V30 1051 O 102.957 5.14813 -1.83384 0
M  V30 1052 H 100.051 0.790258 -0.243764 0
M  V30 1053 H 102.597 1.23797 -1.16071 0
M  V30 1054 H 101.369 3.07146 -2.4244 0
M  V30 1055 H 100.992 3.87112 -0.907216 0
M  V30 1056 N 101.989 0.842826 1.3317 0
M  V30 1057 C 103.237 0.439577 1.97262 0
M  V30 1058 C 103.558 -1.00548 1.67078 0
M  V30 1059 O 102.828 -1.70098 0.971779 0
M  V30 1060 H 101.408 0.159558 0.72976 0
M  V30 1061 H 104.07 1.07665 1.62463 0
M  V30 1062 H 103.166 0.574886 3.0676 0
M  V30 1063 N 103.467 -1.45747 0.599634 0
M  V30 1064 C 104.43 -2.28917 -0.113835 0
M  V30 1065 C 105.43 -1.3933 -0.802729 0
M  V30 1066 O 106.62 -1.61534 -0.652103 0
M  V30 1067 C 103.752 -3.20152 -1.17114 0
M  V30 1068 H 104.945 -2.93478 0.617289 0
M  V30 1069 H 102.498 -1.52137 0.358327 0
M  V30 1070 H 103.233 -2.60374 -1.93329 0
M  V30 1071 H 103.018 -3.86133 -0.681468 0
M  V30 1072 H 104.508 -3.82708 -1.67105 0
M  V30 1073 N 104.945 -0.338344 -1.53925 0
M  V30 1074 C 106.191 0.252842 -2.01822 0
M  V30 1075 C 106.546 1.48612 -1.22197 0
M  V30 1076 O 105.839 1.89238 -0.299892 0
M  V30 1077 C 106.033 0.62448 -3.51902 0
M  V30 1078 C 105.862 -0.571235 -4.46057 0
M  V30 1079 C 104.632 -1.07493 -4.93734 0
M  V30 1080 C 106.83 -1.42807 -4.94076 0
M  V30 1081 N 104.812 -2.23351 -5.71828 0
M  V30 1082 C 106.183 -2.43362 -5.70241 0
M  V30 1083 C 108.238 -1.45412 -4.76193 0
M  V30 1084 C 106.941 -3.46346 -6.30426 0
M  V30 1085 C 108.967 -2.47274 -5.37224 0
M  V30 1086 C 108.329 -3.46555 -6.13253 0
M  V30 1087 H 104.428 0.0559669 -0.779995 0
M  V30 1088 H 107.012 -0.476732 -1.88773 0
M  V30 1089 H 105.183 1.32317 -3.65167 0
M  V30 1090 H 106.915 1.19841 -3.86549 0
M  V30 1091 H 103.67 -0.643848 -4.69203 0
M  V30 1092 H 104.094 -2.81834 -6.15548 0
M  V30 1093 H 108.736 -0.700171 -4.16962 0
M  V30 1094 H 106.454 -4.22638 -6.88769 0
M  V30 1095 H 110.04 -2.50109 -5.25297 0
M  V30 1096 H 108.92 -4.24083 -6.59638 0
M  V30 1097 N 106.423 1.57458 -0.0668435 0
M  V30 1098 C 107.663 1.95175 0.607116 0
M  V30 1099 C 108.027 0.946039 1.67075 0
M  V30 1100 O 109.228 1.2107 2.39991 0
M  V30 1101 C 107.499 3.37582 1.17358 0
M  V30 1102 S 109.058 3.97271 1.86336 0
M  V30 1103 H 105.876 0.682604 0.19893 0
M  V30 1104 H 108.478 1.95002 -0.139519 0
M  V30 1105 H 107.182 4.08566 0.387553 0
M  V30 1106 H 106.713 3.41288 1.95669 0
M  V30 1107 H 108.728 3.83772 3.14537 0
M  V30 1108 N 107.901 -0.206675 1.56239 0
M  V30 1109 C 109.312 -0.772383 1.69974 0
M  V30 1110 C 109.663 -1.84353 0.671436 0
M  V30 1111 O 108.788 -2.15695 -0.174491 0
M  V30 1112 C 109.383 -1.40779 3.08167 0
M  V30 1113 C 107.942 -1.92072 3.23706 0
M  V30 1114 C 107.089 -0.786347 2.65917 0
M  V30 1115 H 110.04 0.0182223 1.5869 0
M  V30 1116 H 110.061 -2.27696 3.04852 0
M  V30 1117 H 109.573 -0.627958 3.82986 0
M  V30 1118 H 107.674 -2.7281 2.53782 0
M  V30 1119 H 107.787 -2.09046 4.31087 0
M  V30 1120 H 106.151 -1.1976 2.24788 0
M  V30 1121 H 106.934 -0.0189416 3.43295 0
M  V30 1122 N 109.379 -1.50304 -0.473955 0
M  V30 1123 C 110.289 -1.7174 -1.5982 0
M  V30 1124 C 111.305 -0.600457 -1.63311 0
M  V30 1125 O 112.481 -0.878441 -1.81233 0
M  V30 1126 C 109.546 -1.80427 -2.96052 0
M  V30 1127 C 108.607 -3.04148 -3.02972 0
M  V30 1128 C 107.84 -3.12411 -4.32706 0
M  V30 1129 O 108.063 -2.27542 -5.23049 0
M  V30 1130 O 106.997 -4.05113 -4.45159 0
M  V30 1131 H 110.823 -2.67035 -1.44657 0
M  V30 1132 H 108.408 -1.34366 -0.653148 0
M  V30 1133 H 110.29 -1.88338 -3.7697 0
M  V30 1134 H 108.965 -0.883156 -3.11419 0
M  V30 1135 H 107.872 -3.0174 -2.21142 0
M  V30 1136 H 109.205 -3.95829 -2.92541 0
M  V30 1137 N 110.857 0.726932 -1.39834 0
M  V30 1138 C 112.106 1.48214 -1.36805 0
M  V30 1139 C 112.419 1.95576 0.0305291 0
M  V30 1140 O 113.625 2.7088 0.183417 0
M  V30 1141 C 112.081 2.67854 -2.40379 0
M  V30 1142 C 111.689 2.27408 -3.85992 0
M  V30 1143 C 113.433 3.45641 -2.46439 0
M  V30 1144 C 111.34 3.43819 -4.81189 0
M  V30 1145 H 110.27 0.556606 -0.508631 0
M  V30 1146 H 112.921 0.792216 -1.65518 0
M  V30 1147 H 111.303 3.3896 -2.04749 0
M  V30 1148 H 112.477 1.63795 -4.30706 0
M  V30 1149 H 110.792 1.62692 -3.83302 0
M  V30 1150 H 113.389 4.32244 -3.14753 0
M  V30 1151 H 113.732 3.88669 -1.49139 0
M  V30 1152 H 114.265 2.8157 -2.81004 0
M  V30 1153 H 111.004 3.05834 -5.79781 0
M  V30 1154 H 110.524 4.06385 -4.41148 0
M  V30 1155 H 112.203 4.10043 -5.00474 0
M  V30 1156 N 112.336 1.25143 0.95797 0
M  V30 1157 C 113.747 1.08851 1.51685 0
M  V30 1158 C 114.098 -0.33687 1.93286 0
M  V30 1159 O 113.223 -1.22644 1.7829 0
M  V30 1160 C 113.818 1.96978 2.75654 0
M  V30 1161 C 112.377 1.84881 3.27866 0
M  V30 1162 C 111.524 1.91329 2.0072 0
M  V30 1163 H 114.475 1.38478 0.77522 0
M  V30 1164 H 114.496 1.5078 3.4935 0
M  V30 1165 H 114.008 3.00712 2.45345 0
M  V30 1166 H 112.109 0.840182 3.63004 0
M  V30 1167 H 112.222 2.6951 3.96107 0
M  V30 1168 H 110.586 1.35174 2.15871 0
M  V30 1169 H 111.369 2.96661 1.72764 0
M  V30 1170 N 113.814 -1.1601 1.06675 0
M  V30 1171 C 115.06 -1.86909 0.786945 0
M  V30 1172 C 115.393 -1.81717 -0.685018 0
M  V30 1173 O 114.668 -1.23551 -1.50218 0
M  V30 1174 C 114.951 -3.36313 1.28707 0
M  V30 1175 C 114.804 -3.50175 2.82308 0
M  V30 1176 C 116.123 -4.3084 0.898071 0
M  V30 1177 H 113.242 -0.678677 0.287343 0
M  V30 1178 H 115.884 -1.36336 1.32334 0
M  V30 1179 H 114.034 -3.79513 0.830768 0
M  V30 1180 H 115.706 -3.15886 3.36175 0
M  V30 1181 H 113.949 -2.91959 3.20847 0
M  V30 1182 H 114.62 -4.55116 3.12368 0
M  V30 1183 H 117.096 -3.95561 1.29114 0
M  V30 1184 H 115.972 -5.33876 1.27543 0
M  V30 1185 H 116.233 -4.41662 -0.196651 0
M  V30 1186 N 115.292 -0.849877 -1.32721 0
M  V30 1187 C 116.202 -0.293791 -2.32753 0
M  V30 1188 C 117.218 0.585906 -1.63839 0
M  V30 1189 O 118.394 0.487413 -1.95413 0
M  V30 1190 C 115.459 0.512752 -3.42887 0
M  V30 1191 C 114.52 -0.39252 -4.27502 0
M  V30 1192 C 113.753 0.375625 -5.32377 0
M  V30 1193 O 113.976 1.60613 -5.4732 0
M  V30 1194 O 112.91 -0.256094 -6.01355 0
M  V30 1195 H 116.736 -1.12242 -2.82197 0
M  V30 1196 H 114.321 -0.612685 -1.36259 0
M  V30 1197 H 116.203 0.970704 -4.10067 0
M  V30 1198 H 114.878 1.31826 -2.95641 0
M  V30 1199 H 113.785 -0.898547 -3.63149 0
M  V30 1200 H 115.118 -1.16309 -4.7826 0
M  V30 1201 N 116.77 1.45427 -0.607355 0
M  V30 1202 C 118.181 1.85756 -0.187535 0
M  V30 1203 C 118.532 1.5077 1.25551 0
M  V30 1204 O 117.657 0.93427 1.95193 0
M  V30 1205 C 118.252 3.37154 -0.333572 0
M  V30 1206 C 116.811 3.76387 0.0315542 0
M  V30 1207 C 115.958 2.69377 -0.658117 0
M  V30 1208 H 118.909 1.36231 -0.81405 0
M  V30 1209 H 118.93 3.78014 0.43428 0
M  V30 1210 H 118.442 3.62586 -1.38393 0
M  V30 1211 H 116.543 3.56571 1.0811 0
M  V30 1212 H 116.656 4.77731 -0.361935 0
M  V30 1213 H 115.02 2.5452 -0.0957873 0
M  V30 1214 H 115.803 2.97646 -1.7106 0
M  V30 1215 N 118.248 0.346503 1.53744 0
M  V30 1216 C 119.525 -0.304532 1.93215 0
M  V30 1217 C 119.905 -1.67993 1.27834 0
M  V30 1218 O 119.253 -2.24411 0.430352 0
M  V30 1219 C 119.463 -0.373852 3.46992 0
M  V30 1220 C 120.811 -0.62329 4.2 0
M  V30 1221 O 121.835 -0.455847 3.53271 0
M  V30 1222 O 120.694 -0.947879 5.38217 0
M  V30 1223 H 117.788 -0.178318 0.807547 0
M  V30 1224 H 120.334 0.397895 1.64969 0
M  V30 1225 H 119.106 0.591224 3.86808 0
M  V30 1226 H 118.729 -1.12294 3.81413 0
M  V30 1227 N 119.726 -1.57421 0.075193 0
M  V30 1228 C 121.003 -1.85029 -0.634329 0
M  V30 1229 C 121.383 -0.968305 -1.87582 0
M  V30 1230 O 120.731 -0.0354749 -2.28472 0
M  V30 1231 C 120.941 -3.35286 -0.968742 0
M  V30 1232 C 122.289 -4.02875 -1.34077 0
M  V30 1233 O 123.313 -3.40051 -1.06037 0
M  V30 1234 O 122.172 -5.13691 -1.86506 0
M  V30 1235 H 119.266 -0.7645 -0.315387 0
M  V30 1236 H 121.812 -1.69366 0.106382 0
M  V30 1237 H 120.584 -3.91203 -0.0871376 0
M  V30 1238 H 120.207 -3.56223 -1.7661 0
M  V30 1239 N 121.204 0.198386 -1.56346 0
M  V30 1240 C 122.134 1.24865 -1.9731 0
M  V30 1241 C 123.115 1.47651 -0.844576 0
M  V30 1242 O 124.3 1.59444 -1.10866 0
M  V30 1243 C 121.43 2.59358 -2.30977 0
M  V30 1244 C 120.384 2.5119 -3.46537 0
M  V30 1245 C 119.71 3.89926 -3.65871 0
M  V30 1246 C 121.01 2.03977 -4.80823 0
M  V30 1247 H 122.704 0.908252 -2.85291 0
M  V30 1248 H 120.25 0.435462 -1.37258 0
M  V30 1249 H 122.203 3.33011 -2.58228 0
M  V30 1250 H 120.927 2.95132 -1.39874 0
M  V30 1251 H 119.586 1.79993 -3.19371 0
M  V30 1252 H 119.234 4.23046 -2.72105 0
M  V30 1253 H 118.934 3.85336 -4.4361 0
M  V30 1254 H 120.458 4.65205 -3.95495 0
M  V30 1255 H 121.872 2.67386 -5.07127 0
M  V30 1256 H 120.269 2.10397 -5.62008 0
M  V30 1257 H 121.339 0.992861 -4.74626 0
M  V30 1258 N 122.682 1.50554 0.465978 0
M  V30 1259 C 123.629 1.6979 1.56333 0
M  V30 1260 C 124.599 0.539239 1.57103 0
M  V30 1261 O 125.784 0.770401 1.74555 0
M  V30 1262 C 122.924 1.80273 2.94271 0
M  V30 1263 C 122.037 3.07674 3.0325 0
M  V30 1264 C 121.172 3.08922 4.32135 0
M  V30 1265 C 120.211 4.30755 4.34875 0
M  V30 1266 N 119.348 4.29714 5.55239 0
M  V30 1267 H 124.188 2.63472 1.39235 0
M  V30 1268 H 121.725 1.30602 0.676873 0
M  V30 1269 H 123.683 1.84332 3.74269 0
M  V30 1270 H 122.313 0.900258 3.09992 0
M  V30 1271 H 121.365 3.13062 2.16094 0
M  V30 1272 H 122.677 3.97642 3.01135 0
M  V30 1273 H 121.831 3.11738 5.20485 0
M  V30 1274 H 120.57 2.16792 4.36866 0
M  V30 1275 H 119.575 4.28146 3.44922 0
M  V30 1276 H 120.8 5.24117 4.31831 0
M  V30 1277 H 118.746 3.4044 5.60746 0
M  V30 1278 H 118.663 5.13456 5.54886 0
M  V30 1279 H 119.931 4.36683 6.457 0
M  V30 1280 N 124.16 -0.719506 1.40217 0
M  V30 1281 C 125.07 -1.86378 1.42479 0
M  V30 1282 C 126.086 -1.71073 0.317834 0
M  V30 1283 O 127.262 -1.93406 0.561794 0
M  V30 1284 C 124.327 -3.22136 1.28178 0
M  V30 1285 C 123.388 -3.49723 2.48982 0
M  V30 1286 C 122.621 -4.79004 2.35353 0
M  V30 1287 O 122.844 -5.53821 1.36524 0
M  V30 1288 O 121.778 -5.06839 3.2465 0
M  V30 1289 H 125.604 -1.87425 2.38968 0
M  V30 1290 H 123.189 -0.869405 1.21498 0
M  V30 1291 H 125.071 -4.03234 1.22395 0
M  V30 1292 H 123.746 -3.21825 0.347934 0
M  V30 1293 H 122.653 -2.6865 2.60342 0
M  V30 1294 H 123.986 -3.54828 3.41113 0
M  V30 1295 N 125.638 -1.25649 -0.95132 0
M  V30 1296 C 126.885 -1.10594 -1.69633 0
M  V30 1297 C 127.213 0.352515 -1.91279 0
M  V30 1298 O 126.468 1.27601 -1.4838 0
M  V30 1299 C 126.767 -1.80909 -3.08231 0
M  V30 1300 C 126.433 -3.30825 -3.06375 0
M  V30 1301 C 125.095 -3.71722 -3.05576 0
M  V30 1302 C 127.447 -4.26589 -2.99452 0
M  V30 1303 C 124.775 -5.06788 -2.95606 0
M  V30 1304 C 127.127 -5.61683 -2.91024 0
M  V30 1305 C 125.791 -6.01904 -2.88562 0
M  V30 1306 H 125.061 -0.404691 -0.620731 0
M  V30 1307 H 127.708 -1.55964 -1.11119 0
M  V30 1308 H 126.013 -1.27979 -3.70309 0
M  V30 1309 H 127.71 -1.6671 -3.64704 0
M  V30 1310 H 124.3 -2.98287 -3.07771 0
M  V30 1311 H 128.484 -3.95982 -2.99185 0
M  V30 1312 H 123.74 -5.37126 -2.92071 0
M  V30 1313 H 127.914 -6.35578 -2.84629 0
M  V30 1314 H 125.541 -7.06521 -2.80593 0
M  V30 1315 N 127.117 1.15442 -1.07289 0
M  V30 1316 C 128.047 2.22312 -0.714107 0
M  V30 1317 C 129.028 1.67467 0.298155 0
M  V30 1318 O 130.213 1.93445 0.171048 0
M  V30 1319 C 127.343 3.47124 -0.110448 0
M  V30 1320 C 126.297 4.14926 -1.04979 0
M  V30 1321 C 125.623 5.33807 -0.308924 0
M  V30 1322 C 126.923 4.64762 -2.38314 0
M  V30 1323 H 128.617 2.5258 -1.6076 0
M  V30 1324 H 126.163 1.21404 -0.77441 0
M  V30 1325 H 128.116 4.21124 0.152482 0
M  V30 1326 H 126.84 3.16187 0.81812 0
M  V30 1327 H 125.499 3.42866 -1.29764 0
M  V30 1328 H 125.147 4.99126 0.623084 0
M  V30 1329 H 124.847 5.80113 -0.935036 0
M  V30 1330 H 126.371 6.10576 -0.0537771 0
M  V30 1331 H 127.785 5.30292 -2.1786 0
M  V30 1332 H 126.182 5.21728 -2.96514 0
M  V30 1333 H 127.252 3.80434 -3.00663 0
M  V30 1334 N 128.595 0.856903 1.32268 0
M  V30 1335 C 129.527 0.260412 2.27716 0
M  V30 1336 C 130.54 -0.569137 1.52528 0
M  V30 1337 O 131.729 -0.39326 1.74114 0
M  V30 1338 C 128.829 -0.650477 3.32599 0
M  V30 1339 C 128.002 0.14372 4.37164 0
M  V30 1340 C 127.061 -0.69328 5.21613 0
M  V30 1341 O 126.087 -0.12599 5.69061 0
M  V30 1342 N 127.289 -2.00761 5.44679 0
M  V30 1343 H 130.054 1.08059 2.79541 0
M  V30 1344 H 127.615 0.717103 1.45152 0
M  V30 1345 H 129.607 -1.21581 3.86005 0
M  V30 1346 H 128.177 -1.37133 2.80915 0
M  V30 1347 H 127.397 0.890486 3.8401 0
M  V30 1348 H 128.685 0.68915 5.04111 0
M  V30 1349 H 128.083 -2.49181 5.07863 0
M  V30 1350 H 126.64 -2.52103 6.01072 0
M  V30 1351 N 130.073 -1.45103 0.615059 0
M  V30 1352 C 131.322 -2.01396 0.110718 0
M  V30 1353 C 131.635 -1.48834 -1.26916 0
M  V30 1354 O 132.841 -1.97152 -1.86664 0
M  V30 1355 C 131.297 -3.59599 0.14723 0
M  V30 1356 C 130.905 -4.21158 1.52743 0
M  V30 1357 C 132.649 -4.23428 -0.30148 0
M  V30 1358 C 130.556 -5.71535 1.51992 0
M  V30 1359 H 129.486 -0.753061 0.0376241 0
M  V30 1360 H 132.137 -1.66494 0.77149 0
M  V30 1361 H 130.519 -3.91724 -0.580339 0
M  V30 1362 H 131.693 -4.00594 2.2773 0
M  V30 1363 H 130.008 -3.69552 1.91886 0
M  V30 1364 H 132.605 -5.33703 -0.326392 0
M  V30 1365 H 132.948 -3.94629 -1.32565 0
M  V30 1366 H 133.481 -3.96047 0.373065 0
M  V30 1367 H 130.22 -6.05044 2.52193 0
M  V30 1368 H 129.74 -5.94268 0.81274 0
M  V30 1369 H 131.419 -6.34873 1.24681 0
M  V30 1370 N 131.551 -0.354651 -1.53558 0
M  V30 1371 C 132.828 0.294281 -1.93374 0
M  V30 1372 C 133.208 1.67313 -1.28723 0
M  V30 1373 O 132.556 2.24179 -0.442247 0
M  V30 1374 C 132.766 0.355445 -3.47185 0
M  V30 1375 C 134.114 0.601007 -4.20325 0
M  V30 1376 O 135.138 0.437106 -3.53508 0
M  V30 1377 O 133.997 0.919322 -5.38712 0
M  V30 1378 H 131.091 0.174033 -0.808481 0
M  V30 1379 H 133.637 -0.406638 -1.64756 0
M  V30 1380 H 132.409 -0.611729 -3.86489 0
M  V30 1381 H 132.032 1.1027 -3.82003 0
M  V30 1382 N 133.029 1.57378 -0.0835403 0
M  V30 1383 C 133.959 2.1641 0.87686 0
M  V30 1384 C 134.94 1.09429 1.30228 0
M  V30 1385 O 136.125 1.37516 1.37124 0
M  V30 1386 C 133.255 2.73517 2.14022 0
M  V30 1387 C 132.209 3.85769 1.85381 0
M  V30 1388 C 131.535 4.29529 3.18448 0
M  V30 1389 C 132.835 5.09486 1.14984 0
M  V30 1390 H 134.529 2.96914 0.385059 0
M  V30 1391 H 132.075 1.42823 0.18377 0
M  V30 1392 H 134.028 3.13463 2.81636 0
M  V30 1393 H 132.752 1.90252 2.65465 0
M  V30 1394 H 131.411 3.46345 1.20169 0
M  V30 1395 H 131.059 3.43169 3.67755 0
M  V30 1396 H 130.759 5.05204 3.00071 0
M  V30 1397 H 132.283 4.72099 3.8724 0
M  V30 1398 H 133.697 5.46674 1.72687 0
M  V30 1399 H 132.094 5.90515 1.06826 0
M  V30 1400 H 133.164 4.84724 0.130749 0
M  V30 1401 N 134.507 -0.190092 1.56449 0
M  V30 1402 C 135.457 -1.23977 1.91347 0
M  V30 1403 C 136.441 -1.40747 0.779693 0
M  V30 1404 O 137.633 -1.43033 1.04262 0
M  V30 1405 C 134.762 -2.58347 2.26079 0
M  V30 1406 C 133.848 -2.4535 3.45925 0
M  V30 1407 N 134.239 -2.02039 4.63696 0
M  V30 1408 C 132.537 -2.76229 3.50162 0
M  V30 1409 C 133.238 -2.01053 5.4585 0
M  V30 1410 N 132.214 -2.42747 4.8639 0
M  V30 1411 H 136.016 -0.896318 2.79899 0
M  V30 1412 H 133.53 -0.398496 1.57435 0
M  V30 1413 H 135.527 -3.34173 2.49267 0
M  V30 1414 H 134.187 -2.93512 1.38856 0
M  V30 1415 H 135.198 -1.7267 4.88268 0
M  V30 1416 H 131.875 -3.15556 2.73369 0
M  V30 1417 H 133.265 -1.69426 6.50188 0
M  V30 1418 N 135.985 -1.50799 -0.457987 0
M  V30 1419 C 137.213 -1.66218 -1.23203 0
M  V30 1420 C 137.628 -0.350894 -1.85511 0
M  V30 1421 O 136.985 0.668546 -1.69814 0
M  V30 1422 C 137.036 -2.76291 -2.33121 0
M  V30 1423 O 136.757 -4.02338 -1.73366 0
M  V30 1424 C 138.258 -3.028 -3.2377 0
M  V30 1425 H 135.478 -0.558361 -0.372121 0
M  V30 1426 H 138.022 -1.97099 -0.545179 0
M  V30 1427 H 136.177 -2.48068 -2.97558 0
M  V30 1428 H 136.591 -4.63312 -2.4585 0
M  V30 1429 H 138.065 -3.8345 -3.97077 0
M  V30 1430 H 138.542 -2.14385 -3.83322 0
M  V30 1431 H 139.148 -3.32604 -2.65056 0
M  V30 1432 N 137.463 0.71206 -1.40597 0
M  V30 1433 C 138.393 1.83889 -1.43899 0
M  V30 1434 C 139.374 1.67442 -0.299504 0
M  V30 1435 O 140.559 1.87421 -0.508624 0
M  V30 1436 C 137.689 3.21877 -1.30431 0
M  V30 1437 C 136.643 3.53002 -2.42019 0
M  V30 1438 C 135.969 4.90172 -2.13626 0
M  V30 1439 C 137.269 3.53643 -3.84362 0
M  V30 1440 H 138.963 1.81383 -2.38203 0
M  V30 1441 H 136.509 0.871237 -1.14654 0
M  V30 1442 H 138.462 4.00404 -1.31357 0
M  V30 1443 H 137.186 3.24968 -0.326049 0
M  V30 1444 H 135.845 2.76818 -2.40349 0
M  V30 1445 H 135.493 4.89869 -1.14182 0
M  V30 1446 H 135.193 5.11962 -2.88389 0
M  V30 1447 H 136.717 5.71028 -2.1624 0
M  V30 1448 H 138.131 4.22203 -3.87837 0
M  V30 1449 H 136.528 3.86961 -4.58673 0
M  V30 1450 H 137.598 2.52954 -4.13693 0
M  V30 1451 N 138.941 1.26152 0.944643 0
M  V30 1452 C 139.891 1.04081 2.02857 0
M  V30 1453 C 140.875 -0.0256555 1.6088 0
M  V30 1454 O 142.067 0.190884 1.75968 0
M  V30 1455 C 139.196 0.672118 3.36656 0
M  V30 1456 C 138.282 1.77586 3.85128 0
M  V30 1457 N 138.673 3.01272 4.06287 0
M  V30 1458 C 136.971 1.65867 4.1401 0
M  V30 1459 C 137.672 3.72983 4.46384 0
M  V30 1460 N 136.648 3.00653 4.52889 0
M  V30 1461 H 140.45 1.97968 2.17223 0
M  V30 1462 H 137.964 1.16618 1.13022 0
M  V30 1463 H 139.961 0.495166 4.13949 0
M  V30 1464 H 138.621 -0.259307 3.23663 0
M  V30 1465 H 139.632 3.37213 3.93075 0
M  V30 1466 H 136.309 0.796907 4.09824 0
M  V30 1467 H 137.699 4.792 4.70975 0
M  V30 1468 N 140.419 -1.14872 1.07899 0
M  V30 1469 C 141.666 -1.85789 0.805532 0
M  V30 1470 C 141.994 -1.82649 -0.668561 0
M  V30 1471 O 141.249 -1.24858 -1.50695 0
M  V30 1472 C 141.548 -3.34223 1.26609 0
M  V30 1473 C 141.214 -3.57555 2.74709 0
M  V30 1474 C 139.876 -3.63631 3.1516 0
M  V30 1475 C 142.228 -3.66803 3.70277 0
M  V30 1476 C 139.556 -3.76473 4.49983 0
M  V30 1477 C 141.908 -3.8117 5.04869 0
M  V30 1478 C 140.572 -3.85494 5.44932 0
M  V30 1479 H 139.842 -0.679849 0.294765 0
M  V30 1480 H 142.489 -1.3572 1.35101 0
M  V30 1481 H 140.794 -3.86536 0.640103 0
M  V30 1482 H 142.491 -3.87511 1.03132 0
M  V30 1483 H 139.081 -3.5347 2.42398 0
M  V30 1484 H 143.265 -3.61404 3.40149 0
M  V30 1485 H 138.521 -3.7808 4.80484 0
M  V30 1486 H 142.695 -3.87268 5.78789 0
M  V30 1487 H 140.322 -3.95197 6.49403 0
M  V30 1488 N 141.898 -0.863906 -1.31812 0
M  V30 1489 C 143.147 -0.46801 -1.96195 0
M  V30 1490 C 143.46 0.983474 -1.69077 0
M  V30 1491 O 144.666 1.48523 -2.27273 0
M  V30 1492 C 143.122 -0.785995 -3.51212 0
M  V30 1493 C 142.73 -2.25383 -3.87178 0
M  V30 1494 C 144.474 -0.458274 -4.22019 0
M  V30 1495 C 142.381 -2.51455 -5.3528 0
M  V30 1496 H 141.311 -0.171283 -0.734287 0
M  V30 1497 H 143.962 -1.05597 -1.50072 0
M  V30 1498 H 142.344 -0.127359 -3.95795 0
M  V30 1499 H 143.518 -2.95502 -3.53575 0
M  V30 1500 H 141.833 -2.54698 -3.2942 0
M  V30 1501 H 144.43 -0.630369 -5.30971 0
M  V30 1502 H 144.773 0.600834 -4.11941 0
M  V30 1503 H 145.306 -1.07319 -3.8305 0
M  V30 1504 H 142.045 -3.56025 -5.50387 0
M  V30 1505 H 141.565 -1.85923 -5.70257 0
M  V30 1506 H 143.244 -2.35874 -6.02472 0
M  V30 1507 N 143.376 1.44774 -0.622745 0
M  V30 1508 C 144.604 2.06487 -0.130722 0
M  V30 1509 C 145.019 1.46476 1.19123 0
M  V30 1510 O 144.376 0.584502 1.72887 0
M  V30 1511 C 144.427 3.615 -0.000807207 0
M  V30 1512 O 144.148 4.19274 -1.27048 0
M  V30 1513 C 145.649 4.40229 0.520898 0
M  V30 1514 H 142.869 0.666704 -0.0758106 0
M  V30 1515 H 145.413 1.85779 -0.854774 0
M  V30 1516 H 143.568 3.81498 0.673643 0
M  V30 1517 H 143.982 5.12622 -1.1099 0
M  V30 1518 H 145.456 5.49144 0.560838 0
M  V30 1519 H 145.933 4.1108 1.54627 0
M  V30 1520 H 146.539 4.25131 -0.120018 0
M  V30 1521 N 144.854 0.36279 1.53368 0
M  V30 1522 C 145.784 -0.476976 2.28576 0
M  V30 1523 C 146.765 -1.08631 1.30894 0
M  V30 1524 O 147.95 -1.10409 1.59761 0
M  V30 1525 C 145.08 -1.61828 3.07293 0
M  V30 1526 C 144.034 -1.13633 4.1264 0
M  V30 1527 C 143.36 -2.36766 4.79423 0
M  V30 1528 C 144.66 -0.223061 5.21823 0
M  V30 1529 H 146.354 0.150474 2.99022 0
M  V30 1530 H 143.9 0.0738103 1.43811 0
M  V30 1531 H 145.853 -2.21237 3.58653 0
M  V30 1532 H 144.577 -2.27292 2.34533 0
M  V30 1533 H 143.236 -0.564945 3.62221 0
M  V30 1534 H 142.884 -3.0068 4.03238 0
M  V30 1535 H 142.584 -2.05192 5.50609 0
M  V30 1536 H 144.108 -2.96865 5.33576 0
M  V30 1537 H 145.522 -0.724545 5.68703 0
M  V30 1538 H 143.919 0.001678 6.001 0
M  V30 1539 H 144.989 0.735553 4.79289 0
M  V30 1540 N 146.332 -1.57332 0.0918853 0
M  V30 1541 C 147.578 -1.94524 -0.573425 0
M  V30 1542 C 147.911 -0.973578 -1.68033 0
M  V30 1543 O 147.186 -0.00609226 -1.94499 0
M  V30 1544 C 147.469 -3.41858 -1.13161 0
M  V30 1545 C 147.322 -4.4979 -0.0299747 0
M  V30 1546 C 148.641 -3.90435 -2.03098 0
M  V30 1547 H 145.76 -0.70734 -0.206975 0
M  V30 1548 H 148.402 -1.89309 0.161942 0
M  V30 1549 H 146.552 -3.46433 -1.7583 0
M  V30 1550 H 148.224 -4.57327 0.604112 0
M  V30 1551 H 146.467 -4.291 0.636833 0
M  V30 1552 H 147.138 -5.50069 -0.461287 0
M  V30 1553 H 149.614 -3.87992 -1.50338 0
M  V30 1554 H 148.49 -4.94097 -2.39081 0
M  V30 1555 H 148.751 -3.29541 -2.94712 0
M  V30 1556 N 147.81 0.181792 -1.56548 0
M  V30 1557 C 149.058 0.89832 -1.81038 0
M  V30 1558 C 149.379 1.83232 -0.667164 0
M  V30 1559 O 148.649 1.93372 0.313673 0
M  V30 1560 H 147.229 0.33471 -0.667816 0
M  V30 1561 H 149.891 0.184116 -1.94028 0
M  V30 1562 H 148.987 1.4815 -2.74696 0
M  V30 1563 N 149.288 1.51039 0.449983 0
M  V30 1564 C 150.516 1.66869 1.2232 0
M  V30 1565 C 150.931 0.360727 1.85322 0
M  V30 1566 O 150.288 -0.659531 1.70166 0
M  V30 1567 C 150.339 2.77524 2.31652 0
M  V30 1568 O 150.06 4.03252 1.7123 0
M  V30 1569 C 151.561 3.04512 3.2216 0
M  V30 1570 H 148.781 0.560326 0.369155 0
M  V30 1571 H 151.325 1.97385 0.534719 0
M  V30 1572 H 149.48 2.49642 2.96239 0
M  V30 1573 H 149.894 4.64609 2.43389 0
M  V30 1574 H 151.368 3.85551 3.95038 0
M  V30 1575 H 151.845 2.16415 3.8218 0
M  V30 1576 H 152.451 3.34005 2.63288 0
M  V30 1577 N 150.766 -0.704594 1.40972 0
M  V30 1578 C 151.698 -1.82974 1.38033 0
M  V30 1579 C 152.711 -1.60305 0.283931 0
M  V30 1580 O 153.9 -1.69975 0.545042 0
M  V30 1581 C 151 -3.19578 1.12795 0
M  V30 1582 C 150.173 -3.69352 2.34302 0
M  V30 1583 C 149.232 -4.84601 2.05058 0
M  V30 1584 O 148.258 -4.96682 2.7802 0
M  V30 1585 N 149.46 -5.71194 1.03528 0
M  V30 1586 H 152.225 -1.85991 2.35005 0
M  V30 1587 H 149.786 -0.886567 1.35468 0
M  V30 1588 H 151.778 -3.9429 0.911987 0
M  V30 1589 H 150.348 -3.11642 0.24452 0
M  V30 1590 H 149.568 -2.85649 2.71659 0
M  V30 1591 H 150.856 -3.99345 3.1528 0
M  V30 1592 H 150.254 -5.64054 0.431217 0
M  V30 1593 H 148.811 -6.45843 0.879205 0
M  V30 1594 N 152.244 -1.26651 -0.937939 0
M  V30 1595 C 153.492 -1.12165 -1.68118 0
M  V30 1596 C 153.813 0.334983 -1.92101 0
M  V30 1597 O 153.083 1.23583 -1.52 0
M  V30 1598 H 151.663 -0.412093 -0.623048 0
M  V30 1599 H 154.325 -1.59027 -1.12678 0
M  V30 1600 H 153.421 -1.64289 -2.6536 0
M  V30 1601 N 153.722 1.14298 -1.08507 0
M  V30 1602 C 155.138 1.37347 -0.812901 0
M  V30 1603 C 155.338 1.93052 0.577325 0
M  V30 1604 O 154.394 2.14389 1.33393 0
M  V30 1605 C 155.707 2.33359 -1.89642 0
M  V30 1606 C 157.255 2.46996 -1.92255 0
M  V30 1607 C 157.73 3.46309 -2.99724 0
M  V30 1608 N 159.221 3.53853 -2.98902 0
M  V30 1609 C 159.956 4.3055 -3.787 0
M  V30 1610 N 159.452 5.10482 -4.6838 0
M  V30 1611 N 161.245 4.25757 -3.66998 0
M  V30 1612 H 153.396 0.764867 -1.9815 0
M  V30 1613 H 155.659 0.398966 -0.859959 0
M  V30 1614 H 155.365 1.99565 -2.89597 0
M  V30 1615 H 155.239 3.33274 -1.76659 0
M  V30 1616 H 157.626 2.80081 -0.929445 0
M  V30 1617 H 157.707 1.47039 -2.09316 0
M  V30 1618 H 157.351 3.13957 -3.99241 0
M  V30 1619 H 157.281 4.46049 -2.79907 0
M  V30 1620 H 159.772 2.96812 -2.33904 0
M  V30 1621 H 160.085 5.66284 -5.25873 0
M  V30 1622 H 158.43 5.09747 -4.72422 0
M  V30 1623 H 161.621 3.62383 -2.96304 0
M  V30 1624 H 161.794 4.85279 -4.29427 0
M  V30 1625 N 155.201 0.870884 1.31352 0
M  V30 1626 C 156.151 0.298889 2.26032 0
M  V30 1627 C 157.135 -0.564595 1.50669 0
M  V30 1628 O 158.327 -0.411323 1.72154 0
M  V30 1629 C 155.456 -0.497842 3.39671 0
M  V30 1630 C 154.542 0.378937 4.22404 0
M  V30 1631 N 154.933 1.47284 4.83881 0
M  V30 1632 C 153.231 0.171535 4.4567 0
M  V30 1633 C 153.932 2.01359 5.45738 0
M  V30 1634 N 152.908 1.31047 5.27568 0
M  V30 1635 H 156.71 1.13494 2.71102 0
M  V30 1636 H 154.224 0.718745 1.45629 0
M  V30 1637 H 156.221 -0.924155 4.06528 0
M  V30 1638 H 154.881 -1.33149 2.96144 0
M  V30 1639 H 155.892 1.85575 4.8351 0
M  V30 1640 H 152.569 -0.626091 4.12779 0
M  V30 1641 H 153.959 2.93143 6.0458 0
M  V30 1642 N 156.679 -1.44442 0.630414 0
M  V30 1643 C 157.642 -2.29107 -0.0652523 0
M  V30 1644 C 158.642 -1.41002 -0.772995 0
M  V30 1645 O 159.832 -1.62881 -0.617692 0
M  V30 1646 C 156.964 -3.22564 -1.10296 0
M  V30 1647 H 158.157 -2.92103 0.679401 0
M  V30 1648 H 155.71 -1.51343 0.390517 0
M  V30 1649 H 156.445 -2.64416 -1.87762 0
M  V30 1650 H 156.23 -3.87491 -0.59941 0
M  V30 1651 H 157.72 -3.86167 -1.5895 0
M  V30 1652 N 158.157 -0.370918 -1.53173 0
M  V30 1653 C 159.405 0.216673 -2.00935 0
M  V30 1654 C 159.726 1.48845 -1.25977 0
M  V30 1655 O 158.996 1.92286 -0.374551 0
M  V30 1656 H 157.576 0.0830565 -0.742368 0
M  V30 1657 H 160.238 -0.49838 -1.8842 0
M  V30 1658 H 159.334 0.439893 -3.08984 0
M  V30 1659 N 159.635 1.57281 -0.100228 0
M  V30 1660 C 160.883 1.94153 0.561157 0
M  V30 1661 C 161.204 0.983157 1.68401 0
M  V30 1662 O 160.474 0.0361132 1.95867 0
M  V30 1663 H 159.054 0.716791 0.210283 0
M  V30 1664 H 161.716 1.94202 -0.164765 0
M  V30 1665 H 160.812 2.96709 0.968008 0
M  V30 1666 N 161.113 -0.173488 1.56642 0
M  V30 1667 C 162.063 -1.21941 1.92651 0
M  V30 1668 C 163.047 -1.39912 0.794577 0
M  V30 1669 O 164.239 -1.41919 1.05773 0
M  V30 1670 C 161.368 -2.55935 2.28806 0
M  V30 1671 C 160.454 -2.41667 3.48508 0
M  V30 1672 N 160.845 -1.9711 4.65813 0
M  V30 1673 C 159.143 -2.72499 3.53072 0
M  V30 1674 C 159.844 -1.95253 5.47952 0
M  V30 1675 N 158.82 -2.37575 4.88937 0
M  V30 1676 H 162.622 -0.866581 2.80834 0
M  V30 1677 H 160.136 -0.381776 1.57849 0
M  V30 1678 H 162.133 -3.31511 2.52797 0
M  V30 1679 H 160.793 -2.92022 1.41961 0
M  V30 1680 H 161.804 -1.67481 4.90072 0
M  V30 1681 H 158.481 -3.12639 2.767 0
M  V30 1682 H 159.871 -1.6252 6.51948 0
M  V30 1683 N 162.591 -1.51276 -0.441967 0
M  V30 1684 C 163.839 -1.63392 -1.18943 0
M  V30 1685 C 164.16 -0.350159 -1.9183 0
M  V30 1686 O 163.43 0.633784 -1.85364 0
M  V30 1687 H 162.01 -0.602164 -0.442049 0
M  V30 1688 H 164.672 -1.88186 -0.507165 0
M  V30 1689 H 163.768 -2.45934 -1.92154 0
M  V30 1690 N 164.069 0.697108 -1.41344 0
M  V30 1691 C 165.318 1.45279 -1.39918 0
M  V30 1692 C 165.631 1.95597 -0.0109624 0
M  V30 1693 O 166.837 2.71208 0.125919 0
M  V30 1694 C 165.293 2.62695 -2.46007 0
M  V30 1695 C 164.901 2.19169 -3.90729 0
M  V30 1696 C 166.645 3.40336 -2.53715 0
M  V30 1697 C 164.552 3.33535 -4.88373 0
M  V30 1698 H 163.482 0.545692 -0.520323 0
M  V30 1699 H 166.133 0.756929 -1.67161 0
M  V30 1700 H 164.515 3.34541 -2.11892 0
M  V30 1701 H 165.689 1.54623 -4.34083 0
M  V30 1702 H 164.004 1.54525 -3.86666 0
M  V30 1703 H 166.601 4.2547 -3.2385 0
M  V30 1704 H 166.944 3.85418 -1.5735 0
M  V30 1705 H 167.477 2.75546 -2.86913 0
M  V30 1706 H 164.216 2.93468 -5.86137 0
M  V30 1707 H 163.736 3.96936 -4.49668 0
M  V30 1708 H 165.415 3.99335 -5.09059 0
M  V30 1709 N 165.547 1.27147 0.931209 0
M  V30 1710 C 166.457 1.11372 2.06478 0
M  V30 1711 C 167.473 0.044645 1.73943 0
M  V30 1712 O 168.649 0.250417 1.99837 0
M  V30 1713 C 165.714 0.758838 3.38294 0
M  V30 1714 C 164.775 1.90841 3.84549 0
M  V30 1715 C 164.008 1.57036 5.10074 0
M  V30 1716 O 164.231 0.476645 5.68405 0
M  V30 1717 O 163.165 2.40839 5.51616 0
M  V30 1718 H 166.991 2.06493 2.22698 0
M  V30 1719 H 164.576 1.06301 1.04978 0
M  V30 1720 H 166.458 0.574098 4.17471 0
M  V30 1721 H 165.133 -0.162879 3.2329 0
M  V30 1722 H 164.04 2.14819 3.06274 0
M  V30 1723 H 165.373 2.81021 4.04089 0
M  V30 1724 N 167.025 -1.13721 1.09112 0
M  V30 1725 C 168.272 -1.84924 0.825192 0
M  V30 1726 C 168.6 -1.83347 -0.649151 0
M  V30 1727 O 167.855 -1.26449 -1.49362 0
M  V30 1728 C 168.154 -3.32861 1.30146 0
M  V30 1729 C 167.82 -3.54621 2.78486 0
M  V30 1730 C 166.482 -3.60268 3.18999 0
M  V30 1731 C 168.834 -3.62855 3.74146 0
M  V30 1732 C 166.162 -3.71679 4.53951 0
M  V30 1733 C 168.514 -3.75793 5.08883 0
M  V30 1734 C 167.178 -3.79692 5.4899 0
M  V30 1735 H 166.448 -0.676684 0.301959 0
M  V30 1736 H 169.095 -1.3428 1.36533 0
M  V30 1737 H 167.4 -3.85835 0.681064 0
M  V30 1738 H 169.097 -3.86395 1.07236 0
M  V30 1739 H 165.687 -3.50879 2.46134 0
M  V30 1740 H 169.871 -3.57775 3.43963 0
M  V30 1741 H 165.127 -3.72963 4.84467 0
M  V30 1742 H 169.301 -3.81107 5.82864 0
M  V30 1743 H 166.928 -3.88287 6.53558 0
M  V30 1744 N 168.503 -0.877838 -1.30888 0
M  V30 1745 C 169.466 -0.344265 -2.266 0
M  V30 1746 C 170.466 0.50922 -1.52524 0
M  V30 1747 O 171.656 0.317398 -1.71284 0
M  V30 1748 C 168.788 0.510198 -3.37061 0
M  V30 1749 H 169.981 -1.1893 -2.7531 0
M  V30 1750 H 167.534 -0.654088 -1.41956 0
M  V30 1751 H 168.269 1.37612 -2.93655 0
M  V30 1752 H 168.054 -0.101047 -3.9197 0
M  V30 1753 H 169.544 0.875537 -4.08319 0
M  V30 1754 N 169.982 1.44106 -0.638065 0
M  V30 1755 C 171.393 1.85316 -0.226894 0
M  V30 1756 C 171.744 1.53399 1.22324 0
M  V30 1757 O 170.869 0.975463 1.93167 0
M  V30 1758 C 171.464 3.3637 -0.405013 0
M  V30 1759 C 170.023 3.76369 -0.0482902 0
M  V30 1760 C 169.17 2.67921 -0.715108 0
M  V30 1761 H 172.121 1.34474 -0.842764 0
M  V30 1762 H 172.142 3.7885 0.354 0
M  V30 1763 H 171.654 3.59569 -1.46053 0
M  V30 1764 H 169.755 3.58784 1.00522 0
M  V30 1765 H 169.868 4.76856 -0.463187 0
M  V30 1766 H 168.232 2.54259 -0.149753 0
M  V30 1767 H 169.015 2.93951 -1.77335 0
M  V30 1768 N 171.46 0.379036 1.52974 0
M  V30 1769 C 172.393 -0.504932 2.22544 0
M  V30 1770 C 173.371 -1.0723 1.22231 0
M  V30 1771 O 174.555 -1.12589 1.51182 0
M  V30 1772 C 171.682 -1.69794 2.93066 0
M  V30 1773 C 170.728 -1.25678 4.07563 0
M  V30 1774 S 171.561 -0.246852 5.34931 0
M  V30 1775 C 172.717 -1.44588 6.08971 0
M  V30 1776 H 172.95 0.0858666 2.97176 0
M  V30 1777 H 170.483 0.163183 1.53535 0
M  V30 1778 H 172.441 -2.38219 3.34308 0
M  V30 1779 H 171.102 -2.26002 2.18133 0
M  V30 1780 H 170.295 -2.14725 4.5597 0
M  V30 1781 H 169.897 -0.651584 3.6828 0
M  V30 1782 H 172.189 -2.37469 6.34519 0
M  V30 1783 H 173.132 -1.00292 7.00962 0
M  V30 1784 H 173.54 -1.65804 5.39601 0
M  V30 1785 N 172.938 -1.57226 0.108567 0
M  V30 1786 C 174.168 -1.9889 -0.559142 0
M  V30 1787 C 174.576 -0.986889 -1.61422 0
M  V30 1788 O 173.919 0.0298705 -1.83676 0
M  V30 1789 C 173.981 -3.36952 -1.25315 0
M  V30 1790 C 173.645 -4.55679 -0.347248 0
M  V30 1791 C 174.642 -5.18281 0.409996 0
M  V30 1792 C 172.327 -5.0162 -0.261367 0
M  V30 1793 C 174.321 -6.25203 1.24096 0
M  V30 1794 C 172.008 -6.08405 0.573238 0
M  V30 1795 C 173.006 -6.70063 1.32304 0
M  V30 1796 O 172.694 -7.74788 2.14381 0
M  V30 1797 H 172.426 -0.658343 -0.153492 0
M  V30 1798 H 174.98 -2.04532 0.188584 0
M  V30 1799 H 173.21 -3.28032 -2.04773 0
M  V30 1800 H 174.899 -3.62974 -1.81673 0
M  V30 1801 H 175.665 -4.8371 0.353457 0
M  V30 1802 H 171.544 -4.53381 -0.834656 0
M  V30 1803 H 175.088 -6.73259 1.82669 0
M  V30 1804 H 170.985 -6.42406 0.631208 0
M  V30 1805 H 171.753 -7.91837 2.07209 0
M  V30 1806 N 174.416 0.165178 -1.56732 0
M  V30 1807 C 175.363 1.2044 -1.96883 0
M  V30 1808 C 176.333 1.43664 -0.833657 0
M  V30 1809 O 177.518 1.56302 -1.09427 0
M  V30 1810 C 174.658 2.53727 -2.33916 0
M  V30 1811 C 173.771 2.3783 -3.6064 0
M  V30 1812 C 172.906 3.64026 -3.86857 0
M  V30 1813 C 171.945 3.43088 -5.06909 0
M  V30 1814 N 171.082 4.61369 -5.29229 0
M  V30 1815 H 175.922 0.854996 -2.85471 0
M  V30 1816 H 173.459 0.41076 -1.41249 0
M  V30 1817 H 175.417 3.31419 -2.53411 0
M  V30 1818 H 174.047 2.8665 -1.48431 0
M  V30 1819 H 173.099 1.51282 -3.49024 0
M  V30 1820 H 174.411 2.18308 -4.4849 0
M  V30 1821 H 173.565 4.50152 -4.06753 0
M  V30 1822 H 172.304 3.86533 -2.97394 0
M  V30 1823 H 171.309 2.55349 -4.86906 0
M  V30 1824 H 172.534 3.21997 -5.97909 0
M  V30 1825 H 170.48 4.84084 -4.42718 0
M  V30 1826 H 170.397 4.44783 -6.11313 0
M  V30 1827 H 171.665 5.48761 -5.53608 0
M  V30 1828 N 175.894 1.51508 0.433938 0
M  V30 1829 C 177.143 1.63578 1.18005 0
M  V30 1830 C 177.456 0.359514 1.92268 0
M  V30 1831 O 178.662 0.359632 2.69108 0
M  V30 1832 C 177.118 2.88901 2.14626 0
M  V30 1833 C 176.726 4.23544 1.45995 0
M  V30 1834 C 178.47 3.10328 2.89649 0
M  V30 1835 C 176.377 5.40014 2.4112 0
M  V30 1836 H 175.307 0.609277 0.444182 0
M  V30 1837 H 177.958 1.77978 0.446773 0
M  V30 1838 H 176.34 2.68142 2.91403 0
M  V30 1839 H 177.514 4.54696 0.747532 0
M  V30 1840 H 175.829 4.08021 0.831115 0
M  V30 1841 H 178.426 3.94518 3.60915 0
M  V30 1842 H 178.769 2.23544 3.51189 0
M  V30 1843 H 179.302 3.31443 2.19978 0
M  V30 1844 H 176.041 6.29068 1.84264 0
M  V30 1845 H 175.561 5.13233 3.10406 0
M  V30 1846 H 177.24 5.72099 3.02177 0
M  V30 1847 N 177.372 -0.689602 1.41712 0
M  V30 1848 C 178.32 -1.82475 1.44242 0
M  V30 1849 C 179.314 -1.66354 0.319774 0
M  V30 1850 O 180.52 -1.73143 0.492089 0
M  V30 1851 H 176.895 -0.601416 0.451445 0
M  V30 1852 H 178.866 -1.77458 2.39899 0
M  V30 1853 C 177.615 -3.20535 1.3473 0
M  V30 1854 H 176.938 -3.33559 2.20405 0
M  V30 1855 H 178.378 -4.00023 1.40562 0
M  V30 1856 C 176.837 -3.36846 0.0603281 0
M  V30 1857 O 177.367 -3.91656 -0.892663 0
M  V30 1858 N 175.573 -2.90595 -0.0177039 0
M  V30 1859 H 175.12 -2.46178 0.758572 0
M  V30 1860 H 175.078 -3.01886 -0.878201 0
M  V30 1861 N 178.85 -1.27639 -0.924453 0
M  V30 1862 C 180.08 -1.16819 -1.70402 0
M  V30 1863 C 180.488 0.277191 -1.87158 0
M  V30 1864 O 179.831 1.20025 -1.39067 0
M  V30 1865 C 179.893 -1.78305 -3.12166 0
M  V30 1866 C 179.557 -3.27502 -3.18734 0
M  V30 1867 C 180.554 -4.2409 -3.00738 0
M  V30 1868 C 178.239 -3.68269 -3.4159 0
M  V30 1869 C 180.233 -5.59422 -3.05492 0
M  V30 1870 C 177.92 -5.0373 -3.45977 0
M  V30 1871 C 178.918 -5.99116 -3.27946 0
M  V30 1872 O 178.606 -7.32108 -3.32074 0
M  V30 1873 H 178.338 -0.406931 -0.539799 0
M  V30 1874 H 180.892 -1.69078 -1.16626 0
M  V30 1875 H 179.122 -1.20528 -3.67437 0
M  V30 1876 H 180.811 -1.62154 -3.72103 0
M  V30 1877 H 181.577 -3.93931 -2.82919 0
M  V30 1878 H 177.456 -2.94496 -3.54673 0
M  V30 1879 H 181 -6.33852 -2.91337 0
M  V30 1880 H 176.897 -5.33543 -3.63321 0
M  V30 1881 H 177.665 -7.40598 -3.48507 0
M  V30 1882 N 180.328 1.1314 -1.09713 0
M  V30 1883 C 181.553 1.88862 -0.857081 0
M  V30 1884 C 181.978 1.78729 0.586304 0
M  V30 1885 O 181.336 1.13692 1.41222 0
M  V30 1886 C 181.384 3.36325 -1.30069 0
M  V30 1887 O 180.488 4.09815 -0.461007 0
M  V30 1888 H 179.829 0.587108 -0.310162 0
M  V30 1889 H 182.359 1.43129 -1.46203 0
M  V30 1890 H 182.369 3.87157 -1.28738 0
M  V30 1891 H 181.044 3.43017 -2.35185 0
M  V30 1892 H 179.621 3.68986 -0.538888 0
M  V30 1893 N 181.806 0.884767 1.30421 0
M  V30 1894 C 183.222 0.57874 1.48737 0
M  V30 1895 C 183.422 -0.883567 1.81095 0
M  V30 1896 O 182.478 -1.6648 1.89844 0
M  V30 1897 C 183.791 1.49171 2.61091 0
M  V30 1898 C 185.339 1.49532 2.74971 0
M  V30 1899 C 185.814 2.39421 3.90438 0
M  V30 1900 N 187.305 2.37383 3.97748 0
M  V30 1901 C 188.04 3.03647 4.86401 0
M  V30 1902 N 187.536 3.79136 5.79852 0
M  V30 1903 N 189.329 2.9288 4.79768 0
M  V30 1904 H 181.48 1.83075 1.0769 0
M  V30 1905 H 183.743 0.783637 0.533495 0
M  V30 1906 H 183.449 2.53291 2.44001 0
M  V30 1907 H 183.323 1.20113 3.57565 0
M  V30 1908 H 185.71 0.46163 2.91467 0
M  V30 1909 H 185.791 1.8262 1.79119 0
M  V30 1910 H 185.435 3.42874 3.74699 0
M  V30 1911 H 185.365 2.03649 4.85628 0
M  V30 1912 H 187.856 1.82525 3.30897 0
M  V30 1913 H 188.169 4.26789 6.4426 0
M  V30 1914 H 186.514 3.83243 5.79784 0
M  V30 1915 H 189.705 2.33433 4.05742 0
M  V30 1916 H 189.878 3.448 5.4865 0
M  V30 1917 N 183.284 -1.43765 0.645699 0
M  V30 1918 C 184.561 -1.9541 0.0862963 0
M  V30 1919 C 184.941 -1.58725 -1.39175 0
M  V30 1920 O 184.289 -0.868581 -2.11348 0
M  V30 1921 C 184.499 -3.47488 0.324565 0
M  V30 1922 C 185.847 -4.24001 0.225497 0
M  V30 1923 O 186.871 -3.55274 0.256715 0
M  V30 1924 O 185.73 -5.46313 0.142801 0
M  V30 1925 H 182.824 -0.826882 -0.0139483 0
M  V30 1926 H 185.37 -1.53743 0.718415 0
M  V30 1927 H 184.142 -3.67289 1.3496 0
M  V30 1928 H 183.765 -3.96135 -0.340987 0
M  V30 1929 N 184.763 -0.387143 -1.52771 0
M  V30 1930 C 186.011 0.195349 -2.01154 0
M  V30 1931 C 186.332 1.475 -1.27549 0
M  V30 1932 O 185.602 1.91878 -0.394924 0
M  V30 1933 H 184.182 0.075178 -0.743207 0
M  V30 1934 H 186.844 -0.518337 -1.87881 0
M  V30 1935 H 185.94 0.407096 -3.09434 0
M  V30 1936 N 186.241 1.57166 -0.116904 0
M  V30 1937 C 187.469 1.99473 0.549383 0
M  V30 1938 C 187.884 0.996541 1.60357 0
M  V30 1939 O 187.241 -0.0108731 1.82497 0
M  V30 1940 C 187.292 3.41788 1.17741 0
M  V30 1941 O 187.013 4.37788 0.165362 0
M  V30 1942 C 188.514 3.99216 1.92722 0
M  V30 1943 H 185.734 0.655009 0.145616 0
M  V30 1944 H 188.278 2.03494 -0.202625 0
M  V30 1945 H 186.433 3.38713 1.88021 0
M  V30 1946 H 186.847 5.20806 0.621403 0
M  V30 1947 H 188.321 5.00882 2.31995 0
M  V30 1948 H 188.798 3.3824 2.80161 0
M  V30 1949 H 189.404 4.0583 1.27209 0
M  V30 1950 N 187.719 -0.156864 1.56817 0
M  V30 1951 C 189.135 -0.50916 1.5126 0
M  V30 1952 C 189.335 -1.83897 0.823658 0
M  V30 1953 O 188.391 -2.49469 0.390055 0
M  V30 1954 C 189.704 -0.52857 2.96018 0
M  V30 1955 C 191.252 -0.614771 3.06903 0
M  V30 1956 C 191.727 -0.664938 4.53147 0
M  V30 1957 N 193.218 -0.727433 4.57452 0
M  V30 1958 C 193.953 -0.787067 5.67973 0
M  V30 1959 N 193.449 -0.806649 6.88088 0
M  V30 1960 N 195.242 -0.827195 5.5598 0
M  V30 1961 H 187.393 0.714935 2.00006 0
M  V30 1962 H 189.656 0.259526 0.911784 0
M  V30 1963 H 189.362 0.380154 3.49639 0
M  V30 1964 H 189.236 -1.36998 3.51442 0
M  V30 1965 H 191.623 -1.51392 2.53307 0
M  V30 1966 H 191.704 0.253597 2.5454 0
M  V30 1967 H 191.348 0.230011 5.07379 0
M  V30 1968 H 191.278 -1.54966 5.03282 0
M  V30 1969 H 193.769 -0.719998 3.70978 0
M  V30 1970 H 194.082 -0.853727 7.6807 0
M  V30 1971 H 192.427 -0.774687 6.90669 0
M  V30 1972 H 195.618 -0.808998 4.61056 0
M  V30 1973 H 195.791 -0.870206 6.4213 0
M  V30 1974 N 189.197 -1.51736 -0.425897 0
M  V30 1975 C 190.443 -1.66174 -1.17294 0
M  V30 1976 C 190.798 -0.37876 -1.88635 0
M  V30 1977 O 190.091 0.626021 -1.81084 0
M  V30 1978 C 190.285 -2.81103 -2.20717 0
M  V30 1979 C 190.114 -4.20453 -1.59529 0
M  V30 1980 C 188.884 -4.86225 -1.37525 0
M  V30 1981 C 191.082 -5.03146 -1.06528 0
M  V30 1982 N 189.064 -6.09657 -0.720537 0
M  V30 1983 C 190.435 -6.17674 -0.536506 0
M  V30 1984 C 192.49 -4.88594 -0.958127 0
M  V30 1985 C 191.193 -7.19245 0.0888917 0
M  V30 1986 C 193.219 -5.90383 -0.346608 0
M  V30 1987 C 192.581 -7.04191 0.171564 0
M  V30 1988 H 188.68 -0.661871 -0.416475 0
M  V30 1989 H 191.264 -1.88997 -0.467801 0
M  V30 1990 H 189.435 -2.59924 -2.88607 0
M  V30 1991 H 191.167 -2.84662 -2.87663 0
M  V30 1992 H 187.922 -4.44293 -1.64015 0
M  V30 1993 H 188.346 -6.75756 -0.410292 0
M  V30 1994 H 192.988 -4.0085 -1.34459 0
M  V30 1995 H 190.706 -8.06628 0.48746 0
M  V30 1996 H 194.292 -5.81194 -0.265451 0
M  V30 1997 H 193.172 -7.81606 0.637309 0
M  V30 1998 N 190.675 0.682077 -1.42076 0
M  V30 1999 C 191.924 1.43786 -1.41451 0
M  V30 2000 C 192.237 1.95574 -0.0317074 0
M  V30 2001 O 193.443 2.71326 0.0971462 0
M  V30 2002 C 191.899 2.60071 -2.48779 0
M  V30 2003 C 191.507 2.15013 -3.93031 0
M  V30 2004 C 193.251 3.37626 -2.57311 0
M  V30 2005 C 191.158 3.28336 -4.91883 0
M  V30 2006 H 190.088 0.540143 -0.526082 0
M  V30 2007 H 192.739 0.739157 -1.67955 0
M  V30 2008 H 191.121 3.32275 -2.15429 0
M  V30 2009 H 192.295 1.5001 -4.35699 0
M  V30 2010 H 190.61 1.50416 -3.88284 0
M  V30 2011 H 193.207 4.22012 -3.28345 0
M  V30 2012 H 193.55 3.83727 -1.61429 0
M  V30 2013 H 194.083 2.72488 -2.89819 0
M  V30 2014 H 190.822 2.87234 -5.89217 0
M  V30 2015 H 190.342 3.92145 -4.53853 0
M  V30 2016 H 192.021 3.93913 -5.13265 0
M  V30 2017 N 192.153 1.28127 0.917671 0
M  V30 2018 C 193.378 1.18007 1.70555 0
M  V30 2019 C 193.803 -0.258257 1.86319 0
M  V30 2020 O 193.161 -1.1869 1.37049 0
M  V30 2021 C 193.209 1.87948 3.07746 0
M  V30 2022 O 192.313 1.18427 3.9503 0
M  V30 2023 H 191.654 0.409867 0.522403 0
M  V30 2024 H 194.184 1.69379 1.1477 0
M  V30 2025 H 194.194 1.95701 3.58001 0
M  V30 2026 H 192.869 2.92573 2.95591 0
M  V30 2027 H 191.446 1.18811 3.53466 0
M  V30 2028 N 193.631 -1.12557 1.10312 0
M  V30 2029 C 194.877 -1.84515 0.855901 0
M  V30 2030 C 195.232 -1.82409 -0.611936 0
M  V30 2031 O 194.525 -1.25778 -1.44535 0
M  V30 2032 C 194.719 -3.31462 1.33669 0
M  V30 2033 C 194.548 -3.47879 2.84974 0
M  V30 2034 C 193.318 -3.61589 3.52961 0
M  V30 2035 C 195.516 -3.43152 3.83081 0
M  V30 2036 N 193.498 -3.66359 4.926 0
M  V30 2037 C 194.869 -3.54401 5.08724 0
M  V30 2038 C 196.924 -3.2661 3.75807 0
M  V30 2039 C 195.627 -3.50815 6.2795 0
M  V30 2040 C 197.653 -3.24335 4.94531 0
M  V30 2041 C 197.015 -3.36144 6.19021 0
M  V30 2042 H 193.114 -0.690967 0.366182 0
M  V30 2043 H 195.698 -1.34763 1.40524 0
M  V30 2044 H 193.869 -3.7976 0.814686 0
M  V30 2045 H 195.601 -3.91272 1.03385 0
M  V30 2046 H 192.356 -3.63652 3.03404 0
M  V30 2047 H 192.78 -3.72411 5.65366 0
M  V30 2048 H 197.422 -3.16375 2.80476 0
M  V30 2049 H 195.14 -3.5982 7.23571 0
M  V30 2050 H 198.726 -3.12719 4.9061 0
M  V30 2051 H 197.606 -3.34357 7.09348 0
M  V30 2052 N 195.109 -0.891671 -1.2995 0
M  V30 2053 C 196.525 -0.58662 -1.48428 0
M  V30 2054 C 196.725 0.873951 -1.81561 0
M  V30 2055 O 195.781 1.65471 -1.90724 0
M  V30 2056 C 197.094 -1.50553 -2.60296 0
M  V30 2057 C 198.642 -1.50988 -2.74175 0
M  V30 2058 C 199.117 -2.41488 -3.89163 0
M  V30 2059 N 200.608 -2.39489 -3.96483 0
M  V30 2060 C 201.343 -3.06223 -4.84784 0
M  V30 2061 N 200.839 -3.82206 -5.77833 0
M  V30 2062 N 202.632 -2.95421 -4.78208 0
M  V30 2063 H 194.783 -1.83644 -1.06718 0
M  V30 2064 H 197.046 -0.786455 -0.529332 0
M  V30 2065 H 196.752 -2.54581 -2.42654 0
M  V30 2066 H 196.626 -1.22008 -3.56923 0
M  V30 2067 H 199.013 -0.47708 -2.91218 0
M  V30 2068 H 199.094 -1.83567 -1.78148 0
M  V30 2069 H 198.738 -3.44857 -3.72876 0
M  V30 2070 H 198.668 -2.06222 -4.84541 0
M  V30 2071 H 201.159 -1.84278 -3.29924 0
M  V30 2072 H 201.472 -4.302 -6.41988 0
M  V30 2073 H 199.817 -3.86313 -5.77743 0
M  V30 2074 H 203.008 -2.35581 -4.04499 0
M  V30 2075 H 203.181 -3.47704 -5.46814 0
M  V30 2076 N 196.587 1.43421 -0.653314 0
M  V30 2077 C 197.535 2.32546 0.0501531 0
M  V30 2078 C 198.529 1.48617 0.812985 0
M  V30 2079 O 199.735 1.64825 0.723375 0
M  V30 2080 H 196.11 0.751185 0.0350032 0
M  V30 2081 H 198.081 2.89602 -0.719261 0
M  V30 2082 C 196.83 3.32925 1.00279 0
M  V30 2083 H 196.153 3.97532 0.425236 0
M  V30 2084 H 197.593 3.9792 1.46409 0
M  V30 2085 C 196.052 2.63532 2.09886 0
M  V30 2086 O 196.582 2.45092 3.18265 0
M  V30 2087 N 194.788 2.22905 1.86445 0
M  V30 2088 H 194.335 2.38103 0.98309 0
M  V30 2089 H 194.293 1.76805 2.59976 0
M  V30 2090 N 198.065 0.39524 1.52563 0
M  V30 2091 C 199.481 0.0454682 1.59535 0
M  V30 2092 C 199.681 -1.44056 1.4089 0
M  V30 2093 O 198.737 -2.20579 1.22888 0
M  V30 2094 C 200.05 0.527963 2.96029 0
M  V30 2095 C 201.598 0.484733 3.09224 0
M  V30 2096 C 202.073 0.943512 4.48176 0
M  V30 2097 N 203.564 0.899765 4.54377 0
M  V30 2098 C 204.299 1.22609 5.60138 0
M  V30 2099 N 203.795 1.62319 6.73516 0
M  V30 2100 N 205.588 1.14696 5.50274 0
M  V30 2101 H 197.739 1.36261 1.62931 0
M  V30 2102 H 200.002 0.558887 0.765735 0
M  V30 2103 H 199.708 1.56607 3.14908 0
M  V30 2104 H 199.582 -0.0698056 3.77135 0
M  V30 2105 H 201.969 -0.544298 2.90037 0
M  V30 2106 H 202.05 1.11838 2.30056 0
M  V30 2107 H 201.694 1.9708 4.68104 0
M  V30 2108 H 201.624 0.286817 5.25818 0
M  V30 2109 H 204.115 0.607632 3.72983 0
M  V30 2110 H 204.428 1.85567 7.5019 0
M  V30 2111 H 202.773 1.66211 6.74833 0
M  V30 2112 H 205.964 0.835701 4.6058 0
M  V30 2113 H 206.137 1.40459 6.32594 0
M  V30 2114 N 199.544 -1.57102 0.125237 0
M  V30 2115 C 200.494 -2.12202 -0.833936 0
M  V30 2116 C 201.478 -1.04433 -1.22403 0
M  V30 2117 O 202.67 -1.30655 -1.19408 0
M  V30 2118 C 199.799 -2.72994 -2.08157 0
M  V30 2119 C 198.885 -3.87852 -1.71556 0
M  V30 2120 N 199.276 -4.9464 -1.05662 0
M  V30 2121 C 197.574 -3.98153 -2.00973 0
M  V30 2122 C 198.275 -5.74953 -0.883376 0
M  V30 2123 N 197.251 -5.24985 -1.41036 0
M  V30 2124 H 201.053 -2.92141 -0.321035 0
M  V30 2125 H 198.567 -1.62217 -0.0770315 0
M  V30 2126 H 200.564 -3.10816 -2.77847 0
M  V30 2127 H 199.224 -1.9452 -2.59985 0
M  V30 2128 H 200.235 -5.12872 -0.719878 0
M  V30 2129 H 196.912 -3.30728 -2.54804 0
M  V30 2130 H 198.302 -6.70904 -0.365675 0
M  V30 2131 N 201.022 0.148545 -1.56898 0
M  V30 2132 C 202.27 0.859717 -1.82902 0
M  V30 2133 C 202.591 1.81775 -0.70588 0
M  V30 2134 O 201.861 1.93994 0.272586 0
M  V30 2135 H 200.441 0.320469 -0.674766 0
M  V30 2136 H 203.103 0.142918 -1.94375 0
M  V30 2137 H 202.199 1.4229 -2.77777 0
M  V30 2138 N 202.5 1.5196 0.417844 0
M  V30 2139 C 203.447 1.74678 1.50852 0
M  V30 2140 C 204.417 0.588947 1.55308 0
M  V30 2141 O 205.602 0.825544 1.72016 0
M  V30 2142 C 202.742 1.89544 2.88387 0
M  V30 2143 C 201.855 3.17166 2.93309 0
M  V30 2144 C 200.99 3.22513 4.22088 0
M  V30 2145 C 200.029 4.44372 4.20951 0
M  V30 2146 N 199.166 4.47161 5.41287 0
M  V30 2147 H 204.006 2.67768 1.30783 0
M  V30 2148 H 201.543 1.32689 0.63498 0
M  V30 2149 H 203.501 1.96146 3.68216 0
M  V30 2150 H 202.131 0.998424 3.06971 0
M  V30 2151 H 201.183 3.19778 2.06024 0
M  V30 2152 H 202.495 4.07021 2.88332 0
M  V30 2153 H 201.649 3.28139 5.10303 0
M  V30 2154 H 200.388 2.30581 4.29748 0
M  V30 2155 H 199.393 4.38902 3.31127 0
M  V30 2156 H 200.618 5.3759 4.14938 0
M  V30 2157 H 198.564 3.58108 5.49632 0
M  V30 2158 H 198.481 5.3085 5.3827 0
M  V30 2159 H 199.749 4.57005 6.3148 0
M  V30 2160 N 203.978 -0.674533 1.42435 0
M  V30 2161 C 204.91 -1.80005 1.41883 0
M  V30 2162 C 205.923 -1.59667 0.31787 0
M  V30 2163 O 207.112 -1.68781 0.580973 0
M  V30 2164 C 204.212 -3.17114 1.19549 0
M  V30 2165 C 203.385 -3.64299 2.42084 0
M  V30 2166 C 202.444 -4.80142 2.15291 0
M  V30 2167 O 201.47 -4.90673 2.88493 0
M  V30 2168 N 202.672 -5.68869 1.1562 0
M  V30 2169 H 205.437 -1.80964 2.38898 0
M  V30 2170 H 202.998 -0.857633 1.37318 0
M  V30 2171 H 204.99 -3.92267 0.995417 0
M  V30 2172 H 203.56 -3.11053 0.310569 0
M  V30 2173 H 202.78 -2.79822 2.77657 0
M  V30 2174 H 204.068 -3.92567 3.23679 0
M  V30 2175 H 203.466 -5.63012 0.550765 0
M  V30 2176 H 202.023 -6.43833 1.016 0
M  V30 2177 N 205.456 -1.28612 -0.910864 0
M  V30 2178 C 206.702 -1.16106 -1.66274 0
M  V30 2179 C 207.035 0.289113 -1.92036 0
M  V30 2180 O 206.31 1.21 -1.52281 0
M  V30 2181 C 206.593 -1.96309 -3.01885 0
M  V30 2182 C 206.446 -3.49405 -2.8326 0
M  V30 2183 C 207.765 -1.78076 -4.02463 0
M  V30 2184 H 204.884 -0.423152 -0.603417 0
M  V30 2185 H 207.526 -1.57961 -1.05586 0
M  V30 2186 H 205.676 -1.60742 -3.53687 0
M  V30 2187 H 207.348 -3.94894 -2.38446 0
M  V30 2188 H 205.591 -3.74893 -2.18261 0
M  V30 2189 H 206.262 -4.00784 -3.79574 0
M  V30 2190 H 208.738 -2.0912 -3.59733 0
M  V30 2191 H 207.614 -2.36561 -4.95308 0
M  V30 2192 H 207.875 -0.733008 -4.35981 0
M  V30 2193 N 206.934 1.1197 -1.10907 0
M  V30 2194 C 207.864 2.19928 -0.784473 0
M  V30 2195 C 208.845 1.6833 0.244726 0
M  V30 2196 O 210.03 1.93892 0.109418 0
M  V30 2197 C 207.16 3.46597 -0.220827 0
M  V30 2198 C 206.114 4.11376 -1.18127 0
M  V30 2199 C 205.44 5.32554 -0.478594 0
M  V30 2200 C 206.74 4.56945 -2.52979 0
M  V30 2201 H 208.434 2.47337 -1.68715 0
M  V30 2202 H 205.98 1.18879 -0.812642 0
M  V30 2203 H 207.933 4.21396 0.0184278 0
M  V30 2204 H 206.657 3.1863 0.717113 0
M  V30 2205 H 205.316 3.38564 -1.40606 0
M  V30 2206 H 204.964 5.00856 0.463976 0
M  V30 2207 H 204.664 5.76844 -1.11912 0
M  V30 2208 H 206.188 6.10096 -0.248 0
M  V30 2209 H 207.602 5.23093 -2.3462 0
M  V30 2210 H 205.999 5.1203 -3.12962 0
M  V30 2211 H 207.069 3.70676 -3.12614 0
M  V30 2212 N 208.412 0.89855 1.29475 0
M  V30 2213 C 209.689 0.443416 1.90508 0
M  V30 2214 C 210.069 -1.07685 1.81569 0
M  V30 2215 O 209.417 -1.9182 1.24166 0
M  V30 2216 C 209.627 0.956708 3.35631 0
M  V30 2217 C 210.975 0.999728 4.12663 0
M  V30 2218 O 211.999 0.904299 3.4453 0
M  V30 2219 O 210.858 1.14289 5.34416 0
M  V30 2220 H 207.952 0.138025 0.815401 0
M  V30 2221 H 210.498 0.98834 1.37949 0
M  V30 2222 H 209.27 2.00067 3.36287 0
M  V30 2223 H 208.893 0.391728 3.95666 0
M  V30 2224 N 209.89 -1.43072 0.660911 0
M  V30 2225 C 211.138 -2.01323 0.177094 0
M  V30 2226 C 211.459 -1.5245 -1.2159 0
M  V30 2227 O 210.729 -0.740322 -1.81373 0
M  V30 2228 H 209.309 -0.744382 0.0624804 0
M  V30 2229 H 211.971 -1.75179 0.854305 0
M  V30 2230 H 211.067 -3.11649 0.167641 0
M  V30 2231 N 211.368 -0.403325 -1.52352 0
M  V30 2232 C 212.316 0.439752 -2.28405 0
M  V30 2233 C 213.31 1.05089 -1.32863 0
M  V30 2234 O 214.516 0.989759 -1.50345 0
M  V30 2235 H 210.891 0.160587 -0.734653 0
M  V30 2236 H 212.862 -0.222983 -2.97566 0
M  V30 2237 C 211.611 1.54736 -3.11371 0
M  V30 2238 H 210.934 1.08643 -3.84755 0
M  V30 2239 H 212.374 2.1112 -3.67701 0
M  V30 2240 C 210.833 2.51141 -2.24566 0
M  V30 2241 O 211.363 3.54887 -1.88196 0
M  V30 2242 N 209.569 2.21213 -1.8845 0
M  V30 2243 H 209.116 1.36878 -2.18225 0
M  V30 2244 H 209.074 2.85963 -1.30662 0
M  V30 2245 N 212.846 1.57033 -0.133567 0
M  V30 2246 C 214.071 2.00475 0.531477 0
M  V30 2247 C 214.496 1.01291 1.58499 0
M  V30 2248 O 213.854 -0.0133279 1.81295 0
M  V30 2249 C 213.902 3.42729 1.12113 0
M  V30 2250 O 213.006 3.46498 2.23636 0
M  V30 2251 H 212.347 0.650876 0.131362 0
M  V30 2252 H 214.877 2.03344 -0.22634 0
M  V30 2253 H 214.887 3.81246 1.4531 0
M  V30 2254 H 213.562 4.14428 0.349557 0
M  V30 2255 H 212.139 3.19811 1.91769 0
M  V30 2256 N 214.325 -0.140222 1.56975 0
M  V30 2257 C 215.273 -1.19207 1.99731 0
M  V30 2258 C 216.267 -1.44089 0.890777 0
M  V30 2259 O 217.473 -1.44301 1.07597 0
M  V30 2260 H 213.848 -0.40142 0.635898 0
M  V30 2261 H 215.819 -0.804813 2.87342 0
M  V30 2262 C 214.568 -2.51617 2.39967 0
M  V30 2263 H 213.891 -2.33303 3.24669 0
M  V30 2264 H 215.331 -3.23827 2.73701 0
M  V30 2265 C 213.79 -3.12654 1.25496 0
M  V30 2266 O 214.32 -3.97786 0.559371 0
M  V30 2267 N 212.526 -2.72206 1.01746 0
M  V30 2268 H 212.073 -2.03074 1.58489 0
M  V30 2269 H 212.031 -3.13377 0.253461 0
M  V30 2270 N 215.803 -1.52179 -0.40978 0
M  V30 2271 C 217.214 -1.58377 -0.988615 0
M  V30 2272 C 217.565 -0.423879 -1.91566 0
M  V30 2273 O 216.69 0.455844 -2.11544 0
M  V30 2274 C 217.285 -2.87044 -1.79976 0
M  V30 2275 C 215.844 -2.95722 -2.32863 0
M  V30 2276 C 214.991 -2.53309 -1.12828 0
M  V30 2277 H 217.942 -1.57558 -0.190039 0
M  V30 2278 H 217.963 -2.7236 -2.65707 0
M  V30 2279 H 217.475 -3.71444 -1.12478 0
M  V30 2280 H 215.576 -2.15814 -3.03735 0
M  V30 2281 H 215.689 -3.99951 -2.63773 0
M  V30 2282 H 214.053 -2.07142 -1.48204 0
M  V30 2283 H 214.836 -3.40082 -0.46897 0
M  V30 2284 N 217.281 0.66697 -1.42791 0
M  V30 2285 C 218.511 1.45294 -1.46878 0
M  V30 2286 C 218.919 1.89027 -0.0809861 0
M  V30 2287 O 218.262 1.59219 0.916246 0
M  V30 2288 C 218.324 2.72908 -2.34012 0
M  V30 2289 C 217.988 2.51203 -3.81767 0
M  V30 2290 C 218.985 2.15302 -4.73224 0
M  V30 2291 C 216.67 2.65954 -4.26115 0
M  V30 2292 C 218.664 1.94431 -6.07022 0
M  V30 2293 C 216.351 2.44699 -5.59969 0
M  V30 2294 C 217.349 2.08992 -6.5024 0
M  V30 2295 O 217.037 1.87948 -7.81621 0
M  V30 2296 H 216.769 0.453306 -0.501487 0
M  V30 2297 H 219.323 0.826232 -1.88049 0
M  V30 2298 H 217.553 3.38089 -1.87703 0
M  V30 2299 H 219.242 3.34816 -2.29462 0
M  V30 2300 H 220.008 2.03495 -4.40244 0
M  V30 2301 H 215.887 2.92724 -3.56137 0
M  V30 2302 H 219.431 1.66484 -6.77443 0
M  V30 2303 H 215.328 2.56105 -5.9252 0
M  V30 2304 H 216.096 2.02483 -7.93059 0
M  V30 2305 N 218.759 1.29093 0.90403 0
M  V30 2306 C 220.036 1.075 1.63411 0
M  V30 2307 C 220.416 -0.382346 2.07609 0
M  V30 2308 O 219.764 -1.37031 1.82851 0
M  V30 2309 C 219.974 2.05858 2.81822 0
M  V30 2310 C 221.322 2.36539 3.52611 0
M  V30 2311 O 222.346 2.04019 2.91984 0
M  V30 2312 O 221.205 2.92085 4.61897 0
M  V30 2313 H 218.299 0.411547 0.717327 0
M  V30 2314 H 220.845 1.40449 0.952479 0
M  V30 2315 H 219.617 3.04037 2.46327 0
M  V30 2316 H 219.24 1.73613 3.57693 0
M  V30 2317 N 220.237 -1.11381 1.11499 0
M  V30 2318 C 221.486 -1.82494 0.858993 0
M  V30 2319 C 221.799 -1.85605 -0.617278 0
M  V30 2320 O 223.005 -2.52824 -0.989552 0
M  V30 2321 C 221.461 -3.27745 1.48699 0
M  V30 2322 C 221.069 -3.32961 2.99735 0
M  V30 2323 C 222.813 -4.03754 1.31085 0
M  V30 2324 C 220.72 -4.72612 3.55516 0
M  V30 2325 H 219.65 -0.683802 0.317696 0
M  V30 2326 H 222.301 -1.25331 1.34031 0
M  V30 2327 H 220.683 -3.84844 0.933339 0
M  V30 2328 H 221.857 -2.85741 3.61509 0
M  V30 2329 H 220.172 -2.70433 3.16631 0
M  V30 2330 H 222.769 -5.06891 1.70192 0
M  V30 2331 H 223.112 -4.15527 0.253496 0
M  V30 2332 H 223.645 -3.53043 1.83318 0
M  V30 2333 H 220.384 -4.66036 4.60967 0
M  V30 2334 H 219.904 -5.2024 2.98513 0
M  V30 2335 H 221.583 -5.4157 3.53992 0
M  V30 2336 N 221.715 -0.905404 -1.28997 0
M  V30 2337 C 222.962 -0.534248 -1.95325 0
M  V30 2338 C 223.29 0.920535 -1.71337 0
M  V30 2339 O 222.545 1.66861 -1.02254 0
M  V30 2340 C 222.844 -0.779906 -3.48787 0
M  V30 2341 C 222.51 -2.21293 -3.92861 0
M  V30 2342 C 221.172 -2.60475 -4.04606 0
M  V30 2343 C 223.524 -3.14587 -4.15553 0
M  V30 2344 C 220.852 -3.9212 -4.36416 0
M  V30 2345 C 223.204 -4.45787 -4.48839 0
M  V30 2346 C 221.868 -4.84834 -4.58794 0
M  V30 2347 H 221.138 -0.195495 -0.714747 0
M  V30 2348 H 223.785 -1.14514 -1.53488 0
M  V30 2349 H 222.09 -0.0861365 -3.91705 0
M  V30 2350 H 223.787 -0.472029 -3.98212 0
M  V30 2351 H 220.377 -1.89887 -3.84241 0
M  V30 2352 H 224.561 -2.85528 -4.0594 0
M  V30 2353 H 219.817 -4.22086 -4.42327 0
M  V30 2354 H 223.991 -5.18098 -4.65346 0
M  V30 2355 H 221.618 -5.86877 -4.83197 0
M  V30 2356 N 223.193 1.4272 -0.668489 0
M  V30 2357 C 224.123 2.335 -0.000100175 0
M  V30 2358 C 225.104 1.50328 0.795964 0
M  V30 2359 O 226.289 1.78949 0.754385 0
M  V30 2360 C 223.419 3.33874 0.956302 0
M  V30 2361 C 222.373 4.27152 0.269278 0
M  V30 2362 C 221.699 5.17684 1.33818 0
M  V30 2363 C 222.999 5.15373 -0.847805 0
M  V30 2364 H 224.693 2.89639 -0.758244 0
M  V30 2365 H 222.239 1.39269 -0.366079 0
M  V30 2366 H 224.192 3.9629 1.43292 0
M  V30 2367 H 222.916 2.76025 1.74579 0
M  V30 2368 H 221.575 3.66123 -0.187042 0
M  V30 2369 H 221.223 4.56165 2.1195 0
M  V30 2370 H 220.923 5.80918 0.883659 0
M  V30 2371 H 222.447 5.82974 1.81586 0
M  V30 2372 H 223.861 5.7151 -0.452681 0
M  V30 2373 H 222.258 5.87407 -1.22773 0
M  V30 2374 H 223.328 4.5415 -1.69929 0
M  V30 2375 N 224.671 0.411399 1.52136 0
M  V30 2376 C 225.618 -0.412975 2.27075 0
M  V30 2377 C 226.588 -1.03912 1.29582 0
M  V30 2378 O 227.773 -1.06296 1.58448 0
M  V30 2379 C 224.913 -1.52247 3.09701 0
M  V30 2380 C 224.026 -0.917021 4.22155 0
M  V30 2381 C 223.161 -1.9994 4.92135 0
M  V30 2382 C 222.2 -1.37101 5.96548 0
M  V30 2383 N 221.337 -2.39364 6.60038 0
M  V30 2384 H 226.177 0.232499 2.97092 0
M  V30 2385 H 223.714 0.126496 1.46555 0
M  V30 2386 H 225.672 -2.17674 3.55913 0
M  V30 2387 H 224.302 -2.13794 2.41851 0
M  V30 2388 H 223.354 -0.151742 3.80097 0
M  V30 2389 H 224.666 -0.418006 4.97045 0
M  V30 2390 H 223.82 -2.73088 5.41763 0
M  V30 2391 H 222.559 -2.53208 4.16818 0
M  V30 2392 H 221.564 -0.624873 5.46237 0
M  V30 2393 H 222.789 -0.845998 6.7381 0
M  V30 2394 H 220.735 -2.91759 5.87548 0
M  V30 2395 H 220.652 -1.9428 7.3061 0
M  V30 2396 H 221.92 -3.12074 7.14304 0
M  V30 2397 N 226.149 -1.5696 0.141893 0
M  V30 2398 C 227.426 -1.87553 -0.555281 0
M  V30 2399 C 227.806 -1.04699 -1.83306 0
M  V30 2400 O 227.154 -0.132346 -2.28116 0
M  V30 2401 C 227.364 -3.39093 -0.825664 0
M  V30 2402 C 228.712 -4.08199 -1.16869 0
M  V30 2403 O 229.736 -3.44242 -0.915185 0
M  V30 2404 O 228.595 -5.21139 -1.6455 0
M  V30 2405 H 225.689 -0.777188 -0.282679 0
M  V30 2406 H 228.235 -1.68763 0.17812 0
M  V30 2407 H 227.007 -3.91221 0.0788633 0
M  V30 2408 H 226.63 -3.63393 -1.61343 0
M  V30 2409 N 227.627 0.131896 -1.57047 0
M  V30 2410 C 228.557 1.16384 -2.02428 0
M  V30 2411 C 229.538 1.43936 -0.90644 0
M  V30 2412 O 230.723 1.54599 -1.17528 0
M  V30 2413 C 227.853 2.49328 -2.4177 0
M  V30 2414 C 226.807 2.36266 -3.56879 0
M  V30 2415 C 226.133 3.74057 -3.8208 0
M  V30 2416 C 227.433 1.834 -4.89042 0
M  V30 2417 H 229.127 0.786433 -2.88887 0
M  V30 2418 H 226.673 0.376855 -1.38981 0
M  V30 2419 H 228.626 3.21759 -2.7212 0
M  V30 2420 H 227.35 2.88934 -1.52266 0
M  V30 2421 H 226.009 1.66286 -3.26718 0
M  V30 2422 H 225.657 4.11125 -2.89803 0
M  V30 2423 H 225.357 3.66174 -4.59554 0
M  V30 2424 H 226.881 4.48012 -4.1487 0
M  V30 2425 H 228.295 2.45636 -5.18011 0
M  V30 2426 H 226.692 1.8637 -5.70426 0
M  V30 2427 H 227.762 0.790662 -4.7841 0
M  V30 2428 N 229.106 1.52395 0.401703 0
M  V30 2429 C 230.016 1.7917 1.51444 0
M  V30 2430 C 231.032 0.677691 1.6026 0
M  V30 2431 O 232.208 0.963909 1.76835 0
M  V30 2432 C 229.273 1.94347 2.87107 0
M  V30 2433 C 228.334 3.18257 2.88116 0
M  V30 2434 C 227.567 3.32701 4.17308 0
M  V30 2435 O 227.79 2.52238 5.11598 0
M  V30 2436 O 226.724 4.25891 4.25324 0
M  V30 2437 H 230.55 2.73633 1.31752 0
M  V30 2438 H 228.135 1.3733 0.588296 0
M  V30 2439 H 230.017 2.06109 3.67555 0
M  V30 2440 H 228.692 1.03073 3.06851 0
M  V30 2441 H 227.599 3.11947 2.06494 0
M  V30 2442 H 228.932 4.09336 2.73322 0
M  V30 2443 N 230.584 -0.659388 1.43143 0
M  V30 2444 C 231.995 -1.24041 1.39537 0
M  V30 2445 C 232.346 -1.95963 0.0963364 0
M  V30 2446 O 231.471 -2.00892 -0.804438 0
M  V30 2447 C 232.066 -2.25601 2.52764 0
M  V30 2448 C 230.625 -2.79195 2.52443 0
M  V30 2449 C 229.772 -1.53743 2.30778 0
M  V30 2450 H 232.723 -0.451792 1.52133 0
M  V30 2451 H 232.744 -3.07651 2.23899 0
M  V30 2452 H 232.256 -1.73226 3.47296 0
M  V30 2453 H 230.357 -3.35649 1.61773 0
M  V30 2454 H 230.47 -3.2716 3.50004 0
M  V30 2455 H 228.834 -1.80869 1.79328 0
M  V30 2456 H 229.617 -1.03312 3.27386 0
M  V30 2457 N 232.062 -1.29571 -0.897171 0
M  V30 2458 C 233.473 -1.15964 -1.46319 0
M  V30 2459 C 233.824 0.244267 -1.94674 0
M  V30 2460 O 232.949 1.13998 -1.83939 0
M  V30 2461 C 233.544 -2.09906 -2.65942 0
M  V30 2462 C 232.103 -2.00314 -3.18671 0
M  V30 2463 C 231.25 -2.00687 -1.91363 0
M  V30 2464 H 234.201 -1.42019 -0.708268 0
M  V30 2465 H 234.222 -1.67276 -3.41759 0
M  V30 2466 H 233.734 -3.12075 -2.30718 0
M  V30 2467 H 231.835 -1.01242 -3.58582 0
M  V30 2468 H 231.948 -2.88102 -3.82798 0
M  V30 2469 H 230.312 -1.45319 -2.09175 0
M  V30 2470 H 231.095 -3.04566 -1.58413 0
M  V30 2471 N 233.54 1.10788 -1.12088 0
M  V30 2472 C 234.789 1.82036 -0.868659 0
M  V30 2473 C 235.102 1.85929 0.607426 0
M  V30 2474 O 236.308 2.53346 0.97613 0
M  V30 2475 C 234.764 3.26951 -1.50435 0
M  V30 2476 C 234.372 3.31367 -3.01496 0
M  V30 2477 C 236.116 4.03053 -1.33225 0
M  V30 2478 C 234.023 4.7072 -3.58017 0
M  V30 2479 H 232.953 0.682108 -0.321318 0
M  V30 2480 H 235.604 1.24618 -1.34694 0
M  V30 2481 H 233.986 3.84343 -0.953735 0
M  V30 2482 H 235.16 2.83819 -3.6302 0
M  V30 2483 H 233.475 2.6875 -3.18061 0
M  V30 2484 H 236.072 5.05981 -1.72878 0
M  V30 2485 H 236.415 4.15387 -0.275529 0
M  V30 2486 H 236.948 3.52066 -1.85188 0
M  V30 2487 H 233.687 4.63585 -4.63432 0
M  V30 2488 H 233.207 5.1865 -3.01268 0
M  V30 2489 H 234.886 5.39685 -3.56859 0
M  V30 2490 N 235.018 0.912232 1.28515 0
M  V30 2491 C 236.264 0.545405 1.95328 0
M  V30 2492 C 236.597 -0.908313 1.71649 0
M  V30 2493 O 235.872 -1.64575 1.03659 0
M  V30 2494 C 236.155 0.853483 3.4984 0
M  V30 2495 C 236.008 2.35982 3.82926 0
M  V30 2496 C 237.327 0.348589 4.38717 0
M  V30 2497 H 234.446 0.199626 0.709449 0
M  V30 2498 H 237.088 1.1412 1.5191 0
M  V30 2499 H 235.238 0.34643 3.86952 0
M  V30 2500 H 236.91 2.93738 3.55691 0
M  V30 2501 H 235.153 2.81543 3.30024 0
M  V30 2502 H 235.824 2.52593 4.90816 0
M  V30 2503 H 238.3 0.78294 4.08668 0
M  V30 2504 H 237.176 0.593242 5.45685 0
M  V30 2505 H 237.437 -0.751049 4.35674 0
M  V30 2506 N 236.496 -1.42363 0.676048 0
M  V30 2507 C 237.459 -2.29199 0.00766941 0
M  V30 2508 C 238.459 -1.43389 -0.727745 0
M  V30 2509 O 239.649 -1.64764 -0.56556 0
M  V30 2510 C 236.781 -3.2591 -0.999785 0
M  V30 2511 H 237.974 -2.89794 0.771988 0
M  V30 2512 H 235.527 -1.50024 0.438468 0
M  V30 2513 H 236.262 -2.70256 -1.79255 0
M  V30 2514 H 236.047 -3.89202 -0.475829 0
M  V30 2515 H 237.537 -3.91028 -1.46583 0
M  V30 2516 N 237.974 -0.419461 -1.51915 0
M  V30 2517 C 239.39 -0.0708431 -1.59443 0
M  V30 2518 C 239.59 1.41796 -1.43164 0
M  V30 2519 O 238.646 2.18596 -1.26381 0
M  V30 2520 C 239.959 -0.574991 -2.95151 0
M  V30 2521 C 241.507 -0.533867 -3.08413 0
M  V30 2522 C 241.982 -1.01469 -4.46618 0
M  V30 2523 N 243.473 -0.971939 -4.52888 0
M  V30 2524 C 244.208 -1.31505 -5.58116 0
M  V30 2525 N 243.704 -1.73014 -6.70849 0
M  V30 2526 N 245.497 -1.23436 -5.48379 0
M  V30 2527 H 237.648 -1.38836 -1.60743 0
M  V30 2528 H 239.911 -0.570998 -0.756747 0
M  V30 2529 H 239.617 -1.61597 -3.12377 0
M  V30 2530 H 239.491 0.00979777 -3.77199 0
M  V30 2531 H 241.878 0.498086 -2.90866 0
M  V30 2532 H 241.959 -1.15484 -2.28248 0
M  V30 2533 H 241.603 -2.04502 -4.6491 0
M  V30 2534 H 241.533 -0.370433 -5.25295 0
M  V30 2535 H 244.024 -0.666893 -3.71969 0
M  V30 2536 H 244.337 -1.97479 -7.47143 0
M  V30 2537 H 242.682 -1.76926 -6.72103 0
M  V30 2538 H 245.873 -0.908869 -4.59192 0
M  V30 2539 H 246.046 -1.50506 -6.30279 0
M  V30 2540 N 239.452 1.56882 -0.150215 0
M  V30 2541 C 240.699 1.96228 0.500093 0
M  V30 2542 C 241.027 1.03522 1.64661 0
M  V30 2543 O 240.282 0.0650683 1.95592 0
M  V30 2544 C 240.581 3.41801 1.04437 0
M  V30 2545 C 240.247 4.50897 0.0159671 0
M  V30 2546 C 238.909 4.8046 -0.266731 0
M  V30 2547 C 241.261 5.16703 -0.683192 0
M  V30 2548 C 238.589 5.73135 -1.25434 0
M  V30 2549 C 240.941 6.10441 -1.65964 0
M  V30 2550 C 239.605 6.38382 -1.95 0
M  V30 2551 H 238.875 0.718048 0.182997 0
M  V30 2552 H 241.522 1.90019 -0.237724 0
M  V30 2553 H 239.827 3.44857 1.85959 0
M  V30 2554 H 241.524 3.69573 1.55618 0
M  V30 2555 H 238.114 4.27891 0.246485 0
M  V30 2556 H 242.298 4.93993 -0.477983 0
M  V30 2557 H 237.554 5.93074 -1.48571 0
M  V30 2558 H 241.728 6.60507 -2.20689 0
M  V30 2559 H 239.355 7.09996 -2.71679 0
M  V30 2560 N 240.93 -0.123565 1.57115 0
M  V30 2561 C 242.176 -0.833386 1.84885 0
M  V30 2562 C 242.509 -1.79742 0.735292 0
M  V30 2563 O 241.784 -1.92764 -0.25925 0
M  V30 2564 C 242.067 -1.5873 3.23228 0
M  V30 2565 C 241.92 -0.643183 4.45178 0
M  V30 2566 C 243.239 -2.54453 3.59085 0
M  V30 2567 H 240.358 -0.301518 0.6725 0
M  V30 2568 H 243 -0.097778 1.89748 0
M  V30 2569 H 241.15 -2.21438 3.19214 0
M  V30 2570 H 242.822 -0.0253015 4.61293 0
M  V30 2571 H 241.065 0.0456139 4.33776 0
M  V30 2572 H 241.736 -1.20724 5.38637 0
M  V30 2573 H 244.212 -2.01853 3.63861 0
M  V30 2574 H 243.088 -3.04238 4.5687 0
M  V30 2575 H 243.349 -3.36906 2.86264 0
M  V30 2576 N 242.408 -1.52605 -0.393616 0
M  V30 2577 C 243.824 -1.41753 -0.733357 0
M  V30 2578 C 244.024 -0.534293 -1.94287 0
M  V30 2579 O 243.08 -0.0059787 -2.52499 0
M  V30 2580 C 244.393 -2.84531 -0.972772 0
M  V30 2581 C 245.941 -2.93978 -1.07453 0
M  V30 2582 C 246.416 -4.37756 -1.3466 0
M  V30 2583 N 247.907 -4.4106 -1.41492 0
M  V30 2584 C 248.642 -5.49387 -1.642 0
M  V30 2585 N 248.138 -6.67806 -1.8441 0
M  V30 2586 N 249.931 -5.36923 -1.66342 0
M  V30 2587 H 242.082 -2.08555 0.402328 0
M  V30 2588 H 244.345 -0.940654 0.117789 0
M  V30 2589 H 244.051 -3.51353 -0.156204 0
M  V30 2590 H 243.925 -3.26508 -1.88871 0
M  V30 2591 H 246.312 -2.27326 -1.88167 0
M  V30 2592 H 246.393 -2.55435 -0.136605 0
M  V30 2593 H 246.037 -5.04972 -0.544581 0
M  V30 2594 H 245.967 -4.73848 -2.2973 0
M  V30 2595 H 248.458 -3.55705 -1.27601 0
M  V30 2596 H 248.771 -7.46141 -2.01231 0
M  V30 2597 H 247.116 -6.70843 -1.81644 0
M  V30 2598 H 250.307 -4.43381 -1.50102 0
M  V30 2599 H 250.48 -6.21416 -1.837 0
M  V30 2600 N 243.887 0.651787 -1.4349 0
M  V30 2601 C 245.134 1.41167 -1.45183 0
M  V30 2602 C 245.462 1.94349 -0.0766601 0
M  V30 2603 O 244.717 1.72804 0.918555 0
M  V30 2604 C 245.016 2.60914 -2.44251 0
M  V30 2605 C 244.682 2.26142 -3.9009 0
M  V30 2606 C 243.344 2.16371 -4.2981 0
M  V30 2607 C 245.696 1.98334 -4.81989 0
M  V30 2608 C 243.024 1.7695 -5.5938 0
M  V30 2609 C 245.376 1.6041 -6.11924 0
M  V30 2610 C 244.04 1.49166 -6.5062 0
M  V30 2611 H 243.31 0.516566 -0.531263 0
M  V30 2612 H 245.957 0.741099 -1.76579 0
M  V30 2613 H 244.262 3.3311 -2.06265 0
M  V30 2614 H 245.959 3.19127 -2.42815 0
M  V30 2615 H 242.549 2.34658 -3.58655 0
M  V30 2616 H 246.733 2.04803 -4.52072 0
M  V30 2617 H 241.989 1.66831 -5.88198 0
M  V30 2618 H 246.163 1.37925 -6.82605 0
M  V30 2619 H 243.79 1.1839 -7.50925 0
M  V30 2620 N 245.365 1.30045 0.890287 0
M  V30 2621 C 246.614 1.17929 1.63633 0
M  V30 2622 C 246.927 -0.266204 1.9378 0
M  V30 2623 O 248.133 -0.508804 2.6669 0
M  V30 2624 C 246.589 2.06317 2.94892 0
M  V30 2625 C 246.197 3.55745 2.72305 0
M  V30 2626 C 247.941 2.0295 3.72843 0
M  V30 2627 C 245.848 4.36205 3.99348 0
M  V30 2628 H 244.778 0.437782 0.613892 0
M  V30 2629 H 247.429 1.54754 0.986075 0
M  V30 2630 H 245.811 1.6237 3.61182 0
M  V30 2631 H 246.985 4.07805 2.1455 0
M  V30 2632 H 245.3 3.6088 2.07737 0
M  V30 2633 H 247.897 2.60319 4.67053 0
M  V30 2634 H 248.24 1.0117 4.0382 0
M  V30 2635 H 248.773 2.4499 3.13408 0
M  V30 2636 H 245.512 5.38659 3.73533 0
M  V30 2637 H 245.032 3.8891 4.56628 0
M  V30 2638 H 246.711 4.47362 4.67415 0
M  V30 2639 N 246.843 -1.10192 1.12674 0
M  V30 2640 C 248.254 -1.63707 0.897604 0
M  V30 2641 C 248.605 -1.87812 -0.567546 0
M  V30 2642 O 247.73 -1.62196 -1.43253 0
M  V30 2643 C 248.325 -2.974 1.62292 0
M  V30 2644 C 246.884 -3.47772 1.43986 0
M  V30 2645 C 246.031 -2.22332 1.65722 0
M  V30 2646 H 248.982 -0.936587 1.28116 0
M  V30 2647 H 249.003 -3.64986 1.07541 0
M  V30 2648 H 248.515 -2.79824 2.68924 0
M  V30 2649 H 246.616 -3.70487 0.396206 0
M  V30 2650 H 246.729 -4.25723 2.19765 0
M  V30 2651 H 245.093 -2.30599 1.08149 0
M  V30 2652 H 245.876 -2.07285 2.73657 0
M  V30 2653 N 248.321 -0.919034 -1.28029 0
M  V30 2654 C 249.567 -0.555757 -1.95036 0
M  V30 2655 C 249.9 0.899198 -1.72128 0
M  V30 2656 O 249.175 1.64023 -1.04531 0
M  V30 2657 C 249.458 -0.872024 -3.49382 0
M  V30 2658 C 249.311 -2.3801 -3.81669 0
M  V30 2659 C 250.63 -0.37185 -4.38526 0
M  V30 2660 H 247.749 -0.203386 -0.708381 0
M  V30 2661 H 250.391 -1.14924 -1.51303 0
M  V30 2662 H 248.541 -0.366946 -3.86763 0
M  V30 2663 H 250.213 -2.9562 -3.54128 0
M  V30 2664 H 248.456 -2.83289 -3.28526 0
M  V30 2665 H 249.127 -2.55192 -4.8947 0
M  V30 2666 H 251.603 -0.804602 -4.08247 0
M  V30 2667 H 250.479 -0.622173 -5.45362 0
M  V30 2668 H 250.74 0.727934 -4.36066 0
M  V30 2669 N 249.799 1.42003 -0.683588 0
M  V30 2670 C 251.027 2.05746 -0.218182 0
M  V30 2671 C 251.442 1.51396 1.12804 0
M  V30 2672 O 250.799 0.657303 1.70252 0
M  V30 2673 C 250.85 3.61171 -0.154131 0
M  V30 2674 O 250.571 4.13508 -1.44716 0
M  V30 2675 C 252.072 4.42042 0.333713 0
M  V30 2676 H 249.292 0.662888 -0.10402 0
M  V30 2677 H 251.836 1.81987 -0.9328 0
M  V30 2678 H 249.991 3.84012 0.511231 0
M  V30 2679 H 250.405 5.07453 -1.32632 0
M  V30 2680 H 251.879 5.51028 0.327423 0
M  V30 2681 H 252.356 4.17269 1.37053 0
M  V30 2682 H 252.962 4.24239 -0.300222 0
M  V30 2683 N 251.277 0.427512 1.51691 0
M  V30 2684 C 252.554 -0.201684 1.94557 0
M  V30 2685 C 252.934 -1.60981 1.36559 0
M  V30 2686 O 252.282 -2.21814 0.548702 0
M  V30 2687 C 252.492 -0.189394 3.48486 0
M  V30 2688 C 253.84 -0.39978 4.22714 0
M  V30 2689 O 254.864 -0.267945 3.55191 0
M  V30 2690 O 253.723 -0.661249 5.42485 0
M  V30 2691 H 250.817 -0.135261 0.815864 0
M  V30 2692 H 253.363 0.484782 1.62628 0
M  V30 2693 H 252.135 0.795431 3.8313 0
M  V30 2694 H 251.758 -0.919187 3.86829 0
M  V30 2695 N 252.755 -1.56801 0.158532 0
M  V30 2696 C 253.705 -2.13923 -0.788738 0
M  V30 2697 C 254.689 -1.07006 -1.2016 0
M  V30 2698 O 255.881 -1.33159 -1.1661 0
M  V30 2699 C 253.01 -2.77348 -2.02319 0
M  V30 2700 C 252.096 -3.91404 -1.6329 0
M  V30 2701 N 252.487 -4.9677 -0.951463 0
M  V30 2702 C 250.785 -4.02326 -1.92482 0
M  V30 2703 C 251.486 -5.76698 -0.761221 0
M  V30 2704 N 250.462 -5.27859 -1.29869 0
M  V30 2705 H 254.264 -2.92757 -0.258995 0
M  V30 2706 H 251.778 -1.62344 -0.0426055 0
M  V30 2707 H 253.775 -3.16639 -2.71192 0
M  V30 2708 H 252.435 -1.99991 -2.558 0
M  V30 2709 H 253.446 -5.14284 -0.610928 0
M  V30 2710 H 250.123 -3.36059 -2.47732 0
M  V30 2711 H 251.513 -6.71529 -0.223284 0
M  V30 2712 N 254.233 0.115231 -1.57178 0
M  V30 2713 C 255.458 0.840354 -1.89612 0
M  V30 2714 C 255.883 1.72464 -0.750845 0
M  V30 2715 O 255.241 1.78826 0.298478 0
M  V30 2716 C 255.289 1.64654 -3.20814 0
M  V30 2717 O 254.393 2.7538 -3.06985 0
M  V30 2718 H 253.734 0.232158 -0.622092 0
M  V30 2719 H 256.264 0.0964977 -2.04372 0
M  V30 2720 H 256.274 2.03499 -3.53627 0
M  V30 2721 H 254.949 0.997416 -4.03763 0
M  V30 2722 H 253.526 2.3971 -2.85646 0
M  V30 2723 N 255.711 1.52812 0.385517 0
M  V30 2724 C 256.644 1.72592 1.49289 0
M  V30 2725 C 257.622 0.573819 1.52138 0
M  V30 2726 O 258.806 0.80404 1.70492 0
M  V30 2727 C 255.933 1.78669 2.87741 0
M  V30 2728 C 254.979 3.00455 3.02703 0
M  V30 2729 S 255.812 4.60366 2.73538 0
M  V30 2730 C 256.968 4.69263 4.14177 0
M  V30 2731 H 257.201 2.66248 1.32285 0
M  V30 2732 H 254.734 1.43148 0.578611 0
M  V30 2733 H 256.692 1.82855 3.67524 0
M  V30 2734 H 255.353 0.861 3.02069 0
M  V30 2735 H 254.546 3.01258 4.04054 0
M  V30 2736 H 254.148 2.94278 2.30817 0
M  V30 2737 H 256.44 4.48092 5.08153 0
M  V30 2738 H 257.383 5.71276 4.18388 0
M  V30 2739 H 257.791 3.98072 4.00249 0
M  V30 2740 N 257.189 -0.644168 1.43834 0
M  V30 2741 C 258.137 -1.77793 1.49974 0
M  V30 2742 C 259.131 -1.65253 0.372536 0
M  V30 2743 O 260.337 -1.7149 0.546924 0
M  V30 2744 H 256.712 -0.58675 0.47035 0
M  V30 2745 H 258.683 -1.69736 2.45423 0
M  V30 2746 C 257.432 -3.16087 1.4486 0
M  V30 2747 H 256.755 -3.26378 2.30905 0
M  V30 2748 H 258.195 -3.95349 1.53217 0
M  V30 2749 C 256.654 -3.36484 0.167463 0
M  V30 2750 O 257.184 -3.94298 -0.767609 0
M  V30 2751 N 255.39 -2.90504 0.0747556 0
M  V30 2752 H 254.937 -2.4364 0.836507 0
M  V30 2753 H 254.895 -3.04527 -0.781714 0
M  V30 2754 N 258.668 -1.30515 -0.883378 0
M  V30 2755 C 259.914 -1.19607 -1.63774 0
M  V30 2756 C 260.247 0.248314 -1.92606 0
M  V30 2757 O 259.522 1.17742 -1.54813 0
M  V30 2758 C 259.805 -2.02669 -2.97653 0
M  V30 2759 C 259.658 -3.55335 -2.75784 0
M  V30 2760 C 260.977 -1.86573 -3.98596 0
M  V30 2761 H 258.096 -0.435856 -0.594305 0
M  V30 2762 H 260.738 -1.60165 -1.02212 0
M  V30 2763 H 258.888 -1.68208 -3.50197 0
M  V30 2764 H 260.56 -3.99863 -2.30016 0
M  V30 2765 H 258.803 -3.79438 -2.1026 0
M  V30 2766 H 259.474 -4.08745 -3.70988 0
M  V30 2767 H 261.95 -2.16703 -3.55217 0
M  V30 2768 H 260.826 -2.47014 -4.90179 0
M  V30 2769 H 261.087 -0.825321 -4.34328 0
M  V30 2770 N 260.146 1.09593 -1.13257 0
M  V30 2771 C 261.386 1.83349 -0.903472 0
M  V30 2772 C 261.75 1.83641 0.560351 0
M  V30 2773 O 262.951 2.53037 0.906947 0
M  V30 2774 C 261.222 3.25629 -1.47311 0
M  V30 2775 S 262.781 4.16408 -1.38382 0
M  V30 2776 H 259.599 0.632014 -0.325699 0
M  V30 2777 H 262.201 1.31817 -1.44376 0
M  V30 2778 H 260.905 3.22991 -2.53189 0
M  V30 2779 H 260.436 3.82233 -0.930689 0
M  V30 2780 H 262.451 4.94884 -0.361113 0
M  V30 2781 N 261.624 0.925811 1.2754 0
M  V30 2782 C 262.557 0.367836 2.25216 0
M  V30 2783 C 263.535 -0.534738 1.53556 0
M  V30 2784 O 264.719 -0.475672 1.824 0
M  V30 2785 C 261.846 -0.47298 3.35381 0
M  V30 2786 C 260.892 0.365898 4.24928 0
M  V30 2787 S 261.725 1.78025 5.05042 0
M  V30 2788 C 262.881 0.947068 6.18693 0
M  V30 2789 H 263.114 1.19568 2.72196 0
M  V30 2790 H 260.647 0.727867 1.36167 0
M  V30 2791 H 262.605 -0.952242 3.99303 0
M  V30 2792 H 261.266 -1.27533 2.87044 0
M  V30 2793 H 260.459 -0.277582 5.03235 0
M  V30 2794 H 260.061 0.779261 3.65792 0
M  V30 2795 H 262.353 0.182201 6.77255 0
M  V30 2796 H 263.296 1.70309 6.87314 0
M  V30 2797 H 263.704 0.489913 5.6237 0
M  V30 2798 N 263.102 -1.41638 0.69111 0
M  V30 2799 C 264.518 -1.55435 0.362224 0
M  V30 2800 C 264.718 -1.66754 -1.13117 0
M  V30 2801 O 263.774 -1.64348 -1.91692 0
M  V30 2802 C 265.087 -2.79588 1.10684 0
M  V30 2803 C 266.635 -2.9338 1.09075 0
M  V30 2804 C 267.11 -4.20414 1.81703 0
M  V30 2805 N 268.601 -4.27362 1.7865 0
M  V30 2806 C 269.336 -5.24507 2.31689 0
M  V30 2807 N 268.832 -6.27708 2.93179 0
M  V30 2808 N 270.625 -5.16416 2.2197 0
M  V30 2809 H 262.776 -1.32536 1.65976 0
M  V30 2810 H 265.039 -0.639115 0.700168 0
M  V30 2811 H 264.745 -2.77419 2.16175 0
M  V30 2812 H 264.619 -3.70973 0.682545 0
M  V30 2813 H 267.006 -2.95067 0.0441238 0
M  V30 2814 H 267.087 -2.0318 1.55407 0
M  V30 2815 H 266.731 -4.19488 2.86343 0
M  V30 2816 H 266.661 -5.09578 1.32808 0
M  V30 2817 H 269.152 -3.53415 1.33815 0
M  V30 2818 H 269.465 -6.98217 3.31229 0
M  V30 2819 H 267.81 -6.28223 2.97255 0
M  V30 2820 H 271.001 -4.34716 1.73607 0
M  V30 2821 H 271.174 -5.91958 2.63609 0
M  V30 2822 N 264.58 -0.43555 -1.51462 0
M  V30 2823 C 265.826 0.131709 -2.02372 0
M  V30 2824 C 266.159 1.42516 -1.3192 0
M  V30 2825 O 265.434 1.89606 -0.433573 0
M  V30 2826 C 265.717 0.352301 -3.58373 0
M  V30 2827 C 265.57 -0.959676 -4.39443 0
M  V30 2828 C 266.889 1.12286 -4.25535 0
M  V30 2829 H 264.008 0.0463936 -0.735538 0
M  V30 2830 H 266.65 -0.574197 -1.81116 0
M  V30 2831 H 264.8 0.9536 -3.76615 0
M  V30 2832 H 266.472 -1.59482 -4.32855 0
M  V30 2833 H 264.715 -1.56468 -4.04599 0
M  V30 2834 H 265.386 -0.759394 -5.46752 0
M  V30 2835 H 267.862 0.613545 -4.11552 0
M  V30 2836 H 266.738 1.24598 -5.34571 0
M  V30 2837 H 266.999 2.15048 -3.86273 0
M  V30 2838 N 266.058 1.56714 -0.166846 0
M  V30 2839 C 266.968 2.21331 0.777791 0
M  V30 2840 C 267.984 1.20358 1.25658 0
M  V30 2841 O 269.16 1.53005 1.30964 0
M  V30 2842 C 266.225 2.83787 1.99163 0
M  V30 2843 C 265.286 3.99947 1.56016 0
M  V30 2844 C 264.519 4.59415 2.71613 0
M  V30 2845 O 264.742 4.17769 3.88362 0
M  V30 2846 O 263.676 5.49359 2.45945 0
M  V30 2847 H 267.502 3.02605 0.257636 0
M  V30 2848 H 265.087 1.49275 0.0611393 0
M  V30 2849 H 266.969 3.23405 2.70161 0
M  V30 2850 H 265.644 2.05513 2.50092 0
M  V30 2851 H 264.551 3.65007 0.819809 0
M  V30 2852 H 265.884 4.79801 1.09782 0
M  V30 2853 N 267.536 -0.106894 1.57237 0
M  V30 2854 C 268.466 -1.13148 2.04254 0
M  V30 2855 C 269.447 -1.42476 0.929224 0
M  V30 2856 O 270.632 -1.52709 1.19973 0
M  V30 2857 C 267.762 -2.4545 2.45706 0
M  V30 2858 C 266.716 -2.30558 3.60592 0
M  V30 2859 C 266.042 -3.67931 3.87983 0
M  V30 2860 C 267.342 -1.75597 4.91897 0
M  V30 2861 H 269.036 -0.740374 2.90101 0
M  V30 2862 H 266.582 -0.354696 1.39563 0
M  V30 2863 H 268.535 -3.17389 2.77205 0
M  V30 2864 H 267.259 -2.86475 1.56843 0
M  V30 2865 H 265.918 -1.61067 3.29322 0
M  V30 2866 H 265.566 -4.06462 2.96306 0
M  V30 2867 H 265.266 -3.58817 4.65322 0
M  V30 2868 H 266.79 -4.41356 4.21945 0
M  V30 2869 H 268.204 -2.37364 5.21854 0
M  V30 2870 H 266.601 -1.77272 5.73319 0
M  V30 2871 H 267.671 -0.714451 4.79608 0
M  V30 2872 N 269.014 -1.53014 -0.377408 0
M  V30 2873 C 270.244 -1.72265 -1.14054 0
M  V30 2874 C 270.652 -0.44601 -1.83868 0
M  V30 2875 O 269.995 0.590095 -1.73964 0
M  V30 2876 C 270.057 -2.82492 -2.22348 0
M  V30 2877 C 269.721 -4.23233 -1.72402 0
M  V30 2878 C 270.718 -5.05992 -1.19448 0
M  V30 2879 C 268.403 -4.696 -1.78273 0
M  V30 2880 C 270.397 -6.33203 -0.730268 0
M  V30 2881 C 268.084 -5.96792 -1.31464 0
M  V30 2882 C 269.082 -6.78424 -0.789297 0
M  V30 2883 O 268.77 -8.0323 -0.328077 0
M  V30 2884 H 268.502 -0.579873 -0.347453 0
M  V30 2885 H 271.056 -2.00502 -0.445882 0
M  V30 2886 H 269.286 -2.49702 -2.95272 0
M  V30 2887 H 270.975 -2.90034 -2.83963 0
M  V30 2888 H 271.741 -4.71349 -1.14259 0
M  V30 2889 H 267.62 -4.06142 -2.18106 0
M  V30 2890 H 271.164 -6.96868 -0.319542 0
M  V30 2891 H 267.061 -6.30937 -1.36342 0
M  V30 2892 H 267.829 -8.1727 -0.448493 0
M  V30 2893 N 270.492 0.636531 -1.44174 0
M  V30 2894 C 271.74 1.39343 -1.46383 0
M  V30 2895 C 272.061 1.94766 -0.0955715 0
M  V30 2896 O 271.331 1.75452 0.871395 0
M  V30 2897 H 269.911 0.517199 -0.538994 0
M  V30 2898 H 272.573 0.74957 -1.7991 0
M  V30 2899 H 271.669 2.22746 -2.18611 0
M  V30 2900 N 271.97 1.30982 0.876444 0
M  V30 2901 C 273.21 1.21589 1.64303 0
M  V30 2902 C 273.574 -0.223962 1.90689 0
M  V30 2903 O 274.775 -0.44128 2.65153 0
M  V30 2904 C 273.046 2.03007 2.94148 0
M  V30 2905 S 274.605 2.10405 3.85065 0
M  V30 2906 H 271.423 0.433161 0.563819 0
M  V30 2907 H 274.025 1.65565 1.03964 0
M  V30 2908 H 272.729 3.06719 2.72675 0
M  V30 2909 H 272.26 1.59725 3.59515 0
M  V30 2910 H 274.275 1.23765 4.80517 0
M  V30 2911 N 273.449 -1.08991 1.13837 0
M  V30 2912 C 274.695 -1.81526 0.90422 0
M  V30 2913 C 275.028 -1.85706 -0.568066 0
M  V30 2914 O 274.303 -1.32855 -1.42056 0
M  V30 2915 C 274.586 -3.27447 1.49835 0
M  V30 2916 C 274.439 -3.31512 3.04006 0
M  V30 2917 C 275.758 -4.24256 1.17025 0
M  V30 2918 H 272.877 -0.659029 0.329923 0
M  V30 2919 H 275.519 -1.27644 1.40737 0
M  V30 2920 H 273.669 -3.73462 1.07044 0
M  V30 2921 H 275.341 -2.93867 3.55584 0
M  V30 2922 H 273.584 -2.70963 3.38765 0
M  V30 2923 H 274.255 -4.34329 3.40679 0
M  V30 2924 H 276.731 -3.86549 1.54009 0
M  V30 2925 H 275.607 -5.24684 1.61237 0
M  V30 2926 H 275.868 -4.42019 0.0846274 0
M  V30 2927 N 274.927 -0.932562 -1.27047 0
M  V30 2928 C 276.173 -0.585913 -1.94778 0
M  V30 2929 C 276.528 0.864142 -1.71902 0
M  V30 2930 O 275.821 1.60894 -1.04037 0
M  V30 2931 C 276.015 -0.853713 -3.47054 0
M  V30 2932 C 275.844 -2.32825 -3.84737 0
M  V30 2933 C 274.614 -2.98184 -4.07939 0
M  V30 2934 C 276.812 -3.30612 -3.93954 0
M  V30 2935 N 274.794 -4.3574 -4.3244 0
M  V30 2936 C 276.165 -4.53395 -4.22887 0
M  V30 2937 C 278.22 -3.25755 -3.76548 0
M  V30 2938 C 276.923 -5.71927 -4.36224 0
M  V30 2939 C 278.949 -4.43604 -3.91113 0
M  V30 2940 C 278.311 -5.65166 -4.20437 0
M  V30 2941 H 274.41 -0.264617 -0.735868 0
M  V30 2942 H 276.994 -1.20019 -1.53309 0
M  V30 2943 H 275.165 -0.268557 -3.8747 0
M  V30 2944 H 276.897 -0.469202 -4.01971 0
M  V30 2945 H 273.652 -2.48835 -4.02961 0
M  V30 2946 H 274.076 -5.06915 -4.48738 0
M  V30 2947 H 278.718 -2.32835 -3.52913 0
M  V30 2948 H 276.436 -6.65308 -4.58683 0
M  V30 2949 H 280.022 -4.41368 -3.79059 0
M  V30 2950 H 278.902 -6.54836 -4.31462 0
M  V30 2951 N 276.405 1.4127 -0.698611 0
M  V30 2952 C 277.335 2.33447 -0.049629 0
M  V30 2953 C 278.316 1.51982 0.763898 0
M  V30 2954 O 279.501 1.80509 0.716257 0
M  V30 2955 C 276.631 3.35828 0.885267 0
M  V30 2956 C 275.585 4.27627 0.178613 0
M  V30 2957 C 274.911 5.20406 1.22807 0
M  V30 2958 C 276.211 5.13459 -0.956933 0
M  V30 2959 H 277.905 2.87966 -0.81951 0
M  V30 2960 H 275.451 1.38461 -0.395538 0
M  V30 2961 H 277.404 3.9924 1.34854 0
M  V30 2962 H 276.128 2.79666 1.68685 0
M  V30 2963 H 274.787 3.65643 -0.26466 0
M  V30 2964 H 274.435 4.60558 2.02226 0
M  V30 2965 H 274.135 5.82661 0.760239 0
M  V30 2966 H 275.659 5.86695 1.69179 0
M  V30 2967 H 277.073 5.70421 -0.573805 0
M  V30 2968 H 275.47 5.8467 -1.35205 0
M  V30 2969 H 276.54 4.50443 -1.79524 0
M  V30 2970 N 277.883 0.443576 1.51229 0
M  V30 2971 C 279.16 -0.181038 1.9476 0
M  V30 2972 C 279.54 -1.59523 1.38259 0
M  V30 2973 O 278.888 -2.2122 0.572198 0
M  V30 2974 C 279.098 -0.152422 3.48667 0
M  V30 2975 C 280.446 -0.354923 4.23114 0
M  V30 2976 O 281.47 -0.230257 3.55455 0
M  V30 2977 O 280.329 -0.603674 5.43156 0
M  V30 2978 H 277.423 -0.1266 0.817252 0
M  V30 2979 H 279.969 0.502004 1.62105 0
M  V30 2980 H 278.741 0.836022 3.82265 0
M  V30 2981 H 278.364 -0.878107 3.87782 0
M  V30 2982 N 279.361 -1.56624 0.175154 0
M  V30 2983 C 280.609 -1.96609 -0.467885 0
M  V30 2984 C 280.93 -1.06238 -1.63519 0
M  V30 2985 O 280.2 -0.129523 -1.95471 0
M  V30 2986 H 278.78 -0.726008 -0.175845 0
M  V30 2987 H 281.442 -1.93195 0.257234 0
M  V30 2988 H 280.538 -3.00989 -0.825342 0
M  V30 2989 N 280.839 0.0985539 -1.57292 0
M  V30 2990 C 281.769 1.12064 -2.04851 0
M  V30 2991 C 282.75 1.41981 -0.936767 0
M  V30 2992 O 283.935 1.52071 -1.20781 0
M  V30 2993 C 281.065 2.44144 -2.47004 0
M  V30 2994 C 280.019 2.28643 -3.6181 0
M  V30 2995 C 279.345 3.65869 -3.89929 0
M  V30 2996 C 280.645 1.72986 -4.92822 0
M  V30 2997 H 282.339 0.724979 -2.9049 0
M  V30 2998 H 279.885 0.34729 -1.39749 0
M  V30 2999 H 281.838 3.15914 -2.78884 0
M  V30 3000 H 280.562 2.85639 -1.5836 0
M  V30 3001 H 279.221 1.59318 -3.30172 0
M  V30 3002 H 278.869 4.04885 -2.98458 0
M  V30 3003 H 278.569 3.56344 -4.67218 0
M  V30 3004 H 280.093 4.39112 -4.2428 0
M  V30 3005 H 281.507 2.34593 -5.23105 0
M  V30 3006 H 279.904 1.74229 -5.74251 0
M  V30 3007 H 280.974 0.689007 -4.7998 0
M  V30 3008 N 282.317 1.53212 0.369288 0
M  V30 3009 C 283.563 1.69466 1.11397 0
M  V30 3010 C 283.896 0.443257 1.89074 0
M  V30 3011 O 283.171 -0.559386 1.86282 0
M  V30 3012 C 283.454 2.9422 2.07621 0
M  V30 3013 C 283.307 4.29508 1.33577 0
M  V30 3014 C 284.626 3.14565 3.07794 0
M  V30 3015 H 281.745 0.616667 0.403597 0
M  V30 3016 H 284.387 1.85845 0.395179 0
M  V30 3017 H 282.537 2.80387 2.68916 0
M  V30 3018 H 284.209 4.55147 0.750955 0
M  V30 3019 H 282.452 4.29088 0.637618 0
M  V30 3020 H 283.123 5.12926 2.03989 0
M  V30 3021 H 285.599 3.2756 2.56601 0
M  V30 3022 H 284.475 4.03297 3.72348 0
M  V30 3023 H 284.736 2.29675 3.77759 0
M  V30 3024 N 283.795 -0.628877 1.44509 0
M  V30 3025 C 285.02 -1.42048 1.5112 0
M  V30 3026 C 285.445 -1.87594 0.137818 0
M  V30 3027 O 284.803 -1.58873 -0.873437 0
M  V30 3028 C 284.851 -2.61541 2.48251 0
M  V30 3029 O 283.955 -3.61453 1.98559 0
M  V30 3030 H 283.296 -0.424942 0.510216 0
M  V30 3031 H 285.826 -0.767374 1.89664 0
M  V30 3032 H 285.836 -3.09057 2.66361 0
M  V30 3033 H 284.511 -2.27736 3.48007 0
M  V30 3034 H 283.088 -3.20731 1.90227 0
M  V30 3035 N 285.273 -1.31445 -0.869486 0
M  V30 3036 C 286.503 -1.23942 -1.65294 0
M  V30 3037 C 286.911 0.197561 -1.88166 0
M  V30 3038 O 286.254 1.14019 -1.44033 0
M  V30 3039 C 286.316 -1.91385 -3.04322 0
M  V30 3040 C 285.98 -3.40726 -3.04557 0
M  V30 3041 C 286.977 -4.36464 -2.82481 0
M  V30 3042 C 284.662 -3.82425 -3.25663 0
M  V30 3043 C 286.656 -5.71876 -2.8149 0
M  V30 3044 C 284.343 -5.1795 -3.243 0
M  V30 3045 C 285.341 -6.12486 -3.02241 0
M  V30 3046 O 285.029 -7.45534 -3.00724 0
M  V30 3047 H 284.761 -0.429459 -0.522054 0
M  V30 3048 H 287.315 -1.73873 -1.0935 0
M  V30 3049 H 285.545 -1.36004 -3.61994 0
M  V30 3050 H 287.234 -1.77791 -3.64891 0
M  V30 3051 H 288 -4.05576 -2.65956 0
M  V30 3052 H 283.879 -3.09274 -3.41863 0
M  V30 3053 H 287.423 -6.45638 -2.64191 0
M  V30 3054 H 283.32 -5.48473 -3.40365 0
M  V30 3055 H 284.088 -7.54713 -3.16782 0
M  V30 3056 N 286.751 1.08385 -1.14413 0
M  V30 3057 C 287.699 2.17406 -0.826888 0
M  V30 3058 C 288.693 1.6827 0.195312 0
M  V30 3059 O 289.899 1.79927 0.0513892 0
M  V30 3060 H 286.274 0.70934 -0.249681 0
M  V30 3061 H 288.245 2.41388 -1.75426 0
M  V30 3062 C 286.994 3.46215 -0.320979 0
M  V30 3063 H 286.317 3.84401 -1.0989 0
M  V30 3064 H 287.757 4.23777 -0.137549 0
M  V30 3065 C 286.216 3.23067 0.955472 0
M  V30 3066 O 286.746 3.4668 2.02918 0
M  V30 3067 N 284.952 2.7661 0.890798 0
M  V30 3068 H 284.499 2.57594 0.0168815 0
M  V30 3069 H 284.457 2.61501 1.74542 0
M  V30 3070 N 288.23 0.939286 1.26551 0
M  V30 3071 C 289.193 0.451987 2.24699 0
M  V30 3072 C 290.193 -0.435869 1.5478 0
M  V30 3073 O 291.383 -0.235314 1.72603 0
M  V30 3074 C 288.515 -0.348801 3.39111 0
M  V30 3075 H 289.708 1.3193 2.69322 0
M  V30 3076 H 287.261 0.721072 1.38673 0
M  V30 3077 H 287.996 -1.23444 2.99887 0
M  V30 3078 H 287.781 0.287945 3.91041 0
M  V30 3079 H 289.271 -0.679726 4.12031 0
M  V30 3080 N 289.708 -1.40897 0.706093 0
M  V30 3081 C 291.119 -1.84023 0.315052 0
M  V30 3082 C 291.47 -1.5906 -1.14866 0
M  V30 3083 O 290.595 -1.06651 -1.88293 0
M  V30 3084 C 291.19 -3.34055 0.565038 0
M  V30 3085 C 289.749 -3.7571 0.227806 0
M  V30 3086 C 288.896 -2.64204 0.842122 0
M  V30 3087 H 291.847 -1.303 0.905963 0
M  V30 3088 H 291.868 -3.80107 -0.172843 0
M  V30 3089 H 291.38 -3.52192 1.63042 0
M  V30 3090 H 289.481 -3.63172 -0.832895 0
M  V30 3091 H 289.594 -4.74103 0.690174 0
M  V30 3092 H 287.958 -2.53255 0.270893 0
M  V30 3093 H 288.741 -2.85155 1.91158 0
M  V30 3094 N 291.186 -0.45159 -1.50991 0
M  V30 3095 C 292.149 0.341117 -2.26647 0
M  V30 3096 C 293.149 0.937422 -1.30649 0
M  V30 3097 O 294.339 0.809644 -1.54241 0
M  V30 3098 C 291.471 1.48398 -3.06905 0
M  V30 3099 H 292.664 -0.322117 -2.98165 0
M  V30 3100 H 290.217 -0.205122 -1.54948 0
M  V30 3101 H 290.952 2.18284 -2.39838 0
M  V30 3102 H 290.737 1.06241 -3.77432 0
M  V30 3103 H 292.227 2.04367 -3.64176 0
M  V30 3104 N 292.664 1.56529 -0.183458 0
M  V30 3105 C 293.912 1.96855 0.457452 0
M  V30 3106 C 294.233 1.07104 1.62953 0
M  V30 3107 O 293.503 0.139887 1.954 0
M  V30 3108 H 292.083 0.72693 0.171992 0
M  V30 3109 H 294.745 1.93056 -0.267476 0
M  V30 3110 H 293.841 3.01423 0.809368 0
M  V30 3111 N 294.142 -0.090211 1.57342 0
M  V30 3112 C 295.074 -1.13541 1.99101 0
M  V30 3113 C 296.087 -1.3604 0.894258 0
M  V30 3114 O 297.276 -1.34606 1.17233 0
M  V30 3115 C 294.376 -2.49001 2.29895 0
M  V30 3116 C 293.549 -2.46712 3.61182 0
M  V30 3117 C 292.608 -3.64136 3.79857 0
M  V30 3118 O 291.634 -3.46405 4.51655 0
M  V30 3119 N 292.836 -4.83802 3.20806 0
M  V30 3120 H 295.601 -0.779942 2.89373 0
M  V30 3121 H 293.162 -0.279125 1.59476 0
M  V30 3122 H 295.154 -3.26166 2.39578 0
M  V30 3123 H 293.724 -2.76619 1.45605 0
M  V30 3124 H 292.944 -1.55058 3.62423 0
M  V30 3125 H 294.232 -2.42265 4.4742 0
M  V30 3126 H 293.63 -5.01112 2.62494 0
M  V30 3127 H 292.187 -5.58543 3.35966 0
M  V30 3128 N 295.62 -1.53406 -0.361157 0
M  V30 3129 C 296.552 -1.76446 -1.46286 0
M  V30 3130 C 297.565 -0.645322 -1.49464 0
M  V30 3131 O 298.754 -0.921681 -1.52864 0
M  V30 3132 C 295.854 -1.83332 -2.85031 0
M  V30 3133 C 295.027 -3.13033 -3.05498 0
M  V30 3134 C 294.086 -3.11104 -4.24383 0
M  V30 3135 O 293.112 -3.84888 -4.19344 0
M  V30 3136 N 294.314 -2.32234 -5.32022 0
M  V30 3137 H 297.079 -2.71508 -1.26899 0
M  V30 3138 H 294.64 -1.52238 -0.550915 0
M  V30 3139 H 296.632 -1.79514 -3.62708 0
M  V30 3140 H 295.202 -0.955342 -2.97644 0
M  V30 3141 H 294.422 -3.30119 -2.15442 0
M  V30 3142 H 295.71 -3.9874 -3.16044 0
M  V30 3143 H 295.108 -1.71807 -5.38979 0
M  V30 3144 H 293.665 -2.3423 -6.08259 0
M  V30 3145 N 297.098 0.621204 -1.44841 0
M  V30 3146 C 298.345 1.38055 -1.48145 0
M  V30 3147 C 298.673 1.94143 -0.117867 0
M  V30 3148 O 297.928 1.74713 0.881694 0
M  V30 3149 C 298.227 2.55675 -2.4973 0
M  V30 3150 C 297.893 2.17817 -3.94799 0
M  V30 3151 C 296.555 2.07205 -4.34303 0
M  V30 3152 C 298.907 1.88065 -4.86087 0
M  V30 3153 C 296.235 1.65045 -5.63007 0
M  V30 3154 C 298.587 1.47394 -6.15189 0
M  V30 3155 C 297.251 1.35331 -6.53637 0
M  V30 3156 H 296.521 0.505181 -0.542101 0
M  V30 3157 H 299.168 0.703477 -1.78111 0
M  V30 3158 H 297.473 3.2866 -2.13284 0
M  V30 3159 H 299.17 3.13904 -2.4953 0
M  V30 3160 H 295.76 2.26998 -3.63552 0
M  V30 3161 H 299.944 1.95168 -4.56315 0
M  V30 3162 H 295.2 1.54317 -5.91605 0
M  V30 3163 H 299.374 1.23415 -6.85377 0
M  V30 3164 H 297.001 1.02435 -7.53267 0
M  V30 3165 N 298.576 1.31904 0.862503 0
M  V30 3166 C 299.822 1.22197 1.61851 0
M  V30 3167 C 300.155 -0.217641 1.92977 0
M  V30 3168 O 299.43 -1.15264 1.56666 0
M  V30 3169 C 299.713 2.07378 2.94391 0
M  V30 3170 C 299.566 3.59678 2.70096 0
M  V30 3171 C 300.885 1.92891 3.95577 0
M  V30 3172 H 298.004 0.445255 0.587296 0
M  V30 3173 H 300.646 1.6177 0.99651 0
M  V30 3174 H 298.796 1.73758 3.47477 0
M  V30 3175 H 300.468 4.03472 2.23625 0
M  V30 3176 H 298.711 3.82735 2.04197 0
M  V30 3177 H 299.382 4.14595 3.64438 0
M  V30 3178 H 301.858 2.22327 3.51724 0
M  V30 3179 H 300.734 2.54781 4.86187 0
M  V30 3180 H 300.995 0.894315 4.3296 0
M  V30 3181 N 300.054 -1.07777 1.14986 0
M  V30 3182 C 300.984 -2.16865 0.865557 0
M  V30 3183 C 301.965 -1.69123 -0.182083 0
M  V30 3184 O 303.15 -1.94164 -0.0373815 0
M  V30 3185 C 300.28 -3.45539 0.349313 0
M  V30 3186 C 299.234 -4.06708 1.33313 0
M  V30 3187 C 298.56 -5.30411 0.675918 0
M  V30 3188 C 299.86 -4.47241 2.69764 0
M  V30 3189 H 301.554 -2.40905 1.77778 0
M  V30 3190 H 299.1 -1.15781 0.856203 0
M  V30 3191 H 301.053 -4.21174 0.137983 0
M  V30 3192 H 299.777 -3.21072 -0.598362 0
M  V30 3193 H 298.436 -3.33112 1.53075 0
M  V30 3194 H 298.084 -5.02232 -0.277767 0
M  V30 3195 H 297.784 -5.72293 1.33244 0
M  V30 3196 H 299.308 -6.08755 0.474262 0
M  V30 3197 H 300.722 -5.14025 2.53873 0
M  V30 3198 H 299.119 -5.00062 3.3175 0
M  V30 3199 H 300.189 -3.58818 3.26156 0
M  V30 3200 N 301.532 -0.945985 -1.26051 0
M  V30 3201 C 302.943 -0.638096 -1.75457 0
M  V30 3202 C 303.294 0.846672 -1.76991 0
M  V30 3203 O 302.419 1.66262 -1.38513 0
M  V30 3204 C 303.014 -1.15157 -3.18629 0
M  V30 3205 C 301.573 -0.894004 -3.65629 0
M  V30 3206 C 300.72 -1.29967 -2.44957 0
M  V30 3207 H 303.671 -1.12376 -1.1206 0
M  V30 3208 H 303.692 -0.507615 -3.77099 0
M  V30 3209 H 303.204 -2.23222 -3.1748 0
M  V30 3210 H 301.305 0.172057 -3.72203 0
M  V30 3211 H 301.418 -1.52439 -4.54202 0
M  V30 3212 H 299.782 -0.718078 -2.44368 0
M  V30 3213 H 300.565 -2.38935 -2.46505 0
M  V30 3214 N 303.011 1.40521 -0.713556 0
M  V30 3215 C 304.259 2.00527 -0.251692 0
M  V30 3216 C 304.58 1.56857 1.15848 0
M  V30 3217 O 303.85 0.807127 1.785 0
M  V30 3218 H 302.43 0.741551 -0.0900646 0
M  V30 3219 H 305.092 1.71887 -0.918733 0
M  V30 3220 H 304.188 3.10813 -0.283192 0
M  V30 3221 N 304.489 0.459591 1.5075 0
M  V30 3222 C 305.737 -0.0991532 2.01857 0
M  V30 3223 C 306.058 -1.41247 1.34441 0
M  V30 3224 O 305.328 -1.89775 0.486022 0
M  V30 3225 H 303.908 -0.039633 0.745948 0
M  V30 3226 H 306.57 0.607387 1.85194 0
M  V30 3227 H 305.666 -0.258998 3.11023 0
M  V30 3228 N 305.967 -1.56429 0.191757 0
M  V30 3229 C 307.192 -2.02309 -0.456706 0
M  V30 3230 C 307.617 -1.07103 -1.5463 0
M  V30 3231 O 306.975 -0.0539677 -1.8122 0
M  V30 3232 C 307.023 -3.46654 -0.993159 0
M  V30 3233 O 306.127 -3.54559 -2.10622 0
M  V30 3234 H 305.468 -0.655303 -0.107114 0
M  V30 3235 H 307.998 -2.02364 0.301653 0
M  V30 3236 H 308.008 -3.86377 -1.31061 0
M  V30 3237 H 306.683 -4.1544 -0.195504 0
M  V30 3238 H 305.26 -3.26708 -1.79767 0
M  V30 3239 N 307.445 0.0818655 -1.57387 0
M  V30 3240 C 308.694 0.781681 -1.85937 0
M  V30 3241 C 309.007 1.79246 -0.782957 0
M  V30 3242 O 310.213 2.54112 -0.955987 0
M  V30 3243 C 308.669 1.44109 -3.29789 0
M  V30 3244 C 308.277 0.469396 -4.45534 0
M  V30 3245 C 310.021 2.12386 -3.67549 0
M  V30 3246 C 307.928 1.13415 -5.80423 0
M  V30 3247 H 306.858 0.295682 -0.693605 0
M  V30 3248 H 309.509 0.0348051 -1.83467 0
M  V30 3249 H 307.891 2.23588 -3.2684 0
M  V30 3250 H 309.065 -0.294856 -4.59856 0
M  V30 3251 H 307.38 -0.108383 -4.16259 0
M  V30 3252 H 309.977 2.62878 -4.65617 0
M  V30 3253 H 310.32 2.91877 -2.96839 0
M  V30 3254 H 310.853 1.39751 -3.72444 0
M  V30 3255 H 307.592 0.379771 -6.54399 0
M  V30 3256 H 307.112 1.8695 -5.69921 0
M  V30 3257 H 308.791 1.65686 -6.25426 0
M  V30 3258 N 308.923 1.53595 0.353017 0
M  V30 3259 C 310.172 1.69603 1.09168 0
M  V30 3260 C 310.485 0.460925 1.90092 0
M  V30 3261 O 311.691 0.501774 2.66823 0
M  V30 3262 C 310.147 2.99872 1.9901 0
M  V30 3263 C 309.755 4.30687 1.23339 0
M  V30 3264 C 311.499 3.25246 2.72792 0
M  V30 3265 C 309.406 5.52036 2.12156 0
M  V30 3266 H 308.336 0.631966 0.411261 0
M  V30 3267 H 310.987 1.80096 0.351802 0
M  V30 3268 H 309.369 2.83212 2.7678 0
M  V30 3269 H 310.543 4.58019 0.505456 0
M  V30 3270 H 308.858 4.11853 0.613663 0
M  V30 3271 H 311.455 4.13095 3.39495 0
M  V30 3272 H 311.798 2.41846 3.38846 0
M  V30 3273 H 312.331 3.42638 2.021 0
M  V30 3274 H 309.07 6.37951 1.50659 0
M  V30 3275 H 308.59 5.28966 2.82764 0
M  V30 3276 H 310.269 5.87313 2.71427 0
M  V30 3277 N 310.401 -0.613514 1.45168 0
M  V30 3278 C 311.631 -1.39743 1.52169 0
M  V30 3279 C 312.039 -1.88596 0.151086 0
M  V30 3280 O 311.382 -1.6251 -0.856521 0
M  V30 3281 C 311.444 -2.64035 2.43979 0
M  V30 3282 C 311.108 -2.36861 3.90827 0
M  V30 3283 C 312.105 -1.97591 4.80889 0
M  V30 3284 C 309.79 -2.49956 4.35692 0
M  V30 3285 C 311.784 -1.71768 6.1382 0
M  V30 3286 C 309.471 -2.23747 5.68665 0
M  V30 3287 C 310.469 -1.84714 6.57548 0
M  V30 3288 O 310.157 -1.58809 7.88058 0
M  V30 3289 H 309.889 -0.434382 0.517966 0
M  V30 3290 H 312.443 -0.75587 1.90986 0
M  V30 3291 H 310.673 -3.3089 2.00122 0
M  V30 3292 H 312.362 -3.26069 2.41731 0
M  V30 3293 H 313.128 -1.87015 4.47493 0
M  V30 3294 H 309.007 -2.79305 3.66756 0
M  V30 3295 H 312.551 -1.41227 6.83155 0
M  V30 3296 H 308.448 -2.33938 6.01617 0
M  V30 3297 H 309.216 -1.7291 8.00028 0
M  V30 3298 N 311.879 -1.3236 -0.855495 0
M  V30 3299 C 312.809 -1.23833 -1.97958 0
M  V30 3300 C 313.79 -0.122361 -1.69659 0
M  V30 3301 O 314.975 -0.30939 -1.9172 0
M  V30 3302 C 312.105 -0.959772 -3.33775 0
M  V30 3303 C 311.059 -2.03689 -3.76424 0
M  V30 3304 C 310.385 -1.61075 -5.09862 0
M  V30 3305 C 311.685 -3.4518 -3.9198 0
M  V30 3306 H 313.379 -2.1788 -2.0535 0
M  V30 3307 H 310.925 -1.04891 -0.986605 0
M  V30 3308 H 312.878 -0.886678 -4.11966 0
M  V30 3309 H 311.602 0.0163404 -3.26596 0
M  V30 3310 H 310.261 -2.10012 -3.00484 0
M  V30 3311 H 309.909 -0.622107 -4.99138 0
M  V30 3312 H 309.609 -2.33143 -5.39368 0
M  V30 3313 H 311.133 -1.55201 -5.90546 0
M  V30 3314 H 312.547 -3.4145 -4.60526 0
M  V30 3315 H 310.944 -4.1559 -4.32903 0
M  V30 3316 H 312.014 -3.84903 -2.94919 0
M  V30 3317 N 313.357 1.07166 -1.15556 0
M  V30 3318 C 314.305 2.16517 -0.8499 0
M  V30 3319 C 315.299 1.68468 0.177454 0
M  V30 3320 O 316.505 1.79971 0.0323026 0
M  V30 3321 H 312.88 0.706652 -0.25719 0
M  V30 3322 H 314.851 2.39514 -1.77976 0
M  V30 3323 C 313.6 3.45855 -0.357682 0
M  V30 3324 H 312.923 3.83214 -1.13961 0
M  V30 3325 H 314.363 4.23607 -0.182489 0
M  V30 3326 C 312.822 3.24062 0.921152 0
M  V30 3327 O 313.352 3.48813 1.9923 0
M  V30 3328 N 311.558 2.77539 0.86141 0
M  V30 3329 H 311.105 2.57598 -0.0104408 0
M  V30 3330 H 311.063 2.63337 1.71758 0
M  V30 3331 N 314.835 0.952656 1.25548 0
M  V30 3332 C 316.112 0.523818 1.88456 0
M  V30 3333 C 316.492 -0.998871 1.85973 0
M  V30 3334 O 315.84 -1.86381 1.3219 0
M  V30 3335 C 316.05 1.0982 3.31271 0
M  V30 3336 C 317.398 1.17385 4.08051 0
M  V30 3337 O 318.422 1.04961 3.40384 0
M  V30 3338 O 317.281 1.36852 5.29088 0
M  V30 3339 H 314.375 0.172485 0.808813 0
M  V30 3340 H 316.921 1.04596 1.33633 0
M  V30 3341 H 315.693 2.1415 3.27499 0
M  V30 3342 H 315.316 0.559191 3.93648 0
M  V30 3343 N 316.313 -1.40141 0.720998 0
M  V30 3344 C 317.538 -2.05618 0.271258 0
M  V30 3345 C 317.963 -1.53978 -1.08039 0
M  V30 3346 O 317.321 -0.677463 -1.68167 0
M  V30 3347 C 317.369 -3.59609 0.267197 0
M  V30 3348 O 316.473 -4.05526 -0.749814 0
M  V30 3349 H 315.814 -0.651904 0.126162 0
M  V30 3350 H 318.344 -1.79439 0.982997 0
M  V30 3351 H 318.354 -4.0786 0.106744 0
M  V30 3352 H 317.029 -3.96559 1.25354 0
M  V30 3353 H 315.606 -3.68722 -0.556644 0
M  V30 3354 N 317.792 -0.46758 -1.50504 0
M  V30 3355 C 319.038 0.0887532 -2.02606 0
M  V30 3356 C 319.371 1.39686 -1.34913 0
M  V30 3357 O 318.646 1.88644 -0.473694 0
M  V30 3358 C 318.929 0.276206 -3.59039 0
M  V30 3359 C 318.782 -1.05267 -4.37309 0
M  V30 3360 C 320.101 1.03235 -4.27821 0
M  V30 3361 H 317.22 0.0307814 -0.736357 0
M  V30 3362 H 319.862 -0.612485 -1.79857 0
M  V30 3363 H 318.012 0.8735 -3.78553 0
M  V30 3364 H 319.684 -1.68628 -4.29374 0
M  V30 3365 H 317.927 -1.65015 -4.01189 0
M  V30 3366 H 318.598 -0.875197 -5.45018 0
M  V30 3367 H 321.074 0.526111 -4.12761 0
M  V30 3368 H 319.95 1.1323 -5.37094 0
M  V30 3369 H 320.211 2.06806 -3.90748 0
M  V30 3370 N 319.27 1.56325 -0.20005 0
M  V30 3371 C 320.5 2.01811 0.442232 0
M  V30 3372 C 320.908 1.07932 1.55394 0
M  V30 3373 O 320.251 0.0772685 1.83537 0
M  V30 3374 C 320.313 3.43685 1.05457 0
M  V30 3375 C 319.977 4.56928 0.0809833 0
M  V30 3376 C 320.974 5.15009 -0.711471 0
M  V30 3377 C 318.659 5.0229 -0.0315364 0
M  V30 3378 C 320.653 6.16904 -1.60336 0
M  V30 3379 C 318.34 6.04028 -0.926981 0
M  V30 3380 C 319.338 6.6121 -1.71146 0
M  V30 3381 O 319.026 7.60971 -2.59189 0
M  V30 3382 H 318.758 0.666173 0.114848 0
M  V30 3383 H 321.312 2.03085 -0.307511 0
M  V30 3384 H 319.542 3.39413 1.85299 0
M  V30 3385 H 321.231 3.72948 1.60201 0
M  V30 3386 H 321.997 4.80827 -0.634873 0
M  V30 3387 H 317.876 4.57476 0.568902 0
M  V30 3388 H 321.42 6.61464 -2.21611 0
M  V30 3389 H 317.317 6.37634 -1.00468 0
M  V30 3390 H 318.085 7.7841 -2.53023 0
M  V30 3391 N 320.748 -0.0735177 1.57428 0
M  V30 3392 C 322.025 -0.805903 1.78226 0
M  V30 3393 C 322.405 -1.95874 0.787189 0
M  V30 3394 O 321.753 -2.2779 -0.180029 0
M  V30 3395 C 321.963 -1.28045 3.24662 0
M  V30 3396 C 323.311 -1.71453 3.88444 0
M  V30 3397 O 324.335 -1.37616 3.28543 0
M  V30 3398 O 323.194 -2.34093 4.93825 0
M  V30 3399 H 320.288 -0.386041 0.73137 0
M  V30 3400 H 322.834 -0.0537269 1.69615 0
M  V30 3401 H 321.606 -0.455476 3.8864 0
M  V30 3402 H 321.229 -2.094 3.37991 0
M  V30 3403 N 322.226 -1.5378 -0.344866 0
M  V30 3404 C 323.474 -1.70625 -1.08311 0
M  V30 3405 C 323.795 -0.471447 -1.89215 0
M  V30 3406 O 323.065 0.514616 -1.8902 0
M  V30 3407 H 321.645 -0.629058 -0.402859 0
M  V30 3408 H 324.307 -1.9103 -0.386459 0
M  V30 3409 H 323.403 -2.57656 -1.76124 0
M  V30 3410 N 323.704 0.605807 -1.45491 0
M  V30 3411 C 324.667 1.69836 -1.5391 0
M  V30 3412 C 325.667 1.55261 -0.418424 0
M  V30 3413 O 326.857 1.60296 -0.681965 0
M  V30 3414 C 323.989 3.09117 -1.43734 0
M  V30 3415 H 325.182 1.63738 -2.51257 0
M  V30 3416 H 322.735 0.821689 -1.32959 0
M  V30 3417 H 323.47 3.20791 -0.475788 0
M  V30 3418 H 323.255 3.21104 -2.25021 0
M  V30 3419 H 324.745 3.88696 -1.52661 0
M  V30 3420 N 325.182 1.32811 0.848464 0
M  V30 3421 C 326.428 1.23907 1.60546 0
M  V30 3422 C 326.761 -0.197161 1.93197 0
M  V30 3423 O 326.036 -1.13596 1.5788 0
M  V30 3424 C 326.319 2.10489 2.92175 0
M  V30 3425 C 326.172 3.62522 2.66266 0
M  V30 3426 C 327.491 1.97075 3.93509 0
M  V30 3427 H 324.61 0.451459 0.58254 0
M  V30 3428 H 327.252 1.62818 0.979296 0
M  V30 3429 H 325.402 1.77434 3.45614 0
M  V30 3430 H 327.074 4.05821 2.19334 0
M  V30 3431 H 325.317 3.84879 2.00126 0
M  V30 3432 H 325.988 4.18437 3.6002 0
M  V30 3433 H 328.464 2.26045 3.49346 0
M  V30 3434 H 327.34 2.59923 4.83457 0
M  V30 3435 H 327.601 0.940186 4.31987 0
M  V30 3436 N 326.66 -1.06551 1.16123 0
M  V30 3437 C 327.908 -1.78947 0.939267 0
M  V30 3438 C 328.229 -1.87532 -0.534476 0
M  V30 3439 O 327.499 -1.38211 -1.38833 0
M  V30 3440 H 326.079 -0.662807 0.344523 0
M  V30 3441 H 328.741 -1.28725 1.46342 0
M  V30 3442 H 327.837 -2.81117 1.35572 0
M  V30 3443 N 328.138 -0.959301 -1.25041 0
M  V30 3444 C 329.368 -0.63303 -1.96663 0
M  V30 3445 C 329.776 0.800031 -1.71453 0
M  V30 3446 O 329.119 1.54736 -0.99008 0
M  V30 3447 C 329.181 -0.817523 -3.50081 0
M  V30 3448 C 328.845 -2.22863 -3.98975 0
M  V30 3449 C 329.842 -3.20569 -4.09306 0
M  V30 3450 C 327.527 -2.55407 -4.32519 0
M  V30 3451 C 329.521 -4.4891 -4.52503 0
M  V30 3452 C 327.208 -3.83976 -4.754 0
M  V30 3453 C 328.206 -4.8054 -4.85356 0
M  V30 3454 O 327.894 -6.06817 -5.27284 0
M  V30 3455 H 327.626 -0.235866 -0.633516 0
M  V30 3456 H 330.18 -1.2874 -1.60047 0
M  V30 3457 H 328.41 -0.105992 -3.86555 0
M  V30 3458 H 330.099 -0.491604 -4.02912 0
M  V30 3459 H 330.865 -2.96753 -3.83618 0
M  V30 3460 H 326.744 -1.8097 -4.23994 0
M  V30 3461 H 330.288 -5.24283 -4.60188 0
M  V30 3462 H 326.185 -4.07596 -5.00535 0
M  V30 3463 H 326.953 -6.10262 -5.45457 0
M  V30 3464 N 329.616 1.39756 -0.72842 0
M  V30 3465 C 330.841 2.05472 -0.282159 0
M  V30 3466 C 331.266 1.54549 1.07221 0
M  V30 3467 O 330.624 0.686372 1.67805 0
M  V30 3468 C 330.672 3.59462 -0.286264 0
M  V30 3469 O 329.776 4.05918 0.728298 0
M  V30 3470 H 329.117 0.651226 -0.129618 0
M  V30 3471 H 331.647 1.78915 -0.992499 0
M  V30 3472 H 331.657 4.07798 -0.128373 0
M  V30 3473 H 330.332 3.95889 -1.27456 0
M  V30 3474 H 328.909 3.69012 0.537081 0
M  V30 3475 N 331.094 0.475555 1.50254 0
M  V30 3476 C 332.027 -0.362381 2.25304 0
M  V30 3477 C 333.005 -0.992393 1.28803 0
M  V30 3478 O 334.189 -1.02746 1.58036 0
M  V30 3479 C 331.316 -1.50813 3.03271 0
M  V30 3480 C 330.362 -0.995044 4.1473 0
M  V30 3481 S 331.195 0.0938436 5.35418 0
M  V30 3482 C 332.351 -1.05567 6.16933 0
M  V30 3483 H 332.584 0.274686 2.96028 0
M  V30 3484 H 330.117 0.260495 1.52187 0
M  V30 3485 H 332.075 -2.16476 3.48781 0
M  V30 3486 H 330.736 -2.11672 2.32064 0
M  V30 3487 H 329.929 -1.85293 4.68703 0
M  V30 3488 H 329.531 -0.416052 3.71679 0
M  V30 3489 H 331.823 -1.96636 6.48337 0
M  V30 3490 H 332.766 -0.555109 7.05921 0
M  V30 3491 H 333.174 -1.31151 5.49053 0
M  V30 3492 N 332.573 -1.56217 0.208337 0
M  V30 3493 C 333.801 -2.02337 -0.43215 0
M  V30 3494 C 334.216 -1.08834 -1.54275 0
M  V30 3495 O 333.573 -0.0955462 -1.8225 0
M  V30 3496 C 333.624 -3.48072 -0.976138 0
M  V30 3497 O 333.345 -4.38007 0.0901621 0
M  V30 3498 C 334.846 -4.09773 -1.69119 0
M  V30 3499 H 332.066 -0.662385 -0.10718 0
M  V30 3500 H 334.61 -2.01966 0.320923 0
M  V30 3501 H 332.765 -3.49099 -1.67954 0
M  V30 3502 H 333.179 -5.23543 -0.316701 0
M  V30 3503 H 334.653 -5.13556 -2.02397 0
M  V30 3504 H 335.13 -3.53999 -2.59964 0
M  V30 3505 H 335.736 -4.12556 -1.03332 0
M  V30 3506 N 334.051 0.0651679 -1.57465 0
M  V30 3507 C 334.961 1.09448 -2.07505 0
M  V30 3508 C 335.977 1.41974 -1.00595 0
M  V30 3509 O 337.153 1.52018 -1.32107 0
M  V30 3510 C 334.218 2.38689 -2.51453 0
M  V30 3511 C 333.279 2.13073 -3.72691 0
M  V30 3512 C 332.512 3.36152 -4.14533 0
M  V30 3513 O 332.735 4.45517 -3.56189 0
M  V30 3514 O 331.669 3.23974 -5.07272 0
M  V30 3515 H 335.495 0.69935 -2.95538 0
M  V30 3516 H 333.08 0.279752 -1.46757 0
M  V30 3517 H 334.962 3.14736 -2.80212 0
M  V30 3518 H 333.637 2.77568 -1.66546 0
M  V30 3519 H 332.544 1.34709 -3.49005 0
M  V30 3520 H 333.877 1.79071 -4.5847 0
M  V30 3521 N 335.529 1.53961 0.336706 0
M  V30 3522 C 336.777 1.71197 1.07405 0
M  V30 3523 C 337.098 0.481475 1.88962 0
M  V30 3524 O 336.368 -0.504585 1.8929 0
M  V30 3525 H 334.948 0.631185 0.399517 0
M  V30 3526 H 337.61 1.91232 0.376323 0
M  V30 3527 H 336.706 2.58587 1.74755 0
M  V30 3528 N 337.007 -0.598083 1.45811 0
M  V30 3529 C 337.937 -1.71873 1.58057 0
M  V30 3530 C 338.918 -1.64533 0.431615 0
M  V30 3531 O 340.103 -1.82787 0.65595 0
M  V30 3532 C 337.233 -3.10495 1.55597 0
M  V30 3533 C 336.187 -3.32654 2.69305 0
M  V30 3534 C 335.513 -4.71646 2.51902 0
M  V30 3535 C 336.813 -3.21981 4.11248 0
M  V30 3536 H 338.507 -1.61881 2.51863 0
M  V30 3537 H 336.053 -0.777372 1.21214 0
M  V30 3538 H 338.006 -3.88699 1.6276 0
M  V30 3539 H 336.73 -3.2135 0.583255 0
M  V30 3540 H 335.389 -2.56843 2.61586 0
M  V30 3541 H 335.037 -4.79246 1.52748 0
M  V30 3542 H 334.737 -4.87426 3.2816 0
M  V30 3543 H 336.261 -5.52038 2.60933 0
M  V30 3544 H 337.675 -3.90049 4.20161 0
M  V30 3545 H 336.072 -3.49289 4.87972 0
M  V30 3546 H 337.142 -2.1928 4.32486 0
M  V30 3547 N 338.485 -1.33259 -0.841409 0
M  V30 3548 C 339.733 -1.24326 -1.59334 0
M  V30 3549 C 340.054 0.191564 -1.94057 0
M  V30 3550 O 339.324 1.11967 -1.60749 0
M  V30 3551 H 337.904 -0.457174 -0.590763 0
M  V30 3552 H 340.566 -1.66947 -1.00571 0
M  V30 3553 H 339.662 -1.8352 -2.52442 0
M  V30 3554 N 339.963 1.05934 -1.16686 0
M  V30 3555 C 340.895 2.13468 -0.834503 0
M  V30 3556 C 341.908 1.62013 0.15984 0
M  V30 3557 O 343.097 1.7838 -0.0654228 0
M  V30 3558 C 340.197 3.3817 -0.222361 0
M  V30 3559 C 339.37 4.18928 -1.25771 0
M  V30 3560 C 338.429 5.21985 -0.664703 0
M  V30 3561 O 337.455 5.53334 -1.33453 0
M  V30 3562 N 338.657 5.77919 0.546834 0
M  V30 3563 H 341.422 2.42578 -1.75999 0
M  V30 3564 H 338.983 1.21967 -1.06469 0
M  V30 3565 H 340.975 4.04266 0.187472 0
M  V30 3566 H 339.545 3.06655 0.606758 0
M  V30 3567 H 338.765 3.48433 -1.84358 0
M  V30 3568 H 340.053 4.69687 -1.95631 0
M  V30 3569 H 339.451 5.54721 1.10912 0
M  V30 3570 H 338.008 6.45573 0.898829 0
M  V30 3571 N 341.441 0.965919 1.2453 0
M  V30 3572 C 342.371 0.513476 2.27784 0
M  V30 3573 C 343.352 -0.445974 1.6415 0
M  V30 3574 O 344.537 -0.342485 1.91156 0
M  V30 3575 C 341.667 -0.198839 3.4673 0
M  V30 3576 C 340.621 0.676456 4.2262 0
M  V30 3577 C 339.947 -0.167248 5.34438 0
M  V30 3578 C 341.247 1.96017 4.84123 0
M  V30 3579 H 342.941 1.3765 2.65881 0
M  V30 3580 H 340.487 0.663321 1.27813 0
M  V30 3581 H 342.44 -0.526567 4.18097 0
M  V30 3582 H 341.164 -1.0962 3.07654 0
M  V30 3583 H 339.823 0.98743 3.53052 0
M  V30 3584 H 339.471 -1.0647 4.91603 0
M  V30 3585 H 339.171 0.415181 5.86131 0
M  V30 3586 H 340.695 -0.489688 6.08633 0
M  V30 3587 H 342.109 1.69814 5.47573 0
M  V30 3588 H 340.506 2.48918 5.4604 0
M  V30 3589 H 341.576 2.65622 4.05676 0
M  V30 3590 N 342.919 -1.39368 0.735821 0
M  V30 3591 C 344.147 -2.04795 0.294393 0
M  V30 3592 C 344.562 -1.55478 -1.07107 0
M  V30 3593 O 343.919 -0.720038 -1.67695 0
M  V30 3594 C 343.97 -3.6035 0.288071 0
M  V30 3595 O 343.691 -4.07852 1.59963 0
M  V30 3596 C 345.192 -4.42976 -0.169422 0
M  V30 3597 H 342.412 -0.658571 0.128551 0
M  V30 3598 H 344.956 -1.78399 0.999701 0
M  V30 3599 H 343.111 -3.85645 -0.368355 0
M  V30 3600 H 343.525 -5.02181 1.51375 0
M  V30 3601 H 344.999 -5.51864 -0.122687 0
M  V30 3602 H 345.476 -4.22068 -1.21472 0
M  V30 3603 H 346.082 -4.22832 0.457469 0
M  V30 3604 N 344.397 -0.483516 -1.5 0
M  V30 3605 C 345.674 0.129337 -1.95172 0
M  V30 3606 C 346.054 1.55802 -1.4244 0
M  V30 3607 O 345.402 2.19625 -0.630649 0
M  V30 3608 C 345.612 0.0599251 -3.48949 0
M  V30 3609 C 346.96 0.242617 -4.23906 0
M  V30 3610 O 347.984 0.135933 -3.55941 0
M  V30 3611 O 346.843 0.459454 -5.44565 0
M  V30 3612 H 343.937 0.104887 -0.820322 0
M  V30 3613 H 346.483 -0.544807 -1.60717 0
M  V30 3614 H 345.255 -0.937079 -3.79914 0
M  V30 3615 H 344.878 0.774984 -3.89974 0
M  V30 3616 N 345.875 1.56104 -0.216619 0
M  V30 3617 C 347.123 1.97781 0.415593 0
M  V30 3618 C 347.444 1.10536 1.60645 0
M  V30 3619 O 346.714 0.181303 1.95059 0
M  V30 3620 H 345.294 0.730415 0.156534 0
M  V30 3621 H 347.956 1.92445 -0.308366 0
M  V30 3622 H 347.052 3.03072 0.74525 0
M  V30 3623 N 347.353 -0.0568162 1.57498 0
M  V30 3624 C 348.599 -0.75422 1.88253 0
M  V30 3625 C 348.932 -1.76461 0.810865 0
M  V30 3626 O 348.207 -1.93691 -0.177259 0
M  V30 3627 C 348.49 -1.44878 3.2967 0
M  V30 3628 C 348.343 -0.453789 4.47505 0
M  V30 3629 C 349.662 -2.38994 3.69554 0
M  V30 3630 H 346.781 -0.272724 0.684683 0
M  V30 3631 H 349.423 -0.0172113 1.89992 0
M  V30 3632 H 347.573 -2.077 3.28318 0
M  V30 3633 H 349.245 0.170371 4.60985 0
M  V30 3634 H 347.488 0.229552 4.33192 0
M  V30 3635 H 348.159 -0.977699 5.43273 0
M  V30 3636 H 350.635 -1.86239 3.72095 0
M  V30 3637 H 349.511 -2.84587 4.69363 0
M  V30 3638 H 349.772 -3.24461 3.00296 0
M  V30 3639 N 348.832 -1.54138 -0.328536 0
M  V30 3640 C 350.057 -1.76378 -1.09112 0
M  V30 3641 C 350.482 -0.508596 -1.81094 0
M  V30 3642 O 349.84 0.539598 -1.73084 0
M  V30 3643 C 349.888 -2.95358 -2.06872 0
M  V30 3644 O 348.992 -2.66556 -3.14677 0
M  V30 3645 H 348.333 -0.584614 -0.314838 0
M  V30 3646 H 350.863 -2.01146 -0.374348 0
M  V30 3647 H 350.873 -3.22566 -2.4983 0
M  V30 3648 H 349.548 -3.86385 -1.5388 0
M  V30 3649 H 348.125 -2.50282 -2.7643 0
M  V30 3650 N 350.31 0.590341 -1.46126 0
M  V30 3651 C 351.558 1.34616 -1.50742 0
M  V30 3652 C 351.879 1.94363 -0.157486 0
M  V30 3653 O 351.149 1.78136 0.815136 0
M  V30 3654 H 349.729 0.499789 -0.555175 0
M  V30 3655 H 352.391 0.691953 -1.82203 0
M  V30 3656 H 351.487 2.15678 -2.25587 0
M  V30 3657 N 351.788 1.33704 0.83433 0
M  V30 3658 C 352.718 1.26967 1.95963 0
M  V30 3659 C 353.699 0.149337 1.69443 0
M  V30 3660 O 354.884 0.339852 1.91203 0
M  V30 3661 C 352.014 1.01275 3.32206 0
M  V30 3662 C 350.968 2.09652 3.73136 0
M  V30 3663 C 350.294 1.69166 5.07235 0
M  V30 3664 C 351.594 3.51372 3.86439 0
M  V30 3665 H 353.288 2.2112 2.01857 0
M  V30 3666 H 350.834 1.06447 0.969793 0
M  V30 3667 H 352.787 0.952106 4.10503 0
M  V30 3668 H 351.511 0.0356203 3.26581 0
M  V30 3669 H 350.17 2.14766 2.97104 0
M  V30 3670 H 349.818 0.701437 4.98085 0
M  V30 3671 H 349.518 2.41694 5.35591 0
M  V30 3672 H 351.042 1.64576 5.88003 0
M  V30 3673 H 352.456 3.48734 4.55036 0
M  V30 3674 H 350.853 4.22425 4.26236 0
M  V30 3675 H 351.923 3.89546 2.88759 0
M  V30 3676 N 353.266 -1.05314 1.17247 0
M  V30 3677 C 354.543 -1.75184 0.87005 0
M  V30 3678 C 354.923 -2.01481 -0.629965 0
M  V30 3679 O 354.271 -1.64988 -1.58086 0
M  V30 3680 C 354.481 -3.04594 1.70363 0
M  V30 3681 C 355.829 -3.78567 1.92281 0
M  V30 3682 O 356.853 -3.14461 1.67311 0
M  V30 3683 O 355.712 -4.93755 2.3424 0
M  V30 3684 H 352.806 -0.761729 0.322021 0
M  V30 3685 H 355.352 -1.11493 1.27935 0
M  V30 3686 H 354.124 -2.81201 2.72106 0
M  V30 3687 H 353.747 -3.76022 1.29202 0
M  V30 3688 N 354.744 -0.972509 -1.24016 0
M  V30 3689 C 356.021 -0.553733 -1.87598 0
M  V30 3690 C 356.401 0.969158 -1.87538 0
M  V30 3691 O 355.749 1.84255 -1.35139 0
M  V30 3692 C 355.959 -1.15076 -3.29482 0
M  V30 3693 C 357.307 -1.23862 -4.06132 0
M  V30 3694 O 358.331 -1.10363 -3.38672 0
M  V30 3695 O 357.19 -1.45252 -5.26844 0
M  V30 3696 H 354.284 -0.185331 -0.805966 0
M  V30 3697 H 356.83 -1.06709 -1.31952 0
M  V30 3698 H 355.602 -2.19333 -3.2405 0
M  V30 3699 H 355.225 -0.621746 -3.92709 0
M  V30 3700 N 356.222 1.38976 -0.743202 0
M  V30 3701 C 357.469 2.00343 -0.294752 0
M  V30 3702 C 357.797 1.58983 1.12047 0
M  V30 3703 O 357.052 0.813809 1.77977 0
M  V30 3704 C 357.351 3.55647 -0.353517 0
M  V30 3705 C 357.017 4.16685 -1.72292 0
M  V30 3706 C 355.679 4.3307 -2.09771 0
M  V30 3707 C 358.031 4.50464 -2.62168 0
M  V30 3708 C 355.359 4.80526 -3.36618 0
M  V30 3709 C 357.711 4.99332 -3.88395 0
M  V30 3710 C 356.375 5.13924 -4.25956 0
M  V30 3711 H 355.645 0.733108 -0.107857 0
M  V30 3712 H 358.292 1.6618 -0.951651 0
M  V30 3713 H 356.597 3.89884 0.386954 0
M  V30 3714 H 358.294 4.00998 0.0117269 0
M  V30 3715 H 354.884 4.04339 -1.42155 0
M  V30 3716 H 359.068 4.37416 -2.3448 0
M  V30 3717 H 354.324 4.90008 -3.65653 0
M  V30 3718 H 358.498 5.2444 -4.58187 0
M  V30 3719 H 356.125 5.50457 -5.2431 0
M  V30 3720 N 357.7 0.491464 1.49741 0
M  V30 3721 C 358.928 -0.0535151 2.06831 0
M  V30 3722 C 359.343 -1.31683 1.35296 0
M  V30 3723 O 358.7 -1.77402 0.42836 0
M  V30 3724 C 358.751 -0.320835 3.60073 0
M  V30 3725 O 358.472 0.892394 4.28915 0
M  V30 3726 C 359.973 -0.910519 4.33848 0
M  V30 3727 H 357.193 0.0161909 0.670805 0
M  V30 3728 H 359.737 0.68609 1.92647 0
M  V30 3729 H 357.892 -1.0104 3.73991 0
M  V30 3730 H 358.306 0.649401 5.20464 0
M  V30 3731 H 359.78 -1.04721 5.41976 0
M  V30 3732 H 360.257 -1.90589 3.95692 0
M  V30 3733 H 360.863 -0.258712 4.24512 0
M  V30 3734 N 359.178 -1.55987 0.224894 0
M  V30 3735 C 360.11 -2.17722 -0.716224 0
M  V30 3736 C 361.123 -1.14723 -1.15509 0
M  V30 3737 O 362.312 -1.41688 -1.08567 0
M  V30 3738 C 359.412 -2.74873 -1.98238 0
M  V30 3739 C 358.585 -4.03074 -1.69853 0
M  V30 3740 C 357.644 -4.44757 -2.81208 0
M  V30 3741 O 356.67 -5.11587 -2.49534 0
M  V30 3742 N 357.872 -4.10716 -4.10235 0
M  V30 3743 H 360.637 -2.99109 -0.188123 0
M  V30 3744 H 358.198 -1.6184 0.0440123 0
M  V30 3745 H 360.19 -2.99727 -2.7193 0
M  V30 3746 H 358.76 -1.9777 -2.42086 0
M  V30 3747 H 357.98 -3.86041 -0.797875 0
M  V30 3748 H 359.268 -4.86701 -1.48324 0
M  V30 3749 H 358.666 -3.57019 -4.38809 0
M  V30 3750 H 357.223 -4.40455 -4.80461 0
M  V30 3751 N 360.656 0.0484629 -1.57525 0
M  V30 3752 C 361.884 0.755421 -1.92616 0
M  V30 3753 C 362.299 1.69919 -0.822984 0
M  V30 3754 O 361.656 1.81378 0.202085 0
M  V30 3755 C 361.707 1.52915 -3.27566 0
M  V30 3756 O 361.428 0.62329 -4.33644 0
M  V30 3757 C 362.929 2.33502 -3.76818 0
M  V30 3758 H 360.149 0.213465 -0.63614 0
M  V30 3759 H 362.693 0.0117698 -2.04497 0
M  V30 3760 H 360.848 2.22486 -3.17142 0
M  V30 3761 H 361.262 1.16383 -5.11425 0
M  V30 3762 H 362.736 2.83214 -4.73808 0
M  V30 3763 H 363.213 3.14068 -3.07014 0
M  V30 3764 H 363.819 1.69043 -3.90262 0
M  V30 3765 N 362.134 1.5431 0.320358 0
M  V30 3766 C 363.084 1.803 1.39556 0
M  V30 3767 C 364.068 0.659166 1.46778 0
M  V30 3768 O 365.26 0.91926 1.51257 0
M  V30 3769 C 362.389 2.03665 2.76361 0
M  V30 3770 C 361.475 3.24178 2.73439 0
M  V30 3771 N 361.866 4.4516 2.40137 0
M  V30 3772 C 360.164 3.25816 3.04565 0
M  V30 3773 C 360.865 5.27109 2.4603 0
M  V30 3774 N 359.841 4.64368 2.82601 0
M  V30 3775 H 363.643 2.71416 1.12742 0
M  V30 3776 H 361.157 1.53548 0.528856 0
M  V30 3777 H 363.154 2.20425 3.53862 0
M  V30 3778 H 361.814 1.13805 3.04103 0
M  V30 3779 H 362.825 4.72104 2.12927 0
M  V30 3780 H 359.502 2.46001 3.37328 0
M  V30 3781 H 360.892 6.33728 2.23246 0
M  V30 3782 N 363.613 -0.582584 1.46437 0
M  V30 3783 C 364.523 -1.71949 1.59595 0
M  V30 3784 C 365.539 -1.67264 0.479443 0
M  V30 3785 O 366.715 -1.87171 0.743579 0
M  V30 3786 C 363.78 -3.08452 1.58298 0
M  V30 3787 C 362.841 -3.244 2.81182 0
M  V30 3788 C 362.074 -4.54391 2.79937 0
M  V30 3789 O 362.297 -5.38287 1.8869 0
M  V30 3790 O 361.231 -4.73588 3.71481 0
M  V30 3791 H 365.057 -1.63795 2.55744 0
M  V30 3792 H 362.642 -0.749643 1.29231 0
M  V30 3793 H 364.524 -3.89732 1.60271 0
M  V30 3794 H 363.199 -3.17043 0.653094 0
M  V30 3795 H 362.106 -2.42613 2.84763 0
M  V30 3796 H 363.439 -3.20699 3.7338 0
M  V30 3797 N 365.091 -1.34144 -0.827227 0
M  V30 3798 C 366.321 -1.29138 -1.61267 0
M  V30 3799 C 366.729 0.137597 -1.88699 0
M  V30 3800 O 366.072 1.09379 -1.47587 0
M  V30 3801 C 366.134 -2.0097 -2.9808 0
M  V30 3802 C 365.798 -3.50242 -2.93563 0
M  V30 3803 C 366.795 -4.4523 -2.68452 0
M  V30 3804 C 364.48 -3.92592 -3.13331 0
M  V30 3805 C 366.474 -5.80542 -2.63154 0
M  V30 3806 C 364.161 -5.28005 -3.07658 0
M  V30 3807 C 365.159 -6.21792 -2.82602 0
M  V30 3808 O 364.847 -7.54723 -2.76853 0
M  V30 3809 H 364.579 -0.445851 -0.508127 0
M  V30 3810 H 367.133 -1.77263 -1.03763 0
M  V30 3811 H 365.363 -1.47451 -3.57484 0
M  V30 3812 H 367.052 -1.89309 -3.5905 0
M  V30 3813 H 367.818 -4.13832 -2.52919 0
M  V30 3814 H 363.697 -3.19994 -3.31851 0
M  V30 3815 H 367.241 -6.53717 -2.43516 0
M  V30 3816 H 363.138 -5.59023 -3.22743 0
M  V30 3817 H 363.906 -7.64409 -2.92611 0
M  V30 3818 N 366.569 1.04691 -1.17803 0
M  V30 3819 C 367.519 2.10856 -0.867391 0
M  V30 3820 C 368.503 1.601 0.160206 0
M  V30 3821 O 369.695 1.76948 -0.042947 0
M  V30 3822 C 366.824 3.411 -0.388012 0
M  V30 3823 C 365.91 3.9864 -1.44732 0
M  V30 3824 N 366.301 4.30075 -2.66212 0
M  V30 3825 C 364.599 4.26439 -1.30637 0
M  V30 3826 C 365.3 4.76033 -3.34317 0
M  V30 3827 N 364.276 4.76462 -2.61696 0
M  V30 3828 H 368.078 2.33029 -1.79094 0
M  V30 3829 H 365.592 1.22386 -1.0675 0
M  V30 3830 H 367.589 4.16641 -0.146994 0
M  V30 3831 H 366.249 3.20357 0.529271 0
M  V30 3832 H 367.26 4.19917 -3.03134 0
M  V30 3833 H 363.937 4.15056 -0.451129 0
M  V30 3834 H 365.327 5.09427 -4.38103 0
M  V30 3835 N 368.047 0.979072 1.23499 0
M  V30 3836 C 369.293 0.648178 1.92163 0
M  V30 3837 C 369.626 -0.816049 1.76222 0
M  V30 3838 O 368.901 -1.58849 1.12237 0
M  V30 3839 C 369.184 1.03773 3.44824 0
M  V30 3840 C 369.037 2.55948 3.69879 0
M  V30 3841 C 370.356 0.580653 4.36253 0
M  V30 3842 H 367.475 0.236952 0.69787 0
M  V30 3843 H 370.117 1.22012 1.45647 0
M  V30 3844 H 368.267 0.551058 3.84572 0
M  V30 3845 H 369.939 3.12179 3.3962 0
M  V30 3846 H 368.182 2.98641 3.14636 0
M  V30 3847 H 368.853 2.78255 4.76737 0
M  V30 3848 H 371.329 0.998465 4.03943 0
M  V30 3849 H 370.205 0.881663 5.41773 0
M  V30 3850 H 370.466 -0.519052 4.39042 0
M  V30 3851 N 369.525 -1.3858 0.750561 0
M  V30 3852 C 370.771 -2.0095 0.31477 0
M  V30 3853 C 371.126 -1.58509 -1.09053 0
M  V30 3854 O 370.419 -0.8112 -1.7358 0
M  V30 3855 C 370.613 -3.55455 0.372373 0
M  V30 3856 C 370.442 -4.12898 1.78173 0
M  V30 3857 C 369.212 -4.44797 2.39757 0
M  V30 3858 C 371.41 -4.35366 2.7379 0
M  V30 3859 N 369.392 -4.87831 3.72685 0
M  V30 3860 C 370.763 -4.80775 3.91478 0
M  V30 3861 C 372.818 -4.1746 2.71351 0
M  V30 3862 C 371.521 -5.10155 5.07084 0
M  V30 3863 C 373.547 -4.47963 3.86113 0
M  V30 3864 C 372.909 -4.93593 5.02539 0
M  V30 3865 H 369.008 -0.765083 0.161776 0
M  V30 3866 H 371.592 -1.68246 0.979867 0
M  V30 3867 H 369.763 -3.87512 -0.26244 0
M  V30 3868 H 371.495 -4.04614 -0.0834479 0
M  V30 3869 H 368.25 -4.33135 1.91548 0
M  V30 3870 H 368.674 -5.13685 4.40972 0
M  V30 3871 H 373.316 -3.81372 1.82524 0
M  V30 3872 H 371.034 -5.45141 5.96529 0
M  V30 3873 H 374.62 -4.35717 3.85542 0
M  V30 3874 H 373.5 -5.16746 5.89867 0
M  V30 3875 N 371.003 -0.499398 -1.49478 0
M  V30 3876 C 372.414 -0.051215 -1.8663 0
M  V30 3877 C 372.765 1.36238 -1.41186 0
M  V30 3878 O 371.89 2.01502 -0.789051 0
M  V30 3879 C 372.485 -0.0861651 -3.3869 0
M  V30 3880 C 371.044 0.30667 -3.75149 0
M  V30 3881 C 370.191 -0.459397 -2.73468 0
M  V30 3882 H 373.142 -0.712264 -1.41818 0
M  V30 3883 H 373.163 0.709507 -3.73826 0
M  V30 3884 H 372.675 -1.11512 -3.71735 0
M  V30 3885 H 370.776 1.33892 -3.47712 0
M  V30 3886 H 370.889 -0.0116669 -4.79099 0
M  V30 3887 H 369.253 0.0905645 -2.54539 0
M  V30 3888 H 370.036 -1.4884 -3.09357 0
M  V30 3889 N 372.481 1.55866 -0.233164 0
M  V30 3890 C 373.729 1.9821 0.394593 0
M  V30 3891 C 374.05 1.12234 1.59463 0
M  V30 3892 O 373.32 0.201981 1.94856 0
M  V30 3893 H 371.9 0.732034 0.148778 0
M  V30 3894 H 374.562 1.92107 -0.32876 0
M  V30 3895 H 373.658 3.03845 0.713063 0
M  V30 3896 N 373.959 -0.0401083 1.57549 0
M  V30 3897 C 375.189 -0.744115 1.92734 0
M  V30 3898 C 375.597 -1.70005 0.830348 0
M  V30 3899 O 374.94 -1.82576 -0.20286 0
M  V30 3900 C 375.002 -1.56516 3.2364 0
M  V30 3901 C 374.666 -0.7752 4.50377 0
M  V30 3902 C 375.663 -0.0803326 5.19838 0
M  V30 3903 C 373.348 -0.733002 4.96923 0
M  V30 3904 C 375.342 0.646154 6.34116 0
M  V30 3905 C 373.029 -0.00276321 6.111 0
M  V30 3906 C 374.027 0.685585 6.7955 0
M  V30 3907 O 373.715 1.40399 7.91545 0
M  V30 3908 H 373.447 -0.214861 0.640945 0
M  V30 3909 H 376.001 -0.00503675 2.05399 0
M  V30 3910 H 374.231 -2.3478 3.07271 0
M  V30 3911 H 375.92 -2.15076 3.44234 0
M  V30 3912 H 376.686 -0.104035 4.84888 0
M  V30 3913 H 372.565 -1.25827 4.43496 0
M  V30 3914 H 376.109 1.18398 6.87479 0
M  V30 3915 H 372.006 0.0229012 6.45496 0
M  V30 3916 H 372.774 1.31653 8.07843 0
M  V30 3917 N 375.437 -1.54477 -0.31217 0
M  V30 3918 C 376.714 -1.63891 -1.06767 0
M  V30 3919 C 377.094 -0.480028 -2.0557 0
M  V30 3920 O 376.442 0.524487 -2.22399 0
M  V30 3921 C 376.652 -3.01402 -1.75948 0
M  V30 3922 C 378 -3.57838 -2.28554 0
M  V30 3923 O 379.024 -3.03782 -1.85998 0
M  V30 3924 O 377.883 -4.52462 -3.06497 0
M  V30 3925 H 374.977 -0.664125 -0.492816 0
M  V30 3926 H 377.523 -1.66823 -0.311149 0
M  V30 3927 H 376.295 -3.77187 -1.04144 0
M  V30 3928 H 375.918 -3.02199 -2.58383 0
M  V30 3929 N 376.915 0.57481 -1.46744 0
M  V30 3930 C 378.145 1.35659 -1.55821 0
M  V30 3931 C 378.553 1.88129 -0.201036 0
M  V30 3932 O 377.896 1.64723 0.813134 0
M  V30 3933 C 377.958 2.57473 -2.50894 0
M  V30 3934 C 377.622 2.26415 -3.9697 0
M  V30 3935 C 378.619 1.84771 -4.85958 0
M  V30 3936 C 376.304 2.38316 -4.42166 0
M  V30 3937 C 378.298 1.55434 -6.18158 0
M  V30 3938 C 375.985 2.08591 -5.74398 0
M  V30 3939 C 376.983 1.67216 -6.62214 0
M  V30 3940 O 376.671 1.37859 -7.91991 0
M  V30 3941 H 376.403 0.420496 -0.529301 0
M  V30 3942 H 378.957 0.704967 -1.92923 0
M  V30 3943 H 377.187 3.25468 -2.08824 0
M  V30 3944 H 378.876 3.19546 -2.50291 0
M  V30 3945 H 379.642 1.75085 -4.52295 0
M  V30 3946 H 375.521 2.69483 -3.74032 0
M  V30 3947 H 379.065 1.23065 -6.86659 0
M  V30 3948 H 374.962 2.17905 -6.07608 0
M  V30 3949 H 375.73 1.51638 -8.04331 0
M  V30 3950 N 378.394 1.34581 0.820102 0
M  V30 3951 C 379.64 1.27285 1.57881 0
M  V30 3952 C 379.973 -0.156137 1.93571 0
M  V30 3953 O 379.248 -1.10222 1.60254 0
M  V30 3954 C 379.531 2.16639 2.87645 0
M  V30 3955 C 379.384 3.68088 2.58517 0
M  V30 3956 C 380.703 2.05378 3.8924 0
M  V30 3957 H 377.822 0.463714 0.572833 0
M  V30 3958 H 380.464 1.64859 0.944539 0
M  V30 3959 H 378.614 1.84725 3.41773 0
M  V30 3960 H 380.286 4.10382 2.10676 0
M  V30 3961 H 378.529 3.89038 1.91917 0
M  V30 3962 H 379.2 4.2598 3.51063 0
M  V30 3963 H 381.676 2.33404 3.44473 0
M  V30 3964 H 380.552 2.7012 4.77835 0
M  V30 3965 H 380.813 1.0316 4.29896 0
M  V30 3966 N 379.872 -1.04064 1.18357 0
M  V30 3967 C 381.12 -1.76915 0.977013 0
M  V30 3968 C 381.441 -1.88624 -0.494577 0
M  V30 3969 O 380.711 -1.41125 -1.3587 0
M  V30 3970 H 379.291 -0.65535 0.358504 0
M  V30 3971 H 381.953 -1.25592 1.49039 0
M  V30 3972 H 381.049 -2.78178 1.41504 0
M  V30 3973 N 381.35 -0.985608 -1.22978 0
M  V30 3974 C 382.596 -0.667998 -1.92118 0
M  V30 3975 C 382.951 0.790454 -1.75413 0
M  V30 3976 O 382.244 1.56336 -1.10768 0
M  V30 3977 C 382.438 -1.00014 -3.43121 0
M  V30 3978 C 382.267 -2.48933 -3.74516 0
M  V30 3979 C 381.037 -3.15218 -3.94925 0
M  V30 3980 C 383.235 -3.47024 -3.79577 0
M  V30 3981 N 381.217 -4.53689 -4.13569 0
M  V30 3982 C 382.588 -4.70923 -4.03276 0
M  V30 3983 C 384.643 -3.41432 -3.62393 0
M  V30 3984 C 383.346 -5.89914 -4.11574 0
M  V30 3985 C 385.372 -4.59793 -3.71947 0
M  V30 3986 C 384.734 -5.82489 -3.96088 0
M  V30 3987 H 380.833 -0.295589 -0.723983 0
M  V30 3988 H 383.417 -1.26413 -1.4808 0
M  V30 3989 H 381.588 -0.432655 -3.85983 0
M  V30 3990 H 383.32 -0.63927 -3.99619 0
M  V30 3991 H 380.075 -2.65702 -3.92045 0
M  V30 3992 H 380.499 -5.25492 -4.26834 0
M  V30 3993 H 385.141 -2.47594 -3.4272 0
M  V30 3994 H 382.859 -6.84164 -4.30053 0
M  V30 3995 H 386.445 -4.57048 -3.59998 0
M  V30 3996 H 385.325 -6.72546 -4.033 0
M  V30 3997 N 382.828 1.3818 -0.7579 0
M  V30 3998 C 384.244 1.5353 -0.435972 0
M  V30 3999 C 384.444 1.71961 1.05032 0
M  V30 4000 O 383.5 1.73307 1.83633 0
M  V30 4001 C 384.813 2.73989 -1.23898 0
M  V30 4002 C 386.361 2.87841 -1.22949 0
M  V30 4003 C 386.836 4.11266 -2.01554 0
M  V30 4004 N 388.327 4.18352 -1.98837 0
M  V30 4005 C 389.062 5.12856 -2.5645 0
M  V30 4006 N 388.558 6.13005 -3.22794 0
M  V30 4007 N 390.351 5.05238 -2.46356 0
M  V30 4008 H 382.502 1.24467 -1.7211 0
M  V30 4009 H 384.765 0.604982 -0.729864 0
M  V30 4010 H 384.471 2.66789 -2.29165 0
M  V30 4011 H 384.345 3.67294 -0.858764 0
M  V30 4012 H 386.732 2.9452 -0.184854 0
M  V30 4013 H 386.813 1.95534 -1.64924 0
M  V30 4014 H 386.457 4.05349 -3.06031 0
M  V30 4015 H 386.387 5.02661 -1.5697 0
M  V30 4016 H 388.878 3.46628 -1.50524 0
M  V30 4017 H 389.191 6.81619 -3.64165 0
M  V30 4018 H 387.536 6.13325 -3.2689 0
M  V30 4019 H 390.727 4.25938 -1.9415 0
M  V30 4020 H 390.9 5.78707 -2.91552 0
M  V30 4021 N 384.306 0.507319 1.49211 0
M  V30 4022 C 385.254 -0.281364 2.30892 0
M  V30 4023 C 386.248 -0.95687 1.39787 0
M  V30 4024 O 387.454 -0.883838 1.56807 0
M  V30 4025 H 383.829 -0.109597 0.743971 0
M  V30 4026 H 385.8 0.42744 2.95323 0
M  V30 4027 C 384.549 -1.32918 3.21291 0
M  V30 4028 H 383.872 -0.818799 3.91326 0
M  V30 4029 H 385.312 -1.85288 3.81372 0
M  V30 4030 C 383.771 -2.35074 2.41333 0
M  V30 4031 O 384.301 -3.4108 2.12197 0
M  V30 4032 N 382.507 -2.07705 2.03241 0
M  V30 4033 H 382.054 -1.2152 2.27136 0
M  V30 4034 H 382.012 -2.76283 1.50051 0
M  V30 4035 N 385.784 -1.5574 0.241426 0
M  V30 4036 C 386.694 -2.2479 -0.671305 0
M  V30 4037 C 387.71 -1.26217 -1.19772 0
M  V30 4038 O 388.886 -1.59079 -1.23514 0
M  V30 4039 C 385.951 -2.92966 -1.85396 0
M  V30 4040 C 385.012 -4.06935 -1.36756 0
M  V30 4041 C 384.245 -4.71851 -2.49384 0
M  V30 4042 O 384.468 -4.35823 -3.67987 0
M  V30 4043 O 383.402 -5.60467 -2.19454 0
M  V30 4044 H 387.228 -3.0349 -0.112966 0
M  V30 4045 H 384.813 -1.49397 0.0101513 0
M  V30 4046 H 386.695 -3.35927 -2.54423 0
M  V30 4047 H 385.37 -2.17211 -2.40002 0
M  V30 4048 H 384.277 -3.68503 -0.644726 0
M  V30 4049 H 385.61 -4.84492 -0.867647 0
M  V30 4050 N 387.262 0.0317525 -1.57568 0
M  V30 4051 C 388.487 0.738664 -1.938 0
M  V30 4052 C 388.912 1.68242 -0.841208 0
M  V30 4053 O 388.27 1.80157 0.203267 0
M  V30 4054 C 388.318 1.47417 -3.29091 0
M  V30 4055 O 387.422 2.5872 -3.2115 0
M  V30 4056 H 386.763 0.198856 -0.633524 0
M  V30 4057 H 389.293 -0.0119713 -2.04596 0
M  V30 4058 H 389.303 1.84468 -3.63917 0
M  V30 4059 H 387.978 0.781988 -4.08482 0
M  V30 4060 H 386.555 2.24231 -2.97951 0
M  V30 4061 N 388.74 1.54641 0.303973 0
M  V30 4062 C 389.703 1.84646 1.35789 0
M  V30 4063 C 390.703 0.7192 1.4382 0
M  V30 4064 O 391.893 0.987491 1.43507 0
M  V30 4065 C 389.025 2.02407 2.74307 0
M  V30 4066 H 390.218 2.78829 1.10429 0
M  V30 4067 H 387.771 1.46658 0.540487 0
M  V30 4068 H 388.506 1.10502 3.04893 0
M  V30 4069 H 388.291 2.84453 2.69868 0
M  V30 4070 H 389.781 2.27002 3.50514 0
M  V30 4071 N 390.218 -0.567019 1.47046 0
M  V30 4072 C 391.446 -1.35027 1.56765 0
M  V30 4073 C 391.861 -1.8758 0.214316 0
M  V30 4074 O 391.218 -1.64471 -0.790919 0
M  V30 4075 C 391.269 -2.52698 2.58507 0
M  V30 4076 O 390.99 -2.0232 3.88585 0
M  V30 4077 C 392.491 -3.45043 2.78316 0
M  V30 4078 H 389.711 -0.41195 0.529658 0
M  V30 4079 H 392.255 -0.687832 1.92585 0
M  V30 4080 H 390.41 -3.149 2.25648 0
M  V30 4081 H 390.824 -2.79068 4.44096 0
M  V30 4082 H 392.298 -4.2405 3.53391 0
M  V30 4083 H 392.775 -3.97971 1.85784 0
M  V30 4084 H 393.381 -2.88665 3.12334 0
M  V30 4085 N 391.696 -1.35014 -0.812953 0
M  V30 4086 C 392.644 -1.27435 -1.94585 0
M  V30 4087 C 393.638 -0.170494 -1.6854 0
M  V30 4088 O 394.844 -0.336085 -1.76835 0
M  V30 4089 H 391.219 -0.396144 -0.639198 0
M  V30 4090 H 393.19 -2.23158 -1.98098 0
M  V30 4091 C 391.939 -1.05677 -3.31252 0
M  V30 4092 H 391.262 -1.89853 -3.51846 0
M  V30 4093 H 392.702 -1.04413 -4.10943 0
M  V30 4094 C 391.161 0.239615 -3.36047 0
M  V30 4095 O 391.691 1.23759 -3.8216 0
M  V30 4096 N 389.897 0.276186 -2.89285 0
M  V30 4097 H 389.444 -0.53653 -2.51951 0
M  V30 4098 H 389.402 1.14332 -2.92875 0
M  V30 4099 N 393.175 1.03435 -1.18907 0
M  V30 4100 C 394.423 1.76394 -0.986382 0
M  V30 4101 C 394.744 1.88883 0.484567 0
M  V30 4102 O 394.014 1.41843 1.3512 0
M  V30 4103 H 392.594 0.65344 -0.361975 0
M  V30 4104 H 395.256 1.248 -1.49703 0
M  V30 4105 H 394.352 2.77424 -1.42978 0
M  V30 4106 N 394.653 0.992116 1.22453 0
M  V30 4107 C 395.883 0.684949 1.94915 0
M  V30 4108 C 396.291 -0.754292 1.73514 0
M  V30 4109 O 395.634 -1.52056 1.03076 0
M  V30 4110 C 395.696 0.910054 3.47791 0
M  V30 4111 C 395.36 2.33363 3.92926 0
M  V30 4112 C 396.357 3.31308 4.00663 0
M  V30 4113 C 394.042 2.66785 4.25595 0
M  V30 4114 C 396.036 4.6075 4.40441 0
M  V30 4115 C 393.723 3.96446 4.65053 0
M  V30 4116 C 394.721 4.9324 4.72444 0
M  V30 4117 O 394.409 6.20584 5.1101 0
M  V30 4118 H 394.141 0.25258 0.62704 0
M  V30 4119 H 396.695 1.32939 1.56577 0
M  V30 4120 H 394.925 0.208443 3.86138 0
M  V30 4121 H 396.614 0.598257 4.01467 0
M  V30 4122 H 397.38 3.0682 3.75615 0
M  V30 4123 H 393.259 1.92148 4.19047 0
M  V30 4124 H 396.803 5.363 4.46126 0
M  V30 4125 H 392.7 4.20724 4.89552 0
M  V30 4126 H 393.468 6.24509 5.29085 0
M  V30 4127 N 396.131 -1.37776 0.765217 0
M  V30 4128 C 397.38 -1.99092 0.323307 0
M  V30 4129 C 397.693 -1.61434 -1.10446 0
M  V30 4130 O 398.899 -2.15805 -1.64743 0
M  V30 4131 C 397.355 -3.56019 0.527098 0
M  V30 4132 C 396.963 -4.0262 1.96471 0
M  V30 4133 C 398.707 -4.2424 0.148483 0
M  V30 4134 C 396.614 -5.52233 2.11644 0
M  V30 4135 H 395.544 -0.744846 0.117137 0
M  V30 4136 H 398.195 -1.57391 0.943417 0
M  V30 4137 H 396.577 -3.95667 -0.162372 0
M  V30 4138 H 397.751 -3.74234 2.68859 0
M  V30 4139 H 396.066 -3.47161 2.29931 0
M  V30 4140 H 398.663 -5.34159 0.240456 0
M  V30 4141 H 399.006 -4.06446 -0.900422 0
M  V30 4142 H 399.539 -3.89872 0.79025 0
M  V30 4143 H 396.278 -5.74945 3.1483 0
M  V30 4144 H 395.798 -5.82324 1.4373 0
M  V30 4145 H 397.477 -6.18106 1.91193 0
M  V30 4146 N 397.609 -0.515225 -1.4894 0
M  V30 4147 C 398.519 0.259774 -2.33157 0
M  V30 4148 C 399.535 0.953501 -1.45548 0
M  V30 4149 O 400.711 0.931735 -1.78552 0
M  V30 4150 C 397.776 1.30193 -3.21326 0
M  V30 4151 C 396.837 0.620129 -4.24797 0
M  V30 4152 C 396.07 1.61263 -5.08753 0
M  V30 4153 O 396.293 2.84389 -4.94448 0
M  V30 4154 O 395.227 1.16013 -5.90614 0
M  V30 4155 H 399.053 -0.429932 -3.00641 0
M  V30 4156 H 396.638 -0.276346 -1.46822 0
M  V30 4157 H 398.52 1.90455 -3.75905 0
M  V30 4158 H 397.195 1.97431 -2.56521 0
M  V30 4159 H 396.102 -0.0226019 -3.74093 0
M  V30 4160 H 397.435 -0.0100493 -4.92199 0
M  V30 4161 N 399.087 1.5561 -0.249682 0
M  V30 4162 C 400.336 1.98187 0.37479 0
M  V30 4163 C 400.649 1.14111 1.58865 0
M  V30 4164 O 401.855 1.46714 2.28445 0
M  V30 4165 C 400.311 3.52661 0.718192 0
M  V30 4166 C 399.919 4.45481 -0.474428 0
M  V30 4167 C 401.663 4.03888 1.3067 0
M  V30 4168 C 399.57 5.91303 -0.107026 0
M  V30 4169 H 398.5 0.740159 0.143808 0
M  V30 4170 H 401.151 1.80125 -0.350336 0
M  V30 4171 H 399.533 3.66429 1.50152 0
M  V30 4172 H 400.707 4.43473 -1.25172 0
M  V30 4173 H 399.022 4.04751 -0.978052 0
M  V30 4174 H 401.619 5.10358 1.59496 0
M  V30 4175 H 401.962 3.51401 2.23211 0
M  V30 4176 H 402.495 3.93457 0.586211 0
M  V30 4177 H 399.234 6.47833 -0.999642 0
M  V30 4178 H 398.754 5.9644 0.634013 0
M  V30 4179 H 400.433 6.46258 0.309807 0
M  V30 4180 N 400.565 -0.0233959 1.57583 0
M  V30 4181 C 401.498 -1.05549 2.02323 0
M  V30 4182 C 402.476 -1.34843 0.908626 0
M  V30 4183 O 403.66 -1.47404 1.17491 0
M  V30 4184 C 400.787 -2.38885 2.40108 0
M  V30 4185 C 399.833 -2.2541 3.62067 0
M  V30 4186 S 400.666 -1.60217 5.1097 0
M  V30 4187 C 401.822 -2.95032 5.52003 0
M  V30 4188 H 402.055 -0.674435 2.89549 0
M  V30 4189 H 399.588 -0.23355 1.52623 0
M  V30 4190 H 401.546 -3.15562 2.62547 0
M  V30 4191 H 400.207 -2.74137 1.53323 0
M  V30 4192 H 399.4 -3.23854 3.86179 0
M  V30 4193 H 399.002 -1.56876 3.39508 0
M  V30 4194 H 401.294 -3.91357 5.53033 0
M  V30 4195 H 402.237 -2.75646 6.52246 0
M  V30 4196 H 402.645 -2.97865 4.79517 0
M  V30 4197 N 402.043 -1.548 -0.295768 0
M  V30 4198 C 403.29 -1.74329 -1.03032 0
M  V30 4199 C 403.618 -0.531915 -1.87085 0
M  V30 4200 O 402.873 0.486052 -1.89568 0
M  V30 4201 C 403.172 -2.98797 -1.961 0
M  V30 4202 C 402.838 -4.32356 -1.2798 0
M  V30 4203 C 401.5 -4.68661 -1.09135 0
M  V30 4204 C 403.852 -5.15128 -0.793243 0
M  V30 4205 C 401.18 -5.85312 -0.403269 0
M  V30 4206 C 403.532 -6.32488 -0.118854 0
M  V30 4207 C 402.196 -6.6745 0.0815043 0
M  V30 4208 H 401.466 -0.637916 -0.37702 0
M  V30 4209 H 404.113 -1.8906 -0.304696 0
M  V30 4210 H 402.418 -2.78869 -2.75207 0
M  V30 4211 H 404.115 -3.11102 -2.53015 0
M  V30 4212 H 400.705 -4.03808 -1.43655 0
M  V30 4213 H 404.889 -4.87575 -0.92653 0
M  V30 4214 H 400.145 -6.1094 -0.237098 0
M  V30 4215 H 404.319 -6.95892 0.266035 0
M  V30 4216 H 401.946 -7.57695 0.616685 0
M  V30 4217 N 403.521 0.559213 -1.47345 0
M  V30 4218 C 404.431 1.69388 -1.62311 0
M  V30 4219 C 405.447 1.6648 -0.505993 0
M  V30 4220 O 406.623 1.85964 -0.773262 0
M  V30 4221 C 403.688 3.05894 -1.63185 0
M  V30 4222 C 402.749 3.19885 -2.86307 0
M  V30 4223 C 401.982 4.49879 -2.87131 0
M  V30 4224 O 402.205 5.35217 -1.97229 0
M  V30 4225 O 401.139 4.67618 -3.78968 0
M  V30 4226 H 404.965 1.59706 -2.58317 0
M  V30 4227 H 402.55 0.728989 -1.30407 0
M  V30 4228 H 404.432 3.87133 -1.66451 0
M  V30 4229 H 403.107 3.15964 -0.70345 0
M  V30 4230 H 402.014 2.38052 -2.88587 0
M  V30 4231 H 403.347 3.14718 -3.78435 0
M  V30 4232 N 404.999 1.35443 0.805782 0
M  V30 4233 C 406.246 1.28761 1.56291 0
M  V30 4234 C 406.574 -0.137747 1.94012 0
M  V30 4235 O 405.829 -1.1032 1.61642 0
M  V30 4236 C 406.128 2.14045 2.86216 0
M  V30 4237 C 405.794 3.62826 2.67709 0
M  V30 4238 C 404.456 4.0338 2.6237 0
M  V30 4239 C 406.808 4.57227 2.50186 0
M  V30 4240 C 404.136 5.36501 2.37451 0
M  V30 4241 C 406.488 5.90547 2.26797 0
M  V30 4242 C 405.152 6.30245 2.1988 0
M  V30 4243 H 404.422 0.471171 0.571908 0
M  V30 4244 H 407.069 1.67347 0.930974 0
M  V30 4245 H 405.374 1.68342 3.53791 0
M  V30 4246 H 407.071 2.0621 3.43917 0
M  V30 4247 H 403.661 3.30644 2.72713 0
M  V30 4248 H 407.845 4.2678 2.53323 0
M  V30 4249 H 403.101 5.66259 2.30567 0
M  V30 4250 H 407.275 6.63274 2.12228 0
M  V30 4251 H 404.902 7.33328 2.00333 0
M  V30 4252 N 406.477 -1.02803 1.19454 0
M  V30 4253 C 407.754 -1.73299 0.907013 0
M  V30 4254 C 408.134 -2.02772 -0.587086 0
M  V30 4255 O 407.482 -1.68304 -1.54551 0
M  V30 4256 C 407.692 -3.00912 1.76785 0
M  V30 4257 C 409.04 -3.74403 2.00268 0
M  V30 4258 O 410.064 -3.10841 1.73943 0
M  V30 4259 O 408.923 -4.88675 2.4466 0
M  V30 4260 H 406.017 -0.754727 0.338106 0
M  V30 4261 H 408.563 -1.08754 1.30271 0
M  V30 4262 H 407.335 -2.75366 2.7801 0
M  V30 4263 H 406.958 -3.73197 1.37149 0
M  V30 4264 N 407.956 -0.998596 -1.21925 0
M  V30 4265 C 409.372 -0.710303 -1.42923 0
M  V30 4266 C 409.572 0.716933 -1.88314 0
M  V30 4267 O 408.628 1.48712 -2.04062 0
M  V30 4268 C 409.941 -1.72072 -2.466 0
M  V30 4269 C 411.489 -1.73681 -2.60392 0
M  V30 4270 C 411.964 -2.73601 -3.67296 0
M  V30 4271 N 413.455 -2.7223 -3.7476 0
M  V30 4272 C 414.19 -3.46206 -4.57087 0
M  V30 4273 N 413.686 -4.29802 -5.43362 0
M  V30 4274 N 415.479 -3.34886 -4.51451 0
M  V30 4275 H 407.63 -1.92028 -0.9077 0
M  V30 4276 H 409.893 -0.828487 -0.460775 0
M  V30 4277 H 409.599 -2.74231 -2.20206 0
M  V30 4278 H 409.473 -1.51818 -3.45299 0
M  V30 4279 H 411.86 -0.722173 -2.86127 0
M  V30 4280 H 411.941 -1.98005 -1.61949 0
M  V30 4281 H 411.585 -3.75217 -3.42307 0
M  V30 4282 H 411.515 -2.46545 -4.65321 0
M  V30 4283 H 414.006 -2.11576 -3.1312 0
M  V30 4284 H 414.319 -4.83061 -6.03218 0
M  V30 4285 H 412.664 -4.33887 -5.42925 0
M  V30 4286 H 415.855 -2.69015 -3.83078 0
M  V30 4287 H 416.028 -3.92796 -5.15379 0
M  V30 4288 N 409.434 1.37368 -0.772513 0
M  V30 4289 C 410.683 1.98918 -0.333861 0
M  V30 4290 C 410.996 1.62017 1.09589 0
M  V30 4291 O 412.202 2.16676 1.63596 0
M  V30 4292 C 410.658 3.55735 -0.545971 0
M  V30 4293 C 410.266 4.01573 -1.98603 0
M  V30 4294 C 412.01 4.24156 -0.170979 0
M  V30 4295 C 409.917 5.51102 -2.1457 0
M  V30 4296 H 408.847 0.744214 -0.121085 0
M  V30 4297 H 411.498 1.56888 -0.95175 0
M  V30 4298 H 409.88 3.95748 0.141387 0
M  V30 4299 H 411.054 3.72803 -2.7084 0
M  V30 4300 H 409.369 3.45937 -2.31769 0
M  V30 4301 H 411.966 5.34024 -0.26878 0
M  V30 4302 H 412.309 4.06917 0.878855 0
M  V30 4303 H 412.842 3.89447 -0.810914 0
M  V30 4304 H 409.581 5.73268 -3.17875 0
M  V30 4305 H 409.101 5.81554 -1.46817 0
M  V30 4306 H 410.78 6.17083 -1.94468 0
M  V30 4307 N 410.912 0.523116 1.48665 0
M  V30 4308 C 412.328 0.180511 1.58576 0
M  V30 4309 C 412.528 -1.31597 1.52592 0
M  V30 4310 O 411.584 -2.0937 1.4114 0
M  V30 4311 C 412.897 0.776949 2.90489 0
M  V30 4312 C 414.445 0.745058 3.04003 0
M  V30 4313 C 414.92 1.31995 4.38567 0
M  V30 4314 N 416.411 1.28162 4.45117 0
M  V30 4315 C 417.146 1.6964 5.47731 0
M  V30 4316 N 416.642 2.18816 6.57337 0
M  V30 4317 N 418.435 1.6092 5.38573 0
M  V30 4318 H 410.586 1.4958 1.50797 0
M  V30 4319 H 412.849 0.621772 0.715614 0
M  V30 4320 H 412.555 1.82732 3.00503 0
M  V30 4321 H 412.429 0.25007 3.7637 0
M  V30 4322 H 414.816 -0.296532 2.93606 0
M  V30 4323 H 414.897 1.30933 2.1975 0
M  V30 4324 H 414.541 2.36043 4.49718 0
M  V30 4325 H 414.471 0.731418 5.21496 0
M  V30 4326 H 416.962 0.92155 3.66491 0
M  V30 4327 H 417.275 2.48478 7.31764 0
M  V30 4328 H 415.62 2.22805 6.58318 0
M  V30 4329 H 418.811 1.22304 4.5184 0
M  V30 4330 H 418.984 1.93567 6.18414 0
M  V30 4331 N 412.39 -1.55475 0.257931 0
M  V30 4332 C 413.338 -2.23244 -0.653076 0
M  V30 4333 C 414.332 -1.22366 -1.17144 0
M  V30 4334 O 415.538 -1.40347 -1.12706 0
M  V30 4335 H 411.913 -0.716247 -0.229117 0
M  V30 4336 H 413.884 -2.98343 -0.0584788 0
M  V30 4337 C 412.633 -2.95401 -1.83395 0
M  V30 4338 H 411.956 -3.72802 -1.44424 0
M  V30 4339 H 413.396 -3.46165 -2.44838 0
M  V30 4340 C 411.855 -1.99895 -2.71189 0
M  V30 4341 O 412.385 -1.53909 -3.71046 0
M  V30 4342 N 410.591 -1.6676 -2.3799 0
M  V30 4343 H 410.138 -2.04352 -1.56837 0
M  V30 4344 H 410.096 -1.03127 -2.97005 0
M  V30 4345 N 413.868 0.0150385 -1.57593 0
M  V30 4346 C 415.115 0.703001 -1.89906 0
M  V30 4347 C 415.443 1.74604 -0.856944 0
M  V30 4348 O 414.698 1.95197 0.140287 0
M  V30 4349 C 414.997 1.39686 -3.28972 0
M  V30 4350 C 414.663 0.488457 -4.48246 0
M  V30 4351 C 413.325 0.2383 -4.8061 0
M  V30 4352 C 415.677 -0.137881 -5.21018 0
M  V30 4353 C 413.005 -0.646738 -5.83125 0
M  V30 4354 C 415.357 -1.0107 -6.24474 0
M  V30 4355 C 414.021 -1.27019 -6.55303 0
M  V30 4356 H 413.291 0.257246 -0.694914 0
M  V30 4357 H 415.938 -0.037259 -1.91464 0
M  V30 4358 H 414.243 2.21079 -3.23468 0
M  V30 4359 H 415.94 1.93495 -3.51227 0
M  V30 4360 H 412.53 0.693593 -4.22951 0
M  V30 4361 H 416.714 0.0423953 -4.96282 0
M  V30 4362 H 411.97 -0.855937 -6.05379 0
M  V30 4363 H 416.144 -1.50247 -6.79999 0
M  V30 4364 H 413.771 -1.95769 -7.3456 0
M  V30 4365 N 415.346 1.54954 0.287554 0
M  V30 4366 C 416.574 1.78881 1.03967 0
M  V30 4367 C 416.989 0.554894 1.80462 0
M  V30 4368 O 416.346 -0.475676 1.76192 0
M  V30 4369 C 416.397 3.00488 2.0097 0
M  V30 4370 O 416.118 4.19113 1.27577 0
M  V30 4371 C 417.619 3.36907 2.88112 0
M  V30 4372 H 414.839 0.596259 0.307761 0
M  V30 4373 H 417.383 2.01937 0.322749 0
M  V30 4374 H 415.538 2.79601 2.68145 0
M  V30 4375 H 415.952 4.87765 1.92835 0
M  V30 4376 H 417.426 4.25205 3.52001 0
M  V30 4377 H 417.903 2.55659 3.57121 0
M  V30 4378 H 418.509 3.60001 2.26449 0
M  V30 4379 N 416.824 -0.551391 1.4764 0
M  V30 4380 C 418.052 -1.33357 1.58189 0
M  V30 4381 C 418.467 -1.87342 0.234199 0
M  V30 4382 O 417.824 -1.65301 -0.77343 0
M  V30 4383 C 417.875 -2.49942 2.61173 0
M  V30 4384 O 417.596 -1.98187 3.90709 0
M  V30 4385 C 419.097 -3.42072 2.8196 0
M  V30 4386 H 416.317 -0.40631 0.533998 0
M  V30 4387 H 418.861 -0.667367 1.93304 0
M  V30 4388 H 417.016 -3.12489 2.28975 0
M  V30 4389 H 417.43 -2.74342 4.47031 0
M  V30 4390 H 418.904 -4.20278 3.57869 0
M  V30 4391 H 419.381 -3.95978 1.89995 0
M  V30 4392 H 419.987 -2.85336 3.15378 0
M  V30 4393 N 418.302 -1.35869 -0.798587 0
M  V30 4394 C 419.235 -1.23801 -1.91699 0
M  V30 4395 C 420.213 -0.124143 -1.62125 0
M  V30 4396 O 421.397 -0.293656 -1.86199 0
M  V30 4397 C 418.524 -0.908063 -3.263 0
M  V30 4398 C 417.57 -2.0351 -3.74815 0
M  V30 4399 S 418.403 -3.65183 -3.91665 0
M  V30 4400 C 419.559 -3.34283 -5.29156 0
M  V30 4401 H 419.792 -2.18466 -2.01643 0
M  V30 4402 H 417.325 -1.21178 -0.956833 0
M  V30 4403 H 419.283 -0.724506 -4.04056 0
M  V30 4404 H 417.944 0.0206584 -3.14093 0
M  V30 4405 H 417.137 -1.75858 -4.72324 0
M  V30 4406 H 416.739 -2.1774 -3.04081 0
M  V30 4407 H 419.031 -2.87607 -6.13424 0
M  V30 4408 H 419.974 -4.31022 -5.61806 0
M  V30 4409 H 420.382 -2.69854 -4.95822 0
M  V30 4410 N 419.78 1.02168 -1.19998 0
M  V30 4411 C 420.727 2.10601 -0.944228 0
M  V30 4412 C 421.697 1.65639 0.123664 0
M  V30 4413 O 422.882 1.9079 -0.0199941 0
M  V30 4414 C 420.022 3.41504 -0.496865 0
M  V30 4415 C 419.135 3.99973 -1.63234 0
M  V30 4416 C 418.27 5.18915 -1.13579 0
M  V30 4417 C 417.309 5.69456 -2.24468 0
M  V30 4418 N 416.446 6.79665 -1.76068 0
M  V30 4419 H 421.286 2.31814 -1.8726 0
M  V30 4420 H 418.823 1.13686 -0.933483 0
M  V30 4421 H 420.781 4.16626 -0.218843 0
M  V30 4422 H 419.411 3.2038 0.394508 0
M  V30 4423 H 418.463 3.21997 -2.0254 0
M  V30 4424 H 419.775 4.33492 -2.46752 0
M  V30 4425 H 418.929 6.01222 -0.813429 0
M  V30 4426 H 417.668 4.8695 -0.270434 0
M  V30 4427 H 416.673 4.85757 -2.57526 0
M  V30 4428 H 417.898 6.03459 -3.11472 0
M  V30 4429 H 415.844 6.49538 -0.918516 0
M  V30 4430 H 415.761 7.12349 -2.5317 0
M  V30 4431 H 417.029 7.65549 -1.46817 0
M  V30 4432 N 421.258 1.00505 1.21394 0
M  V30 4433 C 422.504 0.688793 1.90745 0
M  V30 4434 C 422.837 -0.778486 1.77914 0
M  V30 4435 O 422.112 -1.56433 1.15581 0
M  V30 4436 C 422.395 1.11063 3.42545 0
M  V30 4437 C 422.248 2.63737 3.64367 0
M  V30 4438 C 423.567 0.673059 4.34923 0
M  V30 4439 H 420.686 0.251702 0.692687 0
M  V30 4440 H 423.328 1.25074 1.43026 0
M  V30 4441 H 421.478 0.632508 3.83317 0
M  V30 4442 H 423.15 3.19313 3.32922 0
M  V30 4443 H 421.393 3.05248 3.08231 0
M  V30 4444 H 422.064 2.88305 4.70727 0
M  V30 4445 H 424.54 1.08392 4.01734 0
M  V30 4446 H 423.416 0.996383 5.39781 0
M  V30 4447 H 423.677 -0.425808 4.40045 0
M  V30 4448 N 422.737 -1.36956 0.779787 0
M  V30 4449 C 423.687 -2.27539 0.144892 0
M  V30 4450 C 424.671 -1.46493 -0.665488 0
M  V30 4451 O 425.863 -1.68968 -0.527141 0
M  V30 4452 C 422.992 -3.35512 -0.727082 0
M  V30 4453 C 422.078 -4.24001 0.0915642 0
M  V30 4454 N 422.469 -4.92757 1.14125 0
M  V30 4455 C 420.767 -4.45807 -0.131141 0
M  V30 4456 C 421.468 -5.58138 1.6388 0
M  V30 4457 N 420.444 -5.35241 0.94962 0
M  V30 4458 H 424.246 -2.78176 0.948446 0
M  V30 4459 H 421.76 -1.50169 0.618315 0
M  V30 4460 H 423.757 -3.99324 -1.19776 0
M  V30 4461 H 422.417 -2.86431 -1.52929 0
M  V30 4462 H 423.428 -4.94984 1.52353 0
M  V30 4463 H 420.105 -4.07582 -0.904621 0
M  V30 4464 H 421.495 -6.23071 2.51461 0
M  V30 4465 N 424.215 -0.530993 -1.48385 0
M  V30 4466 C 425.455 0.000718982 -2.044 0
M  V30 4467 C 425.819 1.31485 -1.39913 0
M  V30 4468 O 427.02 1.93265 -1.86821 0
M  V30 4469 C 425.291 0.119177 -3.57201 0
M  V30 4470 S 426.85 0.600806 -4.34667 0
M  V30 4471 H 423.668 -0.0125473 -0.710889 0
M  V30 4472 H 426.27 -0.711783 -1.82082 0
M  V30 4473 H 424.974 -0.842061 -4.01668 0
M  V30 4474 H 424.505 0.856026 -3.83974 0
M  V30 4475 H 426.52 1.86514 -4.59812 0
M  V30 4476 N 425.693 1.55336 -0.266172 0
M  V30 4477 C 426.641 2.23587 0.641228 0
M  V30 4478 C 427.635 1.22986 1.16494 0
M  V30 4479 O 428.841 1.40943 1.1196 0
M  V30 4480 H 425.216 0.717452 0.225315 0
M  V30 4481 H 427.187 2.9837 0.0426561 0
M  V30 4482 C 425.936 2.96369 1.81826 0
M  V30 4483 H 425.259 3.73563 1.42445 0
M  V30 4484 H 426.699 3.47459 2.42998 0
M  V30 4485 C 425.158 2.0133 2.70125 0
M  V30 4486 O 425.688 1.55875 3.70224 0
M  V30 4487 N 423.894 1.6802 2.37102 0
M  V30 4488 H 423.441 2.05181 1.55751 0
M  V30 4489 H 423.399 1.047 2.96454 0
M  V30 4490 N 427.171 -0.0066808 1.57599 0
M  V30 4491 C 428.119 -1.01851 2.09115 0
M  V30 4492 C 429.113 -1.36021 1.00969 0
M  V30 4493 O 430.319 -1.34663 1.19439 0
M  V30 4494 H 426.694 -0.346083 0.667631 0
M  V30 4495 H 428.665 -0.558394 2.93129 0
M  V30 4496 C 427.414 -2.30374 2.60429 0
M  V30 4497 H 426.737 -2.04947 3.43273 0
M  V30 4498 H 428.177 -2.99466 3.00161 0
M  V30 4499 C 426.636 -3.00893 1.51542 0
M  V30 4500 O 427.166 -3.91614 0.894484 0
M  V30 4501 N 425.372 -2.62603 1.2445 0
M  V30 4502 H 424.919 -1.88911 1.75129 0
M  V30 4503 H 424.877 -3.10101 0.518137 0
M  V30 4504 N 428.649 -1.55105 -0.279332 0
M  V30 4505 C 429.582 -1.82467 -1.37044 0
M  V30 4506 C 430.56 -0.677261 -1.47824 0
M  V30 4507 O 431.744 -0.919578 -1.64548 0
M  V30 4508 C 428.871 -1.98066 -2.7475 0
M  V30 4509 C 427.917 -3.20594 -2.81286 0
M  V30 4510 S 428.75 -4.78116 -2.41175 0
M  V30 4511 C 429.906 -4.9668 -3.80867 0
M  V30 4512 H 430.139 -2.74728 -1.1363 0
M  V30 4513 H 427.672 -1.46794 -0.478625 0
M  V30 4514 H 429.63 -2.07739 -3.54055 0
M  V30 4515 H 428.291 -1.06704 -2.9542 0
M  V30 4516 H 427.484 -3.28376 -3.82341 0
M  V30 4517 H 427.086 -3.09479 -2.09996 0
M  V30 4518 H 429.378 -4.82033 -4.76078 0
M  V30 4519 H 430.321 -5.98741 -3.78041 0
M  V30 4520 H 430.729 -4.24698 -3.71876 0
M  V30 4521 N 430.127 0.543554 -1.4793 0
M  V30 4522 C 431.374 1.30008 -1.55255 0
M  V30 4523 C 431.702 1.93245 -0.220612 0
M  V30 4524 O 430.957 1.79141 0.787843 0
M  V30 4525 C 431.256 2.42078 -2.62932 0
M  V30 4526 C 430.922 1.96583 -4.0579 0
M  V30 4527 C 429.584 1.83893 -4.44676 0
M  V30 4528 C 431.936 1.62034 -4.95373 0
M  V30 4529 C 429.264 1.34969 -5.70964 0
M  V30 4530 C 431.616 1.14577 -6.22137 0
M  V30 4531 C 430.28 1.00493 -6.59892 0
M  V30 4532 H 429.55 0.475735 -0.568117 0
M  V30 4533 H 432.197 0.608075 -1.81589 0
M  V30 4534 H 430.502 3.16892 -2.30406 0
M  V30 4535 H 432.199 3.00236 -2.65818 0
M  V30 4536 H 428.789 2.07407 -3.75074 0
M  V30 4537 H 432.973 1.70705 -4.66019 0
M  V30 4538 H 428.229 1.2274 -5.98953 0
M  V30 4539 H 432.403 0.869109 -6.90955 0
M  V30 4540 H 430.03 0.623624 -7.57638 0
M  V30 4541 N 431.605 1.3629 0.791371 0
M  V30 4542 C 432.568 1.30309 1.88553 0
M  V30 4543 C 433.568 0.211204 1.59407 0
M  V30 4544 O 434.758 0.465865 1.67855 0
M  V30 4545 C 431.89 1.01956 3.25297 0
M  V30 4546 H 433.083 2.27614 1.95273 0
M  V30 4547 H 430.636 1.21035 0.988953 0
M  V30 4548 H 431.371 0.050998 3.2426 0
M  V30 4549 H 431.156 1.80968 3.4784 0
M  V30 4550 H 432.646 1.0037 4.05359 0
M  V30 4551 N 433.083 -1.0153 1.20538 0
M  V30 4552 C 434.03 -2.10098 0.955383 0
M  V30 4553 C 435 -1.65702 -0.114878 0
M  V30 4554 O 436.185 -1.90776 0.0301118 0
M  V30 4555 C 433.325 -3.41236 0.514969 0
M  V30 4556 C 432.438 -3.99102 1.65353 0
M  V30 4557 C 431.573 -5.18306 1.16329 0
M  V30 4558 C 430.612 -5.68258 2.27485 0
M  V30 4559 N 429.749 -6.78722 1.7967 0
M  V30 4560 H 434.589 -2.30818 1.88486 0
M  V30 4561 H 432.126 -1.13189 0.939499 0
M  V30 4562 H 434.084 -4.16504 0.240935 0
M  V30 4563 H 432.714 -3.20585 -0.377512 0
M  V30 4564 H 431.766 -3.20918 2.04245 0
M  V30 4565 H 433.078 -4.32177 2.49047 0
M  V30 4566 H 432.232 -6.00782 0.845302 0
M  V30 4567 H 430.971 -4.86799 0.296254 0
M  V30 4568 H 429.976 -4.84385 2.60099 0
M  V30 4569 H 431.201 -6.01798 3.14667 0
M  V30 4570 H 429.147 -6.49042 0.95295 0
M  V30 4571 H 429.064 -7.10996 2.56944 0
M  V30 4572 H 430.332 -7.64759 1.50875 0
M  V30 4573 N 434.561 -1.01147 -1.20859 0
M  V30 4574 C 435.809 -0.696486 -1.89719 0
M  V30 4575 C 436.13 0.775788 -1.78904 0
M  V30 4576 O 435.4 1.55759 -1.18811 0
M  V30 4577 H 433.98 -0.254628 -0.702263 0
M  V30 4578 H 436.642 -1.28197 -1.46804 0
M  V30 4579 H 435.738 -0.975357 -2.96468 0
M  V30 4580 N 436.039 1.36541 -0.78704 0
M  V30 4581 C 437.285 1.99599 -0.358872 0
M  V30 4582 C 437.618 1.62323 1.06606 0
M  V30 4583 O 436.893 0.876858 1.73613 0
M  V30 4584 C 437.176 3.56327 -0.519944 0
M  V30 4585 C 437.029 4.03464 -1.98839 0
M  V30 4586 C 438.348 4.4005 0.0664737 0
M  V30 4587 H 435.467 0.725107 -0.131869 0
M  V30 4588 H 438.109 1.6199 -0.992936 0
M  V30 4589 H 436.259 3.88495 0.0198321 0
M  V30 4590 H 437.931 3.81793 -2.58905 0
M  V30 4591 H 436.174 3.55092 -2.49183 0
M  V30 4592 H 436.845 5.12439 -2.05207 0
M  V30 4593 H 439.321 4.14228 -0.394267 0
M  V30 4594 H 438.197 5.48847 -0.0762682 0
M  V30 4595 H 438.458 4.26655 1.15835 0
M  V30 4596 N 437.518 0.538854 1.48102 0
M  V30 4597 C 438.465 -0.219042 2.29758 0
M  V30 4598 C 439.435 -0.925562 1.37922 0
M  V30 4599 O 440.62 -0.924855 1.66886 0
M  V30 4600 C 437.76 -1.25452 3.2149 0
M  V30 4601 C 436.873 -0.555943 4.28408 0
M  V30 4602 C 436.008 -1.57512 5.0731 0
M  V30 4603 C 435.047 -0.860498 6.06021 0
M  V30 4604 N 434.184 -1.82564 6.77949 0
M  V30 4605 H 439.024 0.483449 2.94052 0
M  V30 4606 H 436.561 0.250247 1.44956 0
M  V30 4607 H 438.519 -1.86727 3.7308 0
M  V30 4608 H 437.149 -1.92528 2.591 0
M  V30 4609 H 436.201 0.170938 3.80016 0
M  V30 4610 H 437.513 0.00474616 4.988 0
M  V30 4611 H 436.667 -2.26191 5.62959 0
M  V30 4612 H 435.406 -2.16972 4.36778 0
M  V30 4613 H 434.411 -0.159686 5.49568 0
M  V30 4614 H 435.636 -0.271897 6.78555 0
M  V30 4615 H 433.582 -2.40915 6.10161 0
M  V30 4616 H 433.499 -1.31662 7.44447 0
M  V30 4617 H 434.767 -2.50414 7.38182 0
M  V30 4618 N 438.996 -1.55193 0.274407 0
M  V30 4619 C 440.245 -1.98758 -0.343213 0
M  V30 4620 C 440.558 -1.16624 -1.5703 0
M  V30 4621 O 441.764 -1.5033 -2.26082 0
M  V30 4622 C 440.22 -3.53759 -0.661996 0
M  V30 4623 C 439.828 -4.4467 0.54524 0
M  V30 4624 C 441.572 -4.05916 -1.24228 0
M  V30 4625 C 439.479 -5.91058 0.201084 0
M  V30 4626 H 438.409 -0.742353 -0.132014 0
M  V30 4627 H 441.06 -1.79545 0.378948 0
M  V30 4628 H 439.442 -3.68772 -1.44304 0
M  V30 4629 H 440.616 -4.41426 1.32212 0
M  V30 4630 H 438.931 -4.03143 1.04232 0
M  V30 4631 H 441.528 -5.12831 -1.51357 0
M  V30 4632 H 441.871 -3.54908 -2.17592 0
M  V30 4633 H 442.404 -3.9434 -0.523542 0
M  V30 4634 H 439.143 -6.46161 1.10258 0
M  V30 4635 H 438.663 -5.97373 -0.539045 0
M  V30 4636 H 440.342 -6.46669 -0.206954 0
M  V30 4637 N 440.474 -0.00167713 -1.576 0
M  V30 4638 C 441.721 0.68282 -1.90641 0
M  V30 4639 C 442.049 1.73686 -0.875415 0
M  V30 4640 O 441.304 1.95334 0.119575 0
M  V30 4641 C 441.603 1.36189 -3.30435 0
M  V30 4642 C 441.269 0.440887 -4.48739 0
M  V30 4643 C 439.931 0.187312 -4.80835 0
M  V30 4644 C 442.283 -0.193134 -5.20842 0
M  V30 4645 C 439.611 -0.70855 -5.82406 0
M  V30 4646 C 441.963 -1.07688 -6.23367 0
M  V30 4647 C 440.627 -1.33962 -6.53919 0
M  V30 4648 H 439.897 0.249862 -0.697603 0
M  V30 4649 H 442.544 -0.0575642 -1.91413 0
M  V30 4650 H 440.849 2.17636 -3.25794 0
M  V30 4651 H 442.546 1.89759 -3.5326 0
M  V30 4652 H 439.136 0.648694 -4.23663 0
M  V30 4653 H 443.32 -0.0102445 -4.96299 0
M  V30 4654 H 438.576 -0.920097 -6.04437 0
M  V30 4655 H 442.75 -1.57451 -6.78367 0
M  V30 4656 H 440.377 -2.03549 -7.32442 0
M  V30 4657 N 441.952 1.55251 0.271103 0
M  V30 4658 C 442.899 1.88261 1.33516 0
M  V30 4659 C 443.869 0.734296 1.48988 0
M  V30 4660 O 445.054 0.985741 1.63364 0
M  V30 4661 C 442.194 2.16168 2.69008 0
M  V30 4662 C 441.307 3.43678 2.61743 0
M  V30 4663 C 440.442 3.61276 3.89427 0
M  V30 4664 C 439.481 4.82472 3.7668 0
M  V30 4665 N 438.618 4.96717 4.96202 0
M  V30 4666 H 443.458 2.79015 1.04665 0
M  V30 4667 H 440.995 1.38137 0.505618 0
M  V30 4668 H 442.953 2.30349 3.47844 0
M  V30 4669 H 441.583 1.28646 2.96057 0
M  V30 4670 H 440.635 3.37959 1.74607 0
M  V30 4671 H 441.947 4.3265 2.48224 0
M  V30 4672 H 441.101 3.75284 4.76704 0
M  V30 4673 H 439.84 2.70492 4.05814 0
M  V30 4674 H 438.845 4.68465 2.87786 0
M  V30 4675 H 440.07 5.74692 3.61809 0
M  V30 4676 H 438.016 4.08865 5.12997 0
M  V30 4677 H 437.933 5.79738 4.85222 0
M  V30 4678 H 439.201 5.15113 5.85046 0
M  V30 4679 N 443.43 -0.535701 1.48216 0
M  V30 4680 C 444.34 -1.66785 1.64985 0
M  V30 4681 C 445.356 -1.65654 0.532414 0
M  V30 4682 O 446.532 -1.8471 0.80275 0
M  V30 4683 C 443.597 -3.0326 1.68031 0
M  V30 4684 C 442.658 -3.1529 2.9136 0
M  V30 4685 C 441.891 -4.45255 2.94252 0
M  V30 4686 O 442.114 -5.32011 2.05719 0
M  V30 4687 O 441.048 -4.6153 3.86359 0
M  V30 4688 H 444.874 -1.55576 2.60825 0
M  V30 4689 H 442.459 -0.70815 1.31551 0
M  V30 4690 H 444.341 -3.84436 1.72589 0
M  V30 4691 H 443.016 -3.14805 0.753628 0
M  V30 4692 H 441.923 -2.3343 2.92337 0
M  V30 4693 H 443.256 -3.08658 3.83394 0
M  V30 4694 N 444.908 -1.36708 -0.784132 0
M  V30 4695 C 446.154 -1.31426 -1.54451 0
M  V30 4696 C 446.487 0.10476 -1.93917 0
M  V30 4697 O 445.762 1.05934 -1.6312 0
M  V30 4698 C 446.045 -2.24189 -2.818 0
M  V30 4699 C 445.898 -3.74813 -2.48667 0
M  V30 4700 C 447.217 -2.15626 -3.83658 0
M  V30 4701 H 444.336 -0.478739 -0.560337 0
M  V30 4702 H 446.978 -1.67305 -0.900498 0
M  V30 4703 H 445.128 -1.93722 -3.36755 0
M  V30 4704 H 446.8 -4.15823 -1.99722 0
M  V30 4705 H 445.043 -3.93989 -1.81535 0
M  V30 4706 H 445.714 -4.35138 -3.39646 0
M  V30 4707 H 448.19 -2.42456 -3.38163 0
M  V30 4708 H 447.066 -2.82694 -4.70506 0
M  V30 4709 H 447.327 -1.14522 -4.27009 0
M  V30 4710 N 446.386 1.0089 -1.21074 0
M  V30 4711 C 447.318 2.09737 -0.924291 0
M  V30 4712 C 448.331 1.62546 0.0909809 0
M  V30 4713 O 449.52 1.77942 -0.141021 0
M  V30 4714 C 446.62 3.36922 -0.36559 0
M  V30 4715 C 445.793 4.13216 -1.43426 0
M  V30 4716 C 444.852 5.18696 -0.885496 0
M  V30 4717 O 443.878 5.47176 -1.56801 0
M  V30 4718 N 445.08 5.79718 0.301227 0
M  V30 4719 H 447.845 2.34895 -1.8613 0
M  V30 4720 H 445.406 1.17341 -1.11546 0
M  V30 4721 H 447.398 4.04697 0.0158407 0
M  V30 4722 H 445.968 3.08952 0.476149 0
M  V30 4723 H 445.188 3.40301 -1.9897 0
M  V30 4724 H 446.476 4.60967 -2.15376 0
M  V30 4725 H 445.874 5.58926 0.872849 0
M  V30 4726 H 444.431 6.48804 0.624211 0
M  V30 4727 N 447.864 1.01787 1.20321 0
M  V30 4728 C 449.104 0.716493 1.91431 0
M  V30 4729 C 449.468 -0.740352 1.77152 0
M  V30 4730 O 450.669 -1.1543 2.42754 0
M  V30 4731 C 448.94 1.14169 3.38674 0
M  V30 4732 S 450.499 0.962482 4.28114 0
M  V30 4733 H 447.317 0.261175 0.661293 0
M  V30 4734 H 449.919 1.30539 1.45533 0
M  V30 4735 H 448.623 2.19784 3.46588 0
M  V30 4736 H 448.154 0.545621 3.89598 0
M  V30 4737 H 450.169 -0.133253 4.96021 0
M  V30 4738 N 449.342 -1.36122 0.79427 0
M  V30 4739 C 450.572 -2.03067 0.380437 0
M  V30 4740 C 450.98 -1.60018 -1.00949 0
M  V30 4741 O 450.323 -0.787425 -1.65968 0
M  V30 4742 C 450.385 -3.57587 0.37034 0
M  V30 4743 C 450.049 -4.23855 1.70867 0
M  V30 4744 C 451.046 -4.46404 2.66496 0
M  V30 4745 C 448.731 -4.61229 1.9893 0
M  V30 4746 C 450.725 -5.05412 3.88378 0
M  V30 4747 C 448.412 -5.19953 3.21079 0
M  V30 4748 C 449.41 -5.41985 4.15621 0
M  V30 4749 O 449.098 -5.99475 5.35616 0
M  V30 4750 H 448.83 -0.658168 0.154243 0
M  V30 4751 H 451.384 -1.7498 1.0757 0
M  V30 4752 H 449.614 -3.84814 -0.381444 0
M  V30 4753 H 451.303 -4.05895 -0.0194894 0
M  V30 4754 H 452.069 -4.17921 2.46103 0
M  V30 4755 H 447.948 -4.43402 1.26158 0
M  V30 4756 H 451.492 -5.22524 4.62185 0
M  V30 4757 H 447.389 -5.47862 3.41347 0
M  V30 4758 H 448.157 -6.17937 5.36745 0
M  V30 4759 N 450.82 -0.546701 -1.47814 0
M  V30 4760 C 452.067 -0.0187407 -2.02491 0
M  V30 4761 C 452.395 1.32685 -1.42215 0
M  V30 4762 O 451.65 1.87413 -0.563454 0
M  V30 4763 C 451.949 0.134869 -3.57145 0
M  V30 4764 C 451.615 -1.13849 -4.3629 0
M  V30 4765 C 450.277 -1.48743 -4.57634 0
M  V30 4766 C 452.629 -1.98277 -4.82012 0
M  V30 4767 C 449.957 -2.67932 -5.21948 0
M  V30 4768 C 452.309 -3.16659 -5.4764 0
M  V30 4769 C 450.973 -3.51879 -5.67219 0
M  V30 4770 H 450.243 -0.0068577 -0.740968 0
M  V30 4771 H 452.89 -0.716097 -1.77607 0
M  V30 4772 H 451.195 0.915118 -3.80963 0
M  V30 4773 H 452.892 0.558556 -3.97091 0
M  V30 4774 H 449.482 -0.856767 -4.19949 0
M  V30 4775 H 453.666 -1.72628 -4.6531 0
M  V30 4776 H 448.922 -2.95401 -5.35302 0
M  V30 4777 H 453.096 -3.82374 -5.82033 0
M  V30 4778 H 450.723 -4.44331 -6.16825 0
M  V30 4779 N 452.299 1.55045 -0.282633 0
M  V30 4780 C 453.715 1.59441 0.0712997 0
M  V30 4781 C 453.915 1.2998 1.53972 0
M  V30 4782 O 452.971 1.06431 2.28973 0
M  V30 4783 C 454.284 2.99097 -0.310104 0
M  V30 4784 C 455.832 3.1194 -0.257343 0
M  V30 4785 C 456.307 4.53875 -0.613297 0
M  V30 4786 N 457.798 4.5974 -0.565134 0
M  V30 4787 C 458.533 5.67603 -0.81326 0
M  V30 4788 N 458.029 6.83582 -1.1264 0
M  V30 4789 N 459.822 5.57187 -0.741553 0
M  V30 4790 H 451.973 1.72458 -1.23984 0
M  V30 4791 H 454.236 0.804549 -0.501403 0
M  V30 4792 H 453.942 3.25516 -1.33163 0
M  V30 4793 H 453.816 3.75616 0.345366 0
M  V30 4794 H 456.203 2.85281 0.754905 0
M  V30 4795 H 456.284 2.37618 -0.947178 0
M  V30 4796 H 455.928 4.81261 -1.62327 0
M  V30 4797 H 455.858 5.26508 0.09841 0
M  V30 4798 H 458.349 3.76427 -0.333294 0
M  V30 4799 H 458.662 7.6175 -1.30219 0
M  V30 4800 H 457.007 6.85179 -1.16425 0
M  V30 4801 H 460.198 4.65457 -0.496705 0
M  V30 4802 H 460.371 6.41171 -0.938306 0
M  V30 4803 N 453.777 0.010035 1.57597 0
M  V30 4804 C 455.002 -0.687021 1.95691 0
M  V30 4805 C 455.427 -1.65952 0.885519 0
M  V30 4806 O 454.785 -1.80633 -0.15543 0
M  V30 4807 C 454.833 -1.3864 3.32884 0
M  V30 4808 O 453.937 -2.50115 3.27897 0
M  V30 4809 H 453.278 -0.181989 0.638573 0
M  V30 4810 H 455.808 0.0662122 2.04493 0
M  V30 4811 H 455.818 -1.74754 3.6868 0
M  V30 4812 H 454.493 -0.673411 4.10412 0
M  V30 4813 H 453.07 -2.16253 3.03791 0
M  V30 4814 N 455.255 -1.55392 -0.262866 0
M  V30 4815 C 456.165 -1.92077 -1.34698 0
M  V30 4816 C 457.181 -0.819227 -1.53508 0
M  V30 4817 O 458.357 -1.11921 -1.67439 0
M  V30 4818 C 455.422 -2.19407 -2.68443 0
M  V30 4819 C 454.483 -3.42905 -2.58292 0
M  V30 4820 C 453.716 -3.68921 -3.85659 0
M  V30 4821 O 453.939 -2.97275 -4.8681 0
M  V30 4822 O 452.873 -4.62455 -3.85252 0
M  V30 4823 H 456.699 -2.84384 -1.06581 0
M  V30 4824 H 454.284 -1.42069 -0.462264 0
M  V30 4825 H 456.166 -2.38365 -3.47506 0
M  V30 4826 H 454.841 -1.30282 -2.96325 0
M  V30 4827 H 453.748 -3.29272 -1.7757 0
M  V30 4828 H 455.081 -4.32282 -2.35358 0
M  V30 4829 N 456.733 0.527833 -1.48498 0
M  V30 4830 C 457.696 1.61439 -1.62696 0
M  V30 4831 C 458.696 1.52824 -0.500136 0
M  V30 4832 O 459.886 1.56456 -0.765976 0
M  V30 4833 C 457.018 3.01063 -1.59918 0
M  V30 4834 H 458.211 1.50189 -2.59583 0
M  V30 4835 H 455.764 0.750055 -1.37127 0
M  V30 4836 H 456.499 3.17818 -0.645163 0
M  V30 4837 H 456.284 3.08725 -2.41726 0
M  V30 4838 H 457.774 3.80057 -1.73051 0
M  V30 4839 N 458.211 1.37122 0.776871 0
M  V30 4840 C 459.436 1.354 1.57104 0
M  V30 4841 C 459.861 -0.0595562 1.88006 0
M  V30 4842 O 459.219 -1.03514 1.48844 0
M  V30 4843 C 459.267 2.19472 2.8612 0
M  V30 4844 O 458.371 1.59582 3.80273 0
M  V30 4845 H 457.712 0.462869 0.476076 0
M  V30 4846 H 460.242 1.80577 0.961932 0
M  V30 4847 H 460.252 2.32502 3.35271 0
M  V30 4848 H 458.927 3.22222 2.62956 0
M  V30 4849 H 457.504 1.55564 3.38902 0
M  V30 4850 N 459.689 -1.00246 1.21608 0
M  V30 4851 C 460.599 -2.12515 0.993709 0
M  V30 4852 C 461.615 -1.73913 -0.0549939 0
M  V30 4853 O 462.791 -2.00943 0.135619 0
M  V30 4854 C 459.856 -3.42083 0.563953 0
M  V30 4855 C 458.917 -3.94843 1.68516 0
M  V30 4856 C 458.15 -5.18226 1.27582 0
M  V30 4857 O 458.373 -5.70201 0.150506 0
M  V30 4858 O 457.307 -5.64497 2.0887 0
M  V30 4859 H 461.133 -2.34152 1.93407 0
M  V30 4860 H 458.718 -1.10891 1.00118 0
M  V30 4861 H 460.6 -4.20073 0.334194 0
M  V30 4862 H 459.275 -3.21828 -0.347665 0
M  V30 4863 H 458.182 -3.18068 1.96935 0
M  V30 4864 H 459.515 -4.19512 2.5743 0
M  V30 4865 N 461.167 -1.02423 -1.1978 0
M  V30 4866 C 462.413 -0.72878 -1.89896 0
M  V30 4867 C 462.768 0.734248 -1.77839 0
M  V30 4868 O 462.061 1.52733 -1.15685 0
M  V30 4869 C 462.255 -1.1088 -3.39765 0
M  V30 4870 C 462.084 -2.60722 -3.66407 0
M  V30 4871 C 460.854 -3.27623 -3.84696 0
M  V30 4872 C 463.052 -3.58924 -3.68345 0
M  V30 4873 N 461.034 -4.66617 -3.98926 0
M  V30 4874 C 462.405 -4.83514 -3.8809 0
M  V30 4875 C 464.46 -3.52788 -3.51347 0
M  V30 4876 C 463.163 -6.0271 -3.92598 0
M  V30 4877 C 465.189 -4.71394 -3.5713 0
M  V30 4878 C 464.551 -5.94796 -3.77356 0
M  V30 4879 H 460.65 -0.318473 -0.714212 0
M  V30 4880 H 463.234 -1.3106 -1.43984 0
M  V30 4881 H 461.405 -0.555233 -3.84411 0
M  V30 4882 H 463.137 -0.766082 -3.97383 0
M  V30 4883 H 459.892 -2.7804 -3.83393 0
M  V30 4884 H 460.316 -5.38805 -4.099 0
M  V30 4885 H 464.958 -2.58372 -3.3467 0
M  V30 4886 H 462.676 -6.97499 -4.08069 0
M  V30 4887 H 466.262 -4.6827 -3.45275 0
M  V30 4888 H 465.142 -6.85037 -3.81699 0
M  V30 4889 N 462.645 1.35699 -0.801477 0
M  V30 4890 C 463.555 2.33661 -0.209691 0
M  V30 4891 C 464.571 1.6162 0.644591 0
M  V30 4892 O 465.747 1.93529 0.557545 0
M  V30 4893 C 462.812 3.40816 0.636033 0
M  V30 4894 C 461.873 4.28639 -0.238147 0
M  V30 4895 C 461.106 5.30676 0.567307 0
M  V30 4896 O 461.329 5.41174 1.8024 0
M  V30 4897 O 460.263 6.01887 -0.0391336 0
M  V30 4898 H 464.089 2.8606 -1.01996 0
M  V30 4899 H 461.674 1.38379 -0.563164 0
M  V30 4900 H 463.556 4.06301 1.11791 0
M  V30 4901 H 462.231 2.90696 1.42399 0
M  V30 4902 H 461.138 3.66152 -0.767044 0
M  V30 4903 H 462.471 4.82143 -0.989915 0
M  V30 4904 N 464.123 0.554532 1.47522 0
M  V30 4905 C 465.534 0.120446 1.86311 0
M  V30 4906 C 465.885 -1.30904 1.46145 0
M  V30 4907 O 465.01 -1.98434 0.863294 0
M  V30 4908 C 465.605 0.211808 3.38137 0
M  V30 4909 C 464.164 -0.167224 3.76028 0
M  V30 4910 C 463.311 0.560576 2.71575 0
M  V30 4911 H 466.262 0.764408 1.39077 0
M  V30 4912 H 466.283 -0.570275 3.76202 0
M  V30 4913 H 465.795 1.25232 3.6734 0
M  V30 4914 H 463.896 -1.20894 3.52442 0
M  V30 4915 H 464.009 0.189473 4.78725 0
M  V30 4916 H 462.373 0.00396836 2.547 0
M  V30 4917 H 463.156 1.60219 3.0362 0
M  V30 4918 N 465.601 -1.54893 0.290851 0
M  V30 4919 C 466.549 -2.24579 -0.605576 0
M  V30 4920 C 467.543 -1.24824 -1.14522 0
M  V30 4921 O 468.749 -1.42706 -1.09704 0
M  V30 4922 H 465.124 -0.720946 -0.213872 0
M  V30 4923 H 467.095 -2.984 0.0048173 0
M  V30 4924 C 465.844 -2.99224 -1.77088 0
M  V30 4925 H 465.167 -3.75782 -1.36484 0
M  V30 4926 H 466.607 -3.51281 -2.3744 0
M  V30 4927 C 465.066 -2.05602 -2.66888 0
M  V30 4928 O 465.596 -1.61745 -3.67698 0
M  V30 4929 N 463.802 -1.71771 -2.34399 0
M  V30 4930 H 463.349 -2.07633 -1.52468 0
M  V30 4931 H 463.307 -1.09403 -2.94751 0
M  V30 4932 N 467.08 -0.0183926 -1.57589 0
M  V30 4933 C 468.043 0.951986 -2.08494 0
M  V30 4934 C 469.043 1.26092 -0.997874 0
M  V30 4935 O 470.233 1.20304 -1.25987 0
M  V30 4936 C 467.365 2.27165 -2.54182 0
M  V30 4937 H 468.558 0.511307 -2.95509 0
M  V30 4938 H 466.111 0.229444 -1.54607 0
M  V30 4939 H 466.846 2.75884 -1.70465 0
M  V30 4940 H 466.631 2.06057 -3.33591 0
M  V30 4941 H 468.121 2.9674 -2.93828 0
M  V30 4942 N 468.558 1.5553 0.254621 0
M  V30 4943 C 469.807 1.76202 0.981612 0
M  V30 4944 C 470.12 0.580883 1.86776 0
M  V30 4945 O 471.326 0.670448 2.63092 0
M  V30 4946 C 469.782 3.11921 1.79537 0
M  V30 4947 C 469.39 4.37659 0.956991 0
M  V30 4948 C 471.134 3.41936 2.51555 0
M  V30 4949 C 469.041 5.64411 1.76619 0
M  V30 4950 H 467.971 0.656841 0.370237 0
M  V30 4951 H 470.622 1.81969 0.236556 0
M  V30 4952 H 469.004 3.00241 2.58208 0
M  V30 4953 H 470.178 4.60307 0.21315 0
M  V30 4954 H 468.493 4.14922 0.350497 0
M  V30 4955 H 471.09 4.33849 3.12536 0
M  V30 4956 H 471.433 2.62905 3.22779 0
M  V30 4957 H 471.966 3.54797 1.799 0
M  V30 4958 H 468.705 6.46241 1.09783 0
M  V30 4959 H 468.225 5.45877 2.48551 0
M  V30 4960 H 469.904 6.03386 2.33527 0
M  V30 4961 N 470.036 -0.519951 1.48776 0
M  V30 4962 C 471.261 -1.30447 1.6124 0
M  V30 4963 C 471.686 -1.86055 0.276591 0
M  V30 4964 O 471.044 -1.64915 -0.753183 0
M  V30 4965 C 471.092 -2.42406 2.66967 0
M  V30 4966 O 470.196 -3.45728 2.24824 0
M  V30 4967 H 469.537 -0.385924 0.540332 0
M  V30 4968 H 472.067 -0.624572 1.94834 0
M  V30 4969 H 472.077 -2.88447 2.88552 0
M  V30 4970 H 470.752 -2.01294 3.63941 0
M  V30 4971 H 469.329 -3.05737 2.13494 0
M  V30 4972 N 471.514 -1.37532 -0.769588 0
M  V30 4973 C 472.761 -1.3286 -1.52822 0
M  V30 4974 C 473.089 0.0862597 -1.94309 0
M  V30 4975 O 472.344 1.05995 -1.6451 0
M  V30 4976 C 472.643 -2.21558 -2.8044 0
M  V30 4977 C 472.309 -3.69796 -2.57996 0
M  V30 4978 C 470.971 -4.10194 -2.51583 0
M  V30 4979 C 473.323 -4.63699 -2.37976 0
M  V30 4980 C 470.651 -5.42608 -2.23144 0
M  V30 4981 C 473.003 -5.96353 -2.1106 0
M  V30 4982 C 471.667 -6.35853 -2.03093 0
M  V30 4983 H 470.937 -0.486168 -0.559215 0
M  V30 4984 H 473.584 -1.69757 -0.886277 0
M  V30 4985 H 471.889 -1.77663 -3.49204 0
M  V30 4986 H 473.586 -2.15256 -3.38328 0
M  V30 4987 H 470.176 -3.37759 -2.63851 0
M  V30 4988 H 474.36 -4.33346 -2.41919 0
M  V30 4989 H 469.616 -5.72173 -2.15472 0
M  V30 4990 H 473.79 -6.68667 -1.94568 0
M  V30 4991 H 471.417 -7.38382 -1.8082 0
M  V30 4992 N 472.992 0.995999 -1.22138 0
M  V30 4993 C 474.403 1.54961 -1.04135 0
M  V30 4994 C 474.754 1.92159 0.396147 0
M  V30 4995 O 473.879 1.74435 1.28069 0
M  V30 4996 C 474.474 2.81581 -1.88408 0
M  V30 4997 C 473.033 3.33396 -1.74712 0
M  V30 4998 C 472.18 2.06509 -1.85066 0
M  V30 4999 H 475.131 0.817436 -1.36028 0
M  V30 5000 H 475.152 3.53822 -1.39966 0
M  V30 5001 H 474.664 2.54476 -2.93025 0
M  V30 5002 H 472.765 3.65416 -0.728159 0
M  V30 5003 H 472.878 4.04208 -2.57202 0
M  V30 5004 H 471.242 2.19925 -1.28472 0
M  V30 5005 H 472.025 1.81804 -2.91208 0
M  V30 5006 N 474.47 1.03057 1.19235 0
M  V30 5007 C 475.4 0.633497 2.24742 0
M  V30 5008 C 476.381 -0.358335 1.66283 0
M  V30 5009 O 477.566 -0.240676 1.92703 0
M  V30 5010 C 474.696 -0.0147648 3.47297 0
M  V30 5011 C 473.65 0.899527 4.18441 0
M  V30 5012 C 472.976 0.116281 5.34574 0
M  V30 5013 C 474.276 2.21404 4.73051 0
M  V30 5014 H 475.97 1.5155 2.58211 0
M  V30 5015 H 473.516 0.73014 1.24117 0
M  V30 5016 H 475.469 -0.304202 4.20301 0
M  V30 5017 H 474.193 -0.931577 3.13032 0
M  V30 5018 H 472.852 1.17319 3.47321 0
M  V30 5019 H 472.5 -0.802619 4.96555 0
M  V30 5020 H 472.2 0.725293 5.83107 0
M  V30 5021 H 473.724 -0.166376 6.10373 0
M  V30 5022 H 475.138 1.98601 5.37802 0
M  V30 5023 H 473.535 2.77512 5.32078 0
M  V30 5024 H 474.605 2.86752 3.91026 0
M  V30 5025 N 475.948 -1.35272 0.808662 0
M  V30 5026 C 477.194 -1.99003 0.390581 0
M  V30 5027 C 477.527 -1.63999 -1.0401 0
M  V30 5028 O 476.802 -0.904368 -1.72196 0
M  V30 5029 C 477.085 -3.55454 0.576566 0
M  V30 5030 C 476.938 -4.00249 2.05233 0
M  V30 5031 C 478.257 -4.401 0.00354277 0
M  V30 5032 H 475.376 -0.722917 0.143388 0
M  V30 5033 H 478.018 -1.6039 1.01858 0
M  V30 5034 H 476.168 -3.88477 0.0419766 0
M  V30 5035 H 477.84 -3.77626 2.64946 0
M  V30 5036 H 476.083 -3.51082 2.54801 0
M  V30 5037 H 476.754 -5.0911 2.13333 0
M  V30 5038 H 479.23 -4.13548 0.460117 0
M  V30 5039 H 478.106 -5.48656 0.163575 0
M  V30 5040 H 478.367 -4.28444 -1.09032 0
M  V30 5041 N 477.426 -0.562348 -1.47226 0
M  V30 5042 C 478.356 0.170627 -2.32876 0
M  V30 5043 C 479.337 0.903748 -1.44106 0
M  V30 5044 O 480.522 0.883206 -1.72954 0
M  V30 5045 C 477.652 1.19786 -3.25989 0
M  V30 5046 C 476.606 0.580875 -4.2404 0
M  V30 5047 C 475.932 1.71311 -5.06514 0
M  V30 5048 C 477.232 -0.468714 -5.20193 0
M  V30 5049 H 478.926 -0.544441 -2.94408 0
M  V30 5050 H 476.472 -0.263271 -1.41573 0
M  V30 5051 H 478.425 1.71884 -3.84752 0
M  V30 5052 H 477.149 1.94294 -2.62521 0
M  V30 5053 H 475.808 0.0811538 -3.6651 0
M  V30 5054 H 475.456 2.44736 -4.39447 0
M  V30 5055 H 475.156 1.30604 -5.72902 0
M  V30 5056 H 476.68 2.23725 -5.68137 0
M  V30 5057 H 478.094 -0.0336028 -5.7329 0
M  V30 5058 H 476.491 -0.794957 -5.94811 0
M  V30 5059 H 477.561 -1.36269 -4.65359 0
M  V30 5060 N 478.904 1.54736 -0.299062 0
M  V30 5061 C 480.181 1.92187 0.363802 0
M  V30 5062 C 480.561 1.22607 1.71845 0
M  V30 5063 O 479.909 0.361141 2.25628 0
M  V30 5064 C 480.119 3.45678 0.480377 0
M  V30 5065 C 481.467 4.17885 0.752147 0
M  V30 5066 O 482.491 3.51702 0.564264 0
M  V30 5067 O 481.35 5.35048 1.11294 0
M  V30 5068 H 478.444 0.801681 0.203066 0
M  V30 5069 H 480.99 1.66115 -0.346978 0
M  V30 5070 H 479.762 3.88443 -0.471999 0
M  V30 5071 H 479.385 3.77779 1.2397 0
M  V30 5072 N 480.382 0.0267497 1.57577 0
M  V30 5073 C 481.659 -0.690926 1.82991 0
M  V30 5074 C 482.039 -1.90471 0.910164 0
M  V30 5075 O 481.387 -2.28474 -0.0347985 0
M  V30 5076 C 481.597 -1.07139 3.32148 0
M  V30 5077 C 482.945 -1.46402 3.98562 0
M  V30 5078 O 483.969 -1.16443 3.36629 0
M  V30 5079 O 482.828 -2.02214 5.07712 0
M  V30 5080 H 479.922 -0.338747 0.75444 0
M  V30 5081 H 482.468 0.0542506 1.69613 0
M  V30 5082 H 481.24 -0.207394 3.9075 0
M  V30 5083 H 480.863 -1.87481 3.50623 0
M  V30 5084 N 481.861 -1.55662 -0.24637 0
M  V30 5085 C 483.107 -1.77782 -0.975779 0
M  V30 5086 C 483.44 -0.592103 -1.84953 0
M  V30 5087 O 482.715 0.409588 -1.90138 0
M  V30 5088 C 482.998 -3.09788 -1.83584 0
M  V30 5089 C 482.851 -4.38764 -0.990241 0
M  V30 5090 C 484.17 -3.38029 -2.81823 0
M  V30 5091 H 481.289 -0.646789 -0.353317 0
M  V30 5092 H 483.931 -1.88398 -0.246248 0
M  V30 5093 H 482.081 -3.00869 -2.45784 0
M  V30 5094 H 483.753 -4.59675 -0.386897 0
M  V30 5095 H 481.996 -4.32798 -0.294626 0
M  V30 5096 H 482.667 -5.27514 -1.62584 0
M  V30 5097 H 485.143 -3.46915 -2.2976 0
M  V30 5098 H 484.019 -4.3161 -3.39122 0
M  V30 5099 H 484.28 -2.58968 -3.58313 0
M  V30 5100 N 483.339 0.512053 -1.4905 0
M  V30 5101 C 484.287 1.63568 -1.65373 0
M  V30 5102 C 485.281 1.61228 -0.519806 0
M  V30 5103 O 486.487 1.65869 -0.699101 0
M  V30 5104 H 482.862 0.542019 -0.521267 0
M  V30 5105 H 484.833 1.4695 -2.59708 0
M  V30 5106 C 483.582 3.01761 -1.7273 0
M  V30 5107 H 482.905 3.04263 -2.59353 0
M  V30 5108 H 484.345 3.79948 -1.8819 0
M  V30 5109 C 482.804 3.33609 -0.46973 0
M  V30 5110 O 483.334 3.99607 0.409492 0
M  V30 5111 N 481.54 2.88651 -0.336003 0
M  V30 5112 H 481.087 2.35119 -1.05247 0
M  V30 5113 H 481.045 3.10328 0.504363 0
M  V30 5114 N 484.817 1.37938 0.762283 0
M  V30 5115 C 486.228 1.30094 1.33912 0
M  V30 5116 C 486.579 -0.0472026 1.96143 0
M  V30 5117 O 485.704 -0.94917 1.94473 0
M  V30 5118 C 486.299 2.35592 2.43478 0
M  V30 5119 C 484.858 2.31353 2.96905 0
M  V30 5120 C 484.005 2.18919 1.70205 0
M  V30 5121 H 486.956 1.48423 0.561816 0
M  V30 5122 H 486.977 2.00806 3.23199 0
M  V30 5123 H 486.489 3.33701 1.98155 0
M  V30 5124 H 484.59 1.36799 3.46579 0
M  V30 5125 H 484.703 3.25147 3.51875 0
M  V30 5126 H 483.067 1.65624 1.93496 0
M  V30 5127 H 483.85 3.18956 1.26973 0
M  V30 5128 N 486.295 -0.989507 1.22664 0
M  V30 5129 C 487.52 -1.77031 1.08051 0
M  V30 5130 C 487.945 -1.84535 -0.364483 0
M  V30 5131 O 487.303 -1.3003 -1.2634 0
M  V30 5132 C 487.351 -3.18 1.70024 0
M  V30 5133 O 486.455 -4.01161 0.956216 0
M  V30 5134 H 485.796 -0.545008 0.379292 0
M  V30 5135 H 488.326 -1.24277 1.62531 0
M  V30 5136 H 488.336 -3.68616 1.74888 0
M  V30 5137 H 487.011 -3.11853 2.75174 0
M  V30 5138 H 485.588 -3.59687 0.98384 0
M  V30 5139 N 487.773 -1.03688 -1.18687 0
M  V30 5140 C 488.736 -0.629115 -2.20397 0
M  V30 5141 C 489.736 0.311495 -1.57754 0
M  V30 5142 O 490.926 0.0974107 -1.73927 0
M  V30 5143 C 488.058 0.0782231 -3.4081 0
M  V30 5144 H 489.251 -1.52915 -2.57987 0
M  V30 5145 H 486.804 -0.828988 -1.32505 0
M  V30 5146 H 487.539 0.992233 -3.08748 0
M  V30 5147 H 487.324 -0.597776 -3.87517 0
M  V30 5148 H 488.814 0.350156 -4.16129 0
M  V30 5149 N 489.251 1.34841 -0.815825 0
M  V30 5150 C 490.667 1.51543 -0.500697 0
M  V30 5151 C 490.867 1.76261 0.976444 0
M  V30 5152 O 489.923 1.8094 1.76117 0
M  V30 5153 C 491.236 2.68487 -1.35407 0
M  V30 5154 C 492.784 2.82368 -1.35046 0
M  V30 5155 C 493.259 4.02347 -2.18816 0
M  V30 5156 N 494.75 4.09542 -2.16402 0
M  V30 5157 C 495.485 5.01517 -2.77971 0
M  V30 5158 N 494.981 5.98763 -3.48503 0
M  V30 5159 N 496.774 4.94334 -2.67563 0
M  V30 5160 H 488.925 1.17055 -1.77234 0
M  V30 5161 H 491.188 0.573481 -0.754866 0
M  V30 5162 H 490.894 2.56829 -2.40274 0
M  V30 5163 H 490.768 3.63321 -1.01377 0
M  V30 5164 H 493.155 2.93471 -0.309604 0
M  V30 5165 H 493.236 1.88363 -1.73069 0
M  V30 5166 H 492.88 3.92004 -3.22948 0
M  V30 5167 H 492.81 4.95551 -1.78148 0
M  V30 5168 H 495.301 3.39932 -1.65091 0
M  V30 5169 H 495.614 6.6556 -3.92747 0
M  V30 5170 H 493.959 5.98909 -3.52609 0
M  V30 5171 H 497.15 4.1732 -2.12041 0
M  V30 5172 H 497.323 5.6582 -3.15834 0
M  V30 5173 N 490.729 0.570148 1.46925 0
M  V30 5174 C 491.976 0.0509529 2.02436 0
M  V30 5175 C 492.304 -1.30405 1.44308 0
M  V30 5176 O 491.559 -1.86493 0.593198 0
M  V30 5177 C 491.858 -0.0780336 3.57315 0
M  V30 5178 C 491.524 1.20775 4.34424 0
M  V30 5179 C 490.186 1.56004 4.5521 0
M  V30 5180 C 492.538 2.0592 4.78797 0
M  V30 5181 C 489.866 2.76201 5.17619 0
M  V30 5182 C 492.218 3.25332 5.42533 0
M  V30 5183 C 490.882 3.60859 5.61549 0
M  V30 5184 H 490.152 0.018645 0.740765 0
M  V30 5185 H 492.799 0.744262 1.76445 0
M  V30 5186 H 491.104 -0.854394 3.82371 0
M  V30 5187 H 492.801 -0.495312 3.97929 0
M  V30 5188 H 489.391 0.923469 4.18533 0
M  V30 5189 H 493.575 1.80008 4.62505 0
M  V30 5190 H 488.831 3.0388 5.30535 0
M  V30 5191 H 493.005 3.91586 5.75876 0
M  V30 5192 H 490.632 4.54088 6.09678 0
M  V30 5193 N 492.207 -1.54576 0.307264 0
M  V30 5194 C 493.453 -2.0056 -0.300612 0
M  V30 5195 C 493.786 -1.1953 -1.53057 0
M  V30 5196 O 493.061 -0.27337 -1.92569 0
M  V30 5197 C 493.344 -3.54167 -0.650987 0
M  V30 5198 C 493.197 -4.45933 0.588539 0
M  V30 5199 C 494.516 -4.14645 -1.47506 0
M  V30 5200 H 491.635 -0.729075 -0.107788 0
M  V30 5201 H 494.277 -1.85286 0.420606 0
M  V30 5202 H 492.427 -3.67313 -1.26544 0
M  V30 5203 H 494.099 -4.44683 1.22697 0
M  V30 5204 H 492.342 -4.16274 1.22058 0
M  V30 5205 H 493.013 -5.51189 0.299153 0
M  V30 5206 H 495.489 -4.04973 -0.955821 0
M  V30 5207 H 494.365 -5.22269 -1.68899 0
M  V30 5208 H 494.626 -3.66921 -2.4662 0
M  V30 5209 N 493.685 -0.035106 -1.57561 0
M  V30 5210 C 494.913 0.652258 -1.9635 0
M  V30 5211 C 495.328 1.65317 -0.911897 0
M  V30 5212 O 494.685 1.82194 0.105657 0
M  V30 5213 C 494.736 1.35337 -3.35211 0
M  V30 5214 O 494.457 0.392548 -4.36338 0
M  V30 5215 C 495.958 2.13199 -3.88666 0
M  V30 5216 H 493.178 0.179444 -0.646561 0
M  V30 5217 H 495.722 -0.0966459 -2.04271 0
M  V30 5218 H 493.877 2.05362 -3.28489 0
M  V30 5219 H 494.291 0.891097 -5.16875 0
M  V30 5220 H 495.765 2.577 -4.88154 0
M  V30 5221 H 496.242 2.97353 -3.23231 0
M  V30 5222 H 496.848 1.48118 -3.98674 0
M  V30 5223 N 495.163 1.55791 0.238111 0
M  V30 5224 C 496.409 1.78297 0.966337 0
M  V30 5225 C 496.742 0.601903 1.84637 0
M  V30 5226 O 496.017 -0.399499 1.90353 0
M  V30 5227 C 496.3 3.10758 1.81939 0
M  V30 5228 C 496.153 4.39283 0.966958 0
M  V30 5229 C 497.472 3.39519 2.80027 0
M  V30 5230 H 494.591 0.648654 0.349882 0
M  V30 5231 H 497.233 1.88525 0.236253 0
M  V30 5232 H 495.383 3.02168 2.44185 0
M  V30 5233 H 497.055 4.59873 0.362514 0
M  V30 5234 H 495.298 4.32948 0.271669 0
M  V30 5235 H 495.969 5.28368 1.59784 0
M  V30 5236 H 498.445 3.48128 2.27917 0
M  V30 5237 H 497.321 4.33402 3.36829 0
M  V30 5238 H 497.582 2.60864 3.56934 0
M  V30 5239 N 496.642 -0.504142 1.49319 0
M  V30 5240 C 498.053 -1.08572 1.51885 0
M  V30 5241 C 498.404 -1.93842 0.303255 0
M  V30 5242 O 497.529 -2.0828 -0.58724 0
M  V30 5243 C 498.124 -1.97574 2.75227 0
M  V30 5244 C 496.683 -2.509 2.80581 0
M  V30 5245 C 495.83 -1.28447 2.45757 0
M  V30 5246 H 498.781 -0.288194 1.56061 0
M  V30 5247 H 498.802 -2.82219 2.55211 0
M  V30 5248 H 498.314 -1.35486 3.63683 0
M  V30 5249 H 496.415 -3.16636 1.96398 0
M  V30 5250 H 496.528 -2.88268 3.82673 0
M  V30 5251 H 494.892 -1.60868 1.97468 0
M  V30 5252 H 495.675 -0.68072 3.36483 0
M  V30 5253 N 498.12 -1.38341 -0.754957 0
M  V30 5254 C 499.05 -1.38176 -1.88227 0
M  V30 5255 C 500.031 -0.247873 -1.68284 0
M  V30 5256 O 501.216 -0.45075 -1.88896 0
M  V30 5257 C 498.346 -1.20471 -3.25736 0
M  V30 5258 C 497.3 -2.3105 -3.60278 0
M  V30 5259 C 496.626 -1.98452 -4.96509 0
M  V30 5260 C 497.926 -3.73305 -3.65295 0
M  V30 5261 H 499.62 -2.32512 -1.88622 0
M  V30 5262 H 497.166 -1.1192 -0.906082 0
M  V30 5263 H 499.119 -1.18982 -4.04254 0
M  V30 5264 H 497.843 -0.225965 -3.25817 0
M  V30 5265 H 496.502 -2.31723 -2.84078 0
M  V30 5266 H 496.15 -0.990641 -4.93148 0
M  V30 5267 H 495.85 -2.7251 -5.20588 0
M  V30 5268 H 497.374 -1.98578 -5.77407 0
M  V30 5269 H 498.788 -3.7467 -4.3393 0
M  V30 5270 H 497.185 -4.46557 -4.00883 0
M  V30 5271 H 498.255 -4.05719 -2.65556 0
M  V30 5272 N 499.598 0.982988 -1.23187 0
M  V30 5273 C 500.548 2.05962 -0.977942 0
M  V30 5274 C 501.532 1.60725 0.0751148 0
M  V30 5275 O 502.724 1.76471 -0.136683 0
M  V30 5276 C 499.853 3.38564 -0.568276 0
M  V30 5277 C 498.939 3.90407 -1.6566 0
M  V30 5278 N 499.33 4.15359 -2.88635 0
M  V30 5279 C 497.628 4.18915 -1.53058 0
M  V30 5280 C 498.329 4.57642 -3.5908 0
M  V30 5281 N 497.305 4.6192 -2.86584 0
M  V30 5282 H 501.107 2.23208 -1.91195 0
M  V30 5283 H 498.621 1.16555 -1.13087 0
M  V30 5284 H 500.618 4.15276 -0.36764 0
M  V30 5285 H 499.278 3.22712 0.358713 0
M  V30 5286 H 500.289 4.03258 -3.24966 0
M  V30 5287 H 496.966 4.12081 -0.670506 0
M  V30 5288 H 498.356 4.85488 -4.6449 0
M  V30 5289 N 501.076 1.04316 1.18135 0
M  V30 5290 C 502.026 0.606731 2.19779 0
M  V30 5291 C 503.01 -0.352144 1.56999 0
M  V30 5292 O 504.202 -0.170795 1.76174 0
M  V30 5293 C 501.331 -0.0262443 3.4329 0
M  V30 5294 C 500.417 0.955928 4.13186 0
M  V30 5295 N 500.808 2.12395 4.59045 0
M  V30 5296 C 499.106 0.782473 4.39082 0
M  V30 5297 C 499.807 2.74458 5.12882 0
M  V30 5298 N 498.783 2.02316 5.04548 0
M  V30 5299 H 502.585 1.49679 2.5293 0
M  V30 5300 H 500.099 0.912088 1.34368 0
M  V30 5301 H 502.096 -0.356617 4.15372 0
M  V30 5302 H 500.756 -0.911811 3.11635 0
M  V30 5303 H 501.767 2.50272 4.53414 0
M  V30 5304 H 498.444 -0.0527906 4.17467 0
M  V30 5305 H 499.834 3.73459 5.5855 0
M  V30 5306 N 502.554 -1.34406 0.822964 0
M  V30 5307 C 503.97 -1.51275 0.508727 0
M  V30 5308 C 504.17 -1.76776 -0.967083 0
M  V30 5309 O 503.226 -1.81871 -1.75155 0
M  V30 5310 C 504.539 -2.67765 1.36829 0
M  V30 5311 C 506.087 -2.81647 1.36542 0
M  V30 5312 C 506.562 -4.01181 2.20947 0
M  V30 5313 N 508.053 -4.08388 2.18571 0
M  V30 5314 C 508.788 -5.00036 2.80627 0
M  V30 5315 N 508.284 -5.96906 3.51674 0
M  V30 5316 N 510.077 -4.92908 2.70181 0
M  V30 5317 H 502.228 -1.16113 1.77852 0
M  V30 5318 H 504.491 -0.56947 0.757897 0
M  V30 5319 H 504.197 -2.55551 2.41633 0
M  V30 5320 H 504.071 -3.62779 1.03303 0
M  V30 5321 H 506.458 -2.93303 0.325163 0
M  V30 5322 H 506.539 -1.87443 1.74066 0
M  V30 5323 H 506.183 -3.90286 3.25022 0
M  V30 5324 H 506.113 -4.94599 1.80774 0
M  V30 5325 H 508.604 -3.39051 1.66891 0
M  V30 5326 H 508.917 -6.63468 3.96271 0
M  V30 5327 H 507.262 -5.9703 3.5578 0
M  V30 5328 H 510.453 -4.1619 2.14251 0
M  V30 5329 H 510.626 -5.64137 3.18831 0
M  V30 5330 N 504.032 -0.577932 -1.46621 0
M  V30 5331 C 504.965 0.206312 -2.27265 0
M  V30 5332 C 505.943 0.901306 -1.35334 0
M  V30 5333 O 507.127 0.916151 -1.64739 0
M  V30 5334 C 504.254 1.29563 -3.1294 0
M  V30 5335 C 503.3 0.706981 -4.206 0
M  V30 5336 S 504.133 -0.462459 -5.33499 0
M  V30 5337 C 505.289 0.628171 -6.2274 0
M  V30 5338 H 505.522 -0.477961 -2.93433 0
M  V30 5339 H 503.055 -0.364715 -1.50031 0
M  V30 5340 H 505.013 1.91935 -3.62865 0
M  V30 5341 H 503.674 1.95183 -2.46095 0
M  V30 5342 H 502.867 1.52565 -4.80354 0
M  V30 5343 H 502.469 0.159022 -3.73662 0
M  V30 5344 H 504.761 1.51506 -6.60342 0
M  V30 5345 H 505.704 0.0674961 -7.08068 0
M  V30 5346 H 506.112 0.930167 -5.56784 0
M  V30 5347 N 505.51 1.54411 -0.315457 0
M  V30 5348 C 506.473 2.22713 0.54142 0
M  V30 5349 C 507.473 1.2179 1.04995 0
M  V30 5350 O 508.663 1.46426 0.943667 0
M  V30 5351 C 505.795 2.92485 1.75116 0
M  V30 5352 H 506.988 2.99849 -0.0555508 0
M  V30 5353 H 504.541 1.56159 -0.0664453 0
M  V30 5354 H 505.276 2.19466 2.38758 0
M  V30 5355 H 505.061 3.66483 1.39401 0
M  V30 5356 H 506.551 3.44548 2.35959 0
M  V30 5357 N 506.988 0.0434614 1.5754 0
M  V30 5358 C 508.213 -0.645358 1.97104 0
M  V30 5359 C 508.638 -1.64037 0.920521 0
M  V30 5360 O 507.996 -1.80922 -0.11708 0
M  V30 5361 C 508.044 -1.31547 3.35749 0
M  V30 5362 O 507.148 -2.43103 3.33129 0
M  V30 5363 H 506.489 -0.168403 0.64229 0
M  V30 5364 H 509.019 0.109573 2.04306 0
M  V30 5365 H 509.029 -1.66895 3.72304 0
M  V30 5366 H 507.704 -0.586205 4.11748 0
M  V30 5367 H 506.281 -2.0976 3.0831 0
M  V30 5368 N 508.466 -1.55915 -0.229846 0
M  V30 5369 C 509.429 -1.90914 -1.26824 0
M  V30 5370 C 510.429 -0.786999 -1.40225 0
M  V30 5371 O 511.619 -1.05484 -1.38632 0
M  V30 5372 C 508.751 -2.15264 -2.64337 0
M  V30 5373 H 509.944 -2.8378 -0.969998 0
M  V30 5374 H 507.497 -1.49069 -0.4699 0
M  V30 5375 H 508.232 -1.24923 -2.99274 0
M  V30 5376 H 508.017 -2.97005 -2.55989 0
M  V30 5377 H 509.507 -2.43467 -3.39284 0
M  V30 5378 N 509.944 0.496216 -1.49584 0
M  V30 5379 C 511.193 1.24668 -1.58558 0
M  V30 5380 C 511.506 1.9359 -0.279703 0
M  V30 5381 O 512.712 2.70365 -0.248048 0
M  V30 5382 C 511.168 2.26388 -2.79779 0
M  V30 5383 C 510.776 1.63384 -4.17145 0
M  V30 5384 C 512.52 3.02233 -2.98086 0
M  V30 5385 C 510.427 2.63243 -5.29582 0
M  V30 5386 H 509.357 0.468995 -0.590389 0
M  V30 5387 H 512.008 0.519985 -1.75978 0
M  V30 5388 H 510.39 3.02241 -2.55863 0
M  V30 5389 H 511.564 0.93491 -4.51216 0
M  V30 5390 H 509.879 0.999121 -4.04236 0
M  V30 5391 H 512.476 3.76919 -3.79257 0
M  V30 5392 H 512.819 3.60132 -2.08831 0
M  V30 5393 H 513.352 2.33495 -3.22063 0
M  V30 5394 H 510.091 2.10119 -6.20911 0
M  V30 5395 H 509.611 3.31363 -4.99959 0
M  V30 5396 H 511.29 3.25575 -5.59115 0
M  V30 5397 N 511.423 1.38739 0.74761 0
M  V30 5398 C 512.37 1.36449 1.86146 0
M  V30 5399 C 513.34 0.226098 1.64554 0
M  V30 5400 O 514.525 0.41926 1.86137 0
M  V30 5401 C 511.665 1.2013 3.23516 0
M  V30 5402 C 510.778 2.43407 3.56899 0
M  V30 5403 C 509.913 2.19773 4.83605 0
M  V30 5404 C 508.952 3.3879 5.09792 0
M  V30 5405 N 508.089 3.14553 6.27695 0
M  V30 5406 H 512.929 2.3167 1.87438 0
M  V30 5407 H 510.466 1.15094 0.916063 0
M  V30 5408 H 512.424 1.08683 4.02795 0
M  V30 5409 H 511.054 0.285453 3.21535 0
M  V30 5410 H 510.106 2.65504 2.72418 0
M  V30 5411 H 511.418 3.32094 3.72176 0
M  V30 5412 H 510.572 2.05496 5.70838 0
M  V30 5413 H 509.311 1.28461 4.70478 0
M  V30 5414 H 508.316 3.53579 4.21025 0
M  V30 5415 H 509.541 4.30986 5.24812 0
M  V30 5416 H 507.487 2.25893 6.1588 0
M  V30 5417 H 507.404 3.96791 6.435 0
M  V30 5418 H 508.672 3.03943 7.17801 0
M  V30 5419 N 512.901 -0.976442 1.23707 0
M  V30 5420 C 514.141 -1.73331 1.08332 0
M  V30 5421 C 514.505 -1.88346 -0.372781 0
M  V30 5422 O 515.706 -2.60877 -0.647813 0
M  V30 5423 C 513.977 -3.09159 1.7932 0
M  V30 5424 S 515.536 -4.00376 1.79567 0
M  V30 5425 H 512.354 -0.596045 0.387622 0
M  V30 5426 H 514.956 -1.16625 1.56904 0
M  V30 5427 H 513.66 -2.95884 2.84395 0
M  V30 5428 H 513.191 -3.70932 1.31046 0
M  V30 5429 H 515.206 -4.88742 0.857094 0
M  V30 5430 N 514.379 -1.04941 -1.1758 0
M  V30 5431 C 515.311 -0.606174 -2.21039 0
M  V30 5432 C 516.324 0.328763 -1.59446 0
M  V30 5433 O 517.513 0.121895 -1.78083 0
M  V30 5434 C 514.613 0.133294 -3.38638 0
M  V30 5435 C 513.786 -0.811711 -4.29802 0
M  V30 5436 C 512.845 -0.113958 -5.26077 0
M  V30 5437 O 511.871 -0.747237 -5.64274 0
M  V30 5438 N 513.073 1.14953 -5.69004 0
M  V30 5439 H 515.838 -1.49606 -2.59689 0
M  V30 5440 H 513.399 -0.930997 -1.32454 0
M  V30 5441 H 515.391 0.610144 -4.00074 0
M  V30 5442 H 513.961 0.924816 -2.98607 0
M  V30 5443 H 513.181 -1.46824 -3.65837 0
M  V30 5444 H 514.469 -1.45326 -4.87604 0
M  V30 5445 H 513.867 1.68441 -5.40041 0
M  V30 5446 H 512.424 1.57049 -6.32597 0
M  V30 5447 N 515.857 1.33968 -0.830081 0
M  V30 5448 C 517.087 2.01987 -0.434142 0
M  V30 5449 C 517.495 1.62639 0.96671 0
M  V30 5450 O 516.838 0.831151 1.63822 0
M  V30 5451 C 516.9 3.5648 -0.465018 0
M  V30 5452 C 516.564 4.19176 -1.82045 0
M  V30 5453 C 517.561 4.39181 -2.78237 0
M  V30 5454 C 515.246 4.55792 -2.11089 0
M  V30 5455 C 517.24 4.94937 -4.01642 0
M  V30 5456 C 514.927 5.11258 -3.34752 0
M  V30 5457 C 515.925 5.30775 -4.29845 0
M  V30 5458 O 515.613 5.85064 -5.51322 0
M  V30 5459 H 515.345 0.653847 -0.171639 0
M  V30 5460 H 517.899 1.72066 -1.12171 0
M  V30 5461 H 516.129 3.8569 0.279284 0
M  V30 5462 H 517.818 4.05804 -0.0881334 0
M  V30 5463 H 518.584 4.11249 -2.57097 0
M  V30 5464 H 514.463 4.39901 -1.3787 0
M  V30 5465 H 518.007 5.10086 -4.75876 0
M  V30 5466 H 513.904 5.38619 -3.55753 0
M  V30 5467 H 514.672 6.03489 -5.5294 0
M  V30 5468 N 517.335 0.585699 1.46312 0
M  V30 5469 C 518.285 -0.166813 2.27389 0
M  V30 5470 C 519.269 -0.859076 1.36047 0
M  V30 5471 O 520.461 -0.752678 1.60199 0
M  V30 5472 C 517.59 -1.17791 3.2246 0
M  V30 5473 C 516.676 -0.487605 4.21288 0
M  V30 5474 N 517.067 0.45849 5.03718 0
M  V30 5475 C 515.365 -0.737971 4.39852 0
M  V30 5476 C 516.066 0.862213 5.75275 0
M  V30 5477 N 515.042 0.210707 5.43191 0
M  V30 5478 H 518.844 0.560167 2.88512 0
M  V30 5479 H 516.358 0.407715 1.57199 0
M  V30 5480 H 518.355 -1.73122 3.79255 0
M  V30 5481 H 517.015 -1.90568 2.62896 0
M  V30 5482 H 518.026 0.834163 5.11138 0
M  V30 5483 H 514.703 -1.45209 3.91434 0
M  V30 5484 H 516.093 1.64128 6.51546 0
M  V30 5485 N 518.813 -1.54241 0.323641 0
M  V30 5486 C 520.06 -2.0057 -0.27891 0
M  V30 5487 C 520.388 -1.21181 -1.52136 0
M  V30 5488 O 519.643 -0.282043 -1.93657 0
M  V30 5489 C 519.942 -3.5129 -0.658031 0
M  V30 5490 C 519.608 -4.48281 0.485252 0
M  V30 5491 C 518.27 -4.74519 0.799055 0
M  V30 5492 C 520.622 -5.05909 1.25322 0
M  V30 5493 C 517.95 -5.55643 1.88354 0
M  V30 5494 C 520.302 -5.88215 2.32779 0
M  V30 5495 C 518.966 -6.12755 2.64741 0
M  V30 5496 H 518.236 -0.733938 -0.10206 0
M  V30 5497 H 520.883 -1.862 0.447435 0
M  V30 5498 H 519.188 -3.63388 -1.4648 0
M  V30 5499 H 520.885 -3.84578 -1.1358 0
M  V30 5500 H 517.475 -4.27979 0.230593 0
M  V30 5501 H 521.659 -4.8562 1.02404 0
M  V30 5502 H 516.915 -5.72888 2.13564 0
M  V30 5503 H 521.089 -6.31888 2.92729 0
M  V30 5504 H 518.716 -6.75404 3.48904 0
M  V30 5505 N 520.291 -0.0518155 -1.57515 0
M  V30 5506 C 521.254 0.907547 -2.10467 0
M  V30 5507 C 522.254 1.23947 -1.02439 0
M  V30 5508 O 523.444 1.17604 -1.2851 0
M  V30 5509 C 520.576 2.21723 -2.58944 0
M  V30 5510 H 521.769 0.44851 -2.96527 0
M  V30 5511 H 519.322 0.196598 -1.55059 0
M  V30 5512 H 520.057 2.72206 -1.76279 0
M  V30 5513 H 519.842 1.98935 -3.37886 0
M  V30 5514 H 521.332 2.90441 -3.00056 0
M  V30 5515 N 521.769 1.56035 0.221574 0
M  V30 5516 C 523.046 1.69837 0.970301 0
M  V30 5517 C 523.426 0.599065 2.02421 0
M  V30 5518 O 522.774 -0.393929 2.25079 0
M  V30 5519 C 522.984 3.11148 1.58076 0
M  V30 5520 C 524.332 3.70555 2.07302 0
M  V30 5521 O 525.356 3.14109 1.6797 0
M  V30 5522 O 524.215 4.69562 2.79596 0
M  V30 5523 H 521.309 0.691727 0.453257 0
M  V30 5524 H 523.855 1.68353 0.213358 0
M  V30 5525 H 522.627 3.82617 0.819759 0
M  V30 5526 H 522.25 3.16749 2.40324 0
M  V30 5527 N 523.247 -0.488276 1.49845 0
M  V30 5528 C 524.475 -1.26527 1.63702 0
M  V30 5529 C 524.89 -1.8618 0.313447 0
M  V30 5530 O 524.247 -1.68432 -0.702624 0
M  V30 5531 C 524.298 -2.3864 2.71538 0
M  V30 5532 O 524.019 -1.81437 3.98763 0
M  V30 5533 C 525.52 -3.29805 2.96215 0
M  V30 5534 H 522.74 -0.383295 0.55075 0
M  V30 5535 H 525.284 -0.584779 1.95961 0
M  V30 5536 H 523.439 -3.02496 2.42023 0
M  V30 5537 H 523.853 -2.55135 4.58265 0
M  V30 5538 H 525.327 -4.04722 3.75372 0
M  V30 5539 H 525.804 -3.87563 2.06619 0
M  V30 5540 H 526.41 -2.71703 3.27196 0
M  V30 5541 N 524.725 -1.39134 -0.740242 0
M  V30 5542 C 525.971 -1.37278 -1.50088 0
M  V30 5543 C 526.326 0.0329967 -1.92372 0
M  V30 5544 O 525.619 0.998447 -1.63529 0
M  V30 5545 C 525.813 -2.27457 -2.75678 0
M  V30 5546 C 525.642 -3.76662 -2.45674 0
M  V30 5547 C 524.412 -4.45617 -2.38229 0
M  V30 5548 C 526.61 -4.6877 -2.11563 0
M  V30 5549 N 524.592 -5.80187 -2.00641 0
M  V30 5550 C 525.963 -5.91951 -1.84376 0
M  V30 5551 C 528.018 -4.56843 -1.97987 0
M  V30 5552 C 526.721 -7.04538 -1.4498 0
M  V30 5553 C 528.747 -5.69347 -1.59994 0
M  V30 5554 C 528.109 -6.91597 -1.33687 0
M  V30 5555 H 524.208 -0.557611 -0.548265 0
M  V30 5556 H 526.792 -1.74638 -0.860784 0
M  V30 5557 H 524.963 -1.92263 -3.37475 0
M  V30 5558 H 526.695 -2.16631 -3.41838 0
M  V30 5559 H 523.45 -3.98993 -2.5515 0
M  V30 5560 H 523.874 -6.51387 -1.84454 0
M  V30 5561 H 528.516 -3.62868 -2.16995 0
M  V30 5562 H 526.234 -7.98419 -1.24712 0
M  V30 5563 H 529.82 -5.62104 -1.50102 0
M  V30 5564 H 528.7 -7.77176 -1.04728 0
M  V30 5565 N 526.204 0.969867 -1.24223 0
M  V30 5566 C 527.137 2.06279 -0.975926 0
M  V30 5567 C 528.115 1.62353 0.0895385 0
M  V30 5568 O 529.299 1.88442 -0.0469418 0
M  V30 5569 C 526.426 3.35391 -0.472315 0
M  V30 5570 C 525.472 3.98266 -1.526 0
M  V30 5571 S 526.305 4.36172 -3.10667 0
M  V30 5572 C 527.461 5.68423 -2.62003 0
M  V30 5573 H 527.694 2.28551 -1.90137 0
M  V30 5574 H 525.227 1.10748 -1.07584 0
M  V30 5575 H 527.185 4.10068 -0.188376 0
M  V30 5576 H 525.846 3.1111 0.432378 0
M  V30 5577 H 525.039 4.91307 -1.12399 0
M  V30 5578 H 524.641 3.30009 -1.75983 0
M  V30 5579 H 526.933 6.45842 -2.0468 0
M  V30 5580 H 527.876 6.13478 -3.53625 0
M  V30 5581 H 528.284 5.26928 -2.02502 0
M  V30 5582 N 527.682 1.05563 1.17022 0
M  V30 5583 C 528.615 0.604197 2.20056 0
M  V30 5584 C 529.593 -0.369169 1.58354 0
M  V30 5585 O 530.777 -0.279898 1.8641 0
M  V30 5586 C 527.904 -0.115265 3.38504 0
M  V30 5587 C 526.95 0.813698 4.18666 0
M  V30 5588 S 527.783 2.30492 4.83357 0
M  V30 5589 C 528.939 1.59674 6.0519 0
M  V30 5590 H 529.172 1.47713 2.58008 0
M  V30 5591 H 526.705 0.867932 1.27696 0
M  V30 5592 H 528.663 -0.524162 4.0714 0
M  V30 5593 H 527.324 -0.964284 2.98932 0
M  V30 5594 H 526.517 0.256736 5.03346 0
M  V30 5595 H 526.119 1.16213 3.55486 0
M  V30 5596 H 528.411 0.898164 6.7152 0
M  V30 5597 H 529.354 2.42115 6.65422 0
M  V30 5598 H 529.762 1.08252 5.54023 0
M  V30 5599 N 529.16 -1.33526 0.837174 0
M  V30 5600 C 530.407 -1.97837 0.432064 0
M  V30 5601 C 530.735 -1.66324 -1.00829 0
M  V30 5602 O 529.99 -0.93448 -1.71948 0
M  V30 5603 C 530.289 -3.52367 0.597675 0
M  V30 5604 C 529.955 -4.03826 2.00587 0
M  V30 5605 C 528.617 -4.1759 2.39106 0
M  V30 5606 C 530.969 -4.31333 2.92576 0
M  V30 5607 C 528.297 -4.56195 3.68921 0
M  V30 5608 C 530.649 -4.7139 4.2187 0
M  V30 5609 C 529.313 -4.8336 4.60347 0
M  V30 5610 H 528.583 -0.723937 0.158104 0
M  V30 5611 H 531.23 -1.5923 1.06387 0
M  V30 5612 H 529.535 -3.91624 -0.117452 0
M  V30 5613 H 531.232 -4.00126 0.26454 0
M  V30 5614 H 527.822 -3.93586 1.69671 0
M  V30 5615 H 532.006 -4.20224 2.64056 0
M  V30 5616 H 527.262 -4.63655 3.9854 0
M  V30 5617 H 531.436 -4.91631 4.93226 0
M  V30 5618 H 529.063 -5.1303 5.60985 0
M  V30 5619 N 530.638 -0.59345 -1.46 0
M  V30 5620 C 531.863 -0.0872365 -2.07216 0
M  V30 5621 C 532.288 1.2131 -1.43755 0
M  V30 5622 O 531.646 1.73528 -0.525152 0
M  V30 5623 C 531.694 0.0538197 -3.6056 0
M  V30 5624 O 530.798 1.10765 -3.97247 0
M  V30 5625 H 530.139 -0.0676598 -0.660544 0
M  V30 5626 H 532.669 -0.819445 -1.87473 0
M  V30 5627 H 532.679 0.256567 -4.07193 0
M  V30 5628 H 531.354 -0.895739 -4.0614 0
M  V30 5629 H 529.931 0.882501 -3.62307 0
M  V30 5630 N 532.116 1.54067 -0.331816 0
M  V30 5631 C 533.026 2.28322 0.539104 0
M  V30 5632 C 534.042 1.32985 1.1221 0
M  V30 5633 O 535.218 1.6601 1.1403 0
M  V30 5634 C 532.283 3.03277 1.68 0
M  V30 5635 C 531.344 4.14216 1.12798 0
M  V30 5636 C 530.577 4.85588 2.2145 0
M  V30 5637 O 530.8 4.56536 3.41952 0
M  V30 5638 O 529.734 5.72309 1.86404 0
M  V30 5639 H 533.56 3.03632 -0.0641692 0
M  V30 5640 H 531.145 1.49083 -0.0972365 0
M  V30 5641 H 533.027 3.50189 2.34405 0
M  V30 5642 H 531.702 2.30834 2.2693 0
M  V30 5643 H 530.609 3.71635 0.428782 0
M  V30 5644 H 531.942 4.88727 0.583698 0
M  V30 5645 N 533.594 0.0601682 1.57485 0
M  V30 5646 C 534.843 -0.611101 1.9222 0
M  V30 5647 C 535.156 -1.71469 0.941159 0
M  V30 5648 O 536.362 -2.44473 1.18089 0
M  V30 5649 C 534.818 -1.13832 3.41424 0
M  V30 5650 C 534.426 -0.0663596 4.47951 0
M  V30 5651 C 536.17 -1.78432 3.85178 0
M  V30 5652 C 534.077 -0.606965 5.88277 0
M  V30 5653 H 533.007 -0.232033 0.71741 0
M  V30 5654 H 535.658 0.130518 1.83035 0
M  V30 5655 H 534.04 -1.93254 3.45643 0
M  V30 5656 H 535.214 0.707682 4.55333 0
M  V30 5657 H 533.529 0.482715 4.13593 0
M  V30 5658 H 536.126 -2.1989 4.87394 0
M  V30 5659 H 536.469 -2.63966 3.21913 0
M  V30 5660 H 537.002 -1.05651 3.83514 0
M  V30 5661 H 533.741 0.21095 6.5516 0
M  V30 5662 H 533.261 -1.34879 5.84438 0
M  V30 5663 H 534.94 -1.08704 6.37803 0
M  V30 5664 N 535.072 -1.5615 -0.213296 0
M  V30 5665 C 536.3 -1.83638 -0.953139 0
M  V30 5666 C 536.715 -0.640362 -1.77609 0
M  V30 5667 O 536.072 0.391071 -1.78261 0
M  V30 5668 C 536.123 -3.09735 -1.86405 0
M  V30 5669 O 535.844 -4.24723 -1.07435 0
M  V30 5670 C 537.345 -3.5027 -2.71709 0
M  V30 5671 H 534.565 -0.610263 -0.278962 0
M  V30 5672 H 537.109 -2.03247 -0.226035 0
M  V30 5673 H 535.264 -2.92077 -2.545 0
M  V30 5674 H 535.678 -4.9641 -1.69343 0
M  V30 5675 H 537.152 -4.41515 -3.31313 0
M  V30 5676 H 537.629 -2.72406 -3.44516 0
M  V30 5677 H 538.235 -3.70396 -2.09015 0
M  V30 5678 N 536.55 0.480323 -1.50102 0
M  V30 5679 C 537.797 1.23307 -1.60629 0
M  V30 5680 C 538.125 1.92135 -0.302375 0
M  V30 5681 O 537.38 1.82321 0.711154 0
M  V30 5682 C 537.679 2.30708 -2.72963 0
M  V30 5683 C 537.345 1.79195 -4.13763 0
M  V30 5684 C 536.007 1.64867 -4.52076 0
M  V30 5685 C 538.359 1.40878 -5.018 0
M  V30 5686 C 535.687 1.10631 -5.76175 0
M  V30 5687 C 538.039 0.880872 -6.26437 0
M  V30 5688 C 536.703 0.724146 -6.6356 0
M  V30 5689 H 535.973 0.451211 -0.587784 0
M  V30 5690 H 538.62 0.53051 -1.84005 0
M  V30 5691 H 536.925 3.06834 -2.43639 0
M  V30 5692 H 538.622 2.88692 -2.78313 0
M  V30 5693 H 535.212 1.91313 -3.83533 0
M  V30 5694 H 539.396 1.50786 -4.7284 0
M  V30 5695 H 534.652 0.972263 -6.0362 0
M  V30 5696 H 538.826 0.575269 -6.9402 0
M  V30 5697 H 536.453 0.301722 -7.59601 0
M  V30 5698 N 538.028 1.39524 0.732853 0
M  V30 5699 C 538.96 1.34318 1.85718 0
M  V30 5700 C 539.973 0.251576 1.60844 0
M  V30 5701 O 541.162 0.510685 1.71039 0
M  V30 5702 C 538.262 1.06334 3.21786 0
M  V30 5703 C 537.435 2.26813 3.73998 0
M  V30 5704 C 536.494 1.95253 4.88634 0
M  V30 5705 O 535.52 2.67957 5.02183 0
M  V30 5706 N 536.722 0.919984 5.73164 0
M  V30 5707 H 539.487 2.3121 1.90688 0
M  V30 5708 H 537.048 1.33654 0.91368 0
M  V30 5709 H 539.04 0.832363 3.96048 0
M  V30 5710 H 537.61 0.181682 3.12072 0
M  V30 5711 H 536.83 2.65849 2.91064 0
M  V30 5712 H 538.118 3.0717 4.05616 0
M  V30 5713 H 537.516 0.317487 5.64808 0
M  V30 5714 H 536.073 0.748905 6.47483 0
M  V30 5715 N 539.506 -0.963266 1.24736 0
M  V30 5716 C 540.731 -1.74699 1.11781 0
M  V30 5717 C 541.156 -1.85267 -0.325258 0
M  V30 5718 O 540.514 -1.32681 -1.23553 0
M  V30 5719 C 540.562 -3.14322 1.76731 0
M  V30 5720 O 539.666 -3.99043 1.04109 0
M  V30 5721 H 539.007 -0.53684 0.390767 0
M  V30 5722 H 541.537 -1.20801 1.65131 0
M  V30 5723 H 541.547 -3.64824 1.82668 0
M  V30 5724 H 540.222 -3.05946 2.81726 0
M  V30 5725 H 538.799 -3.5752 1.05991 0
M  V30 5726 N 540.985 -1.06182 -1.16461 0
M  V30 5727 C 542.262 -0.691364 -1.82974 0
M  V30 5728 C 542.642 0.827377 -1.9421 0
M  V30 5729 O 541.99 1.73723 -1.48434 0
M  V30 5730 C 542.2 -1.39199 -3.20038 0
M  V30 5731 C 543.548 -1.53647 -3.95825 0
M  V30 5732 O 544.572 -1.35181 -3.29552 0
M  V30 5733 O 543.431 -1.83932 -5.14618 0
M  V30 5734 H 540.525 -0.244605 -0.789998 0
M  V30 5735 H 543.071 -1.16203 -1.23673 0
M  V30 5736 H 541.843 -2.42766 -3.06888 0
M  V30 5737 H 541.466 -0.911335 -3.87015 0
M  V30 5738 N 542.463 1.3308 -0.844243 0
M  V30 5739 C 543.426 2.27403 -0.286485 0
M  V30 5740 C 544.426 1.51179 0.547872 0
M  V30 5741 O 545.616 1.70421 0.360886 0
M  V30 5742 C 542.748 3.35653 0.595813 0
M  V30 5743 H 543.941 2.78248 -1.11885 0
M  V30 5744 H 541.494 1.43574 -0.617749 0
M  V30 5745 H 542.229 2.90058 1.4504 0
M  V30 5746 H 542.014 3.921 -0.00125994 0
M  V30 5747 H 543.504 4.05958 0.979168 0
M  V30 5748 N 543.941 0.601185 1.45683 0
M  V30 5749 C 544.904 -0.111398 2.28929 0
M  V30 5750 C 545.904 -0.801246 1.39416 0
M  V30 5751 O 547.094 -0.650383 1.61603 0
M  V30 5752 C 544.226 -1.16773 3.20276 0
M  V30 5753 H 545.419 0.620412 2.93413 0
M  V30 5754 H 542.972 0.359946 1.52099 0
M  V30 5755 H 543.707 -1.93051 2.60579 0
M  V30 5756 H 543.492 -0.677358 3.86205 0
M  V30 5757 H 544.982 -1.66698 3.82886 0
M  V30 5758 N 545.419 -1.53889 0.339982 0
M  V30 5759 C 546.352 -2.21187 -0.561405 0
M  V30 5760 C 547.33 -1.19463 -1.10306 0
M  V30 5761 O 548.514 -1.48268 -1.164 0
M  V30 5762 C 545.641 -2.8865 -1.77198 0
M  V30 5763 C 544.687 -4.04232 -1.3601 0
M  V30 5764 S 545.52 -5.34129 -0.382909 0
M  V30 5765 C 546.676 -6.05094 -1.60039 0
M  V30 5766 H 546.909 -2.97298 0.0102092 0
M  V30 5767 H 544.442 -1.53901 0.124056 0
M  V30 5768 H 546.4 -3.28138 -2.4665 0
M  V30 5769 H 545.061 -2.12311 -2.3148 0
M  V30 5770 H 544.254 -4.50358 -2.2626 0
M  V30 5771 H 543.856 -3.66503 -0.745098 0
M  V30 5772 H 546.148 -6.2827 -2.53541 0
M  V30 5773 H 547.091 -6.98182 -1.18099 0
M  V30 5774 H 547.499 -5.35207 -1.79483 0
M  V30 5775 N 546.897 -0.0685191 -1.57451 0
M  V30 5776 C 548.127 0.609577 -1.97402 0
M  V30 5777 C 548.535 1.63882 -0.945489 0
M  V30 5778 O 547.878 1.8354 0.0766052 0
M  V30 5779 C 547.94 1.3385 -3.33653 0
M  V30 5780 C 547.604 0.463103 -4.54648 0
M  V30 5781 C 548.601 -0.277964 -5.19156 0
M  V30 5782 C 546.286 0.388941 -5.00792 0
M  V30 5783 C 548.28 -1.08145 -6.28159 0
M  V30 5784 C 545.967 -0.418217 -6.09667 0
M  V30 5785 C 546.965 -1.15208 -6.73213 0
M  V30 5786 O 546.653 -1.94594 -7.79993 0
M  V30 5787 H 546.385 0.170197 -0.654224 0
M  V30 5788 H 548.939 -0.13647 -2.04946 0
M  V30 5789 H 547.169 2.13055 -3.22714 0
M  V30 5790 H 548.858 1.90851 -3.58233 0
M  V30 5791 H 549.624 -0.230241 -4.84453 0
M  V30 5792 H 545.503 0.949769 -4.5111 0
M  V30 5793 H 549.047 -1.65476 -6.7769 0
M  V30 5794 H 544.944 -0.467515 -6.43805 0
M  V30 5795 H 545.712 -1.8699 -7.96854 0
M  V30 5796 N 548.375 1.56261 0.205012 0
M  V30 5797 C 549.323 1.94631 1.27364 0
M  V30 5798 C 550.317 0.830434 1.47649 0
M  V30 5799 O 551.523 1.01538 1.48627 0
M  V30 5800 H 547.898 0.618755 0.427371 0
M  V30 5801 H 549.869 2.83768 0.922941 0
M  V30 5802 C 548.618 2.29358 2.61324 0
M  V30 5803 H 547.941 3.14744 2.46528 0
M  V30 5804 H 549.381 2.60076 3.34868 0
M  V30 5805 C 547.84 1.12461 3.17575 0
M  V30 5806 O 548.37 0.394407 3.99759 0
M  V30 5807 N 546.576 0.904036 2.7618 0
M  V30 5808 H 546.123 1.49956 2.09454 0
M  V30 5809 H 546.081 0.123662 3.14157 0
M  V30 5810 N 549.853 -0.472356 1.50355 0
M  V30 5811 C 550.801 -1.59126 1.69651 0
M  V30 5812 C 551.795 -1.59793 0.56237 0
M  V30 5813 O 553.001 -1.63957 0.742832 0
M  V30 5814 H 549.376 -0.528008 0.535454 0
M  V30 5815 H 551.347 -1.40013 2.63513 0
M  V30 5816 C 550.096 -2.97075 1.8067 0
M  V30 5817 H 549.419 -2.9728 2.67329 0
M  V30 5818 H 550.859 -3.74825 1.98197 0
M  V30 5819 C 549.318 -3.32247 0.558016 0
M  V30 5820 O 549.848 -4.00553 -0.303399 0
M  V30 5821 N 548.054 -2.87659 0.412415 0
M  V30 5822 H 547.601 -2.32246 1.11443 0
M  V30 5823 H 547.559 -3.11556 -0.421908 0
M  V30 5824 N 551.331 -1.39911 -0.725443 0
M  V30 5825 C 552.556 -1.41137 -1.5197 0
M  V30 5826 C 552.981 -0.010262 -1.88097 0
M  V30 5827 O 552.339 0.979184 -1.52583 0
M  V30 5828 C 552.387 -2.2994 -2.77777 0
M  V30 5829 O 551.491 -1.73586 -3.74088 0
M  V30 5830 H 550.832 -0.480219 -0.458569 0
M  V30 5831 H 553.362 -1.84023 -0.894249 0
M  V30 5832 H 553.372 -2.44785 -3.26411 0
M  V30 5833 H 552.047 -3.31759 -2.50816 0
M  V30 5834 H 550.624 -1.68035 -3.32894 0
M  V30 5835 N 552.809 0.956637 -1.25245 0
M  V30 5836 C 553.719 2.0868 -1.0719 0
M  V30 5837 C 554.735 1.73997 -0.00959074 0
M  V30 5838 O 555.911 2.00301 -0.210104 0
M  V30 5839 C 552.976 3.39754 -0.690526 0
M  V30 5840 C 552.037 3.88316 -1.83055 0
M  V30 5841 C 551.27 5.13134 -1.46728 0
M  V30 5842 O 551.493 5.6925 -0.362029 0
M  V30 5843 O 550.427 5.56356 -2.29677 0
M  V30 5844 H 554.253 2.26813 -2.01965 0
M  V30 5845 H 551.838 1.07098 -1.04165 0
M  V30 5846 H 553.72 4.18543 -0.489871 0
M  V30 5847 H 552.395 3.22896 0.227981 0
M  V30 5848 H 551.302 3.1054 -2.08604 0
M  V30 5849 H 552.635 4.09669 -2.72822 0
M  V30 5850 N 554.287 1.06798 1.15896 0
M  V30 5851 C 555.25 0.687328 2.18651 0
M  V30 5852 C 556.25 -0.269559 1.58524 0
M  V30 5853 O 557.44 -0.0512627 1.74125 0
M  V30 5854 C 554.572 0.0121642 3.40898 0
M  V30 5855 H 555.765 1.59701 2.53842 0
M  V30 5856 H 553.318 0.863828 1.3026 0
M  V30 5857 H 554.053 -0.910025 3.1127 0
M  V30 5858 H 553.838 0.700309 3.85795 0
M  V30 5859 H 555.328 -0.239703 4.16911 0
M  V30 5860 N 555.766 -1.3263 0.851289 0
M  V30 5861 C 556.696 -2.31449 0.308771 0
M  V30 5862 C 557.677 -1.59531 -0.590255 0
M  V30 5863 O 558.862 -1.87351 -0.511205 0
M  V30 5864 C 555.992 -3.43586 -0.506548 0
M  V30 5865 C 554.946 -4.26963 0.297753 0
M  V30 5866 C 554.272 -5.30831 -0.642094 0
M  V30 5867 C 555.572 -4.99643 1.52166 0
M  V30 5868 H 557.266 -2.77074 1.13447 0
M  V30 5869 H 554.812 -1.33207 0.546971 0
M  V30 5870 H 556.765 -4.11754 -0.896474 0
M  V30 5871 H 555.489 -2.96681 -1.36558 0
M  V30 5872 H 554.148 -3.60437 0.669391 0
M  V30 5873 H 553.796 -4.8018 -1.49788 0
M  V30 5874 H 553.496 -5.87501 -0.107968 0
M  V30 5875 H 555.02 -6.01862 -1.02927 0
M  V30 5876 H 556.434 -5.6051 1.20421 0
M  V30 5877 H 554.831 -5.66022 1.99347 0
M  V30 5878 H 555.901 -4.27701 2.28474 0
M  V30 5879 N 557.244 -0.608902 -1.45362 0
M  V30 5880 C 558.655 -0.189511 -1.85736 0
M  V30 5881 C 559.006 1.2539 -1.50903 0
M  V30 5882 O 558.131 1.95094 -0.936347 0
M  V30 5883 C 558.726 -0.33716 -3.37118 0
M  V30 5884 C 557.285 0.0275487 -3.7639 0
M  V30 5885 C 556.432 -0.660983 -2.69307 0
M  V30 5886 H 559.383 -0.815499 -1.36144 0
M  V30 5887 H 559.404 0.430257 -3.7806 0
M  V30 5888 H 558.916 -1.38779 -3.62439 0
M  V30 5889 H 557.017 1.0773 -3.56686 0
M  V30 5890 H 557.13 -0.367018 -4.77692 0
M  V30 5891 H 555.494 -0.0984958 -2.54509 0
M  V30 5892 H 556.277 -1.71377 -2.97464 0
M  V30 5893 N 558.722 1.53707 -0.348139 0
M  V30 5894 C 559.95 2.05406 0.248224 0
M  V30 5895 C 560.365 1.22282 1.43849 0
M  V30 5896 O 559.722 0.259244 1.80649 0
M  V30 5897 C 559.773 3.55446 0.658793 0
M  V30 5898 O 559.494 4.35417 -0.484149 0
M  V30 5899 C 560.995 4.23335 1.31539 0
M  V30 5900 H 558.215 0.669344 0.0471075 0
M  V30 5901 H 560.759 1.98257 -0.501456 0
M  V30 5902 H 558.914 3.62803 1.35841 0
M  V30 5903 H 559.328 5.24268 -0.155949 0
M  V30 5904 H 560.802 5.29692 1.55338 0
M  V30 5905 H 561.279 3.75967 2.27036 0
M  V30 5906 H 561.885 4.20184 0.657683 0
M  V30 5907 N 560.2 0.0768682 1.57412 0
M  V30 5908 C 561.425 -0.603404 1.98428 0
M  V30 5909 C 561.85 -1.62047 0.955108 0
M  V30 5910 O 561.208 -1.81129 -0.0786778 0
M  V30 5911 C 561.256 -1.24396 3.38464 0
M  V30 5912 O 560.36 -2.35982 3.3821 0
M  V30 5913 H 559.701 -0.154741 0.645718 0
M  V30 5914 H 562.231 0.152885 2.04028 0
M  V30 5915 H 562.241 -1.5896 3.7576 0
M  V30 5916 H 560.916 -0.498735 4.12899 0
M  V30 5917 H 559.493 -2.03173 3.1269 0
M  V30 5918 N 561.678 -1.56367 -0.196722 0
M  V30 5919 C 563.089 -1.70462 -0.761545 0
M  V30 5920 C 563.44 -0.683161 -1.83922 0
M  V30 5921 O 562.565 0.160753 -2.15802 0
M  V30 5922 C 563.16 -3.09057 -1.38814 0
M  V30 5923 C 561.719 -3.24922 -1.90007 0
M  V30 5924 C 560.866 -2.66412 -0.769399 0
M  V30 5925 H 563.817 -1.58675 0.0283263 0
M  V30 5926 H 563.838 -3.06296 -2.2575 0
M  V30 5927 H 563.35 -3.83378 -0.603559 0
M  V30 5928 H 561.451 -2.55514 -2.71189 0
M  V30 5929 H 561.564 -4.3241 -2.06297 0
M  V30 5930 H 559.928 -2.25546 -1.18326 0
M  V30 5931 H 560.711 -3.433 0.00291773 0
M  V30 5932 N 563.156 0.464375 -1.50603 0
M  V30 5933 C 564.089 1.58052 -1.64605 0
M  V30 5934 C 565.067 1.54914 -0.494016 0
M  V30 5935 O 566.251 1.74438 -0.714393 0
M  V30 5936 C 563.378 2.96634 -1.63481 0
M  V30 5937 C 562.424 3.17901 -2.84325 0
M  V30 5938 S 563.257 2.97083 -4.45536 0
M  V30 5939 C 564.413 4.37994 -4.47115 0
M  V30 5940 H 564.646 1.45937 -2.59017 0
M  V30 5941 H 562.179 0.652189 -1.39949 0
M  V30 5942 H 564.137 3.76527 -1.63517 0
M  V30 5943 H 562.798 3.06134 -0.702928 0
M  V30 5944 H 561.991 4.19158 -2.79862 0
M  V30 5945 H 561.593 2.45792 -2.81891 0
M  V30 5946 H 563.885 5.30743 -4.21091 0
M  V30 5947 H 564.828 4.47499 -5.48772 0
M  V30 5948 H 565.236 4.20386 -3.76743 0
M  V30 5949 N 564.634 1.40294 0.718013 0
M  V30 5950 C 565.597 1.4012 1.81381 0
M  V30 5951 C 566.597 0.295405 1.58063 0
M  V30 5952 O 567.787 0.554187 1.6515 0
M  V30 5953 C 564.919 1.19056 3.19435 0
M  V30 5954 H 566.112 2.37645 1.82933 0
M  V30 5955 H 563.665 1.26107 0.923405 0
M  V30 5956 H 564.4 0.222809 3.23534 0
M  V30 5957 H 564.185 1.99152 3.37758 0
M  V30 5958 H 565.675 1.21716 3.99468 0
M  V30 5959 N 566.112 -0.949982 1.2575 0
M  V30 5960 C 567.523 -1.50989 1.09815 0
M  V30 5961 C 567.874 -1.93497 -0.324556 0
M  V30 5962 O 566.999 -1.79068 -1.21506 0
M  V30 5963 C 567.594 -2.74394 1.98729 0
M  V30 5964 C 566.153 -3.26682 1.86965 0
M  V30 5965 C 565.3 -1.99498 1.92603 0
M  V30 5966 H 568.251 -0.766387 1.38968 0
M  V30 5967 H 568.272 -3.48383 1.53001 0
M  V30 5968 H 567.784 -2.43425 3.02268 0
M  V30 5969 H 565.885 -3.62461 0.863279 0
M  V30 5970 H 565.998 -3.94383 2.72027 0
M  V30 5971 H 564.362 -2.15005 1.36546 0
M  V30 5972 H 565.145 -1.70871 2.97755 0
M  V30 5973 N 567.59 -1.07411 -1.15328 0
M  V30 5974 C 568.818 -0.818782 -1.90009 0
M  V30 5975 C 569.233 0.628072 -1.78047 0
M  V30 5976 O 568.59 1.43085 -1.13282 0
M  V30 5977 C 568.641 -1.21874 -3.40337 0
M  V30 5978 O 568.362 -2.60883 -3.51954 0
M  V30 5979 C 569.863 -0.992796 -4.3204 0
M  V30 5980 H 567.083 -0.296007 -0.60218 0
M  V30 5981 H 569.627 -1.43073 -1.46117 0
M  V30 5982 H 567.782 -0.651103 -3.81889 0
M  V30 5983 H 568.196 -2.77216 -4.45255 0
M  V30 5984 H 569.67 -1.32215 -5.35932 0
M  V30 5985 H 570.147 0.0708331 -4.39143 0
M  V30 5986 H 570.753 -1.54537 -3.9623 0
M  V30 5987 N 569.068 1.32177 -0.85831 0
M  V30 5988 C 570.296 2.01313 -0.477582 0
M  V30 5989 C 570.711 1.6449 0.926736 0
M  V30 5990 O 570.068 0.868096 1.60531 0
M  V30 5991 C 570.119 3.56293 -0.611337 0
M  V30 5992 O 569.84 3.91794 -1.96034 0
M  V30 5993 C 571.341 4.42702 -0.230093 0
M  V30 5994 H 568.561 0.644323 -0.187322 0
M  V30 5995 H 571.105 1.68674 -1.15626 0
M  V30 5996 H 569.26 3.87395 0.0196494 0
M  V30 5997 H 569.674 4.86513 -1.95973 0
M  V30 5998 H 571.148 5.50727 -0.374674 0
M  V30 5999 H 571.625 4.3129 0.829779 0
M  V30 6000 H 572.231 4.16997 -0.836302 0
M  V30 6001 N 570.547 0.616602 1.45037 0
M  V30 6002 C 571.777 0.121791 2.06241 0
M  V30 6003 C 572.185 -1.20289 1.46038 0
M  V30 6004 O 571.528 -1.7456 0.572242 0
M  V30 6005 C 571.59 -0.0827345 3.59405 0
M  V30 6006 C 571.254 1.16153 4.41993 0
M  V30 6007 C 572.251 2.08183 4.76399 0
M  V30 6008 C 569.936 1.39288 4.82601 0
M  V30 6009 C 571.93 3.21668 5.5028 0
M  V30 6010 C 569.617 2.53073 5.56235 0
M  V30 6011 C 570.615 3.44091 5.89992 0
M  V30 6012 O 570.303 4.55894 6.6213 0
M  V30 6013 H 570.035 0.0701667 0.672349 0
M  V30 6014 H 572.589 0.846877 1.87129 0
M  V30 6015 H 570.819 -0.862812 3.76952 0
M  V30 6016 H 572.508 -0.530273 4.02421 0
M  V30 6017 H 573.274 1.91538 4.45576 0
M  V30 6018 H 569.153 0.693396 4.55755 0
M  V30 6019 H 572.697 3.92733 5.76547 0
M  V30 6020 H 568.594 2.69667 5.86472 0
M  V30 6021 H 569.362 4.5469 6.80587 0
M  V30 6022 N 572.025 -1.5352 0.356285 0
M  V30 6023 C 573.302 -1.93405 -0.292223 0
M  V30 6024 C 573.682 -1.28901 -1.67176 0
M  V30 6025 O 573.03 -0.444632 -2.24132 0
M  V30 6026 C 573.24 -3.47223 -0.35175 0
M  V30 6027 C 574.588 -4.20389 -0.596534 0
M  V30 6028 O 575.612 -3.53554 -0.433344 0
M  V30 6029 O 574.471 -5.3881 -0.913589 0
M  V30 6030 H 571.565 -0.808666 -0.173172 0
M  V30 6031 H 574.111 -1.64713 0.408391 0
M  V30 6032 H 572.883 -3.86423 0.615841 0
M  V30 6033 H 572.506 -3.8212 -1.09864 0
M  V30 6034 N 573.503 -0.0852151 -1.57369 0
M  V30 6035 C 574.914 0.445428 -1.81309 0
M  V30 6036 C 575.265 1.68795 -1.00013 0
M  V30 6037 O 574.39 2.15211 -0.226573 0
M  V30 6038 C 574.985 0.814887 -3.28854 0
M  V30 6039 C 573.544 1.29032 -3.53592 0
M  V30 6040 C 572.691 0.282089 -2.75861 0
M  V30 6041 H 575.642 -0.310771 -1.55627 0
M  V30 6042 H 575.663 1.67524 -3.41637 0
M  V30 6043 H 575.175 -0.0896309 -3.87996 0
M  V30 6044 H 573.276 2.21289 -2.9977 0
M  V30 6045 H 573.389 1.25898 -4.62262 0
M  V30 6046 H 571.753 0.762182 -2.43029 0
M  V30 6047 H 572.536 -0.614936 -3.37748 0
M  V30 6048 N 574.981 1.5647 0.188427 0
M  V30 6049 C 575.914 1.90146 1.26173 0
M  V30 6050 C 576.892 0.762294 1.43624 0
M  V30 6051 O 578.076 1.01395 1.58907 0
M  V30 6052 C 575.203 2.13748 2.62735 0
M  V30 6053 C 574.249 3.36448 2.62116 0
M  V30 6054 S 575.082 4.91364 2.12889 0
M  V30 6055 C 576.238 5.18041 3.51261 0
M  V30 6056 H 576.471 2.80886 0.974192 0
M  V30 6057 H 574.004 1.49335 0.392226 0
M  V30 6058 H 575.962 2.28028 3.41341 0
M  V30 6059 H 574.623 1.23747 2.88696 0
M  V30 6060 H 573.816 3.50109 3.62546 0
M  V30 6061 H 573.418 3.21196 1.91596 0
M  V30 6062 H 575.71 5.0897 4.47164 0
M  V30 6063 H 576.653 6.19764 3.42489 0
M  V30 6064 H 577.061 4.45657 3.46482 0
M  V30 6065 N 576.459 -0.456382 1.50847 0
M  V30 6066 C 577.389 -1.56025 1.73719 0
M  V30 6067 C 578.37 -1.5967 0.586473 0
M  V30 6068 O 579.555 -1.75702 0.827185 0
M  V30 6069 C 576.685 -2.94251 1.84483 0
M  V30 6070 C 575.639 -3.05471 2.99786 0
M  V30 6071 C 574.965 -4.45489 2.95709 0
M  V30 6072 C 576.265 -2.81318 4.40065 0
M  V30 6073 H 577.959 -1.37138 2.66146 0
M  V30 6074 H 575.505 -0.658299 1.28072 0
M  V30 6075 H 577.458 -3.71417 1.99067 0
M  V30 6076 H 576.182 -3.14328 0.886891 0
M  V30 6077 H 574.841 -2.30741 2.84876 0
M  V30 6078 H 574.489 -4.62505 1.97732 0
M  V30 6079 H 574.189 -4.53929 3.73125 0
M  V30 6080 H 575.713 -5.24655 3.12362 0
M  V30 6081 H 577.127 -3.48226 4.55425 0
M  V30 6082 H 575.524 -3.01188 5.19043 0
M  V30 6083 H 576.594 -1.7706 4.51418 0
M  V30 6084 N 577.937 -1.40673 -0.710563 0
M  V30 6085 C 578.884 -1.41336 -1.82463 0
M  V30 6086 C 579.854 -0.269648 -1.63897 0
M  V30 6087 O 581.039 -0.468463 -1.8496 0
M  V30 6088 C 578.179 -1.28665 -3.20218 0
M  V30 6089 C 577.292 -2.52784 -3.5032 0
M  V30 6090 C 576.427 -2.32517 -4.77608 0
M  V30 6091 C 575.466 -3.52187 -5.0063 0
M  V30 6092 N 574.603 -3.31084 -6.19135 0
M  V30 6093 H 579.443 -2.36558 -1.8123 0
M  V30 6094 H 576.98 -1.17483 -0.885226 0
M  V30 6095 H 578.938 -1.19324 -3.99772 0
M  V30 6096 H 577.568 -0.370602 -3.20666 0
M  V30 6097 H 576.62 -2.72634 -2.65283 0
M  V30 6098 H 577.932 -3.41845 -3.63241 0
M  V30 6099 H 577.086 -2.20558 -5.65189 0
M  V30 6100 H 575.825 -1.40889 -4.66906 0
M  V30 6101 H 574.83 -3.64617 -4.11502 0
M  V30 6102 H 576.055 -4.44749 -5.13201 0
M  V30 6103 H 574.001 -2.42143 -6.09674 0
M  V30 6104 H 573.918 -4.13713 -6.32754 0
M  V30 6105 H 575.186 -3.22868 -7.0949 0
M  V30 6106 N 579.415 0.9433 -1.26252 0
M  V30 6107 C 580.661 1.69175 -1.11837 0
M  V30 6108 C 580.994 1.91238 0.337891 0
M  V30 6109 O 580.269 1.49152 1.24836 0
M  V30 6110 C 580.552 3.06783 -1.88563 0
M  V30 6111 C 580.405 2.9206 -3.42083 0
M  V30 6112 C 581.724 4.06865 -1.67776 0
M  V30 6113 H 578.843 0.61399 -0.407658 0
M  V30 6114 H 581.485 1.09572 -1.55222 0
M  V30 6115 H 579.635 3.57663 -1.51689 0
M  V30 6116 H 581.307 2.48419 -3.88698 0
M  V30 6117 H 579.55 2.27731 -3.69217 0
M  V30 6118 H 580.221 3.89651 -3.90994 0
M  V30 6119 H 582.697 3.64939 -1.99897 0
M  V30 6120 H 581.573 5.01168 -2.23879 0
M  V30 6121 H 581.834 4.37705 -0.621816 0
M  V30 6122 N 580.893 1.08022 1.14757 0
M  V30 6123 C 582.17 0.720386 1.81851 0
M  V30 6124 C 582.55 -0.796375 1.95502 0
M  V30 6125 O 581.898 -1.71339 1.51179 0
M  V30 6126 C 582.108 1.44273 3.17783 0
M  V30 6127 C 583.456 1.59925 3.93331 0
M  V30 6128 O 584.48 1.40407 3.2736 0
M  V30 6129 O 583.339 1.92096 5.11626 0
M  V30 6130 H 580.433 0.257142 0.786007 0
M  V30 6131 H 582.979 1.18155 1.21809 0
M  V30 6132 H 581.751 2.47618 3.02987 0
M  V30 6133 H 581.374 0.97279 3.85516 0
M  V30 6134 N 582.371 -1.3172 0.865308 0
M  V30 6135 C 583.648 -1.91574 0.394789 0
M  V30 6136 C 584.028 -1.78769 -1.12271 0
M  V30 6137 O 583.376 -1.19245 -1.94918 0
M  V30 6138 C 583.586 -3.37957 0.870982 0
M  V30 6139 C 584.934 -4.15073 0.894384 0
M  V30 6140 O 585.958 -3.4672 0.816325 0
M  V30 6141 O 584.817 -5.37151 1.00651 0
M  V30 6142 H 581.911 -0.818649 0.117229 0
M  V30 6143 H 584.457 -1.4042 0.952913 0
M  V30 6144 H 583.229 -3.41269 1.91444 0
M  V30 6145 H 582.852 -3.96534 0.290907 0
M  V30 6146 N 583.85 -0.624285 -1.44708 0
M  V30 6147 C 585.075 -0.131171 -2.06985 0
M  V30 6148 C 585.5 1.18234 -1.46295 0
M  V30 6149 O 584.858 1.72375 -0.561842 0
M  V30 6150 C 584.906 -0.0226724 -3.60593 0
M  V30 6151 O 584.01 1.02314 -3.99507 0
M  V30 6152 H 583.351 -0.0816556 -0.65896 0
M  V30 6153 H 585.88 -0.859027 -1.85693 0
M  V30 6154 H 585.891 0.170138 -4.07645 0
M  V30 6155 H 584.566 -0.981685 -4.04148 0
M  V30 6156 H 583.143 0.805452 -3.64097 0
M  V30 6157 N 585.328 1.53329 -0.364422 0
M  V30 6158 C 586.276 2.27212 0.497737 0
M  V30 6159 C 587.27 1.30146 1.08437 0
M  V30 6160 O 588.476 1.47778 1.0277 0
M  V30 6161 H 584.851 0.730329 0.179232 0
M  V30 6162 H 586.822 2.98037 -0.147182 0
M  V30 6163 C 585.571 3.07333 1.6261 0
M  V30 6164 H 584.894 3.81866 1.184 0
M  V30 6165 H 586.334 3.62209 2.20409 0
M  V30 6166 C 584.793 2.18102 2.56775 0
M  V30 6167 O 585.323 1.79104 3.59562 0
M  V30 6168 N 583.529 1.82759 2.25937 0
M  V30 6169 H 583.076 2.14671 1.42387 0
M  V30 6170 H 583.034 1.23342 2.89196 0
M  V30 6171 N 586.806 0.0935595 1.57322 0
M  V30 6172 C 588.034 -0.578934 1.98635 0
M  V30 6173 C 588.449 -1.61819 0.972626 0
M  V30 6174 O 587.806 -1.82461 -0.0379638 0
M  V30 6175 C 587.857 -1.22802 3.40003 0
M  V30 6176 O 587.578 -0.230334 4.37494 0
M  V30 6177 C 589.079 -1.98627 3.96311 0
M  V30 6178 H 586.299 -0.155324 0.652775 0
M  V30 6179 H 588.843 0.172393 2.03772 0
M  V30 6180 H 586.998 -1.93029 3.35885 0
M  V30 6181 H 587.412 -0.698649 5.19826 0
M  V30 6182 H 588.886 -2.39405 4.97382 0
M  V30 6183 H 589.363 -2.85151 3.34044 0
M  V30 6184 H 589.969 -1.3322 4.03897 0
M  V30 6185 N 588.284 -1.56567 -0.180126 0
M  V30 6186 C 589.7 -1.50488 -0.531559 0
M  V30 6187 C 589.9 -0.796267 -1.851 0
M  V30 6188 O 588.956 -0.352978 -2.50021 0
M  V30 6189 C 590.269 -2.95201 -0.572456 0
M  V30 6190 C 591.817 -3.05957 -0.660264 0
M  V30 6191 C 592.292 -4.5211 -0.732135 0
M  V30 6192 N 593.783 -4.56322 -0.795262 0
M  V30 6193 C 594.518 -5.66742 -0.871296 0
M  V30 6194 N 594.014 -6.86815 -0.908708 0
M  V30 6195 N 595.807 -5.54691 -0.909639 0
M  V30 6196 H 587.958 -2.01045 0.685165 0
M  V30 6197 H 590.221 -0.915536 0.245962 0
M  V30 6198 H 589.927 -3.50165 0.328208 0
M  V30 6199 H 589.801 -3.49369 -1.422 0
M  V30 6200 H 592.188 -2.51032 -1.55136 0
M  V30 6201 H 592.269 -2.54888 0.215783 0
M  V30 6202 H 591.913 -5.07664 0.154664 0
M  V30 6203 H 591.843 -5.00926 -1.6242 0
M  V30 6204 H 594.334 -3.69868 -0.77499 0
M  V30 6205 H 594.647 -7.66718 -0.967654 0
M  V30 6206 H 592.992 -6.89443 -0.877132 0
M  V30 6207 H 596.183 -4.59804 -0.877353 0
M  V30 6208 H 596.356 -6.40768 -0.965434 0
M  V30 6209 N 589.762 0.448376 -1.51087 0
M  V30 6210 C 591.011 1.19561 -1.62444 0
M  V30 6211 C 591.324 1.92602 -0.341151 0
M  V30 6212 O 592.53 2.69439 -0.333936 0
M  V30 6213 C 590.986 2.17373 -2.8684 0
M  V30 6214 C 590.594 1.5003 -4.22131 0
M  V30 6215 C 592.338 2.92597 -3.0755 0
M  V30 6216 C 590.245 2.46262 -5.37689 0
M  V30 6217 H 589.175 0.449975 -0.605011 0
M  V30 6218 H 591.826 0.463735 -1.77544 0
M  V30 6219 H 590.208 2.93948 -2.65349 0
M  V30 6220 H 591.382 0.790886 -4.53962 0
M  V30 6221 H 589.697 0.870011 -4.0721 0
M  V30 6222 H 592.294 3.64663 -3.91056 0
M  V30 6223 H 592.637 3.53306 -2.20183 0
M  V30 6224 H 593.17 2.23131 -3.29329 0
M  V30 6225 H 589.909 1.90258 -6.27281 0
M  V30 6226 H 589.429 3.15289 -5.10248 0
M  V30 6227 H 591.108 3.07623 -5.6919 0
M  V30 6228 N 591.24 1.41047 0.703093 0
M  V30 6229 C 592.17 1.45067 1.82969 0
M  V30 6230 C 593.151 0.31016 1.67248 0
M  V30 6231 O 594.336 0.520548 1.87093 0
M  V30 6232 C 591.466 1.32478 3.2104 0
M  V30 6233 C 590.42 2.44262 3.51454 0
M  V30 6234 C 589.746 2.16742 4.88801 0
M  V30 6235 C 591.046 3.86606 3.51189 0
M  V30 6236 H 592.74 2.39353 1.79863 0
M  V30 6237 H 590.286 1.15206 0.863919 0
M  V30 6238 H 592.239 1.33904 3.99559 0
M  V30 6239 H 590.963 0.346735 3.24754 0
M  V30 6240 H 589.622 2.42107 2.75282 0
M  V30 6241 H 589.27 1.17299 4.89132 0
M  V30 6242 H 588.97 2.91643 5.10116 0
M  V30 6243 H 590.494 2.19872 5.69639 0
M  V30 6244 H 591.908 3.90517 4.19725 0
M  V30 6245 H 590.305 4.61128 3.84033 0
M  V30 6246 H 591.375 4.15296 2.50315 0
M  V30 6247 N 592.718 -0.936591 1.26751 0
M  V30 6248 C 593.967 -1.67778 1.11953 0
M  V30 6249 C 594.28 -1.92694 -0.33589 0
M  V30 6250 O 595.486 -2.64682 -0.604618 0
M  V30 6251 C 593.942 -3.02138 1.95551 0
M  V30 6252 C 593.55 -2.84953 3.45696 0
M  V30 6253 C 595.294 -3.79917 1.89377 0
M  V30 6254 C 593.201 -4.14814 4.21525 0
M  V30 6255 H 592.131 -0.629275 0.415366 0
M  V30 6256 H 594.782 -1.04122 1.51099 0
M  V30 6257 H 593.164 -3.668 1.49243 0
M  V30 6258 H 594.338 -2.29112 3.99805 0
M  V30 6259 H 592.653 -2.20612 3.53156 0
M  V30 6260 H 595.25 -4.76134 2.43312 0
M  V30 6261 H 595.593 -4.07204 0.865464 0
M  V30 6262 H 596.126 -3.22037 2.33532 0
M  V30 6263 H 592.865 -3.92709 5.24843 0
M  V30 6264 H 592.385 -4.70352 3.72195 0
M  V30 6265 H 594.064 -4.83239 4.3022 0
M  V30 6266 N 594.196 -1.08629 -1.14182 0
M  V30 6267 C 595.444 -0.815731 -1.84906 0
M  V30 6268 C 595.765 0.660441 -1.83475 0
M  V30 6269 O 595.035 1.47888 -1.28476 0
M  V30 6270 H 593.615 -0.298773 -0.684648 0
M  V30 6271 H 596.277 -1.37274 -1.38354 0
M  V30 6272 H 595.373 -1.16193 -2.89665 0
M  V30 6273 N 595.674 1.31259 -0.872281 0
M  V30 6274 C 596.914 1.98418 -0.490894 0
M  V30 6275 C 597.278 1.67429 0.939755 0
M  V30 6276 O 598.479 2.27818 1.42661 0
M  V30 6277 C 596.75 3.49583 -0.743408 0
M  V30 6278 S 598.309 4.36359 -0.462226 0
M  V30 6279 H 595.127 0.687005 -0.183151 0
M  V30 6280 H 597.729 1.59619 -1.12881 0
M  V30 6281 H 596.433 3.69627 -1.78338 0
M  V30 6282 H 595.964 3.93291 -0.0925758 0
M  V30 6283 H 597.979 4.91173 0.704525 0
M  V30 6284 N 597.152 0.631951 1.44375 0
M  V30 6285 C 598.082 -0.0593243 2.33425 0
M  V30 6286 C 599.063 -0.833964 1.48253 0
M  V30 6287 O 600.248 -0.799682 1.76971 0
M  V30 6288 C 597.378 -1.04096 3.31333 0
M  V30 6289 C 596.332 -0.377899 4.26328 0
M  V30 6290 C 595.658 -1.4695 5.14111 0
M  V30 6291 C 596.958 0.716371 5.17364 0
M  V30 6292 H 598.652 0.684287 2.91475 0
M  V30 6293 H 596.198 0.330518 1.40156 0
M  V30 6294 H 598.151 -1.53331 3.92514 0
M  V30 6295 H 596.875 -1.81547 2.71493 0
M  V30 6296 H 595.534 0.0938054 3.6648 0
M  V30 6297 H 595.182 -2.2349 4.50623 0
M  V30 6298 H 594.882 -1.03121 5.78481 0
M  V30 6299 H 596.406 -1.96363 5.78164 0
M  V30 6300 H 597.82 0.307089 5.72477 0
M  V30 6301 H 596.217 1.07784 5.90341 0
M  V30 6302 H 597.287 1.58316 4.58327 0
M  V30 6303 N 598.631 -1.53133 0.372548 0
M  V30 6304 C 599.877 -2.01654 -0.215277 0
M  V30 6305 C 600.21 -1.25914 -1.47849 0
M  V30 6306 O 599.485 -0.3548 -1.91237 0
M  V30 6307 C 599.768 -3.56609 -0.500187 0
M  V30 6308 C 599.621 -4.43036 0.777145 0
M  V30 6309 C 600.94 -4.20528 -1.29786 0
M  V30 6310 H 598.059 -0.732991 -0.0767686 0
M  V30 6311 H 600.701 -1.83335 0.498814 0
M  V30 6312 H 598.851 -3.7235 -1.10852 0
M  V30 6313 H 600.523 -4.39079 1.41447 0
M  V30 6314 H 598.766 -4.10723 1.39604 0
M  V30 6315 H 599.437 -5.49424 0.532662 0
M  V30 6316 H 601.913 -4.08663 -0.783198 0
M  V30 6317 H 600.789 -5.28962 -1.46596 0
M  V30 6318 H 601.05 -3.77051 -2.30836 0
M  V30 6319 N 600.109 -0.101901 -1.5727 0
M  V30 6320 C 601.072 0.840129 -2.13247 0
M  V30 6321 C 602.072 1.20625 -1.06331 0
M  V30 6322 O 603.262 1.13456 -1.32186 0
M  V30 6323 C 600.394 2.13372 -2.65867 0
M  V30 6324 H 601.587 0.353945 -2.97804 0
M  V30 6325 H 599.14 0.147167 -1.55606 0
M  V30 6326 H 599.875 2.66461 -1.84849 0
M  V30 6327 H 599.66 1.88085 -3.44044 0
M  V30 6328 H 601.15 2.80748 -3.09145 0
M  V30 6329 N 601.587 1.56661 0.17182 0
M  V30 6330 C 602.836 1.81158 0.886831 0
M  V30 6331 C 603.149 0.679072 1.83434 0
M  V30 6332 O 604.355 0.808964 2.59168 0
M  V30 6333 C 602.811 3.20999 1.6275 0
M  V30 6334 C 602.419 4.42117 0.723652 0
M  V30 6335 C 604.163 3.5479 2.33076 0
M  V30 6336 C 602.07 5.7298 1.46452 0
M  V30 6337 H 601 0.675543 0.334899 0
M  V30 6338 H 603.651 1.82967 0.139765 0
M  V30 6339 H 602.033 3.13506 2.4193 0
M  V30 6340 H 603.207 4.60789 -0.0311485 0
M  V30 6341 H 601.522 4.16197 0.130063 0
M  V30 6342 H 604.119 4.49806 2.89099 0
M  V30 6343 H 604.462 2.79646 3.08389 0
M  V30 6344 H 604.995 3.63834 1.6084 0
M  V30 6345 H 601.734 6.51152 0.753729 0
M  V30 6346 H 601.254 5.58285 2.19266 0
M  V30 6347 H 602.933 6.14916 2.01214 0
M  V30 6348 N 603.065 -0.440357 1.51323 0
M  V30 6349 C 604.314 -1.18697 1.63076 0
M  V30 6350 C 604.627 -1.92418 0.35136 0
M  V30 6351 O 605.833 -2.69258 0.348221 0
M  V30 6352 C 604.289 -2.15849 2.87988 0
M  V30 6353 C 603.897 -1.47789 4.22921 0
M  V30 6354 C 605.641 -2.90962 3.09098 0
M  V30 6355 C 603.548 -2.43407 5.38987 0
M  V30 6356 H 602.478 -0.44676 0.607389 0
M  V30 6357 H 605.129 -0.454313 1.77787 0
M  V30 6358 H 603.511 -2.92537 2.66905 0
M  V30 6359 H 604.685 -0.7668 4.54375 0
M  V30 6360 H 603 -0.848404 4.07665 0
M  V30 6361 H 605.597 -3.62584 3.92985 0
M  V30 6362 H 605.94 -3.52133 2.22053 0
M  V30 6363 H 606.473 -2.21381 3.30507 0
M  V30 6364 H 603.212 -1.86929 6.28282 0
M  V30 6365 H 602.732 -3.12579 5.11913 0
M  V30 6366 H 604.411 -3.046 5.70813 0
M  V30 6367 N 604.543 -1.41418 -0.695603 0
M  V30 6368 C 605.79 -1.40774 -1.45564 0
M  V30 6369 C 606.118 -0.0168604 -1.94493 0
M  V30 6370 O 605.373 0.971259 -1.69897 0
M  V30 6371 C 605.672 -2.36112 -2.68302 0
M  V30 6372 C 605.338 -3.82952 -2.38031 0
M  V30 6373 C 604 -4.22954 -2.29486 0
M  V30 6374 C 606.352 -4.75662 -2.13061 0
M  V30 6375 C 603.68 -5.53674 -1.94067 0
M  V30 6376 C 606.032 -6.06702 -1.79151 0
M  V30 6377 C 604.696 -6.45725 -1.69102 0
M  V30 6378 H 603.966 -0.515128 -0.532658 0
M  V30 6379 H 606.613 -1.74216 -0.795047 0
M  V30 6380 H 604.918 -1.95924 -3.39295 0
M  V30 6381 H 606.615 -2.32887 -3.26442 0
M  V30 6382 H 603.205 -3.5127 -2.45576 0
M  V30 6383 H 607.389 -4.45561 -2.18608 0
M  V30 6384 H 602.645 -5.8279 -1.8484 0
M  V30 6385 H 606.819 -6.78041 -1.5885 0
M  V30 6386 H 604.446 -7.46929 -1.41426 0
M  V30 6387 N 606.021 0.929856 -1.27246 0
M  V30 6388 C 607.27 1.67182 -1.12842 0
M  V30 6389 C 607.583 1.9287 0.325666 0
M  V30 6390 O 608.789 2.64999 0.590572 0
M  V30 6391 C 607.245 3.01097 -1.97151 0
M  V30 6392 C 606.853 2.83115 -3.47203 0
M  V30 6393 C 608.597 3.78907 -1.91389 0
M  V30 6394 C 606.504 4.12573 -4.23719 0
M  V30 6395 H 605.434 0.627064 -0.418697 0
M  V30 6396 H 608.085 1.0332 -1.51649 0
M  V30 6397 H 606.467 3.66004 -1.51186 0
M  V30 6398 H 607.641 2.26989 -4.01015 0
M  V30 6399 H 605.956 2.18736 -3.54321 0
M  V30 6400 H 608.553 4.74837 -2.45834 0
M  V30 6401 H 608.896 4.0674 -0.887047 0
M  V30 6402 H 609.429 3.20794 -2.35237 0
M  V30 6403 H 606.168 3.8992 -5.26918 0
M  V30 6404 H 605.688 4.68371 -3.74685 0
M  V30 6405 H 607.367 4.8095 -4.32777 0
M  V30 6406 N 607.499 1.09233 1.13605 0
M  V30 6407 C 608.429 0.751738 2.21068 0
M  V30 6408 C 609.41 -0.269688 1.67948 0
M  V30 6409 O 610.595 -0.13819 1.93708 0
M  V30 6410 C 607.725 0.16935 3.46887 0
M  V30 6411 C 606.679 1.12007 4.13084 0
M  V30 6412 C 606.005 0.399483 5.33206 0
M  V30 6413 C 607.305 2.46168 4.6065 0
M  V30 6414 H 608.999 1.65024 2.49815 0
M  V30 6415 H 606.545 0.794905 1.20072 0
M  V30 6416 H 608.498 -0.0809824 4.21322 0
M  V30 6417 H 607.222 -0.764335 3.1753 0
M  V30 6418 H 605.881 1.35564 3.40614 0
M  V30 6419 H 605.529 -0.538277 5.00112 0
M  V30 6420 H 605.229 1.03337 5.78442 0
M  V30 6421 H 606.753 0.157403 6.10397 0
M  V30 6422 H 608.167 2.26829 5.26518 0
M  V30 6423 H 606.564 3.05326 5.1662 0
M  V30 6424 H 607.634 3.07076 3.75276 0
M  V30 6425 N 608.977 -1.30795 0.87923 0
M  V30 6426 C 609.907 -2.30742 0.357796 0
M  V30 6427 C 610.888 -1.60747 -0.556283 0
M  V30 6428 O 612.073 -1.88393 -0.47135 0
M  V30 6429 C 609.203 -3.44583 -0.433555 0
M  V30 6430 C 608.157 -4.26235 0.388251 0
M  V30 6431 C 607.483 -5.32073 -0.529352 0
M  V30 6432 C 608.783 -4.96303 1.62729 0
M  V30 6433 H 610.477 -2.74605 1.19299 0
M  V30 6434 H 608.023 -1.32017 0.575104 0
M  V30 6435 H 609.976 -4.13563 -0.808934 0
M  V30 6436 H 608.7 -2.99511 -1.30234 0
M  V30 6437 H 607.359 -3.58936 0.745695 0
M  V30 6438 H 607.007 -4.83249 -1.39569 0
M  V30 6439 H 606.707 -5.87598 0.0166741 0
M  V30 6440 H 608.231 -6.0391 -0.901373 0
M  V30 6441 H 609.645 -5.5783 1.32283 0
M  V30 6442 H 608.042 -5.61666 2.11309 0
M  V30 6443 H 609.112 -4.22758 2.37494 0
M  V30 6444 N 610.455 -0.639598 -1.44038 0
M  V30 6445 C 611.418 0.0506628 -2.29144 0
M  V30 6446 C 612.418 0.764001 -1.41491 0
M  V30 6447 O 613.608 0.607309 -1.63271 0
M  V30 6448 C 610.74 1.0824 -3.2326 0
M  V30 6449 H 611.933 -0.697987 -2.91664 0
M  V30 6450 H 609.486 -0.400146 -1.51091 0
M  V30 6451 H 610.221 1.86075 -2.65606 0
M  V30 6452 H 610.006 0.574725 -3.87865 0
M  V30 6453 H 611.496 1.56487 -3.87171 0
M  V30 6454 N 611.933 1.52934 -0.380664 0
M  V30 6455 C 613.182 2.00651 0.205477 0
M  V30 6456 C 613.495 1.27164 1.48623 0
M  V30 6457 O 614.701 1.65547 2.15189 0
M  V30 6458 C 613.157 3.57479 0.416726 0
M  V30 6459 C 612.765 4.39857 -0.850268 0
M  V30 6460 C 614.509 4.13509 0.959702 0
M  V30 6461 C 612.416 5.88269 -0.607773 0
M  V30 6462 H 611.346 0.749684 0.0805614 0
M  V30 6463 H 613.997 1.76508 -0.501732 0
M  V30 6464 H 612.379 3.77836 1.18557 0
M  V30 6465 H 613.553 4.31269 -1.62307 0
M  V30 6466 H 611.868 3.95005 -1.31756 0
M  V30 6467 H 614.465 5.22039 1.15669 0
M  V30 6468 H 614.808 3.69054 1.92626 0
M  V30 6469 H 615.341 3.9701 0.250645 0
M  V30 6470 H 612.08 6.3703 -1.54509 0
M  V30 6471 H 611.6 5.99667 0.126247 0
M  V30 6472 H 613.279 6.46558 -0.239014 0
M  V30 6473 N 613.412 0.11024 1.57214 0
M  V30 6474 C 614.661 -0.549638 1.94067 0
M  V30 6475 C 614.974 -1.68388 0.995234 0
M  V30 6476 O 616.18 -2.40593 1.25807 0
M  V30 6477 C 614.636 -1.02912 3.44873 0
M  V30 6478 C 614.244 0.0761861 4.47935 0
M  V30 6479 C 615.988 -1.66087 3.9066 0
M  V30 6480 C 613.895 -0.419502 5.8991 0
M  V30 6481 H 612.825 -0.209092 0.724428 0
M  V30 6482 H 615.476 0.188683 1.82527 0
M  V30 6483 H 613.858 -1.82159 3.51616 0
M  V30 6484 H 615.032 0.852185 4.52851 0
M  V30 6485 H 613.347 0.614052 4.11847 0
M  V30 6486 H 615.944 -2.04272 4.94143 0
M  V30 6487 H 616.287 -2.53591 3.30148 0
M  V30 6488 H 616.82 -0.933959 3.86681 0
M  V30 6489 H 613.559 0.419277 6.54158 0
M  V30 6490 H 613.079 -1.16217 5.88433 0
M  V30 6491 H 614.758 -0.883577 6.40938 0
M  V30 6492 N 614.89 -1.56749 -0.16351 0
M  V30 6493 C 616.136 -1.82704 -0.880168 0
M  V30 6494 C 616.469 -0.689311 -1.81555 0
M  V30 6495 O 615.744 0.308224 -1.92042 0
M  V30 6496 C 616.027 -3.19084 -1.66905 0
M  V30 6497 C 615.88 -4.43397 -0.756269 0
M  V30 6498 C 617.199 -3.52493 -2.63509 0
M  V30 6499 H 614.318 -0.664608 -0.318535 0
M  V30 6500 H 616.96 -1.89438 -0.146036 0
M  V30 6501 H 615.11 -3.13475 -2.2949 0
M  V30 6502 H 616.782 -4.61079 -0.14269 0
M  V30 6503 H 615.025 -4.33752 -0.0647944 0
M  V30 6504 H 615.696 -5.3539 -1.34393 0
M  V30 6505 H 618.172 -3.58606 -2.11047 0
M  V30 6506 H 617.048 -4.48979 -3.15767 0
M  V30 6507 H 617.309 -2.77597 -3.44082 0
M  V30 6508 N 616.368 0.432326 -1.51554 0
M  V30 6509 C 617.617 1.17831 -1.63703 0
M  V30 6510 C 617.93 1.92229 -0.36156 0
M  V30 6511 O 619.136 2.69069 -0.362495 0
M  V30 6512 C 617.592 2.14318 -2.89129 0
M  V30 6513 C 617.2 1.45544 -4.23699 0
M  V30 6514 C 618.944 2.89319 -3.10636 0
M  V30 6515 C 616.851 2.40545 -5.4027 0
M  V30 6516 H 615.781 0.443533 -0.60975 0
M  V30 6517 H 618.432 0.444878 -1.78026 0
M  V30 6518 H 616.814 2.91117 -2.68452 0
M  V30 6519 H 617.988 0.742693 -4.54775 0
M  V30 6520 H 616.303 0.826772 -4.0811 0
M  V30 6521 H 618.9 3.60495 -3.94902 0
M  V30 6522 H 619.243 3.50951 -2.23918 0
M  V30 6523 H 619.776 2.19625 -3.31677 0
M  V30 6524 H 616.515 1.83594 -6.29264 0
M  V30 6525 H 616.035 3.09859 -5.13563 0
M  V30 6526 H 617.714 3.01569 -5.72421 0
M  V30 6527 N 617.846 1.41785 0.688094 0
M  V30 6528 C 619.095 1.4084 1.44385 0
M  V30 6529 C 619.408 0.0234166 1.95586 0
M  V30 6530 O 620.614 -0.108647 2.71283 0
M  V30 6531 C 619.07 2.47675 2.61123 0
M  V30 6532 C 618.678 3.92116 2.16677 0
M  V30 6533 C 620.422 2.55877 3.38714 0
M  V30 6534 C 618.329 4.90487 3.30419 0
M  V30 6535 H 617.259 0.523787 0.542368 0
M  V30 6536 H 619.91 1.6764 0.74627 0
M  V30 6537 H 618.292 2.14018 3.33185 0
M  V30 6538 H 619.466 4.35059 1.51856 0
M  V30 6539 H 617.781 3.87642 1.5206 0
M  V30 6540 H 620.378 3.26553 4.234 0
M  V30 6541 H 620.721 1.59801 3.84408 0
M  V30 6542 H 621.254 2.88662 2.73714 0
M  V30 6543 H 617.993 5.87994 2.89729 0
M  V30 6544 H 617.513 4.52187 3.94065 0
M  V30 6545 H 619.192 5.11591 3.96085 0
M  V30 6546 N 619.324 -0.923095 1.27737 0
M  V30 6547 C 620.254 -2.04124 1.13383 0
M  V30 6548 C 621.235 -1.70066 0.0340658 0
M  V30 6549 O 622.42 -1.93068 0.209383 0
M  V30 6550 C 619.55 -3.3831 0.785097 0
M  V30 6551 C 618.504 -3.86496 1.8386 0
M  V30 6552 C 617.83 -5.1754 1.34373 0
M  V30 6553 C 619.13 -4.09381 3.24353 0
M  V30 6554 H 620.824 -2.1639 2.06919 0
M  V30 6555 H 618.37 -1.03976 0.996243 0
M  V30 6556 H 620.323 -4.16016 0.671485 0
M  V30 6557 H 619.047 -3.2607 -0.185969 0
M  V30 6558 H 617.706 -3.10987 1.9412 0
M  V30 6559 H 617.354 -5.01696 0.361989 0
M  V30 6560 H 617.054 -5.50751 2.04811 0
M  V30 6561 H 618.578 -5.97811 1.24315 0
M  V30 6562 H 619.992 -4.77641 3.17067 0
M  V30 6563 H 618.389 -4.53906 3.92542 0
M  V30 6564 H 619.459 -3.14515 3.69064 0
M  V30 6565 N 620.802 -1.09834 -1.13024 0
M  V30 6566 C 622.048 -0.848072 -1.84876 0
M  V30 6567 C 622.403 0.619663 -1.82148 0
M  V30 6568 O 621.696 1.45067 -1.25164 0
M  V30 6569 C 621.89 -1.32263 -3.32026 0
M  V30 6570 C 621.719 -2.83497 -3.49084 0
M  V30 6571 C 620.489 -3.51425 -3.63082 0
M  V30 6572 C 622.687 -3.81623 -3.44773 0
M  V30 6573 N 620.669 -4.91042 -3.68443 0
M  V30 6574 C 622.04 -5.07217 -3.56555 0
M  V30 6575 C 624.095 -3.74419 -3.282 0
M  V30 6576 C 622.798 -6.26457 -3.53474 0
M  V30 6577 C 624.824 -4.93151 -3.26429 0
M  V30 6578 C 624.186 -6.1759 -3.38765 0
M  V30 6579 H 620.285 -0.363249 -0.692513 0
M  V30 6580 H 622.869 -1.39952 -1.35357 0
M  V30 6581 H 621.04 -0.79858 -3.80102 0
M  V30 6582 H 622.772 -1.01725 -3.91707 0
M  V30 6583 H 619.527 -3.0186 -3.64935 0
M  V30 6584 H 619.951 -5.63782 -3.74805 0
M  V30 6585 H 624.593 -2.79132 -3.17561 0
M  V30 6586 H 622.311 -7.22039 -3.62884 0
M  V30 6587 H 625.897 -4.8928 -3.14796 0
M  V30 6588 H 624.777 -7.07925 -3.37361 0
M  V30 6589 N 622.28 1.30327 -0.886154 0
M  V30 6590 C 623.696 1.48676 -0.580323 0
M  V30 6591 C 623.896 1.81189 0.881639 0
M  V30 6592 O 622.952 1.90021 1.66278 0
M  V30 6593 C 624.265 2.60932 -1.49449 0
M  V30 6594 C 625.813 2.74812 -1.49824 0
M  V30 6595 C 626.288 3.90183 -2.39836 0
M  V30 6596 N 627.779 3.97495 -2.37806 0
M  V30 6597 C 628.514 4.86078 -3.04165 0
M  V30 6598 N 628.01 5.79448 -3.79753 0
M  V30 6599 N 629.803 4.79456 -2.93391 0
M  V30 6600 H 621.954 1.07495 -1.8319 0
M  V30 6601 H 624.217 0.532661 -0.784204 0
M  V30 6602 H 623.923 2.43731 -2.5355 0
M  V30 6603 H 623.797 3.57437 -1.20494 0
M  V30 6604 H 626.184 2.91418 -0.464731 0
M  V30 6605 H 626.265 1.78924 -1.82811 0
M  V30 6606 H 625.909 3.74334 -3.43273 0
M  V30 6607 H 625.839 4.85411 -2.04166 0
M  V30 6608 H 628.33 3.30703 -1.82877 0
M  V30 6609 H 628.643 6.43805 -4.27475 0
M  V30 6610 H 626.988 5.79376 -3.8386 0
M  V30 6611 H 630.179 4.05494 -2.33864 0
M  V30 6612 H 630.352 5.48283 -3.45383 0
M  V30 6613 N 623.758 0.647228 1.43697 0
M  V30 6614 C 624.69 -0.0866232 2.29036 0
M  V30 6615 C 625.703 -0.793051 1.42178 0
M  V30 6616 O 626.892 -0.651807 1.66174 0
M  V30 6617 C 623.992 -1.14552 3.18953 0
M  V30 6618 C 623.165 -0.518422 4.34317 0
M  V30 6619 C 622.224 -1.4734 5.05151 0
M  V30 6620 O 621.25 -0.984312 5.60625 0
M  V30 6621 N 622.452 -2.8075 5.08094 0
M  V30 6622 H 625.217 0.645834 2.92659 0
M  V30 6623 H 622.778 0.489567 1.54321 0
M  V30 6624 H 624.77 -1.78505 3.63205 0
M  V30 6625 H 623.34 -1.78001 2.56971 0
M  V30 6626 H 622.56 0.300079 3.93056 0
M  V30 6627 H 623.848 -0.080401 5.08736 0
M  V30 6628 H 623.246 -3.23052 4.64386 0
M  V30 6629 H 621.803 -3.40022 5.56083 0
M  V30 6630 N 625.236 -1.5273 0.388769 0
M  V30 6631 C 626.483 -2.01573 -0.19359 0
M  V30 6632 C 626.811 -1.27525 -1.46859 0
M  V30 6633 O 626.066 -0.363926 -1.92286 0
M  V30 6634 C 626.365 -3.53765 -0.508445 0
M  V30 6635 C 626.031 -4.4582 0.674947 0
M  V30 6636 C 624.693 -4.70703 0.999596 0
M  V30 6637 C 627.045 -5.00138 1.46666 0
M  V30 6638 C 624.373 -5.47155 2.11751 0
M  V30 6639 C 626.725 -5.77812 2.57518 0
M  V30 6640 C 625.389 -6.00975 2.90492 0
M  V30 6641 H 624.659 -0.737606 -0.0708397 0
M  V30 6642 H 627.306 -1.84134 0.526006 0
M  V30 6643 H 625.611 -3.69274 -1.30936 0
M  V30 6644 H 627.308 -3.8905 -0.971664 0
M  V30 6645 H 623.898 -4.26616 0.411906 0
M  V30 6646 H 628.082 -4.8084 1.22909 0
M  V30 6647 H 623.338 -5.63314 2.3767 0
M  V30 6648 H 627.512 -6.18904 3.19267 0
M  V30 6649 H 625.139 -6.59998 3.77236 0
M  V30 6650 N 626.714 -0.118576 -1.57153 0
M  V30 6651 C 627.96 0.534078 -1.96263 0
M  V30 6652 C 628.315 1.64316 -1.0009 0
M  V30 6653 O 627.608 1.91575 -0.0308582 0
M  V30 6654 C 627.802 1.11303 -3.39627 0
M  V30 6655 C 627.631 0.0615624 -4.49658 0
M  V30 6656 C 626.401 -0.370103 -5.03943 0
M  V30 6657 C 628.599 -0.719249 -5.09246 0
M  V30 6658 N 626.581 -1.40738 -5.9755 0
M  V30 6659 C 627.952 -1.60774 -5.98792 0
M  V30 6660 C 630.007 -0.770183 -4.91907 0
M  V30 6661 C 628.71 -2.54272 -6.72858 0
M  V30 6662 C 630.736 -1.69288 -5.66653 0
M  V30 6663 C 630.098 -2.56894 -6.55885 0
M  V30 6664 H 626.197 0.165072 -0.764379 0
M  V30 6665 H 628.781 -0.206596 -1.93601 0
M  V30 6666 H 626.952 1.82342 -3.42937 0
M  V30 6667 H 628.684 1.72996 -3.65861 0
M  V30 6668 H 625.439 0.0222121 -4.73595 0
M  V30 6669 H 625.863 -1.92493 -6.49057 0
M  V30 6670 H 630.505 -0.106999 -4.22665 0
M  V30 6671 H 628.223 -3.21605 -7.41347 0
M  V30 6672 H 631.809 -1.73772 -5.55243 0
M  V30 6673 H 630.689 -3.27131 -7.1271 0
M  V30 6674 N 628.193 1.56834 0.155195 0
M  V30 6675 C 629.125 1.94235 1.21677 0
M  V30 6676 C 630.138 0.83724 1.39621 0
M  V30 6677 O 631.327 1.11567 1.39338 0
M  V30 6678 C 628.427 2.19402 2.58294 0
M  V30 6679 C 627.6 3.50671 2.61436 0
M  V30 6680 C 626.659 3.64475 3.79532 0
M  V30 6681 O 625.685 4.36945 3.64784 0
M  V30 6682 N 626.887 3.00526 4.96653 0
M  V30 6683 H 629.652 2.85901 0.898932 0
M  V30 6684 H 627.213 1.58185 0.34483 0
M  V30 6685 H 629.205 2.25886 3.35794 0
M  V30 6686 H 627.775 1.34042 2.82403 0
M  V30 6687 H 626.995 3.55702 1.69912 0
M  V30 6688 H 628.283 4.3702 2.60559 0
M  V30 6689 H 627.681 2.41549 5.11538 0
M  V30 6690 H 626.238 3.12583 5.71958 0
M  V30 6691 N 629.671 -0.424282 1.51781 0
M  V30 6692 C 630.618 -1.51591 1.74037 0
M  V30 6693 C 631.588 -1.55556 0.582358 0
M  V30 6694 O 632.773 -1.72364 0.818245 0
M  V30 6695 C 629.913 -2.89188 1.8832 0
M  V30 6696 C 629.026 -2.9465 3.1592 0
M  V30 6697 C 628.161 -4.23452 3.20721 0
M  V30 6698 C 627.2 -4.22831 4.42584 0
M  V30 6699 N 626.337 -5.43178 4.44862 0
M  V30 6700 H 631.177 -1.31917 2.67212 0
M  V30 6701 H 628.714 -0.640599 1.32419 0
M  V30 6702 H 630.672 -3.69044 1.94583 0
M  V30 6703 H 629.302 -3.07392 0.985402 0
M  V30 6704 H 628.354 -2.07378 3.18902 0
M  V30 6705 H 629.666 -2.90055 4.05795 0
M  V30 6706 H 628.82 -5.1169 3.25973 0
M  V30 6707 H 627.559 -4.30722 2.28757 0
M  V30 6708 H 626.564 -3.32984 4.37495 0
M  V30 6709 H 627.789 -4.17213 5.35826 0
M  V30 6710 H 625.735 -5.51145 3.55775 0
M  V30 6711 H 625.652 -5.40515 5.28563 0
M  V30 6712 H 626.92 -6.33412 4.54324 0
M  V30 6713 N 631.149 -1.42148 -0.680565 0
M  V30 6714 C 632.082 -1.39602 -1.80517 0
M  V30 6715 C 633.06 -0.261098 -1.6049 0
M  V30 6716 O 634.244 -0.450404 -1.8304 0
M  V30 6717 C 631.371 -1.18134 -3.1743 0
M  V30 6718 C 630.417 -2.34543 -3.56219 0
M  V30 6719 S 631.25 -3.97063 -3.59306 0
M  V30 6720 C 632.406 -3.77926 -4.98921 0
M  V30 6721 H 632.639 -2.3477 -1.82402 0
M  V30 6722 H 630.172 -1.28851 -0.850691 0
M  V30 6723 H 632.13 -1.06434 -3.96462 0
M  V30 6724 H 630.791 -0.245611 -3.13138 0
M  V30 6725 H 629.984 -2.15255 -4.55721 0
M  V30 6726 H 629.586 -2.42728 -2.84533 0
M  V30 6727 H 631.878 -3.3856 -5.86842 0
M  V30 6728 H 632.821 -4.77084 -5.23256 0
M  V30 6729 H 633.229 -3.10904 -4.71167 0
M  V30 6730 N 632.627 0.916307 -1.28225 0
M  V30 6731 C 633.557 2.0352 -1.14464 0
M  V30 6732 C 634.538 1.70045 -0.0430844 0
M  V30 6733 O 635.723 1.92954 -0.219619 0
M  V30 6734 C 632.853 3.37889 -0.803027 0
M  V30 6735 C 631.807 3.85516 -1.85908 0
M  V30 6736 C 631.133 5.1682 -1.37116 0
M  V30 6737 C 632.433 4.07655 -3.26519 0
M  V30 6738 H 634.127 2.1529 -2.08064 0
M  V30 6739 H 631.673 1.03446 -1.00174 0
M  V30 6740 H 633.626 4.15654 -0.693537 0
M  V30 6741 H 632.35 3.26164 0.168674 0
M  V30 6742 H 631.009 3.09953 -1.95767 0
M  V30 6743 H 630.657 5.01497 -0.38859 0
M  V30 6744 H 630.357 5.49657 -2.07728 0
M  V30 6745 H 631.881 5.97143 -1.27484 0
M  V30 6746 H 633.295 4.75953 -3.19596 0
M  V30 6747 H 631.692 4.51818 -3.94943 0
M  V30 6748 H 632.762 3.12553 -3.70727 0
M  V30 6749 N 634.105 1.10431 1.1244 0
M  V30 6750 C 635.015 0.765502 2.21759 0
M  V30 6751 C 636.031 -0.236966 1.72379 0
M  V30 6752 O 637.207 -0.0757329 2.01258 0
M  V30 6753 C 634.272 0.202316 3.46109 0
M  V30 6754 C 633.333 1.26205 4.1033 0
M  V30 6755 C 632.566 0.725648 5.28744 0
M  V30 6756 O 632.789 -0.447942 5.68638 0
M  V30 6757 O 631.723 1.48555 5.83279 0
M  V30 6758 H 635.549 1.67801 2.53133 0
M  V30 6759 H 633.134 0.879443 1.20773 0
M  V30 6760 H 635.016 -0.107918 4.21262 0
M  V30 6761 H 633.691 -0.683052 3.16411 0
M  V30 6762 H 632.598 1.62514 3.36957 0
M  V30 6763 H 633.931 2.12044 4.44183 0
M  V30 6764 N 635.583 -1.29855 0.893053 0
M  V30 6765 C 636.53 -2.27909 0.364161 0
M  V30 6766 C 637.5 -1.56726 -0.550093 0
M  V30 6767 O 638.685 -1.84747 -0.47677 0
M  V30 6768 C 635.825 -3.42678 -0.408178 0
M  V30 6769 C 634.938 -4.28659 0.536212 0
M  V30 6770 C 634.073 -5.30599 -0.252521 0
M  V30 6771 C 633.112 -6.08234 0.686822 0
M  V30 6772 N 632.249 -7.02068 -0.0670902 0
M  V30 6773 H 637.089 -2.72531 1.20544 0
M  V30 6774 H 634.626 -1.34047 0.605779 0
M  V30 6775 H 636.584 -4.07986 -0.871962 0
M  V30 6776 H 635.214 -2.99103 -1.21397 0
M  V30 6777 H 634.266 -3.63584 1.1185 0
M  V30 6778 H 635.578 -4.8274 1.25552 0
M  V30 6779 H 634.732 -6.01694 -0.777801 0
M  V30 6780 H 633.471 -4.77233 -1.005 0
M  V30 6781 H 632.476 -5.3601 1.22366 0
M  V30 6782 H 633.701 -6.63689 1.43852 0
M  V30 6783 H 631.647 -6.5108 -0.801955 0
M  V30 6784 H 631.564 -7.53675 0.59243 0
M  V30 6785 H 632.832 -7.77392 -0.572851 0
M  V30 6786 N 637.061 -0.65484 -1.43351 0
M  V30 6787 C 638.024 0.0263562 -2.29185 0
M  V30 6788 C 639.024 0.748951 -1.42293 0
M  V30 6789 O 640.214 0.589957 -1.63906 0
M  V30 6790 C 637.346 1.04806 -3.2439 0
M  V30 6791 H 638.539 -0.728883 -2.90908 0
M  V30 6792 H 636.092 -0.416149 -1.50658 0
M  V30 6793 H 636.827 1.83247 -2.67565 0
M  V30 6794 H 636.612 0.533554 -3.88453 0
M  V30 6795 H 638.102 1.52372 -3.88809 0
M  V30 6796 N 638.539 1.52521 -0.396863 0
M  V30 6797 C 639.764 2.06571 0.185258 0
M  V30 6798 C 640.189 1.26605 1.39115 0
M  V30 6799 O 639.547 0.293055 1.78916 0
M  V30 6800 C 639.595 3.5674 0.526189 0
M  V30 6801 O 638.699 3.7929 1.61903 0
M  V30 6802 H 638.04 0.663712 0.0195474 0
M  V30 6803 H 640.57 1.966 -0.566519 0
M  V30 6804 H 640.58 4.00311 0.788338 0
M  V30 6805 H 639.255 4.14379 -0.355397 0
M  V30 6806 H 637.832 3.47605 1.35 0
M  V30 6807 N 640.017 0.126909 1.57088 0
M  V30 6808 C 641.433 -0.229641 1.57939 0
M  V30 6809 C 641.633 -1.66145 1.1401 0
M  V30 6810 O 640.689 -2.3843 0.831119 0
M  V30 6811 C 642.002 0.0108648 3.00698 0
M  V30 6812 C 643.55 -0.054418 3.12953 0
M  V30 6813 C 644.025 0.158497 4.57726 0
M  V30 6814 N 645.516 0.104735 4.63082 0
M  V30 6815 C 646.251 0.24427 5.72879 0
M  V30 6816 N 645.747 0.440415 6.91399 0
M  V30 6817 N 647.54 0.183286 5.61801 0
M  V30 6818 H 639.691 1.06203 1.83942 0
M  V30 6819 H 641.954 0.418834 0.85046 0
M  V30 6820 H 641.66 1.00102 3.37154 0
M  V30 6821 H 641.534 -0.717512 3.70313 0
M  V30 6822 H 643.921 -1.0351 2.7635 0
M  V30 6823 H 644.002 0.705967 2.45865 0
M  V30 6824 H 643.646 1.13619 4.95028 0
M  V30 6825 H 643.576 -0.62197 5.22914 0
M  V30 6826 H 646.067 -0.0430298 3.77876 0
M  V30 6827 H 646.38 0.537536 7.70928 0
M  V30 6828 H 644.725 0.476488 6.93365 0
M  V30 6829 H 647.916 0.0309561 4.6809 0
M  V30 6830 H 648.089 0.295471 6.47326 0
M  V30 6831 N 641.495 -1.56914 -0.146875 0
M  V30 6832 C 642.911 -1.51582 -0.499518 0
M  V30 6833 C 643.111 -0.83535 -1.83369 0
M  V30 6834 O 642.167 -0.405932 -2.49216 0
M  V30 6835 C 643.48 -2.96349 -0.509711 0
M  V30 6836 C 645.028 -3.07288 -0.595217 0
M  V30 6837 C 645.503 -4.53562 -0.636071 0
M  V30 6838 N 646.994 -4.57906 -0.69829 0
M  V30 6839 C 647.729 -5.68462 -0.750886 0
M  V30 6840 N 647.225 -6.88588 -0.76282 0
M  V30 6841 N 649.018 -5.56496 -0.791777 0
M  V30 6842 H 641.169 -1.99547 0.727656 0
M  V30 6843 H 643.432 -0.910113 0.265327 0
M  V30 6844 H 643.138 -3.4939 0.402409 0
M  V30 6845 H 643.012 -3.52307 -1.34758 0
M  V30 6846 H 645.399 -2.54266 -1.49776 0
M  V30 6847 H 645.48 -2.54373 0.2698 0
M  V30 6848 H 645.124 -5.07222 0.262313 0
M  V30 6849 H 645.054 -5.04259 -1.51758 0
M  V30 6850 H 647.545 -3.71429 -0.696362 0
M  V30 6851 H 647.858 -7.68598 -0.804804 0
M  V30 6852 H 646.203 -6.91148 -0.730694 0
M  V30 6853 H 649.394 -4.61562 -0.779624 0
M  V30 6854 H 649.567 -6.42671 -0.829301 0
M  V30 6855 N 642.974 0.416227 -1.52004 0
M  V30 6856 C 643.907 1.52736 -1.6955 0
M  V30 6857 C 644.885 1.53264 -0.54305 0
M  V30 6858 O 646.069 1.72077 -0.769527 0
M  V30 6859 C 643.196 2.91283 -1.72835 0
M  V30 6860 C 642.242 3.08695 -2.94295 0
M  V30 6861 S 643.075 2.82758 -4.54762 0
M  V30 6862 C 644.231 4.23548 -4.60823 0
M  V30 6863 H 644.464 1.37623 -2.63528 0
M  V30 6864 H 641.997 0.607335 -1.41954 0
M  V30 6865 H 643.955 3.71134 -1.75413 0
M  V30 6866 H 642.616 3.03742 -0.799966 0
M  V30 6867 H 641.809 4.10042 -2.93056 0
M  V30 6868 H 641.411 2.36699 -2.89568 0
M  V30 6869 H 643.703 5.17078 -4.37763 0
M  V30 6870 H 644.646 4.29813 -5.62731 0
M  V30 6871 H 645.054 4.08188 -3.89927 0
M  V30 6872 N 644.452 1.42507 0.673017 0
M  V30 6873 C 645.382 1.48916 1.79851 0
M  V30 6874 C 646.363 0.345566 1.66553 0
M  V30 6875 O 647.548 0.560116 1.85947 0
M  V30 6876 C 644.678 1.39258 3.18158 0
M  V30 6877 C 643.632 2.51662 3.46194 0
M  V30 6878 C 642.958 2.27062 4.84094 0
M  V30 6879 C 644.258 3.93968 3.42909 0
M  V30 6880 H 645.952 2.43114 1.74745 0
M  V30 6881 H 643.498 1.17013 0.839288 0
M  V30 6882 H 645.451 1.42349 3.96629 0
M  V30 6883 H 644.175 0.415542 3.23946 0
M  V30 6884 H 642.834 2.47891 2.70084 0
M  V30 6885 H 642.482 1.27648 4.86534 0
M  V30 6886 H 642.182 3.02398 5.03815 0
M  V30 6887 H 643.706 2.31905 5.64847 0
M  V30 6888 H 645.12 3.99332 4.11347 0
M  V30 6889 H 643.517 4.6917 3.74165 0
M  V30 6890 H 644.587 4.20512 2.41449 0
M  V30 6891 N 645.93 -0.909495 1.28709 0
M  V30 6892 C 647.207 -1.63865 1.06806 0
M  V30 6893 C 647.587 -2.07445 -0.391143 0
M  V30 6894 O 646.935 -1.82269 -1.37805 0
M  V30 6895 C 647.145 -2.82692 2.04661 0
M  V30 6896 C 648.493 -3.5361 2.35042 0
M  V30 6897 O 649.517 -2.92847 2.02779 0
M  V30 6898 O 648.376 -4.63131 2.90124 0
M  V30 6899 H 645.47 -0.719065 0.408502 0
M  V30 6900 H 648.016 -0.958424 1.40044 0
M  V30 6901 H 646.788 -2.47614 3.0299 0
M  V30 6902 H 646.411 -3.58426 1.72095 0
M  V30 6903 N 647.408 -1.11026 -1.11852 0
M  V30 6904 C 648.685 -0.768347 -1.79877 0
M  V30 6905 C 649.065 0.744261 -1.97545 0
M  V30 6906 O 648.413 1.67271 -1.55669 0
M  V30 6907 C 648.623 -1.52648 -3.13846 0
M  V30 6908 C 649.971 -1.70297 -3.88953 0
M  V30 6909 O 650.995 -1.49037 -3.23522 0
M  V30 6910 O 649.854 -2.05593 -5.06353 0
M  V30 6911 H 646.948 -0.277891 -0.778913 0
M  V30 6912 H 649.494 -1.21343 -1.18633 0
M  V30 6913 H 648.266 -2.55564 -2.96315 0
M  V30 6914 H 647.889 -1.07466 -3.82801 0
M  V30 6915 N 648.886 1.2938 -0.899927 0
M  V30 6916 C 649.796 2.31462 -0.382437 0
M  V30 6917 C 650.812 1.65956 0.522929 0
M  V30 6918 O 651.988 1.97131 0.412454 0
M  V30 6919 C 649.053 3.44595 0.381472 0
M  V30 6920 C 648.114 4.25692 -0.555444 0
M  V30 6921 C 647.347 5.33422 0.172102 0
M  V30 6922 O 647.57 5.53053 1.396 0
M  V30 6923 O 646.504 5.99939 -0.485491 0
M  V30 6924 H 650.33 2.77706 -1.22934 0
M  V30 6925 H 647.915 1.33821 -0.664259 0
M  V30 6926 H 649.797 4.13474 0.813442 0
M  V30 6927 H 648.472 3.00458 1.20443 0
M  V30 6928 H 647.379 3.59453 -1.03653 0
M  V30 6929 H 648.712 4.73471 -1.34483 0
M  V30 6930 N 650.364 0.662433 1.43002 0
M  V30 6931 C 651.297 -0.073459 2.28082 0
M  V30 6932 C 652.275 -0.820869 1.40358 0
M  V30 6933 O 653.459 -0.818545 1.698 0
M  V30 6934 C 650.586 -1.11097 3.19961 0
M  V30 6935 C 649.632 -0.460557 4.24006 0
M  V30 6936 S 650.465 0.772717 5.29896 0
M  V30 6937 C 651.621 -0.264028 6.25343 0
M  V30 6938 H 651.854 0.648227 2.90147 0
M  V30 6939 H 649.387 0.451566 1.47649 0
M  V30 6940 H 651.345 -1.70452 3.73439 0
M  V30 6941 H 650.006 -1.80503 2.57056 0
M  V30 6942 H 649.199 -1.24299 4.88432 0
M  V30 6943 H 648.801 0.0591038 3.73953 0
M  V30 6944 H 651.093 -1.12748 6.68052 0
M  V30 6945 H 652.036 0.345443 7.07257 0
M  V30 6946 H 652.444 -0.603964 5.6126 0
M  V30 6947 N 651.842 -1.52309 0.404946 0
M  V30 6948 C 653.07 -2.06185 -0.171818 0
M  V30 6949 C 653.485 -1.27536 -1.39212 0
M  V30 6950 O 652.842 -0.326112 -1.79563 0
M  V30 6951 C 652.893 -3.57647 -0.526417 0
M  V30 6952 O 652.614 -4.3332 0.645417 0
M  V30 6953 C 654.115 -4.27925 -1.15736 0
M  V30 6954 H 651.335 -0.670632 -0.0222328 0
M  V30 6955 H 653.879 -1.96259 0.574692 0
M  V30 6956 H 652.034 -3.67595 -1.22282 0
M  V30 6957 H 652.448 -5.23328 0.35042 0
M  V30 6958 H 653.922 -5.35093 -1.35572 0
M  V30 6959 H 654.399 -3.84134 -2.12926 0
M  V30 6960 H 655.005 -4.22335 -0.501281 0
M  V30 6961 N 653.32 -0.135238 -1.57019 0
M  V30 6962 C 654.566 0.519563 -1.96032 0
M  V30 6963 C 654.899 1.65284 -1.01955 0
M  V30 6964 O 654.174 1.94408 -0.059727 0
M  V30 6965 C 654.457 1.0369 -3.44848 0
M  V30 6966 C 654.31 -0.0940754 -4.49702 0
M  V30 6967 C 655.629 1.92254 -3.95887 0
M  V30 6968 H 652.748 0.18739 -0.712779 0
M  V30 6969 H 655.39 -0.214086 -1.8879 0
M  V30 6970 H 653.54 1.66209 -3.5115 0
M  V30 6971 H 655.212 -0.73 -4.55487 0
M  V30 6972 H 653.455 -0.754924 -4.27181 0
M  V30 6973 H 654.126 0.309419 -5.51132 0
M  V30 6974 H 656.602 1.39581 -3.9199 0
M  V30 6975 H 655.478 2.25364 -5.00502 0
M  V30 6976 H 655.739 2.85513 -3.37543 0
M  V30 6977 N 654.798 1.5699 0.138552 0
M  V30 6978 C 656.023 1.88344 0.86841 0
M  V30 6979 C 656.448 0.725159 1.7356 0
M  V30 6980 O 655.806 -0.324992 1.78363 0
M  V30 6981 C 655.854 3.18334 1.69398 0
M  V30 6982 O 654.958 3.02863 2.79907 0
M  V30 6983 H 654.299 0.618577 0.241367 0
M  V30 6984 H 656.829 2.04207 0.126826 0
M  V30 6985 H 656.839 3.50567 2.08726 0
M  V30 6986 H 655.514 4.02238 1.05725 0
M  V30 6987 H 654.091 2.82056 2.43924 0
M  V30 6988 N 656.276 -0.40816 1.52223 0
M  V30 6989 C 657.206 -1.5042 1.78595 0
M  V30 6990 C 658.187 -1.57723 0.636974 0
M  V30 6991 O 659.372 -1.72982 0.882664 0
M  V30 6992 C 656.502 -2.88232 1.93751 0
M  V30 6993 C 655.456 -2.95779 3.09352 0
M  V30 6994 C 654.782 -4.35855 3.09732 0
M  V30 6995 C 656.082 -2.67175 4.48793 0
M  V30 6996 H 657.776 -1.28601 2.70374 0
M  V30 6997 H 655.322 -0.617221 1.30101 0
M  V30 6998 H 657.275 -3.64895 2.10783 0
M  V30 6999 H 655.999 -3.11347 0.986443 0
M  V30 7000 H 654.658 -2.21561 2.92072 0
M  V30 7001 H 654.306 -4.55981 2.12346 0
M  V30 7002 H 654.006 -4.41829 3.87377 0
M  V30 7003 H 655.53 -5.14451 3.28895 0
M  V30 7004 H 656.944 -3.3356 4.66273 0
M  V30 7005 H 655.341 -2.84523 5.28362 0
M  V30 7006 H 656.411 -1.62609 4.56822 0
M  V30 7007 N 657.755 -1.42862 -0.66545 0
M  V30 7008 C 658.98 -1.47456 -1.45848 0
M  V30 7009 C 659.405 -0.0900312 -1.87884 0
M  V30 7010 O 658.763 0.913587 -1.56599 0
M  V30 7011 C 658.811 -2.41514 -2.67774 0
M  V30 7012 O 657.915 -1.89296 -3.66389 0
M  V30 7013 H 657.256 -0.499236 -0.437789 0
M  V30 7014 H 659.786 -1.8765 -0.815394 0
M  V30 7015 H 659.796 -2.58409 -3.15735 0
M  V30 7016 H 658.471 -3.42099 -2.36519 0
M  V30 7017 H 657.048 -1.82003 -3.25468 0
M  V30 7018 N 659.233 0.902656 -1.29189 0
M  V30 7019 C 660.163 2.02294 -1.16616 0
M  V30 7020 C 661.144 1.6999 -0.0611175 0
M  V30 7021 O 662.329 1.9271 -0.240072 0
M  V30 7022 C 659.459 3.37018 -0.83882 0
M  V30 7023 C 658.413 3.83522 -1.89986 0
M  V30 7024 C 657.739 5.15337 -1.42589 0
M  V30 7025 C 659.039 4.04169 -3.30824 0
M  V30 7026 H 660.733 2.13071 -2.10336 0
M  V30 7027 H 658.279 1.02378 -1.01266 0
M  V30 7028 H 660.232 4.14895 -0.737584 0
M  V30 7029 H 658.956 3.26325 0.134071 0
M  V30 7030 H 657.615 3.07859 -1.99043 0
M  V30 7031 H 657.263 5.01056 -0.441759 0
M  V30 7032 H 656.963 5.47423 -2.13547 0
M  V30 7033 H 658.487 5.95758 -1.3381 0
M  V30 7034 H 659.901 4.72537 -3.24626 0
M  V30 7035 H 658.298 4.47604 -3.99713 0
M  V30 7036 H 659.368 3.08604 -3.74021 0
M  V30 7037 N 660.711 1.11618 1.11262 0
M  V30 7038 C 662.122 0.881942 1.64556 0
M  V30 7039 C 662.473 -0.585442 1.87262 0
M  V30 7040 O 661.598 -1.44795 1.60821 0
M  V30 7041 C 662.193 1.59446 2.98935 0
M  V30 7042 C 660.752 1.40661 3.4913 0
M  V30 7043 C 659.899 1.63593 2.23903 0
M  V30 7044 H 662.85 1.27217 0.94877 0
M  V30 7045 H 662.871 1.04054 3.65996 0
M  V30 7046 H 662.383 2.66241 2.82378 0
M  V30 7047 H 660.484 0.360835 3.70849 0
M  V30 7048 H 660.597 2.15693 4.27801 0
M  V30 7049 H 658.961 1.05944 2.3162 0
M  V30 7050 H 659.744 2.71666 2.09886 0
M  V30 7051 N 662.189 -1.289 0.906776 0
M  V30 7052 C 663.414 -1.99939 0.551303 0
M  V30 7053 C 663.839 -1.67366 -0.858496 0
M  V30 7054 O 663.197 -0.902176 -1.57259 0
M  V30 7055 C 663.245 -3.52523 0.758937 0
M  V30 7056 O 662.349 -4.11983 -0.185308 0
M  V30 7057 H 661.69 -0.628376 0.214568 0
M  V30 7058 H 664.22 -1.64225 1.2203 0
M  V30 7059 H 664.23 -4.02522 0.666329 0
M  V30 7060 H 662.905 -3.75566 1.78671 0
M  V30 7061 H 661.482 -3.72873 -0.0445577 0
M  V30 7062 N 663.667 -0.670007 -1.42649 0
M  V30 7063 C 664.944 -0.119451 -1.95235 0
M  V30 7064 C 665.324 1.36461 -1.61064 0
M  V30 7065 O 664.672 2.09843 -0.904329 0
M  V30 7066 C 664.882 -0.383498 -3.46887 0
M  V30 7067 C 666.23 -0.297431 -4.23557 0
M  V30 7068 O 667.254 -0.31698 -3.54787 0
M  V30 7069 O 666.113 -0.235507 -5.45992 0
M  V30 7070 H 663.207 -8.85474e-05 -0.827 0
M  V30 7071 H 665.753 -0.744406 -1.52501 0
M  V30 7072 H 664.525 -1.41174 -3.64946 0
M  V30 7073 H 664.148 0.273702 -3.96657 0
M  V30 7074 N 665.145 1.52092 -0.413018 0
M  V30 7075 C 666.37 2.06756 0.163338 0
M  V30 7076 C 666.795 1.28073 1.37764 0
M  V30 7077 O 666.153 0.312015 1.78595 0
M  V30 7078 C 666.201 3.57278 0.488322 0
M  V30 7079 O 665.305 3.80986 1.57871 0
M  V30 7080 H 664.646 0.663882 0.0125068 0
M  V30 7081 H 667.176 1.95988 -0.587339 0
M  V30 7082 H 667.186 4.01125 0.745836 0
M  V30 7083 H 665.861 4.13978 -0.399327 0
M  V30 7084 H 664.438 3.49017 1.31306 0
M  V30 7085 N 666.623 0.143563 1.56945 0
M  V30 7086 C 667.848 -0.518701 2.00809 0
M  V30 7087 C 668.273 -1.5785 1.02298 0
M  V30 7088 O 667.631 -1.813 -0.0017839 0
M  V30 7089 C 667.679 -1.09929 3.43436 0
M  V30 7090 O 666.783 -2.21425 3.47915 0
M  V30 7091 H 666.124 -0.127215 0.6517 0
M  V30 7092 H 668.654 0.239283 2.03196 0
M  V30 7093 H 668.664 -1.4288 3.82164 0
M  V30 7094 H 667.339 -0.323162 4.14643 0
M  V30 7095 H 665.916 -1.89728 3.21026 0
M  V30 7096 N 668.101 -1.57061 -0.130224 0
M  V30 7097 C 669.034 -1.94698 -1.19029 0
M  V30 7098 C 670.012 -0.815074 -1.40696 0
M  V30 7099 O 671.196 -1.07223 -1.55034 0
M  V30 7100 C 668.323 -2.23352 -2.5462 0
M  V30 7101 C 667.369 -3.45945 -2.49448 0
M  V30 7102 S 668.202 -4.98927 -1.94505 0
M  V30 7103 C 669.358 -5.30721 -3.31792 0
M  V30 7104 H 669.591 -2.84308 -0.869272 0
M  V30 7105 H 667.124 -1.50688 -0.336531 0
M  V30 7106 H 669.082 -2.40539 -3.32643 0
M  V30 7107 H 667.743 -1.34376 -2.83905 0
M  V30 7108 H 666.936 -3.63324 -3.49302 0
M  V30 7109 H 666.538 -3.28086 -1.79543 0
M  V30 7110 H 668.83 -5.25215 -4.27966 0
M  V30 7111 H 669.773 -6.32048 -3.19251 0
M  V30 7112 H 670.181 -4.5821 -3.29703 0
M  V30 7113 N 669.579 0.400081 -1.52437 0
M  V30 7114 C 670.826 1.14619 -1.6694 0
M  V30 7115 C 671.154 1.90262 -0.403797 0
M  V30 7116 O 670.409 1.85835 0.61351 0
M  V30 7117 C 670.708 2.15914 -2.84808 0
M  V30 7118 C 670.374 1.57011 -4.2268 0
M  V30 7119 C 669.036 1.40672 -4.60179 0
M  V30 7120 C 671.388 1.14081 -5.08562 0
M  V30 7121 C 668.716 0.799335 -5.81229 0
M  V30 7122 C 671.068 0.547573 -6.30226 0
M  V30 7123 C 669.732 0.371389 -6.66466 0
M  V30 7124 H 669.002 0.419419 -0.610875 0
M  V30 7125 H 671.649 0.432227 -1.86558 0
M  V30 7126 H 669.954 2.93488 -2.59561 0
M  V30 7127 H 671.651 2.73533 -2.93225 0
M  V30 7128 H 668.241 1.70713 -3.93135 0
M  V30 7129 H 672.425 1.2551 -4.80168 0
M  V30 7130 H 667.681 0.65093 -6.07925 0
M  V30 7131 H 671.855 0.206575 -6.96094 0
M  V30 7132 H 669.482 -0.10135 -7.60132 0
M  V30 7133 N 671.057 1.43213 0.657864 0
M  V30 7134 C 672.005 1.48271 1.79216 0
M  V30 7135 C 672.999 0.35675 1.65601 0
M  V30 7136 O 674.205 0.530535 1.72004 0
M  V30 7137 H 670.58 0.464729 0.591211 0
M  V30 7138 H 672.551 2.43792 1.7207 0
M  V30 7139 C 671.3 1.41837 3.17455 0
M  V30 7140 H 670.623 2.27781 3.28567 0
M  V30 7141 H 672.063 1.49438 3.96793 0
M  V30 7142 C 670.522 0.135347 3.36628 0
M  V30 7143 O 671.052 -0.805199 3.93547 0
M  V30 7144 N 669.258 0.0470316 2.90562 0
M  V30 7145 H 668.805 0.813221 2.44427 0
M  V30 7146 H 668.763 -0.810737 3.03767 0
M  V30 7147 N 672.536 -0.895792 1.29666 0
M  V30 7148 C 673.484 -2.02173 1.15017 0
M  V30 7149 C 674.478 -1.69276 0.0647651 0
M  V30 7150 O 675.684 -1.7859 0.224846 0
M  V30 7151 H 672.059 -0.662719 0.355397 0
M  V30 7152 H 674.03 -2.11666 2.10334 0
M  V30 7153 C 672.779 -3.37212 0.847555 0
M  V30 7154 H 672.102 -3.6303 1.67479 0
M  V30 7155 H 673.542 -4.16668 0.785106 0
M  V30 7156 C 672.001 -3.33891 -0.44929 0
M  V30 7157 O 672.531 -3.73673 -1.47415 0
M  V30 7158 N 670.737 -2.86991 -0.456547 0
M  V30 7159 H 670.284 -2.54813 0.377925 0
M  V30 7160 H 670.242 -2.85152 -1.32423 0
M  V30 7161 N 674.014 -1.12206 -1.10668 0
M  V30 7162 C 674.962 -0.782918 -2.19028 0
M  V30 7163 C 675.956 0.229175 -1.67843 0
M  V30 7164 O 677.162 0.0876295 -1.79787 0
M  V30 7165 H 673.537 -0.235339 -0.714227 0
M  V30 7166 H 675.508 -1.70527 -2.44874 0
M  V30 7167 C 674.257 -0.25116 -3.46792 0
M  V30 7168 H 673.58 -1.02123 -3.86537 0
M  V30 7169 H 675.02 -0.0521409 -4.23968 0
M  V30 7170 C 673.479 1.02037 -3.21076 0
M  V30 7171 O 674.009 2.09862 -3.42522 0
M  V30 7172 N 672.215 0.946348 -2.74759 0
M  V30 7173 H 671.762 0.068777 -2.57508 0
M  V30 7174 H 671.72 1.79775 -2.57931 0
M  V30 7175 N 675.492 1.28418 -0.913599 0
M  V30 7176 C 676.908 1.47411 -0.611728 0
M  V30 7177 C 677.108 1.83018 0.843008 0
M  V30 7178 O 676.164 1.93505 1.6221 0
M  V30 7179 C 677.477 2.57703 -1.5495 0
M  V30 7180 C 679.025 2.71572 -1.5562 0
M  V30 7181 C 679.5 3.85008 -2.48058 0
M  V30 7182 N 680.991 3.92361 -2.46184 0
M  V30 7183 C 681.726 4.79516 -3.14407 0
M  V30 7184 N 681.222 5.71262 -3.91958 0
M  V30 7185 N 683.015 4.73125 -3.03495 0
M  V30 7186 H 675.166 1.03585 -1.85429 0
M  V30 7187 H 677.429 0.515907 -0.795326 0
M  V30 7188 H 677.135 2.38298 -2.58663 0
M  V30 7189 H 677.009 3.54801 -1.28048 0
M  V30 7190 H 679.396 2.90366 -0.526441 0
M  V30 7191 H 679.477 1.75006 -1.86565 0
M  V30 7192 H 679.121 3.66969 -3.51136 0
M  V30 7193 H 679.051 4.80971 -2.14416 0
M  V30 7194 H 681.542 3.26749 -1.89851 0
M  V30 7195 H 681.855 6.34593 -4.41034 0
M  V30 7196 H 680.2 5.71103 -3.96063 0
M  V30 7197 H 683.391 4.00442 -2.42413 0
M  V30 7198 H 683.564 5.40834 -3.56935 0
M  V30 7199 N 676.97 0.677563 1.42291 0
M  V30 7200 C 678.195 0.207901 2.06355 0
M  V30 7201 C 678.62 -1.12723 1.50583 0
M  V30 7202 O 677.978 -1.70171 0.62543 0
M  V30 7203 C 678.026 0.156489 3.6026 0
M  V30 7204 O 677.13 -0.874162 4.03029 0
M  V30 7205 H 676.471 0.106056 0.655475 0
M  V30 7206 H 679.001 0.927354 1.82377 0
M  V30 7207 H 679.011 -0.0187258 4.07996 0
M  V30 7208 H 677.686 1.13101 4.00226 0
M  V30 7209 H 676.263 -0.669764 3.66836 0
M  V30 7210 N 678.448 -1.51871 0.421078 0
M  V30 7211 C 679.673 -2.0684 -0.152371 0
M  V30 7212 C 680.098 -1.28802 -1.37083 0
M  V30 7213 O 679.456 -0.321482 -1.78427 0
M  V30 7214 C 679.504 -3.57532 -0.469368 0
M  V30 7215 O 678.608 -3.81818 -1.55848 0
M  V30 7216 H 677.949 -0.663939 -0.00898586 0
M  V30 7217 H 680.479 -1.95674 0.597724 0
M  V30 7218 H 680.489 -4.01515 -0.724553 0
M  V30 7219 H 679.164 -4.13761 0.421276 0
M  V30 7220 H 677.741 -3.49709 -1.29453 0
M  V30 7221 N 679.926 -0.151884 -1.56866 0
M  V30 7222 C 681.151 0.508044 -2.01081 0
M  V30 7223 C 681.576 1.57306 -1.03134 0
M  V30 7224 O 680.934 1.81298 -0.0078309 0
M  V30 7225 C 680.982 1.08106 -3.44014 0
M  V30 7226 O 680.086 2.19577 -3.49084 0
M  V30 7227 H 679.427 0.123757 -0.652365 0
M  V30 7228 H 681.957 -0.250055 -2.03066 0
M  V30 7229 H 681.967 1.40851 -3.82916 0
M  V30 7230 H 680.642 0.301168 -4.14808 0
M  V30 7231 H 679.219 1.88023 -3.22027 0
M  V30 7232 N 681.404 1.57128 0.121893 0
M  V30 7233 C 682.815 1.73902 0.679348 0
M  V30 7234 C 683.166 0.770135 1.80453 0
M  V30 7235 O 682.291 -0.0576083 2.16323 0
M  V30 7236 C 682.886 3.15328 1.2391 0
M  V30 7237 C 681.445 3.33618 1.74288 0
M  V30 7238 C 680.592 2.6978 0.641414 0
M  V30 7239 H 683.543 1.58359 -0.104 0
M  V30 7240 H 683.564 3.16718 2.10879 0
M  V30 7241 H 683.076 3.85821 0.419957 0
M  V30 7242 H 681.177 2.68162 2.58689 0
M  V30 7243 H 681.29 4.4176 1.85432 0
M  V30 7244 H 679.654 2.30935 1.0743 0
M  V30 7245 H 680.437 3.42895 -0.166707 0
M  V30 7246 N 682.882 -0.391992 1.52647 0
M  V30 7247 C 684.107 -1.16312 1.71716 0
M  V30 7248 C 684.532 -1.83042 0.433279 0
M  V30 7249 O 683.89 -1.70705 -0.610707 0
M  V30 7250 C 683.938 -2.18908 2.86551 0
M  V30 7251 O 683.042 -3.2543 2.53316 0
M  V30 7252 H 682.383 -0.338743 0.571095 0
M  V30 7253 H 684.913 -0.457202 1.99426 0
M  V30 7254 H 684.923 -2.62954 3.1196 0
M  V30 7255 H 683.598 -1.69726 3.79692 0
M  V30 7256 H 682.175 -2.86543 2.38637 0
M  V30 7257 N 684.36 -1.4356 -0.65026 0
M  V30 7258 C 685.27 -1.514 -1.79207 0
M  V30 7259 C 686.286 -0.400895 -1.69319 0
M  V30 7260 O 687.462 -0.655458 -1.90436 0
M  V30 7261 C 684.527 -1.43737 -3.155 0
M  V30 7262 C 683.588 -2.65743 -3.37163 0
M  V30 7263 C 682.821 -2.58436 -4.66954 0
M  V30 7264 O 683.044 -1.63374 -5.46503 0
M  V30 7265 O 681.978 -3.48984 -4.90402 0
M  V30 7266 H 685.804 -2.47825 -1.75547 0
M  V30 7267 H 683.389 -1.25594 -0.809111 0
M  V30 7268 H 685.271 -1.41916 -3.96784 0
M  V30 7269 H 683.946 -0.504488 -3.19745 0
M  V30 7270 H 682.853 -2.73136 -2.55632 0
M  V30 7271 H 684.186 -3.58014 -3.37768 0
M  V30 7272 N 685.838 0.888903 -1.30139 0
M  V30 7273 C 686.77 1.99972 -1.11999 0
M  V30 7274 C 687.783 1.62673 -0.0643619 0
M  V30 7275 O 688.972 1.75788 -0.309983 0
M  V30 7276 C 686.072 3.31904 -0.685059 0
M  V30 7277 C 685.245 3.97665 -1.82158 0
M  V30 7278 C 684.304 5.07894 -1.37585 0
M  V30 7279 O 683.33 5.2974 -2.08241 0
M  V30 7280 N 684.532 5.7995 -0.252697 0
M  V30 7281 H 687.297 2.16085 -2.07671 0
M  V30 7282 H 684.858 1.06175 -1.22223 0
M  V30 7283 H 686.85 4.03005 -0.369964 0
M  V30 7284 H 685.42 3.12084 0.179507 0
M  V30 7285 H 684.64 3.19787 -2.305 0
M  V30 7286 H 685.928 4.3834 -2.58332 0
M  V30 7287 H 685.326 5.647 0.336141 0
M  V30 7288 H 683.883 6.518 0.00296813 0
M  V30 7289 N 687.317 1.12792 1.10072 0
M  V30 7290 C 688.565 0.883796 1.81751 0
M  V30 7291 C 688.886 -0.591891 1.858 0
M  V30 7292 O 688.156 -1.43017 1.33876 0
M  V30 7293 H 686.736 0.323978 0.673088 0
M  V30 7294 H 689.398 1.42314 1.33164 0
M  V30 7295 H 688.494 1.26863 2.85153 0
M  V30 7296 N 688.795 -1.27931 0.920396 0
M  V30 7297 C 690.02 -1.99343 0.572478 0
M  V30 7298 C 690.445 -1.68267 -0.840696 0
M  V30 7299 O 689.803 -0.918805 -1.56294 0
M  V30 7300 C 689.851 -3.51698 0.796284 0
M  V30 7301 O 688.955 -4.12157 -0.141602 0
M  V30 7302 H 688.296 -0.626065 0.221221 0
M  V30 7303 H 690.826 -1.62921 1.23765 0
M  V30 7304 H 690.836 -4.01793 0.708984 0
M  V30 7305 H 689.511 -3.73649 1.82644 0
M  V30 7306 H 688.088 -3.729 -0.005007 0
M  V30 7307 N 690.273 -0.685099 -1.4193 0
M  V30 7308 C 691.221 -0.00165985 -2.326 0
M  V30 7309 C 692.215 0.779678 -1.50391 0
M  V30 7310 O 693.421 0.68648 -1.66395 0
M  V30 7311 H 689.796 0.0182616 -0.751778 0
M  V30 7312 H 691.767 -0.783592 -2.87928 0
M  V30 7313 C 690.516 0.928385 -3.35077 0
M  V30 7314 H 689.839 0.336578 -3.98381 0
M  V30 7315 H 691.279 1.37509 -4.01083 0
M  V30 7316 C 689.738 2.03964 -2.68142 0
M  V30 7317 O 690.268 3.12727 -2.5212 0
M  V30 7318 N 688.474 1.81433 -2.27003 0
M  V30 7319 H 688.021 0.929807 -2.40234 0
M  V30 7320 H 687.979 2.55973 -1.82552 0
M  V30 7321 N 691.751 1.51645 -0.429126 0
M  V30 7322 C 692.976 2.06917 0.141399 0
M  V30 7323 C 693.401 1.29527 1.36398 0
M  V30 7324 O 692.759 0.33094 1.78254 0
M  V30 7325 C 692.807 3.57776 0.4504 0
M  V30 7326 O 691.911 3.82639 1.53821 0
M  V30 7327 H 691.252 0.663978 0.0054647 0
M  V30 7328 H 693.782 1.95355 -0.608093 0
M  V30 7329 H 693.792 4.01894 0.703249 0
M  V30 7330 H 692.467 4.13532 -0.443213 0
M  V30 7331 H 691.044 3.5039 1.27597 0
M  V30 7332 N 693.229 0.160201 1.56784 0
M  V30 7333 C 694.457 -0.494165 2.00912 0
M  V30 7334 C 694.872 -1.57548 1.04038 0
M  V30 7335 O 694.229 -1.82457 0.0394581 0
M  V30 7336 C 694.28 -1.08271 3.44905 0
M  V30 7337 O 694.001 -0.0445704 4.38077 0
M  V30 7338 C 695.502 -1.8164 4.04378 0
M  V30 7339 H 692.722 -0.127498 0.658776 0
M  V30 7340 H 695.266 0.258665 2.02858 0
M  V30 7341 H 693.421 -1.78609 3.4377 0
M  V30 7342 H 693.835 -0.477544 5.22322 0
M  V30 7343 H 695.309 -2.18094 5.07089 0
M  V30 7344 H 695.786 -2.70727 3.45838 0
M  V30 7345 H 696.392 -1.15969 4.09184 0
M  V30 7346 N 694.707 -1.5719 -0.113559 0
M  V30 7347 C 695.937 -1.89053 -0.833212 0
M  V30 7348 C 696.345 -0.750139 -1.73694 0
M  V30 7349 O 695.688 0.287808 -1.81431 0
M  V30 7350 C 695.75 -3.15986 -1.71443 0
M  V30 7351 C 695.414 -4.46271 -0.984449 0
M  V30 7352 C 696.411 -5.18897 -0.322741 0
M  V30 7353 C 694.096 -4.92963 -0.964011 0
M  V30 7354 C 696.09 -6.3644 0.349646 0
M  V30 7355 C 693.777 -6.10422 -0.287828 0
M  V30 7356 C 694.775 -6.82009 0.36784 0
M  V30 7357 O 694.463 -7.97233 1.03322 0
M  V30 7358 H 694.195 -0.630225 -0.244526 0
M  V30 7359 H 696.749 -2.05152 -0.100847 0
M  V30 7360 H 694.979 -2.95984 -2.48858 0
M  V30 7361 H 696.668 -3.33826 -2.309 0
M  V30 7362 H 697.434 -4.83875 -0.330114 0
M  V30 7363 H 693.313 -4.37143 -1.46379 0
M  V30 7364 H 696.857 -6.92254 0.861996 0
M  V30 7365 H 692.754 -6.449 -0.278237 0
M  V30 7366 H 693.522 -8.13105 0.938247 0
M  V30 7367 N 696.185 0.383891 -1.52853 0
M  V30 7368 C 697.462 1.14296 -1.58732 0
M  V30 7369 C 697.842 2.07585 -0.383611 0
M  V30 7370 O 697.19 2.1971 0.627661 0
M  V30 7371 C 697.4 1.89816 -2.92867 0
M  V30 7372 C 698.748 2.44998 -3.46787 0
M  V30 7373 O 699.772 1.99966 -2.94774 0
M  V30 7374 O 698.631 3.2727 -4.37672 0
M  V30 7375 H 695.725 0.52326 -0.640413 0
M  V30 7376 H 698.271 0.388631 -1.6519 0
M  V30 7377 H 697.043 1.21626 -3.71918 0
M  V30 7378 H 696.666 2.72199 -2.89816 0
M  V30 7379 N 697.663 1.43903 0.642637 0
M  V30 7380 C 699.079 1.27536 0.959519 0
M  V30 7381 C 699.279 0.202751 2.00477 0
M  V30 7382 O 698.335 -0.415256 2.49062 0
M  V30 7383 C 699.648 2.6432 1.43372 0
M  V30 7384 C 701.196 2.71937 1.54981 0
M  V30 7385 C 701.671 4.09164 2.05789 0
M  V30 7386 N 703.162 4.11282 2.13076 0
M  V30 7387 C 703.897 5.14303 2.53534 0
M  V30 7388 N 703.393 6.27693 2.93212 0
M  V30 7389 N 705.186 5.01657 2.53567 0
M  V30 7390 H 697.337 2.12344 -0.0488376 0
M  V30 7391 H 699.6 0.947124 0.0407559 0
M  V30 7392 H 699.306 3.43826 0.740048 0
M  V30 7393 H 699.18 2.90432 2.40685 0
M  V30 7394 H 701.567 1.92757 2.23448 0
M  V30 7395 H 701.648 2.49578 0.560739 0
M  V30 7396 H 701.292 4.88815 1.37921 0
M  V30 7397 H 701.222 4.28893 3.05546 0
M  V30 7398 H 703.713 3.2944 1.85143 0
M  V30 7399 H 704.026 7.02125 3.22863 0
M  V30 7400 H 702.371 6.31149 2.90991 0
M  V30 7401 H 705.562 4.12134 2.21952 0
M  V30 7402 H 705.735 5.82072 2.84774 0
M  V30 7403 N 699.141 -0.881989 1.30609 0
M  V30 7404 C 700.39 -1.62878 1.18969 0
M  V30 7405 C 700.703 -1.93946 -0.253859 0
M  V30 7406 O 701.909 -2.67008 -0.491813 0
M  V30 7407 C 700.365 -2.93573 2.0819 0
M  V30 7408 C 699.973 -2.70034 3.57471 0
M  V30 7409 C 701.717 -3.71543 2.0532 0
M  V30 7410 C 699.624 -3.96563 4.38739 0
M  V30 7411 H 698.554 -0.611092 0.441682 0
M  V30 7412 H 701.205 -0.976201 1.55379 0
M  V30 7413 H 699.587 -3.6014 1.64666 0
M  V30 7414 H 700.761 -2.11949 4.09163 0
M  V30 7415 H 699.076 -2.05435 3.62195 0
M  V30 7416 H 701.673 -4.65386 2.63288 0
M  V30 7417 H 702.016 -4.03167 1.03739 0
M  V30 7418 H 702.549 -3.11842 2.46981 0
M  V30 7419 H 699.288 -3.70095 5.41027 0
M  V30 7420 H 698.808 -4.54142 3.9181 0
M  V30 7421 H 700.487 -4.64557 4.50329 0
M  V30 7422 N 700.619 -1.13374 -1.09472 0
M  V30 7423 C 701.866 -0.89519 -1.81639 0
M  V30 7424 C 702.194 0.57868 -1.85692 0
M  V30 7425 O 701.449 1.44426 -1.32059 0
M  V30 7426 C 701.748 -1.42759 -3.2765 0
M  V30 7427 C 701.414 -2.91822 -3.43731 0
M  V30 7428 C 700.076 -3.32521 -3.47827 0
M  V30 7429 C 702.428 -3.87727 -3.48307 0
M  V30 7430 C 699.756 -4.6781 -3.54078 0
M  V30 7431 C 702.108 -5.22859 -3.56091 0
M  V30 7432 C 700.772 -5.63086 -3.58456 0
M  V30 7433 H 700.042 -0.327573 -0.664663 0
M  V30 7434 H 702.689 -1.4156 -1.28969 0
M  V30 7435 H 700.994 -0.827871 -3.82954 0
M  V30 7436 H 702.691 -1.2191 -3.8202 0
M  V30 7437 H 699.281 -2.5935 -3.41226 0
M  V30 7438 H 703.465 -3.57371 -3.44383 0
M  V30 7439 H 698.721 -4.98353 -3.54195 0
M  V30 7440 H 702.895 -5.96989 -3.58577 0
M  V30 7441 H 700.522 -6.67905 -3.63052 0
M  V30 7442 N 702.098 1.27442 -0.927168 0
M  V30 7443 C 703.509 1.76385 -0.611979 0
M  V30 7444 C 703.86 1.75715 0.872853 0
M  V30 7445 O 702.985 1.3603 1.683 0
M  V30 7446 C 703.58 3.20303 -1.10414 0
M  V30 7447 C 702.139 3.66916 -0.839628 0
M  V30 7448 C 701.286 2.46859 -1.26317 0
M  V30 7449 H 704.237 1.13716 -1.107 0
M  V30 7450 H 704.258 3.77811 -0.451578 0
M  V30 7451 H 703.77 3.20759 -2.18484 0
M  V30 7452 H 701.871 3.71906 0.227292 0
M  V30 7453 H 701.984 4.56415 -1.45679 0
M  V30 7454 H 700.348 2.45407 -0.681723 0
M  V30 7455 H 701.131 2.50025 -2.3525 0
M  V30 7456 N 703.576 0.692616 1.41565 0
M  V30 7457 C 704.506 0.0397325 2.33466 0
M  V30 7458 C 705.487 -0.770334 1.51657 0
M  V30 7459 O 706.672 -0.723903 1.80203 0
M  V30 7460 C 703.802 -0.899495 3.3545 0
M  V30 7461 C 702.756 -0.196738 4.27548 0
M  V30 7462 C 702.082 -1.25012 5.19881 0
M  V30 7463 C 703.382 0.935158 5.1386 0
M  V30 7464 H 705.076 0.807296 2.88311 0
M  V30 7465 H 702.622 0.389665 1.38628 0
M  V30 7466 H 704.575 -1.36545 3.98665 0
M  V30 7467 H 703.299 -1.69869 2.78948 0
M  V30 7468 H 701.958 0.249158 3.65752 0
M  V30 7469 H 701.606 -2.04177 4.59696 0
M  V30 7470 H 701.306 -0.784931 5.82334 0
M  V30 7471 H 702.83 -1.71665 5.85972 0
M  V30 7472 H 704.244 0.549619 5.70659 0
M  V30 7473 H 702.641 1.32726 5.85238 0
M  V30 7474 H 703.711 1.77613 4.512 0
M  V30 7475 N 705.054 -1.51416 0.437162 0
M  V30 7476 C 706.47 -1.59349 0.0894459 0
M  V30 7477 C 706.67 -1.44809 -1.40116 0
M  V30 7478 O 705.726 -1.28924 -2.17106 0
M  V30 7479 C 707.039 -2.9446 0.609398 0
M  V30 7480 C 708.587 -3.07769 0.569824 0
M  V30 7481 C 709.062 -4.45404 1.06675 0
M  V30 7482 N 710.553 -4.51723 1.02473 0
M  V30 7483 C 711.288 -5.56544 1.3801 0
M  V30 7484 N 710.784 -6.68784 1.80831 0
M  V30 7485 N 712.577 -5.46901 1.29828 0
M  V30 7486 H 704.728 -1.59112 1.40703 0
M  V30 7487 H 706.991 -0.750031 0.579791 0
M  V30 7488 H 706.697 -3.1047 1.65231 0
M  V30 7489 H 706.571 -3.77184 0.0342236 0
M  V30 7490 H 708.958 -2.91428 -0.464107 0
M  V30 7491 H 709.039 -2.26885 1.1814 0
M  V30 7492 H 708.683 -4.62492 2.09914 0
M  V30 7493 H 708.613 -5.24827 0.431712 0
M  V30 7494 H 711.104 -3.71165 0.710258 0
M  V30 7495 H 711.417 -7.44787 2.06185 0
M  V30 7496 H 709.762 -6.69992 1.84757 0
M  V30 7497 H 712.953 -4.581 0.962397 0
M  V30 7498 H 713.126 -6.2848 1.57851 0
M  V30 7499 N 706.532 -0.168513 -1.56696 0
M  V30 7500 C 707.943 0.348694 -1.83415 0
M  V30 7501 C 708.294 1.63257 -1.0882 0
M  V30 7502 O 707.419 2.13707 -0.340333 0
M  V30 7503 C 708.014 0.639423 -3.32711 0
M  V30 7504 C 706.573 1.10108 -3.59935 0
M  V30 7505 C 705.72 0.135464 -2.76969 0
M  V30 7506 H 708.671 -0.392829 -1.53761 0
M  V30 7507 H 708.692 1.49179 -3.50037 0
M  V30 7508 H 708.204 -0.295173 -3.86976 0
M  V30 7509 H 706.305 2.05088 -3.11079 0
M  V30 7510 H 706.418 1.01218 -4.68286 0
M  V30 7511 H 704.782 0.632286 -2.46727 0
M  V30 7512 H 705.565 -0.793104 -3.34013 0
M  V30 7513 N 708.01 1.57248 0.105221 0
M  V30 7514 C 709.287 1.76566 0.841647 0
M  V30 7515 C 709.667 0.747566 1.9742 0
M  V30 7516 O 709.015 -0.225886 2.27381 0
M  V30 7517 C 709.225 3.22016 1.3456 0
M  V30 7518 C 710.573 3.84911 1.79244 0
M  V30 7519 O 711.597 3.25703 1.44207 0
M  V30 7520 O 710.456 4.89008 2.43995 0
M  V30 7521 H 707.55 0.723443 0.400698 0
M  V30 7522 H 710.096 1.69472 0.0878893 0
M  V30 7523 H 708.868 3.87644 0.533685 0
M  V30 7524 H 708.491 3.33703 2.16167 0
M  V30 7525 N 709.488 -0.375779 1.53054 0
M  V30 7526 C 710.718 -1.1387 1.72386 0
M  V30 7527 C 711.126 -1.8382 0.447966 0
M  V30 7528 O 710.469 -1.74027 -0.588244 0
M  V30 7529 C 710.531 -2.22047 2.82728 0
M  V30 7530 C 710.195 -1.71951 4.23417 0
M  V30 7531 C 711.192 -1.18909 5.06119 0
M  V30 7532 C 708.877 -1.77773 4.69789 0
M  V30 7533 C 710.871 -0.723529 6.3328 0
M  V30 7534 C 708.558 -1.30829 5.96931 0
M  V30 7535 C 709.556 -0.782077 6.78508 0
M  V30 7536 O 709.244 -0.319529 8.03265 0
M  V30 7537 H 708.976 -0.346835 0.580242 0
M  V30 7538 H 711.53 -0.443748 2.00549 0
M  V30 7539 H 709.76 -2.95006 2.50017 0
M  V30 7540 H 711.449 -2.83654 2.90336 0
M  V30 7541 H 712.215 -1.13758 4.7147 0
M  V30 7542 H 708.094 -2.17673 4.06373 0
M  V30 7543 H 711.638 -0.312126 6.96901 0
M  V30 7544 H 707.535 -1.3567 6.31081 0
M  V30 7545 H 708.303 -0.439796 8.17318 0
M  V30 7546 N 710.966 -1.44241 -0.634997 0
M  V30 7547 C 711.898 -1.46793 -1.76024 0
M  V30 7548 C 712.911 -0.361781 -1.58729 0
M  V30 7549 O 714.1 -0.627297 -1.67114 0
M  V30 7550 C 711.2 -1.28248 -3.13697 0
M  V30 7551 C 710.373 -2.52038 -3.57485 0
M  V30 7552 C 709.432 -2.2845 -4.74022 0
M  V30 7553 O 708.458 -3.01915 -4.82531 0
M  V30 7554 N 709.66 -1.31264 -5.65464 0
M  V30 7555 H 712.425 -2.43797 -1.74307 0
M  V30 7556 H 709.986 -1.39631 -0.819438 0
M  V30 7557 H 711.978 -1.10321 -3.89373 0
M  V30 7558 H 710.548 -0.39623 -3.10079 0
M  V30 7559 H 709.768 -2.85268 -2.72059 0
M  V30 7560 H 711.056 -3.34382 -3.83492 0
M  V30 7561 H 710.454 -0.705817 -5.6128 0
M  V30 7562 H 709.011 -1.19316 -6.40786 0
M  V30 7563 N 712.444 0.87505 -1.31075 0
M  V30 7564 C 713.354 2.01441 -1.20244 0
M  V30 7565 C 714.37 1.73584 -0.120227 0
M  V30 7566 O 715.546 1.98559 -0.337063 0
M  V30 7567 C 712.611 3.34675 -0.905199 0
M  V30 7568 C 711.672 3.75889 -2.0738 0
M  V30 7569 C 710.905 5.02764 -1.79064 0
M  V30 7570 O 711.128 5.65795 -0.723318 0
M  V30 7571 O 710.062 5.40623 -2.64594 0
M  V30 7572 H 713.888 2.13509 -2.1598 0
M  V30 7573 H 711.473 1.00257 -1.10765 0
M  V30 7574 H 713.355 4.1458 -0.755057 0
M  V30 7575 H 712.03 3.23692 0.0221695 0
M  V30 7576 H 710.937 2.96645 -2.27931 0
M  V30 7577 H 712.27 3.91489 -2.98324 0
M  V30 7578 N 713.922 1.13953 1.08869 0
M  V30 7579 C 715.333 0.916649 1.62648 0
M  V30 7580 C 715.684 -0.545589 1.88462 0
M  V30 7581 O 714.809 -1.41351 1.63856 0
M  V30 7582 C 715.404 1.65751 2.95486 0
M  V30 7583 C 713.963 1.48034 3.46068 0
M  V30 7584 C 713.11 1.68305 2.20383 0
M  V30 7585 H 716.061 1.292 0.921572 0
M  V30 7586 H 716.082 1.11794 3.63707 0
M  V30 7587 H 715.594 2.72171 2.76667 0
M  V30 7588 H 713.695 0.439416 3.7 0
M  V30 7589 H 713.808 2.24719 4.23129 0
M  V30 7590 H 712.172 1.10833 2.29321 0
M  V30 7591 H 712.955 2.76057 2.04077 0
M  V30 7592 N 715.4 -1.26948 0.933913 0
M  V30 7593 C 716.625 -1.98724 0.593589 0
M  V30 7594 C 717.05 -1.6915 -0.822801 0
M  V30 7595 O 716.408 -0.93533 -1.5531 0
M  V30 7596 C 716.456 -3.50834 0.833542 0
M  V30 7597 O 715.56 -4.12284 -0.0978788 0
M  V30 7598 H 714.901 -0.623683 0.227849 0
M  V30 7599 H 717.431 -1.61599 1.25486 0
M  V30 7600 H 717.441 -4.01018 0.75156 0
M  V30 7601 H 716.116 -3.71691 1.86597 0
M  V30 7602 H 714.693 -3.72884 0.0345443 0
M  V30 7603 N 716.879 -0.700114 -1.41195 0
M  V30 7604 C 718.295 -0.372114 -1.55201 0
M  V30 7605 C 718.495 1.12053 -1.6747 0
M  V30 7606 O 717.551 1.90642 -1.65566 0
M  V30 7607 C 718.864 -1.12462 -2.78878 0
M  V30 7608 C 720.412 -1.10941 -2.92679 0
M  V30 7609 C 720.887 -1.84376 -4.19249 0
M  V30 7610 N 722.378 -1.81368 -4.26216 0
M  V30 7611 C 723.113 -2.35024 -5.23021 0
M  V30 7612 N 722.609 -2.9717 -6.25829 0
M  V30 7613 N 724.402 -2.25254 -5.14992 0
M  V30 7614 H 716.553 -1.66816 -1.31477 0
M  V30 7615 H 718.816 -0.704223 -0.634644 0
M  V30 7616 H 718.522 -2.17937 -2.76037 0
M  V30 7617 H 718.396 -0.706152 -3.70531 0
M  V30 7618 H 720.783 -0.062911 -2.95033 0
M  V30 7619 H 720.864 -1.56698 -2.02187 0
M  V30 7620 H 720.508 -2.89008 -4.17656 0
M  V30 7621 H 720.438 -1.3605 -5.08722 0
M  V30 7622 H 722.929 -1.36062 -3.52556 0
M  V30 7623 H 723.242 -3.35668 -6.96094 0
M  V30 7624 H 721.587 -3.01249 -6.26318 0
M  V30 7625 H 724.778 -1.76372 -4.33602 0
M  V30 7626 H 724.951 -2.67373 -5.90268 0
M  V30 7627 N 718.357 1.51182 -0.445186 0
M  V30 7628 C 719.287 2.30821 0.352686 0
M  V30 7629 C 720.268 1.36576 1.01395 0
M  V30 7630 O 721.453 1.65497 1.01609 0
M  V30 7631 C 718.583 3.15593 1.44976 0
M  V30 7632 C 717.537 4.1818 0.911553 0
M  V30 7633 C 716.863 4.91523 2.10497 0
M  V30 7634 C 718.163 5.22266 -0.059418 0
M  V30 7635 H 719.857 2.97771 -0.311936 0
M  V30 7636 H 717.403 1.43201 -0.151461 0
M  V30 7637 H 719.356 3.70091 2.01521 0
M  V30 7638 H 718.08 2.4648 2.14278 0
M  V30 7639 H 716.739 3.64746 0.368264 0
M  V30 7640 H 716.387 4.18906 2.78437 0
M  V30 7641 H 716.087 5.60898 1.7512 0
M  V30 7642 H 717.611 5.48847 2.6758 0
M  V30 7643 H 719.025 5.71789 0.415985 0
M  V30 7644 H 717.422 5.99213 -0.326152 0
M  V30 7645 H 718.492 4.7461 -0.993631 0
M  V30 7646 N 719.835 0.176821 1.56605 0
M  V30 7647 C 721.084 -0.466833 1.96223 0
M  V30 7648 C 721.397 -1.64015 1.06576 0
M  V30 7649 O 722.603 -2.3504 1.35898 0
M  V30 7650 C 721.059 -0.881921 3.48927 0
M  V30 7651 C 720.667 0.266102 4.47209 0
M  V30 7652 C 722.411 -1.49368 3.97353 0
M  V30 7653 C 720.318 -0.168923 5.91159 0
M  V30 7654 H 719.248 -0.178178 0.732645 0
M  V30 7655 H 721.899 0.265929 1.81563 0
M  V30 7656 H 720.281 -1.67082 3.59026 0
M  V30 7657 H 721.455 1.04349 4.4883 0
M  V30 7658 H 719.77 0.788178 4.08872 0
M  V30 7659 H 722.367 -1.8313 5.02362 0
M  V30 7660 H 722.71 -2.3936 3.40606 0
M  V30 7661 H 723.243 -0.769114 3.90294 0
M  V30 7662 H 719.982 0.696351 6.51791 0
M  V30 7663 H 719.502 -0.911552 5.92833 0
M  V30 7664 H 721.181 -0.610938 6.44109 0
M  V30 7665 N 721.313 -1.57302 -0.09688 0
M  V30 7666 C 722.729 -1.53094 -0.451041 0
M  V30 7667 C 722.929 -0.893265 -1.80618 0
M  V30 7668 O 721.985 -0.485013 -2.47798 0
M  V30 7669 C 723.298 -2.9782 -0.415172 0
M  V30 7670 C 724.846 -3.09026 -0.497155 0
M  V30 7671 C 725.321 -4.55356 -0.491452 0
M  V30 7672 N 726.812 -4.59896 -0.552258 0
M  V30 7673 C 727.547 -5.70563 -0.569654 0
M  V30 7674 N 727.043 -6.90666 -0.543365 0
M  V30 7675 N 728.836 -5.58733 -0.614331 0
M  V30 7676 H 720.987 -1.97131 0.790771 0
M  V30 7677 H 723.25 -0.901211 0.294147 0
M  V30 7678 H 722.956 -3.47933 0.513362 0
M  V30 7679 H 722.83 -3.56416 -1.23481 0
M  V30 7680 H 725.217 -2.58902 -1.41611 0
M  V30 7681 H 725.298 -2.53386 0.35059 0
M  V30 7682 H 724.942 -5.06131 0.423549 0
M  V30 7683 H 724.872 -5.08832 -1.35639 0
M  V30 7684 H 727.363 -3.73456 -0.577842 0
M  V30 7685 H 727.676 -7.70769 -0.559873 0
M  V30 7686 H 726.021 -6.93123 -0.510441 0
M  V30 7687 H 729.212 -4.63809 -0.632387 0
M  V30 7688 H 729.385 -6.44984 -0.62442 0
M  V30 7689 N 722.791 0.367657 -1.53252 0
M  V30 7690 C 723.738 1.45028 -1.79543 0
M  V30 7691 C 724.708 1.53288 -0.63969 0
M  V30 7692 O 725.893 1.69209 -0.881653 0
M  V30 7693 C 723.033 2.82 -1.98923 0
M  V30 7694 C 722.146 2.82722 -3.26638 0
M  V30 7695 C 721.281 4.11257 -3.36216 0
M  V30 7696 C 720.32 4.06113 -4.57972 0
M  V30 7697 N 719.457 5.26293 -4.64715 0
M  V30 7698 H 724.297 1.21908 -2.71923 0
M  V30 7699 H 721.834 0.591011 -1.34705 0
M  V30 7700 H 723.792 3.61568 -2.08146 0
M  V30 7701 H 722.422 3.03523 -1.09881 0
M  V30 7702 H 721.474 1.95399 -3.26379 0
M  V30 7703 H 722.786 2.74794 -4.16281 0
M  V30 7704 H 721.94 4.99239 -3.44739 0
M  V30 7705 H 720.679 4.21935 -2.44586 0
M  V30 7706 H 719.684 3.16517 -4.49552 0
M  V30 7707 H 720.909 3.97039 -5.50942 0
M  V30 7708 H 718.855 5.37561 -3.75985 0
M  V30 7709 H 718.772 5.20526 -5.4826 0
M  V30 7710 H 720.04 6.16113 -4.77519 0
M  V30 7711 N 724.269 1.44576 0.627338 0
M  V30 7712 C 725.199 1.54562 1.75022 0
M  V30 7713 C 726.18 0.398378 1.65369 0
M  V30 7714 O 727.365 0.61899 1.84071 0
M  V30 7715 C 724.495 1.49309 3.13567 0
M  V30 7716 C 723.449 2.62549 3.38012 0
M  V30 7717 C 722.775 2.42348 4.76625 0
M  V30 7718 C 724.075 4.04678 3.30202 0
M  V30 7719 H 725.769 2.4855 1.66922 0
M  V30 7720 H 723.315 1.19624 0.801636 0
M  V30 7721 H 725.268 1.54895 3.919 0
M  V30 7722 H 723.992 0.518392 3.2246 0
M  V30 7723 H 722.651 2.56358 2.62061 0
M  V30 7724 H 722.299 1.43062 4.82226 0
M  V30 7725 H 721.999 3.18273 4.93939 0
M  V30 7726 H 723.523 2.49758 5.57183 0
M  V30 7727 H 724.937 4.12217 3.98435 0
M  V30 7728 H 723.334 4.80836 3.5905 0
M  V30 7729 H 724.404 4.2798 2.27949 0
M  V30 7730 N 725.747 -0.868086 1.31537 0
M  V30 7731 C 727.158 -1.437 1.19195 0
M  V30 7732 C 727.509 -1.95169 -0.200842 0
M  V30 7733 O 726.634 -1.86432 -1.09872 0
M  V30 7734 C 727.229 -2.612 2.15778 0
M  V30 7735 C 725.788 -3.1413 2.07363 0
M  V30 7736 C 724.935 -1.86845 2.049 0
M  V30 7737 H 727.886 -0.676457 1.43561 0
M  V30 7738 H 727.907 -3.37948 1.74847 0
M  V30 7739 H 727.419 -2.23709 3.17137 0
M  V30 7740 H 725.52 -3.56238 1.09204 0
M  V30 7741 H 725.633 -3.76285 2.96557 0
M  V30 7742 H 723.997 -2.05886 1.49943 0
M  V30 7743 H 724.78 -1.51589 3.08019 0
M  V30 7744 N 727.225 -1.14528 -1.08264 0
M  V30 7745 C 728.135 -0.84728 -2.18765 0
M  V30 7746 C 729.151 0.172826 -1.7314 0
M  V30 7747 O 730.327 0.000985336 -2.014 0
M  V30 7748 C 727.392 -0.330633 -3.4512 0
M  V30 7749 C 726.453 -1.41348 -4.05363 0
M  V30 7750 C 725.686 -0.921387 -5.25686 0
M  V30 7751 O 725.909 0.236587 -5.69909 0
M  V30 7752 O 724.843 -1.70101 -5.77364 0
M  V30 7753 H 728.669 -1.7708 -2.46731 0
M  V30 7754 H 726.254 -0.923661 -1.17426 0
M  V30 7755 H 728.136 -0.0485053 -4.21372 0
M  V30 7756 H 726.811 0.565147 -3.18728 0
M  V30 7757 H 725.718 -1.74908 -3.30693 0
M  V30 7758 H 727.051 -2.28383 -4.36007 0
M  V30 7759 N 728.703 1.26451 -0.940633 0
M  V30 7760 C 729.95 1.93778 -0.587909 0
M  V30 7761 C 730.278 1.73811 0.872935 0
M  V30 7762 O 729.533 1.06816 1.63978 0
M  V30 7763 C 729.832 3.46503 -0.875794 0
M  V30 7764 C 729.498 3.86609 -2.32043 0
M  V30 7765 C 728.16 3.97269 -2.71534 0
M  V30 7766 C 730.512 4.0672 -3.25927 0
M  V30 7767 C 727.84 4.25436 -4.04006 0
M  V30 7768 C 730.192 4.36375 -4.57995 0
M  V30 7769 C 728.856 4.45249 -4.97302 0
M  V30 7770 H 728.126 0.709084 -0.215131 0
M  V30 7771 H 730.773 1.50272 -1.18704 0
M  V30 7772 H 729.078 3.91319 -0.194124 0
M  V30 7773 H 730.775 3.96759 -0.581665 0
M  V30 7774 H 727.365 3.78858 -2.00411 0
M  V30 7775 H 731.549 3.97912 -2.96614 0
M  V30 7776 H 726.805 4.30519 -4.34124 0
M  V30 7777 H 730.979 4.50882 -5.30734 0
M  V30 7778 H 728.606 4.66829 -5.99979 0
M  V30 7779 N 730.181 0.707592 1.40822 0
M  V30 7780 C 731.144 0.0587224 2.29125 0
M  V30 7781 C 732.144 -0.695624 1.44975 0
M  V30 7782 O 733.334 -0.528718 1.65983 0
M  V30 7783 C 730.466 -0.926939 3.28056 0
M  V30 7784 H 731.659 0.836349 2.88002 0
M  V30 7785 H 729.212 0.471778 1.4901 0
M  V30 7786 H 729.947 -1.7319 2.74182 0
M  V30 7787 H 729.732 -0.389015 3.90165 0
M  V30 7788 H 731.222 -1.37837 3.94196 0
M  V30 7789 N 731.66 -1.50943 0.453197 0
M  V30 7790 C 733.071 -1.86699 -0.00619892 0
M  V30 7791 C 733.422 -1.3693 -1.40515 0
M  V30 7792 O 732.547 -0.726715 -2.03833 0
M  V30 7793 C 733.142 -3.38795 -0.018025 0
M  V30 7794 C 731.701 -3.74028 -0.421885 0
M  V30 7795 C 730.848 -2.74752 0.375087 0
M  V30 7796 H 733.799 -1.43942 0.668317 0
M  V30 7797 H 733.82 -3.71468 -0.824125 0
M  V30 7798 H 733.332 -3.74988 1.00028 0
M  V30 7799 H 731.433 -3.43431 -1.44521 0
M  V30 7800 H 731.546 -4.78908 -0.135664 0
M  V30 7801 H 729.91 -2.5414 -0.168794 0
M  V30 7802 H 730.693 -3.13787 1.39256 0
M  V30 7803 N 733.138 -0.185124 -1.56509 0
M  V30 7804 C 734.386 0.455357 -1.96903 0
M  V30 7805 C 734.707 1.62839 -1.07277 0
M  V30 7806 O 733.977 1.95385 -0.141966 0
M  V30 7807 H 732.557 0.171218 -0.727113 0
M  V30 7808 H 735.219 -0.26953 -1.93027 0
M  V30 7809 H 734.315 0.80616 -3.01509 0
M  V30 7810 N 734.616 1.57351 0.0885366 0
M  V30 7811 C 735.526 2.05858 1.12516 0
M  V30 7812 C 736.542 0.984758 1.43452 0
M  V30 7813 O 737.718 1.29836 1.53963 0
M  V30 7814 C 734.783 2.47882 2.42395 0
M  V30 7815 C 733.844 3.69487 2.18582 0
M  V30 7816 C 733.077 4.09497 3.42268 0
M  V30 7817 O 733.3 3.49536 4.50755 0
M  V30 7818 O 732.234 5.02406 3.31469 0
M  V30 7819 H 736.06 2.94467 0.743146 0
M  V30 7820 H 733.645 1.46326 0.301507 0
M  V30 7821 H 735.527 2.75509 3.18862 0
M  V30 7822 H 734.202 1.62408 2.8001 0
M  V30 7823 H 733.109 3.46967 1.39875 0
M  V30 7824 H 734.442 4.55761 1.85857 0
M  V30 7825 N 736.094 -0.359525 1.53444 0
M  V30 7826 C 737.004 -1.46445 1.83278 0
M  V30 7827 C 738.02 -1.5833 0.721629 0
M  V30 7828 O 739.196 -1.7411 1.01231 0
M  V30 7829 C 736.261 -2.81638 2.02191 0
M  V30 7830 C 735.322 -2.7923 3.26082 0
M  V30 7831 C 734.555 -4.07974 3.44082 0
M  V30 7832 O 734.778 -5.04447 2.66251 0
M  V30 7833 O 733.712 -4.13417 4.37458 0
M  V30 7834 H 737.538 -1.24156 2.77162 0
M  V30 7835 H 735.123 -0.550201 1.389 0
M  V30 7836 H 737.005 -3.61732 2.16167 0
M  V30 7837 H 735.68 -3.03892 1.11496 0
M  V30 7838 H 734.587 -1.97813 3.17523 0
M  V30 7839 H 735.92 -2.6193 4.16718 0
M  V30 7840 N 737.572 -1.44907 -0.619662 0
M  V30 7841 C 738.482 -1.55168 -1.75955 0
M  V30 7842 C 739.498 -0.43672 -1.6843 0
M  V30 7843 O 740.674 -0.695704 -1.89002 0
M  V30 7844 C 737.739 -1.50397 -3.12381 0
M  V30 7845 C 736.8 -2.72835 -3.31451 0
M  V30 7846 C 736.033 -2.68283 -4.61368 0
M  V30 7847 O 736.256 -1.74929 -5.42914 0
M  V30 7848 O 735.19 -3.59308 -4.82889 0
M  V30 7849 H 739.016 -2.51493 -1.7025 0
M  V30 7850 H 736.601 -1.27282 -0.782289 0
M  V30 7851 H 738.483 -1.50301 -3.93685 0
M  V30 7852 H 737.158 -0.572197 -3.18603 0
M  V30 7853 H 736.065 -2.78496 -2.49781 0
M  V30 7854 H 737.398 -3.65098 -3.30098 0
M  V30 7855 N 739.05 0.861098 -1.31996 0
M  V30 7856 C 740.275 1.65264 -1.2531 0
M  V30 7857 C 740.7 1.87265 0.177007 0
M  V30 7858 O 740.058 1.4208 1.12619 0
M  V30 7859 C 740.106 2.99284 -2.0115 0
M  V30 7860 O 739.21 3.89508 -1.3549 0
M  V30 7861 H 738.551 0.50409 -0.432192 0
M  V30 7862 H 741.081 1.07297 -1.74208 0
M  V30 7863 H 741.091 3.49154 -2.11081 0
M  V30 7864 H 739.766 2.82591 -3.05148 0
M  V30 7865 H 738.343 3.47966 -1.34066 0
M  V30 7866 N 740.528 1.15101 1.07655 0
M  V30 7867 C 741.776 0.922149 1.79836 0
M  V30 7868 C 742.097 -0.552346 1.87014 0
M  V30 7869 O 741.367 -1.40145 1.3688 0
M  V30 7870 H 739.947 0.338182 0.666064 0
M  V30 7871 H 742.609 1.45107 1.30115 0
M  V30 7872 H 741.705 1.32883 2.82398 0
M  V30 7873 N 742.006 -1.2595 0.947325 0
M  V30 7874 C 743.246 -1.95218 0.605743 0
M  V30 7875 C 743.61 -1.72624 -0.84054 0
M  V30 7876 O 744.811 -2.35748 -1.29136 0
M  V30 7877 C 743.082 -3.44654 0.94596 0
M  V30 7878 S 744.641 -4.32922 0.715849 0
M  V30 7879 H 741.459 -0.675159 0.222894 0
M  V30 7880 H 744.061 -1.52766 1.21995 0
M  V30 7881 H 742.765 -3.586 1.99585 0
M  V30 7882 H 742.296 -3.92082 0.321718 0
M  V30 7883 H 744.311 -4.94445 -0.416959 0
M  V30 7884 N 743.484 -0.715051 -1.40445 0
M  V30 7885 C 744.709 -0.26254 -2.05732 0
M  V30 7886 C 745.134 1.08691 -1.53519 0
M  V30 7887 O 744.492 1.68453 -0.670328 0
M  V30 7888 C 744.54 -0.25195 -3.59719 0
M  V30 7889 O 743.644 0.766998 -4.05205 0
M  V30 7890 H 742.985 -0.123398 -0.652433 0
M  V30 7891 H 745.515 -0.975382 -1.79854 0
M  V30 7892 H 745.525 -0.0894537 -4.07902 0
M  V30 7893 H 744.2 -1.23672 -3.97087 0
M  V30 7894 H 742.777 0.572269 -3.68483 0
M  V30 7895 N 744.962 1.50701 -0.461195 0
M  V30 7896 C 746.21 2.01867 0.0970051 0
M  V30 7897 C 746.531 1.34591 1.41104 0
M  V30 7898 O 745.801 0.488041 1.89723 0
M  V30 7899 H 744.381 0.74599 0.0388392 0
M  V30 7900 H 747.043 1.85129 -0.609357 0
M  V30 7901 H 746.139 3.11051 0.255688 0
M  V30 7902 N 746.441 0.193421 1.56409 0
M  V30 7903 C 747.687 -0.446449 1.97825 0
M  V30 7904 C 748.02 -1.61386 1.08019 0
M  V30 7905 O 747.295 -1.94053 0.131839 0
M  V30 7906 C 747.578 -0.908199 3.48459 0
M  V30 7907 C 747.431 0.260914 4.49043 0
M  V30 7908 C 748.75 -1.77428 4.0275 0
M  V30 7909 H 745.869 -0.160807 0.719243 0
M  V30 7910 H 748.511 0.284006 1.87865 0
M  V30 7911 H 746.661 -1.53062 3.57077 0
M  V30 7912 H 748.333 0.898548 4.52464 0
M  V30 7913 H 746.576 0.912949 4.24085 0
M  V30 7914 H 747.247 -0.104657 5.51901 0
M  V30 7915 H 749.723 -1.24936 3.96901 0
M  V30 7916 H 748.599 -2.06633 5.08521 0
M  V30 7917 H 748.86 -2.72788 3.47907 0
M  V30 7918 N 747.919 -1.57396 -0.0801906 0
M  V30 7919 C 749.165 -1.87113 -0.782083 0
M  V30 7920 C 749.498 -0.78458 -1.77646 0
M  V30 7921 O 748.773 0.205993 -1.93406 0
M  V30 7922 C 749.056 -3.27483 -1.49756 0
M  V30 7923 C 748.909 -4.46782 -0.520171 0
M  V30 7924 C 750.228 -3.65965 -2.44454 0
M  V30 7925 H 747.347 -0.680559 -0.282858 0
M  V30 7926 H 749.989 -1.89946 -0.0454139 0
M  V30 7927 H 748.139 -3.25199 -2.12551 0
M  V30 7928 H 749.811 -4.61187 0.101919 0
M  V30 7929 H 748.054 -4.33485 0.165219 0
M  V30 7930 H 748.725 -5.41761 -1.05824 0
M  V30 7931 H 751.201 -3.69289 -1.91742 0
M  V30 7932 H 750.077 -4.65086 -2.91524 0
M  V30 7933 H 750.338 -2.95446 -3.28883 0
M  V30 7934 N 749.397 0.351382 -1.53633 0
M  V30 7935 C 750.344 1.43115 -1.81071 0
M  V30 7936 C 751.314 1.52601 -0.655913 0
M  V30 7937 O 752.499 1.68264 -0.89955 0
M  V30 7938 C 749.639 2.79874 -2.01903 0
M  V30 7939 C 748.752 2.79242 -3.29618 0
M  V30 7940 C 747.887 4.07667 -3.40559 0
M  V30 7941 C 746.926 4.01233 -4.62254 0
M  V30 7942 N 746.063 5.21334 -4.70271 0
M  V30 7943 H 750.903 1.19017 -2.73201 0
M  V30 7944 H 748.44 0.576691 -1.35324 0
M  V30 7945 H 750.398 3.5934 -2.11969 0
M  V30 7946 H 749.028 3.0234 -1.13094 0
M  V30 7947 H 748.08 1.91927 -3.28433 0
M  V30 7948 H 749.392 2.70363 -4.19172 0
M  V30 7949 H 748.546 4.95555 -3.50015 0
M  V30 7950 H 747.285 4.19317 -2.49047 0
M  V30 7951 H 746.29 3.11732 -4.52884 0
M  V30 7952 H 747.515 3.91173 -5.55122 0
M  V30 7953 H 745.461 5.33543 -3.81665 0
M  V30 7954 H 745.378 5.14681 -5.5375 0
M  V30 7955 H 746.646 6.11014 -4.84027 0
M  V30 7956 N 750.875 1.45233 0.611969 0
M  V30 7957 C 752.286 1.4354 1.19387 0
M  V30 7958 C 752.637 0.160713 1.95541 0
M  V30 7959 O 751.762 -0.737954 2.03429 0
M  V30 7960 C 752.357 2.60045 2.17169 0
M  V30 7961 C 750.916 2.61486 2.70744 0
M  V30 7962 C 750.063 2.35708 1.46072 0
M  V30 7963 H 753.014 1.53536 0.401529 0
M  V30 7964 H 753.035 2.33893 3.00124 0
M  V30 7965 H 752.547 3.52803 1.61714 0
M  V30 7966 H 750.648 1.72721 3.30149 0
M  V30 7967 H 750.761 3.60572 3.15476 0
M  V30 7968 H 749.125 1.85178 1.74875 0
M  V30 7969 H 749.908 3.30606 0.924922 0
M  V30 7970 N 752.353 -0.854086 1.3245 0
M  V30 7971 C 753.599 -1.61069 1.23225 0
M  V30 7972 C 753.932 -1.93111 -0.205349 0
M  V30 7973 O 753.207 -1.57397 -1.14265 0
M  V30 7974 C 753.49 -2.93065 2.09249 0
M  V30 7975 C 753.343 -2.67801 3.6139 0
M  V30 7976 C 754.662 -3.94341 1.95406 0
M  V30 7977 H 751.781 -0.584449 0.448986 0
M  V30 7978 H 754.423 -0.986189 1.62402 0
M  V30 7979 H 752.573 -3.46364 1.75967 0
M  V30 7980 H 754.245 -2.21052 4.04887 0
M  V30 7981 H 752.488 -2.01756 3.84027 0
M  V30 7982 H 753.159 -3.6179 4.16907 0
M  V30 7983 H 755.635 -3.50301 2.24562 0
M  V30 7984 H 754.511 -4.84555 2.57872 0
M  V30 7985 H 754.772 -4.32382 0.921865 0
M  V30 7986 N 753.831 -1.1567 -1.07043 0
M  V30 7987 C 754.763 -0.814095 -2.14255 0
M  V30 7988 C 755.776 0.175293 -1.61854 0
M  V30 7989 O 756.965 -0.0483984 -1.78434 0
M  V30 7990 C 754.065 -0.190082 -3.38367 0
M  V30 7991 C 753.238 -1.21768 -4.20109 0
M  V30 7992 C 752.297 -0.614863 -5.22595 0
M  V30 7993 O 751.323 -1.28167 -5.54583 0
M  V30 7994 N 752.525 0.601955 -5.77371 0
M  V30 7995 H 755.29 -1.73677 -2.44247 0
M  V30 7996 H 752.851 -1.05301 -1.22977 0
M  V30 7997 H 754.843 0.22604 -4.04068 0
M  V30 7998 H 753.413 0.635992 -3.06062 0
M  V30 7999 H 752.633 -1.81025 -3.50177 0
M  V30 8000 H 753.921 -1.9114 -4.71533 0
M  V30 8001 H 753.319 1.162 -5.53637 0
M  V30 8002 H 751.876 0.96039 -6.44686 0
M  V30 8003 N 755.309 1.25446 -0.953992 0
M  V30 8004 C 756.72 1.75047 -0.649255 0
M  V30 8005 C 757.071 1.77527 0.835385 0
M  V30 8006 O 756.196 1.39569 1.65377 0
M  V30 8007 C 756.791 3.17889 -1.17183 0
M  V30 8008 C 755.35 3.65052 -0.917267 0
M  V30 8009 C 754.497 2.44124 -1.31525 0
M  V30 8010 H 757.448 1.11342 -1.13087 0
M  V30 8011 H 757.469 3.76768 -0.531616 0
M  V30 8012 H 756.981 3.16052 -2.25239 0
M  V30 8013 H 755.082 3.72305 0.148354 0
M  V30 8014 H 755.195 4.53222 -1.55328 0
M  V30 8015 H 753.559 2.43906 -0.733624 0
M  V30 8016 H 754.342 2.44979 -2.405 0
M  V30 8017 N 756.787 0.722489 1.40064 0
M  V30 8018 C 758.012 0.273446 2.05589 0
M  V30 8019 C 758.437 -1.07875 1.54093 0
M  V30 8020 O 757.795 -1.68095 0.679252 0
M  V30 8021 C 757.843 0.271023 3.5958 0
M  V30 8022 O 756.947 -0.745499 4.05606 0
M  V30 8023 H 756.288 0.126856 0.65177 0
M  V30 8024 H 758.818 0.984906 1.79334 0
M  V30 8025 H 758.828 0.111084 4.07849 0
M  V30 8026 H 757.503 1.25776 3.96425 0
M  V30 8027 H 756.08 -0.552719 3.68781 0
M  V30 8028 N 758.265 -1.50454 0.469181 0
M  V30 8029 C 759.513 -2.01916 -0.0862982 0
M  V30 8030 C 759.834 -1.35337 -1.40388 0
M  V30 8031 O 759.104 -0.498096 -1.89462 0
M  V30 8032 H 757.684 -0.746185 -0.0348825 0
M  V30 8033 H 760.346 -1.84804 0.619167 0
M  V30 8034 H 759.442 -3.11182 -0.239189 0
M  V30 8035 N 759.743 -0.201713 -1.56304 0
M  V30 8036 C 761.154 0.309711 -1.84113 0
M  V30 8037 C 761.505 1.60912 -1.12258 0
M  V30 8038 O 760.63 2.12937 -0.385587 0
M  V30 8039 C 761.225 0.568706 -3.33993 0
M  V30 8040 C 759.784 1.02448 -3.6219 0
M  V30 8041 C 758.931 0.0766842 -2.77194 0
M  V30 8042 H 761.882 -0.425356 -1.52893 0
M  V30 8043 H 761.903 1.41721 -3.53122 0
M  V30 8044 H 761.415 -0.37719 -3.86263 0
M  V30 8045 H 759.516 1.98443 -3.15359 0
M  V30 8046 H 759.629 0.912619 -4.70328 0
M  V30 8047 H 757.993 0.579809 -2.48013 0
M  V30 8048 H 758.776 -0.863774 -3.32256 0
M  V30 8049 N 761.222 1.57436 0.0718424 0
M  V30 8050 C 762.132 2.07039 1.10326 0
M  V30 8051 C 763.148 0.999918 1.424 0
M  V30 8052 O 764.324 1.31462 1.52577 0
M  V30 8053 C 761.389 2.50439 2.39752 0
M  V30 8054 C 760.45 3.71784 2.14651 0
M  V30 8055 C 759.683 4.13104 3.37906 0
M  V30 8056 O 759.906 3.54298 4.47023 0
M  V30 8057 O 758.84 5.05894 3.26121 0
M  V30 8058 H 762.666 2.95239 0.711872 0
M  V30 8059 H 760.251 1.46638 0.28597 0
M  V30 8060 H 762.133 2.78876 3.15921 0
M  V30 8061 H 760.808 1.65368 2.78271 0
M  V30 8062 H 759.715 3.48431 1.36187 0
M  V30 8063 H 761.048 4.57707 1.81012 0
M  V30 8064 N 762.7 -0.34323 1.53817 0
M  V30 8065 C 763.948 -1.0813 1.70741 0
M  V30 8066 C 764.269 -1.89165 0.473461 0
M  V30 8067 O 763.539 -1.89075 -0.512605 0
M  V30 8068 H 762.119 -0.40219 0.629486 0
M  V30 8069 H 764.781 -0.384426 1.91071 0
M  V30 8070 H 763.877 -1.7585 2.57843 0
M  V30 8071 N 764.178 -1.45556 -0.604258 0
M  V30 8072 C 765.424 -1.49968 -1.36519 0
M  V30 8073 C 765.757 -0.142236 -1.93678 0
M  V30 8074 O 765.032 0.843717 -1.75247 0
M  V30 8075 C 765.315 -2.58146 -2.51063 0
M  V30 8076 C 765.168 -4.03346 -1.99078 0
M  V30 8077 C 766.487 -2.62581 -3.53184 0
M  V30 8078 H 763.606 -0.545993 -0.495036 0
M  V30 8079 H 766.248 -1.77382 -0.680845 0
M  V30 8080 H 764.398 -2.34901 -3.09441 0
M  V30 8081 H 766.07 -4.37811 -1.45323 0
M  V30 8082 H 764.313 -4.13845 -1.30055 0
M  V30 8083 H 764.984 -4.74731 -2.81664 0
M  V30 8084 H 767.46 -2.83419 -3.04652 0
M  V30 8085 H 766.336 -3.40131 -4.30816 0
M  V30 8086 H 766.597 -1.67798 -4.09019 0
M  V30 8087 N 765.656 0.84705 -1.32902 0
M  V30 8088 C 767.067 1.41785 -1.21466 0
M  V30 8089 C 767.418 1.95464 0.169767 0
M  V30 8090 O 766.543 1.88157 1.06892 0
M  V30 8091 C 767.138 2.57734 -2.19906 0
M  V30 8092 C 765.697 3.10791 -2.12334 0
M  V30 8093 C 764.844 1.83562 -2.07847 0
M  V30 8094 H 767.795 0.653532 -1.44619 0
M  V30 8095 H 767.816 3.35123 -1.80202 0
M  V30 8096 H 767.328 2.18635 -3.20656 0
M  V30 8097 H 765.429 3.54455 -1.14858 0
M  V30 8098 H 765.542 3.71519 -3.02506 0
M  V30 8099 H 763.906 2.03475 -1.53199 0
M  V30 8100 H 764.689 1.4667 -3.10392 0
M  V30 8101 N 767.134 1.16236 1.06428 0
M  V30 8102 C 768.084 0.835994 2.12121 0
M  V30 8103 C 769.068 -0.183955 1.59845 0
M  V30 8104 O 770.26 0.0166741 1.76992 0
M  V30 8105 C 767.389 0.337333 3.41639 0
M  V30 8106 C 766.475 1.38798 4.00744 0
M  V30 8107 N 766.866 2.59799 4.3398 0
M  V30 8108 C 765.164 1.24292 4.28331 0
M  V30 8109 C 765.865 3.27213 4.80943 0
M  V30 8110 N 764.841 2.54594 4.80294 0
M  V30 8111 H 768.643 1.75615 2.35662 0
M  V30 8112 H 766.157 1.04921 1.23957 0
M  V30 8113 H 768.154 0.0851274 4.16813 0
M  V30 8114 H 766.814 -0.57677 3.19536 0
M  V30 8115 H 767.825 2.96867 4.24371 0
M  V30 8116 H 764.502 0.389464 4.15679 0
M  V30 8117 H 765.892 4.30492 5.15874 0
M  V30 8118 N 768.612 -1.24939 0.960631 0
M  V30 8119 C 769.842 -1.96595 0.635123 0
M  V30 8120 C 770.25 -1.71538 -0.798206 0
M  V30 8121 O 769.593 -0.991727 -1.5463 0
M  V30 8122 C 769.655 -3.49994 0.821248 0
M  V30 8123 C 769.319 -3.98738 2.23287 0
M  V30 8124 C 770.316 -4.08965 3.21004 0
M  V30 8125 C 768.001 -4.32247 2.55867 0
M  V30 8126 C 769.995 -4.52025 4.49391 0
M  V30 8127 C 767.682 -4.74991 3.84482 0
M  V30 8128 C 768.68 -4.84844 4.81056 0
M  V30 8129 O 768.368 -5.26638 6.07378 0
M  V30 8130 H 768.1 -0.633265 0.23654 0
M  V30 8131 H 770.654 -1.5991 1.28911 0
M  V30 8132 H 768.884 -3.86543 0.110105 0
M  V30 8133 H 770.573 -4.02859 0.495892 0
M  V30 8134 H 771.339 -3.83302 2.97161 0
M  V30 8135 H 767.218 -4.23801 1.81421 0
M  V30 8136 H 770.762 -4.5963 5.24773 0
M  V30 8137 H 766.659 -5.00101 4.08129 0
M  V30 8138 H 767.427 -5.44807 6.10842 0
M  V30 8139 N 770.09 -0.729906 -1.39679 0
M  V30 8140 C 771.053 -0.0951668 -2.29002 0
M  V30 8141 C 772.053 0.672471 -1.46063 0
M  V30 8142 O 773.243 0.502245 -1.66803 0
M  V30 8143 C 770.375 0.874631 -3.29489 0
M  V30 8144 H 771.568 -0.882062 -2.86635 0
M  V30 8145 H 769.121 -0.495424 -1.4824 0
M  V30 8146 H 769.856 1.68807 -2.76902 0
M  V30 8147 H 769.641 0.326893 -3.90735 0
M  V30 8148 H 771.131 1.31548 -3.96339 0
M  V30 8149 N 771.568 1.50203 -0.477153 0
M  V30 8150 C 772.478 2.32421 0.319027 0
M  V30 8151 C 773.494 1.43075 0.990233 0
M  V30 8152 O 774.67 1.76123 0.976873 0
M  V30 8153 C 771.735 3.17909 1.38328 0
M  V30 8154 C 770.796 4.23082 0.728036 0
M  V30 8155 C 770.029 5.04484 1.74158 0
M  V30 8156 O 770.252 4.8705 2.96881 0
M  V30 8157 O 769.186 5.8747 1.31006 0
M  V30 8158 H 773.012 3.01638 -0.353281 0
M  V30 8159 H 770.597 1.47478 -0.238891 0
M  V30 8160 H 772.479 3.70937 1.9996 0
M  V30 8161 H 771.154 2.51413 2.03895 0
M  V30 8162 H 770.061 3.7403 0.07261 0
M  V30 8163 H 771.394 4.92065 0.115216 0
M  V30 8164 N 773.046 0.209999 1.56195 0
M  V30 8165 C 774.009 -0.691232 2.18528 0
M  V30 8166 C 775.009 -1.13013 1.14388 0
M  V30 8167 O 776.199 -1.04081 1.39688 0
M  V30 8168 C 773.331 -1.94551 2.79934 0
M  V30 8169 H 774.524 -0.147953 2.99535 0
M  V30 8170 H 772.077 -0.0396243 1.5625 0
M  V30 8171 H 772.812 -2.53094 2.02766 0
M  V30 8172 H 772.597 -1.63938 3.56184 0
M  V30 8173 H 774.087 -2.58785 3.2775 0
M  V30 8174 N 774.524 -1.57472 -0.0634922 0
M  V30 8175 C 775.801 -1.78736 -0.794538 0
M  V30 8176 C 776.181 -0.799645 -1.95369 0
M  V30 8177 O 775.529 0.165521 -2.279 0
M  V30 8178 C 775.739 -3.25471 -1.25975 0
M  V30 8179 C 777.087 -3.89528 -1.68976 0
M  V30 8180 O 778.111 -3.29412 -1.35521 0
M  V30 8181 O 776.97 -4.95305 -2.30944 0
M  V30 8182 H 774.064 -0.733813 -0.381376 0
M  V30 8183 H 776.61 -1.69646 -0.0429258 0
M  V30 8184 H 775.382 -3.88922 -0.430721 0
M  V30 8185 H 775.005 -3.39317 -2.07243 0
M  V30 8186 N 776.003 0.335068 -1.53997 0
M  V30 8187 C 777.252 1.07182 -1.70865 0
M  V30 8188 C 777.565 1.89541 -0.483078 0
M  V30 8189 O 778.771 2.66219 -0.532879 0
M  V30 8190 C 777.227 1.95497 -3.02174 0
M  V30 8191 C 776.835 1.18304 -4.32097 0
M  V30 8192 C 778.579 2.68978 -3.28407 0
M  V30 8193 C 776.486 2.05699 -5.54474 0
M  V30 8194 H 775.416 0.403857 -0.636722 0
M  V30 8195 H 778.067 0.33076 -1.80494 0
M  V30 8196 H 776.449 2.73456 -2.86423 0
M  V30 8197 H 777.623 0.451969 -4.58578 0
M  V30 8198 H 775.938 0.565556 -4.12541 0
M  V30 8199 H 778.535 3.34651 -4.17029 0
M  V30 8200 H 778.878 3.36 -2.45784 0
M  V30 8201 H 779.411 1.98087 -3.44973 0
M  V30 8202 H 776.15 1.43204 -6.39666 0
M  V30 8203 H 775.67 2.76572 -5.32229 0
M  V30 8204 H 777.349 2.64554 -5.90441 0
M  V30 8205 N 777.481 1.45874 0.596531 0
M  V30 8206 C 778.727 1.5069 1.35722 0
M  V30 8207 C 779.06 0.152506 1.936 0
M  V30 8208 O 778.335 -0.834411 1.75692 0
M  V30 8209 C 778.618 2.59474 2.4969 0
M  V30 8210 C 778.471 4.04396 1.96937 0
M  V30 8211 C 779.79 2.64451 3.51787 0
M  V30 8212 H 776.909 0.548611 0.492133 0
M  V30 8213 H 779.551 1.77741 0.671428 0
M  V30 8214 H 777.701 2.36539 3.08191 0
M  V30 8215 H 779.373 4.38576 1.43 0
M  V30 8216 H 777.616 4.14529 1.27859 0
M  V30 8217 H 778.287 4.76218 2.79143 0
M  V30 8218 H 780.763 2.85031 3.03145 0
M  V30 8219 H 779.639 3.42411 4.29006 0
M  V30 8220 H 779.9 1.69965 4.08123 0
M  V30 8221 N 778.959 -0.83999 1.33349 0
M  V30 8222 C 779.907 -1.97113 1.23488 0
M  V30 8223 C 780.901 -1.68849 0.136503 0
M  V30 8224 O 782.107 -1.77476 0.300389 0
M  V30 8225 H 778.482 -0.647049 0.383185 0
M  V30 8226 H 780.453 -2.02554 2.19122 0
M  V30 8227 C 779.202 -3.33314 0.989815 0
M  V30 8228 H 778.525 -3.556 1.82726 0
M  V30 8229 H 779.965 -4.12963 0.961123 0
M  V30 8230 C 778.424 -3.35496 -0.307272 0
M  V30 8231 O 778.954 -3.79589 -1.31434 0
M  V30 8232 N 777.16 -2.88669 -0.334414 0
M  V30 8233 H 776.707 -2.5298 0.485659 0
M  V30 8234 H 776.665 -2.90512 -1.20209 0
M  V30 8235 N 780.437 -1.16799 -1.0581 0
M  V30 8236 C 781.367 -0.902241 -2.15364 0
M  V30 8237 C 782.348 0.153351 -1.69407 0
M  V30 8238 O 783.533 0.00442032 -1.94199 0
M  V30 8239 C 780.663 -0.407911 -3.44896 0
M  V30 8240 C 779.617 -1.40197 -4.04387 0
M  V30 8241 C 778.943 -0.765848 -5.29187 0
M  V30 8242 C 780.243 -2.77316 -4.42598 0
M  V30 8243 H 781.937 -1.81841 -2.37853 0
M  V30 8244 H 779.483 -0.875731 -1.14311 0
M  V30 8245 H 781.436 -0.20945 -4.20879 0
M  V30 8246 H 780.16 0.54378 -3.22041 0
M  V30 8247 H 778.819 -1.58707 -3.30466 0
M  V30 8248 H 778.467 0.192482 -5.02632 0
M  V30 8249 H 778.167 -1.42939 -5.69949 0
M  V30 8250 H 779.691 -0.577519 -6.07863 0
M  V30 8251 H 781.105 -2.62561 -5.09642 0
M  V30 8252 H 779.502 -3.4019 -4.94359 0
M  V30 8253 H 780.572 -3.32199 -3.53231 0
M  V30 8254 N 781.915 1.24427 -0.967243 0
M  V30 8255 C 782.847 2.24641 -0.454856 0
M  V30 8256 C 783.86 1.56849 0.436152 0
M  V30 8257 O 785.049 1.76846 0.242401 0
M  V30 8258 C 782.149 3.36954 0.362672 0
M  V30 8259 C 781.322 4.34318 -0.518324 0
M  V30 8260 C 780.381 5.25638 0.243122 0
M  V30 8261 O 779.407 5.68043 -0.362791 0
M  V30 8262 N 780.609 5.59897 1.53282 0
M  V30 8263 H 783.374 2.69238 -1.31648 0
M  V30 8264 H 780.935 1.38464 -0.839015 0
M  V30 8265 H 782.927 3.95014 0.880094 0
M  V30 8266 H 781.497 2.91646 1.12522 0
M  V30 8267 H 780.717 3.74953 -1.21672 0
M  V30 8268 H 782.005 4.96338 -1.11919 0
M  V30 8269 H 781.403 5.27373 2.04682 0
M  V30 8270 H 779.96 6.20488 1.99594 0
M  V30 8271 N 783.393 0.737304 1.3929 0
M  V30 8272 C 784.641 0.285691 2.00071 0
M  V30 8273 C 784.962 -1.13169 1.58801 0
M  V30 8274 O 784.232 -1.77104 0.837308 0
M  V30 8275 H 782.812 0.102638 0.739915 0
M  V30 8276 H 785.474 0.947775 1.70303 0
M  V30 8277 H 784.57 0.335906 3.10287 0
M  V30 8278 N 784.871 -1.49948 0.485112 0
M  V30 8279 C 786.117 -2.02695 -0.0651022 0
M  V30 8280 C 786.45 -1.36534 -1.38102 0
M  V30 8281 O 785.725 -0.495677 -1.88078 0
M  V30 8282 C 786.008 -3.59337 -0.234285 0
M  V30 8283 C 785.861 -4.3605 1.10364 0
M  V30 8284 C 787.18 -4.28996 -0.982351 0
M  V30 8285 H 784.299 -0.736666 -0.0221856 0
M  V30 8286 H 786.941 -1.7913 0.633433 0
M  V30 8287 H 785.091 -3.79546 -0.829262 0
M  V30 8288 H 786.763 -4.27377 1.73627 0
M  V30 8289 H 785.006 -3.99236 1.69686 0
M  V30 8290 H 785.677 -5.43959 0.938743 0
M  V30 8291 H 788.153 -4.13346 -0.477904 0
M  V30 8292 H 787.029 -5.38379 -1.06955 0
M  V30 8293 H 787.29 -3.93135 -2.02231 0
M  V30 8294 N 786.349 -0.21828 -1.56081 0
M  V30 8295 C 787.577 0.419258 -2.02608 0
M  V30 8296 C 787.992 1.53578 -1.09814 0
M  V30 8297 O 787.349 1.82185 -0.107149 0
M  V30 8298 C 787.4 0.953955 -3.48686 0
M  V30 8299 O 787.121 -0.11805 -4.37941 0
M  V30 8300 C 788.622 1.66506 -4.10841 0
M  V30 8301 H 785.842 0.10296 -0.663054 0
M  V30 8302 H 788.386 -0.333776 -2.01758 0
M  V30 8303 H 786.541 1.65727 -3.50162 0
M  V30 8304 H 786.955 0.283359 -5.23734 0
M  V30 8305 H 788.429 1.99123 -5.14834 0
M  V30 8306 H 788.906 2.57705 -3.55647 0
M  V30 8307 H 789.512 1.00703 -4.13206 0
M  V30 8308 N 787.827 1.57504 0.0551401 0
M  V30 8309 C 789.075 1.87684 0.74962 0
M  V30 8310 C 789.396 0.812547 1.77264 0
M  V30 8311 O 788.666 -0.15694 1.9527 0
M  V30 8312 H 787.246 0.6926 0.279846 0
M  V30 8313 H 789.908 1.94881 0.0272745 0
M  V30 8314 H 789.004 2.85734 1.25548 0
M  V30 8315 N 789.305 -0.326896 1.54172 0
M  V30 8316 C 790.553 -1.06313 1.71878 0
M  V30 8317 C 790.874 -1.88652 0.493498 0
M  V30 8318 O 790.144 -1.89608 -0.492522 0
M  V30 8319 H 788.724 -0.39549 0.633716 0
M  V30 8320 H 791.386 -0.364139 1.91468 0
M  V30 8321 H 790.482 -1.73105 2.59694 0
M  V30 8322 N 790.784 -1.46188 -0.588786 0
M  V30 8323 C 791.732 -1.56653 -1.71938 0
M  V30 8324 C 792.726 -0.435354 -1.6371 0
M  V30 8325 O 793.932 -0.611996 -1.69277 0
M  V30 8326 H 790.307 -0.492408 -0.568365 0
M  V30 8327 H 792.278 -2.51724 -1.60242 0
M  V30 8328 C 791.027 -1.56822 -3.10326 0
M  V30 8329 H 790.35 -2.43198 -3.17325 0
M  V30 8330 H 791.79 -1.68199 -3.89211 0
M  V30 8331 C 790.249 -0.295802 -3.35599 0
M  V30 8332 O 790.779 0.616515 -3.96941 0
M  V30 8333 N 788.985 -0.185609 -2.90007 0
M  V30 8334 H 788.532 -0.928914 -2.40269 0
M  V30 8335 H 788.49 0.664883 -3.07289 0
M  V30 8336 N 792.262 0.832906 -1.33792 0
M  V30 8337 C 793.49 1.62048 -1.28639 0
M  V30 8338 C 793.905 1.88269 0.141522 0
M  V30 8339 O 793.262 1.46706 1.08553 0
M  V30 8340 C 793.313 2.96722 -2.0649 0
M  V30 8341 O 793.034 2.7165 -3.43712 0
M  V30 8342 C 794.535 3.91144 -2.08617 0
M  V30 8343 H 791.755 0.504032 -0.442937 0
M  V30 8344 H 794.299 1.03704 -1.76255 0
M  V30 8345 H 792.454 3.51652 -1.62541 0
M  V30 8346 H 792.868 3.57453 -3.83833 0
M  V30 8347 H 794.342 4.82837 -2.67531 0
M  V30 8348 H 794.819 4.25766 -1.07796 0
M  V30 8349 H 795.425 3.42152 -2.52611 0
M  V30 8350 N 793.74 1.17359 1.05189 0
M  V30 8351 C 794.97 0.985099 1.81602 0
M  V30 8352 C 795.378 -0.469872 1.83273 0
M  V30 8353 O 794.721 -1.33806 1.25864 0
M  V30 8354 C 794.783 1.44956 3.2898 0
M  V30 8355 C 794.447 2.92666 3.50993 0
M  V30 8356 C 795.444 3.906 3.43115 0
M  V30 8357 C 793.129 3.30841 3.77954 0
M  V30 8358 C 795.123 5.24709 3.61883 0
M  V30 8359 C 792.81 4.65116 3.96371 0
M  V30 8360 C 793.808 5.61859 3.88335 0
M  V30 8361 O 793.496 6.93704 4.06238 0
M  V30 8362 H 793.228 0.348731 0.579105 0
M  V30 8363 H 795.782 1.56066 1.33539 0
M  V30 8364 H 794.012 0.817559 3.77959 0
M  V30 8365 H 795.701 1.22674 3.86919 0
M  V30 8366 H 796.467 3.62453 3.22262 0
M  V30 8367 H 792.346 2.5611 3.83313 0
M  V30 8368 H 795.89 6.00205 3.55527 0
M  V30 8369 H 791.787 4.92969 4.16715 0
M  V30 8370 H 792.555 7.00443 4.23463 0
M  V30 8371 N 795.218 -1.23913 0.973828 0
M  V30 8372 C 796.443 -1.96735 0.656511 0
M  V30 8373 C 796.868 -1.71682 -0.768571 0
M  V30 8374 O 796.226 -0.984267 -1.52256 0
M  V30 8375 C 796.274 -3.48004 0.944735 0
M  V30 8376 O 795.378 -4.12387 0.0333357 0
M  V30 8377 H 794.719 -0.616119 0.247575 0
M  V30 8378 H 797.249 -1.57525 1.30564 0
M  V30 8379 H 797.259 -3.98424 0.87876 0
M  V30 8380 H 795.934 -3.65567 1.98328 0
M  V30 8381 H 794.511 -3.72585 0.153157 0
M  V30 8382 N 796.696 -0.74468 -1.38897 0
M  V30 8383 C 797.942 -0.297324 -2.00609 0
M  V30 8384 C 798.275 1.11547 -1.58968 0
M  V30 8385 O 797.55 1.76227 -0.823057 0
M  V30 8386 C 797.833 -0.410125 -3.57757 0
M  V30 8387 C 797.686 -1.86338 -4.09387 0
M  V30 8388 C 799.005 0.20176 -4.39637 0
M  V30 8389 H 796.124 -0.109509 -0.728819 0
M  V30 8390 H 798.766 -0.942653 -1.64967 0
M  V30 8391 H 796.916 0.139287 -3.8825 0
M  V30 8392 H 798.588 -2.47042 -3.89574 0
M  V30 8393 H 796.831 -2.38146 -3.62586 0
M  V30 8394 H 797.502 -1.89352 -5.18507 0
M  V30 8395 H 799.978 -0.266703 -4.15244 0
M  V30 8396 H 798.854 0.0925415 -5.48822 0
M  V30 8397 H 799.115 1.289 -4.22891 0
M  V30 8398 N 798.174 1.49689 -0.493057 0
M  V30 8399 C 799.585 1.8665 -0.0433032 0
M  V30 8400 C 799.936 1.40607 1.36836 0
M  V30 8401 O 799.061 0.780503 2.01834 0
M  V30 8402 C 799.656 3.38724 -0.0718069 0
M  V30 8403 C 798.215 3.75015 0.32257 0
M  V30 8404 C 797.362 2.7366 -0.4478 0
M  V30 8405 H 800.313 1.42119 -0.706246 0
M  V30 8406 H 800.334 3.73522 0.725347 0
M  V30 8407 H 799.846 3.72204 -1.09935 0
M  V30 8408 H 797.947 3.47142 1.35364 0
M  V30 8409 H 798.06 4.79099 0.00864259 0
M  V30 8410 H 796.424 2.54498 0.101354 0
M  V30 8411 H 797.207 3.09985 -1.47527 0
M  V30 8412 N 799.652 0.226554 1.55963 0
M  V30 8413 C 800.615 -0.668015 2.19249 0
M  V30 8414 C 801.615 -1.11794 1.1558 0
M  V30 8415 O 802.805 -1.02593 1.40784 0
M  V30 8416 C 799.937 -1.91571 2.81981 0
M  V30 8417 H 801.13 -0.116175 2.99675 0
M  V30 8418 H 798.683 -0.0230497 1.56283 0
M  V30 8419 H 799.418 -2.50929 2.05439 0
M  V30 8420 H 799.203 -1.6015 3.57903 0
M  V30 8421 H 800.693 -2.55294 3.30477 0
M  V30 8422 N 801.13 -1.57531 -0.0467866 0
M  V30 8423 C 802.376 -1.8873 -0.742218 0
M  V30 8424 C 802.709 -0.822084 -1.75941 0
M  V30 8425 O 801.984 0.164922 -1.938 0
M  V30 8426 C 802.267 -3.30586 -1.42776 0
M  V30 8427 C 802.12 -4.47785 -0.425285 0
M  V30 8428 C 803.439 -3.71068 -2.36636 0
M  V30 8429 H 800.558 -0.686406 -0.268359 0
M  V30 8430 H 803.2 -1.89999 -0.00511341 0
M  V30 8431 H 801.35 -3.29634 -2.05605 0
M  V30 8432 H 803.022 -4.60867 0.199721 0
M  V30 8433 H 801.265 -4.33037 0.25713 0
M  V30 8434 H 801.936 -5.43884 -0.943086 0
M  V30 8435 H 804.412 -3.73273 -1.83866 0
M  V30 8436 H 803.288 -4.71165 -2.81593 0
M  V30 8437 H 803.549 -3.02355 -3.22542 0
M  V30 8438 N 802.608 0.318715 -1.54344 0
M  V30 8439 C 803.836 1.0755 -1.7675 0
M  V30 8440 C 804.251 1.81543 -0.518422 0
M  V30 8441 O 803.608 1.75198 0.511078 0
M  V30 8442 C 803.659 2.06983 -2.96378 0
M  V30 8443 O 803.38 1.35995 -4.16458 0
M  V30 8444 C 804.881 2.94841 -3.31034 0
M  V30 8445 H 802.101 0.319711 -0.589937 0
M  V30 8446 H 804.645 0.363369 -2.01246 0
M  V30 8447 H 802.8 2.73724 -2.74142 0
M  V30 8448 H 803.214 2.02623 -4.83781 0
M  V30 8449 H 804.688 3.60496 -4.18027 0
M  V30 8450 H 805.165 3.62199 -2.48412 0
M  V30 8451 H 805.771 2.33656 -3.55366 0
M  V30 8452 N 804.086 1.46499 0.581025 0
M  V30 8453 C 805.019 1.51706 1.70472 0
M  V30 8454 C 805.997 0.371036 1.5831 0
M  V30 8455 O 807.181 0.575426 1.79502 0
M  V30 8456 C 804.308 1.3972 3.08538 0
M  V30 8457 C 803.354 2.58525 3.39215 0
M  V30 8458 S 804.187 4.20872 3.311 0
M  V30 8459 C 805.343 4.11398 4.71702 0
M  V30 8460 H 805.576 2.46777 1.65796 0
M  V30 8461 H 803.109 1.34405 0.759908 0
M  V30 8462 H 805.067 1.33492 3.88188 0
M  V30 8463 H 803.728 0.460742 3.10702 0
M  V30 8464 H 802.921 2.46137 4.3981 0
M  V30 8465 H 802.523 2.61752 2.67136 0
M  V30 8466 H 804.815 3.78182 5.62125 0
M  V30 8467 H 805.758 5.11997 4.89147 0
M  V30 8468 H 806.166 3.42624 4.48631 0
M  V30 8469 N 805.565 -0.825799 1.34232 0
M  V30 8470 C 806.842 -1.56741 1.17011 0
M  V30 8471 C 807.222 -2.09512 -0.258425 0
M  V30 8472 O 806.57 -1.90664 -1.25935 0
M  V30 8473 C 806.78 -2.69104 2.22225 0
M  V30 8474 C 808.128 -3.37947 2.57055 0
M  V30 8475 O 809.152 -2.79358 2.20992 0
M  V30 8476 O 808.011 -4.43743 3.1899 0
M  V30 8477 H 805.105 -0.69163 0.453405 0
M  V30 8478 H 807.651 -0.867422 1.45856 0
M  V30 8479 H 806.423 -2.27844 3.18124 0
M  V30 8480 H 806.046 -3.46756 1.94541 0
M  V30 8481 N 807.043 -1.17915 -1.04565 0
M  V30 8482 C 807.973 -0.925033 -2.14395 0
M  V30 8483 C 808.954 0.135375 -1.6956 0
M  V30 8484 O 810.139 -0.0161774 -1.94193 0
M  V30 8485 C 807.269 -0.444469 -3.44444 0
M  V30 8486 C 806.223 -1.44478 -4.02877 0
M  V30 8487 C 805.549 -0.821933 -5.28345 0
M  V30 8488 C 806.849 -2.81995 -4.39632 0
M  V30 8489 H 808.543 -1.84354 -2.35911 0
M  V30 8490 H 806.089 -0.887806 -1.13375 0
M  V30 8491 H 808.042 -0.254078 -4.20633 0
M  V30 8492 H 806.766 0.509592 -3.226 0
M  V30 8493 H 805.425 -1.62203 -3.28764 0
M  V30 8494 H 805.073 0.139161 -5.02807 0
M  V30 8495 H 804.773 -1.48976 -5.68401 0
M  V30 8496 H 806.297 -0.641959 -6.07216 0
M  V30 8497 H 807.711 -2.67952 -5.06828 0
M  V30 8498 H 806.108 -3.45414 -4.90723 0
M  V30 8499 H 807.178 -3.35927 -3.49687 0
M  V30 8500 N 808.521 1.23394 -0.980386 0
M  V30 8501 C 809.451 2.2717 -0.540024 0
M  V30 8502 C 810.432 1.64659 0.426787 0
M  V30 8503 O 811.617 1.91543 0.320153 0
M  V30 8504 C 808.747 3.46939 0.15836 0
M  V30 8505 C 807.701 4.21802 -0.725732 0
M  V30 8506 C 807.027 5.34597 0.104866 0
M  V30 8507 C 808.327 4.81802 -2.01654 0
M  V30 8508 H 810.021 2.64257 -1.40743 0
M  V30 8509 H 807.567 1.2703 -0.678193 0
M  V30 8510 H 809.52 4.18683 0.477737 0
M  V30 8511 H 808.244 3.08912 1.06022 0
M  V30 8512 H 806.903 3.51875 -1.02857 0
M  V30 8513 H 806.551 4.92812 1.00726 0
M  V30 8514 H 806.251 5.85607 -0.483557 0
M  V30 8515 H 807.775 6.09163 0.418624 0
M  V30 8516 H 809.189 5.45554 -1.76193 0
M  V30 8517 H 807.586 5.43098 -2.55273 0
M  V30 8518 H 808.656 4.02549 -2.70338 0
M  V30 8519 N 809.999 0.752036 1.385 0
M  V30 8520 C 811.224 0.316993 2.04963 0
M  V30 8521 C 811.649 -1.04582 1.56346 0
M  V30 8522 O 811.007 -1.66616 0.714755 0
M  V30 8523 C 811.055 0.347235 3.58924 0
M  V30 8524 O 810.159 -0.659296 4.07096 0
M  V30 8525 H 809.5 0.140652 0.648932 0
M  V30 8526 H 812.03 1.02272 1.77205 0
M  V30 8527 H 812.04 0.19757 4.07521 0
M  V30 8528 H 810.715 1.34157 3.93668 0
M  V30 8529 H 809.292 -0.474371 3.6987 0
M  V30 8530 N 811.477 -1.49425 0.500989 0
M  V30 8531 C 812.725 -2.02053 -0.0434495 0
M  V30 8532 C 813.046 -1.38285 -1.37486 0
M  V30 8533 O 812.316 -0.538171 -1.88363 0
M  V30 8534 H 810.896 -0.746757 -0.0190469 0
M  V30 8535 H 813.558 -1.83449 0.658227 0
M  V30 8536 H 812.654 -3.11619 -0.173129 0
M  V30 8537 N 812.955 -0.234822 -1.55841 0
M  V30 8538 C 813.902 0.6698 -2.20867 0
M  V30 8539 C 814.872 1.18042 -1.16856 0
M  V30 8540 O 816.057 1.23709 -1.45261 0
M  V30 8541 C 813.197 1.86646 -2.90271 0
M  V30 8542 C 812.31 1.39351 -4.08908 0
M  V30 8543 C 811.445 2.54878 -4.66059 0
M  V30 8544 C 810.484 2.04384 -5.76969 0
M  V30 8545 N 809.621 3.13233 -6.28355 0
M  V30 8546 H 814.461 0.10858 -2.97802 0
M  V30 8547 H 811.998 0.041836 -1.4704 0
M  V30 8548 H 813.956 2.56926 -3.28702 0
M  V30 8549 H 812.586 2.40035 -2.15831 0
M  V30 8550 H 811.638 0.585173 -3.75872 0
M  V30 8551 H 812.95 0.983356 -4.89011 0
M  V30 8552 H 812.104 3.33219 -5.07001 0
M  V30 8553 H 810.843 2.99188 -3.85146 0
M  V30 8554 H 809.848 1.24509 -5.35516 0
M  V30 8555 H 811.073 1.61057 -6.59725 0
M  V30 8556 H 809.019 3.57 -5.50352 0
M  V30 8557 H 808.936 2.76511 -7.03618 0
M  V30 8558 H 810.204 3.91669 -6.73955 0
M  V30 8559 N 814.433 1.57553 0.0384317 0
M  V30 8560 C 815.71 1.79977 0.766002 0
M  V30 8561 C 816.09 0.830625 1.94072 0
M  V30 8562 O 815.438 -0.129243 2.28134 0
M  V30 8563 C 815.648 3.27434 1.20781 0
M  V30 8564 C 816.996 3.92167 1.62758 0
M  V30 8565 O 818.02 3.31527 1.30263 0
M  V30 8566 O 816.879 4.98917 2.23035 0
M  V30 8567 H 813.973 0.739787 0.369654 0
M  V30 8568 H 816.519 1.69693 0.0159312 0
M  V30 8569 H 815.291 3.89558 0.368792 0
M  V30 8570 H 814.914 3.42571 2.01819 0
M  V30 8571 N 815.911 -0.310526 1.54511 0
M  V30 8572 C 817.157 -1.04846 1.73595 0
M  V30 8573 C 817.49 -1.87244 0.515118 0
M  V30 8574 O 816.765 -1.88282 -0.48786 0
M  V30 8575 C 817.048 -1.96237 3.01932 0
M  V30 8576 C 816.901 -1.17082 4.34295 0
M  V30 8577 C 818.22 -2.9556 3.26086 0
M  V30 8578 H 815.339 -0.37976 0.631626 0
M  V30 8579 H 817.981 -0.32394 1.87218 0
M  V30 8580 H 816.131 -2.58015 2.90449 0
M  V30 8581 H 817.803 -0.576643 4.57682 0
M  V30 8582 H 816.046 -0.473336 4.3121 0
M  V30 8583 H 816.717 -1.84257 5.20339 0
M  V30 8584 H 819.193 -2.43908 3.37117 0
M  V30 8585 H 818.069 -3.5668 4.17218 0
M  V30 8586 H 818.33 -3.68715 2.4393 0
M  V30 8587 N 817.389 -1.46805 -0.573248 0
M  V30 8588 C 818.352 -1.57655 -1.66366 0
M  V30 8589 C 819.352 -0.452905 -1.5429 0
M  V30 8590 O 820.542 -0.717502 -1.58737 0
M  V30 8591 C 817.674 -1.50584 -3.05839 0
M  V30 8592 H 818.867 -2.54842 -1.581 0
M  V30 8593 H 816.42 -1.34756 -0.791868 0
M  V30 8594 H 817.155 -0.547127 -3.19651 0
M  V30 8595 H 816.94 -2.32118 -3.16012 0
M  V30 8596 H 818.43 -1.61282 -3.85199 0
M  V30 8597 N 818.867 0.818669 -1.34668 0
M  V30 8598 C 820.113 1.57746 -1.27453 0
M  V30 8599 C 820.446 1.93588 0.154077 0
M  V30 8600 O 819.721 1.60371 1.10051 0
M  V30 8601 C 820.004 2.87414 -2.16945 0
M  V30 8602 C 819.857 2.58125 -3.68363 0
M  V30 8603 C 821.176 3.89021 -2.05792 0
M  V30 8604 H 818.295 0.572339 -0.464324 0
M  V30 8605 H 820.937 0.942784 -1.64959 0
M  V30 8606 H 819.087 3.41576 -1.85089 0
M  V30 8607 H 820.759 2.10239 -4.10606 0
M  V30 8608 H 819.002 1.91503 -3.89242 0
M  V30 8609 H 819.673 3.5061 -4.26353 0
M  V30 8610 H 822.149 3.44224 -2.33771 0
M  V30 8611 H 821.025 4.77548 -2.70628 0
M  V30 8612 H 821.286 4.29786 -1.03618 0
M  V30 8613 N 820.346 1.18468 1.03938 0
M  V30 8614 C 821.256 0.927889 2.1547 0
M  V30 8615 C 822.272 -0.108447 1.73662 0
M  V30 8616 O 823.448 0.0737636 2.01265 0
M  V30 8617 C 820.513 0.458494 3.43655 0
M  V30 8618 C 819.574 1.56295 3.99838 0
M  V30 8619 C 818.807 1.11586 5.21904 0
M  V30 8620 O 819.03 -0.0249057 5.70395 0
M  V30 8621 O 817.964 1.91412 5.70653 0
M  V30 8622 H 821.79 1.86116 2.39989 0
M  V30 8623 H 819.375 0.966607 1.13917 0
M  V30 8624 H 821.257 0.204861 4.20902 0
M  V30 8625 H 819.932 -0.446464 3.20606 0
M  V30 8626 H 818.839 1.87061 3.23974 0
M  V30 8627 H 820.172 2.44408 4.2723 0
M  V30 8628 N 821.824 -1.22873 0.986916 0
M  V30 8629 C 822.734 -2.28277 0.540978 0
M  V30 8630 C 823.75 -1.69164 -0.407363 0
M  V30 8631 O 824.926 -1.99504 -0.275674 0
M  V30 8632 C 821.991 -3.46404 -0.143181 0
M  V30 8633 C 821.052 -4.20854 0.847375 0
M  V30 8634 C 820.285 -5.33341 0.19577 0
M  V30 8635 O 820.508 -5.61356 -1.0117 0
M  V30 8636 O 819.442 -5.95169 0.897623 0
M  V30 8637 H 823.268 -2.68578 1.41773 0
M  V30 8638 H 820.853 -1.28927 0.754867 0
M  V30 8639 H 822.735 -4.18096 -0.526676 0
M  V30 8640 H 821.41 -3.08041 -0.994593 0
M  V30 8641 H 820.317 -3.51459 1.28169 0
M  V30 8642 H 821.65 -4.63082 1.6678 0
M  V30 8643 N 823.302 -0.75937 -1.38099 0
M  V30 8644 C 824.549 -0.318113 -1.99986 0
M  V30 8645 C 824.877 1.10184 -1.6028 0
M  V30 8646 O 824.132 1.77015 -0.834524 0
M  V30 8647 C 824.431 -0.394999 -3.55211 0
M  V30 8648 C 824.097 -1.77143 -4.14646 0
M  V30 8649 C 822.759 -2.14811 -4.30592 0
M  V30 8650 C 825.111 -2.67407 -4.47373 0
M  V30 8651 C 822.439 -3.42203 -4.76565 0
M  V30 8652 C 824.791 -3.94196 -4.94765 0
M  V30 8653 C 823.455 -4.31925 -5.08918 0
M  V30 8654 H 822.725 -0.116406 -0.7318 0
M  V30 8655 H 825.372 -0.97098 -1.65058 0
M  V30 8656 H 823.677 0.341426 -3.9031 0
M  V30 8657 H 825.374 -0.0350722 -4.00985 0
M  V30 8658 H 821.964 -1.46864 -4.02652 0
M  V30 8659 H 826.148 -2.39569 -4.3465 0
M  V30 8660 H 821.404 -3.71346 -4.85708 0
M  V30 8661 H 825.578 -4.64276 -5.19057 0
M  V30 8662 H 823.205 -5.30699 -5.443 0
M  V30 8663 N 824.78 1.49157 -0.508906 0
M  V30 8664 C 826.191 1.86593 -0.0630975 0
M  V30 8665 C 826.542 1.42051 1.35337 0
M  V30 8666 O 825.667 0.801866 2.00995 0
M  V30 8667 C 826.262 3.38629 -0.107729 0
M  V30 8668 C 824.821 3.75336 0.282776 0
M  V30 8669 C 823.968 2.7317 -0.4768 0
M  V30 8670 H 826.919 1.41362 -0.72128 0
M  V30 8671 H 826.94 3.74271 0.685689 0
M  V30 8672 H 826.452 3.71017 -1.13876 0
M  V30 8673 H 824.553 3.48558 1.31675 0
M  V30 8674 H 824.666 4.79081 -0.0421728 0
M  V30 8675 H 823.03 2.54591 0.0743552 0
M  V30 8676 H 823.813 3.08403 -1.50807 0
M  V30 8677 N 826.258 0.243083 1.55714 0
M  V30 8678 C 827.674 -0.111853 1.59208 0
M  V30 8679 C 827.874 -1.5723 1.2602 0
M  V30 8680 O 826.93 -2.31608 1.00569 0
M  V30 8681 C 828.243 0.233885 2.99789 0
M  V30 8682 C 829.791 0.177873 3.12494 0
M  V30 8683 C 830.266 0.49759 4.55289 0
M  V30 8684 N 831.757 0.447949 4.61029 0
M  V30 8685 C 832.492 0.668545 5.69489 0
M  V30 8686 N 831.988 0.952064 6.86227 0
M  V30 8687 N 833.781 0.599512 5.58894 0
M  V30 8688 H 825.932 1.19554 1.75558 0
M  V30 8689 H 828.195 0.480765 0.817049 0
M  V30 8690 H 827.901 1.24835 3.28799 0
M  V30 8691 H 827.775 -0.440846 3.74615 0
M  V30 8692 H 830.162 -0.827263 2.83267 0
M  V30 8693 H 830.243 0.886399 2.39951 0
M  V30 8694 H 829.887 1.50026 4.85237 0
M  V30 8695 H 829.817 -0.232371 5.26087 0
M  V30 8696 H 832.308 0.237388 3.77154 0
M  V30 8697 H 832.621 1.10791 7.64817 0
M  V30 8698 H 830.966 0.989496 6.8792 0
M  V30 8699 H 834.157 0.378088 4.66571 0
M  V30 8700 H 834.33 0.774828 6.43351 0
M  V30 8701 N 827.736 -1.57571 -0.0300757 0
M  V30 8702 C 828.683 -2.06492 -1.03101 0
M  V30 8703 C 829.653 -0.953862 -1.3598 0
M  V30 8704 O 830.838 -1.22436 -1.46335 0
M  V30 8705 C 827.978 -2.54826 -2.32718 0
M  V30 8706 C 827.091 -3.79718 -2.06006 0
M  V30 8707 C 826.226 -4.16668 -3.29487 0
M  V30 8708 C 825.265 -5.3448 -2.98324 0
M  V30 8709 N 824.402 -5.66867 -4.14254 0
M  V30 8710 H 829.242 -2.91755 -0.606877 0
M  V30 8711 H 826.779 -1.44252 -0.288038 0
M  V30 8712 H 828.737 -2.80916 -3.08451 0
M  V30 8713 H 827.367 -1.72481 -2.72856 0
M  V30 8714 H 826.419 -3.60718 -1.20774 0
M  V30 8715 H 827.731 -4.65569 -1.79017 0
M  V30 8716 H 826.885 -4.43881 -4.13588 0
M  V30 8717 H 825.624 -3.29466 -3.59588 0
M  V30 8718 H 824.629 -5.07021 -2.12625 0
M  V30 8719 H 825.854 -6.23334 -2.69502 0
M  V30 8720 H 823.8 -4.82625 -4.44308 0
M  V30 8721 H 823.717 -6.47226 -3.90685 0
M  V30 8722 H 824.985 -5.98656 -4.99231 0
M  V30 8723 N 829.214 0.302327 -1.54673 0
M  V30 8724 C 830.144 1.37759 -1.88533 0
M  V30 8725 C 831.125 1.52961 -0.744113 0
M  V30 8726 O 832.31 1.6649 -0.999731 0
M  V30 8727 C 829.44 2.74201 -2.13146 0
M  V30 8728 C 828.394 2.73765 -3.28993 0
M  V30 8729 C 827.72 4.13483 -3.39022 0
M  V30 8730 C 829.02 2.35624 -4.66132 0
M  V30 8731 H 830.714 1.0967 -2.78591 0
M  V30 8732 H 828.26 0.52613 -1.34044 0
M  V30 8733 H 830.213 3.49508 -2.35419 0
M  V30 8734 H 828.937 3.03812 -1.19858 0
M  V30 8735 H 827.596 2.00914 -3.06642 0
M  V30 8736 H 827.244 4.40269 -2.43253 0
M  V30 8737 H 826.944 4.14093 -4.16894 0
M  V30 8738 H 828.468 4.90572 -3.63553 0
M  V30 8739 H 829.882 3.00647 -4.88143 0
M  V30 8740 H 828.279 2.47449 -5.46707 0
M  V30 8741 H 829.349 1.30753 -4.66939 0
M  V30 8742 N 830.692 1.47107 0.565454 0
M  V30 8743 C 831.622 1.61846 1.68309 0
M  V30 8744 C 832.603 0.468159 1.63531 0
M  V30 8745 O 833.788 0.696504 1.8128 0
M  V30 8746 C 830.918 1.62474 3.06952 0
M  V30 8747 C 829.872 2.76649 3.26572 0
M  V30 8748 C 829.198 2.62345 4.65917 0
M  V30 8749 C 830.498 4.18319 3.12741 0
M  V30 8750 H 832.192 2.55407 1.5623 0
M  V30 8751 H 829.738 1.22916 0.750179 0
M  V30 8752 H 831.691 1.71378 3.84977 0
M  V30 8753 H 830.415 0.654692 3.19971 0
M  V30 8754 H 829.074 2.67242 2.50952 0
M  V30 8755 H 828.722 1.63386 4.75725 0
M  V30 8756 H 828.422 3.38936 4.79996 0
M  V30 8757 H 829.946 2.73165 5.46089 0
M  V30 8758 H 831.36 4.28745 3.80593 0
M  V30 8759 H 829.757 4.95632 3.38333 0
M  V30 8760 H 830.827 4.37263 2.09592 0
M  V30 8761 N 832.17 -0.811516 1.35101 0
M  V30 8762 C 833.398 -1.59981 1.31201 0
M  V30 8763 C 833.813 -1.8847 -0.111552 0
M  V30 8764 O 833.17 -1.48414 -1.06205 0
M  V30 8765 C 833.221 -2.934 2.11184 0
M  V30 8766 O 832.942 -2.66148 3.4799 0
M  V30 8767 C 834.443 -3.87776 2.14813 0
M  V30 8768 H 831.663 -0.496921 0.450899 0
M  V30 8769 H 834.207 -1.00886 1.77883 0
M  V30 8770 H 832.362 -3.49022 1.68115 0
M  V30 8771 H 832.776 -3.51301 3.89471 0
M  V30 8772 H 834.25 -4.7852 2.75178 0
M  V30 8773 H 834.727 -4.23997 1.14556 0
M  V30 8774 H 835.333 -3.3809 2.58022 0
M  V30 8775 N 833.648 -1.19017 -1.03309 0
M  V30 8776 C 834.895 -0.990214 -1.76638 0
M  V30 8777 C 835.223 0.479435 -1.88498 0
M  V30 8778 O 834.478 1.37223 -1.39529 0
M  V30 8779 C 834.777 -1.59927 -3.19622 0
M  V30 8780 C 834.443 -3.09632 -3.27779 0
M  V30 8781 C 833.105 -3.50491 -3.29712 0
M  V30 8782 C 835.457 -4.05644 -3.27264 0
M  V30 8783 C 832.785 -4.85921 -3.28782 0
M  V30 8784 C 835.137 -5.41 -3.27875 0
M  V30 8785 C 833.801 -5.81295 -3.28104 0
M  V30 8786 H 833.071 -0.362345 -0.646364 0
M  V30 8787 H 835.718 -1.48197 -1.21284 0
M  V30 8788 H 834.023 -1.0297 -3.78027 0
M  V30 8789 H 835.72 -1.41989 -3.7502 0
M  V30 8790 H 832.31 -2.77073 -3.26999 0
M  V30 8791 H 836.494 -3.75124 -3.24955 0
M  V30 8792 H 831.75 -5.16427 -3.27281 0
M  V30 8793 H 835.924 -6.15157 -3.26428 0
M  V30 8794 H 833.551 -6.86211 -3.27138 0
M  V30 8795 N 835.127 1.22348 -0.993418 0
M  V30 8796 C 836.074 2.24294 -0.544118 0
M  V30 8797 C 837.044 1.60602 0.42381 0
M  V30 8798 O 838.229 1.87952 0.328453 0
M  V30 8799 C 835.369 3.44837 0.134578 0
M  V30 8800 C 834.482 4.23043 -0.875151 0
M  V30 8801 C 833.617 5.30928 -0.169919 0
M  V30 8802 C 832.656 6.00853 -1.16798 0
M  V30 8803 N 831.793 7.00381 -0.491021 0
M  V30 8804 H 836.633 2.6209 -1.4182 0
M  V30 8805 H 834.17 1.2881 -0.710384 0
M  V30 8806 H 836.128 4.13625 0.544998 0
M  V30 8807 H 834.758 3.07804 0.972446 0
M  V30 8808 H 833.81 3.53546 -1.40389 0
M  V30 8809 H 835.122 4.71237 -1.63516 0
M  V30 8810 H 834.276 6.05972 0.297205 0
M  V30 8811 H 833.015 4.8371 0.622586 0
M  V30 8812 H 832.02 5.24591 -1.64573 0
M  V30 8813 H 833.245 6.50159 -1.96137 0
M  V30 8814 H 831.191 6.55393 0.282037 0
M  V30 8815 H 831.108 7.46584 -1.18947 0
M  V30 8816 H 832.376 7.79486 -0.0467169 0
M  V30 8817 N 836.605 0.766683 1.37694 0
M  V30 8818 C 837.515 0.150158 2.34119 0
M  V30 8819 C 838.531 -0.685513 1.59927 0
M  V30 8820 O 839.707 -0.606616 1.92047 0
M  V30 8821 C 836.772 -0.722562 3.39087 0
M  V30 8822 C 835.833 0.128983 4.29106 0
M  V30 8823 C 835.066 -0.702178 5.29061 0
M  V30 8824 O 835.289 -1.93954 5.36412 0
M  V30 8825 O 834.223 -0.114056 6.01792 0
M  V30 8826 H 838.049 0.946829 2.88563 0
M  V30 8827 H 835.634 0.527765 1.39768 0
M  V30 8828 H 837.516 -1.22095 4.03325 0
M  V30 8829 H 836.191 -1.49751 2.86978 0
M  V30 8830 H 835.098 0.673612 3.67985 0
M  V30 8831 H 836.431 0.866892 4.84506 0
M  V30 8832 N 838.083 -1.48885 0.516809 0
M  V30 8833 C 839.03 -2.29408 -0.253125 0
M  V30 8834 C 840 -1.36533 -0.945935 0
M  V30 8835 O 841.185 -1.65495 -0.949527 0
M  V30 8836 C 838.325 -3.19592 -1.30211 0
M  V30 8837 C 837.438 -4.27535 -0.61948 0
M  V30 8838 C 836.573 -5.04916 -1.65026 0
M  V30 8839 C 835.612 -6.04677 -0.950368 0
M  V30 8840 N 834.749 -6.75164 -1.92608 0
M  V30 8841 H 839.589 -2.94738 0.439744 0
M  V30 8842 H 837.126 -1.45311 0.2287 0
M  V30 8843 H 839.084 -3.70267 -1.92245 0
M  V30 8844 H 837.714 -2.56213 -1.96353 0
M  V30 8845 H 836.766 -3.80228 0.114505 0
M  V30 8846 H 838.078 -4.98752 -0.0693016 0
M  V30 8847 H 837.232 -5.59539 -2.34523 0
M  V30 8848 H 835.971 -4.33508 -2.23432 0
M  V30 8849 H 834.976 -5.4927 -0.241252 0
M  V30 8850 H 836.201 -6.78077 -0.372599 0
M  V30 8851 H 834.147 -6.06517 -2.49946 0
M  V30 8852 H 834.064 -7.4241 -1.42699 0
M  V30 8853 H 835.332 -7.34384 -2.61345 0
M  V30 8854 N 839.561 -0.251338 -1.55583 0
M  V30 8855 C 840.491 0.640437 -2.24545 0
M  V30 8856 C 841.472 1.17781 -1.22726 0
M  V30 8857 O 842.657 1.21633 -1.5139 0
M  V30 8858 C 839.787 1.8355 -2.94834 0
M  V30 8859 C 838.741 1.4307 -4.03379 0
M  V30 8860 C 838.067 2.70695 -4.61116 0
M  V30 8861 C 839.367 0.59848 -5.1886 0
M  V30 8862 H 841.061 0.0653772 -2.99329 0
M  V30 8863 H 838.607 0.0300042 -1.43969 0
M  V30 8864 H 840.56 2.46505 -3.4178 0
M  V30 8865 H 839.284 2.43601 -2.17546 0
M  V30 8866 H 837.943 0.824474 -3.57209 0
M  V30 8867 H 837.591 3.28954 -3.80524 0
M  V30 8868 H 837.291 2.44332 -5.34393 0
M  V30 8869 H 838.815 3.34541 -5.10798 0
M  V30 8870 H 840.229 1.13244 -5.62004 0
M  V30 8871 H 838.626 0.430728 -5.98552 0
M  V30 8872 H 839.696 -0.38829 -4.83343 0
M  V30 8873 N 841.039 1.57585 0.0217189 0
M  V30 8874 C 842.287 1.89231 0.709641 0
M  V30 8875 C 842.608 0.849964 1.75501 0
M  V30 8876 O 841.878 -0.115485 1.95559 0
M  V30 8877 H 840.458 0.69838 0.265092 0
M  V30 8878 H 843.12 1.94895 -0.0140688 0
M  V30 8879 H 842.216 2.88333 1.19459 0
M  V30 8880 N 842.517 -0.29412 1.54831 0
M  V30 8881 C 843.427 -1.3854 1.89325 0
M  V30 8882 C 844.443 -1.55127 0.788133 0
M  V30 8883 O 845.619 -1.6966 1.08524 0
M  V30 8884 C 842.684 -2.72809 2.13954 0
M  V30 8885 C 841.745 -2.65148 3.37631 0
M  V30 8886 C 840.978 -3.93014 3.61076 0
M  V30 8887 O 841.201 -4.927 2.87406 0
M  V30 8888 O 840.135 -3.94491 4.54599 0
M  V30 8889 H 843.961 -1.12289 2.82179 0
M  V30 8890 H 841.546 -0.490793 1.41108 0
M  V30 8891 H 843.428 -3.52238 2.31315 0
M  V30 8892 H 842.103 -2.9889 1.24285 0
M  V30 8893 H 841.01 -1.84168 3.25627 0
M  V30 8894 H 842.343 -2.4402 4.27452 0
M  V30 8895 N 843.995 -1.47404 -0.557645 0
M  V30 8896 C 845.243 -1.53703 -1.31224 0
M  V30 8897 C 845.564 -0.200742 -1.93964 0
M  V30 8898 O 844.834 0.775253 -1.79907 0
M  V30 8899 H 843.414 -0.566171 -0.487299 0
M  V30 8900 H 846.076 -1.83699 -0.651195 0
M  V30 8901 H 845.172 -2.30335 -2.10599 0
M  V30 8902 N 845.473 0.80434 -1.35529 0
M  V30 8903 C 846.405 1.92445 -1.2449 0
M  V30 8904 C 847.418 1.61934 -0.167685 0
M  V30 8905 O 848.607 1.73461 -0.42115 0
M  V30 8906 C 845.707 3.26875 -0.894751 0
M  V30 8907 C 844.88 3.85275 -2.07079 0
M  V30 8908 C 843.939 4.98116 -1.69607 0
M  V30 8909 O 842.965 5.15424 -2.41509 0
M  V30 8910 N 844.167 5.77169 -0.621012 0
M  V30 8911 H 846.932 2.02441 -2.20993 0
M  V30 8912 H 844.493 0.981874 -1.28728 0
M  V30 8913 H 846.485 3.99837 -0.625511 0
M  V30 8914 H 845.055 3.12594 -0.0193306 0
M  V30 8915 H 844.275 3.0448 -2.5037 0
M  V30 8916 H 845.563 4.21024 -2.85685 0
M  V30 8917 H 844.961 5.65695 -0.0236679 0
M  V30 8918 H 843.518 6.50499 -0.411558 0
M  V30 8919 N 846.951 1.19563 1.02676 0
M  V30 8920 C 848.198 0.999568 1.7611 0
M  V30 8921 C 848.526 -0.469432 1.8875 0
M  V30 8922 O 847.781 -1.36481 1.40255 0
M  V30 8923 C 848.08 1.61619 3.18769 0
M  V30 8924 C 847.746 3.11366 3.26132 0
M  V30 8925 C 846.408 3.52234 3.27848 0
M  V30 8926 C 848.76 4.07374 3.25109 0
M  V30 8927 C 846.088 4.87658 3.26201 0
M  V30 8928 C 848.44 5.42731 3.25002 0
M  V30 8929 C 847.104 5.83027 3.25017 0
M  V30 8930 H 846.374 0.365768 0.644434 0
M  V30 8931 H 849.021 1.48838 1.20497 0
M  V30 8932 H 847.326 1.04974 3.77476 0
M  V30 8933 H 849.023 1.43975 3.74262 0
M  V30 8934 H 845.613 2.78804 3.25525 0
M  V30 8935 H 849.797 3.76842 3.22961 0
M  V30 8936 H 845.053 5.18156 3.24537 0
M  V30 8937 H 849.227 6.16879 3.23161 0
M  V30 8938 H 846.854 6.87936 3.23494 0
M  V30 8939 N 848.429 -1.21819 0.999893 0
M  V30 8940 C 849.677 -1.90375 0.678351 0
M  V30 8941 C 849.998 -1.78155 -0.792824 0
M  V30 8942 O 849.268 -1.17319 -1.56885 0
M  V30 8943 H 847.848 -0.704661 0.247915 0
M  V30 8944 H 850.51 -1.48021 1.2679 0
M  V30 8945 H 849.606 -2.97385 0.947023 0
M  V30 8946 N 849.908 -0.773975 -1.37286 0
M  V30 8947 C 850.818 -0.162571 -2.34036 0
M  V30 8948 C 851.834 0.677022 -1.60289 0
M  V30 8949 O 853.01 0.596423 -1.92366 0
M  V30 8950 C 850.075 0.70457 -3.39465 0
M  V30 8951 C 849.136 -0.151738 -4.29032 0
M  V30 8952 C 848.369 0.674111 -5.29426 0
M  V30 8953 O 848.592 1.91107 -5.37433 0
M  V30 8954 O 847.526 0.0821398 -6.01844 0
M  V30 8955 H 851.352 -0.962119 -2.88057 0
M  V30 8956 H 848.937 -0.53517 -1.39486 0
M  V30 8957 H 850.819 1.19954 -4.03967 0
M  V30 8958 H 849.494 1.48227 -2.87768 0
M  V30 8959 H 848.401 -0.693118 -3.67623 0
M  V30 8960 H 849.734 -0.892575 -4.84039 0
M  V30 8961 N 851.386 1.48609 -0.524698 0
M  V30 8962 C 852.632 2.02797 0.0113382 0
M  V30 8963 C 852.965 1.40147 1.34433 0
M  V30 8964 O 852.24 0.545368 1.86698 0
M  V30 8965 C 852.523 3.59832 0.138931 0
M  V30 8966 C 852.376 4.32971 -1.21886 0
M  V30 8967 C 853.695 4.3145 0.868265 0
M  V30 8968 H 850.814 0.736995 0.00264645 0
M  V30 8969 H 853.456 1.77388 -0.680704 0
M  V30 8970 H 851.606 3.81612 0.72834 0
M  V30 8971 H 853.278 4.22624 -1.84897 0
M  V30 8972 H 851.521 3.94597 -1.80211 0
M  V30 8973 H 852.192 5.41279 -1.08263 0
M  V30 8974 H 854.668 4.14468 0.368145 0
M  V30 8975 H 853.544 5.41025 0.926428 0
M  V30 8976 H 853.805 3.98358 1.91737 0
M  V30 8977 N 852.864 0.259585 1.55447 0
M  V30 8978 C 853.814 -0.648769 2.18575 0
M  V30 8979 C 854.798 -1.1299 1.14552 0
M  V30 8980 O 855.99 -1.07756 1.4042 0
M  V30 8981 C 853.119 -1.83963 2.89849 0
M  V30 8982 C 852.205 -1.37641 4.01143 0
M  V30 8983 N 852.596 -0.628269 5.01883 0
M  V30 8984 C 850.894 -1.66066 4.1393 0
M  V30 8985 C 851.595 -0.386746 5.80413 0
M  V30 8986 N 850.571 -0.954665 5.35151 0
M  V30 8987 H 854.373 -0.0691616 2.93819 0
M  V30 8988 H 851.887 0.0624525 1.6228 0
M  V30 8989 H 853.884 -2.50151 3.33512 0
M  V30 8990 H 852.544 -2.42334 2.16112 0
M  V30 8991 H 853.555 -0.277123 5.17158 0
M  V30 8992 H 850.232 -2.25484 3.51373 0
M  V30 8993 H 851.622 0.211382 6.71567 0
M  V30 8994 N 854.342 -1.57594 -0.0133615 0
M  V30 8995 C 855.272 -2.10611 -1.00823 0
M  V30 8996 C 856.253 -1.01217 -1.36708 0
M  V30 8997 O 857.438 -1.28827 -1.45318 0
M  V30 8998 C 854.568 -2.59844 -2.30431 0
M  V30 8999 C 853.522 -3.73644 -2.08745 0
M  V30 9000 C 852.848 -4.09141 -3.4425 0
M  V30 9001 C 854.148 -5.01454 -1.46086 0
M  V30 9002 H 855.842 -2.93985 -0.566849 0
M  V30 9003 H 853.388 -1.41423 -0.271219 0
M  V30 9004 H 855.341 -2.95557 -3.00373 0
M  V30 9005 H 854.065 -1.73573 -2.76658 0
M  V30 9006 H 852.724 -3.38303 -1.41232 0
M  V30 9007 H 852.372 -3.19914 -3.88155 0
M  V30 9008 H 852.072 -4.85802 -3.3056 0
M  V30 9009 H 853.596 -4.47402 -4.15528 0
M  V30 9010 H 855.01 -5.35024 -2.05966 0
M  V30 9011 H 853.407 -5.82832 -1.42924 0
M  V30 9012 H 854.477 -4.83003 -0.428471 0
M  V30 9013 N 855.82 0.285905 -1.54985 0
M  V30 9014 C 857.06 1.02699 -1.76726 0
M  V30 9015 C 857.424 1.83962 -0.549717 0
M  V30 9016 O 858.625 2.60943 -0.645142 0
M  V30 9017 C 856.896 1.89671 -3.02919 0
M  V30 9018 S 858.455 2.7022 -3.45726 0
M  V30 9019 H 855.273 0.346114 -0.621068 0
M  V30 9020 H 857.875 0.298764 -1.93204 0
M  V30 9021 H 856.579 1.28873 -3.89641 0
M  V30 9022 H 856.11 2.66836 -2.89071 0
M  V30 9023 H 858.125 3.92184 -3.03983 0
M  V30 9024 N 857.298 1.47698 0.54982 0
M  V30 9025 C 858.208 1.63386 1.68351 0
M  V30 9026 C 859.224 0.516583 1.66155 0
M  V30 9027 O 860.4 0.785088 1.85468 0
M  V30 9028 C 857.465 1.6513 3.04849 0
M  V30 9029 C 856.526 2.88338 3.18056 0
M  V30 9030 C 855.759 2.8999 4.48042 0
M  V30 9031 O 855.982 2.00633 5.3395 0
M  V30 9032 O 854.916 3.81938 4.65196 0
M  V30 9033 H 858.742 2.59329 1.58057 0
M  V30 9034 H 856.327 1.30869 0.72067 0
M  V30 9035 H 858.209 1.68913 3.86065 0
M  V30 9036 H 856.884 0.723555 3.1551 0
M  V30 9037 H 855.791 2.90097 2.36209 0
M  V30 9038 H 857.124 3.80431 3.12302 0
M  V30 9039 N 858.776 -0.797141 1.35954 0
M  V30 9040 C 860.022 -1.55698 1.29946 0
M  V30 9041 C 860.355 -1.93808 -0.123259 0
M  V30 9042 O 859.63 -1.62102 -1.07486 0
M  V30 9043 C 859.913 -2.83926 2.2149 0
M  V30 9044 C 859.766 -2.52232 3.72423 0
M  V30 9045 C 861.085 -3.85698 2.11955 0
M  V30 9046 H 858.204 -0.56488 0.47337 0
M  V30 9047 H 860.846 -0.916421 1.66438 0
M  V30 9048 H 858.996 -3.38588 1.905 0
M  V30 9049 H 860.668 -2.0368 4.13899 0
M  V30 9050 H 858.911 -1.85286 3.92239 0
M  V30 9051 H 859.582 -3.43782 4.31877 0
M  V30 9052 H 862.058 -3.40462 2.39218 0
M  V30 9053 H 860.934 -4.73182 2.78191 0
M  V30 9054 H 861.195 -4.28083 1.10442 0
M  V30 9055 N 860.254 -1.20106 -1.0204 0
M  V30 9056 C 861.164 -0.962051 -2.13967 0
M  V30 9057 C 862.18 0.0808053 -1.73812 0
M  V30 9058 O 863.356 -0.105774 -2.01122 0
M  V30 9059 C 860.421 -0.513108 -3.42882 0
M  V30 9060 C 859.482 -1.62636 -3.97301 0
M  V30 9061 C 858.715 -1.19875 -5.20063 0
M  V30 9062 O 858.938 -0.0658423 -5.70362 0
M  V30 9063 O 857.872 -2.00467 -5.67536 0
M  V30 9064 H 861.698 -1.8991 -2.36998 0
M  V30 9065 H 859.283 -0.984608 -1.12365 0
M  V30 9066 H 861.165 -0.271797 -4.20523 0
M  V30 9067 H 859.84 0.395402 -3.21276 0
M  V30 9068 H 858.747 -1.92192 -3.20957 0
M  V30 9069 H 860.08 -2.51174 -4.23288 0
M  V30 9070 N 861.732 1.21287 -1.00634 0
M  V30 9071 C 862.98 1.90013 -0.688438 0
M  V30 9072 C 863.301 1.78573 0.783365 0
M  V30 9073 O 862.571 1.1815 1.56261 0
M  V30 9074 H 861.151 0.703336 -0.251648 0
M  V30 9075 H 863.813 1.47346 -1.27574 0
M  V30 9076 H 862.909 2.96879 -0.962781 0
M  V30 9077 N 863.21 0.781244 1.36873 0
M  V30 9078 C 864.143 0.120106 2.27884 0
M  V30 9079 C 865.121 -0.698961 1.4681 0
M  V30 9080 O 866.305 -0.671694 1.76126 0
M  V30 9081 C 863.432 -0.835804 3.28226 0
M  V30 9082 C 862.478 -0.0995527 4.26384 0
M  V30 9083 S 863.311 1.21903 5.2144 0
M  V30 9084 C 864.467 0.266904 6.25331 0
M  V30 9085 H 864.7 0.891796 2.83609 0
M  V30 9086 H 862.233 0.575075 1.43291 0
M  V30 9087 H 864.191 -1.3819 3.86541 0
M  V30 9088 H 862.852 -1.58068 2.71428 0
M  V30 9089 H 862.045 -0.82457 4.97209 0
M  V30 9090 H 861.647 0.375818 3.72107 0
M  V30 9091 H 863.939 -0.55725 6.75204 0
M  V30 9092 H 864.882 0.943603 7.01785 0
M  V30 9093 H 865.29 -0.126121 5.64359 0
M  V30 9094 N 864.689 -1.48329 0.532571 0
M  V30 9095 C 865.599 -2.33445 -0.232546 0
M  V30 9096 C 866.615 -1.46651 -0.93645 0
M  V30 9097 O 867.791 -1.79627 -0.910834 0
M  V30 9098 C 864.856 -3.22824 -1.26434 0
M  V30 9099 C 863.917 -4.25492 -0.570511 0
M  V30 9100 C 863.15 -5.10601 -1.55315 0
M  V30 9101 O 863.373 -4.97733 -2.78599 0
M  V30 9102 O 862.307 -5.91927 -1.09112 0
M  V30 9103 H 866.133 -3.00119 0.464988 0
M  V30 9104 H 863.718 -1.46489 0.293462 0
M  V30 9105 H 865.6 -3.78103 -1.86055 0
M  V30 9106 H 864.275 -2.58807 -1.94424 0
M  V30 9107 H 863.182 -3.74041 0.0662587 0
M  V30 9108 H 864.515 -4.92154 0.0674904 0
M  V30 9109 N 866.167 -0.267825 -1.55308 0
M  V30 9110 C 867.114 0.6228 -2.22238 0
M  V30 9111 C 868.084 1.15536 -1.19334 0
M  V30 9112 O 869.269 1.206 -1.47852 0
M  V30 9113 C 866.409 1.80447 -2.94164 0
M  V30 9114 C 865.522 1.30646 -4.11771 0
M  V30 9115 C 864.657 2.44935 -4.7136 0
M  V30 9116 C 863.696 1.92099 -5.81175 0
M  V30 9117 N 862.833 2.99834 -6.34857 0
M  V30 9118 H 867.673 0.0453874 -2.97965 0
M  V30 9119 H 865.21 0.0106371 -1.47096 0
M  V30 9120 H 867.168 2.49896 -3.34078 0
M  V30 9121 H 865.798 2.35403 -2.20874 0
M  V30 9122 H 864.85 0.505314 -3.77029 0
M  V30 9123 H 866.162 0.879409 -4.90987 0
M  V30 9124 H 865.316 3.2239 -5.13955 0
M  V30 9125 H 864.055 2.90951 -3.91406 0
M  V30 9126 H 863.06 1.13122 -5.38037 0
M  V30 9127 H 864.285 1.47027 -6.62993 0
M  V30 9128 H 862.231 3.45246 -5.578 0
M  V30 9129 H 862.148 2.61524 -7.09324 0
M  V30 9130 H 863.416 3.77286 -6.82111 0
M  V30 9131 N 867.645 1.57599 0.00500368 0
M  V30 9132 C 868.892 1.90349 0.690895 0
M  V30 9133 C 869.22 0.868045 1.74055 0
M  V30 9134 O 868.475 -0.127855 1.95282 0
M  V30 9135 C 868.774 3.29855 1.37588 0
M  V30 9136 C 868.44 4.48548 0.459906 0
M  V30 9137 C 867.102 4.80752 0.207693 0
M  V30 9138 C 869.454 5.20919 -0.171054 0
M  V30 9139 C 866.782 5.82701 -0.683855 0
M  V30 9140 C 869.134 6.23818 -1.05045 0
M  V30 9141 C 867.798 6.54481 -1.31189 0
M  V30 9142 H 867.068 0.696538 0.252816 0
M  V30 9143 H 869.715 1.91436 -0.0494495 0
M  V30 9144 H 868.02 3.24869 2.19015 0
M  V30 9145 H 869.717 3.52452 1.91255 0
M  V30 9146 H 866.307 4.23384 0.666648 0
M  V30 9147 H 870.491 4.96299 0.0107942 0
M  V30 9148 H 865.747 6.04822 -0.894467 0
M  V30 9149 H 869.921 6.79029 -1.54574 0
M  V30 9150 H 867.548 7.33299 -2.00442 0
M  V30 9151 N 869.123 -0.277682 1.55134 0
M  V30 9152 C 870.07 -1.34313 1.87693 0
M  V30 9153 C 871.04 -1.49298 0.727973 0
M  V30 9154 O 872.225 -1.6378 0.978807 0
M  V30 9155 C 869.365 -2.69922 2.15026 0
M  V30 9156 C 868.478 -2.63197 3.42565 0
M  V30 9157 C 867.613 -3.90955 3.59622 0
M  V30 9158 C 866.652 -3.78722 4.8087 0
M  V30 9159 N 865.789 -4.98303 4.94609 0
M  V30 9160 H 870.629 -1.05847 2.78569 0
M  V30 9161 H 868.166 -0.511469 1.37922 0
M  V30 9162 H 870.124 -3.48817 2.28872 0
M  V30 9163 H 868.754 -2.966 1.2739 0
M  V30 9164 H 867.806 -1.76038 3.37216 0
M  V30 9165 H 869.118 -2.50056 4.31594 0
M  V30 9166 H 868.272 -4.78291 3.7326 0
M  V30 9167 H 867.011 -4.06957 2.6877 0
M  V30 9168 H 866.016 -2.89769 4.67241 0
M  V30 9169 H 867.241 -3.64242 5.73153 0
M  V30 9170 H 865.187 -5.14725 4.06687 0
M  V30 9171 H 865.104 -4.87675 5.77676 0
M  V30 9172 H 866.372 -5.87225 5.12628 0
M  V30 9173 N 870.601 -1.47988 -0.541979 0
M  V30 9174 C 871.878 -1.45878 -1.30303 0
M  V30 9175 C 872.258 -0.163931 -2.10463 0
M  V30 9176 O 871.606 0.854479 -2.11922 0
M  V30 9177 C 871.816 -2.71359 -2.19466 0
M  V30 9178 C 873.164 -3.19199 -2.79995 0
M  V30 9179 O 874.188 -2.72193 -2.2976 0
M  V30 9180 O 873.047 -4.00961 -3.71339 0
M  V30 9181 H 870.141 -0.582043 -0.587498 0
M  V30 9182 H 872.687 -1.60207 -0.559623 0
M  V30 9183 H 871.459 -3.57122 -1.59936 0
M  V30 9184 H 871.082 -2.59692 -3.01075 0
M  V30 9185 N 872.079 0.78992 -1.36375 0
M  V30 9186 C 873.026 1.90254 -1.3066 0
M  V30 9187 C 873.996 1.65171 -0.17539 0
M  V30 9188 O 875.181 1.87338 -0.361824 0
M  V30 9189 C 872.321 3.27057 -1.10125 0
M  V30 9190 C 871.434 3.64215 -2.32317 0
M  V30 9191 C 870.569 4.90134 -2.04798 0
M  V30 9192 C 869.608 5.19969 -3.22953 0
M  V30 9193 N 868.745 6.37071 -2.95102 0
M  V30 9194 H 873.585 1.94474 -2.25796 0
M  V30 9195 H 871.122 0.951022 -1.12223 0
M  V30 9196 H 873.08 4.05947 -0.962453 0
M  V30 9197 H 871.71 3.22261 -0.186444 0
M  V30 9198 H 870.762 2.80454 -2.57002 0
M  V30 9199 H 872.074 3.82212 -3.20492 0
M  V30 9200 H 871.228 5.76888 -1.87845 0
M  V30 9201 H 869.967 4.74205 -1.13932 0
M  V30 9202 H 868.972 4.31699 -3.40465 0
M  V30 9203 H 870.197 5.37817 -4.14644 0
M  V30 9204 H 868.143 6.22535 -2.06848 0
M  V30 9205 H 868.06 6.55398 -3.76815 0
M  V30 9206 H 869.328 7.26808 -2.81727 0
M  V30 9207 N 873.557 1.20646 1.01402 0
M  V30 9208 C 874.834 0.927176 1.72229 0
M  V30 9209 C 875.214 -0.563382 2.03443 0
M  V30 9210 O 874.562 -1.52576 1.70096 0
M  V30 9211 C 874.772 1.80285 2.98828 0
M  V30 9212 C 876.12 2.04624 3.72041 0
M  V30 9213 O 877.144 1.77559 3.0879 0
M  V30 9214 O 876.003 2.50347 4.85787 0
M  V30 9215 H 873.097 0.346891 0.75073 0
M  V30 9216 H 875.643 1.31532 1.07227 0
M  V30 9217 H 874.415 2.81204 2.72102 0
M  V30 9218 H 874.038 1.41495 3.71571 0
M  V30 9219 N 875.035 -1.20752 1.01276 0
M  V30 9220 C 876.282 -1.90021 0.699887 0
M  V30 9221 C 876.61 -1.78604 -0.770113 0
M  V30 9222 O 875.865 -1.16195 -1.57471 0
M  V30 9223 C 876.164 -3.40808 1.07633 0
M  V30 9224 C 875.83 -3.72423 2.54189 0
M  V30 9225 C 874.492 -3.80762 2.94234 0
M  V30 9226 C 876.844 -3.87025 3.49086 0
M  V30 9227 C 874.172 -4.01158 4.28123 0
M  V30 9228 C 876.524 -4.0893 4.82658 0
M  V30 9229 C 875.188 -4.15498 5.22415 0
M  V30 9230 H 874.458 -0.695335 0.256107 0
M  V30 9231 H 877.105 -1.43096 1.27263 0
M  V30 9232 H 875.41 -3.89521 0.421944 0
M  V30 9233 H 877.107 -3.92693 0.811997 0
M  V30 9234 H 873.697 -3.66529 2.22158 0
M  V30 9235 H 877.881 -3.79942 3.19309 0
M  V30 9236 H 873.137 -4.04476 4.58486 0
M  V30 9237 H 877.311 -4.19172 5.56119 0
M  V30 9238 H 874.938 -4.31055 6.26176 0
M  V30 9239 N 876.513 -0.788492 -1.36457 0
M  V30 9240 C 877.476 -0.192209 -2.28393 0
M  V30 9241 C 878.476 0.609916 -1.48784 0
M  V30 9242 O 879.666 0.431046 -1.68783 0
M  V30 9243 C 876.798 0.734096 -3.32902 0
M  V30 9244 H 877.991 -1.00284 -2.82636 0
M  V30 9245 H 875.544 -0.557852 -1.46006 0
M  V30 9246 H 876.279 1.5691 -2.83813 0
M  V30 9247 H 876.064 0.160875 -3.9177 0
M  V30 9248 H 877.554 1.1462 -4.01562 0
M  V30 9249 N 877.991 1.48044 -0.54043 0
M  V30 9250 C 878.921 2.32597 0.205178 0
M  V30 9251 C 879.902 1.42748 0.925041 0
M  V30 9252 O 881.087 1.71624 0.908784 0
M  V30 9253 C 878.217 3.24175 1.24612 0
M  V30 9254 C 877.171 4.23131 0.64376 0
M  V30 9255 C 876.497 5.03915 1.78812 0
M  V30 9256 C 877.797 5.20831 -0.39144 0
M  V30 9257 H 879.491 2.95184 -0.500676 0
M  V30 9258 H 877.037 1.41948 -0.242225 0
M  V30 9259 H 878.99 3.82158 1.77576 0
M  V30 9260 H 877.714 2.59608 1.98169 0
M  V30 9261 H 876.373 3.66349 0.135554 0
M  V30 9262 H 876.021 4.35765 2.51232 0
M  V30 9263 H 875.721 5.709 1.39094 0
M  V30 9264 H 877.245 5.64753 2.32134 0
M  V30 9265 H 878.659 5.73277 0.0515064 0
M  V30 9266 H 877.056 5.95926 -0.706569 0
M  V30 9267 H 878.126 4.6733 -1.29345 0
M  V30 9268 N 879.47 0.276058 1.55163 0
M  V30 9269 C 880.747 -0.392292 1.91626 0
M  V30 9270 C 881.127 -1.73646 1.20043 0
M  V30 9271 O 880.475 -2.26139 0.327606 0
M  V30 9272 C 880.685 -0.531641 3.44927 0
M  V30 9273 C 882.033 -0.8141 4.16722 0
M  V30 9274 O 883.057 -0.616413 3.50826 0
M  V30 9275 O 881.916 -1.19224 5.33337 0
M  V30 9276 H 879.01 -0.214945 0.798579 0
M  V30 9277 H 881.556 0.32228 1.66612 0
M  V30 9278 H 880.328 0.414282 3.89101 0
M  V30 9279 H 879.951 -1.29564 3.75897 0
M  V30 9280 N 880.948 -1.576 0.00335426 0
M  V30 9281 C 882.194 -1.90996 -0.681799 0
M  V30 9282 C 882.527 -0.877643 -1.73237 0
M  V30 9283 O 881.802 0.103183 -1.94226 0
M  V30 9284 C 882.085 -3.34961 -1.32187 0
M  V30 9285 C 881.938 -4.48911 -0.28261 0
M  V30 9286 C 883.257 -3.78408 -2.24711 0
M  V30 9287 H 880.376 -0.694596 -0.246386 0
M  V30 9288 H 883.018 -1.89919 0.055336 0
M  V30 9289 H 881.168 -3.36008 -1.95014 0
M  V30 9290 H 882.84 -4.59999 0.346241 0
M  V30 9291 H 881.083 -4.32 0.394768 0
M  V30 9292 H 881.754 -5.46609 -0.769576 0
M  V30 9293 H 884.23 -3.78934 -1.71897 0
M  V30 9294 H 883.106 -4.79885 -2.66461 0
M  V30 9295 H 883.367 -3.12464 -3.1276 0
M  V30 9296 N 882.426 0.269451 -1.5528 0
M  V30 9297 C 883.651 1.02299 -1.80415 0
M  V30 9298 C 884.076 1.7902 -0.577363 0
M  V30 9299 O 883.434 1.75018 0.473125 0
M  V30 9300 C 883.482 1.95445 -3.0304 0
M  V30 9301 O 882.586 3.04271 -2.78375 0
M  V30 9302 H 881.927 0.292289 -0.596207 0
M  V30 9303 H 884.457 0.297282 -2.02429 0
M  V30 9304 H 884.467 2.37333 -3.31869 0
M  V30 9305 H 883.142 1.39017 -3.91978 0
M  V30 9306 H 881.719 2.66673 -2.60653 0
M  V30 9307 N 883.904 1.48273 0.534124 0
M  V30 9308 C 884.867 1.6201 1.62127 0
M  V30 9309 C 885.867 0.493653 1.53035 0
M  V30 9310 O 887.057 0.759337 1.56779 0
M  V30 9311 C 884.189 1.5864 3.01739 0
M  V30 9312 H 885.382 2.58944 1.51288 0
M  V30 9313 H 882.935 1.36808 0.755861 0
M  V30 9314 H 883.67 0.631685 3.18088 0
M  V30 9315 H 883.455 2.40415 3.09747 0
M  V30 9316 H 884.945 1.71438 3.80787 0
M  V30 9317 N 885.382 -0.782676 1.36792 0
M  V30 9318 C 886.33 -1.91698 1.31737 0
M  V30 9319 C 887.324 -1.68118 0.207994 0
M  V30 9320 O 888.53 -1.76042 0.375393 0
M  V30 9321 H 884.905 -0.630215 0.410284 0
M  V30 9322 H 886.876 -1.93078 2.27516 0
M  V30 9323 C 885.625 -3.28816 1.13029 0
M  V30 9324 H 884.948 -3.4753 1.97643 0
M  V30 9325 H 886.388 -4.08515 1.13541 0
M  V30 9326 C 884.847 -3.36497 -0.1647 0
M  V30 9327 O 885.377 -3.84822 -1.15216 0
M  V30 9328 N 883.583 -2.89828 -0.211678 0
M  V30 9329 H 883.13 -2.50693 0.59252 0
M  V30 9330 H 883.088 -2.95349 -1.07779 0
M  V30 9331 N 886.86 -1.21182 -1.00761 0
M  V30 9332 C 887.792 -0.926523 -2.09638 0
M  V30 9333 C 888.805 0.0892511 -1.62555 0
M  V30 9334 O 889.994 -0.142915 -1.77927 0
M  V30 9335 C 887.094 -0.369175 -3.36883 0
M  V30 9336 C 886.267 -1.43866 -4.13063 0
M  V30 9337 C 885.326 -0.891015 -5.18601 0
M  V30 9338 O 884.352 -1.57384 -5.47009 0
M  V30 9339 N 885.554 0.295057 -5.7975 0
M  V30 9340 H 888.319 -1.8638 -2.34697 0
M  V30 9341 H 885.88 -1.11671 -1.17223 0
M  V30 9342 H 887.872 0.011534 -4.04698 0
M  V30 9343 H 886.442 0.472861 -3.09003 0
M  V30 9344 H 885.662 -1.99332 -3.40089 0
M  V30 9345 H 886.95 -2.15866 -4.60738 0
M  V30 9346 H 886.348 0.8669 -5.59018 0
M  V30 9347 H 884.905 0.617306 -6.4887 0
M  V30 9348 N 888.338 1.20213 -1.01915 0
M  V30 9349 C 889.749 1.7136 -0.741131 0
M  V30 9350 C 890.1 1.81705 0.740107 0
M  V30 9351 O 889.225 1.48139 1.57746 0
M  V30 9352 C 889.82 3.11231 -1.33869 0
M  V30 9353 C 888.379 3.59677 -1.10948 0
M  V30 9354 C 887.526 2.36809 -1.4428 0
M  V30 9355 H 890.477 1.05191 -1.1883 0
M  V30 9356 H 890.498 3.7342 -0.730585 0
M  V30 9357 H 890.01 3.03669 -2.41675 0
M  V30 9358 H 888.111 3.72568 -0.0492052 0
M  V30 9359 H 888.224 4.44351 -1.79134 0
M  V30 9360 H 886.588 2.39674 -0.861881 0
M  V30 9361 H 887.371 2.31886 -2.53148 0
M  V30 9362 N 889.816 0.795718 1.36037 0
M  V30 9363 C 891.062 0.371574 1.99367 0
M  V30 9364 C 891.395 -1.0557 1.62999 0
M  V30 9365 O 890.67 -1.73051 0.887895 0
M  V30 9366 C 890.953 0.542622 3.55988 0
M  V30 9367 C 890.806 2.01404 4.0219 0
M  V30 9368 C 892.125 -0.0384527 4.40083 0
M  V30 9369 H 889.244 0.136483 0.724252 0
M  V30 9370 H 891.886 1.00323 1.61355 0
M  V30 9371 H 890.036 0.0049053 3.885 0
M  V30 9372 H 891.708 2.6133 3.80137 0
M  V30 9373 H 889.951 2.51439 3.53498 0
M  V30 9374 H 890.622 2.08466 5.11122 0
M  V30 9375 H 893.098 0.420634 4.13968 0
M  V30 9376 H 891.974 0.111214 5.48787 0
M  V30 9377 H 892.235 -1.13116 4.27384 0
M  V30 9378 N 891.294 -1.47756 0.548274 0
M  V30 9379 C 892.224 -2.32702 -0.19284 0
M  V30 9380 C 893.205 -1.43237 -0.917457 0
M  V30 9381 O 894.39 -1.72103 -0.89967 0
M  V30 9382 C 891.52 -3.24831 -1.22891 0
M  V30 9383 C 890.474 -4.23466 -0.621312 0
M  V30 9384 C 889.8 -5.04856 -1.76137 0
M  V30 9385 C 891.1 -5.20616 0.419055 0
M  V30 9386 H 892.794 -2.94914 0.516323 0
M  V30 9387 H 890.34 -1.41818 0.24975 0
M  V30 9388 H 892.293 -3.83094 -1.75547 0
M  V30 9389 H 891.017 -2.60656 -1.9679 0
M  V30 9390 H 889.676 -3.66416 -0.116123 0
M  V30 9391 H 889.324 -4.37091 -2.48918 0
M  V30 9392 H 889.024 -5.71629 -1.36065 0
M  V30 9393 H 890.548 -5.65976 -2.29136 0
M  V30 9394 H 891.962 -5.73296 -0.0211034 0
M  V30 9395 H 890.359 -5.95543 0.738163 0
M  V30 9396 H 891.429 -4.66638 1.31822 0
M  V30 9397 N 892.772 -0.284283 -1.55015 0
M  V30 9398 C 894.018 0.330352 -2.00091 0
M  V30 9399 C 894.351 1.54814 -1.17244 0
M  V30 9400 O 893.626 1.92954 -0.244753 0
M  V30 9401 C 893.909 0.703492 -3.53161 0
M  V30 9402 C 893.762 -0.522275 -4.46758 0
M  V30 9403 C 895.081 1.53645 -4.12409 0
M  V30 9404 H 892.2 0.118599 -0.727395 0
M  V30 9405 H 894.842 -0.393054 -1.8589 0
M  V30 9406 H 892.992 1.31983 -3.65394 0
M  V30 9407 H 894.664 -1.16082 -4.46456 0
M  V30 9408 H 892.907 -1.15865 -4.1804 0
M  V30 9409 H 893.578 -0.217295 -5.51572 0
M  V30 9410 H 896.054 1.01583 -4.0351 0
M  V30 9411 H 894.93 1.76633 -5.19704 0
M  V30 9412 H 895.191 2.5204 -3.63219 0
M  V30 9413 N 894.251 1.57596 -0.0117121 0
M  V30 9414 C 895.214 2.08089 0.960816 0
M  V30 9415 C 896.214 0.992519 1.26514 0
M  V30 9416 O 897.404 1.25475 1.20837 0
M  V30 9417 C 894.536 2.53217 2.28241 0
M  V30 9418 H 895.729 2.9529 0.523829 0
M  V30 9419 H 893.282 1.54508 0.235995 0
M  V30 9420 H 894.017 1.69294 2.76604 0
M  V30 9421 H 893.802 3.32714 2.0747 0
M  V30 9422 H 895.292 2.92568 2.97983 0
M  V30 9423 N 895.729 -0.261212 1.5542 0
M  V30 9424 C 896.975 -0.992699 1.76843 0
M  V30 9425 C 897.308 -1.8551 0.574428 0
M  V30 9426 O 896.583 -1.89739 -0.427713 0
M  V30 9427 C 896.866 -1.86532 3.08022 0
M  V30 9428 C 896.719 -1.03206 4.378 0
M  V30 9429 C 898.038 -2.85036 3.35324 0
M  V30 9430 H 895.157 -0.359473 0.643388 0
M  V30 9431 H 897.799 -0.264214 1.88154 0
M  V30 9432 H 895.949 -2.48644 2.9851 0
M  V30 9433 H 897.621 -0.430743 4.59285 0
M  V30 9434 H 895.864 -0.335911 4.32497 0
M  V30 9435 H 896.535 -1.6761 5.25938 0
M  V30 9436 H 899.011 -2.3306 3.44706 0
M  V30 9437 H 897.887 -3.43226 4.28354 0
M  V30 9438 H 898.148 -3.60768 2.55537 0
M  V30 9439 N 897.207 -1.48554 -0.526253 0
M  V30 9440 C 898.154 -1.63354 -1.63046 0
M  V30 9441 C 899.124 -0.475509 -1.59148 0
M  V30 9442 O 900.309 -0.699453 -1.77517 0
M  V30 9443 C 897.449 -1.68271 -3.01295 0
M  V30 9444 C 896.562 -2.95207 -3.15399 0
M  V30 9445 C 895.697 -2.91262 -4.4423 0
M  V30 9446 C 894.736 -4.12886 -4.51876 0
M  V30 9447 N 893.873 -4.06996 -5.721 0
M  V30 9448 H 898.713 -2.57649 -1.49737 0
M  V30 9449 H 896.25 -1.27769 -0.728938 0
M  V30 9450 H 898.208 -1.69104 -3.81392 0
M  V30 9451 H 896.838 -0.774641 -3.13367 0
M  V30 9452 H 895.89 -3.04102 -2.2853 0
M  V30 9453 H 897.202 -3.85187 -3.1691 0
M  V30 9454 H 896.356 -2.90516 -5.32621 0
M  V30 9455 H 895.095 -1.99016 -4.45246 0
M  V30 9456 H 894.1 -4.13902 -3.61891 0
M  V30 9457 H 895.325 -5.06294 -4.52596 0
M  V30 9458 H 893.271 -3.17573 -5.74006 0
M  V30 9459 H 893.188 -4.90685 -5.75121 0
M  V30 9460 H 894.456 -4.10315 -6.62768 0
M  V30 9461 N 898.685 0.775411 -1.37205 0
M  V30 9462 C 899.618 1.8957 -1.27037 0
M  V30 9463 C 900.596 1.61891 -0.151643 0
M  V30 9464 O 901.78 1.85673 -0.325218 0
M  V30 9465 C 898.907 3.24712 -0.963316 0
M  V30 9466 C 897.953 3.71306 -2.09842 0
M  V30 9467 S 898.786 3.8541 -3.71778 0
M  V30 9468 C 899.942 5.23406 -3.43216 0
M  V30 9469 H 900.175 1.97905 -2.21857 0
M  V30 9470 H 897.708 0.936127 -1.22784 0
M  V30 9471 H 899.666 4.02768 -0.792983 0
M  V30 9472 H 898.327 3.14083 -0.0326561 0
M  V30 9473 H 897.52 4.69271 -1.83849 0
M  V30 9474 H 897.122 3.00341 -2.2287 0
M  V30 9475 H 899.414 6.08454 -2.97977 0
M  V30 9476 H 900.357 5.54409 -4.40495 0
M  V30 9477 H 900.765 4.9117 -2.78231 0
M  V30 9478 N 900.163 1.21714 1.00117 0
M  V30 9479 C 901.093 1.00397 2.10815 0
M  V30 9480 C 902.074 -0.0723502 1.69946 0
M  V30 9481 O 903.259 0.0882398 1.93999 0
M  V30 9482 C 900.389 0.572001 3.42557 0
M  V30 9483 C 899.343 1.59331 3.97237 0
M  V30 9484 C 898.669 1.01746 5.2493 0
M  V30 9485 C 899.969 2.98117 4.28863 0
M  V30 9486 H 901.663 1.92983 2.28906 0
M  V30 9487 H 899.209 0.929273 1.10002 0
M  V30 9488 H 901.162 0.410018 4.19401 0
M  V30 9489 H 899.886 -0.38951 3.24269 0
M  V30 9490 H 898.545 1.74293 3.22518 0
M  V30 9491 H 898.193 0.0475491 5.02978 0
M  V30 9492 H 897.893 1.69969 5.62481 0
M  V30 9493 H 899.417 0.866881 6.04415 0
M  V30 9494 H 900.831 2.86578 4.96534 0
M  V30 9495 H 899.228 3.63389 4.77565 0
M  V30 9496 H 900.298 3.48674 3.36979 0
M  V30 9497 N 901.641 -1.19671 1.02551 0
M  V30 9498 C 903.057 -1.41305 0.741963 0
M  V30 9499 C 903.257 -1.89865 -0.674807 0
M  V30 9500 O 902.313 -2.07323 -1.44129 0
M  V30 9501 C 903.626 -2.42706 1.77522 0
M  V30 9502 C 905.174 -2.56458 1.79438 0
M  V30 9503 C 905.649 -3.61111 2.81715 0
M  V30 9504 N 907.14 -3.68603 2.8051 0
M  V30 9505 C 907.875 -4.49262 3.56302 0
M  V30 9506 N 907.371 -5.33653 4.41799 0
M  V30 9507 N 909.164 -4.43879 3.44859 0
M  V30 9508 H 901.315 -0.8647 1.94002 0
M  V30 9509 H 903.578 -0.442206 0.838545 0
M  V30 9510 H 903.284 -2.14042 2.79068 0
M  V30 9511 H 903.158 -3.41831 1.59472 0
M  V30 9512 H 905.545 -2.84447 0.78573 0
M  V30 9513 H 905.626 -1.57499 2.01563 0
M  V30 9514 H 905.27 -3.33864 3.82749 0
M  V30 9515 H 905.2 -4.59713 2.56849 0
M  V30 9516 H 907.691 -3.08329 2.18498 0
M  V30 9517 H 908.004 -5.92308 4.96378 0
M  V30 9518 H 906.349 -5.33125 4.45873 0
M  V30 9519 H 909.54 -3.7699 2.77482 0
M  V30 9520 H 909.713 -5.06501 4.04179 0
M  V30 9521 N 903.119 -0.802921 -1.35613 0
M  V30 9522 C 904.082 -0.216422 -2.28176 0
M  V30 9523 C 905.082 0.594101 -1.49422 0
M  V30 9524 O 906.272 0.41312 -1.6923 0
M  V30 9525 C 903.404 0.698746 -3.33662 0
M  V30 9526 H 904.597 -1.03276 -2.81557 0
M  V30 9527 H 902.15 -0.573307 -1.45406 0
M  V30 9528 H 902.885 1.53891 -2.85461 0
M  V30 9529 H 902.67 0.119314 -3.91918 0
M  V30 9530 H 904.16 1.10354 -4.02755 0
M  V30 9531 N 904.597 1.47463 -0.556102 0
M  V30 9532 C 905.874 1.9557 0.0339892 0
M  V30 9533 C 906.254 1.49869 1.48669 0
M  V30 9534 O 905.602 0.737019 2.16288 0
M  V30 9535 C 905.812 3.48826 -0.110343 0
M  V30 9536 C 907.16 4.24585 0.0355716 0
M  V30 9537 O 908.184 3.5618 -0.0378356 0
M  V30 9538 O 907.043 5.46158 0.193299 0
M  V30 9539 H 904.137 0.824461 0.0647521 0
M  V30 9540 H 906.683 1.57868 -0.622547 0
M  V30 9541 H 905.455 3.74891 -1.12126 0
M  V30 9542 H 905.078 3.9329 0.583855 0
M  V30 9543 N 906.075 0.2925 1.54862 0
M  V30 9544 C 907.038 -0.574423 2.21885 0
M  V30 9545 C 908.038 -1.06791 1.20218 0
M  V30 9546 O 909.228 -0.9653 1.45009 0
M  V30 9547 C 906.36 -1.79438 2.89853 0
M  V30 9548 H 907.553 0.0110319 2.99898 0
M  V30 9549 H 905.106 0.043256 1.5624 0
M  V30 9550 H 905.841 -2.4199 2.15897 0
M  V30 9551 H 905.626 -1.44827 3.64373 0
M  V30 9552 H 907.116 -2.41048 3.41007 0
M  V30 9553 N 907.553 -1.57587 0.0200696 0
M  V30 9554 C 908.501 -2.10814 -0.982868 0
M  V30 9555 C 909.495 -1.03263 -1.34287 0
M  V30 9556 O 910.701 -1.21708 -1.32617 0
M  V30 9557 H 907.076 -0.673409 -0.334701 0
M  V30 9558 H 909.047 -2.94034 -0.50856 0
M  V30 9559 C 907.796 -2.64301 -2.25921 0
M  V30 9560 H 907.119 -3.46703 -1.99091 0
M  V30 9561 H 908.559 -3.052 -2.94328 0
M  V30 9562 C 907.018 -1.56628 -2.98277 0
M  V30 9563 O 907.548 -0.960825 -3.9004 0
M  V30 9564 N 905.754 -1.28889 -2.60453 0
M  V30 9565 H 905.301 -1.7831 -1.85912 0
M  V30 9566 H 905.259 -0.570697 -3.09177 0
M  V30 9567 N 909.032 0.252966 -1.55557 0
M  V30 9568 C 909.979 1.3131 -1.89806 0
M  V30 9569 C 910.949 1.48121 -0.751633 0
M  V30 9570 O 912.134 1.62202 -1.00474 0
M  V30 9571 C 909.274 2.66467 -2.19293 0
M  V30 9572 C 908.387 2.57714 -3.46709 0
M  V30 9573 C 907.522 3.85184 -3.65796 0
M  V30 9574 C 906.561 3.71023 -4.86835 0
M  V30 9575 N 905.698 4.90371 -5.02474 0
M  V30 9576 H 910.538 1.01402 -2.80217 0
M  V30 9577 H 908.075 0.489462 -1.38718 0
M  V30 9578 H 910.033 3.45132 -2.34392 0
M  V30 9579 H 908.663 2.94536 -1.32093 0
M  V30 9580 H 907.715 1.70651 -3.39974 0
M  V30 9581 H 909.027 2.43158 -4.35517 0
M  V30 9582 H 908.181 4.72292 -3.80822 0
M  V30 9583 H 906.92 4.0263 -2.7521 0
M  V30 9584 H 905.925 2.82299 -4.71792 0
M  V30 9585 H 907.15 3.55078 -5.78875 0
M  V30 9586 H 905.096 5.0819 -4.14824 0
M  V30 9587 H 905.013 4.78423 -5.85361 0
M  V30 9588 H 906.281 5.78995 -5.21905 0
M  V30 9589 N 910.51 1.48831 0.518367 0
M  V30 9590 C 911.458 1.64678 1.64268 0
M  V30 9591 C 912.452 0.512967 1.61447 0
M  V30 9592 O 913.658 0.692063 1.66164 0
M  V30 9593 H 910.033 0.518964 0.544224 0
M  V30 9594 H 912.004 2.59083 1.4805 0
M  V30 9595 C 910.753 1.71449 3.0249 0
M  V30 9596 H 910.076 2.58061 3.0536 0
M  V30 9597 H 911.516 1.86577 3.80743 0
M  V30 9598 C 909.975 0.455584 3.33805 0
M  V30 9599 O 910.505 -0.426428 3.9943 0
M  V30 9600 N 908.711 0.323763 2.88791 0
M  V30 9601 H 908.258 1.04249 2.35563 0
M  V30 9602 H 908.216 -0.517514 3.10112 0
M  V30 9603 N 911.988 -0.768124 1.37614 0
M  V30 9604 C 912.951 -1.86314 1.3349 0
M  V30 9605 C 913.951 -1.59025 0.23823 0
M  V30 9606 O 915.141 -1.6704 0.494288 0
M  V30 9607 C 912.273 -3.23519 1.07462 0
M  V30 9608 H 913.466 -1.91382 2.30896 0
M  V30 9609 H 911.019 -0.968267 1.22696 0
M  V30 9610 H 911.754 -3.24127 0.106028 0
M  V30 9611 H 911.539 -3.44719 1.86846 0
M  V30 9612 H 913.029 -4.03597 1.07236 0
M  V30 9613 N 913.466 -1.22244 -0.994698 0
M  V30 9614 C 914.882 -0.982006 -1.25813 0
M  V30 9615 C 915.082 0.325488 -1.98854 0
M  V30 9616 O 914.138 1.04857 -2.29698 0
M  V30 9617 C 915.451 -2.1795 -2.07167 0
M  V30 9618 C 916.999 -2.22287 -2.20358 0
M  V30 9619 C 917.474 -3.41583 -3.05098 0
M  V30 9620 N 918.965 -3.41734 -3.12686 0
M  V30 9621 C 919.7 -4.30692 -3.78539 0
M  V30 9622 N 919.196 -5.29865 -4.46335 0
M  V30 9623 N 920.989 -4.18473 -3.75283 0
M  V30 9624 H 913.14 -2.0631 -0.504963 0
M  V30 9625 H 915.403 -0.90395 -0.285618 0
M  V30 9626 H 915.109 -3.12758 -1.60858 0
M  V30 9627 H 914.983 -2.17862 -3.07922 0
M  V30 9628 H 917.37 -1.28028 -2.65881 0
M  V30 9629 H 917.451 -2.26414 -1.19039 0
M  V30 9630 H 917.095 -4.36141 -2.60275 0
M  V30 9631 H 917.025 -3.34695 -4.06555 0
M  V30 9632 H 919.516 -2.69969 -2.64433 0
M  V30 9633 H 919.829 -5.94027 -4.9432 0
M  V30 9634 H 918.174 -5.3378 -4.45089 0
M  V30 9635 H 921.365 -3.40249 -3.21478 0
M  V30 9636 H 921.538 -4.88007 -4.26326 0
M  V30 9637 N 914.944 1.19125 -1.03184 0
M  V30 9638 C 915.892 2.24492 -0.608781 0
M  V30 9639 C 916.886 1.65529 0.360065 0
M  V30 9640 O 918.092 1.78546 0.22832 0
M  V30 9641 H 914.467 0.73048 -0.178616 0
M  V30 9642 H 916.438 2.5749 -1.50803 0
M  V30 9643 C 915.187 3.47693 0.0215126 0
M  V30 9644 H 914.51 3.93354 -0.715024 0
M  V30 9645 H 915.95 4.23072 0.280429 0
M  V30 9646 C 914.409 3.12088 1.26896 0
M  V30 9647 O 914.939 3.25013 2.36071 0
M  V30 9648 N 913.145 2.66494 1.15886 0
M  V30 9649 H 912.692 2.56176 0.270463 0
M  V30 9650 H 912.65 2.43042 1.99444 0
M  V30 9651 N 916.422 0.810101 1.35185 0
M  V30 9652 C 917.699 0.315235 1.93043 0
M  V30 9653 C 918.079 -1.19567 1.73974 0
M  V30 9654 O 917.427 -1.99682 1.11083 0
M  V30 9655 C 917.637 0.730492 3.41269 0
M  V30 9656 C 918.985 0.721985 4.18417 0
M  V30 9657 O 920.009 0.672258 3.49799 0
M  V30 9658 O 918.868 0.783535 5.40854 0
M  V30 9659 H 915.962 0.0832774 0.822796 0
M  V30 9660 H 918.508 0.894034 1.4424 0
M  V30 9661 H 917.28 1.77169 3.48894 0
M  V30 9662 H 916.903 0.12669 3.97398 0
M  V30 9663 N 917.9 -1.47166 0.563914 0
M  V30 9664 C 919.147 -2.02456 0.042371 0
M  V30 9665 C 919.475 -1.43753 -1.31016 0
M  V30 9666 O 918.73 -0.585287 -1.86743 0
M  V30 9667 C 919.029 -3.57279 -0.0931797 0
M  V30 9668 C 918.695 -4.34932 1.18933 0
M  V30 9669 C 917.357 -4.55867 1.54073 0
M  V30 9670 C 919.709 -4.79665 2.03889 0
M  V30 9671 C 917.037 -5.18785 2.74005 0
M  V30 9672 C 919.389 -5.43907 3.23029 0
M  V30 9673 C 918.053 -5.63074 3.58475 0
M  V30 9674 H 917.323 -0.740838 0.0155047 0
M  V30 9675 H 919.97 -1.76759 0.736776 0
M  V30 9676 H 918.275 -3.82005 -0.870596 0
M  V30 9677 H 919.972 -3.97716 -0.512176 0
M  V30 9678 H 916.562 -4.18921 0.905718 0
M  V30 9679 H 920.746 -4.63264 1.78046 0
M  V30 9680 H 916.002 -5.31818 3.01628 0
M  V30 9681 H 920.176 -5.77531 3.89141 0
M  V30 9682 H 917.803 -6.11598 4.515 0
M  V30 9683 N 919.378 -0.300708 -1.54705 0
M  V30 9684 C 920.308 0.568675 -2.26469 0
M  V30 9685 C 921.289 1.13817 -1.26411 0
M  V30 9686 O 922.474 1.16756 -1.55183 0
M  V30 9687 C 919.604 1.74077 -3.00524 0
M  V30 9688 C 918.558 1.30165 -4.07727 0
M  V30 9689 C 917.884 2.55888 -4.69495 0
M  V30 9690 C 919.184 0.433106 -5.20501 0
M  V30 9691 H 920.878 -0.0298851 -2.99385 0
M  V30 9692 H 918.424 -0.0158135 -1.43991 0
M  V30 9693 H 920.377 2.35506 -3.49449 0
M  V30 9694 H 919.101 2.36556 -2.25186 0
M  V30 9695 H 917.76 0.710414 -3.59651 0
M  V30 9696 H 917.408 3.16681 -3.90797 0
M  V30 9697 H 917.108 2.27207 -5.41895 0
M  V30 9698 H 918.632 3.18121 -5.21183 0
M  V30 9699 H 920.046 0.95307 -5.65322 0
M  V30 9700 H 918.443 0.240085 -5.9962 0
M  V30 9701 H 919.513 -0.541866 -4.81863 0
M  V30 9702 N 920.856 1.57574 -0.0284266 0
M  V30 9703 C 921.803 2.10176 0.953658 0
M  V30 9704 C 922.773 1.00367 1.32347 0
M  V30 9705 O 923.958 1.27783 1.4169 0
M  V30 9706 C 921.098 2.63287 2.231 0
M  V30 9707 C 920.211 3.87102 1.91771 0
M  V30 9708 C 919.346 4.28609 3.13795 0
M  V30 9709 C 918.385 5.45184 2.78282 0
M  V30 9710 N 917.522 5.81851 3.92929 0
M  V30 9711 H 922.362 2.93806 0.498176 0
M  V30 9712 H 919.899 1.45222 0.234302 0
M  V30 9713 H 921.857 2.9217 2.97813 0
M  V30 9714 H 920.487 1.82489 2.66266 0
M  V30 9715 H 919.539 3.64952 1.07303 0
M  V30 9716 H 920.851 4.71892 1.61615 0
M  V30 9717 H 920.005 4.58925 3.96829 0
M  V30 9718 H 918.744 3.42585 3.47112 0
M  V30 9719 H 917.749 5.14563 1.93661 0
M  V30 9720 H 918.974 6.32907 2.46182 0
M  V30 9721 H 916.92 4.98782 4.2609 0
M  V30 9722 H 916.837 6.6128 3.66395 0
M  V30 9723 H 918.105 6.16772 4.76669 0
M  V30 9724 N 922.334 -0.244713 1.55689 0
M  V30 9725 C 923.244 -1.32447 1.93636 0
M  V30 9726 C 924.26 -1.52541 0.837086 0
M  V30 9727 O 925.436 -1.66121 1.13867 0
M  V30 9728 C 922.501 -2.65864 2.22525 0
M  V30 9729 C 921.562 -2.54273 3.45896 0
M  V30 9730 C 920.795 -3.81327 3.73397 0
M  V30 9731 O 921.018 -4.83307 3.02936 0
M  V30 9732 O 919.952 -3.79829 4.66919 0
M  V30 9733 H 923.778 -1.03255 2.85608 0
M  V30 9734 H 921.363 -0.445652 1.42598 0
M  V30 9735 H 923.245 -3.447 2.42404 0
M  V30 9736 H 921.92 -2.94784 1.33731 0
M  V30 9737 H 920.827 -1.73715 3.31321 0
M  V30 9738 H 922.16 -2.30297 4.34999 0
M  V30 9739 N 923.813 -1.49104 -0.510467 0
M  V30 9740 C 925.062 -1.57362 -1.26175 0
M  V30 9741 C 925.375 -0.261218 -1.93848 0
M  V30 9742 O 926.581 -0.222238 -2.70589 0
M  V30 9743 C 925.037 -2.77606 -2.29048 0
M  V30 9744 C 924.645 -4.15567 -1.67357 0
M  V30 9745 C 926.389 -2.95188 -3.05064 0
M  V30 9746 C 924.296 -5.27046 -2.68285 0
M  V30 9747 H 923.226 -0.585887 -0.474608 0
M  V30 9748 H 925.877 -1.75474 -0.536753 0
M  V30 9749 H 924.259 -2.52968 -3.04669 0
M  V30 9750 H 925.433 -4.50304 -0.977924 0
M  V30 9751 H 923.748 -4.03264 -1.03765 0
M  V30 9752 H 926.345 -3.75643 -3.80521 0
M  V30 9753 H 926.688 -2.05385 -3.62108 0
M  V30 9754 H 927.221 -3.19821 -2.36558 0
M  V30 9755 H 923.96 -6.18878 -2.16034 0
M  V30 9756 H 923.48 -4.96774 -3.36118 0
M  V30 9757 H 925.159 -5.55983 -3.30896 0
M  V30 9758 N 925.291 0.760815 -1.38019 0
M  V30 9759 C 926.238 1.8744 -1.34666 0
M  V30 9760 C 927.208 1.64762 -0.210386 0
M  V30 9761 O 928.393 1.86528 -0.401479 0
M  V30 9762 C 925.533 3.24648 -1.17037 0
M  V30 9763 C 924.646 3.59206 -2.3999 0
M  V30 9764 C 923.781 4.8568 -2.15148 0
M  V30 9765 C 922.82 5.13002 -3.3391 0
M  V30 9766 N 921.957 6.30668 -3.08549 0
M  V30 9767 H 926.797 1.8964 -2.29871 0
M  V30 9768 H 924.334 0.927004 -1.14215 0
M  V30 9769 H 926.292 4.03814 -1.04834 0
M  V30 9770 H 924.922 3.21793 -0.254758 0
M  V30 9771 H 923.974 2.74939 -2.62893 0
M  V30 9772 H 925.286 3.75328 -3.28527 0
M  V30 9773 H 924.44 5.72773 -2.00039 0
M  V30 9774 H 923.179 4.71682 -1.23965 0
M  V30 9775 H 922.184 4.2438 -3.49545 0
M  V30 9776 H 923.409 5.28901 -4.25958 0
M  V30 9777 H 921.355 6.18008 -2.20006 0
M  V30 9778 H 921.272 6.47257 -3.90633 0
M  V30 9779 H 922.54 7.20669 -2.9708 0
M  V30 9780 N 926.769 1.22769 0.988202 0
M  V30 9781 C 928.018 1.0492 1.72263 0
M  V30 9782 C 928.331 -0.415282 1.91141 0
M  V30 9783 O 929.537 -0.713547 2.61956 0
M  V30 9784 C 927.993 1.82891 3.09966 0
M  V30 9785 C 927.601 3.33618 2.99003 0
M  V30 9786 C 929.345 1.73505 3.87423 0
M  V30 9787 C 927.252 4.04012 4.3189 0
M  V30 9788 H 926.182 0.38899 0.645912 0
M  V30 9789 H 928.833 1.46664 1.10281 0
M  V30 9790 H 927.215 1.33948 3.72658 0
M  V30 9791 H 928.389 3.8999 2.45448 0
M  V30 9792 H 926.704 3.43732 2.35027 0
M  V30 9793 H 929.301 2.23416 4.85787 0
M  V30 9794 H 929.644 0.696344 4.10435 0
M  V30 9795 H 930.177 2.20016 3.31418 0
M  V30 9796 H 926.916 5.08155 4.14075 0
M  V30 9797 H 926.436 3.52428 4.8534 0
M  V30 9798 H 928.115 4.0987 5.00615 0
M  V30 9799 N 928.247 -1.18576 1.03814 0
M  V30 9800 C 929.18 -2.20929 0.571463 0
M  V30 9801 C 930.158 -1.57788 -0.392636 0
M  V30 9802 O 931.342 -1.85974 -0.30754 0
M  V30 9803 C 928.469 -3.38295 -0.165504 0
M  V30 9804 C 927.515 -4.19828 0.751457 0
M  V30 9805 S 928.348 -4.86725 2.23291 0
M  V30 9806 C 929.504 -6.07494 1.50672 0
M  V30 9807 H 929.737 -2.60173 1.43866 0
M  V30 9808 H 927.27 -1.2897 0.84888 0
M  V30 9809 H 929.228 -4.06317 -0.584545 0
M  V30 9810 H 927.889 -2.97468 -1.00855 0
M  V30 9811 H 927.082 -5.03671 0.181986 0
M  V30 9812 H 926.684 -3.57172 1.10923 0
M  V30 9813 H 928.976 -6.72779 0.798377 0
M  V30 9814 H 929.919 -6.68942 2.3221 0
M  V30 9815 H 930.327 -5.55569 1.00016 0
M  V30 9816 N 929.725 -0.817259 -1.34754 0
M  V30 9817 C 930.95 -0.414423 -2.03217 0
M  V30 9818 C 931.375 0.970037 -1.61158 0
M  V30 9819 O 930.733 1.63016 -0.793436 0
M  V30 9820 C 930.781 -0.518087 -3.56859 0
M  V30 9821 O 929.885 0.464314 -4.09778 0
M  V30 9822 H 929.226 -0.171454 -0.641482 0
M  V30 9823 H 931.756 -1.10611 -1.72123 0
M  V30 9824 H 931.766 -0.391779 -4.06115 0
M  V30 9825 H 930.441 -1.52786 -3.86819 0
M  V30 9826 H 929.018 0.297361 -3.71712 0
M  V30 9827 N 931.203 1.46865 -0.571711 0
M  V30 9828 C 932.619 1.57897 -0.23255 0
M  V30 9829 C 932.819 1.56836 1.26509 0
M  V30 9830 O 931.875 1.47947 2.04617 0
M  V30 9831 C 933.188 2.87778 -0.872036 0
M  V30 9832 C 934.736 3.01389 -0.844605 0
M  V30 9833 C 935.211 4.33991 -1.46343 0
M  V30 9834 N 936.702 4.40662 -1.42727 0
M  V30 9835 C 937.437 5.41858 -1.87557 0
M  V30 9836 N 936.933 6.49787 -2.4031 0
M  V30 9837 N 938.726 5.32992 -1.7854 0
M  V30 9838 H 930.877 1.45798 -1.54457 0
M  V30 9839 H 933.14 0.694785 -0.644964 0
M  V30 9840 H 932.846 2.94332 -1.92513 0
M  V30 9841 H 932.72 3.75345 -0.373677 0
M  V30 9842 H 935.107 2.94423 0.19984 0
M  V30 9843 H 935.188 2.15327 -1.38087 0
M  V30 9844 H 934.832 4.41714 -2.50701 0
M  V30 9845 H 934.762 5.18809 -0.902479 0
M  V30 9846 H 937.253 3.63263 -1.04155 0
M  V30 9847 H 937.566 7.23199 -2.72403 0
M  V30 9848 H 935.911 6.50637 -2.44329 0
M  V30 9849 H 939.102 4.47575 -1.37093 0
M  V30 9850 H 939.275 6.11716 -2.13794 0
M  V30 9851 N 932.681 0.308908 1.54543 0
M  V30 9852 C 933.611 -0.556657 2.26768 0
M  V30 9853 C 934.592 -1.13145 1.27013 0
M  V30 9854 O 935.777 -1.15931 1.558 0
M  V30 9855 C 932.907 -1.72481 3.01443 0
M  V30 9856 C 931.861 -1.28001 4.08411 0
M  V30 9857 C 931.187 -2.53395 4.70845 0
M  V30 9858 C 932.487 -0.405497 5.20724 0
M  V30 9859 H 934.181 0.0457618 2.99365 0
M  V30 9860 H 931.727 0.0234495 1.43981 0
M  V30 9861 H 933.68 -2.3365 3.50693 0
M  V30 9862 H 932.404 -2.35359 2.26437 0
M  V30 9863 H 931.063 -0.69133 3.60022 0
M  V30 9864 H 930.711 -3.14604 3.92471 0
M  V30 9865 H 930.411 -2.2433 5.43093 0
M  V30 9866 H 931.935 -3.15352 5.22863 0
M  V30 9867 H 933.349 -0.923076 5.6582 0
M  V30 9868 H 931.746 -0.208282 5.99738 0
M  V30 9869 H 932.816 0.567412 4.81569 0
M  V30 9870 N 934.159 -1.57557 0.0367827 0
M  V30 9871 C 935.106 -2.10679 -0.942499 0
M  V30 9872 C 936.076 -1.01068 -1.31812 0
M  V30 9873 O 937.261 -1.28533 -1.41011 0
M  V30 9874 C 934.401 -2.64467 -2.21701 0
M  V30 9875 C 933.514 -3.88114 -1.89715 0
M  V30 9876 C 932.649 -4.30268 -3.11518 0
M  V30 9877 C 931.688 -5.46652 -2.75387 0
M  V30 9878 N 930.825 -5.83927 -3.89838 0
M  V30 9879 H 935.665 -2.94066 -0.482588 0
M  V30 9880 H 933.202 -1.45344 -0.226597 0
M  V30 9881 H 935.16 -2.93745 -2.96259 0
M  V30 9882 H 933.79 -1.83898 -2.65295 0
M  V30 9883 H 932.842 -3.65516 -1.05366 0
M  V30 9884 H 934.154 -4.72743 -1.5911 0
M  V30 9885 H 933.308 -4.61023 -3.94389 0
M  V30 9886 H 932.047 -3.44421 -3.4529 0
M  V30 9887 H 931.052 -5.15583 -1.90929 0
M  V30 9888 H 932.277 -6.34204 -2.42822 0
M  V30 9889 H 930.223 -5.01035 -4.23438 0
M  V30 9890 H 930.14 -6.63214 -3.62883 0
M  V30 9891 H 931.408 -6.19291 -4.73391 0
M  V30 9892 N 935.637 0.236453 -1.55816 0
M  V30 9893 C 936.914 0.986463 -1.68903 0
M  V30 9894 C 937.294 2.02984 -0.579722 0
M  V30 9895 O 936.642 2.24693 0.415389 0
M  V30 9896 C 936.852 1.61038 -3.09625 0
M  V30 9897 C 938.2 2.10829 -3.6856 0
M  V30 9898 O 939.224 1.7096 -3.12492 0
M  V30 9899 O 938.083 2.84064 -4.66873 0
M  V30 9900 H 935.177 0.459837 -0.687371 0
M  V30 9901 H 937.723 0.229412 -1.68142 0
M  V30 9902 H 936.495 0.856232 -3.81817 0
M  V30 9903 H 936.118 2.43336 -3.14441 0
M  V30 9904 N 937.115 1.49373 0.502552 0
M  V30 9905 C 938.526 1.52 1.0841 0
M  V30 9906 C 938.877 0.305317 1.9381 0
M  V30 9907 O 938.002 -0.585023 2.08342 0
M  V30 9908 C 938.597 2.75437 1.97281 0
M  V30 9909 C 937.156 2.80848 2.50602 0
M  V30 9910 C 936.303 2.45894 1.28186 0
M  V30 9911 H 939.254 1.56092 0.286533 0
M  V30 9912 H 939.275 2.55511 2.81947 0
M  V30 9913 H 938.787 3.63827 1.35098 0
M  V30 9914 H 936.888 1.96735 3.16427 0
M  V30 9915 H 937.001 3.82979 2.8786 0
M  V30 9916 H 935.365 1.97639 1.60657 0
M  V30 9917 H 936.148 3.36556 0.677139 0
M  V30 9918 N 938.594 -0.753485 1.38421 0
M  V30 9919 C 939.542 -1.8886 1.35774 0
M  V30 9920 C 940.536 -1.67639 0.243608 0
M  V30 9921 O 941.742 -1.75206 0.412649 0
M  V30 9922 H 938.117 -0.62137 0.42356 0
M  V30 9923 H 940.088 -1.88209 2.3156 0
M  V30 9924 C 938.837 -3.26344 1.19979 0
M  V30 9925 H 938.16 -3.43259 2.04971 0
M  V30 9926 H 939.6 -4.06015 1.22181 0
M  V30 9927 C 938.059 -3.36771 -0.0932867 0
M  V30 9928 O 938.589 -3.8718 -1.07027 0
M  V30 9929 N 936.795 -2.90212 -0.150154 0
M  V30 9930 H 936.342 -2.4938 0.645562 0
M  V30 9931 H 936.3 -2.97569 -1.0149 0
M  V30 9932 N 940.072 -1.23292 -0.981677 0
M  V30 9933 C 941.321 -1.05832 -1.71705 0
M  V30 9934 C 941.634 0.40514 -1.91358 0
M  V30 9935 O 942.84 0.699645 -2.6233 0
M  V30 9936 C 941.296 -1.84532 -3.08992 0
M  V30 9937 C 940.904 -3.35199 -2.9723 0
M  V30 9938 C 942.648 -1.75557 -3.86497 0
M  V30 9939 C 940.555 -4.06296 -4.29741 0
M  V30 9940 H 939.485 -0.39241 -0.64384 0
M  V30 9941 H 942.136 -1.47247 -1.09502 0
M  V30 9942 H 940.518 -1.35923 -3.71942 0
M  V30 9943 H 941.692 -3.91286 -2.43377 0
M  V30 9944 H 940.007 -3.44973 -2.332 0
M  V30 9945 H 942.604 -2.25989 -4.84596 0
M  V30 9946 H 942.947 -0.718101 -4.1006 0
M  V30 9947 H 943.48 -2.21771 -3.30246 0
M  V30 9948 H 940.219 -5.10344 -4.11375 0
M  V30 9949 H 939.739 -3.54997 -4.83464 0
M  V30 9950 H 941.418 -4.12519 -4.98434 0
M  V30 9951 N 941.55 1.18024 -1.04442 0
M  V30 9952 C 942.799 1.8743 -0.745185 0
M  V30 9953 C 943.112 1.81459 0.730206 0
M  V30 9954 O 944.318 2.46263 1.1431 0
M  V30 9955 C 942.774 3.36266 -1.28271 0
M  V30 9956 C 942.382 3.50757 -2.787 0
M  V30 9957 C 944.126 4.11048 -1.06018 0
M  V30 9958 C 942.033 4.93573 -3.25791 0
M  V30 9959 H 940.963 0.702038 -0.27506 0
M  V30 9960 H 943.614 1.33333 -1.26073 0
M  V30 9961 H 941.996 3.89853 -0.695002 0
M  V30 9962 H 943.17 3.07423 -3.43261 0
M  V30 9963 H 941.485 2.89385 -2.99408 0
M  V30 9964 H 944.082 5.16395 -1.38711 0
M  V30 9965 H 944.425 4.163 0.00241716 0
M  V30 9966 H 944.958 3.63644 -1.61269 0
M  V30 9967 H 941.697 4.93491 -4.31447 0
M  V30 9968 H 941.217 5.37607 -2.65968 0
M  V30 9969 H 942.896 5.62307 -3.20031 0
M  V30 9970 N 943.028 0.824394 1.34319 0
M  V30 9971 C 943.978 0.219624 2.2694 0
M  V30 9972 C 944.962 -0.616964 1.48601 0
M  V30 9973 O 946.154 -0.471303 1.7061 0
M  V30 9974 C 943.283 -0.616379 3.37721 0
M  V30 9975 C 942.369 0.230917 4.23471 0
M  V30 9976 N 942.76 1.30264 4.88738 0
M  V30 9977 C 941.058 0.0155016 4.45997 0
M  V30 9978 C 941.759 1.82141 5.52449 0
M  V30 9979 N 940.735 1.12508 5.3183 0
M  V30 9980 H 944.537 1.03939 2.74907 0
M  V30 9981 H 942.051 0.667353 1.48055 0
M  V30 9982 H 944.048 -1.06582 4.03046 0
M  V30 9983 H 942.708 -1.43429 2.91304 0
M  V30 9984 H 943.719 1.68545 4.89707 0
M  V30 9985 H 940.396 -0.770128 4.10336 0
M  V30 9986 H 941.786 2.7181 6.14466 0
M  V30 9987 N 944.506 -1.46559 0.579492 0
M  V30 9988 C 945.436 -2.33059 -0.143437 0
M  V30 9989 C 946.417 -1.4515 -0.886868 0
M  V30 9990 O 947.602 -1.73973 -0.862961 0
M  V30 9991 C 944.732 -3.27364 -1.15973 0
M  V30 9992 C 943.686 -4.24689 -0.531348 0
M  V30 9993 C 943.012 -5.08479 -1.65388 0
M  V30 9994 C 944.312 -5.1961 0.529391 0
M  V30 9995 H 946.006 -2.93753 0.578762 0
M  V30 9996 H 943.552 -1.41256 0.279775 0
M  V30 9997 H 945.505 -3.86732 -1.67382 0
M  V30 9998 H 944.229 -2.64771 -1.91217 0
M  V30 9999 H 942.888 -3.6658 -0.0383749 0
M  V30 10000 H 942.536 -4.42273 -2.3959 0
M  V30 10001 H 942.236 -5.74387 -1.23909 0
M  V30 10002 H 943.76 -5.70709 -2.17079 0
M  V30 10003 H 945.174 -5.73212 0.100506 0
M  V30 10004 H 943.571 -5.93843 0.86432 0
M  V30 10005 H 944.641 -4.63737 1.4169 0
M  V30 10006 N 945.984 -0.3171 -1.54377 0
M  V30 10007 C 946.914 0.544623 -2.2706 0
M  V30 10008 C 947.895 1.12469 -1.27611 0
M  V30 10009 O 949.08 1.15103 -1.56413 0
M  V30 10010 C 946.21 1.70879 -3.02353 0
M  V30 10011 C 945.164 1.25833 -4.09084 0
M  V30 10012 C 944.49 2.50894 -4.72182 0
M  V30 10013 C 945.79 0.377876 -5.20931 0
M  V30 10014 H 947.484 -0.0616372 -2.99337 0
M  V30 10015 H 945.03 -0.0310848 -1.43966 0
M  V30 10016 H 946.983 2.31787 -3.51927 0
M  V30 10017 H 945.707 2.34155 -2.27682 0
M  V30 10018 H 944.366 0.672228 -3.60384 0
M  V30 10019 H 944.014 3.12518 -3.94134 0
M  V30 10020 H 943.714 2.21447 -5.44275 0
M  V30 10021 H 945.238 3.12575 -5.24528 0
M  V30 10022 H 946.652 0.893056 -5.66302 0
M  V30 10023 H 945.049 0.176474 -5.9984 0
M  V30 10024 H 946.119 -0.592943 -4.81261 0
M  V30 10025 N 947.462 1.57535 -0.0451378 0
M  V30 10026 C 948.425 2.1008 0.916461 0
M  V30 10027 C 949.425 1.01913 1.2438 0
M  V30 10028 O 950.615 1.2801 1.18148 0
M  V30 10029 C 947.747 2.58001 2.22818 0
M  V30 10030 H 948.94 2.96334 0.461076 0
M  V30 10031 H 946.493 1.54974 0.203169 0
M  V30 10032 H 947.228 1.75123 2.72951 0
M  V30 10033 H 947.013 3.3704 2.00366 0
M  V30 10034 H 948.503 2.98822 2.9171 0
M  V30 10035 N 948.94 -0.228186 1.55939 0
M  V30 10036 C 950.186 -0.954964 1.78909 0
M  V30 10037 C 950.519 -1.8425 0.613648 0
M  V30 10038 O 949.794 -1.90604 -0.38737 0
M  V30 10039 C 950.077 -1.79957 3.1191 0
M  V30 10040 C 949.93 -0.938968 4.3989 0
M  V30 10041 C 951.249 -2.77859 3.41295 0
M  V30 10042 H 948.368 -0.345745 0.650868 0
M  V30 10043 H 951.01 -0.224244 1.88672 0
M  V30 10044 H 949.16 -2.42256 3.03717 0
M  V30 10045 H 950.832 -0.333225 4.60095 0
M  V30 10046 H 949.075 -0.244096 4.33113 0
M  V30 10047 H 949.746 -1.56416 5.29375 0
M  V30 10048 H 952.222 -2.25695 3.49572 0
M  V30 10049 H 951.098 -3.34062 4.35538 0
M  V30 10050 H 951.359 -3.55266 2.63132 0
M  V30 10051 N 950.418 -1.49637 -0.494624 0
M  V30 10052 C 951.658 -1.61067 -1.25844 0
M  V30 10053 C 952.022 -0.293666 -1.89741 0
M  V30 10054 O 953.223 -0.283202 -2.67304 0
M  V30 10055 C 951.494 -2.74218 -2.29215 0
M  V30 10056 S 953.053 -3.05639 -3.1485 0
M  V30 10057 H 949.871 -0.568056 -0.42759 0
M  V30 10058 H 952.473 -1.87323 -0.559491 0
M  V30 10059 H 951.177 -3.68422 -1.80813 0
M  V30 10060 H 950.708 -2.49975 -3.0377 0
M  V30 10061 H 952.723 -2.47651 -4.29981 0
M  V30 10062 N 951.896 0.746133 -1.38819 0
M  V30 10063 C 953.145 1.50085 -1.34749 0
M  V30 10064 C 953.458 1.95516 0.0574786 0
M  V30 10065 O 954.664 2.70601 0.22073 0
M  V30 10066 C 953.12 2.71141 -2.36665 0
M  V30 10067 C 952.728 2.32706 -3.82821 0
M  V30 10068 C 954.472 3.49005 -2.41652 0
M  V30 10069 C 952.379 3.50418 -4.76405 0
M  V30 10070 H 951.309 0.563563 -0.500912 0
M  V30 10071 H 953.96 0.814951 -1.6441 0
M  V30 10072 H 952.342 3.4175 -2.00058 0
M  V30 10073 H 953.516 1.69715 -4.28408 0
M  V30 10074 H 951.831 1.67959 -3.81023 0
M  V30 10075 H 954.428 4.36541 -3.08766 0
M  V30 10076 H 954.771 3.90687 -1.43769 0
M  V30 10077 H 955.304 2.85416 -2.77097 0
M  V30 10078 H 952.043 3.13795 -5.75511 0
M  V30 10079 H 951.563 4.12426 -4.35505 0
M  V30 10080 H 953.242 4.16901 -4.94775 0
M  V30 10081 N 953.375 1.23811 0.975125 0
M  V30 10082 C 954.603 1.10019 1.75224 0
M  V30 10083 C 955.018 -0.34791 1.85567 0
M  V30 10084 O 954.375 -1.24043 1.33864 0
M  V30 10085 C 954.426 1.72572 3.1765 0
M  V30 10086 O 954.147 3.11719 3.07836 0
M  V30 10087 C 955.648 1.64292 4.11732 0
M  V30 10088 H 952.868 0.38476 0.549728 0
M  V30 10089 H 955.412 1.63768 1.22476 0
M  V30 10090 H 953.567 1.22843 3.67408 0
M  V30 10091 H 953.981 3.42152 3.97533 0
M  V30 10092 H 955.455 2.12754 5.09352 0
M  V30 10093 H 955.932 0.602722 4.35045 0
M  V30 10094 H 956.538 2.13411 3.6788 0
M  V30 10095 N 954.853 -1.17469 1.05066 0
M  V30 10096 C 956.13 -1.83625 0.673872 0
M  V30 10097 C 956.51 -1.93412 -0.845871 0
M  V30 10098 O 955.858 -1.4677 -1.75131 0
M  V30 10099 C 956.068 -3.21352 1.36139 0
M  V30 10100 C 957.416 -3.97274 1.49863 0
M  V30 10101 O 958.44 -3.30827 1.3203 0
M  V30 10102 O 957.299 -5.16349 1.79013 0
M  V30 10103 H 954.393 -0.792297 0.237055 0
M  V30 10104 H 956.939 -1.24776 1.15017 0
M  V30 10105 H 955.711 -3.0919 2.39827 0
M  V30 10106 H 955.334 -3.87867 0.874364 0
M  V30 10107 N 956.331 -0.831506 -1.3388 0
M  V30 10108 C 957.608 -0.345907 -1.92517 0
M  V30 10109 C 957.988 1.16784 -1.75854 0
M  V30 10110 O 957.336 1.97889 -1.14245 0
M  V30 10111 C 957.546 -0.784692 -3.40064 0
M  V30 10112 C 958.894 -0.78846 -4.17215 0
M  V30 10113 O 959.918 -0.727823 -3.48685 0
M  V30 10114 O 958.777 -0.869481 -5.39539 0
M  V30 10115 H 955.871 -0.0963568 -0.821367 0
M  V30 10116 H 958.417 -0.916868 -1.42799 0
M  V30 10117 H 957.189 -1.82697 -3.46031 0
M  V30 10118 H 956.812 -0.189897 -3.97146 0
M  V30 10119 N 957.809 1.4625 -0.587256 0
M  V30 10120 C 959.22 1.85997 -0.161918 0
M  V30 10121 C 959.571 1.49025 1.27616 0
M  V30 10122 O 958.696 0.907282 1.96462 0
M  V30 10123 C 959.291 3.37582 -0.287077 0
M  V30 10124 C 957.85 3.76308 0.0834211 0
M  V30 10125 C 956.997 2.70259 -0.620932 0
M  V30 10126 H 959.948 1.3734 -0.795199 0
M  V30 10127 H 959.969 3.77379 0.486333 0
M  V30 10128 H 959.481 3.64459 -1.33383 0
M  V30 10129 H 957.582 3.55047 1.13013 0
M  V30 10130 H 957.695 4.78184 -0.296064 0
M  V30 10131 H 956.059 2.54628 -0.0607027 0
M  V30 10132 H 956.842 2.99975 -1.66942 0
M  V30 10133 N 959.287 0.325282 1.54207 0
M  V30 10134 C 960.217 -0.532574 2.27345 0
M  V30 10135 C 961.198 -1.11791 1.28206 0
M  V30 10136 O 962.383 -1.14272 1.57021 0
M  V30 10137 C 959.513 -1.69274 3.03255 0
M  V30 10138 C 958.467 -1.23662 4.09746 0
M  V30 10139 C 957.793 -2.48386 4.73506 0
M  V30 10140 C 959.093 -0.350244 5.21124 0
M  V30 10141 H 960.787 0.0775108 2.993 0
M  V30 10142 H 958.333 0.0387193 1.43948 0
M  V30 10143 H 960.286 -2.29917 3.53152 0
M  V30 10144 H 959.01 -2.32944 2.28921 0
M  V30 10145 H 957.669 -0.653106 3.60735 0
M  V30 10146 H 957.317 -3.10424 3.95786 0
M  V30 10147 H 957.017 -2.18558 5.45441 0
M  V30 10148 H 958.541 -3.09789 5.26178 0
M  V30 10149 H 959.955 -0.863011 5.66767 0
M  V30 10150 H 958.352 -0.14466 5.99926 0
M  V30 10151 H 959.422 0.618457 4.8094 0
M  V30 10152 N 960.765 -1.57509 0.0534917 0
M  V30 10153 C 962.005 -1.94654 -0.623641 0
M  V30 10154 C 962.369 -0.93184 -1.67871 0
M  V30 10155 O 963.57 -1.19031 -2.41009 0
M  V30 10156 C 961.841 -3.36575 -1.20216 0
M  V30 10157 S 963.4 -3.95677 -1.89697 0
M  V30 10158 H 960.218 -0.680893 -0.20471 0
M  V30 10159 H 962.82 -1.95113 0.122982 0
M  V30 10160 H 961.524 -4.08223 -0.422177 0
M  V30 10161 H 961.055 -3.39617 -1.98555 0
M  V30 10162 H 963.07 -3.81092 -3.17779 0
M  V30 10163 N 962.243 0.219913 -1.56058 0
M  V30 10164 C 963.176 1.29978 -1.87566 0
M  V30 10165 C 964.154 1.45131 -0.733203 0
M  V30 10166 O 965.338 1.60917 -0.981729 0
M  V30 10167 C 962.465 2.66988 -2.08411 0
M  V30 10168 C 961.511 2.68842 -3.31099 0
M  V30 10169 S 962.344 2.22745 -4.86975 0
M  V30 10170 C 963.5 3.61627 -5.10859 0
M  V30 10171 H 963.733 1.03059 -2.78866 0
M  V30 10172 H 961.266 0.422233 -1.48514 0
M  V30 10173 H 963.224 3.45866 -2.21104 0
M  V30 10174 H 961.885 2.91131 -1.17905 0
M  V30 10175 H 961.078 3.69526 -3.42734 0
M  V30 10176 H 960.68 1.98028 -3.17271 0
M  V30 10177 H 962.972 4.57328 -4.99857 0
M  V30 10178 H 963.915 3.54906 -6.12737 0
M  V30 10179 H 964.323 3.55391 -4.38586 0
M  V30 10180 N 963.721 1.49897 0.486681 0
M  V30 10181 C 964.97 1.59349 1.23656 0
M  V30 10182 C 965.283 0.292024 1.93408 0
M  V30 10183 O 966.489 0.265258 2.70201 0
M  V30 10184 C 964.945 2.81215 2.24602 0
M  V30 10185 C 964.553 4.18177 1.60725 0
M  V30 10186 C 966.297 3.00004 3.00329 0
M  V30 10187 C 964.204 5.31247 2.59866 0
M  V30 10188 H 963.134 0.593363 0.465227 0
M  V30 10189 H 965.785 1.76306 0.508769 0
M  V30 10190 H 964.167 2.57783 3.00606 0
M  V30 10191 H 965.341 4.51802 0.90616 0
M  V30 10192 H 963.656 4.04864 0.973362 0
M  V30 10193 H 966.253 3.81649 3.74497 0
M  V30 10194 H 966.596 2.1112 3.58795 0
M  V30 10195 H 967.129 3.23544 2.3144 0
M  V30 10196 H 963.868 6.22236 2.06161 0
M  V30 10197 H 963.388 5.02059 3.28172 0
M  V30 10198 H 965.067 5.61177 3.22009 0
M  V30 10199 N 965.199 -0.738761 1.39212 0
M  V30 10200 C 966.427 -1.52801 1.39497 0
M  V30 10201 C 966.842 -1.88797 -0.0114917 0
M  V30 10202 O 966.199 -1.53835 -0.981887 0
M  V30 10203 C 966.25 -2.81793 2.2644 0
M  V30 10204 O 965.971 -2.47328 3.61608 0
M  V30 10205 C 967.472 -3.75844 2.35067 0
M  V30 10206 H 964.692 -0.472322 0.476606 0
M  V30 10207 H 967.236 -0.913153 1.8298 0
M  V30 10208 H 965.391 -3.3962 1.8638 0
M  V30 10209 H 965.805 -3.30162 4.07545 0
M  V30 10210 H 967.279 -4.6326 3.00157 0
M  V30 10211 H 967.756 -4.17329 1.3687 0
M  V30 10212 H 968.362 -3.23937 2.75581 0
M  V30 10213 N 966.677 -1.24326 -0.968545 0
M  V30 10214 C 967.587 -1.05194 -2.09694 0
M  V30 10215 C 968.603 0.00701291 -1.73999 0
M  V30 10216 O 969.779 -0.190981 -2.00492 0
M  V30 10217 C 966.844 -0.658075 -3.40397 0
M  V30 10218 C 965.905 -1.79341 -3.90045 0
M  V30 10219 C 965.138 -1.41824 -5.14511 0
M  V30 10220 O 965.361 -0.307693 -5.69569 0
M  V30 10221 O 964.295 -2.24358 -5.58522 0
M  V30 10222 H 968.121 -1.99791 -2.2873 0
M  V30 10223 H 965.706 -1.03138 -1.08088 0
M  V30 10224 H 967.588 -0.449911 -4.18991 0
M  V30 10225 H 966.263 0.258782 -3.22664 0
M  V30 10226 H 965.17 -2.05632 -3.12516 0
M  V30 10227 H 966.503 -2.68901 -4.12254 0
M  V30 10228 N 968.156 1.1691 -1.05688 0
M  V30 10229 C 969.386 1.90927 -0.789339 0
M  V30 10230 C 969.794 1.77339 0.659369 0
M  V30 10231 O 969.137 1.11147 1.4626 0
M  V30 10232 C 969.199 3.42361 -1.09677 0
M  V30 10233 C 968.863 3.79733 -2.54267 0
M  V30 10234 C 969.86 3.82163 -3.52487 0
M  V30 10235 C 967.545 4.10547 -2.89406 0
M  V30 10236 C 969.539 4.14884 -4.8389 0
M  V30 10237 C 967.226 4.42936 -4.21011 0
M  V30 10238 C 968.224 4.45084 -5.18063 0
M  V30 10239 O 967.912 4.76707 -6.47307 0
M  V30 10240 H 967.644 0.612466 -0.286115 0
M  V30 10241 H 970.198 1.4916 -1.4121 0
M  V30 10242 H 968.428 3.84446 -0.416924 0
M  V30 10243 H 970.117 3.97645 -0.814456 0
M  V30 10244 H 970.883 3.58476 -3.26681 0
M  V30 10245 H 966.762 4.08044 -2.14525 0
M  V30 10246 H 970.306 4.16475 -5.59638 0
M  V30 10247 H 966.203 4.66088 -4.46579 0
M  V30 10248 H 966.971 4.94544 -6.52203 0
M  V30 10249 N 969.634 0.838594 1.33437 0
M  V30 10250 C 970.567 0.216651 2.27169 0
M  V30 10251 C 971.545 -0.636065 1.49643 0
M  V30 10252 O 972.729 -0.596388 1.78817 0
M  V30 10253 C 969.856 -0.69584 3.31475 0
M  V30 10254 C 968.902 0.0813808 4.26422 0
M  V30 10255 S 969.735 1.43909 5.15801 0
M  V30 10256 C 970.891 0.531887 6.23636 0
M  V30 10257 H 971.124 1.01128 2.79572 0
M  V30 10258 H 968.657 0.635332 1.40723 0
M  V30 10259 H 970.615 -1.21671 3.92054 0
M  V30 10260 H 969.276 -1.46413 2.77888 0
M  V30 10261 H 968.469 -0.612944 5.00259 0
M  V30 10262 H 968.071 0.533304 3.70178 0
M  V30 10263 H 970.363 -0.270371 6.7696 0
M  V30 10264 H 971.306 1.24041 6.97151 0
M  V30 10265 H 971.714 0.113357 5.64386 0
M  V30 10266 N 971.112 -1.45937 0.595003 0
M  V30 10267 C 972.022 -2.34221 -0.133325 0
M  V30 10268 C 973.038 -1.50491 -0.873407 0
M  V30 10269 O 974.214 -1.83328 -0.833828 0
M  V30 10270 C 971.279 -3.27896 -1.12628 0
M  V30 10271 C 970.34 -4.27529 -0.389532 0
M  V30 10272 C 969.573 -5.16729 -1.33519 0
M  V30 10273 O 969.796 -5.09102 -2.57238 0
M  V30 10274 O 968.73 -5.96023 -0.839084 0
M  V30 10275 H 972.556 -2.97877 0.591861 0
M  V30 10276 H 970.141 -1.45113 0.355329 0
M  V30 10277 H 972.023 -3.85654 -1.69851 0
M  V30 10278 H 970.698 -2.6682 -1.83272 0
M  V30 10279 H 969.605 -3.73424 0.224843 0
M  V30 10280 H 970.938 -4.91425 0.276169 0
M  V30 10281 N 972.59 -0.333456 -1.54032 0
M  V30 10282 C 973.538 0.543414 -2.26163 0
M  V30 10283 C 974.532 1.11037 -1.27934 0
M  V30 10284 O 975.738 1.05727 -1.45677 0
M  V30 10285 H 972.113 0.19391 -0.726569 0
M  V30 10286 H 974.084 -0.0871052 -2.98273 0
M  V30 10287 C 972.833 1.68769 -3.03994 0
M  V30 10288 H 972.156 1.26069 -3.79403 0
M  V30 10289 H 973.596 2.27662 -3.57695 0
M  V30 10290 C 972.055 2.61117 -2.12884 0
M  V30 10291 O 972.585 3.63097 -1.71823 0
M  V30 10292 N 970.791 2.29573 -1.7817 0
M  V30 10293 H 970.338 1.46684 -2.11759 0
M  V30 10294 H 970.296 2.91622 -1.1749 0
M  V30 10295 N 974.068 1.57479 -0.061844 0
M  V30 10296 C 975.316 1.92727 0.608336 0
M  V30 10297 C 975.637 0.941799 1.70749 0
M  V30 10298 O 974.907 -0.0116608 1.95897 0
M  V30 10299 H 973.487 0.71145 0.2277 0
M  V30 10300 H 976.149 1.94546 -0.117359 0
M  V30 10301 H 975.245 2.9426 1.04007 0
M  V30 10302 N 975.546 -0.211634 1.56173 0
M  V30 10303 C 976.823 -0.959467 1.70451 0
M  V30 10304 C 977.203 -2.02036 0.611942 0
M  V30 10305 O 976.551 -2.25325 -0.37959 0
M  V30 10306 C 976.761 -1.56092 3.12148 0
M  V30 10307 C 978.109 -2.04939 3.71867 0
M  V30 10308 O 979.133 -1.65966 3.15172 0
M  V30 10309 O 977.992 -2.766 4.71333 0
M  V30 10310 H 975.086 -0.448844 0.6946 0
M  V30 10311 H 977.632 -0.202633 1.68486 0
M  V30 10312 H 976.404 -0.79538 3.83131 0
M  V30 10313 H 976.027 -2.38303 3.18273 0
M  V30 10314 N 977.024 -1.50153 -0.478725 0
M  V30 10315 C 977.954 -1.71384 -1.58587 0
M  V30 10316 C 978.935 -0.562705 -1.60523 0
M  V30 10317 O 980.12 -0.80101 -1.76911 0
M  V30 10318 C 977.25 -1.80094 -2.96957 0
M  V30 10319 C 976.204 -2.95218 -3.09888 0
M  V30 10320 C 975.53 -2.89063 -4.49829 0
M  V30 10321 C 976.83 -4.35841 -2.8782 0
M  V30 10322 H 978.524 -2.64081 -1.41073 0
M  V30 10323 H 976.07 -1.27081 -0.677239 0
M  V30 10324 H 978.023 -1.93531 -3.74331 0
M  V30 10325 H 976.747 -0.840131 -3.1561 0
M  V30 10326 H 975.406 -2.81419 -2.34944 0
M  V30 10327 H 975.054 -1.90844 -4.6539 0
M  V30 10328 H 974.754 -3.66345 -4.59418 0
M  V30 10329 H 976.278 -3.04539 -5.29234 0
M  V30 10330 H 977.692 -4.50205 -3.54948 0
M  V30 10331 H 976.089 -5.14515 -3.0886 0
M  V30 10332 H 977.159 -4.48739 -1.83742 0
M  V30 10333 N 978.502 0.731368 -1.39602 0
M  V30 10334 C 979.45 1.86676 -1.38761 0
M  V30 10335 C 980.444 1.6723 -0.270247 0
M  V30 10336 O 981.65 1.74528 -0.440471 0
M  V30 10337 H 978.025 0.614553 -0.433391 0
M  V30 10338 H 979.996 1.84501 -2.34525 0
M  V30 10339 C 978.745 3.24394 -1.25155 0
M  V30 10340 H 978.068 3.39955 -2.10406 0
M  V30 10341 H 979.508 4.04019 -1.28625 0
M  V30 10342 C 977.967 3.36877 0.0396976 0
M  V30 10343 O 978.497 3.88833 1.00854 0
M  V30 10344 N 976.703 2.90414 0.103965 0
M  V30 10345 H 976.25 2.48321 -0.685155 0
M  V30 10346 H 976.208 2.99146 0.967435 0
M  V30 10347 N 979.98 1.24838 0.961938 0
M  V30 10348 C 980.912 1.00369 2.06055 0
M  V30 10349 C 981.925 -0.0288583 1.62774 0
M  V30 10350 O 983.114 0.208853 1.77274 0
M  V30 10351 C 980.214 0.493953 3.35281 0
M  V30 10352 C 979.387 1.59097 4.07439 0
M  V30 10353 C 978.446 1.08288 5.14937 0
M  V30 10354 O 977.472 1.77577 5.40791 0
M  V30 10355 N 978.674 -0.0796836 5.80445 0
M  V30 10356 H 981.439 1.94962 2.27618 0
M  V30 10357 H 979 1.15945 1.12997 0
M  V30 10358 H 980.992 0.138675 4.04462 0
M  V30 10359 H 979.562 -0.357851 3.10545 0
M  V30 10360 H 978.782 2.11817 3.32456 0
M  V30 10361 H 980.07 2.32817 4.52409 0
M  V30 10362 H 979.468 -0.658827 5.6185 0
M  V30 10363 H 978.025 -0.376057 6.50714 0
M  V30 10364 N 981.458 -1.16348 1.06306 0
M  V30 10365 C 982.705 -1.86881 0.779852 0
M  V30 10366 C 983.033 -1.8171 -0.693668 0
M  V30 10367 O 982.288 -1.22769 -1.52401 0
M  V30 10368 C 982.587 -3.35936 1.21991 0
M  V30 10369 C 982.253 -3.61307 2.69756 0
M  V30 10370 C 980.915 -3.6794 3.10119 0
M  V30 10371 C 983.267 -3.71871 3.65187 0
M  V30 10372 C 980.595 -3.82639 4.44752 0
M  V30 10373 C 982.947 -3.88091 4.99568 0
M  V30 10374 C 981.611 -3.92967 5.39568 0
M  V30 10375 H 980.881 -0.683847 0.285368 0
M  V30 10376 H 983.528 -1.37569 1.33218 0
M  V30 10377 H 981.833 -3.87381 0.586774 0
M  V30 10378 H 983.53 -3.88895 0.977821 0
M  V30 10379 H 980.12 -3.56777 2.37504 0
M  V30 10380 H 984.304 -3.66057 3.35136 0
M  V30 10381 H 979.56 -3.84666 4.75228 0
M  V30 10382 H 983.734 -3.95207 5.73397 0
M  V30 10383 H 981.361 -4.04109 6.43895 0
M  V30 10384 N 982.937 -0.845659 -1.3299 0
M  V30 10385 C 983.867 -0.298957 -2.31578 0
M  V30 10386 C 984.848 0.597012 -1.59279 0
M  V30 10387 O 986.033 0.519142 -1.87132 0
M  V30 10388 C 983.163 0.521109 -3.43368 0
M  V30 10389 C 982.117 -0.279651 -4.27085 0
M  V30 10390 C 981.443 0.664591 -5.30554 0
M  V30 10391 C 982.743 -1.50046 -5.00283 0
M  V30 10392 H 984.437 -1.12272 -2.77552 0
M  V30 10393 H 981.983 -0.54132 -1.33438 0
M  V30 10394 H 983.936 0.913921 -4.1137 0
M  V30 10395 H 982.66 1.37815 -2.96099 0
M  V30 10396 H 981.319 -0.654106 -3.60717 0
M  V30 10397 H 980.967 1.51822 -4.79541 0
M  V30 10398 H 980.667 0.132871 -5.8745 0
M  V30 10399 H 982.191 1.05477 -6.01421 0
M  V30 10400 H 983.605 -1.18044 -5.61016 0
M  V30 10401 H 982.002 -1.96946 -5.66862 0
M  V30 10402 H 983.072 -2.26659 -4.28665 0
M  V30 10403 N 984.415 1.45619 -0.602734 0
M  V30 10404 C 985.64 2.07157 -0.100429 0
M  V30 10405 C 986.065 1.44524 1.20393 0
M  V30 10406 O 985.423 0.536191 1.7319 0
M  V30 10407 C 985.471 3.60587 0.0308604 0
M  V30 10408 O 984.575 3.97944 1.08234 0
M  V30 10409 H 983.916 0.6601 -0.0718643 0
M  V30 10410 H 986.446 1.86948 -0.831366 0
M  V30 10411 H 986.456 4.07348 0.230634 0
M  V30 10412 H 985.131 4.05561 -0.921581 0
M  V30 10413 H 983.708 3.62862 0.859414 0
M  V30 10414 N 985.893 0.34162 1.53853 0
M  V30 10415 C 987.309 -0.0103769 1.59597 0
M  V30 10416 C 987.509 -1.48897 1.35764 0
M  V30 10417 O 986.565 -2.24743 1.15095 0
M  V30 10418 C 987.878 0.424067 2.97695 0
M  V30 10419 C 989.426 0.376247 3.1073 0
M  V30 10420 C 989.901 0.786129 4.51203 0
M  V30 10421 N 991.392 0.74024 4.57247 0
M  V30 10422 C 992.127 1.02937 5.64085 0
M  V30 10423 N 991.623 1.38655 6.78783 0
M  V30 10424 N 993.416 0.953734 5.5395 0
M  V30 10425 H 985.567 1.30477 1.67599 0
M  V30 10426 H 987.83 0.531753 0.78482 0
M  V30 10427 H 987.536 1.45493 3.20195 0
M  V30 10428 H 987.41 -0.201713 3.7666 0
M  V30 10429 H 989.797 -0.645441 2.87955 0
M  V30 10430 H 989.878 1.0372 2.33828 0
M  V30 10431 H 989.522 1.80582 4.74713 0
M  V30 10432 H 989.452 0.102671 5.265 0
M  V30 10433 H 991.943 0.476763 3.7488 0
M  V30 10434 H 992.256 1.59206 7.56223 0
M  V30 10435 H 990.601 1.42498 6.80235 0
M  V30 10436 H 993.792 0.674044 4.63222 0
M  V30 10437 H 993.965 1.18241 6.37121 0
M  V30 10438 N 987.371 -1.57444 0.0701946 0
M  V30 10439 C 988.321 -2.09154 -0.90767 0
M  V30 10440 C 989.305 -1.00087 -1.25982 0
M  V30 10441 O 990.497 -1.26397 -1.23906 0
M  V30 10442 C 987.626 -2.65544 -2.17581 0
M  V30 10443 C 986.712 -3.81613 -1.85021 0
M  V30 10444 N 987.103 -4.90641 -1.22904 0
M  V30 10445 C 985.401 -3.90878 -2.1478 0
M  V30 10446 C 986.102 -5.71511 -1.084 0
M  V30 10447 N 985.078 -5.1973 -1.59318 0
M  V30 10448 H 988.88 -2.90839 -0.423051 0
M  V30 10449 H 986.394 -1.61848 -0.13374 0
M  V30 10450 H 988.391 -3.00904 -2.88552 0
M  V30 10451 H 987.051 -1.85304 -2.66632 0
M  V30 10452 H 988.062 -5.1004 -0.898878 0
M  V30 10453 H 984.739 -3.21611 -2.66219 0
M  V30 10454 H 986.129 -6.69214 -0.600183 0
M  V30 10455 N 988.849 0.203349 -1.56283 0
M  V30 10456 C 989.759 1.27266 -1.9708 0
M  V30 10457 C 990.775 1.50268 -0.877236 0
M  V30 10458 O 991.951 1.63044 -1.18231 0
M  V30 10459 C 989.016 2.59871 -2.29495 0
M  V30 10460 C 988.077 2.45012 -3.52516 0
M  V30 10461 C 987.31 3.71293 -3.83376 0
M  V30 10462 O 987.533 4.75106 -3.15643 0
M  V30 10463 O 986.467 3.67316 -4.76826 0
M  V30 10464 H 990.293 0.956461 -2.88246 0
M  V30 10465 H 987.878 0.407688 -1.4373 0
M  V30 10466 H 989.76 3.38152 -2.51458 0
M  V30 10467 H 988.435 2.91135 -1.415 0
M  V30 10468 H 987.342 1.6487 -3.35811 0
M  V30 10469 H 988.675 2.18683 -4.40952 0
M  V30 10470 N 990.327 1.50405 0.470755 0
M  V30 10471 C 991.738 1.54266 1.05162 0
M  V30 10472 C 992.089 0.346359 1.93119 0
M  V30 10473 O 991.214 -0.540699 2.09536 0
M  V30 10474 C 991.809 2.7956 1.91394 0
M  V30 10475 C 990.368 2.86101 2.44588 0
M  V30 10476 C 989.515 2.48557 1.22941 0
M  V30 10477 H 992.466 1.56665 0.253359 0
M  V30 10478 H 992.487 2.61434 2.76464 0
M  V30 10479 H 991.999 3.66611 1.27351 0
M  V30 10480 H 990.1 2.03403 3.12183 0
M  V30 10481 H 990.213 3.88999 2.79672 0
M  V30 10482 H 988.577 2.01003 1.56429 0
M  V30 10483 H 989.36 3.37916 0.605598 0
M  V30 10484 N 991.805 -0.723954 1.39988 0
M  V30 10485 C 993.216 -1.30273 1.33738 0
M  V30 10486 C 993.567 -1.96199 0.00690581 0
M  V30 10487 O 992.692 -1.97016 -0.895179 0
M  V30 10488 C 993.287 -2.36889 2.42217 0
M  V30 10489 C 991.846 -2.90412 2.39453 0
M  V30 10490 C 990.993 -1.64103 2.2353 0
M  V30 10491 H 993.944 -0.520672 1.49916 0
M  V30 10492 H 993.965 -3.17538 2.09642 0
M  V30 10493 H 993.477 -1.88878 3.39038 0
M  V30 10494 H 991.578 -3.42674 1.46304 0
M  V30 10495 H 991.691 -3.42775 3.34727 0
M  V30 10496 H 990.055 -1.88855 1.70897 0
M  V30 10497 H 990.838 -1.18128 3.22336 0
M  V30 10498 N 993.283 -1.25346 -0.955304 0
M  V30 10499 C 994.231 -1.05461 -2.07318 0
M  V30 10500 C 995.225 0.0142699 -1.69394 0
M  V30 10501 O 996.431 -0.141292 -1.79445 0
M  V30 10502 H 992.806 -0.324095 -0.678577 0
M  V30 10503 H 994.777 -2.00231 -2.21247 0
M  V30 10504 C 993.526 -0.689329 -3.40798 0
M  V30 10505 H 992.849 -1.50362 -3.70447 0
M  V30 10506 H 994.289 -0.589883 -4.19877 0
M  V30 10507 C 992.748 0.604556 -3.31431 0
M  V30 10508 O 993.278 1.64686 -3.6639 0
M  V30 10509 N 991.484 0.589927 -2.84549 0
M  V30 10510 H 991.031 -0.258647 -2.56298 0
M  V30 10511 H 990.989 1.4558 -2.78664 0
M  V30 10512 N 994.761 1.15782 -1.06922 0
M  V30 10513 C 995.986 1.90896 -0.810771 0
M  V30 10514 C 996.411 1.77246 0.629714 0
M  V30 10515 O 995.769 1.10215 1.43953 0
M  V30 10516 C 995.817 3.39397 -1.21829 0
M  V30 10517 O 994.921 4.10818 -0.360934 0
M  V30 10518 H 994.262 0.594497 -0.295752 0
M  V30 10519 H 996.792 1.46652 -1.42669 0
M  V30 10520 H 996.802 3.90181 -1.19259 0
M  V30 10521 H 995.477 3.4865 -2.2675 0
M  V30 10522 H 994.054 3.7019 -0.448748 0
M  V30 10523 N 996.239 0.8527 1.3254 0
M  V30 10524 C 997.464 0.468157 2.02047 0
M  V30 10525 C 997.889 -0.926967 1.63673 0
M  V30 10526 O 997.247 -1.60855 0.836378 0
M  V30 10527 C 997.295 0.612519 3.5536 0
M  V30 10528 O 996.399 -0.355506 4.10865 0
M  V30 10529 H 995.74 0.188401 0.636711 0
M  V30 10530 H 998.27 1.15135 1.6913 0
M  V30 10531 H 998.28 0.499315 4.04933 0
M  V30 10532 H 996.955 1.62988 3.82632 0
M  V30 10533 H 995.532 -0.198703 3.7237 0
M  V30 10534 N 997.718 -1.45297 0.610449 0
M  V30 10535 C 998.943 -2.07101 0.111414 0
M  V30 10536 C 999.368 -1.45161 -1.19625 0
M  V30 10537 O 998.726 -0.545368 -1.72903 0
M  V30 10538 C 998.774 -3.60598 -0.0117372 0
M  V30 10539 O 997.878 -3.98512 -1.06122 0
M  V30 10540 H 997.219 -0.659709 0.075364 0
M  V30 10541 H 999.749 -1.86504 0.841269 0
M  V30 10542 H 999.759 -4.07464 -0.209028 0
M  V30 10543 H 998.434 -4.05067 0.943076 0
M  V30 10544 H 997.011 -3.63312 -0.840158 0
M  V30 10545 N 999.196 -0.349774 -1.5367 0
M  V30 10546 C 1000.42 0.248692 -2.05904 0
M  V30 10547 C 1000.85 1.42942 -1.22267 0
M  V30 10548 O 1000.2 1.79732 -0.237899 0
M  V30 10549 C 1000.25 0.635639 -3.54953 0
M  V30 10550 O 999.356 1.7349 -3.74132 0
M  V30 10551 H 998.697 0.0399477 -0.662797 0
M  V30 10552 H 1001.23 -0.505795 -1.9825 0
M  V30 10553 H 1001.24 0.911064 -3.97698 0
M  V30 10554 H 999.912 -0.227805 -4.15276 0
M  V30 10555 H 998.489 1.45626 -3.43289 0
M  V30 10556 N 1000.67 1.57404 -0.0785433 0
M  V30 10557 C 1001.95 1.85163 0.630389 0
M  V30 10558 C 1002.33 0.972295 1.87376 0
M  V30 10559 O 1001.68 0.0403375 2.28464 0
M  V30 10560 C 1001.89 3.35491 0.961604 0
M  V30 10561 C 1003.24 4.0316 1.33219 0
M  V30 10562 O 1004.26 3.40276 1.05313 0
M  V30 10563 O 1003.12 5.14086 1.85412 0
M  V30 10564 H 1000.21 0.765169 0.31376 0
M  V30 10565 H 1002.76 1.69343 -0.109986 0
M  V30 10566 H 1001.53 3.91221 0.0788113 0
M  V30 10567 H 1001.15 3.56598 1.75852 0
M  V30 10568 N 1002.15 -0.195058 1.56388 0
M  V30 10569 C 1003.4 -0.9168 1.80894 0
M  V30 10570 C 1003.73 -1.82907 0.652592 0
M  V30 10571 O 1003.01 -1.91382 -0.346853 0
M  V30 10572 C 1003.29 -1.733 3.15657 0
M  V30 10573 C 1003.14 -0.845449 4.41783 0
M  V30 10574 C 1004.46 -2.70557 3.47112 0
M  V30 10575 H 1001.58 -0.331861 0.658056 0
M  V30 10576 H 1004.22 -0.184174 1.89105 0
M  V30 10577 H 1002.37 -2.3576 3.08787 0
M  V30 10578 H 1004.04 -0.235557 4.60698 0
M  V30 10579 H 1002.29 -0.152172 4.33533 0
M  V30 10580 H 1002.96 -1.45152 5.32574 0
M  V30 10581 H 1005.43 -2.1823 3.54281 0
M  V30 10582 H 1004.31 -3.24749 4.42526 0
M  V30 10583 H 1004.57 -3.49605 2.70608 0
M  V30 10584 N 1003.63 -1.50653 -0.462772 0
M  V30 10585 C 1005.05 -1.38263 -0.797213 0
M  V30 10586 C 1005.25 -0.445172 -1.96521 0
M  V30 10587 O 1004.3 0.10913 -2.52264 0
M  V30 10588 C 1005.61 -2.798 -1.10146 0
M  V30 10589 C 1007.16 -2.88774 -1.20742 0
M  V30 10590 C 1007.64 -4.31163 -1.54476 0
M  V30 10591 N 1009.13 -4.34152 -1.61451 0
M  V30 10592 C 1009.86 -5.4133 -1.89074 0
M  V30 10593 N 1009.36 -6.58705 -2.1466 0
M  V30 10594 N 1011.15 -5.28783 -1.90645 0
M  V30 10595 H 1003.3 -2.10172 0.30684 0
M  V30 10596 H 1005.57 -0.945046 0.0747862 0
M  V30 10597 H 1005.27 -3.50276 -0.316207 0
M  V30 10598 H 1005.15 -3.17559 -2.03559 0
M  V30 10599 H 1007.53 -2.18512 -1.98334 0
M  V30 10600 H 1007.61 -2.54547 -0.252904 0
M  V30 10601 H 1007.26 -5.01965 -0.774207 0
M  V30 10602 H 1007.19 -4.62883 -2.51092 0
M  V30 10603 H 1009.68 -3.49519 -1.43684 0
M  V30 10604 H 1009.99 -7.36192 -2.35035 0
M  V30 10605 H 1008.34 -6.61866 -2.12035 0
M  V30 10606 H 1011.53 -4.36078 -1.70158 0
M  V30 10607 H 1011.7 -6.12396 -2.11836 0
M  V30 10608 N 1005.11 0.71652 -1.4037 0
M  V30 10609 C 1006.34 1.50563 -1.4191 0
M  V30 10610 C 1006.75 1.88791 -0.0185456 0
M  V30 10611 O 1006.11 1.55378 0.957289 0
M  V30 10612 C 1006.16 2.78155 -2.30894 0
M  V30 10613 O 1005.88 2.41543 -3.65497 0
M  V30 10614 C 1007.38 3.72057 -2.41016 0
M  V30 10615 H 1004.6 0.464679 -0.48406 0
M  V30 10616 H 1007.15 0.883927 -1.8441 0
M  V30 10617 H 1005.3 3.36611 -1.91759 0
M  V30 10618 H 1005.71 3.23636 -4.12747 0
M  V30 10619 H 1007.19 4.58426 -3.07489 0
M  V30 10620 H 1007.67 4.15098 -1.43492 0
M  V30 10621 H 1008.27 3.19512 -2.80699 0
M  V30 10622 N 1006.59 1.25851 0.948643 0
M  V30 10623 C 1007.83 1.11119 1.69648 0
M  V30 10624 C 1008.17 -0.345995 1.91093 0
M  V30 10625 O 1007.44 -1.25467 1.48621 0
M  V30 10626 C 1007.72 1.87261 3.0758 0
M  V30 10627 C 1007.58 3.40842 2.93507 0
M  V30 10628 C 1008.9 1.6605 4.07573 0
M  V30 10629 H 1006.01 0.405052 0.615713 0
M  V30 10630 H 1008.66 1.54756 1.10229 0
M  V30 10631 H 1006.81 1.50172 3.58303 0
M  V30 10632 H 1008.48 3.87641 2.50064 0
M  V30 10633 H 1006.72 3.68248 2.29294 0
M  V30 10634 H 1007.39 3.89339 3.91305 0
M  V30 10635 H 1009.87 1.98348 3.65783 0
M  V30 10636 H 1008.74 2.21753 5.02113 0
M  V30 10637 H 1009.01 0.603256 4.37965 0
M  V30 10638 N 1008.06 -1.15214 1.07534 0
M  V30 10639 C 1009.29 -1.90463 0.820883 0
M  V30 10640 C 1009.71 -1.77578 -0.620305 0
M  V30 10641 O 1009.07 -1.10976 -1.43366 0
M  V30 10642 C 1009.12 -3.38746 1.23627 0
M  V30 10643 O 1008.22 -4.1062 0.382715 0
M  V30 10644 H 1007.57 -0.59292 0.298901 0
M  V30 10645 H 1010.1 -1.45893 1.43445 0
M  V30 10646 H 1010.11 -3.89543 1.21327 0
M  V30 10647 H 1008.78 -3.47443 2.28596 0
M  V30 10648 H 1007.36 -3.69947 0.468374 0
M  V30 10649 N 1009.54 -0.859717 -1.32086 0
M  V30 10650 C 1010.77 -0.479028 -2.0097 0
M  V30 10651 C 1011.18 0.930242 -1.64752 0
M  V30 10652 O 1010.52 1.6193 -0.867437 0
M  V30 10653 C 1010.59 -0.54431 -3.55355 0
M  V30 10654 C 1010.25 -1.91337 -4.15017 0
M  V30 10655 C 1011.25 -2.87951 -4.32874 0
M  V30 10656 C 1008.93 -2.21189 -4.50977 0
M  V30 10657 C 1010.93 -4.12567 -4.85867 0
M  V30 10658 C 1008.61 -3.46057 -5.03674 0
M  V30 10659 C 1009.61 -4.41562 -5.21068 0
M  V30 10660 O 1009.3 -5.64218 -5.72637 0
M  V30 10661 H 1009.03 -0.186161 -0.649861 0
M  V30 10662 H 1011.58 -1.15976 -1.69525 0
M  V30 10663 H 1009.81 0.1933 -3.86217 0
M  V30 10664 H 1011.5 -0.178506 -4.05507 0
M  V30 10665 H 1012.27 -2.66194 -4.05421 0
M  V30 10666 H 1008.15 -1.47635 -4.36721 0
M  V30 10667 H 1011.69 -4.8712 -4.99359 0
M  V30 10668 H 1007.59 -3.67662 -5.30561 0
M  V30 10669 H 1008.36 -5.66246 -5.91023 0
M  V30 10670 N 1011.02 1.44971 -0.618145 0
M  V30 10671 C 1012.25 2.06527 -0.124165 0
M  V30 10672 C 1012.66 1.46097 1.19588 0
M  V30 10673 O 1012.02 0.57901 1.73071 0
M  V30 10674 C 1012.07 3.61498 0.0106701 0
M  V30 10675 O 1011.79 4.19675 -1.25716 0
M  V30 10676 C 1013.29 4.40061 0.534872 0
M  V30 10677 H 1010.51 0.666941 -0.0736935 0
M  V30 10678 H 1013.06 1.8605 -0.848871 0
M  V30 10679 H 1011.21 3.81282 0.685752 0
M  V30 10680 H 1011.63 5.12972 -1.09362 0
M  V30 10681 H 1013.1 5.48963 0.57827 0
M  V30 10682 H 1013.58 4.10587 1.55931 0
M  V30 10683 H 1014.18 4.25167 -0.10652 0
M  V30 10684 N 1012.5 0.357919 1.53482 0
M  V30 10685 C 1013.45 -0.507364 2.26999 0
M  V30 10686 C 1014.44 -1.08987 1.29685 0
M  V30 10687 O 1015.65 -1.03396 1.47341 0
M  V30 10688 H 1012.02 -0.182326 0.729562 0
M  V30 10689 H 1013.99 0.134547 2.98097 0
M  V30 10690 C 1012.74 -1.63911 3.06641 0
M  V30 10691 H 1012.06 -1.20017 3.81361 0
M  V30 10692 H 1013.5 -2.21943 3.61272 0
M  V30 10693 C 1011.96 -2.57697 2.17011 0
M  V30 10694 O 1012.49 -3.60318 1.77578 0
M  V30 10695 N 1010.7 -2.2671 1.818 0
M  V30 10696 H 1010.25 -1.43296 2.14065 0
M  V30 10697 H 1010.2 -2.89716 1.22115 0
M  V30 10698 N 1013.98 -1.5736 0.0868897 0
M  V30 10699 C 1014.91 -2.16596 -0.872252 0
M  V30 10700 C 1015.89 -1.09706 -1.29995 0
M  V30 10701 O 1017.07 -1.37808 -1.36831 0
M  V30 10702 C 1014.2 -2.73972 -2.1344 0
M  V30 10703 C 1013.16 -3.86163 -1.8456 0
M  V30 10704 C 1012.48 -4.30206 -3.17533 0
M  V30 10705 C 1013.78 -5.0973 -1.13899 0
M  V30 10706 H 1015.48 -2.96995 -0.378738 0
M  V30 10707 H 1013.02 -1.42861 -0.18073 0
M  V30 10708 H 1014.98 -3.14062 -2.80968 0
M  V30 10709 H 1013.7 -1.90817 -2.6506 0
M  V30 10710 H 1012.36 -3.466 -1.19432 0
M  V30 10711 H 1012.01 -3.43951 -3.67024 0
M  V30 10712 H 1011.71 -5.05841 -2.98996 0
M  V30 10713 H 1013.23 -4.72922 -3.86234 0
M  V30 10714 H 1014.64 -5.4704 -1.71523 0
M  V30 10715 H 1013.04 -5.90741 -1.05569 0
M  V30 10716 H 1014.11 -4.8475 -0.120432 0
M  V30 10717 N 1015.45 0.186762 -1.56489 0
M  V30 10718 C 1016.4 1.23141 -1.95205 0
M  V30 10719 C 1017.37 1.44799 -0.81378 0
M  V30 10720 O 1018.56 1.57795 -1.07263 0
M  V30 10721 C 1015.7 2.56926 -2.30397 0
M  V30 10722 C 1014.81 2.42777 -3.57328 0
M  V30 10723 C 1013.94 3.69323 -3.81804 0
M  V30 10724 C 1012.98 3.50041 -5.02133 0
M  V30 10725 N 1012.12 4.68619 -5.2282 0
M  V30 10726 H 1016.96 0.894256 -2.84266 0
M  V30 10727 H 1014.5 0.430187 -1.40669 0
M  V30 10728 H 1016.46 3.3488 -2.4882 0
M  V30 10729 H 1015.09 2.88668 -1.44466 0
M  V30 10730 H 1014.14 1.56078 -3.46906 0
M  V30 10731 H 1015.45 2.24468 -4.45439 0
M  V30 10732 H 1014.6 4.55715 -4.00511 0
M  V30 10733 H 1013.34 3.90595 -2.92039 0
M  V30 10734 H 1012.35 2.62034 -4.8334 0
M  V30 10735 H 1013.57 3.30206 -5.93414 0
M  V30 10736 H 1011.52 4.90139 -4.36005 0
M  V30 10737 H 1011.44 4.53165 -6.05126 0
M  V30 10738 H 1012.7 5.56338 -5.45993 0
M  V30 10739 N 1016.93 1.50896 0.454776 0
M  V30 10740 C 1018.18 1.62699 1.20562 0
M  V30 10741 C 1018.51 0.334943 1.91594 0
M  V30 10742 O 1017.76 -0.680106 1.83502 0
M  V30 10743 C 1018.06 2.76839 2.26042 0
M  V30 10744 C 1017.73 4.16745 1.72147 0
M  V30 10745 C 1016.39 4.54809 1.5717 0
M  V30 10746 C 1018.74 5.04118 1.32341 0
M  V30 10747 C 1016.07 5.7797 1.00835 0
M  V30 10748 C 1018.42 6.27842 0.774419 0
M  V30 10749 C 1017.09 6.64694 0.611415 0
M  V30 10750 H 1016.36 0.595358 0.441169 0
M  V30 10751 H 1019 1.84879 0.499202 0
M  V30 10752 H 1017.31 2.48812 3.02655 0
M  V30 10753 H 1019 2.83173 2.83926 0
M  V30 10754 H 1015.59 3.86725 1.84775 0
M  V30 10755 H 1019.78 4.75331 1.42739 0
M  V30 10756 H 1015.03 6.05183 0.869669 0
M  V30 10757 H 1019.21 6.94896 0.457389 0
M  V30 10758 H 1016.84 7.60004 0.172751 0
M  V30 10759 N 1018.41 -0.709066 1.40748 0
M  V30 10760 C 1019.34 -1.83293 1.35937 0
M  V30 10761 C 1020.32 -1.60983 0.22871 0
M  V30 10762 O 1021.51 -1.8391 0.413435 0
M  V30 10763 C 1018.63 -3.19746 1.11714 0
M  V30 10764 C 1017.68 -3.60872 2.27319 0
M  V30 10765 S 1018.51 -3.67233 3.89743 0
M  V30 10766 C 1019.67 -5.06434 3.67797 0
M  V30 10767 H 1019.9 -1.87095 2.31047 0
M  V30 10768 H 1017.43 -0.876479 1.27111 0
M  V30 10769 H 1019.39 -3.98526 0.984245 0
M  V30 10770 H 1018.05 -3.1357 0.182472 0
M  V30 10771 H 1017.25 -4.59965 2.06029 0
M  V30 10772 H 1016.85 -2.89366 2.36946 0
M  V30 10773 H 1019.14 -5.93544 3.26668 0
M  V30 10774 H 1020.08 -5.32761 4.66445 0
M  V30 10775 H 1020.49 -4.77336 3.01348 0
M  V30 10776 N 1019.89 -1.26353 -0.941956 0
M  V30 10777 C 1020.85 -1.07904 -2.02211 0
M  V30 10778 C 1021.85 -0.0276283 -1.60776 0
M  V30 10779 O 1023.04 -0.270965 -1.7208 0
M  V30 10780 C 1020.17 -0.641084 -3.34818 0
M  V30 10781 H 1021.37 -2.03804 -2.20009 0
M  V30 10782 H 1018.92 -1.08939 -1.12081 0
M  V30 10783 H 1019.66 0.319943 -3.22718 0
M  V30 10784 H 1019.44 -1.40027 -3.66244 0
M  V30 10785 H 1020.93 -0.533826 -4.14174 0
M  V30 10786 N 1021.37 1.14642 -1.08144 0
M  V30 10787 C 1022.6 1.89484 -0.830864 0
M  V30 10788 C 1023.01 1.78443 0.616722 0
M  V30 10789 O 1022.37 1.14191 1.42361 0
M  V30 10790 C 1022.42 3.39554 -1.24039 0
M  V30 10791 O 1022.14 3.50286 -2.63119 0
M  V30 10792 C 1023.64 4.31399 -1.02029 0
M  V30 10793 H 1020.86 0.600283 -0.299835 0
M  V30 10794 H 1023.4 1.45204 -1.44001 0
M  V30 10795 H 1021.56 3.81467 -0.675407 0
M  V30 10796 H 1021.97 4.43481 -2.80045 0
M  V30 10797 H 1023.45 5.35079 -1.35625 0
M  V30 10798 H 1023.92 4.39179 0.0428697 0
M  V30 10799 H 1024.53 3.95238 -1.57057 0
M  V30 10800 N 1022.85 0.866709 1.31628 0
M  V30 10801 C 1023.78 0.277328 2.27516 0
M  V30 10802 C 1024.79 -0.557786 1.52946 0
M  V30 10803 O 1025.98 -0.38031 1.74402 0
M  V30 10804 C 1023.08 -0.625742 3.33073 0
M  V30 10805 C 1022.25 0.176204 4.37045 0
M  V30 10806 C 1021.31 -0.654497 5.22114 0
M  V30 10807 O 1020.34 -0.0836961 5.69138 0
M  V30 10808 N 1021.54 -1.96708 5.46156 0
M  V30 10809 H 1024.3 1.10133 2.78731 0
M  V30 10810 H 1021.87 0.72787 1.44616 0
M  V30 10811 H 1023.86 -1.18709 3.86898 0
M  V30 10812 H 1022.43 -1.35042 2.81926 0
M  V30 10813 H 1021.65 0.918999 3.83338 0
M  V30 10814 H 1022.94 0.726594 5.03585 0
M  V30 10815 H 1022.33 -2.454 5.09701 0
M  V30 10816 H 1020.89 -2.47629 6.02929 0
M  V30 10817 N 1024.32 -1.44642 0.625825 0
M  V30 10818 C 1025.57 -2.01308 0.125682 0
M  V30 10819 C 1025.89 -1.49773 -1.25807 0
M  V30 10820 O 1027.09 -1.98533 -1.85194 0
M  V30 10821 C 1025.55 -3.59479 0.17395 0
M  V30 10822 C 1025.16 -4.20011 1.55868 0
M  V30 10823 C 1026.9 -4.2364 -0.270005 0
M  V30 10824 C 1024.81 -5.7039 1.56235 0
M  V30 10825 H 1023.74 -0.75276 0.0432194 0
M  V30 10826 H 1026.39 -1.65916 0.783842 0
M  V30 10827 H 1024.77 -3.92145 -0.551212 0
M  V30 10828 H 1025.94 -3.98891 2.307 0
M  V30 10829 H 1024.26 -3.68116 1.94627 0
M  V30 10830 H 1026.86 -5.33931 -0.28672 0
M  V30 10831 H 1027.2 -3.95603 -1.29629 0
M  V30 10832 H 1027.73 -3.95759 0.402487 0
M  V30 10833 H 1024.47 -6.03154 2.56683 0
M  V30 10834 H 1023.99 -5.93648 0.856881 0
M  V30 10835 H 1025.67 -6.33929 1.29396 0
M  V30 10836 N 1025.8 -0.366053 -1.5329 0
M  V30 10837 C 1026.76 0.467904 -2.24373 0
M  V30 10838 C 1027.76 1.00934 -1.25176 0
M  V30 10839 O 1028.95 0.895015 -1.49449 0
M  V30 10840 C 1026.09 1.65405 -2.98084 0
M  V30 10841 H 1027.28 -0.154105 -2.99504 0
M  V30 10842 H 1024.83 -0.117751 -1.55856 0
M  V30 10843 H 1025.57 2.31413 -2.27197 0
M  V30 10844 H 1025.35 1.27277 -3.70868 0
M  V30 10845 H 1026.84 2.24503 -3.52119 0
M  V30 10846 N 1027.28 1.57312 -0.0952337 0
M  V30 10847 C 1028.5 1.99119 0.580206 0
M  V30 10848 C 1028.93 0.973955 1.60922 0
M  V30 10849 O 1028.29 -0.0575338 1.81209 0
M  V30 10850 C 1028.34 3.39893 1.20438 0
M  V30 10851 O 1027.44 3.40941 2.32019 0
M  V30 10852 H 1026.78 0.64748 0.147195 0
M  V30 10853 H 1029.31 2.03836 -0.176686 0
M  V30 10854 H 1029.32 3.7759 1.54564 0
M  V30 10855 H 1028 4.13453 0.450514 0
M  V30 10856 H 1026.57 3.1504 1.9951 0
M  V30 10857 N 1028.76 -0.17846 1.56586 0
M  V30 10858 C 1030.01 -0.894464 1.81228 0
M  V30 10859 C 1030.33 -1.83089 0.671062 0
M  V30 10860 O 1029.6 -1.93439 -0.309557 0
M  V30 10861 H 1028.18 -0.333288 0.668527 0
M  V30 10862 H 1030.84 -0.179986 1.94067 0
M  V30 10863 H 1029.93 -1.47565 2.75011 0
M  V30 10864 N 1030.24 -1.51135 -0.446768 0
M  V30 10865 C 1031.17 -1.66438 -1.56121 0
M  V30 10866 C 1032.15 -0.512061 -1.54327 0
M  V30 10867 O 1033.33 -0.734702 -1.73593 0
M  V30 10868 C 1030.46 -1.66932 -2.94706 0
M  V30 10869 C 1029.5 -2.88016 -3.14562 0
M  V30 10870 S 1030.34 -4.48973 -2.91863 0
M  V30 10871 C 1031.49 -4.52196 -4.32746 0
M  V30 10872 H 1031.73 -2.60702 -1.42904 0
M  V30 10873 H 1029.26 -1.40701 -0.635812 0
M  V30 10874 H 1031.22 -1.679 -3.74593 0
M  V30 10875 H 1029.88 -0.738607 -3.05292 0
M  V30 10876 H 1029.07 -2.84735 -4.15863 0
M  V30 10877 H 1028.67 -2.8474 -2.42485 0
M  V30 10878 H 1030.96 -4.27256 -5.25793 0
M  V30 10879 H 1031.91 -5.53957 -4.41064 0
M  V30 10880 H 1032.32 -3.81624 -4.15961 0
M  V30 10881 N 1031.71 0.701592 -1.41122 0
M  V30 10882 C 1032.66 1.81559 -1.42495 0
M  V30 10883 C 1033.63 1.63722 -0.280078 0
M  V30 10884 O 1034.82 1.84658 -0.480231 0
M  V30 10885 C 1031.96 3.19392 -1.30702 0
M  V30 10886 C 1031.07 3.48704 -2.55009 0
M  V30 10887 C 1030.2 4.76118 -2.35554 0
M  V30 10888 C 1029.24 4.98378 -3.55367 0
M  V30 10889 N 1028.38 6.17014 -3.3502 0
M  V30 10890 H 1033.22 1.7972 -2.37707 0
M  V30 10891 H 1030.76 0.877727 -1.18044 0
M  V30 10892 H 1032.71 3.99004 -1.21867 0
M  V30 10893 H 1031.34 3.20423 -0.391012 0
M  V30 10894 H 1030.4 2.63542 -2.74317 0
M  V30 10895 H 1031.71 3.61057 -3.44151 0
M  V30 10896 H 1030.86 5.63774 -2.24152 0
M  V30 10897 H 1029.6 4.66 -1.43859 0
M  V30 10898 H 1028.61 4.09172 -3.6723 0
M  V30 10899 H 1029.83 5.10359 -4.48007 0
M  V30 10900 H 1027.78 6.0812 -2.4602 0
M  V30 10901 H 1027.69 6.30107 -4.17733 0
M  V30 10902 H 1028.96 7.0742 -3.27379 0
M  V30 10903 N 1033.19 1.2685 0.935242 0
M  V30 10904 C 1034.42 1.15371 1.71386 0
M  V30 10905 C 1034.83 -0.293048 1.86917 0
M  V30 10906 O 1034.17 -1.212 1.38044 0
M  V30 10907 C 1034.23 1.75652 3.13666 0
M  V30 10908 C 1033.9 3.24788 3.215 0
M  V30 10909 C 1034.9 4.21525 3.04323 0
M  V30 10910 C 1032.58 3.65359 3.447 0
M  V30 10911 C 1034.57 5.56812 3.10224 0
M  V30 10912 C 1032.26 5.00778 3.50235 0
M  V30 10913 C 1033.26 5.96314 3.33014 0
M  V30 10914 O 1032.95 7.29266 3.38269 0
M  V30 10915 H 1032.68 0.40234 0.54323 0
M  V30 10916 H 1035.23 1.68083 1.18056 0
M  V30 10917 H 1033.46 1.17408 3.68446 0
M  V30 10918 H 1035.15 1.58994 3.73465 0
M  V30 10919 H 1035.92 3.91519 2.86249 0
M  V30 10920 H 1031.8 2.91479 3.57157 0
M  V30 10921 H 1035.34 6.3136 2.967 0
M  V30 10922 H 1031.24 5.30444 3.67831 0
M  V30 10923 H 1032.01 7.37616 3.54774 0
M  V30 10924 N 1034.67 -1.14067 1.0875 0
M  V30 10925 C 1035.6 -2.21385 0.74236 0
M  V30 10926 C 1036.58 -1.67833 -0.276805 0
M  V30 10927 O 1037.77 -1.93647 -0.1464 0
M  V30 10928 C 1034.9 -3.46956 0.154644 0
M  V30 10929 C 1033.85 -4.13555 1.10255 0
M  V30 10930 C 1033.18 -5.3337 0.376877 0
M  V30 10931 C 1034.48 -4.6169 2.44213 0
M  V30 10932 H 1036.17 -2.50512 1.63964 0
M  V30 10933 H 1033.72 -1.20408 0.789807 0
M  V30 10934 H 1035.67 -4.21284 -0.0988419 0
M  V30 10935 H 1034.39 -3.17203 -0.777789 0
M  V30 10936 H 1033.05 -3.41186 1.34119 0
M  V30 10937 H 1032.7 -4.99879 -0.559472 0
M  V30 10938 H 1032.4 -5.78875 1.00884 0
M  V30 10939 H 1033.92 -6.10458 0.131527 0
M  V30 10940 H 1035.34 -5.27475 2.24595 0
M  V30 10941 H 1033.74 -5.17909 3.03134 0
M  V30 10942 H 1034.81 -3.76574 3.05483 0
M  V30 10943 N 1036.15 -0.873678 -1.31166 0
M  V30 10944 C 1037.37 -0.500242 -2.01277 0
M  V30 10945 C 1037.8 0.900811 -1.65127 0
M  V30 10946 O 1037.16 1.59504 -0.861862 0
M  V30 10947 C 1037.2 -0.668976 -3.5434 0
M  V30 10948 O 1036.31 0.290096 -4.11378 0
M  V30 10949 H 1035.65 -0.198507 -0.633633 0
M  V30 10950 H 1038.18 -1.17811 -1.67277 0
M  V30 10951 H 1038.19 -0.563673 -4.04088 0
M  V30 10952 H 1036.86 -1.69055 -3.79991 0
M  V30 10953 H 1035.44 0.139437 -3.72639 0
M  V30 10954 N 1037.63 1.44308 -0.633487 0
M  V30 10955 C 1038.85 2.06897 -0.144347 0
M  V30 10956 C 1039.28 1.47045 1.173 0
M  V30 10957 O 1038.63 0.572806 1.72013 0
M  V30 10958 C 1038.68 3.60571 -0.0456324 0
M  V30 10959 O 1037.79 4.0015 0.997682 0
M  V30 10960 H 1037.13 0.658427 -0.0858499 0
M  V30 10961 H 1039.66 1.85142 -0.870833 0
M  V30 10962 H 1039.67 4.07745 0.144178 0
M  V30 10963 H 1038.34 4.03515 -1.0074 0
M  V30 10964 H 1036.92 3.64603 0.782252 0
M  V30 10965 N 1039.1 0.374177 1.53094 0
M  V30 10966 C 1040.03 -0.459976 2.28925 0
M  V30 10967 C 1041.02 -1.07656 1.31698 0
M  V30 10968 O 1042.2 -1.09219 1.60577 0
M  V30 10969 C 1039.33 -1.5954 3.08487 0
M  V30 10970 C 1038.28 -1.10563 4.13473 0
M  V30 10971 C 1037.61 -2.33196 4.81169 0
M  V30 10972 C 1038.91 -0.184275 5.21975 0
M  V30 10973 H 1040.6 0.172692 2.98902 0
M  V30 10974 H 1038.15 0.0844956 1.43752 0
M  V30 10975 H 1040.1 -2.18565 3.60288 0
M  V30 10976 H 1038.83 -2.25543 2.36216 0
M  V30 10977 H 1037.49 -0.53801 3.62631 0
M  V30 10978 H 1037.13 -2.97675 4.05461 0
M  V30 10979 H 1036.83 -2.01094 5.52119 0
M  V30 10980 H 1038.36 -2.92892 5.35767 0
M  V30 10981 H 1039.77 -0.682262 5.69226 0
M  V30 10982 H 1038.17 0.0462746 6.00082 0
M  V30 10983 H 1039.24 0.771152 4.78729 0
M  V30 10984 N 1040.58 -1.57259 0.103575 0
M  V30 10985 C 1041.53 -2.15727 -0.869739 0
M  V30 10986 C 1042.52 -1.10236 -1.28625 0
M  V30 10987 O 1043.73 -1.28567 -1.25979 0
M  V30 10988 H 1040.11 -0.690204 -0.298535 0
M  V30 10989 H 1042.08 -2.96317 -0.351984 0
M  V30 10990 C 1040.83 -2.75905 -2.11593 0
M  V30 10991 H 1040.15 -3.56768 -1.80434 0
M  V30 10992 H 1041.59 -3.20373 -2.77736 0
M  V30 10993 C 1040.05 -1.72218 -2.89556 0
M  V30 10994 O 1040.58 -1.16623 -3.84398 0
M  V30 10995 N 1038.78 -1.42514 -2.53255 0
M  V30 10996 H 1038.33 -1.87914 -1.76198 0
M  V30 10997 H 1038.29 -0.733782 -3.05717 0
M  V30 10998 N 1042.06 0.170153 -1.56679 0
M  V30 10999 C 1043.31 0.886592 -1.8206 0
M  V30 11000 C 1043.64 1.82194 -0.680839 0
M  V30 11001 O 1042.89 1.92866 0.331822 0
M  V30 11002 C 1043.19 1.71402 -3.13618 0
M  V30 11003 C 1042.86 0.927489 -4.41258 0
M  V30 11004 C 1041.52 0.710417 -4.75927 0
M  V30 11005 C 1043.87 0.375855 -5.19843 0
M  V30 11006 C 1041.2 -0.0693691 -5.86659 0
M  V30 11007 C 1043.55 -0.390849 -6.31391 0
M  V30 11008 C 1042.21 -0.61871 -6.64626 0
M  V30 11009 H 1041.48 0.324427 -0.666204 0
M  V30 11010 H 1044.13 0.151464 -1.909 0
M  V30 11011 H 1042.44 2.51858 -3.00125 0
M  V30 11012 H 1044.13 2.27141 -3.30466 0
M  V30 11013 H 1040.72 1.10672 -4.14065 0
M  V30 11014 H 1044.91 0.530897 -4.93452 0
M  V30 11015 H 1040.16 -0.255637 -6.10865 0
M  V30 11016 H 1044.34 -0.825544 -6.9149 0
M  V30 11017 H 1041.96 -1.22482 -7.50268 0
M  V30 11018 N 1043.54 1.5137 0.438746 0
M  V30 11019 C 1044.78 1.64211 1.19006 0
M  V30 11020 C 1045.12 0.356607 1.90898 0
M  V30 11021 O 1044.39 -0.643722 1.83539 0
M  V30 11022 C 1044.68 2.8445 2.20817 0
M  V30 11023 C 1044.53 4.22972 1.53018 0
M  V30 11024 C 1045.85 3.00207 3.21813 0
M  V30 11025 H 1042.97 0.597628 0.431288 0
M  V30 11026 H 1045.61 1.8385 0.479487 0
M  V30 11027 H 1043.76 2.67836 2.81418 0
M  V30 11028 H 1045.43 4.5125 0.957654 0
M  V30 11029 H 1043.67 4.25736 0.832556 0
M  V30 11030 H 1044.34 5.03094 2.27158 0
M  V30 11031 H 1046.82 3.15522 2.71266 0
M  V30 11032 H 1045.7 3.85904 3.90345 0
M  V30 11033 H 1045.96 2.12216 3.87836 0
M  V30 11034 N 1045.02 -0.694098 1.41492 0
M  V30 11035 C 1045.97 -1.80016 1.39923 0
M  V30 11036 C 1046.95 -1.58561 0.273377 0
M  V30 11037 O 1048.14 -1.69368 0.514157 0
M  V30 11038 C 1045.27 -3.18333 1.28526 0
M  V30 11039 C 1044.36 -3.45478 2.45979 0
M  V30 11040 N 1044.75 -3.43313 3.71443 0
M  V30 11041 C 1043.05 -3.76033 2.39824 0
M  V30 11042 C 1043.75 -3.69404 4.4935 0
M  V30 11043 N 1042.72 -3.89221 3.79484 0
M  V30 11044 H 1046.53 -1.76707 2.34844 0
M  V30 11045 H 1044.04 -0.894148 1.35568 0
M  V30 11046 H 1046.04 -3.97567 1.25484 0
M  V30 11047 H 1044.7 -3.22852 0.345904 0
M  V30 11048 H 1045.71 -3.2366 4.04308 0
M  V30 11049 H 1042.38 -3.87913 1.54368 0
M  V30 11050 H 1043.77 -3.73854 5.58285 0
M  V30 11051 N 1046.49 -1.27344 -0.928501 0
M  V30 11052 C 1047.91 -1.04732 -1.2043 0
M  V30 11053 C 1048.11 0.219623 -2.003 0
M  V30 11054 O 1047.17 0.925333 -2.34934 0
M  V30 11055 C 1048.48 -2.28625 -1.95323 0
M  V30 11056 C 1050.03 -2.33655 -2.08265 0
M  V30 11057 C 1050.5 -3.57275 -2.86563 0
M  V30 11058 N 1051.99 -3.57828 -2.94132 0
M  V30 11059 C 1052.73 -4.50152 -3.55177 0
M  V30 11060 N 1052.22 -5.52779 -4.17621 0
M  V30 11061 N 1054.02 -4.37777 -3.52573 0
M  V30 11062 H 1046.17 -2.08697 -0.394892 0
M  V30 11063 H 1048.43 -0.91782 -0.2373 0
M  V30 11064 H 1048.14 -3.20845 -1.44054 0
M  V30 11065 H 1048.01 -2.33878 -2.95941 0
M  V30 11066 H 1050.4 -1.41942 -2.58721 0
M  V30 11067 H 1050.48 -2.32406 -1.0687 0
M  V30 11068 H 1050.12 -4.49325 -2.3679 0
M  V30 11069 H 1050.05 -3.55775 -3.88242 0
M  V30 11070 H 1052.54 -2.83607 -2.49751 0
M  V30 11071 H 1052.86 -6.19394 -4.62137 0
M  V30 11072 H 1051.2 -5.56622 -4.16169 0
M  V30 11073 H 1054.39 -3.56811 -3.02991 0
M  V30 11074 H 1054.57 -5.09919 -3.99858 0
M  V30 11075 N 1047.97 1.13488 -1.09353 0
M  V30 11076 C 1049.25 1.80998 -0.741559 0
M  V30 11077 C 1049.63 1.96418 0.773505 0
M  V30 11078 O 1048.98 1.53168 1.69563 0
M  V30 11079 C 1049.19 3.16078 -1.47972 0
M  V30 11080 C 1050.54 3.91438 -1.64504 0
M  V30 11081 O 1051.56 3.25699 -1.44218 0
M  V30 11082 O 1050.42 5.0935 -1.98054 0
M  V30 11083 H 1047.51 0.782953 -0.266297 0
M  V30 11084 H 1050.06 1.20422 -1.19569 0
M  V30 11085 H 1048.83 3.00076 -2.51137 0
M  V30 11086 H 1048.45 3.84354 -1.01772 0
M  V30 11087 N 1049.45 0.880621 1.30701 0
M  V30 11088 C 1050.38 0.360251 2.30704 0
M  V30 11089 C 1051.36 -0.554572 1.60806 0
M  V30 11090 O 1052.55 -0.469345 1.88443 0
M  V30 11091 C 1049.68 -0.429888 3.44629 0
M  V30 11092 C 1048.63 0.392786 4.26194 0
M  V30 11093 C 1047.96 -0.52369 5.32129 0
M  V30 11094 C 1049.26 1.63258 4.96129 0
M  V30 11095 H 1050.95 1.19591 2.74478 0
M  V30 11096 H 1048.5 0.576508 1.31956 0
M  V30 11097 H 1050.45 -0.804532 4.13649 0
M  V30 11098 H 1049.17 -1.29916 2.99649 0
M  V30 11099 H 1047.83 0.749514 3.58856 0
M  V30 11100 H 1047.48 -1.39054 4.83397 0
M  V30 11101 H 1047.18 0.0229272 5.87596 0
M  V30 11102 H 1048.71 -0.894946 6.04006 0
M  V30 11103 H 1050.12 1.32877 5.57689 0
M  V30 11104 H 1048.52 2.11906 5.61441 0
M  V30 11105 H 1049.59 2.37944 4.22505 0
M  V30 11106 N 1050.93 -1.4397 0.641131 0
M  V30 11107 C 1051.89 -2.29149 -0.0482243 0
M  V30 11108 C 1052.89 -1.41572 -0.762495 0
M  V30 11109 O 1054.08 -1.63335 -0.605571 0
M  V30 11110 C 1051.21 -3.23375 -1.07896 0
M  V30 11111 H 1052.41 -2.9159 0.70109 0
M  V30 11112 H 1049.96 -1.51048 0.401754 0
M  V30 11113 H 1050.7 -2.65804 -1.85792 0
M  V30 11114 H 1050.48 -3.87926 -0.570597 0
M  V30 11115 H 1051.97 -3.87337 -1.56075 0
M  V30 11116 N 1052.41 -0.382291 -1.52893 0
M  V30 11117 C 1053.64 0.202408 -2.05908 0
M  V30 11118 C 1054.05 1.4109 -1.25456 0
M  V30 11119 O 1053.41 1.80027 -0.29942 0
M  V30 11120 C 1053.46 0.579452 -3.56826 0
M  V30 11121 O 1053.18 -0.58102 -4.3423 0
M  V30 11122 C 1054.68 1.22076 -4.2616 0
M  V30 11123 H 1051.9 0.0321859 -0.670228 0
M  V30 11124 H 1054.44 -0.545494 -1.9709 0
M  V30 11125 H 1052.6 1.27726 -3.65739 0
M  V30 11126 H 1053.01 -0.272693 -5.23791 0
M  V30 11127 H 1054.49 1.435 -5.33021 0
M  V30 11128 H 1054.96 2.18605 -3.80931 0
M  V30 11129 H 1055.57 0.563922 -4.21545 0
M  V30 11130 N 1053.89 1.57202 -0.111913 0
M  V30 11131 C 1055.3 1.57713 0.244702 0
M  V30 11132 C 1055.5 1.12419 1.67225 0
M  V30 11133 O 1054.56 0.808329 2.39212 0
M  V30 11134 C 1055.87 3.00695 0.0178289 0
M  V30 11135 C 1057.42 3.12887 0.0842781 0
M  V30 11136 C 1057.89 4.57856 -0.114812 0
M  V30 11137 N 1059.38 4.6316 -0.0605423 0
M  V30 11138 C 1060.12 5.73086 -0.189594 0
M  V30 11139 N 1059.62 6.91787 -0.37442 0
M  V30 11140 N 1061.41 5.6195 -0.12967 0
M  V30 11141 H 1053.56 1.84947 -1.04443 0
M  V30 11142 H 1055.82 0.854418 -0.4107 0
M  V30 11143 H 1055.53 3.38093 -0.968802 0
M  V30 11144 H 1055.4 3.69611 0.752815 0
M  V30 11145 H 1057.79 2.7535 1.06143 0
M  V30 11146 H 1057.87 2.46528 -0.682474 0
M  V30 11147 H 1057.51 4.9609 -1.0889 0
M  V30 11148 H 1057.44 5.22297 0.671839 0
M  V30 11149 H 1059.94 3.77817 0.0790856 0
M  V30 11150 H 1060.25 7.71406 -0.463948 0
M  V30 11151 H 1058.59 6.93788 -0.410303 0
M  V30 11152 H 1061.78 4.68098 0.0137115 0
M  V30 11153 H 1061.96 6.47578 -0.233688 0
M  V30 11154 N 1055.36 -0.161842 1.56767 0
M  V30 11155 C 1056.31 -1.21948 1.98069 0
M  V30 11156 C 1057.31 -1.45303 0.870835 0
M  V30 11157 O 1058.51 -1.45771 1.05598 0
M  V30 11158 H 1054.89 -0.410145 0.630306 0
M  V30 11159 H 1056.86 -0.844336 2.86205 0
M  V30 11160 C 1055.61 -2.549 2.36477 0
M  V30 11161 H 1054.93 -2.37755 3.21423 0
M  V30 11162 H 1056.37 -3.27568 2.69212 0
M  V30 11163 C 1054.83 -3.14353 1.21176 0
M  V30 11164 O 1055.36 -3.98519 0.504499 0
M  V30 11165 N 1053.56 -2.73582 0.979855 0
M  V30 11166 H 1053.11 -2.05239 1.55675 0
M  V30 11167 H 1053.07 -3.13696 0.21025 0
M  V30 11168 N 1056.84 -1.516 -0.430713 0
M  V30 11169 C 1058.08 -1.6626 -1.18899 0
M  V30 11170 C 1058.45 -0.373877 -1.88325 0
M  V30 11171 O 1059.65 -0.39632 -2.65862 0
M  V30 11172 C 1057.92 -2.83693 -2.17378 0
M  V30 11173 S 1059.48 -3.18717 -3.01604 0
M  V30 11174 H 1056.29 -0.585681 -0.403112 0
M  V30 11175 H 1058.9 -1.89528 -0.479538 0
M  V30 11176 H 1057.6 -3.75759 -1.65025 0
M  V30 11177 H 1057.13 -2.62634 -2.92894 0
M  V30 11178 H 1059.15 -2.65665 -4.1909 0
M  V30 11179 N 1058.32 0.686584 -1.41858 0
M  V30 11180 C 1059.25 1.81264 -1.47193 0
M  V30 11181 C 1060.23 1.66875 -0.329657 0
M  V30 11182 O 1061.42 1.86473 -0.542347 0
M  V30 11183 C 1058.55 3.19472 -1.36216 0
M  V30 11184 C 1057.5 3.4858 -2.48347 0
M  V30 11185 C 1056.83 4.86239 -2.22432 0
M  V30 11186 C 1058.13 3.46653 -3.90678 0
M  V30 11187 H 1059.82 1.77057 -2.41436 0
M  V30 11188 H 1057.37 0.850415 -1.16206 0
M  V30 11189 H 1059.32 3.97969 -1.38558 0
M  V30 11190 H 1058.04 3.24327 -0.384611 0
M  V30 11191 H 1056.7 2.72437 -2.45303 0
M  V30 11192 H 1056.35 4.8773 -1.22999 0
M  V30 11193 H 1056.05 5.06677 -2.97577 0
M  V30 11194 H 1057.57 5.67034 -2.26505 0
M  V30 11195 H 1058.99 4.15139 -3.95389 0
M  V30 11196 H 1057.38 3.78625 -4.65578 0
M  V30 11197 H 1058.45 2.45451 -4.18189 0
M  V30 11198 N 1059.8 1.27835 0.921735 0
M  V30 11199 C 1061.04 1.14692 1.67253 0
M  V30 11200 C 1061.38 -0.305384 1.91784 0
M  V30 11201 O 1060.65 -1.22286 1.51249 0
M  V30 11202 C 1060.93 1.93743 3.03539 0
M  V30 11203 C 1060.79 3.46991 2.86212 0
M  V30 11204 C 1062.11 1.74658 4.03959 0
M  V30 11205 H 1059.23 0.418021 0.606983 0
M  V30 11206 H 1061.87 1.5706 1.06922 0
M  V30 11207 H 1060.02 1.57738 3.55037 0
M  V30 11208 H 1061.69 3.92858 2.41785 0
M  V30 11209 H 1059.93 3.73029 2.21432 0
M  V30 11210 H 1060.6 3.97551 3.82958 0
M  V30 11211 H 1063.08 2.06063 3.61493 0
M  V30 11212 H 1061.96 2.32353 4.97296 0
M  V30 11213 H 1062.22 0.696019 4.36587 0
M  V30 11214 N 1061.28 -1.12907 1.09954 0
M  V30 11215 C 1062.52 -1.83941 0.837255 0
M  V30 11216 C 1062.84 -1.84234 -0.638984 0
M  V30 11217 O 1062.11 -1.30193 -1.46378 0
M  V30 11218 H 1060.69 -0.681115 0.306743 0
M  V30 11219 H 1063.36 -1.36743 1.38879 0
M  V30 11220 H 1062.45 -2.88289 1.19565 0
M  V30 11221 N 1062.75 -0.88754 -1.30232 0
M  V30 11222 C 1063.7 -0.354497 -2.28061 0
M  V30 11223 C 1064.67 0.556732 -1.56492 0
M  V30 11224 O 1065.86 0.484597 -1.84543 0
M  V30 11225 C 1063 0.422701 -3.42501 0
M  V30 11226 C 1062.11 -0.518036 -4.28883 0
M  V30 11227 C 1061.24 0.275011 -5.30488 0
M  V30 11228 C 1060.28 -0.661032 -6.0852 0
M  V30 11229 N 1059.42 0.0968509 -7.02033 0
M  V30 11230 H 1064.26 -1.19388 -2.73039 0
M  V30 11231 H 1061.8 -0.600091 -1.34303 0
M  V30 11232 H 1063.75 0.889249 -4.07613 0
M  V30 11233 H 1062.38 1.22664 -2.98586 0
M  V30 11234 H 1061.44 -1.10308 -3.64055 0
M  V30 11235 H 1062.75 -1.23504 -4.83268 0
M  V30 11236 H 1061.9 0.803301 -6.01358 0
M  V30 11237 H 1060.64 1.02522 -4.76802 0
M  V30 11238 H 1059.65 -1.20093 -5.36524 0
M  V30 11239 H 1060.87 -1.41037 -6.64293 0
M  V30 11240 H 1058.82 0.829548 -6.50734 0
M  V30 11241 H 1058.73 -0.560476 -7.5392 0
M  V30 11242 H 1060 0.6058 -7.77142 0
M  V30 11243 N 1064.23 1.43628 -0.648757 0
M  V30 11244 C 1065.18 2.32529 0.057536 0
M  V30 11245 C 1066.17 1.48358 0.817699 0
M  V30 11246 O 1067.38 1.64595 0.728605 0
M  V30 11247 H 1063.76 0.75107 0.037388 0
M  V30 11248 H 1065.73 2.89829 -0.710062 0
M  V30 11249 C 1064.48 3.32605 1.01336 0
M  V30 11250 H 1063.8 3.97395 0.437855 0
M  V30 11251 H 1065.24 3.97453 1.47672 0
M  V30 11252 C 1063.7 2.62865 2.10722 0
M  V30 11253 O 1064.23 2.4408 3.19042 0
M  V30 11254 N 1062.43 2.22312 1.87152 0
M  V30 11255 H 1061.98 2.3779 0.990644 0
M  V30 11256 H 1061.94 1.75979 2.60536 0
M  V30 11257 N 1065.71 0.390394 1.52688 0
M  V30 11258 C 1066.94 -0.191207 2.05713 0
M  V30 11259 C 1067.35 -1.40973 1.26188 0
M  V30 11260 O 1066.69 -1.81202 0.301938 0
M  V30 11261 C 1066.75 -0.624794 3.54029 0
M  V30 11262 C 1066.42 0.480413 4.54468 0
M  V30 11263 C 1067.41 1.33816 5.02384 0
M  V30 11264 C 1065.1 0.647754 4.98106 0
M  V30 11265 C 1067.09 2.34836 5.92563 0
M  V30 11266 C 1064.78 1.66129 5.88085 0
M  V30 11267 C 1065.78 2.51001 6.35206 0
M  V30 11268 O 1065.47 3.50622 7.23408 0
M  V30 11269 H 1065.2 -0.032221 0.675232 0
M  V30 11270 H 1067.75 0.554431 1.97776 0
M  V30 11271 H 1065.98 -1.42243 3.59589 0
M  V30 11272 H 1067.67 -1.13219 3.8979 0
M  V30 11273 H 1068.44 1.22019 4.694 0
M  V30 11274 H 1064.32 -0.00314511 4.61 0
M  V30 11275 H 1067.86 3.01117 6.29265 0
M  V30 11276 H 1063.76 1.77964 6.20483 0
M  V30 11277 H 1064.53 3.46644 7.41472 0
M  V30 11278 N 1067.19 -1.57141 0.120249 0
M  V30 11279 C 1068.42 -1.99589 -0.545136 0
M  V30 11280 C 1068.83 -0.999951 -1.60145 0
M  V30 11281 O 1068.19 0.00698897 -1.82499 0
M  V30 11282 C 1068.24 -3.42038 -1.17014 0
M  V30 11283 O 1067.96 -4.37822 -0.156044 0
M  V30 11284 C 1069.46 -3.99625 -1.91872 0
M  V30 11285 H 1066.68 -0.655318 -0.144222 0
M  V30 11286 H 1069.23 -2.0345 0.206955 0
M  V30 11287 H 1067.38 -3.39113 -1.873 0
M  V30 11288 H 1067.79 -5.20937 -0.610317 0
M  V30 11289 H 1069.27 -5.01374 -2.30928 0
M  V30 11290 H 1069.75 -3.38836 -2.7944 0
M  V30 11291 H 1070.35 -4.061 -1.26345 0
M  V30 11292 N 1068.67 0.153526 -1.5685 0
M  V30 11293 C 1069.92 0.865628 -1.82181 0
M  V30 11294 C 1070.23 1.82629 -0.700434 0
M  V30 11295 O 1071.43 2.58206 -0.839155 0
M  V30 11296 C 1069.89 1.58993 -3.22877 0
M  V30 11297 C 1069.5 0.672006 -4.42931 0
M  V30 11298 C 1071.24 2.2892 -3.57486 0
M  V30 11299 C 1069.15 1.39755 -5.7465 0
M  V30 11300 H 1068.08 0.326993 -0.679406 0
M  V30 11301 H 1070.73 0.118403 -1.83118 0
M  V30 11302 H 1069.11 2.38255 -3.16308 0
M  V30 11303 H 1070.29 -0.0849226 -4.60722 0
M  V30 11304 H 1068.6 0.0814825 -4.1632 0
M  V30 11305 H 1071.2 2.8383 -4.5315 0
M  V30 11306 H 1071.54 3.05105 -2.83226 0
M  V30 11307 H 1072.07 1.56583 -3.65686 0
M  V30 11308 H 1068.81 0.677686 -6.51987 0
M  V30 11309 H 1068.33 2.12736 -5.60806 0
M  V30 11310 H 1070.01 1.94024 -6.17223 0
M  V30 11311 N 1070.14 1.51827 0.422667 0
M  V30 11312 C 1071.09 1.74198 1.51406 0
M  V30 11313 C 1072.06 0.584013 1.55494 0
M  V30 11314 O 1073.25 0.820079 1.72277 0
M  V30 11315 C 1070.39 1.88627 2.88988 0
M  V30 11316 C 1069.5 3.16233 2.94314 0
M  V30 11317 C 1068.63 3.21172 4.2311 0
M  V30 11318 C 1067.67 4.43033 4.2236 0
M  V30 11319 N 1066.81 4.4544 5.42704 0
M  V30 11320 H 1071.65 2.67352 1.31632 0
M  V30 11321 H 1069.19 1.32487 0.63919 0
M  V30 11322 H 1071.15 1.94976 3.68837 0
M  V30 11323 H 1069.78 0.988673 3.07287 0
M  V30 11324 H 1068.83 3.19123 2.07039 0
M  V30 11325 H 1070.14 4.06104 2.89623 0
M  V30 11326 H 1069.29 3.26517 5.11343 0
M  V30 11327 H 1068.03 2.29216 4.30478 0
M  V30 11328 H 1067.04 4.37849 3.32518 0
M  V30 11329 H 1068.26 5.3627 4.16643 0
M  V30 11330 H 1066.21 3.56361 5.50766 0
M  V30 11331 H 1066.13 5.29138 5.39953 0
M  V30 11332 H 1067.39 4.54997 6.32928 0
M  V30 11333 N 1071.62 -0.679052 1.4222 0
M  V30 11334 C 1072.87 -1.43485 1.41757 0
M  V30 11335 C 1073.18 -1.95567 0.0358698 0
M  V30 11336 O 1074.39 -2.71346 -0.0913713 0
M  V30 11337 C 1072.85 -2.59541 2.49332 0
M  V30 11338 C 1072.45 -2.14176 3.93488 0
M  V30 11339 C 1074.2 -3.37078 2.58029 0
M  V30 11340 C 1072.11 -3.27289 4.92581 0
M  V30 11341 H 1071.04 -0.539022 0.52723 0
M  V30 11342 H 1073.69 -0.735581 1.68111 0
M  V30 11343 H 1072.07 -3.31815 2.16135 0
M  V30 11344 H 1073.24 -1.49082 4.36017 0
M  V30 11345 H 1071.56 -1.49589 3.88603 0
M  V30 11346 H 1074.15 -4.21312 3.29242 0
M  V30 11347 H 1074.5 -3.83383 1.62245 0
M  V30 11348 H 1075.03 -2.7187 2.90399 0
M  V30 11349 H 1071.77 -2.8598 5.89827 0
M  V30 11350 H 1071.29 -3.91178 4.54687 0
M  V30 11351 H 1072.97 -3.9282 5.14103 0
M  V30 11352 N 1073.1 -1.28322 -0.914942 0
M  V30 11353 C 1074.06 -1.12169 -1.99877 0
M  V30 11354 C 1075.06 -0.0617252 -1.60681 0
M  V30 11355 O 1076.25 -0.307405 -1.71466 0
M  V30 11356 C 1073.39 -0.711959 -3.33383 0
M  V30 11357 H 1074.58 -2.08425 -2.15636 0
M  V30 11358 H 1072.13 -1.11291 -1.09745 0
M  V30 11359 H 1072.87 0.251418 -3.23324 0
M  V30 11360 H 1072.65 -1.47764 -3.63192 0
M  V30 11361 H 1074.14 -0.621558 -4.12948 0
M  V30 11362 N 1074.58 1.12322 -1.10551 0
M  V30 11363 C 1075.86 1.80201 -0.760715 0
M  V30 11364 C 1076.24 1.97228 0.752628 0
M  V30 11365 O 1075.58 1.54958 1.67929 0
M  V30 11366 C 1075.79 3.14491 -1.51316 0
M  V30 11367 C 1077.14 3.89671 -1.68647 0
M  V30 11368 O 1078.17 3.24151 -1.47664 0
M  V30 11369 O 1077.02 5.0722 -2.03445 0
M  V30 11370 H 1074.12 0.780084 -0.274587 0
M  V30 11371 H 1076.66 1.19147 -1.20839 0
M  V30 11372 H 1075.44 2.97396 -2.54306 0
M  V30 11373 H 1075.06 3.83253 -1.05842 0
M  V30 11374 N 1076.06 0.894434 1.2976 0
M  V30 11375 C 1077.3 0.517669 1.95771 0
M  V30 11376 C 1077.63 -0.935028 1.70551 0
M  V30 11377 O 1076.89 -1.67722 1.00835 0
M  V30 11378 C 1077.19 0.750307 3.49435 0
M  V30 11379 C 1076.85 2.17955 3.94723 0
M  V30 11380 C 1075.51 2.57036 4.068 0
M  V30 11381 C 1077.87 3.11053 4.18205 0
M  V30 11382 C 1075.19 3.88406 4.39724 0
M  V30 11383 C 1077.55 4.41966 4.52602 0
M  V30 11384 C 1076.21 4.80927 4.62888 0
M  V30 11385 H 1075.48 0.189428 0.716378 0
M  V30 11386 H 1078.13 1.13209 1.54454 0
M  V30 11387 H 1076.43 0.0529242 3.91764 0
M  V30 11388 H 1078.13 0.438251 3.98598 0
M  V30 11389 H 1074.72 1.86622 3.85837 0
M  V30 11390 H 1078.9 2.82076 4.08347 0
M  V30 11391 H 1074.16 4.18321 4.4589 0
M  V30 11392 H 1078.33 5.14134 4.69722 0
M  V30 11393 H 1075.96 5.82759 4.88156 0
M  V30 11394 N 1077.53 -1.43282 0.656365 0
M  V30 11395 C 1078.78 -2.01378 0.170702 0
M  V30 11396 C 1079.1 -1.52063 -1.22073 0
M  V30 11397 O 1078.37 -0.73456 -1.81607 0
M  V30 11398 H 1076.95 -0.744577 0.0601168 0
M  V30 11399 H 1079.62 -1.75449 0.848739 0
M  V30 11400 H 1078.71 -3.11701 0.157745 0
M  V30 11401 N 1079.01 -0.398486 -1.52479 0
M  V30 11402 C 1079.95 0.476551 -2.23169 0
M  V30 11403 C 1080.92 1.05665 -1.23587 0
M  V30 11404 O 1082.11 1.10654 -1.52604 0
M  V30 11405 C 1079.24 1.66048 -2.95204 0
M  V30 11406 C 1078.28 1.20478 -4.0913 0
M  V30 11407 S 1079.11 0.178711 -5.35202 0
M  V30 11408 C 1080.27 1.36821 -6.10762 0
M  V30 11409 H 1080.5 -0.123704 -2.97043 0
M  V30 11410 H 1078.04 -0.182722 -1.53315 0
M  V30 11411 H 1079.99 2.33942 -3.37315 0
M  V30 11412 H 1078.66 2.23206 -2.20993 0
M  V30 11413 H 1077.85 2.08901 -4.58668 0
M  V30 11414 H 1077.45 0.604632 -3.6908 0
M  V30 11415 H 1079.74 2.2937 -6.37492 0
M  V30 11416 H 1080.69 0.913579 -7.02182 0
M  V30 11417 H 1081.09 1.58919 -5.41669 0
M  V30 11418 N 1080.49 1.57075 -0.12858 0
M  V30 11419 C 1081.72 2.00305 0.537839 0
M  V30 11420 C 1082.14 1.00787 1.58819 0
M  V30 11421 O 1081.5 -0.0190839 1.8129 0
M  V30 11422 C 1081.55 3.42371 1.13201 0
M  V30 11423 O 1080.65 3.45786 2.24735 0
M  V30 11424 H 1079.99 0.650456 0.133428 0
M  V30 11425 H 1082.52 2.03415 -0.219882 0
M  V30 11426 H 1082.53 3.80783 1.4652 0
M  V30 11427 H 1081.21 4.14315 0.362713 0
M  V30 11428 H 1079.78 3.19201 1.92783 0
M  V30 11429 N 1081.97 -0.145205 1.5693 0
M  V30 11430 C 1083.39 -0.497905 1.51635 0
M  V30 11431 C 1083.59 -1.8328 0.837301 0
M  V30 11432 O 1082.64 -2.49172 0.408584 0
M  V30 11433 C 1083.95 -0.506557 2.96403 0
M  V30 11434 C 1085.5 -0.591947 3.07352 0
M  V30 11435 C 1085.98 -0.631244 4.53629 0
M  V30 11436 N 1087.47 -0.693417 4.5798 0
M  V30 11437 C 1088.2 -0.744836 5.68542 0
M  V30 11438 N 1087.7 -0.755492 6.88668 0
M  V30 11439 N 1089.49 -0.785854 5.5658 0
M  V30 11440 H 1081.64 0.729779 1.99469 0
M  V30 11441 H 1083.91 0.266295 0.90983 0
M  V30 11442 H 1083.61 0.406127 3.49347 0
M  V30 11443 H 1083.49 -1.34383 3.5245 0
M  V30 11444 H 1085.87 -1.49505 2.54425 0
M  V30 11445 H 1085.95 0.272507 2.54344 0
M  V30 11446 H 1085.6 0.26771 5.07194 0
M  V30 11447 H 1085.53 -1.51221 5.0442 0
M  V30 11448 H 1088.02 -0.692408 3.71503 0
M  V30 11449 H 1088.33 -0.796624 7.68683 0
M  V30 11450 H 1086.68 -0.723339 6.91226 0
M  V30 11451 H 1089.87 -0.774712 4.61645 0
M  V30 11452 H 1090.04 -0.822461 6.42759 0
M  V30 11453 N 1083.45 -1.52049 -0.414609 0
M  V30 11454 C 1084.4 -1.75603 -1.52533 0
M  V30 11455 C 1085.39 -0.622965 -1.57529 0
M  V30 11456 O 1086.6 -0.804886 -1.61002 0
M  V30 11457 H 1082.97 -0.555222 -0.507181 0
M  V30 11458 H 1084.94 -2.68666 -1.2985 0
M  V30 11459 C 1083.69 -1.9188 -2.89961 0
M  V30 11460 H 1083.01 -2.78483 -2.86857 0
M  V30 11461 H 1084.45 -2.12363 -3.66985 0
M  V30 11462 C 1082.91 -0.684453 -3.29874 0
M  V30 11463 O 1083.44 0.150256 -4.01419 0
M  V30 11464 N 1081.65 -0.521936 -2.85874 0
M  V30 11465 H 1081.2 -1.20229 -2.27822 0
M  V30 11466 H 1081.15 0.302655 -3.1294 0
M  V30 11467 N 1084.93 0.6715 -1.42579 0
M  V30 11468 C 1085.86 1.79693 -1.49107 0
M  V30 11469 C 1086.84 1.66516 -0.347338 0
M  V30 11470 O 1088.02 1.85887 -0.562094 0
M  V30 11471 C 1085.15 3.1801 -1.39596 0
M  V30 11472 C 1084.11 3.45926 -2.5203 0
M  V30 11473 C 1083.43 4.83852 -2.27577 0
M  V30 11474 C 1084.73 3.4249 -3.94333 0
M  V30 11475 H 1086.43 1.74486 -2.433 0
M  V30 11476 H 1083.97 0.838042 -1.17102 0
M  V30 11477 H 1085.92 3.96478 -1.42771 0
M  V30 11478 H 1084.65 3.23901 -0.418989 0
M  V30 11479 H 1083.31 2.6982 -2.48178 0
M  V30 11480 H 1082.96 4.86398 -1.28165 0
M  V30 11481 H 1082.66 5.03493 -3.02934 0
M  V30 11482 H 1084.18 5.646 -2.32506 0
M  V30 11483 H 1085.59 4.10922 -3.9977 0
M  V30 11484 H 1083.99 3.73666 -4.69568 0
M  V30 11485 H 1085.06 2.41002 -4.20768 0
M  V30 11486 N 1086.4 1.28806 0.908124 0
M  V30 11487 C 1087.63 1.1898 1.689 0
M  V30 11488 C 1088.04 -0.253334 1.87496 0
M  V30 11489 O 1087.38 -1.18245 1.40584 0
M  V30 11490 C 1087.45 1.82266 3.0987 0
M  V30 11491 C 1087.11 3.31534 3.14538 0
M  V30 11492 C 1088.11 4.27886 2.95313 0
M  V30 11493 C 1085.79 3.72589 3.36872 0
M  V30 11494 C 1087.79 5.63267 2.98343 0
M  V30 11495 C 1085.47 5.08095 3.39534 0
M  V30 11496 C 1086.47 6.03244 3.2029 0
M  V30 11497 O 1086.16 7.36277 3.22724 0
M  V30 11498 H 1085.89 0.413772 0.534574 0
M  V30 11499 H 1088.45 1.7055 1.14464 0
M  V30 11500 H 1086.68 1.25197 3.65872 0
M  V30 11501 H 1088.36 1.6688 3.70008 0
M  V30 11502 H 1089.13 3.97502 2.77879 0
M  V30 11503 H 1085.01 2.98989 3.50894 0
M  V30 11504 H 1088.55 6.37511 2.83241 0
M  V30 11505 H 1084.45 5.38126 3.56497 0
M  V30 11506 H 1085.22 7.44976 3.39048 0
M  V30 11507 N 1087.88 -1.11734 1.11145 0
M  V30 11508 C 1089.11 -1.87755 0.881062 0
M  V30 11509 C 1089.53 -1.79461 -0.563496 0
M  V30 11510 O 1088.89 -1.15481 -1.39763 0
M  V30 11511 C 1088.94 -3.34641 1.34342 0
M  V30 11512 O 1088.04 -4.09195 0.513157 0
M  V30 11513 H 1087.38 -0.583111 0.317613 0
M  V30 11514 H 1089.91 -1.41256 1.48013 0
M  V30 11515 H 1089.92 -3.85486 1.33658 0
M  V30 11516 H 1088.6 -3.39994 2.39534 0
M  V30 11517 H 1087.17 -3.68269 0.585833 0
M  V30 11518 N 1089.36 -0.901303 -1.29284 0
M  V30 11519 C 1090.61 -0.527 -1.95108 0
M  V30 11520 C 1090.93 0.930065 -1.71391 0
M  V30 11521 O 1090.2 1.65601 -1.04658 0
M  V30 11522 H 1088.78 -0.191903 -0.721929 0
M  V30 11523 H 1091.44 -1.14795 -1.57506 0
M  V30 11524 H 1090.54 -0.710945 -3.03895 0
M  V30 11525 N 1090.84 1.42931 -0.663954 0
M  V30 11526 C 1092.11 1.95284 -0.111174 0
M  V30 11527 C 1092.49 1.60484 1.37142 0
M  V30 11528 O 1091.84 0.895425 2.10225 0
M  V30 11529 C 1092.05 3.47046 -0.368789 0
M  V30 11530 C 1093.4 4.23679 -0.279473 0
M  V30 11531 O 1094.42 3.54918 -0.301937 0
M  V30 11532 O 1093.28 5.46087 -0.21236 0
M  V30 11533 H 1090.38 0.826993 0.00341718 0
M  V30 11534 H 1092.92 1.52816 -0.737935 0
M  V30 11535 H 1091.7 3.65541 -1.39626 0
M  V30 11536 H 1091.32 3.96537 0.290514 0
M  V30 11537 N 1092.32 0.406567 1.52266 0
M  V30 11538 C 1093.55 -0.169378 2.05905 0
M  V30 11539 C 1093.95 -1.39626 1.27676 0
M  V30 11540 O 1093.3 -1.80871 0.32114 0
M  V30 11541 C 1093.36 -0.587209 3.54672 0
M  V30 11542 C 1093.02 0.528588 4.53933 0
M  V30 11543 C 1094.02 1.39137 5.00936 0
M  V30 11544 C 1091.7 0.700549 4.97391 0
M  V30 11545 C 1093.7 2.41108 5.90039 0
M  V30 11546 C 1091.39 1.72357 5.8629 0
M  V30 11547 C 1092.38 2.57725 6.32509 0
M  V30 11548 O 1092.07 3.58275 7.19649 0
M  V30 11549 H 1091.8 -0.0250574 0.675535 0
M  V30 11550 H 1094.36 0.575377 1.97177 0
M  V30 11551 H 1092.59 -1.38421 3.61077 0
M  V30 11552 H 1094.28 -1.09078 3.90969 0
M  V30 11553 H 1095.04 1.26991 4.68079 0
M  V30 11554 H 1090.92 0.0457503 4.60977 0
M  V30 11555 H 1094.47 3.07774 6.26036 0
M  V30 11556 H 1090.36 1.84535 6.1856 0
M  V30 11557 H 1091.13 3.54489 7.37753 0
M  V30 11558 N 1093.79 -1.57004 0.136909 0
M  V30 11559 C 1095.02 -1.99866 -0.523177 0
M  V30 11560 C 1095.43 -1.01584 -1.59616 0
M  V30 11561 O 1094.78 -0.00326426 -1.837 0
M  V30 11562 C 1094.84 -3.39157 -1.19217 0
M  V30 11563 C 1094.5 -4.56231 -0.265 0
M  V30 11564 C 1095.5 -5.17457 0.503412 0
M  V30 11565 C 1093.18 -5.02009 -0.170846 0
M  V30 11566 C 1095.18 -6.22863 1.35353 0
M  V30 11567 C 1092.86 -6.07273 0.682884 0
M  V30 11568 C 1093.86 -6.67568 1.44369 0
M  V30 11569 O 1093.55 -7.70795 2.28321 0
M  V30 11570 H 1093.28 -0.661005 -0.141593 0
M  V30 11571 H 1095.84 -2.04159 0.225445 0
M  V30 11572 H 1094.07 -3.31672 -1.98823 0
M  V30 11573 H 1095.76 -3.66191 -1.75096 0
M  V30 11574 H 1096.52 -4.82994 0.440648 0
M  V30 11575 H 1092.4 -4.54813 -0.752744 0
M  V30 11576 H 1095.94 -6.69855 1.94783 0
M  V30 11577 H 1091.84 -6.41163 0.746978 0
M  V30 11578 H 1092.61 -7.87971 2.21458 0
M  V30 11579 N 1095.27 0.136881 -1.57004 0
M  V30 11580 C 1096.69 0.489856 -1.51897 0
M  V30 11581 C 1096.89 1.82833 -0.847009 0
M  V30 11582 O 1095.94 2.48952 -0.421792 0
M  V30 11583 C 1097.26 0.490831 -2.96667 0
M  V30 11584 C 1098.81 0.575639 -3.07661 0
M  V30 11585 C 1099.28 0.607178 -4.53957 0
M  V30 11586 N 1100.77 0.66912 -4.58342 0
M  V30 11587 C 1101.51 0.714675 -5.68929 0
M  V30 11588 N 1101 0.718959 -6.89059 0
M  V30 11589 N 1102.8 0.756326 -5.56988 0
M  V30 11590 H 1094.95 -0.740347 -1.99079 0
M  V30 11591 H 1097.21 -0.271116 -0.908405 0
M  V30 11592 H 1096.92 -0.424648 -3.49127 0
M  V30 11593 H 1096.79 1.32512 -3.53158 0
M  V30 11594 H 1099.18 1.48154 -2.55215 0
M  V30 11595 H 1099.26 -0.285991 -2.54196 0
M  V30 11596 H 1098.9 -0.294604 -5.07045 0
M  V30 11597 H 1098.83 1.48544 -5.05215 0
M  V30 11598 H 1101.32 0.672697 -3.71864 0
M  V30 11599 H 1101.64 0.755848 -7.69095 0
M  V30 11600 H 1099.98 0.686671 -6.91599 0
M  V30 11601 H 1103.17 0.750219 -4.62049 0
M  V30 11602 H 1103.34 0.788363 -6.43186 0
M  V30 11603 N 1096.75 1.52266 0.40654 0
M  V30 11604 C 1098 1.6568 1.15035 0
M  V30 11605 C 1098.31 0.394135 1.91588 0
M  V30 11606 O 1099.52 0.408113 2.68415 0
M  V30 11607 C 1097.97 2.92725 2.0938 0
M  V30 11608 C 1097.58 4.26108 1.38332 0
M  V30 11609 C 1099.33 3.15502 2.84004 0
M  V30 11610 C 1097.23 5.44275 2.3134 0
M  V30 11611 H 1096.16 0.61719 0.43312 0
M  V30 11612 H 1098.81 1.78755 0.414598 0
M  V30 11613 H 1097.2 2.73355 2.86519 0
M  V30 11614 H 1098.37 4.55971 0.665396 0
M  V30 11615 H 1096.69 4.09454 0.757384 0
M  V30 11616 H 1099.28 4.00964 3.5374 0
M  V30 11617 H 1099.63 2.29842 3.471 0
M  V30 11618 H 1100.16 3.35357 2.13964 0
M  V30 11619 H 1096.9 6.3229 1.72887 0
M  V30 11620 H 1096.42 5.18749 3.01098 0
M  V30 11621 H 1098.1 5.77457 2.91809 0
M  V30 11622 N 1098.23 -0.663929 1.42933 0
M  V30 11623 C 1099.16 -1.78946 1.43217 0
M  V30 11624 C 1100.17 -1.59426 0.329727 0
M  V30 11625 O 1101.36 -1.68344 0.5935 0
M  V30 11626 C 1098.46 -3.16217 1.21902 0
M  V30 11627 C 1097.64 -3.6249 2.44785 0
M  V30 11628 C 1096.69 -4.78529 2.18853 0
M  V30 11629 O 1095.72 -4.88516 2.92131 0
M  V30 11630 N 1096.92 -5.67994 1.19845 0
M  V30 11631 H 1099.69 -1.79184 2.40236 0
M  V30 11632 H 1097.25 -0.847404 1.37952 0
M  V30 11633 H 1099.24 -3.91517 1.02454 0
M  V30 11634 H 1097.81 -3.10814 0.333676 0
M  V30 11635 H 1097.03 -2.77751 2.79729 0
M  V30 11636 H 1098.32 -3.90151 3.26588 0
M  V30 11637 H 1097.72 -5.62588 0.59259 0
M  V30 11638 H 1096.27 -6.4306 1.06382 0
M  V30 11639 N 1099.71 -1.29285 -0.901281 0
M  V30 11640 C 1100.95 -1.16934 -1.64836 0
M  V30 11641 C 1101.28 0.279826 -1.92982 0
M  V30 11642 O 1100.55 1.19179 -1.55478 0
M  V30 11643 H 1099.13 -0.429768 -0.61099 0
M  V30 11644 H 1101.79 -1.62189 -1.08077 0
M  V30 11645 H 1100.88 -1.71821 -2.60545 0
M  V30 11646 N 1101.18 1.11143 -1.11736 0
M  V30 11647 C 1102.6 1.34962 -0.851905 0
M  V30 11648 C 1102.8 1.94627 0.521797 0
M  V30 11649 O 1101.86 2.18121 1.27198 0
M  V30 11650 C 1103.17 2.27832 -1.96248 0
M  V30 11651 C 1104.72 2.41388 -1.9925 0
M  V30 11652 C 1105.19 3.37582 -3.09519 0
M  V30 11653 N 1106.68 3.45147 -3.08914 0
M  V30 11654 C 1107.42 4.19527 -3.90876 0
M  V30 11655 N 1106.91 4.96858 -4.82809 0
M  V30 11656 N 1108.71 4.15071 -3.79042 0
M  V30 11657 H 1100.86 0.707801 -2.0026 0
M  V30 11658 H 1103.12 0.374172 -0.871033 0
M  V30 11659 H 1102.83 1.91189 -2.95194 0
M  V30 11660 H 1102.7 3.28078 -1.86132 0
M  V30 11661 H 1105.09 2.77304 -1.00928 0
M  V30 11662 H 1105.17 1.40983 -2.13442 0
M  V30 11663 H 1104.81 3.02393 -4.0807 0
M  V30 11664 H 1104.74 4.37849 -2.92568 0
M  V30 11665 H 1107.23 2.89991 -2.42309 0
M  V30 11666 H 1107.55 5.5099 -5.41876 0
M  V30 11667 H 1105.89 4.96008 -4.86828 0
M  V30 11668 H 1109.08 3.53748 -3.06562 0
M  V30 11669 H 1109.26 4.72781 -4.4315 0
M  V30 11670 N 1102.66 0.908147 1.28804 0
M  V30 11671 C 1103.63 0.397058 2.25735 0
M  V30 11672 C 1104.63 -0.473483 1.53671 0
M  V30 11673 O 1105.82 -0.277335 1.71978 0
M  V30 11674 C 1102.95 -0.431392 3.38159 0
M  V30 11675 H 1104.14 1.25323 2.72459 0
M  V30 11676 H 1101.69 0.687041 1.4039 0
M  V30 11677 H 1102.43 -1.3072 2.96787 0
M  V30 11678 H 1102.21 0.192502 3.91627 0
M  V30 11679 H 1103.7 -0.78 4.10251 0
M  V30 11680 N 1104.14 -1.42577 0.671525 0
M  V30 11681 C 1105.39 -2.01882 0.192716 0
M  V30 11682 C 1105.72 -1.52959 -1.19654 0
M  V30 11683 O 1104.99 -0.730404 -1.80265 0
M  V30 11684 C 1105.28 -3.59404 0.223734 0
M  V30 11685 C 1105.13 -4.18514 1.64821 0
M  V30 11686 C 1106.45 -4.37996 -0.429858 0
M  V30 11687 H 1103.57 -0.733523 0.0715026 0
M  V30 11688 H 1106.21 -1.69641 0.855689 0
M  V30 11689 H 1104.36 -3.87003 -0.340776 0
M  V30 11690 H 1106.03 -4.01881 2.26472 0
M  V30 11691 H 1104.28 -3.74467 2.1899 0
M  V30 11692 H 1104.95 -5.27643 1.62162 0
M  V30 11693 H 1107.42 -4.16069 0.0506433 0
M  V30 11694 H 1106.3 -5.476 -0.377503 0
M  V30 11695 H 1106.56 -4.15625 -1.50693 0
M  V30 11696 N 1105.62 -0.414636 -1.52048 0
M  V30 11697 C 1106.55 0.399119 -2.30064 0
M  V30 11698 C 1107.53 1.04126 -1.34506 0
M  V30 11699 O 1108.71 1.04923 -1.63416 0
M  V30 11700 C 1105.84 1.51305 -3.12608 0
M  V30 11701 C 1104.8 0.995621 -4.16259 0
M  V30 11702 C 1104.12 2.20357 -4.87183 0
M  V30 11703 C 1105.42 0.0458178 -5.2228 0
M  V30 11704 H 1107.12 -0.251879 -2.98339 0
M  V30 11705 H 1104.66 -0.122579 -1.43477 0
M  V30 11706 H 1106.62 2.08936 -3.65956 0
M  V30 11707 H 1105.34 2.19201 -2.42113 0
M  V30 11708 H 1104 0.441676 -3.6393 0
M  V30 11709 H 1103.65 2.8682 -4.13211 0
M  V30 11710 H 1103.35 1.86385 -5.57256 0
M  V30 11711 H 1104.87 2.78584 -5.43345 0
M  V30 11712 H 1106.29 0.531102 -5.70835 0
M  V30 11713 H 1104.68 -0.20536 -5.99749 0
M  V30 11714 H 1105.75 -0.897807 -4.76516 0
M  V30 11715 N 1107.1 1.56929 -0.145233 0
M  V30 11716 C 1108.51 1.82877 0.375884 0
M  V30 11717 C 1108.86 1.06384 1.64854 0
M  V30 11718 O 1107.98 0.30857 2.14189 0
M  V30 11719 C 1108.58 3.31725 0.688744 0
M  V30 11720 C 1107.14 3.58261 1.15439 0
M  V30 11721 C 1106.28 2.76737 0.176565 0
M  V30 11722 H 1109.24 1.54328 -0.36996 0
M  V30 11723 H 1109.26 3.47784 1.54359 0
M  V30 11724 H 1108.77 3.87371 -0.237694 0
M  V30 11725 H 1106.87 3.08 2.09683 0
M  V30 11726 H 1106.98 4.66732 1.08158 0
M  V30 11727 H 1105.35 2.45761 0.668843 0
M  V30 11728 H 1106.13 3.35154 -0.743432 0
M  V30 11729 N 1108.58 -0.128553 1.57075 0
M  V30 11730 C 1109.82 -0.836536 1.83535 0
M  V30 11731 C 1110.14 -1.81491 0.7294 0
M  V30 11732 O 1111.34 -2.56838 0.880128 0
M  V30 11733 C 1109.8 -1.53836 3.25365 0
M  V30 11734 C 1109.41 -0.601454 4.43944 0
M  V30 11735 C 1111.15 -2.23204 3.61082 0
M  V30 11736 C 1109.06 -1.30596 5.768 0
M  V30 11737 H 1107.99 -0.316142 0.684522 0
M  V30 11738 H 1110.64 -0.0892555 1.83283 0
M  V30 11739 H 1109.02 -2.33192 3.20058 0
M  V30 11740 H 1110.2 0.158209 4.60528 0
M  V30 11741 H 1108.51 -0.0152393 4.16397 0
M  V30 11742 H 1111.11 -2.76585 4.57608 0
M  V30 11743 H 1111.45 -3.0056 2.88044 0
M  V30 11744 H 1111.98 -1.50746 3.68131 0
M  V30 11745 H 1108.72 -0.573874 6.52983 0
M  V30 11746 H 1108.24 -2.03787 5.6412 0
M  V30 11747 H 1109.92 -1.8418 6.20231 0
M  V30 11748 N 1110.05 -1.5248 -0.398459 0
M  V30 11749 C 1111.47 -1.4152 -0.737854 0
M  V30 11750 C 1111.67 -0.528122 -1.94456 0
M  V30 11751 O 1110.73 0.00203799 -2.525 0
M  V30 11752 C 1112.04 -2.8422 -0.9818 0
M  V30 11753 C 1113.59 -2.93635 -1.08386 0
M  V30 11754 C 1114.06 -4.37327 -1.3605 0
M  V30 11755 N 1115.55 -4.40609 -1.42892 0
M  V30 11756 C 1116.29 -5.48863 -1.65944 0
M  V30 11757 N 1115.78 -6.67217 -1.86529 0
M  V30 11758 N 1117.58 -5.36393 -1.68046 0
M  V30 11759 H 1109.73 -2.08681 0.395705 0
M  V30 11760 H 1111.99 -0.941023 0.114801 0
M  V30 11761 H 1111.7 -3.51302 -0.167358 0
M  V30 11762 H 1111.57 -3.25907 -1.89907 0
M  V30 11763 H 1113.96 -2.26728 -1.88888 0
M  V30 11764 H 1114.04 -2.5539 -0.144714 0
M  V30 11765 H 1113.68 -5.04797 -0.56061 0
M  V30 11766 H 1113.61 -4.73116 -2.31233 0
M  V30 11767 H 1116.1 -3.55298 -1.2873 0
M  V30 11768 H 1116.42 -7.45498 -2.03599 0
M  V30 11769 H 1114.76 -6.70263 -1.83773 0
M  V30 11770 H 1117.95 -4.42903 -1.51509 0
M  V30 11771 H 1118.13 -6.2083 -1.85672 0
M  V30 11772 N 1111.53 0.65634 -1.43283 0
M  V30 11773 C 1112.78 1.41674 -1.45946 0
M  V30 11774 C 1113.13 1.92228 -0.0812633 0
M  V30 11775 O 1112.43 1.69167 0.899607 0
M  V30 11776 C 1112.62 2.61688 -2.43421 0
M  V30 11777 C 1112.45 2.2288 -3.90583 0
M  V30 11778 C 1111.22 2.11355 -4.58974 0
M  V30 11779 C 1113.42 1.83361 -4.80503 0
M  V30 11780 N 1111.4 1.65844 -5.91074 0
M  V30 11781 C 1112.77 1.48909 -6.01852 0
M  V30 11782 C 1114.82 1.70517 -4.67791 0
M  V30 11783 C 1113.53 1.02899 -7.11902 0
M  V30 11784 C 1115.55 1.25912 -5.77841 0
M  V30 11785 C 1114.92 0.923948 -6.98314 0
M  V30 11786 H 1111.01 0.514195 -0.589175 0
M  V30 11787 H 1113.6 0.755591 -1.79441 0
M  V30 11788 H 1111.77 3.25466 -2.11958 0
M  V30 11789 H 1113.5 3.28374 -2.36542 0
M  V30 11790 H 1110.26 2.31014 -4.13436 0
M  V30 11791 H 1110.68 1.45459 -6.61189 0
M  V30 11792 H 1115.32 1.9507 -3.7511 0
M  V30 11793 H 1113.04 0.770942 -8.04414 0
M  V30 11794 H 1116.63 1.16468 -5.70023 0
M  V30 11795 H 1115.51 0.584057 -7.82022 0
M  V30 11796 N 1113.01 1.29761 0.894412 0
M  V30 11797 C 1113.94 1.09666 2.00121 0
M  V30 11798 C 1114.92 0.00700077 1.62598 0
M  V30 11799 O 1116.1 0.158728 1.87831 0
M  V30 11800 C 1113.23 0.670588 3.31995 0
M  V30 11801 C 1112.28 1.75974 3.88504 0
M  V30 11802 S 1113.11 3.36013 4.1696 0
M  V30 11803 C 1114.27 2.95285 5.51867 0
M  V30 11804 H 1114.5 2.03369 2.1686 0
M  V30 11805 H 1112.03 1.13968 1.04166 0
M  V30 11806 H 1113.99 0.431481 4.08226 0
M  V30 11807 H 1112.65 -0.246924 3.13128 0
M  V30 11808 H 1111.84 1.41367 4.83768 0
M  V30 11809 H 1111.45 1.95264 3.1898 0
M  V30 11810 H 1113.74 2.42659 6.32553 0
M  V30 11811 H 1114.68 3.8942 5.91403 0
M  V30 11812 H 1115.09 2.33426 5.13977 0
M  V30 11813 N 1114.49 -1.10549 1.12324 0
M  V30 11814 C 1115.71 -1.8681 0.900927 0
M  V30 11815 C 1116.14 -1.80049 -0.54443 0
M  V30 11816 O 1115.5 -1.16957 -1.38531 0
M  V30 11817 C 1115.54 -3.33197 1.37883 0
M  V30 11818 O 1114.65 -4.08628 0.556529 0
M  V30 11819 H 1113.99 -0.579709 0.32378 0
M  V30 11820 H 1116.52 -1.39678 1.49503 0
M  V30 11821 H 1116.53 -3.84047 1.37739 0
M  V30 11822 H 1115.2 -3.37435 2.43127 0
M  V30 11823 H 1113.78 -3.67627 0.62486 0
M  V30 11824 N 1115.97 -0.914965 -1.28321 0
M  V30 11825 C 1117.21 -0.559015 -1.95567 0
M  V30 11826 C 1117.57 0.887749 -1.70695 0
M  V30 11827 O 1116.86 1.62312 -1.0181 0
M  V30 11828 C 1117.05 -0.805805 -3.48198 0
M  V30 11829 C 1116.88 -2.27501 -3.87909 0
M  V30 11830 C 1115.65 -2.92534 -4.12009 0
M  V30 11831 C 1117.85 -3.25152 -3.98473 0
M  V30 11832 N 1115.83 -4.29739 -4.38403 0
M  V30 11833 C 1117.2 -4.47524 -4.29095 0
M  V30 11834 C 1119.26 -3.20534 -3.81001 0
M  V30 11835 C 1117.96 -5.65861 -4.44065 0
M  V30 11836 C 1119.99 -4.38172 -3.97189 0
M  V30 11837 C 1119.35 -5.59318 -4.28185 0
M  V30 11838 H 1115.45 -0.254451 -0.739445 0
M  V30 11839 H 1118.03 -1.17895 -1.54948 0
M  V30 11840 H 1116.2 -0.215134 -3.87804 0
M  V30 11841 H 1117.94 -0.413762 -4.02579 0
M  V30 11842 H 1114.69 -2.43258 -4.06352 0
M  V30 11843 H 1115.11 -5.00683 -4.55681 0
M  V30 11844 H 1119.76 -2.27949 -3.56088 0
M  V30 11845 H 1117.47 -6.58924 -4.67809 0
M  V30 11846 H 1121.06 -4.36102 -3.85105 0
M  V30 11847 H 1119.94 -6.48828 -4.40446 0
M  V30 11848 N 1117.44 1.42219 -0.679077 0
M  V30 11849 C 1118.35 2.346 -0.00345919 0
M  V30 11850 C 1119.37 1.55327 0.784181 0
M  V30 11851 O 1120.55 1.87878 0.725524 0
M  V30 11852 C 1117.61 3.33905 0.933194 0
M  V30 11853 C 1116.67 4.29073 0.139607 0
M  V30 11854 C 1115.9 5.23634 1.03165 0
M  V30 11855 O 1116.13 5.23234 2.27119 0
M  V30 11856 O 1115.06 5.99901 0.490159 0
M  V30 11857 H 1118.89 2.9392 -0.764525 0
M  V30 11858 H 1116.47 1.42794 -0.439329 0
M  V30 11859 H 1118.35 3.949 1.47077 0
M  V30 11860 H 1117.03 2.77052 1.67404 0
M  V30 11861 H 1115.94 3.71478 -0.442177 0
M  V30 11862 H 1117.27 4.88979 -0.562214 0
M  V30 11863 N 1118.92 0.422693 1.51826 0
M  V30 11864 C 1120.15 -0.15017 2.06856 0
M  V30 11865 C 1120.57 -1.36946 1.28948 0
M  V30 11866 O 1119.93 -1.78393 0.32338 0
M  V30 11867 C 1119.98 -0.465563 3.57582 0
M  V30 11868 O 1119.08 -1.55442 3.81984 0
M  V30 11869 H 1118.42 -0.00827931 0.663948 0
M  V30 11870 H 1120.95 0.599806 1.95611 0
M  V30 11871 H 1120.96 -0.720279 4.01592 0
M  V30 11872 H 1119.64 0.425679 4.13716 0
M  V30 11873 H 1118.21 -1.29081 3.49846 0
M  V30 11874 N 1120.4 -1.5685 0.153553 0
M  V30 11875 C 1121.65 -1.95509 -0.495911 0
M  V30 11876 C 1121.96 -1.04129 -1.65579 0
M  V30 11877 O 1123.17 -1.32394 -2.37032 0
M  V30 11878 C 1121.62 -3.47579 -0.933622 0
M  V30 11879 C 1121.23 -4.47555 0.199684 0
M  V30 11880 C 1122.98 -3.95092 -1.55251 0
M  V30 11881 C 1120.88 -5.90843 -0.256663 0
M  V30 11882 H 1119.81 -0.729919 -0.189035 0
M  V30 11883 H 1122.46 -1.81938 0.238947 0
M  V30 11884 H 1120.85 -3.56506 -1.72394 0
M  V30 11885 H 1122.02 -4.50329 0.976744 0
M  V30 11886 H 1120.33 -4.09997 0.727394 0
M  V30 11887 H 1122.93 -4.99588 -1.90567 0
M  V30 11888 H 1123.27 -3.37015 -2.4439 0
M  V30 11889 H 1123.81 -3.89109 -0.826969 0
M  V30 11890 H 1120.55 -6.52753 0.599515 0
M  V30 11891 H 1120.07 -5.91414 -0.999458 0
M  V30 11892 H 1121.75 -6.43131 -0.70649 0
M  V30 11893 N 1121.88 0.120221 -1.57141 0
M  V30 11894 C 1122.81 1.14876 -2.03287 0
M  V30 11895 C 1123.79 1.43259 -0.917112 0
M  V30 11896 O 1124.97 1.53721 -1.18674 0
M  V30 11897 C 1122.1 2.47525 -2.43616 0
M  V30 11898 C 1121.06 2.33607 -3.58625 0
M  V30 11899 C 1120.38 3.71207 -3.84849 0
M  V30 11900 C 1121.68 1.79761 -4.90391 0
M  V30 11901 H 1123.38 0.764943 -2.89463 0
M  V30 11902 H 1120.92 0.366516 -1.39258 0
M  V30 11903 H 1122.88 3.19728 -2.74504 0
M  V30 11904 H 1121.6 2.87794 -1.54409 0
M  V30 11905 H 1120.26 1.63853 -3.27945 0
M  V30 11906 H 1119.91 4.0896 -2.9285 0
M  V30 11907 H 1119.61 3.62749 -4.62263 0
M  V30 11908 H 1121.13 4.44917 -4.18188 0
M  V30 11909 H 1122.55 2.4178 -5.19822 0
M  V30 11910 H 1120.94 1.82126 -5.71795 0
M  V30 11911 H 1122.01 0.755087 -4.78985 0
M  V30 11912 N 1123.36 1.52689 0.390367 0
M  V30 11913 C 1124.29 1.80338 1.48325 0
M  V30 11914 C 1125.27 0.655338 1.56969 0
M  V30 11915 O 1126.45 0.902792 1.7194 0
M  V30 11916 C 1123.58 1.97101 2.85952 0
M  V30 11917 C 1122.54 3.12783 2.92148 0
M  V30 11918 C 1121.86 3.14798 4.32211 0
M  V30 11919 C 1123.16 4.5188 2.61919 0
M  V30 11920 H 1124.86 2.71857 1.25437 0
M  V30 11921 H 1122.4 1.30813 0.601995 0
M  V30 11922 H 1124.36 2.15027 3.62411 0
M  V30 11923 H 1123.08 1.02271 3.10174 0
M  V30 11924 H 1121.74 2.94638 2.18137 0
M  V30 11925 H 1121.39 2.17653 4.53471 0
M  V30 11926 H 1121.09 3.92507 4.37278 0
M  V30 11927 H 1122.61 3.34877 5.10578 0
M  V30 11928 H 1124.02 4.70134 3.28096 0
M  V30 11929 H 1122.42 5.31647 2.78337 0
M  V30 11930 H 1123.49 4.58689 1.57266 0
M  V30 11931 N 1124.83 -0.648732 1.43629 0
M  V30 11932 C 1126.08 -1.40579 1.45196 0
M  V30 11933 C 1126.4 -1.9484 0.0790556 0
M  V30 11934 O 1125.67 -1.74707 -0.886239 0
M  V30 11935 H 1124.25 -0.52175 0.53459 0
M  V30 11936 H 1126.92 -0.764796 1.79268 0
M  V30 11937 H 1126.01 -2.24591 2.16715 0
M  V30 11938 N 1126.31 -1.30234 -0.887518 0
M  V30 11939 C 1127.26 -1.164 -1.99298 0
M  V30 11940 C 1128.23 -0.0541536 -1.66012 0
M  V30 11941 O 1129.41 -0.223881 -1.89482 0
M  V30 11942 C 1126.55 -0.859169 -3.34234 0
M  V30 11943 C 1125.67 -2.05065 -3.80227 0
M  V30 11944 C 1124.8 -1.68413 -5.03796 0
M  V30 11945 C 1123.84 -2.8407 -5.4219 0
M  V30 11946 N 1122.98 -2.47732 -6.56942 0
M  V30 11947 H 1127.82 -2.10973 -2.10463 0
M  V30 11948 H 1125.36 -1.04969 -1.03053 0
M  V30 11949 H 1127.31 -0.663064 -4.11897 0
M  V30 11950 H 1125.94 0.0496808 -3.22762 0
M  V30 11951 H 1125 -2.35808 -2.98494 0
M  V30 11952 H 1126.31 -2.91688 -4.04623 0
M  V30 11953 H 1125.46 -1.45162 -5.89078 0
M  V30 11954 H 1124.2 -0.789553 -4.81266 0
M  V30 11955 H 1123.21 -3.0799 -4.55437 0
M  V30 11956 H 1124.43 -3.74211 -5.66695 0
M  V30 11957 H 1122.38 -1.60777 -6.35993 0
M  V30 11958 H 1122.29 -3.27887 -6.81195 0
M  V30 11959 H 1123.56 -2.27831 -7.45462 0
M  V30 11960 N 1127.79 1.09952 -1.12909 0
M  V30 11961 C 1129.04 1.82016 -0.887482 0
M  V30 11962 C 1129.37 1.85445 0.586546 0
M  V30 11963 O 1128.62 1.31446 1.44984 0
M  V30 11964 C 1128.92 3.28252 -1.41369 0
M  V30 11965 C 1128.59 3.44965 -2.90362 0
M  V30 11966 C 1127.25 3.49233 -3.31043 0
M  V30 11967 C 1129.6 3.49947 -3.86247 0
M  V30 11968 C 1126.93 3.56057 -4.66305 0
M  V30 11969 C 1129.28 3.58305 -5.21345 0
M  V30 11970 C 1127.94 3.6084 -5.61561 0
M  V30 11971 H 1127.21 0.666046 -0.324753 0
M  V30 11972 H 1129.86 1.29568 -1.41012 0
M  V30 11973 H 1128.17 3.83301 -0.81163 0
M  V30 11974 H 1129.86 3.82533 -1.20289 0
M  V30 11975 H 1126.45 3.42323 -2.57901 0
M  V30 11976 H 1130.64 3.45895 -3.55908 0
M  V30 11977 H 1125.89 3.56305 -4.96847 0
M  V30 11978 H 1130.07 3.61104 -5.95463 0
M  V30 11979 H 1127.69 3.6588 -6.6636 0
M  V30 11980 N 1129.27 0.921757 1.27833 0
M  V30 11981 C 1130.5 0.575202 1.98744 0
M  V30 11982 C 1130.91 -0.845405 1.68815 0
M  V30 11983 O 1130.27 -1.56106 0.94536 0
M  V30 11984 C 1130.32 0.784389 3.52888 0
M  V30 11985 O 1130.04 2.1491 3.81766 0
M  V30 11986 C 1131.54 0.445744 4.41053 0
M  V30 11987 H 1128.76 0.218525 0.634419 0
M  V30 11988 H 1131.31 1.23715 1.62834 0
M  V30 11989 H 1129.46 0.169323 3.8703 0
M  V30 11990 H 1129.87 2.19469 4.76375 0
M  V30 11991 H 1131.35 0.64284 5.48244 0
M  V30 11992 H 1131.83 -0.618433 4.34824 0
M  V30 11993 H 1132.43 1.03869 4.12421 0
M  V30 11994 N 1130.75 -1.41857 0.686609 0
M  V30 11995 C 1131.97 -2.05699 0.222561 0
M  V30 11996 C 1132.39 -1.51636 -1.12481 0
M  V30 11997 O 1131.75 -0.660925 -1.70112 0
M  V30 11998 C 1131.8 -3.61138 0.161818 0
M  V30 11999 O 1131.52 -4.13199 1.45596 0
M  V30 12000 C 1133.02 -4.42112 -0.324304 0
M  V30 12001 H 1130.24 -0.662665 0.10543 0
M  V30 12002 H 1132.78 -1.81788 0.936671 0
M  V30 12003 H 1130.94 -3.8412 -0.503056 0
M  V30 12004 H 1131.35 -5.0717 1.33712 0
M  V30 12005 H 1132.83 -5.51097 -0.315694 0
M  V30 12006 H 1133.3 -4.1756 -1.36164 0
M  V30 12007 H 1133.91 -4.24174 0.309251 0
M  V30 12008 N 1132.22 -0.430739 -1.51599 0
M  V30 12009 C 1133.19 0.372319 -2.26156 0
M  V30 12010 C 1134.19 0.955338 -1.29344 0
M  V30 12011 O 1135.38 0.830823 -1.53111 0
M  V30 12012 C 1132.51 1.52613 -3.04831 0
M  V30 12013 H 1133.7 -0.280996 -2.98581 0
M  V30 12014 H 1131.26 -0.183749 -1.55216 0
M  V30 12015 H 1131.99 2.21569 -2.36807 0
M  V30 12016 H 1131.78 1.11433 -3.75932 0
M  V30 12017 H 1133.27 2.09366 -3.61325 0
M  V30 12018 N 1133.7 1.56767 -0.161869 0
M  V30 12019 C 1134.93 2.01401 0.49523 0
M  V30 12020 C 1135.35 1.04133 1.56646 0
M  V30 12021 O 1134.71 0.0193747 1.8129 0
M  V30 12022 C 1134.76 3.44695 1.05913 0
M  V30 12023 O 1133.86 3.50475 2.1735 0
M  V30 12024 H 1133.2 0.65314 0.1196 0
M  V30 12025 H 1135.73 2.02903 -0.26298 0
M  V30 12026 H 1135.74 3.83805 1.3841 0
M  V30 12027 H 1134.42 4.14991 0.274749 0
M  V30 12028 H 1133 3.23218 1.85969 0
M  V30 12029 N 1135.18 -0.111886 1.57202 0
M  V30 12030 C 1136.46 -0.849125 1.76208 0
M  V30 12031 C 1136.84 -1.97735 0.73919 0
M  V30 12032 O 1136.19 -2.27283 -0.235523 0
M  V30 12033 C 1136.4 -1.35924 3.21443 0
M  V30 12034 C 1137.74 -1.80874 3.84148 0
M  V30 12035 O 1138.77 -1.45587 3.25089 0
M  V30 12036 O 1137.63 -2.46065 4.87969 0
M  V30 12037 H 1134.72 -0.403761 0.721738 0
M  V30 12038 H 1137.27 -0.0950726 1.69433 0
M  V30 12039 H 1136.04 -0.550113 3.87414 0
M  V30 12040 H 1135.66 -2.17579 3.32784 0
M  V30 12041 N 1136.66 -1.52894 -0.382264 0
M  V30 12042 C 1137.9 -1.68515 -1.12829 0
M  V30 12043 C 1138.24 -0.427211 -1.89443 0
M  V30 12044 O 1137.51 0.57516 -1.85801 0
M  V30 12045 C 1137.8 -2.92449 -2.10108 0
M  V30 12046 C 1137.65 -4.2836 -1.37214 0
M  V30 12047 C 1138.97 -3.11944 -3.1045 0
M  V30 12048 H 1136.09 -0.613223 -0.408811 0
M  V30 12049 H 1138.73 -1.85503 -0.410921 0
M  V30 12050 H 1136.88 -2.78097 -2.71283 0
M  V30 12051 H 1138.55 -4.54493 -0.789516 0
M  V30 12052 H 1136.79 -4.28532 -0.673973 0
M  V30 12053 H 1137.46 -5.11178 -2.0833 0
M  V30 12054 H 1139.94 -3.25372 -2.59369 0
M  V30 12055 H 1138.82 -4.00125 -3.75754 0
M  V30 12056 H 1139.08 -2.26465 -3.79692 0
M  V30 12057 N 1138.14 0.641106 -1.43971 0
M  V30 12058 C 1139.38 1.40118 -1.4744 0
M  V30 12059 C 1139.74 1.92131 -0.101647 0
M  V30 12060 O 1139.03 1.70112 0.881614 0
M  V30 12061 C 1139.23 2.59092 -2.46183 0
M  V30 12062 C 1139.05 2.18725 -3.92924 0
M  V30 12063 C 1137.82 2.06475 -4.6119 0
M  V30 12064 C 1140.02 1.78255 -4.82421 0
M  V30 12065 N 1138 1.59566 -5.928 0
M  V30 12066 C 1139.38 1.42517 -6.03398 0
M  V30 12067 C 1141.43 1.65546 -4.69573 0
M  V30 12068 C 1140.13 0.953428 -7.12953 0
M  V30 12069 C 1142.16 1.19776 -5.79144 0
M  V30 12070 C 1141.52 0.84983 -6.99255 0
M  V30 12071 H 1137.62 0.507917 -0.594596 0
M  V30 12072 H 1140.2 0.736517 -1.80232 0
M  V30 12073 H 1138.38 3.232 -2.15398 0
M  V30 12074 H 1140.11 3.25847 -2.40012 0
M  V30 12075 H 1136.86 2.26615 -4.15863 0
M  V30 12076 H 1137.29 1.38438 -6.62694 0
M  V30 12077 H 1141.93 1.91081 -3.77158 0
M  V30 12078 H 1139.65 0.68558 -8.05187 0
M  V30 12079 H 1143.23 1.10415 -5.71226 0
M  V30 12080 H 1142.11 0.501081 -7.82597 0
M  V30 12081 N 1139.62 1.30703 0.880598 0
M  V30 12082 C 1140.58 1.17429 1.96832 0
M  V30 12083 C 1141.58 0.104305 1.60461 0
M  V30 12084 O 1142.77 0.352758 1.70591 0
M  V30 12085 C 1139.9 0.800099 3.31378 0
M  V30 12086 H 1141.09 2.14069 2.10034 0
M  V30 12087 H 1138.65 1.14162 1.06755 0
M  V30 12088 H 1139.38 -0.165606 3.23877 0
M  V30 12089 H 1139.17 1.57341 3.59146 0
M  V30 12090 H 1140.66 0.730826 4.11155 0
M  V30 12091 N 1141.09 -1.09351 1.1349 0
M  V30 12092 C 1142.34 -1.81543 0.897123 0
M  V30 12093 C 1142.67 -1.85754 -0.576703 0
M  V30 12094 O 1141.92 -1.32213 -1.44285 0
M  V30 12095 C 1142.22 -3.27498 1.43108 0
M  V30 12096 C 1141.89 -3.4342 2.92188 0
M  V30 12097 C 1140.55 -3.47473 3.32891 0
M  V30 12098 C 1142.9 -3.47894 3.88097 0
M  V30 12099 C 1140.23 -3.5358 4.68186 0
M  V30 12100 C 1142.58 -3.55535 5.23238 0
M  V30 12101 C 1141.25 -3.57857 5.63467 0
M  V30 12102 H 1140.52 -0.664314 0.32828 0
M  V30 12103 H 1143.16 -1.28819 1.41697 0
M  V30 12104 H 1141.47 -3.82865 0.831946 0
M  V30 12105 H 1143.17 -3.8189 1.22316 0
M  V30 12106 H 1139.76 -3.4095 2.59713 0
M  V30 12107 H 1143.94 -3.44002 3.57737 0
M  V30 12108 H 1139.2 -3.53665 4.9873 0
M  V30 12109 H 1143.37 -3.57942 5.9737 0
M  V30 12110 H 1141 -3.62341 6.68291 0
M  V30 12111 N 1142.57 -0.928524 -1.27343 0
M  V30 12112 C 1143.82 -0.568267 -1.93946 0
M  V30 12113 C 1144.14 0.893501 -1.73325 0
M  V30 12114 O 1143.41 1.63344 -1.08147 0
M  V30 12115 H 1141.99 -0.207173 -0.717696 0
M  V30 12116 H 1144.65 -1.1811 -1.55036 0
M  V30 12117 H 1143.75 -0.775246 -3.02318 0
M  V30 12118 N 1144.05 1.41491 -0.694123 0
M  V30 12119 C 1145.3 2.0155 -0.224809 0
M  V30 12120 C 1145.63 1.54844 1.17205 0
M  V30 12121 O 1144.9 0.75899 1.7908 0
M  V30 12122 C 1145.19 3.59003 -0.280884 0
M  V30 12123 C 1145.04 4.15839 -1.71458 0
M  V30 12124 C 1146.36 4.38624 0.360122 0
M  V30 12125 H 1143.48 0.732293 -0.0831632 0
M  V30 12126 H 1146.12 1.68258 -0.882569 0
M  V30 12127 H 1144.27 3.87496 0.279164 0
M  V30 12128 H 1145.94 3.98227 -2.32837 0
M  V30 12129 H 1144.18 3.70936 -2.2492 0
M  V30 12130 H 1144.86 5.24997 -1.70536 0
M  V30 12131 H 1147.33 4.15936 -0.11683 0
M  V30 12132 H 1146.21 5.48132 0.290337 0
M  V30 12133 H 1146.47 4.1797 1.44062 0
M  V30 12134 N 1145.53 0.438773 1.51369 0
M  V30 12135 C 1146.76 -0.125847 2.06517 0
M  V30 12136 C 1147.17 -1.36336 1.30606 0
M  V30 12137 O 1146.53 -1.78792 0.36603 0
M  V30 12138 C 1146.58 -0.446619 3.5873 0
M  V30 12139 O 1146.3 0.741781 4.31775 0
M  V30 12140 C 1147.8 -1.06175 4.30397 0
M  V30 12141 H 1145.02 -0.00728868 0.67096 0
M  V30 12142 H 1147.56 0.618267 1.9493 0
M  V30 12143 H 1145.72 -1.14064 3.70227 0
M  V30 12144 H 1146.13 0.466907 5.22418 0
M  V30 12145 H 1147.61 -1.23619 5.3798 0
M  V30 12146 H 1148.08 -2.04317 3.88782 0
M  V30 12147 H 1148.69 -0.40708 4.23347 0
M  V30 12148 N 1147.01 -1.56678 0.170181 0
M  V30 12149 C 1147.94 -2.20916 -0.756213 0
M  V30 12150 C 1148.92 -1.16442 -1.23997 0
M  V30 12151 O 1150.1 -1.44867 -1.29333 0
M  V30 12152 C 1147.23 -2.84901 -1.98617 0
M  V30 12153 C 1146.19 -3.95403 -1.63831 0
M  V30 12154 C 1145.51 -4.46432 -2.94282 0
M  V30 12155 C 1146.81 -5.15051 -0.867195 0
M  V30 12156 H 1148.51 -2.98585 -0.220776 0
M  V30 12157 H 1146.05 -1.43619 -0.104748 0
M  V30 12158 H 1148 -3.28514 -2.63926 0
M  V30 12159 H 1146.73 -2.04598 -2.54572 0
M  V30 12160 H 1145.39 -3.52444 -1.00891 0
M  V30 12161 H 1145.04 -3.62923 -3.48276 0
M  V30 12162 H 1144.74 -5.20979 -2.71762 0
M  V30 12163 H 1146.26 -4.92731 -3.60622 0
M  V30 12164 H 1147.67 -5.55363 -1.42285 0
M  V30 12165 H 1146.07 -5.95507 -0.741065 0
M  V30 12166 H 1147.14 -4.84707 0.136693 0
M  V30 12167 N 1148.48 0.103547 -1.57259 0
M  V30 12168 C 1149.73 0.804704 -1.86805 0
M  V30 12169 C 1150.08 1.76756 -0.759942 0
M  V30 12170 O 1149.38 1.90106 0.238789 0
M  V30 12171 C 1149.57 1.57946 -3.20605 0
M  V30 12172 C 1149.4 0.693136 -4.44326 0
M  V30 12173 C 1148.17 0.342079 -5.04141 0
M  V30 12174 C 1150.37 0.00385713 -5.143 0
M  V30 12175 N 1148.35 -0.553293 -6.11402 0
M  V30 12176 C 1149.72 -0.74991 -6.15448 0
M  V30 12177 C 1151.78 -0.0709485 -4.97849 0
M  V30 12178 C 1150.48 -1.57148 -7.01924 0
M  V30 12179 C 1152.51 -0.879391 -5.84825 0
M  V30 12180 C 1151.87 -1.6213 -6.85488 0
M  V30 12181 H 1147.97 0.270899 -0.733579 0
M  V30 12182 H 1150.55 0.0676446 -1.94582 0
M  V30 12183 H 1148.72 2.28745 -3.13895 0
M  V30 12184 H 1150.45 2.22715 -3.37905 0
M  V30 12185 H 1147.21 0.687831 -4.68579 0
M  V30 12186 H 1147.63 -0.993284 -6.69674 0
M  V30 12187 H 1152.27 0.488299 -4.19971 0
M  V30 12188 H 1149.99 -2.14182 -7.79199 0
M  V30 12189 H 1153.58 -0.939834 -5.74159 0
M  V30 12190 H 1152.46 -2.2368 -7.51623 0
M  V30 12191 N 1149.96 1.53094 0.37415 0
M  V30 12192 C 1150.87 1.81872 1.48188 0
M  V30 12193 C 1151.89 0.706487 1.59012 0
M  V30 12194 O 1153.06 0.995648 1.75068 0
M  V30 12195 C 1150.13 1.99494 2.83554 0
M  V30 12196 C 1149.19 3.23402 2.82329 0
M  V30 12197 C 1148.42 3.40174 4.11239 0
M  V30 12198 O 1148.65 2.61425 5.06965 0
M  V30 12199 O 1147.58 4.33493 4.17573 0
M  V30 12200 H 1151.41 2.75965 1.26795 0
M  V30 12201 H 1148.99 1.38368 0.56343 0
M  V30 12202 H 1150.87 2.12705 3.63778 0
M  V30 12203 H 1149.55 1.08591 3.04942 0
M  V30 12204 H 1148.45 3.15621 2.00834 0
M  V30 12205 H 1149.79 4.14199 2.65894 0
M  V30 12206 N 1151.44 -0.633461 1.44309 0
M  V30 12207 C 1152.67 -1.42033 1.50447 0
M  V30 12208 C 1153.08 -1.88362 0.128585 0
M  V30 12209 O 1152.44 -1.60695 -0.865071 0
M  V30 12210 C 1152.49 -2.6422 2.46719 0
M  V30 12211 O 1152.21 -2.19823 3.78958 0
M  V30 12212 C 1153.71 -3.57372 2.62298 0
M  V30 12213 H 1150.93 -0.435667 0.510329 0
M  V30 12214 H 1153.48 -0.774907 1.8925 0
M  V30 12215 H 1151.63 -3.24859 2.11058 0
M  V30 12216 H 1152.05 -2.99022 4.30913 0
M  V30 12217 H 1153.52 -4.39719 3.33693 0
M  V30 12218 H 1154 -4.06026 1.67449 0
M  V30 12219 H 1154.6 -3.02603 2.9885 0
M  V30 12220 N 1152.92 -1.31168 -0.873655 0
M  V30 12221 C 1154.17 -1.20642 -1.6264 0
M  V30 12222 C 1154.49 0.236286 -1.93059 0
M  V30 12223 O 1153.75 1.18401 -1.55819 0
M  V30 12224 C 1154.05 -1.99204 -2.96736 0
M  V30 12225 C 1153.71 -3.48734 -2.85824 0
M  V30 12226 C 1152.38 -3.89507 -2.82555 0
M  V30 12227 C 1154.73 -4.43905 -2.73127 0
M  V30 12228 C 1152.06 -5.23724 -2.64442 0
M  V30 12229 C 1154.41 -5.78242 -2.56551 0
M  V30 12230 C 1153.07 -6.18241 -2.51663 0
M  V30 12231 H 1152.34 -0.44146 -0.595142 0
M  V30 12232 H 1154.99 -1.62394 -1.01492 0
M  V30 12233 H 1153.29 -1.50122 -3.61899 0
M  V30 12234 H 1154.99 -1.88443 -3.53963 0
M  V30 12235 H 1151.58 -3.1634 -2.89184 0
M  V30 12236 H 1155.76 -4.13338 -2.7471 0
M  V30 12237 H 1151.02 -5.53794 -2.59081 0
M  V30 12238 H 1155.19 -6.51616 -2.45702 0
M  V30 12239 H 1152.82 -7.22185 -2.37387 0
M  V30 12240 N 1154.4 1.08748 -1.14068 0
M  V30 12241 C 1155.62 1.84814 -0.930138 0
M  V30 12242 C 1156.04 1.81461 0.521267 0
M  V30 12243 O 1155.4 1.21577 1.36108 0
M  V30 12244 C 1155.45 3.32501 -1.41863 0
M  V30 12245 O 1155.17 3.35846 -2.81317 0
M  V30 12246 C 1156.67 4.25384 -1.24753 0
M  V30 12247 H 1153.89 0.583546 -0.331233 0
M  V30 12248 H 1156.43 1.37366 -1.51495 0
M  V30 12249 H 1154.59 3.7735 -0.876664 0
M  V30 12250 H 1155 4.28013 -3.03159 0
M  V30 12251 H 1156.48 5.27138 -1.63798 0
M  V30 12252 H 1156.95 4.38789 -0.18999 0
M  V30 12253 H 1157.56 3.86357 -1.77787 0
M  V30 12254 N 1155.87 0.935264 1.26849 0
M  V30 12255 C 1157.12 0.57969 1.94025 0
M  V30 12256 C 1157.45 -0.880295 1.73439 0
M  V30 12257 O 1156.7 -1.64429 1.0612 0
M  V30 12258 C 1157 0.861098 3.46872 0
M  V30 12259 C 1156.67 2.30402 3.87589 0
M  V30 12260 C 1155.33 2.69848 3.98417 0
M  V30 12261 C 1157.68 3.242 4.08098 0
M  V30 12262 C 1155.01 4.02199 4.27145 0
M  V30 12263 C 1157.36 4.56141 4.38313 0
M  V30 12264 C 1156.03 4.9541 4.47354 0
M  V30 12265 H 1155.3 0.212123 0.709989 0
M  V30 12266 H 1157.94 1.18066 1.50774 0
M  V30 12267 H 1156.25 0.177534 3.91398 0
M  V30 12268 H 1157.95 0.564841 3.97002 0
M  V30 12269 H 1154.54 1.98803 3.79704 0
M  V30 12270 H 1158.72 2.94924 3.99166 0
M  V30 12271 H 1153.98 4.32295 4.32355 0
M  V30 12272 H 1158.15 5.28818 4.53128 0
M  V30 12273 H 1155.78 5.97994 4.69368 0
M  V30 12274 N 1157.35 -1.41121 0.701616 0
M  V30 12275 C 1158.59 -2.02993 0.239383 0
M  V30 12276 C 1158.96 -1.5439 -1.1414 0
M  V30 12277 O 1160.16 -2.08229 -1.69982 0
M  V30 12278 C 1158.43 -3.56128 0.301232 0
M  V30 12279 S 1159.99 -4.38716 -0.0860681 0
M  V30 12280 H 1156.81 -0.704494 0.0959645 0
M  V30 12281 H 1159.41 -1.72461 0.920736 0
M  V30 12282 H 1158.11 -3.88996 1.30805 0
M  V30 12283 H 1157.64 -3.91371 -0.399069 0
M  V30 12284 H 1159.66 -4.78537 -1.31212 0
M  V30 12285 N 1158.83 -0.446794 -1.51134 0
M  V30 12286 C 1159.76 0.395804 -2.25757 0
M  V30 12287 C 1160.78 0.978178 -1.30137 0
M  V30 12288 O 1161.96 0.87071 -1.55823 0
M  V30 12289 C 1159.06 1.56665 -3.00515 0
M  V30 12290 C 1158.24 1.10146 -4.23305 0
M  V30 12291 C 1157.3 2.14352 -4.80562 0
M  V30 12292 O 1156.32 1.73401 -5.42145 0
M  V30 12293 N 1157.52 3.46932 -4.65423 0
M  V30 12294 H 1160.29 -0.243808 -2.98707 0
M  V30 12295 H 1157.85 -0.276205 -1.59527 0
M  V30 12296 H 1159.84 2.26019 -3.35704 0
M  V30 12297 H 1158.41 2.11142 -2.30516 0
M  V30 12298 H 1157.63 0.234644 -3.93501 0
M  V30 12299 H 1158.92 0.768185 -5.02968 0
M  V30 12300 H 1158.32 3.82929 -4.16391 0
M  V30 12301 H 1156.88 4.12154 -5.04948 0
M  V30 12302 N 1160.31 1.56586 -0.178487 0
M  V30 12303 C 1161.22 2.21903 0.761321 0
M  V30 12304 C 1162.23 1.21289 1.2476 0
M  V30 12305 O 1163.41 1.53974 1.29823 0
M  V30 12306 C 1160.48 2.85259 1.97048 0
M  V30 12307 C 1159.54 4.01095 1.53039 0
M  V30 12308 C 1158.77 4.61421 2.68191 0
M  V30 12309 O 1158.99 4.20644 3.85247 0
M  V30 12310 O 1157.93 5.51171 2.41855 0
M  V30 12311 H 1161.75 3.02788 0.235141 0
M  V30 12312 H 1159.34 1.49316 0.0500442 0
M  V30 12313 H 1161.22 3.25404 2.6775 0
M  V30 12314 H 1159.89 2.07366 2.48558 0
M  V30 12315 H 1158.8 3.65606 0.792661 0
M  V30 12316 H 1160.13 4.80603 1.06213 0
M  V30 12317 N 1161.79 -0.095206 1.57312 0
M  V30 12318 C 1162.72 -1.14173 1.98739 0
M  V30 12319 C 1163.73 -1.36323 0.889934 0
M  V30 12320 O 1164.92 -1.34977 1.16805 0
M  V30 12321 C 1162.02 -2.49729 2.29104 0
M  V30 12322 C 1161.19 -2.47857 3.60396 0
M  V30 12323 C 1160.25 -3.65341 3.78699 0
M  V30 12324 O 1159.28 -3.47837 4.50553 0
M  V30 12325 N 1160.48 -4.84818 3.19268 0
M  V30 12326 H 1163.25 -0.789126 2.89124 0
M  V30 12327 H 1160.81 -0.284187 1.59386 0
M  V30 12328 H 1162.8 -3.26925 2.38541 0
M  V30 12329 H 1161.37 -2.7708 1.44726 0
M  V30 12330 H 1160.59 -1.56208 3.61929 0
M  V30 12331 H 1161.88 -2.43685 4.46649 0
M  V30 12332 H 1161.27 -5.01943 2.60902 0
M  V30 12333 H 1159.83 -5.59607 3.34191 0
M  V30 12334 N 1163.26 -1.53291 -0.366026 0
M  V30 12335 C 1164.68 -1.61144 -0.942849 0
M  V30 12336 C 1165.03 -0.478571 -1.90274 0
M  V30 12337 O 1164.15 0.395069 -2.12763 0
M  V30 12338 C 1164.75 -2.92081 -1.71681 0
M  V30 12339 C 1163.31 -3.0227 -2.24298 0
M  V30 12340 C 1162.45 -2.56436 -1.05526 0
M  V30 12341 H 1165.4 -1.58038 -0.144835 0
M  V30 12342 H 1165.42 -2.79858 -2.57798 0
M  V30 12343 H 1164.94 -3.74513 -1.01793 0
M  V30 12344 H 1163.04 -2.24425 -2.97429 0
M  V30 12345 H 1163.15 -4.07341 -2.5221 0
M  V30 12346 H 1161.51 -2.11301 -1.42211 0
M  V30 12347 H 1162.3 -3.41285 -0.371376 0
M  V30 12348 N 1164.74 0.6258 -1.44643 0
M  V30 12349 C 1165.97 1.41028 -1.50979 0
M  V30 12350 C 1166.38 1.88717 -0.135092 0
M  V30 12351 O 1165.72 1.61778 0.870268 0
M  V30 12352 C 1165.79 2.66094 -2.41732 0
M  V30 12353 C 1165.45 2.40166 -3.88805 0
M  V30 12354 C 1166.45 2.01661 -4.79196 0
M  V30 12355 C 1164.13 2.53641 -4.33557 0
M  V30 12356 C 1166.13 1.76966 -6.12341 0
M  V30 12357 C 1163.81 2.2856 -5.66748 0
M  V30 12358 C 1164.81 1.90282 -6.55959 0
M  V30 12359 O 1164.5 1.65484 -7.86683 0
M  V30 12360 H 1164.23 0.438757 -0.514265 0
M  V30 12361 H 1166.78 0.772034 -1.90339 0
M  V30 12362 H 1165.01 3.32575 -1.97309 0
M  V30 12363 H 1166.7 3.28107 -2.38957 0
M  V30 12364 H 1167.47 1.90802 -4.45892 0
M  V30 12365 H 1163.35 2.82404 -3.64375 0
M  V30 12366 H 1166.89 1.47014 -6.81933 0
M  V30 12367 H 1162.79 2.3903 -5.99612 0
M  V30 12368 H 1163.56 1.79686 -7.98533 0
M  V30 12369 N 1166.22 1.31629 0.866686 0
M  V30 12370 C 1167.45 1.24609 1.65793 0
M  V30 12371 C 1167.87 -0.184944 1.87189 0
M  V30 12372 O 1167.23 -1.1322 1.41601 0
M  V30 12373 C 1167.28 1.9988 3.00134 0
M  V30 12374 O 1166.38 1.33838 3.90079 0
M  V30 12375 H 1165.72 0.430051 0.505917 0
M  V30 12376 H 1168.25 1.73752 1.08035 0
M  V30 12377 H 1168.26 2.09599 3.50046 0
M  V30 12378 H 1166.94 3.03947 2.83882 0
M  V30 12379 H 1165.51 1.3259 3.48532 0
M  V30 12380 N 1167.7 -1.08142 1.14644 0
M  V30 12381 C 1168.63 -2.15022 0.793614 0
M  V30 12382 C 1169.64 -1.61679 -0.190729 0
M  V30 12383 O 1170.83 -1.78472 0.0313696 0
M  V30 12384 C 1167.93 -3.38532 0.157785 0
M  V30 12385 C 1167.11 -4.21252 1.17753 0
M  V30 12386 C 1166.17 -5.23158 0.564968 0
M  V30 12387 O 1165.19 -5.5578 1.22869 0
M  V30 12388 N 1166.39 -5.7677 -0.657022 0
M  V30 12389 H 1169.16 -2.45893 1.71338 0
M  V30 12390 H 1166.72 -1.23976 1.04122 0
M  V30 12391 H 1168.71 -4.03834 -0.264586 0
M  V30 12392 H 1167.28 -3.05441 -0.665168 0
M  V30 12393 H 1166.5 -3.51888 1.77675 0
M  V30 12394 H 1167.79 -4.73335 1.86632 0
M  V30 12395 H 1167.19 -5.52503 -1.21478 0
M  V30 12396 H 1165.74 -6.4374 -1.02186 0
M  V30 12397 N 1169.18 -0.941978 -1.26351 0
M  V30 12398 C 1170.11 -0.469913 -2.28723 0
M  V30 12399 C 1171.09 0.477218 -1.63269 0
M  V30 12400 O 1172.27 0.378902 -1.90468 0
M  V30 12401 C 1169.4 0.264971 -3.46288 0
M  V30 12402 C 1168.36 -0.595682 -4.23834 0
M  V30 12403 C 1167.68 0.269208 -5.34022 0
M  V30 12404 C 1168.98 -1.86743 -4.87775 0
M  V30 12405 H 1170.68 -1.32551 -2.6846 0
M  V30 12406 H 1168.22 -0.638809 -1.29055 0
M  V30 12407 H 1170.18 0.606259 -4.17016 0
M  V30 12408 H 1168.9 1.15471 -3.05506 0
M  V30 12409 H 1167.56 -0.919875 -3.54872 0
M  V30 12410 H 1167.21 1.15832 -4.89481 0
M  V30 12411 H 1166.91 -0.30325 -5.86817 0
M  V30 12412 H 1168.43 0.605748 -6.07588 0
M  V30 12413 H 1169.85 -1.59333 -5.50714 0
M  V30 12414 H 1168.24 -2.38452 -5.50691 0
M  V30 12415 H 1169.31 -2.57831 -4.10671 0
M  V30 12416 N 1170.66 1.40747 -0.709091 0
M  V30 12417 C 1171.88 2.05841 -0.253816 0
M  V30 12418 C 1172.31 1.53056 1.09341 0
M  V30 12419 O 1171.66 0.663181 1.68735 0
M  V30 12420 C 1171.71 3.59822 -0.236699 0
M  V30 12421 O 1170.82 4.04876 0.784168 0
M  V30 12422 H 1170.16 0.65295 -0.120631 0
M  V30 12423 H 1172.69 1.80266 -0.967749 0
M  V30 12424 H 1172.7 4.07936 -0.0721616 0
M  V30 12425 H 1171.37 3.97608 -1.21988 0
M  V30 12426 H 1169.95 3.68237 0.587884 0
M  V30 12427 N 1172.13 0.454803 1.50895 0
M  V30 12428 C 1173.41 -0.166559 1.9489 0
M  V30 12429 C 1173.79 -1.58492 1.3944 0
M  V30 12430 O 1173.14 -2.20788 0.588622 0
M  V30 12431 C 1173.35 -0.126506 3.48771 0
M  V30 12432 C 1174.7 -0.32347 4.23366 0
M  V30 12433 O 1175.72 -0.203835 3.55616 0
M  V30 12434 O 1174.58 -0.563292 5.43589 0
M  V30 12435 H 1171.67 -0.120523 0.818171 0
M  V30 12436 H 1174.22 0.514037 1.61727 0
M  V30 12437 H 1172.99 0.864407 3.81633 0
M  V30 12438 H 1172.61 -0.849264 3.88424 0
M  V30 12439 N 1173.61 -1.56489 0.186789 0
M  V30 12440 C 1174.52 -2.22304 -0.749543 0
M  V30 12441 C 1175.54 -1.21949 -1.24115 0
M  V30 12442 O 1176.71 -1.5466 -1.29005 0
M  V30 12443 C 1173.78 -2.863 -1.95533 0
M  V30 12444 C 1172.84 -4.01901 -1.5091 0
M  V30 12445 C 1172.07 -4.62837 -2.6574 0
M  V30 12446 O 1172.3 -4.22681 -3.8301 0
M  V30 12447 O 1171.23 -5.52446 -2.38929 0
M  V30 12448 H 1175.06 -3.02909 -0.21908 0
M  V30 12449 H 1172.64 -1.49341 -0.0421249 0
M  V30 12450 H 1174.52 -3.2682 -2.6602 0
M  V30 12451 H 1173.2 -2.08681 -2.47455 0
M  V30 12452 H 1172.1 -3.66021 -0.773261 0
M  V30 12453 H 1173.44 -4.8116 -1.03663 0
M  V30 12454 N 1175.09 0.086862 -1.5736 0
M  V30 12455 C 1176.02 1.13117 -1.99342 0
M  V30 12456 C 1177.03 1.35849 -0.897151 0
M  V30 12457 O 1178.22 1.34356 -1.17519 0
M  V30 12458 C 1175.32 2.48511 -2.30425 0
M  V30 12459 C 1174.5 2.45942 -3.61706 0
M  V30 12460 C 1173.56 3.63327 -3.80631 0
M  V30 12461 O 1172.58 3.45443 -4.52392 0
M  V30 12462 N 1173.78 4.83118 -3.21835 0
M  V30 12463 H 1176.55 0.773782 -2.89539 0
M  V30 12464 H 1174.11 0.275731 -1.59535 0
M  V30 12465 H 1176.1 3.25656 -2.40272 0
M  V30 12466 H 1174.67 2.76308 -1.46194 0
M  V30 12467 H 1173.89 1.54287 -3.62752 0
M  V30 12468 H 1175.18 2.41313 -4.47935 0
M  V30 12469 H 1174.58 5.00552 -2.6356 0
M  V30 12470 H 1173.13 5.57827 -3.37154 0
M  V30 12471 N 1176.57 1.53483 0.357892 0
M  V30 12472 C 1177.81 1.70289 1.10134 0
M  V30 12473 C 1178.15 0.457296 1.88739 0
M  V30 12474 O 1177.42 -0.545527 1.86693 0
M  V30 12475 C 1177.7 2.95755 2.05429 0
M  V30 12476 C 1177.56 4.30489 1.30382 0
M  V30 12477 C 1178.88 3.16844 3.05447 0
M  V30 12478 H 1176 0.61965 0.399003 0
M  V30 12479 H 1178.64 1.86133 0.381357 0
M  V30 12480 H 1176.79 2.82377 2.66825 0
M  V30 12481 H 1178.46 4.55692 0.71711 0
M  V30 12482 H 1176.7 4.2955 0.605712 0
M  V30 12483 H 1177.37 5.14427 2.00171 0
M  V30 12484 H 1179.85 3.29458 2.54159 0
M  V30 12485 H 1178.73 4.06053 3.69341 0
M  V30 12486 H 1178.99 2.32476 3.76041 0
M  V30 12487 N 1178.05 -0.61812 1.44973 0
M  V30 12488 C 1179.29 -1.37343 1.47715 0
M  V30 12489 C 1179.61 -1.95239 0.118784 0
M  V30 12490 O 1180.81 -2.7149 0.0237981 0
M  V30 12491 C 1179.27 -2.48732 2.60116 0
M  V30 12492 C 1178.88 -1.97294 4.02218 0
M  V30 12493 C 1180.62 -3.25831 2.72093 0
M  V30 12494 C 1178.53 -3.06102 5.06019 0
M  V30 12495 H 1177.46 -0.516175 0.549617 0
M  V30 12496 H 1180.11 -0.663617 1.7108 0
M  V30 12497 H 1178.49 -3.2235 2.30014 0
M  V30 12498 H 1179.67 -1.30455 4.41948 0
M  V30 12499 H 1177.98 -1.32972 3.94598 0
M  V30 12500 H 1180.58 -4.06968 3.46815 0
M  V30 12501 H 1180.92 -3.76156 1.7836 0
M  V30 12502 H 1181.45 -2.59309 3.01668 0
M  V30 12503 H 1178.19 -2.60706 6.01426 0
M  V30 12504 H 1177.71 -3.71541 4.70869 0
M  V30 12505 H 1179.39 -3.70662 5.30301 0
M  V30 12506 N 1179.52 -1.32087 -0.859693 0
M  V30 12507 C 1180.43 -1.22587 -2.00024 0
M  V30 12508 C 1181.45 -0.140477 -1.73432 0
M  V30 12509 O 1182.63 -0.360213 -1.98153 0
M  V30 12510 C 1179.69 -0.944195 -3.33595 0
M  V30 12511 C 1178.75 -2.11752 -3.73443 0
M  V30 12512 C 1177.98 -1.84919 -5.0064 0
M  V30 12513 O 1178.21 -0.789299 -5.64913 0
M  V30 12514 O 1177.14 -2.70885 -5.37499 0
M  V30 12515 H 1180.97 -2.18457 -2.10974 0
M  V30 12516 H 1178.55 -1.11927 -0.989577 0
M  V30 12517 H 1180.43 -0.803389 -4.13671 0
M  V30 12518 H 1179.11 -0.0156083 -3.23696 0
M  V30 12519 H 1178.02 -2.31378 -2.93965 0
M  V30 12520 H 1179.35 -3.02872 -3.87981 0
M  V30 12521 N 1181 1.07532 -1.15215 0
M  V30 12522 C 1181.95 2.16785 -0.843022 0
M  V30 12523 C 1182.94 1.68411 0.182802 0
M  V30 12524 O 1184.15 1.7996 0.0380164 0
M  V30 12525 H 1180.52 0.707465 -0.254945 0
M  V30 12526 H 1182.5 2.40078 -1.77215 0
M  V30 12527 C 1181.24 3.45967 -0.346699 0
M  V30 12528 H 1180.57 3.83574 -1.12744 0
M  V30 12529 H 1182.01 4.23663 -0.169039 0
M  V30 12530 C 1180.47 3.23768 0.931437 0
M  V30 12531 O 1181 3.48179 2.00336 0
M  V30 12532 N 1179.2 2.77264 0.870217 0
M  V30 12533 H 1178.75 2.576 -0.00226223 0
M  V30 12534 H 1178.71 2.6279 1.72594 0
M  V30 12535 N 1182.48 0.948665 1.2585 0
M  V30 12536 C 1183.71 0.617229 1.97479 0
M  V30 12537 C 1184.12 -0.809406 1.7057 0
M  V30 12538 O 1183.48 -1.54066 0.97826 0
M  V30 12539 C 1183.53 0.859065 3.51144 0
M  V30 12540 O 1183.25 2.2296 3.77121 0
M  V30 12541 C 1184.75 0.539197 4.40009 0
M  V30 12542 H 1181.97 0.231933 0.629641 0
M  V30 12543 H 1184.52 1.27141 1.60173 0
M  V30 12544 H 1182.67 0.25138 3.86584 0
M  V30 12545 H 1183.09 2.29524 4.71613 0
M  V30 12546 H 1184.56 0.758986 5.46757 0
M  V30 12547 H 1185.04 -0.526062 4.36038 0
M  V30 12548 H 1185.64 1.12594 4.10125 0
M  V30 12549 N 1183.96 -1.40369 0.716545 0
M  V30 12550 C 1185.21 -2.00473 0.255959 0
M  V30 12551 C 1185.53 -1.57104 -1.15514 0
M  V30 12552 O 1184.8 -0.810925 -1.78328 0
M  V30 12553 H 1183.38 -0.741357 0.0916427 0
M  V30 12554 H 1186.04 -1.71692 0.922389 0
M  V30 12555 H 1185.14 -3.10752 0.289806 0
M  V30 12556 N 1185.44 -0.462799 -1.50652 0
M  V30 12557 C 1186.35 0.341191 -2.32106 0
M  V30 12558 C 1187.36 1.00384 -1.42123 0
M  V30 12559 O 1188.54 0.993635 -1.75182 0
M  V30 12560 C 1185.6 1.41356 -3.16575 0
M  V30 12561 C 1184.66 0.768375 -4.22368 0
M  V30 12562 C 1183.9 1.78964 -5.028 0
M  V30 12563 O 1184.12 3.01515 -4.84195 0
M  V30 12564 O 1183.05 1.36606 -5.86193 0
M  V30 12565 H 1186.88 -0.324482 -3.01962 0
M  V30 12566 H 1184.47 -0.224807 -1.47699 0
M  V30 12567 H 1186.35 2.0349 -3.69012 0
M  V30 12568 H 1185.02 2.06285 -2.49456 0
M  V30 12569 H 1183.93 0.108297 -3.73943 0
M  V30 12570 H 1185.26 0.162164 -4.91933 0
M  V30 12571 N 1186.91 1.56388 -0.195085 0
M  V30 12572 C 1188.16 1.9758 0.443686 0
M  V30 12573 C 1188.49 1.08196 1.61629 0
M  V30 12574 O 1187.74 0.121061 1.95325 0
M  V30 12575 C 1188.04 3.44651 0.946051 0
M  V30 12576 C 1187.71 4.50758 -0.11318 0
M  V30 12577 C 1186.37 4.79499 -0.404229 0
M  V30 12578 C 1188.72 5.14534 -0.830899 0
M  V30 12579 C 1186.05 5.69307 -1.41797 0
M  V30 12580 C 1188.4 6.05438 -1.83379 0
M  V30 12581 C 1187.07 6.32535 -2.13204 0
M  V30 12582 H 1186.34 0.722995 0.162356 0
M  V30 12583 H 1188.98 1.8926 -0.292049 0
M  V30 12584 H 1187.29 3.50042 1.76006 0
M  V30 12585 H 1188.99 3.73878 1.44969 0
M  V30 12586 H 1185.58 4.28421 0.123833 0
M  V30 12587 H 1189.76 4.92421 -0.61927 0
M  V30 12588 H 1185.02 5.88575 -1.65496 0
M  V30 12589 H 1189.19 6.53915 -2.39516 0
M  V30 12590 H 1186.82 7.01924 -2.91902 0
M  V30 12591 N 1188.39 -0.0785156 1.57404 0
M  V30 12592 C 1189.64 -0.778938 1.86919 0
M  V30 12593 C 1189.97 -1.77915 0.785906 0
M  V30 12594 O 1189.22 -1.94473 -0.218811 0
M  V30 12595 C 1189.52 -1.52826 3.23078 0
M  V30 12596 C 1189.19 -0.668645 4.45915 0
M  V30 12597 C 1187.85 -0.43173 4.79259 0
M  V30 12598 C 1190.2 -0.0721327 5.2115 0
M  V30 12599 C 1187.53 0.41129 5.85257 0
M  V30 12600 C 1189.88 0.758303 6.28039 0
M  V30 12601 C 1188.55 1.00515 6.59889 0
M  V30 12602 H 1187.82 -0.285034 0.683986 0
M  V30 12603 H 1190.46 -0.039906 1.91458 0
M  V30 12604 H 1188.77 -2.33931 3.14299 0
M  V30 12605 H 1190.46 -2.07488 3.43147 0
M  V30 12606 H 1187.05 -0.863424 4.19813 0
M  V30 12607 H 1191.24 -0.242297 4.95708 0
M  V30 12608 H 1186.49 0.611354 6.08336 0
M  V30 12609 H 1190.67 1.2273 6.855 0
M  V30 12610 H 1188.3 1.66017 7.41851 0
M  V30 12611 N 1189.87 -1.5367 -0.349747 0
M  V30 12612 C 1191.29 -1.43796 -0.692457 0
M  V30 12613 C 1191.49 -0.58972 -1.92677 0
M  V30 12614 O 1190.54 -0.078294 -2.52379 0
M  V30 12615 C 1191.86 -2.872 -0.890881 0
M  V30 12616 C 1193.4 -2.96935 -0.989892 0
M  V30 12617 C 1193.88 -4.41433 -1.22068 0
M  V30 12618 N 1195.37 -4.44932 -1.28802 0
M  V30 12619 C 1196.1 -5.53864 -1.48398 0
M  V30 12620 N 1195.6 -6.72814 -1.65208 0
M  V30 12621 N 1197.39 -5.41467 -1.50896 0
M  V30 12622 H 1189.54 -2.07317 0.461895 0
M  V30 12623 H 1191.81 -0.936895 0.144681 0
M  V30 12624 H 1191.51 -3.51656 -0.0555095 0
M  V30 12625 H 1191.39 -3.31784 -1.79442 0
M  V30 12626 H 1193.77 -2.32622 -1.81579 0
M  V30 12627 H 1193.86 -2.55721 -0.0633906 0
M  V30 12628 H 1193.5 -5.06325 -0.399729 0
M  V30 12629 H 1193.43 -4.80233 -2.16064 0
M  V30 12630 H 1195.92 -3.59214 -1.17361 0
M  V30 12631 H 1196.23 -7.51598 -1.79779 0
M  V30 12632 H 1194.58 -6.7577 -1.62356 0
M  V30 12633 H 1197.77 -4.47498 -1.37342 0
M  V30 12634 H 1197.94 -6.26423 -1.65826 0
M  V30 12635 N 1191.35 0.610423 -1.45298 0
M  V30 12636 C 1192.63 1.36966 -1.39641 0
M  V30 12637 C 1193.01 2.10998 -0.0655757 0
M  V30 12638 O 1192.35 2.07705 0.952407 0
M  V30 12639 C 1192.56 2.31885 -2.60826 0
M  V30 12640 C 1193.91 2.9458 -3.05791 0
M  V30 12641 O 1194.94 2.42207 -2.61179 0
M  V30 12642 O 1193.79 3.89639 -3.83202 0
M  V30 12643 H 1190.89 0.61401 -0.554004 0
M  V30 12644 H 1193.43 0.633748 -1.57422 0
M  V30 12645 H 1192.21 1.76421 -3.49272 0
M  V30 12646 H 1191.83 3.12861 -2.45364 0
M  V30 12647 N 1192.83 1.32541 0.852676 0
M  V30 12648 C 1193.76 1.17471 1.96807 0
M  V30 12649 C 1194.77 0.109198 1.62433 0
M  V30 12650 O 1195.96 0.358342 1.74866 0
M  V30 12651 C 1193.06 0.776328 3.29888 0
M  V30 12652 C 1192.23 1.93055 3.9249 0
M  V30 12653 C 1191.29 1.51539 5.03907 0
M  V30 12654 O 1190.32 2.22771 5.23796 0
M  V30 12655 N 1191.52 0.412533 5.79032 0
M  V30 12656 H 1194.29 2.13551 2.10276 0
M  V30 12657 H 1191.85 1.25104 1.02764 0
M  V30 12658 H 1193.84 0.48096 4.01832 0
M  V30 12659 H 1192.41 -0.0933749 3.12461 0
M  V30 12660 H 1191.63 2.39231 3.13309 0
M  V30 12661 H 1192.92 2.70321 4.3105 0
M  V30 12662 H 1192.31 -0.180286 5.65413 0
M  V30 12663 H 1190.87 0.17678 6.5156 0
M  V30 12664 N 1194.3 -1.0692 1.15784 0
M  V30 12665 C 1195.55 -1.79245 0.933581 0
M  V30 12666 C 1195.87 -1.87362 -0.540427 0
M  V30 12667 O 1195.14 -1.37769 -1.39271 0
M  V30 12668 H 1193.72 -0.663898 0.342416 0
M  V30 12669 H 1196.39 -1.29189 1.45932 0
M  V30 12670 H 1195.48 -2.81546 1.34679 0
M  V30 12671 N 1195.78 -0.955326 -1.25345 0
M  V30 12672 C 1197.2 -0.659863 -1.4532 0
M  V30 12673 C 1197.4 0.78238 -1.85691 0
M  V30 12674 O 1196.45 1.5576 -1.98734 0
M  V30 12675 C 1197.77 -1.63339 -2.5247 0
M  V30 12676 C 1199.32 -1.64464 -2.66309 0
M  V30 12677 C 1199.79 -2.60583 -3.76644 0
M  V30 12678 N 1201.28 -2.58951 -3.84055 0
M  V30 12679 C 1202.02 -3.30002 -4.6892 0
M  V30 12680 N 1201.51 -4.10528 -5.58067 0
M  V30 12681 N 1203.31 -3.18886 -4.62891 0
M  V30 12682 H 1195.46 -1.88734 -0.97433 0
M  V30 12683 H 1197.72 -0.811858 -0.48948 0
M  V30 12684 H 1197.43 -2.66358 -2.29665 0
M  V30 12685 H 1197.3 -1.39644 -3.50399 0
M  V30 12686 H 1199.69 -0.621622 -2.88479 0
M  V30 12687 H 1199.77 -1.92218 -1.68778 0
M  V30 12688 H 1199.41 -3.63011 -3.55226 0
M  V30 12689 H 1199.34 -2.30113 -4.73662 0
M  V30 12690 H 1201.83 -2.00491 -3.20331 0
M  V30 12691 H 1202.15 -4.6166 -6.1975 0
M  V30 12692 H 1200.49 -4.14626 -5.57773 0
M  V30 12693 H 1203.68 -2.55447 -3.92255 0
M  V30 12694 H 1203.85 -3.74524 -5.28806 0
M  V30 12695 N 1197.26 1.39987 -0.723979 0
M  V30 12696 C 1198.19 2.2917 -0.0373445 0
M  V30 12697 C 1199.21 1.46258 0.715015 0
M  V30 12698 O 1200.4 1.69455 0.561003 0
M  V30 12699 C 1197.5 3.2468 0.971384 0
M  V30 12700 C 1196.67 4.36485 0.282826 0
M  V30 12701 C 1195.73 5.12379 1.19811 0
M  V30 12702 O 1194.75 5.65127 0.67974 0
M  V30 12703 N 1195.96 5.22531 2.52866 0
M  V30 12704 H 1198.72 2.88738 -0.803131 0
M  V30 12705 H 1196.28 1.51448 -0.572292 0
M  V30 12706 H 1198.27 3.72326 1.58606 0
M  V30 12707 H 1196.84 2.6622 1.63846 0
M  V30 12708 H 1196.06 3.90859 -0.512167 0
M  V30 12709 H 1197.35 5.08427 -0.194793 0
M  V30 12710 H 1196.75 4.81174 2.97469 0
M  V30 12711 H 1195.31 5.73655 3.09457 0
M  V30 12712 N 1198.74 0.470782 1.50404 0
M  V30 12713 C 1199.97 -0.0820134 2.06737 0
M  V30 12714 C 1200.38 -1.33535 1.33468 0
M  V30 12715 O 1199.74 -1.77975 0.403872 0
M  V30 12716 C 1199.79 -0.370427 3.59597 0
M  V30 12717 O 1199.51 0.8332 4.30104 0
M  V30 12718 C 1201.01 -0.970222 4.32552 0
M  V30 12719 H 1198.23 0.00694502 0.670964 0
M  V30 12720 H 1200.78 0.659476 1.93575 0
M  V30 12721 H 1198.93 -1.06185 3.72563 0
M  V30 12722 H 1199.35 0.577614 5.2131 0
M  V30 12723 H 1200.82 -1.1218 5.40481 0
M  V30 12724 H 1201.3 -1.96024 3.93028 0
M  V30 12725 H 1201.9 -0.31719 4.24116 0
M  V30 12726 N 1200.22 -1.56282 0.203376 0
M  V30 12727 C 1201.45 -2.01905 -0.437936 0
M  V30 12728 C 1201.86 -1.08263 -1.55164 0
M  V30 12729 O 1201.2 -0.0811746 -1.83521 0
M  V30 12730 C 1201.26 -3.43908 -1.04725 0
M  V30 12731 C 1200.92 -4.56944 -0.0712582 0
M  V30 12732 C 1201.92 -5.14856 0.72243 0
M  V30 12733 C 1199.61 -5.02282 0.0422267 0
M  V30 12734 C 1201.6 -6.16562 1.61649 0
M  V30 12735 C 1199.29 -6.0383 0.939835 0
M  V30 12736 C 1200.29 -6.60844 1.72552 0
M  V30 12737 O 1199.97 -7.60417 2.60808 0
M  V30 12738 H 1199.71 -0.666416 -0.11343 0
M  V30 12739 H 1202.26 -2.03019 0.311833 0
M  V30 12740 H 1200.49 -3.39806 -1.84577 0
M  V30 12741 H 1202.18 -3.73288 -1.59407 0
M  V30 12742 H 1202.94 -4.80691 0.645105 0
M  V30 12743 H 1198.82 -4.57596 -0.559165 0
M  V30 12744 H 1202.37 -6.6099 2.23019 0
M  V30 12745 H 1198.26 -6.37418 1.01824 0
M  V30 12746 H 1199.03 -7.77869 2.54679 0
M  V30 12747 N 1201.7 0.070167 -1.57444 0
M  V30 12748 C 1202.63 1.08351 -2.06839 0
M  V30 12749 C 1203.61 1.40269 -0.962224 0
M  V30 12750 O 1204.79 1.49867 -1.23505 0
M  V30 12751 C 1201.92 2.39649 -2.51368 0
M  V30 12752 C 1200.88 2.22079 -3.65875 0
M  V30 12753 C 1200.2 3.58776 -3.96464 0
M  V30 12754 C 1201.5 1.64069 -4.95862 0
M  V30 12755 H 1203.2 0.672465 -2.9175 0
M  V30 12756 H 1200.74 0.322027 -1.40353 0
M  V30 12757 H 1202.69 3.10833 -2.84537 0
M  V30 12758 H 1201.42 2.82736 -1.63487 0
M  V30 12759 H 1200.08 1.53337 -3.32992 0
M  V30 12760 H 1199.73 3.99436 -3.05712 0
M  V30 12761 H 1199.43 3.47859 -4.7357 0
M  V30 12762 H 1200.95 4.31387 -4.32131 0
M  V30 12763 H 1202.36 2.2512 -5.27251 0
M  V30 12764 H 1200.76 1.63843 -5.773 0
M  V30 12765 H 1201.83 0.60232 -4.81145 0
M  V30 12766 N 1203.17 1.53854 0.341593 0
M  V30 12767 C 1204.58 1.62623 0.917093 0
M  V30 12768 C 1204.94 0.508781 1.89488 0
M  V30 12769 O 1204.06 -0.361171 2.13365 0
M  V30 12770 C 1204.66 2.94775 1.67012 0
M  V30 12771 C 1203.21 3.058 2.19461 0
M  V30 12772 C 1202.36 2.58082 1.01433 0
M  V30 12773 H 1205.31 1.58248 0.119674 0
M  V30 12774 H 1205.33 2.83924 2.53313 0
M  V30 12775 H 1204.85 3.76085 0.958221 0
M  V30 12776 H 1202.95 2.29128 2.93821 0
M  V30 12777 H 1203.06 4.11302 2.45698 0
M  V30 12778 H 1201.42 2.13537 1.38831 0
M  V30 12779 H 1202.21 3.41833 0.317033 0
M  V30 12780 N 1204.65 -0.602709 1.4562 0
M  V30 12781 C 1205.58 -1.7271 1.50678 0
M  V30 12782 C 1206.6 -1.57884 0.397048 0
M  V30 12783 O 1207.79 -1.65676 0.664367 0
M  V30 12784 C 1204.89 -3.10762 1.35204 0
M  V30 12785 C 1204.06 -3.51782 2.59939 0
M  V30 12786 C 1203.12 -4.68816 2.38952 0
M  V30 12787 O 1202.14 -4.75686 3.12588 0
M  V30 12788 N 1203.35 -5.624 1.43827 0
M  V30 12789 H 1206.11 -1.68833 2.47619 0
M  V30 12790 H 1203.67 -0.788131 1.41422 0
M  V30 12791 H 1205.66 -3.86819 1.18967 0
M  V30 12792 H 1204.23 -3.09119 0.465203 0
M  V30 12793 H 1203.45 -2.65637 2.91257 0
M  V30 12794 H 1204.74 -3.75948 3.42842 0
M  V30 12795 H 1204.14 -5.59568 0.830669 0
M  V30 12796 H 1202.7 -6.37969 1.33561 0
M  V30 12797 N 1206.13 -1.32992 -0.845635 0
M  V30 12798 C 1207.54 -1.21616 -1.41656 0
M  V30 12799 C 1207.89 0.167687 -1.95482 0
M  V30 12800 O 1207.02 1.06692 -1.8827 0
M  V30 12801 C 1207.61 -2.2018 -2.575 0
M  V30 12802 C 1206.17 -2.12664 -3.10565 0
M  V30 12803 C 1205.32 -2.08042 -1.83341 0
M  V30 12804 H 1208.27 -1.44688 -0.651993 0
M  V30 12805 H 1208.29 -1.80558 -3.34931 0
M  V30 12806 H 1207.8 -3.20888 -2.18294 0
M  V30 12807 H 1205.9 -1.15235 -3.54333 0
M  V30 12808 H 1206.02 -3.02902 -3.71197 0
M  V30 12809 H 1204.38 -1.53416 -2.03312 0
M  V30 12810 H 1205.16 -3.10547 -1.46339 0
M  V30 12811 N 1207.61 1.06304 -1.1635 0
M  V30 12812 C 1208.57 2.11947 -0.872419 0
M  V30 12813 C 1209.57 1.60253 0.132534 0
M  V30 12814 O 1210.76 1.73922 -0.0983441 0
M  V30 12815 C 1207.89 3.39536 -0.304646 0
M  V30 12816 H 1209.09 2.39201 -1.80894 0
M  V30 12817 H 1206.64 1.22367 -0.972419 0
M  V30 12818 H 1207.37 3.17931 0.639565 0
M  V30 12819 H 1207.16 3.78363 -1.02878 0
M  V30 12820 H 1208.65 4.17431 -0.118936 0
M  V30 12821 N 1209.09 0.96196 1.24836 0
M  V30 12822 C 1210.33 0.616342 1.92052 0
M  V30 12823 C 1210.65 -0.851601 1.76088 0
M  V30 12824 O 1211.85 -1.3075 2.37943 0
M  V30 12825 C 1210.31 1.05168 3.44191 0
M  V30 12826 C 1209.92 2.54268 3.68852 0
M  V30 12827 C 1211.66 0.778938 4.17292 0
M  V30 12828 C 1209.57 2.91564 5.14533 0
M  V30 12829 H 1208.5 0.22681 0.719078 0
M  V30 12830 H 1211.15 1.1674 1.41577 0
M  V30 12831 H 1209.53 0.428979 3.9367 0
M  V30 12832 H 1210.71 3.21619 3.29997 0
M  V30 12833 H 1209.02 2.79091 3.09026 0
M  V30 12834 H 1211.62 1.03366 5.24614 0
M  V30 12835 H 1211.96 -0.284772 4.15325 0
M  V30 12836 H 1212.49 1.36233 3.73745 0
M  V30 12837 H 1209.23 3.96982 5.21618 0
M  V30 12838 H 1208.75 2.28892 5.54408 0
M  V30 12839 H 1210.43 2.81155 5.82718 0
M  V30 12840 N 1210.56 -1.39601 0.731392 0
M  V30 12841 C 1211.8 -2.0244 0.282387 0
M  V30 12842 C 1212.17 -1.56776 -1.10839 0
M  V30 12843 O 1213.37 -2.11788 -1.65527 0
M  V30 12844 C 1211.64 -3.55409 0.376704 0
M  V30 12845 S 1213.2 -4.38799 0.00700932 0
M  V30 12846 H 1210.02 -0.7023 0.110886 0
M  V30 12847 H 1212.62 -1.70469 0.957111 0
M  V30 12848 H 1211.32 -3.86134 1.39027 0
M  V30 12849 H 1210.85 -3.92129 -0.315963 0
M  V30 12850 H 1212.87 -4.81213 -1.21032 0
M  V30 12851 N 1212.04 -0.478751 -1.50152 0
M  V30 12852 C 1213.45 -0.0254907 -1.86683 0
M  V30 12853 C 1213.8 1.38171 -1.39295 0
M  V30 12854 O 1212.93 2.0257 -0.761207 0
M  V30 12855 C 1213.52 -0.0394819 -3.38777 0
M  V30 12856 C 1212.08 0.35834 -3.7469 0
M  V30 12857 C 1211.23 -0.421667 -2.74075 0
M  V30 12858 H 1214.18 -0.692653 -1.42787 0
M  V30 12859 H 1214.2 0.760957 -3.72813 0
M  V30 12860 H 1213.71 -1.06378 -3.73236 0
M  V30 12861 H 1211.82 1.38671 -3.45834 0
M  V30 12862 H 1211.93 0.0543589 -4.79069 0
M  V30 12863 H 1210.29 0.125634 -2.5439 0
M  V30 12864 H 1211.08 -1.44562 -3.11379 0
M  V30 12865 N 1213.52 1.56172 -0.211661 0
M  V30 12866 C 1214.8 1.8984 0.471195 0
M  V30 12867 C 1215.18 1.1276 1.78461 0
M  V30 12868 O 1214.53 0.233817 2.27301 0
M  V30 12869 C 1214.74 3.42434 0.673814 0
M  V30 12870 C 1216.08 4.13 0.985719 0
M  V30 12871 O 1217.11 3.47977 0.760953 0
M  V30 12872 O 1215.97 5.2795 1.41176 0
M  V30 12873 H 1213.06 0.789008 0.247782 0
M  V30 12874 H 1215.61 1.67802 -0.25311 0
M  V30 12875 H 1214.38 3.90481 -0.253034 0
M  V30 12876 H 1214 3.70218 1.44997 0
M  V30 12877 N 1215 -0.0618163 1.57479 0
M  V30 12878 C 1216.22 -0.775513 1.92355 0
M  V30 12879 C 1216.65 -1.69816 0.808949 0
M  V30 12880 O 1216.01 -1.79736 -0.23761 0
M  V30 12881 C 1216.05 -1.5367 3.26218 0
M  V30 12882 O 1215.16 -2.64802 3.16155 0
M  V30 12883 H 1214.5 -0.210909 0.629614 0
M  V30 12884 H 1217.03 -0.0270752 2.04582 0
M  V30 12885 H 1217.04 -1.91379 3.6033 0
M  V30 12886 H 1215.71 -0.859798 4.06916 0
M  V30 12887 H 1214.29 -2.29876 2.93618 0
M  V30 12888 N 1216.48 -1.54033 -0.333429 0
M  V30 12889 C 1217.72 -1.72019 -1.07411 0
M  V30 12890 C 1218.06 -0.487265 -1.87988 0
M  V30 12891 O 1217.33 0.515757 -1.87537 0
M  V30 12892 C 1217.61 -2.98986 -2.00698 0
M  V30 12893 C 1217.47 -4.32509 -1.23517 0
M  V30 12894 C 1218.79 -3.21663 -3.00368 0
M  V30 12895 H 1215.9 -0.625919 -0.389094 0
M  V30 12896 H 1218.55 -1.86717 -0.351697 0
M  V30 12897 H 1216.7 -2.86586 -2.62298 0
M  V30 12898 H 1218.37 -4.56775 -0.644522 0
M  V30 12899 H 1216.61 -4.3046 -0.537298 0
M  V30 12900 H 1217.28 -5.17547 -1.91962 0
M  V30 12901 H 1219.76 -3.33459 -2.48886 0
M  V30 12902 H 1218.63 -4.11877 -3.62834 0
M  V30 12903 H 1218.9 -2.3843 -3.72295 0
M  V30 12904 N 1217.95 0.594978 -1.45938 0
M  V30 12905 C 1219.18 1.37794 -1.53936 0
M  V30 12906 C 1219.59 1.88388 -0.175091 0
M  V30 12907 O 1218.94 1.63587 0.835757 0
M  V30 12908 C 1219 2.60906 -2.47322 0
M  V30 12909 C 1218.66 2.31865 -3.93812 0
M  V30 12910 C 1219.66 1.91451 -4.83366 0
M  V30 12911 C 1217.34 2.44387 -4.3884 0
M  V30 12912 C 1219.34 1.63938 -6.15957 0
M  V30 12913 C 1217.02 2.16487 -5.71469 0
M  V30 12914 C 1218.02 1.76326 -6.59847 0
M  V30 12915 O 1217.71 1.4876 -7.90016 0
M  V30 12916 H 1217.44 0.42775 -0.523456 0
M  V30 12917 H 1220 0.731487 -1.91933 0
M  V30 12918 H 1218.23 3.28315 -2.04319 0
M  V30 12919 H 1219.92 3.22964 -2.45863 0
M  V30 12920 H 1220.68 1.81301 -4.49839 0
M  V30 12921 H 1216.56 2.74612 -3.70283 0
M  V30 12922 H 1220.1 1.32516 -6.84898 0
M  V30 12923 H 1216 2.26257 -6.04548 0
M  V30 12924 H 1216.77 1.62708 -8.02165 0
M  V30 12925 N 1219.43 1.33438 0.838571 0
M  V30 12926 C 1220.38 1.23717 1.94841 0
M  V30 12927 C 1221.35 0.11573 1.65696 0
M  V30 12928 O 1222.53 0.294051 1.8852 0
M  V30 12929 C 1219.67 0.982626 3.30815 0
M  V30 12930 C 1218.79 2.19036 3.72354 0
M  V30 12931 C 1217.92 1.86995 4.97199 0
M  V30 12932 C 1216.96 3.03998 5.31274 0
M  V30 12933 N 1216.1 2.71943 6.47295 0
M  V30 12934 H 1220.94 2.18639 2.02487 0
M  V30 12935 H 1218.48 1.08721 0.990861 0
M  V30 12936 H 1220.43 0.81548 4.09152 0
M  V30 12937 H 1219.06 0.0701443 3.22724 0
M  V30 12938 H 1218.12 2.46724 2.89537 0
M  V30 12939 H 1219.43 3.06505 3.93518 0
M  V30 12940 H 1218.58 1.66925 5.83285 0
M  V30 12941 H 1217.32 0.967628 4.78004 0
M  V30 12942 H 1216.33 3.24681 4.43692 0
M  V30 12943 H 1217.55 3.94985 5.52416 0
M  V30 12944 H 1215.5 1.8427 6.29588 0
M  V30 12945 H 1215.41 3.52943 6.68556 0
M  V30 12946 H 1216.68 2.55342 7.36492 0
M  V30 12947 N 1220.91 -1.05686 1.16912 0
M  V30 12948 C 1221.84 -2.15268 0.904532 0
M  V30 12949 C 1222.82 -1.69424 -0.151548 0
M  V30 12950 O 1224.01 -1.942 -0.00235371 0
M  V30 12951 C 1221.14 -3.44853 0.411581 0
M  V30 12952 C 1220.09 -4.04237 1.40628 0
M  V30 12953 C 1219.42 -5.29105 0.771479 0
M  V30 12954 C 1220.72 -4.42303 2.77787 0
M  V30 12955 H 1222.41 -2.37659 1.82094 0
M  V30 12956 H 1219.96 -1.14217 0.876947 0
M  V30 12957 H 1221.91 -4.20857 0.213929 0
M  V30 12958 H 1220.63 -3.22099 -0.540352 0
M  V30 12959 H 1219.29 -3.30297 1.59058 0
M  V30 12960 H 1218.94 -5.02652 -0.187133 0
M  V30 12961 H 1218.64 -5.69797 1.43545 0
M  V30 12962 H 1220.16 -6.07801 0.583988 0
M  V30 12963 H 1221.58 -5.09362 2.63103 0
M  V30 12964 H 1219.98 -4.93997 3.40716 0
M  V30 12965 H 1221.05 -3.52877 3.32575 0
M  V30 12966 N 1222.39 -0.968567 -1.24324 0
M  V30 12967 C 1223.32 -0.444065 -2.23838 0
M  V30 12968 C 1224.3 0.482311 -1.55282 0
M  V30 12969 O 1225.48 0.413489 -1.83909 0
M  V30 12970 C 1222.61 0.358874 -3.36793 0
M  V30 12971 C 1221.66 -0.509913 -4.23441 0
M  V30 12972 S 1222.49 -1.95064 -4.98708 0
M  V30 12973 C 1223.65 -1.15652 -6.15122 0
M  V30 12974 H 1223.88 -1.28738 -2.67981 0
M  V30 12975 H 1221.41 -0.773665 -1.33618 0
M  V30 12976 H 1223.37 0.816164 -4.02305 0
M  V30 12977 H 1222.03 1.17717 -2.91207 0
M  V30 12978 H 1221.22 0.106617 -5.03887 0
M  V30 12979 H 1220.83 -0.902967 -3.62936 0
M  V30 12980 H 1223.12 -0.411966 -6.76246 0
M  V30 12981 H 1224.06 -1.93539 -6.81137 0
M  V30 12982 H 1224.47 -0.680507 -5.60383 0
M  V30 12983 N 1223.87 1.39211 -0.738786 0
M  V30 12984 C 1224.8 2.33209 -0.11647 0
M  V30 12985 C 1225.78 1.54108 0.720056 0
M  V30 12986 O 1226.96 1.82486 0.664264 0
M  V30 12987 C 1224.09 3.38226 0.78872 0
M  V30 12988 C 1223.05 4.27963 0.0560636 0
M  V30 12989 C 1222.37 5.2371 1.07852 0
M  V30 12990 C 1223.67 5.10508 -1.1036 0
M  V30 12991 H 1225.37 2.85501 -0.901649 0
M  V30 12992 H 1222.91 1.37272 -0.435032 0
M  V30 12993 H 1224.87 4.02938 1.23364 0
M  V30 12994 H 1223.59 2.84382 1.60606 0
M  V30 12995 H 1222.25 3.64735 -0.369274 0
M  V30 12996 H 1221.9 4.66161 1.88953 0
M  V30 12997 H 1221.6 5.846 0.593048 0
M  V30 12998 H 1223.12 5.91299 1.52307 0
M  V30 12999 H 1224.53 5.68544 -0.736943 0
M  V30 13000 H 1222.93 5.80558 -1.51895 0
M  V30 13001 H 1224 4.45117 -1.92352 0
M  V30 13002 N 1225.34 0.486708 1.49896 0
M  V30 13003 C 1226.57 -0.0622999 2.07306 0
M  V30 13004 C 1226.99 -1.31353 1.3464 0
M  V30 13005 O 1226.35 -1.76861 0.398752 0
M  V30 13006 C 1226.4 -0.313481 3.59235 0
M  V30 13007 O 1225.5 -1.39101 3.88233 0
M  V30 13008 H 1224.85 0.0198885 0.663702 0
M  V30 13009 H 1227.38 0.682232 1.92891 0
M  V30 13010 H 1227.39 -0.549302 4.04285 0
M  V30 13011 H 1226.06 0.600767 4.11538 0
M  V30 13012 H 1224.64 -1.14127 3.55006 0
M  V30 13013 N 1226.82 -1.56058 0.219941 0
M  V30 13014 C 1228.06 -2.00162 -0.414063 0
M  V30 13015 C 1228.43 -1.10432 -1.57063 0
M  V30 13016 O 1229.63 -1.43877 -2.27053 0
M  V30 13017 C 1227.9 -3.47411 -0.839084 0
M  V30 13018 S 1229.46 -4.13536 -1.46742 0
M  V30 13019 H 1226.28 -0.698738 -0.131475 0
M  V30 13020 H 1228.88 -1.92714 0.32885 0
M  V30 13021 H 1227.58 -4.10398 0.0123666 0
M  V30 13022 H 1227.11 -3.58728 -1.61485 0
M  V30 13023 H 1229.13 -4.12592 -2.75648 0
M  V30 13024 N 1228.3 0.053464 -1.57509 0
M  V30 13025 C 1229.55 0.744867 -1.8927 0
M  V30 13026 C 1229.9 1.74249 -0.815791 0
M  V30 13027 O 1229.2 1.9077 0.178187 0
M  V30 13028 C 1229.39 1.47666 -3.25468 0
M  V30 13029 C 1229.22 0.551427 -4.46306 0
M  V30 13030 C 1227.99 0.181517 -5.04974 0
M  V30 13031 C 1230.19 -0.159765 -5.14052 0
M  V30 13032 N 1228.17 -0.747526 -6.09332 0
M  V30 13033 C 1229.54 -0.94533 -6.12751 0
M  V30 13034 C 1231.59 -0.2293 -4.97372 0
M  V30 13035 C 1230.3 -1.794 -6.96569 0
M  V30 13036 C 1232.32 -1.065 -5.81732 0
M  V30 13037 C 1231.69 -1.83856 -6.79983 0
M  V30 13038 H 1227.78 0.247424 -0.741826 0
M  V30 13039 H 1230.37 0.00570542 -1.94699 0
M  V30 13040 H 1228.54 2.18643 -3.21014 0
M  V30 13041 H 1230.27 2.11852 -3.4482 0
M  V30 13042 H 1227.03 0.538408 -4.7053 0
M  V30 13043 H 1227.45 -1.20583 -6.66175 0
M  V30 13044 H 1232.09 0.354441 -4.21312 0
M  V30 13045 H 1229.81 -2.38864 -7.71991 0
M  V30 13046 H 1233.4 -1.12202 -5.70878 0
M  V30 13047 H 1232.28 -2.47479 -7.44126 0
M  V30 13048 N 1229.78 1.54207 0.325255 0
M  V30 13049 C 1231.2 1.44879 0.669492 0
M  V30 13050 C 1231.4 0.620298 1.91715 0
M  V30 13051 O 1230.45 0.118435 2.52222 0
M  V30 13052 C 1231.76 2.88581 0.845077 0
M  V30 13053 C 1233.31 2.98472 0.942527 0
M  V30 13054 C 1233.79 4.4332 1.15029 0
M  V30 13055 N 1235.28 4.46925 1.21707 0
M  V30 13056 C 1236.01 5.56155 1.39568 0
M  V30 13057 N 1235.51 6.75357 1.54483 0
M  V30 13058 N 1237.3 5.43799 1.42263 0
M  V30 13059 H 1229.45 2.06556 -0.494819 0
M  V30 13060 H 1231.72 0.934474 -0.159568 0
M  V30 13061 H 1231.42 3.517 -0.000442996 0
M  V30 13062 H 1231.3 3.34596 1.74141 0
M  V30 13063 H 1233.68 2.35481 1.77855 0
M  V30 13064 H 1233.76 2.5579 0.0226995 0
M  V30 13065 H 1233.41 5.06896 0.319127 0
M  V30 13066 H 1233.34 4.8361 2.08397 0
M  V30 13067 H 1235.83 3.61036 1.11632 0
M  V30 13068 H 1236.14 7.54363 1.67799 0
M  V30 13069 H 1234.49 6.78268 1.51584 0
M  V30 13070 H 1237.68 4.49627 1.30205 0
M  V30 13071 H 1237.85 6.28982 1.5584 0
M  V30 13072 N 1231.26 -0.58723 1.46251 0
M  V30 13073 C 1232.67 -0.910129 1.31106 0
M  V30 13074 C 1232.87 -1.99557 0.279141 0
M  V30 13075 O 1231.93 -2.50466 -0.319867 0
M  V30 13076 C 1233.24 -1.33177 2.69601 0
M  V30 13077 C 1234.79 -1.44486 2.77656 0
M  V30 13078 C 1235.27 -1.90018 4.16722 0
M  V30 13079 N 1236.76 -1.97219 4.19117 0
M  V30 13080 C 1237.49 -2.33714 5.23608 0
M  V30 13081 N 1236.99 -2.69034 6.3843 0
M  V30 13082 N 1238.78 -2.3423 5.10972 0
M  V30 13083 H 1230.93 0.12987 2.12003 0
M  V30 13084 H 1233.19 -0.00456718 0.947989 0
M  V30 13085 H 1232.9 -0.608243 3.464 0
M  V30 13086 H 1232.77 -2.29421 2.99409 0
M  V30 13087 H 1235.16 -2.15926 2.01147 0
M  V30 13088 H 1235.24 -0.465047 2.51537 0
M  V30 13089 H 1234.89 -1.19159 4.93724 0
M  V30 13090 H 1234.82 -2.88949 4.40245 0
M  V30 13091 H 1237.31 -1.72431 3.36268 0
M  V30 13092 H 1237.62 -2.95822 7.13939 0
M  V30 13093 H 1235.97 -2.66683 6.41798 0
M  V30 13094 H 1239.16 -2.06056 4.20308 0
M  V30 13095 H 1239.33 -2.62345 5.92519 0
M  V30 13096 N 1232.74 -1.33881 -0.831482 0
M  V30 13097 C 1234.01 -1.16346 -1.57236 0
M  V30 13098 C 1234.39 0.267304 -2.09401 0
M  V30 13099 O 1233.74 1.26742 -1.90128 0
M  V30 13100 C 1233.95 -2.21082 -2.70044 0
M  V30 13101 C 1235.3 -2.5562 -3.39033 0
M  V30 13102 O 1236.32 -2.19806 -2.80292 0
M  V30 13103 O 1235.18 -3.17106 -4.45091 0
M  V30 13104 H 1232.28 -0.450469 -0.693546 0
M  V30 13105 H 1234.82 -1.45487 -0.873597 0
M  V30 13106 H 1233.59 -3.17155 -2.2919 0
M  V30 13107 H 1233.22 -1.9307 -3.47577 0
M  V30 13108 N 1234.21 1.05064 -1.1747 0
M  V30 13109 C 1235.44 1.81761 -0.988464 0
M  V30 13110 C 1235.86 1.83028 0.463272 0
M  V30 13111 O 1235.21 1.25846 1.32171 0
M  V30 13112 C 1235.26 3.2782 -1.5237 0
M  V30 13113 O 1234.99 3.26726 -2.91859 0
M  V30 13114 C 1236.49 4.212 -1.38223 0
M  V30 13115 H 1233.71 0.572712 -0.349631 0
M  V30 13116 H 1236.25 1.32477 -1.55789 0
M  V30 13117 H 1234.41 3.7437 -0.996272 0
M  V30 13118 H 1234.82 4.18151 -3.16623 0
M  V30 13119 H 1236.29 5.2166 -1.80485 0
M  V30 13120 H 1236.77 4.37962 -0.329491 0
M  V30 13121 H 1237.38 3.80506 -1.89988 0
M  V30 13122 N 1235.69 0.975146 1.23809 0
M  V30 13123 C 1236.64 0.510761 2.25077 0
M  V30 13124 C 1237.61 -0.447605 1.59955 0
M  V30 13125 O 1238.79 -0.356318 1.87443 0
M  V30 13126 C 1235.93 -0.185755 3.446 0
M  V30 13127 C 1235.05 0.812254 4.24295 0
M  V30 13128 C 1234.18 0.0910835 5.31122 0
M  V30 13129 C 1233.22 1.07866 6.02521 0
M  V30 13130 N 1232.36 0.386995 7.01033 0
M  V30 13131 H 1237.2 1.37913 2.64166 0
M  V30 13132 H 1234.73 0.691184 1.2985 0
M  V30 13133 H 1236.69 -0.606341 4.1277 0
M  V30 13134 H 1235.32 -1.01803 3.06327 0
M  V30 13135 H 1234.37 1.35125 3.55592 0
M  V30 13136 H 1235.69 1.56502 4.73612 0
M  V30 13137 H 1234.84 -0.387129 6.05464 0
M  V30 13138 H 1233.58 -0.694324 4.82732 0
M  V30 13139 H 1232.58 1.56767 5.26976 0
M  V30 13140 H 1233.81 1.86464 6.52999 0
M  V30 13141 H 1231.76 -0.3793 6.54903 0
M  V30 13142 H 1231.67 1.0785 7.48268 0
M  V30 13143 H 1232.94 -0.0690036 7.79469 0
M  V30 13144 N 1237.17 -1.38817 0.746158 0
M  V30 13145 C 1238.12 -2.32373 0.102785 0
M  V30 13146 C 1239.11 -1.53638 -0.713556 0
M  V30 13147 O 1240.32 -1.69223 -0.613488 0
M  V30 13148 H 1236.69 -0.751861 0.0144405 0
M  V30 13149 H 1238.66 -2.84249 0.908032 0
M  V30 13150 C 1237.41 -3.38796 -0.781827 0
M  V30 13151 H 1236.74 -3.99467 -0.163057 0
M  V30 13152 H 1238.18 -4.06682 -1.19941 0
M  V30 13153 C 1236.63 -2.76756 -1.92113 0
M  V30 13154 O 1237.16 -2.65478 -3.0147 0
M  V30 13155 N 1235.37 -2.34676 -1.71392 0
M  V30 13156 H 1234.92 -2.44049 -0.824483 0
M  V30 13157 H 1234.88 -1.93508 -2.47794 0
M  V30 13158 N 1238.65 -0.49465 -1.49636 0
M  V30 13159 C 1240.06 -0.150217 -1.58892 0
M  V30 13160 C 1240.26 1.34485 -1.50053 0
M  V30 13161 O 1239.32 2.12026 -1.37118 0
M  V30 13162 C 1240.63 -0.721372 -2.91919 0
M  V30 13163 C 1242.18 -0.686908 -3.0537 0
M  V30 13164 C 1242.66 -1.23601 -4.41006 0
M  V30 13165 N 1244.15 -1.19644 -4.47481 0
M  V30 13166 C 1244.88 -1.59157 -5.50869 0
M  V30 13167 N 1244.38 -2.06232 -6.61393 0
M  V30 13168 N 1246.17 -1.50612 -5.41546 0
M  V30 13169 H 1238.32 -1.46675 -1.53624 0
M  V30 13170 H 1240.58 -0.608003 -0.727349 0
M  V30 13171 H 1240.29 -1.76964 -3.03935 0
M  V30 13172 H 1240.16 -0.178199 -3.76779 0
M  V30 13173 H 1242.55 0.352508 -2.92987 0
M  V30 13174 H 1242.63 -1.26716 -2.22209 0
M  V30 13175 H 1242.28 -2.27418 -4.5414 0
M  V30 13176 H 1242.21 -0.631765 -5.22797 0
M  V30 13177 H 1244.7 -0.851443 -3.68183 0
M  V30 13178 H 1245.01 -2.34469 -7.36372 0
M  V30 13179 H 1243.36 -2.10202 -6.6245 0
M  V30 13180 H 1246.55 -1.13659 -4.54092 0
M  V30 13181 H 1246.72 -1.8173 -6.21995 0
M  V30 13182 N 1240.13 1.55939 -0.228214 0
M  V30 13183 C 1241.54 1.84612 0.278417 0
M  V30 13184 C 1241.89 1.14973 1.58983 0
M  V30 13185 O 1241.01 0.421673 2.12252 0
M  V30 13186 C 1241.61 3.3491 0.511935 0
M  V30 13187 C 1240.17 3.63876 0.962861 0
M  V30 13188 C 1239.31 2.77284 0.0296246 0
M  V30 13189 H 1242.26 1.52149 -0.451245 0
M  V30 13190 H 1242.29 3.55477 1.35707 0
M  V30 13191 H 1241.8 3.85567 -0.442697 0
M  V30 13192 H 1239.9 3.18682 1.93062 0
M  V30 13193 H 1240.01 4.71809 0.832659 0
M  V30 13194 H 1238.38 2.48961 0.53763 0
M  V30 13195 H 1239.16 3.30742 -0.920044 0
M  V30 13196 N 1241.6 -0.0451101 1.57535 0
M  V30 13197 C 1242.83 -0.755068 1.93167 0
M  V30 13198 C 1243.25 -1.68949 0.826915 0
M  V30 13199 O 1242.61 -1.79978 -0.218534 0
M  V30 13200 C 1242.66 -1.50201 3.27829 0
M  V30 13201 O 1241.76 -2.61434 3.18945 0
M  V30 13202 H 1241.11 -0.204219 0.631815 0
M  V30 13203 H 1243.64 -0.00537504 2.04599 0
M  V30 13204 H 1243.65 -1.87547 3.6234 0
M  V30 13205 H 1242.32 -0.816591 4.07805 0
M  V30 13206 H 1240.9 -2.26749 2.96039 0
M  V30 13207 N 1243.08 -1.54377 -0.317073 0
M  V30 13208 C 1244.33 -1.72893 -1.05424 0
M  V30 13209 C 1244.66 -0.506082 -1.87801 0
M  V30 13210 O 1243.91 0.51213 -1.8888 0
M  V30 13211 C 1244.21 -2.96066 -2.00199 0
M  V30 13212 C 1243.88 -4.30551 -1.33927 0
M  V30 13213 C 1242.54 -4.67112 -1.15584 0
M  V30 13214 C 1244.89 -5.13986 -0.864158 0
M  V30 13215 C 1242.22 -5.84701 -0.483892 0
M  V30 13216 C 1244.57 -6.32264 -0.206006 0
M  V30 13217 C 1243.24 -6.67499 -0.0104849 0
M  V30 13218 H 1242.51 -0.63266 -0.385776 0
M  V30 13219 H 1245.15 -1.88623 -0.330722 0
M  V30 13220 H 1243.46 -2.7505 -2.79024 0
M  V30 13221 H 1245.15 -3.07586 -2.57278 0
M  V30 13222 H 1241.74 -4.0179 -1.49207 0
M  V30 13223 H 1245.93 -4.86252 -0.993635 0
M  V30 13224 H 1241.18 -6.10555 -0.32127 0
M  V30 13225 H 1245.36 -6.96192 0.170108 0
M  V30 13226 H 1242.99 -7.58472 0.512209 0
M  V30 13227 N 1244.56 0.579466 -1.4656 0
M  V30 13228 C 1245.49 1.70291 -1.53406 0
M  V30 13229 C 1246.51 1.57232 -0.422116 0
M  V30 13230 O 1247.69 1.64598 -0.69064 0
M  V30 13231 C 1244.79 3.08572 -1.40131 0
M  V30 13232 C 1243.97 3.47602 -2.65502 0
M  V30 13233 C 1243.03 4.64955 -2.4638 0
M  V30 13234 O 1242.05 4.70653 -3.20116 0
M  V30 13235 N 1243.25 5.60041 -1.52756 0
M  V30 13236 H 1246.02 1.64873 -2.50274 0
M  V30 13237 H 1243.58 0.765533 -1.42658 0
M  V30 13238 H 1245.57 3.84877 -1.25106 0
M  V30 13239 H 1244.14 3.0834 -0.514322 0
M  V30 13240 H 1243.36 2.60969 -2.95446 0
M  V30 13241 H 1244.65 3.70446 -3.48779 0
M  V30 13242 H 1244.05 5.58176 -0.919587 0
M  V30 13243 H 1242.61 6.35764 -1.43693 0
M  V30 13244 N 1246.04 1.3432 0.824371 0
M  V30 13245 C 1246.95 1.27847 1.96704 0
M  V30 13246 C 1247.96 0.18641 1.72999 0
M  V30 13247 O 1249.14 0.412623 1.97128 0
M  V30 13248 C 1246.21 1.03231 3.30975 0
M  V30 13249 C 1245.27 2.21579 3.67697 0
M  V30 13250 C 1244.5 1.98128 4.95561 0
M  V30 13251 O 1244.72 0.938798 5.62621 0
M  V30 13252 O 1243.66 2.85041 5.30128 0
M  V30 13253 H 1247.48 2.23974 2.05108 0
M  V30 13254 H 1245.07 1.14512 0.959554 0
M  V30 13255 H 1246.95 0.912784 4.11395 0
M  V30 13256 H 1245.62 0.101425 3.23541 0
M  V30 13257 H 1244.53 2.3909 2.87727 0
M  V30 13258 H 1245.86 3.13052 3.79815 0
M  V30 13259 N 1247.52 -1.0444 1.18026 0
M  V30 13260 C 1248.77 -1.7697 0.9677 0
M  V30 13261 C 1249.08 -1.88995 -0.503994 0
M  V30 13262 O 1250.28 -2.58342 -0.834968 0
M  V30 13263 C 1248.74 -3.1816 1.68232 0
M  V30 13264 C 1248.35 -3.14241 3.19307 0
M  V30 13265 C 1250.09 -3.95095 1.55244 0
M  V30 13266 C 1248 -4.50266 3.83425 0
M  V30 13267 H 1246.93 -0.663355 0.358436 0
M  V30 13268 H 1249.58 -1.17003 1.4136 0
M  V30 13269 H 1247.96 -3.78501 1.16418 0
M  V30 13270 H 1249.14 -2.63373 3.78115 0
M  V30 13271 H 1247.45 -2.50805 3.32394 0
M  V30 13272 H 1250.05 -4.95681 2.00511 0
M  V30 13273 H 1250.39 -4.13236 0.504125 0
M  V30 13274 H 1250.92 -3.4132 2.04317 0
M  V30 13275 H 1247.66 -4.37329 4.88286 0
M  V30 13276 H 1247.18 -5.01251 3.29404 0
M  V30 13277 H 1248.86 -5.1919 3.86071 0
M  V30 13278 N 1248.99 -0.981699 -1.2329 0
M  V30 13279 C 1249.94 -0.494116 -2.22581 0
M  V30 13280 C 1250.93 0.431573 -1.55004 0
M  V30 13281 O 1252.12 0.260215 -1.75077 0
M  V30 13282 C 1249.25 0.200884 -3.42712 0
M  V30 13283 C 1248.34 -0.744451 -4.17515 0
M  V30 13284 N 1248.73 -1.88762 -4.69257 0
M  V30 13285 C 1247.02 -0.558044 -4.42495 0
M  V30 13286 C 1247.73 -2.48006 -5.26182 0
M  V30 13287 N 1246.7 -1.76382 -5.14189 0
M  V30 13288 H 1250.5 -1.36616 -2.60218 0
M  V30 13289 H 1248.02 -0.842537 -1.38835 0
M  V30 13290 H 1250.01 0.567506 -4.13019 0
M  V30 13291 H 1248.67 1.0692 -3.06591 0
M  V30 13292 H 1249.69 -2.26877 -4.65561 0
M  V30 13293 H 1246.36 0.265139 -4.16657 0
M  V30 13294 H 1247.75 -3.44555 -5.76829 0
M  V30 13295 N 1250.47 1.3842 -0.753509 0
M  V30 13296 C 1251.4 2.33073 -0.141198 0
M  V30 13297 C 1252.38 1.54863 0.70367 0
M  V30 13298 O 1253.57 1.8318 0.644872 0
M  V30 13299 C 1250.7 3.39043 0.752802 0
M  V30 13300 C 1249.65 4.27999 0.0106692 0
M  V30 13301 C 1248.98 5.24824 1.02291 0
M  V30 13302 C 1250.28 5.09308 -1.15768 0
M  V30 13303 H 1251.97 2.84528 -0.93188 0
M  V30 13304 H 1249.52 1.36802 -0.449567 0
M  V30 13305 H 1251.47 4.04224 1.19083 0
M  V30 13306 H 1250.2 2.8607 1.57581 0
M  V30 13307 H 1248.85 3.64323 -0.407939 0
M  V30 13308 H 1248.5 4.68139 1.83998 0
M  V30 13309 H 1248.2 5.85196 0.53101 0
M  V30 13310 H 1249.73 5.92882 1.46026 0
M  V30 13311 H 1251.14 5.6773 -0.797203 0
M  V30 13312 H 1249.54 5.78914 -1.58044 0
M  V30 13313 H 1250.61 4.43051 -1.97062 0
M  V30 13314 N 1251.95 0.502579 1.49372 0
M  V30 13315 C 1252.88 -0.264307 2.31999 0
M  V30 13316 C 1253.86 -0.96107 1.40348 0
M  V30 13317 O 1255.05 -0.952167 1.69255 0
M  V30 13318 C 1252.18 -1.32822 3.20898 0
M  V30 13319 C 1251.13 -0.751236 4.21355 0
M  V30 13320 C 1250.46 -1.91578 4.99201 0
M  V30 13321 C 1251.76 0.258764 5.21659 0
M  V30 13322 H 1253.45 0.425391 2.96363 0
M  V30 13323 H 1251 0.206022 1.42519 0
M  V30 13324 H 1252.95 -1.87245 3.77515 0
M  V30 13325 H 1251.67 -2.04712 2.54481 0
M  V30 13326 H 1250.33 -0.228743 3.65886 0
M  V30 13327 H 1249.98 -2.62241 4.2923 0
M  V30 13328 H 1249.68 -1.53578 5.67175 0
M  V30 13329 H 1251.2 -2.46432 5.58663 0
M  V30 13330 H 1252.62 -0.197385 5.7296 0
M  V30 13331 H 1251.02 0.554681 5.97531 0
M  V30 13332 H 1252.09 1.1741 4.70471 0
M  V30 13333 N 1253.43 -1.55816 0.23648 0
M  V30 13334 C 1254.36 -2.23924 -0.661834 0
M  V30 13335 C 1255.34 -1.21597 -1.18946 0
M  V30 13336 O 1256.52 -1.50222 -1.23073 0
M  V30 13337 C 1253.65 -2.93069 -1.86355 0
M  V30 13338 C 1252.61 -4.01996 -1.46913 0
M  V30 13339 C 1251.93 -4.58512 -2.75083 0
M  V30 13340 C 1253.23 -5.18265 -0.647964 0
M  V30 13341 H 1254.93 -2.99253 -0.0939368 0
M  V30 13342 H 1252.47 -1.43934 -0.0437407 0
M  V30 13343 H 1254.43 -3.39412 -2.49755 0
M  V30 13344 H 1253.15 -2.15212 -2.45665 0
M  V30 13345 H 1251.81 -3.56406 -0.858522 0
M  V30 13346 H 1251.46 -3.77368 -3.3257 0
M  V30 13347 H 1251.16 -5.32037 -2.49421 0
M  V30 13348 H 1252.68 -5.07583 -3.39399 0
M  V30 13349 H 1254.1 -5.60898 -1.18602 0
M  V30 13350 H 1252.49 -5.98114 -0.487823 0
M  V30 13351 H 1253.56 -4.83691 0.342151 0
M  V30 13352 N 1254.91 0.036755 -1.57557 0
M  V30 13353 C 1255.84 1.03939 -2.09091 0
M  V30 13354 C 1256.82 1.38196 -0.991761 0
M  V30 13355 O 1258 1.47214 -1.26656 0
M  V30 13356 C 1255.13 2.34263 -2.56394 0
M  V30 13357 C 1254.09 2.14269 -3.70504 0
M  V30 13358 C 1253.41 3.50286 -4.03985 0
M  V30 13359 C 1254.71 1.53514 -4.9923 0
M  V30 13360 H 1256.41 0.610429 -2.93111 0
M  V30 13361 H 1253.95 0.292183 -1.41005 0
M  V30 13362 H 1255.91 3.04727 -2.91066 0
M  V30 13363 H 1254.63 2.79205 -1.69447 0
M  V30 13364 H 1253.29 1.46239 -3.36169 0
M  V30 13365 H 1252.94 3.92861 -3.14116 0
M  V30 13366 H 1252.64 3.37735 -4.80842 0
M  V30 13367 H 1254.16 4.22124 -4.41184 0
M  V30 13368 H 1255.57 2.13885 -5.31908 0
M  V30 13369 H 1253.97 1.51561 -5.80646 0
M  V30 13370 H 1255.04 0.500126 -4.82314 0
M  V30 13371 N 1256.39 1.54543 0.308881 0
M  V30 13372 C 1257.32 1.81309 1.40212 0
M  V30 13373 C 1258.33 0.69568 1.47187 0
M  V30 13374 O 1259.52 0.973034 1.49647 0
M  V30 13375 C 1256.62 1.92901 2.78644 0
M  V30 13376 C 1255.79 3.23222 2.94697 0
M  V30 13377 C 1254.85 3.25329 4.13579 0
M  V30 13378 O 1253.88 3.989 4.06039 0
M  V30 13379 N 1255.08 2.50158 5.23833 0
M  V30 13380 H 1257.84 2.75659 1.1761 0
M  V30 13381 H 1255.41 1.54021 0.498925 0
M  V30 13382 H 1257.4 1.91721 3.56406 0
M  V30 13383 H 1255.97 1.05582 2.9423 0
M  V30 13384 H 1255.19 3.37241 2.04113 0
M  V30 13385 H 1256.48 4.09238 3.02328 0
M  V30 13386 H 1255.87 1.90002 5.32838 0
M  V30 13387 H 1254.43 2.5474 5.99959 0
M  V30 13388 N 1257.86 -0.571685 1.46866 0
M  V30 13389 C 1258.8 -1.69475 1.54307 0
M  V30 13390 C 1259.81 -1.57006 0.430449 0
M  V30 13391 O 1261 -1.64229 0.69936 0
M  V30 13392 C 1258.1 -3.07824 1.41766 0
M  V30 13393 C 1257.27 -3.46189 2.67342 0
M  V30 13394 C 1256.33 -4.63642 2.48843 0
M  V30 13395 O 1255.36 -4.68949 3.22608 0
M  V30 13396 N 1256.56 -5.59223 1.55724 0
M  V30 13397 H 1259.32 -1.63543 2.51145 0
M  V30 13398 H 1256.88 -0.757957 1.43062 0
M  V30 13399 H 1258.88 -3.84208 1.27146 0
M  V30 13400 H 1257.45 -3.08063 0.530667 0
M  V30 13401 H 1256.67 -2.59399 2.96826 0
M  V30 13402 H 1257.95 -3.68591 3.50739 0
M  V30 13403 H 1257.35 -5.5768 0.949175 0
M  V30 13404 H 1255.91 -6.34993 1.47063 0
M  V30 13405 N 1259.34 -1.34755 -0.817236 0
M  V30 13406 C 1260.59 -1.2718 -1.57066 0
M  V30 13407 C 1260.91 0.156531 -1.94371 0
M  V30 13408 O 1260.18 1.09049 -1.62742 0
M  V30 13409 H 1258.76 -0.467755 -0.582421 0
M  V30 13410 H 1261.42 -1.68734 -0.975438 0
M  V30 13411 H 1260.52 -1.88043 -2.49091 0
M  V30 13412 N 1260.82 1.03812 -1.18578 0
M  V30 13413 C 1262.1 1.74062 -0.892288 0
M  V30 13414 C 1262.48 2.02267 0.604256 0
M  V30 13415 O 1261.82 1.66988 1.55972 0
M  V30 13416 C 1262.03 3.024 -1.74228 0
M  V30 13417 C 1263.38 3.76088 -1.97087 0
M  V30 13418 O 1264.41 3.12305 -1.71302 0
M  V30 13419 O 1263.27 4.90732 -2.40509 0
M  V30 13420 H 1260.36 0.757567 -0.331695 0
M  V30 13421 H 1262.91 1.09855 -1.29345 0
M  V30 13422 H 1261.68 2.77713 -2.75665 0
M  V30 13423 H 1261.3 3.74346 -1.3398 0
M  V30 13424 N 1262.3 0.988223 1.22768 0
M  V30 13425 C 1263.21 0.543407 2.2822 0
M  V30 13426 C 1264.22 -0.405563 1.69208 0
M  V30 13427 O 1265.4 -0.273551 1.99534 0
M  V30 13428 C 1262.46 -0.139495 3.46419 0
M  V30 13429 C 1261.53 0.851853 4.20764 0
M  V30 13430 C 1260.76 0.201446 5.3332 0
M  V30 13431 O 1260.98 -1.00573 5.61464 0
M  V30 13432 O 1259.92 0.903956 5.95073 0
M  V30 13433 H 1263.74 1.42059 2.68427 0
M  V30 13434 H 1261.33 0.756239 1.28846 0
M  V30 13435 H 1263.21 -0.522226 4.18152 0
M  V30 13436 H 1261.88 -0.991315 3.08147 0
M  V30 13437 H 1260.79 1.28543 3.51322 0
M  V30 13438 H 1262.12 1.67273 4.62905 0
M  V30 13439 O 1263.81 -1.34237 0.89792 0
M  V30 13440 H 1264.51 -1.8691 0.508347 0
M  V30 END ATOM
M  V30 BEGIN BOND
M  V30 END BOND
M  V30 END CTAB
M  END
$$$$
