drugbank_drug|DB08900 Protein sequence for teduglutide
 OpenBabel12092119123D

512516  0  0  0  0  0  0  0  0999 V2000
   -0.9080    1.9825   -0.1171 H   0  0  0  0  0 15  0  0  0  0  0  0
    0.0000    1.5760    0.0000 N   0  0  0  0  0 15  0  0  0  0  0  0
    0.9500    2.0490    0.9999 C   0  0  0  0  0 15  0  0  0  0  0  0
    1.9340    0.9438    1.3031 C   0  0  0  0  0 15  0  0  0  0  0  0
    3.1260    1.2075    1.2941 O   0  0  0  0  0 15  0  0  0  0  0  0
    0.2550    2.5559    2.2919 C   0  0  0  0  0 15  0  0  0  0  0  0
   -0.6590    3.7299    2.0183 C   0  0  0  0  0 15  0  0  0  0  0  0
   -0.2680    4.8468    1.4463 N   0  0  0  0  0 15  0  0  0  0  0  0
   -1.9700    3.8092    2.3198 C   0  0  0  0  0 15  0  0  0  0  0  0
   -1.2690    5.6612    1.3375 C   0  0  0  0  0 15  0  0  0  0  0  0
   -2.2930    5.1212    1.8231 N   0  0  0  0  0 15  0  0  0  0  0  0
    1.5090    2.8867    0.5522 H   0  0  0  0  0 15  0  0  0  0  0  0
   -0.9770    1.6109    0.2057 H   0  0  0  0  0 15  0  0  0  0  0  0
    1.0200    2.8775    3.0167 H   0  0  0  0  0 15  0  0  0  0  0  0
   -0.3200    1.7324    2.7462 H   0  0  0  0  0 15  0  0  0  0  0  0
    0.6910    5.0553    1.1252 H   0  0  0  0  0 15  0  0  0  0  0  0
   -2.6320    3.0943    2.8028 H   0  0  0  0  0 15  0  0  0  0  0  0
   -1.2420    6.6588    0.8977 H   0  0  0  0  0 15  0  0  0  0  0  0
    1.4781   -0.2728    1.5522 N   0  0  0  0  0 15  0  0  0  0  0  0
    2.7261   -1.0023    1.7549 C   0  0  0  0  0 15  0  0  0  0  0  0
    3.0471   -1.8681    0.5592 C   0  0  0  0  0 15  0  0  0  0  0  0
    2.3171   -1.9121   -0.4259 O   0  0  0  0  0 15  0  0  0  0  0  0
    0.8971   -0.3731    0.6472 H   0  0  0  0  0 15  0  0  0  0  0  0
    3.5591   -0.2969    1.9262 H   0  0  0  0  0 15  0  0  0  0  0  0
    2.6551   -1.6391    2.6559 H   0  0  0  0  0 15  0  0  0  0  0  0
    2.9562   -1.4816   -0.5373 N   0  0  0  0  0 15  0  0  0  0  0  0
    4.2332   -1.4629   -1.2984 C   0  0  0  0  0 15  0  0  0  0  0  0
    4.6132   -0.1706   -2.1041 C   0  0  0  0  0 15  0  0  0  0  0  0
    3.9612    0.8477   -2.1219 O   0  0  0  0  0 15  0  0  0  0  0  0
    4.1712   -2.7205   -2.1860 C   0  0  0  0  0 15  0  0  0  0  0  0
    5.5192   -3.2009   -2.7898 C   0  0  0  0  0 15  0  0  0  0  0  0
    6.5432   -2.7292   -2.2889 O   0  0  0  0  0 15  0  0  0  0  0  0
    5.4022   -4.0214   -3.7006 O   0  0  0  0  0 15  0  0  0  0  0  0
    2.4962   -0.5839   -0.5856 H   0  0  0  0  0 15  0  0  0  0  0  0
    5.0422   -1.6038   -0.5545 H   0  0  0  0  0 15  0  0  0  0  0  0
    3.8142   -3.5763   -1.5880 H   0  0  0  0  0 15  0  0  0  0  0  0
    3.4372   -2.6065   -3.0025 H   0  0  0  0  0 15  0  0  0  0  0  0
    4.4343    0.7856   -1.3662 N   0  0  0  0  0 15  0  0  0  0  0  0
    5.6823    1.5406   -1.3081 C   0  0  0  0  0 15  0  0  0  0  0  0
    6.0033    1.9468    0.1112 C   0  0  0  0  0 15  0  0  0  0  0  0
    5.2733    1.6524    1.0522 O   0  0  0  0  0 15  0  0  0  0  0  0
    3.8533    0.5714   -0.4812 H   0  0  0  0  0 15  0  0  0  0  0  0
    6.5153    0.9358   -1.7096 H   0  0  0  0  0 15  0  0  0  0  0  0
    5.6113    2.4464   -1.9380 H   0  0  0  0  0 15  0  0  0  0  0  0
    5.9124    1.2097    1.0102 N   0  0  0  0  0 15  0  0  0  0  0  0
    7.1374    1.0503    1.7884 C   0  0  0  0  0 15  0  0  0  0  0  0
    7.5624   -0.3958    1.8389 C   0  0  0  0  0 15  0  0  0  0  0  0
    6.9204   -1.2853    1.2787 O   0  0  0  0  0 15  0  0  0  0  0  0
    6.9684    1.6460    3.2084 C   0  0  0  0  0 15  0  0  0  0  0  0
    6.0724    0.8880    4.0273 O   0  0  0  0  0 15  0  0  0  0  0  0
    5.4134    0.3700    0.5514 H   0  0  0  0  0 15  0  0  0  0  0  0
    7.9434    1.6040    1.2702 H   0  0  0  0  0 15  0  0  0  0  0  0
    7.9534    1.6861    3.7153 H   0  0  0  0  0 15  0  0  0  0  0  0
    6.6284    2.6984    3.1648 H   0  0  0  0  0 15  0  0  0  0  0  0
    5.2054    0.9226    3.6131 H   0  0  0  0  0 15  0  0  0  0  0  0
    7.3905   -1.2043    1.0166 N   0  0  0  0  0 15  0  0  0  0  0  0
    8.6375   -1.8980    0.7059 C   0  0  0  0  0 15  0  0  0  0  0  0
    8.9655   -1.7885   -0.7644 C   0  0  0  0  0 15  0  0  0  0  0  0
    8.2205   -1.1669   -1.5710 O   0  0  0  0  0 15  0  0  0  0  0  0
    8.5195   -3.4046    1.0871 C   0  0  0  0  0 15  0  0  0  0  0  0
    8.1855   -3.7161    2.5537 C   0  0  0  0  0 15  0  0  0  0  0  0
    6.8475   -3.7983    2.9544 C   0  0  0  0  0 15  0  0  0  0  0  0
    9.1995   -3.8592    3.5031 C   0  0  0  0  0 15  0  0  0  0  0  0
    6.5275   -3.9980    4.2939 C   0  0  0  0  0 15  0  0  0  0  0  0
    8.8795   -4.0740    4.8395 C   0  0  0  0  0 15  0  0  0  0  0  0
    7.5435   -4.1384    5.2373 C   0  0  0  0  0 15  0  0  0  0  0  0
    6.8135   -0.6945    0.2583 H   0  0  0  0  0 15  0  0  0  0  0  0
    9.4605   -1.4269    1.2772 H   0  0  0  0  0 15  0  0  0  0  0  0
    7.7655   -3.8939    0.4343 H   0  0  0  0  0 15  0  0  0  0  0  0
    9.4625   -3.9243    0.8245 H   0  0  0  0  0 15  0  0  0  0  0  0
    6.0525   -3.6582    2.2332 H   0  0  0  0  0 15  0  0  0  0  0  0
   10.2365   -3.7893    3.2051 H   0  0  0  0  0 15  0  0  0  0  0  0
    5.4925   -4.0302    4.5977 H   0  0  0  0  0 15  0  0  0  0  0  0
    9.6665   -4.1740    5.5745 H   0  0  0  0  0 15  0  0  0  0  0  0
    7.2935   -4.2906    6.2754 H   0  0  0  0  0 15  0  0  0  0  0  0
    8.8686   -0.7928   -1.3621 N   0  0  0  0  0 15  0  0  0  0  0  0
   10.0936   -0.3777   -2.0393 C   0  0  0  0  0 15  0  0  0  0  0  0
   10.5186    0.9989   -1.5938 C   0  0  0  0  0 15  0  0  0  0  0  0
    9.8766    1.6442   -0.7639 O   0  0  0  0  0 15  0  0  0  0  0  0
    9.9246   -0.4536   -3.5774 C   0  0  0  0  0 15  0  0  0  0  0  0
    9.0286    0.5382   -4.0887 O   0  0  0  0  0 15  0  0  0  0  0  0
    8.3696   -0.1599   -0.6445 H   0  0  0  0  0 15  0  0  0  0  0  0
   10.8996   -1.0749   -1.7409 H   0  0  0  0  0 15  0  0  0  0  0  0
   10.9096   -0.3185   -4.0676 H   0  0  0  0  0 15  0  0  0  0  0  0
    9.5846   -1.4578   -3.8951 H   0  0  0  0  0 15  0  0  0  0  0  0
    8.1616    0.3644   -3.7112 H   0  0  0  0  0 15  0  0  0  0  0  0
   10.3467    1.4787   -0.5451 N   0  0  0  0  0 15  0  0  0  0  0  0
   11.6237    1.9554    0.0485 C   0  0  0  0  0 15  0  0  0  0  0  0
   12.0037    1.4876    1.4978 C   0  0  0  0  0 15  0  0  0  0  0  0
   11.3517    0.7209    2.1683 O   0  0  0  0  0 15  0  0  0  0  0  0
   11.5617    3.4890   -0.0844 C   0  0  0  0  0 15  0  0  0  0  0  0
   12.9097    4.2455    0.0671 C   0  0  0  0  0 15  0  0  0  0  0  0
   13.9337    3.5620   -0.0114 O   0  0  0  0  0 15  0  0  0  0  0  0
   12.7927    5.4600    0.2339 O   0  0  0  0  0 15  0  0  0  0  0  0
    9.8867    0.8240    0.0709 H   0  0  0  0  0 15  0  0  0  0  0  0
   12.4327    1.5833   -0.6108 H   0  0  0  0  0 15  0  0  0  0  0  0
   11.2047    3.7571   -1.0934 H   0  0  0  0  0 15  0  0  0  0  0  0
   10.8277    3.9285    0.6131 H   0  0  0  0  0 15  0  0  0  0  0  0
   11.8248    0.2810    1.5507 N   0  0  0  0  0 15  0  0  0  0  0  0
   12.7348   -0.6139    2.2643 C   0  0  0  0  0 15  0  0  0  0  0  0
   13.7508   -1.1652    1.2922 C   0  0  0  0  0 15  0  0  0  0  0  0
   14.9268   -1.1943    1.6217 O   0  0  0  0  0 15  0  0  0  0  0  0
   11.9918   -1.7788    2.9759 C   0  0  0  0  0 15  0  0  0  0  0  0
   11.0528   -1.2636    4.1028 C   0  0  0  0  0 15  0  0  0  0  0  0
   10.2858   -2.3730    4.7804 C   0  0  0  0  0 15  0  0  0  0  0  0
   10.5088   -3.5678    4.4505 O   0  0  0  0  0 15  0  0  0  0  0  0
    9.4428   -2.0512    5.6587 O   0  0  0  0  0 15  0  0  0  0  0  0
   13.2688   -0.0357    3.0368 H   0  0  0  0  0 15  0  0  0  0  0  0
   10.8538    0.0482    1.4932 H   0  0  0  0  0 15  0  0  0  0  0  0
   12.7358   -2.4579    3.4229 H   0  0  0  0  0 15  0  0  0  0  0  0
   11.4108   -2.3440    2.2325 H   0  0  0  0  0 15  0  0  0  0  0  0
   10.3178   -0.5507    3.7002 H   0  0  0  0  0 15  0  0  0  0  0  0
   11.6508   -0.7441    4.8654 H   0  0  0  0  0 15  0  0  0  0  0  0
   13.3029   -1.5760    0.0084 N   0  0  0  0  0 15  0  0  0  0  0  0
   14.2359   -2.0441   -1.0145 C   0  0  0  0  0 15  0  0  0  0  0  0
   15.2139   -0.9356   -1.3299 C   0  0  0  0  0 15  0  0  0  0  0  0
   16.3979   -1.2044   -1.4501 O   0  0  0  0  0 15  0  0  0  0  0  0
   13.5249   -2.4487   -2.3400 C   0  0  0  0  0 15  0  0  0  0  0  0
   12.5709   -3.6654   -2.1807 C   0  0  0  0  0 15  0  0  0  0  0  0
   13.4039   -5.1409   -1.4989 S   0  0  0  0  0 15  0  0  0  0  0  0
   14.5599   -5.5783   -2.8385 C   0  0  0  0  0 15  0  0  0  0  0  0
   14.7929   -2.9085   -0.6160 H   0  0  0  0  0 15  0  0  0  0  0  0
   12.3259   -1.5306   -0.2028 H   0  0  0  0  0 15  0  0  0  0  0  0
   14.2839   -2.6885   -3.1021 H   0  0  0  0  0 15  0  0  0  0  0  0
   12.9449   -1.5882   -2.7099 H   0  0  0  0  0 15  0  0  0  0  0  0
   12.1379   -3.9263   -3.1601 H   0  0  0  0  0 15  0  0  0  0  0  0
   11.7399   -3.4260   -1.5000 H   0  0  0  0  0 15  0  0  0  0  0  0
   14.0319   -5.6081   -3.8014 H   0  0  0  0  0 15  0  0  0  0  0  0
   14.9749   -6.5767   -2.6245 H   0  0  0  0  0 15  0  0  0  0  0  0
   15.3829   -4.8542   -2.8814 H   0  0  0  0  0 15  0  0  0  0  0  0
   14.7810    0.2645   -1.5536 N   0  0  0  0  0 15  0  0  0  0  0  0
   15.7290    1.3470   -1.8963 C   0  0  0  0  0 15  0  0  0  0  0  0
   16.7230    1.5071   -0.7735 C   0  0  0  0  0 15  0  0  0  0  0  0
   17.9290    1.5240   -0.9579 O   0  0  0  0  0 15  0  0  0  0  0  0
   14.3040    0.4507   -0.6020 H   0  0  0  0  0 15  0  0  0  0  0  0
   16.2750    1.0306   -2.8004 H   0  0  0  0  0 15  0  0  0  0  0  0
   15.0240    2.6989   -2.1921 C   0  0  0  0  0 15  0  0  0  0  0  0
   14.3470    2.5836   -3.0510 H   0  0  0  0  0 15  0  0  0  0  0  0
   15.7870    3.4455   -2.4710 H   0  0  0  0  0 15  0  0  0  0  0  0
   14.2460    3.2164   -1.0025 C   0  0  0  0  0 15  0  0  0  0  0  0
   14.7760    4.0097   -0.2415 O   0  0  0  0  0 15  0  0  0  0  0  0
   12.9820    2.7943   -0.7979 N   0  0  0  0  0 15  0  0  0  0  0  0
   12.5290    2.1503   -1.4185 H   0  0  0  0  0 15  0  0  0  0  0  0
   12.4870    3.1440   -0.0036 H   0  0  0  0  0 15  0  0  0  0  0  0
   16.2591    1.4844    0.5294 N   0  0  0  0  0 15  0  0  0  0  0  0
   17.4871    1.6015    1.3099 C   0  0  0  0  0 15  0  0  0  0  0  0
   17.9021    0.2620    1.8697 C   0  0  0  0  0 15  0  0  0  0  0  0
   17.2591   -0.7488    1.6643 O   0  0  0  0  0 15  0  0  0  0  0  0
   17.3101    2.6485    2.4604 C   0  0  0  0  0 15  0  0  0  0  0  0
   17.0311    3.9361    1.9236 O   0  0  0  0  0 15  0  0  0  0  0  0
   18.5321    2.8701    3.3785 C   0  0  0  0  0 15  0  0  0  0  0  0
   15.7521    0.5400    0.3983 H   0  0  0  0  0 15  0  0  0  0  0  0
   18.2961    1.9427    0.6386 H   0  0  0  0  0 15  0  0  0  0  0  0
   16.4511    2.3359    3.0906 H   0  0  0  0  0 15  0  0  0  0  0  0
   16.8651    4.5105    2.6768 H   0  0  0  0  0 15  0  0  0  0  0  0
   18.3391    3.6407    4.1492 H   0  0  0  0  0 15  0  0  0  0  0  0
   18.8161    1.9585    3.9311 H   0  0  0  0  0 15  0  0  0  0  0  0
   19.4221    3.1958    2.8062 H   0  0  0  0  0 15  0  0  0  0  0  0
   17.7372   -0.7783    1.3704 N   0  0  0  0  0 15  0  0  0  0  0  0
   18.9862   -1.5319    1.3121 C   0  0  0  0  0 15  0  0  0  0  0  0
   19.2992   -1.9533   -0.1031 C   0  0  0  0  0 15  0  0  0  0  0  0
   20.5052   -2.7001   -0.2838 O   0  0  0  0  0 15  0  0  0  0  0  0
   18.9612   -2.7659    2.3027 C   0  0  0  0  0 15  0  0  0  0  0  0
   18.5692   -2.4158    3.7729 C   0  0  0  0  0 15  0  0  0  0  0  0
   20.3132   -3.5455    2.3344 C   0  0  0  0  0 15  0  0  0  0  0  0
   18.2202   -3.6144    4.6810 C   0  0  0  0  0 15  0  0  0  0  0  0
   17.1502   -0.5751    0.4876 H   0  0  0  0  0 15  0  0  0  0  0  0
   19.8012   -0.8531    1.6246 H   0  0  0  0  0 15  0  0  0  0  0  0
   18.1832   -3.4633    1.9203 H   0  0  0  0  0 15  0  0  0  0  0  0
   19.3572   -1.7967    4.2433 H   0  0  0  0  0 15  0  0  0  0  0  0
   17.6722   -1.7681    3.7700 H   0  0  0  0  0 15  0  0  0  0  0  0
   20.2692   -4.4363    2.9849 H   0  0  0  0  0 15  0  0  0  0  0  0
   20.6122   -3.9394    1.3461 H   0  0  0  0  0 15  0  0  0  0  0  0
   21.1452   -2.9181    2.7036 H   0  0  0  0  0 15  0  0  0  0  0  0
   17.8842   -3.2714    5.6803 H   0  0  0  0  0 15  0  0  0  0  0  0
   17.4042   -4.2248    4.2576 H   0  0  0  0  0 15  0  0  0  0  0  0
   19.0832   -4.2834    4.8491 H   0  0  0  0  0 15  0  0  0  0  0  0
   19.2153   -1.2150   -1.0038 N   0  0  0  0  0 15  0  0  0  0  0  0
   20.1453   -0.9995   -2.1103 C   0  0  0  0  0 15  0  0  0  0  0  0
   21.1263    0.0760   -1.6993 C   0  0  0  0  0 15  0  0  0  0  0  0
   22.3113   -0.0841   -1.9402 O   0  0  0  0  0 15  0  0  0  0  0  0
   19.4413   -0.5647   -3.4268 C   0  0  0  0  0 15  0  0  0  0  0  0
   18.3953   -1.5849   -3.9758 C   0  0  0  0  0 15  0  0  0  0  0  0
   17.7213   -1.0063   -5.2515 C   0  0  0  0  0 15  0  0  0  0  0  0
   19.0213   -2.9720   -4.2950 C   0  0  0  0  0 15  0  0  0  0  0  0
   20.7153   -1.9249   -2.2932 H   0  0  0  0  0 15  0  0  0  0  0  0
   18.2613   -0.9269   -1.1020 H   0  0  0  0  0 15  0  0  0  0  0  0
   20.2143   -0.4011   -4.1949 H   0  0  0  0  0 15  0  0  0  0  0  0
   18.9383    0.3964   -3.2419 H   0  0  0  0  0 15  0  0  0  0  0  0
   17.5973   -1.7361   -3.2289 H   0  0  0  0  0 15  0  0  0  0  0  0
   17.2453   -0.0368   -5.0299 H   0  0  0  0  0 15  0  0  0  0  0  0
   16.9453   -1.6877   -5.6284 H   0  0  0  0  0 15  0  0  0  0  0  0
   18.4693   -0.8540   -6.0460 H   0  0  0  0  0 15  0  0  0  0  0  0
   19.8833   -2.8552   -4.9714 H   0  0  0  0  0 15  0  0  0  0  0  0
   18.2803   -3.6237   -4.7834 H   0  0  0  0  0 15  0  0  0  0  0  0
   19.3503   -3.4796   -3.3772 H   0  0  0  0  0 15  0  0  0  0  0  0
   20.6934    1.1989   -1.0230 N   0  0  0  0  0 15  0  0  0  0  0  0
   21.9704    1.8515   -0.6308 C   0  0  0  0  0 15  0  0  0  0  0  0
   22.3504    1.9139    0.8908 C   0  0  0  0  0 15  0  0  0  0  0  0
   21.6984    1.4264    1.7851 O   0  0  0  0  0 15  0  0  0  0  0  0
   21.9084    3.2444   -1.2860 C   0  0  0  0  0 15  0  0  0  0  0  0
   23.2564    4.0066   -1.4055 C   0  0  0  0  0 15  0  0  0  0  0  0
   24.2804    3.3382   -1.2427 O   0  0  0  0  0 15  0  0  0  0  0  0
   23.1394    5.2039   -1.6691 O   0  0  0  0  0 15  0  0  0  0  0  0
   20.2334    0.7976   -0.2185 H   0  0  0  0  0 15  0  0  0  0  0  0
   22.7794    1.2743   -1.1207 H   0  0  0  0  0 15  0  0  0  0  0  0
   21.5514    3.1470   -2.3255 H   0  0  0  0  0 15  0  0  0  0  0  0
   21.1744    3.8980   -0.7836 H   0  0  0  0  0 15  0  0  0  0  0  0
   22.1715    0.8000    1.3578 N   0  0  0  0  0 15  0  0  0  0  0  0
   23.1195    0.1939    2.3179 C   0  0  0  0  0 15  0  0  0  0  0  0
   24.1135   -0.6527    1.5632 C   0  0  0  0  0 15  0  0  0  0  0  0
   25.3195   -0.5466    1.7150 O   0  0  0  0  0 15  0  0  0  0  0  0
   21.6945    0.0439    0.7507 H   0  0  0  0  0 15  0  0  0  0  0  0
   23.6655    1.0188    2.8047 H   0  0  0  0  0 15  0  0  0  0  0  0
   22.4145   -0.6483    3.4160 C   0  0  0  0  0 15  0  0  0  0  0  0
   21.7375   -0.0062    3.9980 H   0  0  0  0  0 15  0  0  0  0  0  0
   23.1775   -1.0390    4.1107 H   0  0  0  0  0 15  0  0  0  0  0  0
   21.6365   -1.8111    2.8408 C   0  0  0  0  0 15  0  0  0  0  0  0
   22.1665   -2.9082    2.7710 O   0  0  0  0  0 15  0  0  0  0  0  0
   20.3725   -1.6206    2.4122 N   0  0  0  0  0 15  0  0  0  0  0  0
   19.9195   -0.7281    2.4710 H   0  0  0  0  0 15  0  0  0  0  0  0
   19.8775   -2.4001    2.0308 H   0  0  0  0  0 15  0  0  0  0  0  0
   23.6496   -1.4758    0.5530 N   0  0  0  0  0 15  0  0  0  0  0  0
   24.5796   -2.3276   -0.1855 C   0  0  0  0  0 15  0  0  0  0  0  0
   25.5606   -1.4353   -0.9129 C   0  0  0  0  0 15  0  0  0  0  0  0
   26.7456   -1.7239   -0.8942 O   0  0  0  0  0 15  0  0  0  0  0  0
   23.8756   -3.2522   -1.2186 C   0  0  0  0  0 15  0  0  0  0  0  0
   22.8296   -4.2366   -0.6079 C   0  0  0  0  0 15  0  0  0  0  0  0
   22.1556   -5.0541   -1.7453 C   0  0  0  0  0 15  0  0  0  0  0  0
   23.4556   -5.2048    0.4356 C   0  0  0  0  0 15  0  0  0  0  0  0
   25.1496   -2.9475    0.5257 H   0  0  0  0  0 15  0  0  0  0  0  0
   22.6956   -1.4174    0.2543 H   0  0  0  0  0 15  0  0  0  0  0  0
   24.6486   -3.8365   -1.7433 H   0  0  0  0  0 15  0  0  0  0  0  0
   23.3726   -2.6128   -1.9596 H   0  0  0  0  0 15  0  0  0  0  0  0
   22.0316   -3.6645   -0.1045 H   0  0  0  0  0 15  0  0  0  0  0  0
   21.6796   -4.3788   -2.4753 H   0  0  0  0  0 15  0  0  0  0  0  0
   21.3796   -5.7206   -1.3425 H   0  0  0  0  0 15  0  0  0  0  0  0
   22.9036   -5.6670   -2.2734 H   0  0  0  0  0 15  0  0  0  0  0  0
   24.3176   -5.7330   -0.0029 H   0  0  0  0  0 15  0  0  0  0  0  0
   22.7146   -5.9531    0.7571 H   0  0  0  0  0 15  0  0  0  0  0  0
   23.7846   -4.6622    1.3330 H   0  0  0  0  0 15  0  0  0  0  0  0
   25.1277   -0.2892   -1.5492 N   0  0  0  0  0 15  0  0  0  0  0  0
   26.0907    0.5791   -2.2176 C   0  0  0  0  0 15  0  0  0  0  0  0
   27.0907    1.0705   -1.1999 C   0  0  0  0  0 15  0  0  0  0  0  0
   28.2807    0.9684   -1.4480 O   0  0  0  0  0 15  0  0  0  0  0  0
   25.4127    1.8005   -2.8947 C   0  0  0  0  0 15  0  0  0  0  0  0
   26.6057   -0.0046   -2.9990 H   0  0  0  0  0 15  0  0  0  0  0  0
   24.1587   -0.0399   -1.5625 H   0  0  0  0  0 15  0  0  0  0  0  0
   24.8937    2.4245   -2.1538 H   0  0  0  0  0 15  0  0  0  0  0  0
   24.6787    1.4560   -3.6406 H   0  0  0  0  0 15  0  0  0  0  0  0
   26.1687    2.4177   -3.4049 H   0  0  0  0  0 15  0  0  0  0  0  0
   26.6058    1.5759   -0.0167 N   0  0  0  0  0 15  0  0  0  0  0  0
   27.5688    2.0839    0.9542 C   0  0  0  0  0 15  0  0  0  0  0  0
   28.5688    0.9965    1.2620 C   0  0  0  0  0 15  0  0  0  0  0  0
   29.7588    1.2586    1.2044 O   0  0  0  0  0 15  0  0  0  0  0  0
   26.8908    2.5394    2.2744 C   0  0  0  0  0 15  0  0  0  0  0  0
   28.0838    2.9545    0.5145 H   0  0  0  0  0 15  0  0  0  0  0  0
   25.6368    1.5458    0.2311 H   0  0  0  0  0 15  0  0  0  0  0  0
   26.3718    1.7017    2.7607 H   0  0  0  0  0 15  0  0  0  0  0  0
   26.1568    3.3337    2.0641 H   0  0  0  0  0 15  0  0  0  0  0  0
   27.6468    2.9351    2.9705 H   0  0  0  0  0 15  0  0  0  0  0  0
   28.0839   -0.2563    1.5550 N   0  0  0  0  0 15  0  0  0  0  0  0
   29.4999   -0.6043    1.4772 C   0  0  0  0  0 15  0  0  0  0  0  0
   29.6999   -1.8876    0.7050 C   0  0  0  0  0 15  0  0  0  0  0  0
   28.7559   -2.5144    0.2306 O   0  0  0  0  0 15  0  0  0  0  0  0
   30.0689   -0.7158    2.9206 C   0  0  0  0  0 15  0  0  0  0  0  0
   31.6169   -0.8087    3.0237 C   0  0  0  0  0 15  0  0  0  0  0  0
   32.0919   -0.9518    4.4800 C   0  0  0  0  0 15  0  0  0  0  0  0
   33.5829   -1.0169    4.5190 N   0  0  0  0  0 15  0  0  0  0  0  0
   34.3179   -1.1467    5.6182 C   0  0  0  0  0 15  0  0  0  0  0  0
   33.8139   -1.2426    6.8157 N   0  0  0  0  0 15  0  0  0  0  0  0
   35.6069   -1.1791    5.4959 N   0  0  0  0  0 15  0  0  0  0  0  0
   27.7579    0.5863    2.0415 H   0  0  0  0  0 15  0  0  0  0  0  0
   30.0209    0.2010    0.9264 H   0  0  0  0  0 15  0  0  0  0  0  0
   29.7269    0.1570    3.5135 H   0  0  0  0  0 15  0  0  0  0  0  0
   29.6009   -1.5907    3.4202 H   0  0  0  0  0 15  0  0  0  0  0  0
   31.9879   -1.6719    2.4317 H   0  0  0  0  0 15  0  0  0  0  0  0
   32.0689    0.0912    2.5564 H   0  0  0  0  0 15  0  0  0  0  0  0
   31.7129   -0.0931    5.0781 H   0  0  0  0  0 15  0  0  0  0  0  0
   31.6429   -1.8666    4.9241 H   0  0  0  0  0 15  0  0  0  0  0  0
   34.1339   -0.9545    3.6565 H   0  0  0  0  0 15  0  0  0  0  0  0
   34.4469   -1.3405    7.6109 H   0  0  0  0  0 15  0  0  0  0  0  0
   32.7919   -1.2124    6.8434 H   0  0  0  0  0 15  0  0  0  0  0  0
   35.9829   -1.1006    4.5498 H   0  0  0  0  0 15  0  0  0  0  0  0
   36.1559   -1.2768    6.3530 H   0  0  0  0  0 15  0  0  0  0  0  0
   29.5620   -1.4872   -0.5215 N   0  0  0  0  0 15  0  0  0  0  0  0
   30.8390   -1.4766   -1.2828 C   0  0  0  0  0 15  0  0  0  0  0  0
   31.2190   -0.1929   -2.1022 C   0  0  0  0  0 15  0  0  0  0  0  0
   30.5670    0.8252   -2.1308 O   0  0  0  0  0 15  0  0  0  0  0  0
   30.7770   -2.7436   -2.1571 C   0  0  0  0  0 15  0  0  0  0  0  0
   32.1250   -3.2303   -2.7557 C   0  0  0  0  0 15  0  0  0  0  0  0
   33.1490   -2.7533   -2.2599 O   0  0  0  0  0 15  0  0  0  0  0  0
   32.0080   -4.0604   -3.6578 O   0  0  0  0  0 15  0  0  0  0  0  0
   29.1020   -0.5901   -0.5794 H   0  0  0  0  0 15  0  0  0  0  0  0
   31.6480   -1.6096   -0.5375 H   0  0  0  0  0 15  0  0  0  0  0  0
   30.4200   -3.5929   -1.5500 H   0  0  0  0  0 15  0  0  0  0  0  0
   30.0430   -2.6382   -2.9747 H   0  0  0  0  0 15  0  0  0  0  0  0
   31.0401    0.7711   -1.3745 N   0  0  0  0  0 15  0  0  0  0  0  0
   32.2871    1.5296   -1.3270 C   0  0  0  0  0 15  0  0  0  0  0  0
   32.6151    1.9430    0.0883 C   0  0  0  0  0 15  0  0  0  0  0  0
   31.8701    1.6440    1.0617 O   0  0  0  0  0 15  0  0  0  0  0  0
   32.1691    2.8068   -2.2126 C   0  0  0  0  0 15  0  0  0  0  0  0
   31.8351    2.5839   -3.6952 C   0  0  0  0  0 15  0  0  0  0  0  0
   30.4971    2.5202   -4.0993 C   0  0  0  0  0 15  0  0  0  0  0  0
   32.8491    2.3847   -4.6345 C   0  0  0  0  0 15  0  0  0  0  0  0
   30.1771    2.2372   -5.4237 C   0  0  0  0  0 15  0  0  0  0  0  0
   32.5291    2.1169   -5.9613 C   0  0  0  0  0 15  0  0  0  0  0  0
   31.1931    2.0377   -6.3564 C   0  0  0  0  0 15  0  0  0  0  0  0
   30.4631    0.5597   -0.4856 H   0  0  0  0  0 15  0  0  0  0  0  0
   33.1101    0.8881   -1.6966 H   0  0  0  0  0 15  0  0  0  0  0  0
   31.4151    3.4939   -1.7729 H   0  0  0  0  0 15  0  0  0  0  0  0
   33.1121    3.3856   -2.1490 H   0  0  0  0  0 15  0  0  0  0  0  0
   29.7021    2.6421   -3.3748 H   0  0  0  0  0 15  0  0  0  0  0  0
   33.8861    2.4238   -4.3309 H   0  0  0  0  0 15  0  0  0  0  0  0
   29.1421    2.1608   -5.7194 H   0  0  0  0  0 15  0  0  0  0  0  0
   33.3161    1.9528   -6.6846 H   0  0  0  0  0 15  0  0  0  0  0  0
   30.9431    1.8161   -7.3819 H   0  0  0  0  0 15  0  0  0  0  0  0
   32.5182    1.2203    0.9973 N   0  0  0  0  0 15  0  0  0  0  0  0
   33.7672    1.0364    1.7304 C   0  0  0  0  0 15  0  0  0  0  0  0
   34.0802   -0.4295    1.9083 C   0  0  0  0  0 15  0  0  0  0  0  0
   35.2862   -0.7330    2.6142 O   0  0  0  0  0 15  0  0  0  0  0  0
   33.7422    1.8058    3.1132 C   0  0  0  0  0 15  0  0  0  0  0  0
   33.3502    3.3139    3.0147 C   0  0  0  0  0 15  0  0  0  0  0  0
   35.0942    1.7062    3.8870 C   0  0  0  0  0 15  0  0  0  0  0  0
   33.0012    4.0079    4.3488 C   0  0  0  0  0 15  0  0  0  0  0  0
   31.9312    0.3842    0.6488 H   0  0  0  0  0 15  0  0  0  0  0  0
   34.5822    1.4584    1.1137 H   0  0  0  0  0 15  0  0  0  0  0  0
   32.9642    1.3118    3.7364 H   0  0  0  0  0 15  0  0  0  0  0  0
   34.1382    3.8815    2.4834 H   0  0  0  0  0 15  0  0  0  0  0  0
   32.4532    3.4198    2.3757 H   0  0  0  0  0 15  0  0  0  0  0  0
   35.0502    2.1980    4.8743 H   0  0  0  0  0 15  0  0  0  0  0  0
   35.3932    0.6658    4.1094 H   0  0  0  0  0 15  0  0  0  0  0  0
   35.9262    2.1755    3.3304 H   0  0  0  0  0 15  0  0  0  0  0  0
   32.6652    5.0506    4.1784 H   0  0  0  0  0 15  0  0  0  0  0  0
   32.1852    3.4881    4.8795 H   0  0  0  0  0 15  0  0  0  0  0  0
   33.8642    4.0614    5.0365 H   0  0  0  0  0 15  0  0  0  0  0  0
   33.9963   -1.1934    1.0293 N   0  0  0  0  0 15  0  0  0  0  0  0
   34.9443   -2.2462    0.6040 C   0  0  0  0  0 15  0  0  0  0  0  0
   35.9383   -1.6545   -0.3636 C   0  0  0  0  0 15  0  0  0  0  0  0
   37.1443   -1.7850   -0.2321 O   0  0  0  0  0 15  0  0  0  0  0  0
   33.5193   -0.7309    0.1771 H   0  0  0  0  0 15  0  0  0  0  0  0
   35.4903   -2.5781    1.5025 H   0  0  0  0  0 15  0  0  0  0  0  0
   34.2393   -3.4769   -0.0289 C   0  0  0  0  0 15  0  0  0  0  0  0
   33.5623   -3.9351    0.7067 H   0  0  0  0  0 15  0  0  0  0  0  0
   35.0023   -4.2301   -0.2894 H   0  0  0  0  0 15  0  0  0  0  0  0
   33.4613   -3.1182   -1.2756 C   0  0  0  0  0 15  0  0  0  0  0  0
   33.9913   -3.2451   -2.3676 O   0  0  0  0  0 15  0  0  0  0  0  0
   32.1973   -2.6625   -1.1645 N   0  0  0  0  0 15  0  0  0  0  0  0
   31.7443   -2.5612   -0.2759 H   0  0  0  0  0 15  0  0  0  0  0  0
   31.7023   -2.4262   -1.9996 H   0  0  0  0  0 15  0  0  0  0  0  0
   35.4744   -0.8072   -1.3536 N   0  0  0  0  0 15  0  0  0  0  0  0
   36.7204   -0.3976   -1.9948 C   0  0  0  0  0 15  0  0  0  0  0  0
   37.0754    1.0241   -1.6288 C   0  0  0  0  0 15  0  0  0  0  0  0
   36.3684    1.7008   -0.8823 O   0  0  0  0  0 15  0  0  0  0  0  0
   36.5624   -0.5190   -3.5361 C   0  0  0  0  0 15  0  0  0  0  0  0
   36.3914   -1.9509   -4.0518 C   0  0  0  0  0 15  0  0  0  0  0  0
   35.1614   -2.5794   -4.3450 C   0  0  0  0  0 15  0  0  0  0  0  0
   37.3594   -2.9156   -4.2367 C   0  0  0  0  0 15  0  0  0  0  0  0
   35.3414   -3.9254   -4.7200 N   0  0  0  0  0 15  0  0  0  0  0  0
   36.7124   -4.1102   -4.6418 C   0  0  0  0  0 15  0  0  0  0  0  0
   38.7674   -2.8838   -4.0588 C   0  0  0  0  0 15  0  0  0  0  0  0
   37.4704   -5.2775   -4.8875 C   0  0  0  0  0 15  0  0  0  0  0  0
   39.4964   -4.0431   -4.3161 C   0  0  0  0  0 15  0  0  0  0  0  0
   38.8584   -5.2252   -4.7239 C   0  0  0  0  0 15  0  0  0  0  0  0
   34.9574   -0.1933   -0.7577 H   0  0  0  0  0 15  0  0  0  0  0  0
   37.5414   -1.0486   -1.6405 H   0  0  0  0  0 15  0  0  0  0  0  0
   35.7124    0.1020   -3.8827 H   0  0  0  0  0 15  0  0  0  0  0  0
   37.4444   -0.0839   -4.0461 H   0  0  0  0  0 15  0  0  0  0  0  0
   34.1994   -2.0929   -4.2484 H   0  0  0  0  0 15  0  0  0  0  0  0
   34.6234   -4.6184   -4.9501 H   0  0  0  0  0 15  0  0  0  0  0  0
   39.2654   -1.9814   -3.7350 H   0  0  0  0  0 15  0  0  0  0  0  0
   36.9834   -6.1856   -5.2001 H   0  0  0  0  0 15  0  0  0  0  0  0
   40.5694   -4.0323   -4.1940 H   0  0  0  0  0 15  0  0  0  0  0  0
   39.4494   -6.1073   -4.9191 H   0  0  0  0  0 15  0  0  0  0  0  0
   36.9525    1.4729   -0.5608 N   0  0  0  0  0 15  0  0  0  0  0  0
   37.8825    2.3286    0.1731 C   0  0  0  0  0 15  0  0  0  0  0  0
   38.8635    1.4401    0.9053 C   0  0  0  0  0 15  0  0  0  0  0  0
   40.0485    1.7286    0.8850 O   0  0  0  0  0 15  0  0  0  0  0  0
   37.1785    3.2586    1.2013 C   0  0  0  0  0 15  0  0  0  0  0  0
   36.1325    4.2398    0.5854 C   0  0  0  0  0 15  0  0  0  0  0  0
   35.4585    5.0633    1.7185 C   0  0  0  0  0 15  0  0  0  0  0  0
   36.7585    5.2024   -0.4632 C   0  0  0  0  0 15  0  0  0  0  0  0
   38.4525    2.9447   -0.5413 H   0  0  0  0  0 15  0  0  0  0  0  0
   35.9985    1.4160   -0.2618 H   0  0  0  0  0 15  0  0  0  0  0  0
   37.9515    3.8457    1.7229 H   0  0  0  0  0 15  0  0  0  0  0  0
   36.6755    2.6231    1.9457 H   0  0  0  0  0 15  0  0  0  0  0  0
   35.3345    3.6650    0.0851 H   0  0  0  0  0 15  0  0  0  0  0  0
   34.9825    4.3919    2.4520 H   0  0  0  0  0 15  0  0  0  0  0  0
   34.6825    5.7276    1.3121 H   0  0  0  0  0 15  0  0  0  0  0  0
   36.2065    5.6790    2.2433 H   0  0  0  0  0 15  0  0  0  0  0  0
   37.6205    5.7329   -0.0275 H   0  0  0  0  0 15  0  0  0  0  0  0
   36.0175    5.9490   -0.7886 H   0  0  0  0  0 15  0  0  0  0  0  0
   37.0875    4.6550   -1.3577 H   0  0  0  0  0 15  0  0  0  0  0  0
   38.4306    0.2974    1.5477 N   0  0  0  0  0 15  0  0  0  0  0  0
   39.6796   -0.3137    1.9925 C   0  0  0  0  0 15  0  0  0  0  0  0
   39.9926   -1.5528    1.1894 C   0  0  0  0  0 15  0  0  0  0  0  0
   41.1986   -2.2383    1.5367 O   0  0  0  0  0 15  0  0  0  0  0  0
   39.6546   -0.6094    3.5470 C   0  0  0  0  0 15  0  0  0  0  0  0
   39.2626    0.6112    4.4381 C   0  0  0  0  0 15  0  0  0  0  0  0
   41.0066   -1.1819    4.0772 C   0  0  0  0  0 15  0  0  0  0  0  0
   38.9136    0.2888    5.9069 C   0  0  0  0  0 15  0  0  0  0  0  0
   37.8436   -0.1210    0.7442 H   0  0  0  0  0 15  0  0  0  0  0  0
   40.4946    0.4056    1.7896 H   0  0  0  0  0 15  0  0  0  0  0  0
   38.8766   -1.3881    3.7087 H   0  0  0  0  0 15  0  0  0  0  0  0
   40.0506    1.3875    4.3941 H   0  0  0  0  0 15  0  0  0  0  0  0
   38.3656    1.1021    4.0155 H   0  0  0  0  0 15  0  0  0  0  0  0
   40.9626   -1.4373    5.1502 H   0  0  0  0  0 15  0  0  0  0  0  0
   41.3056   -2.1230    3.5810 H   0  0  0  0  0 15  0  0  0  0  0  0
   41.8386   -0.4649    3.9507 H   0  0  0  0  0 15  0  0  0  0  0  0
   38.5776    1.1984    6.4445 H   0  0  0  0  0 15  0  0  0  0  0  0
   38.0976   -0.4503    5.9811 H   0  0  0  0  0 15  0  0  0  0  0  0
   39.7766   -0.1109    6.4690 H   0  0  0  0  0 15  0  0  0  0  0  0
   39.9087   -1.5758    0.0251 N   0  0  0  0  0 15  0  0  0  0  0  0
   40.8407   -2.0687   -0.9868 C   0  0  0  0  0 15  0  0  0  0  0  0
   41.8537   -0.9913   -1.2914 C   0  0  0  0  0 15  0  0  0  0  0  0
   43.0427   -1.2676   -1.2567 O   0  0  0  0  0 15  0  0  0  0  0  0
   40.1427   -2.4749   -2.3153 C   0  0  0  0  0 15  0  0  0  0  0  0
   39.3157   -3.7825   -2.1964 C   0  0  0  0  0 15  0  0  0  0  0  0
   38.3747   -4.0546   -3.3539 C   0  0  0  0  0 15  0  0  0  0  0  0
   37.4007   -4.7577   -3.1245 O   0  0  0  0  0 15  0  0  0  0  0  0
   38.6027   -3.5532   -4.5905 N   0  0  0  0  0 15  0  0  0  0  0  0
   41.3677   -2.9430   -0.5663 H   0  0  0  0  0 15  0  0  0  0  0  0
   38.9287   -1.6109   -0.1618 H   0  0  0  0  0 15  0  0  0  0  0  0
   40.9207   -2.6278   -3.0778 H   0  0  0  0  0 15  0  0  0  0  0  0
   39.4907   -1.6544   -2.6523 H   0  0  0  0  0 15  0  0  0  0  0  0
   38.7107   -3.7279   -1.2814 H   0  0  0  0  0 15  0  0  0  0  0  0
   39.9987   -4.6394   -2.0890 H   0  0  0  0  0 15  0  0  0  0  0  0
   39.3967   -2.9843   -4.8058 H   0  0  0  0  0 15  0  0  0  0  0  0
   37.9537   -3.7591   -5.3248 H   0  0  0  0  0 15  0  0  0  0  0  0
   41.3868    0.2480   -1.5564 N   0  0  0  0  0 15  0  0  0  0  0  0
   42.6148    0.9938   -1.8147 C   0  0  0  0  0 15  0  0  0  0  0  0
   43.0298    1.7899   -0.6006 C   0  0  0  0  0 15  0  0  0  0  0  0
   42.3868    1.7735    0.4307 O   0  0  0  0  0 15  0  0  0  0  0  0
   42.4378    1.9326   -3.0551 C   0  0  0  0  0 15  0  0  0  0  0  0
   42.1588    1.1687   -4.2222 O   0  0  0  0  0 15  0  0  0  0  0  0
   43.6598    2.7944   -3.4413 C   0  0  0  0  0 15  0  0  0  0  0  0
   40.8798    0.2925   -0.6039 H   0  0  0  0  0 15  0  0  0  0  0  0
   43.4238    0.2713   -2.0269 H   0  0  0  0  0 15  0  0  0  0  0  0
   41.5788    2.6094   -2.8633 H   0  0  0  0  0 15  0  0  0  0  0  0
   41.9928    1.8036   -4.9251 H   0  0  0  0  0 15  0  0  0  0  0  0
   43.4668    3.4107   -4.3403 H   0  0  0  0  0 15  0  0  0  0  0  0
   43.9438    3.5050   -2.6466 H   0  0  0  0  0 15  0  0  0  0  0  0
   44.5498    2.1721   -3.6565 H   0  0  0  0  0 15  0  0  0  0  0  0
   42.8649    1.4899    0.5136 N   0  0  0  0  0 15  0  0  0  0  0  0
   43.8119    1.6473    1.6166 C   0  0  0  0  0 15  0  0  0  0  0  0
   44.7819    0.4890    1.5874 C   0  0  0  0  0 15  0  0  0  0  0  0
   45.9669    0.7145    1.7692 O   0  0  0  0  0 15  0  0  0  0  0  0
   43.1069    1.7082    2.9986 C   0  0  0  0  0 15  0  0  0  0  0  0
   42.2199    2.9787    3.1289 C   0  0  0  0  0 15  0  0  0  0  0  0
   41.3549    2.9502    4.4174 C   0  0  0  0  0 15  0  0  0  0  0  0
   40.3939    4.1670    4.4836 C   0  0  0  0  0 15  0  0  0  0  0  0
   39.5309    4.1183    5.6863 N   0  0  0  0  0 15  0  0  0  0  0  0
   44.3709    2.5891    1.4755 H   0  0  0  0  0 15  0  0  0  0  0  0
   41.9079    1.2838    0.7181 H   0  0  0  0  0 15  0  0  0  0  0  0
   43.8659    1.7233    3.7994 H   0  0  0  0  0 15  0  0  0  0  0  0
   42.4959    0.8012    3.1270 H   0  0  0  0  0 15  0  0  0  0  0  0
   41.5479    3.0603    2.2594 H   0  0  0  0  0 15  0  0  0  0  0  0
   42.8599    3.8786    3.1363 H   0  0  0  0  0 15  0  0  0  0  0  0
   42.0139    2.9502    5.3014 H   0  0  0  0  0 15  0  0  0  0  0  0
   40.7529    2.0278    4.4354 H   0  0  0  0  0 15  0  0  0  0  0  0
   39.7579    4.1696    3.5837 H   0  0  0  0  0 15  0  0  0  0  0  0
   40.9829    5.1011    4.4829 H   0  0  0  0  0 15  0  0  0  0  0  0
   38.9289    3.2243    5.7129 H   0  0  0  0  0 15  0  0  0  0  0  0
   38.8459    4.9554    5.7094 H   0  0  0  0  0 15  0  0  0  0  0  0
   40.1139    4.1592    6.5927 H   0  0  0  0  0 15  0  0  0  0  0  0
   44.3430   -0.7638    1.3786 N   0  0  0  0  0 15  0  0  0  0  0  0
   45.5920   -1.5179    1.3283 C   0  0  0  0  0 15  0  0  0  0  0  0
   45.9050   -1.9543   -0.0824 C   0  0  0  0  0 15  0  0  0  0  0  0
   47.1110   -2.7030   -0.2552 O   0  0  0  0  0 15  0  0  0  0  0  0
   45.5670   -2.7413    2.3319 C   0  0  0  0  0 15  0  0  0  0  0  0
   45.1750   -2.3756    3.7983 C   0  0  0  0  0 15  0  0  0  0  0  0
   46.9190   -3.5205    2.3719 C   0  0  0  0  0 15  0  0  0  0  0  0
   44.8260   -3.5646    4.7190 C   0  0  0  0  0 15  0  0  0  0  0  0
   43.7560   -0.5699    0.4937 H   0  0  0  0  0 15  0  0  0  0  0  0
   46.4070   -0.8358    1.6336 H   0  0  0  0  0 15  0  0  0  0  0  0
   44.7890   -3.4427    1.9569 H   0  0  0  0  0 15  0  0  0  0  0  0
   45.9630   -1.7516    4.2621 H   0  0  0  0  0 15  0  0  0  0  0  0
   44.2780   -1.7280    3.7885 H   0  0  0  0  0 15  0  0  0  0  0  0
   46.8750   -4.4044    3.0318 H   0  0  0  0  0 15  0  0  0  0  0  0
   47.2180   -3.9249    1.3878 H   0  0  0  0  0 15  0  0  0  0  0  0
   47.7510   -2.8892    2.7344 H   0  0  0  0  0 15  0  0  0  0  0  0
   44.4900   -3.2110    5.7147 H   0  0  0  0  0 15  0  0  0  0  0  0
   44.0100   -4.1794    4.3022 H   0  0  0  0  0 15  0  0  0  0  0  0
   45.6890   -4.2317    4.8943 H   0  0  0  0  0 15  0  0  0  0  0  0
   45.8211   -1.2256   -0.9908 N   0  0  0  0  0 15  0  0  0  0  0  0
   47.0491   -1.0778   -1.7661 C   0  0  0  0  0 15  0  0  0  0  0  0
   47.4641    0.3715   -1.8511 C   0  0  0  0  0 15  0  0  0  0  0  0
   46.8211    1.2574   -1.3227 O   0  0  0  0  0 15  0  0  0  0  0  0
   46.8721   -1.6851   -3.1982 C   0  0  0  0  0 15  0  0  0  0  0  0
   46.5931   -3.0777   -3.1178 O   0  0  0  0  0 15  0  0  0  0  0  0
   48.0941   -1.5904   -4.1379 C   0  0  0  0  0 15  0  0  0  0  0  0
   45.3141   -0.3777   -0.5546 H   0  0  0  0  0 15  0  0  0  0  0  0
   47.8581   -1.6220   -1.2455 H   0  0  0  0  0 15  0  0  0  0  0  0
   46.0131   -1.1815   -3.6894 H   0  0  0  0  0 15  0  0  0  0  0  0
   46.4271   -3.3706   -4.0186 H   0  0  0  0  0 15  0  0  0  0  0  0
   47.9011   -2.0625   -5.1202 H   0  0  0  0  0 15  0  0  0  0  0  0
   48.3781   -0.5473   -4.3578 H   0  0  0  0  0 15  0  0  0  0  0  0
   48.9841   -2.0871   -3.7057 H   0  0  0  0  0 15  0  0  0  0  0  0
   47.2992    1.1880   -1.0356 N   0  0  0  0  0 15  0  0  0  0  0  0
   48.5762    1.8447   -0.6504 C   0  0  0  0  0 15  0  0  0  0  0  0
   48.9562    1.9232    0.8704 C   0  0  0  0  0 15  0  0  0  0  0  0
   48.3042    1.4453    1.7699 O   0  0  0  0  0 15  0  0  0  0  0  0
   48.5142    3.2306   -1.3204 C   0  0  0  0  0 15  0  0  0  0  0  0
   49.8622    3.9915   -1.4479 C   0  0  0  0  0 15  0  0  0  0  0  0
   50.8862    3.3248   -1.2781 O   0  0  0  0  0 15  0  0  0  0  0  0
   49.7452    5.1859   -1.7242 O   0  0  0  0  0 15  0  0  0  0  0  0
   46.8392    0.7953   -0.2269 H   0  0  0  0  0 15  0  0  0  0  0  0
   49.3852    1.2623   -1.1342 H   0  0  0  0  0 15  0  0  0  0  0  0
   48.1572    3.1222   -2.3587 H   0  0  0  0  0 15  0  0  0  0  0  0
   47.7802    3.8895   -0.8249 H   0  0  0  0  0 15  0  0  0  0  0  0
   48.8162    0.9499    1.3061 O   0  0  0  0  0 15  0  0  0  0  0  0
   49.5072    0.5813    1.8477 H   0  0  0  0  0 15  0  0  0  0  0  0
M  END
$$$$
