2882
  -OEChem-10051719273D

 50 53  0     0  0  0  0  0  0999 V2000
   -2.0176   -2.3878    0.7642 O   0  0  0  0  0  0  0  0  0  0  0  0
    1.0567   -2.9748   -0.6253 O   0  0  0  0  0  0  0  0  0  0  0  0
   -2.0137   -4.9343   -0.3633 O   0  0  0  0  0  0  0  0  0  0  0  0
   -2.4532    2.4412    0.7960 O   0  0  0  0  0  0  0  0  0  0  0  0
    3.2369    1.3506   -0.8435 O   0  0  0  0  0  0  0  0  0  0  0  0
   -2.7254   -1.0003   -1.3759 O   0  0  0  0  0  0  0  0  0  0  0  0
    2.2658   -1.8747    1.4564 O   0  0  0  0  0  0  0  0  0  0  0  0
   -2.9462    4.7023   -0.2480 O   0  0  0  0  0  0  0  0  0  0  0  0
    4.5465    3.3050    0.1107 O   0  0  0  0  0  0  0  0  0  0  0  0
   -3.4332    3.8643   -2.3194 O   0  0  0  0  0  0  0  0  0  0  0  0
    4.7305    2.4163    2.2099 O   0  0  0  0  0  0  0  0  0  0  0  0
   -0.7956   -4.3435    0.0956 C   0  0  0  0  0  0  0  0  0  0  0  0
   -1.1339   -3.4001    1.2425 C   0  0  0  0  0  0  0  0  0  0  0  0
   -0.1450   -3.5992   -1.0649 C   0  0  0  0  0  0  0  0  0  0  0  0
   -1.9615   -1.1748    1.3810 C   0  0  0  0  0  0  0  0  0  0  0  0
    1.4409   -1.8416   -1.2913 C   0  0  0  0  0  0  0  0  0  0  0  0
   -2.2512    0.0202    0.7188 C   0  0  0  0  0  0  0  0  0  0  0  0
    2.1603   -0.8219   -0.6730 C   0  0  0  0  0  0  0  0  0  0  0  0
   -2.1789    1.2378    1.3977 C   0  0  0  0  0  0  0  0  0  0  0  0
    2.5278    0.3134   -1.3974 C   0  0  0  0  0  0  0  0  0  0  0  0
   -1.5986   -1.1436    2.7282 C   0  0  0  0  0  0  0  0  0  0  0  0
    1.0873   -1.7303   -2.6330 C   0  0  0  0  0  0  0  0  0  0  0  0
   -2.6371    0.0178   -0.7034 C   0  0  0  0  0  0  0  0  0  0  0  0
    2.5453   -0.9188    0.7461 C   0  0  0  0  0  0  0  0  0  0  0  0
   -1.8156    1.2655    2.7441 C   0  0  0  0  0  0  0  0  0  0  0  0
    2.1746    0.4278   -2.7420 C   0  0  0  0  0  0  0  0  0  0  0  0
   -1.5257    0.0732    3.4081 C   0  0  0  0  0  0  0  0  0  0  0  0
    1.4540   -0.5955   -3.3585 C   0  0  0  0  0  0  0  0  0  0  0  0
   -2.9223    1.3366   -1.3038 C   0  0  0  0  0  0  0  0  0  0  0  0
    3.3067    0.2218    1.2942 C   0  0  0  0  0  0  0  0  0  0  0  0
   -2.8132    2.4233   -0.5334 C   0  0  0  0  0  0  0  0  0  0  0  0
    3.5902    1.2459    0.4836 C   0  0  0  0  0  0  0  0  0  0  0  0
   -3.1026    3.7165   -1.1564 C   0  0  0  0  0  0  0  0  0  0  0  0
    4.3468    2.3618    1.0552 C   0  0  0  0  0  0  0  0  0  0  0  0
   -0.1321   -5.1379    0.4552 H   0  0  0  0  0  0  0  0  0  0  0  0
   -0.1999   -2.9872    1.6409 H   0  0  0  0  0  0  0  0  0  0  0  0
   -1.6509   -3.9573    2.0329 H   0  0  0  0  0  0  0  0  0  0  0  0
    0.0914   -4.3207   -1.8573 H   0  0  0  0  0  0  0  0  0  0  0  0
   -0.8694   -2.8852   -1.4753 H   0  0  0  0  0  0  0  0  0  0  0  0
   -1.3971   -2.0417    3.3045 H   0  0  0  0  0  0  0  0  0  0  0  0
    0.5600   -2.5098   -3.1742 H   0  0  0  0  0  0  0  0  0  0  0  0
   -1.7579    2.2080    3.2815 H   0  0  0  0  0  0  0  0  0  0  0  0
    2.4573    1.3067   -3.3147 H   0  0  0  0  0  0  0  0  0  0  0  0
   -1.2503    0.0919    4.4587 H   0  0  0  0  0  0  0  0  0  0  0  0
    1.1850   -0.5120   -4.4076 H   0  0  0  0  0  0  0  0  0  0  0  0
   -2.3977   -5.4286    0.3808 H   0  0  0  0  0  0  0  0  0  0  0  0
   -3.2081    1.3581   -2.3489 H   0  0  0  0  0  0  0  0  0  0  0  0
    3.6003    0.1714    2.3361 H   0  0  0  0  0  0  0  0  0  0  0  0
   -3.1317    5.5872   -0.6286 H   0  0  0  0  0  0  0  0  0  0  0  0
    5.0516    4.0717    0.4563 H   0  0  0  0  0  0  0  0  0  0  0  0
  1 13  1  0  0  0  0
  1 15  1  0  0  0  0
  2 14  1  0  0  0  0
  2 16  1  0  0  0  0
  3 12  1  0  0  0  0
  3 46  1  0  0  0  0
  4 19  1  0  0  0  0
  4 31  1  0  0  0  0
  5 20  1  0  0  0  0
  5 32  1  0  0  0  0
  6 23  2  0  0  0  0
  7 24  2  0  0  0  0
  8 33  1  0  0  0  0
  8 49  1  0  0  0  0
  9 34  1  0  0  0  0
  9 50  1  0  0  0  0
 10 33  2  0  0  0  0
 11 34  2  0  0  0  0
 12 13  1  0  0  0  0
 12 14  1  0  0  0  0
 12 35  1  0  0  0  0
 13 36  1  0  0  0  0
 13 37  1  0  0  0  0
 14 38  1  0  0  0  0
 14 39  1  0  0  0  0
 15 17  1  0  0  0  0
 15 21  2  0  0  0  0
 16 18  1  0  0  0  0
 16 22  2  0  0  0  0
 17 19  2  0  0  0  0
 17 23  1  0  0  0  0
 18 20  2  0  0  0  0
 18 24  1  0  0  0  0
 19 25  1  0  0  0  0
 20 26  1  0  0  0  0
 21 27  1  0  0  0  0
 21 40  1  0  0  0  0
 22 28  1  0  0  0  0
 22 41  1  0  0  0  0
 23 29  1  0  0  0  0
 24 30  1  0  0  0  0
 25 27  2  0  0  0  0
 25 42  1  0  0  0  0
 26 28  2  0  0  0  0
 26 43  1  0  0  0  0
 27 44  1  0  0  0  0
 28 45  1  0  0  0  0
 29 31  2  0  0  0  0
 29 47  1  0  0  0  0
 30 32  2  0  0  0  0
 30 48  1  0  0  0  0
 31 33  1  0  0  0  0
 32 34  1  0  0  0  0
M  END
> <DATABASE_ID>
DB01003

> <DATABASE_NAME>
drugbank

> <ORIGINAL_SOURCE>
PUBCHEM

> <ORIGINAL_SOURCE_URL>
https://pubchem.ncbi.nlm.nih.gov/rest/pug/compound/inchikey/IMZMKUWMOSJXDT-UHFFFAOYSA-N/SDF?record_type=3d

> <SMILES>
OC(COC1=CC=CC2=C1C(=O)C=C(O2)C(O)=O)COC1=CC=CC2=C1C(=O)C=C(O2)C(O)=O

> <INCHI_IDENTIFIER>
InChI=1S/C23H16O11/c24-11(9-31-14-3-1-5-16-20(14)12(25)7-18(33-16)22(27)28)10-32-15-4-2-6-17-21(15)13(26)8-19(34-17)23(29)30/h1-8,11,24H,9-10H2,(H,27,28)(H,29,30)

> <INCHI_KEY>
IMZMKUWMOSJXDT-UHFFFAOYSA-N

> <FORMULA>
C23H16O11

> <MOLECULAR_WEIGHT>
468.3665

> <EXACT_MASS>
468.069261354

> <JCHEM_ACCEPTOR_COUNT>
11

> <JCHEM_AVERAGE_POLARIZABILITY>
44.380974512822675

> <JCHEM_BIOAVAILABILITY>
1

> <JCHEM_DONOR_COUNT>
3

> <JCHEM_FORMAL_CHARGE>
0

> <JCHEM_GHOSE_FILTER>
1

> <JCHEM_IUPAC>
5-{3-[(2-carboxy-4-oxo-4H-chromen-5-yl)oxy]-2-hydroxypropoxy}-4-oxo-4H-chromene-2-carboxylic acid

> <ALOGPS_LOGP>
1.84

> <JCHEM_LOGP>
1.4770116999999996

> <ALOGPS_LOGS>
-4.12

> <JCHEM_MDDR_LIKE_RULE>
1

> <JCHEM_NUMBER_OF_RINGS>
4

> <JCHEM_PHYSIOLOGICAL_CHARGE>
-2

> <JCHEM_PKA>
2.3784796797980388

> <JCHEM_PKA_STRONGEST_ACIDIC>
1.7736034775327054

> <JCHEM_PKA_STRONGEST_BASIC>
-3.392627216117863

> <JCHEM_POLAR_SURFACE_AREA>
165.89

> <JCHEM_REFRACTIVITY>
114.10670000000003

> <JCHEM_ROTATABLE_BOND_COUNT>
8

> <JCHEM_RULE_OF_FIVE>
0

> <ALOGPS_SOLUBILITY>
3.58e-02 g/l

> <JCHEM_TRADITIONAL_IUPAC>
cromoglicic acid

> <JCHEM_VEBER_RULE>
0

> <DRUGBANK_ID>
DB01003

> <SECONDARY_ACCESSION_NUMBERS>
APRD00336

> <DRUG_GROUPS>
approved

> <GENERIC_NAME>
Cromoglicic acid

> <SYNONYMS>
5-[3-(2-carboxy-4-oxo-4H-5-chromenyloxy)-2-hydroxypropoxy]-4-oxo-4H-2-chromenecarboxylic acid; Acide Cromoglicique; Acido Cromoglicico; Acidum Cromoglicicum; Cromoglicate; Cromoglicic acid; Cromoglycate; Cromoglycic acid; Cromolyn

> <PRODUCTS>
Allergan Eye Itch Relief; Anti-allergy Eye Drops; Apo-cromolyn Nasal Spray; Apo-cromolyn Sterules; Crolom; Cromolyn Eye Drops; Cromolyn Sodium; Gastrocrom; Gen-cromoglycate Sterinebs - Liq Inh 1%; Gen-cromolyn Nasal Spray; Intal; Intal Inhaler; Intal Nebulizer 1%; Intal Spincaps 20mg; Intal Syncroner; Nalcrom; NasalCrom; Novo-cromolyn Nebulizer Solution 1%; Nu-cromolyn; Nu-cromolyn Plastic Ampules; Opticrom; Opticrom Liq 2%; PMS-sodium Cromoglycate; Rhinaris-CS Anti-allergic Nasal Mist; Rynacrom Solution 2%; Solu-crom; Vistacrom Eye Ointment 4%; Vistacrom Liq 2%

> <INTERNATIONAL_BRANDS>
Aarane; Allergocrom; Colimune; Cromo-Comod; Cromoptic; Gastrofrenal; Lomudal; Lomusol; Opticron; Rynacrom; Vividrin

> <SALTS>
Cromoglicate sodium

$$$$