drugbank_target|Q38087 DNA polymerase (DB01972; DB02857; DB08245)
 OpenBabel12092119533D

  0  0  0     0  0            999 V3000
M  V30 BEGIN CTAB
M  V30 COUNTS 34955 37497 0 0 0
M  V30 BEGIN ATOM
M  V30 1 H -1.547 9.37743 -1.21644 0
M  V30 2 O -1.44 8.89599 -0.40059 0
M  V30 3 P 0 8.91 0 0
M  V30 4 O 0.22 10.1746 0.733838 0
M  V30 5 O 0.79 8.73346 -1.23964 0
M  V30 6 O 0.25 7.66872 0.971405 0
M  V30 7 C -0.69 7.42405 2.04668 0
M  V30 8 C 0.04 6.86059 3.24661 0
M  V30 9 O 0.25 5.42934 3.03695 0
M  V30 10 C 1.44 7.41287 3.50796 0
M  V30 11 O 1.83 7.27073 4.86816 0
M  V30 12 C 2.32 6.5273 2.63741 0
M  V30 13 C 1.61 5.1842 2.73198 0
M  V30 14 N 1.66 4.38762 1.4784 0
M  V30 15 H -1.178 8.36899 2.3252 0
M  V30 16 H -1.45 6.70391 1.71179 0
M  V30 17 H -0.582 7.03638 4.13219 0
M  V30 18 H 2.073 4.59931 3.54016 0
M  V30 19 H 2.353 6.88995 1.59871 0
M  V30 20 H 3.344 6.4684 3.0373 0
M  V30 21 H 1.51 8.47002 3.20749 0
M  V30 22 P 3.37998 7.20834 5.23717 0
M  V30 23 O 3.59998 7.79853 6.57286 0
M  V30 24 O 4.16998 7.79239 4.12957 0
M  V30 25 O 3.62998 5.63315 5.29344 0
M  V30 26 C 2.68998 4.80255 6.01876 0
M  V30 27 C 3.41998 3.64202 6.65911 0
M  V30 28 O 3.62998 2.60694 5.64732 0
M  V30 29 C 4.81998 3.93473 7.1943 0
M  V30 30 O 5.20998 3.02071 8.21205 0
M  V30 31 C 5.69998 3.73047 5.97036 0
M  V30 32 C 4.98998 2.58828 5.25741 0
M  V30 33 N 5.03998 2.68068 3.77503 0
M  V30 34 H 2.20098 5.40332 6.79951 0
M  V30 35 H 1.93098 4.41613 5.32378 0
M  V30 36 H 2.79798 3.26331 7.47797 0
M  V30 37 P 6.75996 2.75334 8.47391 0
M  V30 38 O 6.97996 2.44571 9.90142 0
M  V30 39 O 7.54996 3.87688 7.92115 0
M  V30 40 O 7.00996 1.4459 7.59357 0
M  V30 41 C 6.06996 0.347608 7.69215 0
M  V30 42 C 6.79996 -0.96767 7.52806 0
M  V30 43 O 7.00996 -1.21036 6.1011 0
M  V30 44 C 8.19996 -1.04544 8.13308 0
M  V30 45 O 8.58996 -2.38311 8.41922 0
M  V30 46 C 9.07996 -0.491279 7.02284 0
M  V30 47 C 8.36996 -0.996264 5.77469 0
M  V30 48 N 8.41996 -0.0501916 4.62973 0
M  V30 49 H 5.58096 0.374722 8.67691 0
M  V30 50 H 5.31096 0.443485 6.90277 0
M  V30 51 H 6.17796 -1.75537 7.96793 0
M  V30 52 P 10.1399 -2.75334 8.47391 0
M  V30 53 O 10.3599 -3.84128 9.44797 0
M  V30 54 O 10.9299 -1.51947 8.68712 0
M  V30 55 O 10.3899 -3.29363 6.99321 0
M  V30 56 C 9.44994 -4.24011 6.4274 0
M  V30 57 C 10.1799 -5.20775 5.52155 0
M  V30 58 O 10.3899 -4.56534 4.22446 0
M  V30 59 C 11.5799 -5.62629 5.96531 0
M  V30 60 O 11.9699 -6.87667 5.41053 0
M  V30 61 C 12.4599 -4.52537 5.39283 0
M  V30 62 C 11.7499 -4.20027 4.08623 0
M  V30 63 N 11.7999 -2.76189 3.71603 0
M  V30 64 H 8.96094 -4.797 7.24003 0
M  V30 65 H 8.69094 -3.69856 5.84513 0
M  V30 66 H 9.55794 -6.10356 5.41441 0
M  V30 67 P 13.5199 -7.20834 5.23717 0
M  V30 68 O 13.7399 -8.66189 5.38625 0
M  V30 69 O 14.3099 -6.33615 6.1356 0
M  V30 70 O 13.7699 -6.7751 3.72168 0
M  V30 71 C 12.8299 -7.20732 2.70725 0
M  V30 72 C 13.5599 -7.45864 1.40599 0
M  V30 73 O 13.7699 -6.17651 0.734225 0
M  V30 74 C 14.9599 -8.05808 1.51899 0
M  V30 75 O 15.3499 -8.74358 0.335205 0
M  V30 76 C 15.8399 -6.83093 1.70294 0
M  V30 77 C 15.1299 -5.79992 0.836974 0
M  V30 78 N 15.1799 -4.41769 1.38263 0
M  V30 79 C 15.3299 -3.38591 0.481702 0
M  V30 80 O 15.4199 -3.56839 -0.718452 0
M  V30 81 N 15.3699 -2.1206 1.03569 0
M  V30 82 C 15.2799 -1.80696 2.36966 0
M  V30 83 C 15.1299 -2.94845 3.23898 0
M  V30 84 C 15.0799 -4.19803 2.73435 0
M  V30 85 H 12.3399 -8.13644 3.0377 0
M  V30 86 H 12.0709 -6.42695 2.55448 0
M  V30 87 H 12.9379 -8.12039 0.792769 0
M  V30 88 H 15.5929 -5.79978 -0.160587 0
M  V30 89 H 15.8719 -6.51379 2.75643 0
M  V30 90 H 16.8639 -7.01734 1.34462 0
M  V30 91 H 15.0299 -8.73674 2.38337 0
M  V30 92 H 14.9589 -5.04492 3.4095 0
M  V30 93 P 16.8999 -8.91 1.09116e-15 0
M  V30 94 O 17.1199 -10.1726 -0.733694 0
M  V30 95 O 17.6899 -8.73148 1.23936 0
M  V30 96 O 17.1499 -7.66872 -0.971405 0
M  V30 97 C 16.2099 -7.42309 -2.04641 0
M  V30 98 C 16.9399 -6.86059 -3.24661 0
M  V30 99 O 17.1499 -5.42847 -3.03646 0
M  V30 100 C 18.3399 -7.41196 -3.50753 0
M  V30 101 O 18.7299 -7.27073 -4.86816 0
M  V30 102 C 19.2199 -6.5273 -2.63741 0
M  V30 103 C 18.5099 -5.1842 -2.73198 0
M  V30 104 N 18.5599 -4.38762 -1.4784 0
M  V30 105 H 15.7209 -8.36803 -2.32493 0
M  V30 106 H 15.4509 -6.70197 -1.71129 0
M  V30 107 H 16.3179 -7.03551 -4.13168 0
M  V30 108 P 20.2799 -7.20834 -5.23717 0
M  V30 109 O 20.4999 -7.7993 -6.57351 0
M  V30 110 O 21.0699 -7.79328 -4.13004 0
M  V30 111 O 20.5299 -5.63315 -5.29344 0
M  V30 112 C 19.5899 -4.80193 -6.01798 0
M  V30 113 C 20.3199 -3.64202 -6.65911 0
M  V30 114 O 20.5299 -2.60694 -5.64732 0
M  V30 115 C 21.7199 -3.93473 -7.1943 0
M  V30 116 O 22.1099 -3.02071 -8.21205 0
M  V30 117 C 22.5999 -3.73047 -5.97036 0
M  V30 118 C 21.8899 -2.58828 -5.25741 0
M  V30 119 N 21.9399 -2.6801 -3.77422 0
M  V30 120 C 22.0899 -1.50443 -3.07133 0
M  V30 121 O 22.1799 -0.419406 -3.61576 0
M  V30 122 N 22.1299 -1.6403 -1.69677 0
M  V30 123 C 22.0399 -2.81206 -0.986255 0
M  V30 124 O 22.0899 -2.80892 0.249754 0
M  V30 125 C 21.8899 -3.99158 -1.80325 0
M  V30 126 C 21.7799 -5.29309 -1.06921 0
M  V30 127 C 21.8399 -3.89779 -3.1476 0
M  V30 128 H 19.0999 -5.40332 -6.79951 0
M  V30 129 H 18.8309 -4.41549 -5.32301 0
M  V30 130 H 19.6979 -3.26331 -7.47797 0
M  V30 131 H 22.3529 -1.6395 -5.56554 0
M  V30 132 H 22.6319 -4.63439 -5.3432 0
M  V30 133 H 23.6239 -3.44728 -6.25838 0
M  V30 134 H 21.7899 -4.96652 -7.57263 0
M  V30 135 H 21.7189 -4.80159 -3.74441 0
M  V30 136 H 22.7489 -5.81459 -1.09608 0
M  V30 137 H 21.0119 -5.9187 -1.54487 0
M  V30 138 H 21.4999 -5.10095 -0.0220288 0
M  V30 139 H 22.2359 -0.798962 -1.16664 0
M  V30 140 P 23.6599 -2.75334 -8.47391 0
M  V30 141 O 23.8799 -2.44571 -9.90142 0
M  V30 142 O 24.4499 -3.87688 -7.92115 0
M  V30 143 O 23.9099 -1.4459 -7.59357 0
M  V30 144 C 22.9699 -0.347608 -7.69215 0
M  V30 145 C 23.6999 0.96767 -7.52806 0
M  V30 146 O 23.9099 1.21036 -6.1011 0
M  V30 147 C 25.0999 1.04544 -8.13308 0
M  V30 148 O 25.4899 2.38311 -8.41922 0
M  V30 149 C 25.9799 0.491279 -7.02284 0
M  V30 150 C 25.2699 0.996264 -5.77469 0
M  V30 151 N 25.3199 0.0501916 -4.62973 0
M  V30 152 H 22.4809 -0.374722 -8.67691 0
M  V30 153 H 22.2109 -0.443485 -6.90277 0
M  V30 154 H 23.0779 1.75537 -7.96793 0
M  V30 155 P 27.0398 2.75334 -8.47391 0
M  V30 156 O 27.2598 3.84128 -9.44797 0
M  V30 157 O 27.8298 1.51947 -8.68712 0
M  V30 158 O 27.2898 3.29363 -6.99321 0
M  V30 159 C 26.3498 4.24011 -6.4274 0
M  V30 160 C 27.0798 5.20775 -5.52155 0
M  V30 161 O 27.2898 4.56534 -4.22446 0
M  V30 162 C 28.4798 5.62629 -5.96531 0
M  V30 163 O 28.8698 6.87667 -5.41053 0
M  V30 164 C 29.3598 4.52537 -5.39283 0
M  V30 165 C 28.6498 4.20027 -4.08623 0
M  V30 166 N 28.6998 2.76189 -3.71603 0
M  V30 167 H 25.8608 4.797 -7.24003 0
M  V30 168 H 25.5908 3.69856 -5.84513 0
M  V30 169 H 26.4578 6.10356 -5.41441 0
M  V30 170 P 30.4198 7.20834 -5.23717 0
M  V30 171 O 30.6398 8.66104 -5.38572 0
M  V30 172 O 31.2098 6.33544 -6.1349 0
M  V30 173 O 30.6698 6.7751 -3.72168 0
M  V30 174 C 29.7298 7.20825 -2.7076 0
M  V30 175 C 30.4598 7.45864 -1.40599 0
M  V30 176 O 30.6698 6.17651 -0.734225 0
M  V30 177 C 31.8598 8.05808 -1.51899 0
M  V30 178 O 32.2498 8.74358 -0.335205 0
M  V30 179 C 32.7398 6.83093 -1.70294 0
M  V30 180 C 32.0298 5.79992 -0.836974 0
M  V30 181 N 32.0798 4.41864 -1.38293 0
M  V30 182 H 29.2408 8.13644 -3.0377 0
M  V30 183 H 28.9708 6.42788 -2.55485 0
M  V30 184 H 29.8378 8.12039 -0.792769 0
M  V30 185 P 33.7998 8.91 -2.18232e-15 0
M  V30 186 O 34.0198 10.1726 0.733694 0
M  V30 187 O 34.5898 8.73148 -1.23936 0
M  V30 188 O 34.0498 7.66872 0.971405 0
M  V30 189 C 33.1098 7.42309 2.04641 0
M  V30 190 C 33.8398 6.86059 3.24661 0
M  V30 191 O 34.0498 5.42847 3.03646 0
M  V30 192 C 35.2398 7.41196 3.50753 0
M  V30 193 O 35.6298 7.27073 4.86816 0
M  V30 194 C 36.1198 6.5273 2.63741 0
M  V30 195 C 35.4098 5.1842 2.73198 0
M  V30 196 N 35.4598 4.38762 1.4784 0
M  V30 197 H 32.6208 8.36803 2.32493 0
M  V30 198 H 32.3508 6.70197 1.71129 0
M  V30 199 H 33.2178 7.03551 4.13168 0
M  V30 200 P 37.1798 7.20834 5.23717 0
M  V30 201 O 37.3998 7.79853 6.57286 0
M  V30 202 O 37.9698 7.79239 4.12957 0
M  V30 203 O 37.4298 5.63315 5.29344 0
M  V30 204 C 36.4898 4.80255 6.01876 0
M  V30 205 C 37.2198 3.64202 6.65911 0
M  V30 206 O 37.4298 2.60694 5.64732 0
M  V30 207 C 38.6198 3.93473 7.1943 0
M  V30 208 O 39.0098 3.02071 8.21205 0
M  V30 209 C 39.4998 3.73047 5.97036 0
M  V30 210 C 38.7898 2.58828 5.25741 0
M  V30 211 N 38.8398 2.68068 3.77503 0
M  V30 212 C 38.7598 3.79715 2.96723 0
M  V30 213 N 38.8398 3.5377 1.68852 0
M  V30 214 C 38.9798 2.15054 1.63254 0
M  V30 215 C 39.1098 1.28964 0.518571 0
M  V30 216 O 39.1298 1.56826 -0.679156 0
M  V30 217 N 39.2298 -0.0538097 0.918425 0
M  V30 218 C 39.2298 -0.494275 2.22578 0
M  V30 219 N 39.3598 -1.81086 2.40434 0
M  V30 220 N 39.0998 0.313645 3.27502 0
M  V30 221 C 38.9798 1.61829 2.91033 0
M  V30 222 H 36.0008 5.40332 6.79951 0
M  V30 223 H 35.7308 4.41613 5.32378 0
M  V30 224 H 36.5978 3.26331 7.47797 0
M  V30 225 H 39.2528 1.63422 5.56814 0
M  V30 226 H 39.5318 4.63374 5.34244 0
M  V30 227 H 40.5238 3.44728 6.25838 0
M  V30 228 H 38.6898 4.96652 7.57263 0
M  V30 229 H 38.6408 4.80617 3.3614 0
M  V30 230 H 39.3228 -0.742702 0.199384 0
M  V30 231 H 39.3598 -2.20598 3.35588 0
M  V30 232 H 39.4608 -2.43518 1.58945 0
M  V30 233 P 40.5598 2.75334 8.47391 0
M  V30 234 O 40.7798 2.44571 9.90142 0
M  V30 235 O 41.3498 3.87688 7.92115 0
M  V30 236 O 40.8098 1.4459 7.59357 0
M  V30 237 C 39.8698 0.347608 7.69215 0
M  V30 238 C 40.5998 -0.96767 7.52806 0
M  V30 239 O 40.8098 -1.21036 6.1011 0
M  V30 240 C 41.9998 -1.04544 8.13308 0
M  V30 241 O 42.3898 -2.38311 8.41922 0
M  V30 242 C 42.8798 -0.491279 7.02284 0
M  V30 243 C 42.1698 -0.996264 5.77469 0
M  V30 244 N 42.2198 -0.0501916 4.62973 0
M  V30 245 H 39.3808 0.374722 8.67691 0
M  V30 246 H 39.1108 0.443485 6.90277 0
M  V30 247 H 39.9778 -1.75537 7.96793 0
M  V30 248 P 43.9397 -2.75334 8.47391 0
M  V30 249 O 44.1597 -3.84128 9.44797 0
M  V30 250 O 44.7297 -1.51947 8.68712 0
M  V30 251 O 44.1897 -3.29363 6.99321 0
M  V30 252 C 43.2497 -4.24011 6.4274 0
M  V30 253 C 43.9797 -5.20775 5.52155 0
M  V30 254 O 44.1897 -4.56534 4.22446 0
M  V30 255 C 45.3797 -5.62629 5.96531 0
M  V30 256 O 45.7697 -6.87667 5.41053 0
M  V30 257 C 46.2597 -4.52537 5.39283 0
M  V30 258 C 45.5497 -4.20027 4.08623 0
M  V30 259 N 45.5997 -2.76189 3.71603 0
M  V30 260 H 42.7607 -4.797 7.24003 0
M  V30 261 H 42.4907 -3.69856 5.84513 0
M  V30 262 H 43.3577 -6.10356 5.41441 0
M  V30 263 P 47.3197 -7.20834 5.23717 0
M  V30 264 O 47.5397 -8.66104 5.38572 0
M  V30 265 O 48.1097 -6.33544 6.1349 0
M  V30 266 O 47.5697 -6.7751 3.72168 0
M  V30 267 C 46.6297 -7.20825 2.7076 0
M  V30 268 C 47.3597 -7.45864 1.40599 0
M  V30 269 O 47.5697 -6.17651 0.734225 0
M  V30 270 C 48.7597 -8.05808 1.51899 0
M  V30 271 O 49.1497 -8.74358 0.335205 0
M  V30 272 C 49.6397 -6.83093 1.70294 0
M  V30 273 C 48.9297 -5.79992 0.836974 0
M  V30 274 N 48.9797 -4.41864 1.38293 0
M  V30 275 H 46.1407 -8.13644 3.0377 0
M  V30 276 H 45.8707 -6.42788 2.55485 0
M  V30 277 H 46.7377 -8.12039 0.792769 0
M  V30 278 P 50.6997 -8.91 3.27348e-15 0
M  V30 279 O 50.9197 -10.1726 -0.733694 0
M  V30 280 O 51.4897 -8.73148 1.23936 0
M  V30 281 O 50.9497 -7.66872 -0.971405 0
M  V30 282 C 50.0097 -7.42309 -2.04641 0
M  V30 283 C 50.7397 -6.86059 -3.24661 0
M  V30 284 O 50.9497 -5.42847 -3.03646 0
M  V30 285 C 52.1397 -7.41196 -3.50753 0
M  V30 286 O 52.5297 -7.27073 -4.86816 0
M  V30 287 C 53.0197 -6.5273 -2.63741 0
M  V30 288 C 52.3097 -5.1842 -2.73198 0
M  V30 289 N 52.3597 -4.38762 -1.4784 0
M  V30 290 H 49.5207 -8.36803 -2.32493 0
M  V30 291 H 49.2507 -6.70197 -1.71129 0
M  V30 292 H 50.1177 -7.03551 -4.13168 0
M  V30 293 P 54.0797 -7.20834 -5.23717 0
M  V30 294 O 54.2997 -7.79853 -6.57286 0
M  V30 295 O 54.8697 -7.79239 -4.12957 0
M  V30 296 O 54.3297 -5.63315 -5.29344 0
M  V30 297 C 53.3897 -4.80255 -6.01876 0
M  V30 298 C 54.1197 -3.64202 -6.65911 0
M  V30 299 O 54.3297 -2.60694 -5.64732 0
M  V30 300 C 55.5197 -3.93473 -7.1943 0
M  V30 301 O 55.9097 -3.02071 -8.21205 0
M  V30 302 C 56.3997 -3.73047 -5.97036 0
M  V30 303 C 55.6897 -2.58828 -5.25741 0
M  V30 304 N 55.7397 -2.68068 -3.77503 0
M  V30 305 H 52.9007 -5.40332 -6.79951 0
M  V30 306 H 52.6307 -4.41613 -5.32378 0
M  V30 307 H 53.4977 -3.26331 -7.47797 0
M  V30 308 P 57.4597 -2.75334 -8.47391 0
M  V30 309 O 57.6797 -2.44571 -9.90142 0
M  V30 310 O 58.2497 -3.87688 -7.92115 0
M  V30 311 O 57.7097 -1.4459 -7.59357 0
M  V30 312 C 56.7697 -0.347608 -7.69215 0
M  V30 313 C 57.4997 0.96767 -7.52806 0
M  V30 314 O 57.7097 1.21036 -6.1011 0
M  V30 315 C 58.8997 1.04544 -8.13308 0
M  V30 316 O 59.2897 2.38311 -8.41922 0
M  V30 317 C 59.7797 0.491279 -7.02284 0
M  V30 318 C 59.0697 0.996264 -5.77469 0
M  V30 319 N 59.1197 0.0501916 -4.62973 0
M  V30 320 C 59.0397 -1.32786 -4.63244 0
M  V30 321 N 59.1197 -1.86957 -3.44545 0
M  V30 322 C 59.2597 -0.780241 -2.58481 0
M  V30 323 C 59.3897 -0.738536 -1.17757 0
M  V30 324 N 59.5097 0.58337 -0.711393 0
M  V30 325 C 59.5097 1.70816 -1.51017 0
M  V30 326 N 59.6397 2.87826 -0.880757 0
M  V30 327 N 59.3797 1.67126 -2.8339 0
M  V30 328 C 59.2597 0.401421 -3.30572 0
M  V30 329 H 56.2807 -0.374722 -8.67691 0
M  V30 330 H 56.0107 -0.443485 -6.90277 0
M  V30 331 H 56.8777 1.75537 -7.96793 0
M  V30 332 P 60.8396 2.75334 -8.47391 0
M  V30 333 O 61.0596 3.84166 -9.4489 0
M  V30 334 O 61.6296 1.51964 -8.6881 0
M  V30 335 O 61.0896 3.29363 -6.99321 0
M  V30 336 C 60.1496 4.23956 -6.42656 0
M  V30 337 C 60.8796 5.20775 -5.52155 0
M  V30 338 O 61.0896 4.56534 -4.22446 0
M  V30 339 C 62.2796 5.62629 -5.96531 0
M  V30 340 O 62.6696 6.87667 -5.41053 0
M  V30 341 C 63.1596 4.52537 -5.39283 0
M  V30 342 C 62.4496 4.20027 -4.08623 0
M  V30 343 N 62.4996 2.7613 -3.71522 0
M  V30 344 C 62.6496 2.45612 -2.37989 0
M  V30 345 O 62.7396 3.30919 -1.51621 0
M  V30 346 N 62.6896 1.10684 -2.08435 0
M  V30 347 C 62.5996 0.0690084 -2.9792 0
M  V30 348 C 62.4496 0.481522 -4.35345 0
M  V30 349 C 62.3996 1.78906 -4.67968 0
M  V30 350 H 59.6596 4.797 -7.24003 0
M  V30 351 H 59.3906 3.69802 -5.84429 0
M  V30 352 H 60.2576 6.10356 -5.41441 0
M  V30 353 H 62.9126 4.78651 -3.27911 0
M  V30 354 H 63.1916 3.64957 -6.05871 0
M  V30 355 H 64.1836 4.8868 -5.2125 0
M  V30 356 H 62.3496 5.66726 -7.06352 0
M  V30 357 H 62.2786 2.07737 -5.72367 0
M  V30 358 P 64.2196 7.20834 -5.23717 0
M  V30 359 O 64.4396 8.66104 -5.38572 0
M  V30 360 O 65.0096 6.33544 -6.1349 0
M  V30 361 O 64.4696 6.7751 -3.72168 0
M  V30 362 C 63.5296 7.20825 -2.7076 0
M  V30 363 C 64.2596 7.45864 -1.40599 0
M  V30 364 O 64.4696 6.17651 -0.734225 0
M  V30 365 C 65.6596 8.05808 -1.51899 0
M  V30 366 O 66.0496 8.74358 -0.335205 0
M  V30 367 C 66.5396 6.83093 -1.70294 0
M  V30 368 C 65.8296 5.79992 -0.836974 0
M  V30 369 N 65.8796 4.41864 -1.38293 0
M  V30 370 H 63.0406 8.13644 -3.0377 0
M  V30 371 H 62.7706 6.42788 -2.55485 0
M  V30 372 H 63.6376 8.12039 -0.792769 0
M  V30 373 P 67.5996 8.91 -4.36464e-15 0
M  V30 374 O 67.8196 10.1726 0.733694 0
M  V30 375 O 68.3896 8.73148 -1.23936 0
M  V30 376 O 67.8496 7.66872 0.971405 0
M  V30 377 C 66.9096 7.42309 2.04641 0
M  V30 378 C 67.6396 6.86059 3.24661 0
M  V30 379 O 67.8496 5.42847 3.03646 0
M  V30 380 C 69.0396 7.41196 3.50753 0
M  V30 381 O 69.4296 7.27073 4.86816 0
M  V30 382 C 69.9196 6.5273 2.63741 0
M  V30 383 C 69.2096 5.1842 2.73198 0
M  V30 384 N 69.2596 4.38762 1.4784 0
M  V30 385 H 66.4206 8.36803 2.32493 0
M  V30 386 H 66.1506 6.70197 1.71129 0
M  V30 387 H 67.0176 7.03551 4.13168 0
M  V30 388 P 70.9796 7.20834 5.23717 0
M  V30 389 O 71.1996 7.79853 6.57286 0
M  V30 390 O 71.7696 7.79239 4.12957 0
M  V30 391 O 71.2296 5.63315 5.29344 0
M  V30 392 C 70.2896 4.80255 6.01876 0
M  V30 393 C 71.0196 3.64202 6.65911 0
M  V30 394 O 71.2296 2.60694 5.64732 0
M  V30 395 C 72.4196 3.93473 7.1943 0
M  V30 396 O 72.8096 3.02071 8.21205 0
M  V30 397 C 73.2996 3.73047 5.97036 0
M  V30 398 C 72.5896 2.58828 5.25741 0
M  V30 399 N 72.6396 2.68068 3.77503 0
M  V30 400 H 69.8006 5.40332 6.79951 0
M  V30 401 H 69.5306 4.41613 5.32378 0
M  V30 402 H 70.3976 3.26331 7.47797 0
M  V30 403 P 74.3596 2.75334 8.47391 0
M  V30 404 O 74.5796 2.44571 9.90142 0
M  V30 405 O 75.1496 3.87688 7.92115 0
M  V30 406 O 74.6096 1.4459 7.59357 0
M  V30 407 C 73.6696 0.347608 7.69215 0
M  V30 408 C 74.3996 -0.96767 7.52806 0
M  V30 409 O 74.6096 -1.21036 6.1011 0
M  V30 410 C 75.7996 -1.04544 8.13308 0
M  V30 411 O 76.1896 -2.38311 8.41922 0
M  V30 412 C 76.6796 -0.491279 7.02284 0
M  V30 413 C 75.9696 -0.996264 5.77469 0
M  V30 414 N 76.0196 -0.0501916 4.62973 0
M  V30 415 H 73.1806 0.374722 8.67691 0
M  V30 416 H 72.9106 0.443485 6.90277 0
M  V30 417 H 73.7776 -1.75537 7.96793 0
M  V30 418 P 77.7395 -2.75334 8.47391 0
M  V30 419 O 77.9595 -3.84128 9.44797 0
M  V30 420 O 78.5295 -1.51947 8.68712 0
M  V30 421 O 77.9895 -3.29363 6.99321 0
M  V30 422 C 77.0495 -4.24011 6.4274 0
M  V30 423 C 77.7795 -5.20775 5.52155 0
M  V30 424 O 77.9895 -4.56534 4.22446 0
M  V30 425 C 79.1795 -5.62629 5.96531 0
M  V30 426 O 79.5695 -6.87667 5.41053 0
M  V30 427 C 80.0595 -4.52537 5.39283 0
M  V30 428 C 79.3495 -4.20027 4.08623 0
M  V30 429 N 79.3995 -2.76189 3.71603 0
M  V30 430 C 79.3195 -1.64862 4.52822 0
M  V30 431 N 79.3995 -0.512671 3.88633 0
M  V30 432 C 79.5395 -0.888083 2.54977 0
M  V30 433 C 79.6695 -0.094668 1.38677 0
M  V30 434 O 79.6895 1.13053 1.28163 0
M  V30 435 N 79.7895 -0.890102 0.232633 0
M  V30 436 C 79.7895 -2.26958 0.21772 0
M  V30 437 N 79.9195 -2.84626 -0.97925 0
M  V30 438 N 79.6595 -3.0178 1.31033 0
M  V30 439 C 79.5395 -2.26781 2.43843 0
M  V30 440 H 76.5605 -4.797 7.24003 0
M  V30 441 H 76.2905 -3.69856 5.84513 0
M  V30 442 H 77.1575 -6.10356 5.41441 0
M  V30 443 H 79.8125 -4.79061 3.27488 0
M  V30 444 H 80.0915 -3.64906 6.05785 0
M  V30 445 H 81.0835 -4.8868 5.2125 0
M  V30 446 H 79.2495 -5.66726 7.06352 0
M  V30 447 H 79.2005 -1.71169 5.60966 0
M  V30 448 H 79.8825 -0.419134 -0.644739 0
M  V30 449 H 79.9195 -3.87332 -1.06098 0
M  V30 450 H 80.0205 -2.26417 -1.82483 0
M  V30 451 P 81.1195 -7.20834 5.23717 0
M  V30 452 O 81.3395 -8.66104 5.38572 0
M  V30 453 O 81.9095 -6.33544 6.1349 0
M  V30 454 O 81.3695 -6.7751 3.72168 0
M  V30 455 C 80.4295 -7.20825 2.7076 0
M  V30 456 C 81.1595 -7.45864 1.40599 0
M  V30 457 O 81.3695 -6.17651 0.734225 0
M  V30 458 C 82.5595 -8.05808 1.51899 0
M  V30 459 O 82.9495 -8.74358 0.335205 0
M  V30 460 C 83.4395 -6.83093 1.70294 0
M  V30 461 C 82.7295 -5.79992 0.836974 0
M  V30 462 N 82.7795 -4.41864 1.38293 0
M  V30 463 C 82.6995 -3.99538 2.69438 0
M  V30 464 N 82.7795 -2.69909 2.84277 0
M  V30 465 C 82.9195 -2.21719 1.5408 0
M  V30 466 C 83.0495 -0.891712 1.06628 0
M  V30 467 N 83.1695 -0.856846 -0.334985 0
M  V30 468 C 83.1695 -1.9641 -1.15789 0
M  V30 469 N 83.2995 -1.72708 -2.46522 0
M  V30 470 N 83.0395 -3.21165 -0.713741 0
M  V30 471 C 82.9195 -3.26797 0.639748 0
M  V30 472 H 79.9405 -8.13644 3.0377 0
M  V30 473 H 79.6705 -6.42788 2.55485 0
M  V30 474 H 80.5375 -8.12039 0.792769 0
M  V30 475 P 84.4995 -8.91 5.4558e-15 0
M  V30 476 O 84.7195 -10.1726 -0.733694 0
M  V30 477 O 85.2895 -8.73148 1.23936 0
M  V30 478 O 84.7495 -7.66872 -0.971405 0
M  V30 479 C 83.8095 -7.42309 -2.04641 0
M  V30 480 C 84.5395 -6.86059 -3.24661 0
M  V30 481 O 84.7495 -5.42847 -3.03646 0
M  V30 482 C 85.9395 -7.41196 -3.50753 0
M  V30 483 O 86.3295 -7.27073 -4.86816 0
M  V30 484 C 86.8195 -6.5273 -2.63741 0
M  V30 485 C 86.1095 -5.1842 -2.73198 0
M  V30 486 N 86.1595 -4.38762 -1.4784 0
M  V30 487 H 83.3205 -8.36803 -2.32493 0
M  V30 488 H 83.0505 -6.70197 -1.71129 0
M  V30 489 H 83.9175 -7.03551 -4.13168 0
M  V30 490 P 87.8795 -7.20834 -5.23717 0
M  V30 491 O 88.0995 -7.79853 -6.57286 0
M  V30 492 O 88.6695 -7.79239 -4.12957 0
M  V30 493 O 88.1295 -5.63315 -5.29344 0
M  V30 494 C 87.1895 -4.80255 -6.01876 0
M  V30 495 C 87.9195 -3.64202 -6.65911 0
M  V30 496 O 88.1295 -2.60694 -5.64732 0
M  V30 497 C 89.3195 -3.93473 -7.1943 0
M  V30 498 O 89.7095 -3.02071 -8.21205 0
M  V30 499 C 90.1995 -3.73047 -5.97036 0
M  V30 500 C 89.4895 -2.58828 -5.25741 0
M  V30 501 N 89.5395 -2.68068 -3.77503 0
M  V30 502 C 89.4595 -3.79715 -2.96723 0
M  V30 503 N 89.5395 -3.5377 -1.68852 0
M  V30 504 C 89.6795 -2.15054 -1.63254 0
M  V30 505 C 89.8095 -1.28964 -0.518571 0
M  V30 506 N 89.9295 0.0538097 -0.918425 0
M  V30 507 C 89.9295 0.494275 -2.22578 0
M  V30 508 N 90.0595 1.81086 -2.40434 0
M  V30 509 N 89.7995 -0.313645 -3.27502 0
M  V30 510 C 89.6795 -1.61829 -2.91033 0
M  V30 511 H 86.7005 -5.40332 -6.79951 0
M  V30 512 H 86.4305 -4.41613 -5.32378 0
M  V30 513 H 87.2975 -3.26331 -7.47797 0
M  V30 514 P 91.2595 -2.75334 -8.47391 0
M  V30 515 O 91.4795 -2.44595 -9.90239 0
M  V30 516 O 92.0495 -3.87732 -7.92204 0
M  V30 517 O 91.5095 -1.4459 -7.59357 0
M  V30 518 C 90.5695 -0.347563 -7.69115 0
M  V30 519 C 91.2995 0.96767 -7.52806 0
M  V30 520 O 91.5095 1.21036 -6.1011 0
M  V30 521 C 92.6995 1.04544 -8.13308 0
M  V30 522 O 93.0895 2.38311 -8.41922 0
M  V30 523 C 93.5795 0.491279 -7.02284 0
M  V30 524 C 92.8695 0.996264 -5.77469 0
M  V30 525 N 92.9195 0.0501808 -4.62873 0
M  V30 526 C 93.0695 0.588177 -3.36904 0
M  V30 527 O 93.1595 1.78598 -3.17173 0
M  V30 528 N 93.1095 -0.329694 -2.33686 0
M  V30 529 C 93.0195 -1.6953 -2.45079 0
M  V30 530 O 93.0695 -2.41926 -1.44899 0
M  V30 531 C 92.8695 -2.16933 -3.80505 0
M  V30 532 C 92.7595 -3.65373 -3.97621 0
M  V30 533 C 92.8195 -1.30326 -4.83752 0
M  V30 534 H 90.0795 -0.374722 -8.67691 0
M  V30 535 H 89.8105 -0.443421 -6.90177 0
M  V30 536 H 90.6775 1.75537 -7.96793 0
M  V30 537 H 93.3325 1.94496 -5.46629 0
M  V30 538 H 93.6115 -0.608651 -7.04676 0
M  V30 539 H 94.6035 0.889672 -7.08939 0
M  V30 540 H 92.7695 0.43308 -9.04564 0
M  V30 541 H 92.6985 -1.68366 -5.8516 0
M  V30 542 H 93.7285 -4.05985 -4.30448 0
M  V30 543 H 91.9915 -3.88028 -4.72875 0
M  V30 544 H 92.4795 -4.11381 -3.01609 0
M  V30 545 H 93.2155 0.0393617 -1.41345 0
M  V30 546 P 94.6394 2.75334 -8.47391 0
M  V30 547 O 94.8594 3.84128 -9.44797 0
M  V30 548 O 95.4294 1.51947 -8.68712 0
M  V30 549 O 94.8894 3.29363 -6.99321 0
M  V30 550 C 93.9494 4.24011 -6.4274 0
M  V30 551 C 94.6794 5.20775 -5.52155 0
M  V30 552 O 94.8894 4.56534 -4.22446 0
M  V30 553 C 96.0794 5.62629 -5.96531 0
M  V30 554 O 96.4694 6.87667 -5.41053 0
M  V30 555 C 96.9594 4.52537 -5.39283 0
M  V30 556 C 96.2494 4.20027 -4.08623 0
M  V30 557 N 96.2994 2.76189 -3.71603 0
M  V30 558 C 96.2194 1.64862 -4.52822 0
M  V30 559 N 96.2994 0.512671 -3.88633 0
M  V30 560 C 96.4394 0.888083 -2.54977 0
M  V30 561 C 96.5694 0.094668 -1.38677 0
M  V30 562 N 96.6894 0.890102 -0.232633 0
M  V30 563 C 96.6894 2.26958 -0.21772 0
M  V30 564 N 96.8194 2.84626 0.97925 0
M  V30 565 N 96.5594 3.0178 -1.31033 0
M  V30 566 C 96.4394 2.26781 -2.43843 0
M  V30 567 H 93.4604 4.797 -7.24003 0
M  V30 568 H 93.1904 3.69856 -5.84513 0
M  V30 569 H 94.0574 6.10356 -5.41441 0
M  V30 570 P 98.0194 7.20834 -5.23717 0
M  V30 571 O 98.2394 8.66104 -5.38572 0
M  V30 572 O 98.8094 6.33544 -6.1349 0
M  V30 573 O 98.2694 6.7751 -3.72168 0
M  V30 574 C 97.3294 7.20825 -2.7076 0
M  V30 575 C 98.0594 7.45864 -1.40599 0
M  V30 576 O 98.2694 6.17651 -0.734225 0
M  V30 577 C 99.4594 8.05808 -1.51899 0
M  V30 578 O 99.8494 8.74358 -0.335205 0
M  V30 579 C 100.339 6.83093 -1.70294 0
M  V30 580 C 99.6294 5.79992 -0.836974 0
M  V30 581 N 99.6794 4.41864 -1.38293 0
M  V30 582 H 96.8404 8.13644 -3.0377 0
M  V30 583 H 96.5704 6.42788 -2.55485 0
M  V30 584 H 97.4374 8.12039 -0.792769 0
M  V30 585 P 101.399 8.91 -6.54696e-15 0
M  V30 586 O 101.619 10.1726 0.733694 0
M  V30 587 O 102.189 8.73148 -1.23936 0
M  V30 588 O 101.649 7.66872 0.971405 0
M  V30 589 C 100.709 7.42309 2.04641 0
M  V30 590 C 101.439 6.86059 3.24661 0
M  V30 591 O 101.649 5.42847 3.03646 0
M  V30 592 C 102.839 7.41196 3.50753 0
M  V30 593 O 103.229 7.27073 4.86816 0
M  V30 594 C 103.719 6.5273 2.63741 0
M  V30 595 C 103.009 5.1842 2.73198 0
M  V30 596 N 103.059 4.38762 1.4784 0
M  V30 597 H 100.22 8.36803 2.32493 0
M  V30 598 H 99.9504 6.70197 1.71129 0
M  V30 599 H 100.817 7.03551 4.13168 0
M  V30 600 P 104.779 7.20834 5.23717 0
M  V30 601 O 104.999 7.79853 6.57286 0
M  V30 602 O 105.569 7.79239 4.12957 0
M  V30 603 O 105.029 5.63315 5.29344 0
M  V30 604 C 104.089 4.80255 6.01876 0
M  V30 605 C 104.819 3.64202 6.65911 0
M  V30 606 O 105.029 2.60694 5.64732 0
M  V30 607 C 106.219 3.93473 7.1943 0
M  V30 608 O 106.609 3.02071 8.21205 0
M  V30 609 C 107.099 3.73047 5.97036 0
M  V30 610 C 106.389 2.58828 5.25741 0
M  V30 611 N 106.439 2.68068 3.77503 0
M  V30 612 H 103.6 5.40332 6.79951 0
M  V30 613 H 103.33 4.41613 5.32378 0
M  V30 614 H 104.197 3.26331 7.47797 0
M  V30 615 P 108.159 2.75334 8.47391 0
M  V30 616 O 108.379 2.44595 9.90239 0
M  V30 617 O 108.949 3.87732 7.92204 0
M  V30 618 O 108.409 1.4459 7.59357 0
M  V30 619 C 107.469 0.347563 7.69115 0
M  V30 620 C 108.199 -0.96767 7.52806 0
M  V30 621 O 108.409 -1.21036 6.1011 0
M  V30 622 C 109.599 -1.04544 8.13308 0
M  V30 623 O 109.989 -2.38311 8.41922 0
M  V30 624 C 110.479 -0.491279 7.02284 0
M  V30 625 C 109.769 -0.996264 5.77469 0
M  V30 626 N 109.819 -0.0501808 4.62873 0
M  V30 627 C 109.969 -0.588177 3.36904 0
M  V30 628 O 110.059 -1.78598 3.17173 0
M  V30 629 N 110.009 0.329694 2.33686 0
M  V30 630 C 109.919 1.6953 2.45079 0
M  V30 631 C 109.769 2.16933 3.80505 0
M  V30 632 C 109.719 1.30326 4.83752 0
M  V30 633 H 106.979 0.374722 8.67691 0
M  V30 634 H 106.71 0.443421 6.90177 0
M  V30 635 H 107.577 -1.75537 7.96793 0
M  V30 636 H 110.232 -1.94496 5.46629 0
M  V30 637 H 110.511 0.608651 7.04676 0
M  V30 638 H 111.503 -0.889672 7.08939 0
M  V30 639 H 109.669 -0.43308 9.04564 0
M  V30 640 H 109.598 1.68366 5.8516 0
M  V30 641 P 111.539 -2.75334 8.47391 0
M  V30 642 O 111.759 -3.84128 9.44797 0
M  V30 643 O 112.329 -1.51947 8.68712 0
M  V30 644 O 111.789 -3.29363 6.99321 0
M  V30 645 C 110.849 -4.24011 6.4274 0
M  V30 646 C 111.579 -5.20775 5.52155 0
M  V30 647 O 111.789 -4.56534 4.22446 0
M  V30 648 C 112.979 -5.62629 5.96531 0
M  V30 649 O 113.369 -6.87667 5.41053 0
M  V30 650 C 113.859 -4.52537 5.39283 0
M  V30 651 C 113.149 -4.20027 4.08623 0
M  V30 652 N 113.199 -2.76189 3.71603 0
M  V30 653 H 110.36 -4.797 7.24003 0
M  V30 654 H 110.09 -3.69856 5.84513 0
M  V30 655 H 110.957 -6.10356 5.41441 0
M  V30 656 P 114.919 -7.20834 5.23717 0
M  V30 657 O 115.139 -8.66104 5.38572 0
M  V30 658 O 115.709 -6.33544 6.1349 0
M  V30 659 O 115.169 -6.7751 3.72168 0
M  V30 660 C 114.229 -7.20825 2.7076 0
M  V30 661 C 114.959 -7.45864 1.40599 0
M  V30 662 O 115.169 -6.17651 0.734225 0
M  V30 663 C 116.359 -8.05808 1.51899 0
M  V30 664 O 116.749 -8.74358 0.335205 0
M  V30 665 C 117.239 -6.83093 1.70294 0
M  V30 666 C 116.529 -5.79992 0.836974 0
M  V30 667 N 116.579 -4.41864 1.38293 0
M  V30 668 H 113.74 -8.13644 3.0377 0
M  V30 669 H 113.47 -6.42788 2.55485 0
M  V30 670 H 114.337 -8.12039 0.792769 0
M  V30 671 P 118.299 -8.91 7.63812e-15 0
M  V30 672 O 118.519 -10.1726 -0.733694 0
M  V30 673 O 119.089 -8.73148 1.23936 0
M  V30 674 O 118.549 -7.66872 -0.971405 0
M  V30 675 C 117.609 -7.42309 -2.04641 0
M  V30 676 C 118.339 -6.86059 -3.24661 0
M  V30 677 O 118.549 -5.42847 -3.03646 0
M  V30 678 C 119.739 -7.41196 -3.50753 0
M  V30 679 O 120.129 -7.27073 -4.86816 0
M  V30 680 C 120.619 -6.5273 -2.63741 0
M  V30 681 C 119.909 -5.1842 -2.73198 0
M  V30 682 N 119.959 -4.38762 -1.4784 0
M  V30 683 H 117.12 -8.36803 -2.32493 0
M  V30 684 H 116.85 -6.70197 -1.71129 0
M  V30 685 H 117.717 -7.03551 -4.13168 0
M  V30 686 P 121.679 -7.20834 -5.23717 0
M  V30 687 O 121.899 -7.79853 -6.57286 0
M  V30 688 O 122.469 -7.79239 -4.12957 0
M  V30 689 O 121.929 -5.63315 -5.29344 0
M  V30 690 C 120.989 -4.80255 -6.01876 0
M  V30 691 C 121.719 -3.64202 -6.65911 0
M  V30 692 O 121.929 -2.60694 -5.64732 0
M  V30 693 C 123.119 -3.93473 -7.1943 0
M  V30 694 O 123.509 -3.02071 -8.21205 0
M  V30 695 C 123.999 -3.73047 -5.97036 0
M  V30 696 C 123.289 -2.58828 -5.25741 0
M  V30 697 N 123.339 -2.68068 -3.77503 0
M  V30 698 H 120.5 -5.40332 -6.79951 0
M  V30 699 H 120.23 -4.41613 -5.32378 0
M  V30 700 H 121.097 -3.26331 -7.47797 0
M  V30 701 P 125.059 -2.75334 -8.47391 0
M  V30 702 O 125.279 -2.44571 -9.90142 0
M  V30 703 O 125.849 -3.87688 -7.92115 0
M  V30 704 O 125.309 -1.4459 -7.59357 0
M  V30 705 C 124.369 -0.347608 -7.69215 0
M  V30 706 C 125.099 0.96767 -7.52806 0
M  V30 707 O 125.309 1.21036 -6.1011 0
M  V30 708 C 126.499 1.04544 -8.13308 0
M  V30 709 O 126.889 2.38311 -8.41922 0
M  V30 710 C 127.379 0.491279 -7.02284 0
M  V30 711 C 126.669 0.996264 -5.77469 0
M  V30 712 N 126.719 0.0501916 -4.62973 0
M  V30 713 H 123.88 -0.374722 -8.67691 0
M  V30 714 H 123.61 -0.443485 -6.90277 0
M  V30 715 H 124.477 1.75537 -7.96793 0
M  V30 716 P 128.439 2.75334 -8.47391 0
M  V30 717 O 128.659 3.84204 -9.44982 0
M  V30 718 O 129.229 1.51982 -8.68909 0
M  V30 719 O 128.689 3.29363 -6.99321 0
M  V30 720 C 127.749 4.24066 -6.42823 0
M  V30 721 C 128.479 5.20775 -5.52155 0
M  V30 722 O 128.689 4.56607 -4.22514 0
M  V30 723 C 129.879 5.62697 -5.96604 0
M  V30 724 O 130.269 6.87667 -5.41053 0
M  V30 725 C 130.759 4.52537 -5.39283 0
M  V30 726 C 130.049 4.20027 -4.08623 0
M  V30 727 N 130.099 2.76189 -3.71603 0
M  V30 728 C 130.019 1.66944 -4.54297 0
M  V30 729 N 130.089 0.536169 -3.91344 0
M  V30 730 C 130.239 0.901569 -2.58849 0
M  V30 731 C 130.369 0.146599 -1.40236 0
M  V30 732 N 130.379 -1.18234 -1.37046 0
M  V30 733 N 130.489 0.822941 -0.249738 0
M  V30 734 C 130.479 2.15179 -0.280525 0
M  V30 735 N 130.359 2.96414 -1.30822 0
M  V30 736 C 130.239 2.25804 -2.44748 0
M  V30 737 H 127.261 4.79756 -7.24086 0
M  V30 738 H 126.989 3.69963 -5.84682 0
M  V30 739 H 127.857 6.10431 -5.41508 0
M  V30 740 H 130.512 4.78816 -3.28024 0
M  V30 741 H 130.792 3.64957 -6.05871 0
M  V30 742 H 131.783 4.88748 -5.21323 0
M  V30 743 H 129.949 5.66789 -7.0643 0
M  V30 744 H 129.908 1.74684 -5.62396 0
M  V30 745 H 130.289 -1.71949 -2.24394 0
M  V30 746 H 130.478 -1.67511 -0.470742 0
M  V30 747 H 130.586 2.63704 0.6828 0
M  V30 748 P 131.819 7.20834 -5.23717 0
M  V30 749 O 132.039 8.66274 -5.38678 0
M  V30 750 O 132.609 6.33687 -6.13629 0
M  V30 751 O 132.069 6.7751 -3.72168 0
M  V30 752 C 131.129 7.20919 -2.70795 0
M  V30 753 C 131.859 7.45864 -1.40599 0
M  V30 754 O 132.069 6.17751 -0.734343 0
M  V30 755 C 133.259 8.05906 -1.51917 0
M  V30 756 O 133.649 8.74358 -0.335205 0
M  V30 757 C 134.139 6.83093 -1.70294 0
M  V30 758 C 133.429 5.79992 -0.836974 0
M  V30 759 N 133.479 4.41864 -1.38293 0
M  V30 760 H 130.641 8.13738 -3.03804 0
M  V30 761 H 130.369 6.42974 -2.55559 0
M  V30 762 H 131.237 8.12139 -0.792866 0
M  V30 763 H 133.892 5.80178 0.160643 0
M  V30 764 H 134.172 6.51379 -2.75643 0
M  V30 765 H 135.163 7.01832 -1.3448 0
M  V30 766 H 133.329 8.73771 -2.38364 0
M  V30 767 P 135.199 8.91 -8.72928e-15 0
M  V30 768 O 135.419 10.1736 0.733766 0
M  V30 769 O 135.989 8.73247 -1.2395 0
M  V30 770 O 135.449 7.66872 0.971405 0
M  V30 771 C 134.509 7.42309 2.04641 0
M  V30 772 C 135.239 6.86059 3.24661 0
M  V30 773 O 135.449 5.42847 3.03646 0
M  V30 774 C 136.639 7.41196 3.50753 0
M  V30 775 O 137.029 7.27073 4.86816 0
M  V30 776 C 137.519 6.5273 2.63741 0
M  V30 777 C 136.809 5.1842 2.73198 0
M  V30 778 N 136.859 4.38668 1.47808 0
M  V30 779 C 137.009 3.00789 1.58511 0
M  V30 780 O 137.099 2.50116 2.71298 0
M  V30 781 N 137.059 2.29703 0.253698 0
M  V30 782 C 136.959 2.84269 -0.750133 0
M  V30 783 N 137.009 2.06951 -1.82612 0
M  V30 784 C 136.809 4.25803 -0.889776 0
M  V30 785 C 136.759 4.98326 0.259363 0
M  V30 786 H 134.019 8.36707 2.32466 0
M  V30 787 H 133.75 6.701 1.71105 0
M  V30 788 H 134.617 7.03638 4.13219 0
M  V30 789 H 137.272 4.59852 3.53955 0
M  V30 790 H 137.551 6.88995 1.59871 0
M  V30 791 H 138.543 6.46749 3.03687 0
M  V30 792 H 136.709 8.46908 3.20714 0
M  V30 793 H 136.637 6.06349 0.206238 0
M  V30 794 H 136.739 4.73163 -1.86796 0
M  V30 795 H 137.127 1.05099 -1.72271 0
M  V30 796 H 136.93 2.48716 -2.76361 0
M  V30 797 P 138.579 7.20834 5.23717 0
M  V30 798 O 138.799 7.79853 6.57286 0
M  V30 799 O 139.369 7.79239 4.12957 0
M  V30 800 O 138.829 5.63315 5.29344 0
M  V30 801 C 137.889 4.80255 6.01876 0
M  V30 802 C 138.619 3.64202 6.65911 0
M  V30 803 O 138.829 2.60694 5.64732 0
M  V30 804 C 140.019 3.93473 7.1943 0
M  V30 805 O 140.409 3.02071 8.21205 0
M  V30 806 C 140.899 3.73047 5.97036 0
M  V30 807 C 140.189 2.58828 5.25741 0
M  V30 808 N 140.239 2.68068 3.77503 0
M  V30 809 H 137.4 5.40332 6.79951 0
M  V30 810 H 137.13 4.41613 5.32378 0
M  V30 811 H 137.997 3.26331 7.47797 0
M  V30 812 P 141.959 2.75334 8.47391 0
M  V30 813 O 142.179 2.44571 9.90142 0
M  V30 814 O 142.749 3.87688 7.92115 0
M  V30 815 O 142.209 1.4459 7.59357 0
M  V30 816 C 141.269 0.347608 7.69215 0
M  V30 817 C 141.999 -0.96767 7.52806 0
M  V30 818 O 142.209 -1.21036 6.1011 0
M  V30 819 C 143.399 -1.04544 8.13308 0
M  V30 820 O 143.789 -2.38311 8.41922 0
M  V30 821 C 144.279 -0.491279 7.02284 0
M  V30 822 C 143.569 -0.996264 5.77469 0
M  V30 823 N 143.619 -0.0501916 4.62973 0
M  V30 824 H 140.78 0.374722 8.67691 0
M  V30 825 H 140.51 0.443485 6.90277 0
M  V30 826 H 141.377 -1.75537 7.96793 0
M  V30 827 P 145.339 -2.75334 8.47391 0
M  V30 828 O 145.559 -3.84128 9.44797 0
M  V30 829 O 146.129 -1.51947 8.68712 0
M  V30 830 O 145.589 -3.29363 6.99321 0
M  V30 831 C 144.649 -4.24011 6.4274 0
M  V30 832 C 145.379 -5.20775 5.52155 0
M  V30 833 O 145.589 -4.56534 4.22446 0
M  V30 834 C 146.779 -5.62629 5.96531 0
M  V30 835 O 147.169 -6.87667 5.41053 0
M  V30 836 C 147.659 -4.52537 5.39283 0
M  V30 837 C 146.949 -4.20027 4.08623 0
M  V30 838 N 146.999 -2.76189 3.71603 0
M  V30 839 H 144.16 -4.797 7.24003 0
M  V30 840 H 143.89 -3.69856 5.84513 0
M  V30 841 H 144.757 -6.10356 5.41441 0
M  V30 842 P 148.719 -7.20834 5.23717 0
M  V30 843 O 148.939 -8.66104 5.38572 0
M  V30 844 O 149.509 -6.33544 6.1349 0
M  V30 845 O 148.969 -6.7751 3.72168 0
M  V30 846 C 148.029 -7.20825 2.7076 0
M  V30 847 C 148.759 -7.45864 1.40599 0
M  V30 848 O 148.969 -6.17651 0.734225 0
M  V30 849 C 150.159 -8.05808 1.51899 0
M  V30 850 O 150.549 -8.74358 0.335205 0
M  V30 851 C 151.039 -6.83093 1.70294 0
M  V30 852 C 150.329 -5.79992 0.836974 0
M  V30 853 N 150.379 -4.41864 1.38293 0
M  V30 854 H 147.54 -8.13644 3.0377 0
M  V30 855 H 147.27 -6.42788 2.55485 0
M  V30 856 H 148.137 -8.12039 0.792769 0
M  V30 857 P 152.099 -8.91 9.82044e-15 0
M  V30 858 O 152.319 -10.1746 -0.733838 0
M  V30 859 O 152.889 -8.73346 1.23964 0
M  V30 860 O 152.349 -7.66872 -0.971405 0
M  V30 861 C 151.409 -7.42405 -2.04668 0
M  V30 862 C 152.139 -6.86059 -3.24661 0
M  V30 863 O 152.349 -5.42934 -3.03695 0
M  V30 864 C 153.539 -7.41287 -3.50796 0
M  V30 865 O 153.929 -7.27073 -4.86816 0
M  V30 866 C 154.419 -6.5273 -2.63741 0
M  V30 867 C 153.709 -5.1842 -2.73198 0
M  V30 868 N 153.759 -4.38762 -1.4784 0
M  V30 869 C 153.679 -4.83651 -0.183876 0
M  V30 870 N 153.749 -3.88759 0.699393 0
M  V30 871 C 153.899 -2.7404 -0.0575568 0
M  V30 872 C 154.029 -1.37902 0.293928 0
M  V30 873 N 154.039 -0.938021 1.54797 0
M  V30 874 N 154.149 -0.491817 -0.70549 0
M  V30 875 C 154.139 -0.931735 -1.95979 0
M  V30 876 N 154.019 -2.16017 -2.41481 0
M  V30 877 C 153.899 -3.02547 -1.39121 0
M  V30 878 H 150.921 -8.36899 -2.3252 0
M  V30 879 H 150.649 -6.70391 -1.71179 0
M  V30 880 H 151.517 -7.03638 -4.13219 0
M  V30 881 H 154.172 -4.59931 -3.54016 0
M  V30 882 H 154.452 -6.88995 -1.59871 0
M  V30 883 H 155.443 -6.4684 -3.0373 0
M  V30 884 H 153.609 -8.47002 -3.20749 0
M  V30 885 H 153.568 -5.8885 0.0765548 0
M  V30 886 H 153.949 -1.60276 2.32875 0
M  V30 887 H 154.138 0.0699355 1.73859 0
M  V30 888 H 154.246 -0.165507 -2.71897 0
M  V30 889 P 155.479 -7.20834 -5.23717 0
M  V30 890 O 155.699 -7.7993 -6.57351 0
M  V30 891 O 156.269 -7.79328 -4.13004 0
M  V30 892 O 155.729 -5.63315 -5.29344 0
M  V30 893 C 154.789 -4.80193 -6.01798 0
M  V30 894 C 155.519 -3.64202 -6.65911 0
M  V30 895 O 155.729 -2.60694 -5.64732 0
M  V30 896 C 156.919 -3.93473 -7.1943 0
M  V30 897 O 157.309 -3.02071 -8.21205 0
M  V30 898 C 157.799 -3.73047 -5.97036 0
M  V30 899 C 157.089 -2.58828 -5.25741 0
M  V30 900 N 157.139 -2.6801 -3.77422 0
M  V30 901 C 157.289 -1.50443 -3.07133 0
M  V30 902 O 157.379 -0.419406 -3.61576 0
M  V30 903 N 157.329 -1.6403 -1.69677 0
M  V30 904 C 157.239 -2.81206 -0.986255 0
M  V30 905 O 157.289 -2.80892 0.249754 0
M  V30 906 C 157.089 -3.99158 -1.80325 0
M  V30 907 C 156.979 -5.29309 -1.06921 0
M  V30 908 C 157.039 -3.89779 -3.1476 0
M  V30 909 H 154.299 -5.40332 -6.79951 0
M  V30 910 H 154.03 -4.41549 -5.32301 0
M  V30 911 H 154.897 -3.26331 -7.47797 0
M  V30 912 H 157.552 -1.6395 -5.56554 0
M  V30 913 H 157.831 -4.63439 -5.3432 0
M  V30 914 H 158.823 -3.44728 -6.25838 0
M  V30 915 H 156.989 -4.96652 -7.57263 0
M  V30 916 H 156.918 -4.80159 -3.74441 0
M  V30 917 H 157.948 -5.81459 -1.09608 0
M  V30 918 H 156.211 -5.9187 -1.54487 0
M  V30 919 H 156.699 -5.10095 -0.0220288 0
M  V30 920 H 157.435 -0.798962 -1.16664 0
M  V30 921 P 158.859 -2.75334 -8.47391 0
M  V30 922 O 159.079 -2.44571 -9.90142 0
M  V30 923 O 159.649 -3.87688 -7.92115 0
M  V30 924 O 159.109 -1.4459 -7.59357 0
M  V30 925 C 158.169 -0.347608 -7.69215 0
M  V30 926 C 158.899 0.96767 -7.52806 0
M  V30 927 O 159.109 1.21036 -6.1011 0
M  V30 928 C 160.299 1.04544 -8.13308 0
M  V30 929 O 160.689 2.38311 -8.41922 0
M  V30 930 C 161.179 0.491279 -7.02284 0
M  V30 931 C 160.469 0.996264 -5.77469 0
M  V30 932 N 160.519 0.0501916 -4.62973 0
M  V30 933 H 157.68 -0.374722 -8.67691 0
M  V30 934 H 157.41 -0.443485 -6.90277 0
M  V30 935 H 158.277 1.75537 -7.96793 0
M  V30 936 P 162.239 2.75334 -8.47391 0
M  V30 937 O 162.459 3.84166 -9.4489 0
M  V30 938 O 163.029 1.51964 -8.6881 0
M  V30 939 O 162.489 3.29363 -6.99321 0
M  V30 940 C 161.549 4.23956 -6.42656 0
M  V30 941 C 162.279 5.20775 -5.52155 0
M  V30 942 O 162.489 4.56534 -4.22446 0
M  V30 943 C 163.679 5.62629 -5.96531 0
M  V30 944 O 164.069 6.87667 -5.41053 0
M  V30 945 C 164.559 4.52537 -5.39283 0
M  V30 946 C 163.849 4.20027 -4.08623 0
M  V30 947 N 163.899 2.7613 -3.71522 0
M  V30 948 C 164.049 2.45612 -2.37989 0
M  V30 949 O 164.139 3.30919 -1.51621 0
M  V30 950 N 164.089 1.10684 -2.08435 0
M  V30 951 C 163.999 0.0690084 -2.9792 0
M  V30 952 C 163.849 0.481522 -4.35345 0
M  V30 953 C 163.799 1.78906 -4.67968 0
M  V30 954 H 161.059 4.797 -7.24003 0
M  V30 955 H 160.79 3.69802 -5.84429 0
M  V30 956 H 161.657 6.10356 -5.41441 0
M  V30 957 H 164.312 4.78651 -3.27911 0
M  V30 958 H 164.591 3.64957 -6.05871 0
M  V30 959 H 165.583 4.8868 -5.2125 0
M  V30 960 H 163.749 5.66726 -7.06352 0
M  V30 961 H 163.678 2.07737 -5.72367 0
M  V30 962 P 165.619 7.20834 -5.23717 0
M  V30 963 O 165.839 8.66104 -5.38572 0
M  V30 964 O 166.409 6.33544 -6.1349 0
M  V30 965 O 165.869 6.7751 -3.72168 0
M  V30 966 C 164.929 7.20825 -2.7076 0
M  V30 967 C 165.659 7.45864 -1.40599 0
M  V30 968 O 165.869 6.17651 -0.734225 0
M  V30 969 C 167.059 8.05808 -1.51899 0
M  V30 970 O 167.449 8.74358 -0.335205 0
M  V30 971 C 167.939 6.83093 -1.70294 0
M  V30 972 C 167.229 5.79992 -0.836974 0
M  V30 973 N 167.279 4.41864 -1.38293 0
M  V30 974 H 164.44 8.13644 -3.0377 0
M  V30 975 H 164.17 6.42788 -2.55485 0
M  V30 976 H 165.037 8.12039 -0.792769 0
M  V30 977 P 168.999 8.91 -1.09116e-14 0
M  V30 978 O 169.219 10.1726 0.733694 0
M  V30 979 O 169.789 8.73148 -1.23936 0
M  V30 980 O 169.249 7.66872 0.971405 0
M  V30 981 C 168.309 7.42309 2.04641 0
M  V30 982 C 169.039 6.86059 3.24661 0
M  V30 983 O 169.249 5.42847 3.03646 0
M  V30 984 C 170.439 7.41196 3.50753 0
M  V30 985 O 170.829 7.27073 4.86816 0
M  V30 986 C 171.319 6.5273 2.63741 0
M  V30 987 C 170.609 5.1842 2.73198 0
M  V30 988 N 170.659 4.38762 1.4784 0
M  V30 989 H 167.82 8.36803 2.32493 0
M  V30 990 H 167.55 6.70197 1.71129 0
M  V30 991 H 168.417 7.03551 4.13168 0
M  V30 992 P 172.379 7.20834 5.23717 0
M  V30 993 O 172.599 7.79853 6.57286 0
M  V30 994 O 173.169 7.79239 4.12957 0
M  V30 995 O 172.629 5.63315 5.29344 0
M  V30 996 C 171.689 4.80255 6.01876 0
M  V30 997 C 172.419 3.64202 6.65911 0
M  V30 998 O 172.629 2.60694 5.64732 0
M  V30 999 C 173.819 3.93473 7.1943 0
M  V30 1000 O 174.209 3.02071 8.21205 0
M  V30 1001 C 174.699 3.73047 5.97036 0
M  V30 1002 C 173.989 2.58828 5.25741 0
M  V30 1003 N 174.039 2.68068 3.77503 0
M  V30 1004 H 171.2 5.40332 6.79951 0
M  V30 1005 H 170.93 4.41613 5.32378 0
M  V30 1006 H 171.797 3.26331 7.47797 0
M  V30 1007 P 175.759 2.75334 8.47391 0
M  V30 1008 O 175.979 2.44595 9.90239 0
M  V30 1009 O 176.549 3.87732 7.92204 0
M  V30 1010 O 176.009 1.4459 7.59357 0
M  V30 1011 C 175.069 0.347563 7.69115 0
M  V30 1012 C 175.799 -0.96767 7.52806 0
M  V30 1013 O 176.009 -1.21036 6.1011 0
M  V30 1014 C 177.199 -1.04544 8.13308 0
M  V30 1015 O 177.589 -2.38311 8.41922 0
M  V30 1016 C 178.079 -0.491279 7.02284 0
M  V30 1017 C 177.369 -0.996264 5.77469 0
M  V30 1018 N 177.419 -0.0501808 4.62873 0
M  V30 1019 C 177.569 -0.588177 3.36904 0
M  V30 1020 O 177.659 -1.78598 3.17173 0
M  V30 1021 N 177.609 0.329694 2.33686 0
M  V30 1022 C 177.519 1.6953 2.45079 0
M  V30 1023 C 177.369 2.16933 3.80505 0
M  V30 1024 C 177.319 1.30326 4.83752 0
M  V30 1025 H 174.579 0.374722 8.67691 0
M  V30 1026 H 174.31 0.443421 6.90177 0
M  V30 1027 H 175.177 -1.75537 7.96793 0
M  V30 1028 H 177.832 -1.94496 5.46629 0
M  V30 1029 H 178.111 0.608651 7.04676 0
M  V30 1030 H 179.103 -0.889672 7.08939 0
M  V30 1031 H 177.269 -0.43308 9.04564 0
M  V30 1032 H 177.198 1.68366 5.8516 0
M  V30 1033 P 179.139 -2.75334 8.47391 0
M  V30 1034 O 179.359 -3.84128 9.44797 0
M  V30 1035 O 179.929 -1.51947 8.68712 0
M  V30 1036 O 179.389 -3.29363 6.99321 0
M  V30 1037 C 178.449 -4.24011 6.4274 0
M  V30 1038 C 179.179 -5.20775 5.52155 0
M  V30 1039 O 179.389 -4.56534 4.22446 0
M  V30 1040 C 180.579 -5.62629 5.96531 0
M  V30 1041 O 180.969 -6.87667 5.41053 0
M  V30 1042 C 181.459 -4.52537 5.39283 0
M  V30 1043 C 180.749 -4.20027 4.08623 0
M  V30 1044 N 180.799 -2.76189 3.71603 0
M  V30 1045 C 180.719 -1.64862 4.52822 0
M  V30 1046 N 180.799 -0.512671 3.88633 0
M  V30 1047 C 180.939 -0.888083 2.54977 0
M  V30 1048 C 181.069 -0.094668 1.38677 0
M  V30 1049 O 181.089 1.13053 1.28163 0
M  V30 1050 N 181.189 -0.890102 0.232633 0
M  V30 1051 C 181.189 -2.26958 0.21772 0
M  V30 1052 N 181.319 -2.84626 -0.97925 0
M  V30 1053 N 181.059 -3.0178 1.31033 0
M  V30 1054 C 180.939 -2.26781 2.43843 0
M  V30 1055 H 177.96 -4.797 7.24003 0
M  V30 1056 H 177.69 -3.69856 5.84513 0
M  V30 1057 H 178.557 -6.10356 5.41441 0
M  V30 1058 H 181.212 -4.79061 3.27488 0
M  V30 1059 H 181.491 -3.64906 6.05785 0
M  V30 1060 H 182.483 -4.8868 5.2125 0
M  V30 1061 H 180.649 -5.66726 7.06352 0
M  V30 1062 H 180.6 -1.71169 5.60966 0
M  V30 1063 H 181.282 -0.419134 -0.644739 0
M  V30 1064 H 181.319 -3.87332 -1.06098 0
M  V30 1065 H 181.42 -2.26417 -1.82483 0
M  V30 1066 P 182.519 -7.20834 5.23717 0
M  V30 1067 O 182.739 -8.66104 5.38572 0
M  V30 1068 O 183.309 -6.33544 6.1349 0
M  V30 1069 O 182.769 -6.7751 3.72168 0
M  V30 1070 C 181.829 -7.20825 2.7076 0
M  V30 1071 C 182.559 -7.45864 1.40599 0
M  V30 1072 O 182.769 -6.17651 0.734225 0
M  V30 1073 C 183.959 -8.05808 1.51899 0
M  V30 1074 O 184.349 -8.74358 0.335205 0
M  V30 1075 C 184.839 -6.83093 1.70294 0
M  V30 1076 C 184.129 -5.79992 0.836974 0
M  V30 1077 N 184.179 -4.41864 1.38293 0
M  V30 1078 H 181.34 -8.13644 3.0377 0
M  V30 1079 H 181.07 -6.42788 2.55485 0
M  V30 1080 H 181.937 -8.12039 0.792769 0
M  V30 1081 P 185.899 -8.91 -8.29613e-14 0
M  V30 1082 O 186.119 -10.1726 -0.733694 0
M  V30 1083 O 186.689 -8.73148 1.23936 0
M  V30 1084 O 186.149 -7.66872 -0.971405 0
M  V30 1085 C 185.209 -7.42309 -2.04641 0
M  V30 1086 C 185.939 -6.86059 -3.24661 0
M  V30 1087 O 186.149 -5.42847 -3.03646 0
M  V30 1088 C 187.339 -7.41196 -3.50753 0
M  V30 1089 O 187.729 -7.27073 -4.86816 0
M  V30 1090 C 188.219 -6.5273 -2.63741 0
M  V30 1091 C 187.509 -5.1842 -2.73198 0
M  V30 1092 N 187.559 -4.38762 -1.4784 0
M  V30 1093 H 184.72 -8.36803 -2.32493 0
M  V30 1094 H 184.45 -6.70197 -1.71129 0
M  V30 1095 H 185.317 -7.03551 -4.13168 0
M  V30 1096 P 189.279 -7.20834 -5.23717 0
M  V30 1097 O 189.499 -7.7993 -6.57351 0
M  V30 1098 O 190.069 -7.79328 -4.13004 0
M  V30 1099 O 189.529 -5.63315 -5.29344 0
M  V30 1100 C 188.589 -4.80255 -6.01876 0
M  V30 1101 C 189.319 -3.64202 -6.65911 0
M  V30 1102 O 189.529 -2.60694 -5.64732 0
M  V30 1103 C 190.719 -3.93473 -7.1943 0
M  V30 1104 O 191.109 -3.02071 -8.21205 0
M  V30 1105 C 191.599 -3.73047 -5.97036 0
M  V30 1106 C 190.889 -2.58828 -5.25741 0
M  V30 1107 N 190.939 -2.6801 -3.77422 0
M  V30 1108 C 191.089 -1.50173 -3.05038 0
M  V30 1109 O 191.179 -0.428832 -3.665 0
M  V30 1110 N 191.139 -1.70922 -1.55541 0
M  V30 1111 C 191.039 -2.7407 -1.06402 0
M  V30 1112 N 191.089 -2.74764 0.260931 0
M  V30 1113 C 190.889 -3.96781 -1.78296 0
M  V30 1114 C 190.839 -3.87909 -3.13891 0
M  V30 1115 H 188.099 -5.4027 -6.79873 0
M  V30 1116 H 187.83 -4.41549 -5.32301 0
M  V30 1117 H 188.697 -3.26371 -7.47889 0
M  V30 1118 H 191.352 -1.63978 -5.5665 0
M  V30 1119 H 191.631 -4.63439 -5.3432 0
M  V30 1120 H 192.623 -3.44728 -6.25838 0
M  V30 1121 H 190.789 -4.96652 -7.57263 0
M  V30 1122 H 190.717 -4.78425 -3.73088 0
M  V30 1123 H 190.819 -4.92593 -1.26997 0
M  V30 1124 H 191.207 -1.86285 0.77595 0
M  V30 1125 H 191.01 -3.63657 0.773896 0
M  V30 1126 P 192.659 -2.75334 -8.47391 0
M  V30 1127 O 192.879 -2.44595 -9.90239 0
M  V30 1128 O 193.449 -3.87732 -7.92204 0
M  V30 1129 O 192.909 -1.4459 -7.59357 0
M  V30 1130 C 191.969 -0.347563 -7.69115 0
M  V30 1131 C 192.699 0.96767 -7.52806 0
M  V30 1132 O 192.909 1.21036 -6.1011 0
M  V30 1133 C 194.099 1.04544 -8.13308 0
M  V30 1134 O 194.489 2.38311 -8.41922 0
M  V30 1135 C 194.979 0.491279 -7.02284 0
M  V30 1136 C 194.269 0.996264 -5.77469 0
M  V30 1137 N 194.319 0.0501808 -4.62873 0
M  V30 1138 C 194.469 0.588177 -3.36904 0
M  V30 1139 O 194.559 1.78598 -3.17173 0
M  V30 1140 N 194.509 -0.329694 -2.33686 0
M  V30 1141 C 194.419 -1.6953 -2.45079 0
M  V30 1142 O 194.469 -2.41926 -1.44899 0
M  V30 1143 C 194.269 -2.16933 -3.80505 0
M  V30 1144 C 194.159 -3.65373 -3.97621 0
M  V30 1145 C 194.219 -1.30326 -4.83752 0
M  V30 1146 H 191.479 -0.374722 -8.67691 0
M  V30 1147 H 191.21 -0.443421 -6.90177 0
M  V30 1148 H 192.077 1.75537 -7.96793 0
M  V30 1149 H 194.732 1.94496 -5.46629 0
M  V30 1150 H 195.011 -0.608651 -7.04676 0
M  V30 1151 H 196.003 0.889672 -7.08939 0
M  V30 1152 H 194.169 0.43308 -9.04564 0
M  V30 1153 H 194.098 -1.68366 -5.8516 0
M  V30 1154 H 195.128 -4.05985 -4.30448 0
M  V30 1155 H 193.391 -3.88028 -4.72875 0
M  V30 1156 H 193.879 -4.11381 -3.01609 0
M  V30 1157 H 194.615 0.0393617 -1.41345 0
M  V30 1158 P 196.039 2.75334 -8.47391 0
M  V30 1159 O 196.259 3.84128 -9.44797 0
M  V30 1160 O 196.829 1.51947 -8.68712 0
M  V30 1161 O 196.289 3.29363 -6.99321 0
M  V30 1162 C 195.349 4.24011 -6.4274 0
M  V30 1163 C 196.079 5.20775 -5.52155 0
M  V30 1164 O 196.289 4.56534 -4.22446 0
M  V30 1165 C 197.479 5.62629 -5.96531 0
M  V30 1166 O 197.869 6.87667 -5.41053 0
M  V30 1167 C 198.359 4.52537 -5.39283 0
M  V30 1168 C 197.649 4.20027 -4.08623 0
M  V30 1169 N 197.699 2.76189 -3.71603 0
M  V30 1170 C 197.619 1.64862 -4.52822 0
M  V30 1171 N 197.699 0.512671 -3.88633 0
M  V30 1172 C 197.839 0.888083 -2.54977 0
M  V30 1173 C 197.969 0.094668 -1.38677 0
M  V30 1174 N 198.089 0.890102 -0.232633 0
M  V30 1175 C 198.089 2.26958 -0.21772 0
M  V30 1176 N 198.219 2.84626 0.97925 0
M  V30 1177 N 197.959 3.0178 -1.31033 0
M  V30 1178 C 197.839 2.26781 -2.43843 0
M  V30 1179 H 194.86 4.797 -7.24003 0
M  V30 1180 H 194.59 3.69856 -5.84513 0
M  V30 1181 H 195.457 6.10356 -5.41441 0
M  V30 1182 P 199.419 7.20834 -5.23717 0
M  V30 1183 O 199.639 8.66104 -5.38572 0
M  V30 1184 O 200.209 6.33544 -6.1349 0
M  V30 1185 O 199.669 6.7751 -3.72168 0
M  V30 1186 C 198.729 7.20825 -2.7076 0
M  V30 1187 C 199.459 7.45864 -1.40599 0
M  V30 1188 O 199.669 6.17651 -0.734225 0
M  V30 1189 C 200.859 8.05808 -1.51899 0
M  V30 1190 O 201.249 8.74358 -0.335205 0
M  V30 1191 C 201.739 6.83093 -1.70294 0
M  V30 1192 C 201.029 5.79992 -0.836974 0
M  V30 1193 N 201.079 4.41864 -1.38293 0
M  V30 1194 H 198.24 8.13644 -3.0377 0
M  V30 1195 H 197.97 6.42788 -2.55485 0
M  V30 1196 H 198.837 8.12039 -0.792769 0
M  V30 1197 P 202.799 8.91 2.40144e-13 0
M  V30 1198 O 203.019 10.1726 0.733694 0
M  V30 1199 O 203.589 8.73148 -1.23936 0
M  V30 1200 O 203.049 7.66872 0.971405 0
M  V30 1201 C 202.109 7.42309 2.04641 0
M  V30 1202 C 202.839 6.86059 3.24661 0
M  V30 1203 O 203.049 5.42847 3.03646 0
M  V30 1204 C 204.239 7.41196 3.50753 0
M  V30 1205 O 204.629 7.27073 4.86816 0
M  V30 1206 C 205.119 6.5273 2.63741 0
M  V30 1207 C 204.409 5.1842 2.73198 0
M  V30 1208 N 204.459 4.38762 1.4784 0
M  V30 1209 H 201.62 8.36803 2.32493 0
M  V30 1210 H 201.35 6.70197 1.71129 0
M  V30 1211 H 202.217 7.03551 4.13168 0
M  V30 1212 P 206.179 7.20834 5.23717 0
M  V30 1213 O 206.399 7.79853 6.57286 0
M  V30 1214 O 206.969 7.79239 4.12957 0
M  V30 1215 O 206.429 5.63315 5.29344 0
M  V30 1216 C 205.489 4.80255 6.01876 0
M  V30 1217 C 206.219 3.64202 6.65911 0
M  V30 1218 O 206.429 2.60694 5.64732 0
M  V30 1219 C 207.619 3.93473 7.1943 0
M  V30 1220 O 208.009 3.02071 8.21205 0
M  V30 1221 C 208.499 3.73047 5.97036 0
M  V30 1222 C 207.789 2.58828 5.25741 0
M  V30 1223 N 207.839 2.68068 3.77503 0
M  V30 1224 H 205 5.40332 6.79951 0
M  V30 1225 H 204.73 4.41613 5.32378 0
M  V30 1226 H 205.597 3.26331 7.47797 0
M  V30 1227 P 209.559 2.75334 8.47391 0
M  V30 1228 O 209.779 2.44619 9.90336 0
M  V30 1229 O 210.349 3.87776 7.92294 0
M  V30 1230 O 209.809 1.4459 7.59357 0
M  V30 1231 C 208.869 0.347653 7.69315 0
M  V30 1232 C 209.599 -0.96767 7.52806 0
M  V30 1233 O 209.809 -1.21055 6.10208 0
M  V30 1234 C 210.999 -1.04557 8.13408 0
M  V30 1235 O 211.389 -2.38311 8.41922 0
M  V30 1236 C 211.879 -0.491279 7.02284 0
M  V30 1237 C 211.169 -0.996264 5.77469 0
M  V30 1238 N 211.219 -0.0501916 4.62973 0
M  V30 1239 C 211.139 1.31969 4.65661 0
M  V30 1240 N 211.209 1.86649 3.48119 0
M  V30 1241 C 211.359 0.792089 2.62406 0
M  V30 1242 C 211.489 0.705684 1.2207 0
M  V30 1243 N 211.499 1.76207 0.413762 0
M  V30 1244 N 211.609 -0.518981 0.685754 0
M  V30 1245 C 211.599 -1.57595 1.49174 0
M  V30 1246 N 211.479 -1.62909 2.80066 0
M  V30 1247 C 211.359 -0.388195 3.3073 0
M  V30 1248 H 208.381 0.374765 8.67791 0
M  V30 1249 H 208.109 0.443613 6.90476 0
M  V30 1250 H 208.977 -1.75559 7.96891 0
M  V30 1251 H 211.632 -1.94563 5.46818 0
M  V30 1252 H 211.912 0.608651 7.04676 0
M  V30 1253 H 212.903 -0.889796 7.09039 0
M  V30 1254 H 211.069 -0.433128 9.04664 0
M  V30 1255 H 211.028 1.89246 5.57664 0
M  V30 1256 H 211.409 2.71005 0.804694 0
M  V30 1257 H 211.598 1.63189 -0.603768 0
M  V30 1258 H 211.706 -2.53475 0.997614 0
M  V30 1259 P 212.939 -2.75334 8.47391 0
M  V30 1260 O 213.159 -3.84128 9.44797 0
M  V30 1261 O 213.729 -1.51947 8.68712 0
M  V30 1262 O 213.189 -3.29363 6.99321 0
M  V30 1263 C 212.249 -4.24011 6.4274 0
M  V30 1264 C 212.979 -5.20775 5.52155 0
M  V30 1265 O 213.189 -4.56534 4.22446 0
M  V30 1266 C 214.379 -5.62629 5.96531 0
M  V30 1267 O 214.769 -6.87667 5.41053 0
M  V30 1268 C 215.259 -4.52537 5.39283 0
M  V30 1269 C 214.549 -4.20027 4.08623 0
M  V30 1270 N 214.599 -2.76189 3.71603 0
M  V30 1271 H 211.76 -4.797 7.24003 0
M  V30 1272 H 211.49 -3.69856 5.84513 0
M  V30 1273 H 212.357 -6.10356 5.41441 0
M  V30 1274 P 216.319 -7.20834 5.23717 0
M  V30 1275 O 216.539 -8.66274 5.38678 0
M  V30 1276 O 217.109 -6.33687 6.13629 0
M  V30 1277 O 216.569 -6.7751 3.72168 0
M  V30 1278 C 215.629 -7.20919 2.70795 0
M  V30 1279 C 216.359 -7.45864 1.40599 0
M  V30 1280 O 216.569 -6.17751 0.734343 0
M  V30 1281 C 217.759 -8.05906 1.51917 0
M  V30 1282 O 218.149 -8.74358 0.335205 0
M  V30 1283 C 218.639 -6.83093 1.70294 0
M  V30 1284 C 217.929 -5.79992 0.836974 0
M  V30 1285 N 217.979 -4.41864 1.38293 0
M  V30 1286 H 215.141 -8.13738 3.03804 0
M  V30 1287 H 214.869 -6.42974 2.55559 0
M  V30 1288 H 215.737 -8.12139 0.792866 0
M  V30 1289 H 218.392 -5.80178 -0.160643 0
M  V30 1290 H 218.672 -6.51379 2.75643 0
M  V30 1291 H 219.663 -7.01832 1.3448 0
M  V30 1292 H 217.829 -8.73771 2.38364 0
M  V30 1293 P 219.699 -8.91 -3.97326e-13 0
M  V30 1294 O 219.919 -10.1726 -0.733694 0
M  V30 1295 O 220.489 -8.73148 1.23936 0
M  V30 1296 O 219.949 -7.66872 -0.971405 0
M  V30 1297 C 219.009 -7.42309 -2.04641 0
M  V30 1298 C 219.739 -6.86059 -3.24661 0
M  V30 1299 O 219.949 -5.42847 -3.03646 0
M  V30 1300 C 221.139 -7.41196 -3.50753 0
M  V30 1301 O 221.529 -7.27073 -4.86816 0
M  V30 1302 C 222.019 -6.5273 -2.63741 0
M  V30 1303 C 221.309 -5.1842 -2.73198 0
M  V30 1304 N 221.359 -4.38762 -1.4784 0
M  V30 1305 C 221.279 -4.81605 -0.168631 0
M  V30 1306 N 221.359 -3.85454 0.713363 0
M  V30 1307 C 221.499 -2.6994 -0.0566958 0
M  V30 1308 C 221.629 -1.34815 0.338502 0
M  V30 1309 N 221.749 -0.496304 -0.77465 0
M  V30 1310 C 221.749 -0.908403 -2.09122 0
M  V30 1311 N 221.879 0.0517805 -3.00955 0
M  V30 1312 N 221.619 -2.17875 -2.46519 0
M  V30 1313 C 221.499 -3.01988 -1.4033 0
M  V30 1314 H 218.52 -8.36803 -2.32493 0
M  V30 1315 H 218.25 -6.70197 -1.71129 0
M  V30 1316 H 219.117 -7.03551 -4.13168 0
M  V30 1317 P 223.079 -7.20834 -5.23717 0
M  V30 1318 O 223.299 -7.79853 -6.57286 0
M  V30 1319 O 223.869 -7.79239 -4.12957 0
M  V30 1320 O 223.329 -5.63315 -5.29344 0
M  V30 1321 C 222.389 -4.80255 -6.01876 0
M  V30 1322 C 223.119 -3.64202 -6.65911 0
M  V30 1323 O 223.329 -2.60694 -5.64732 0
M  V30 1324 C 224.519 -3.93473 -7.1943 0
M  V30 1325 O 224.909 -3.02071 -8.21205 0
M  V30 1326 C 225.399 -3.73047 -5.97036 0
M  V30 1327 C 224.689 -2.58828 -5.25741 0
M  V30 1328 N 224.739 -2.68068 -3.77503 0
M  V30 1329 H 221.9 -5.40332 -6.79951 0
M  V30 1330 H 221.63 -4.41613 -5.32378 0
M  V30 1331 H 222.497 -3.26331 -7.47797 0
M  V30 1332 P 226.459 -2.75334 -8.47391 0
M  V30 1333 O 226.679 -2.44619 -9.90336 0
M  V30 1334 O 227.249 -3.87776 -7.92294 0
M  V30 1335 O 226.709 -1.4459 -7.59357 0
M  V30 1336 C 225.769 -0.347653 -7.69315 0
M  V30 1337 C 226.499 0.96767 -7.52806 0
M  V30 1338 O 226.709 1.21055 -6.10208 0
M  V30 1339 C 227.899 1.04557 -8.13408 0
M  V30 1340 O 228.289 2.38311 -8.41922 0
M  V30 1341 C 228.779 0.491279 -7.02284 0
M  V30 1342 C 228.069 0.996264 -5.77469 0
M  V30 1343 N 228.119 0.0501916 -4.62973 0
M  V30 1344 C 228.039 -1.31969 -4.65661 0
M  V30 1345 N 228.109 -1.86649 -3.48119 0
M  V30 1346 C 228.259 -0.792089 -2.62406 0
M  V30 1347 C 228.389 -0.705684 -1.2207 0
M  V30 1348 N 228.399 -1.76207 -0.413762 0
M  V30 1349 N 228.509 0.518981 -0.685754 0
M  V30 1350 C 228.499 1.57595 -1.49174 0
M  V30 1351 N 228.379 1.62909 -2.80066 0
M  V30 1352 C 228.259 0.388195 -3.3073 0
M  V30 1353 H 225.281 -0.374765 -8.67791 0
M  V30 1354 H 225.009 -0.443613 -6.90476 0
M  V30 1355 H 225.877 1.75559 -7.96891 0
M  V30 1356 H 228.532 1.94563 -5.46818 0
M  V30 1357 H 228.812 -0.608651 -7.04676 0
M  V30 1358 H 229.803 0.889796 -7.09039 0
M  V30 1359 H 227.969 0.433128 -9.04664 0
M  V30 1360 H 227.928 -1.89246 -5.57664 0
M  V30 1361 H 228.309 -2.71005 -0.804694 0
M  V30 1362 H 228.498 -1.63189 0.603768 0
M  V30 1363 H 228.606 2.53475 -0.997614 0
M  V30 1364 P 229.839 2.75334 -8.47391 0
M  V30 1365 O 230.059 3.84128 -9.44797 0
M  V30 1366 O 230.629 1.51947 -8.68712 0
M  V30 1367 O 230.089 3.29363 -6.99321 0
M  V30 1368 C 229.149 4.24011 -6.4274 0
M  V30 1369 C 229.879 5.20775 -5.52155 0
M  V30 1370 O 230.089 4.56534 -4.22446 0
M  V30 1371 C 231.279 5.62629 -5.96531 0
M  V30 1372 O 231.669 6.87667 -5.41053 0
M  V30 1373 C 232.159 4.52537 -5.39283 0
M  V30 1374 C 231.449 4.20027 -4.08623 0
M  V30 1375 N 231.499 2.76189 -3.71603 0
M  V30 1376 H 228.66 4.797 -7.24003 0
M  V30 1377 H 228.39 3.69856 -5.84513 0
M  V30 1378 H 229.257 6.10356 -5.41441 0
M  V30 1379 P 233.219 7.20834 -5.23717 0
M  V30 1380 O 233.439 8.66104 -5.38572 0
M  V30 1381 O 234.009 6.33544 -6.1349 0
M  V30 1382 O 233.469 6.7751 -3.72168 0
M  V30 1383 C 232.529 7.20825 -2.7076 0
M  V30 1384 C 233.259 7.45864 -1.40599 0
M  V30 1385 O 233.469 6.17651 -0.734225 0
M  V30 1386 C 234.659 8.05808 -1.51899 0
M  V30 1387 O 235.049 8.74358 -0.335205 0
M  V30 1388 C 235.539 6.83093 -1.70294 0
M  V30 1389 C 234.829 5.79992 -0.836974 0
M  V30 1390 N 234.879 4.41864 -1.38293 0
M  V30 1391 H 232.04 8.13644 -3.0377 0
M  V30 1392 H 231.77 6.42788 -2.55485 0
M  V30 1393 H 232.637 8.12039 -0.792769 0
M  V30 1394 P 236.599 8.91 5.54508e-13 0
M  V30 1395 O 236.819 10.1746 0.733838 0
M  V30 1396 O 237.389 8.73346 -1.23964 0
M  V30 1397 O 236.849 7.66872 0.971405 0
M  V30 1398 C 235.909 7.42405 2.04668 0
M  V30 1399 C 236.639 6.86059 3.24661 0
M  V30 1400 O 236.849 5.42934 3.03695 0
M  V30 1401 C 238.039 7.41287 3.50796 0
M  V30 1402 O 238.429 7.27073 4.86816 0
M  V30 1403 C 238.919 6.5273 2.63741 0
M  V30 1404 C 238.209 5.1842 2.73198 0
M  V30 1405 N 238.259 4.38762 1.4784 0
M  V30 1406 H 235.421 8.36899 2.3252 0
M  V30 1407 H 235.149 6.70391 1.71179 0
M  V30 1408 H 236.017 7.03638 4.13219 0
M  V30 1409 H 238.672 4.59931 3.54016 0
M  V30 1410 H 238.952 6.88995 1.59871 0
M  V30 1411 H 239.943 6.4684 3.0373 0
M  V30 1412 H 238.109 8.47002 3.20749 0
M  V30 1413 P 239.979 7.20834 5.23717 0
M  V30 1414 O 240.199 7.79853 6.57286 0
M  V30 1415 O 240.769 7.79239 4.12957 0
M  V30 1416 O 240.229 5.63315 5.29344 0
M  V30 1417 C 239.289 4.80255 6.01876 0
M  V30 1418 C 240.019 3.64202 6.65911 0
M  V30 1419 O 240.229 2.60694 5.64732 0
M  V30 1420 C 241.419 3.93473 7.1943 0
M  V30 1421 O 241.809 3.02071 8.21205 0
M  V30 1422 C 242.299 3.73047 5.97036 0
M  V30 1423 C 241.589 2.58828 5.25741 0
M  V30 1424 N 241.639 2.68068 3.77503 0
M  V30 1425 H 238.8 5.40332 6.79951 0
M  V30 1426 H 238.53 4.41613 5.32378 0
M  V30 1427 H 239.397 3.26331 7.47797 0
M  V30 1428 P 243.359 2.75334 8.47391 0
M  V30 1429 O 243.579 2.44571 9.90142 0
M  V30 1430 O 244.149 3.87688 7.92115 0
M  V30 1431 O 243.609 1.4459 7.59357 0
M  V30 1432 C 242.669 0.347608 7.69215 0
M  V30 1433 C 243.399 -0.96767 7.52806 0
M  V30 1434 O 243.609 -1.21036 6.1011 0
M  V30 1435 C 244.799 -1.04544 8.13308 0
M  V30 1436 O 245.189 -2.38311 8.41922 0
M  V30 1437 C 245.679 -0.491279 7.02284 0
M  V30 1438 C 244.969 -0.996264 5.77469 0
M  V30 1439 N 245.019 -0.0501916 4.62973 0
M  V30 1440 H 242.18 0.374722 8.67691 0
M  V30 1441 H 241.91 0.443485 6.90277 0
M  V30 1442 H 242.777 -1.75537 7.96793 0
M  V30 1443 P 246.739 -2.75334 8.47391 0
M  V30 1444 O 246.959 -3.84128 9.44797 0
M  V30 1445 O 247.529 -1.51947 8.68712 0
M  V30 1446 O 246.989 -3.29363 6.99321 0
M  V30 1447 C 246.049 -4.24011 6.4274 0
M  V30 1448 C 246.779 -5.20775 5.52155 0
M  V30 1449 O 246.989 -4.56534 4.22446 0
M  V30 1450 C 248.179 -5.62629 5.96531 0
M  V30 1451 O 248.569 -6.87667 5.41053 0
M  V30 1452 C 249.059 -4.52537 5.39283 0
M  V30 1453 C 248.349 -4.20027 4.08623 0
M  V30 1454 N 248.399 -2.76189 3.71603 0
M  V30 1455 C 248.319 -1.64862 4.52822 0
M  V30 1456 N 248.399 -0.512671 3.88633 0
M  V30 1457 C 248.539 -0.888083 2.54977 0
M  V30 1458 C 248.669 -0.094668 1.38677 0
M  V30 1459 N 248.789 -0.890102 0.232633 0
M  V30 1460 C 248.789 -2.26958 0.21772 0
M  V30 1461 N 248.919 -2.84626 -0.97925 0
M  V30 1462 N 248.659 -3.0178 1.31033 0
M  V30 1463 C 248.539 -2.26781 2.43843 0
M  V30 1464 H 245.56 -4.797 7.24003 0
M  V30 1465 H 245.29 -3.69856 5.84513 0
M  V30 1466 H 246.157 -6.10356 5.41441 0
M  V30 1467 P 250.119 -7.20834 5.23717 0
M  V30 1468 O 250.339 -8.66274 5.38678 0
M  V30 1469 O 250.909 -6.33687 6.13629 0
M  V30 1470 O 250.369 -6.7751 3.72168 0
M  V30 1471 C 249.429 -7.20919 2.70795 0
M  V30 1472 C 250.159 -7.45864 1.40599 0
M  V30 1473 O 250.369 -6.17751 0.734343 0
M  V30 1474 C 251.559 -8.05906 1.51917 0
M  V30 1475 O 251.949 -8.74358 0.335205 0
M  V30 1476 C 252.439 -6.83093 1.70294 0
M  V30 1477 C 251.729 -5.79992 0.836974 0
M  V30 1478 N 251.779 -4.41864 1.38293 0
M  V30 1479 H 248.941 -8.13738 3.03804 0
M  V30 1480 H 248.669 -6.42974 2.55559 0
M  V30 1481 H 249.537 -8.12139 0.792866 0
M  V30 1482 H 252.192 -5.80178 -0.160643 0
M  V30 1483 H 252.472 -6.51379 2.75643 0
M  V30 1484 H 253.463 -7.01832 1.3448 0
M  V30 1485 H 251.629 -8.73771 2.38364 0
M  V30 1486 P 253.498 -8.91 -7.1169e-13 0
M  V30 1487 O 253.718 -10.1726 -0.733694 0
M  V30 1488 O 254.288 -8.73148 1.23936 0
M  V30 1489 O 253.748 -7.66872 -0.971405 0
M  V30 1490 C 252.808 -7.42309 -2.04641 0
M  V30 1491 C 253.538 -6.86059 -3.24661 0
M  V30 1492 O 253.748 -5.42847 -3.03646 0
M  V30 1493 C 254.938 -7.41196 -3.50753 0
M  V30 1494 O 255.328 -7.27073 -4.86816 0
M  V30 1495 C 255.818 -6.5273 -2.63741 0
M  V30 1496 C 255.108 -5.1842 -2.73198 0
M  V30 1497 N 255.158 -4.38762 -1.4784 0
M  V30 1498 H 252.319 -8.36803 -2.32493 0
M  V30 1499 H 252.049 -6.70197 -1.71129 0
M  V30 1500 H 252.916 -7.03551 -4.13168 0
M  V30 1501 P 256.878 -7.20834 -5.23717 0
M  V30 1502 O 257.098 -7.79853 -6.57286 0
M  V30 1503 O 257.668 -7.79239 -4.12957 0
M  V30 1504 O 257.128 -5.63315 -5.29344 0
M  V30 1505 C 256.188 -4.80255 -6.01876 0
M  V30 1506 C 256.918 -3.64202 -6.65911 0
M  V30 1507 O 257.128 -2.60694 -5.64732 0
M  V30 1508 C 258.318 -3.93473 -7.1943 0
M  V30 1509 O 258.708 -3.02071 -8.21205 0
M  V30 1510 C 259.198 -3.73047 -5.97036 0
M  V30 1511 C 258.488 -2.58828 -5.25741 0
M  V30 1512 N 258.538 -2.68068 -3.77503 0
M  V30 1513 H 255.699 -5.40332 -6.79951 0
M  V30 1514 H 255.429 -4.41613 -5.32378 0
M  V30 1515 H 256.296 -3.26331 -7.47797 0
M  V30 1516 P 260.258 -2.75334 -8.47391 0
M  V30 1517 O 260.478 -2.44571 -9.90142 0
M  V30 1518 O 261.048 -3.87688 -7.92115 0
M  V30 1519 O 260.508 -1.4459 -7.59357 0
M  V30 1520 C 259.568 -0.347608 -7.69215 0
M  V30 1521 C 260.298 0.96767 -7.52806 0
M  V30 1522 O 260.508 1.21036 -6.1011 0
M  V30 1523 C 261.698 1.04544 -8.13308 0
M  V30 1524 O 262.088 2.38311 -8.41922 0
M  V30 1525 C 262.578 0.491279 -7.02284 0
M  V30 1526 C 261.868 0.996264 -5.77469 0
M  V30 1527 N 261.918 0.0501916 -4.62973 0
M  V30 1528 H 259.079 -0.374722 -8.67691 0
M  V30 1529 H 258.809 -0.443485 -6.90277 0
M  V30 1530 H 259.676 1.75537 -7.96793 0
M  V30 1531 P 263.638 2.75334 -8.47391 0
M  V30 1532 O 263.858 3.84128 -9.44797 0
M  V30 1533 O 264.428 1.51947 -8.68712 0
M  V30 1534 O 263.888 3.29363 -6.99321 0
M  V30 1535 C 262.948 4.24011 -6.4274 0
M  V30 1536 C 263.678 5.20775 -5.52155 0
M  V30 1537 O 263.888 4.56534 -4.22446 0
M  V30 1538 C 265.078 5.62629 -5.96531 0
M  V30 1539 O 265.468 6.87667 -5.41053 0
M  V30 1540 C 265.958 4.52537 -5.39283 0
M  V30 1541 C 265.248 4.20027 -4.08623 0
M  V30 1542 N 265.298 2.76189 -3.71603 0
M  V30 1543 C 265.218 1.64862 -4.52822 0
M  V30 1544 N 265.298 0.512671 -3.88633 0
M  V30 1545 C 265.438 0.888083 -2.54977 0
M  V30 1546 C 265.568 0.094668 -1.38677 0
M  V30 1547 O 265.588 -1.13053 -1.28163 0
M  V30 1548 N 265.688 0.890102 -0.232633 0
M  V30 1549 C 265.688 2.26958 -0.21772 0
M  V30 1550 N 265.818 2.84626 0.97925 0
M  V30 1551 N 265.558 3.0178 -1.31033 0
M  V30 1552 C 265.438 2.26781 -2.43843 0
M  V30 1553 H 262.459 4.797 -7.24003 0
M  V30 1554 H 262.189 3.69856 -5.84513 0
M  V30 1555 H 263.056 6.10356 -5.41441 0
M  V30 1556 H 265.711 4.79061 -3.27488 0
M  V30 1557 H 265.99 3.64906 -6.05785 0
M  V30 1558 H 266.982 4.8868 -5.2125 0
M  V30 1559 H 265.148 5.66726 -7.06352 0
M  V30 1560 H 265.099 1.71169 -5.60966 0
M  V30 1561 H 265.781 0.419134 0.644739 0
M  V30 1562 H 265.818 3.87332 1.06098 0
M  V30 1563 H 265.919 2.26417 1.82483 0
M  V30 1564 P 267.018 7.20834 -5.23717 0
M  V30 1565 O 267.238 8.66104 -5.38572 0
M  V30 1566 O 267.808 6.33544 -6.1349 0
M  V30 1567 O 267.268 6.7751 -3.72168 0
M  V30 1568 C 266.328 7.20825 -2.7076 0
M  V30 1569 C 267.058 7.45864 -1.40599 0
M  V30 1570 O 267.268 6.17651 -0.734225 0
M  V30 1571 C 268.458 8.05808 -1.51899 0
M  V30 1572 O 268.848 8.74358 -0.335205 0
M  V30 1573 C 269.338 6.83093 -1.70294 0
M  V30 1574 C 268.628 5.79992 -0.836974 0
M  V30 1575 N 268.678 4.41864 -1.38293 0
M  V30 1576 H 265.839 8.13644 -3.0377 0
M  V30 1577 H 265.569 6.42788 -2.55485 0
M  V30 1578 H 266.436 8.12039 -0.792769 0
M  V30 1579 P 270.398 8.91 8.68872e-13 0
M  V30 1580 O 270.618 10.1726 0.733694 0
M  V30 1581 O 271.188 8.73148 -1.23936 0
M  V30 1582 O 270.648 7.66872 0.971405 0
M  V30 1583 C 269.708 7.42309 2.04641 0
M  V30 1584 C 270.438 6.86059 3.24661 0
M  V30 1585 O 270.648 5.42847 3.03646 0
M  V30 1586 C 271.838 7.41196 3.50753 0
M  V30 1587 O 272.228 7.27073 4.86816 0
M  V30 1588 C 272.718 6.5273 2.63741 0
M  V30 1589 C 272.008 5.1842 2.73198 0
M  V30 1590 N 272.058 4.38762 1.4784 0
M  V30 1591 H 269.219 8.36803 2.32493 0
M  V30 1592 H 268.949 6.70197 1.71129 0
M  V30 1593 H 269.816 7.03551 4.13168 0
M  V30 1594 P 273.778 7.20834 5.23717 0
M  V30 1595 O 273.998 7.80006 6.57415 0
M  V30 1596 O 274.568 7.79416 4.13051 0
M  V30 1597 O 274.028 5.63315 5.29344 0
M  V30 1598 C 273.088 4.80318 6.01954 0
M  V30 1599 C 273.818 3.64202 6.65911 0
M  V30 1600 O 274.028 2.60736 5.64823 0
M  V30 1601 C 275.218 3.93521 7.19518 0
M  V30 1602 O 275.608 3.02071 8.21205 0
M  V30 1603 C 276.098 3.73047 5.97036 0
M  V30 1604 C 275.388 2.58828 5.25741 0
M  V30 1605 N 275.438 2.68068 3.77503 0
M  V30 1606 C 275.358 3.80474 2.99159 0
M  V30 1607 N 275.428 3.55622 1.71925 0
M  V30 1608 C 275.578 2.1832 1.65733 0
M  V30 1609 C 275.708 1.28842 0.572777 0
M  V30 1610 N 275.718 1.66875 -0.70098 0
M  V30 1611 N 275.828 -0.016788 0.859836 0
M  V30 1612 C 275.818 -0.398145 2.13316 0
M  V30 1613 N 275.698 0.328224 3.22333 0
M  V30 1614 C 275.578 1.62992 2.90383 0
M  V30 1615 H 272.6 5.40394 6.8003 0
M  V30 1616 H 272.328 4.41741 5.32532 0
M  V30 1617 H 273.196 3.26371 7.47889 0
M  V30 1618 H 275.851 1.64007 5.56746 0
M  V30 1619 H 276.131 4.63439 5.3432 0
M  V30 1620 H 277.122 3.44776 6.25925 0
M  V30 1621 H 275.288 4.96707 7.57347 0
M  V30 1622 H 275.247 4.8089 3.39924 0
M  V30 1623 H 275.628 2.66547 -0.941919 0
M  V30 1624 H 275.817 0.965341 -1.44766 0
M  V30 1625 H 275.925 -1.46427 2.29697 0
M  V30 1626 P 277.158 2.75334 8.47391 0
M  V30 1627 O 277.378 2.44571 9.90142 0
M  V30 1628 O 277.948 3.87688 7.92115 0
M  V30 1629 O 277.408 1.4459 7.59357 0
M  V30 1630 C 276.468 0.347608 7.69215 0
M  V30 1631 C 277.198 -0.96767 7.52806 0
M  V30 1632 O 277.408 -1.21036 6.1011 0
M  V30 1633 C 278.598 -1.04544 8.13308 0
M  V30 1634 O 278.988 -2.38311 8.41922 0
M  V30 1635 C 279.478 -0.491279 7.02284 0
M  V30 1636 C 278.768 -0.996264 5.77469 0
M  V30 1637 N 278.818 -0.0501916 4.62973 0
M  V30 1638 H 275.979 0.374722 8.67691 0
M  V30 1639 H 275.709 0.443485 6.90277 0
M  V30 1640 H 276.576 -1.75537 7.96793 0
M  V30 1641 P 280.538 -2.75334 8.47391 0
M  V30 1642 O 280.758 -3.84128 9.44797 0
M  V30 1643 O 281.328 -1.51947 8.68712 0
M  V30 1644 O 280.788 -3.29363 6.99321 0
M  V30 1645 C 279.848 -4.24011 6.4274 0
M  V30 1646 C 280.578 -5.20775 5.52155 0
M  V30 1647 O 280.788 -4.56534 4.22446 0
M  V30 1648 C 281.978 -5.62629 5.96531 0
M  V30 1649 O 282.368 -6.87667 5.41053 0
M  V30 1650 C 282.858 -4.52537 5.39283 0
M  V30 1651 C 282.148 -4.20027 4.08623 0
M  V30 1652 N 282.198 -2.76189 3.71603 0
M  V30 1653 C 282.118 -1.64862 4.52822 0
M  V30 1654 N 282.198 -0.512671 3.88633 0
M  V30 1655 C 282.338 -0.888083 2.54977 0
M  V30 1656 C 282.468 -0.094668 1.38677 0
M  V30 1657 O 282.488 1.13053 1.28163 0
M  V30 1658 N 282.588 -0.890102 0.232633 0
M  V30 1659 C 282.588 -2.26958 0.21772 0
M  V30 1660 N 282.718 -2.84626 -0.97925 0
M  V30 1661 N 282.458 -3.0178 1.31033 0
M  V30 1662 C 282.338 -2.26781 2.43843 0
M  V30 1663 H 279.359 -4.797 7.24003 0
M  V30 1664 H 279.089 -3.69856 5.84513 0
M  V30 1665 H 279.956 -6.10356 5.41441 0
M  V30 1666 H 282.611 -4.79061 3.27488 0
M  V30 1667 H 282.89 -3.64906 6.05785 0
M  V30 1668 H 283.882 -4.8868 5.2125 0
M  V30 1669 H 282.048 -5.66726 7.06352 0
M  V30 1670 H 281.999 -1.71169 5.60966 0
M  V30 1671 H 282.681 -0.419134 -0.644739 0
M  V30 1672 H 282.718 -3.87332 -1.06098 0
M  V30 1673 H 282.819 -2.26417 -1.82483 0
M  V30 1674 P 283.918 -7.20834 5.23717 0
M  V30 1675 O 284.138 -8.66274 5.38678 0
M  V30 1676 O 284.708 -6.33687 6.13629 0
M  V30 1677 O 284.168 -6.7751 3.72168 0
M  V30 1678 C 283.228 -7.20919 2.70795 0
M  V30 1679 C 283.958 -7.45864 1.40599 0
M  V30 1680 O 284.168 -6.17751 0.734343 0
M  V30 1681 C 285.358 -8.05906 1.51917 0
M  V30 1682 O 285.748 -8.74358 0.335205 0
M  V30 1683 C 286.238 -6.83093 1.70294 0
M  V30 1684 C 285.528 -5.79992 0.836974 0
M  V30 1685 N 285.578 -4.41864 1.38293 0
M  V30 1686 H 282.74 -8.13738 3.03804 0
M  V30 1687 H 282.468 -6.42974 2.55559 0
M  V30 1688 H 283.336 -8.12139 0.792866 0
M  V30 1689 H 285.991 -5.80178 -0.160643 0
M  V30 1690 H 286.271 -6.51379 2.75643 0
M  V30 1691 H 287.262 -7.01832 1.3448 0
M  V30 1692 H 285.428 -8.73771 2.38364 0
M  V30 1693 P 287.298 -8.91 -1.02605e-12 0
M  V30 1694 O 287.518 -10.1726 -0.733694 0
M  V30 1695 O 288.088 -8.73148 1.23936 0
M  V30 1696 O 287.548 -7.66872 -0.971405 0
M  V30 1697 C 286.608 -7.42309 -2.04641 0
M  V30 1698 C 287.338 -6.86059 -3.24661 0
M  V30 1699 O 287.548 -5.42847 -3.03646 0
M  V30 1700 C 288.738 -7.41196 -3.50753 0
M  V30 1701 O 289.128 -7.27073 -4.86816 0
M  V30 1702 C 289.618 -6.5273 -2.63741 0
M  V30 1703 C 288.908 -5.1842 -2.73198 0
M  V30 1704 N 288.958 -4.38762 -1.4784 0
M  V30 1705 H 286.119 -8.36803 -2.32493 0
M  V30 1706 H 285.849 -6.70197 -1.71129 0
M  V30 1707 H 286.716 -7.03551 -4.13168 0
M  V30 1708 P 290.678 -7.20834 -5.23717 0
M  V30 1709 O 290.898 -7.79853 -6.57286 0
M  V30 1710 O 291.468 -7.79239 -4.12957 0
M  V30 1711 O 290.928 -5.63315 -5.29344 0
M  V30 1712 C 289.988 -4.80255 -6.01876 0
M  V30 1713 C 290.718 -3.64202 -6.65911 0
M  V30 1714 O 290.928 -2.60694 -5.64732 0
M  V30 1715 C 292.118 -3.93473 -7.1943 0
M  V30 1716 O 292.508 -3.02071 -8.21205 0
M  V30 1717 C 292.998 -3.73047 -5.97036 0
M  V30 1718 C 292.288 -2.58828 -5.25741 0
M  V30 1719 N 292.338 -2.68068 -3.77503 0
M  V30 1720 H 289.499 -5.40332 -6.79951 0
M  V30 1721 H 289.229 -4.41613 -5.32378 0
M  V30 1722 H 290.096 -3.26331 -7.47797 0
M  V30 1723 P 294.058 -2.75334 -8.47391 0
M  V30 1724 O 294.278 -2.44571 -9.90142 0
M  V30 1725 O 294.848 -3.87688 -7.92115 0
M  V30 1726 O 294.308 -1.4459 -7.59357 0
M  V30 1727 C 293.368 -0.347608 -7.69215 0
M  V30 1728 C 294.098 0.96767 -7.52806 0
M  V30 1729 O 294.308 1.21036 -6.1011 0
M  V30 1730 C 295.498 1.04544 -8.13308 0
M  V30 1731 O 295.888 2.38311 -8.41922 0
M  V30 1732 C 296.378 0.491279 -7.02284 0
M  V30 1733 C 295.668 0.996264 -5.77469 0
M  V30 1734 N 295.718 0.0501916 -4.62973 0
M  V30 1735 H 292.879 -0.374722 -8.67691 0
M  V30 1736 H 292.609 -0.443485 -6.90277 0
M  V30 1737 H 293.476 1.75537 -7.96793 0
M  V30 1738 P 297.438 2.75334 -8.47391 0
M  V30 1739 O 297.658 3.84128 -9.44797 0
M  V30 1740 O 298.228 1.51947 -8.68712 0
M  V30 1741 O 297.688 3.29363 -6.99321 0
M  V30 1742 C 296.748 4.24011 -6.4274 0
M  V30 1743 C 297.478 5.20775 -5.52155 0
M  V30 1744 O 297.688 4.56534 -4.22446 0
M  V30 1745 C 298.878 5.62629 -5.96531 0
M  V30 1746 O 299.268 6.87667 -5.41053 0
M  V30 1747 C 299.758 4.52537 -5.39283 0
M  V30 1748 C 299.048 4.20027 -4.08623 0
M  V30 1749 N 299.098 2.76189 -3.71603 0
M  V30 1750 H 296.259 4.797 -7.24003 0
M  V30 1751 H 295.989 3.69856 -5.84513 0
M  V30 1752 H 296.856 6.10356 -5.41441 0
M  V30 1753 P 300.818 7.20834 -5.23717 0
M  V30 1754 O 301.038 8.66104 -5.38572 0
M  V30 1755 O 301.608 6.33544 -6.1349 0
M  V30 1756 O 301.068 6.7751 -3.72168 0
M  V30 1757 C 300.128 7.20825 -2.7076 0
M  V30 1758 C 300.858 7.45864 -1.40599 0
M  V30 1759 O 301.068 6.17651 -0.734225 0
M  V30 1760 C 302.258 8.05808 -1.51899 0
M  V30 1761 O 302.648 8.74358 -0.335205 0
M  V30 1762 C 303.138 6.83093 -1.70294 0
M  V30 1763 C 302.428 5.79992 -0.836974 0
M  V30 1764 N 302.478 4.41864 -1.38293 0
M  V30 1765 H 299.639 8.13644 -3.0377 0
M  V30 1766 H 299.369 6.42788 -2.55485 0
M  V30 1767 H 300.236 8.12039 -0.792769 0
M  V30 1768 P 304.198 8.91 1.18324e-12 0
M  V30 1769 O 304.418 10.1746 0.733838 0
M  V30 1770 O 304.988 8.73346 -1.23964 0
M  V30 1771 O 304.448 7.66872 0.971405 0
M  V30 1772 C 303.508 7.42405 2.04668 0
M  V30 1773 C 304.238 6.86059 3.24661 0
M  V30 1774 O 304.448 5.42934 3.03695 0
M  V30 1775 C 305.638 7.41287 3.50796 0
M  V30 1776 O 306.028 7.27073 4.86816 0
M  V30 1777 C 306.518 6.5273 2.63741 0
M  V30 1778 C 305.808 5.1842 2.73198 0
M  V30 1779 N 305.858 4.38762 1.4784 0
M  V30 1780 C 305.778 4.83651 0.183876 0
M  V30 1781 N 305.848 3.88759 -0.699393 0
M  V30 1782 C 305.998 2.7404 0.0575568 0
M  V30 1783 C 306.128 1.37902 -0.293928 0
M  V30 1784 N 306.138 0.938021 -1.54797 0
M  V30 1785 N 306.248 0.491817 0.70549 0
M  V30 1786 C 306.238 0.931735 1.95979 0
M  V30 1787 N 306.118 2.16017 2.41481 0
M  V30 1788 C 305.998 3.02547 1.39121 0
M  V30 1789 H 303.02 8.36899 2.3252 0
M  V30 1790 H 302.748 6.70391 1.71179 0
M  V30 1791 H 303.616 7.03638 4.13219 0
M  V30 1792 H 306.271 4.59931 3.54016 0
M  V30 1793 H 306.551 6.88995 1.59871 0
M  V30 1794 H 307.542 6.4684 3.0373 0
M  V30 1795 H 305.708 8.47002 3.20749 0
M  V30 1796 H 305.667 5.8885 -0.0765548 0
M  V30 1797 H 306.048 1.60276 -2.32875 0
M  V30 1798 H 306.237 -0.0699355 -1.73859 0
M  V30 1799 H 306.345 0.165507 2.71897 0
M  V30 1800 P 307.578 7.20834 5.23717 0
M  V30 1801 O 307.798 7.7993 6.57351 0
M  V30 1802 O 308.368 7.79328 4.13004 0
M  V30 1803 O 307.828 5.63315 5.29344 0
M  V30 1804 C 306.888 4.80193 6.01798 0
M  V30 1805 C 307.618 3.64202 6.65911 0
M  V30 1806 O 307.828 2.60694 5.64732 0
M  V30 1807 C 309.018 3.93473 7.1943 0
M  V30 1808 O 309.408 3.02071 8.21205 0
M  V30 1809 C 309.898 3.73047 5.97036 0
M  V30 1810 C 309.188 2.58828 5.25741 0
M  V30 1811 N 309.238 2.6801 3.77422 0
M  V30 1812 C 309.388 1.50443 3.07133 0
M  V30 1813 O 309.478 0.419406 3.61576 0
M  V30 1814 N 309.428 1.6403 1.69677 0
M  V30 1815 C 309.338 2.81206 0.986255 0
M  V30 1816 C 309.188 3.99158 1.80325 0
M  V30 1817 C 309.138 3.89779 3.1476 0
M  V30 1818 H 306.398 5.40332 6.79951 0
M  V30 1819 H 306.129 4.41549 5.32301 0
M  V30 1820 H 306.996 3.26331 7.47797 0
M  V30 1821 H 309.651 1.6395 5.56554 0
M  V30 1822 H 309.93 4.63439 5.3432 0
M  V30 1823 H 310.922 3.44728 6.25838 0
M  V30 1824 H 309.088 4.96652 7.57263 0
M  V30 1825 H 309.017 4.80159 3.74441 0
M  V30 1826 P 310.958 2.75334 8.47391 0
M  V30 1827 O 311.178 2.44571 9.90142 0
M  V30 1828 O 311.748 3.87688 7.92115 0
M  V30 1829 O 311.208 1.4459 7.59357 0
M  V30 1830 C 310.268 0.347608 7.69215 0
M  V30 1831 C 310.998 -0.96767 7.52806 0
M  V30 1832 O 311.208 -1.21036 6.1011 0
M  V30 1833 C 312.398 -1.04544 8.13308 0
M  V30 1834 O 312.788 -2.38311 8.41922 0
M  V30 1835 C 313.278 -0.491279 7.02284 0
M  V30 1836 C 312.568 -0.996264 5.77469 0
M  V30 1837 N 312.618 -0.0501916 4.62973 0
M  V30 1838 H 309.779 0.374722 8.67691 0
M  V30 1839 H 309.509 0.443485 6.90277 0
M  V30 1840 H 310.376 -1.75537 7.96793 0
M  V30 1841 P 314.338 -2.75334 8.47391 0
M  V30 1842 O 314.558 -3.84128 9.44797 0
M  V30 1843 O 315.128 -1.51947 8.68712 0
M  V30 1844 O 314.588 -3.29363 6.99321 0
M  V30 1845 C 313.648 -4.24011 6.4274 0
M  V30 1846 C 314.378 -5.20775 5.52155 0
M  V30 1847 O 314.588 -4.56534 4.22446 0
M  V30 1848 C 315.778 -5.62629 5.96531 0
M  V30 1849 O 316.168 -6.87667 5.41053 0
M  V30 1850 C 316.658 -4.52537 5.39283 0
M  V30 1851 C 315.948 -4.20027 4.08623 0
M  V30 1852 N 315.998 -2.76189 3.71603 0
M  V30 1853 H 313.159 -4.797 7.24003 0
M  V30 1854 H 312.889 -3.69856 5.84513 0
M  V30 1855 H 313.756 -6.10356 5.41441 0
M  V30 1856 P 317.718 -7.20834 5.23717 0
M  V30 1857 O 317.938 -8.66104 5.38572 0
M  V30 1858 O 318.508 -6.33544 6.1349 0
M  V30 1859 O 317.968 -6.7751 3.72168 0
M  V30 1860 C 317.028 -7.20825 2.7076 0
M  V30 1861 C 317.758 -7.45864 1.40599 0
M  V30 1862 O 317.968 -6.17651 0.734225 0
M  V30 1863 C 319.158 -8.05808 1.51899 0
M  V30 1864 O 319.548 -8.74358 0.335205 0
M  V30 1865 C 320.038 -6.83093 1.70294 0
M  V30 1866 C 319.328 -5.79992 0.836974 0
M  V30 1867 N 319.378 -4.41864 1.38293 0
M  V30 1868 H 316.539 -8.13644 3.0377 0
M  V30 1869 H 316.269 -6.42788 2.55485 0
M  V30 1870 H 317.136 -8.12039 0.792769 0
M  V30 1871 P 321.098 -8.91 -1.34042e-12 0
M  V30 1872 O 321.318 -10.1736 -0.733766 0
M  V30 1873 O 321.888 -8.73247 1.2395 0
M  V30 1874 O 321.348 -7.66872 -0.971405 0
M  V30 1875 C 320.408 -7.42212 -2.04614 0
M  V30 1876 C 321.138 -6.86059 -3.24661 0
M  V30 1877 O 321.348 -5.42847 -3.03646 0
M  V30 1878 C 322.538 -7.41196 -3.50753 0
M  V30 1879 O 322.928 -7.27073 -4.86816 0
M  V30 1880 C 323.418 -6.5273 -2.63741 0
M  V30 1881 C 322.708 -5.1842 -2.73198 0
M  V30 1882 N 322.758 -4.38668 -1.47808 0
M  V30 1883 C 322.908 -3.02239 -1.60048 0
M  V30 1884 O 322.998 -2.46459 -2.67869 0
M  V30 1885 N 322.948 -2.32436 -0.408571 0
M  V30 1886 C 322.858 -2.85471 0.854993 0
M  V30 1887 O 322.908 -2.12566 1.8531 0
M  V30 1888 C 322.708 -4.28918 0.887335 0
M  V30 1889 C 322.598 -4.91066 2.24619 0
M  V30 1890 C 322.658 -5.00349 -0.255399 0
M  V30 1891 H 319.918 -8.36803 -2.32493 0
M  V30 1892 H 319.649 -6.701 -1.71105 0
M  V30 1893 H 320.516 -7.03551 -4.13168 0
M  V30 1894 H 323.171 -4.59773 -3.53894 0
M  V30 1895 H 323.45 -6.88995 -1.59871 0
M  V30 1896 H 324.442 -6.46749 -3.03687 0
M  V30 1897 H 322.608 -8.46908 -3.20714 0
M  V30 1898 H 322.537 -6.08548 -0.206986 0
M  V30 1899 H 323.567 -5.34836 2.53099 0
M  V30 1900 H 321.83 -5.69638 2.2291 0
M  V30 1901 H 322.318 -4.13971 2.98044 0
M  V30 1902 H 323.054 -1.33211 -0.474216 0
M  V30 1903 P 324.478 -7.20834 -5.23717 0
M  V30 1904 O 324.698 -7.7993 -6.57351 0
M  V30 1905 O 325.268 -7.79328 -4.13004 0
M  V30 1906 O 324.728 -5.63315 -5.29344 0
M  V30 1907 C 323.788 -4.80193 -6.01798 0
M  V30 1908 C 324.518 -3.64202 -6.65911 0
M  V30 1909 O 324.728 -2.60694 -5.64732 0
M  V30 1910 C 325.918 -3.93473 -7.1943 0
M  V30 1911 O 326.308 -3.02071 -8.21205 0
M  V30 1912 C 326.798 -3.73047 -5.97036 0
M  V30 1913 C 326.088 -2.58828 -5.25741 0
M  V30 1914 N 326.138 -2.6801 -3.77422 0
M  V30 1915 C 326.288 -1.50443 -3.07133 0
M  V30 1916 O 326.378 -0.419406 -3.61576 0
M  V30 1917 N 326.328 -1.6403 -1.69677 0
M  V30 1918 C 326.238 -2.81206 -0.986255 0
M  V30 1919 C 326.088 -3.99158 -1.80325 0
M  V30 1920 C 326.038 -3.89779 -3.1476 0
M  V30 1921 H 323.298 -5.40332 -6.79951 0
M  V30 1922 H 323.029 -4.41549 -5.32301 0
M  V30 1923 H 323.896 -3.26331 -7.47797 0
M  V30 1924 H 326.551 -1.6395 -5.56554 0
M  V30 1925 H 326.83 -4.63439 -5.3432 0
M  V30 1926 H 327.822 -3.44728 -6.25838 0
M  V30 1927 H 325.988 -4.96652 -7.57263 0
M  V30 1928 H 325.917 -4.80159 -3.74441 0
M  V30 1929 P 327.858 -2.75334 -8.47391 0
M  V30 1930 O 328.078 -2.44571 -9.90142 0
M  V30 1931 O 328.648 -3.87688 -7.92115 0
M  V30 1932 O 328.108 -1.4459 -7.59357 0
M  V30 1933 C 327.168 -0.347608 -7.69215 0
M  V30 1934 C 327.898 0.96767 -7.52806 0
M  V30 1935 O 328.108 1.21036 -6.1011 0
M  V30 1936 C 329.298 1.04544 -8.13308 0
M  V30 1937 O 329.688 2.38311 -8.41922 0
M  V30 1938 C 330.178 0.491279 -7.02284 0
M  V30 1939 C 329.468 0.996264 -5.77469 0
M  V30 1940 N 329.518 0.0501916 -4.62973 0
M  V30 1941 H 326.679 -0.374722 -8.67691 0
M  V30 1942 H 326.409 -0.443485 -6.90277 0
M  V30 1943 H 327.276 1.75537 -7.96793 0
M  V30 1944 P 331.238 2.75334 -8.47391 0
M  V30 1945 O 331.458 3.84166 -9.4489 0
M  V30 1946 O 332.028 1.51964 -8.6881 0
M  V30 1947 O 331.488 3.29363 -6.99321 0
M  V30 1948 C 330.548 4.23956 -6.42656 0
M  V30 1949 C 331.278 5.20775 -5.52155 0
M  V30 1950 O 331.488 4.56534 -4.22446 0
M  V30 1951 C 332.678 5.62629 -5.96531 0
M  V30 1952 O 333.068 6.87667 -5.41053 0
M  V30 1953 C 333.558 4.52537 -5.39283 0
M  V30 1954 C 332.848 4.20027 -4.08623 0
M  V30 1955 N 332.898 2.7613 -3.71522 0
M  V30 1956 C 333.048 2.45612 -2.37989 0
M  V30 1957 O 333.138 3.30919 -1.51621 0
M  V30 1958 N 333.088 1.10684 -2.08435 0
M  V30 1959 C 332.998 0.0690084 -2.9792 0
M  V30 1960 C 332.848 0.481522 -4.35345 0
M  V30 1961 C 332.798 1.78906 -4.67968 0
M  V30 1962 H 330.058 4.797 -7.24003 0
M  V30 1963 H 329.789 3.69802 -5.84429 0
M  V30 1964 H 330.656 6.10356 -5.41441 0
M  V30 1965 H 333.311 4.78651 -3.27911 0
M  V30 1966 H 333.59 3.64957 -6.05871 0
M  V30 1967 H 334.582 4.8868 -5.2125 0
M  V30 1968 H 332.748 5.66726 -7.06352 0
M  V30 1969 H 332.677 2.07737 -5.72367 0
M  V30 1970 P 334.618 7.20834 -5.23717 0
M  V30 1971 O 334.838 8.66104 -5.38572 0
M  V30 1972 O 335.408 6.33544 -6.1349 0
M  V30 1973 O 334.868 6.7751 -3.72168 0
M  V30 1974 C 333.928 7.20825 -2.7076 0
M  V30 1975 C 334.658 7.45864 -1.40599 0
M  V30 1976 O 334.868 6.17651 -0.734225 0
M  V30 1977 C 336.058 8.05808 -1.51899 0
M  V30 1978 O 336.448 8.74358 -0.335205 0
M  V30 1979 C 336.938 6.83093 -1.70294 0
M  V30 1980 C 336.228 5.79992 -0.836974 0
M  V30 1981 N 336.278 4.41864 -1.38293 0
M  V30 1982 H 333.439 8.13644 -3.0377 0
M  V30 1983 H 333.169 6.42788 -2.55485 0
M  V30 1984 H 334.036 8.12039 -0.792769 0
M  V30 1985 P 337.998 8.91 1.4976e-12 0
M  V30 1986 O 338.218 10.1726 0.733694 0
M  V30 1987 O 338.788 8.73148 -1.23936 0
M  V30 1988 O 338.248 7.66872 0.971405 0
M  V30 1989 C 337.308 7.42309 2.04641 0
M  V30 1990 C 338.038 6.86059 3.24661 0
M  V30 1991 O 338.248 5.42847 3.03646 0
M  V30 1992 C 339.438 7.41196 3.50753 0
M  V30 1993 O 339.828 7.27073 4.86816 0
M  V30 1994 C 340.318 6.5273 2.63741 0
M  V30 1995 C 339.608 5.1842 2.73198 0
M  V30 1996 N 339.658 4.38762 1.4784 0
M  V30 1997 H 336.819 8.36803 2.32493 0
M  V30 1998 H 336.549 6.70197 1.71129 0
M  V30 1999 H 337.416 7.03551 4.13168 0
M  V30 2000 P 341.378 7.20834 5.23717 0
M  V30 2001 O 341.598 7.79853 6.57286 0
M  V30 2002 O 342.168 7.79239 4.12957 0
M  V30 2003 O 341.628 5.63315 5.29344 0
M  V30 2004 C 340.688 4.80255 6.01876 0
M  V30 2005 C 341.418 3.64202 6.65911 0
M  V30 2006 O 341.628 2.60694 5.64732 0
M  V30 2007 C 342.818 3.93473 7.1943 0
M  V30 2008 O 343.208 3.02071 8.21205 0
M  V30 2009 C 343.698 3.73047 5.97036 0
M  V30 2010 C 342.988 2.58828 5.25741 0
M  V30 2011 N 343.038 2.68068 3.77503 0
M  V30 2012 H 340.199 5.40332 6.79951 0
M  V30 2013 H 339.929 4.41613 5.32378 0
M  V30 2014 H 340.796 3.26331 7.47797 0
M  V30 2015 P 344.758 2.75334 8.47391 0
M  V30 2016 O 344.978 2.44595 9.90239 0
M  V30 2017 O 345.548 3.87732 7.92204 0
M  V30 2018 O 345.008 1.4459 7.59357 0
M  V30 2019 C 344.068 0.347563 7.69115 0
M  V30 2020 C 344.798 -0.96767 7.52806 0
M  V30 2021 O 345.008 -1.21036 6.1011 0
M  V30 2022 C 346.198 -1.04544 8.13308 0
M  V30 2023 O 346.588 -2.38311 8.41922 0
M  V30 2024 C 347.078 -0.491279 7.02284 0
M  V30 2025 C 346.368 -0.996264 5.77469 0
M  V30 2026 N 346.418 -0.0501808 4.62873 0
M  V30 2027 C 346.568 -0.588177 3.36904 0
M  V30 2028 O 346.658 -1.78598 3.17173 0
M  V30 2029 N 346.608 0.329694 2.33686 0
M  V30 2030 C 346.518 1.6953 2.45079 0
M  V30 2031 C 346.368 2.16933 3.80505 0
M  V30 2032 C 346.318 1.30326 4.83752 0
M  V30 2033 H 343.578 0.374722 8.67691 0
M  V30 2034 H 343.309 0.443421 6.90177 0
M  V30 2035 H 344.176 -1.75537 7.96793 0
M  V30 2036 H 346.831 -1.94496 5.46629 0
M  V30 2037 H 347.11 0.608651 7.04676 0
M  V30 2038 H 348.102 -0.889672 7.08939 0
M  V30 2039 H 346.268 -0.43308 9.04564 0
M  V30 2040 H 346.197 1.68366 5.8516 0
M  V30 2041 P 348.138 -2.75334 8.47391 0
M  V30 2042 O 348.358 -3.84128 9.44797 0
M  V30 2043 O 348.928 -1.51947 8.68712 0
M  V30 2044 O 348.388 -3.29363 6.99321 0
M  V30 2045 C 347.448 -4.24011 6.4274 0
M  V30 2046 C 348.178 -5.20775 5.52155 0
M  V30 2047 O 348.388 -4.56534 4.22446 0
M  V30 2048 C 349.578 -5.62629 5.96531 0
M  V30 2049 O 349.968 -6.87667 5.41053 0
M  V30 2050 C 350.458 -4.52537 5.39283 0
M  V30 2051 C 349.748 -4.20027 4.08623 0
M  V30 2052 N 349.798 -2.76189 3.71603 0
M  V30 2053 H 346.959 -4.797 7.24003 0
M  V30 2054 H 346.689 -3.69856 5.84513 0
M  V30 2055 H 347.556 -6.10356 5.41441 0
M  V30 2056 P 351.518 -7.20834 5.23717 0
M  V30 2057 O 351.738 -8.66274 5.38678 0
M  V30 2058 O 352.308 -6.33687 6.13629 0
M  V30 2059 O 351.768 -6.7751 3.72168 0
M  V30 2060 C 350.828 -7.20919 2.70795 0
M  V30 2061 C 351.558 -7.45864 1.40599 0
M  V30 2062 O 351.768 -6.17751 0.734343 0
M  V30 2063 C 352.958 -8.05906 1.51917 0
M  V30 2064 O 353.348 -8.74358 0.335205 0
M  V30 2065 C 353.838 -6.83093 1.70294 0
M  V30 2066 C 353.128 -5.79992 0.836974 0
M  V30 2067 N 353.178 -4.41864 1.38293 0
M  V30 2068 H 350.34 -8.13738 3.03804 0
M  V30 2069 H 350.068 -6.42974 2.55559 0
M  V30 2070 H 350.936 -8.12139 0.792866 0
M  V30 2071 H 353.591 -5.80178 -0.160643 0
M  V30 2072 H 353.871 -6.51379 2.75643 0
M  V30 2073 H 354.862 -7.01832 1.3448 0
M  V30 2074 H 353.028 -8.73771 2.38364 0
M  V30 2075 P 354.898 -8.91 -1.65478e-12 0
M  V30 2076 O 355.118 -10.1736 -0.733766 0
M  V30 2077 O 355.688 -8.73247 1.2395 0
M  V30 2078 O 355.148 -7.66872 -0.971405 0
M  V30 2079 C 354.208 -7.42212 -2.04614 0
M  V30 2080 C 354.938 -6.86059 -3.24661 0
M  V30 2081 O 355.148 -5.42847 -3.03646 0
M  V30 2082 C 356.338 -7.41196 -3.50753 0
M  V30 2083 O 356.728 -7.27073 -4.86816 0
M  V30 2084 C 357.218 -6.5273 -2.63741 0
M  V30 2085 C 356.508 -5.1842 -2.73198 0
M  V30 2086 N 356.558 -4.38668 -1.47808 0
M  V30 2087 C 356.708 -3.02239 -1.60048 0
M  V30 2088 O 356.798 -2.46459 -2.67869 0
M  V30 2089 N 356.748 -2.32436 -0.408571 0
M  V30 2090 C 356.658 -2.85471 0.854993 0
M  V30 2091 O 356.708 -2.12566 1.8531 0
M  V30 2092 C 356.508 -4.28918 0.887335 0
M  V30 2093 C 356.398 -4.91066 2.24619 0
M  V30 2094 C 356.458 -5.00349 -0.255399 0
M  V30 2095 H 353.718 -8.36803 -2.32493 0
M  V30 2096 H 353.449 -6.701 -1.71105 0
M  V30 2097 H 354.316 -7.03551 -4.13168 0
M  V30 2098 H 356.971 -4.59773 -3.53894 0
M  V30 2099 H 357.25 -6.88995 -1.59871 0
M  V30 2100 H 358.242 -6.46749 -3.03687 0
M  V30 2101 H 356.408 -8.46908 -3.20714 0
M  V30 2102 H 356.337 -6.08548 -0.206986 0
M  V30 2103 H 357.367 -5.34836 2.53099 0
M  V30 2104 H 355.63 -5.69638 2.2291 0
M  V30 2105 H 356.118 -4.13971 2.98044 0
M  V30 2106 H 356.854 -1.33211 -0.474216 0
M  V30 2107 P 358.278 -7.20834 -5.23717 0
M  V30 2108 O 358.498 -7.79853 -6.57286 0
M  V30 2109 O 359.068 -7.79239 -4.12957 0
M  V30 2110 O 358.528 -5.63315 -5.29344 0
M  V30 2111 C 357.588 -4.80255 -6.01876 0
M  V30 2112 C 358.318 -3.64202 -6.65911 0
M  V30 2113 O 358.528 -2.60694 -5.64732 0
M  V30 2114 C 359.718 -3.93473 -7.1943 0
M  V30 2115 O 360.108 -3.02071 -8.21205 0
M  V30 2116 C 360.598 -3.73047 -5.97036 0
M  V30 2117 C 359.888 -2.58828 -5.25741 0
M  V30 2118 N 359.938 -2.68068 -3.77503 0
M  V30 2119 H 357.099 -5.40332 -6.79951 0
M  V30 2120 H 356.829 -4.41613 -5.32378 0
M  V30 2121 H 357.696 -3.26331 -7.47797 0
M  V30 2122 P 361.658 -2.75334 -8.47391 0
M  V30 2123 O 361.878 -2.44571 -9.90142 0
M  V30 2124 O 362.448 -3.87688 -7.92115 0
M  V30 2125 O 361.908 -1.4459 -7.59357 0
M  V30 2126 C 360.968 -0.347608 -7.69215 0
M  V30 2127 C 361.698 0.96767 -7.52806 0
M  V30 2128 O 361.908 1.21036 -6.1011 0
M  V30 2129 C 363.098 1.04544 -8.13308 0
M  V30 2130 O 363.488 2.38311 -8.41922 0
M  V30 2131 C 363.978 0.491279 -7.02284 0
M  V30 2132 C 363.268 0.996264 -5.77469 0
M  V30 2133 N 363.318 0.0501916 -4.62973 0
M  V30 2134 H 360.479 -0.374722 -8.67691 0
M  V30 2135 H 360.209 -0.443485 -6.90277 0
M  V30 2136 H 361.076 1.75537 -7.96793 0
M  V30 2137 P 365.038 2.75334 -8.47391 0
M  V30 2138 O 365.258 3.84128 -9.44797 0
M  V30 2139 O 365.828 1.51947 -8.68712 0
M  V30 2140 O 365.288 3.29363 -6.99321 0
M  V30 2141 C 364.348 4.24011 -6.4274 0
M  V30 2142 C 365.078 5.20775 -5.52155 0
M  V30 2143 O 365.288 4.56534 -4.22446 0
M  V30 2144 C 366.478 5.62629 -5.96531 0
M  V30 2145 O 366.868 6.87667 -5.41053 0
M  V30 2146 C 367.358 4.52537 -5.39283 0
M  V30 2147 C 366.648 4.20027 -4.08623 0
M  V30 2148 N 366.698 2.76189 -3.71603 0
M  V30 2149 C 366.618 1.64862 -4.52822 0
M  V30 2150 N 366.698 0.512671 -3.88633 0
M  V30 2151 C 366.838 0.888083 -2.54977 0
M  V30 2152 C 366.968 0.094668 -1.38677 0
M  V30 2153 N 367.088 0.890102 -0.232633 0
M  V30 2154 C 367.088 2.26958 -0.21772 0
M  V30 2155 N 367.218 2.84626 0.97925 0
M  V30 2156 N 366.958 3.0178 -1.31033 0
M  V30 2157 C 366.838 2.26781 -2.43843 0
M  V30 2158 H 363.859 4.797 -7.24003 0
M  V30 2159 H 363.589 3.69856 -5.84513 0
M  V30 2160 H 364.456 6.10356 -5.41441 0
M  V30 2161 P 368.418 7.20834 -5.23717 0
M  V30 2162 O 368.638 8.66104 -5.38572 0
M  V30 2163 O 369.208 6.33544 -6.1349 0
M  V30 2164 O 368.668 6.7751 -3.72168 0
M  V30 2165 C 367.728 7.20825 -2.7076 0
M  V30 2166 C 368.458 7.45864 -1.40599 0
M  V30 2167 O 368.668 6.17651 -0.734225 0
M  V30 2168 C 369.858 8.05808 -1.51899 0
M  V30 2169 O 370.248 8.74358 -0.335205 0
M  V30 2170 C 370.738 6.83093 -1.70294 0
M  V30 2171 C 370.028 5.79992 -0.836974 0
M  V30 2172 N 370.078 4.41864 -1.38293 0
M  V30 2173 H 367.239 8.13644 -3.0377 0
M  V30 2174 H 366.969 6.42788 -2.55485 0
M  V30 2175 H 367.836 8.12039 -0.792769 0
M  V30 2176 P 371.798 8.91 1.81197e-12 0
M  V30 2177 O 372.018 10.1746 0.733838 0
M  V30 2178 O 372.588 8.73346 -1.23964 0
M  V30 2179 O 372.048 7.66872 0.971405 0
M  V30 2180 C 371.108 7.42405 2.04668 0
M  V30 2181 C 371.838 6.86059 3.24661 0
M  V30 2182 O 372.048 5.42934 3.03695 0
M  V30 2183 C 373.238 7.41287 3.50796 0
M  V30 2184 O 373.628 7.27073 4.86816 0
M  V30 2185 C 374.118 6.5273 2.63741 0
M  V30 2186 C 373.408 5.1842 2.73198 0
M  V30 2187 N 373.458 4.38762 1.4784 0
M  V30 2188 C 373.378 4.83651 0.183876 0
M  V30 2189 N 373.448 3.88759 -0.699393 0
M  V30 2190 C 373.598 2.7404 0.0575568 0
M  V30 2191 C 373.728 1.37902 -0.293928 0
M  V30 2192 N 373.738 0.938021 -1.54797 0
M  V30 2193 N 373.848 0.491817 0.70549 0
M  V30 2194 C 373.838 0.931735 1.95979 0
M  V30 2195 N 373.718 2.16017 2.41481 0
M  V30 2196 C 373.598 3.02547 1.39121 0
M  V30 2197 H 370.62 8.36899 2.3252 0
M  V30 2198 H 370.348 6.70391 1.71179 0
M  V30 2199 H 371.216 7.03638 4.13219 0
M  V30 2200 H 373.871 4.59931 3.54016 0
M  V30 2201 H 374.151 6.88995 1.59871 0
M  V30 2202 H 375.142 6.4684 3.0373 0
M  V30 2203 H 373.308 8.47002 3.20749 0
M  V30 2204 H 373.267 5.8885 -0.0765548 0
M  V30 2205 H 373.648 1.60276 -2.32875 0
M  V30 2206 H 373.837 -0.0699355 -1.73859 0
M  V30 2207 H 373.945 0.165507 2.71897 0
M  V30 2208 P 375.178 7.20834 5.23717 0
M  V30 2209 O 375.398 7.79853 6.57286 0
M  V30 2210 O 375.968 7.79239 4.12957 0
M  V30 2211 O 375.428 5.63315 5.29344 0
M  V30 2212 C 374.488 4.80255 6.01876 0
M  V30 2213 C 375.218 3.64202 6.65911 0
M  V30 2214 O 375.428 2.60694 5.64732 0
M  V30 2215 C 376.618 3.93473 7.1943 0
M  V30 2216 O 377.008 3.02071 8.21205 0
M  V30 2217 C 377.498 3.73047 5.97036 0
M  V30 2218 C 376.788 2.58828 5.25741 0
M  V30 2219 N 376.838 2.68068 3.77503 0
M  V30 2220 H 373.999 5.40332 6.79951 0
M  V30 2221 H 373.729 4.41613 5.32378 0
M  V30 2222 H 374.596 3.26331 7.47797 0
M  V30 2223 P 378.558 2.75334 8.47391 0
M  V30 2224 O 378.778 2.44571 9.90142 0
M  V30 2225 O 379.348 3.87688 7.92115 0
M  V30 2226 O 378.808 1.4459 7.59357 0
M  V30 2227 C 377.868 0.347608 7.69215 0
M  V30 2228 C 378.598 -0.96767 7.52806 0
M  V30 2229 O 378.808 -1.21036 6.1011 0
M  V30 2230 C 379.998 -1.04544 8.13308 0
M  V30 2231 O 380.388 -2.38311 8.41922 0
M  V30 2232 C 380.878 -0.491279 7.02284 0
M  V30 2233 C 380.168 -0.996264 5.77469 0
M  V30 2234 N 380.218 -0.0501916 4.62973 0
M  V30 2235 H 377.379 0.374722 8.67691 0
M  V30 2236 H 377.109 0.443485 6.90277 0
M  V30 2237 H 377.976 -1.75537 7.96793 0
M  V30 2238 P 381.938 -2.75334 8.47391 0
M  V30 2239 O 382.158 -3.84128 9.44797 0
M  V30 2240 O 382.728 -1.51947 8.68712 0
M  V30 2241 O 382.188 -3.29363 6.99321 0
M  V30 2242 C 381.248 -4.24011 6.4274 0
M  V30 2243 C 381.978 -5.20775 5.52155 0
M  V30 2244 O 382.188 -4.56534 4.22446 0
M  V30 2245 C 383.378 -5.62629 5.96531 0
M  V30 2246 O 383.768 -6.87667 5.41053 0
M  V30 2247 C 384.258 -4.52537 5.39283 0
M  V30 2248 C 383.548 -4.20027 4.08623 0
M  V30 2249 N 383.598 -2.76189 3.71603 0
M  V30 2250 H 380.759 -4.797 7.24003 0
M  V30 2251 H 380.489 -3.69856 5.84513 0
M  V30 2252 H 381.356 -6.10356 5.41441 0
M  V30 2253 P 385.318 -7.20834 5.23717 0
M  V30 2254 O 385.538 -8.66104 5.38572 0
M  V30 2255 O 386.108 -6.33544 6.1349 0
M  V30 2256 O 385.568 -6.7751 3.72168 0
M  V30 2257 C 384.628 -7.20825 2.7076 0
M  V30 2258 C 385.358 -7.45864 1.40599 0
M  V30 2259 O 385.568 -6.17651 0.734225 0
M  V30 2260 C 386.758 -8.05808 1.51899 0
M  V30 2261 O 387.148 -8.74358 0.335205 0
M  V30 2262 C 387.638 -6.83093 1.70294 0
M  V30 2263 C 386.928 -5.79992 0.836974 0
M  V30 2264 N 386.978 -4.41864 1.38293 0
M  V30 2265 H 384.139 -8.13644 3.0377 0
M  V30 2266 H 383.869 -6.42788 2.55485 0
M  V30 2267 H 384.736 -8.12039 0.792769 0
M  V30 2268 P 388.698 -8.91 -1.96915e-12 0
M  V30 2269 O 388.918 -10.1726 -0.733694 0
M  V30 2270 O 389.488 -8.73148 1.23936 0
M  V30 2271 O 388.948 -7.66872 -0.971405 0
M  V30 2272 C 388.008 -7.42309 -2.04641 0
M  V30 2273 C 388.738 -6.86059 -3.24661 0
M  V30 2274 O 388.948 -5.42847 -3.03646 0
M  V30 2275 C 390.138 -7.41196 -3.50753 0
M  V30 2276 O 390.528 -7.27073 -4.86816 0
M  V30 2277 C 391.018 -6.5273 -2.63741 0
M  V30 2278 C 390.308 -5.1842 -2.73198 0
M  V30 2279 N 390.358 -4.38762 -1.4784 0
M  V30 2280 H 387.519 -8.36803 -2.32493 0
M  V30 2281 H 387.249 -6.70197 -1.71129 0
M  V30 2282 H 388.116 -7.03551 -4.13168 0
M  V30 2283 P 392.078 -7.20834 -5.23717 0
M  V30 2284 O 392.298 -7.79853 -6.57286 0
M  V30 2285 O 392.868 -7.79239 -4.12957 0
M  V30 2286 O 392.328 -5.63315 -5.29344 0
M  V30 2287 C 391.388 -4.80255 -6.01876 0
M  V30 2288 C 392.118 -3.64202 -6.65911 0
M  V30 2289 O 392.328 -2.60694 -5.64732 0
M  V30 2290 C 393.518 -3.93473 -7.1943 0
M  V30 2291 O 393.908 -3.02071 -8.21205 0
M  V30 2292 C 394.398 -3.73047 -5.97036 0
M  V30 2293 C 393.688 -2.58828 -5.25741 0
M  V30 2294 N 393.738 -2.68068 -3.77503 0
M  V30 2295 H 390.899 -5.40332 -6.79951 0
M  V30 2296 H 390.629 -4.41613 -5.32378 0
M  V30 2297 H 391.496 -3.26331 -7.47797 0
M  V30 2298 P 395.458 -2.75334 -8.47391 0
M  V30 2299 O 395.678 -2.44595 -9.90239 0
M  V30 2300 O 396.248 -3.87732 -7.92204 0
M  V30 2301 O 395.708 -1.4459 -7.59357 0
M  V30 2302 C 394.768 -0.347563 -7.69115 0
M  V30 2303 C 395.498 0.96767 -7.52806 0
M  V30 2304 O 395.708 1.21036 -6.1011 0
M  V30 2305 C 396.898 1.04544 -8.13308 0
M  V30 2306 O 397.288 2.38311 -8.41922 0
M  V30 2307 C 397.778 0.491279 -7.02284 0
M  V30 2308 C 397.068 0.996264 -5.77469 0
M  V30 2309 N 397.118 0.0501808 -4.62873 0
M  V30 2310 C 397.268 0.588177 -3.36904 0
M  V30 2311 O 397.358 1.78598 -3.17173 0
M  V30 2312 N 397.308 -0.329694 -2.33686 0
M  V30 2313 C 397.218 -1.6953 -2.45079 0
M  V30 2314 O 397.268 -2.41926 -1.44899 0
M  V30 2315 C 397.068 -2.16933 -3.80505 0
M  V30 2316 C 396.958 -3.65373 -3.97621 0
M  V30 2317 C 397.018 -1.30326 -4.83752 0
M  V30 2318 H 394.278 -0.374722 -8.67691 0
M  V30 2319 H 394.009 -0.443421 -6.90177 0
M  V30 2320 H 394.876 1.75537 -7.96793 0
M  V30 2321 H 397.531 1.94496 -5.46629 0
M  V30 2322 H 397.81 -0.608651 -7.04676 0
M  V30 2323 H 398.802 0.889672 -7.08939 0
M  V30 2324 H 396.968 0.43308 -9.04564 0
M  V30 2325 H 396.897 -1.68366 -5.8516 0
M  V30 2326 H 397.927 -4.05985 -4.30448 0
M  V30 2327 H 396.19 -3.88028 -4.72875 0
M  V30 2328 H 396.678 -4.11381 -3.01609 0
M  V30 2329 H 397.414 0.0393617 -1.41345 0
M  V30 2330 P 398.838 2.75334 -8.47391 0
M  V30 2331 O 399.058 3.84128 -9.44797 0
M  V30 2332 O 399.628 1.51947 -8.68712 0
M  V30 2333 O 399.088 3.29363 -6.99321 0
M  V30 2334 C 398.148 4.24011 -6.4274 0
M  V30 2335 C 398.878 5.20775 -5.52155 0
M  V30 2336 O 399.088 4.56534 -4.22446 0
M  V30 2337 C 400.278 5.62629 -5.96531 0
M  V30 2338 O 400.668 6.87667 -5.41053 0
M  V30 2339 C 401.158 4.52537 -5.39283 0
M  V30 2340 C 400.448 4.20027 -4.08623 0
M  V30 2341 N 400.498 2.76189 -3.71603 0
M  V30 2342 H 397.659 4.797 -7.24003 0
M  V30 2343 H 397.389 3.69856 -5.84513 0
M  V30 2344 H 398.256 6.10356 -5.41441 0
M  V30 2345 P 402.218 7.20834 -5.23717 0
M  V30 2346 O 402.438 8.66104 -5.38572 0
M  V30 2347 O 403.008 6.33544 -6.1349 0
M  V30 2348 O 402.468 6.7751 -3.72168 0
M  V30 2349 C 401.528 7.20825 -2.7076 0
M  V30 2350 C 402.258 7.45864 -1.40599 0
M  V30 2351 O 402.468 6.17651 -0.734225 0
M  V30 2352 C 403.658 8.05808 -1.51899 0
M  V30 2353 O 404.048 8.74358 -0.335205 0
M  V30 2354 C 404.538 6.83093 -1.70294 0
M  V30 2355 C 403.828 5.79992 -0.836974 0
M  V30 2356 N 403.878 4.41864 -1.38293 0
M  V30 2357 H 401.039 8.13644 -3.0377 0
M  V30 2358 H 400.769 6.42788 -2.55485 0
M  V30 2359 H 401.636 8.12039 -0.792769 0
M  V30 2360 P 405.598 8.91 2.12633e-12 0
M  V30 2361 O 405.818 10.1726 0.733694 0
M  V30 2362 O 406.388 8.73148 -1.23936 0
M  V30 2363 O 405.848 7.66872 0.971405 0
M  V30 2364 C 404.908 7.42309 2.04641 0
M  V30 2365 C 405.638 6.86059 3.24661 0
M  V30 2366 O 405.848 5.42847 3.03646 0
M  V30 2367 C 407.038 7.41196 3.50753 0
M  V30 2368 O 407.428 7.27073 4.86816 0
M  V30 2369 C 407.918 6.5273 2.63741 0
M  V30 2370 C 407.208 5.1842 2.73198 0
M  V30 2371 N 407.258 4.38762 1.4784 0
M  V30 2372 H 404.419 8.36803 2.32493 0
M  V30 2373 H 404.149 6.70197 1.71129 0
M  V30 2374 H 405.016 7.03551 4.13168 0
M  V30 2375 P 408.978 7.20834 5.23717 0
M  V30 2376 O 409.198 7.79853 6.57286 0
M  V30 2377 O 409.768 7.79239 4.12957 0
M  V30 2378 O 409.228 5.63315 5.29344 0
M  V30 2379 C 408.288 4.80255 6.01876 0
M  V30 2380 C 409.018 3.64202 6.65911 0
M  V30 2381 O 409.228 2.60694 5.64732 0
M  V30 2382 C 410.418 3.93473 7.1943 0
M  V30 2383 O 410.808 3.02071 8.21205 0
M  V30 2384 C 411.298 3.73047 5.97036 0
M  V30 2385 C 410.588 2.58828 5.25741 0
M  V30 2386 N 410.638 2.68068 3.77503 0
M  V30 2387 C 410.558 3.79715 2.96723 0
M  V30 2388 N 410.638 3.5377 1.68852 0
M  V30 2389 C 410.778 2.15054 1.63254 0
M  V30 2390 C 410.908 1.28964 0.518571 0
M  V30 2391 O 410.928 1.56826 -0.679156 0
M  V30 2392 N 411.028 -0.0538097 0.918425 0
M  V30 2393 C 411.028 -0.494275 2.22578 0
M  V30 2394 N 411.158 -1.81086 2.40434 0
M  V30 2395 N 410.898 0.313645 3.27502 0
M  V30 2396 C 410.778 1.61829 2.91033 0
M  V30 2397 H 407.799 5.40332 6.79951 0
M  V30 2398 H 407.529 4.41613 5.32378 0
M  V30 2399 H 408.396 3.26331 7.47797 0
M  V30 2400 H 411.051 1.63422 5.56814 0
M  V30 2401 H 411.33 4.63374 5.34244 0
M  V30 2402 H 412.322 3.44728 6.25838 0
M  V30 2403 H 410.488 4.96652 7.57263 0
M  V30 2404 H 410.439 4.80617 3.3614 0
M  V30 2405 H 411.121 -0.742702 0.199384 0
M  V30 2406 H 411.158 -2.20598 3.35588 0
M  V30 2407 H 411.259 -2.43518 1.58945 0
M  V30 2408 P 412.358 2.75334 8.47391 0
M  V30 2409 O 412.578 2.44571 9.90142 0
M  V30 2410 O 413.148 3.87688 7.92115 0
M  V30 2411 O 412.608 1.4459 7.59357 0
M  V30 2412 C 411.668 0.347608 7.69215 0
M  V30 2413 C 412.398 -0.96767 7.52806 0
M  V30 2414 O 412.608 -1.21036 6.1011 0
M  V30 2415 C 413.798 -1.04544 8.13308 0
M  V30 2416 O 414.188 -2.38311 8.41922 0
M  V30 2417 C 414.678 -0.491279 7.02284 0
M  V30 2418 C 413.968 -0.996264 5.77469 0
M  V30 2419 N 414.018 -0.0501916 4.62973 0
M  V30 2420 H 411.179 0.374722 8.67691 0
M  V30 2421 H 410.909 0.443485 6.90277 0
M  V30 2422 H 411.776 -1.75537 7.96793 0
M  V30 2423 P 415.738 -2.75334 8.47391 0
M  V30 2424 O 415.958 -3.84128 9.44797 0
M  V30 2425 O 416.528 -1.51947 8.68712 0
M  V30 2426 O 415.988 -3.29363 6.99321 0
M  V30 2427 C 415.048 -4.24011 6.4274 0
M  V30 2428 C 415.778 -5.20775 5.52155 0
M  V30 2429 O 415.988 -4.56534 4.22446 0
M  V30 2430 C 417.178 -5.62629 5.96531 0
M  V30 2431 O 417.568 -6.87667 5.41053 0
M  V30 2432 C 418.058 -4.52537 5.39283 0
M  V30 2433 C 417.348 -4.20027 4.08623 0
M  V30 2434 N 417.398 -2.76189 3.71603 0
M  V30 2435 H 414.559 -4.797 7.24003 0
M  V30 2436 H 414.289 -3.69856 5.84513 0
M  V30 2437 H 415.156 -6.10356 5.41441 0
M  V30 2438 P 419.118 -7.20834 5.23717 0
M  V30 2439 O 419.338 -8.66104 5.38572 0
M  V30 2440 O 419.908 -6.33544 6.1349 0
M  V30 2441 O 419.368 -6.7751 3.72168 0
M  V30 2442 C 418.428 -7.20825 2.7076 0
M  V30 2443 C 419.158 -7.45864 1.40599 0
M  V30 2444 O 419.368 -6.17651 0.734225 0
M  V30 2445 C 420.558 -8.05808 1.51899 0
M  V30 2446 O 420.948 -8.74358 0.335205 0
M  V30 2447 C 421.438 -6.83093 1.70294 0
M  V30 2448 C 420.728 -5.79992 0.836974 0
M  V30 2449 N 420.778 -4.41864 1.38293 0
M  V30 2450 H 417.939 -8.13644 3.0377 0
M  V30 2451 H 417.669 -6.42788 2.55485 0
M  V30 2452 H 418.536 -8.12039 0.792769 0
M  V30 2453 P 422.497 -8.91 -2.28351e-12 0
M  V30 2454 O 422.717 -10.1726 -0.733694 0
M  V30 2455 O 423.287 -8.73148 1.23936 0
M  V30 2456 O 422.747 -7.66872 -0.971405 0
M  V30 2457 C 421.807 -7.42309 -2.04641 0
M  V30 2458 C 422.537 -6.86059 -3.24661 0
M  V30 2459 O 422.747 -5.42847 -3.03646 0
M  V30 2460 C 423.937 -7.41196 -3.50753 0
M  V30 2461 O 424.327 -7.27073 -4.86816 0
M  V30 2462 C 424.817 -6.5273 -2.63741 0
M  V30 2463 C 424.107 -5.1842 -2.73198 0
M  V30 2464 N 424.157 -4.38762 -1.4784 0
M  V30 2465 H 421.318 -8.36803 -2.32493 0
M  V30 2466 H 421.048 -6.70197 -1.71129 0
M  V30 2467 H 421.915 -7.03551 -4.13168 0
M  V30 2468 P 425.877 -7.20834 -5.23717 0
M  V30 2469 O 426.097 -7.79853 -6.57286 0
M  V30 2470 O 426.667 -7.79239 -4.12957 0
M  V30 2471 O 426.127 -5.63315 -5.29344 0
M  V30 2472 C 425.187 -4.80255 -6.01876 0
M  V30 2473 C 425.917 -3.64202 -6.65911 0
M  V30 2474 O 426.127 -2.60694 -5.64732 0
M  V30 2475 C 427.317 -3.93473 -7.1943 0
M  V30 2476 O 427.707 -3.02071 -8.21205 0
M  V30 2477 C 428.197 -3.73047 -5.97036 0
M  V30 2478 C 427.487 -2.58828 -5.25741 0
M  V30 2479 N 427.537 -2.68068 -3.77503 0
M  V30 2480 H 424.698 -5.40332 -6.79951 0
M  V30 2481 H 424.428 -4.41613 -5.32378 0
M  V30 2482 H 425.295 -3.26331 -7.47797 0
M  V30 2483 P 429.257 -2.75334 -8.47391 0
M  V30 2484 O 429.477 -2.44571 -9.90142 0
M  V30 2485 O 430.047 -3.87688 -7.92115 0
M  V30 2486 O 429.507 -1.4459 -7.59357 0
M  V30 2487 C 428.567 -0.347608 -7.69215 0
M  V30 2488 C 429.297 0.96767 -7.52806 0
M  V30 2489 O 429.507 1.21036 -6.1011 0
M  V30 2490 C 430.697 1.04544 -8.13308 0
M  V30 2491 O 431.087 2.38311 -8.41922 0
M  V30 2492 C 431.577 0.491279 -7.02284 0
M  V30 2493 C 430.867 0.996264 -5.77469 0
M  V30 2494 N 430.917 0.0501916 -4.62973 0
M  V30 2495 H 428.078 -0.374722 -8.67691 0
M  V30 2496 H 427.808 -0.443485 -6.90277 0
M  V30 2497 H 428.675 1.75537 -7.96793 0
M  V30 2498 P 432.637 2.75334 -8.47391 0
M  V30 2499 O 432.857 3.84204 -9.44982 0
M  V30 2500 O 433.427 1.51982 -8.68909 0
M  V30 2501 O 432.887 3.29363 -6.99321 0
M  V30 2502 C 431.947 4.24066 -6.42823 0
M  V30 2503 C 432.677 5.20775 -5.52155 0
M  V30 2504 O 432.887 4.56607 -4.22514 0
M  V30 2505 C 434.077 5.62697 -5.96604 0
M  V30 2506 O 434.467 6.87667 -5.41053 0
M  V30 2507 C 434.957 4.52537 -5.39283 0
M  V30 2508 C 434.247 4.20027 -4.08623 0
M  V30 2509 N 434.297 2.76189 -3.71603 0
M  V30 2510 C 434.217 1.66944 -4.54297 0
M  V30 2511 N 434.287 0.536169 -3.91344 0
M  V30 2512 C 434.437 0.901569 -2.58849 0
M  V30 2513 C 434.567 0.146599 -1.40236 0
M  V30 2514 N 434.577 -1.18234 -1.37046 0
M  V30 2515 N 434.687 0.822941 -0.249738 0
M  V30 2516 C 434.677 2.15179 -0.280525 0
M  V30 2517 N 434.557 2.96414 -1.30822 0
M  V30 2518 C 434.437 2.25804 -2.44748 0
M  V30 2519 H 431.459 4.79756 -7.24086 0
M  V30 2520 H 431.187 3.69963 -5.84682 0
M  V30 2521 H 432.055 6.10431 -5.41508 0
M  V30 2522 H 434.71 4.78816 -3.28024 0
M  V30 2523 H 434.99 3.64957 -6.05871 0
M  V30 2524 H 435.981 4.88748 -5.21323 0
M  V30 2525 H 434.147 5.66789 -7.0643 0
M  V30 2526 H 434.106 1.74684 -5.62396 0
M  V30 2527 H 434.487 -1.71949 -2.24394 0
M  V30 2528 H 434.676 -1.67511 -0.470742 0
M  V30 2529 H 434.784 2.63704 0.6828 0
M  V30 2530 P 436.017 7.20834 -5.23717 0
M  V30 2531 O 436.237 8.66104 -5.38572 0
M  V30 2532 O 436.807 6.33544 -6.1349 0
M  V30 2533 O 436.267 6.7751 -3.72168 0
M  V30 2534 C 435.327 7.20825 -2.7076 0
M  V30 2535 C 436.057 7.45864 -1.40599 0
M  V30 2536 O 436.267 6.17651 -0.734225 0
M  V30 2537 C 437.457 8.05808 -1.51899 0
M  V30 2538 O 437.847 8.74358 -0.335205 0
M  V30 2539 C 438.337 6.83093 -1.70294 0
M  V30 2540 C 437.627 5.79992 -0.836974 0
M  V30 2541 N 437.677 4.41864 -1.38293 0
M  V30 2542 H 434.838 8.13644 -3.0377 0
M  V30 2543 H 434.568 6.42788 -2.55485 0
M  V30 2544 H 435.435 8.12039 -0.792769 0
M  V30 2545 P 439.397 8.91 2.44069e-12 0
M  V30 2546 O 439.617 10.1746 0.733838 0
M  V30 2547 O 440.187 8.73346 -1.23964 0
M  V30 2548 O 439.647 7.66872 0.971405 0
M  V30 2549 C 438.707 7.42405 2.04668 0
M  V30 2550 C 439.437 6.86059 3.24661 0
M  V30 2551 O 439.647 5.42934 3.03695 0
M  V30 2552 C 440.837 7.41287 3.50796 0
M  V30 2553 O 441.227 7.27073 4.86816 0
M  V30 2554 C 441.717 6.5273 2.63741 0
M  V30 2555 C 441.007 5.1842 2.73198 0
M  V30 2556 N 441.057 4.38762 1.4784 0
M  V30 2557 H 438.219 8.36899 2.3252 0
M  V30 2558 H 437.947 6.70391 1.71179 0
M  V30 2559 H 438.815 7.03638 4.13219 0
M  V30 2560 H 441.47 4.59931 3.54016 0
M  V30 2561 H 441.75 6.88995 1.59871 0
M  V30 2562 H 442.741 6.4684 3.0373 0
M  V30 2563 H 440.907 8.47002 3.20749 0
M  V30 2564 P 442.777 7.20834 5.23717 0
M  V30 2565 O 442.997 7.79853 6.57286 0
M  V30 2566 O 443.567 7.79239 4.12957 0
M  V30 2567 O 443.027 5.63315 5.29344 0
M  V30 2568 C 442.087 4.80255 6.01876 0
M  V30 2569 C 442.817 3.64202 6.65911 0
M  V30 2570 O 443.027 2.60694 5.64732 0
M  V30 2571 C 444.217 3.93473 7.1943 0
M  V30 2572 O 444.607 3.02071 8.21205 0
M  V30 2573 C 445.097 3.73047 5.97036 0
M  V30 2574 C 444.387 2.58828 5.25741 0
M  V30 2575 N 444.437 2.68068 3.77503 0
M  V30 2576 H 441.598 5.40332 6.79951 0
M  V30 2577 H 441.328 4.41613 5.32378 0
M  V30 2578 H 442.195 3.26331 7.47797 0
M  V30 2579 P 446.157 2.75334 8.47391 0
M  V30 2580 O 446.377 2.44571 9.90142 0
M  V30 2581 O 446.947 3.87688 7.92115 0
M  V30 2582 O 446.407 1.4459 7.59357 0
M  V30 2583 C 445.467 0.347608 7.69215 0
M  V30 2584 C 446.197 -0.96767 7.52806 0
M  V30 2585 O 446.407 -1.21036 6.1011 0
M  V30 2586 C 447.597 -1.04544 8.13308 0
M  V30 2587 O 447.987 -2.38311 8.41922 0
M  V30 2588 C 448.477 -0.491279 7.02284 0
M  V30 2589 C 447.767 -0.996264 5.77469 0
M  V30 2590 N 447.817 -0.0501916 4.62973 0
M  V30 2591 H 444.978 0.374722 8.67691 0
M  V30 2592 H 444.708 0.443485 6.90277 0
M  V30 2593 H 445.575 -1.75537 7.96793 0
M  V30 2594 P 449.537 -2.75334 8.47391 0
M  V30 2595 O 449.757 -3.84128 9.44797 0
M  V30 2596 O 450.327 -1.51947 8.68712 0
M  V30 2597 O 449.787 -3.29363 6.99321 0
M  V30 2598 C 448.847 -4.24011 6.4274 0
M  V30 2599 C 449.577 -5.20775 5.52155 0
M  V30 2600 O 449.787 -4.56534 4.22446 0
M  V30 2601 C 450.977 -5.62629 5.96531 0
M  V30 2602 O 451.367 -6.87667 5.41053 0
M  V30 2603 C 451.857 -4.52537 5.39283 0
M  V30 2604 C 451.147 -4.20027 4.08623 0
M  V30 2605 N 451.197 -2.76189 3.71603 0
M  V30 2606 H 448.358 -4.797 7.24003 0
M  V30 2607 H 448.088 -3.69856 5.84513 0
M  V30 2608 H 448.955 -6.10356 5.41441 0
M  V30 2609 P 452.917 -7.20834 5.23717 0
M  V30 2610 O 453.137 -8.66274 5.38678 0
M  V30 2611 O 453.707 -6.33687 6.13629 0
M  V30 2612 O 453.167 -6.7751 3.72168 0
M  V30 2613 C 452.227 -7.20919 2.70795 0
M  V30 2614 C 452.957 -7.45864 1.40599 0
M  V30 2615 O 453.167 -6.17751 0.734343 0
M  V30 2616 C 454.357 -8.05906 1.51917 0
M  V30 2617 O 454.747 -8.74358 0.335205 0
M  V30 2618 C 455.237 -6.83093 1.70294 0
M  V30 2619 C 454.527 -5.79992 0.836974 0
M  V30 2620 N 454.577 -4.41864 1.38293 0
M  V30 2621 C 454.497 -4.02089 2.69407 0
M  V30 2622 N 454.567 -2.73403 2.85089 0
M  V30 2623 C 454.717 -2.25086 1.5642 0
M  V30 2624 C 454.847 -0.942887 1.04836 0
M  V30 2625 N 454.857 0.150999 1.80369 0
M  V30 2626 N 454.967 -0.812565 -0.28167 0
M  V30 2627 C 454.957 -1.90572 -1.03784 0
M  V30 2628 N 454.837 -3.167 -0.683905 0
M  V30 2629 C 454.717 -3.26538 0.652815 0
M  V30 2630 H 451.739 -8.13738 3.03804 0
M  V30 2631 H 451.467 -6.42974 2.55559 0
M  V30 2632 H 452.335 -8.12139 0.792866 0
M  V30 2633 H 454.99 -5.80178 -0.160643 0
M  V30 2634 H 455.27 -6.51379 2.75643 0
M  V30 2635 H 456.261 -7.01832 1.3448 0
M  V30 2636 H 454.427 -8.73771 2.38364 0
M  V30 2637 H 454.386 -4.7189 3.52311 0
M  V30 2638 H 454.767 0.0721434 2.82608 0
M  V30 2639 H 454.956 1.0785 1.36544 0
M  V30 2640 H 455.064 -1.73207 -2.10241 0
M  V30 2641 P 456.297 -8.91 -2.59788e-12 0
M  V30 2642 O 456.517 -10.1726 -0.733694 0
M  V30 2643 O 457.087 -8.73148 1.23936 0
M  V30 2644 O 456.547 -7.66872 -0.971405 0
M  V30 2645 C 455.607 -7.42309 -2.04641 0
M  V30 2646 C 456.337 -6.86059 -3.24661 0
M  V30 2647 O 456.547 -5.42847 -3.03646 0
M  V30 2648 C 457.737 -7.41196 -3.50753 0
M  V30 2649 O 458.127 -7.27073 -4.86816 0
M  V30 2650 C 458.617 -6.5273 -2.63741 0
M  V30 2651 C 457.907 -5.1842 -2.73198 0
M  V30 2652 N 457.957 -4.38762 -1.4784 0
M  V30 2653 H 455.118 -8.36803 -2.32493 0
M  V30 2654 H 454.848 -6.70197 -1.71129 0
M  V30 2655 H 455.715 -7.03551 -4.13168 0
M  V30 2656 P 459.677 -7.20834 -5.23717 0
M  V30 2657 O 459.897 -7.7993 -6.57351 0
M  V30 2658 O 460.467 -7.79328 -4.13004 0
M  V30 2659 O 459.927 -5.63315 -5.29344 0
M  V30 2660 C 458.987 -4.80193 -6.01798 0
M  V30 2661 C 459.717 -3.64202 -6.65911 0
M  V30 2662 O 459.927 -2.60694 -5.64732 0
M  V30 2663 C 461.117 -3.93473 -7.1943 0
M  V30 2664 O 461.507 -3.02071 -8.21205 0
M  V30 2665 C 461.997 -3.73047 -5.97036 0
M  V30 2666 C 461.287 -2.58828 -5.25741 0
M  V30 2667 N 461.337 -2.6801 -3.77422 0
M  V30 2668 C 461.487 -1.50443 -3.07133 0
M  V30 2669 O 461.577 -0.419406 -3.61576 0
M  V30 2670 N 461.527 -1.6403 -1.69677 0
M  V30 2671 C 461.437 -2.81206 -0.986255 0
M  V30 2672 O 461.487 -2.80892 0.249754 0
M  V30 2673 C 461.287 -3.99158 -1.80325 0
M  V30 2674 C 461.177 -5.29309 -1.06921 0
M  V30 2675 C 461.237 -3.89779 -3.1476 0
M  V30 2676 H 458.497 -5.40332 -6.79951 0
M  V30 2677 H 458.228 -4.41549 -5.32301 0
M  V30 2678 H 459.095 -3.26331 -7.47797 0
M  V30 2679 H 461.75 -1.6395 -5.56554 0
M  V30 2680 H 462.029 -4.63439 -5.3432 0
M  V30 2681 H 463.021 -3.44728 -6.25838 0
M  V30 2682 H 461.187 -4.96652 -7.57263 0
M  V30 2683 H 461.116 -4.80159 -3.74441 0
M  V30 2684 H 462.146 -5.81459 -1.09608 0
M  V30 2685 H 460.409 -5.9187 -1.54487 0
M  V30 2686 H 460.897 -5.10095 -0.0220288 0
M  V30 2687 H 461.633 -0.798962 -1.16664 0
M  V30 2688 P 463.057 -2.75334 -8.47391 0
M  V30 2689 O 463.277 -2.44619 -9.90336 0
M  V30 2690 O 463.847 -3.87776 -7.92294 0
M  V30 2691 O 463.307 -1.4459 -7.59357 0
M  V30 2692 C 462.367 -0.347653 -7.69315 0
M  V30 2693 C 463.097 0.96767 -7.52806 0
M  V30 2694 O 463.307 1.21055 -6.10208 0
M  V30 2695 C 464.497 1.04557 -8.13408 0
M  V30 2696 O 464.887 2.38311 -8.41922 0
M  V30 2697 C 465.377 0.491279 -7.02284 0
M  V30 2698 C 464.667 0.996264 -5.77469 0
M  V30 2699 N 464.717 0.0501916 -4.62973 0
M  V30 2700 H 461.879 -0.374765 -8.67791 0
M  V30 2701 H 461.607 -0.443613 -6.90476 0
M  V30 2702 H 462.475 1.75559 -7.96891 0
M  V30 2703 H 465.13 1.94563 -5.46818 0
M  V30 2704 H 465.41 -0.608651 -7.04676 0
M  V30 2705 H 466.401 0.889796 -7.09039 0
M  V30 2706 H 464.567 0.433128 -9.04664 0
M  V30 2707 P 466.437 2.75334 -8.47391 0
M  V30 2708 O 466.657 3.84166 -9.4489 0
M  V30 2709 O 467.227 1.51964 -8.6881 0
M  V30 2710 O 466.687 3.29363 -6.99321 0
M  V30 2711 C 465.747 4.23956 -6.42656 0
M  V30 2712 C 466.477 5.20775 -5.52155 0
M  V30 2713 O 466.687 4.56534 -4.22446 0
M  V30 2714 C 467.877 5.62629 -5.96531 0
M  V30 2715 O 468.267 6.87667 -5.41053 0
M  V30 2716 C 468.757 4.52537 -5.39283 0
M  V30 2717 C 468.047 4.20027 -4.08623 0
M  V30 2718 N 468.097 2.7613 -3.71522 0
M  V30 2719 C 468.247 2.45612 -2.37989 0
M  V30 2720 O 468.337 3.30919 -1.51621 0
M  V30 2721 N 468.287 1.10684 -2.08435 0
M  V30 2722 C 468.197 0.0690084 -2.9792 0
M  V30 2723 C 468.047 0.481522 -4.35345 0
M  V30 2724 C 467.997 1.78906 -4.67968 0
M  V30 2725 H 465.257 4.797 -7.24003 0
M  V30 2726 H 464.988 3.69802 -5.84429 0
M  V30 2727 H 465.855 6.10356 -5.41441 0
M  V30 2728 H 468.51 4.78651 -3.27911 0
M  V30 2729 H 468.789 3.64957 -6.05871 0
M  V30 2730 H 469.781 4.8868 -5.2125 0
M  V30 2731 H 467.947 5.66726 -7.06352 0
M  V30 2732 H 467.876 2.07737 -5.72367 0
M  V30 2733 P 469.817 7.20834 -5.23717 0
M  V30 2734 O 470.037 8.66104 -5.38572 0
M  V30 2735 O 470.607 6.33544 -6.1349 0
M  V30 2736 O 470.067 6.7751 -3.72168 0
M  V30 2737 C 469.127 7.20825 -2.7076 0
M  V30 2738 C 469.857 7.45864 -1.40599 0
M  V30 2739 O 470.067 6.17651 -0.734225 0
M  V30 2740 C 471.257 8.05808 -1.51899 0
M  V30 2741 O 471.647 8.74358 -0.335205 0
M  V30 2742 C 472.137 6.83093 -1.70294 0
M  V30 2743 C 471.427 5.79992 -0.836974 0
M  V30 2744 N 471.477 4.41864 -1.38293 0
M  V30 2745 H 468.638 8.13644 -3.0377 0
M  V30 2746 H 468.368 6.42788 -2.55485 0
M  V30 2747 H 469.235 8.12039 -0.792769 0
M  V30 2748 P 473.197 8.91 2.75506e-12 0
M  V30 2749 O 473.417 10.1726 0.733694 0
M  V30 2750 O 473.987 8.73148 -1.23936 0
M  V30 2751 O 473.447 7.66872 0.971405 0
M  V30 2752 C 472.507 7.42309 2.04641 0
M  V30 2753 C 473.237 6.86059 3.24661 0
M  V30 2754 O 473.447 5.42847 3.03646 0
M  V30 2755 C 474.637 7.41196 3.50753 0
M  V30 2756 O 475.027 7.27073 4.86816 0
M  V30 2757 C 475.517 6.5273 2.63741 0
M  V30 2758 C 474.807 5.1842 2.73198 0
M  V30 2759 N 474.857 4.38762 1.4784 0
M  V30 2760 H 472.018 8.36803 2.32493 0
M  V30 2761 H 471.748 6.70197 1.71129 0
M  V30 2762 H 472.615 7.03551 4.13168 0
M  V30 2763 P 476.577 7.20834 5.23717 0
M  V30 2764 O 476.797 7.79853 6.57286 0
M  V30 2765 O 477.367 7.79239 4.12957 0
M  V30 2766 O 476.827 5.63315 5.29344 0
M  V30 2767 C 475.887 4.80255 6.01876 0
M  V30 2768 C 476.617 3.64202 6.65911 0
M  V30 2769 O 476.827 2.60694 5.64732 0
M  V30 2770 C 478.017 3.93473 7.1943 0
M  V30 2771 O 478.407 3.02071 8.21205 0
M  V30 2772 C 478.897 3.73047 5.97036 0
M  V30 2773 C 478.187 2.58828 5.25741 0
M  V30 2774 N 478.237 2.68068 3.77503 0
M  V30 2775 H 475.398 5.40332 6.79951 0
M  V30 2776 H 475.128 4.41613 5.32378 0
M  V30 2777 H 475.995 3.26331 7.47797 0
M  V30 2778 P 479.957 2.75334 8.47391 0
M  V30 2779 O 480.177 2.44571 9.90142 0
M  V30 2780 O 480.747 3.87688 7.92115 0
M  V30 2781 O 480.207 1.4459 7.59357 0
M  V30 2782 C 479.267 0.347608 7.69215 0
M  V30 2783 C 479.997 -0.96767 7.52806 0
M  V30 2784 O 480.207 -1.21036 6.1011 0
M  V30 2785 C 481.397 -1.04544 8.13308 0
M  V30 2786 O 481.787 -2.38311 8.41922 0
M  V30 2787 C 482.277 -0.491279 7.02284 0
M  V30 2788 C 481.567 -0.996264 5.77469 0
M  V30 2789 N 481.617 -0.0501916 4.62973 0
M  V30 2790 H 478.778 0.374722 8.67691 0
M  V30 2791 H 478.508 0.443485 6.90277 0
M  V30 2792 H 479.375 -1.75537 7.96793 0
M  V30 2793 P 483.337 -2.75334 8.47391 0
M  V30 2794 O 483.557 -3.84128 9.44797 0
M  V30 2795 O 484.127 -1.51947 8.68712 0
M  V30 2796 O 483.587 -3.29363 6.99321 0
M  V30 2797 C 482.647 -4.24011 6.4274 0
M  V30 2798 C 483.377 -5.20775 5.52155 0
M  V30 2799 O 483.587 -4.56534 4.22446 0
M  V30 2800 C 484.777 -5.62629 5.96531 0
M  V30 2801 O 485.167 -6.87667 5.41053 0
M  V30 2802 C 485.657 -4.52537 5.39283 0
M  V30 2803 C 484.947 -4.20027 4.08623 0
M  V30 2804 N 484.997 -2.76189 3.71603 0
M  V30 2805 H 482.158 -4.797 7.24003 0
M  V30 2806 H 481.888 -3.69856 5.84513 0
M  V30 2807 H 482.755 -6.10356 5.41441 0
M  V30 2808 P 486.717 -7.20834 5.23717 0
M  V30 2809 O 486.937 -8.66104 5.38572 0
M  V30 2810 O 487.507 -6.33544 6.1349 0
M  V30 2811 O 486.967 -6.7751 3.72168 0
M  V30 2812 C 486.027 -7.20825 2.7076 0
M  V30 2813 C 486.757 -7.45864 1.40599 0
M  V30 2814 O 486.967 -6.17651 0.734225 0
M  V30 2815 C 488.157 -8.05808 1.51899 0
M  V30 2816 O 488.547 -8.74358 0.335205 0
M  V30 2817 C 489.037 -6.83093 1.70294 0
M  V30 2818 C 488.327 -5.79992 0.836974 0
M  V30 2819 N 488.377 -4.41864 1.38293 0
M  V30 2820 C 488.297 -3.99538 2.69438 0
M  V30 2821 N 488.377 -2.69909 2.84277 0
M  V30 2822 C 488.517 -2.21719 1.5408 0
M  V30 2823 C 488.647 -0.891712 1.06628 0
M  V30 2824 N 488.767 -0.856846 -0.334985 0
M  V30 2825 C 488.767 -1.9641 -1.15789 0
M  V30 2826 N 488.897 -1.72708 -2.46522 0
M  V30 2827 N 488.637 -3.21165 -0.713741 0
M  V30 2828 C 488.517 -3.26797 0.639748 0
M  V30 2829 H 485.538 -8.13644 3.0377 0
M  V30 2830 H 485.268 -6.42788 2.55485 0
M  V30 2831 H 486.135 -8.12039 0.792769 0
M  V30 2832 P 490.097 -8.91 -2.91224e-12 0
M  V30 2833 O 490.317 -10.1726 -0.733694 0
M  V30 2834 O 490.887 -8.73148 1.23936 0
M  V30 2835 O 490.347 -7.66872 -0.971405 0
M  V30 2836 C 489.407 -7.42309 -2.04641 0
M  V30 2837 C 490.137 -6.86059 -3.24661 0
M  V30 2838 O 490.347 -5.42847 -3.03646 0
M  V30 2839 C 491.537 -7.41196 -3.50753 0
M  V30 2840 O 491.927 -7.27073 -4.86816 0
M  V30 2841 C 492.417 -6.5273 -2.63741 0
M  V30 2842 C 491.707 -5.1842 -2.73198 0
M  V30 2843 N 491.757 -4.38762 -1.4784 0
M  V30 2844 H 488.918 -8.36803 -2.32493 0
M  V30 2845 H 488.648 -6.70197 -1.71129 0
M  V30 2846 H 489.515 -7.03551 -4.13168 0
M  V30 2847 P 493.477 -7.20834 -5.23717 0
M  V30 2848 O 493.697 -7.7993 -6.57351 0
M  V30 2849 O 494.267 -7.79328 -4.13004 0
M  V30 2850 O 493.727 -5.63315 -5.29344 0
M  V30 2851 C 492.787 -4.80193 -6.01798 0
M  V30 2852 C 493.517 -3.64202 -6.65911 0
M  V30 2853 O 493.727 -2.60694 -5.64732 0
M  V30 2854 C 494.917 -3.93473 -7.1943 0
M  V30 2855 O 495.307 -3.02071 -8.21205 0
M  V30 2856 C 495.797 -3.73047 -5.97036 0
M  V30 2857 C 495.087 -2.58828 -5.25741 0
M  V30 2858 N 495.137 -2.6801 -3.77422 0
M  V30 2859 C 495.287 -1.50443 -3.07133 0
M  V30 2860 O 495.377 -0.419406 -3.61576 0
M  V30 2861 N 495.327 -1.6403 -1.69677 0
M  V30 2862 C 495.237 -2.81206 -0.986255 0
M  V30 2863 C 495.087 -3.99158 -1.80325 0
M  V30 2864 C 495.037 -3.89779 -3.1476 0
M  V30 2865 H 492.297 -5.40332 -6.79951 0
M  V30 2866 H 492.028 -4.41549 -5.32301 0
M  V30 2867 H 492.895 -3.26331 -7.47797 0
M  V30 2868 H 495.55 -1.6395 -5.56554 0
M  V30 2869 H 495.829 -4.63439 -5.3432 0
M  V30 2870 H 496.821 -3.44728 -6.25838 0
M  V30 2871 H 494.987 -4.96652 -7.57263 0
M  V30 2872 H 494.916 -4.80159 -3.74441 0
M  V30 2873 P 496.857 -2.75334 -8.47391 0
M  V30 2874 O 497.077 -2.44571 -9.90142 0
M  V30 2875 O 497.647 -3.87688 -7.92115 0
M  V30 2876 O 497.107 -1.4459 -7.59357 0
M  V30 2877 C 496.167 -0.347608 -7.69215 0
M  V30 2878 C 496.897 0.96767 -7.52806 0
M  V30 2879 O 497.107 1.21036 -6.1011 0
M  V30 2880 C 498.297 1.04544 -8.13308 0
M  V30 2881 O 498.687 2.38311 -8.41922 0
M  V30 2882 C 499.177 0.491279 -7.02284 0
M  V30 2883 C 498.467 0.996264 -5.77469 0
M  V30 2884 N 498.517 0.0501916 -4.62973 0
M  V30 2885 H 495.678 -0.374722 -8.67691 0
M  V30 2886 H 495.408 -0.443485 -6.90277 0
M  V30 2887 H 496.275 1.75537 -7.96793 0
M  V30 2888 P 500.237 2.75334 -8.47391 0
M  V30 2889 O 500.457 3.84128 -9.44797 0
M  V30 2890 O 501.027 1.51947 -8.68712 0
M  V30 2891 O 500.487 3.29363 -6.99321 0
M  V30 2892 C 499.547 4.24011 -6.4274 0
M  V30 2893 C 500.277 5.20775 -5.52155 0
M  V30 2894 O 500.487 4.56534 -4.22446 0
M  V30 2895 C 501.677 5.62629 -5.96531 0
M  V30 2896 O 502.067 6.87667 -5.41053 0
M  V30 2897 C 502.557 4.52537 -5.39283 0
M  V30 2898 C 501.847 4.20027 -4.08623 0
M  V30 2899 N 501.897 2.76189 -3.71603 0
M  V30 2900 H 499.058 4.797 -7.24003 0
M  V30 2901 H 498.788 3.69856 -5.84513 0
M  V30 2902 H 499.655 6.10356 -5.41441 0
M  V30 2903 P 503.617 7.20834 -5.23717 0
M  V30 2904 O 503.837 8.66104 -5.38572 0
M  V30 2905 O 504.407 6.33544 -6.1349 0
M  V30 2906 O 503.867 6.7751 -3.72168 0
M  V30 2907 C 502.927 7.20825 -2.7076 0
M  V30 2908 C 503.657 7.45864 -1.40599 0
M  V30 2909 O 503.867 6.17651 -0.734225 0
M  V30 2910 C 505.057 8.05808 -1.51899 0
M  V30 2911 O 505.447 8.74358 -0.335205 0
M  V30 2912 C 505.937 6.83093 -1.70294 0
M  V30 2913 C 505.227 5.79992 -0.836974 0
M  V30 2914 N 505.277 4.41864 -1.38293 0
M  V30 2915 H 502.438 8.13644 -3.0377 0
M  V30 2916 H 502.168 6.42788 -2.55485 0
M  V30 2917 H 503.035 8.12039 -0.792769 0
M  V30 2918 P 506.997 8.91 3.06942e-12 0
M  V30 2919 O 507.217 10.1726 0.733694 0
M  V30 2920 O 507.787 8.73148 -1.23936 0
M  V30 2921 O 507.247 7.66872 0.971405 0
M  V30 2922 C 506.307 7.42309 2.04641 0
M  V30 2923 C 507.037 6.86059 3.24661 0
M  V30 2924 O 507.247 5.42847 3.03646 0
M  V30 2925 C 508.437 7.41196 3.50753 0
M  V30 2926 O 508.827 7.27073 4.86816 0
M  V30 2927 C 509.317 6.5273 2.63741 0
M  V30 2928 C 508.607 5.1842 2.73198 0
M  V30 2929 N 508.657 4.38762 1.4784 0
M  V30 2930 H 505.818 8.36803 2.32493 0
M  V30 2931 H 505.548 6.70197 1.71129 0
M  V30 2932 H 506.415 7.03551 4.13168 0
M  V30 2933 P 510.377 7.20834 5.23717 0
M  V30 2934 O 510.597 7.79853 6.57286 0
M  V30 2935 O 511.167 7.79239 4.12957 0
M  V30 2936 O 510.627 5.63315 5.29344 0
M  V30 2937 C 509.687 4.80255 6.01876 0
M  V30 2938 C 510.417 3.64202 6.65911 0
M  V30 2939 O 510.627 2.60694 5.64732 0
M  V30 2940 C 511.817 3.93473 7.1943 0
M  V30 2941 O 512.207 3.02071 8.21205 0
M  V30 2942 C 512.697 3.73047 5.97036 0
M  V30 2943 C 511.987 2.58828 5.25741 0
M  V30 2944 N 512.037 2.68068 3.77503 0
M  V30 2945 H 509.198 5.40332 6.79951 0
M  V30 2946 H 508.928 4.41613 5.32378 0
M  V30 2947 H 509.795 3.26331 7.47797 0
M  V30 2948 P 513.757 2.75334 8.47391 0
M  V30 2949 O 513.977 2.44571 9.90142 0
M  V30 2950 O 514.547 3.87688 7.92115 0
M  V30 2951 O 514.007 1.4459 7.59357 0
M  V30 2952 C 513.067 0.347608 7.69215 0
M  V30 2953 C 513.797 -0.96767 7.52806 0
M  V30 2954 O 514.007 -1.21036 6.1011 0
M  V30 2955 C 515.197 -1.04544 8.13308 0
M  V30 2956 O 515.587 -2.38311 8.41922 0
M  V30 2957 C 516.077 -0.491279 7.02284 0
M  V30 2958 C 515.367 -0.996264 5.77469 0
M  V30 2959 N 515.417 -0.0501916 4.62973 0
M  V30 2960 H 512.578 0.374722 8.67691 0
M  V30 2961 H 512.308 0.443485 6.90277 0
M  V30 2962 H 513.175 -1.75537 7.96793 0
M  V30 2963 P 517.137 -2.75334 8.47391 0
M  V30 2964 O 517.357 -3.84128 9.44797 0
M  V30 2965 O 517.927 -1.51947 8.68712 0
M  V30 2966 O 517.387 -3.29363 6.99321 0
M  V30 2967 C 516.447 -4.24011 6.4274 0
M  V30 2968 C 517.177 -5.20775 5.52155 0
M  V30 2969 O 517.387 -4.56534 4.22446 0
M  V30 2970 C 518.577 -5.62629 5.96531 0
M  V30 2971 O 518.967 -6.87667 5.41053 0
M  V30 2972 C 519.457 -4.52537 5.39283 0
M  V30 2973 C 518.747 -4.20027 4.08623 0
M  V30 2974 N 518.797 -2.76189 3.71603 0
M  V30 2975 H 515.958 -4.797 7.24003 0
M  V30 2976 H 515.688 -3.69856 5.84513 0
M  V30 2977 H 516.555 -6.10356 5.41441 0
M  V30 2978 P 520.517 -7.20834 5.23717 0
M  V30 2979 O 520.737 -8.66104 5.38572 0
M  V30 2980 O 521.307 -6.33544 6.1349 0
M  V30 2981 O 520.767 -6.7751 3.72168 0
M  V30 2982 C 519.827 -7.20825 2.7076 0
M  V30 2983 C 520.557 -7.45864 1.40599 0
M  V30 2984 O 520.767 -6.17651 0.734225 0
M  V30 2985 C 521.957 -8.05808 1.51899 0
M  V30 2986 O 522.347 -8.74358 0.335205 0
M  V30 2987 C 522.837 -6.83093 1.70294 0
M  V30 2988 C 522.127 -5.79992 0.836974 0
M  V30 2989 N 522.177 -4.41864 1.38293 0
M  V30 2990 H 519.338 -8.13644 3.0377 0
M  V30 2991 H 519.068 -6.42788 2.55485 0
M  V30 2992 H 519.935 -8.12039 0.792769 0
M  V30 2993 P 523.897 -8.91 -3.22661e-12 0
M  V30 2994 O 524.117 -10.1736 -0.733766 0
M  V30 2995 O 524.687 -8.73247 1.2395 0
M  V30 2996 O 524.147 -7.66872 -0.971405 0
M  V30 2997 C 523.207 -7.42212 -2.04614 0
M  V30 2998 C 523.937 -6.86059 -3.24661 0
M  V30 2999 O 524.147 -5.42847 -3.03646 0
M  V30 3000 C 525.337 -7.41196 -3.50753 0
M  V30 3001 O 525.727 -7.27073 -4.86816 0
M  V30 3002 C 526.217 -6.5273 -2.63741 0
M  V30 3003 C 525.507 -5.1842 -2.73198 0
M  V30 3004 N 525.557 -4.38668 -1.47808 0
M  V30 3005 C 525.707 -3.02239 -1.60048 0
M  V30 3006 O 525.797 -2.46459 -2.67869 0
M  V30 3007 N 525.747 -2.32436 -0.408571 0
M  V30 3008 C 525.657 -2.85471 0.854993 0
M  V30 3009 C 525.507 -4.28918 0.887335 0
M  V30 3010 C 525.457 -5.00349 -0.255399 0
M  V30 3011 H 522.717 -8.36803 -2.32493 0
M  V30 3012 H 522.448 -6.701 -1.71105 0
M  V30 3013 H 523.315 -7.03551 -4.13168 0
M  V30 3014 H 525.97 -4.59773 -3.53894 0
M  V30 3015 H 526.249 -6.88995 -1.59871 0
M  V30 3016 H 527.241 -6.46749 -3.03687 0
M  V30 3017 H 525.407 -8.46908 -3.20714 0
M  V30 3018 H 525.336 -6.08548 -0.206986 0
M  V30 3019 P 527.277 -7.20834 -5.23717 0
M  V30 3020 O 527.497 -7.79853 -6.57286 0
M  V30 3021 O 528.067 -7.79239 -4.12957 0
M  V30 3022 O 527.527 -5.63315 -5.29344 0
M  V30 3023 C 526.587 -4.80255 -6.01876 0
M  V30 3024 C 527.317 -3.64202 -6.65911 0
M  V30 3025 O 527.527 -2.60694 -5.64732 0
M  V30 3026 C 528.717 -3.93473 -7.1943 0
M  V30 3027 O 529.107 -3.02071 -8.21205 0
M  V30 3028 C 529.597 -3.73047 -5.97036 0
M  V30 3029 C 528.887 -2.58828 -5.25741 0
M  V30 3030 N 528.937 -2.68068 -3.77503 0
M  V30 3031 C 528.857 -3.79715 -2.96723 0
M  V30 3032 N 528.937 -3.5377 -1.68852 0
M  V30 3033 C 529.077 -2.15054 -1.63254 0
M  V30 3034 C 529.207 -1.28964 -0.518571 0
M  V30 3035 O 529.227 -1.56826 0.679156 0
M  V30 3036 N 529.327 0.0538097 -0.918425 0
M  V30 3037 C 529.327 0.494275 -2.22578 0
M  V30 3038 N 529.457 1.81086 -2.40434 0
M  V30 3039 N 529.197 -0.313645 -3.27502 0
M  V30 3040 C 529.077 -1.61829 -2.91033 0
M  V30 3041 H 526.098 -5.40332 -6.79951 0
M  V30 3042 H 525.828 -4.41613 -5.32378 0
M  V30 3043 H 526.695 -3.26331 -7.47797 0
M  V30 3044 H 529.35 -1.63422 -5.56814 0
M  V30 3045 H 529.629 -4.63374 -5.34244 0
M  V30 3046 H 530.621 -3.44728 -6.25838 0
M  V30 3047 H 528.787 -4.96652 -7.57263 0
M  V30 3048 H 528.738 -4.80617 -3.3614 0
M  V30 3049 H 529.42 0.742702 -0.199384 0
M  V30 3050 H 529.457 2.20598 -3.35588 0
M  V30 3051 H 529.558 2.43518 -1.58945 0
M  V30 3052 P 530.657 -2.75334 -8.47391 0
M  V30 3053 O 530.877 -2.44571 -9.90142 0
M  V30 3054 O 531.447 -3.87688 -7.92115 0
M  V30 3055 O 530.907 -1.4459 -7.59357 0
M  V30 3056 C 529.967 -0.347608 -7.69215 0
M  V30 3057 C 530.697 0.96767 -7.52806 0
M  V30 3058 O 530.907 1.21036 -6.1011 0
M  V30 3059 C 532.097 1.04544 -8.13308 0
M  V30 3060 O 532.487 2.38311 -8.41922 0
M  V30 3061 C 532.977 0.491279 -7.02284 0
M  V30 3062 C 532.267 0.996264 -5.77469 0
M  V30 3063 N 532.317 0.0501916 -4.62973 0
M  V30 3064 H 529.478 -0.374722 -8.67691 0
M  V30 3065 H 529.208 -0.443485 -6.90277 0
M  V30 3066 H 530.075 1.75537 -7.96793 0
M  V30 3067 P 534.037 2.75334 -8.47391 0
M  V30 3068 O 534.257 3.84128 -9.44797 0
M  V30 3069 O 534.827 1.51947 -8.68712 0
M  V30 3070 O 534.287 3.29363 -6.99321 0
M  V30 3071 C 533.347 4.24011 -6.4274 0
M  V30 3072 C 534.077 5.20775 -5.52155 0
M  V30 3073 O 534.287 4.56534 -4.22446 0
M  V30 3074 C 535.477 5.62629 -5.96531 0
M  V30 3075 O 535.867 6.87667 -5.41053 0
M  V30 3076 C 536.357 4.52537 -5.39283 0
M  V30 3077 C 535.647 4.20027 -4.08623 0
M  V30 3078 N 535.697 2.76189 -3.71603 0
M  V30 3079 H 532.858 4.797 -7.24003 0
M  V30 3080 H 532.588 3.69856 -5.84513 0
M  V30 3081 H 533.455 6.10356 -5.41441 0
M  V30 3082 P 537.417 7.20834 -5.23717 0
M  V30 3083 O 537.637 8.66104 -5.38572 0
M  V30 3084 O 538.207 6.33544 -6.1349 0
M  V30 3085 O 537.667 6.7751 -3.72168 0
M  V30 3086 C 536.727 7.20825 -2.7076 0
M  V30 3087 C 537.457 7.45864 -1.40599 0
M  V30 3088 O 537.667 6.17651 -0.734225 0
M  V30 3089 C 538.857 8.05808 -1.51899 0
M  V30 3090 O 539.247 8.74358 -0.335205 0
M  V30 3091 C 539.737 6.83093 -1.70294 0
M  V30 3092 C 539.027 5.79992 -0.836974 0
M  V30 3093 N 539.077 4.41864 -1.38293 0
M  V30 3094 H 536.238 8.13644 -3.0377 0
M  V30 3095 H 535.968 6.42788 -2.55485 0
M  V30 3096 H 536.835 8.12039 -0.792769 0
M  V30 3097 P 540.797 8.91 3.38379e-12 0
M  V30 3098 O 541.017 10.1726 0.733694 0
M  V30 3099 O 541.587 8.73148 -1.23936 0
M  V30 3100 O 541.047 7.66872 0.971405 0
M  V30 3101 C 540.107 7.42309 2.04641 0
M  V30 3102 C 540.837 6.86059 3.24661 0
M  V30 3103 O 541.047 5.42847 3.03646 0
M  V30 3104 C 542.237 7.41196 3.50753 0
M  V30 3105 O 542.627 7.27073 4.86816 0
M  V30 3106 C 543.117 6.5273 2.63741 0
M  V30 3107 C 542.407 5.1842 2.73198 0
M  V30 3108 N 542.457 4.38762 1.4784 0
M  V30 3109 H 539.618 8.36803 2.32493 0
M  V30 3110 H 539.348 6.70197 1.71129 0
M  V30 3111 H 540.215 7.03551 4.13168 0
M  V30 3112 P 544.177 7.20834 5.23717 0
M  V30 3113 O 544.397 7.80006 6.57415 0
M  V30 3114 O 544.967 7.79416 4.13051 0
M  V30 3115 O 544.427 5.63315 5.29344 0
M  V30 3116 C 543.487 4.80318 6.01954 0
M  V30 3117 C 544.217 3.64202 6.65911 0
M  V30 3118 O 544.427 2.60736 5.64823 0
M  V30 3119 C 545.617 3.93521 7.19518 0
M  V30 3120 O 546.007 3.02071 8.21205 0
M  V30 3121 C 546.497 3.73047 5.97036 0
M  V30 3122 C 545.787 2.58828 5.25741 0
M  V30 3123 N 545.837 2.68068 3.77503 0
M  V30 3124 H 542.999 5.40394 6.8003 0
M  V30 3125 H 542.727 4.41741 5.32532 0
M  V30 3126 H 543.595 3.26371 7.47889 0
M  V30 3127 H 546.25 1.64007 5.56746 0
M  V30 3128 H 546.53 4.63439 5.3432 0
M  V30 3129 H 547.521 3.44776 6.25925 0
M  V30 3130 H 545.687 4.96707 7.57347 0
M  V30 3131 P 547.557 2.75334 8.47391 0
M  V30 3132 O 547.777 2.44571 9.90142 0
M  V30 3133 O 548.347 3.87688 7.92115 0
M  V30 3134 O 547.807 1.4459 7.59357 0
M  V30 3135 C 546.867 0.347608 7.69215 0
M  V30 3136 C 547.597 -0.96767 7.52806 0
M  V30 3137 O 547.807 -1.21036 6.1011 0
M  V30 3138 C 548.997 -1.04544 8.13308 0
M  V30 3139 O 549.387 -2.38311 8.41922 0
M  V30 3140 C 549.877 -0.491279 7.02284 0
M  V30 3141 C 549.167 -0.996264 5.77469 0
M  V30 3142 N 549.217 -0.0501916 4.62973 0
M  V30 3143 H 546.378 0.374722 8.67691 0
M  V30 3144 H 546.108 0.443485 6.90277 0
M  V30 3145 H 546.975 -1.75537 7.96793 0
M  V30 3146 P 550.937 -2.75334 8.47391 0
M  V30 3147 O 551.157 -3.84128 9.44797 0
M  V30 3148 O 551.727 -1.51947 8.68712 0
M  V30 3149 O 551.187 -3.29363 6.99321 0
M  V30 3150 C 550.247 -4.24011 6.4274 0
M  V30 3151 C 550.977 -5.20775 5.52155 0
M  V30 3152 O 551.187 -4.56534 4.22446 0
M  V30 3153 C 552.377 -5.62629 5.96531 0
M  V30 3154 O 552.767 -6.87667 5.41053 0
M  V30 3155 C 553.257 -4.52537 5.39283 0
M  V30 3156 C 552.547 -4.20027 4.08623 0
M  V30 3157 N 552.597 -2.76189 3.71603 0
M  V30 3158 H 549.758 -4.797 7.24003 0
M  V30 3159 H 549.488 -3.69856 5.84513 0
M  V30 3160 H 550.355 -6.10356 5.41441 0
M  V30 3161 P 554.317 -7.20834 5.23717 0
M  V30 3162 O 554.537 -8.66104 5.38572 0
M  V30 3163 O 555.107 -6.33544 6.1349 0
M  V30 3164 O 554.567 -6.7751 3.72168 0
M  V30 3165 C 553.627 -7.20825 2.7076 0
M  V30 3166 C 554.357 -7.45864 1.40599 0
M  V30 3167 O 554.567 -6.17651 0.734225 0
M  V30 3168 C 555.757 -8.05808 1.51899 0
M  V30 3169 O 556.147 -8.74358 0.335205 0
M  V30 3170 C 556.637 -6.83093 1.70294 0
M  V30 3171 C 555.927 -5.79992 0.836974 0
M  V30 3172 N 555.977 -4.41864 1.38293 0
M  V30 3173 H 553.138 -8.13644 3.0377 0
M  V30 3174 H 552.868 -6.42788 2.55485 0
M  V30 3175 H 553.735 -8.12039 0.792769 0
M  V30 3176 P 557.697 -8.91 -3.54097e-12 0
M  V30 3177 O 557.917 -10.1726 -0.733694 0
M  V30 3178 O 558.487 -8.73148 1.23936 0
M  V30 3179 O 557.947 -7.66872 -0.971405 0
M  V30 3180 C 557.007 -7.42309 -2.04641 0
M  V30 3181 C 557.737 -6.86059 -3.24661 0
M  V30 3182 O 557.947 -5.42847 -3.03646 0
M  V30 3183 C 559.137 -7.41196 -3.50753 0
M  V30 3184 O 559.527 -7.27073 -4.86816 0
M  V30 3185 C 560.017 -6.5273 -2.63741 0
M  V30 3186 C 559.307 -5.1842 -2.73198 0
M  V30 3187 N 559.357 -4.38762 -1.4784 0
M  V30 3188 H 556.518 -8.36803 -2.32493 0
M  V30 3189 H 556.248 -6.70197 -1.71129 0
M  V30 3190 H 557.115 -7.03551 -4.13168 0
M  V30 3191 P 561.077 -7.20834 -5.23717 0
M  V30 3192 O 561.297 -7.80006 -6.57415 0
M  V30 3193 O 561.867 -7.79416 -4.13051 0
M  V30 3194 O 561.327 -5.63315 -5.29344 0
M  V30 3195 C 560.387 -4.80318 -6.01954 0
M  V30 3196 C 561.117 -3.64202 -6.65911 0
M  V30 3197 O 561.327 -2.60736 -5.64823 0
M  V30 3198 C 562.517 -3.93521 -7.19518 0
M  V30 3199 O 562.907 -3.02071 -8.21205 0
M  V30 3200 C 563.397 -3.73047 -5.97036 0
M  V30 3201 C 562.687 -2.58828 -5.25741 0
M  V30 3202 N 562.737 -2.68068 -3.77503 0
M  V30 3203 C 562.657 -3.80474 -2.99159 0
M  V30 3204 N 562.727 -3.55622 -1.71925 0
M  V30 3205 C 562.877 -2.1832 -1.65733 0
M  V30 3206 C 563.007 -1.28842 -0.572777 0
M  V30 3207 N 563.017 -1.66875 0.70098 0
M  V30 3208 N 563.127 0.016788 -0.859836 0
M  V30 3209 C 563.117 0.398145 -2.13316 0
M  V30 3210 N 562.997 -0.328224 -3.22333 0
M  V30 3211 C 562.877 -1.62992 -2.90383 0
M  V30 3212 H 559.899 -5.40394 -6.8003 0
M  V30 3213 H 559.627 -4.41741 -5.32532 0
M  V30 3214 H 560.495 -3.26371 -7.47889 0
M  V30 3215 H 563.15 -1.64007 -5.56746 0
M  V30 3216 H 563.43 -4.63439 -5.3432 0
M  V30 3217 H 564.421 -3.44776 -6.25925 0
M  V30 3218 H 562.587 -4.96707 -7.57347 0
M  V30 3219 H 562.546 -4.8089 -3.39924 0
M  V30 3220 H 562.927 -2.66547 0.941919 0
M  V30 3221 H 563.116 -0.965341 1.44766 0
M  V30 3222 H 563.224 1.46427 -2.29697 0
M  V30 3223 P 564.457 -2.75334 -8.47391 0
M  V30 3224 O 564.677 -2.44619 -9.90336 0
M  V30 3225 O 565.247 -3.87776 -7.92294 0
M  V30 3226 O 564.707 -1.4459 -7.59357 0
M  V30 3227 C 563.767 -0.347653 -7.69315 0
M  V30 3228 C 564.497 0.96767 -7.52806 0
M  V30 3229 O 564.707 1.21055 -6.10208 0
M  V30 3230 C 565.897 1.04557 -8.13408 0
M  V30 3231 O 566.287 2.38311 -8.41922 0
M  V30 3232 C 566.777 0.491279 -7.02284 0
M  V30 3233 C 566.067 0.996264 -5.77469 0
M  V30 3234 N 566.117 0.0501916 -4.62973 0
M  V30 3235 C 566.037 -1.31969 -4.65661 0
M  V30 3236 N 566.107 -1.86649 -3.48119 0
M  V30 3237 C 566.257 -0.792089 -2.62406 0
M  V30 3238 C 566.387 -0.705684 -1.2207 0
M  V30 3239 N 566.397 -1.76207 -0.413762 0
M  V30 3240 N 566.507 0.518981 -0.685754 0
M  V30 3241 C 566.497 1.57595 -1.49174 0
M  V30 3242 N 566.377 1.62909 -2.80066 0
M  V30 3243 C 566.257 0.388195 -3.3073 0
M  V30 3244 H 563.279 -0.374765 -8.67791 0
M  V30 3245 H 563.007 -0.443613 -6.90476 0
M  V30 3246 H 563.875 1.75559 -7.96891 0
M  V30 3247 H 566.53 1.94563 -5.46818 0
M  V30 3248 H 566.81 -0.608651 -7.04676 0
M  V30 3249 H 567.801 0.889796 -7.09039 0
M  V30 3250 H 565.967 0.433128 -9.04664 0
M  V30 3251 H 565.926 -1.89246 -5.57664 0
M  V30 3252 H 566.307 -2.71005 -0.804694 0
M  V30 3253 H 566.496 -1.63189 0.603768 0
M  V30 3254 H 566.604 2.53475 -0.997614 0
M  V30 3255 P 567.837 2.75334 -8.47391 0
M  V30 3256 O 568.057 3.84128 -9.44797 0
M  V30 3257 O 568.627 1.51947 -8.68712 0
M  V30 3258 O 568.087 3.29363 -6.99321 0
M  V30 3259 C 567.147 4.24011 -6.4274 0
M  V30 3260 C 567.877 5.20775 -5.52155 0
M  V30 3261 O 568.087 4.56534 -4.22446 0
M  V30 3262 C 569.277 5.62629 -5.96531 0
M  V30 3263 O 569.667 6.87667 -5.41053 0
M  V30 3264 C 570.157 4.52537 -5.39283 0
M  V30 3265 C 569.447 4.20027 -4.08623 0
M  V30 3266 N 569.497 2.76189 -3.71603 0
M  V30 3267 H 566.658 4.797 -7.24003 0
M  V30 3268 H 566.388 3.69856 -5.84513 0
M  V30 3269 H 567.255 6.10356 -5.41441 0
M  V30 3270 P 571.217 7.20834 -5.23717 0
M  V30 3271 O 571.437 8.66104 -5.38572 0
M  V30 3272 O 572.007 6.33544 -6.1349 0
M  V30 3273 O 571.467 6.7751 -3.72168 0
M  V30 3274 C 570.527 7.20825 -2.7076 0
M  V30 3275 C 571.257 7.45864 -1.40599 0
M  V30 3276 O 571.467 6.17651 -0.734225 0
M  V30 3277 C 572.657 8.05808 -1.51899 0
M  V30 3278 O 573.047 8.74358 -0.335205 0
M  V30 3279 C 573.537 6.83093 -1.70294 0
M  V30 3280 C 572.827 5.79992 -0.836974 0
M  V30 3281 N 572.877 4.41864 -1.38293 0
M  V30 3282 H 570.038 8.13644 -3.0377 0
M  V30 3283 H 569.768 6.42788 -2.55485 0
M  V30 3284 H 570.635 8.12039 -0.792769 0
M  V30 3285 P 574.597 8.91 3.69815e-12 0
M  V30 3286 O 574.817 10.1726 0.733694 0
M  V30 3287 O 575.387 8.73148 -1.23936 0
M  V30 3288 O 574.847 7.66872 0.971405 0
M  V30 3289 C 573.907 7.42309 2.04641 0
M  V30 3290 C 574.637 6.86059 3.24661 0
M  V30 3291 O 574.847 5.42847 3.03646 0
M  V30 3292 C 576.037 7.41196 3.50753 0
M  V30 3293 O 576.427 7.27073 4.86816 0
M  V30 3294 C 576.917 6.5273 2.63741 0
M  V30 3295 C 576.207 5.1842 2.73198 0
M  V30 3296 N 576.257 4.38762 1.4784 0
M  V30 3297 H 573.418 8.36803 2.32493 0
M  V30 3298 H 573.148 6.70197 1.71129 0
M  V30 3299 H 574.015 7.03551 4.13168 0
M  V30 3300 P 577.977 7.20834 5.23717 0
M  V30 3301 O 578.197 7.79853 6.57286 0
M  V30 3302 O 578.767 7.79239 4.12957 0
M  V30 3303 O 578.227 5.63315 5.29344 0
M  V30 3304 C 577.287 4.80255 6.01876 0
M  V30 3305 C 578.017 3.64202 6.65911 0
M  V30 3306 O 578.227 2.60694 5.64732 0
M  V30 3307 C 579.417 3.93473 7.1943 0
M  V30 3308 O 579.807 3.02071 8.21205 0
M  V30 3309 C 580.297 3.73047 5.97036 0
M  V30 3310 C 579.587 2.58828 5.25741 0
M  V30 3311 N 579.637 2.68068 3.77503 0
M  V30 3312 H 576.798 5.40332 6.79951 0
M  V30 3313 H 576.528 4.41613 5.32378 0
M  V30 3314 H 577.395 3.26331 7.47797 0
M  V30 3315 P 581.357 2.75334 8.47391 0
M  V30 3316 O 581.577 2.44571 9.90142 0
M  V30 3317 O 582.147 3.87688 7.92115 0
M  V30 3318 O 581.607 1.4459 7.59357 0
M  V30 3319 C 580.667 0.347608 7.69215 0
M  V30 3320 C 581.397 -0.96767 7.52806 0
M  V30 3321 O 581.607 -1.21036 6.1011 0
M  V30 3322 C 582.797 -1.04544 8.13308 0
M  V30 3323 O 583.187 -2.38311 8.41922 0
M  V30 3324 C 583.677 -0.491279 7.02284 0
M  V30 3325 C 582.967 -0.996264 5.77469 0
M  V30 3326 N 583.017 -0.0501916 4.62973 0
M  V30 3327 H 580.178 0.374722 8.67691 0
M  V30 3328 H 579.908 0.443485 6.90277 0
M  V30 3329 H 580.775 -1.75537 7.96793 0
M  V30 3330 P 584.737 -2.75334 8.47391 0
M  V30 3331 O 584.957 -3.84128 9.44797 0
M  V30 3332 O 585.527 -1.51947 8.68712 0
M  V30 3333 O 584.987 -3.29363 6.99321 0
M  V30 3334 C 584.047 -4.24011 6.4274 0
M  V30 3335 C 584.777 -5.20775 5.52155 0
M  V30 3336 O 584.987 -4.56534 4.22446 0
M  V30 3337 C 586.177 -5.62629 5.96531 0
M  V30 3338 O 586.567 -6.87667 5.41053 0
M  V30 3339 C 587.057 -4.52537 5.39283 0
M  V30 3340 C 586.347 -4.20027 4.08623 0
M  V30 3341 N 586.397 -2.76189 3.71603 0
M  V30 3342 C 586.317 -1.64862 4.52822 0
M  V30 3343 N 586.397 -0.512671 3.88633 0
M  V30 3344 C 586.537 -0.888083 2.54977 0
M  V30 3345 C 586.667 -0.094668 1.38677 0
M  V30 3346 O 586.687 1.13053 1.28163 0
M  V30 3347 N 586.787 -0.890102 0.232633 0
M  V30 3348 C 586.787 -2.26958 0.21772 0
M  V30 3349 N 586.917 -2.84626 -0.97925 0
M  V30 3350 N 586.657 -3.0178 1.31033 0
M  V30 3351 C 586.537 -2.26781 2.43843 0
M  V30 3352 H 583.558 -4.797 7.24003 0
M  V30 3353 H 583.288 -3.69856 5.84513 0
M  V30 3354 H 584.155 -6.10356 5.41441 0
M  V30 3355 H 586.81 -4.79061 3.27488 0
M  V30 3356 H 587.089 -3.64906 6.05785 0
M  V30 3357 H 588.081 -4.8868 5.2125 0
M  V30 3358 H 586.247 -5.66726 7.06352 0
M  V30 3359 H 586.198 -1.71169 5.60966 0
M  V30 3360 H 586.88 -0.419134 -0.644739 0
M  V30 3361 H 586.917 -3.87332 -1.06098 0
M  V30 3362 H 587.018 -2.26417 -1.82483 0
M  V30 3363 P 588.117 -7.20834 5.23717 0
M  V30 3364 O 588.337 -8.66104 5.38572 0
M  V30 3365 O 588.907 -6.33544 6.1349 0
M  V30 3366 O 588.367 -6.7751 3.72168 0
M  V30 3367 C 587.427 -7.20825 2.7076 0
M  V30 3368 C 588.157 -7.45864 1.40599 0
M  V30 3369 O 588.367 -6.17651 0.734225 0
M  V30 3370 C 589.557 -8.05808 1.51899 0
M  V30 3371 O 589.947 -8.74358 0.335205 0
M  V30 3372 C 590.437 -6.83093 1.70294 0
M  V30 3373 C 589.727 -5.79992 0.836974 0
M  V30 3374 N 589.777 -4.41864 1.38293 0
M  V30 3375 C 589.697 -3.99538 2.69438 0
M  V30 3376 N 589.777 -2.69909 2.84277 0
M  V30 3377 C 589.917 -2.21719 1.5408 0
M  V30 3378 C 590.047 -0.891712 1.06628 0
M  V30 3379 O 590.067 0.161298 1.70137 0
M  V30 3380 N 590.167 -0.856846 -0.334985 0
M  V30 3381 C 590.167 -1.9641 -1.15789 0
M  V30 3382 N 590.297 -1.72708 -2.46522 0
M  V30 3383 N 590.037 -3.21165 -0.713741 0
M  V30 3384 C 589.917 -3.26797 0.639748 0
M  V30 3385 H 586.938 -8.13644 3.0377 0
M  V30 3386 H 586.668 -6.42788 2.55485 0
M  V30 3387 H 587.535 -8.12039 0.792769 0
M  V30 3388 H 590.19 -5.80061 -0.166416 0
M  V30 3389 H 590.469 -6.51287 2.75604 0
M  V30 3390 H 591.461 -7.01734 1.34462 0
M  V30 3391 H 589.627 -8.73674 2.38337 0
M  V30 3392 H 589.578 -4.68207 3.53221 0
M  V30 3393 H 590.26 0.0398818 -0.767965 0
M  V30 3394 H 590.297 -2.50995 -3.13503 0
M  V30 3395 H 590.398 -0.759148 -2.80716 0
M  V30 3396 P 591.496 -8.91 -3.85533e-12 0
M  V30 3397 O 591.716 -10.1726 -0.733694 0
M  V30 3398 O 592.286 -8.73148 1.23936 0
M  V30 3399 O 591.746 -7.66872 -0.971405 0
M  V30 3400 C 590.806 -7.42309 -2.04641 0
M  V30 3401 C 591.536 -6.86059 -3.24661 0
M  V30 3402 O 591.746 -5.42847 -3.03646 0
M  V30 3403 C 592.937 -7.41196 -3.50753 0
M  V30 3404 O 593.327 -7.27073 -4.86816 0
M  V30 3405 C 593.817 -6.5273 -2.63741 0
M  V30 3406 C 593.106 -5.1842 -2.73198 0
M  V30 3407 N 593.156 -4.38762 -1.4784 0
M  V30 3408 H 590.317 -8.36803 -2.32493 0
M  V30 3409 H 590.048 -6.70197 -1.71129 0
M  V30 3410 H 590.914 -7.03551 -4.13168 0
M  V30 3411 P 594.876 -7.20834 -5.23717 0
M  V30 3412 O 595.096 -7.79853 -6.57286 0
M  V30 3413 O 595.666 -7.79239 -4.12957 0
M  V30 3414 O 595.126 -5.63315 -5.29344 0
M  V30 3415 C 594.186 -4.80255 -6.01876 0
M  V30 3416 C 594.916 -3.64202 -6.65911 0
M  V30 3417 O 595.126 -2.60694 -5.64732 0
M  V30 3418 C 596.316 -3.93473 -7.1943 0
M  V30 3419 O 596.706 -3.02071 -8.21205 0
M  V30 3420 C 597.196 -3.73047 -5.97036 0
M  V30 3421 C 596.486 -2.58828 -5.25741 0
M  V30 3422 N 596.536 -2.68068 -3.77503 0
M  V30 3423 H 593.697 -5.40332 -6.79951 0
M  V30 3424 H 593.427 -4.41613 -5.32378 0
M  V30 3425 H 594.294 -3.26331 -7.47797 0
M  V30 3426 P 598.256 -2.75334 -8.47391 0
M  V30 3427 O 598.476 -2.44571 -9.90142 0
M  V30 3428 O 599.046 -3.87688 -7.92115 0
M  V30 3429 O 598.506 -1.4459 -7.59357 0
M  V30 3430 C 597.566 -0.347608 -7.69215 0
M  V30 3431 C 598.296 0.96767 -7.52806 0
M  V30 3432 O 598.506 1.21036 -6.1011 0
M  V30 3433 C 599.696 1.04544 -8.13308 0
M  V30 3434 O 600.086 2.38311 -8.41922 0
M  V30 3435 C 600.576 0.491279 -7.02284 0
M  V30 3436 C 599.866 0.996264 -5.77469 0
M  V30 3437 N 599.916 0.0501916 -4.62973 0
M  V30 3438 H 597.077 -0.374722 -8.67691 0
M  V30 3439 H 596.807 -0.443485 -6.90277 0
M  V30 3440 H 597.674 1.75537 -7.96793 0
M  V30 3441 P 601.636 2.75334 -8.47391 0
M  V30 3442 O 601.856 3.84128 -9.44797 0
M  V30 3443 O 602.426 1.51947 -8.68712 0
M  V30 3444 O 601.886 3.29363 -6.99321 0
M  V30 3445 C 600.946 4.24011 -6.4274 0
M  V30 3446 C 601.676 5.20775 -5.52155 0
M  V30 3447 O 601.886 4.56534 -4.22446 0
M  V30 3448 C 603.076 5.62629 -5.96531 0
M  V30 3449 O 603.466 6.87667 -5.41053 0
M  V30 3450 C 603.956 4.52537 -5.39283 0
M  V30 3451 C 603.246 4.20027 -4.08623 0
M  V30 3452 N 603.296 2.76189 -3.71603 0
M  V30 3453 H 600.457 4.797 -7.24003 0
M  V30 3454 H 600.187 3.69856 -5.84513 0
M  V30 3455 H 601.054 6.10356 -5.41441 0
M  V30 3456 P 605.016 7.20834 -5.23717 0
M  V30 3457 O 605.236 8.66104 -5.38572 0
M  V30 3458 O 605.806 6.33544 -6.1349 0
M  V30 3459 O 605.266 6.7751 -3.72168 0
M  V30 3460 C 604.326 7.20825 -2.7076 0
M  V30 3461 C 605.056 7.45864 -1.40599 0
M  V30 3462 O 605.266 6.17651 -0.734225 0
M  V30 3463 C 606.456 8.05808 -1.51899 0
M  V30 3464 O 606.846 8.74358 -0.335205 0
M  V30 3465 C 607.336 6.83093 -1.70294 0
M  V30 3466 C 606.626 5.79992 -0.836974 0
M  V30 3467 N 606.676 4.41864 -1.38293 0
M  V30 3468 H 603.837 8.13644 -3.0377 0
M  V30 3469 H 603.567 6.42788 -2.55485 0
M  V30 3470 H 604.434 8.12039 -0.792769 0
M  V30 3471 P 608.396 8.91 4.01252e-12 0
M  V30 3472 O 608.616 10.1726 0.733694 0
M  V30 3473 O 609.186 8.73148 -1.23936 0
M  V30 3474 O 608.646 7.66872 0.971405 0
M  V30 3475 C 607.706 7.42309 2.04641 0
M  V30 3476 C 608.436 6.86059 3.24661 0
M  V30 3477 O 608.646 5.42847 3.03646 0
M  V30 3478 C 609.836 7.41196 3.50753 0
M  V30 3479 O 610.226 7.27073 4.86816 0
M  V30 3480 C 610.716 6.5273 2.63741 0
M  V30 3481 C 610.006 5.1842 2.73198 0
M  V30 3482 N 610.056 4.38762 1.4784 0
M  V30 3483 H 607.217 8.36803 2.32493 0
M  V30 3484 H 606.947 6.70197 1.71129 0
M  V30 3485 H 607.814 7.03551 4.13168 0
M  V30 3486 P 611.776 7.20834 5.23717 0
M  V30 3487 O 611.996 7.79853 6.57286 0
M  V30 3488 O 612.566 7.79239 4.12957 0
M  V30 3489 O 612.026 5.63315 5.29344 0
M  V30 3490 C 611.086 4.80255 6.01876 0
M  V30 3491 C 611.816 3.64202 6.65911 0
M  V30 3492 O 612.026 2.60694 5.64732 0
M  V30 3493 C 613.216 3.93473 7.1943 0
M  V30 3494 O 613.606 3.02071 8.21205 0
M  V30 3495 C 614.096 3.73047 5.97036 0
M  V30 3496 C 613.386 2.58828 5.25741 0
M  V30 3497 N 613.436 2.68068 3.77503 0
M  V30 3498 H 610.597 5.40332 6.79951 0
M  V30 3499 H 610.327 4.41613 5.32378 0
M  V30 3500 H 611.194 3.26331 7.47797 0
M  V30 3501 P 615.156 2.75334 8.47391 0
M  V30 3502 O 615.376 2.44571 9.90142 0
M  V30 3503 O 615.946 3.87688 7.92115 0
M  V30 3504 O 615.406 1.4459 7.59357 0
M  V30 3505 C 614.466 0.347608 7.69215 0
M  V30 3506 C 615.196 -0.96767 7.52806 0
M  V30 3507 O 615.406 -1.21036 6.1011 0
M  V30 3508 C 616.596 -1.04544 8.13308 0
M  V30 3509 O 616.986 -2.38311 8.41922 0
M  V30 3510 C 617.476 -0.491279 7.02284 0
M  V30 3511 C 616.766 -0.996264 5.77469 0
M  V30 3512 N 616.816 -0.0501916 4.62973 0
M  V30 3513 H 613.977 0.374722 8.67691 0
M  V30 3514 H 613.707 0.443485 6.90277 0
M  V30 3515 H 614.574 -1.75537 7.96793 0
M  V30 3516 P 618.536 -2.75334 8.47391 0
M  V30 3517 O 618.756 -3.84128 9.44797 0
M  V30 3518 O 619.326 -1.51947 8.68712 0
M  V30 3519 O 618.786 -3.29363 6.99321 0
M  V30 3520 C 617.846 -4.24011 6.4274 0
M  V30 3521 C 618.576 -5.20775 5.52155 0
M  V30 3522 O 618.786 -4.56534 4.22446 0
M  V30 3523 C 619.976 -5.62629 5.96531 0
M  V30 3524 O 620.366 -6.87667 5.41053 0
M  V30 3525 C 620.856 -4.52537 5.39283 0
M  V30 3526 C 620.146 -4.20027 4.08623 0
M  V30 3527 N 620.196 -2.76189 3.71603 0
M  V30 3528 H 617.357 -4.797 7.24003 0
M  V30 3529 H 617.087 -3.69856 5.84513 0
M  V30 3530 H 617.954 -6.10356 5.41441 0
M  V30 3531 P 621.916 -7.20834 5.23717 0
M  V30 3532 O 622.136 -8.66104 5.38572 0
M  V30 3533 O 622.706 -6.33544 6.1349 0
M  V30 3534 O 622.166 -6.7751 3.72168 0
M  V30 3535 C 621.226 -7.20825 2.7076 0
M  V30 3536 C 621.956 -7.45864 1.40599 0
M  V30 3537 O 622.166 -6.17651 0.734225 0
M  V30 3538 C 623.356 -8.05808 1.51899 0
M  V30 3539 O 623.746 -8.74358 0.335205 0
M  V30 3540 C 624.236 -6.83093 1.70294 0
M  V30 3541 C 623.526 -5.79992 0.836974 0
M  V30 3542 N 623.576 -4.41864 1.38293 0
M  V30 3543 H 620.737 -8.13644 3.0377 0
M  V30 3544 H 620.467 -6.42788 2.55485 0
M  V30 3545 H 621.334 -8.12039 0.792769 0
M  V30 3546 P 625.296 -8.91 -4.1697e-12 0
M  V30 3547 O 625.516 -10.1726 -0.733694 0
M  V30 3548 O 626.086 -8.73148 1.23936 0
M  V30 3549 O 625.546 -7.66872 -0.971405 0
M  V30 3550 C 624.606 -7.42309 -2.04641 0
M  V30 3551 C 625.336 -6.86059 -3.24661 0
M  V30 3552 O 625.546 -5.42847 -3.03646 0
M  V30 3553 C 626.736 -7.41196 -3.50753 0
M  V30 3554 O 627.126 -7.27073 -4.86816 0
M  V30 3555 C 627.616 -6.5273 -2.63741 0
M  V30 3556 C 626.906 -5.1842 -2.73198 0
M  V30 3557 N 626.956 -4.38762 -1.4784 0
M  V30 3558 H 624.117 -8.36803 -2.32493 0
M  V30 3559 H 623.847 -6.70197 -1.71129 0
M  V30 3560 H 624.714 -7.03551 -4.13168 0
M  V30 3561 P 628.676 -7.20834 -5.23717 0
M  V30 3562 O 628.896 -7.79853 -6.57286 0
M  V30 3563 O 629.466 -7.79239 -4.12957 0
M  V30 3564 O 628.926 -5.63315 -5.29344 0
M  V30 3565 C 627.986 -4.80255 -6.01876 0
M  V30 3566 C 628.716 -3.64202 -6.65911 0
M  V30 3567 O 628.926 -2.60694 -5.64732 0
M  V30 3568 C 630.116 -3.93473 -7.1943 0
M  V30 3569 O 630.506 -3.02071 -8.21205 0
M  V30 3570 C 630.996 -3.73047 -5.97036 0
M  V30 3571 C 630.286 -2.58828 -5.25741 0
M  V30 3572 N 630.336 -2.68068 -3.77503 0
M  V30 3573 H 627.497 -5.40332 -6.79951 0
M  V30 3574 H 627.227 -4.41613 -5.32378 0
M  V30 3575 H 628.094 -3.26331 -7.47797 0
M  V30 3576 P 632.056 -2.75334 -8.47391 0
M  V30 3577 O 632.276 -2.44595 -9.90239 0
M  V30 3578 O 632.846 -3.87732 -7.92204 0
M  V30 3579 O 632.306 -1.4459 -7.59357 0
M  V30 3580 C 631.366 -0.347563 -7.69115 0
M  V30 3581 C 632.096 0.96767 -7.52806 0
M  V30 3582 O 632.306 1.21036 -6.1011 0
M  V30 3583 C 633.496 1.04544 -8.13308 0
M  V30 3584 O 633.886 2.38311 -8.41922 0
M  V30 3585 C 634.376 0.491279 -7.02284 0
M  V30 3586 C 633.666 0.996264 -5.77469 0
M  V30 3587 N 633.716 0.0501808 -4.62873 0
M  V30 3588 C 633.866 0.588177 -3.36904 0
M  V30 3589 O 633.956 1.78598 -3.17173 0
M  V30 3590 N 633.906 -0.329694 -2.33686 0
M  V30 3591 C 633.816 -1.6953 -2.45079 0
M  V30 3592 C 633.666 -2.16933 -3.80505 0
M  V30 3593 C 633.616 -1.30326 -4.83752 0
M  V30 3594 H 630.876 -0.374722 -8.67691 0
M  V30 3595 H 630.607 -0.443421 -6.90177 0
M  V30 3596 H 631.474 1.75537 -7.96793 0
M  V30 3597 H 634.129 1.94496 -5.46629 0
M  V30 3598 H 634.408 -0.608651 -7.04676 0
M  V30 3599 H 635.4 0.889672 -7.08939 0
M  V30 3600 H 633.566 0.43308 -9.04564 0
M  V30 3601 H 633.495 -1.68366 -5.8516 0
M  V30 3602 P 635.436 2.75334 -8.47391 0
M  V30 3603 O 635.656 3.84204 -9.44982 0
M  V30 3604 O 636.226 1.51982 -8.68909 0
M  V30 3605 O 635.686 3.29363 -6.99321 0
M  V30 3606 C 634.746 4.24066 -6.42823 0
M  V30 3607 C 635.476 5.20775 -5.52155 0
M  V30 3608 O 635.686 4.56607 -4.22514 0
M  V30 3609 C 636.876 5.62697 -5.96604 0
M  V30 3610 O 637.266 6.87667 -5.41053 0
M  V30 3611 C 637.756 4.52537 -5.39283 0
M  V30 3612 C 637.046 4.20027 -4.08623 0
M  V30 3613 N 637.096 2.76189 -3.71603 0
M  V30 3614 H 634.258 4.79756 -7.24086 0
M  V30 3615 H 633.986 3.69963 -5.84682 0
M  V30 3616 H 634.854 6.10431 -5.41508 0
M  V30 3617 H 637.509 4.78816 -3.28024 0
M  V30 3618 H 637.789 3.64957 -6.05871 0
M  V30 3619 H 638.78 4.88748 -5.21323 0
M  V30 3620 H 636.946 5.66789 -7.0643 0
M  V30 3621 P 638.816 7.20834 -5.23717 0
M  V30 3622 O 639.036 8.66104 -5.38572 0
M  V30 3623 O 639.606 6.33544 -6.1349 0
M  V30 3624 O 639.066 6.7751 -3.72168 0
M  V30 3625 C 638.126 7.20825 -2.7076 0
M  V30 3626 C 638.856 7.45864 -1.40599 0
M  V30 3627 O 639.066 6.17651 -0.734225 0
M  V30 3628 C 640.256 8.05808 -1.51899 0
M  V30 3629 O 640.646 8.74358 -0.335205 0
M  V30 3630 C 641.136 6.83093 -1.70294 0
M  V30 3631 C 640.426 5.79992 -0.836974 0
M  V30 3632 N 640.476 4.41864 -1.38293 0
M  V30 3633 H 637.637 8.13644 -3.0377 0
M  V30 3634 H 637.367 6.42788 -2.55485 0
M  V30 3635 H 638.234 8.12039 -0.792769 0
M  V30 3636 P 642.196 8.91 4.32688e-12 0
M  V30 3637 O 642.416 10.1726 0.733694 0
M  V30 3638 O 642.986 8.73148 -1.23936 0
M  V30 3639 O 642.446 7.66872 0.971405 0
M  V30 3640 C 641.506 7.42309 2.04641 0
M  V30 3641 C 642.236 6.86059 3.24661 0
M  V30 3642 O 642.446 5.42847 3.03646 0
M  V30 3643 C 643.636 7.41196 3.50753 0
M  V30 3644 O 644.026 7.27073 4.86816 0
M  V30 3645 C 644.516 6.5273 2.63741 0
M  V30 3646 C 643.806 5.1842 2.73198 0
M  V30 3647 N 643.856 4.38762 1.4784 0
M  V30 3648 H 641.017 8.36803 2.32493 0
M  V30 3649 H 640.747 6.70197 1.71129 0
M  V30 3650 H 641.614 7.03551 4.13168 0
M  V30 3651 P 645.576 7.20834 5.23717 0
M  V30 3652 O 645.796 7.79853 6.57286 0
M  V30 3653 O 646.366 7.79239 4.12957 0
M  V30 3654 O 645.826 5.63315 5.29344 0
M  V30 3655 C 644.886 4.80255 6.01876 0
M  V30 3656 C 645.616 3.64202 6.65911 0
M  V30 3657 O 645.826 2.60694 5.64732 0
M  V30 3658 C 647.016 3.93473 7.1943 0
M  V30 3659 O 647.406 3.02071 8.21205 0
M  V30 3660 C 647.896 3.73047 5.97036 0
M  V30 3661 C 647.186 2.58828 5.25741 0
M  V30 3662 N 647.236 2.68068 3.77503 0
M  V30 3663 H 644.397 5.40332 6.79951 0
M  V30 3664 H 644.127 4.41613 5.32378 0
M  V30 3665 H 644.994 3.26331 7.47797 0
M  V30 3666 P 648.956 2.75334 8.47391 0
M  V30 3667 O 649.176 2.44571 9.90142 0
M  V30 3668 O 649.746 3.87688 7.92115 0
M  V30 3669 O 649.206 1.4459 7.59357 0
M  V30 3670 C 648.266 0.347608 7.69215 0
M  V30 3671 C 648.996 -0.96767 7.52806 0
M  V30 3672 O 649.206 -1.21036 6.1011 0
M  V30 3673 C 650.396 -1.04544 8.13308 0
M  V30 3674 O 650.786 -2.38311 8.41922 0
M  V30 3675 C 651.276 -0.491279 7.02284 0
M  V30 3676 C 650.566 -0.996264 5.77469 0
M  V30 3677 N 650.616 -0.0501916 4.62973 0
M  V30 3678 H 647.777 0.374722 8.67691 0
M  V30 3679 H 647.507 0.443485 6.90277 0
M  V30 3680 H 648.374 -1.75537 7.96793 0
M  V30 3681 P 652.336 -2.75334 8.47391 0
M  V30 3682 O 652.556 -3.84128 9.44797 0
M  V30 3683 O 653.126 -1.51947 8.68712 0
M  V30 3684 O 652.586 -3.29363 6.99321 0
M  V30 3685 C 651.646 -4.24011 6.4274 0
M  V30 3686 C 652.376 -5.20775 5.52155 0
M  V30 3687 O 652.586 -4.56534 4.22446 0
M  V30 3688 C 653.776 -5.62629 5.96531 0
M  V30 3689 O 654.166 -6.87667 5.41053 0
M  V30 3690 C 654.656 -4.52537 5.39283 0
M  V30 3691 C 653.946 -4.20027 4.08623 0
M  V30 3692 N 653.996 -2.76189 3.71603 0
M  V30 3693 H 651.157 -4.797 7.24003 0
M  V30 3694 H 650.887 -3.69856 5.84513 0
M  V30 3695 H 651.754 -6.10356 5.41441 0
M  V30 3696 P 655.716 -7.20834 5.23717 0
M  V30 3697 O 655.936 -8.66104 5.38572 0
M  V30 3698 O 656.506 -6.33544 6.1349 0
M  V30 3699 O 655.966 -6.7751 3.72168 0
M  V30 3700 C 655.026 -7.20825 2.7076 0
M  V30 3701 C 655.756 -7.45864 1.40599 0
M  V30 3702 O 655.966 -6.17651 0.734225 0
M  V30 3703 C 657.156 -8.05808 1.51899 0
M  V30 3704 O 657.546 -8.74358 0.335205 0
M  V30 3705 C 658.036 -6.83093 1.70294 0
M  V30 3706 C 657.326 -5.79992 0.836974 0
M  V30 3707 N 657.376 -4.41864 1.38293 0
M  V30 3708 H 654.537 -8.13644 3.0377 0
M  V30 3709 H 654.267 -6.42788 2.55485 0
M  V30 3710 H 655.134 -8.12039 0.792769 0
M  V30 3711 P 659.096 -8.91 -4.48406e-12 0
M  V30 3712 O 659.316 -10.1726 -0.733694 0
M  V30 3713 O 659.886 -8.73148 1.23936 0
M  V30 3714 O 659.346 -7.66872 -0.971405 0
M  V30 3715 C 658.406 -7.42309 -2.04641 0
M  V30 3716 C 659.136 -6.86059 -3.24661 0
M  V30 3717 O 659.346 -5.42847 -3.03646 0
M  V30 3718 C 660.536 -7.41196 -3.50753 0
M  V30 3719 O 660.926 -7.27073 -4.86816 0
M  V30 3720 C 661.416 -6.5273 -2.63741 0
M  V30 3721 C 660.706 -5.1842 -2.73198 0
M  V30 3722 N 660.756 -4.38762 -1.4784 0
M  V30 3723 H 657.917 -8.36803 -2.32493 0
M  V30 3724 H 657.647 -6.70197 -1.71129 0
M  V30 3725 H 658.514 -7.03551 -4.13168 0
M  V30 3726 P 662.476 -7.20834 -5.23717 0
M  V30 3727 O 662.696 -7.79853 -6.57286 0
M  V30 3728 O 663.266 -7.79239 -4.12957 0
M  V30 3729 O 662.726 -5.63315 -5.29344 0
M  V30 3730 C 661.786 -4.80255 -6.01876 0
M  V30 3731 C 662.516 -3.64202 -6.65911 0
M  V30 3732 O 662.726 -2.60694 -5.64732 0
M  V30 3733 C 663.916 -3.93473 -7.1943 0
M  V30 3734 O 664.306 -3.02071 -8.21205 0
M  V30 3735 C 664.796 -3.73047 -5.97036 0
M  V30 3736 C 664.086 -2.58828 -5.25741 0
M  V30 3737 N 664.136 -2.68068 -3.77503 0
M  V30 3738 H 661.297 -5.40332 -6.79951 0
M  V30 3739 H 661.027 -4.41613 -5.32378 0
M  V30 3740 H 661.894 -3.26331 -7.47797 0
M  V30 3741 P 665.856 -2.75334 -8.47391 0
M  V30 3742 O 666.076 -2.44571 -9.90142 0
M  V30 3743 O 666.646 -3.87688 -7.92115 0
M  V30 3744 O 666.106 -1.4459 -7.59357 0
M  V30 3745 C 665.166 -0.347608 -7.69215 0
M  V30 3746 C 665.896 0.96767 -7.52806 0
M  V30 3747 O 666.106 1.21036 -6.1011 0
M  V30 3748 C 667.296 1.04544 -8.13308 0
M  V30 3749 O 667.686 2.38311 -8.41922 0
M  V30 3750 C 668.176 0.491279 -7.02284 0
M  V30 3751 C 667.466 0.996264 -5.77469 0
M  V30 3752 N 667.516 0.0501916 -4.62973 0
M  V30 3753 H 664.677 -0.374722 -8.67691 0
M  V30 3754 H 664.407 -0.443485 -6.90277 0
M  V30 3755 H 665.274 1.75537 -7.96793 0
M  V30 3756 P 669.236 2.75334 -8.47391 0
M  V30 3757 O 669.456 3.84204 -9.44982 0
M  V30 3758 O 670.026 1.51982 -8.68909 0
M  V30 3759 O 669.486 3.29363 -6.99321 0
M  V30 3760 C 668.546 4.24066 -6.42823 0
M  V30 3761 C 669.276 5.20775 -5.52155 0
M  V30 3762 O 669.486 4.56607 -4.22514 0
M  V30 3763 C 670.676 5.62697 -5.96604 0
M  V30 3764 O 671.066 6.87667 -5.41053 0
M  V30 3765 C 671.556 4.52537 -5.39283 0
M  V30 3766 C 670.846 4.20027 -4.08623 0
M  V30 3767 N 670.896 2.76189 -3.71603 0
M  V30 3768 H 668.058 4.79756 -7.24086 0
M  V30 3769 H 667.786 3.69963 -5.84682 0
M  V30 3770 H 668.654 6.10431 -5.41508 0
M  V30 3771 H 671.309 4.78816 -3.28024 0
M  V30 3772 H 671.589 3.64957 -6.05871 0
M  V30 3773 H 672.58 4.88748 -5.21323 0
M  V30 3774 H 670.746 5.66789 -7.0643 0
M  V30 3775 P 672.616 7.20834 -5.23717 0
M  V30 3776 O 672.836 8.66104 -5.38572 0
M  V30 3777 O 673.406 6.33544 -6.1349 0
M  V30 3778 O 672.866 6.7751 -3.72168 0
M  V30 3779 C 671.926 7.20825 -2.7076 0
M  V30 3780 C 672.656 7.45864 -1.40599 0
M  V30 3781 O 672.866 6.17651 -0.734225 0
M  V30 3782 C 674.056 8.05808 -1.51899 0
M  V30 3783 O 674.446 8.74358 -0.335205 0
M  V30 3784 C 674.936 6.83093 -1.70294 0
M  V30 3785 C 674.226 5.79992 -0.836974 0
M  V30 3786 N 674.276 4.41864 -1.38293 0
M  V30 3787 H 671.437 8.13644 -3.0377 0
M  V30 3788 H 671.167 6.42788 -2.55485 0
M  V30 3789 H 672.034 8.12039 -0.792769 0
M  V30 3790 P 675.996 8.91 4.64125e-12 0
M  V30 3791 O 676.216 10.1736 0.733766 0
M  V30 3792 O 676.786 8.73247 -1.2395 0
M  V30 3793 O 676.246 7.66872 0.971405 0
M  V30 3794 C 675.306 7.42212 2.04614 0
M  V30 3795 C 676.036 6.86059 3.24661 0
M  V30 3796 O 676.246 5.42847 3.03646 0
M  V30 3797 C 677.436 7.41196 3.50753 0
M  V30 3798 O 677.826 7.27073 4.86816 0
M  V30 3799 C 678.316 6.5273 2.63741 0
M  V30 3800 C 677.606 5.1842 2.73198 0
M  V30 3801 N 677.656 4.38668 1.47808 0
M  V30 3802 C 677.806 3.02239 1.60048 0
M  V30 3803 O 677.896 2.46459 2.67869 0
M  V30 3804 N 677.846 2.32436 0.408571 0
M  V30 3805 C 677.756 2.85471 -0.854993 0
M  V30 3806 C 677.606 4.28918 -0.887335 0
M  V30 3807 C 677.556 5.00349 0.255399 0
M  V30 3808 H 674.816 8.36803 2.32493 0
M  V30 3809 H 674.547 6.701 1.71105 0
M  V30 3810 H 675.414 7.03551 4.13168 0
M  V30 3811 H 678.069 4.59773 3.53894 0
M  V30 3812 H 678.348 6.88995 1.59871 0
M  V30 3813 H 679.34 6.46749 3.03687 0
M  V30 3814 H 677.506 8.46908 3.20714 0
M  V30 3815 H 677.435 6.08548 0.206986 0
M  V30 3816 P 679.376 7.20834 5.23717 0
M  V30 3817 O 679.596 7.79853 6.57286 0
M  V30 3818 O 680.166 7.79239 4.12957 0
M  V30 3819 O 679.626 5.63315 5.29344 0
M  V30 3820 C 678.686 4.80255 6.01876 0
M  V30 3821 C 679.416 3.64202 6.65911 0
M  V30 3822 O 679.626 2.60694 5.64732 0
M  V30 3823 C 680.816 3.93473 7.1943 0
M  V30 3824 O 681.206 3.02071 8.21205 0
M  V30 3825 C 681.696 3.73047 5.97036 0
M  V30 3826 C 680.986 2.58828 5.25741 0
M  V30 3827 N 681.036 2.68068 3.77503 0
M  V30 3828 H 678.197 5.40332 6.79951 0
M  V30 3829 H 677.927 4.41613 5.32378 0
M  V30 3830 H 678.794 3.26331 7.47797 0
M  V30 3831 P 682.756 2.75334 8.47391 0
M  V30 3832 O 682.976 2.44571 9.90142 0
M  V30 3833 O 683.546 3.87688 7.92115 0
M  V30 3834 O 683.006 1.4459 7.59357 0
M  V30 3835 C 682.066 0.347608 7.69215 0
M  V30 3836 C 682.796 -0.96767 7.52806 0
M  V30 3837 O 683.006 -1.21036 6.1011 0
M  V30 3838 C 684.196 -1.04544 8.13308 0
M  V30 3839 O 684.586 -2.38311 8.41922 0
M  V30 3840 C 685.076 -0.491279 7.02284 0
M  V30 3841 C 684.366 -0.996264 5.77469 0
M  V30 3842 N 684.416 -0.0501916 4.62973 0
M  V30 3843 H 681.577 0.374722 8.67691 0
M  V30 3844 H 681.307 0.443485 6.90277 0
M  V30 3845 H 682.174 -1.75537 7.96793 0
M  V30 3846 P 686.136 -2.75334 8.47391 0
M  V30 3847 O 686.356 -3.84128 9.44797 0
M  V30 3848 O 686.926 -1.51947 8.68712 0
M  V30 3849 O 686.386 -3.29363 6.99321 0
M  V30 3850 C 685.446 -4.24011 6.4274 0
M  V30 3851 C 686.176 -5.20775 5.52155 0
M  V30 3852 O 686.386 -4.56534 4.22446 0
M  V30 3853 C 687.576 -5.62629 5.96531 0
M  V30 3854 O 687.966 -6.87667 5.41053 0
M  V30 3855 C 688.456 -4.52537 5.39283 0
M  V30 3856 C 687.746 -4.20027 4.08623 0
M  V30 3857 N 687.796 -2.76189 3.71603 0
M  V30 3858 H 684.957 -4.797 7.24003 0
M  V30 3859 H 684.687 -3.69856 5.84513 0
M  V30 3860 H 685.554 -6.10356 5.41441 0
M  V30 3861 P 689.516 -7.20834 5.23717 0
M  V30 3862 O 689.736 -8.66274 5.38678 0
M  V30 3863 O 690.306 -6.33687 6.13629 0
M  V30 3864 O 689.766 -6.7751 3.72168 0
M  V30 3865 C 688.826 -7.20919 2.70795 0
M  V30 3866 C 689.556 -7.45864 1.40599 0
M  V30 3867 O 689.766 -6.17751 0.734343 0
M  V30 3868 C 690.956 -8.05906 1.51917 0
M  V30 3869 O 691.346 -8.74358 0.335205 0
M  V30 3870 C 691.836 -6.83093 1.70294 0
M  V30 3871 C 691.126 -5.79992 0.836974 0
M  V30 3872 N 691.176 -4.41864 1.38293 0
M  V30 3873 H 688.338 -8.13738 3.03804 0
M  V30 3874 H 688.066 -6.42974 2.55559 0
M  V30 3875 H 688.934 -8.12139 0.792866 0
M  V30 3876 H 691.589 -5.80178 -0.160643 0
M  V30 3877 H 691.869 -6.51379 2.75643 0
M  V30 3878 H 692.86 -7.01832 1.3448 0
M  V30 3879 H 691.026 -8.73771 2.38364 0
M  V30 3880 P 692.896 -8.91 -4.67181e-12 0
M  V30 3881 O 693.116 -10.1726 -0.733694 0
M  V30 3882 O 693.686 -8.73148 1.23936 0
M  V30 3883 O 693.146 -7.66872 -0.971405 0
M  V30 3884 C 692.206 -7.42309 -2.04641 0
M  V30 3885 C 692.936 -6.86059 -3.24661 0
M  V30 3886 O 693.146 -5.42847 -3.03646 0
M  V30 3887 C 694.336 -7.41196 -3.50753 0
M  V30 3888 O 694.726 -7.27073 -4.86816 0
M  V30 3889 C 695.216 -6.5273 -2.63741 0
M  V30 3890 C 694.506 -5.1842 -2.73198 0
M  V30 3891 N 694.556 -4.38762 -1.4784 0
M  V30 3892 H 691.717 -8.36803 -2.32493 0
M  V30 3893 H 691.447 -6.70197 -1.71129 0
M  V30 3894 H 692.314 -7.03551 -4.13168 0
M  V30 3895 P 696.276 -7.20834 -5.23717 0
M  V30 3896 O 696.496 -7.79853 -6.57286 0
M  V30 3897 O 697.066 -7.79239 -4.12957 0
M  V30 3898 O 696.526 -5.63315 -5.29344 0
M  V30 3899 C 695.586 -4.80255 -6.01876 0
M  V30 3900 C 696.316 -3.64202 -6.65911 0
M  V30 3901 O 696.526 -2.60694 -5.64732 0
M  V30 3902 C 697.716 -3.93473 -7.1943 0
M  V30 3903 O 698.106 -3.02071 -8.21205 0
M  V30 3904 C 698.596 -3.73047 -5.97036 0
M  V30 3905 C 697.886 -2.58828 -5.25741 0
M  V30 3906 N 697.936 -2.68068 -3.77503 0
M  V30 3907 H 695.097 -5.40332 -6.79951 0
M  V30 3908 H 694.827 -4.41613 -5.32378 0
M  V30 3909 H 695.694 -3.26331 -7.47797 0
M  V30 3910 P 699.656 -2.75334 -8.47391 0
M  V30 3911 O 699.876 -2.44571 -9.90142 0
M  V30 3912 O 700.446 -3.87688 -7.92115 0
M  V30 3913 O 699.906 -1.4459 -7.59357 0
M  V30 3914 C 698.966 -0.347608 -7.69215 0
M  V30 3915 C 699.696 0.96767 -7.52806 0
M  V30 3916 O 699.906 1.21036 -6.1011 0
M  V30 3917 C 701.096 1.04544 -8.13308 0
M  V30 3918 O 701.486 2.38311 -8.41922 0
M  V30 3919 C 701.976 0.491279 -7.02284 0
M  V30 3920 C 701.266 0.996264 -5.77469 0
M  V30 3921 N 701.316 0.0501916 -4.62973 0
M  V30 3922 H 698.477 -0.374722 -8.67691 0
M  V30 3923 H 698.207 -0.443485 -6.90277 0
M  V30 3924 H 699.074 1.75537 -7.96793 0
M  V30 3925 P 703.036 2.75334 -8.47391 0
M  V30 3926 O 703.256 3.84166 -9.4489 0
M  V30 3927 O 703.826 1.51964 -8.6881 0
M  V30 3928 O 703.286 3.29363 -6.99321 0
M  V30 3929 C 702.346 4.23956 -6.42656 0
M  V30 3930 C 703.076 5.20775 -5.52155 0
M  V30 3931 O 703.286 4.56534 -4.22446 0
M  V30 3932 C 704.476 5.62629 -5.96531 0
M  V30 3933 O 704.866 6.87667 -5.41053 0
M  V30 3934 C 705.356 4.52537 -5.39283 0
M  V30 3935 C 704.646 4.20027 -4.08623 0
M  V30 3936 N 704.696 2.7613 -3.71522 0
M  V30 3937 C 704.846 2.45612 -2.37989 0
M  V30 3938 O 704.936 3.30919 -1.51621 0
M  V30 3939 N 704.886 1.10684 -2.08435 0
M  V30 3940 C 704.796 0.0690084 -2.9792 0
M  V30 3941 O 704.846 -1.10553 -2.59426 0
M  V30 3942 C 704.646 0.481522 -4.35345 0
M  V30 3943 C 704.536 -0.618778 -5.36443 0
M  V30 3944 C 704.596 1.78906 -4.67968 0
M  V30 3945 H 701.856 4.797 -7.24003 0
M  V30 3946 H 701.587 3.69802 -5.84429 0
M  V30 3947 H 702.454 6.10356 -5.41441 0
M  V30 3948 H 705.109 4.78651 -3.27911 0
M  V30 3949 H 705.388 3.64957 -6.05871 0
M  V30 3950 H 706.38 4.8868 -5.2125 0
M  V30 3951 H 704.546 5.66726 -7.06352 0
M  V30 3952 H 704.475 2.07737 -5.72367 0
M  V30 3953 H 705.505 -0.754375 -5.86871 0
M  V30 3954 H 703.768 -0.359721 -6.10641 0
M  V30 3955 H 704.256 -1.55533 -4.8581 0
M  V30 3956 H 704.992 0.862651 -1.12037 0
M  V30 3957 P 706.416 7.20834 -5.23717 0
M  V30 3958 O 706.636 8.66104 -5.38572 0
M  V30 3959 O 707.206 6.33544 -6.1349 0
M  V30 3960 O 706.666 6.7751 -3.72168 0
M  V30 3961 C 705.726 7.20825 -2.7076 0
M  V30 3962 C 706.456 7.45864 -1.40599 0
M  V30 3963 O 706.666 6.17651 -0.734225 0
M  V30 3964 C 707.856 8.05808 -1.51899 0
M  V30 3965 O 708.246 8.74358 -0.335205 0
M  V30 3966 C 708.736 6.83093 -1.70294 0
M  V30 3967 C 708.026 5.79992 -0.836974 0
M  V30 3968 N 708.076 4.41864 -1.38293 0
M  V30 3969 H 705.237 8.13644 -3.0377 0
M  V30 3970 H 704.967 6.42788 -2.55485 0
M  V30 3971 H 705.834 8.12039 -0.792769 0
M  V30 3972 P 709.796 8.91 4.82899e-12 0
M  V30 3973 O 710.016 10.1726 0.733694 0
M  V30 3974 O 710.586 8.73148 -1.23936 0
M  V30 3975 O 710.046 7.66872 0.971405 0
M  V30 3976 C 709.106 7.42309 2.04641 0
M  V30 3977 C 709.836 6.86059 3.24661 0
M  V30 3978 O 710.046 5.42847 3.03646 0
M  V30 3979 C 711.236 7.41196 3.50753 0
M  V30 3980 O 711.626 7.27073 4.86816 0
M  V30 3981 C 712.116 6.5273 2.63741 0
M  V30 3982 C 711.406 5.1842 2.73198 0
M  V30 3983 N 711.456 4.38762 1.4784 0
M  V30 3984 H 708.617 8.36803 2.32493 0
M  V30 3985 H 708.347 6.70197 1.71129 0
M  V30 3986 H 709.214 7.03551 4.13168 0
M  V30 3987 P 713.176 7.20834 5.23717 0
M  V30 3988 O 713.396 7.79853 6.57286 0
M  V30 3989 O 713.966 7.79239 4.12957 0
M  V30 3990 O 713.426 5.63315 5.29344 0
M  V30 3991 C 712.486 4.80255 6.01876 0
M  V30 3992 C 713.216 3.64202 6.65911 0
M  V30 3993 O 713.426 2.60694 5.64732 0
M  V30 3994 C 714.616 3.93473 7.1943 0
M  V30 3995 O 715.006 3.02071 8.21205 0
M  V30 3996 C 715.496 3.73047 5.97036 0
M  V30 3997 C 714.786 2.58828 5.25741 0
M  V30 3998 N 714.836 2.68068 3.77503 0
M  V30 3999 H 711.997 5.40332 6.79951 0
M  V30 4000 H 711.727 4.41613 5.32378 0
M  V30 4001 H 712.594 3.26331 7.47797 0
M  V30 4002 P 716.556 2.75334 8.47391 0
M  V30 4003 O 716.776 2.44571 9.90142 0
M  V30 4004 O 717.346 3.87688 7.92115 0
M  V30 4005 O 716.806 1.4459 7.59357 0
M  V30 4006 C 715.866 0.347608 7.69215 0
M  V30 4007 C 716.596 -0.96767 7.52806 0
M  V30 4008 O 716.806 -1.21036 6.1011 0
M  V30 4009 C 717.996 -1.04544 8.13308 0
M  V30 4010 O 718.386 -2.38311 8.41922 0
M  V30 4011 C 718.876 -0.491279 7.02284 0
M  V30 4012 C 718.166 -0.996264 5.77469 0
M  V30 4013 N 718.216 -0.0501916 4.62973 0
M  V30 4014 H 715.377 0.374722 8.67691 0
M  V30 4015 H 715.107 0.443485 6.90277 0
M  V30 4016 H 715.974 -1.75537 7.96793 0
M  V30 4017 P 719.936 -2.75334 8.47391 0
M  V30 4018 O 720.156 -3.84166 9.4489 0
M  V30 4019 O 720.726 -1.51964 8.6881 0
M  V30 4020 O 720.186 -3.29363 6.99321 0
M  V30 4021 C 719.246 -4.23956 6.42656 0
M  V30 4022 C 719.976 -5.20775 5.52155 0
M  V30 4023 O 720.186 -4.56534 4.22446 0
M  V30 4024 C 721.376 -5.62629 5.96531 0
M  V30 4025 O 721.766 -6.87667 5.41053 0
M  V30 4026 C 722.256 -4.52537 5.39283 0
M  V30 4027 C 721.546 -4.20027 4.08623 0
M  V30 4028 N 721.596 -2.7613 3.71522 0
M  V30 4029 C 721.746 -2.45612 2.37989 0
M  V30 4030 O 721.836 -3.30919 1.51621 0
M  V30 4031 N 721.786 -1.10684 2.08435 0
M  V30 4032 C 721.696 -0.0690084 2.9792 0
M  V30 4033 O 721.746 1.10553 2.59426 0
M  V30 4034 C 721.546 -0.481522 4.35345 0
M  V30 4035 C 721.436 0.618778 5.36443 0
M  V30 4036 C 721.496 -1.78906 4.67968 0
M  V30 4037 H 718.756 -4.797 7.24003 0
M  V30 4038 H 718.487 -3.69802 5.84429 0
M  V30 4039 H 719.354 -6.10356 5.41441 0
M  V30 4040 H 722.009 -4.78651 3.27911 0
M  V30 4041 H 722.288 -3.64957 6.05871 0
M  V30 4042 H 723.28 -4.8868 5.2125 0
M  V30 4043 H 721.446 -5.66726 7.06352 0
M  V30 4044 H 721.375 -2.07737 5.72367 0
M  V30 4045 H 722.405 0.754375 5.86871 0
M  V30 4046 H 720.668 0.359721 6.10641 0
M  V30 4047 H 721.156 1.55533 4.8581 0
M  V30 4048 H 721.892 -0.862651 1.12037 0
M  V30 4049 P 723.316 -7.20834 5.23717 0
M  V30 4050 O 723.536 -8.66104 5.38572 0
M  V30 4051 O 724.106 -6.33544 6.1349 0
M  V30 4052 O 723.566 -6.7751 3.72168 0
M  V30 4053 C 722.626 -7.20825 2.7076 0
M  V30 4054 C 723.356 -7.45864 1.40599 0
M  V30 4055 O 723.566 -6.17651 0.734225 0
M  V30 4056 C 724.756 -8.05808 1.51899 0
M  V30 4057 O 725.146 -8.74358 0.335205 0
M  V30 4058 C 725.636 -6.83093 1.70294 0
M  V30 4059 C 724.926 -5.79992 0.836974 0
M  V30 4060 N 724.976 -4.41864 1.38293 0
M  V30 4061 C 724.896 -3.99538 2.69438 0
M  V30 4062 N 724.976 -2.69909 2.84277 0
M  V30 4063 C 725.116 -2.21719 1.5408 0
M  V30 4064 C 725.246 -0.891712 1.06628 0
M  V30 4065 O 725.266 0.161298 1.70137 0
M  V30 4066 N 725.366 -0.856846 -0.334985 0
M  V30 4067 C 725.366 -1.9641 -1.15789 0
M  V30 4068 N 725.496 -1.72708 -2.46522 0
M  V30 4069 N 725.236 -3.21165 -0.713741 0
M  V30 4070 C 725.116 -3.26797 0.639748 0
M  V30 4071 H 722.137 -8.13644 3.0377 0
M  V30 4072 H 721.867 -6.42788 2.55485 0
M  V30 4073 H 722.734 -8.12039 0.792769 0
M  V30 4074 H 725.389 -5.80061 -0.166416 0
M  V30 4075 H 725.668 -6.51287 2.75604 0
M  V30 4076 H 726.66 -7.01734 1.34462 0
M  V30 4077 H 724.826 -8.73674 2.38337 0
M  V30 4078 H 724.777 -4.68207 3.53221 0
M  V30 4079 H 725.459 0.0398818 -0.767965 0
M  V30 4080 H 725.496 -2.50995 -3.13503 0
M  V30 4081 H 725.597 -0.759148 -2.80716 0
M  V30 4082 P 726.696 -8.91 -4.98617e-12 0
M  V30 4083 O 726.916 -10.1746 -0.733838 0
M  V30 4084 O 727.486 -8.73346 1.23964 0
M  V30 4085 O 726.946 -7.66872 -0.971405 0
M  V30 4086 C 726.006 -7.42405 -2.04668 0
M  V30 4087 C 726.736 -6.86059 -3.24661 0
M  V30 4088 O 726.946 -5.42934 -3.03695 0
M  V30 4089 C 728.136 -7.41287 -3.50796 0
M  V30 4090 O 728.526 -7.27073 -4.86816 0
M  V30 4091 C 729.016 -6.5273 -2.63741 0
M  V30 4092 C 728.306 -5.1842 -2.73198 0
M  V30 4093 N 728.356 -4.38762 -1.4784 0
M  V30 4094 H 725.518 -8.36899 -2.3252 0
M  V30 4095 H 725.246 -6.70391 -1.71179 0
M  V30 4096 H 726.114 -7.03638 -4.13219 0
M  V30 4097 H 728.769 -4.59931 -3.54016 0
M  V30 4098 H 729.049 -6.88995 -1.59871 0
M  V30 4099 H 730.04 -6.4684 -3.0373 0
M  V30 4100 H 728.206 -8.47002 -3.20749 0
M  V30 4101 P 730.076 -7.20834 -5.23717 0
M  V30 4102 O 730.296 -7.79853 -6.57286 0
M  V30 4103 O 730.866 -7.79239 -4.12957 0
M  V30 4104 O 730.326 -5.63315 -5.29344 0
M  V30 4105 C 729.386 -4.80255 -6.01876 0
M  V30 4106 C 730.116 -3.64202 -6.65911 0
M  V30 4107 O 730.326 -2.60694 -5.64732 0
M  V30 4108 C 731.516 -3.93473 -7.1943 0
M  V30 4109 O 731.906 -3.02071 -8.21205 0
M  V30 4110 C 732.396 -3.73047 -5.97036 0
M  V30 4111 C 731.686 -2.58828 -5.25741 0
M  V30 4112 N 731.736 -2.68068 -3.77503 0
M  V30 4113 H 728.897 -5.40332 -6.79951 0
M  V30 4114 H 728.627 -4.41613 -5.32378 0
M  V30 4115 H 729.494 -3.26331 -7.47797 0
M  V30 4116 P 733.456 -2.75334 -8.47391 0
M  V30 4117 O 733.676 -2.44571 -9.90142 0
M  V30 4118 O 734.246 -3.87688 -7.92115 0
M  V30 4119 O 733.706 -1.4459 -7.59357 0
M  V30 4120 C 732.766 -0.347608 -7.69215 0
M  V30 4121 C 733.496 0.96767 -7.52806 0
M  V30 4122 O 733.706 1.21036 -6.1011 0
M  V30 4123 C 734.896 1.04544 -8.13308 0
M  V30 4124 O 735.286 2.38311 -8.41922 0
M  V30 4125 C 735.776 0.491279 -7.02284 0
M  V30 4126 C 735.066 0.996264 -5.77469 0
M  V30 4127 N 735.116 0.0501916 -4.62973 0
M  V30 4128 H 732.277 -0.374722 -8.67691 0
M  V30 4129 H 732.007 -0.443485 -6.90277 0
M  V30 4130 H 732.874 1.75537 -7.96793 0
M  V30 4131 P 736.836 2.75334 -8.47391 0
M  V30 4132 O 737.056 3.84128 -9.44797 0
M  V30 4133 O 737.626 1.51947 -8.68712 0
M  V30 4134 O 737.086 3.29363 -6.99321 0
M  V30 4135 C 736.146 4.24011 -6.4274 0
M  V30 4136 C 736.876 5.20775 -5.52155 0
M  V30 4137 O 737.086 4.56534 -4.22446 0
M  V30 4138 C 738.276 5.62629 -5.96531 0
M  V30 4139 O 738.666 6.87667 -5.41053 0
M  V30 4140 C 739.156 4.52537 -5.39283 0
M  V30 4141 C 738.446 4.20027 -4.08623 0
M  V30 4142 N 738.496 2.76189 -3.71603 0
M  V30 4143 H 735.657 4.797 -7.24003 0
M  V30 4144 H 735.387 3.69856 -5.84513 0
M  V30 4145 H 736.254 6.10356 -5.41441 0
M  V30 4146 P 740.216 7.20834 -5.23717 0
M  V30 4147 O 740.436 8.66104 -5.38572 0
M  V30 4148 O 741.006 6.33544 -6.1349 0
M  V30 4149 O 740.466 6.7751 -3.72168 0
M  V30 4150 C 739.526 7.20825 -2.7076 0
M  V30 4151 C 740.256 7.45864 -1.40599 0
M  V30 4152 O 740.466 6.17651 -0.734225 0
M  V30 4153 C 741.656 8.05808 -1.51899 0
M  V30 4154 O 742.046 8.74358 -0.335205 0
M  V30 4155 C 742.536 6.83093 -1.70294 0
M  V30 4156 C 741.826 5.79992 -0.836974 0
M  V30 4157 N 741.876 4.41864 -1.38293 0
M  V30 4158 H 739.037 8.13644 -3.0377 0
M  V30 4159 H 738.767 6.42788 -2.55485 0
M  V30 4160 H 739.634 8.12039 -0.792769 0
M  V30 4161 P 743.596 8.91 5.14336e-12 0
M  V30 4162 O 743.816 10.1726 0.733694 0
M  V30 4163 O 744.386 8.73148 -1.23936 0
M  V30 4164 O 743.846 7.66872 0.971405 0
M  V30 4165 C 742.906 7.42309 2.04641 0
M  V30 4166 C 743.636 6.86059 3.24661 0
M  V30 4167 O 743.846 5.42847 3.03646 0
M  V30 4168 C 745.036 7.41196 3.50753 0
M  V30 4169 O 745.426 7.27073 4.86816 0
M  V30 4170 C 745.916 6.5273 2.63741 0
M  V30 4171 C 745.206 5.1842 2.73198 0
M  V30 4172 N 745.256 4.38762 1.4784 0
M  V30 4173 H 742.417 8.36803 2.32493 0
M  V30 4174 H 742.147 6.70197 1.71129 0
M  V30 4175 H 743.014 7.03551 4.13168 0
M  V30 4176 P 746.976 7.20834 5.23717 0
M  V30 4177 O 747.196 7.79853 6.57286 0
M  V30 4178 O 747.766 7.79239 4.12957 0
M  V30 4179 O 747.226 5.63315 5.29344 0
M  V30 4180 C 746.286 4.80255 6.01876 0
M  V30 4181 C 747.016 3.64202 6.65911 0
M  V30 4182 O 747.226 2.60694 5.64732 0
M  V30 4183 C 748.416 3.93473 7.1943 0
M  V30 4184 O 748.806 3.02071 8.21205 0
M  V30 4185 C 749.296 3.73047 5.97036 0
M  V30 4186 C 748.586 2.58828 5.25741 0
M  V30 4187 N 748.636 2.68068 3.77503 0
M  V30 4188 H 745.797 5.40332 6.79951 0
M  V30 4189 H 745.527 4.41613 5.32378 0
M  V30 4190 H 746.394 3.26331 7.47797 0
M  V30 4191 P 750.356 2.75334 8.47391 0
M  V30 4192 O 750.576 2.44571 9.90142 0
M  V30 4193 O 751.146 3.87688 7.92115 0
M  V30 4194 O 750.606 1.4459 7.59357 0
M  V30 4195 C 749.666 0.347608 7.69215 0
M  V30 4196 C 750.396 -0.96767 7.52806 0
M  V30 4197 O 750.606 -1.21036 6.1011 0
M  V30 4198 C 751.796 -1.04544 8.13308 0
M  V30 4199 O 752.186 -2.38311 8.41922 0
M  V30 4200 C 752.676 -0.491279 7.02284 0
M  V30 4201 C 751.966 -0.996264 5.77469 0
M  V30 4202 N 752.016 -0.0501916 4.62973 0
M  V30 4203 H 749.177 0.374722 8.67691 0
M  V30 4204 H 748.907 0.443485 6.90277 0
M  V30 4205 H 749.774 -1.75537 7.96793 0
M  V30 4206 P 753.736 -2.75334 8.47391 0
M  V30 4207 O 753.956 -3.84128 9.44797 0
M  V30 4208 O 754.526 -1.51947 8.68712 0
M  V30 4209 O 753.986 -3.29363 6.99321 0
M  V30 4210 C 753.046 -4.24011 6.4274 0
M  V30 4211 C 753.776 -5.20775 5.52155 0
M  V30 4212 O 753.986 -4.56534 4.22446 0
M  V30 4213 C 755.176 -5.62629 5.96531 0
M  V30 4214 O 755.566 -6.87667 5.41053 0
M  V30 4215 C 756.056 -4.52537 5.39283 0
M  V30 4216 C 755.346 -4.20027 4.08623 0
M  V30 4217 N 755.396 -2.76189 3.71603 0
M  V30 4218 H 752.557 -4.797 7.24003 0
M  V30 4219 H 752.287 -3.69856 5.84513 0
M  V30 4220 H 753.154 -6.10356 5.41441 0
M  V30 4221 P 757.116 -7.20834 5.23717 0
M  V30 4222 O 757.336 -8.66189 5.38625 0
M  V30 4223 O 757.906 -6.33615 6.1356 0
M  V30 4224 O 757.366 -6.7751 3.72168 0
M  V30 4225 C 756.426 -7.20732 2.70725 0
M  V30 4226 C 757.156 -7.45864 1.40599 0
M  V30 4227 O 757.366 -6.17651 0.734225 0
M  V30 4228 C 758.556 -8.05808 1.51899 0
M  V30 4229 O 758.946 -8.74358 0.335205 0
M  V30 4230 C 759.436 -6.83093 1.70294 0
M  V30 4231 C 758.726 -5.79992 0.836974 0
M  V30 4232 N 758.776 -4.41769 1.38263 0
M  V30 4233 C 758.926 -3.38591 0.481702 0
M  V30 4234 O 759.016 -3.56839 -0.718452 0
M  V30 4235 N 758.966 -2.1206 1.03569 0
M  V30 4236 C 758.876 -1.80696 2.36966 0
M  V30 4237 C 758.726 -2.94845 3.23898 0
M  V30 4238 C 758.676 -4.19803 2.73435 0
M  V30 4239 H 755.936 -8.13644 3.0377 0
M  V30 4240 H 755.667 -6.42695 2.55448 0
M  V30 4241 H 756.534 -8.12039 0.792769 0
M  V30 4242 H 759.189 -5.79978 -0.160587 0
M  V30 4243 H 759.468 -6.51379 2.75643 0
M  V30 4244 H 760.46 -7.01734 1.34462 0
M  V30 4245 H 758.626 -8.73674 2.38337 0
M  V30 4246 H 758.555 -5.04492 3.4095 0
M  V30 4247 P 760.496 -8.91 -5.30054e-12 0
M  V30 4248 O 760.716 -10.1726 -0.733694 0
M  V30 4249 O 761.286 -8.73148 1.23936 0
M  V30 4250 O 760.746 -7.66872 -0.971405 0
M  V30 4251 C 759.806 -7.42309 -2.04641 0
M  V30 4252 C 760.536 -6.86059 -3.24661 0
M  V30 4253 O 760.746 -5.42847 -3.03646 0
M  V30 4254 C 761.936 -7.41196 -3.50753 0
M  V30 4255 O 762.326 -7.27073 -4.86816 0
M  V30 4256 C 762.816 -6.5273 -2.63741 0
M  V30 4257 C 762.106 -5.1842 -2.73198 0
M  V30 4258 N 762.156 -4.38762 -1.4784 0
M  V30 4259 H 759.317 -8.36803 -2.32493 0
M  V30 4260 H 759.047 -6.70197 -1.71129 0
M  V30 4261 H 759.914 -7.03551 -4.13168 0
M  V30 4262 P 763.875 -7.20834 -5.23717 0
M  V30 4263 O 764.095 -7.7993 -6.57351 0
M  V30 4264 O 764.665 -7.79328 -4.13004 0
M  V30 4265 O 764.125 -5.63315 -5.29344 0
M  V30 4266 C 763.185 -4.80193 -6.01798 0
M  V30 4267 C 763.915 -3.64202 -6.65911 0
M  V30 4268 O 764.125 -2.60694 -5.64732 0
M  V30 4269 C 765.315 -3.93473 -7.1943 0
M  V30 4270 O 765.705 -3.02071 -8.21205 0
M  V30 4271 C 766.195 -3.73047 -5.97036 0
M  V30 4272 C 765.485 -2.58828 -5.25741 0
M  V30 4273 N 765.535 -2.6801 -3.77422 0
M  V30 4274 C 765.685 -1.50443 -3.07133 0
M  V30 4275 O 765.775 -0.419406 -3.61576 0
M  V30 4276 N 765.725 -1.6403 -1.69677 0
M  V30 4277 C 765.635 -2.81206 -0.986255 0
M  V30 4278 C 765.485 -3.99158 -1.80325 0
M  V30 4279 C 765.435 -3.89779 -3.1476 0
M  V30 4280 H 762.695 -5.40332 -6.79951 0
M  V30 4281 H 762.426 -4.41549 -5.32301 0
M  V30 4282 H 763.293 -3.26331 -7.47797 0
M  V30 4283 H 765.948 -1.6395 -5.56554 0
M  V30 4284 H 766.227 -4.63439 -5.3432 0
M  V30 4285 H 767.219 -3.44728 -6.25838 0
M  V30 4286 H 765.385 -4.96652 -7.57263 0
M  V30 4287 H 765.314 -4.80159 -3.74441 0
M  V30 4288 P 767.255 -2.75334 -8.47391 0
M  V30 4289 O 767.475 -2.44571 -9.90142 0
M  V30 4290 O 768.045 -3.87688 -7.92115 0
M  V30 4291 O 767.505 -1.4459 -7.59357 0
M  V30 4292 C 766.565 -0.347608 -7.69215 0
M  V30 4293 C 767.295 0.96767 -7.52806 0
M  V30 4294 O 767.505 1.21036 -6.1011 0
M  V30 4295 C 768.695 1.04544 -8.13308 0
M  V30 4296 O 769.085 2.38311 -8.41922 0
M  V30 4297 C 769.575 0.491279 -7.02284 0
M  V30 4298 C 768.865 0.996264 -5.77469 0
M  V30 4299 N 768.915 0.0501916 -4.62973 0
M  V30 4300 H 766.076 -0.374722 -8.67691 0
M  V30 4301 H 765.806 -0.443485 -6.90277 0
M  V30 4302 H 766.673 1.75537 -7.96793 0
M  V30 4303 P 770.635 2.75334 -8.47391 0
M  V30 4304 O 770.855 3.84128 -9.44797 0
M  V30 4305 O 771.425 1.51947 -8.68712 0
M  V30 4306 O 770.885 3.29363 -6.99321 0
M  V30 4307 C 769.945 4.24011 -6.4274 0
M  V30 4308 C 770.675 5.20775 -5.52155 0
M  V30 4309 O 770.885 4.56534 -4.22446 0
M  V30 4310 C 772.075 5.62629 -5.96531 0
M  V30 4311 O 772.465 6.87667 -5.41053 0
M  V30 4312 C 772.955 4.52537 -5.39283 0
M  V30 4313 C 772.245 4.20027 -4.08623 0
M  V30 4314 N 772.295 2.76189 -3.71603 0
M  V30 4315 C 772.215 1.64862 -4.52822 0
M  V30 4316 N 772.295 0.512671 -3.88633 0
M  V30 4317 C 772.435 0.888083 -2.54977 0
M  V30 4318 C 772.565 0.094668 -1.38677 0
M  V30 4319 N 772.685 0.890102 -0.232633 0
M  V30 4320 C 772.685 2.26958 -0.21772 0
M  V30 4321 N 772.815 2.84626 0.97925 0
M  V30 4322 N 772.555 3.0178 -1.31033 0
M  V30 4323 C 772.435 2.26781 -2.43843 0
M  V30 4324 H 769.456 4.797 -7.24003 0
M  V30 4325 H 769.186 3.69856 -5.84513 0
M  V30 4326 H 770.053 6.10356 -5.41441 0
M  V30 4327 P 774.015 7.20834 -5.23717 0
M  V30 4328 O 774.235 8.66104 -5.38572 0
M  V30 4329 O 774.805 6.33544 -6.1349 0
M  V30 4330 O 774.265 6.7751 -3.72168 0
M  V30 4331 C 773.325 7.20825 -2.7076 0
M  V30 4332 C 774.055 7.45864 -1.40599 0
M  V30 4333 O 774.265 6.17651 -0.734225 0
M  V30 4334 C 775.455 8.05808 -1.51899 0
M  V30 4335 O 775.845 8.74358 -0.335205 0
M  V30 4336 C 776.335 6.83093 -1.70294 0
M  V30 4337 C 775.625 5.79992 -0.836974 0
M  V30 4338 N 775.675 4.41864 -1.38293 0
M  V30 4339 H 772.836 8.13644 -3.0377 0
M  V30 4340 H 772.566 6.42788 -2.55485 0
M  V30 4341 H 773.433 8.12039 -0.792769 0
M  V30 4342 P 777.395 8.91 5.45772e-12 0
M  V30 4343 O 777.615 10.1726 0.733694 0
M  V30 4344 O 778.185 8.73148 -1.23936 0
M  V30 4345 O 777.645 7.66872 0.971405 0
M  V30 4346 C 776.705 7.42309 2.04641 0
M  V30 4347 C 777.435 6.86059 3.24661 0
M  V30 4348 O 777.645 5.42847 3.03646 0
M  V30 4349 C 778.835 7.41196 3.50753 0
M  V30 4350 O 779.225 7.27073 4.86816 0
M  V30 4351 C 779.715 6.5273 2.63741 0
M  V30 4352 C 779.005 5.1842 2.73198 0
M  V30 4353 N 779.055 4.38762 1.4784 0
M  V30 4354 H 776.216 8.36803 2.32493 0
M  V30 4355 H 775.946 6.70197 1.71129 0
M  V30 4356 H 776.813 7.03551 4.13168 0
M  V30 4357 P 780.775 7.20834 5.23717 0
M  V30 4358 O 780.995 7.79853 6.57286 0
M  V30 4359 O 781.565 7.79239 4.12957 0
M  V30 4360 O 781.025 5.63315 5.29344 0
M  V30 4361 C 780.085 4.80255 6.01876 0
M  V30 4362 C 780.815 3.64202 6.65911 0
M  V30 4363 O 781.025 2.60694 5.64732 0
M  V30 4364 C 782.215 3.93473 7.1943 0
M  V30 4365 O 782.605 3.02071 8.21205 0
M  V30 4366 C 783.095 3.73047 5.97036 0
M  V30 4367 C 782.385 2.58828 5.25741 0
M  V30 4368 N 782.435 2.68068 3.77503 0
M  V30 4369 H 779.596 5.40332 6.79951 0
M  V30 4370 H 779.326 4.41613 5.32378 0
M  V30 4371 H 780.193 3.26331 7.47797 0
M  V30 4372 P 784.155 2.75334 8.47391 0
M  V30 4373 O 784.375 2.44571 9.90142 0
M  V30 4374 O 784.945 3.87688 7.92115 0
M  V30 4375 O 784.405 1.4459 7.59357 0
M  V30 4376 C 783.465 0.347608 7.69215 0
M  V30 4377 C 784.195 -0.96767 7.52806 0
M  V30 4378 O 784.405 -1.21036 6.1011 0
M  V30 4379 C 785.595 -1.04544 8.13308 0
M  V30 4380 O 785.985 -2.38311 8.41922 0
M  V30 4381 C 786.475 -0.491279 7.02284 0
M  V30 4382 C 785.765 -0.996264 5.77469 0
M  V30 4383 N 785.815 -0.0501916 4.62973 0
M  V30 4384 H 782.976 0.374722 8.67691 0
M  V30 4385 H 782.706 0.443485 6.90277 0
M  V30 4386 H 783.573 -1.75537 7.96793 0
M  V30 4387 P 787.535 -2.75334 8.47391 0
M  V30 4388 O 787.755 -3.84128 9.44797 0
M  V30 4389 O 788.325 -1.51947 8.68712 0
M  V30 4390 O 787.785 -3.29363 6.99321 0
M  V30 4391 C 786.845 -4.24011 6.4274 0
M  V30 4392 C 787.575 -5.20775 5.52155 0
M  V30 4393 O 787.785 -4.56534 4.22446 0
M  V30 4394 C 788.975 -5.62629 5.96531 0
M  V30 4395 O 789.365 -6.87667 5.41053 0
M  V30 4396 C 789.855 -4.52537 5.39283 0
M  V30 4397 C 789.145 -4.20027 4.08623 0
M  V30 4398 N 789.195 -2.76189 3.71603 0
M  V30 4399 H 786.356 -4.797 7.24003 0
M  V30 4400 H 786.086 -3.69856 5.84513 0
M  V30 4401 H 786.953 -6.10356 5.41441 0
M  V30 4402 P 790.915 -7.20834 5.23717 0
M  V30 4403 O 791.135 -8.66104 5.38572 0
M  V30 4404 O 791.705 -6.33544 6.1349 0
M  V30 4405 O 791.165 -6.7751 3.72168 0
M  V30 4406 C 790.225 -7.20825 2.7076 0
M  V30 4407 C 790.955 -7.45864 1.40599 0
M  V30 4408 O 791.165 -6.17651 0.734225 0
M  V30 4409 C 792.355 -8.05808 1.51899 0
M  V30 4410 O 792.745 -8.74358 0.335205 0
M  V30 4411 C 793.235 -6.83093 1.70294 0
M  V30 4412 C 792.525 -5.79992 0.836974 0
M  V30 4413 N 792.575 -4.41864 1.38293 0
M  V30 4414 C 792.495 -3.99538 2.69438 0
M  V30 4415 N 792.575 -2.69909 2.84277 0
M  V30 4416 C 792.715 -2.21719 1.5408 0
M  V30 4417 C 792.845 -0.891712 1.06628 0
M  V30 4418 O 792.865 0.161298 1.70137 0
M  V30 4419 N 792.965 -0.856846 -0.334985 0
M  V30 4420 C 792.965 -1.9641 -1.15789 0
M  V30 4421 N 793.095 -1.72708 -2.46522 0
M  V30 4422 N 792.835 -3.21165 -0.713741 0
M  V30 4423 C 792.715 -3.26797 0.639748 0
M  V30 4424 H 789.736 -8.13644 3.0377 0
M  V30 4425 H 789.466 -6.42788 2.55485 0
M  V30 4426 H 790.333 -8.12039 0.792769 0
M  V30 4427 H 792.988 -5.80061 -0.166416 0
M  V30 4428 H 793.267 -6.51287 2.75604 0
M  V30 4429 H 794.259 -7.01734 1.34462 0
M  V30 4430 H 792.425 -8.73674 2.38337 0
M  V30 4431 H 792.376 -4.68207 3.53221 0
M  V30 4432 H 793.058 0.0398818 -0.767965 0
M  V30 4433 H 793.095 -2.50995 -3.13503 0
M  V30 4434 H 793.196 -0.759148 -2.80716 0
M  V30 4435 P 794.295 -8.91 -5.6149e-12 0
M  V30 4436 O 794.515 -10.1726 -0.733694 0
M  V30 4437 O 795.085 -8.73148 1.23936 0
M  V30 4438 O 794.545 -7.66872 -0.971405 0
M  V30 4439 C 793.605 -7.42309 -2.04641 0
M  V30 4440 C 794.335 -6.86059 -3.24661 0
M  V30 4441 O 794.545 -5.42847 -3.03646 0
M  V30 4442 C 795.735 -7.41196 -3.50753 0
M  V30 4443 O 796.125 -7.27073 -4.86816 0
M  V30 4444 C 796.615 -6.5273 -2.63741 0
M  V30 4445 C 795.905 -5.1842 -2.73198 0
M  V30 4446 N 795.955 -4.38762 -1.4784 0
M  V30 4447 H 793.116 -8.36803 -2.32493 0
M  V30 4448 H 792.846 -6.70197 -1.71129 0
M  V30 4449 H 793.713 -7.03551 -4.13168 0
M  V30 4450 P 797.675 -7.20834 -5.23717 0
M  V30 4451 O 797.895 -7.79853 -6.57286 0
M  V30 4452 O 798.465 -7.79239 -4.12957 0
M  V30 4453 O 797.925 -5.63315 -5.29344 0
M  V30 4454 C 796.985 -4.80255 -6.01876 0
M  V30 4455 C 797.715 -3.64202 -6.65911 0
M  V30 4456 O 797.925 -2.60694 -5.64732 0
M  V30 4457 C 799.115 -3.93473 -7.1943 0
M  V30 4458 O 799.505 -3.02071 -8.21205 0
M  V30 4459 C 799.995 -3.73047 -5.97036 0
M  V30 4460 C 799.285 -2.58828 -5.25741 0
M  V30 4461 N 799.335 -2.68068 -3.77503 0
M  V30 4462 H 796.496 -5.40332 -6.79951 0
M  V30 4463 H 796.226 -4.41613 -5.32378 0
M  V30 4464 H 797.093 -3.26331 -7.47797 0
M  V30 4465 P 801.055 -2.75334 -8.47391 0
M  V30 4466 O 801.275 -2.44595 -9.90239 0
M  V30 4467 O 801.845 -3.87732 -7.92204 0
M  V30 4468 O 801.305 -1.4459 -7.59357 0
M  V30 4469 C 800.365 -0.347563 -7.69115 0
M  V30 4470 C 801.095 0.96767 -7.52806 0
M  V30 4471 O 801.305 1.21036 -6.1011 0
M  V30 4472 C 802.495 1.04544 -8.13308 0
M  V30 4473 O 802.885 2.38311 -8.41922 0
M  V30 4474 C 803.375 0.491279 -7.02284 0
M  V30 4475 C 802.665 0.996264 -5.77469 0
M  V30 4476 N 802.715 0.0501808 -4.62873 0
M  V30 4477 C 802.865 0.588177 -3.36904 0
M  V30 4478 O 802.955 1.78598 -3.17173 0
M  V30 4479 N 802.905 -0.329694 -2.33686 0
M  V30 4480 C 802.815 -1.6953 -2.45079 0
M  V30 4481 O 802.865 -2.41926 -1.44899 0
M  V30 4482 C 802.665 -2.16933 -3.80505 0
M  V30 4483 C 802.555 -3.65373 -3.97621 0
M  V30 4484 C 802.615 -1.30326 -4.83752 0
M  V30 4485 H 799.875 -0.374722 -8.67691 0
M  V30 4486 H 799.606 -0.443421 -6.90177 0
M  V30 4487 H 800.473 1.75537 -7.96793 0
M  V30 4488 H 803.128 1.94496 -5.46629 0
M  V30 4489 H 803.407 -0.608651 -7.04676 0
M  V30 4490 H 804.399 0.889672 -7.08939 0
M  V30 4491 H 802.565 0.43308 -9.04564 0
M  V30 4492 H 802.494 -1.68366 -5.8516 0
M  V30 4493 H 803.524 -4.05985 -4.30448 0
M  V30 4494 H 801.787 -3.88028 -4.72875 0
M  V30 4495 H 802.275 -4.11381 -3.01609 0
M  V30 4496 H 803.011 0.0393617 -1.41345 0
M  V30 4497 P 804.435 2.75334 -8.47391 0
M  V30 4498 O 804.655 3.84204 -9.44982 0
M  V30 4499 O 805.225 1.51982 -8.68909 0
M  V30 4500 O 804.685 3.29363 -6.99321 0
M  V30 4501 C 803.745 4.24066 -6.42823 0
M  V30 4502 C 804.475 5.20775 -5.52155 0
M  V30 4503 O 804.685 4.56607 -4.22514 0
M  V30 4504 C 805.875 5.62697 -5.96604 0
M  V30 4505 O 806.265 6.87667 -5.41053 0
M  V30 4506 C 806.755 4.52537 -5.39283 0
M  V30 4507 C 806.045 4.20027 -4.08623 0
M  V30 4508 N 806.095 2.76189 -3.71603 0
M  V30 4509 C 806.015 1.66944 -4.54297 0
M  V30 4510 N 806.085 0.536169 -3.91344 0
M  V30 4511 C 806.235 0.901569 -2.58849 0
M  V30 4512 C 806.365 0.146599 -1.40236 0
M  V30 4513 N 806.375 -1.18234 -1.37046 0
M  V30 4514 N 806.485 0.822941 -0.249738 0
M  V30 4515 C 806.475 2.15179 -0.280525 0
M  V30 4516 N 806.355 2.96414 -1.30822 0
M  V30 4517 C 806.235 2.25804 -2.44748 0
M  V30 4518 H 803.257 4.79756 -7.24086 0
M  V30 4519 H 802.985 3.69963 -5.84682 0
M  V30 4520 H 803.853 6.10431 -5.41508 0
M  V30 4521 H 806.508 4.78816 -3.28024 0
M  V30 4522 H 806.788 3.64957 -6.05871 0
M  V30 4523 H 807.779 4.88748 -5.21323 0
M  V30 4524 H 805.945 5.66789 -7.0643 0
M  V30 4525 H 805.904 1.74684 -5.62396 0
M  V30 4526 H 806.285 -1.71949 -2.24394 0
M  V30 4527 H 806.474 -1.67511 -0.470742 0
M  V30 4528 H 806.582 2.63704 0.6828 0
M  V30 4529 P 807.815 7.20834 -5.23717 0
M  V30 4530 O 808.035 8.66104 -5.38572 0
M  V30 4531 O 808.605 6.33544 -6.1349 0
M  V30 4532 O 808.065 6.7751 -3.72168 0
M  V30 4533 C 807.125 7.20825 -2.7076 0
M  V30 4534 C 807.855 7.45864 -1.40599 0
M  V30 4535 O 808.065 6.17651 -0.734225 0
M  V30 4536 C 809.255 8.05808 -1.51899 0
M  V30 4537 O 809.645 8.74358 -0.335205 0
M  V30 4538 C 810.135 6.83093 -1.70294 0
M  V30 4539 C 809.425 5.79992 -0.836974 0
M  V30 4540 N 809.475 4.41864 -1.38293 0
M  V30 4541 H 806.636 8.13644 -3.0377 0
M  V30 4542 H 806.366 6.42788 -2.55485 0
M  V30 4543 H 807.233 8.12039 -0.792769 0
M  V30 4544 P 811.195 8.91 5.77209e-12 0
M  V30 4545 O 811.415 10.1726 0.733694 0
M  V30 4546 O 811.985 8.73148 -1.23936 0
M  V30 4547 O 811.445 7.66872 0.971405 0
M  V30 4548 C 810.505 7.42309 2.04641 0
M  V30 4549 C 811.235 6.86059 3.24661 0
M  V30 4550 O 811.445 5.42847 3.03646 0
M  V30 4551 C 812.635 7.41196 3.50753 0
M  V30 4552 O 813.025 7.27073 4.86816 0
M  V30 4553 C 813.515 6.5273 2.63741 0
M  V30 4554 C 812.805 5.1842 2.73198 0
M  V30 4555 N 812.855 4.38762 1.4784 0
M  V30 4556 C 812.775 4.81605 0.168631 0
M  V30 4557 N 812.855 3.85454 -0.713363 0
M  V30 4558 C 812.995 2.6994 0.0566958 0
M  V30 4559 C 813.125 1.34815 -0.338502 0
M  V30 4560 N 813.245 0.496304 0.77465 0
M  V30 4561 C 813.245 0.908403 2.09122 0
M  V30 4562 N 813.375 -0.0517805 3.00955 0
M  V30 4563 N 813.115 2.17875 2.46519 0
M  V30 4564 C 812.995 3.01988 1.4033 0
M  V30 4565 H 810.016 8.36803 2.32493 0
M  V30 4566 H 809.746 6.70197 1.71129 0
M  V30 4567 H 810.613 7.03551 4.13168 0
M  V30 4568 P 814.575 7.20834 5.23717 0
M  V30 4569 O 814.795 7.79853 6.57286 0
M  V30 4570 O 815.365 7.79239 4.12957 0
M  V30 4571 O 814.825 5.63315 5.29344 0
M  V30 4572 C 813.885 4.80255 6.01876 0
M  V30 4573 C 814.615 3.64202 6.65911 0
M  V30 4574 O 814.825 2.60694 5.64732 0
M  V30 4575 C 816.015 3.93473 7.1943 0
M  V30 4576 O 816.405 3.02071 8.21205 0
M  V30 4577 C 816.895 3.73047 5.97036 0
M  V30 4578 C 816.185 2.58828 5.25741 0
M  V30 4579 N 816.235 2.68068 3.77503 0
M  V30 4580 H 813.396 5.40332 6.79951 0
M  V30 4581 H 813.126 4.41613 5.32378 0
M  V30 4582 H 813.993 3.26331 7.47797 0
M  V30 4583 P 817.955 2.75334 8.47391 0
M  V30 4584 O 818.175 2.44571 9.90142 0
M  V30 4585 O 818.745 3.87688 7.92115 0
M  V30 4586 O 818.205 1.4459 7.59357 0
M  V30 4587 C 817.265 0.347608 7.69215 0
M  V30 4588 C 817.995 -0.96767 7.52806 0
M  V30 4589 O 818.205 -1.21036 6.1011 0
M  V30 4590 C 819.395 -1.04544 8.13308 0
M  V30 4591 O 819.785 -2.38311 8.41922 0
M  V30 4592 C 820.275 -0.491279 7.02284 0
M  V30 4593 C 819.565 -0.996264 5.77469 0
M  V30 4594 N 819.615 -0.0501916 4.62973 0
M  V30 4595 H 816.776 0.374722 8.67691 0
M  V30 4596 H 816.506 0.443485 6.90277 0
M  V30 4597 H 817.373 -1.75537 7.96793 0
M  V30 4598 P 821.335 -2.75334 8.47391 0
M  V30 4599 O 821.555 -3.84128 9.44797 0
M  V30 4600 O 822.125 -1.51947 8.68712 0
M  V30 4601 O 821.585 -3.29363 6.99321 0
M  V30 4602 C 820.645 -4.24011 6.4274 0
M  V30 4603 C 821.375 -5.20775 5.52155 0
M  V30 4604 O 821.585 -4.56534 4.22446 0
M  V30 4605 C 822.775 -5.62629 5.96531 0
M  V30 4606 O 823.165 -6.87667 5.41053 0
M  V30 4607 C 823.655 -4.52537 5.39283 0
M  V30 4608 C 822.945 -4.20027 4.08623 0
M  V30 4609 N 822.995 -2.76189 3.71603 0
M  V30 4610 H 820.156 -4.797 7.24003 0
M  V30 4611 H 819.886 -3.69856 5.84513 0
M  V30 4612 H 820.753 -6.10356 5.41441 0
M  V30 4613 P 824.715 -7.20834 5.23717 0
M  V30 4614 O 824.935 -8.66274 5.38678 0
M  V30 4615 O 825.505 -6.33687 6.13629 0
M  V30 4616 O 824.965 -6.7751 3.72168 0
M  V30 4617 C 824.025 -7.20919 2.70795 0
M  V30 4618 C 824.755 -7.45864 1.40599 0
M  V30 4619 O 824.965 -6.17751 0.734343 0
M  V30 4620 C 826.155 -8.05906 1.51917 0
M  V30 4621 O 826.545 -8.74358 0.335205 0
M  V30 4622 C 827.035 -6.83093 1.70294 0
M  V30 4623 C 826.325 -5.79992 0.836974 0
M  V30 4624 N 826.375 -4.41864 1.38293 0
M  V30 4625 H 823.537 -8.13738 3.03804 0
M  V30 4626 H 823.265 -6.42974 2.55559 0
M  V30 4627 H 824.133 -8.12139 0.792866 0
M  V30 4628 H 826.788 -5.80178 -0.160643 0
M  V30 4629 H 827.068 -6.51379 2.75643 0
M  V30 4630 H 828.059 -7.01832 1.3448 0
M  V30 4631 H 826.225 -8.73771 2.38364 0
M  V30 4632 P 828.095 -8.91 -5.92927e-12 0
M  V30 4633 O 828.315 -10.1726 -0.733694 0
M  V30 4634 O 828.885 -8.73148 1.23936 0
M  V30 4635 O 828.345 -7.66872 -0.971405 0
M  V30 4636 C 827.405 -7.42309 -2.04641 0
M  V30 4637 C 828.135 -6.86059 -3.24661 0
M  V30 4638 O 828.345 -5.42847 -3.03646 0
M  V30 4639 C 829.535 -7.41196 -3.50753 0
M  V30 4640 O 829.925 -7.27073 -4.86816 0
M  V30 4641 C 830.415 -6.5273 -2.63741 0
M  V30 4642 C 829.705 -5.1842 -2.73198 0
M  V30 4643 N 829.755 -4.38762 -1.4784 0
M  V30 4644 C 829.675 -4.81605 -0.168631 0
M  V30 4645 N 829.755 -3.85454 0.713363 0
M  V30 4646 C 829.895 -2.6994 -0.0566958 0
M  V30 4647 C 830.025 -1.34815 0.338502 0
M  V30 4648 N 830.145 -0.496304 -0.77465 0
M  V30 4649 C 830.145 -0.908403 -2.09122 0
M  V30 4650 N 830.275 0.0517805 -3.00955 0
M  V30 4651 N 830.015 -2.17875 -2.46519 0
M  V30 4652 C 829.895 -3.01988 -1.4033 0
M  V30 4653 H 826.916 -8.36803 -2.32493 0
M  V30 4654 H 826.646 -6.70197 -1.71129 0
M  V30 4655 H 827.513 -7.03551 -4.13168 0
M  V30 4656 P 831.475 -7.20834 -5.23717 0
M  V30 4657 O 831.695 -7.79853 -6.57286 0
M  V30 4658 O 832.265 -7.79239 -4.12957 0
M  V30 4659 O 831.725 -5.63315 -5.29344 0
M  V30 4660 C 830.785 -4.80255 -6.01876 0
M  V30 4661 C 831.515 -3.64202 -6.65911 0
M  V30 4662 O 831.725 -2.60694 -5.64732 0
M  V30 4663 C 832.915 -3.93473 -7.1943 0
M  V30 4664 O 833.305 -3.02071 -8.21205 0
M  V30 4665 C 833.795 -3.73047 -5.97036 0
M  V30 4666 C 833.085 -2.58828 -5.25741 0
M  V30 4667 N 833.135 -2.68068 -3.77503 0
M  V30 4668 H 830.296 -5.40332 -6.79951 0
M  V30 4669 H 830.026 -4.41613 -5.32378 0
M  V30 4670 H 830.893 -3.26331 -7.47797 0
M  V30 4671 P 834.855 -2.75334 -8.47391 0
M  V30 4672 O 835.075 -2.44595 -9.90239 0
M  V30 4673 O 835.645 -3.87732 -7.92204 0
M  V30 4674 O 835.105 -1.4459 -7.59357 0
M  V30 4675 C 834.165 -0.347563 -7.69115 0
M  V30 4676 C 834.895 0.96767 -7.52806 0
M  V30 4677 O 835.105 1.21036 -6.1011 0
M  V30 4678 C 836.295 1.04544 -8.13308 0
M  V30 4679 O 836.685 2.38311 -8.41922 0
M  V30 4680 C 837.175 0.491279 -7.02284 0
M  V30 4681 C 836.465 0.996264 -5.77469 0
M  V30 4682 N 836.515 0.0501808 -4.62873 0
M  V30 4683 C 836.665 0.588177 -3.36904 0
M  V30 4684 O 836.755 1.78598 -3.17173 0
M  V30 4685 N 836.705 -0.329694 -2.33686 0
M  V30 4686 C 836.615 -1.6953 -2.45079 0
M  V30 4687 O 836.665 -2.41926 -1.44899 0
M  V30 4688 C 836.465 -2.16933 -3.80505 0
M  V30 4689 C 836.355 -3.65373 -3.97621 0
M  V30 4690 C 836.415 -1.30326 -4.83752 0
M  V30 4691 H 833.675 -0.374722 -8.67691 0
M  V30 4692 H 833.406 -0.443421 -6.90177 0
M  V30 4693 H 834.273 1.75537 -7.96793 0
M  V30 4694 H 836.928 1.94496 -5.46629 0
M  V30 4695 H 837.207 -0.608651 -7.04676 0
M  V30 4696 H 838.199 0.889672 -7.08939 0
M  V30 4697 H 836.365 0.43308 -9.04564 0
M  V30 4698 H 836.294 -1.68366 -5.8516 0
M  V30 4699 H 837.324 -4.05985 -4.30448 0
M  V30 4700 H 835.587 -3.88028 -4.72875 0
M  V30 4701 H 836.075 -4.11381 -3.01609 0
M  V30 4702 H 836.811 0.0393617 -1.41345 0
M  V30 4703 P 838.235 2.75334 -8.47391 0
M  V30 4704 O 838.455 3.84128 -9.44797 0
M  V30 4705 O 839.025 1.51947 -8.68712 0
M  V30 4706 O 838.485 3.29363 -6.99321 0
M  V30 4707 C 837.545 4.24011 -6.4274 0
M  V30 4708 C 838.275 5.20775 -5.52155 0
M  V30 4709 O 838.485 4.56534 -4.22446 0
M  V30 4710 C 839.675 5.62629 -5.96531 0
M  V30 4711 O 840.065 6.87667 -5.41053 0
M  V30 4712 C 840.555 4.52537 -5.39283 0
M  V30 4713 C 839.845 4.20027 -4.08623 0
M  V30 4714 N 839.895 2.76189 -3.71603 0
M  V30 4715 C 839.815 1.64862 -4.52822 0
M  V30 4716 N 839.895 0.512671 -3.88633 0
M  V30 4717 C 840.035 0.888083 -2.54977 0
M  V30 4718 C 840.165 0.094668 -1.38677 0
M  V30 4719 N 840.285 0.890102 -0.232633 0
M  V30 4720 C 840.285 2.26958 -0.21772 0
M  V30 4721 N 840.415 2.84626 0.97925 0
M  V30 4722 N 840.155 3.0178 -1.31033 0
M  V30 4723 C 840.035 2.26781 -2.43843 0
M  V30 4724 H 837.056 4.797 -7.24003 0
M  V30 4725 H 836.786 3.69856 -5.84513 0
M  V30 4726 H 837.653 6.10356 -5.41441 0
M  V30 4727 P 841.615 7.20834 -5.23717 0
M  V30 4728 O 841.835 8.66104 -5.38572 0
M  V30 4729 O 842.405 6.33544 -6.1349 0
M  V30 4730 O 841.865 6.7751 -3.72168 0
M  V30 4731 C 840.925 7.20825 -2.7076 0
M  V30 4732 C 841.655 7.45864 -1.40599 0
M  V30 4733 O 841.865 6.17651 -0.734225 0
M  V30 4734 C 843.055 8.05808 -1.51899 0
M  V30 4735 O 843.445 8.74358 -0.335205 0
M  V30 4736 C 843.935 6.83093 -1.70294 0
M  V30 4737 C 843.225 5.79992 -0.836974 0
M  V30 4738 N 843.275 4.41864 -1.38293 0
M  V30 4739 H 840.436 8.13644 -3.0377 0
M  V30 4740 H 840.166 6.42788 -2.55485 0
M  V30 4741 H 841.033 8.12039 -0.792769 0
M  V30 4742 P 844.995 8.91 6.08645e-12 0
M  V30 4743 O 845.215 10.1726 0.733694 0
M  V30 4744 O 845.785 8.73148 -1.23936 0
M  V30 4745 O 845.245 7.66872 0.971405 0
M  V30 4746 C 844.305 7.42309 2.04641 0
M  V30 4747 C 845.035 6.86059 3.24661 0
M  V30 4748 O 845.245 5.42847 3.03646 0
M  V30 4749 C 846.435 7.41196 3.50753 0
M  V30 4750 O 846.825 7.27073 4.86816 0
M  V30 4751 C 847.315 6.5273 2.63741 0
M  V30 4752 C 846.605 5.1842 2.73198 0
M  V30 4753 N 846.655 4.38762 1.4784 0
M  V30 4754 H 843.816 8.36803 2.32493 0
M  V30 4755 H 843.546 6.70197 1.71129 0
M  V30 4756 H 844.413 7.03551 4.13168 0
M  V30 4757 P 848.375 7.20834 5.23717 0
M  V30 4758 O 848.595 7.79853 6.57286 0
M  V30 4759 O 849.165 7.79239 4.12957 0
M  V30 4760 O 848.625 5.63315 5.29344 0
M  V30 4761 C 847.685 4.80255 6.01876 0
M  V30 4762 C 848.415 3.64202 6.65911 0
M  V30 4763 O 848.625 2.60694 5.64732 0
M  V30 4764 C 849.815 3.93473 7.1943 0
M  V30 4765 O 850.205 3.02071 8.21205 0
M  V30 4766 C 850.695 3.73047 5.97036 0
M  V30 4767 C 849.985 2.58828 5.25741 0
M  V30 4768 N 850.035 2.68068 3.77503 0
M  V30 4769 H 847.196 5.40332 6.79951 0
M  V30 4770 H 846.926 4.41613 5.32378 0
M  V30 4771 H 847.793 3.26331 7.47797 0
M  V30 4772 P 851.755 2.75334 8.47391 0
M  V30 4773 O 851.975 2.44571 9.90142 0
M  V30 4774 O 852.545 3.87688 7.92115 0
M  V30 4775 O 852.005 1.4459 7.59357 0
M  V30 4776 C 851.065 0.347608 7.69215 0
M  V30 4777 C 851.795 -0.96767 7.52806 0
M  V30 4778 O 852.005 -1.21036 6.1011 0
M  V30 4779 C 853.195 -1.04544 8.13308 0
M  V30 4780 O 853.585 -2.38311 8.41922 0
M  V30 4781 C 854.075 -0.491279 7.02284 0
M  V30 4782 C 853.365 -0.996264 5.77469 0
M  V30 4783 N 853.415 -0.0501916 4.62973 0
M  V30 4784 H 850.576 0.374722 8.67691 0
M  V30 4785 H 850.306 0.443485 6.90277 0
M  V30 4786 H 851.173 -1.75537 7.96793 0
M  V30 4787 P 855.135 -2.75334 8.47391 0
M  V30 4788 O 855.355 -3.84128 9.44797 0
M  V30 4789 O 855.925 -1.51947 8.68712 0
M  V30 4790 O 855.385 -3.29363 6.99321 0
M  V30 4791 C 854.445 -4.24011 6.4274 0
M  V30 4792 C 855.175 -5.20775 5.52155 0
M  V30 4793 O 855.385 -4.56534 4.22446 0
M  V30 4794 C 856.575 -5.62629 5.96531 0
M  V30 4795 O 856.965 -6.87667 5.41053 0
M  V30 4796 C 857.455 -4.52537 5.39283 0
M  V30 4797 C 856.745 -4.20027 4.08623 0
M  V30 4798 N 856.795 -2.76189 3.71603 0
M  V30 4799 H 853.956 -4.797 7.24003 0
M  V30 4800 H 853.686 -3.69856 5.84513 0
M  V30 4801 H 854.553 -6.10356 5.41441 0
M  V30 4802 P 858.515 -7.20834 5.23717 0
M  V30 4803 O 858.735 -8.66104 5.38572 0
M  V30 4804 O 859.305 -6.33544 6.1349 0
M  V30 4805 O 858.765 -6.7751 3.72168 0
M  V30 4806 C 857.825 -7.20825 2.7076 0
M  V30 4807 C 858.555 -7.45864 1.40599 0
M  V30 4808 O 858.765 -6.17651 0.734225 0
M  V30 4809 C 859.955 -8.05808 1.51899 0
M  V30 4810 O 860.345 -8.74358 0.335205 0
M  V30 4811 C 860.835 -6.83093 1.70294 0
M  V30 4812 C 860.125 -5.79992 0.836974 0
M  V30 4813 N 860.175 -4.41864 1.38293 0
M  V30 4814 H 857.336 -8.13644 3.0377 0
M  V30 4815 H 857.066 -6.42788 2.55485 0
M  V30 4816 H 857.933 -8.12039 0.792769 0
M  V30 4817 P 861.895 -8.91 -6.24363e-12 0
M  V30 4818 O 862.115 -10.1746 -0.733838 0
M  V30 4819 O 862.685 -8.73346 1.23964 0
M  V30 4820 O 862.145 -7.66872 -0.971405 0
M  V30 4821 C 861.205 -7.42405 -2.04668 0
M  V30 4822 C 861.935 -6.86059 -3.24661 0
M  V30 4823 O 862.145 -5.42934 -3.03695 0
M  V30 4824 C 863.335 -7.41287 -3.50796 0
M  V30 4825 O 863.725 -7.27073 -4.86816 0
M  V30 4826 C 864.215 -6.5273 -2.63741 0
M  V30 4827 C 863.505 -5.1842 -2.73198 0
M  V30 4828 N 863.555 -4.38762 -1.4784 0
M  V30 4829 H 860.717 -8.36899 -2.3252 0
M  V30 4830 H 860.445 -6.70391 -1.71179 0
M  V30 4831 H 861.313 -7.03638 -4.13219 0
M  V30 4832 H 863.968 -4.59931 -3.54016 0
M  V30 4833 H 864.248 -6.88995 -1.59871 0
M  V30 4834 H 865.239 -6.4684 -3.0373 0
M  V30 4835 H 863.405 -8.47002 -3.20749 0
M  V30 4836 P 865.275 -7.20834 -5.23717 0
M  V30 4837 O 865.495 -7.7993 -6.57351 0
M  V30 4838 O 866.065 -7.79328 -4.13004 0
M  V30 4839 O 865.525 -5.63315 -5.29344 0
M  V30 4840 C 864.585 -4.80193 -6.01798 0
M  V30 4841 C 865.315 -3.64202 -6.65911 0
M  V30 4842 O 865.525 -2.60694 -5.64732 0
M  V30 4843 C 866.715 -3.93473 -7.1943 0
M  V30 4844 O 867.105 -3.02071 -8.21205 0
M  V30 4845 C 867.595 -3.73047 -5.97036 0
M  V30 4846 C 866.885 -2.58828 -5.25741 0
M  V30 4847 N 866.935 -2.6801 -3.77422 0
M  V30 4848 C 867.085 -1.50443 -3.07133 0
M  V30 4849 O 867.175 -0.419406 -3.61576 0
M  V30 4850 N 867.125 -1.6403 -1.69677 0
M  V30 4851 C 867.035 -2.81206 -0.986255 0
M  V30 4852 C 866.885 -3.99158 -1.80325 0
M  V30 4853 C 866.835 -3.89779 -3.1476 0
M  V30 4854 H 864.095 -5.40332 -6.79951 0
M  V30 4855 H 863.826 -4.41549 -5.32301 0
M  V30 4856 H 864.693 -3.26331 -7.47797 0
M  V30 4857 H 867.348 -1.6395 -5.56554 0
M  V30 4858 H 867.627 -4.63439 -5.3432 0
M  V30 4859 H 868.619 -3.44728 -6.25838 0
M  V30 4860 H 866.785 -4.96652 -7.57263 0
M  V30 4861 H 866.714 -4.80159 -3.74441 0
M  V30 4862 P 868.655 -2.75334 -8.47391 0
M  V30 4863 O 868.875 -2.44571 -9.90142 0
M  V30 4864 O 869.445 -3.87688 -7.92115 0
M  V30 4865 O 868.905 -1.4459 -7.59357 0
M  V30 4866 C 867.965 -0.347608 -7.69215 0
M  V30 4867 C 868.695 0.96767 -7.52806 0
M  V30 4868 O 868.905 1.21036 -6.1011 0
M  V30 4869 C 870.095 1.04544 -8.13308 0
M  V30 4870 O 870.485 2.38311 -8.41922 0
M  V30 4871 C 870.975 0.491279 -7.02284 0
M  V30 4872 C 870.265 0.996264 -5.77469 0
M  V30 4873 N 870.315 0.0501916 -4.62973 0
M  V30 4874 C 870.235 -1.32786 -4.63244 0
M  V30 4875 N 870.315 -1.86957 -3.44545 0
M  V30 4876 C 870.455 -0.780241 -2.58481 0
M  V30 4877 C 870.585 -0.738536 -1.17757 0
M  V30 4878 O 870.605 -1.66794 -0.372349 0
M  V30 4879 N 870.705 0.58337 -0.711393 0
M  V30 4880 C 870.705 1.70816 -1.51017 0
M  V30 4881 N 870.835 2.87826 -0.880757 0
M  V30 4882 N 870.575 1.67126 -2.8339 0
M  V30 4883 C 870.455 0.401421 -3.30572 0
M  V30 4884 H 867.476 -0.374722 -8.67691 0
M  V30 4885 H 867.206 -0.443485 -6.90277 0
M  V30 4886 H 868.073 1.75537 -7.96793 0
M  V30 4887 H 870.728 1.95076 -5.46529 0
M  V30 4888 H 871.007 -0.608565 -7.04577 0
M  V30 4889 H 871.999 0.889672 -7.08939 0
M  V30 4890 H 870.165 0.43308 -9.04564 0
M  V30 4891 H 870.116 -1.91249 -5.54442 0
M  V30 4892 H 870.798 0.718054 0.275244 0
M  V30 4893 H 870.835 3.75721 -1.41832 0
M  V30 4894 H 870.936 2.90436 0.145468 0
M  V30 4895 P 872.035 2.75334 -8.47391 0
M  V30 4896 O 872.255 3.84128 -9.44797 0
M  V30 4897 O 872.825 1.51947 -8.68712 0
M  V30 4898 O 872.285 3.29363 -6.99321 0
M  V30 4899 C 871.345 4.24011 -6.4274 0
M  V30 4900 C 872.075 5.20775 -5.52155 0
M  V30 4901 O 872.285 4.56534 -4.22446 0
M  V30 4902 C 873.475 5.62629 -5.96531 0
M  V30 4903 O 873.865 6.87667 -5.41053 0
M  V30 4904 C 874.355 4.52537 -5.39283 0
M  V30 4905 C 873.645 4.20027 -4.08623 0
M  V30 4906 N 873.695 2.76189 -3.71603 0
M  V30 4907 H 870.856 4.797 -7.24003 0
M  V30 4908 H 870.586 3.69856 -5.84513 0
M  V30 4909 H 871.453 6.10356 -5.41441 0
M  V30 4910 P 875.415 7.20834 -5.23717 0
M  V30 4911 O 875.635 8.66104 -5.38572 0
M  V30 4912 O 876.205 6.33544 -6.1349 0
M  V30 4913 O 875.665 6.7751 -3.72168 0
M  V30 4914 C 874.725 7.20825 -2.7076 0
M  V30 4915 C 875.455 7.45864 -1.40599 0
M  V30 4916 O 875.665 6.17651 -0.734225 0
M  V30 4917 C 876.855 8.05808 -1.51899 0
M  V30 4918 O 877.245 8.74358 -0.335205 0
M  V30 4919 C 877.735 6.83093 -1.70294 0
M  V30 4920 C 877.025 5.79992 -0.836974 0
M  V30 4921 N 877.075 4.41864 -1.38293 0
M  V30 4922 C 876.995 3.99538 -2.69438 0
M  V30 4923 N 877.075 2.69909 -2.84277 0
M  V30 4924 C 877.215 2.21719 -1.5408 0
M  V30 4925 C 877.345 0.891712 -1.06628 0
M  V30 4926 N 877.465 0.856846 0.334985 0
M  V30 4927 C 877.465 1.9641 1.15789 0
M  V30 4928 N 877.595 1.72708 2.46522 0
M  V30 4929 N 877.335 3.21165 0.713741 0
M  V30 4930 C 877.215 3.26797 -0.639748 0
M  V30 4931 H 874.236 8.13644 -3.0377 0
M  V30 4932 H 873.966 6.42788 -2.55485 0
M  V30 4933 H 874.833 8.12039 -0.792769 0
M  V30 4934 P 878.795 8.91 6.40081e-12 0
M  V30 4935 O 879.015 10.1726 0.733694 0
M  V30 4936 O 879.585 8.73148 -1.23936 0
M  V30 4937 O 879.045 7.66872 0.971405 0
M  V30 4938 C 878.105 7.42309 2.04641 0
M  V30 4939 C 878.835 6.86059 3.24661 0
M  V30 4940 O 879.045 5.42847 3.03646 0
M  V30 4941 C 880.235 7.41196 3.50753 0
M  V30 4942 O 880.625 7.27073 4.86816 0
M  V30 4943 C 881.115 6.5273 2.63741 0
M  V30 4944 C 880.405 5.1842 2.73198 0
M  V30 4945 N 880.455 4.38762 1.4784 0
M  V30 4946 H 877.616 8.36803 2.32493 0
M  V30 4947 H 877.346 6.70197 1.71129 0
M  V30 4948 H 878.213 7.03551 4.13168 0
M  V30 4949 P 882.175 7.20834 5.23717 0
M  V30 4950 O 882.395 7.79853 6.57286 0
M  V30 4951 O 882.965 7.79239 4.12957 0
M  V30 4952 O 882.425 5.63315 5.29344 0
M  V30 4953 C 881.485 4.80255 6.01876 0
M  V30 4954 C 882.215 3.64202 6.65911 0
M  V30 4955 O 882.425 2.60694 5.64732 0
M  V30 4956 C 883.615 3.93473 7.1943 0
M  V30 4957 O 884.005 3.02071 8.21205 0
M  V30 4958 C 884.495 3.73047 5.97036 0
M  V30 4959 C 883.785 2.58828 5.25741 0
M  V30 4960 N 883.835 2.68068 3.77503 0
M  V30 4961 H 880.996 5.40332 6.79951 0
M  V30 4962 H 880.726 4.41613 5.32378 0
M  V30 4963 H 881.593 3.26331 7.47797 0
M  V30 4964 P 885.555 2.75334 8.47391 0
M  V30 4965 O 885.775 2.44571 9.90142 0
M  V30 4966 O 886.345 3.87688 7.92115 0
M  V30 4967 O 885.805 1.4459 7.59357 0
M  V30 4968 C 884.865 0.347608 7.69215 0
M  V30 4969 C 885.595 -0.96767 7.52806 0
M  V30 4970 O 885.805 -1.21036 6.1011 0
M  V30 4971 C 886.995 -1.04544 8.13308 0
M  V30 4972 O 887.385 -2.38311 8.41922 0
M  V30 4973 C 887.875 -0.491279 7.02284 0
M  V30 4974 C 887.165 -0.996264 5.77469 0
M  V30 4975 N 887.215 -0.0501916 4.62973 0
M  V30 4976 H 884.376 0.374722 8.67691 0
M  V30 4977 H 884.106 0.443485 6.90277 0
M  V30 4978 H 884.973 -1.75537 7.96793 0
M  V30 4979 P 888.935 -2.75334 8.47391 0
M  V30 4980 O 889.155 -3.84166 9.4489 0
M  V30 4981 O 889.725 -1.51964 8.6881 0
M  V30 4982 O 889.185 -3.29363 6.99321 0
M  V30 4983 C 888.245 -4.23956 6.42656 0
M  V30 4984 C 888.975 -5.20775 5.52155 0
M  V30 4985 O 889.185 -4.56534 4.22446 0
M  V30 4986 C 890.375 -5.62629 5.96531 0
M  V30 4987 O 890.765 -6.87667 5.41053 0
M  V30 4988 C 891.255 -4.52537 5.39283 0
M  V30 4989 C 890.545 -4.20027 4.08623 0
M  V30 4990 N 890.595 -2.7613 3.71522 0
M  V30 4991 C 890.745 -2.45612 2.37989 0
M  V30 4992 O 890.835 -3.30919 1.51621 0
M  V30 4993 N 890.785 -1.10684 2.08435 0
M  V30 4994 C 890.695 -0.0690084 2.9792 0
M  V30 4995 O 890.745 1.10553 2.59426 0
M  V30 4996 C 890.545 -0.481522 4.35345 0
M  V30 4997 C 890.435 0.618778 5.36443 0
M  V30 4998 C 890.495 -1.78906 4.67968 0
M  V30 4999 H 887.755 -4.797 7.24003 0
M  V30 5000 H 887.486 -3.69802 5.84429 0
M  V30 5001 H 888.353 -6.10356 5.41441 0
M  V30 5002 H 891.008 -4.78651 3.27911 0
M  V30 5003 H 891.287 -3.64957 6.05871 0
M  V30 5004 H 892.279 -4.8868 5.2125 0
M  V30 5005 H 890.445 -5.66726 7.06352 0
M  V30 5006 H 890.374 -2.07737 5.72367 0
M  V30 5007 H 891.404 0.754375 5.86871 0
M  V30 5008 H 889.667 0.359721 6.10641 0
M  V30 5009 H 890.155 1.55533 4.8581 0
M  V30 5010 H 890.891 -0.862651 1.12037 0
M  V30 5011 P 892.315 -7.20834 5.23717 0
M  V30 5012 O 892.535 -8.66104 5.38572 0
M  V30 5013 O 893.105 -6.33544 6.1349 0
M  V30 5014 O 892.565 -6.7751 3.72168 0
M  V30 5015 C 891.625 -7.20825 2.7076 0
M  V30 5016 C 892.355 -7.45864 1.40599 0
M  V30 5017 O 892.565 -6.17651 0.734225 0
M  V30 5018 C 893.755 -8.05808 1.51899 0
M  V30 5019 O 894.145 -8.74358 0.335205 0
M  V30 5020 C 894.635 -6.83093 1.70294 0
M  V30 5021 C 893.925 -5.79992 0.836974 0
M  V30 5022 N 893.975 -4.41864 1.38293 0
M  V30 5023 H 891.136 -8.13644 3.0377 0
M  V30 5024 H 890.866 -6.42788 2.55485 0
M  V30 5025 H 891.733 -8.12039 0.792769 0
M  V30 5026 P 895.695 -8.91 -6.558e-12 0
M  V30 5027 O 895.915 -10.1726 -0.733694 0
M  V30 5028 O 896.485 -8.73148 1.23936 0
M  V30 5029 O 895.945 -7.66872 -0.971405 0
M  V30 5030 C 895.005 -7.42309 -2.04641 0
M  V30 5031 C 895.735 -6.86059 -3.24661 0
M  V30 5032 O 895.945 -5.42847 -3.03646 0
M  V30 5033 C 897.135 -7.41196 -3.50753 0
M  V30 5034 O 897.525 -7.27073 -4.86816 0
M  V30 5035 C 898.015 -6.5273 -2.63741 0
M  V30 5036 C 897.305 -5.1842 -2.73198 0
M  V30 5037 N 897.355 -4.38762 -1.4784 0
M  V30 5038 H 894.516 -8.36803 -2.32493 0
M  V30 5039 H 894.246 -6.70197 -1.71129 0
M  V30 5040 H 895.113 -7.03551 -4.13168 0
M  V30 5041 P 899.075 -7.20834 -5.23717 0
M  V30 5042 O 899.295 -7.79853 -6.57286 0
M  V30 5043 O 899.865 -7.79239 -4.12957 0
M  V30 5044 O 899.325 -5.63315 -5.29344 0
M  V30 5045 C 898.385 -4.80255 -6.01876 0
M  V30 5046 C 899.115 -3.64202 -6.65911 0
M  V30 5047 O 899.325 -2.60694 -5.64732 0
M  V30 5048 C 900.515 -3.93473 -7.1943 0
M  V30 5049 O 900.905 -3.02071 -8.21205 0
M  V30 5050 C 901.395 -3.73047 -5.97036 0
M  V30 5051 C 900.685 -2.58828 -5.25741 0
M  V30 5052 N 900.735 -2.68068 -3.77503 0
M  V30 5053 C 900.655 -3.79715 -2.96723 0
M  V30 5054 N 900.735 -3.5377 -1.68852 0
M  V30 5055 C 900.875 -2.15054 -1.63254 0
M  V30 5056 C 901.005 -1.28964 -0.518571 0
M  V30 5057 O 901.025 -1.56826 0.679156 0
M  V30 5058 N 901.125 0.0538097 -0.918425 0
M  V30 5059 C 901.125 0.494275 -2.22578 0
M  V30 5060 N 901.255 1.81086 -2.40434 0
M  V30 5061 N 900.995 -0.313645 -3.27502 0
M  V30 5062 C 900.875 -1.61829 -2.91033 0
M  V30 5063 H 897.896 -5.40332 -6.79951 0
M  V30 5064 H 897.626 -4.41613 -5.32378 0
M  V30 5065 H 898.493 -3.26331 -7.47797 0
M  V30 5066 H 901.148 -1.63422 -5.56814 0
M  V30 5067 H 901.427 -4.63374 -5.34244 0
M  V30 5068 H 902.419 -3.44728 -6.25838 0
M  V30 5069 H 900.585 -4.96652 -7.57263 0
M  V30 5070 H 900.536 -4.80617 -3.3614 0
M  V30 5071 H 901.218 0.742702 -0.199384 0
M  V30 5072 H 901.255 2.20598 -3.35588 0
M  V30 5073 H 901.356 2.43518 -1.58945 0
M  V30 5074 P 902.455 -2.75334 -8.47391 0
M  V30 5075 O 902.675 -2.44571 -9.90142 0
M  V30 5076 O 903.245 -3.87688 -7.92115 0
M  V30 5077 O 902.705 -1.4459 -7.59357 0
M  V30 5078 C 901.765 -0.347608 -7.69215 0
M  V30 5079 C 902.495 0.96767 -7.52806 0
M  V30 5080 O 902.705 1.21036 -6.1011 0
M  V30 5081 C 903.895 1.04544 -8.13308 0
M  V30 5082 O 904.285 2.38311 -8.41922 0
M  V30 5083 C 904.775 0.491279 -7.02284 0
M  V30 5084 C 904.065 0.996264 -5.77469 0
M  V30 5085 N 904.115 0.0501916 -4.62973 0
M  V30 5086 H 901.276 -0.374722 -8.67691 0
M  V30 5087 H 901.006 -0.443485 -6.90277 0
M  V30 5088 H 901.873 1.75537 -7.96793 0
M  V30 5089 P 905.835 2.75334 -8.47391 0
M  V30 5090 O 906.055 3.84128 -9.44797 0
M  V30 5091 O 906.625 1.51947 -8.68712 0
M  V30 5092 O 906.085 3.29363 -6.99321 0
M  V30 5093 C 905.145 4.24011 -6.4274 0
M  V30 5094 C 905.875 5.20775 -5.52155 0
M  V30 5095 O 906.085 4.56534 -4.22446 0
M  V30 5096 C 907.275 5.62629 -5.96531 0
M  V30 5097 O 907.665 6.87667 -5.41053 0
M  V30 5098 C 908.155 4.52537 -5.39283 0
M  V30 5099 C 907.445 4.20027 -4.08623 0
M  V30 5100 N 907.495 2.76189 -3.71603 0
M  V30 5101 H 904.656 4.797 -7.24003 0
M  V30 5102 H 904.386 3.69856 -5.84513 0
M  V30 5103 H 905.253 6.10356 -5.41441 0
M  V30 5104 P 909.215 7.20834 -5.23717 0
M  V30 5105 O 909.435 8.66104 -5.38572 0
M  V30 5106 O 910.005 6.33544 -6.1349 0
M  V30 5107 O 909.465 6.7751 -3.72168 0
M  V30 5108 C 908.525 7.20825 -2.7076 0
M  V30 5109 C 909.255 7.45864 -1.40599 0
M  V30 5110 O 909.465 6.17651 -0.734225 0
M  V30 5111 C 910.655 8.05808 -1.51899 0
M  V30 5112 O 911.045 8.74358 -0.335205 0
M  V30 5113 C 911.535 6.83093 -1.70294 0
M  V30 5114 C 910.825 5.79992 -0.836974 0
M  V30 5115 N 910.875 4.41864 -1.38293 0
M  V30 5116 H 908.036 8.13644 -3.0377 0
M  V30 5117 H 907.766 6.42788 -2.55485 0
M  V30 5118 H 908.633 8.12039 -0.792769 0
M  V30 5119 P 912.595 8.91 6.71518e-12 0
M  V30 5120 O 912.815 10.1726 0.733694 0
M  V30 5121 O 913.385 8.73148 -1.23936 0
M  V30 5122 O 912.845 7.66872 0.971405 0
M  V30 5123 C 911.905 7.42309 2.04641 0
M  V30 5124 C 912.635 6.86059 3.24661 0
M  V30 5125 O 912.845 5.42847 3.03646 0
M  V30 5126 C 914.035 7.41196 3.50753 0
M  V30 5127 O 914.425 7.27073 4.86816 0
M  V30 5128 C 914.915 6.5273 2.63741 0
M  V30 5129 C 914.205 5.1842 2.73198 0
M  V30 5130 N 914.255 4.38762 1.4784 0
M  V30 5131 H 911.416 8.36803 2.32493 0
M  V30 5132 H 911.146 6.70197 1.71129 0
M  V30 5133 H 912.013 7.03551 4.13168 0
M  V30 5134 P 915.975 7.20834 5.23717 0
M  V30 5135 O 916.195 7.79853 6.57286 0
M  V30 5136 O 916.765 7.79239 4.12957 0
M  V30 5137 O 916.225 5.63315 5.29344 0
M  V30 5138 C 915.285 4.80255 6.01876 0
M  V30 5139 C 916.015 3.64202 6.65911 0
M  V30 5140 O 916.225 2.60694 5.64732 0
M  V30 5141 C 917.415 3.93473 7.1943 0
M  V30 5142 O 917.805 3.02071 8.21205 0
M  V30 5143 C 918.295 3.73047 5.97036 0
M  V30 5144 C 917.585 2.58828 5.25741 0
M  V30 5145 N 917.635 2.68068 3.77503 0
M  V30 5146 H 914.796 5.40332 6.79951 0
M  V30 5147 H 914.526 4.41613 5.32378 0
M  V30 5148 H 915.393 3.26331 7.47797 0
M  V30 5149 P 919.355 2.75334 8.47391 0
M  V30 5150 O 919.575 2.44595 9.90239 0
M  V30 5151 O 920.145 3.87732 7.92204 0
M  V30 5152 O 919.605 1.4459 7.59357 0
M  V30 5153 C 918.665 0.347563 7.69115 0
M  V30 5154 C 919.395 -0.96767 7.52806 0
M  V30 5155 O 919.605 -1.21036 6.1011 0
M  V30 5156 C 920.795 -1.04544 8.13308 0
M  V30 5157 O 921.185 -2.38311 8.41922 0
M  V30 5158 C 921.675 -0.491279 7.02284 0
M  V30 5159 C 920.965 -0.996264 5.77469 0
M  V30 5160 N 921.015 -0.0501808 4.62873 0
M  V30 5161 C 921.165 -0.588177 3.36904 0
M  V30 5162 O 921.255 -1.78598 3.17173 0
M  V30 5163 N 921.205 0.329694 2.33686 0
M  V30 5164 C 921.115 1.6953 2.45079 0
M  V30 5165 C 920.965 2.16933 3.80505 0
M  V30 5166 C 920.915 1.30326 4.83752 0
M  V30 5167 H 918.175 0.374722 8.67691 0
M  V30 5168 H 917.906 0.443421 6.90177 0
M  V30 5169 H 918.773 -1.75537 7.96793 0
M  V30 5170 H 921.428 -1.94496 5.46629 0
M  V30 5171 H 921.707 0.608651 7.04676 0
M  V30 5172 H 922.699 -0.889672 7.08939 0
M  V30 5173 H 920.865 -0.43308 9.04564 0
M  V30 5174 H 920.794 1.68366 5.8516 0
M  V30 5175 P 922.735 -2.75334 8.47391 0
M  V30 5176 O 922.955 -3.84128 9.44797 0
M  V30 5177 O 923.525 -1.51947 8.68712 0
M  V30 5178 O 922.985 -3.29363 6.99321 0
M  V30 5179 C 922.045 -4.24011 6.4274 0
M  V30 5180 C 922.775 -5.20775 5.52155 0
M  V30 5181 O 922.985 -4.56534 4.22446 0
M  V30 5182 C 924.175 -5.62629 5.96531 0
M  V30 5183 O 924.565 -6.87667 5.41053 0
M  V30 5184 C 925.055 -4.52537 5.39283 0
M  V30 5185 C 924.345 -4.20027 4.08623 0
M  V30 5186 N 924.395 -2.76189 3.71603 0
M  V30 5187 H 921.556 -4.797 7.24003 0
M  V30 5188 H 921.286 -3.69856 5.84513 0
M  V30 5189 H 922.153 -6.10356 5.41441 0
M  V30 5190 P 926.115 -7.20834 5.23717 0
M  V30 5191 O 926.335 -8.66104 5.38572 0
M  V30 5192 O 926.905 -6.33544 6.1349 0
M  V30 5193 O 926.365 -6.7751 3.72168 0
M  V30 5194 C 925.425 -7.20825 2.7076 0
M  V30 5195 C 926.155 -7.45864 1.40599 0
M  V30 5196 O 926.365 -6.17651 0.734225 0
M  V30 5197 C 927.555 -8.05808 1.51899 0
M  V30 5198 O 927.945 -8.74358 0.335205 0
M  V30 5199 C 928.435 -6.83093 1.70294 0
M  V30 5200 C 927.725 -5.79992 0.836974 0
M  V30 5201 N 927.775 -4.41864 1.38293 0
M  V30 5202 H 924.936 -8.13644 3.0377 0
M  V30 5203 H 924.666 -6.42788 2.55485 0
M  V30 5204 H 925.533 -8.12039 0.792769 0
M  V30 5205 P 929.495 -8.91 -6.87236e-12 0
M  V30 5206 O 929.715 -10.1726 -0.733694 0
M  V30 5207 O 930.285 -8.73148 1.23936 0
M  V30 5208 O 929.745 -7.66872 -0.971405 0
M  V30 5209 C 928.805 -7.42309 -2.04641 0
M  V30 5210 C 929.535 -6.86059 -3.24661 0
M  V30 5211 O 929.745 -5.42847 -3.03646 0
M  V30 5212 C 930.935 -7.41196 -3.50753 0
M  V30 5213 O 931.325 -7.27073 -4.86816 0
M  V30 5214 C 931.815 -6.5273 -2.63741 0
M  V30 5215 C 931.105 -5.1842 -2.73198 0
M  V30 5216 N 931.155 -4.38762 -1.4784 0
M  V30 5217 H 928.316 -8.36803 -2.32493 0
M  V30 5218 H 928.046 -6.70197 -1.71129 0
M  V30 5219 H 928.913 -7.03551 -4.13168 0
M  V30 5220 P 932.874 -7.20834 -5.23717 0
M  V30 5221 O 933.094 -7.7993 -6.57351 0
M  V30 5222 O 933.664 -7.79328 -4.13004 0
M  V30 5223 O 933.124 -5.63315 -5.29344 0
M  V30 5224 C 932.184 -4.80193 -6.01798 0
M  V30 5225 C 932.914 -3.64202 -6.65911 0
M  V30 5226 O 933.124 -2.60694 -5.64732 0
M  V30 5227 C 934.314 -3.93473 -7.1943 0
M  V30 5228 O 934.704 -3.02071 -8.21205 0
M  V30 5229 C 935.194 -3.73047 -5.97036 0
M  V30 5230 C 934.484 -2.58828 -5.25741 0
M  V30 5231 N 934.534 -2.6801 -3.77422 0
M  V30 5232 C 934.684 -1.50443 -3.07133 0
M  V30 5233 O 934.774 -0.419406 -3.61576 0
M  V30 5234 N 934.724 -1.6403 -1.69677 0
M  V30 5235 C 934.634 -2.81206 -0.986255 0
M  V30 5236 C 934.484 -3.99158 -1.80325 0
M  V30 5237 C 934.434 -3.89779 -3.1476 0
M  V30 5238 H 931.694 -5.40332 -6.79951 0
M  V30 5239 H 931.425 -4.41549 -5.32301 0
M  V30 5240 H 932.292 -3.26331 -7.47797 0
M  V30 5241 H 934.947 -1.6395 -5.56554 0
M  V30 5242 H 935.226 -4.63439 -5.3432 0
M  V30 5243 H 936.218 -3.44728 -6.25838 0
M  V30 5244 H 934.384 -4.96652 -7.57263 0
M  V30 5245 H 934.313 -4.80159 -3.74441 0
M  V30 5246 P 936.254 -2.75334 -8.47391 0
M  V30 5247 O 936.474 -2.44571 -9.90142 0
M  V30 5248 O 937.044 -3.87688 -7.92115 0
M  V30 5249 O 936.504 -1.4459 -7.59357 0
M  V30 5250 C 935.564 -0.347608 -7.69215 0
M  V30 5251 C 936.294 0.96767 -7.52806 0
M  V30 5252 O 936.504 1.21036 -6.1011 0
M  V30 5253 C 937.694 1.04544 -8.13308 0
M  V30 5254 O 938.084 2.38311 -8.41922 0
M  V30 5255 C 938.574 0.491279 -7.02284 0
M  V30 5256 C 937.864 0.996264 -5.77469 0
M  V30 5257 N 937.914 0.0501916 -4.62973 0
M  V30 5258 H 935.075 -0.374722 -8.67691 0
M  V30 5259 H 934.805 -0.443485 -6.90277 0
M  V30 5260 H 935.672 1.75537 -7.96793 0
M  V30 5261 P 939.634 2.75334 -8.47391 0
M  V30 5262 O 939.854 3.84128 -9.44797 0
M  V30 5263 O 940.424 1.51947 -8.68712 0
M  V30 5264 O 939.884 3.29363 -6.99321 0
M  V30 5265 C 938.944 4.24011 -6.4274 0
M  V30 5266 C 939.674 5.20775 -5.52155 0
M  V30 5267 O 939.884 4.56534 -4.22446 0
M  V30 5268 C 941.074 5.62629 -5.96531 0
M  V30 5269 O 941.464 6.87667 -5.41053 0
M  V30 5270 C 941.954 4.52537 -5.39283 0
M  V30 5271 C 941.244 4.20027 -4.08623 0
M  V30 5272 N 941.294 2.76189 -3.71603 0
M  V30 5273 H 938.455 4.797 -7.24003 0
M  V30 5274 H 938.185 3.69856 -5.84513 0
M  V30 5275 H 939.052 6.10356 -5.41441 0
M  V30 5276 P 943.014 7.20834 -5.23717 0
M  V30 5277 O 943.234 8.66104 -5.38572 0
M  V30 5278 O 943.804 6.33544 -6.1349 0
M  V30 5279 O 943.264 6.7751 -3.72168 0
M  V30 5280 C 942.324 7.20825 -2.7076 0
M  V30 5281 C 943.054 7.45864 -1.40599 0
M  V30 5282 O 943.264 6.17651 -0.734225 0
M  V30 5283 C 944.454 8.05808 -1.51899 0
M  V30 5284 O 944.844 8.74358 -0.335205 0
M  V30 5285 C 945.334 6.83093 -1.70294 0
M  V30 5286 C 944.624 5.79992 -0.836974 0
M  V30 5287 N 944.674 4.41864 -1.38293 0
M  V30 5288 H 941.835 8.13644 -3.0377 0
M  V30 5289 H 941.565 6.42788 -2.55485 0
M  V30 5290 H 942.432 8.12039 -0.792769 0
M  V30 5291 P 946.394 8.91 7.02954e-12 0
M  V30 5292 O 946.614 10.1726 0.733694 0
M  V30 5293 O 947.184 8.73148 -1.23936 0
M  V30 5294 O 946.644 7.66872 0.971405 0
M  V30 5295 C 945.704 7.42309 2.04641 0
M  V30 5296 C 946.434 6.86059 3.24661 0
M  V30 5297 O 946.644 5.42847 3.03646 0
M  V30 5298 C 947.834 7.41196 3.50753 0
M  V30 5299 O 948.224 7.27073 4.86816 0
M  V30 5300 C 948.714 6.5273 2.63741 0
M  V30 5301 C 948.004 5.1842 2.73198 0
M  V30 5302 N 948.054 4.38762 1.4784 0
M  V30 5303 H 945.215 8.36803 2.32493 0
M  V30 5304 H 944.945 6.70197 1.71129 0
M  V30 5305 H 945.812 7.03551 4.13168 0
M  V30 5306 P 949.774 7.20834 5.23717 0
M  V30 5307 O 949.994 7.79853 6.57286 0
M  V30 5308 O 950.564 7.79239 4.12957 0
M  V30 5309 O 950.024 5.63315 5.29344 0
M  V30 5310 C 949.084 4.80255 6.01876 0
M  V30 5311 C 949.814 3.64202 6.65911 0
M  V30 5312 O 950.024 2.60694 5.64732 0
M  V30 5313 C 951.214 3.93473 7.1943 0
M  V30 5314 O 951.604 3.02071 8.21205 0
M  V30 5315 C 952.094 3.73047 5.97036 0
M  V30 5316 C 951.384 2.58828 5.25741 0
M  V30 5317 N 951.434 2.68068 3.77503 0
M  V30 5318 H 948.595 5.40332 6.79951 0
M  V30 5319 H 948.325 4.41613 5.32378 0
M  V30 5320 H 949.192 3.26331 7.47797 0
M  V30 5321 P 953.154 2.75334 8.47391 0
M  V30 5322 O 953.374 2.44595 9.90239 0
M  V30 5323 O 953.944 3.87732 7.92204 0
M  V30 5324 O 953.404 1.4459 7.59357 0
M  V30 5325 C 952.464 0.347563 7.69115 0
M  V30 5326 C 953.194 -0.96767 7.52806 0
M  V30 5327 O 953.404 -1.21036 6.1011 0
M  V30 5328 C 954.594 -1.04544 8.13308 0
M  V30 5329 O 954.984 -2.38311 8.41922 0
M  V30 5330 C 955.474 -0.491279 7.02284 0
M  V30 5331 C 954.764 -0.996264 5.77469 0
M  V30 5332 N 954.814 -0.0501808 4.62873 0
M  V30 5333 C 954.964 -0.588177 3.36904 0
M  V30 5334 O 955.054 -1.78598 3.17173 0
M  V30 5335 N 955.004 0.329694 2.33686 0
M  V30 5336 C 954.914 1.6953 2.45079 0
M  V30 5337 O 954.964 2.41926 1.44899 0
M  V30 5338 C 954.764 2.16933 3.80505 0
M  V30 5339 C 954.654 3.65373 3.97621 0
M  V30 5340 C 954.714 1.30326 4.83752 0
M  V30 5341 H 951.974 0.374722 8.67691 0
M  V30 5342 H 951.705 0.443421 6.90177 0
M  V30 5343 H 952.572 -1.75537 7.96793 0
M  V30 5344 H 955.227 -1.94496 5.46629 0
M  V30 5345 H 955.506 0.608651 7.04676 0
M  V30 5346 H 956.498 -0.889672 7.08939 0
M  V30 5347 H 954.664 -0.43308 9.04564 0
M  V30 5348 H 954.593 1.68366 5.8516 0
M  V30 5349 H 955.623 4.05985 4.30448 0
M  V30 5350 H 953.886 3.88028 4.72875 0
M  V30 5351 H 954.374 4.11381 3.01609 0
M  V30 5352 H 955.11 -0.0393617 1.41345 0
M  V30 5353 P 956.534 -2.75334 8.47391 0
M  V30 5354 O 956.754 -3.84128 9.44797 0
M  V30 5355 O 957.324 -1.51947 8.68712 0
M  V30 5356 O 956.784 -3.29363 6.99321 0
M  V30 5357 C 955.844 -4.24011 6.4274 0
M  V30 5358 C 956.574 -5.20775 5.52155 0
M  V30 5359 O 956.784 -4.56534 4.22446 0
M  V30 5360 C 957.974 -5.62629 5.96531 0
M  V30 5361 O 958.364 -6.87667 5.41053 0
M  V30 5362 C 958.854 -4.52537 5.39283 0
M  V30 5363 C 958.144 -4.20027 4.08623 0
M  V30 5364 N 958.194 -2.76189 3.71603 0
M  V30 5365 H 955.355 -4.797 7.24003 0
M  V30 5366 H 955.085 -3.69856 5.84513 0
M  V30 5367 H 955.952 -6.10356 5.41441 0
M  V30 5368 P 959.914 -7.20834 5.23717 0
M  V30 5369 O 960.134 -8.66104 5.38572 0
M  V30 5370 O 960.704 -6.33544 6.1349 0
M  V30 5371 O 960.164 -6.7751 3.72168 0
M  V30 5372 C 959.224 -7.20825 2.7076 0
M  V30 5373 C 959.954 -7.45864 1.40599 0
M  V30 5374 O 960.164 -6.17651 0.734225 0
M  V30 5375 C 961.354 -8.05808 1.51899 0
M  V30 5376 O 961.744 -8.74358 0.335205 0
M  V30 5377 C 962.234 -6.83093 1.70294 0
M  V30 5378 C 961.524 -5.79992 0.836974 0
M  V30 5379 N 961.574 -4.41864 1.38293 0
M  V30 5380 H 958.735 -8.13644 3.0377 0
M  V30 5381 H 958.465 -6.42788 2.55485 0
M  V30 5382 H 959.332 -8.12039 0.792769 0
M  V30 5383 P 963.294 -8.91 -7.18673e-12 0
M  V30 5384 O 963.514 -10.1726 -0.733694 0
M  V30 5385 O 964.084 -8.73148 1.23936 0
M  V30 5386 O 963.544 -7.66872 -0.971405 0
M  V30 5387 C 962.604 -7.42309 -2.04641 0
M  V30 5388 C 963.334 -6.86059 -3.24661 0
M  V30 5389 O 963.544 -5.42847 -3.03646 0
M  V30 5390 C 964.734 -7.41196 -3.50753 0
M  V30 5391 O 965.124 -7.27073 -4.86816 0
M  V30 5392 C 965.614 -6.5273 -2.63741 0
M  V30 5393 C 964.904 -5.1842 -2.73198 0
M  V30 5394 N 964.954 -4.38762 -1.4784 0
M  V30 5395 H 962.115 -8.36803 -2.32493 0
M  V30 5396 H 961.845 -6.70197 -1.71129 0
M  V30 5397 H 962.712 -7.03551 -4.13168 0
M  V30 5398 P 966.674 -7.20834 -5.23717 0
M  V30 5399 O 966.894 -7.79853 -6.57286 0
M  V30 5400 O 967.464 -7.79239 -4.12957 0
M  V30 5401 O 966.924 -5.63315 -5.29344 0
M  V30 5402 C 965.984 -4.80255 -6.01876 0
M  V30 5403 C 966.714 -3.64202 -6.65911 0
M  V30 5404 O 966.924 -2.60694 -5.64732 0
M  V30 5405 C 968.114 -3.93473 -7.1943 0
M  V30 5406 O 968.504 -3.02071 -8.21205 0
M  V30 5407 C 968.994 -3.73047 -5.97036 0
M  V30 5408 C 968.284 -2.58828 -5.25741 0
M  V30 5409 N 968.334 -2.68068 -3.77503 0
M  V30 5410 H 965.495 -5.40332 -6.79951 0
M  V30 5411 H 965.225 -4.41613 -5.32378 0
M  V30 5412 H 966.092 -3.26331 -7.47797 0
M  V30 5413 P 970.054 -2.75334 -8.47391 0
M  V30 5414 O 970.274 -2.44595 -9.90239 0
M  V30 5415 O 970.844 -3.87732 -7.92204 0
M  V30 5416 O 970.304 -1.4459 -7.59357 0
M  V30 5417 C 969.364 -0.347563 -7.69115 0
M  V30 5418 C 970.094 0.96767 -7.52806 0
M  V30 5419 O 970.304 1.21036 -6.1011 0
M  V30 5420 C 971.494 1.04544 -8.13308 0
M  V30 5421 O 971.884 2.38311 -8.41922 0
M  V30 5422 C 972.374 0.491279 -7.02284 0
M  V30 5423 C 971.664 0.996264 -5.77469 0
M  V30 5424 N 971.714 0.0501808 -4.62873 0
M  V30 5425 C 971.864 0.588177 -3.36904 0
M  V30 5426 O 971.954 1.78598 -3.17173 0
M  V30 5427 N 971.904 -0.329694 -2.33686 0
M  V30 5428 C 971.814 -1.6953 -2.45079 0
M  V30 5429 C 971.664 -2.16933 -3.80505 0
M  V30 5430 C 971.614 -1.30326 -4.83752 0
M  V30 5431 H 968.874 -0.374722 -8.67691 0
M  V30 5432 H 968.605 -0.443421 -6.90177 0
M  V30 5433 H 969.472 1.75537 -7.96793 0
M  V30 5434 H 972.127 1.94496 -5.46629 0
M  V30 5435 H 972.406 -0.608651 -7.04676 0
M  V30 5436 H 973.398 0.889672 -7.08939 0
M  V30 5437 H 971.564 0.43308 -9.04564 0
M  V30 5438 H 971.493 -1.68366 -5.8516 0
M  V30 5439 P 973.434 2.75334 -8.47391 0
M  V30 5440 O 973.654 3.84128 -9.44797 0
M  V30 5441 O 974.224 1.51947 -8.68712 0
M  V30 5442 O 973.684 3.29363 -6.99321 0
M  V30 5443 C 972.744 4.24011 -6.4274 0
M  V30 5444 C 973.474 5.20775 -5.52155 0
M  V30 5445 O 973.684 4.56534 -4.22446 0
M  V30 5446 C 974.874 5.62629 -5.96531 0
M  V30 5447 O 975.264 6.87667 -5.41053 0
M  V30 5448 C 975.754 4.52537 -5.39283 0
M  V30 5449 C 975.044 4.20027 -4.08623 0
M  V30 5450 N 975.094 2.76189 -3.71603 0
M  V30 5451 H 972.255 4.797 -7.24003 0
M  V30 5452 H 971.985 3.69856 -5.84513 0
M  V30 5453 H 972.852 6.10356 -5.41441 0
M  V30 5454 P 976.814 7.20834 -5.23717 0
M  V30 5455 O 977.034 8.66104 -5.38572 0
M  V30 5456 O 977.604 6.33544 -6.1349 0
M  V30 5457 O 977.064 6.7751 -3.72168 0
M  V30 5458 C 976.124 7.20825 -2.7076 0
M  V30 5459 C 976.854 7.45864 -1.40599 0
M  V30 5460 O 977.064 6.17651 -0.734225 0
M  V30 5461 C 978.254 8.05808 -1.51899 0
M  V30 5462 O 978.644 8.74358 -0.335205 0
M  V30 5463 C 979.134 6.83093 -1.70294 0
M  V30 5464 C 978.424 5.79992 -0.836974 0
M  V30 5465 N 978.474 4.41864 -1.38293 0
M  V30 5466 H 975.635 8.13644 -3.0377 0
M  V30 5467 H 975.365 6.42788 -2.55485 0
M  V30 5468 H 976.232 8.12039 -0.792769 0
M  V30 5469 P 980.194 8.91 7.34391e-12 0
M  V30 5470 O 980.414 10.1726 0.733694 0
M  V30 5471 O 980.984 8.73148 -1.23936 0
M  V30 5472 O 980.444 7.66872 0.971405 0
M  V30 5473 C 979.504 7.42309 2.04641 0
M  V30 5474 C 980.234 6.86059 3.24661 0
M  V30 5475 O 980.444 5.42847 3.03646 0
M  V30 5476 C 981.634 7.41196 3.50753 0
M  V30 5477 O 982.024 7.27073 4.86816 0
M  V30 5478 C 982.514 6.5273 2.63741 0
M  V30 5479 C 981.804 5.1842 2.73198 0
M  V30 5480 N 981.854 4.38762 1.4784 0
M  V30 5481 H 979.015 8.36803 2.32493 0
M  V30 5482 H 978.745 6.70197 1.71129 0
M  V30 5483 H 979.612 7.03551 4.13168 0
M  V30 5484 P 983.574 7.20834 5.23717 0
M  V30 5485 O 983.794 7.7993 6.57351 0
M  V30 5486 O 984.364 7.79328 4.13004 0
M  V30 5487 O 983.824 5.63315 5.29344 0
M  V30 5488 C 982.884 4.80193 6.01798 0
M  V30 5489 C 983.614 3.64202 6.65911 0
M  V30 5490 O 983.824 2.60694 5.64732 0
M  V30 5491 C 985.014 3.93473 7.1943 0
M  V30 5492 O 985.404 3.02071 8.21205 0
M  V30 5493 C 985.894 3.73047 5.97036 0
M  V30 5494 C 985.184 2.58828 5.25741 0
M  V30 5495 N 985.234 2.6801 3.77422 0
M  V30 5496 C 985.384 1.50443 3.07133 0
M  V30 5497 O 985.474 0.419406 3.61576 0
M  V30 5498 N 985.424 1.6403 1.69677 0
M  V30 5499 C 985.334 2.81206 0.986255 0
M  V30 5500 C 985.184 3.99158 1.80325 0
M  V30 5501 C 985.134 3.89779 3.1476 0
M  V30 5502 H 982.394 5.40332 6.79951 0
M  V30 5503 H 982.125 4.41549 5.32301 0
M  V30 5504 H 982.992 3.26331 7.47797 0
M  V30 5505 H 985.647 1.6395 5.56554 0
M  V30 5506 H 985.926 4.63439 5.3432 0
M  V30 5507 H 986.918 3.44728 6.25838 0
M  V30 5508 H 985.084 4.96652 7.57263 0
M  V30 5509 H 985.013 4.80159 3.74441 0
M  V30 5510 P 986.954 2.75334 8.47391 0
M  V30 5511 O 987.174 2.44571 9.90142 0
M  V30 5512 O 987.744 3.87688 7.92115 0
M  V30 5513 O 987.204 1.4459 7.59357 0
M  V30 5514 C 986.264 0.347608 7.69215 0
M  V30 5515 C 986.994 -0.96767 7.52806 0
M  V30 5516 O 987.204 -1.21036 6.1011 0
M  V30 5517 C 988.394 -1.04544 8.13308 0
M  V30 5518 O 988.784 -2.38311 8.41922 0
M  V30 5519 C 989.274 -0.491279 7.02284 0
M  V30 5520 C 988.564 -0.996264 5.77469 0
M  V30 5521 N 988.614 -0.0501916 4.62973 0
M  V30 5522 H 985.775 0.374722 8.67691 0
M  V30 5523 H 985.505 0.443485 6.90277 0
M  V30 5524 H 986.372 -1.75537 7.96793 0
M  V30 5525 P 990.334 -2.75334 8.47391 0
M  V30 5526 O 990.554 -3.84128 9.44797 0
M  V30 5527 O 991.124 -1.51947 8.68712 0
M  V30 5528 O 990.584 -3.29363 6.99321 0
M  V30 5529 C 989.644 -4.24011 6.4274 0
M  V30 5530 C 990.374 -5.20775 5.52155 0
M  V30 5531 O 990.584 -4.56534 4.22446 0
M  V30 5532 C 991.774 -5.62629 5.96531 0
M  V30 5533 O 992.164 -6.87667 5.41053 0
M  V30 5534 C 992.654 -4.52537 5.39283 0
M  V30 5535 C 991.944 -4.20027 4.08623 0
M  V30 5536 N 991.994 -2.76189 3.71603 0
M  V30 5537 H 989.155 -4.797 7.24003 0
M  V30 5538 H 988.885 -3.69856 5.84513 0
M  V30 5539 H 989.752 -6.10356 5.41441 0
M  V30 5540 P 993.714 -7.20834 5.23717 0
M  V30 5541 O 993.934 -8.66104 5.38572 0
M  V30 5542 O 994.504 -6.33544 6.1349 0
M  V30 5543 O 993.964 -6.7751 3.72168 0
M  V30 5544 C 993.024 -7.20825 2.7076 0
M  V30 5545 C 993.754 -7.45864 1.40599 0
M  V30 5546 O 993.964 -6.17651 0.734225 0
M  V30 5547 C 995.154 -8.05808 1.51899 0
M  V30 5548 O 995.544 -8.74358 0.335205 0
M  V30 5549 C 996.034 -6.83093 1.70294 0
M  V30 5550 C 995.324 -5.79992 0.836974 0
M  V30 5551 N 995.374 -4.41864 1.38293 0
M  V30 5552 H 992.535 -8.13644 3.0377 0
M  V30 5553 H 992.265 -6.42788 2.55485 0
M  V30 5554 H 993.132 -8.12039 0.792769 0
M  V30 5555 P 997.094 -8.91 -7.50109e-12 0
M  V30 5556 O 997.314 -10.1726 -0.733694 0
M  V30 5557 O 997.884 -8.73148 1.23936 0
M  V30 5558 O 997.344 -7.66872 -0.971405 0
M  V30 5559 C 996.404 -7.42309 -2.04641 0
M  V30 5560 C 997.134 -6.86059 -3.24661 0
M  V30 5561 O 997.344 -5.42847 -3.03646 0
M  V30 5562 C 998.534 -7.41196 -3.50753 0
M  V30 5563 O 998.924 -7.27073 -4.86816 0
M  V30 5564 C 999.414 -6.5273 -2.63741 0
M  V30 5565 C 998.704 -5.1842 -2.73198 0
M  V30 5566 N 998.754 -4.38762 -1.4784 0
M  V30 5567 H 995.915 -8.36803 -2.32493 0
M  V30 5568 H 995.645 -6.70197 -1.71129 0
M  V30 5569 H 996.512 -7.03551 -4.13168 0
M  V30 5570 P 1000.47 -7.20834 -5.23717 0
M  V30 5571 O 1000.69 -7.79853 -6.57286 0
M  V30 5572 O 1001.26 -7.79239 -4.12957 0
M  V30 5573 O 1000.72 -5.63315 -5.29344 0
M  V30 5574 C 999.784 -4.80255 -6.01876 0
M  V30 5575 C 1000.51 -3.64202 -6.65911 0
M  V30 5576 O 1000.72 -2.60694 -5.64732 0
M  V30 5577 C 1001.91 -3.93473 -7.1943 0
M  V30 5578 O 1002.3 -3.02071 -8.21205 0
M  V30 5579 C 1002.79 -3.73047 -5.97036 0
M  V30 5580 C 1002.08 -2.58828 -5.25741 0
M  V30 5581 N 1002.13 -2.68068 -3.77503 0
M  V30 5582 H 999.295 -5.40332 -6.79951 0
M  V30 5583 H 999.025 -4.41613 -5.32378 0
M  V30 5584 H 999.892 -3.26331 -7.47797 0
M  V30 5585 P 1003.85 -2.75334 -8.47391 0
M  V30 5586 O 1004.07 -2.44571 -9.90142 0
M  V30 5587 O 1004.64 -3.87688 -7.92115 0
M  V30 5588 O 1004.1 -1.4459 -7.59357 0
M  V30 5589 C 1003.16 -0.347608 -7.69215 0
M  V30 5590 C 1003.89 0.96767 -7.52806 0
M  V30 5591 O 1004.1 1.21036 -6.1011 0
M  V30 5592 C 1005.29 1.04544 -8.13308 0
M  V30 5593 O 1005.68 2.38311 -8.41922 0
M  V30 5594 C 1006.17 0.491279 -7.02284 0
M  V30 5595 C 1005.46 0.996264 -5.77469 0
M  V30 5596 N 1005.51 0.0501916 -4.62973 0
M  V30 5597 H 1002.68 -0.374722 -8.67691 0
M  V30 5598 H 1002.41 -0.443485 -6.90277 0
M  V30 5599 H 1003.27 1.75537 -7.96793 0
M  V30 5600 P 1007.23 2.75334 -8.47391 0
M  V30 5601 O 1007.45 3.84128 -9.44797 0
M  V30 5602 O 1008.02 1.51947 -8.68712 0
M  V30 5603 O 1007.48 3.29363 -6.99321 0
M  V30 5604 C 1006.54 4.24011 -6.4274 0
M  V30 5605 C 1007.27 5.20775 -5.52155 0
M  V30 5606 O 1007.48 4.56534 -4.22446 0
M  V30 5607 C 1008.67 5.62629 -5.96531 0
M  V30 5608 O 1009.06 6.87667 -5.41053 0
M  V30 5609 C 1009.55 4.52537 -5.39283 0
M  V30 5610 C 1008.84 4.20027 -4.08623 0
M  V30 5611 N 1008.89 2.76189 -3.71603 0
M  V30 5612 H 1006.06 4.797 -7.24003 0
M  V30 5613 H 1005.79 3.69856 -5.84513 0
M  V30 5614 H 1006.65 6.10356 -5.41441 0
M  V30 5615 P 1010.61 7.20834 -5.23717 0
M  V30 5616 O 1010.83 8.66104 -5.38572 0
M  V30 5617 O 1011.4 6.33544 -6.1349 0
M  V30 5618 O 1010.86 6.7751 -3.72168 0
M  V30 5619 C 1009.92 7.20825 -2.7076 0
M  V30 5620 C 1010.65 7.45864 -1.40599 0
M  V30 5621 O 1010.86 6.17651 -0.734225 0
M  V30 5622 C 1012.05 8.05808 -1.51899 0
M  V30 5623 O 1012.44 8.74358 -0.335205 0
M  V30 5624 C 1012.93 6.83093 -1.70294 0
M  V30 5625 C 1012.22 5.79992 -0.836974 0
M  V30 5626 N 1012.27 4.41864 -1.38293 0
M  V30 5627 H 1009.44 8.13644 -3.0377 0
M  V30 5628 H 1009.17 6.42788 -2.55485 0
M  V30 5629 H 1010.03 8.12039 -0.792769 0
M  V30 5630 P 1013.99 8.91 7.65827e-12 0
M  V30 5631 O 1014.21 10.1726 0.733694 0
M  V30 5632 O 1014.78 8.73148 -1.23936 0
M  V30 5633 O 1014.24 7.66872 0.971405 0
M  V30 5634 C 1013.3 7.42309 2.04641 0
M  V30 5635 C 1014.03 6.86059 3.24661 0
M  V30 5636 O 1014.24 5.42847 3.03646 0
M  V30 5637 C 1015.43 7.41196 3.50753 0
M  V30 5638 O 1015.82 7.27073 4.86816 0
M  V30 5639 C 1016.31 6.5273 2.63741 0
M  V30 5640 C 1015.6 5.1842 2.73198 0
M  V30 5641 N 1015.65 4.38762 1.4784 0
M  V30 5642 C 1015.57 4.81605 0.168631 0
M  V30 5643 N 1015.65 3.85454 -0.713363 0
M  V30 5644 C 1015.79 2.6994 0.0566958 0
M  V30 5645 C 1015.92 1.34815 -0.338502 0
M  V30 5646 O 1015.94 0.869548 -1.47125 0
M  V30 5647 N 1016.04 0.496304 0.77465 0
M  V30 5648 C 1016.04 0.908403 2.09122 0
M  V30 5649 N 1016.17 -0.0517805 3.00955 0
M  V30 5650 N 1015.91 2.17875 2.46519 0
M  V30 5651 C 1015.79 3.01988 1.4033 0
M  V30 5652 H 1012.82 8.36803 2.32493 0
M  V30 5653 H 1012.55 6.70197 1.71129 0
M  V30 5654 H 1013.41 7.03551 4.13168 0
M  V30 5655 H 1016.07 4.59498 3.54415 0
M  V30 5656 H 1016.35 6.88898 1.59848 0
M  V30 5657 H 1017.34 6.46749 3.03687 0
M  V30 5658 H 1015.5 8.46908 3.20714 0
M  V30 5659 H 1015.46 5.86405 -0.105564 0
M  V30 5660 H 1016.14 -0.483664 0.597855 0
M  V30 5661 H 1016.17 0.187865 4.0116 0
M  V30 5662 H 1016.28 -1.03585 2.71726 0
M  V30 5663 P 1017.37 7.20834 5.23717 0
M  V30 5664 O 1017.59 7.79853 6.57286 0
M  V30 5665 O 1018.16 7.79239 4.12957 0
M  V30 5666 O 1017.62 5.63315 5.29344 0
M  V30 5667 C 1016.68 4.80255 6.01876 0
M  V30 5668 C 1017.41 3.64202 6.65911 0
M  V30 5669 O 1017.62 2.60694 5.64732 0
M  V30 5670 C 1018.81 3.93473 7.1943 0
M  V30 5671 O 1019.2 3.02071 8.21205 0
M  V30 5672 C 1019.69 3.73047 5.97036 0
M  V30 5673 C 1018.98 2.58828 5.25741 0
M  V30 5674 N 1019.03 2.68068 3.77503 0
M  V30 5675 H 1016.19 5.40332 6.79951 0
M  V30 5676 H 1015.92 4.41613 5.32378 0
M  V30 5677 H 1016.79 3.26331 7.47797 0
M  V30 5678 P 1020.75 2.75334 8.47391 0
M  V30 5679 O 1020.97 2.44571 9.90142 0
M  V30 5680 O 1021.54 3.87688 7.92115 0
M  V30 5681 O 1021 1.4459 7.59357 0
M  V30 5682 C 1020.06 0.347608 7.69215 0
M  V30 5683 C 1020.79 -0.96767 7.52806 0
M  V30 5684 O 1021 -1.21036 6.1011 0
M  V30 5685 C 1022.19 -1.04544 8.13308 0
M  V30 5686 O 1022.58 -2.38311 8.41922 0
M  V30 5687 C 1023.07 -0.491279 7.02284 0
M  V30 5688 C 1022.36 -0.996264 5.77469 0
M  V30 5689 N 1022.41 -0.0501916 4.62973 0
M  V30 5690 H 1019.57 0.374722 8.67691 0
M  V30 5691 H 1019.3 0.443485 6.90277 0
M  V30 5692 H 1020.17 -1.75537 7.96793 0
M  V30 5693 P 1024.13 -2.75334 8.47391 0
M  V30 5694 O 1024.35 -3.84128 9.44797 0
M  V30 5695 O 1024.92 -1.51947 8.68712 0
M  V30 5696 O 1024.38 -3.29363 6.99321 0
M  V30 5697 C 1023.44 -4.24011 6.4274 0
M  V30 5698 C 1024.17 -5.20775 5.52155 0
M  V30 5699 O 1024.38 -4.56534 4.22446 0
M  V30 5700 C 1025.57 -5.62629 5.96531 0
M  V30 5701 O 1025.96 -6.87667 5.41053 0
M  V30 5702 C 1026.45 -4.52537 5.39283 0
M  V30 5703 C 1025.74 -4.20027 4.08623 0
M  V30 5704 N 1025.79 -2.76189 3.71603 0
M  V30 5705 H 1022.95 -4.797 7.24003 0
M  V30 5706 H 1022.68 -3.69856 5.84513 0
M  V30 5707 H 1023.55 -6.10356 5.41441 0
M  V30 5708 P 1027.51 -7.20834 5.23717 0
M  V30 5709 O 1027.73 -8.66189 5.38625 0
M  V30 5710 O 1028.3 -6.33615 6.1356 0
M  V30 5711 O 1027.76 -6.7751 3.72168 0
M  V30 5712 C 1026.82 -7.20732 2.70725 0
M  V30 5713 C 1027.55 -7.45864 1.40599 0
M  V30 5714 O 1027.76 -6.17651 0.734225 0
M  V30 5715 C 1028.95 -8.05808 1.51899 0
M  V30 5716 O 1029.34 -8.74358 0.335205 0
M  V30 5717 C 1029.83 -6.83093 1.70294 0
M  V30 5718 C 1029.12 -5.79992 0.836974 0
M  V30 5719 N 1029.17 -4.41769 1.38263 0
M  V30 5720 C 1029.32 -3.38591 0.481702 0
M  V30 5721 O 1029.41 -3.56839 -0.718452 0
M  V30 5722 N 1029.36 -2.1206 1.03569 0
M  V30 5723 C 1029.27 -1.80696 2.36966 0
M  V30 5724 C 1029.12 -2.94845 3.23898 0
M  V30 5725 C 1029.07 -4.19803 2.73435 0
M  V30 5726 H 1026.33 -8.13644 3.0377 0
M  V30 5727 H 1026.06 -6.42695 2.55448 0
M  V30 5728 H 1026.93 -8.12039 0.792769 0
M  V30 5729 H 1029.59 -5.79978 -0.160587 0
M  V30 5730 H 1029.87 -6.51379 2.75643 0
M  V30 5731 H 1030.86 -7.01734 1.34462 0
M  V30 5732 H 1029.02 -8.73674 2.38337 0
M  V30 5733 H 1028.95 -5.04492 3.4095 0
M  V30 5734 P 1030.89 -8.91 -7.81545e-12 0
M  V30 5735 O 1031.11 -10.1726 -0.733694 0
M  V30 5736 O 1031.68 -8.73148 1.23936 0
M  V30 5737 O 1031.14 -7.66872 -0.971405 0
M  V30 5738 C 1030.2 -7.42309 -2.04641 0
M  V30 5739 C 1030.93 -6.86059 -3.24661 0
M  V30 5740 O 1031.14 -5.42847 -3.03646 0
M  V30 5741 C 1032.33 -7.41196 -3.50753 0
M  V30 5742 O 1032.72 -7.27073 -4.86816 0
M  V30 5743 C 1033.21 -6.5273 -2.63741 0
M  V30 5744 C 1032.5 -5.1842 -2.73198 0
M  V30 5745 N 1032.55 -4.38762 -1.4784 0
M  V30 5746 H 1029.71 -8.36803 -2.32493 0
M  V30 5747 H 1029.44 -6.70197 -1.71129 0
M  V30 5748 H 1030.31 -7.03551 -4.13168 0
M  V30 5749 P 1034.27 -7.20834 -5.23717 0
M  V30 5750 O 1034.49 -7.79853 -6.57286 0
M  V30 5751 O 1035.06 -7.79239 -4.12957 0
M  V30 5752 O 1034.52 -5.63315 -5.29344 0
M  V30 5753 C 1033.58 -4.80255 -6.01876 0
M  V30 5754 C 1034.31 -3.64202 -6.65911 0
M  V30 5755 O 1034.52 -2.60694 -5.64732 0
M  V30 5756 C 1035.71 -3.93473 -7.1943 0
M  V30 5757 O 1036.1 -3.02071 -8.21205 0
M  V30 5758 C 1036.59 -3.73047 -5.97036 0
M  V30 5759 C 1035.88 -2.58828 -5.25741 0
M  V30 5760 N 1035.93 -2.68068 -3.77503 0
M  V30 5761 C 1035.85 -3.79715 -2.96723 0
M  V30 5762 N 1035.93 -3.5377 -1.68852 0
M  V30 5763 C 1036.07 -2.15054 -1.63254 0
M  V30 5764 C 1036.2 -1.28964 -0.518571 0
M  V30 5765 O 1036.22 -1.56826 0.679156 0
M  V30 5766 N 1036.32 0.0538097 -0.918425 0
M  V30 5767 C 1036.32 0.494275 -2.22578 0
M  V30 5768 N 1036.45 1.81086 -2.40434 0
M  V30 5769 N 1036.19 -0.313645 -3.27502 0
M  V30 5770 C 1036.07 -1.61829 -2.91033 0
M  V30 5771 H 1033.09 -5.40332 -6.79951 0
M  V30 5772 H 1032.82 -4.41613 -5.32378 0
M  V30 5773 H 1033.69 -3.26331 -7.47797 0
M  V30 5774 H 1036.35 -1.63422 -5.56814 0
M  V30 5775 H 1036.63 -4.63374 -5.34244 0
M  V30 5776 H 1037.62 -3.44728 -6.25838 0
M  V30 5777 H 1035.78 -4.96652 -7.57263 0
M  V30 5778 H 1035.73 -4.80617 -3.3614 0
M  V30 5779 H 1036.42 0.742702 -0.199384 0
M  V30 5780 H 1036.45 2.20598 -3.35588 0
M  V30 5781 H 1036.55 2.43518 -1.58945 0
M  V30 5782 P 1037.65 -2.75334 -8.47391 0
M  V30 5783 O 1037.87 -2.44571 -9.90142 0
M  V30 5784 O 1038.44 -3.87688 -7.92115 0
M  V30 5785 O 1037.9 -1.4459 -7.59357 0
M  V30 5786 C 1036.96 -0.347608 -7.69215 0
M  V30 5787 C 1037.69 0.96767 -7.52806 0
M  V30 5788 O 1037.9 1.21036 -6.1011 0
M  V30 5789 C 1039.09 1.04544 -8.13308 0
M  V30 5790 O 1039.48 2.38311 -8.41922 0
M  V30 5791 C 1039.97 0.491279 -7.02284 0
M  V30 5792 C 1039.26 0.996264 -5.77469 0
M  V30 5793 N 1039.31 0.0501916 -4.62973 0
M  V30 5794 H 1036.47 -0.374722 -8.67691 0
M  V30 5795 H 1036.2 -0.443485 -6.90277 0
M  V30 5796 H 1037.07 1.75537 -7.96793 0
M  V30 5797 P 1041.03 2.75334 -8.47391 0
M  V30 5798 O 1041.25 3.84128 -9.44797 0
M  V30 5799 O 1041.82 1.51947 -8.68712 0
M  V30 5800 O 1041.28 3.29363 -6.99321 0
M  V30 5801 C 1040.34 4.24011 -6.4274 0
M  V30 5802 C 1041.07 5.20775 -5.52155 0
M  V30 5803 O 1041.28 4.56534 -4.22446 0
M  V30 5804 C 1042.47 5.62629 -5.96531 0
M  V30 5805 O 1042.86 6.87667 -5.41053 0
M  V30 5806 C 1043.35 4.52537 -5.39283 0
M  V30 5807 C 1042.64 4.20027 -4.08623 0
M  V30 5808 N 1042.69 2.76189 -3.71603 0
M  V30 5809 H 1039.85 4.797 -7.24003 0
M  V30 5810 H 1039.58 3.69856 -5.84513 0
M  V30 5811 H 1040.45 6.10356 -5.41441 0
M  V30 5812 P 1044.41 7.20834 -5.23717 0
M  V30 5813 O 1044.63 8.66104 -5.38572 0
M  V30 5814 O 1045.2 6.33544 -6.1349 0
M  V30 5815 O 1044.66 6.7751 -3.72168 0
M  V30 5816 C 1043.72 7.20825 -2.7076 0
M  V30 5817 C 1044.45 7.45864 -1.40599 0
M  V30 5818 O 1044.66 6.17651 -0.734225 0
M  V30 5819 C 1045.85 8.05808 -1.51899 0
M  V30 5820 O 1046.24 8.74358 -0.335205 0
M  V30 5821 C 1046.73 6.83093 -1.70294 0
M  V30 5822 C 1046.02 5.79992 -0.836974 0
M  V30 5823 N 1046.07 4.41864 -1.38293 0
M  V30 5824 H 1043.23 8.13644 -3.0377 0
M  V30 5825 H 1042.96 6.42788 -2.55485 0
M  V30 5826 H 1043.83 8.12039 -0.792769 0
M  V30 5827 P 1047.79 8.91 7.97264e-12 0
M  V30 5828 O 1048.01 10.1726 0.733694 0
M  V30 5829 O 1048.58 8.73148 -1.23936 0
M  V30 5830 O 1048.04 7.66872 0.971405 0
M  V30 5831 C 1047.1 7.42309 2.04641 0
M  V30 5832 C 1047.83 6.86059 3.24661 0
M  V30 5833 O 1048.04 5.42847 3.03646 0
M  V30 5834 C 1049.23 7.41196 3.50753 0
M  V30 5835 O 1049.62 7.27073 4.86816 0
M  V30 5836 C 1050.11 6.5273 2.63741 0
M  V30 5837 C 1049.4 5.1842 2.73198 0
M  V30 5838 N 1049.45 4.38762 1.4784 0
M  V30 5839 H 1046.61 8.36803 2.32493 0
M  V30 5840 H 1046.34 6.70197 1.71129 0
M  V30 5841 H 1047.21 7.03551 4.13168 0
M  V30 5842 P 1051.17 7.20834 5.23717 0
M  V30 5843 O 1051.39 7.79853 6.57286 0
M  V30 5844 O 1051.96 7.79239 4.12957 0
M  V30 5845 O 1051.42 5.63315 5.29344 0
M  V30 5846 C 1050.48 4.80255 6.01876 0
M  V30 5847 C 1051.21 3.64202 6.65911 0
M  V30 5848 O 1051.42 2.60694 5.64732 0
M  V30 5849 C 1052.61 3.93473 7.1943 0
M  V30 5850 O 1053 3.02071 8.21205 0
M  V30 5851 C 1053.49 3.73047 5.97036 0
M  V30 5852 C 1052.78 2.58828 5.25741 0
M  V30 5853 N 1052.83 2.68068 3.77503 0
M  V30 5854 H 1049.99 5.40332 6.79951 0
M  V30 5855 H 1049.72 4.41613 5.32378 0
M  V30 5856 H 1050.59 3.26331 7.47797 0
M  V30 5857 P 1054.55 2.75334 8.47391 0
M  V30 5858 O 1054.77 2.44571 9.90142 0
M  V30 5859 O 1055.34 3.87688 7.92115 0
M  V30 5860 O 1054.8 1.4459 7.59357 0
M  V30 5861 C 1053.86 0.347608 7.69215 0
M  V30 5862 C 1054.59 -0.96767 7.52806 0
M  V30 5863 O 1054.8 -1.21036 6.1011 0
M  V30 5864 C 1055.99 -1.04544 8.13308 0
M  V30 5865 O 1056.38 -2.38311 8.41922 0
M  V30 5866 C 1056.87 -0.491279 7.02284 0
M  V30 5867 C 1056.16 -0.996264 5.77469 0
M  V30 5868 N 1056.21 -0.0501916 4.62973 0
M  V30 5869 C 1056.13 1.32786 4.63244 0
M  V30 5870 N 1056.21 1.86957 3.44545 0
M  V30 5871 C 1056.35 0.780241 2.58481 0
M  V30 5872 C 1056.48 0.738536 1.17757 0
M  V30 5873 N 1056.6 -0.58337 0.711393 0
M  V30 5874 C 1056.6 -1.70816 1.51017 0
M  V30 5875 N 1056.73 -2.87826 0.880757 0
M  V30 5876 N 1056.47 -1.67126 2.8339 0
M  V30 5877 C 1056.35 -0.401421 3.30572 0
M  V30 5878 H 1053.37 0.374722 8.67691 0
M  V30 5879 H 1053.1 0.443485 6.90277 0
M  V30 5880 H 1053.97 -1.75537 7.96793 0
M  V30 5881 P 1057.93 -2.75334 8.47391 0
M  V30 5882 O 1058.15 -3.84128 9.44797 0
M  V30 5883 O 1058.72 -1.51947 8.68712 0
M  V30 5884 O 1058.18 -3.29363 6.99321 0
M  V30 5885 C 1057.24 -4.24011 6.4274 0
M  V30 5886 C 1057.97 -5.20775 5.52155 0
M  V30 5887 O 1058.18 -4.56534 4.22446 0
M  V30 5888 C 1059.37 -5.62629 5.96531 0
M  V30 5889 O 1059.76 -6.87667 5.41053 0
M  V30 5890 C 1060.25 -4.52537 5.39283 0
M  V30 5891 C 1059.54 -4.20027 4.08623 0
M  V30 5892 N 1059.59 -2.76189 3.71603 0
M  V30 5893 H 1056.75 -4.797 7.24003 0
M  V30 5894 H 1056.48 -3.69856 5.84513 0
M  V30 5895 H 1057.35 -6.10356 5.41441 0
M  V30 5896 P 1061.31 -7.20834 5.23717 0
M  V30 5897 O 1061.53 -8.66104 5.38572 0
M  V30 5898 O 1062.1 -6.33544 6.1349 0
M  V30 5899 O 1061.56 -6.7751 3.72168 0
M  V30 5900 C 1060.62 -7.20825 2.7076 0
M  V30 5901 C 1061.35 -7.45864 1.40599 0
M  V30 5902 O 1061.56 -6.17651 0.734225 0
M  V30 5903 C 1062.75 -8.05808 1.51899 0
M  V30 5904 O 1063.14 -8.74358 0.335205 0
M  V30 5905 C 1063.63 -6.83093 1.70294 0
M  V30 5906 C 1062.92 -5.79992 0.836974 0
M  V30 5907 N 1062.97 -4.41864 1.38293 0
M  V30 5908 H 1060.13 -8.13644 3.0377 0
M  V30 5909 H 1059.86 -6.42788 2.55485 0
M  V30 5910 H 1060.73 -8.12039 0.792769 0
M  V30 5911 P 1064.69 -8.91 -8.12982e-12 0
M  V30 5912 O 1064.91 -10.1726 -0.733694 0
M  V30 5913 O 1065.48 -8.73148 1.23936 0
M  V30 5914 O 1064.94 -7.66872 -0.971405 0
M  V30 5915 C 1064 -7.42309 -2.04641 0
M  V30 5916 C 1064.73 -6.86059 -3.24661 0
M  V30 5917 O 1064.94 -5.42847 -3.03646 0
M  V30 5918 C 1066.13 -7.41196 -3.50753 0
M  V30 5919 O 1066.52 -7.27073 -4.86816 0
M  V30 5920 C 1067.01 -6.5273 -2.63741 0
M  V30 5921 C 1066.3 -5.1842 -2.73198 0
M  V30 5922 N 1066.35 -4.38762 -1.4784 0
M  V30 5923 H 1063.51 -8.36803 -2.32493 0
M  V30 5924 H 1063.24 -6.70197 -1.71129 0
M  V30 5925 H 1064.11 -7.03551 -4.13168 0
M  V30 5926 P 1068.07 -7.20834 -5.23717 0
M  V30 5927 O 1068.29 -7.80006 -6.57415 0
M  V30 5928 O 1068.86 -7.79416 -4.13051 0
M  V30 5929 O 1068.32 -5.63315 -5.29344 0
M  V30 5930 C 1067.38 -4.80318 -6.01954 0
M  V30 5931 C 1068.11 -3.64202 -6.65911 0
M  V30 5932 O 1068.32 -2.60736 -5.64823 0
M  V30 5933 C 1069.51 -3.93521 -7.19518 0
M  V30 5934 O 1069.9 -3.02071 -8.21205 0
M  V30 5935 C 1070.39 -3.73047 -5.97036 0
M  V30 5936 C 1069.68 -2.58828 -5.25741 0
M  V30 5937 N 1069.73 -2.68068 -3.77503 0
M  V30 5938 H 1066.9 -5.40394 -6.8003 0
M  V30 5939 H 1066.62 -4.41741 -5.32532 0
M  V30 5940 H 1067.49 -3.26371 -7.47889 0
M  V30 5941 H 1070.15 -1.64007 -5.56746 0
M  V30 5942 H 1070.43 -4.63439 -5.3432 0
M  V30 5943 H 1071.42 -3.44776 -6.25925 0
M  V30 5944 H 1069.58 -4.96707 -7.57347 0
M  V30 5945 P 1071.45 -2.75334 -8.47391 0
M  V30 5946 O 1071.67 -2.44571 -9.90142 0
M  V30 5947 O 1072.24 -3.87688 -7.92115 0
M  V30 5948 O 1071.7 -1.4459 -7.59357 0
M  V30 5949 C 1070.76 -0.347608 -7.69215 0
M  V30 5950 C 1071.49 0.96767 -7.52806 0
M  V30 5951 O 1071.7 1.21036 -6.1011 0
M  V30 5952 C 1072.89 1.04544 -8.13308 0
M  V30 5953 O 1073.28 2.38311 -8.41922 0
M  V30 5954 C 1073.77 0.491279 -7.02284 0
M  V30 5955 C 1073.06 0.996264 -5.77469 0
M  V30 5956 N 1073.11 0.0501916 -4.62973 0
M  V30 5957 H 1070.27 -0.374722 -8.67691 0
M  V30 5958 H 1070 -0.443485 -6.90277 0
M  V30 5959 H 1070.87 1.75537 -7.96793 0
M  V30 5960 P 1074.83 2.75334 -8.47391 0
M  V30 5961 O 1075.05 3.84128 -9.44797 0
M  V30 5962 O 1075.62 1.51947 -8.68712 0
M  V30 5963 O 1075.08 3.29363 -6.99321 0
M  V30 5964 C 1074.14 4.24011 -6.4274 0
M  V30 5965 C 1074.87 5.20775 -5.52155 0
M  V30 5966 O 1075.08 4.56534 -4.22446 0
M  V30 5967 C 1076.27 5.62629 -5.96531 0
M  V30 5968 O 1076.66 6.87667 -5.41053 0
M  V30 5969 C 1077.15 4.52537 -5.39283 0
M  V30 5970 C 1076.44 4.20027 -4.08623 0
M  V30 5971 N 1076.49 2.76189 -3.71603 0
M  V30 5972 C 1076.41 1.64862 -4.52822 0
M  V30 5973 N 1076.49 0.512671 -3.88633 0
M  V30 5974 C 1076.63 0.888083 -2.54977 0
M  V30 5975 C 1076.76 0.094668 -1.38677 0
M  V30 5976 N 1076.88 0.890102 -0.232633 0
M  V30 5977 C 1076.88 2.26958 -0.21772 0
M  V30 5978 N 1077.01 2.84626 0.97925 0
M  V30 5979 N 1076.75 3.0178 -1.31033 0
M  V30 5980 C 1076.63 2.26781 -2.43843 0
M  V30 5981 H 1073.65 4.797 -7.24003 0
M  V30 5982 H 1073.38 3.69856 -5.84513 0
M  V30 5983 H 1074.25 6.10356 -5.41441 0
M  V30 5984 P 1078.21 7.20834 -5.23717 0
M  V30 5985 O 1078.43 8.66189 -5.38625 0
M  V30 5986 O 1079 6.33615 -6.1356 0
M  V30 5987 O 1078.46 6.7751 -3.72168 0
M  V30 5988 C 1077.52 7.20732 -2.70725 0
M  V30 5989 C 1078.25 7.45864 -1.40599 0
M  V30 5990 O 1078.46 6.17651 -0.734225 0
M  V30 5991 C 1079.65 8.05808 -1.51899 0
M  V30 5992 O 1080.04 8.74358 -0.335205 0
M  V30 5993 C 1080.53 6.83093 -1.70294 0
M  V30 5994 C 1079.82 5.79992 -0.836974 0
M  V30 5995 N 1079.87 4.41769 -1.38263 0
M  V30 5996 C 1080.02 3.38591 -0.481702 0
M  V30 5997 O 1080.11 3.56839 0.718452 0
M  V30 5998 N 1080.06 2.1206 -1.03569 0
M  V30 5999 C 1079.97 1.80696 -2.36966 0
M  V30 6000 C 1079.82 2.94845 -3.23898 0
M  V30 6001 C 1079.77 4.19803 -2.73435 0
M  V30 6002 H 1077.03 8.13644 -3.0377 0
M  V30 6003 H 1076.76 6.42695 -2.55448 0
M  V30 6004 H 1077.63 8.12039 -0.792769 0
M  V30 6005 H 1080.29 5.79978 0.160587 0
M  V30 6006 H 1080.57 6.51379 -2.75643 0
M  V30 6007 H 1081.56 7.01734 -1.34462 0
M  V30 6008 H 1079.72 8.73674 -2.38337 0
M  V30 6009 H 1079.65 5.04492 -3.4095 0
M  V30 6010 P 1081.59 8.91 8.287e-12 0
M  V30 6011 O 1081.81 10.1726 0.733694 0
M  V30 6012 O 1082.38 8.73148 -1.23936 0
M  V30 6013 O 1081.84 7.66872 0.971405 0
M  V30 6014 C 1080.9 7.42309 2.04641 0
M  V30 6015 C 1081.63 6.86059 3.24661 0
M  V30 6016 O 1081.84 5.42847 3.03646 0
M  V30 6017 C 1083.03 7.41196 3.50753 0
M  V30 6018 O 1083.42 7.27073 4.86816 0
M  V30 6019 C 1083.91 6.5273 2.63741 0
M  V30 6020 C 1083.2 5.1842 2.73198 0
M  V30 6021 N 1083.25 4.38762 1.4784 0
M  V30 6022 H 1080.41 8.36803 2.32493 0
M  V30 6023 H 1080.14 6.70197 1.71129 0
M  V30 6024 H 1081.01 7.03551 4.13168 0
M  V30 6025 P 1084.97 7.20834 5.23717 0
M  V30 6026 O 1085.19 7.79853 6.57286 0
M  V30 6027 O 1085.76 7.79239 4.12957 0
M  V30 6028 O 1085.22 5.63315 5.29344 0
M  V30 6029 C 1084.28 4.80255 6.01876 0
M  V30 6030 C 1085.01 3.64202 6.65911 0
M  V30 6031 O 1085.22 2.60694 5.64732 0
M  V30 6032 C 1086.41 3.93473 7.1943 0
M  V30 6033 O 1086.8 3.02071 8.21205 0
M  V30 6034 C 1087.29 3.73047 5.97036 0
M  V30 6035 C 1086.58 2.58828 5.25741 0
M  V30 6036 N 1086.63 2.68068 3.77503 0
M  V30 6037 H 1083.79 5.40332 6.79951 0
M  V30 6038 H 1083.52 4.41613 5.32378 0
M  V30 6039 H 1084.39 3.26331 7.47797 0
M  V30 6040 P 1088.35 2.75334 8.47391 0
M  V30 6041 O 1088.57 2.44595 9.90239 0
M  V30 6042 O 1089.14 3.87732 7.92204 0
M  V30 6043 O 1088.6 1.4459 7.59357 0
M  V30 6044 C 1087.66 0.347563 7.69115 0
M  V30 6045 C 1088.39 -0.96767 7.52806 0
M  V30 6046 O 1088.6 -1.21036 6.1011 0
M  V30 6047 C 1089.79 -1.04544 8.13308 0
M  V30 6048 O 1090.18 -2.38311 8.41922 0
M  V30 6049 C 1090.67 -0.491279 7.02284 0
M  V30 6050 C 1089.96 -0.996264 5.77469 0
M  V30 6051 N 1090.01 -0.0501808 4.62873 0
M  V30 6052 C 1090.16 -0.588177 3.36904 0
M  V30 6053 O 1090.25 -1.78598 3.17173 0
M  V30 6054 N 1090.2 0.329694 2.33686 0
M  V30 6055 C 1090.11 1.6953 2.45079 0
M  V30 6056 C 1089.96 2.16933 3.80505 0
M  V30 6057 C 1089.91 1.30326 4.83752 0
M  V30 6058 H 1087.17 0.374722 8.67691 0
M  V30 6059 H 1086.9 0.443421 6.90177 0
M  V30 6060 H 1087.77 -1.75537 7.96793 0
M  V30 6061 H 1090.43 -1.94496 5.46629 0
M  V30 6062 H 1090.71 0.608651 7.04676 0
M  V30 6063 H 1091.7 -0.889672 7.08939 0
M  V30 6064 H 1089.86 -0.43308 9.04564 0
M  V30 6065 H 1089.79 1.68366 5.8516 0
M  V30 6066 P 1091.73 -2.75334 8.47391 0
M  V30 6067 O 1091.95 -3.84128 9.44797 0
M  V30 6068 O 1092.52 -1.51947 8.68712 0
M  V30 6069 O 1091.98 -3.29363 6.99321 0
M  V30 6070 C 1091.04 -4.24011 6.4274 0
M  V30 6071 C 1091.77 -5.20775 5.52155 0
M  V30 6072 O 1091.98 -4.56534 4.22446 0
M  V30 6073 C 1093.17 -5.62629 5.96531 0
M  V30 6074 O 1093.56 -6.87667 5.41053 0
M  V30 6075 C 1094.05 -4.52537 5.39283 0
M  V30 6076 C 1093.34 -4.20027 4.08623 0
M  V30 6077 N 1093.39 -2.76189 3.71603 0
M  V30 6078 H 1090.55 -4.797 7.24003 0
M  V30 6079 H 1090.28 -3.69856 5.84513 0
M  V30 6080 H 1091.15 -6.10356 5.41441 0
M  V30 6081 P 1095.11 -7.20834 5.23717 0
M  V30 6082 O 1095.33 -8.66104 5.38572 0
M  V30 6083 O 1095.9 -6.33544 6.1349 0
M  V30 6084 O 1095.36 -6.7751 3.72168 0
M  V30 6085 C 1094.42 -7.20825 2.7076 0
M  V30 6086 C 1095.15 -7.45864 1.40599 0
M  V30 6087 O 1095.36 -6.17651 0.734225 0
M  V30 6088 C 1096.55 -8.05808 1.51899 0
M  V30 6089 O 1096.94 -8.74358 0.335205 0
M  V30 6090 C 1097.43 -6.83093 1.70294 0
M  V30 6091 C 1096.72 -5.79992 0.836974 0
M  V30 6092 N 1096.77 -4.41864 1.38293 0
M  V30 6093 H 1093.93 -8.13644 3.0377 0
M  V30 6094 H 1093.66 -6.42788 2.55485 0
M  V30 6095 H 1094.53 -8.12039 0.792769 0
M  V30 6096 P 1098.49 -8.91 -8.44418e-12 0
M  V30 6097 O 1098.71 -10.1726 -0.733694 0
M  V30 6098 O 1099.28 -8.73148 1.23936 0
M  V30 6099 O 1098.74 -7.66872 -0.971405 0
M  V30 6100 C 1097.8 -7.42309 -2.04641 0
M  V30 6101 C 1098.53 -6.86059 -3.24661 0
M  V30 6102 O 1098.74 -5.42847 -3.03646 0
M  V30 6103 C 1099.93 -7.41196 -3.50753 0
M  V30 6104 O 1100.32 -7.27073 -4.86816 0
M  V30 6105 C 1100.81 -6.5273 -2.63741 0
M  V30 6106 C 1100.1 -5.1842 -2.73198 0
M  V30 6107 N 1100.15 -4.38762 -1.4784 0
M  V30 6108 H 1097.31 -8.36803 -2.32493 0
M  V30 6109 H 1097.04 -6.70197 -1.71129 0
M  V30 6110 H 1097.91 -7.03551 -4.13168 0
M  V30 6111 P 1101.87 -7.20834 -5.23717 0
M  V30 6112 O 1102.09 -7.79853 -6.57286 0
M  V30 6113 O 1102.66 -7.79239 -4.12957 0
M  V30 6114 O 1102.12 -5.63315 -5.29344 0
M  V30 6115 C 1101.18 -4.80255 -6.01876 0
M  V30 6116 C 1101.91 -3.64202 -6.65911 0
M  V30 6117 O 1102.12 -2.60694 -5.64732 0
M  V30 6118 C 1103.31 -3.93473 -7.1943 0
M  V30 6119 O 1103.7 -3.02071 -8.21205 0
M  V30 6120 C 1104.19 -3.73047 -5.97036 0
M  V30 6121 C 1103.48 -2.58828 -5.25741 0
M  V30 6122 N 1103.53 -2.68068 -3.77503 0
M  V30 6123 H 1100.69 -5.40332 -6.79951 0
M  V30 6124 H 1100.42 -4.41613 -5.32378 0
M  V30 6125 H 1101.29 -3.26331 -7.47797 0
M  V30 6126 P 1105.25 -2.75334 -8.47391 0
M  V30 6127 O 1105.47 -2.44571 -9.90142 0
M  V30 6128 O 1106.04 -3.87688 -7.92115 0
M  V30 6129 O 1105.5 -1.4459 -7.59357 0
M  V30 6130 C 1104.56 -0.347608 -7.69215 0
M  V30 6131 C 1105.29 0.96767 -7.52806 0
M  V30 6132 O 1105.5 1.21036 -6.1011 0
M  V30 6133 C 1106.69 1.04544 -8.13308 0
M  V30 6134 O 1107.08 2.38311 -8.41922 0
M  V30 6135 C 1107.57 0.491279 -7.02284 0
M  V30 6136 C 1106.86 0.996264 -5.77469 0
M  V30 6137 N 1106.91 0.0501916 -4.62973 0
M  V30 6138 H 1104.07 -0.374722 -8.67691 0
M  V30 6139 H 1103.8 -0.443485 -6.90277 0
M  V30 6140 H 1104.67 1.75537 -7.96793 0
M  V30 6141 P 1108.63 2.75334 -8.47391 0
M  V30 6142 O 1108.85 3.84166 -9.4489 0
M  V30 6143 O 1109.42 1.51964 -8.6881 0
M  V30 6144 O 1108.88 3.29363 -6.99321 0
M  V30 6145 C 1107.94 4.23956 -6.42656 0
M  V30 6146 C 1108.67 5.20775 -5.52155 0
M  V30 6147 O 1108.88 4.56534 -4.22446 0
M  V30 6148 C 1110.07 5.62629 -5.96531 0
M  V30 6149 O 1110.46 6.87667 -5.41053 0
M  V30 6150 C 1110.95 4.52537 -5.39283 0
M  V30 6151 C 1110.24 4.20027 -4.08623 0
M  V30 6152 N 1110.29 2.7613 -3.71522 0
M  V30 6153 C 1110.44 2.45612 -2.37989 0
M  V30 6154 O 1110.53 3.30919 -1.51621 0
M  V30 6155 N 1110.48 1.10684 -2.08435 0
M  V30 6156 C 1110.39 0.0690084 -2.9792 0
M  V30 6157 C 1110.24 0.481522 -4.35345 0
M  V30 6158 C 1110.19 1.78906 -4.67968 0
M  V30 6159 H 1107.45 4.797 -7.24003 0
M  V30 6160 H 1107.18 3.69802 -5.84429 0
M  V30 6161 H 1108.05 6.10356 -5.41441 0
M  V30 6162 H 1110.71 4.78651 -3.27911 0
M  V30 6163 H 1110.99 3.64957 -6.05871 0
M  V30 6164 H 1111.98 4.8868 -5.2125 0
M  V30 6165 H 1110.14 5.66726 -7.06352 0
M  V30 6166 H 1110.07 2.07737 -5.72367 0
M  V30 6167 P 1112.01 7.20834 -5.23717 0
M  V30 6168 O 1112.23 8.66104 -5.38572 0
M  V30 6169 O 1112.8 6.33544 -6.1349 0
M  V30 6170 O 1112.26 6.7751 -3.72168 0
M  V30 6171 C 1111.32 7.20825 -2.7076 0
M  V30 6172 C 1112.05 7.45864 -1.40599 0
M  V30 6173 O 1112.26 6.17651 -0.734225 0
M  V30 6174 C 1113.45 8.05808 -1.51899 0
M  V30 6175 O 1113.84 8.74358 -0.335205 0
M  V30 6176 C 1114.33 6.83093 -1.70294 0
M  V30 6177 C 1113.62 5.79992 -0.836974 0
M  V30 6178 N 1113.67 4.41864 -1.38293 0
M  V30 6179 C 1113.59 3.99538 -2.69438 0
M  V30 6180 N 1113.67 2.69909 -2.84277 0
M  V30 6181 C 1113.81 2.21719 -1.5408 0
M  V30 6182 C 1113.94 0.891712 -1.06628 0
M  V30 6183 N 1114.06 0.856846 0.334985 0
M  V30 6184 C 1114.06 1.9641 1.15789 0
M  V30 6185 N 1114.19 1.72708 2.46522 0
M  V30 6186 N 1113.93 3.21165 0.713741 0
M  V30 6187 C 1113.81 3.26797 -0.639748 0
M  V30 6188 H 1110.83 8.13644 -3.0377 0
M  V30 6189 H 1110.56 6.42788 -2.55485 0
M  V30 6190 H 1111.43 8.12039 -0.792769 0
M  V30 6191 P 1115.39 8.91 8.60137e-12 0
M  V30 6192 O 1115.61 10.1726 0.733694 0
M  V30 6193 O 1116.18 8.73148 -1.23936 0
M  V30 6194 O 1115.64 7.66872 0.971405 0
M  V30 6195 C 1114.7 7.42309 2.04641 0
M  V30 6196 C 1115.43 6.86059 3.24661 0
M  V30 6197 O 1115.64 5.42847 3.03646 0
M  V30 6198 C 1116.83 7.41196 3.50753 0
M  V30 6199 O 1117.22 7.27073 4.86816 0
M  V30 6200 C 1117.71 6.5273 2.63741 0
M  V30 6201 C 1117 5.1842 2.73198 0
M  V30 6202 N 1117.05 4.38762 1.4784 0
M  V30 6203 H 1114.21 8.36803 2.32493 0
M  V30 6204 H 1113.94 6.70197 1.71129 0
M  V30 6205 H 1114.81 7.03551 4.13168 0
M  V30 6206 P 1118.77 7.20834 5.23717 0
M  V30 6207 O 1118.99 7.79853 6.57286 0
M  V30 6208 O 1119.56 7.79239 4.12957 0
M  V30 6209 O 1119.02 5.63315 5.29344 0
M  V30 6210 C 1118.08 4.80255 6.01876 0
M  V30 6211 C 1118.81 3.64202 6.65911 0
M  V30 6212 O 1119.02 2.60694 5.64732 0
M  V30 6213 C 1120.21 3.93473 7.1943 0
M  V30 6214 O 1120.6 3.02071 8.21205 0
M  V30 6215 C 1121.09 3.73047 5.97036 0
M  V30 6216 C 1120.38 2.58828 5.25741 0
M  V30 6217 N 1120.43 2.68068 3.77503 0
M  V30 6218 H 1117.59 5.40332 6.79951 0
M  V30 6219 H 1117.32 4.41613 5.32378 0
M  V30 6220 H 1118.19 3.26331 7.47797 0
M  V30 6221 P 1122.15 2.75334 8.47391 0
M  V30 6222 O 1122.37 2.44571 9.90142 0
M  V30 6223 O 1122.94 3.87688 7.92115 0
M  V30 6224 O 1122.4 1.4459 7.59357 0
M  V30 6225 C 1121.46 0.347608 7.69215 0
M  V30 6226 C 1122.19 -0.96767 7.52806 0
M  V30 6227 O 1122.4 -1.21036 6.1011 0
M  V30 6228 C 1123.59 -1.04544 8.13308 0
M  V30 6229 O 1123.98 -2.38311 8.41922 0
M  V30 6230 C 1124.47 -0.491279 7.02284 0
M  V30 6231 C 1123.76 -0.996264 5.77469 0
M  V30 6232 N 1123.81 -0.0501916 4.62973 0
M  V30 6233 H 1120.97 0.374722 8.67691 0
M  V30 6234 H 1120.7 0.443485 6.90277 0
M  V30 6235 H 1121.57 -1.75537 7.96793 0
M  V30 6236 P 1125.53 -2.75334 8.47391 0
M  V30 6237 O 1125.75 -3.84128 9.44797 0
M  V30 6238 O 1126.32 -1.51947 8.68712 0
M  V30 6239 O 1125.78 -3.29363 6.99321 0
M  V30 6240 C 1124.84 -4.24011 6.4274 0
M  V30 6241 C 1125.57 -5.20775 5.52155 0
M  V30 6242 O 1125.78 -4.56534 4.22446 0
M  V30 6243 C 1126.97 -5.62629 5.96531 0
M  V30 6244 O 1127.36 -6.87667 5.41053 0
M  V30 6245 C 1127.85 -4.52537 5.39283 0
M  V30 6246 C 1127.14 -4.20027 4.08623 0
M  V30 6247 N 1127.19 -2.76189 3.71603 0
M  V30 6248 H 1124.35 -4.797 7.24003 0
M  V30 6249 H 1124.08 -3.69856 5.84513 0
M  V30 6250 H 1124.95 -6.10356 5.41441 0
M  V30 6251 P 1128.91 -7.20834 5.23717 0
M  V30 6252 O 1129.13 -8.66104 5.38572 0
M  V30 6253 O 1129.7 -6.33544 6.1349 0
M  V30 6254 O 1129.16 -6.7751 3.72168 0
M  V30 6255 C 1128.22 -7.20825 2.7076 0
M  V30 6256 C 1128.95 -7.45864 1.40599 0
M  V30 6257 O 1129.16 -6.17651 0.734225 0
M  V30 6258 C 1130.35 -8.05808 1.51899 0
M  V30 6259 O 1130.74 -8.74358 0.335205 0
M  V30 6260 C 1131.23 -6.83093 1.70294 0
M  V30 6261 C 1130.52 -5.79992 0.836974 0
M  V30 6262 N 1130.57 -4.41864 1.38293 0
M  V30 6263 H 1127.73 -8.13644 3.0377 0
M  V30 6264 H 1127.46 -6.42788 2.55485 0
M  V30 6265 H 1128.33 -8.12039 0.792769 0
M  V30 6266 P 1132.29 -8.91 -8.75855e-12 0
M  V30 6267 O 1132.51 -10.1746 -0.733838 0
M  V30 6268 O 1133.08 -8.73346 1.23964 0
M  V30 6269 O 1132.54 -7.66872 -0.971405 0
M  V30 6270 C 1131.6 -7.42405 -2.04668 0
M  V30 6271 C 1132.33 -6.86059 -3.24661 0
M  V30 6272 O 1132.54 -5.42934 -3.03695 0
M  V30 6273 C 1133.73 -7.41287 -3.50796 0
M  V30 6274 O 1134.12 -7.27073 -4.86816 0
M  V30 6275 C 1134.61 -6.5273 -2.63741 0
M  V30 6276 C 1133.9 -5.1842 -2.73198 0
M  V30 6277 N 1133.95 -4.38762 -1.4784 0
M  V30 6278 C 1133.87 -4.83651 -0.183876 0
M  V30 6279 N 1133.94 -3.88759 0.699393 0
M  V30 6280 C 1134.09 -2.7404 -0.0575568 0
M  V30 6281 C 1134.22 -1.37902 0.293928 0
M  V30 6282 N 1134.23 -0.938021 1.54797 0
M  V30 6283 N 1134.34 -0.491817 -0.70549 0
M  V30 6284 C 1134.33 -0.931735 -1.95979 0
M  V30 6285 N 1134.21 -2.16017 -2.41481 0
M  V30 6286 C 1134.09 -3.02547 -1.39121 0
M  V30 6287 H 1131.12 -8.36899 -2.3252 0
M  V30 6288 H 1130.84 -6.70391 -1.71179 0
M  V30 6289 H 1131.71 -7.03638 -4.13219 0
M  V30 6290 H 1134.37 -4.59931 -3.54016 0
M  V30 6291 H 1134.65 -6.88995 -1.59871 0
M  V30 6292 H 1135.64 -6.4684 -3.0373 0
M  V30 6293 H 1133.8 -8.47002 -3.20749 0
M  V30 6294 H 1133.76 -5.8885 0.0765548 0
M  V30 6295 H 1134.14 -1.60276 2.32875 0
M  V30 6296 H 1134.33 0.0699355 1.73859 0
M  V30 6297 H 1134.44 -0.165507 -2.71897 0
M  V30 6298 P 1135.67 -7.20834 -5.23717 0
M  V30 6299 O 1135.89 -7.79853 -6.57286 0
M  V30 6300 O 1136.46 -7.79239 -4.12957 0
M  V30 6301 O 1135.92 -5.63315 -5.29344 0
M  V30 6302 C 1134.98 -4.80255 -6.01876 0
M  V30 6303 C 1135.71 -3.64202 -6.65911 0
M  V30 6304 O 1135.92 -2.60694 -5.64732 0
M  V30 6305 C 1137.11 -3.93473 -7.1943 0
M  V30 6306 O 1137.5 -3.02071 -8.21205 0
M  V30 6307 C 1137.99 -3.73047 -5.97036 0
M  V30 6308 C 1137.28 -2.58828 -5.25741 0
M  V30 6309 N 1137.33 -2.68068 -3.77503 0
M  V30 6310 H 1134.49 -5.40332 -6.79951 0
M  V30 6311 H 1134.22 -4.41613 -5.32378 0
M  V30 6312 H 1135.09 -3.26331 -7.47797 0
M  V30 6313 P 1139.05 -2.75334 -8.47391 0
M  V30 6314 O 1139.27 -2.44571 -9.90142 0
M  V30 6315 O 1139.84 -3.87688 -7.92115 0
M  V30 6316 O 1139.3 -1.4459 -7.59357 0
M  V30 6317 C 1138.36 -0.347608 -7.69215 0
M  V30 6318 C 1139.09 0.96767 -7.52806 0
M  V30 6319 O 1139.3 1.21036 -6.1011 0
M  V30 6320 C 1140.49 1.04544 -8.13308 0
M  V30 6321 O 1140.88 2.38311 -8.41922 0
M  V30 6322 C 1141.37 0.491279 -7.02284 0
M  V30 6323 C 1140.66 0.996264 -5.77469 0
M  V30 6324 N 1140.71 0.0501916 -4.62973 0
M  V30 6325 C 1140.63 -1.32786 -4.63244 0
M  V30 6326 N 1140.71 -1.86957 -3.44545 0
M  V30 6327 C 1140.85 -0.780241 -2.58481 0
M  V30 6328 C 1140.98 -0.738536 -1.17757 0
M  V30 6329 N 1141.1 0.58337 -0.711393 0
M  V30 6330 C 1141.1 1.70816 -1.51017 0
M  V30 6331 N 1141.23 2.87826 -0.880757 0
M  V30 6332 N 1140.97 1.67126 -2.8339 0
M  V30 6333 C 1140.85 0.401421 -3.30572 0
M  V30 6334 H 1137.87 -0.374722 -8.67691 0
M  V30 6335 H 1137.6 -0.443485 -6.90277 0
M  V30 6336 H 1138.47 1.75537 -7.96793 0
M  V30 6337 P 1142.43 2.75334 -8.47391 0
M  V30 6338 O 1142.65 3.84128 -9.44797 0
M  V30 6339 O 1143.22 1.51947 -8.68712 0
M  V30 6340 O 1142.68 3.29363 -6.99321 0
M  V30 6341 C 1141.74 4.24011 -6.4274 0
M  V30 6342 C 1142.47 5.20775 -5.52155 0
M  V30 6343 O 1142.68 4.56534 -4.22446 0
M  V30 6344 C 1143.87 5.62629 -5.96531 0
M  V30 6345 O 1144.26 6.87667 -5.41053 0
M  V30 6346 C 1144.75 4.52537 -5.39283 0
M  V30 6347 C 1144.04 4.20027 -4.08623 0
M  V30 6348 N 1144.09 2.76189 -3.71603 0
M  V30 6349 H 1141.25 4.797 -7.24003 0
M  V30 6350 H 1140.98 3.69856 -5.84513 0
M  V30 6351 H 1141.85 6.10356 -5.41441 0
M  V30 6352 P 1145.81 7.20834 -5.23717 0
M  V30 6353 O 1146.03 8.66104 -5.38572 0
M  V30 6354 O 1146.6 6.33544 -6.1349 0
M  V30 6355 O 1146.06 6.7751 -3.72168 0
M  V30 6356 C 1145.12 7.20825 -2.7076 0
M  V30 6357 C 1145.85 7.45864 -1.40599 0
M  V30 6358 O 1146.06 6.17651 -0.734225 0
M  V30 6359 C 1147.25 8.05808 -1.51899 0
M  V30 6360 O 1147.64 8.74358 -0.335205 0
M  V30 6361 C 1148.13 6.83093 -1.70294 0
M  V30 6362 C 1147.42 5.79992 -0.836974 0
M  V30 6363 N 1147.47 4.41864 -1.38293 0
M  V30 6364 H 1144.63 8.13644 -3.0377 0
M  V30 6365 H 1144.36 6.42788 -2.55485 0
M  V30 6366 H 1145.23 8.12039 -0.792769 0
M  V30 6367 P 1149.19 8.91 8.91573e-12 0
M  V30 6368 O 1149.41 10.1726 0.733694 0
M  V30 6369 O 1149.98 8.73148 -1.23936 0
M  V30 6370 O 1149.44 7.66872 0.971405 0
M  V30 6371 C 1148.5 7.42309 2.04641 0
M  V30 6372 C 1149.23 6.86059 3.24661 0
M  V30 6373 O 1149.44 5.42847 3.03646 0
M  V30 6374 C 1150.63 7.41196 3.50753 0
M  V30 6375 O 1151.02 7.27073 4.86816 0
M  V30 6376 C 1151.51 6.5273 2.63741 0
M  V30 6377 C 1150.8 5.1842 2.73198 0
M  V30 6378 N 1150.85 4.38762 1.4784 0
M  V30 6379 H 1148.01 8.36803 2.32493 0
M  V30 6380 H 1147.74 6.70197 1.71129 0
M  V30 6381 H 1148.61 7.03551 4.13168 0
M  V30 6382 P 1152.57 7.20834 5.23717 0
M  V30 6383 O 1152.79 7.79853 6.57286 0
M  V30 6384 O 1153.36 7.79239 4.12957 0
M  V30 6385 O 1152.82 5.63315 5.29344 0
M  V30 6386 C 1151.88 4.80255 6.01876 0
M  V30 6387 C 1152.61 3.64202 6.65911 0
M  V30 6388 O 1152.82 2.60694 5.64732 0
M  V30 6389 C 1154.01 3.93473 7.1943 0
M  V30 6390 O 1154.4 3.02071 8.21205 0
M  V30 6391 C 1154.89 3.73047 5.97036 0
M  V30 6392 C 1154.18 2.58828 5.25741 0
M  V30 6393 N 1154.23 2.68068 3.77503 0
M  V30 6394 H 1151.39 5.40332 6.79951 0
M  V30 6395 H 1151.12 4.41613 5.32378 0
M  V30 6396 H 1151.99 3.26331 7.47797 0
M  V30 6397 P 1155.95 2.75334 8.47391 0
M  V30 6398 O 1156.17 2.44571 9.90142 0
M  V30 6399 O 1156.74 3.87688 7.92115 0
M  V30 6400 O 1156.2 1.4459 7.59357 0
M  V30 6401 C 1155.26 0.347608 7.69215 0
M  V30 6402 C 1155.99 -0.96767 7.52806 0
M  V30 6403 O 1156.2 -1.21036 6.1011 0
M  V30 6404 C 1157.39 -1.04544 8.13308 0
M  V30 6405 O 1157.78 -2.38311 8.41922 0
M  V30 6406 C 1158.27 -0.491279 7.02284 0
M  V30 6407 C 1157.56 -0.996264 5.77469 0
M  V30 6408 N 1157.61 -0.0501916 4.62973 0
M  V30 6409 H 1154.77 0.374722 8.67691 0
M  V30 6410 H 1154.5 0.443485 6.90277 0
M  V30 6411 H 1155.37 -1.75537 7.96793 0
M  V30 6412 P 1159.33 -2.75334 8.47391 0
M  V30 6413 O 1159.55 -3.84128 9.44797 0
M  V30 6414 O 1160.12 -1.51947 8.68712 0
M  V30 6415 O 1159.58 -3.29363 6.99321 0
M  V30 6416 C 1158.64 -4.24011 6.4274 0
M  V30 6417 C 1159.37 -5.20775 5.52155 0
M  V30 6418 O 1159.58 -4.56534 4.22446 0
M  V30 6419 C 1160.77 -5.62629 5.96531 0
M  V30 6420 O 1161.16 -6.87667 5.41053 0
M  V30 6421 C 1161.65 -4.52537 5.39283 0
M  V30 6422 C 1160.94 -4.20027 4.08623 0
M  V30 6423 N 1160.99 -2.76189 3.71603 0
M  V30 6424 H 1158.15 -4.797 7.24003 0
M  V30 6425 H 1157.88 -3.69856 5.84513 0
M  V30 6426 H 1158.75 -6.10356 5.41441 0
M  V30 6427 P 1162.71 -7.20834 5.23717 0
M  V30 6428 O 1162.93 -8.66104 5.38572 0
M  V30 6429 O 1163.5 -6.33544 6.1349 0
M  V30 6430 O 1162.96 -6.7751 3.72168 0
M  V30 6431 C 1162.02 -7.20825 2.7076 0
M  V30 6432 C 1162.75 -7.45864 1.40599 0
M  V30 6433 O 1162.96 -6.17651 0.734225 0
M  V30 6434 C 1164.15 -8.05808 1.51899 0
M  V30 6435 O 1164.54 -8.74358 0.335205 0
M  V30 6436 C 1165.03 -6.83093 1.70294 0
M  V30 6437 C 1164.32 -5.79992 0.836974 0
M  V30 6438 N 1164.37 -4.41864 1.38293 0
M  V30 6439 H 1161.53 -8.13644 3.0377 0
M  V30 6440 H 1161.26 -6.42788 2.55485 0
M  V30 6441 H 1162.13 -8.12039 0.792769 0
M  V30 6442 P 1166.09 -8.91 -9.07291e-12 0
M  V30 6443 O 1166.31 -10.1726 -0.733694 0
M  V30 6444 O 1166.88 -8.73148 1.23936 0
M  V30 6445 O 1166.34 -7.66872 -0.971405 0
M  V30 6446 C 1165.4 -7.42309 -2.04641 0
M  V30 6447 C 1166.13 -6.86059 -3.24661 0
M  V30 6448 O 1166.34 -5.42847 -3.03646 0
M  V30 6449 C 1167.53 -7.41196 -3.50753 0
M  V30 6450 O 1167.92 -7.27073 -4.86816 0
M  V30 6451 C 1168.41 -6.5273 -2.63741 0
M  V30 6452 C 1167.7 -5.1842 -2.73198 0
M  V30 6453 N 1167.75 -4.38762 -1.4784 0
M  V30 6454 H 1164.91 -8.36803 -2.32493 0
M  V30 6455 H 1164.64 -6.70197 -1.71129 0
M  V30 6456 H 1165.51 -7.03551 -4.13168 0
M  V30 6457 P 1169.47 -7.20834 -5.23717 0
M  V30 6458 O 1169.69 -7.80006 -6.57415 0
M  V30 6459 O 1170.26 -7.79416 -4.13051 0
M  V30 6460 O 1169.72 -5.63315 -5.29344 0
M  V30 6461 C 1168.78 -4.80318 -6.01954 0
M  V30 6462 C 1169.51 -3.64202 -6.65911 0
M  V30 6463 O 1169.72 -2.60736 -5.64823 0
M  V30 6464 C 1170.91 -3.93521 -7.19518 0
M  V30 6465 O 1171.3 -3.02071 -8.21205 0
M  V30 6466 C 1171.79 -3.73047 -5.97036 0
M  V30 6467 C 1171.08 -2.58828 -5.25741 0
M  V30 6468 N 1171.13 -2.68068 -3.77503 0
M  V30 6469 H 1168.3 -5.40394 -6.8003 0
M  V30 6470 H 1168.02 -4.41741 -5.32532 0
M  V30 6471 H 1168.89 -3.26371 -7.47889 0
M  V30 6472 H 1171.55 -1.64007 -5.56746 0
M  V30 6473 H 1171.83 -4.63439 -5.3432 0
M  V30 6474 H 1172.82 -3.44776 -6.25925 0
M  V30 6475 H 1170.98 -4.96707 -7.57347 0
M  V30 6476 P 1172.85 -2.75334 -8.47391 0
M  V30 6477 O 1173.07 -2.44571 -9.90142 0
M  V30 6478 O 1173.64 -3.87688 -7.92115 0
M  V30 6479 O 1173.1 -1.4459 -7.59357 0
M  V30 6480 C 1172.16 -0.347608 -7.69215 0
M  V30 6481 C 1172.89 0.96767 -7.52806 0
M  V30 6482 O 1173.1 1.21036 -6.1011 0
M  V30 6483 C 1174.29 1.04544 -8.13308 0
M  V30 6484 O 1174.68 2.38311 -8.41922 0
M  V30 6485 C 1175.17 0.491279 -7.02284 0
M  V30 6486 C 1174.46 0.996264 -5.77469 0
M  V30 6487 N 1174.51 0.0501916 -4.62973 0
M  V30 6488 C 1174.43 -1.32786 -4.63244 0
M  V30 6489 N 1174.51 -1.86957 -3.44545 0
M  V30 6490 C 1174.65 -0.780241 -2.58481 0
M  V30 6491 C 1174.78 -0.738536 -1.17757 0
M  V30 6492 O 1174.8 -1.66794 -0.372349 0
M  V30 6493 N 1174.9 0.58337 -0.711393 0
M  V30 6494 C 1174.9 1.70816 -1.51017 0
M  V30 6495 N 1175.03 2.87826 -0.880757 0
M  V30 6496 N 1174.77 1.67126 -2.8339 0
M  V30 6497 C 1174.65 0.401421 -3.30572 0
M  V30 6498 H 1171.67 -0.374722 -8.67691 0
M  V30 6499 H 1171.4 -0.443485 -6.90277 0
M  V30 6500 H 1172.27 1.75537 -7.96793 0
M  V30 6501 H 1174.93 1.95076 -5.46529 0
M  V30 6502 H 1175.21 -0.608565 -7.04577 0
M  V30 6503 H 1176.2 0.889672 -7.08939 0
M  V30 6504 H 1174.36 0.43308 -9.04564 0
M  V30 6505 H 1174.31 -1.91249 -5.54442 0
M  V30 6506 H 1175 0.718054 0.275244 0
M  V30 6507 H 1175.03 3.75721 -1.41832 0
M  V30 6508 H 1175.13 2.90436 0.145468 0
M  V30 6509 P 1176.23 2.75334 -8.47391 0
M  V30 6510 O 1176.45 3.84166 -9.4489 0
M  V30 6511 O 1177.02 1.51964 -8.6881 0
M  V30 6512 O 1176.48 3.29363 -6.99321 0
M  V30 6513 C 1175.54 4.23956 -6.42656 0
M  V30 6514 C 1176.27 5.20775 -5.52155 0
M  V30 6515 O 1176.48 4.56534 -4.22446 0
M  V30 6516 C 1177.67 5.62629 -5.96531 0
M  V30 6517 O 1178.06 6.87667 -5.41053 0
M  V30 6518 C 1178.55 4.52537 -5.39283 0
M  V30 6519 C 1177.84 4.20027 -4.08623 0
M  V30 6520 N 1177.89 2.7613 -3.71522 0
M  V30 6521 C 1178.04 2.45612 -2.37989 0
M  V30 6522 O 1178.13 3.30919 -1.51621 0
M  V30 6523 N 1178.08 1.10684 -2.08435 0
M  V30 6524 C 1177.99 0.0690084 -2.9792 0
M  V30 6525 C 1177.84 0.481522 -4.35345 0
M  V30 6526 C 1177.79 1.78906 -4.67968 0
M  V30 6527 H 1175.05 4.797 -7.24003 0
M  V30 6528 H 1174.78 3.69802 -5.84429 0
M  V30 6529 H 1175.65 6.10356 -5.41441 0
M  V30 6530 H 1178.31 4.78651 -3.27911 0
M  V30 6531 H 1178.59 3.64957 -6.05871 0
M  V30 6532 H 1179.58 4.8868 -5.2125 0
M  V30 6533 H 1177.74 5.66726 -7.06352 0
M  V30 6534 H 1177.67 2.07737 -5.72367 0
M  V30 6535 P 1179.61 7.20834 -5.23717 0
M  V30 6536 O 1179.83 8.66189 -5.38625 0
M  V30 6537 O 1180.4 6.33615 -6.1356 0
M  V30 6538 O 1179.86 6.7751 -3.72168 0
M  V30 6539 C 1178.92 7.20732 -2.70725 0
M  V30 6540 C 1179.65 7.45864 -1.40599 0
M  V30 6541 O 1179.86 6.17651 -0.734225 0
M  V30 6542 C 1181.05 8.05808 -1.51899 0
M  V30 6543 O 1181.44 8.74358 -0.335205 0
M  V30 6544 C 1181.93 6.83093 -1.70294 0
M  V30 6545 C 1181.22 5.79992 -0.836974 0
M  V30 6546 N 1181.27 4.41769 -1.38263 0
M  V30 6547 C 1181.42 3.38591 -0.481702 0
M  V30 6548 O 1181.51 3.56839 0.718452 0
M  V30 6549 N 1181.46 2.1206 -1.03569 0
M  V30 6550 C 1181.37 1.80696 -2.36966 0
M  V30 6551 C 1181.22 2.94845 -3.23898 0
M  V30 6552 C 1181.17 4.19803 -2.73435 0
M  V30 6553 H 1178.43 8.13644 -3.0377 0
M  V30 6554 H 1178.16 6.42695 -2.55448 0
M  V30 6555 H 1179.03 8.12039 -0.792769 0
M  V30 6556 H 1181.69 5.79978 0.160587 0
M  V30 6557 H 1181.97 6.51379 -2.75643 0
M  V30 6558 H 1182.96 7.01734 -1.34462 0
M  V30 6559 H 1181.12 8.73674 -2.38337 0
M  V30 6560 H 1181.05 5.04492 -3.4095 0
M  V30 6561 P 1182.99 8.91 9.23009e-12 0
M  V30 6562 O 1183.21 10.1746 0.733838 0
M  V30 6563 O 1183.78 8.73346 -1.23964 0
M  V30 6564 O 1183.24 7.66872 0.971405 0
M  V30 6565 C 1182.3 7.42405 2.04668 0
M  V30 6566 C 1183.03 6.86059 3.24661 0
M  V30 6567 O 1183.24 5.42934 3.03695 0
M  V30 6568 C 1184.43 7.41287 3.50796 0
M  V30 6569 O 1184.82 7.27073 4.86816 0
M  V30 6570 C 1185.31 6.5273 2.63741 0
M  V30 6571 C 1184.6 5.1842 2.73198 0
M  V30 6572 N 1184.65 4.38762 1.4784 0
M  V30 6573 C 1184.57 4.83651 0.183876 0
M  V30 6574 N 1184.64 3.88759 -0.699393 0
M  V30 6575 C 1184.79 2.7404 0.0575568 0
M  V30 6576 C 1184.92 1.37902 -0.293928 0
M  V30 6577 N 1184.93 0.938021 -1.54797 0
M  V30 6578 N 1185.04 0.491817 0.70549 0
M  V30 6579 C 1185.03 0.931735 1.95979 0
M  V30 6580 N 1184.91 2.16017 2.41481 0
M  V30 6581 C 1184.79 3.02547 1.39121 0
M  V30 6582 H 1181.82 8.36899 2.3252 0
M  V30 6583 H 1181.54 6.70391 1.71179 0
M  V30 6584 H 1182.41 7.03638 4.13219 0
M  V30 6585 H 1185.07 4.59931 3.54016 0
M  V30 6586 H 1185.35 6.88995 1.59871 0
M  V30 6587 H 1186.34 6.4684 3.0373 0
M  V30 6588 H 1184.5 8.47002 3.20749 0
M  V30 6589 H 1184.46 5.8885 -0.0765548 0
M  V30 6590 H 1184.84 1.60276 -2.32875 0
M  V30 6591 H 1185.03 -0.0699355 -1.73859 0
M  V30 6592 H 1185.14 0.165507 2.71897 0
M  V30 6593 P 1186.37 7.20834 5.23717 0
M  V30 6594 O 1186.59 7.79853 6.57286 0
M  V30 6595 O 1187.16 7.79239 4.12957 0
M  V30 6596 O 1186.62 5.63315 5.29344 0
M  V30 6597 C 1185.68 4.80255 6.01876 0
M  V30 6598 C 1186.41 3.64202 6.65911 0
M  V30 6599 O 1186.62 2.60694 5.64732 0
M  V30 6600 C 1187.81 3.93473 7.1943 0
M  V30 6601 O 1188.2 3.02071 8.21205 0
M  V30 6602 C 1188.69 3.73047 5.97036 0
M  V30 6603 C 1187.98 2.58828 5.25741 0
M  V30 6604 N 1188.03 2.68068 3.77503 0
M  V30 6605 H 1185.19 5.40332 6.79951 0
M  V30 6606 H 1184.92 4.41613 5.32378 0
M  V30 6607 H 1185.79 3.26331 7.47797 0
M  V30 6608 P 1189.75 2.75334 8.47391 0
M  V30 6609 O 1189.97 2.44571 9.90142 0
M  V30 6610 O 1190.54 3.87688 7.92115 0
M  V30 6611 O 1190 1.4459 7.59357 0
M  V30 6612 C 1189.06 0.347608 7.69215 0
M  V30 6613 C 1189.79 -0.96767 7.52806 0
M  V30 6614 O 1190 -1.21036 6.1011 0
M  V30 6615 C 1191.19 -1.04544 8.13308 0
M  V30 6616 O 1191.58 -2.38311 8.41922 0
M  V30 6617 C 1192.07 -0.491279 7.02284 0
M  V30 6618 C 1191.36 -0.996264 5.77469 0
M  V30 6619 N 1191.41 -0.0501916 4.62973 0
M  V30 6620 H 1188.57 0.374722 8.67691 0
M  V30 6621 H 1188.3 0.443485 6.90277 0
M  V30 6622 H 1189.17 -1.75537 7.96793 0
M  V30 6623 P 1193.13 -2.75334 8.47391 0
M  V30 6624 O 1193.35 -3.84128 9.44797 0
M  V30 6625 O 1193.92 -1.51947 8.68712 0
M  V30 6626 O 1193.38 -3.29363 6.99321 0
M  V30 6627 C 1192.44 -4.24011 6.4274 0
M  V30 6628 C 1193.17 -5.20775 5.52155 0
M  V30 6629 O 1193.38 -4.56534 4.22446 0
M  V30 6630 C 1194.57 -5.62629 5.96531 0
M  V30 6631 O 1194.96 -6.87667 5.41053 0
M  V30 6632 C 1195.45 -4.52537 5.39283 0
M  V30 6633 C 1194.74 -4.20027 4.08623 0
M  V30 6634 N 1194.79 -2.76189 3.71603 0
M  V30 6635 H 1191.95 -4.797 7.24003 0
M  V30 6636 H 1191.68 -3.69856 5.84513 0
M  V30 6637 H 1192.55 -6.10356 5.41441 0
M  V30 6638 P 1196.51 -7.20834 5.23717 0
M  V30 6639 O 1196.73 -8.66104 5.38572 0
M  V30 6640 O 1197.3 -6.33544 6.1349 0
M  V30 6641 O 1196.76 -6.7751 3.72168 0
M  V30 6642 C 1195.82 -7.20825 2.7076 0
M  V30 6643 C 1196.55 -7.45864 1.40599 0
M  V30 6644 O 1196.76 -6.17651 0.734225 0
M  V30 6645 C 1197.95 -8.05808 1.51899 0
M  V30 6646 O 1198.34 -8.74358 0.335205 0
M  V30 6647 C 1198.83 -6.83093 1.70294 0
M  V30 6648 C 1198.12 -5.79992 0.836974 0
M  V30 6649 N 1198.17 -4.41864 1.38293 0
M  V30 6650 H 1195.33 -8.13644 3.0377 0
M  V30 6651 H 1195.06 -6.42788 2.55485 0
M  V30 6652 H 1195.93 -8.12039 0.792769 0
M  V30 6653 P 1199.89 -8.91 -9.38728e-12 0
M  V30 6654 O 1200.11 -10.1726 -0.733694 0
M  V30 6655 O 1200.68 -8.73148 1.23936 0
M  V30 6656 O 1200.14 -7.66872 -0.971405 0
M  V30 6657 C 1199.2 -7.42309 -2.04641 0
M  V30 6658 C 1199.93 -6.86059 -3.24661 0
M  V30 6659 O 1200.14 -5.42847 -3.03646 0
M  V30 6660 C 1201.33 -7.41196 -3.50753 0
M  V30 6661 O 1201.72 -7.27073 -4.86816 0
M  V30 6662 C 1202.21 -6.5273 -2.63741 0
M  V30 6663 C 1201.5 -5.1842 -2.73198 0
M  V30 6664 N 1201.55 -4.38762 -1.4784 0
M  V30 6665 H 1198.71 -8.36803 -2.32493 0
M  V30 6666 H 1198.44 -6.70197 -1.71129 0
M  V30 6667 H 1199.31 -7.03551 -4.13168 0
M  V30 6668 P 1203.27 -7.20834 -5.23717 0
M  V30 6669 O 1203.49 -7.79853 -6.57286 0
M  V30 6670 O 1204.06 -7.79239 -4.12957 0
M  V30 6671 O 1203.52 -5.63315 -5.29344 0
M  V30 6672 C 1202.58 -4.80255 -6.01876 0
M  V30 6673 C 1203.31 -3.64202 -6.65911 0
M  V30 6674 O 1203.52 -2.60694 -5.64732 0
M  V30 6675 C 1204.71 -3.93473 -7.1943 0
M  V30 6676 O 1205.1 -3.02071 -8.21205 0
M  V30 6677 C 1205.59 -3.73047 -5.97036 0
M  V30 6678 C 1204.88 -2.58828 -5.25741 0
M  V30 6679 N 1204.93 -2.68068 -3.77503 0
M  V30 6680 H 1202.09 -5.40332 -6.79951 0
M  V30 6681 H 1201.82 -4.41613 -5.32378 0
M  V30 6682 H 1202.69 -3.26331 -7.47797 0
M  V30 6683 P 1206.65 -2.75334 -8.47391 0
M  V30 6684 O 1206.87 -2.44571 -9.90142 0
M  V30 6685 O 1207.44 -3.87688 -7.92115 0
M  V30 6686 O 1206.9 -1.4459 -7.59357 0
M  V30 6687 C 1205.96 -0.347608 -7.69215 0
M  V30 6688 C 1206.69 0.96767 -7.52806 0
M  V30 6689 O 1206.9 1.21036 -6.1011 0
M  V30 6690 C 1208.09 1.04544 -8.13308 0
M  V30 6691 O 1208.48 2.38311 -8.41922 0
M  V30 6692 C 1208.97 0.491279 -7.02284 0
M  V30 6693 C 1208.26 0.996264 -5.77469 0
M  V30 6694 N 1208.31 0.0501916 -4.62973 0
M  V30 6695 H 1205.47 -0.374722 -8.67691 0
M  V30 6696 H 1205.2 -0.443485 -6.90277 0
M  V30 6697 H 1206.07 1.75537 -7.96793 0
M  V30 6698 P 1210.03 2.75334 -8.47391 0
M  V30 6699 O 1210.25 3.84128 -9.44797 0
M  V30 6700 O 1210.82 1.51947 -8.68712 0
M  V30 6701 O 1210.28 3.29363 -6.99321 0
M  V30 6702 C 1209.34 4.24011 -6.4274 0
M  V30 6703 C 1210.07 5.20775 -5.52155 0
M  V30 6704 O 1210.28 4.56534 -4.22446 0
M  V30 6705 C 1211.47 5.62629 -5.96531 0
M  V30 6706 O 1211.86 6.87667 -5.41053 0
M  V30 6707 C 1212.35 4.52537 -5.39283 0
M  V30 6708 C 1211.64 4.20027 -4.08623 0
M  V30 6709 N 1211.69 2.76189 -3.71603 0
M  V30 6710 H 1208.85 4.797 -7.24003 0
M  V30 6711 H 1208.58 3.69856 -5.84513 0
M  V30 6712 H 1209.45 6.10356 -5.41441 0
M  V30 6713 P 1213.41 7.20834 -5.23717 0
M  V30 6714 O 1213.63 8.66104 -5.38572 0
M  V30 6715 O 1214.2 6.33544 -6.1349 0
M  V30 6716 O 1213.66 6.7751 -3.72168 0
M  V30 6717 C 1212.72 7.20825 -2.7076 0
M  V30 6718 C 1213.45 7.45864 -1.40599 0
M  V30 6719 O 1213.66 6.17651 -0.734225 0
M  V30 6720 C 1214.85 8.05808 -1.51899 0
M  V30 6721 O 1215.24 8.74358 -0.335205 0
M  V30 6722 C 1215.73 6.83093 -1.70294 0
M  V30 6723 C 1215.02 5.79992 -0.836974 0
M  V30 6724 N 1215.07 4.41864 -1.38293 0
M  V30 6725 H 1212.23 8.13644 -3.0377 0
M  V30 6726 H 1211.96 6.42788 -2.55485 0
M  V30 6727 H 1212.83 8.12039 -0.792769 0
M  V30 6728 P 1216.79 8.91 9.54446e-12 0
M  V30 6729 O 1217.01 10.1726 0.733694 0
M  V30 6730 O 1217.58 8.73148 -1.23936 0
M  V30 6731 O 1217.04 7.66872 0.971405 0
M  V30 6732 C 1216.1 7.42309 2.04641 0
M  V30 6733 C 1216.83 6.86059 3.24661 0
M  V30 6734 O 1217.04 5.42847 3.03646 0
M  V30 6735 C 1218.23 7.41196 3.50753 0
M  V30 6736 O 1218.62 7.27073 4.86816 0
M  V30 6737 C 1219.11 6.5273 2.63741 0
M  V30 6738 C 1218.4 5.1842 2.73198 0
M  V30 6739 N 1218.45 4.38762 1.4784 0
M  V30 6740 H 1215.61 8.36803 2.32493 0
M  V30 6741 H 1215.34 6.70197 1.71129 0
M  V30 6742 H 1216.21 7.03551 4.13168 0
M  V30 6743 P 1220.17 7.20834 5.23717 0
M  V30 6744 O 1220.39 7.79853 6.57286 0
M  V30 6745 O 1220.96 7.79239 4.12957 0
M  V30 6746 O 1220.42 5.63315 5.29344 0
M  V30 6747 C 1219.48 4.80255 6.01876 0
M  V30 6748 C 1220.21 3.64202 6.65911 0
M  V30 6749 O 1220.42 2.60694 5.64732 0
M  V30 6750 C 1221.61 3.93473 7.1943 0
M  V30 6751 O 1222 3.02071 8.21205 0
M  V30 6752 C 1222.49 3.73047 5.97036 0
M  V30 6753 C 1221.78 2.58828 5.25741 0
M  V30 6754 N 1221.83 2.68068 3.77503 0
M  V30 6755 H 1218.99 5.40332 6.79951 0
M  V30 6756 H 1218.72 4.41613 5.32378 0
M  V30 6757 H 1219.59 3.26331 7.47797 0
M  V30 6758 P 1223.55 2.75334 8.47391 0
M  V30 6759 O 1223.77 2.44571 9.90142 0
M  V30 6760 O 1224.34 3.87688 7.92115 0
M  V30 6761 O 1223.8 1.4459 7.59357 0
M  V30 6762 C 1222.86 0.347608 7.69215 0
M  V30 6763 C 1223.59 -0.96767 7.52806 0
M  V30 6764 O 1223.8 -1.21036 6.1011 0
M  V30 6765 C 1224.99 -1.04544 8.13308 0
M  V30 6766 O 1225.38 -2.38311 8.41922 0
M  V30 6767 C 1225.87 -0.491279 7.02284 0
M  V30 6768 C 1225.16 -0.996264 5.77469 0
M  V30 6769 N 1225.21 -0.0501916 4.62973 0
M  V30 6770 H 1222.37 0.374722 8.67691 0
M  V30 6771 H 1222.1 0.443485 6.90277 0
M  V30 6772 H 1222.97 -1.75537 7.96793 0
M  V30 6773 P 1226.93 -2.75334 8.47391 0
M  V30 6774 O 1227.15 -3.84166 9.4489 0
M  V30 6775 O 1227.72 -1.51964 8.6881 0
M  V30 6776 O 1227.18 -3.29363 6.99321 0
M  V30 6777 C 1226.24 -4.23956 6.42656 0
M  V30 6778 C 1226.97 -5.20775 5.52155 0
M  V30 6779 O 1227.18 -4.56534 4.22446 0
M  V30 6780 C 1228.37 -5.62629 5.96531 0
M  V30 6781 O 1228.76 -6.87667 5.41053 0
M  V30 6782 C 1229.25 -4.52537 5.39283 0
M  V30 6783 C 1228.54 -4.20027 4.08623 0
M  V30 6784 N 1228.59 -2.7613 3.71522 0
M  V30 6785 C 1228.74 -2.45612 2.37989 0
M  V30 6786 O 1228.83 -3.30919 1.51621 0
M  V30 6787 N 1228.78 -1.10684 2.08435 0
M  V30 6788 C 1228.69 -0.0690084 2.9792 0
M  V30 6789 O 1228.74 1.10553 2.59426 0
M  V30 6790 C 1228.54 -0.481522 4.35345 0
M  V30 6791 C 1228.43 0.618778 5.36443 0
M  V30 6792 C 1228.49 -1.78906 4.67968 0
M  V30 6793 H 1225.75 -4.797 7.24003 0
M  V30 6794 H 1225.48 -3.69802 5.84429 0
M  V30 6795 H 1226.35 -6.10356 5.41441 0
M  V30 6796 H 1229.01 -4.78651 3.27911 0
M  V30 6797 H 1229.28 -3.64957 6.05871 0
M  V30 6798 H 1230.28 -4.8868 5.2125 0
M  V30 6799 H 1228.44 -5.66726 7.06352 0
M  V30 6800 H 1228.37 -2.07737 5.72367 0
M  V30 6801 H 1229.4 0.754375 5.86871 0
M  V30 6802 H 1227.66 0.359721 6.10641 0
M  V30 6803 H 1228.15 1.55533 4.8581 0
M  V30 6804 H 1228.89 -0.862651 1.12037 0
M  V30 6805 P 1230.31 -7.20834 5.23717 0
M  V30 6806 O 1230.53 -8.66274 5.38678 0
M  V30 6807 O 1231.1 -6.33687 6.13629 0
M  V30 6808 O 1230.56 -6.7751 3.72168 0
M  V30 6809 C 1229.62 -7.20919 2.70795 0
M  V30 6810 C 1230.35 -7.45864 1.40599 0
M  V30 6811 O 1230.56 -6.17751 0.734343 0
M  V30 6812 C 1231.75 -8.05906 1.51917 0
M  V30 6813 O 1232.14 -8.74358 0.335205 0
M  V30 6814 C 1232.63 -6.83093 1.70294 0
M  V30 6815 C 1231.92 -5.79992 0.836974 0
M  V30 6816 N 1231.97 -4.41864 1.38293 0
M  V30 6817 H 1229.13 -8.13738 3.03804 0
M  V30 6818 H 1228.86 -6.42974 2.55559 0
M  V30 6819 H 1229.73 -8.12139 0.792866 0
M  V30 6820 H 1232.39 -5.80178 -0.160643 0
M  V30 6821 H 1232.67 -6.51379 2.75643 0
M  V30 6822 H 1233.66 -7.01832 1.3448 0
M  V30 6823 H 1231.82 -8.73771 2.38364 0
M  V30 6824 P 1233.69 -8.91 -9.70164e-12 0
M  V30 6825 O 1233.91 -10.1726 -0.733694 0
M  V30 6826 O 1234.48 -8.73148 1.23936 0
M  V30 6827 O 1233.94 -7.66872 -0.971405 0
M  V30 6828 C 1233 -7.42309 -2.04641 0
M  V30 6829 C 1233.73 -6.86059 -3.24661 0
M  V30 6830 O 1233.94 -5.42847 -3.03646 0
M  V30 6831 C 1235.13 -7.41196 -3.50753 0
M  V30 6832 O 1235.52 -7.27073 -4.86816 0
M  V30 6833 C 1236.01 -6.5273 -2.63741 0
M  V30 6834 C 1235.3 -5.1842 -2.73198 0
M  V30 6835 N 1235.35 -4.38762 -1.4784 0
M  V30 6836 H 1232.51 -8.36803 -2.32493 0
M  V30 6837 H 1232.24 -6.70197 -1.71129 0
M  V30 6838 H 1233.11 -7.03551 -4.13168 0
M  V30 6839 P 1237.07 -7.20834 -5.23717 0
M  V30 6840 O 1237.29 -7.80006 -6.57415 0
M  V30 6841 O 1237.86 -7.79416 -4.13051 0
M  V30 6842 O 1237.32 -5.63315 -5.29344 0
M  V30 6843 C 1236.38 -4.80318 -6.01954 0
M  V30 6844 C 1237.11 -3.64202 -6.65911 0
M  V30 6845 O 1237.32 -2.60736 -5.64823 0
M  V30 6846 C 1238.51 -3.93521 -7.19518 0
M  V30 6847 O 1238.9 -3.02071 -8.21205 0
M  V30 6848 C 1239.39 -3.73047 -5.97036 0
M  V30 6849 C 1238.68 -2.58828 -5.25741 0
M  V30 6850 N 1238.73 -2.68068 -3.77503 0
M  V30 6851 C 1238.65 -3.80474 -2.99159 0
M  V30 6852 N 1238.72 -3.55622 -1.71925 0
M  V30 6853 C 1238.87 -2.1832 -1.65733 0
M  V30 6854 C 1239 -1.28842 -0.572777 0
M  V30 6855 N 1239.01 -1.66875 0.70098 0
M  V30 6856 N 1239.12 0.016788 -0.859836 0
M  V30 6857 C 1239.11 0.398145 -2.13316 0
M  V30 6858 N 1238.99 -0.328224 -3.22333 0
M  V30 6859 C 1238.87 -1.62992 -2.90383 0
M  V30 6860 H 1235.89 -5.40394 -6.8003 0
M  V30 6861 H 1235.62 -4.41741 -5.32532 0
M  V30 6862 H 1236.49 -3.26371 -7.47889 0
M  V30 6863 H 1239.15 -1.64007 -5.56746 0
M  V30 6864 H 1239.43 -4.63439 -5.3432 0
M  V30 6865 H 1240.42 -3.44776 -6.25925 0
M  V30 6866 H 1238.58 -4.96707 -7.57347 0
M  V30 6867 H 1238.54 -4.8089 -3.39924 0
M  V30 6868 H 1238.92 -2.66547 0.941919 0
M  V30 6869 H 1239.11 -0.965341 1.44766 0
M  V30 6870 H 1239.22 1.46427 -2.29697 0
M  V30 6871 P 1240.45 -2.75334 -8.47391 0
M  V30 6872 O 1240.67 -2.44571 -9.90142 0
M  V30 6873 O 1241.24 -3.87688 -7.92115 0
M  V30 6874 O 1240.7 -1.4459 -7.59357 0
M  V30 6875 C 1239.76 -0.347608 -7.69215 0
M  V30 6876 C 1240.49 0.96767 -7.52806 0
M  V30 6877 O 1240.7 1.21036 -6.1011 0
M  V30 6878 C 1241.89 1.04544 -8.13308 0
M  V30 6879 O 1242.28 2.38311 -8.41922 0
M  V30 6880 C 1242.77 0.491279 -7.02284 0
M  V30 6881 C 1242.06 0.996264 -5.77469 0
M  V30 6882 N 1242.11 0.0501916 -4.62973 0
M  V30 6883 H 1239.27 -0.374722 -8.67691 0
M  V30 6884 H 1239 -0.443485 -6.90277 0
M  V30 6885 H 1239.87 1.75537 -7.96793 0
M  V30 6886 P 1243.83 2.75334 -8.47391 0
M  V30 6887 O 1244.05 3.84128 -9.44797 0
M  V30 6888 O 1244.62 1.51947 -8.68712 0
M  V30 6889 O 1244.08 3.29363 -6.99321 0
M  V30 6890 C 1243.14 4.24011 -6.4274 0
M  V30 6891 C 1243.87 5.20775 -5.52155 0
M  V30 6892 O 1244.08 4.56534 -4.22446 0
M  V30 6893 C 1245.27 5.62629 -5.96531 0
M  V30 6894 O 1245.66 6.87667 -5.41053 0
M  V30 6895 C 1246.15 4.52537 -5.39283 0
M  V30 6896 C 1245.44 4.20027 -4.08623 0
M  V30 6897 N 1245.49 2.76189 -3.71603 0
M  V30 6898 H 1242.65 4.797 -7.24003 0
M  V30 6899 H 1242.38 3.69856 -5.84513 0
M  V30 6900 H 1243.25 6.10356 -5.41441 0
M  V30 6901 P 1247.21 7.20834 -5.23717 0
M  V30 6902 O 1247.43 8.66104 -5.38572 0
M  V30 6903 O 1248 6.33544 -6.1349 0
M  V30 6904 O 1247.46 6.7751 -3.72168 0
M  V30 6905 C 1246.52 7.20825 -2.7076 0
M  V30 6906 C 1247.25 7.45864 -1.40599 0
M  V30 6907 O 1247.46 6.17651 -0.734225 0
M  V30 6908 C 1248.65 8.05808 -1.51899 0
M  V30 6909 O 1249.04 8.74358 -0.335205 0
M  V30 6910 C 1249.53 6.83093 -1.70294 0
M  V30 6911 C 1248.82 5.79992 -0.836974 0
M  V30 6912 N 1248.87 4.41864 -1.38293 0
M  V30 6913 H 1246.03 8.13644 -3.0377 0
M  V30 6914 H 1245.76 6.42788 -2.55485 0
M  V30 6915 H 1246.63 8.12039 -0.792769 0
M  V30 6916 P 1250.59 8.91 9.85882e-12 0
M  V30 6917 O 1250.81 10.1726 0.733694 0
M  V30 6918 O 1251.38 8.73148 -1.23936 0
M  V30 6919 O 1250.84 7.66872 0.971405 0
M  V30 6920 C 1249.9 7.42309 2.04641 0
M  V30 6921 C 1250.63 6.86059 3.24661 0
M  V30 6922 O 1250.84 5.42847 3.03646 0
M  V30 6923 C 1252.03 7.41196 3.50753 0
M  V30 6924 O 1252.42 7.27073 4.86816 0
M  V30 6925 C 1252.91 6.5273 2.63741 0
M  V30 6926 C 1252.2 5.1842 2.73198 0
M  V30 6927 N 1252.25 4.38762 1.4784 0
M  V30 6928 H 1249.41 8.36803 2.32493 0
M  V30 6929 H 1249.14 6.70197 1.71129 0
M  V30 6930 H 1250.01 7.03551 4.13168 0
M  V30 6931 P 1253.97 7.20834 5.23717 0
M  V30 6932 O 1254.19 7.79853 6.57286 0
M  V30 6933 O 1254.76 7.79239 4.12957 0
M  V30 6934 O 1254.22 5.63315 5.29344 0
M  V30 6935 C 1253.28 4.80255 6.01876 0
M  V30 6936 C 1254.01 3.64202 6.65911 0
M  V30 6937 O 1254.22 2.60694 5.64732 0
M  V30 6938 C 1255.41 3.93473 7.1943 0
M  V30 6939 O 1255.8 3.02071 8.21205 0
M  V30 6940 C 1256.29 3.73047 5.97036 0
M  V30 6941 C 1255.58 2.58828 5.25741 0
M  V30 6942 N 1255.63 2.68068 3.77503 0
M  V30 6943 H 1252.79 5.40332 6.79951 0
M  V30 6944 H 1252.52 4.41613 5.32378 0
M  V30 6945 H 1253.39 3.26331 7.47797 0
M  V30 6946 P 1257.35 2.75334 8.47391 0
M  V30 6947 O 1257.57 2.44571 9.90142 0
M  V30 6948 O 1258.14 3.87688 7.92115 0
M  V30 6949 O 1257.6 1.4459 7.59357 0
M  V30 6950 C 1256.66 0.347608 7.69215 0
M  V30 6951 C 1257.39 -0.96767 7.52806 0
M  V30 6952 O 1257.6 -1.21036 6.1011 0
M  V30 6953 C 1258.79 -1.04544 8.13308 0
M  V30 6954 O 1259.18 -2.38311 8.41922 0
M  V30 6955 C 1259.67 -0.491279 7.02284 0
M  V30 6956 C 1258.96 -0.996264 5.77469 0
M  V30 6957 N 1259.01 -0.0501916 4.62973 0
M  V30 6958 H 1256.17 0.374722 8.67691 0
M  V30 6959 H 1255.9 0.443485 6.90277 0
M  V30 6960 H 1256.77 -1.75537 7.96793 0
M  V30 6961 P 1260.73 -2.75334 8.47391 0
M  V30 6962 O 1260.95 -3.84128 9.44797 0
M  V30 6963 O 1261.52 -1.51947 8.68712 0
M  V30 6964 O 1260.98 -3.29363 6.99321 0
M  V30 6965 C 1260.04 -4.24011 6.4274 0
M  V30 6966 C 1260.77 -5.20775 5.52155 0
M  V30 6967 O 1260.98 -4.56534 4.22446 0
M  V30 6968 C 1262.17 -5.62629 5.96531 0
M  V30 6969 O 1262.56 -6.87667 5.41053 0
M  V30 6970 C 1263.05 -4.52537 5.39283 0
M  V30 6971 C 1262.34 -4.20027 4.08623 0
M  V30 6972 N 1262.39 -2.76189 3.71603 0
M  V30 6973 H 1259.55 -4.797 7.24003 0
M  V30 6974 H 1259.28 -3.69856 5.84513 0
M  V30 6975 H 1260.15 -6.10356 5.41441 0
M  V30 6976 P 1264.11 -7.20834 5.23717 0
M  V30 6977 O 1264.33 -8.66104 5.38572 0
M  V30 6978 O 1264.9 -6.33544 6.1349 0
M  V30 6979 O 1264.36 -6.7751 3.72168 0
M  V30 6980 C 1263.42 -7.20825 2.7076 0
M  V30 6981 C 1264.15 -7.45864 1.40599 0
M  V30 6982 O 1264.36 -6.17651 0.734225 0
M  V30 6983 C 1265.55 -8.05808 1.51899 0
M  V30 6984 O 1265.94 -8.74358 0.335205 0
M  V30 6985 C 1266.43 -6.83093 1.70294 0
M  V30 6986 C 1265.72 -5.79992 0.836974 0
M  V30 6987 N 1265.77 -4.41864 1.38293 0
M  V30 6988 H 1262.93 -8.13644 3.0377 0
M  V30 6989 H 1262.66 -6.42788 2.55485 0
M  V30 6990 H 1263.53 -8.12039 0.792769 0
M  V30 6991 P 1267.49 -8.91 -1.0016e-11 0
M  V30 6992 O 1267.71 -10.1726 -0.733694 0
M  V30 6993 O 1268.28 -8.73148 1.23936 0
M  V30 6994 O 1267.74 -7.66872 -0.971405 0
M  V30 6995 C 1266.8 -7.42309 -2.04641 0
M  V30 6996 C 1267.53 -6.86059 -3.24661 0
M  V30 6997 O 1267.74 -5.42847 -3.03646 0
M  V30 6998 C 1268.93 -7.41196 -3.50753 0
M  V30 6999 O 1269.32 -7.27073 -4.86816 0
M  V30 7000 C 1269.81 -6.5273 -2.63741 0
M  V30 7001 C 1269.1 -5.1842 -2.73198 0
M  V30 7002 N 1269.15 -4.38762 -1.4784 0
M  V30 7003 H 1266.31 -8.36803 -2.32493 0
M  V30 7004 H 1266.04 -6.70197 -1.71129 0
M  V30 7005 H 1266.91 -7.03551 -4.13168 0
M  V30 7006 P 1270.87 -7.20834 -5.23717 0
M  V30 7007 O 1271.09 -7.79853 -6.57286 0
M  V30 7008 O 1271.66 -7.79239 -4.12957 0
M  V30 7009 O 1271.12 -5.63315 -5.29344 0
M  V30 7010 C 1270.18 -4.80255 -6.01876 0
M  V30 7011 C 1270.91 -3.64202 -6.65911 0
M  V30 7012 O 1271.12 -2.60694 -5.64732 0
M  V30 7013 C 1272.31 -3.93473 -7.1943 0
M  V30 7014 O 1272.7 -3.02071 -8.21205 0
M  V30 7015 C 1273.19 -3.73047 -5.97036 0
M  V30 7016 C 1272.48 -2.58828 -5.25741 0
M  V30 7017 N 1272.53 -2.68068 -3.77503 0
M  V30 7018 H 1269.69 -5.40332 -6.79951 0
M  V30 7019 H 1269.42 -4.41613 -5.32378 0
M  V30 7020 H 1270.29 -3.26331 -7.47797 0
M  V30 7021 P 1274.25 -2.75334 -8.47391 0
M  V30 7022 O 1274.47 -2.44571 -9.90142 0
M  V30 7023 O 1275.04 -3.87688 -7.92115 0
M  V30 7024 O 1274.5 -1.4459 -7.59357 0
M  V30 7025 C 1273.56 -0.347608 -7.69215 0
M  V30 7026 C 1274.29 0.96767 -7.52806 0
M  V30 7027 O 1274.5 1.21036 -6.1011 0
M  V30 7028 C 1275.69 1.04544 -8.13308 0
M  V30 7029 O 1276.08 2.38311 -8.41922 0
M  V30 7030 C 1276.57 0.491279 -7.02284 0
M  V30 7031 C 1275.86 0.996264 -5.77469 0
M  V30 7032 N 1275.91 0.0501916 -4.62973 0
M  V30 7033 H 1273.07 -0.374722 -8.67691 0
M  V30 7034 H 1272.8 -0.443485 -6.90277 0
M  V30 7035 H 1273.67 1.75537 -7.96793 0
M  V30 7036 P 1277.63 2.75334 -8.47391 0
M  V30 7037 O 1277.85 3.84128 -9.44797 0
M  V30 7038 O 1278.42 1.51947 -8.68712 0
M  V30 7039 O 1277.88 3.29363 -6.99321 0
M  V30 7040 C 1276.94 4.24011 -6.4274 0
M  V30 7041 C 1277.67 5.20775 -5.52155 0
M  V30 7042 O 1277.88 4.56534 -4.22446 0
M  V30 7043 C 1279.07 5.62629 -5.96531 0
M  V30 7044 O 1279.46 6.87667 -5.41053 0
M  V30 7045 C 1279.95 4.52537 -5.39283 0
M  V30 7046 C 1279.24 4.20027 -4.08623 0
M  V30 7047 N 1279.29 2.76189 -3.71603 0
M  V30 7048 H 1276.45 4.797 -7.24003 0
M  V30 7049 H 1276.18 3.69856 -5.84513 0
M  V30 7050 H 1277.05 6.10356 -5.41441 0
M  V30 7051 P 1281.01 7.20834 -5.23717 0
M  V30 7052 O 1281.23 8.66104 -5.38572 0
M  V30 7053 O 1281.8 6.33544 -6.1349 0
M  V30 7054 O 1281.26 6.7751 -3.72168 0
M  V30 7055 C 1280.32 7.20825 -2.7076 0
M  V30 7056 C 1281.05 7.45864 -1.40599 0
M  V30 7057 O 1281.26 6.17651 -0.734225 0
M  V30 7058 C 1282.45 8.05808 -1.51899 0
M  V30 7059 O 1282.84 8.74358 -0.335205 0
M  V30 7060 C 1283.33 6.83093 -1.70294 0
M  V30 7061 C 1282.62 5.79992 -0.836974 0
M  V30 7062 N 1282.67 4.41864 -1.38293 0
M  V30 7063 H 1279.83 8.13644 -3.0377 0
M  V30 7064 H 1279.56 6.42788 -2.55485 0
M  V30 7065 H 1280.43 8.12039 -0.792769 0
M  V30 7066 P 1284.39 8.91 1.01732e-11 0
M  V30 7067 O 1284.61 10.1726 0.733694 0
M  V30 7068 O 1285.18 8.73148 -1.23936 0
M  V30 7069 O 1284.64 7.66872 0.971405 0
M  V30 7070 C 1283.7 7.42309 2.04641 0
M  V30 7071 C 1284.43 6.86059 3.24661 0
M  V30 7072 O 1284.64 5.42847 3.03646 0
M  V30 7073 C 1285.83 7.41196 3.50753 0
M  V30 7074 O 1286.22 7.27073 4.86816 0
M  V30 7075 C 1286.71 6.5273 2.63741 0
M  V30 7076 C 1286 5.1842 2.73198 0
M  V30 7077 N 1286.05 4.38762 1.4784 0
M  V30 7078 H 1283.21 8.36803 2.32493 0
M  V30 7079 H 1282.94 6.70197 1.71129 0
M  V30 7080 H 1283.81 7.03551 4.13168 0
M  V30 7081 P 1287.77 7.20834 5.23717 0
M  V30 7082 O 1287.99 7.79853 6.57286 0
M  V30 7083 O 1288.56 7.79239 4.12957 0
M  V30 7084 O 1288.02 5.63315 5.29344 0
M  V30 7085 C 1287.08 4.80255 6.01876 0
M  V30 7086 C 1287.81 3.64202 6.65911 0
M  V30 7087 O 1288.02 2.60694 5.64732 0
M  V30 7088 C 1289.21 3.93473 7.1943 0
M  V30 7089 O 1289.6 3.02071 8.21205 0
M  V30 7090 C 1290.09 3.73047 5.97036 0
M  V30 7091 C 1289.38 2.58828 5.25741 0
M  V30 7092 N 1289.43 2.68068 3.77503 0
M  V30 7093 H 1286.59 5.40332 6.79951 0
M  V30 7094 H 1286.32 4.41613 5.32378 0
M  V30 7095 H 1287.19 3.26331 7.47797 0
M  V30 7096 P 1291.15 2.75334 8.47391 0
M  V30 7097 O 1291.37 2.44571 9.90142 0
M  V30 7098 O 1291.94 3.87688 7.92115 0
M  V30 7099 O 1291.4 1.4459 7.59357 0
M  V30 7100 C 1290.46 0.347608 7.69215 0
M  V30 7101 C 1291.19 -0.96767 7.52806 0
M  V30 7102 O 1291.4 -1.21036 6.1011 0
M  V30 7103 C 1292.59 -1.04544 8.13308 0
M  V30 7104 O 1292.98 -2.38311 8.41922 0
M  V30 7105 C 1293.47 -0.491279 7.02284 0
M  V30 7106 C 1292.76 -0.996264 5.77469 0
M  V30 7107 N 1292.81 -0.0501916 4.62973 0
M  V30 7108 C 1292.73 1.32786 4.63244 0
M  V30 7109 N 1292.81 1.86957 3.44545 0
M  V30 7110 C 1292.95 0.780241 2.58481 0
M  V30 7111 C 1293.08 0.738536 1.17757 0
M  V30 7112 O 1293.1 1.66794 0.372349 0
M  V30 7113 N 1293.2 -0.58337 0.711393 0
M  V30 7114 C 1293.2 -1.70816 1.51017 0
M  V30 7115 N 1293.33 -2.87826 0.880757 0
M  V30 7116 N 1293.07 -1.67126 2.8339 0
M  V30 7117 C 1292.95 -0.401421 3.30572 0
M  V30 7118 H 1289.97 0.374722 8.67691 0
M  V30 7119 H 1289.7 0.443485 6.90277 0
M  V30 7120 H 1290.57 -1.75537 7.96793 0
M  V30 7121 H 1293.23 -1.95076 5.46529 0
M  V30 7122 H 1293.5 0.608565 7.04577 0
M  V30 7123 H 1294.5 -0.889672 7.08939 0
M  V30 7124 H 1292.66 -0.43308 9.04564 0
M  V30 7125 H 1292.61 1.91249 5.54442 0
M  V30 7126 H 1293.3 -0.718054 -0.275244 0
M  V30 7127 H 1293.33 -3.75721 1.41832 0
M  V30 7128 H 1293.43 -2.90436 -0.145468 0
M  V30 7129 P 1294.53 -2.75334 8.47391 0
M  V30 7130 O 1294.75 -3.84128 9.44797 0
M  V30 7131 O 1295.32 -1.51947 8.68712 0
M  V30 7132 O 1294.78 -3.29363 6.99321 0
M  V30 7133 C 1293.84 -4.24011 6.4274 0
M  V30 7134 C 1294.57 -5.20775 5.52155 0
M  V30 7135 O 1294.78 -4.56534 4.22446 0
M  V30 7136 C 1295.97 -5.62629 5.96531 0
M  V30 7137 O 1296.36 -6.87667 5.41053 0
M  V30 7138 C 1296.85 -4.52537 5.39283 0
M  V30 7139 C 1296.14 -4.20027 4.08623 0
M  V30 7140 N 1296.19 -2.76189 3.71603 0
M  V30 7141 C 1296.11 -1.64862 4.52822 0
M  V30 7142 N 1296.19 -0.512671 3.88633 0
M  V30 7143 C 1296.33 -0.888083 2.54977 0
M  V30 7144 C 1296.46 -0.094668 1.38677 0
M  V30 7145 N 1296.58 -0.890102 0.232633 0
M  V30 7146 C 1296.58 -2.26958 0.21772 0
M  V30 7147 N 1296.71 -2.84626 -0.97925 0
M  V30 7148 N 1296.45 -3.0178 1.31033 0
M  V30 7149 C 1296.33 -2.26781 2.43843 0
M  V30 7150 H 1293.35 -4.797 7.24003 0
M  V30 7151 H 1293.08 -3.69856 5.84513 0
M  V30 7152 H 1293.95 -6.10356 5.41441 0
M  V30 7153 P 1297.91 -7.20834 5.23717 0
M  V30 7154 O 1298.13 -8.66104 5.38572 0
M  V30 7155 O 1298.7 -6.33544 6.1349 0
M  V30 7156 O 1298.16 -6.7751 3.72168 0
M  V30 7157 C 1297.22 -7.20825 2.7076 0
M  V30 7158 C 1297.95 -7.45864 1.40599 0
M  V30 7159 O 1298.16 -6.17651 0.734225 0
M  V30 7160 C 1299.35 -8.05808 1.51899 0
M  V30 7161 O 1299.74 -8.74358 0.335205 0
M  V30 7162 C 1300.23 -6.83093 1.70294 0
M  V30 7163 C 1299.52 -5.79992 0.836974 0
M  V30 7164 N 1299.57 -4.41864 1.38293 0
M  V30 7165 H 1296.73 -8.13644 3.0377 0
M  V30 7166 H 1296.46 -6.42788 2.55485 0
M  V30 7167 H 1297.33 -8.12039 0.792769 0
M  V30 7168 P 1301.29 -8.91 -1.03304e-11 0
M  V30 7169 O 1301.51 -10.1746 -0.733838 0
M  V30 7170 O 1302.08 -8.73346 1.23964 0
M  V30 7171 O 1301.54 -7.66872 -0.971405 0
M  V30 7172 C 1300.6 -7.42405 -2.04668 0
M  V30 7173 C 1301.33 -6.86059 -3.24661 0
M  V30 7174 O 1301.54 -5.42934 -3.03695 0
M  V30 7175 C 1302.73 -7.41287 -3.50796 0
M  V30 7176 O 1303.12 -7.27073 -4.86816 0
M  V30 7177 C 1303.61 -6.5273 -2.63741 0
M  V30 7178 C 1302.9 -5.1842 -2.73198 0
M  V30 7179 N 1302.95 -4.38762 -1.4784 0
M  V30 7180 H 1300.11 -8.36899 -2.3252 0
M  V30 7181 H 1299.84 -6.70391 -1.71179 0
M  V30 7182 H 1300.71 -7.03638 -4.13219 0
M  V30 7183 H 1303.37 -4.59931 -3.54016 0
M  V30 7184 H 1303.65 -6.88995 -1.59871 0
M  V30 7185 H 1304.64 -6.4684 -3.0373 0
M  V30 7186 H 1302.8 -8.47002 -3.20749 0
M  V30 7187 P 1304.67 -7.20834 -5.23717 0
M  V30 7188 O 1304.89 -7.79853 -6.57286 0
M  V30 7189 O 1305.46 -7.79239 -4.12957 0
M  V30 7190 O 1304.92 -5.63315 -5.29344 0
M  V30 7191 C 1303.98 -4.80255 -6.01876 0
M  V30 7192 C 1304.71 -3.64202 -6.65911 0
M  V30 7193 O 1304.92 -2.60694 -5.64732 0
M  V30 7194 C 1306.11 -3.93473 -7.1943 0
M  V30 7195 O 1306.5 -3.02071 -8.21205 0
M  V30 7196 C 1306.99 -3.73047 -5.97036 0
M  V30 7197 C 1306.28 -2.58828 -5.25741 0
M  V30 7198 N 1306.33 -2.68068 -3.77503 0
M  V30 7199 H 1303.49 -5.40332 -6.79951 0
M  V30 7200 H 1303.22 -4.41613 -5.32378 0
M  V30 7201 H 1304.09 -3.26331 -7.47797 0
M  V30 7202 P 1308.05 -2.75334 -8.47391 0
M  V30 7203 O 1308.27 -2.44571 -9.90142 0
M  V30 7204 O 1308.84 -3.87688 -7.92115 0
M  V30 7205 O 1308.3 -1.4459 -7.59357 0
M  V30 7206 C 1307.36 -0.347608 -7.69215 0
M  V30 7207 C 1308.09 0.96767 -7.52806 0
M  V30 7208 O 1308.3 1.21036 -6.1011 0
M  V30 7209 C 1309.49 1.04544 -8.13308 0
M  V30 7210 O 1309.88 2.38311 -8.41922 0
M  V30 7211 C 1310.37 0.491279 -7.02284 0
M  V30 7212 C 1309.66 0.996264 -5.77469 0
M  V30 7213 N 1309.71 0.0501916 -4.62973 0
M  V30 7214 H 1306.87 -0.374722 -8.67691 0
M  V30 7215 H 1306.6 -0.443485 -6.90277 0
M  V30 7216 H 1307.47 1.75537 -7.96793 0
M  V30 7217 P 1311.43 2.75334 -8.47391 0
M  V30 7218 O 1311.65 3.84128 -9.44797 0
M  V30 7219 O 1312.22 1.51947 -8.68712 0
M  V30 7220 O 1311.68 3.29363 -6.99321 0
M  V30 7221 C 1310.74 4.24011 -6.4274 0
M  V30 7222 C 1311.47 5.20775 -5.52155 0
M  V30 7223 O 1311.68 4.56534 -4.22446 0
M  V30 7224 C 1312.87 5.62629 -5.96531 0
M  V30 7225 O 1313.26 6.87667 -5.41053 0
M  V30 7226 C 1313.75 4.52537 -5.39283 0
M  V30 7227 C 1313.04 4.20027 -4.08623 0
M  V30 7228 N 1313.09 2.76189 -3.71603 0
M  V30 7229 H 1310.25 4.797 -7.24003 0
M  V30 7230 H 1309.98 3.69856 -5.84513 0
M  V30 7231 H 1310.85 6.10356 -5.41441 0
M  V30 7232 P 1314.81 7.20834 -5.23717 0
M  V30 7233 O 1315.03 8.66104 -5.38572 0
M  V30 7234 O 1315.6 6.33544 -6.1349 0
M  V30 7235 O 1315.06 6.7751 -3.72168 0
M  V30 7236 C 1314.12 7.20825 -2.7076 0
M  V30 7237 C 1314.85 7.45864 -1.40599 0
M  V30 7238 O 1315.06 6.17651 -0.734225 0
M  V30 7239 C 1316.25 8.05808 -1.51899 0
M  V30 7240 O 1316.64 8.74358 -0.335205 0
M  V30 7241 C 1317.13 6.83093 -1.70294 0
M  V30 7242 C 1316.42 5.79992 -0.836974 0
M  V30 7243 N 1316.47 4.41864 -1.38293 0
M  V30 7244 H 1313.63 8.13644 -3.0377 0
M  V30 7245 H 1313.36 6.42788 -2.55485 0
M  V30 7246 H 1314.23 8.12039 -0.792769 0
M  V30 7247 P 1318.19 8.91 1.04876e-11 0
M  V30 7248 O 1318.41 10.1736 0.733766 0
M  V30 7249 O 1318.98 8.73247 -1.2395 0
M  V30 7250 O 1318.44 7.66872 0.971405 0
M  V30 7251 C 1317.5 7.42212 2.04614 0
M  V30 7252 C 1318.23 6.86059 3.24661 0
M  V30 7253 O 1318.44 5.42847 3.03646 0
M  V30 7254 C 1319.63 7.41196 3.50753 0
M  V30 7255 O 1320.02 7.27073 4.86816 0
M  V30 7256 C 1320.51 6.5273 2.63741 0
M  V30 7257 C 1319.8 5.1842 2.73198 0
M  V30 7258 N 1319.85 4.38668 1.47808 0
M  V30 7259 C 1320 3.02239 1.60048 0
M  V30 7260 O 1320.09 2.46459 2.67869 0
M  V30 7261 N 1320.04 2.32436 0.408571 0
M  V30 7262 C 1319.95 2.85471 -0.854993 0
M  V30 7263 C 1319.8 4.28918 -0.887335 0
M  V30 7264 C 1319.75 5.00349 0.255399 0
M  V30 7265 H 1317.01 8.36803 2.32493 0
M  V30 7266 H 1316.74 6.701 1.71105 0
M  V30 7267 H 1317.61 7.03551 4.13168 0
M  V30 7268 H 1320.27 4.59773 3.53894 0
M  V30 7269 H 1320.54 6.88995 1.59871 0
M  V30 7270 H 1321.54 6.46749 3.03687 0
M  V30 7271 H 1319.7 8.46908 3.20714 0
M  V30 7272 H 1319.63 6.08548 0.206986 0
M  V30 7273 P 1321.57 7.20834 5.23717 0
M  V30 7274 O 1321.79 7.79853 6.57286 0
M  V30 7275 O 1322.36 7.79239 4.12957 0
M  V30 7276 O 1321.82 5.63315 5.29344 0
M  V30 7277 C 1320.88 4.80255 6.01876 0
M  V30 7278 C 1321.61 3.64202 6.65911 0
M  V30 7279 O 1321.82 2.60694 5.64732 0
M  V30 7280 C 1323.01 3.93473 7.1943 0
M  V30 7281 O 1323.4 3.02071 8.21205 0
M  V30 7282 C 1323.89 3.73047 5.97036 0
M  V30 7283 C 1323.18 2.58828 5.25741 0
M  V30 7284 N 1323.23 2.68068 3.77503 0
M  V30 7285 H 1320.39 5.40332 6.79951 0
M  V30 7286 H 1320.12 4.41613 5.32378 0
M  V30 7287 H 1320.99 3.26331 7.47797 0
M  V30 7288 P 1324.95 2.75334 8.47391 0
M  V30 7289 O 1325.17 2.44571 9.90142 0
M  V30 7290 O 1325.74 3.87688 7.92115 0
M  V30 7291 O 1325.2 1.4459 7.59357 0
M  V30 7292 C 1324.26 0.347608 7.69215 0
M  V30 7293 C 1324.99 -0.96767 7.52806 0
M  V30 7294 O 1325.2 -1.21036 6.1011 0
M  V30 7295 C 1326.39 -1.04544 8.13308 0
M  V30 7296 O 1326.78 -2.38311 8.41922 0
M  V30 7297 C 1327.27 -0.491279 7.02284 0
M  V30 7298 C 1326.56 -0.996264 5.77469 0
M  V30 7299 N 1326.61 -0.0501916 4.62973 0
M  V30 7300 C 1326.53 1.32786 4.63244 0
M  V30 7301 N 1326.61 1.86957 3.44545 0
M  V30 7302 C 1326.75 0.780241 2.58481 0
M  V30 7303 C 1326.88 0.738536 1.17757 0
M  V30 7304 O 1326.9 1.66794 0.372349 0
M  V30 7305 N 1327 -0.58337 0.711393 0
M  V30 7306 C 1327 -1.70816 1.51017 0
M  V30 7307 N 1327.13 -2.87826 0.880757 0
M  V30 7308 N 1326.87 -1.67126 2.8339 0
M  V30 7309 C 1326.75 -0.401421 3.30572 0
M  V30 7310 H 1323.77 0.374722 8.67691 0
M  V30 7311 H 1323.5 0.443485 6.90277 0
M  V30 7312 H 1324.37 -1.75537 7.96793 0
M  V30 7313 H 1327.03 -1.95076 5.46529 0
M  V30 7314 H 1327.3 0.608565 7.04577 0
M  V30 7315 H 1328.3 -0.889672 7.08939 0
M  V30 7316 H 1326.46 -0.43308 9.04564 0
M  V30 7317 H 1326.41 1.91249 5.54442 0
M  V30 7318 H 1327.1 -0.718054 -0.275244 0
M  V30 7319 H 1327.13 -3.75721 1.41832 0
M  V30 7320 H 1327.23 -2.90436 -0.145468 0
M  V30 7321 P 1328.33 -2.75334 8.47391 0
M  V30 7322 O 1328.55 -3.84204 9.44982 0
M  V30 7323 O 1329.12 -1.51982 8.68909 0
M  V30 7324 O 1328.58 -3.29363 6.99321 0
M  V30 7325 C 1327.64 -4.24066 6.42823 0
M  V30 7326 C 1328.37 -5.20775 5.52155 0
M  V30 7327 O 1328.58 -4.56607 4.22514 0
M  V30 7328 C 1329.77 -5.62697 5.96604 0
M  V30 7329 O 1330.16 -6.87667 5.41053 0
M  V30 7330 C 1330.65 -4.52537 5.39283 0
M  V30 7331 C 1329.94 -4.20027 4.08623 0
M  V30 7332 N 1329.99 -2.76189 3.71603 0
M  V30 7333 C 1329.91 -1.66944 4.54297 0
M  V30 7334 N 1329.98 -0.536169 3.91344 0
M  V30 7335 C 1330.13 -0.901569 2.58849 0
M  V30 7336 C 1330.26 -0.146599 1.40236 0
M  V30 7337 N 1330.27 1.18234 1.37046 0
M  V30 7338 N 1330.38 -0.822941 0.249738 0
M  V30 7339 C 1330.37 -2.15179 0.280525 0
M  V30 7340 N 1330.25 -2.96414 1.30822 0
M  V30 7341 C 1330.13 -2.25804 2.44748 0
M  V30 7342 H 1327.15 -4.79756 7.24086 0
M  V30 7343 H 1326.88 -3.69963 5.84682 0
M  V30 7344 H 1327.75 -6.10431 5.41508 0
M  V30 7345 H 1330.41 -4.78816 3.28024 0
M  V30 7346 H 1330.69 -3.64957 6.05871 0
M  V30 7347 H 1331.68 -4.88748 5.21323 0
M  V30 7348 H 1329.84 -5.66789 7.0643 0
M  V30 7349 H 1329.8 -1.74684 5.62396 0
M  V30 7350 H 1330.18 1.71949 2.24394 0
M  V30 7351 H 1330.37 1.67511 0.470742 0
M  V30 7352 H 1330.48 -2.63704 -0.6828 0
M  V30 7353 P 1331.71 -7.20834 5.23717 0
M  V30 7354 O 1331.93 -8.66104 5.38572 0
M  V30 7355 O 1332.5 -6.33544 6.1349 0
M  V30 7356 O 1331.96 -6.7751 3.72168 0
M  V30 7357 C 1331.02 -7.20825 2.7076 0
M  V30 7358 C 1331.75 -7.45864 1.40599 0
M  V30 7359 O 1331.96 -6.17651 0.734225 0
M  V30 7360 C 1333.15 -8.05808 1.51899 0
M  V30 7361 O 1333.54 -8.74358 0.335205 0
M  V30 7362 C 1334.03 -6.83093 1.70294 0
M  V30 7363 C 1333.32 -5.79992 0.836974 0
M  V30 7364 N 1333.37 -4.41864 1.38293 0
M  V30 7365 H 1330.53 -8.13644 3.0377 0
M  V30 7366 H 1330.26 -6.42788 2.55485 0
M  V30 7367 H 1331.13 -8.12039 0.792769 0
M  V30 7368 P 1335.09 -8.91 -1.06447e-11 0
M  V30 7369 O 1335.31 -10.1726 -0.733694 0
M  V30 7370 O 1335.88 -8.73148 1.23936 0
M  V30 7371 O 1335.34 -7.66872 -0.971405 0
M  V30 7372 C 1334.4 -7.42309 -2.04641 0
M  V30 7373 C 1335.13 -6.86059 -3.24661 0
M  V30 7374 O 1335.34 -5.42847 -3.03646 0
M  V30 7375 C 1336.53 -7.41196 -3.50753 0
M  V30 7376 O 1336.92 -7.27073 -4.86816 0
M  V30 7377 C 1337.41 -6.5273 -2.63741 0
M  V30 7378 C 1336.7 -5.1842 -2.73198 0
M  V30 7379 N 1336.75 -4.38762 -1.4784 0
M  V30 7380 H 1333.91 -8.36803 -2.32493 0
M  V30 7381 H 1333.64 -6.70197 -1.71129 0
M  V30 7382 H 1334.51 -7.03551 -4.13168 0
M  V30 7383 P 1338.47 -7.20834 -5.23717 0
M  V30 7384 O 1338.69 -7.79853 -6.57286 0
M  V30 7385 O 1339.26 -7.79239 -4.12957 0
M  V30 7386 O 1338.72 -5.63315 -5.29344 0
M  V30 7387 C 1337.78 -4.80255 -6.01876 0
M  V30 7388 C 1338.51 -3.64202 -6.65911 0
M  V30 7389 O 1338.72 -2.60694 -5.64732 0
M  V30 7390 C 1339.91 -3.93473 -7.1943 0
M  V30 7391 O 1340.3 -3.02071 -8.21205 0
M  V30 7392 C 1340.79 -3.73047 -5.97036 0
M  V30 7393 C 1340.08 -2.58828 -5.25741 0
M  V30 7394 N 1340.13 -2.68068 -3.77503 0
M  V30 7395 H 1337.29 -5.40332 -6.79951 0
M  V30 7396 H 1337.02 -4.41613 -5.32378 0
M  V30 7397 H 1337.89 -3.26331 -7.47797 0
M  V30 7398 P 1341.85 -2.75334 -8.47391 0
M  V30 7399 O 1342.07 -2.44571 -9.90142 0
M  V30 7400 O 1342.64 -3.87688 -7.92115 0
M  V30 7401 O 1342.1 -1.4459 -7.59357 0
M  V30 7402 C 1341.16 -0.347608 -7.69215 0
M  V30 7403 C 1341.89 0.96767 -7.52806 0
M  V30 7404 O 1342.1 1.21036 -6.1011 0
M  V30 7405 C 1343.29 1.04544 -8.13308 0
M  V30 7406 O 1343.68 2.38311 -8.41922 0
M  V30 7407 C 1344.17 0.491279 -7.02284 0
M  V30 7408 C 1343.46 0.996264 -5.77469 0
M  V30 7409 N 1343.51 0.0501916 -4.62973 0
M  V30 7410 H 1340.67 -0.374722 -8.67691 0
M  V30 7411 H 1340.4 -0.443485 -6.90277 0
M  V30 7412 H 1341.27 1.75537 -7.96793 0
M  V30 7413 P 1345.23 2.75334 -8.47391 0
M  V30 7414 O 1345.45 3.84128 -9.44797 0
M  V30 7415 O 1346.02 1.51947 -8.68712 0
M  V30 7416 O 1345.48 3.29363 -6.99321 0
M  V30 7417 C 1344.54 4.24011 -6.4274 0
M  V30 7418 C 1345.27 5.20775 -5.52155 0
M  V30 7419 O 1345.48 4.56534 -4.22446 0
M  V30 7420 C 1346.67 5.62629 -5.96531 0
M  V30 7421 O 1347.06 6.87667 -5.41053 0
M  V30 7422 C 1347.55 4.52537 -5.39283 0
M  V30 7423 C 1346.84 4.20027 -4.08623 0
M  V30 7424 N 1346.89 2.76189 -3.71603 0
M  V30 7425 H 1344.05 4.797 -7.24003 0
M  V30 7426 H 1343.78 3.69856 -5.84513 0
M  V30 7427 H 1344.65 6.10356 -5.41441 0
M  V30 7428 P 1348.61 7.20834 -5.23717 0
M  V30 7429 O 1348.83 8.66104 -5.38572 0
M  V30 7430 O 1349.4 6.33544 -6.1349 0
M  V30 7431 O 1348.86 6.7751 -3.72168 0
M  V30 7432 C 1347.92 7.20825 -2.7076 0
M  V30 7433 C 1348.65 7.45864 -1.40599 0
M  V30 7434 O 1348.86 6.17651 -0.734225 0
M  V30 7435 C 1350.05 8.05808 -1.51899 0
M  V30 7436 O 1350.44 8.74358 -0.335205 0
M  V30 7437 C 1350.93 6.83093 -1.70294 0
M  V30 7438 C 1350.22 5.79992 -0.836974 0
M  V30 7439 N 1350.27 4.41864 -1.38293 0
M  V30 7440 H 1347.43 8.13644 -3.0377 0
M  V30 7441 H 1347.16 6.42788 -2.55485 0
M  V30 7442 H 1348.03 8.12039 -0.792769 0
M  V30 7443 P 1351.99 8.91 1.08019e-11 0
M  V30 7444 O 1352.21 10.1726 0.733694 0
M  V30 7445 O 1352.78 8.73148 -1.23936 0
M  V30 7446 O 1352.24 7.66872 0.971405 0
M  V30 7447 C 1351.3 7.42309 2.04641 0
M  V30 7448 C 1352.03 6.86059 3.24661 0
M  V30 7449 O 1352.24 5.42847 3.03646 0
M  V30 7450 C 1353.43 7.41196 3.50753 0
M  V30 7451 O 1353.82 7.27073 4.86816 0
M  V30 7452 C 1354.31 6.5273 2.63741 0
M  V30 7453 C 1353.6 5.1842 2.73198 0
M  V30 7454 N 1353.65 4.38762 1.4784 0
M  V30 7455 H 1350.81 8.36803 2.32493 0
M  V30 7456 H 1350.54 6.70197 1.71129 0
M  V30 7457 H 1351.41 7.03551 4.13168 0
M  V30 7458 P 1355.37 7.20834 5.23717 0
M  V30 7459 O 1355.59 7.79853 6.57286 0
M  V30 7460 O 1356.16 7.79239 4.12957 0
M  V30 7461 O 1355.62 5.63315 5.29344 0
M  V30 7462 C 1354.68 4.80255 6.01876 0
M  V30 7463 C 1355.41 3.64202 6.65911 0
M  V30 7464 O 1355.62 2.60694 5.64732 0
M  V30 7465 C 1356.81 3.93473 7.1943 0
M  V30 7466 O 1357.2 3.02071 8.21205 0
M  V30 7467 C 1357.69 3.73047 5.97036 0
M  V30 7468 C 1356.98 2.58828 5.25741 0
M  V30 7469 N 1357.03 2.68068 3.77503 0
M  V30 7470 H 1354.19 5.40332 6.79951 0
M  V30 7471 H 1353.92 4.41613 5.32378 0
M  V30 7472 H 1354.79 3.26331 7.47797 0
M  V30 7473 P 1358.75 2.75334 8.47391 0
M  V30 7474 O 1358.97 2.44571 9.90142 0
M  V30 7475 O 1359.54 3.87688 7.92115 0
M  V30 7476 O 1359 1.4459 7.59357 0
M  V30 7477 C 1358.06 0.347608 7.69215 0
M  V30 7478 C 1358.79 -0.96767 7.52806 0
M  V30 7479 O 1359 -1.21036 6.1011 0
M  V30 7480 C 1360.19 -1.04544 8.13308 0
M  V30 7481 O 1360.58 -2.38311 8.41922 0
M  V30 7482 C 1361.07 -0.491279 7.02284 0
M  V30 7483 C 1360.36 -0.996264 5.77469 0
M  V30 7484 N 1360.41 -0.0501916 4.62973 0
M  V30 7485 C 1360.33 1.32786 4.63244 0
M  V30 7486 N 1360.41 1.86957 3.44545 0
M  V30 7487 C 1360.55 0.780241 2.58481 0
M  V30 7488 C 1360.68 0.738536 1.17757 0
M  V30 7489 N 1360.8 -0.58337 0.711393 0
M  V30 7490 C 1360.8 -1.70816 1.51017 0
M  V30 7491 N 1360.93 -2.87826 0.880757 0
M  V30 7492 N 1360.67 -1.67126 2.8339 0
M  V30 7493 C 1360.55 -0.401421 3.30572 0
M  V30 7494 H 1357.57 0.374722 8.67691 0
M  V30 7495 H 1357.3 0.443485 6.90277 0
M  V30 7496 H 1358.17 -1.75537 7.96793 0
M  V30 7497 P 1362.13 -2.75334 8.47391 0
M  V30 7498 O 1362.35 -3.84166 9.4489 0
M  V30 7499 O 1362.92 -1.51964 8.6881 0
M  V30 7500 O 1362.38 -3.29363 6.99321 0
M  V30 7501 C 1361.44 -4.23956 6.42656 0
M  V30 7502 C 1362.17 -5.20775 5.52155 0
M  V30 7503 O 1362.38 -4.56534 4.22446 0
M  V30 7504 C 1363.57 -5.62629 5.96531 0
M  V30 7505 O 1363.96 -6.87667 5.41053 0
M  V30 7506 C 1364.45 -4.52537 5.39283 0
M  V30 7507 C 1363.74 -4.20027 4.08623 0
M  V30 7508 N 1363.79 -2.7613 3.71522 0
M  V30 7509 C 1363.94 -2.45612 2.37989 0
M  V30 7510 O 1364.03 -3.30919 1.51621 0
M  V30 7511 N 1363.98 -1.10684 2.08435 0
M  V30 7512 C 1363.89 -0.0690084 2.9792 0
M  V30 7513 C 1363.74 -0.481522 4.35345 0
M  V30 7514 C 1363.69 -1.78906 4.67968 0
M  V30 7515 H 1360.95 -4.797 7.24003 0
M  V30 7516 H 1360.68 -3.69802 5.84429 0
M  V30 7517 H 1361.55 -6.10356 5.41441 0
M  V30 7518 H 1364.2 -4.78651 3.27911 0
M  V30 7519 H 1364.48 -3.64957 6.05871 0
M  V30 7520 H 1365.48 -4.8868 5.2125 0
M  V30 7521 H 1363.64 -5.66726 7.06352 0
M  V30 7522 H 1363.57 -2.07737 5.72367 0
M  V30 7523 P 1365.51 -7.20834 5.23717 0
M  V30 7524 O 1365.73 -8.66104 5.38572 0
M  V30 7525 O 1366.3 -6.33544 6.1349 0
M  V30 7526 O 1365.76 -6.7751 3.72168 0
M  V30 7527 C 1364.82 -7.20825 2.7076 0
M  V30 7528 C 1365.55 -7.45864 1.40599 0
M  V30 7529 O 1365.76 -6.17651 0.734225 0
M  V30 7530 C 1366.95 -8.05808 1.51899 0
M  V30 7531 O 1367.34 -8.74358 0.335205 0
M  V30 7532 C 1367.83 -6.83093 1.70294 0
M  V30 7533 C 1367.12 -5.79992 0.836974 0
M  V30 7534 N 1367.17 -4.41864 1.38293 0
M  V30 7535 H 1364.33 -8.13644 3.0377 0
M  V30 7536 H 1364.06 -6.42788 2.55485 0
M  V30 7537 H 1364.93 -8.12039 0.792769 0
M  V30 7538 P 1368.89 -8.91 -1.09591e-11 0
M  V30 7539 O 1369.11 -10.1736 -0.733766 0
M  V30 7540 O 1369.68 -8.73247 1.2395 0
M  V30 7541 O 1369.14 -7.66872 -0.971405 0
M  V30 7542 C 1368.2 -7.42212 -2.04614 0
M  V30 7543 C 1368.93 -6.86059 -3.24661 0
M  V30 7544 O 1369.14 -5.42847 -3.03646 0
M  V30 7545 C 1370.33 -7.41196 -3.50753 0
M  V30 7546 O 1370.72 -7.27073 -4.86816 0
M  V30 7547 C 1371.21 -6.5273 -2.63741 0
M  V30 7548 C 1370.5 -5.1842 -2.73198 0
M  V30 7549 N 1370.55 -4.38668 -1.47808 0
M  V30 7550 C 1370.7 -3.02239 -1.60048 0
M  V30 7551 O 1370.79 -2.46459 -2.67869 0
M  V30 7552 N 1370.74 -2.32436 -0.408571 0
M  V30 7553 C 1370.65 -2.85471 0.854993 0
M  V30 7554 C 1370.5 -4.28918 0.887335 0
M  V30 7555 C 1370.45 -5.00349 -0.255399 0
M  V30 7556 H 1367.71 -8.36803 -2.32493 0
M  V30 7557 H 1367.44 -6.701 -1.71105 0
M  V30 7558 H 1368.31 -7.03551 -4.13168 0
M  V30 7559 H 1370.96 -4.59773 -3.53894 0
M  V30 7560 H 1371.24 -6.88995 -1.59871 0
M  V30 7561 H 1372.24 -6.46749 -3.03687 0
M  V30 7562 H 1370.4 -8.46908 -3.20714 0
M  V30 7563 H 1370.33 -6.08548 -0.206986 0
M  V30 7564 P 1372.27 -7.20834 -5.23717 0
M  V30 7565 O 1372.49 -7.79853 -6.57286 0
M  V30 7566 O 1373.06 -7.79239 -4.12957 0
M  V30 7567 O 1372.52 -5.63315 -5.29344 0
M  V30 7568 C 1371.58 -4.80255 -6.01876 0
M  V30 7569 C 1372.31 -3.64202 -6.65911 0
M  V30 7570 O 1372.52 -2.60694 -5.64732 0
M  V30 7571 C 1373.71 -3.93473 -7.1943 0
M  V30 7572 O 1374.1 -3.02071 -8.21205 0
M  V30 7573 C 1374.59 -3.73047 -5.97036 0
M  V30 7574 C 1373.88 -2.58828 -5.25741 0
M  V30 7575 N 1373.93 -2.68068 -3.77503 0
M  V30 7576 H 1371.09 -5.40332 -6.79951 0
M  V30 7577 H 1370.82 -4.41613 -5.32378 0
M  V30 7578 H 1371.69 -3.26331 -7.47797 0
M  V30 7579 P 1375.65 -2.75334 -8.47391 0
M  V30 7580 O 1375.87 -2.44619 -9.90336 0
M  V30 7581 O 1376.44 -3.87776 -7.92294 0
M  V30 7582 O 1375.9 -1.4459 -7.59357 0
M  V30 7583 C 1374.96 -0.347653 -7.69315 0
M  V30 7584 C 1375.69 0.96767 -7.52806 0
M  V30 7585 O 1375.9 1.21055 -6.10208 0
M  V30 7586 C 1377.09 1.04557 -8.13408 0
M  V30 7587 O 1377.48 2.38311 -8.41922 0
M  V30 7588 C 1377.97 0.491279 -7.02284 0
M  V30 7589 C 1377.26 0.996264 -5.77469 0
M  V30 7590 N 1377.31 0.0501916 -4.62973 0
M  V30 7591 H 1374.47 -0.374765 -8.67791 0
M  V30 7592 H 1374.2 -0.443613 -6.90476 0
M  V30 7593 H 1375.07 1.75559 -7.96891 0
M  V30 7594 H 1377.72 1.94563 -5.46818 0
M  V30 7595 H 1378 -0.608651 -7.04676 0
M  V30 7596 H 1379 0.889796 -7.09039 0
M  V30 7597 H 1377.16 0.433128 -9.04664 0
M  V30 7598 P 1379.03 2.75334 -8.47391 0
M  V30 7599 O 1379.25 3.84128 -9.44797 0
M  V30 7600 O 1379.82 1.51947 -8.68712 0
M  V30 7601 O 1379.28 3.29363 -6.99321 0
M  V30 7602 C 1378.34 4.24011 -6.4274 0
M  V30 7603 C 1379.07 5.20775 -5.52155 0
M  V30 7604 O 1379.28 4.56534 -4.22446 0
M  V30 7605 C 1380.47 5.62629 -5.96531 0
M  V30 7606 O 1380.86 6.87667 -5.41053 0
M  V30 7607 C 1381.35 4.52537 -5.39283 0
M  V30 7608 C 1380.64 4.20027 -4.08623 0
M  V30 7609 N 1380.69 2.76189 -3.71603 0
M  V30 7610 H 1377.85 4.797 -7.24003 0
M  V30 7611 H 1377.58 3.69856 -5.84513 0
M  V30 7612 H 1378.45 6.10356 -5.41441 0
M  V30 7613 P 1382.41 7.20834 -5.23717 0
M  V30 7614 O 1382.63 8.66104 -5.38572 0
M  V30 7615 O 1383.2 6.33544 -6.1349 0
M  V30 7616 O 1382.66 6.7751 -3.72168 0
M  V30 7617 C 1381.72 7.20825 -2.7076 0
M  V30 7618 C 1382.45 7.45864 -1.40599 0
M  V30 7619 O 1382.66 6.17651 -0.734225 0
M  V30 7620 C 1383.85 8.05808 -1.51899 0
M  V30 7621 O 1384.24 8.74358 -0.335205 0
M  V30 7622 C 1384.73 6.83093 -1.70294 0
M  V30 7623 C 1384.02 5.79992 -0.836974 0
M  V30 7624 N 1384.07 4.41864 -1.38293 0
M  V30 7625 H 1381.23 8.13644 -3.0377 0
M  V30 7626 H 1380.96 6.42788 -2.55485 0
M  V30 7627 H 1381.83 8.12039 -0.792769 0
M  V30 7628 P 1385.79 8.91 1.03566e-11 0
M  V30 7629 O 1386.01 10.1726 0.733694 0
M  V30 7630 O 1386.58 8.73148 -1.23936 0
M  V30 7631 O 1386.04 7.66872 0.971405 0
M  V30 7632 C 1385.1 7.42309 2.04641 0
M  V30 7633 C 1385.83 6.86059 3.24661 0
M  V30 7634 O 1386.04 5.42847 3.03646 0
M  V30 7635 C 1387.23 7.41196 3.50753 0
M  V30 7636 O 1387.62 7.27073 4.86816 0
M  V30 7637 C 1388.11 6.5273 2.63741 0
M  V30 7638 C 1387.4 5.1842 2.73198 0
M  V30 7639 N 1387.45 4.38762 1.4784 0
M  V30 7640 H 1384.61 8.36803 2.32493 0
M  V30 7641 H 1384.34 6.70197 1.71129 0
M  V30 7642 H 1385.21 7.03551 4.13168 0
M  V30 7643 P 1389.17 7.20834 5.23717 0
M  V30 7644 O 1389.39 7.79853 6.57286 0
M  V30 7645 O 1389.96 7.79239 4.12957 0
M  V30 7646 O 1389.42 5.63315 5.29344 0
M  V30 7647 C 1388.48 4.80255 6.01876 0
M  V30 7648 C 1389.21 3.64202 6.65911 0
M  V30 7649 O 1389.42 2.60694 5.64732 0
M  V30 7650 C 1390.61 3.93473 7.1943 0
M  V30 7651 O 1391 3.02071 8.21205 0
M  V30 7652 C 1391.49 3.73047 5.97036 0
M  V30 7653 C 1390.78 2.58828 5.25741 0
M  V30 7654 N 1390.83 2.68068 3.77503 0
M  V30 7655 H 1387.99 5.40332 6.79951 0
M  V30 7656 H 1387.72 4.41613 5.32378 0
M  V30 7657 H 1388.59 3.26331 7.47797 0
M  V30 7658 P 1392.55 2.75334 8.47391 0
M  V30 7659 O 1392.77 2.44595 9.90239 0
M  V30 7660 O 1393.34 3.87732 7.92204 0
M  V30 7661 O 1392.8 1.4459 7.59357 0
M  V30 7662 C 1391.86 0.347563 7.69115 0
M  V30 7663 C 1392.59 -0.96767 7.52806 0
M  V30 7664 O 1392.8 -1.21036 6.1011 0
M  V30 7665 C 1393.99 -1.04544 8.13308 0
M  V30 7666 O 1394.38 -2.38311 8.41922 0
M  V30 7667 C 1394.87 -0.491279 7.02284 0
M  V30 7668 C 1394.16 -0.996264 5.77469 0
M  V30 7669 N 1394.21 -0.0501808 4.62873 0
M  V30 7670 C 1394.36 -0.588177 3.36904 0
M  V30 7671 O 1394.45 -1.78598 3.17173 0
M  V30 7672 N 1394.4 0.329694 2.33686 0
M  V30 7673 C 1394.31 1.6953 2.45079 0
M  V30 7674 O 1394.36 2.41926 1.44899 0
M  V30 7675 C 1394.16 2.16933 3.80505 0
M  V30 7676 C 1394.05 3.65373 3.97621 0
M  V30 7677 C 1394.11 1.30326 4.83752 0
M  V30 7678 H 1391.37 0.374722 8.67691 0
M  V30 7679 H 1391.1 0.443421 6.90177 0
M  V30 7680 H 1391.97 -1.75537 7.96793 0
M  V30 7681 H 1394.62 -1.94496 5.46629 0
M  V30 7682 H 1394.9 0.608651 7.04676 0
M  V30 7683 H 1395.9 -0.889672 7.08939 0
M  V30 7684 H 1394.06 -0.43308 9.04564 0
M  V30 7685 H 1393.99 1.68366 5.8516 0
M  V30 7686 H 1395.02 4.05985 4.30448 0
M  V30 7687 H 1393.28 3.88028 4.72875 0
M  V30 7688 H 1393.77 4.11381 3.01609 0
M  V30 7689 H 1394.51 -0.0393617 1.41345 0
M  V30 7690 P 1395.93 -2.75334 8.47391 0
M  V30 7691 O 1396.15 -3.84128 9.44797 0
M  V30 7692 O 1396.72 -1.51947 8.68712 0
M  V30 7693 O 1396.18 -3.29363 6.99321 0
M  V30 7694 C 1395.24 -4.24011 6.4274 0
M  V30 7695 C 1395.97 -5.20775 5.52155 0
M  V30 7696 O 1396.18 -4.56534 4.22446 0
M  V30 7697 C 1397.37 -5.62629 5.96531 0
M  V30 7698 O 1397.76 -6.87667 5.41053 0
M  V30 7699 C 1398.25 -4.52537 5.39283 0
M  V30 7700 C 1397.54 -4.20027 4.08623 0
M  V30 7701 N 1397.59 -2.76189 3.71603 0
M  V30 7702 H 1394.75 -4.797 7.24003 0
M  V30 7703 H 1394.48 -3.69856 5.84513 0
M  V30 7704 H 1395.35 -6.10356 5.41441 0
M  V30 7705 P 1399.31 -7.20834 5.23717 0
M  V30 7706 O 1399.53 -8.66104 5.38572 0
M  V30 7707 O 1400.1 -6.33544 6.1349 0
M  V30 7708 O 1399.56 -6.7751 3.72168 0
M  V30 7709 C 1398.62 -7.20825 2.7076 0
M  V30 7710 C 1399.35 -7.45864 1.40599 0
M  V30 7711 O 1399.56 -6.17651 0.734225 0
M  V30 7712 C 1400.75 -8.05808 1.51899 0
M  V30 7713 O 1401.14 -8.74358 0.335205 0
M  V30 7714 C 1401.63 -6.83093 1.70294 0
M  V30 7715 C 1400.92 -5.79992 0.836974 0
M  V30 7716 N 1400.97 -4.41864 1.38293 0
M  V30 7717 H 1398.13 -8.13644 3.0377 0
M  V30 7718 H 1397.86 -6.42788 2.55485 0
M  V30 7719 H 1398.73 -8.12039 0.792769 0
M  V30 7720 P 1402.69 -8.91 -9.24756e-12 0
M  V30 7721 O 1402.91 -10.1736 -0.733766 0
M  V30 7722 O 1403.48 -8.73247 1.2395 0
M  V30 7723 O 1402.94 -7.66872 -0.971405 0
M  V30 7724 C 1402 -7.42212 -2.04614 0
M  V30 7725 C 1402.73 -6.86059 -3.24661 0
M  V30 7726 O 1402.94 -5.42847 -3.03646 0
M  V30 7727 C 1404.13 -7.41196 -3.50753 0
M  V30 7728 O 1404.52 -7.27073 -4.86816 0
M  V30 7729 C 1405.01 -6.5273 -2.63741 0
M  V30 7730 C 1404.3 -5.1842 -2.73198 0
M  V30 7731 N 1404.35 -4.38668 -1.47808 0
M  V30 7732 C 1404.5 -3.02239 -1.60048 0
M  V30 7733 O 1404.59 -2.46459 -2.67869 0
M  V30 7734 N 1404.54 -2.32436 -0.408571 0
M  V30 7735 C 1404.45 -2.85471 0.854993 0
M  V30 7736 C 1404.3 -4.28918 0.887335 0
M  V30 7737 C 1404.25 -5.00349 -0.255399 0
M  V30 7738 H 1401.51 -8.36803 -2.32493 0
M  V30 7739 H 1401.24 -6.701 -1.71105 0
M  V30 7740 H 1402.11 -7.03551 -4.13168 0
M  V30 7741 H 1404.76 -4.59773 -3.53894 0
M  V30 7742 H 1405.04 -6.88995 -1.59871 0
M  V30 7743 H 1406.04 -6.46749 -3.03687 0
M  V30 7744 H 1404.2 -8.46908 -3.20714 0
M  V30 7745 H 1404.13 -6.08548 -0.206986 0
M  V30 7746 P 1406.07 -7.20834 -5.23717 0
M  V30 7747 O 1406.29 -7.79853 -6.57286 0
M  V30 7748 O 1406.86 -7.79239 -4.12957 0
M  V30 7749 O 1406.32 -5.63315 -5.29344 0
M  V30 7750 C 1405.38 -4.80255 -6.01876 0
M  V30 7751 C 1406.11 -3.64202 -6.65911 0
M  V30 7752 O 1406.32 -2.60694 -5.64732 0
M  V30 7753 C 1407.51 -3.93473 -7.1943 0
M  V30 7754 O 1407.9 -3.02071 -8.21205 0
M  V30 7755 C 1408.39 -3.73047 -5.97036 0
M  V30 7756 C 1407.68 -2.58828 -5.25741 0
M  V30 7757 N 1407.73 -2.68068 -3.77503 0
M  V30 7758 H 1404.89 -5.40332 -6.79951 0
M  V30 7759 H 1404.62 -4.41613 -5.32378 0
M  V30 7760 H 1405.49 -3.26331 -7.47797 0
M  V30 7761 P 1409.45 -2.75334 -8.47391 0
M  V30 7762 O 1409.67 -2.44571 -9.90142 0
M  V30 7763 O 1410.24 -3.87688 -7.92115 0
M  V30 7764 O 1409.7 -1.4459 -7.59357 0
M  V30 7765 C 1408.76 -0.347608 -7.69215 0
M  V30 7766 C 1409.49 0.96767 -7.52806 0
M  V30 7767 O 1409.7 1.21036 -6.1011 0
M  V30 7768 C 1410.89 1.04544 -8.13308 0
M  V30 7769 O 1411.28 2.38311 -8.41922 0
M  V30 7770 C 1411.77 0.491279 -7.02284 0
M  V30 7771 C 1411.06 0.996264 -5.77469 0
M  V30 7772 N 1411.11 0.0501916 -4.62973 0
M  V30 7773 H 1408.27 -0.374722 -8.67691 0
M  V30 7774 H 1408 -0.443485 -6.90277 0
M  V30 7775 H 1408.87 1.75537 -7.96793 0
M  V30 7776 P 1412.83 2.75334 -8.47391 0
M  V30 7777 O 1413.05 3.84128 -9.44797 0
M  V30 7778 O 1413.62 1.51947 -8.68712 0
M  V30 7779 O 1413.08 3.29363 -6.99321 0
M  V30 7780 C 1412.14 4.24011 -6.4274 0
M  V30 7781 C 1412.87 5.20775 -5.52155 0
M  V30 7782 O 1413.08 4.56534 -4.22446 0
M  V30 7783 C 1414.27 5.62629 -5.96531 0
M  V30 7784 O 1414.66 6.87667 -5.41053 0
M  V30 7785 C 1415.15 4.52537 -5.39283 0
M  V30 7786 C 1414.44 4.20027 -4.08623 0
M  V30 7787 N 1414.49 2.76189 -3.71603 0
M  V30 7788 H 1411.65 4.797 -7.24003 0
M  V30 7789 H 1411.38 3.69856 -5.84513 0
M  V30 7790 H 1412.25 6.10356 -5.41441 0
M  V30 7791 P 1416.21 7.20834 -5.23717 0
M  V30 7792 O 1416.43 8.66104 -5.38572 0
M  V30 7793 O 1417 6.33544 -6.1349 0
M  V30 7794 O 1416.46 6.7751 -3.72168 0
M  V30 7795 C 1415.52 7.20825 -2.7076 0
M  V30 7796 C 1416.25 7.45864 -1.40599 0
M  V30 7797 O 1416.46 6.17651 -0.734225 0
M  V30 7798 C 1417.65 8.05808 -1.51899 0
M  V30 7799 O 1418.04 8.74358 -0.335205 0
M  V30 7800 C 1418.53 6.83093 -1.70294 0
M  V30 7801 C 1417.82 5.79992 -0.836974 0
M  V30 7802 N 1417.87 4.41864 -1.38293 0
M  V30 7803 H 1415.03 8.13644 -3.0377 0
M  V30 7804 H 1414.76 6.42788 -2.55485 0
M  V30 7805 H 1415.63 8.12039 -0.792769 0
M  V30 7806 P 1419.59 8.91 8.13856e-12 0
M  V30 7807 O 1419.81 10.1726 0.733694 0
M  V30 7808 O 1420.38 8.73148 -1.23936 0
M  V30 7809 O 1419.84 7.66872 0.971405 0
M  V30 7810 C 1418.9 7.42309 2.04641 0
M  V30 7811 C 1419.63 6.86059 3.24661 0
M  V30 7812 O 1419.84 5.42847 3.03646 0
M  V30 7813 C 1421.03 7.41196 3.50753 0
M  V30 7814 O 1421.42 7.27073 4.86816 0
M  V30 7815 C 1421.91 6.5273 2.63741 0
M  V30 7816 C 1421.2 5.1842 2.73198 0
M  V30 7817 N 1421.25 4.38762 1.4784 0
M  V30 7818 C 1421.17 4.81605 0.168631 0
M  V30 7819 N 1421.25 3.85454 -0.713363 0
M  V30 7820 C 1421.39 2.6994 0.0566958 0
M  V30 7821 C 1421.52 1.34815 -0.338502 0
M  V30 7822 N 1421.64 0.496304 0.77465 0
M  V30 7823 C 1421.64 0.908403 2.09122 0
M  V30 7824 N 1421.77 -0.0517805 3.00955 0
M  V30 7825 N 1421.51 2.17875 2.46519 0
M  V30 7826 C 1421.39 3.01988 1.4033 0
M  V30 7827 H 1418.41 8.36803 2.32493 0
M  V30 7828 H 1418.14 6.70197 1.71129 0
M  V30 7829 H 1419.01 7.03551 4.13168 0
M  V30 7830 P 1422.97 7.20834 5.23717 0
M  V30 7831 O 1423.19 7.79853 6.57286 0
M  V30 7832 O 1423.76 7.79239 4.12957 0
M  V30 7833 O 1423.22 5.63315 5.29344 0
M  V30 7834 C 1422.28 4.80255 6.01876 0
M  V30 7835 C 1423.01 3.64202 6.65911 0
M  V30 7836 O 1423.22 2.60694 5.64732 0
M  V30 7837 C 1424.41 3.93473 7.1943 0
M  V30 7838 O 1424.8 3.02071 8.21205 0
M  V30 7839 C 1425.29 3.73047 5.97036 0
M  V30 7840 C 1424.58 2.58828 5.25741 0
M  V30 7841 N 1424.63 2.68068 3.77503 0
M  V30 7842 H 1421.79 5.40332 6.79951 0
M  V30 7843 H 1421.52 4.41613 5.32378 0
M  V30 7844 H 1422.39 3.26331 7.47797 0
M  V30 7845 P 1426.35 2.75334 8.47391 0
M  V30 7846 O 1426.57 2.44571 9.90142 0
M  V30 7847 O 1427.14 3.87688 7.92115 0
M  V30 7848 O 1426.6 1.4459 7.59357 0
M  V30 7849 C 1425.66 0.347608 7.69215 0
M  V30 7850 C 1426.39 -0.96767 7.52806 0
M  V30 7851 O 1426.6 -1.21036 6.1011 0
M  V30 7852 C 1427.79 -1.04544 8.13308 0
M  V30 7853 O 1428.18 -2.38311 8.41922 0
M  V30 7854 C 1428.67 -0.491279 7.02284 0
M  V30 7855 C 1427.96 -0.996264 5.77469 0
M  V30 7856 N 1428.01 -0.0501916 4.62973 0
M  V30 7857 H 1425.17 0.374722 8.67691 0
M  V30 7858 H 1424.9 0.443485 6.90277 0
M  V30 7859 H 1425.77 -1.75537 7.96793 0
M  V30 7860 P 1429.73 -2.75334 8.47391 0
M  V30 7861 O 1429.95 -3.84128 9.44797 0
M  V30 7862 O 1430.52 -1.51947 8.68712 0
M  V30 7863 O 1429.98 -3.29363 6.99321 0
M  V30 7864 C 1429.04 -4.24011 6.4274 0
M  V30 7865 C 1429.77 -5.20775 5.52155 0
M  V30 7866 O 1429.98 -4.56534 4.22446 0
M  V30 7867 C 1431.17 -5.62629 5.96531 0
M  V30 7868 O 1431.56 -6.87667 5.41053 0
M  V30 7869 C 1432.05 -4.52537 5.39283 0
M  V30 7870 C 1431.34 -4.20027 4.08623 0
M  V30 7871 N 1431.39 -2.76189 3.71603 0
M  V30 7872 H 1428.55 -4.797 7.24003 0
M  V30 7873 H 1428.28 -3.69856 5.84513 0
M  V30 7874 H 1429.15 -6.10356 5.41441 0
M  V30 7875 P 1433.11 -7.20834 5.23717 0
M  V30 7876 O 1433.33 -8.66104 5.38572 0
M  V30 7877 O 1433.9 -6.33544 6.1349 0
M  V30 7878 O 1433.36 -6.7751 3.72168 0
M  V30 7879 C 1432.42 -7.20825 2.7076 0
M  V30 7880 C 1433.15 -7.45864 1.40599 0
M  V30 7881 O 1433.36 -6.17651 0.734225 0
M  V30 7882 C 1434.55 -8.05808 1.51899 0
M  V30 7883 O 1434.94 -8.74358 0.335205 0
M  V30 7884 C 1435.43 -6.83093 1.70294 0
M  V30 7885 C 1434.72 -5.79992 0.836974 0
M  V30 7886 N 1434.77 -4.41864 1.38293 0
M  V30 7887 H 1431.93 -8.13644 3.0377 0
M  V30 7888 H 1431.66 -6.42788 2.55485 0
M  V30 7889 H 1432.53 -8.12039 0.792769 0
M  V30 7890 P 1436.49 -8.91 -7.02955e-12 0
M  V30 7891 O 1436.71 -10.1726 -0.733694 0
M  V30 7892 O 1437.28 -8.73148 1.23936 0
M  V30 7893 O 1436.74 -7.66872 -0.971405 0
M  V30 7894 C 1435.8 -7.42309 -2.04641 0
M  V30 7895 C 1436.53 -6.86059 -3.24661 0
M  V30 7896 O 1436.74 -5.42847 -3.03646 0
M  V30 7897 C 1437.93 -7.41196 -3.50753 0
M  V30 7898 O 1438.32 -7.27073 -4.86816 0
M  V30 7899 C 1438.81 -6.5273 -2.63741 0
M  V30 7900 C 1438.1 -5.1842 -2.73198 0
M  V30 7901 N 1438.15 -4.38762 -1.4784 0
M  V30 7902 H 1435.31 -8.36803 -2.32493 0
M  V30 7903 H 1435.04 -6.70197 -1.71129 0
M  V30 7904 H 1435.91 -7.03551 -4.13168 0
M  V30 7905 P 1439.87 -7.20834 -5.23717 0
M  V30 7906 O 1440.09 -7.79853 -6.57286 0
M  V30 7907 O 1440.66 -7.79239 -4.12957 0
M  V30 7908 O 1440.12 -5.63315 -5.29344 0
M  V30 7909 C 1439.18 -4.80255 -6.01876 0
M  V30 7910 C 1439.91 -3.64202 -6.65911 0
M  V30 7911 O 1440.12 -2.60694 -5.64732 0
M  V30 7912 C 1441.31 -3.93473 -7.1943 0
M  V30 7913 O 1441.7 -3.02071 -8.21205 0
M  V30 7914 C 1442.19 -3.73047 -5.97036 0
M  V30 7915 C 1441.48 -2.58828 -5.25741 0
M  V30 7916 N 1441.53 -2.68068 -3.77503 0
M  V30 7917 H 1438.69 -5.40332 -6.79951 0
M  V30 7918 H 1438.42 -4.41613 -5.32378 0
M  V30 7919 H 1439.29 -3.26331 -7.47797 0
M  V30 7920 P 1443.25 -2.75334 -8.47391 0
M  V30 7921 O 1443.47 -2.44571 -9.90142 0
M  V30 7922 O 1444.04 -3.87688 -7.92115 0
M  V30 7923 O 1443.5 -1.4459 -7.59357 0
M  V30 7924 C 1442.56 -0.347608 -7.69215 0
M  V30 7925 C 1443.29 0.96767 -7.52806 0
M  V30 7926 O 1443.5 1.21036 -6.1011 0
M  V30 7927 C 1444.69 1.04544 -8.13308 0
M  V30 7928 O 1445.08 2.38311 -8.41922 0
M  V30 7929 C 1445.57 0.491279 -7.02284 0
M  V30 7930 C 1444.86 0.996264 -5.77469 0
M  V30 7931 N 1444.91 0.0501916 -4.62973 0
M  V30 7932 H 1442.07 -0.374722 -8.67691 0
M  V30 7933 H 1441.8 -0.443485 -6.90277 0
M  V30 7934 H 1442.67 1.75537 -7.96793 0
M  V30 7935 P 1446.63 2.75334 -8.47391 0
M  V30 7936 O 1446.85 3.84166 -9.4489 0
M  V30 7937 O 1447.42 1.51964 -8.6881 0
M  V30 7938 O 1446.88 3.29363 -6.99321 0
M  V30 7939 C 1445.94 4.23956 -6.42656 0
M  V30 7940 C 1446.67 5.20775 -5.52155 0
M  V30 7941 O 1446.88 4.56534 -4.22446 0
M  V30 7942 C 1448.07 5.62629 -5.96531 0
M  V30 7943 O 1448.46 6.87667 -5.41053 0
M  V30 7944 C 1448.95 4.52537 -5.39283 0
M  V30 7945 C 1448.24 4.20027 -4.08623 0
M  V30 7946 N 1448.29 2.7613 -3.71522 0
M  V30 7947 C 1448.44 2.45612 -2.37989 0
M  V30 7948 O 1448.53 3.30919 -1.51621 0
M  V30 7949 N 1448.48 1.10684 -2.08435 0
M  V30 7950 C 1448.39 0.0690084 -2.9792 0
M  V30 7951 O 1448.44 -1.10553 -2.59426 0
M  V30 7952 C 1448.24 0.481522 -4.35345 0
M  V30 7953 C 1448.13 -0.618778 -5.36443 0
M  V30 7954 C 1448.19 1.78906 -4.67968 0
M  V30 7955 H 1445.45 4.797 -7.24003 0
M  V30 7956 H 1445.18 3.69802 -5.84429 0
M  V30 7957 H 1446.05 6.10356 -5.41441 0
M  V30 7958 H 1448.7 4.78651 -3.27911 0
M  V30 7959 H 1448.98 3.64957 -6.05871 0
M  V30 7960 H 1449.98 4.8868 -5.2125 0
M  V30 7961 H 1448.14 5.66726 -7.06352 0
M  V30 7962 H 1448.07 2.07737 -5.72367 0
M  V30 7963 H 1449.1 -0.754375 -5.86871 0
M  V30 7964 H 1447.36 -0.359721 -6.10641 0
M  V30 7965 H 1447.85 -1.55533 -4.8581 0
M  V30 7966 H 1448.59 0.862651 -1.12037 0
M  V30 7967 P 1450.01 7.20834 -5.23717 0
M  V30 7968 O 1450.23 8.66104 -5.38572 0
M  V30 7969 O 1450.8 6.33544 -6.1349 0
M  V30 7970 O 1450.26 6.7751 -3.72168 0
M  V30 7971 C 1449.32 7.20825 -2.7076 0
M  V30 7972 C 1450.05 7.45864 -1.40599 0
M  V30 7973 O 1450.26 6.17651 -0.734225 0
M  V30 7974 C 1451.45 8.05808 -1.51899 0
M  V30 7975 O 1451.84 8.74358 -0.335205 0
M  V30 7976 C 1452.33 6.83093 -1.70294 0
M  V30 7977 C 1451.62 5.79992 -0.836974 0
M  V30 7978 N 1451.67 4.41864 -1.38293 0
M  V30 7979 H 1448.83 8.13644 -3.0377 0
M  V30 7980 H 1448.56 6.42788 -2.55485 0
M  V30 7981 H 1449.43 8.12039 -0.792769 0
M  V30 7982 P 1453.39 8.91 5.92055e-12 0
M  V30 7983 O 1453.61 10.1746 0.733838 0
M  V30 7984 O 1454.18 8.73346 -1.23964 0
M  V30 7985 O 1453.64 7.66872 0.971405 0
M  V30 7986 C 1452.7 7.42405 2.04668 0
M  V30 7987 C 1453.43 6.86059 3.24661 0
M  V30 7988 O 1453.64 5.42934 3.03695 0
M  V30 7989 C 1454.83 7.41287 3.50796 0
M  V30 7990 O 1455.22 7.27073 4.86816 0
M  V30 7991 C 1455.71 6.5273 2.63741 0
M  V30 7992 C 1455 5.1842 2.73198 0
M  V30 7993 N 1455.05 4.38762 1.4784 0
M  V30 7994 C 1454.97 4.83651 0.183876 0
M  V30 7995 N 1455.04 3.88759 -0.699393 0
M  V30 7996 C 1455.19 2.7404 0.0575568 0
M  V30 7997 C 1455.32 1.37902 -0.293928 0
M  V30 7998 N 1455.33 0.938021 -1.54797 0
M  V30 7999 N 1455.44 0.491817 0.70549 0
M  V30 8000 C 1455.43 0.931735 1.95979 0
M  V30 8001 N 1455.31 2.16017 2.41481 0
M  V30 8002 C 1455.19 3.02547 1.39121 0
M  V30 8003 H 1452.21 8.36899 2.3252 0
M  V30 8004 H 1451.94 6.70391 1.71179 0
M  V30 8005 H 1452.81 7.03638 4.13219 0
M  V30 8006 H 1455.46 4.59931 3.54016 0
M  V30 8007 H 1455.74 6.88995 1.59871 0
M  V30 8008 H 1456.74 6.4684 3.0373 0
M  V30 8009 H 1454.9 8.47002 3.20749 0
M  V30 8010 H 1454.86 5.8885 -0.0765548 0
M  V30 8011 H 1455.24 1.60276 -2.32875 0
M  V30 8012 H 1455.43 -0.0699355 -1.73859 0
M  V30 8013 H 1455.54 0.165507 2.71897 0
M  V30 8014 P 1456.77 7.20834 5.23717 0
M  V30 8015 O 1456.99 7.79853 6.57286 0
M  V30 8016 O 1457.56 7.79239 4.12957 0
M  V30 8017 O 1457.02 5.63315 5.29344 0
M  V30 8018 C 1456.08 4.80255 6.01876 0
M  V30 8019 C 1456.81 3.64202 6.65911 0
M  V30 8020 O 1457.02 2.60694 5.64732 0
M  V30 8021 C 1458.21 3.93473 7.1943 0
M  V30 8022 O 1458.6 3.02071 8.21205 0
M  V30 8023 C 1459.09 3.73047 5.97036 0
M  V30 8024 C 1458.38 2.58828 5.25741 0
M  V30 8025 N 1458.43 2.68068 3.77503 0
M  V30 8026 C 1458.35 3.79715 2.96723 0
M  V30 8027 N 1458.43 3.5377 1.68852 0
M  V30 8028 C 1458.57 2.15054 1.63254 0
M  V30 8029 C 1458.7 1.28964 0.518571 0
M  V30 8030 O 1458.72 1.56826 -0.679156 0
M  V30 8031 N 1458.82 -0.0538097 0.918425 0
M  V30 8032 C 1458.82 -0.494275 2.22578 0
M  V30 8033 N 1458.95 -1.81086 2.40434 0
M  V30 8034 N 1458.69 0.313645 3.27502 0
M  V30 8035 C 1458.57 1.61829 2.91033 0
M  V30 8036 H 1455.59 5.40332 6.79951 0
M  V30 8037 H 1455.32 4.41613 5.32378 0
M  V30 8038 H 1456.19 3.26331 7.47797 0
M  V30 8039 H 1458.84 1.63422 5.56814 0
M  V30 8040 H 1459.12 4.63374 5.34244 0
M  V30 8041 H 1460.12 3.44728 6.25838 0
M  V30 8042 H 1458.28 4.96652 7.57263 0
M  V30 8043 H 1458.23 4.80617 3.3614 0
M  V30 8044 H 1458.91 -0.742702 0.199384 0
M  V30 8045 H 1458.95 -2.20598 3.35588 0
M  V30 8046 H 1459.05 -2.43518 1.58945 0
M  V30 8047 P 1460.15 2.75334 8.47391 0
M  V30 8048 O 1460.37 2.44595 9.90239 0
M  V30 8049 O 1460.94 3.87732 7.92204 0
M  V30 8050 O 1460.4 1.4459 7.59357 0
M  V30 8051 C 1459.46 0.347563 7.69115 0
M  V30 8052 C 1460.19 -0.96767 7.52806 0
M  V30 8053 O 1460.4 -1.21036 6.1011 0
M  V30 8054 C 1461.59 -1.04544 8.13308 0
M  V30 8055 O 1461.98 -2.38311 8.41922 0
M  V30 8056 C 1462.47 -0.491279 7.02284 0
M  V30 8057 C 1461.76 -0.996264 5.77469 0
M  V30 8058 N 1461.81 -0.0501808 4.62873 0
M  V30 8059 C 1461.96 -0.588177 3.36904 0
M  V30 8060 O 1462.05 -1.78598 3.17173 0
M  V30 8061 N 1462 0.329694 2.33686 0
M  V30 8062 C 1461.91 1.6953 2.45079 0
M  V30 8063 O 1461.96 2.41926 1.44899 0
M  V30 8064 C 1461.76 2.16933 3.80505 0
M  V30 8065 C 1461.65 3.65373 3.97621 0
M  V30 8066 C 1461.71 1.30326 4.83752 0
M  V30 8067 H 1458.97 0.374722 8.67691 0
M  V30 8068 H 1458.7 0.443421 6.90177 0
M  V30 8069 H 1459.57 -1.75537 7.96793 0
M  V30 8070 H 1462.22 -1.94496 5.46629 0
M  V30 8071 H 1462.5 0.608651 7.04676 0
M  V30 8072 H 1463.5 -0.889672 7.08939 0
M  V30 8073 H 1461.66 -0.43308 9.04564 0
M  V30 8074 H 1461.59 1.68366 5.8516 0
M  V30 8075 H 1462.62 4.05985 4.30448 0
M  V30 8076 H 1460.88 3.88028 4.72875 0
M  V30 8077 H 1461.37 4.11381 3.01609 0
M  V30 8078 H 1462.11 -0.0393617 1.41345 0
M  V30 8079 P 1463.53 -2.75334 8.47391 0
M  V30 8080 O 1463.75 -3.84128 9.44797 0
M  V30 8081 O 1464.32 -1.51947 8.68712 0
M  V30 8082 O 1463.78 -3.29363 6.99321 0
M  V30 8083 C 1462.84 -4.24011 6.4274 0
M  V30 8084 C 1463.57 -5.20775 5.52155 0
M  V30 8085 O 1463.78 -4.56534 4.22446 0
M  V30 8086 C 1464.97 -5.62629 5.96531 0
M  V30 8087 O 1465.36 -6.87667 5.41053 0
M  V30 8088 C 1465.85 -4.52537 5.39283 0
M  V30 8089 C 1465.14 -4.20027 4.08623 0
M  V30 8090 N 1465.19 -2.76189 3.71603 0
M  V30 8091 H 1462.35 -4.797 7.24003 0
M  V30 8092 H 1462.08 -3.69856 5.84513 0
M  V30 8093 H 1462.95 -6.10356 5.41441 0
M  V30 8094 P 1466.91 -7.20834 5.23717 0
M  V30 8095 O 1467.13 -8.66104 5.38572 0
M  V30 8096 O 1467.7 -6.33544 6.1349 0
M  V30 8097 O 1467.16 -6.7751 3.72168 0
M  V30 8098 C 1466.22 -7.20825 2.7076 0
M  V30 8099 C 1466.95 -7.45864 1.40599 0
M  V30 8100 O 1467.16 -6.17651 0.734225 0
M  V30 8101 C 1468.35 -8.05808 1.51899 0
M  V30 8102 O 1468.74 -8.74358 0.335205 0
M  V30 8103 C 1469.23 -6.83093 1.70294 0
M  V30 8104 C 1468.52 -5.79992 0.836974 0
M  V30 8105 N 1468.57 -4.41864 1.38293 0
M  V30 8106 H 1465.73 -8.13644 3.0377 0
M  V30 8107 H 1465.46 -6.42788 2.55485 0
M  V30 8108 H 1466.33 -8.12039 0.792769 0
M  V30 8109 P 1470.29 -8.91 -4.81154e-12 0
M  V30 8110 O 1470.51 -10.1726 -0.733694 0
M  V30 8111 O 1471.08 -8.73148 1.23936 0
M  V30 8112 O 1470.54 -7.66872 -0.971405 0
M  V30 8113 C 1469.6 -7.42309 -2.04641 0
M  V30 8114 C 1470.33 -6.86059 -3.24661 0
M  V30 8115 O 1470.54 -5.42847 -3.03646 0
M  V30 8116 C 1471.73 -7.41196 -3.50753 0
M  V30 8117 O 1472.12 -7.27073 -4.86816 0
M  V30 8118 C 1472.61 -6.5273 -2.63741 0
M  V30 8119 C 1471.9 -5.1842 -2.73198 0
M  V30 8120 N 1471.95 -4.38762 -1.4784 0
M  V30 8121 H 1469.11 -8.36803 -2.32493 0
M  V30 8122 H 1468.84 -6.70197 -1.71129 0
M  V30 8123 H 1469.71 -7.03551 -4.13168 0
M  V30 8124 P 1473.67 -7.20834 -5.23717 0
M  V30 8125 O 1473.89 -7.80006 -6.57415 0
M  V30 8126 O 1474.46 -7.79416 -4.13051 0
M  V30 8127 O 1473.92 -5.63315 -5.29344 0
M  V30 8128 C 1472.98 -4.80318 -6.01954 0
M  V30 8129 C 1473.71 -3.64202 -6.65911 0
M  V30 8130 O 1473.92 -2.60736 -5.64823 0
M  V30 8131 C 1475.11 -3.93521 -7.19518 0
M  V30 8132 O 1475.5 -3.02071 -8.21205 0
M  V30 8133 C 1475.99 -3.73047 -5.97036 0
M  V30 8134 C 1475.28 -2.58828 -5.25741 0
M  V30 8135 N 1475.33 -2.68068 -3.77503 0
M  V30 8136 C 1475.25 -3.80474 -2.99159 0
M  V30 8137 N 1475.32 -3.55622 -1.71925 0
M  V30 8138 C 1475.47 -2.1832 -1.65733 0
M  V30 8139 C 1475.6 -1.28842 -0.572777 0
M  V30 8140 N 1475.61 -1.66875 0.70098 0
M  V30 8141 N 1475.72 0.016788 -0.859836 0
M  V30 8142 C 1475.71 0.398145 -2.13316 0
M  V30 8143 N 1475.59 -0.328224 -3.22333 0
M  V30 8144 C 1475.47 -1.62992 -2.90383 0
M  V30 8145 H 1472.49 -5.40394 -6.8003 0
M  V30 8146 H 1472.22 -4.41741 -5.32532 0
M  V30 8147 H 1473.09 -3.26371 -7.47889 0
M  V30 8148 H 1475.74 -1.64007 -5.56746 0
M  V30 8149 H 1476.02 -4.63439 -5.3432 0
M  V30 8150 H 1477.02 -3.44776 -6.25925 0
M  V30 8151 H 1475.18 -4.96707 -7.57347 0
M  V30 8152 H 1475.14 -4.8089 -3.39924 0
M  V30 8153 H 1475.52 -2.66547 0.941919 0
M  V30 8154 H 1475.71 -0.965341 1.44766 0
M  V30 8155 H 1475.82 1.46427 -2.29697 0
M  V30 8156 P 1477.05 -2.75334 -8.47391 0
M  V30 8157 O 1477.27 -2.44571 -9.90142 0
M  V30 8158 O 1477.84 -3.87688 -7.92115 0
M  V30 8159 O 1477.3 -1.4459 -7.59357 0
M  V30 8160 C 1476.36 -0.347608 -7.69215 0
M  V30 8161 C 1477.09 0.96767 -7.52806 0
M  V30 8162 O 1477.3 1.21036 -6.1011 0
M  V30 8163 C 1478.49 1.04544 -8.13308 0
M  V30 8164 O 1478.88 2.38311 -8.41922 0
M  V30 8165 C 1479.37 0.491279 -7.02284 0
M  V30 8166 C 1478.66 0.996264 -5.77469 0
M  V30 8167 N 1478.71 0.0501916 -4.62973 0
M  V30 8168 H 1475.87 -0.374722 -8.67691 0
M  V30 8169 H 1475.6 -0.443485 -6.90277 0
M  V30 8170 H 1476.47 1.75537 -7.96793 0
M  V30 8171 P 1480.43 2.75334 -8.47391 0
M  V30 8172 O 1480.65 3.84128 -9.44797 0
M  V30 8173 O 1481.22 1.51947 -8.68712 0
M  V30 8174 O 1480.68 3.29363 -6.99321 0
M  V30 8175 C 1479.74 4.24011 -6.4274 0
M  V30 8176 C 1480.47 5.20775 -5.52155 0
M  V30 8177 O 1480.68 4.56534 -4.22446 0
M  V30 8178 C 1481.87 5.62629 -5.96531 0
M  V30 8179 O 1482.26 6.87667 -5.41053 0
M  V30 8180 C 1482.75 4.52537 -5.39283 0
M  V30 8181 C 1482.04 4.20027 -4.08623 0
M  V30 8182 N 1482.09 2.76189 -3.71603 0
M  V30 8183 H 1479.25 4.797 -7.24003 0
M  V30 8184 H 1478.98 3.69856 -5.84513 0
M  V30 8185 H 1479.85 6.10356 -5.41441 0
M  V30 8186 P 1483.81 7.20834 -5.23717 0
M  V30 8187 O 1484.03 8.66274 -5.38678 0
M  V30 8188 O 1484.6 6.33687 -6.13629 0
M  V30 8189 O 1484.06 6.7751 -3.72168 0
M  V30 8190 C 1483.12 7.20919 -2.70795 0
M  V30 8191 C 1483.85 7.45864 -1.40599 0
M  V30 8192 O 1484.06 6.17751 -0.734343 0
M  V30 8193 C 1485.25 8.05906 -1.51917 0
M  V30 8194 O 1485.64 8.74358 -0.335205 0
M  V30 8195 C 1486.13 6.83093 -1.70294 0
M  V30 8196 C 1485.42 5.79992 -0.836974 0
M  V30 8197 N 1485.47 4.41864 -1.38293 0
M  V30 8198 H 1482.63 8.13738 -3.03804 0
M  V30 8199 H 1482.36 6.42974 -2.55559 0
M  V30 8200 H 1483.23 8.12139 -0.792866 0
M  V30 8201 H 1485.88 5.80178 0.160643 0
M  V30 8202 H 1486.16 6.51379 -2.75643 0
M  V30 8203 H 1487.16 7.01832 -1.3448 0
M  V30 8204 H 1485.32 8.73771 -2.38364 0
M  V30 8205 P 1487.19 8.91 3.70254e-12 0
M  V30 8206 O 1487.41 10.1726 0.733694 0
M  V30 8207 O 1487.98 8.73148 -1.23936 0
M  V30 8208 O 1487.44 7.66872 0.971405 0
M  V30 8209 C 1486.5 7.42309 2.04641 0
M  V30 8210 C 1487.23 6.86059 3.24661 0
M  V30 8211 O 1487.44 5.42847 3.03646 0
M  V30 8212 C 1488.63 7.41196 3.50753 0
M  V30 8213 O 1489.02 7.27073 4.86816 0
M  V30 8214 C 1489.51 6.5273 2.63741 0
M  V30 8215 C 1488.8 5.1842 2.73198 0
M  V30 8216 N 1488.85 4.38762 1.4784 0
M  V30 8217 H 1486.01 8.36803 2.32493 0
M  V30 8218 H 1485.74 6.70197 1.71129 0
M  V30 8219 H 1486.61 7.03551 4.13168 0
M  V30 8220 P 1490.57 7.20834 5.23717 0
M  V30 8221 O 1490.79 7.7993 6.57351 0
M  V30 8222 O 1491.36 7.79328 4.13004 0
M  V30 8223 O 1490.82 5.63315 5.29344 0
M  V30 8224 C 1489.88 4.80193 6.01798 0
M  V30 8225 C 1490.61 3.64202 6.65911 0
M  V30 8226 O 1490.82 2.60694 5.64732 0
M  V30 8227 C 1492.01 3.93473 7.1943 0
M  V30 8228 O 1492.4 3.02071 8.21205 0
M  V30 8229 C 1492.89 3.73047 5.97036 0
M  V30 8230 C 1492.18 2.58828 5.25741 0
M  V30 8231 N 1492.23 2.6801 3.77422 0
M  V30 8232 C 1492.38 1.50443 3.07133 0
M  V30 8233 O 1492.47 0.419406 3.61576 0
M  V30 8234 N 1492.42 1.6403 1.69677 0
M  V30 8235 C 1492.33 2.81206 0.986255 0
M  V30 8236 C 1492.18 3.99158 1.80325 0
M  V30 8237 C 1492.13 3.89779 3.1476 0
M  V30 8238 H 1489.39 5.40332 6.79951 0
M  V30 8239 H 1489.12 4.41549 5.32301 0
M  V30 8240 H 1489.99 3.26331 7.47797 0
M  V30 8241 H 1492.64 1.6395 5.56554 0
M  V30 8242 H 1492.92 4.63439 5.3432 0
M  V30 8243 H 1493.92 3.44728 6.25838 0
M  V30 8244 H 1492.08 4.96652 7.57263 0
M  V30 8245 H 1492.01 4.80159 3.74441 0
M  V30 8246 P 1493.95 2.75334 8.47391 0
M  V30 8247 O 1494.17 2.44571 9.90142 0
M  V30 8248 O 1494.74 3.87688 7.92115 0
M  V30 8249 O 1494.2 1.4459 7.59357 0
M  V30 8250 C 1493.26 0.347608 7.69215 0
M  V30 8251 C 1493.99 -0.96767 7.52806 0
M  V30 8252 O 1494.2 -1.21036 6.1011 0
M  V30 8253 C 1495.39 -1.04544 8.13308 0
M  V30 8254 O 1495.78 -2.38311 8.41922 0
M  V30 8255 C 1496.27 -0.491279 7.02284 0
M  V30 8256 C 1495.56 -0.996264 5.77469 0
M  V30 8257 N 1495.61 -0.0501916 4.62973 0
M  V30 8258 H 1492.77 0.374722 8.67691 0
M  V30 8259 H 1492.5 0.443485 6.90277 0
M  V30 8260 H 1493.37 -1.75537 7.96793 0
M  V30 8261 P 1497.33 -2.75334 8.47391 0
M  V30 8262 O 1497.55 -3.84128 9.44797 0
M  V30 8263 O 1498.12 -1.51947 8.68712 0
M  V30 8264 O 1497.58 -3.29363 6.99321 0
M  V30 8265 C 1496.64 -4.24011 6.4274 0
M  V30 8266 C 1497.37 -5.20775 5.52155 0
M  V30 8267 O 1497.58 -4.56534 4.22446 0
M  V30 8268 C 1498.77 -5.62629 5.96531 0
M  V30 8269 O 1499.16 -6.87667 5.41053 0
M  V30 8270 C 1499.65 -4.52537 5.39283 0
M  V30 8271 C 1498.94 -4.20027 4.08623 0
M  V30 8272 N 1498.99 -2.76189 3.71603 0
M  V30 8273 H 1496.15 -4.797 7.24003 0
M  V30 8274 H 1495.88 -3.69856 5.84513 0
M  V30 8275 H 1496.75 -6.10356 5.41441 0
M  V30 8276 P 1500.71 -7.20834 5.23717 0
M  V30 8277 O 1500.93 -8.66274 5.38678 0
M  V30 8278 O 1501.5 -6.33687 6.13629 0
M  V30 8279 O 1500.96 -6.7751 3.72168 0
M  V30 8280 C 1500.02 -7.20919 2.70795 0
M  V30 8281 C 1500.75 -7.45864 1.40599 0
M  V30 8282 O 1500.96 -6.17751 0.734343 0
M  V30 8283 C 1502.15 -8.05906 1.51917 0
M  V30 8284 O 1502.54 -8.74358 0.335205 0
M  V30 8285 C 1503.03 -6.83093 1.70294 0
M  V30 8286 C 1502.32 -5.79992 0.836974 0
M  V30 8287 N 1502.37 -4.41864 1.38293 0
M  V30 8288 C 1502.29 -4.02089 2.69407 0
M  V30 8289 N 1502.36 -2.73403 2.85089 0
M  V30 8290 C 1502.51 -2.25086 1.5642 0
M  V30 8291 C 1502.64 -0.942887 1.04836 0
M  V30 8292 N 1502.65 0.150999 1.80369 0
M  V30 8293 N 1502.76 -0.812565 -0.28167 0
M  V30 8294 C 1502.75 -1.90572 -1.03784 0
M  V30 8295 N 1502.63 -3.167 -0.683905 0
M  V30 8296 C 1502.51 -3.26538 0.652815 0
M  V30 8297 H 1499.53 -8.13738 3.03804 0
M  V30 8298 H 1499.26 -6.42974 2.55559 0
M  V30 8299 H 1500.13 -8.12139 0.792866 0
M  V30 8300 H 1502.78 -5.80178 -0.160643 0
M  V30 8301 H 1503.06 -6.51379 2.75643 0
M  V30 8302 H 1504.06 -7.01832 1.3448 0
M  V30 8303 H 1502.22 -8.73771 2.38364 0
M  V30 8304 H 1502.18 -4.7189 3.52311 0
M  V30 8305 H 1502.56 0.0721434 2.82608 0
M  V30 8306 H 1502.75 1.0785 1.36544 0
M  V30 8307 H 1502.86 -1.73207 -2.10241 0
M  V30 8308 P 1504.09 -8.91 -2.59353e-12 0
M  V30 8309 O 1504.31 -10.1726 -0.733694 0
M  V30 8310 O 1504.88 -8.73148 1.23936 0
M  V30 8311 O 1504.34 -7.66872 -0.971405 0
M  V30 8312 C 1503.4 -7.42309 -2.04641 0
M  V30 8313 C 1504.13 -6.86059 -3.24661 0
M  V30 8314 O 1504.34 -5.42847 -3.03646 0
M  V30 8315 C 1505.53 -7.41196 -3.50753 0
M  V30 8316 O 1505.92 -7.27073 -4.86816 0
M  V30 8317 C 1506.41 -6.5273 -2.63741 0
M  V30 8318 C 1505.7 -5.1842 -2.73198 0
M  V30 8319 N 1505.75 -4.38762 -1.4784 0
M  V30 8320 H 1502.91 -8.36803 -2.32493 0
M  V30 8321 H 1502.64 -6.70197 -1.71129 0
M  V30 8322 H 1503.51 -7.03551 -4.13168 0
M  V30 8323 P 1507.47 -7.20834 -5.23717 0
M  V30 8324 O 1507.69 -7.80006 -6.57415 0
M  V30 8325 O 1508.26 -7.79416 -4.13051 0
M  V30 8326 O 1507.72 -5.63315 -5.29344 0
M  V30 8327 C 1506.78 -4.80318 -6.01954 0
M  V30 8328 C 1507.51 -3.64202 -6.65911 0
M  V30 8329 O 1507.72 -2.60736 -5.64823 0
M  V30 8330 C 1508.91 -3.93521 -7.19518 0
M  V30 8331 O 1509.3 -3.02071 -8.21205 0
M  V30 8332 C 1509.79 -3.73047 -5.97036 0
M  V30 8333 C 1509.08 -2.58828 -5.25741 0
M  V30 8334 N 1509.13 -2.68068 -3.77503 0
M  V30 8335 C 1509.05 -3.80474 -2.99159 0
M  V30 8336 N 1509.12 -3.55622 -1.71925 0
M  V30 8337 C 1509.27 -2.1832 -1.65733 0
M  V30 8338 C 1509.4 -1.28842 -0.572777 0
M  V30 8339 N 1509.41 -1.66875 0.70098 0
M  V30 8340 N 1509.52 0.016788 -0.859836 0
M  V30 8341 C 1509.51 0.398145 -2.13316 0
M  V30 8342 N 1509.39 -0.328224 -3.22333 0
M  V30 8343 C 1509.27 -1.62992 -2.90383 0
M  V30 8344 H 1506.29 -5.40394 -6.8003 0
M  V30 8345 H 1506.02 -4.41741 -5.32532 0
M  V30 8346 H 1506.89 -3.26371 -7.47889 0
M  V30 8347 H 1509.54 -1.64007 -5.56746 0
M  V30 8348 H 1509.82 -4.63439 -5.3432 0
M  V30 8349 H 1510.82 -3.44776 -6.25925 0
M  V30 8350 H 1508.98 -4.96707 -7.57347 0
M  V30 8351 H 1508.94 -4.8089 -3.39924 0
M  V30 8352 H 1509.32 -2.66547 0.941919 0
M  V30 8353 H 1509.51 -0.965341 1.44766 0
M  V30 8354 H 1509.62 1.46427 -2.29697 0
M  V30 8355 P 1510.85 -2.75334 -8.47391 0
M  V30 8356 O 1511.07 -2.44571 -9.90142 0
M  V30 8357 O 1511.64 -3.87688 -7.92115 0
M  V30 8358 O 1511.1 -1.4459 -7.59357 0
M  V30 8359 C 1510.16 -0.347608 -7.69215 0
M  V30 8360 C 1510.89 0.96767 -7.52806 0
M  V30 8361 O 1511.1 1.21036 -6.1011 0
M  V30 8362 C 1512.29 1.04544 -8.13308 0
M  V30 8363 O 1512.68 2.38311 -8.41922 0
M  V30 8364 C 1513.17 0.491279 -7.02284 0
M  V30 8365 C 1512.46 0.996264 -5.77469 0
M  V30 8366 N 1512.51 0.0501916 -4.62973 0
M  V30 8367 H 1509.67 -0.374722 -8.67691 0
M  V30 8368 H 1509.4 -0.443485 -6.90277 0
M  V30 8369 H 1510.27 1.75537 -7.96793 0
M  V30 8370 P 1514.23 2.75334 -8.47391 0
M  V30 8371 O 1514.45 3.84128 -9.44797 0
M  V30 8372 O 1515.02 1.51947 -8.68712 0
M  V30 8373 O 1514.48 3.29363 -6.99321 0
M  V30 8374 C 1513.54 4.24011 -6.4274 0
M  V30 8375 C 1514.27 5.20775 -5.52155 0
M  V30 8376 O 1514.48 4.56534 -4.22446 0
M  V30 8377 C 1515.67 5.62629 -5.96531 0
M  V30 8378 O 1516.06 6.87667 -5.41053 0
M  V30 8379 C 1516.55 4.52537 -5.39283 0
M  V30 8380 C 1515.84 4.20027 -4.08623 0
M  V30 8381 N 1515.89 2.76189 -3.71603 0
M  V30 8382 C 1515.81 1.64862 -4.52822 0
M  V30 8383 N 1515.89 0.512671 -3.88633 0
M  V30 8384 C 1516.03 0.888083 -2.54977 0
M  V30 8385 C 1516.16 0.094668 -1.38677 0
M  V30 8386 N 1516.28 0.890102 -0.232633 0
M  V30 8387 C 1516.28 2.26958 -0.21772 0
M  V30 8388 N 1516.41 2.84626 0.97925 0
M  V30 8389 N 1516.15 3.0178 -1.31033 0
M  V30 8390 C 1516.03 2.26781 -2.43843 0
M  V30 8391 H 1513.05 4.797 -7.24003 0
M  V30 8392 H 1512.78 3.69856 -5.84513 0
M  V30 8393 H 1513.65 6.10356 -5.41441 0
M  V30 8394 P 1517.61 7.20834 -5.23717 0
M  V30 8395 O 1517.83 8.66104 -5.38572 0
M  V30 8396 O 1518.4 6.33544 -6.1349 0
M  V30 8397 O 1517.86 6.7751 -3.72168 0
M  V30 8398 C 1516.92 7.20825 -2.7076 0
M  V30 8399 C 1517.65 7.45864 -1.40599 0
M  V30 8400 O 1517.86 6.17651 -0.734225 0
M  V30 8401 C 1519.05 8.05808 -1.51899 0
M  V30 8402 O 1519.44 8.74358 -0.335205 0
M  V30 8403 C 1519.93 6.83093 -1.70294 0
M  V30 8404 C 1519.22 5.79992 -0.836974 0
M  V30 8405 N 1519.27 4.41864 -1.38293 0
M  V30 8406 H 1516.43 8.13644 -3.0377 0
M  V30 8407 H 1516.16 6.42788 -2.55485 0
M  V30 8408 H 1517.03 8.12039 -0.792769 0
M  V30 8409 P 1520.99 8.91 1.48453e-12 0
M  V30 8410 O 1521.21 10.1726 0.733694 0
M  V30 8411 O 1521.78 8.73148 -1.23936 0
M  V30 8412 O 1521.24 7.66872 0.971405 0
M  V30 8413 C 1520.3 7.42309 2.04641 0
M  V30 8414 C 1521.03 6.86059 3.24661 0
M  V30 8415 O 1521.24 5.42847 3.03646 0
M  V30 8416 C 1522.43 7.41196 3.50753 0
M  V30 8417 O 1522.82 7.27073 4.86816 0
M  V30 8418 C 1523.31 6.5273 2.63741 0
M  V30 8419 C 1522.6 5.1842 2.73198 0
M  V30 8420 N 1522.65 4.38762 1.4784 0
M  V30 8421 H 1519.81 8.36803 2.32493 0
M  V30 8422 H 1519.54 6.70197 1.71129 0
M  V30 8423 H 1520.41 7.03551 4.13168 0
M  V30 8424 P 1524.37 7.20834 5.23717 0
M  V30 8425 O 1524.59 7.79853 6.57286 0
M  V30 8426 O 1525.16 7.79239 4.12957 0
M  V30 8427 O 1524.62 5.63315 5.29344 0
M  V30 8428 C 1523.68 4.80255 6.01876 0
M  V30 8429 C 1524.41 3.64202 6.65911 0
M  V30 8430 O 1524.62 2.60694 5.64732 0
M  V30 8431 C 1525.81 3.93473 7.1943 0
M  V30 8432 O 1526.2 3.02071 8.21205 0
M  V30 8433 C 1526.69 3.73047 5.97036 0
M  V30 8434 C 1525.98 2.58828 5.25741 0
M  V30 8435 N 1526.03 2.68068 3.77503 0
M  V30 8436 H 1523.19 5.40332 6.79951 0
M  V30 8437 H 1522.92 4.41613 5.32378 0
M  V30 8438 H 1523.79 3.26331 7.47797 0
M  V30 8439 P 1527.75 2.75334 8.47391 0
M  V30 8440 O 1527.97 2.44571 9.90142 0
M  V30 8441 O 1528.54 3.87688 7.92115 0
M  V30 8442 O 1528 1.4459 7.59357 0
M  V30 8443 C 1527.06 0.347608 7.69215 0
M  V30 8444 C 1527.79 -0.96767 7.52806 0
M  V30 8445 O 1528 -1.21036 6.1011 0
M  V30 8446 C 1529.19 -1.04544 8.13308 0
M  V30 8447 O 1529.58 -2.38311 8.41922 0
M  V30 8448 C 1530.07 -0.491279 7.02284 0
M  V30 8449 C 1529.36 -0.996264 5.77469 0
M  V30 8450 N 1529.41 -0.0501916 4.62973 0
M  V30 8451 H 1526.57 0.374722 8.67691 0
M  V30 8452 H 1526.3 0.443485 6.90277 0
M  V30 8453 H 1527.17 -1.75537 7.96793 0
M  V30 8454 P 1531.13 -2.75334 8.47391 0
M  V30 8455 O 1531.35 -3.84166 9.4489 0
M  V30 8456 O 1531.92 -1.51964 8.6881 0
M  V30 8457 O 1531.38 -3.29363 6.99321 0
M  V30 8458 C 1530.44 -4.23956 6.42656 0
M  V30 8459 C 1531.17 -5.20775 5.52155 0
M  V30 8460 O 1531.38 -4.56534 4.22446 0
M  V30 8461 C 1532.57 -5.62629 5.96531 0
M  V30 8462 O 1532.96 -6.87667 5.41053 0
M  V30 8463 C 1533.45 -4.52537 5.39283 0
M  V30 8464 C 1532.74 -4.20027 4.08623 0
M  V30 8465 N 1532.79 -2.7613 3.71522 0
M  V30 8466 C 1532.94 -2.45612 2.37989 0
M  V30 8467 O 1533.03 -3.30919 1.51621 0
M  V30 8468 N 1532.98 -1.10684 2.08435 0
M  V30 8469 C 1532.89 -0.0690084 2.9792 0
M  V30 8470 C 1532.74 -0.481522 4.35345 0
M  V30 8471 C 1532.69 -1.78906 4.67968 0
M  V30 8472 H 1529.95 -4.797 7.24003 0
M  V30 8473 H 1529.68 -3.69802 5.84429 0
M  V30 8474 H 1530.55 -6.10356 5.41441 0
M  V30 8475 H 1533.2 -4.78651 3.27911 0
M  V30 8476 H 1533.48 -3.64957 6.05871 0
M  V30 8477 H 1534.47 -4.8868 5.2125 0
M  V30 8478 H 1532.64 -5.66726 7.06352 0
M  V30 8479 H 1532.57 -2.07737 5.72367 0
M  V30 8480 P 1534.51 -7.20834 5.23717 0
M  V30 8481 O 1534.73 -8.66104 5.38572 0
M  V30 8482 O 1535.3 -6.33544 6.1349 0
M  V30 8483 O 1534.76 -6.7751 3.72168 0
M  V30 8484 C 1533.82 -7.20825 2.7076 0
M  V30 8485 C 1534.55 -7.45864 1.40599 0
M  V30 8486 O 1534.76 -6.17651 0.734225 0
M  V30 8487 C 1535.95 -8.05808 1.51899 0
M  V30 8488 O 1536.34 -8.74358 0.335205 0
M  V30 8489 C 1536.83 -6.83093 1.70294 0
M  V30 8490 C 1536.12 -5.79992 0.836974 0
M  V30 8491 N 1536.17 -4.41864 1.38293 0
M  V30 8492 H 1533.33 -8.13644 3.0377 0
M  V30 8493 H 1533.06 -6.42788 2.55485 0
M  V30 8494 H 1533.93 -8.12039 0.792769 0
M  V30 8495 P 1537.89 -8.91 -3.75525e-13 0
M  V30 8496 O 1538.11 -10.1736 -0.733766 0
M  V30 8497 O 1538.68 -8.73247 1.2395 0
M  V30 8498 O 1538.14 -7.66872 -0.971405 0
M  V30 8499 C 1537.2 -7.42309 -2.04641 0
M  V30 8500 C 1537.93 -6.86059 -3.24661 0
M  V30 8501 O 1538.14 -5.42847 -3.03646 0
M  V30 8502 C 1539.33 -7.41196 -3.50753 0
M  V30 8503 O 1539.72 -7.27073 -4.86816 0
M  V30 8504 C 1540.21 -6.5273 -2.63741 0
M  V30 8505 C 1539.5 -5.1842 -2.73198 0
M  V30 8506 N 1539.55 -4.38668 -1.47808 0
M  V30 8507 C 1539.7 -3.00789 -1.58511 0
M  V30 8508 O 1539.79 -2.50116 -2.71298 0
M  V30 8509 N 1539.75 -2.29703 -0.253698 0
M  V30 8510 C 1539.65 -2.84269 0.750133 0
M  V30 8511 N 1539.7 -2.06951 1.82612 0
M  V30 8512 C 1539.5 -4.25803 0.889776 0
M  V30 8513 C 1539.45 -4.98326 -0.259363 0
M  V30 8514 H 1536.71 -8.36707 -2.32466 0
M  V30 8515 H 1536.44 -6.701 -1.71105 0
M  V30 8516 H 1537.31 -7.03638 -4.13219 0
M  V30 8517 H 1539.96 -4.59852 -3.53955 0
M  V30 8518 H 1540.24 -6.88995 -1.59871 0
M  V30 8519 H 1541.23 -6.46749 -3.03687 0
M  V30 8520 H 1539.4 -8.46908 -3.20714 0
M  V30 8521 H 1539.33 -6.06349 -0.206238 0
M  V30 8522 H 1539.43 -4.73163 1.86796 0
M  V30 8523 H 1539.82 -1.05099 1.72271 0
M  V30 8524 H 1539.62 -2.48716 2.76361 0
M  V30 8525 P 1541.27 -7.20834 -5.23717 0
M  V30 8526 O 1541.49 -7.79853 -6.57286 0
M  V30 8527 O 1542.06 -7.79239 -4.12957 0
M  V30 8528 O 1541.52 -5.63315 -5.29344 0
M  V30 8529 C 1540.58 -4.80255 -6.01876 0
M  V30 8530 C 1541.31 -3.64202 -6.65911 0
M  V30 8531 O 1541.52 -2.60694 -5.64732 0
M  V30 8532 C 1542.71 -3.93473 -7.1943 0
M  V30 8533 O 1543.1 -3.02071 -8.21205 0
M  V30 8534 C 1543.59 -3.73047 -5.97036 0
M  V30 8535 C 1542.88 -2.58828 -5.25741 0
M  V30 8536 N 1542.93 -2.68068 -3.77503 0
M  V30 8537 H 1540.09 -5.40332 -6.79951 0
M  V30 8538 H 1539.82 -4.41613 -5.32378 0
M  V30 8539 H 1540.69 -3.26331 -7.47797 0
M  V30 8540 P 1544.65 -2.75334 -8.47391 0
M  V30 8541 O 1544.87 -2.44571 -9.90142 0
M  V30 8542 O 1545.44 -3.87688 -7.92115 0
M  V30 8543 O 1544.9 -1.4459 -7.59357 0
M  V30 8544 C 1543.96 -0.347608 -7.69215 0
M  V30 8545 C 1544.69 0.96767 -7.52806 0
M  V30 8546 O 1544.9 1.21036 -6.1011 0
M  V30 8547 C 1546.09 1.04544 -8.13308 0
M  V30 8548 O 1546.48 2.38311 -8.41922 0
M  V30 8549 C 1546.97 0.491279 -7.02284 0
M  V30 8550 C 1546.26 0.996264 -5.77469 0
M  V30 8551 N 1546.31 0.0501916 -4.62973 0
M  V30 8552 H 1543.47 -0.374722 -8.67691 0
M  V30 8553 H 1543.2 -0.443485 -6.90277 0
M  V30 8554 H 1544.07 1.75537 -7.96793 0
M  V30 8555 P 1548.03 2.75334 -8.47391 0
M  V30 8556 O 1548.25 3.84128 -9.44797 0
M  V30 8557 O 1548.82 1.51947 -8.68712 0
M  V30 8558 O 1548.28 3.29363 -6.99321 0
M  V30 8559 C 1547.34 4.24011 -6.4274 0
M  V30 8560 C 1548.07 5.20775 -5.52155 0
M  V30 8561 O 1548.28 4.56534 -4.22446 0
M  V30 8562 C 1549.47 5.62629 -5.96531 0
M  V30 8563 O 1549.86 6.87667 -5.41053 0
M  V30 8564 C 1550.35 4.52537 -5.39283 0
M  V30 8565 C 1549.64 4.20027 -4.08623 0
M  V30 8566 N 1549.69 2.76189 -3.71603 0
M  V30 8567 H 1546.85 4.797 -7.24003 0
M  V30 8568 H 1546.58 3.69856 -5.84513 0
M  V30 8569 H 1547.45 6.10356 -5.41441 0
M  V30 8570 P 1551.41 7.20834 -5.23717 0
M  V30 8571 O 1551.63 8.66104 -5.38572 0
M  V30 8572 O 1552.2 6.33544 -6.1349 0
M  V30 8573 O 1551.66 6.7751 -3.72168 0
M  V30 8574 C 1550.72 7.20825 -2.7076 0
M  V30 8575 C 1551.45 7.45864 -1.40599 0
M  V30 8576 O 1551.66 6.17651 -0.734225 0
M  V30 8577 C 1552.85 8.05808 -1.51899 0
M  V30 8578 O 1553.24 8.74358 -0.335205 0
M  V30 8579 C 1553.73 6.83093 -1.70294 0
M  V30 8580 C 1553.02 5.79992 -0.836974 0
M  V30 8581 N 1553.07 4.41864 -1.38293 0
M  V30 8582 C 1552.99 3.99538 -2.69438 0
M  V30 8583 N 1553.07 2.69909 -2.84277 0
M  V30 8584 C 1553.21 2.21719 -1.5408 0
M  V30 8585 C 1553.34 0.891712 -1.06628 0
M  V30 8586 O 1553.36 -0.161298 -1.70137 0
M  V30 8587 N 1553.46 0.856846 0.334985 0
M  V30 8588 C 1553.46 1.9641 1.15789 0
M  V30 8589 N 1553.59 1.72708 2.46522 0
M  V30 8590 N 1553.33 3.21165 0.713741 0
M  V30 8591 C 1553.21 3.26797 -0.639748 0
M  V30 8592 H 1550.23 8.13644 -3.0377 0
M  V30 8593 H 1549.96 6.42788 -2.55485 0
M  V30 8594 H 1550.83 8.12039 -0.792769 0
M  V30 8595 H 1553.48 5.80061 0.166416 0
M  V30 8596 H 1553.76 6.51287 -2.75604 0
M  V30 8597 H 1554.75 7.01734 -1.34462 0
M  V30 8598 H 1552.92 8.73674 -2.38337 0
M  V30 8599 H 1552.87 4.68207 -3.53221 0
M  V30 8600 H 1553.55 -0.0398818 0.767965 0
M  V30 8601 H 1553.59 2.50995 3.13503 0
M  V30 8602 H 1553.69 0.759148 2.80716 0
M  V30 8603 P 1554.79 8.91 -7.3348e-13 0
M  V30 8604 O 1555.01 10.1746 0.733838 0
M  V30 8605 O 1555.58 8.73346 -1.23964 0
M  V30 8606 O 1555.04 7.66872 0.971405 0
M  V30 8607 C 1554.1 7.42405 2.04668 0
M  V30 8608 C 1554.83 6.86059 3.24661 0
M  V30 8609 O 1555.04 5.42934 3.03695 0
M  V30 8610 C 1556.23 7.41287 3.50796 0
M  V30 8611 O 1556.62 7.27073 4.86816 0
M  V30 8612 C 1557.11 6.5273 2.63741 0
M  V30 8613 C 1556.4 5.1842 2.73198 0
M  V30 8614 N 1556.45 4.38762 1.4784 0
M  V30 8615 H 1553.61 8.36899 2.3252 0
M  V30 8616 H 1553.34 6.70391 1.71179 0
M  V30 8617 H 1554.21 7.03638 4.13219 0
M  V30 8618 H 1556.86 4.59931 3.54016 0
M  V30 8619 H 1557.14 6.88995 1.59871 0
M  V30 8620 H 1558.13 6.4684 3.0373 0
M  V30 8621 H 1556.3 8.47002 3.20749 0
M  V30 8622 P 1558.17 7.20834 5.23717 0
M  V30 8623 O 1558.39 7.80006 6.57415 0
M  V30 8624 O 1558.96 7.79416 4.13051 0
M  V30 8625 O 1558.42 5.63315 5.29344 0
M  V30 8626 C 1557.48 4.80318 6.01954 0
M  V30 8627 C 1558.21 3.64202 6.65911 0
M  V30 8628 O 1558.42 2.60736 5.64823 0
M  V30 8629 C 1559.61 3.93521 7.19518 0
M  V30 8630 O 1560 3.02071 8.21205 0
M  V30 8631 C 1560.49 3.73047 5.97036 0
M  V30 8632 C 1559.78 2.58828 5.25741 0
M  V30 8633 N 1559.83 2.68068 3.77503 0
M  V30 8634 H 1556.99 5.40394 6.8003 0
M  V30 8635 H 1556.72 4.41741 5.32532 0
M  V30 8636 H 1557.59 3.26371 7.47889 0
M  V30 8637 H 1560.24 1.64007 5.56746 0
M  V30 8638 H 1560.52 4.63439 5.3432 0
M  V30 8639 H 1561.51 3.44776 6.25925 0
M  V30 8640 H 1559.68 4.96707 7.57347 0
M  V30 8641 P 1561.55 2.75334 8.47391 0
M  V30 8642 O 1561.77 2.44595 9.90239 0
M  V30 8643 O 1562.34 3.87732 7.92204 0
M  V30 8644 O 1561.8 1.4459 7.59357 0
M  V30 8645 C 1560.86 0.347563 7.69115 0
M  V30 8646 C 1561.59 -0.96767 7.52806 0
M  V30 8647 O 1561.8 -1.21036 6.1011 0
M  V30 8648 C 1562.99 -1.04544 8.13308 0
M  V30 8649 O 1563.38 -2.38311 8.41922 0
M  V30 8650 C 1563.87 -0.491279 7.02284 0
M  V30 8651 C 1563.16 -0.996264 5.77469 0
M  V30 8652 N 1563.21 -0.0501808 4.62873 0
M  V30 8653 C 1563.36 -0.588177 3.36904 0
M  V30 8654 O 1563.45 -1.78598 3.17173 0
M  V30 8655 N 1563.4 0.329694 2.33686 0
M  V30 8656 C 1563.31 1.6953 2.45079 0
M  V30 8657 C 1563.16 2.16933 3.80505 0
M  V30 8658 C 1563.11 1.30326 4.83752 0
M  V30 8659 H 1560.37 0.374722 8.67691 0
M  V30 8660 H 1560.1 0.443421 6.90177 0
M  V30 8661 H 1560.97 -1.75537 7.96793 0
M  V30 8662 H 1563.62 -1.94496 5.46629 0
M  V30 8663 H 1563.9 0.608651 7.04676 0
M  V30 8664 H 1564.89 -0.889672 7.08939 0
M  V30 8665 H 1563.06 -0.43308 9.04564 0
M  V30 8666 H 1562.99 1.68366 5.8516 0
M  V30 8667 P 1564.93 -2.75334 8.47391 0
M  V30 8668 O 1565.15 -3.84166 9.4489 0
M  V30 8669 O 1565.72 -1.51964 8.6881 0
M  V30 8670 O 1565.18 -3.29363 6.99321 0
M  V30 8671 C 1564.24 -4.23956 6.42656 0
M  V30 8672 C 1564.97 -5.20775 5.52155 0
M  V30 8673 O 1565.18 -4.56534 4.22446 0
M  V30 8674 C 1566.37 -5.62629 5.96531 0
M  V30 8675 O 1566.76 -6.87667 5.41053 0
M  V30 8676 C 1567.25 -4.52537 5.39283 0
M  V30 8677 C 1566.54 -4.20027 4.08623 0
M  V30 8678 N 1566.59 -2.7613 3.71522 0
M  V30 8679 C 1566.74 -2.45612 2.37989 0
M  V30 8680 O 1566.83 -3.30919 1.51621 0
M  V30 8681 N 1566.78 -1.10684 2.08435 0
M  V30 8682 C 1566.69 -0.0690084 2.9792 0
M  V30 8683 C 1566.54 -0.481522 4.35345 0
M  V30 8684 C 1566.49 -1.78906 4.67968 0
M  V30 8685 H 1563.75 -4.797 7.24003 0
M  V30 8686 H 1563.48 -3.69802 5.84429 0
M  V30 8687 H 1564.35 -6.10356 5.41441 0
M  V30 8688 H 1567 -4.78651 3.27911 0
M  V30 8689 H 1567.28 -3.64957 6.05871 0
M  V30 8690 H 1568.27 -4.8868 5.2125 0
M  V30 8691 H 1566.44 -5.66726 7.06352 0
M  V30 8692 H 1566.37 -2.07737 5.72367 0
M  V30 8693 P 1568.31 -7.20834 5.23717 0
M  V30 8694 O 1568.53 -8.66104 5.38572 0
M  V30 8695 O 1569.1 -6.33544 6.1349 0
M  V30 8696 O 1568.56 -6.7751 3.72168 0
M  V30 8697 C 1567.62 -7.20825 2.7076 0
M  V30 8698 C 1568.35 -7.45864 1.40599 0
M  V30 8699 O 1568.56 -6.17651 0.734225 0
M  V30 8700 C 1569.75 -8.05808 1.51899 0
M  V30 8701 O 1570.14 -8.74358 0.335205 0
M  V30 8702 C 1570.63 -6.83093 1.70294 0
M  V30 8703 C 1569.92 -5.79992 0.836974 0
M  V30 8704 N 1569.97 -4.41864 1.38293 0
M  V30 8705 H 1567.13 -8.13644 3.0377 0
M  V30 8706 H 1566.86 -6.42788 2.55485 0
M  V30 8707 H 1567.73 -8.12039 0.792769 0
M  V30 8708 P 1571.69 -8.91 1.84249e-12 0
M  V30 8709 O 1571.91 -10.1726 -0.733694 0
M  V30 8710 O 1572.48 -8.73148 1.23936 0
M  V30 8711 O 1571.94 -7.66872 -0.971405 0
M  V30 8712 C 1571 -7.42309 -2.04641 0
M  V30 8713 C 1571.73 -6.86059 -3.24661 0
M  V30 8714 O 1571.94 -5.42847 -3.03646 0
M  V30 8715 C 1573.13 -7.41196 -3.50753 0
M  V30 8716 O 1573.52 -7.27073 -4.86816 0
M  V30 8717 C 1574.01 -6.5273 -2.63741 0
M  V30 8718 C 1573.3 -5.1842 -2.73198 0
M  V30 8719 N 1573.35 -4.38762 -1.4784 0
M  V30 8720 H 1570.51 -8.36803 -2.32493 0
M  V30 8721 H 1570.24 -6.70197 -1.71129 0
M  V30 8722 H 1571.11 -7.03551 -4.13168 0
M  V30 8723 P 1575.07 -7.20834 -5.23717 0
M  V30 8724 O 1575.29 -7.79853 -6.57286 0
M  V30 8725 O 1575.86 -7.79239 -4.12957 0
M  V30 8726 O 1575.32 -5.63315 -5.29344 0
M  V30 8727 C 1574.38 -4.80255 -6.01876 0
M  V30 8728 C 1575.11 -3.64202 -6.65911 0
M  V30 8729 O 1575.32 -2.60694 -5.64732 0
M  V30 8730 C 1576.51 -3.93473 -7.1943 0
M  V30 8731 O 1576.9 -3.02071 -8.21205 0
M  V30 8732 C 1577.39 -3.73047 -5.97036 0
M  V30 8733 C 1576.68 -2.58828 -5.25741 0
M  V30 8734 N 1576.73 -2.68068 -3.77503 0
M  V30 8735 C 1576.65 -3.79715 -2.96723 0
M  V30 8736 N 1576.73 -3.5377 -1.68852 0
M  V30 8737 C 1576.87 -2.15054 -1.63254 0
M  V30 8738 C 1577 -1.28964 -0.518571 0
M  V30 8739 N 1577.12 0.0538097 -0.918425 0
M  V30 8740 C 1577.12 0.494275 -2.22578 0
M  V30 8741 N 1577.25 1.81086 -2.40434 0
M  V30 8742 N 1576.99 -0.313645 -3.27502 0
M  V30 8743 C 1576.87 -1.61829 -2.91033 0
M  V30 8744 H 1573.89 -5.40332 -6.79951 0
M  V30 8745 H 1573.62 -4.41613 -5.32378 0
M  V30 8746 H 1574.49 -3.26331 -7.47797 0
M  V30 8747 P 1578.45 -2.75334 -8.47391 0
M  V30 8748 O 1578.67 -2.44571 -9.90142 0
M  V30 8749 O 1579.24 -3.87688 -7.92115 0
M  V30 8750 O 1578.7 -1.4459 -7.59357 0
M  V30 8751 C 1577.76 -0.347608 -7.69215 0
M  V30 8752 C 1578.49 0.96767 -7.52806 0
M  V30 8753 O 1578.7 1.21036 -6.1011 0
M  V30 8754 C 1579.89 1.04544 -8.13308 0
M  V30 8755 O 1580.28 2.38311 -8.41922 0
M  V30 8756 C 1580.77 0.491279 -7.02284 0
M  V30 8757 C 1580.06 0.996264 -5.77469 0
M  V30 8758 N 1580.11 0.0501916 -4.62973 0
M  V30 8759 H 1577.27 -0.374722 -8.67691 0
M  V30 8760 H 1577 -0.443485 -6.90277 0
M  V30 8761 H 1577.87 1.75537 -7.96793 0
M  V30 8762 P 1581.83 2.75334 -8.47391 0
M  V30 8763 O 1582.05 3.84128 -9.44797 0
M  V30 8764 O 1582.62 1.51947 -8.68712 0
M  V30 8765 O 1582.08 3.29363 -6.99321 0
M  V30 8766 C 1581.14 4.24011 -6.4274 0
M  V30 8767 C 1581.87 5.20775 -5.52155 0
M  V30 8768 O 1582.08 4.56534 -4.22446 0
M  V30 8769 C 1583.27 5.62629 -5.96531 0
M  V30 8770 O 1583.66 6.87667 -5.41053 0
M  V30 8771 C 1584.15 4.52537 -5.39283 0
M  V30 8772 C 1583.44 4.20027 -4.08623 0
M  V30 8773 N 1583.49 2.76189 -3.71603 0
M  V30 8774 C 1583.41 1.64862 -4.52822 0
M  V30 8775 N 1583.49 0.512671 -3.88633 0
M  V30 8776 C 1583.63 0.888083 -2.54977 0
M  V30 8777 C 1583.76 0.094668 -1.38677 0
M  V30 8778 O 1583.78 -1.13053 -1.28163 0
M  V30 8779 N 1583.88 0.890102 -0.232633 0
M  V30 8780 C 1583.88 2.26958 -0.21772 0
M  V30 8781 N 1584.01 2.84626 0.97925 0
M  V30 8782 N 1583.75 3.0178 -1.31033 0
M  V30 8783 C 1583.63 2.26781 -2.43843 0
M  V30 8784 H 1580.65 4.797 -7.24003 0
M  V30 8785 H 1580.38 3.69856 -5.84513 0
M  V30 8786 H 1581.25 6.10356 -5.41441 0
M  V30 8787 H 1583.9 4.79061 -3.27488 0
M  V30 8788 H 1584.18 3.64906 -6.05785 0
M  V30 8789 H 1585.17 4.8868 -5.2125 0
M  V30 8790 H 1583.34 5.66726 -7.06352 0
M  V30 8791 H 1583.29 1.71169 -5.60966 0
M  V30 8792 H 1583.97 0.419134 0.644739 0
M  V30 8793 H 1584.01 3.87332 1.06098 0
M  V30 8794 H 1584.11 2.26417 1.82483 0
M  V30 8795 P 1585.21 7.20834 -5.23717 0
M  V30 8796 O 1585.43 8.66104 -5.38572 0
M  V30 8797 O 1586 6.33544 -6.1349 0
M  V30 8798 O 1585.46 6.7751 -3.72168 0
M  V30 8799 C 1584.52 7.20825 -2.7076 0
M  V30 8800 C 1585.25 7.45864 -1.40599 0
M  V30 8801 O 1585.46 6.17651 -0.734225 0
M  V30 8802 C 1586.65 8.05808 -1.51899 0
M  V30 8803 O 1587.04 8.74358 -0.335205 0
M  V30 8804 C 1587.53 6.83093 -1.70294 0
M  V30 8805 C 1586.82 5.79992 -0.836974 0
M  V30 8806 N 1586.87 4.41864 -1.38293 0
M  V30 8807 H 1584.03 8.13644 -3.0377 0
M  V30 8808 H 1583.76 6.42788 -2.55485 0
M  V30 8809 H 1584.63 8.12039 -0.792769 0
M  V30 8810 P 1588.59 8.91 -2.95149e-12 0
M  V30 8811 O 1588.81 10.1726 0.733694 0
M  V30 8812 O 1589.38 8.73148 -1.23936 0
M  V30 8813 O 1588.84 7.66872 0.971405 0
M  V30 8814 C 1587.9 7.42309 2.04641 0
M  V30 8815 C 1588.63 6.86059 3.24661 0
M  V30 8816 O 1588.84 5.42847 3.03646 0
M  V30 8817 C 1590.03 7.41196 3.50753 0
M  V30 8818 O 1590.42 7.27073 4.86816 0
M  V30 8819 C 1590.91 6.5273 2.63741 0
M  V30 8820 C 1590.2 5.1842 2.73198 0
M  V30 8821 N 1590.25 4.38762 1.4784 0
M  V30 8822 H 1587.41 8.36803 2.32493 0
M  V30 8823 H 1587.14 6.70197 1.71129 0
M  V30 8824 H 1588.01 7.03551 4.13168 0
M  V30 8825 P 1591.97 7.20834 5.23717 0
M  V30 8826 O 1592.19 7.79853 6.57286 0
M  V30 8827 O 1592.76 7.79239 4.12957 0
M  V30 8828 O 1592.22 5.63315 5.29344 0
M  V30 8829 C 1591.28 4.80255 6.01876 0
M  V30 8830 C 1592.01 3.64202 6.65911 0
M  V30 8831 O 1592.22 2.60694 5.64732 0
M  V30 8832 C 1593.41 3.93473 7.1943 0
M  V30 8833 O 1593.8 3.02071 8.21205 0
M  V30 8834 C 1594.29 3.73047 5.97036 0
M  V30 8835 C 1593.58 2.58828 5.25741 0
M  V30 8836 N 1593.63 2.68068 3.77503 0
M  V30 8837 H 1590.79 5.40332 6.79951 0
M  V30 8838 H 1590.52 4.41613 5.32378 0
M  V30 8839 H 1591.39 3.26331 7.47797 0
M  V30 8840 P 1595.35 2.75334 8.47391 0
M  V30 8841 O 1595.57 2.44595 9.90239 0
M  V30 8842 O 1596.14 3.87732 7.92204 0
M  V30 8843 O 1595.6 1.4459 7.59357 0
M  V30 8844 C 1594.66 0.347563 7.69115 0
M  V30 8845 C 1595.39 -0.96767 7.52806 0
M  V30 8846 O 1595.6 -1.21036 6.1011 0
M  V30 8847 C 1596.79 -1.04544 8.13308 0
M  V30 8848 O 1597.18 -2.38311 8.41922 0
M  V30 8849 C 1597.67 -0.491279 7.02284 0
M  V30 8850 C 1596.96 -0.996264 5.77469 0
M  V30 8851 N 1597.01 -0.0501808 4.62873 0
M  V30 8852 C 1597.16 -0.588177 3.36904 0
M  V30 8853 O 1597.25 -1.78598 3.17173 0
M  V30 8854 N 1597.2 0.329694 2.33686 0
M  V30 8855 C 1597.11 1.6953 2.45079 0
M  V30 8856 O 1597.16 2.41926 1.44899 0
M  V30 8857 C 1596.96 2.16933 3.80505 0
M  V30 8858 C 1596.85 3.65373 3.97621 0
M  V30 8859 C 1596.91 1.30326 4.83752 0
M  V30 8860 H 1594.17 0.374722 8.67691 0
M  V30 8861 H 1593.9 0.443421 6.90177 0
M  V30 8862 H 1594.77 -1.75537 7.96793 0
M  V30 8863 H 1597.42 -1.94496 5.46629 0
M  V30 8864 H 1597.7 0.608651 7.04676 0
M  V30 8865 H 1598.69 -0.889672 7.08939 0
M  V30 8866 H 1596.86 -0.43308 9.04564 0
M  V30 8867 H 1596.79 1.68366 5.8516 0
M  V30 8868 H 1597.82 4.05985 4.30448 0
M  V30 8869 H 1596.08 3.88028 4.72875 0
M  V30 8870 H 1596.57 4.11381 3.01609 0
M  V30 8871 H 1597.31 -0.0393617 1.41345 0
M  V30 8872 P 1598.73 -2.75334 8.47391 0
M  V30 8873 O 1598.95 -3.84128 9.44797 0
M  V30 8874 O 1599.52 -1.51947 8.68712 0
M  V30 8875 O 1598.98 -3.29363 6.99321 0
M  V30 8876 C 1598.04 -4.24011 6.4274 0
M  V30 8877 C 1598.77 -5.20775 5.52155 0
M  V30 8878 O 1598.98 -4.56534 4.22446 0
M  V30 8879 C 1600.17 -5.62629 5.96531 0
M  V30 8880 O 1600.56 -6.87667 5.41053 0
M  V30 8881 C 1601.05 -4.52537 5.39283 0
M  V30 8882 C 1600.34 -4.20027 4.08623 0
M  V30 8883 N 1600.39 -2.76189 3.71603 0
M  V30 8884 H 1597.55 -4.797 7.24003 0
M  V30 8885 H 1597.28 -3.69856 5.84513 0
M  V30 8886 H 1598.15 -6.10356 5.41441 0
M  V30 8887 P 1602.11 -7.20834 5.23717 0
M  V30 8888 O 1602.33 -8.66104 5.38572 0
M  V30 8889 O 1602.9 -6.33544 6.1349 0
M  V30 8890 O 1602.36 -6.7751 3.72168 0
M  V30 8891 C 1601.42 -7.20825 2.7076 0
M  V30 8892 C 1602.15 -7.45864 1.40599 0
M  V30 8893 O 1602.36 -6.17651 0.734225 0
M  V30 8894 C 1603.55 -8.05808 1.51899 0
M  V30 8895 O 1603.94 -8.74358 0.335205 0
M  V30 8896 C 1604.43 -6.83093 1.70294 0
M  V30 8897 C 1603.72 -5.79992 0.836974 0
M  V30 8898 N 1603.77 -4.41864 1.38293 0
M  V30 8899 H 1600.93 -8.13644 3.0377 0
M  V30 8900 H 1600.66 -6.42788 2.55485 0
M  V30 8901 H 1601.53 -8.12039 0.792769 0
M  V30 8902 P 1605.49 -8.91 4.0605e-12 0
M  V30 8903 O 1605.71 -10.1736 -0.733766 0
M  V30 8904 O 1606.28 -8.73247 1.2395 0
M  V30 8905 O 1605.74 -7.66872 -0.971405 0
M  V30 8906 C 1604.8 -7.42212 -2.04614 0
M  V30 8907 C 1605.53 -6.86059 -3.24661 0
M  V30 8908 O 1605.74 -5.42847 -3.03646 0
M  V30 8909 C 1606.93 -7.41196 -3.50753 0
M  V30 8910 O 1607.32 -7.27073 -4.86816 0
M  V30 8911 C 1607.81 -6.5273 -2.63741 0
M  V30 8912 C 1607.1 -5.1842 -2.73198 0
M  V30 8913 N 1607.15 -4.38668 -1.47808 0
M  V30 8914 C 1607.3 -3.02239 -1.60048 0
M  V30 8915 O 1607.39 -2.46459 -2.67869 0
M  V30 8916 N 1607.34 -2.32436 -0.408571 0
M  V30 8917 C 1607.25 -2.85471 0.854993 0
M  V30 8918 O 1607.3 -2.12566 1.8531 0
M  V30 8919 C 1607.1 -4.28918 0.887335 0
M  V30 8920 C 1606.99 -4.91066 2.24619 0
M  V30 8921 C 1607.05 -5.00349 -0.255399 0
M  V30 8922 H 1604.31 -8.36803 -2.32493 0
M  V30 8923 H 1604.04 -6.701 -1.71105 0
M  V30 8924 H 1604.91 -7.03551 -4.13168 0
M  V30 8925 H 1607.56 -4.59773 -3.53894 0
M  V30 8926 H 1607.84 -6.88995 -1.59871 0
M  V30 8927 H 1608.83 -6.46749 -3.03687 0
M  V30 8928 H 1607 -8.46908 -3.20714 0
M  V30 8929 H 1606.93 -6.08548 -0.206986 0
M  V30 8930 H 1607.96 -5.34836 2.53099 0
M  V30 8931 H 1606.22 -5.69638 2.2291 0
M  V30 8932 H 1606.71 -4.13971 2.98044 0
M  V30 8933 H 1607.45 -1.33211 -0.474216 0
M  V30 8934 P 1608.87 -7.20834 -5.23717 0
M  V30 8935 O 1609.09 -7.79853 -6.57286 0
M  V30 8936 O 1609.66 -7.79239 -4.12957 0
M  V30 8937 O 1609.12 -5.63315 -5.29344 0
M  V30 8938 C 1608.18 -4.80255 -6.01876 0
M  V30 8939 C 1608.91 -3.64202 -6.65911 0
M  V30 8940 O 1609.12 -2.60694 -5.64732 0
M  V30 8941 C 1610.31 -3.93473 -7.1943 0
M  V30 8942 O 1610.7 -3.02071 -8.21205 0
M  V30 8943 C 1611.19 -3.73047 -5.97036 0
M  V30 8944 C 1610.48 -2.58828 -5.25741 0
M  V30 8945 N 1610.53 -2.68068 -3.77503 0
M  V30 8946 H 1607.69 -5.40332 -6.79951 0
M  V30 8947 H 1607.42 -4.41613 -5.32378 0
M  V30 8948 H 1608.29 -3.26331 -7.47797 0
M  V30 8949 P 1612.25 -2.75334 -8.47391 0
M  V30 8950 O 1612.47 -2.44571 -9.90142 0
M  V30 8951 O 1613.04 -3.87688 -7.92115 0
M  V30 8952 O 1612.5 -1.4459 -7.59357 0
M  V30 8953 C 1611.56 -0.347608 -7.69215 0
M  V30 8954 C 1612.29 0.96767 -7.52806 0
M  V30 8955 O 1612.5 1.21036 -6.1011 0
M  V30 8956 C 1613.69 1.04544 -8.13308 0
M  V30 8957 O 1614.08 2.38311 -8.41922 0
M  V30 8958 C 1614.57 0.491279 -7.02284 0
M  V30 8959 C 1613.86 0.996264 -5.77469 0
M  V30 8960 N 1613.91 0.0501916 -4.62973 0
M  V30 8961 H 1611.07 -0.374722 -8.67691 0
M  V30 8962 H 1610.8 -0.443485 -6.90277 0
M  V30 8963 H 1611.67 1.75537 -7.96793 0
M  V30 8964 P 1615.63 2.75334 -8.47391 0
M  V30 8965 O 1615.85 3.84128 -9.44797 0
M  V30 8966 O 1616.42 1.51947 -8.68712 0
M  V30 8967 O 1615.88 3.29363 -6.99321 0
M  V30 8968 C 1614.94 4.24011 -6.4274 0
M  V30 8969 C 1615.67 5.20775 -5.52155 0
M  V30 8970 O 1615.88 4.56534 -4.22446 0
M  V30 8971 C 1617.07 5.62629 -5.96531 0
M  V30 8972 O 1617.46 6.87667 -5.41053 0
M  V30 8973 C 1617.95 4.52537 -5.39283 0
M  V30 8974 C 1617.24 4.20027 -4.08623 0
M  V30 8975 N 1617.29 2.76189 -3.71603 0
M  V30 8976 H 1614.45 4.797 -7.24003 0
M  V30 8977 H 1614.18 3.69856 -5.84513 0
M  V30 8978 H 1615.05 6.10356 -5.41441 0
M  V30 8979 P 1619.01 7.20834 -5.23717 0
M  V30 8980 O 1619.23 8.66104 -5.38572 0
M  V30 8981 O 1619.8 6.33544 -6.1349 0
M  V30 8982 O 1619.26 6.7751 -3.72168 0
M  V30 8983 C 1618.32 7.20825 -2.7076 0
M  V30 8984 C 1619.05 7.45864 -1.40599 0
M  V30 8985 O 1619.26 6.17651 -0.734225 0
M  V30 8986 C 1620.45 8.05808 -1.51899 0
M  V30 8987 O 1620.84 8.74358 -0.335205 0
M  V30 8988 C 1621.33 6.83093 -1.70294 0
M  V30 8989 C 1620.62 5.79992 -0.836974 0
M  V30 8990 N 1620.67 4.41864 -1.38293 0
M  V30 8991 H 1617.83 8.13644 -3.0377 0
M  V30 8992 H 1617.56 6.42788 -2.55485 0
M  V30 8993 H 1618.43 8.12039 -0.792769 0
M  V30 8994 P 1622.39 8.91 -5.1695e-12 0
M  V30 8995 O 1622.61 10.1726 0.733694 0
M  V30 8996 O 1623.18 8.73148 -1.23936 0
M  V30 8997 O 1622.64 7.66872 0.971405 0
M  V30 8998 C 1621.7 7.42309 2.04641 0
M  V30 8999 C 1622.43 6.86059 3.24661 0
M  V30 9000 O 1622.64 5.42847 3.03646 0
M  V30 9001 C 1623.83 7.41196 3.50753 0
M  V30 9002 O 1624.22 7.27073 4.86816 0
M  V30 9003 C 1624.71 6.5273 2.63741 0
M  V30 9004 C 1624 5.1842 2.73198 0
M  V30 9005 N 1624.05 4.38762 1.4784 0
M  V30 9006 H 1621.21 8.36803 2.32493 0
M  V30 9007 H 1620.94 6.70197 1.71129 0
M  V30 9008 H 1621.81 7.03551 4.13168 0
M  V30 9009 P 1625.77 7.20834 5.23717 0
M  V30 9010 O 1625.99 7.79853 6.57286 0
M  V30 9011 O 1626.56 7.79239 4.12957 0
M  V30 9012 O 1626.02 5.63315 5.29344 0
M  V30 9013 C 1625.08 4.80255 6.01876 0
M  V30 9014 C 1625.81 3.64202 6.65911 0
M  V30 9015 O 1626.02 2.60694 5.64732 0
M  V30 9016 C 1627.21 3.93473 7.1943 0
M  V30 9017 O 1627.6 3.02071 8.21205 0
M  V30 9018 C 1628.09 3.73047 5.97036 0
M  V30 9019 C 1627.38 2.58828 5.25741 0
M  V30 9020 N 1627.43 2.68068 3.77503 0
M  V30 9021 C 1627.35 3.79715 2.96723 0
M  V30 9022 N 1627.43 3.5377 1.68852 0
M  V30 9023 C 1627.57 2.15054 1.63254 0
M  V30 9024 C 1627.7 1.28964 0.518571 0
M  V30 9025 N 1627.82 -0.0538097 0.918425 0
M  V30 9026 C 1627.82 -0.494275 2.22578 0
M  V30 9027 N 1627.95 -1.81086 2.40434 0
M  V30 9028 N 1627.69 0.313645 3.27502 0
M  V30 9029 C 1627.57 1.61829 2.91033 0
M  V30 9030 H 1624.59 5.40332 6.79951 0
M  V30 9031 H 1624.32 4.41613 5.32378 0
M  V30 9032 H 1625.19 3.26331 7.47797 0
M  V30 9033 P 1629.15 2.75334 8.47391 0
M  V30 9034 O 1629.37 2.44571 9.90142 0
M  V30 9035 O 1629.94 3.87688 7.92115 0
M  V30 9036 O 1629.4 1.4459 7.59357 0
M  V30 9037 C 1628.46 0.347608 7.69215 0
M  V30 9038 C 1629.19 -0.96767 7.52806 0
M  V30 9039 O 1629.4 -1.21036 6.1011 0
M  V30 9040 C 1630.59 -1.04544 8.13308 0
M  V30 9041 O 1630.98 -2.38311 8.41922 0
M  V30 9042 C 1631.47 -0.491279 7.02284 0
M  V30 9043 C 1630.76 -0.996264 5.77469 0
M  V30 9044 N 1630.81 -0.0501916 4.62973 0
M  V30 9045 H 1627.97 0.374722 8.67691 0
M  V30 9046 H 1627.7 0.443485 6.90277 0
M  V30 9047 H 1628.57 -1.75537 7.96793 0
M  V30 9048 P 1632.53 -2.75334 8.47391 0
M  V30 9049 O 1632.75 -3.84128 9.44797 0
M  V30 9050 O 1633.32 -1.51947 8.68712 0
M  V30 9051 O 1632.78 -3.29363 6.99321 0
M  V30 9052 C 1631.84 -4.24011 6.4274 0
M  V30 9053 C 1632.57 -5.20775 5.52155 0
M  V30 9054 O 1632.78 -4.56534 4.22446 0
M  V30 9055 C 1633.97 -5.62629 5.96531 0
M  V30 9056 O 1634.36 -6.87667 5.41053 0
M  V30 9057 C 1634.85 -4.52537 5.39283 0
M  V30 9058 C 1634.14 -4.20027 4.08623 0
M  V30 9059 N 1634.19 -2.76189 3.71603 0
M  V30 9060 H 1631.35 -4.797 7.24003 0
M  V30 9061 H 1631.08 -3.69856 5.84513 0
M  V30 9062 H 1631.95 -6.10356 5.41441 0
M  V30 9063 P 1635.91 -7.20834 5.23717 0
M  V30 9064 O 1636.13 -8.66274 5.38678 0
M  V30 9065 O 1636.7 -6.33687 6.13629 0
M  V30 9066 O 1636.16 -6.7751 3.72168 0
M  V30 9067 C 1635.22 -7.20919 2.70795 0
M  V30 9068 C 1635.95 -7.45864 1.40599 0
M  V30 9069 O 1636.16 -6.17751 0.734343 0
M  V30 9070 C 1637.35 -8.05906 1.51917 0
M  V30 9071 O 1637.74 -8.74358 0.335205 0
M  V30 9072 C 1638.23 -6.83093 1.70294 0
M  V30 9073 C 1637.52 -5.79992 0.836974 0
M  V30 9074 N 1637.57 -4.41864 1.38293 0
M  V30 9075 H 1634.73 -8.13738 3.03804 0
M  V30 9076 H 1634.46 -6.42974 2.55559 0
M  V30 9077 H 1635.33 -8.12139 0.792866 0
M  V30 9078 H 1637.98 -5.80178 -0.160643 0
M  V30 9079 H 1638.26 -6.51379 2.75643 0
M  V30 9080 H 1639.25 -7.01832 1.3448 0
M  V30 9081 H 1637.42 -8.73771 2.38364 0
M  V30 9082 P 1639.29 -8.91 6.2785e-12 0
M  V30 9083 O 1639.51 -10.1726 -0.733694 0
M  V30 9084 O 1640.08 -8.73148 1.23936 0
M  V30 9085 O 1639.54 -7.66872 -0.971405 0
M  V30 9086 C 1638.6 -7.42309 -2.04641 0
M  V30 9087 C 1639.33 -6.86059 -3.24661 0
M  V30 9088 O 1639.54 -5.42847 -3.03646 0
M  V30 9089 C 1640.73 -7.41196 -3.50753 0
M  V30 9090 O 1641.12 -7.27073 -4.86816 0
M  V30 9091 C 1641.61 -6.5273 -2.63741 0
M  V30 9092 C 1640.9 -5.1842 -2.73198 0
M  V30 9093 N 1640.95 -4.38762 -1.4784 0
M  V30 9094 H 1638.11 -8.36803 -2.32493 0
M  V30 9095 H 1637.84 -6.70197 -1.71129 0
M  V30 9096 H 1638.71 -7.03551 -4.13168 0
M  V30 9097 P 1642.67 -7.20834 -5.23717 0
M  V30 9098 O 1642.89 -7.79853 -6.57286 0
M  V30 9099 O 1643.46 -7.79239 -4.12957 0
M  V30 9100 O 1642.92 -5.63315 -5.29344 0
M  V30 9101 C 1641.98 -4.80255 -6.01876 0
M  V30 9102 C 1642.71 -3.64202 -6.65911 0
M  V30 9103 O 1642.92 -2.60694 -5.64732 0
M  V30 9104 C 1644.11 -3.93473 -7.1943 0
M  V30 9105 O 1644.5 -3.02071 -8.21205 0
M  V30 9106 C 1644.99 -3.73047 -5.97036 0
M  V30 9107 C 1644.28 -2.58828 -5.25741 0
M  V30 9108 N 1644.33 -2.68068 -3.77503 0
M  V30 9109 C 1644.25 -3.79715 -2.96723 0
M  V30 9110 N 1644.33 -3.5377 -1.68852 0
M  V30 9111 C 1644.47 -2.15054 -1.63254 0
M  V30 9112 C 1644.6 -1.28964 -0.518571 0
M  V30 9113 O 1644.62 -1.56826 0.679156 0
M  V30 9114 N 1644.72 0.0538097 -0.918425 0
M  V30 9115 C 1644.72 0.494275 -2.22578 0
M  V30 9116 N 1644.85 1.81086 -2.40434 0
M  V30 9117 N 1644.59 -0.313645 -3.27502 0
M  V30 9118 C 1644.47 -1.61829 -2.91033 0
M  V30 9119 H 1641.49 -5.40332 -6.79951 0
M  V30 9120 H 1641.22 -4.41613 -5.32378 0
M  V30 9121 H 1642.09 -3.26331 -7.47797 0
M  V30 9122 H 1644.74 -1.63422 -5.56814 0
M  V30 9123 H 1645.02 -4.63374 -5.34244 0
M  V30 9124 H 1646.01 -3.44728 -6.25838 0
M  V30 9125 H 1644.18 -4.96652 -7.57263 0
M  V30 9126 H 1644.13 -4.80617 -3.3614 0
M  V30 9127 H 1644.81 0.742702 -0.199384 0
M  V30 9128 H 1644.85 2.20598 -3.35588 0
M  V30 9129 H 1644.95 2.43518 -1.58945 0
M  V30 9130 P 1646.05 -2.75334 -8.47391 0
M  V30 9131 O 1646.27 -2.44595 -9.90239 0
M  V30 9132 O 1646.84 -3.87732 -7.92204 0
M  V30 9133 O 1646.3 -1.4459 -7.59357 0
M  V30 9134 C 1645.36 -0.347563 -7.69115 0
M  V30 9135 C 1646.09 0.96767 -7.52806 0
M  V30 9136 O 1646.3 1.21036 -6.1011 0
M  V30 9137 C 1647.49 1.04544 -8.13308 0
M  V30 9138 O 1647.88 2.38311 -8.41922 0
M  V30 9139 C 1648.37 0.491279 -7.02284 0
M  V30 9140 C 1647.66 0.996264 -5.77469 0
M  V30 9141 N 1647.71 0.0501808 -4.62873 0
M  V30 9142 C 1647.86 0.588177 -3.36904 0
M  V30 9143 O 1647.95 1.78598 -3.17173 0
M  V30 9144 N 1647.9 -0.329694 -2.33686 0
M  V30 9145 C 1647.81 -1.6953 -2.45079 0
M  V30 9146 C 1647.66 -2.16933 -3.80505 0
M  V30 9147 C 1647.61 -1.30326 -4.83752 0
M  V30 9148 H 1644.87 -0.374722 -8.67691 0
M  V30 9149 H 1644.6 -0.443421 -6.90177 0
M  V30 9150 H 1645.47 1.75537 -7.96793 0
M  V30 9151 H 1648.12 1.94496 -5.46629 0
M  V30 9152 H 1648.4 -0.608651 -7.04676 0
M  V30 9153 H 1649.39 0.889672 -7.08939 0
M  V30 9154 H 1647.56 0.43308 -9.04564 0
M  V30 9155 H 1647.49 -1.68366 -5.8516 0
M  V30 9156 P 1649.43 2.75334 -8.47391 0
M  V30 9157 O 1649.65 3.84204 -9.44982 0
M  V30 9158 O 1650.22 1.51982 -8.68909 0
M  V30 9159 O 1649.68 3.29363 -6.99321 0
M  V30 9160 C 1648.74 4.24066 -6.42823 0
M  V30 9161 C 1649.47 5.20775 -5.52155 0
M  V30 9162 O 1649.68 4.56607 -4.22514 0
M  V30 9163 C 1650.87 5.62697 -5.96604 0
M  V30 9164 O 1651.26 6.87667 -5.41053 0
M  V30 9165 C 1651.75 4.52537 -5.39283 0
M  V30 9166 C 1651.04 4.20027 -4.08623 0
M  V30 9167 N 1651.09 2.76189 -3.71603 0
M  V30 9168 H 1648.25 4.79756 -7.24086 0
M  V30 9169 H 1647.98 3.69963 -5.84682 0
M  V30 9170 H 1648.85 6.10431 -5.41508 0
M  V30 9171 H 1651.5 4.78816 -3.28024 0
M  V30 9172 H 1651.78 3.64957 -6.05871 0
M  V30 9173 H 1652.77 4.88748 -5.21323 0
M  V30 9174 H 1650.94 5.66789 -7.0643 0
M  V30 9175 P 1652.81 7.20834 -5.23717 0
M  V30 9176 O 1653.03 8.66104 -5.38572 0
M  V30 9177 O 1653.6 6.33544 -6.1349 0
M  V30 9178 O 1653.06 6.7751 -3.72168 0
M  V30 9179 C 1652.12 7.20825 -2.7076 0
M  V30 9180 C 1652.85 7.45864 -1.40599 0
M  V30 9181 O 1653.06 6.17651 -0.734225 0
M  V30 9182 C 1654.25 8.05808 -1.51899 0
M  V30 9183 O 1654.64 8.74358 -0.335205 0
M  V30 9184 C 1655.13 6.83093 -1.70294 0
M  V30 9185 C 1654.42 5.79992 -0.836974 0
M  V30 9186 N 1654.47 4.41864 -1.38293 0
M  V30 9187 H 1651.63 8.13644 -3.0377 0
M  V30 9188 H 1651.36 6.42788 -2.55485 0
M  V30 9189 H 1652.23 8.12039 -0.792769 0
M  V30 9190 P 1656.19 8.91 -7.38751e-12 0
M  V30 9191 O 1656.41 10.1746 0.733838 0
M  V30 9192 O 1656.98 8.73346 -1.23964 0
M  V30 9193 O 1656.44 7.66872 0.971405 0
M  V30 9194 C 1655.5 7.42405 2.04668 0
M  V30 9195 C 1656.23 6.86059 3.24661 0
M  V30 9196 O 1656.44 5.42934 3.03695 0
M  V30 9197 C 1657.63 7.41287 3.50796 0
M  V30 9198 O 1658.02 7.27073 4.86816 0
M  V30 9199 C 1658.51 6.5273 2.63741 0
M  V30 9200 C 1657.8 5.1842 2.73198 0
M  V30 9201 N 1657.85 4.38762 1.4784 0
M  V30 9202 C 1657.77 4.83651 0.183876 0
M  V30 9203 N 1657.84 3.88759 -0.699393 0
M  V30 9204 C 1657.99 2.7404 0.0575568 0
M  V30 9205 C 1658.12 1.37902 -0.293928 0
M  V30 9206 N 1658.13 0.938021 -1.54797 0
M  V30 9207 N 1658.24 0.491817 0.70549 0
M  V30 9208 C 1658.23 0.931735 1.95979 0
M  V30 9209 N 1658.11 2.16017 2.41481 0
M  V30 9210 C 1657.99 3.02547 1.39121 0
M  V30 9211 H 1655.01 8.36899 2.3252 0
M  V30 9212 H 1654.74 6.70391 1.71179 0
M  V30 9213 H 1655.61 7.03638 4.13219 0
M  V30 9214 H 1658.26 4.59931 3.54016 0
M  V30 9215 H 1658.54 6.88995 1.59871 0
M  V30 9216 H 1659.53 6.4684 3.0373 0
M  V30 9217 H 1657.7 8.47002 3.20749 0
M  V30 9218 H 1657.66 5.8885 -0.0765548 0
M  V30 9219 H 1658.04 1.60276 -2.32875 0
M  V30 9220 H 1658.23 -0.0699355 -1.73859 0
M  V30 9221 H 1658.34 0.165507 2.71897 0
M  V30 9222 P 1659.57 7.20834 5.23717 0
M  V30 9223 O 1659.79 7.80006 6.57415 0
M  V30 9224 O 1660.36 7.79416 4.13051 0
M  V30 9225 O 1659.82 5.63315 5.29344 0
M  V30 9226 C 1658.88 4.80318 6.01954 0
M  V30 9227 C 1659.61 3.64202 6.65911 0
M  V30 9228 O 1659.82 2.60736 5.64823 0
M  V30 9229 C 1661.01 3.93521 7.19518 0
M  V30 9230 O 1661.4 3.02071 8.21205 0
M  V30 9231 C 1661.89 3.73047 5.97036 0
M  V30 9232 C 1661.18 2.58828 5.25741 0
M  V30 9233 N 1661.23 2.68068 3.77503 0
M  V30 9234 C 1661.15 3.80474 2.99159 0
M  V30 9235 N 1661.22 3.55622 1.71925 0
M  V30 9236 C 1661.37 2.1832 1.65733 0
M  V30 9237 C 1661.5 1.28842 0.572777 0
M  V30 9238 N 1661.51 1.66875 -0.70098 0
M  V30 9239 N 1661.62 -0.016788 0.859836 0
M  V30 9240 C 1661.61 -0.398145 2.13316 0
M  V30 9241 N 1661.49 0.328224 3.22333 0
M  V30 9242 C 1661.37 1.62992 2.90383 0
M  V30 9243 H 1658.39 5.40394 6.8003 0
M  V30 9244 H 1658.12 4.41741 5.32532 0
M  V30 9245 H 1658.99 3.26371 7.47889 0
M  V30 9246 H 1661.64 1.64007 5.56746 0
M  V30 9247 H 1661.92 4.63439 5.3432 0
M  V30 9248 H 1662.91 3.44776 6.25925 0
M  V30 9249 H 1661.08 4.96707 7.57347 0
M  V30 9250 H 1661.04 4.8089 3.39924 0
M  V30 9251 H 1661.42 2.66547 -0.941919 0
M  V30 9252 H 1661.61 0.965341 -1.44766 0
M  V30 9253 H 1661.72 -1.46427 2.29697 0
M  V30 9254 P 1662.95 2.75334 8.47391 0
M  V30 9255 O 1663.17 2.44571 9.90142 0
M  V30 9256 O 1663.74 3.87688 7.92115 0
M  V30 9257 O 1663.2 1.4459 7.59357 0
M  V30 9258 C 1662.26 0.347608 7.69215 0
M  V30 9259 C 1662.99 -0.96767 7.52806 0
M  V30 9260 O 1663.2 -1.21036 6.1011 0
M  V30 9261 C 1664.39 -1.04544 8.13308 0
M  V30 9262 O 1664.78 -2.38311 8.41922 0
M  V30 9263 C 1665.27 -0.491279 7.02284 0
M  V30 9264 C 1664.56 -0.996264 5.77469 0
M  V30 9265 N 1664.61 -0.0501916 4.62973 0
M  V30 9266 H 1661.77 0.374722 8.67691 0
M  V30 9267 H 1661.5 0.443485 6.90277 0
M  V30 9268 H 1662.37 -1.75537 7.96793 0
M  V30 9269 P 1666.33 -2.75334 8.47391 0
M  V30 9270 O 1666.55 -3.84128 9.44797 0
M  V30 9271 O 1667.12 -1.51947 8.68712 0
M  V30 9272 O 1666.58 -3.29363 6.99321 0
M  V30 9273 C 1665.64 -4.24011 6.4274 0
M  V30 9274 C 1666.37 -5.20775 5.52155 0
M  V30 9275 O 1666.58 -4.56534 4.22446 0
M  V30 9276 C 1667.77 -5.62629 5.96531 0
M  V30 9277 O 1668.16 -6.87667 5.41053 0
M  V30 9278 C 1668.65 -4.52537 5.39283 0
M  V30 9279 C 1667.94 -4.20027 4.08623 0
M  V30 9280 N 1667.99 -2.76189 3.71603 0
M  V30 9281 C 1667.91 -1.64862 4.52822 0
M  V30 9282 N 1667.99 -0.512671 3.88633 0
M  V30 9283 C 1668.13 -0.888083 2.54977 0
M  V30 9284 C 1668.26 -0.094668 1.38677 0
M  V30 9285 N 1668.38 -0.890102 0.232633 0
M  V30 9286 C 1668.38 -2.26958 0.21772 0
M  V30 9287 N 1668.51 -2.84626 -0.97925 0
M  V30 9288 N 1668.25 -3.0178 1.31033 0
M  V30 9289 C 1668.13 -2.26781 2.43843 0
M  V30 9290 H 1665.15 -4.797 7.24003 0
M  V30 9291 H 1664.88 -3.69856 5.84513 0
M  V30 9292 H 1665.75 -6.10356 5.41441 0
M  V30 9293 P 1669.71 -7.20834 5.23717 0
M  V30 9294 O 1669.93 -8.66104 5.38572 0
M  V30 9295 O 1670.5 -6.33544 6.1349 0
M  V30 9296 O 1669.96 -6.7751 3.72168 0
M  V30 9297 C 1669.02 -7.20825 2.7076 0
M  V30 9298 C 1669.75 -7.45864 1.40599 0
M  V30 9299 O 1669.96 -6.17651 0.734225 0
M  V30 9300 C 1671.15 -8.05808 1.51899 0
M  V30 9301 O 1671.54 -8.74358 0.335205 0
M  V30 9302 C 1672.03 -6.83093 1.70294 0
M  V30 9303 C 1671.32 -5.79992 0.836974 0
M  V30 9304 N 1671.37 -4.41864 1.38293 0
M  V30 9305 H 1668.53 -8.13644 3.0377 0
M  V30 9306 H 1668.26 -6.42788 2.55485 0
M  V30 9307 H 1669.13 -8.12039 0.792769 0
M  V30 9308 P 1673.09 -8.91 8.49651e-12 0
M  V30 9309 O 1673.31 -10.1726 -0.733694 0
M  V30 9310 O 1673.88 -8.73148 1.23936 0
M  V30 9311 O 1673.34 -7.66872 -0.971405 0
M  V30 9312 C 1672.4 -7.42309 -2.04641 0
M  V30 9313 C 1673.13 -6.86059 -3.24661 0
M  V30 9314 O 1673.34 -5.42847 -3.03646 0
M  V30 9315 C 1674.53 -7.41196 -3.50753 0
M  V30 9316 O 1674.92 -7.27073 -4.86816 0
M  V30 9317 C 1675.41 -6.5273 -2.63741 0
M  V30 9318 C 1674.7 -5.1842 -2.73198 0
M  V30 9319 N 1674.75 -4.38762 -1.4784 0
M  V30 9320 C 1674.67 -4.81605 -0.168631 0
M  V30 9321 N 1674.75 -3.85454 0.713363 0
M  V30 9322 C 1674.89 -2.6994 -0.0566958 0
M  V30 9323 C 1675.02 -1.34815 0.338502 0
M  V30 9324 O 1675.04 -0.869548 1.47125 0
M  V30 9325 N 1675.14 -0.496304 -0.77465 0
M  V30 9326 C 1675.14 -0.908403 -2.09122 0
M  V30 9327 N 1675.27 0.0517805 -3.00955 0
M  V30 9328 N 1675.01 -2.17875 -2.46519 0
M  V30 9329 C 1674.89 -3.01988 -1.4033 0
M  V30 9330 H 1671.91 -8.36803 -2.32493 0
M  V30 9331 H 1671.64 -6.70197 -1.71129 0
M  V30 9332 H 1672.51 -7.03551 -4.13168 0
M  V30 9333 H 1675.16 -4.59498 -3.54415 0
M  V30 9334 H 1675.44 -6.88898 -1.59848 0
M  V30 9335 H 1676.43 -6.46749 -3.03687 0
M  V30 9336 H 1674.6 -8.46908 -3.20714 0
M  V30 9337 H 1674.55 -5.86405 0.105564 0
M  V30 9338 H 1675.23 0.483664 -0.597855 0
M  V30 9339 H 1675.27 -0.187865 -4.0116 0
M  V30 9340 H 1675.37 1.03585 -2.71726 0
M  V30 9341 P 1676.47 -7.20834 -5.23717 0
M  V30 9342 O 1676.69 -7.79853 -6.57286 0
M  V30 9343 O 1677.26 -7.79239 -4.12957 0
M  V30 9344 O 1676.72 -5.63315 -5.29344 0
M  V30 9345 C 1675.78 -4.80255 -6.01876 0
M  V30 9346 C 1676.51 -3.64202 -6.65911 0
M  V30 9347 O 1676.72 -2.60694 -5.64732 0
M  V30 9348 C 1677.91 -3.93473 -7.1943 0
M  V30 9349 O 1678.3 -3.02071 -8.21205 0
M  V30 9350 C 1678.79 -3.73047 -5.97036 0
M  V30 9351 C 1678.08 -2.58828 -5.25741 0
M  V30 9352 N 1678.13 -2.68068 -3.77503 0
M  V30 9353 H 1675.29 -5.40332 -6.79951 0
M  V30 9354 H 1675.02 -4.41613 -5.32378 0
M  V30 9355 H 1675.89 -3.26331 -7.47797 0
M  V30 9356 P 1679.85 -2.75334 -8.47391 0
M  V30 9357 O 1680.07 -2.44571 -9.90142 0
M  V30 9358 O 1680.64 -3.87688 -7.92115 0
M  V30 9359 O 1680.1 -1.4459 -7.59357 0
M  V30 9360 C 1679.16 -0.347608 -7.69215 0
M  V30 9361 C 1679.89 0.96767 -7.52806 0
M  V30 9362 O 1680.1 1.21036 -6.1011 0
M  V30 9363 C 1681.29 1.04544 -8.13308 0
M  V30 9364 O 1681.68 2.38311 -8.41922 0
M  V30 9365 C 1682.17 0.491279 -7.02284 0
M  V30 9366 C 1681.46 0.996264 -5.77469 0
M  V30 9367 N 1681.51 0.0501916 -4.62973 0
M  V30 9368 H 1678.67 -0.374722 -8.67691 0
M  V30 9369 H 1678.4 -0.443485 -6.90277 0
M  V30 9370 H 1679.27 1.75537 -7.96793 0
M  V30 9371 P 1683.23 2.75334 -8.47391 0
M  V30 9372 O 1683.45 3.84128 -9.44797 0
M  V30 9373 O 1684.02 1.51947 -8.68712 0
M  V30 9374 O 1683.48 3.29363 -6.99321 0
M  V30 9375 C 1682.54 4.24011 -6.4274 0
M  V30 9376 C 1683.27 5.20775 -5.52155 0
M  V30 9377 O 1683.48 4.56534 -4.22446 0
M  V30 9378 C 1684.67 5.62629 -5.96531 0
M  V30 9379 O 1685.06 6.87667 -5.41053 0
M  V30 9380 C 1685.55 4.52537 -5.39283 0
M  V30 9381 C 1684.84 4.20027 -4.08623 0
M  V30 9382 N 1684.89 2.76189 -3.71603 0
M  V30 9383 H 1682.05 4.797 -7.24003 0
M  V30 9384 H 1681.78 3.69856 -5.84513 0
M  V30 9385 H 1682.65 6.10356 -5.41441 0
M  V30 9386 P 1686.61 7.20834 -5.23717 0
M  V30 9387 O 1686.83 8.66104 -5.38572 0
M  V30 9388 O 1687.4 6.33544 -6.1349 0
M  V30 9389 O 1686.86 6.7751 -3.72168 0
M  V30 9390 C 1685.92 7.20825 -2.7076 0
M  V30 9391 C 1686.65 7.45864 -1.40599 0
M  V30 9392 O 1686.86 6.17651 -0.734225 0
M  V30 9393 C 1688.05 8.05808 -1.51899 0
M  V30 9394 O 1688.44 8.74358 -0.335205 0
M  V30 9395 C 1688.93 6.83093 -1.70294 0
M  V30 9396 C 1688.22 5.79992 -0.836974 0
M  V30 9397 N 1688.27 4.41864 -1.38293 0
M  V30 9398 H 1685.43 8.13644 -3.0377 0
M  V30 9399 H 1685.16 6.42788 -2.55485 0
M  V30 9400 H 1686.03 8.12039 -0.792769 0
M  V30 9401 P 1689.99 8.91 -9.60552e-12 0
M  V30 9402 O 1690.21 10.1726 0.733694 0
M  V30 9403 O 1690.78 8.73148 -1.23936 0
M  V30 9404 O 1690.24 7.66872 0.971405 0
M  V30 9405 C 1689.3 7.42309 2.04641 0
M  V30 9406 C 1690.03 6.86059 3.24661 0
M  V30 9407 O 1690.24 5.42847 3.03646 0
M  V30 9408 C 1691.43 7.41196 3.50753 0
M  V30 9409 O 1691.82 7.27073 4.86816 0
M  V30 9410 C 1692.31 6.5273 2.63741 0
M  V30 9411 C 1691.6 5.1842 2.73198 0
M  V30 9412 N 1691.65 4.38762 1.4784 0
M  V30 9413 H 1688.81 8.36803 2.32493 0
M  V30 9414 H 1688.54 6.70197 1.71129 0
M  V30 9415 H 1689.41 7.03551 4.13168 0
M  V30 9416 P 1693.37 7.20834 5.23717 0
M  V30 9417 O 1693.59 7.80006 6.57415 0
M  V30 9418 O 1694.16 7.79416 4.13051 0
M  V30 9419 O 1693.62 5.63315 5.29344 0
M  V30 9420 C 1692.68 4.80318 6.01954 0
M  V30 9421 C 1693.41 3.64202 6.65911 0
M  V30 9422 O 1693.62 2.60736 5.64823 0
M  V30 9423 C 1694.81 3.93521 7.19518 0
M  V30 9424 O 1695.2 3.02071 8.21205 0
M  V30 9425 C 1695.69 3.73047 5.97036 0
M  V30 9426 C 1694.98 2.58828 5.25741 0
M  V30 9427 N 1695.03 2.68068 3.77503 0
M  V30 9428 C 1694.95 3.80474 2.99159 0
M  V30 9429 N 1695.02 3.55622 1.71925 0
M  V30 9430 C 1695.17 2.1832 1.65733 0
M  V30 9431 C 1695.3 1.28842 0.572777 0
M  V30 9432 N 1695.31 1.66875 -0.70098 0
M  V30 9433 N 1695.42 -0.016788 0.859836 0
M  V30 9434 C 1695.41 -0.398145 2.13316 0
M  V30 9435 N 1695.29 0.328224 3.22333 0
M  V30 9436 C 1695.17 1.62992 2.90383 0
M  V30 9437 H 1692.19 5.40394 6.8003 0
M  V30 9438 H 1691.92 4.41741 5.32532 0
M  V30 9439 H 1692.79 3.26371 7.47889 0
M  V30 9440 H 1695.44 1.64007 5.56746 0
M  V30 9441 H 1695.72 4.63439 5.3432 0
M  V30 9442 H 1696.71 3.44776 6.25925 0
M  V30 9443 H 1694.88 4.96707 7.57347 0
M  V30 9444 H 1694.84 4.8089 3.39924 0
M  V30 9445 H 1695.22 2.66547 -0.941919 0
M  V30 9446 H 1695.41 0.965341 -1.44766 0
M  V30 9447 H 1695.52 -1.46427 2.29697 0
M  V30 9448 P 1696.75 2.75334 8.47391 0
M  V30 9449 O 1696.97 2.44571 9.90142 0
M  V30 9450 O 1697.54 3.87688 7.92115 0
M  V30 9451 O 1697 1.4459 7.59357 0
M  V30 9452 C 1696.06 0.347608 7.69215 0
M  V30 9453 C 1696.79 -0.96767 7.52806 0
M  V30 9454 O 1697 -1.21036 6.1011 0
M  V30 9455 C 1698.19 -1.04544 8.13308 0
M  V30 9456 O 1698.58 -2.38311 8.41922 0
M  V30 9457 C 1699.07 -0.491279 7.02284 0
M  V30 9458 C 1698.36 -0.996264 5.77469 0
M  V30 9459 N 1698.41 -0.0501916 4.62973 0
M  V30 9460 H 1695.57 0.374722 8.67691 0
M  V30 9461 H 1695.3 0.443485 6.90277 0
M  V30 9462 H 1696.17 -1.75537 7.96793 0
M  V30 9463 P 1700.13 -2.75334 8.47391 0
M  V30 9464 O 1700.35 -3.84204 9.44982 0
M  V30 9465 O 1700.92 -1.51982 8.68909 0
M  V30 9466 O 1700.38 -3.29363 6.99321 0
M  V30 9467 C 1699.44 -4.24066 6.42823 0
M  V30 9468 C 1700.17 -5.20775 5.52155 0
M  V30 9469 O 1700.38 -4.56607 4.22514 0
M  V30 9470 C 1701.57 -5.62697 5.96604 0
M  V30 9471 O 1701.96 -6.87667 5.41053 0
M  V30 9472 C 1702.45 -4.52537 5.39283 0
M  V30 9473 C 1701.74 -4.20027 4.08623 0
M  V30 9474 N 1701.79 -2.76189 3.71603 0
M  V30 9475 H 1698.95 -4.79756 7.24086 0
M  V30 9476 H 1698.68 -3.69963 5.84682 0
M  V30 9477 H 1699.55 -6.10431 5.41508 0
M  V30 9478 H 1702.2 -4.78816 3.28024 0
M  V30 9479 H 1702.48 -3.64957 6.05871 0
M  V30 9480 H 1703.47 -4.88748 5.21323 0
M  V30 9481 H 1701.64 -5.66789 7.0643 0
M  V30 9482 P 1703.51 -7.20834 5.23717 0
M  V30 9483 O 1703.73 -8.66104 5.38572 0
M  V30 9484 O 1704.3 -6.33544 6.1349 0
M  V30 9485 O 1703.76 -6.7751 3.72168 0
M  V30 9486 C 1702.82 -7.20825 2.7076 0
M  V30 9487 C 1703.55 -7.45864 1.40599 0
M  V30 9488 O 1703.76 -6.17651 0.734225 0
M  V30 9489 C 1704.95 -8.05808 1.51899 0
M  V30 9490 O 1705.34 -8.74358 0.335205 0
M  V30 9491 C 1705.83 -6.83093 1.70294 0
M  V30 9492 C 1705.12 -5.79992 0.836974 0
M  V30 9493 N 1705.17 -4.41864 1.38293 0
M  V30 9494 H 1702.33 -8.13644 3.0377 0
M  V30 9495 H 1702.06 -6.42788 2.55485 0
M  V30 9496 H 1702.93 -8.12039 0.792769 0
M  V30 9497 P 1706.89 -8.91 1.07145e-11 0
M  V30 9498 O 1707.11 -10.1726 -0.733694 0
M  V30 9499 O 1707.68 -8.73148 1.23936 0
M  V30 9500 O 1707.14 -7.66872 -0.971405 0
M  V30 9501 C 1706.2 -7.42309 -2.04641 0
M  V30 9502 C 1706.93 -6.86059 -3.24661 0
M  V30 9503 O 1707.14 -5.42847 -3.03646 0
M  V30 9504 C 1708.33 -7.41196 -3.50753 0
M  V30 9505 O 1708.72 -7.27073 -4.86816 0
M  V30 9506 C 1709.21 -6.5273 -2.63741 0
M  V30 9507 C 1708.5 -5.1842 -2.73198 0
M  V30 9508 N 1708.55 -4.38762 -1.4784 0
M  V30 9509 H 1705.71 -8.36803 -2.32493 0
M  V30 9510 H 1705.44 -6.70197 -1.71129 0
M  V30 9511 H 1706.31 -7.03551 -4.13168 0
M  V30 9512 P 1710.27 -7.20834 -5.23717 0
M  V30 9513 O 1710.49 -7.79853 -6.57286 0
M  V30 9514 O 1711.06 -7.79239 -4.12957 0
M  V30 9515 O 1710.52 -5.63315 -5.29344 0
M  V30 9516 C 1709.58 -4.80255 -6.01876 0
M  V30 9517 C 1710.31 -3.64202 -6.65911 0
M  V30 9518 O 1710.52 -2.60694 -5.64732 0
M  V30 9519 C 1711.71 -3.93473 -7.1943 0
M  V30 9520 O 1712.1 -3.02071 -8.21205 0
M  V30 9521 C 1712.59 -3.73047 -5.97036 0
M  V30 9522 C 1711.88 -2.58828 -5.25741 0
M  V30 9523 N 1711.93 -2.68068 -3.77503 0
M  V30 9524 H 1709.09 -5.40332 -6.79951 0
M  V30 9525 H 1708.82 -4.41613 -5.32378 0
M  V30 9526 H 1709.69 -3.26331 -7.47797 0
M  V30 9527 P 1713.65 -2.75334 -8.47391 0
M  V30 9528 O 1713.87 -2.44571 -9.90142 0
M  V30 9529 O 1714.44 -3.87688 -7.92115 0
M  V30 9530 O 1713.9 -1.4459 -7.59357 0
M  V30 9531 C 1712.96 -0.347608 -7.69215 0
M  V30 9532 C 1713.69 0.96767 -7.52806 0
M  V30 9533 O 1713.9 1.21036 -6.1011 0
M  V30 9534 C 1715.09 1.04544 -8.13308 0
M  V30 9535 O 1715.48 2.38311 -8.41922 0
M  V30 9536 C 1715.97 0.491279 -7.02284 0
M  V30 9537 C 1715.26 0.996264 -5.77469 0
M  V30 9538 N 1715.31 0.0501916 -4.62973 0
M  V30 9539 H 1712.47 -0.374722 -8.67691 0
M  V30 9540 H 1712.2 -0.443485 -6.90277 0
M  V30 9541 H 1713.07 1.75537 -7.96793 0
M  V30 9542 P 1717.03 2.75334 -8.47391 0
M  V30 9543 O 1717.25 3.84128 -9.44797 0
M  V30 9544 O 1717.82 1.51947 -8.68712 0
M  V30 9545 O 1717.28 3.29363 -6.99321 0
M  V30 9546 C 1716.34 4.24011 -6.4274 0
M  V30 9547 C 1717.07 5.20775 -5.52155 0
M  V30 9548 O 1717.28 4.56534 -4.22446 0
M  V30 9549 C 1718.47 5.62629 -5.96531 0
M  V30 9550 O 1718.86 6.87667 -5.41053 0
M  V30 9551 C 1719.35 4.52537 -5.39283 0
M  V30 9552 C 1718.64 4.20027 -4.08623 0
M  V30 9553 N 1718.69 2.76189 -3.71603 0
M  V30 9554 H 1715.85 4.797 -7.24003 0
M  V30 9555 H 1715.58 3.69856 -5.84513 0
M  V30 9556 H 1716.45 6.10356 -5.41441 0
M  V30 9557 P 1720.41 7.20834 -5.23717 0
M  V30 9558 O 1720.63 8.66104 -5.38572 0
M  V30 9559 O 1721.2 6.33544 -6.1349 0
M  V30 9560 O 1720.66 6.7751 -3.72168 0
M  V30 9561 C 1719.72 7.20825 -2.7076 0
M  V30 9562 C 1720.45 7.45864 -1.40599 0
M  V30 9563 O 1720.66 6.17651 -0.734225 0
M  V30 9564 C 1721.85 8.05808 -1.51899 0
M  V30 9565 O 1722.24 8.74358 -0.335205 0
M  V30 9566 C 1722.73 6.83093 -1.70294 0
M  V30 9567 C 1722.02 5.79992 -0.836974 0
M  V30 9568 N 1722.07 4.41864 -1.38293 0
M  V30 9569 H 1719.23 8.13644 -3.0377 0
M  V30 9570 H 1718.96 6.42788 -2.55485 0
M  V30 9571 H 1719.83 8.12039 -0.792769 0
M  V30 9572 P 1723.79 8.91 -1.18235e-11 0
M  V30 9573 O 1724.01 10.1726 0.733694 0
M  V30 9574 O 1724.58 8.73148 -1.23936 0
M  V30 9575 O 1724.04 7.66872 0.971405 0
M  V30 9576 C 1723.1 7.42309 2.04641 0
M  V30 9577 C 1723.83 6.86059 3.24661 0
M  V30 9578 O 1724.04 5.42847 3.03646 0
M  V30 9579 C 1725.23 7.41196 3.50753 0
M  V30 9580 O 1725.62 7.27073 4.86816 0
M  V30 9581 C 1726.11 6.5273 2.63741 0
M  V30 9582 C 1725.4 5.1842 2.73198 0
M  V30 9583 N 1725.45 4.38762 1.4784 0
M  V30 9584 H 1722.61 8.36803 2.32493 0
M  V30 9585 H 1722.34 6.70197 1.71129 0
M  V30 9586 H 1723.21 7.03551 4.13168 0
M  V30 9587 P 1727.17 7.20834 5.23717 0
M  V30 9588 O 1727.39 7.79853 6.57286 0
M  V30 9589 O 1727.96 7.79239 4.12957 0
M  V30 9590 O 1727.42 5.63315 5.29344 0
M  V30 9591 C 1726.48 4.80255 6.01876 0
M  V30 9592 C 1727.21 3.64202 6.65911 0
M  V30 9593 O 1727.42 2.60694 5.64732 0
M  V30 9594 C 1728.61 3.93473 7.1943 0
M  V30 9595 O 1729 3.02071 8.21205 0
M  V30 9596 C 1729.49 3.73047 5.97036 0
M  V30 9597 C 1728.78 2.58828 5.25741 0
M  V30 9598 N 1728.83 2.68068 3.77503 0
M  V30 9599 H 1725.99 5.40332 6.79951 0
M  V30 9600 H 1725.72 4.41613 5.32378 0
M  V30 9601 H 1726.59 3.26331 7.47797 0
M  V30 9602 P 1730.55 2.75334 8.47391 0
M  V30 9603 O 1730.77 2.44571 9.90142 0
M  V30 9604 O 1731.34 3.87688 7.92115 0
M  V30 9605 O 1730.8 1.4459 7.59357 0
M  V30 9606 C 1729.86 0.347608 7.69215 0
M  V30 9607 C 1730.59 -0.96767 7.52806 0
M  V30 9608 O 1730.8 -1.21036 6.1011 0
M  V30 9609 C 1731.99 -1.04544 8.13308 0
M  V30 9610 O 1732.38 -2.38311 8.41922 0
M  V30 9611 C 1732.87 -0.491279 7.02284 0
M  V30 9612 C 1732.16 -0.996264 5.77469 0
M  V30 9613 N 1732.21 -0.0501916 4.62973 0
M  V30 9614 H 1729.37 0.374722 8.67691 0
M  V30 9615 H 1729.1 0.443485 6.90277 0
M  V30 9616 H 1729.97 -1.75537 7.96793 0
M  V30 9617 P 1733.93 -2.75334 8.47391 0
M  V30 9618 O 1734.15 -3.84128 9.44797 0
M  V30 9619 O 1734.72 -1.51947 8.68712 0
M  V30 9620 O 1734.18 -3.29363 6.99321 0
M  V30 9621 C 1733.24 -4.24011 6.4274 0
M  V30 9622 C 1733.97 -5.20775 5.52155 0
M  V30 9623 O 1734.18 -4.56534 4.22446 0
M  V30 9624 C 1735.37 -5.62629 5.96531 0
M  V30 9625 O 1735.76 -6.87667 5.41053 0
M  V30 9626 C 1736.25 -4.52537 5.39283 0
M  V30 9627 C 1735.54 -4.20027 4.08623 0
M  V30 9628 N 1735.59 -2.76189 3.71603 0
M  V30 9629 H 1732.75 -4.797 7.24003 0
M  V30 9630 H 1732.48 -3.69856 5.84513 0
M  V30 9631 H 1733.35 -6.10356 5.41441 0
M  V30 9632 P 1737.31 -7.20834 5.23717 0
M  V30 9633 O 1737.53 -8.66104 5.38572 0
M  V30 9634 O 1738.1 -6.33544 6.1349 0
M  V30 9635 O 1737.56 -6.7751 3.72168 0
M  V30 9636 C 1736.62 -7.20825 2.7076 0
M  V30 9637 C 1737.35 -7.45864 1.40599 0
M  V30 9638 O 1737.56 -6.17651 0.734225 0
M  V30 9639 C 1738.75 -8.05808 1.51899 0
M  V30 9640 O 1739.14 -8.74358 0.335205 0
M  V30 9641 C 1739.63 -6.83093 1.70294 0
M  V30 9642 C 1738.92 -5.79992 0.836974 0
M  V30 9643 N 1738.97 -4.41864 1.38293 0
M  V30 9644 H 1736.13 -8.13644 3.0377 0
M  V30 9645 H 1735.86 -6.42788 2.55485 0
M  V30 9646 H 1736.73 -8.12039 0.792769 0
M  V30 9647 P 1740.69 -8.91 1.29325e-11 0
M  V30 9648 O 1740.91 -10.1726 -0.733694 0
M  V30 9649 O 1741.48 -8.73148 1.23936 0
M  V30 9650 O 1740.94 -7.66872 -0.971405 0
M  V30 9651 C 1740 -7.42309 -2.04641 0
M  V30 9652 C 1740.73 -6.86059 -3.24661 0
M  V30 9653 O 1740.94 -5.42847 -3.03646 0
M  V30 9654 C 1742.13 -7.41196 -3.50753 0
M  V30 9655 O 1742.52 -7.27073 -4.86816 0
M  V30 9656 C 1743.01 -6.5273 -2.63741 0
M  V30 9657 C 1742.3 -5.1842 -2.73198 0
M  V30 9658 N 1742.35 -4.38762 -1.4784 0
M  V30 9659 H 1739.51 -8.36803 -2.32493 0
M  V30 9660 H 1739.24 -6.70197 -1.71129 0
M  V30 9661 H 1740.11 -7.03551 -4.13168 0
M  V30 9662 P 1744.07 -7.20834 -5.23717 0
M  V30 9663 O 1744.29 -7.79853 -6.57286 0
M  V30 9664 O 1744.86 -7.79239 -4.12957 0
M  V30 9665 O 1744.32 -5.63315 -5.29344 0
M  V30 9666 C 1743.38 -4.80255 -6.01876 0
M  V30 9667 C 1744.11 -3.64202 -6.65911 0
M  V30 9668 O 1744.32 -2.60694 -5.64732 0
M  V30 9669 C 1745.51 -3.93473 -7.1943 0
M  V30 9670 O 1745.9 -3.02071 -8.21205 0
M  V30 9671 C 1746.39 -3.73047 -5.97036 0
M  V30 9672 C 1745.68 -2.58828 -5.25741 0
M  V30 9673 N 1745.73 -2.68068 -3.77503 0
M  V30 9674 H 1742.89 -5.40332 -6.79951 0
M  V30 9675 H 1742.62 -4.41613 -5.32378 0
M  V30 9676 H 1743.49 -3.26331 -7.47797 0
M  V30 9677 P 1747.45 -2.75334 -8.47391 0
M  V30 9678 O 1747.67 -2.44595 -9.90239 0
M  V30 9679 O 1748.24 -3.87732 -7.92204 0
M  V30 9680 O 1747.7 -1.4459 -7.59357 0
M  V30 9681 C 1746.76 -0.347563 -7.69115 0
M  V30 9682 C 1747.49 0.96767 -7.52806 0
M  V30 9683 O 1747.7 1.21036 -6.1011 0
M  V30 9684 C 1748.89 1.04544 -8.13308 0
M  V30 9685 O 1749.28 2.38311 -8.41922 0
M  V30 9686 C 1749.77 0.491279 -7.02284 0
M  V30 9687 C 1749.06 0.996264 -5.77469 0
M  V30 9688 N 1749.11 0.0501808 -4.62873 0
M  V30 9689 C 1749.26 0.588177 -3.36904 0
M  V30 9690 O 1749.35 1.78598 -3.17173 0
M  V30 9691 N 1749.3 -0.329694 -2.33686 0
M  V30 9692 C 1749.21 -1.6953 -2.45079 0
M  V30 9693 C 1749.06 -2.16933 -3.80505 0
M  V30 9694 C 1749.01 -1.30326 -4.83752 0
M  V30 9695 H 1746.27 -0.374722 -8.67691 0
M  V30 9696 H 1746 -0.443421 -6.90177 0
M  V30 9697 H 1746.87 1.75537 -7.96793 0
M  V30 9698 H 1749.52 1.94496 -5.46629 0
M  V30 9699 H 1749.8 -0.608651 -7.04676 0
M  V30 9700 H 1750.79 0.889672 -7.08939 0
M  V30 9701 H 1748.96 0.43308 -9.04564 0
M  V30 9702 H 1748.89 -1.68366 -5.8516 0
M  V30 9703 P 1750.83 2.75334 -8.47391 0
M  V30 9704 O 1751.05 3.84128 -9.44797 0
M  V30 9705 O 1751.62 1.51947 -8.68712 0
M  V30 9706 O 1751.08 3.29363 -6.99321 0
M  V30 9707 C 1750.14 4.24011 -6.4274 0
M  V30 9708 C 1750.87 5.20775 -5.52155 0
M  V30 9709 O 1751.08 4.56534 -4.22446 0
M  V30 9710 C 1752.27 5.62629 -5.96531 0
M  V30 9711 O 1752.66 6.87667 -5.41053 0
M  V30 9712 C 1753.15 4.52537 -5.39283 0
M  V30 9713 C 1752.44 4.20027 -4.08623 0
M  V30 9714 N 1752.49 2.76189 -3.71603 0
M  V30 9715 C 1752.41 1.64862 -4.52822 0
M  V30 9716 N 1752.49 0.512671 -3.88633 0
M  V30 9717 C 1752.63 0.888083 -2.54977 0
M  V30 9718 C 1752.76 0.094668 -1.38677 0
M  V30 9719 N 1752.88 0.890102 -0.232633 0
M  V30 9720 C 1752.88 2.26958 -0.21772 0
M  V30 9721 N 1753.01 2.84626 0.97925 0
M  V30 9722 N 1752.75 3.0178 -1.31033 0
M  V30 9723 C 1752.63 2.26781 -2.43843 0
M  V30 9724 H 1749.65 4.797 -7.24003 0
M  V30 9725 H 1749.38 3.69856 -5.84513 0
M  V30 9726 H 1750.25 6.10356 -5.41441 0
M  V30 9727 P 1754.21 7.20834 -5.23717 0
M  V30 9728 O 1754.43 8.66104 -5.38572 0
M  V30 9729 O 1755 6.33544 -6.1349 0
M  V30 9730 O 1754.46 6.7751 -3.72168 0
M  V30 9731 C 1753.52 7.20825 -2.7076 0
M  V30 9732 C 1754.25 7.45864 -1.40599 0
M  V30 9733 O 1754.46 6.17651 -0.734225 0
M  V30 9734 C 1755.65 8.05808 -1.51899 0
M  V30 9735 O 1756.04 8.74358 -0.335205 0
M  V30 9736 C 1756.53 6.83093 -1.70294 0
M  V30 9737 C 1755.82 5.79992 -0.836974 0
M  V30 9738 N 1755.87 4.41864 -1.38293 0
M  V30 9739 H 1753.03 8.13644 -3.0377 0
M  V30 9740 H 1752.76 6.42788 -2.55485 0
M  V30 9741 H 1753.63 8.12039 -0.792769 0
M  V30 9742 P 1757.59 8.91 -1.40415e-11 0
M  V30 9743 O 1757.81 10.1726 0.733694 0
M  V30 9744 O 1758.38 8.73148 -1.23936 0
M  V30 9745 O 1757.84 7.66872 0.971405 0
M  V30 9746 C 1756.9 7.42309 2.04641 0
M  V30 9747 C 1757.63 6.86059 3.24661 0
M  V30 9748 O 1757.84 5.42847 3.03646 0
M  V30 9749 C 1759.03 7.41196 3.50753 0
M  V30 9750 O 1759.42 7.27073 4.86816 0
M  V30 9751 C 1759.91 6.5273 2.63741 0
M  V30 9752 C 1759.2 5.1842 2.73198 0
M  V30 9753 N 1759.25 4.38762 1.4784 0
M  V30 9754 H 1756.41 8.36803 2.32493 0
M  V30 9755 H 1756.14 6.70197 1.71129 0
M  V30 9756 H 1757.01 7.03551 4.13168 0
M  V30 9757 P 1760.97 7.20834 5.23717 0
M  V30 9758 O 1761.19 7.79853 6.57286 0
M  V30 9759 O 1761.76 7.79239 4.12957 0
M  V30 9760 O 1761.22 5.63315 5.29344 0
M  V30 9761 C 1760.28 4.80255 6.01876 0
M  V30 9762 C 1761.01 3.64202 6.65911 0
M  V30 9763 O 1761.22 2.60694 5.64732 0
M  V30 9764 C 1762.41 3.93473 7.1943 0
M  V30 9765 O 1762.8 3.02071 8.21205 0
M  V30 9766 C 1763.29 3.73047 5.97036 0
M  V30 9767 C 1762.58 2.58828 5.25741 0
M  V30 9768 N 1762.63 2.68068 3.77503 0
M  V30 9769 H 1759.79 5.40332 6.79951 0
M  V30 9770 H 1759.52 4.41613 5.32378 0
M  V30 9771 H 1760.39 3.26331 7.47797 0
M  V30 9772 P 1764.35 2.75334 8.47391 0
M  V30 9773 O 1764.57 2.44571 9.90142 0
M  V30 9774 O 1765.14 3.87688 7.92115 0
M  V30 9775 O 1764.6 1.4459 7.59357 0
M  V30 9776 C 1763.66 0.347608 7.69215 0
M  V30 9777 C 1764.39 -0.96767 7.52806 0
M  V30 9778 O 1764.6 -1.21036 6.1011 0
M  V30 9779 C 1765.79 -1.04544 8.13308 0
M  V30 9780 O 1766.18 -2.38311 8.41922 0
M  V30 9781 C 1766.67 -0.491279 7.02284 0
M  V30 9782 C 1765.96 -0.996264 5.77469 0
M  V30 9783 N 1766.01 -0.0501916 4.62973 0
M  V30 9784 H 1763.17 0.374722 8.67691 0
M  V30 9785 H 1762.9 0.443485 6.90277 0
M  V30 9786 H 1763.77 -1.75537 7.96793 0
M  V30 9787 P 1767.73 -2.75334 8.47391 0
M  V30 9788 O 1767.95 -3.84128 9.44797 0
M  V30 9789 O 1768.52 -1.51947 8.68712 0
M  V30 9790 O 1767.98 -3.29363 6.99321 0
M  V30 9791 C 1767.04 -4.24011 6.4274 0
M  V30 9792 C 1767.77 -5.20775 5.52155 0
M  V30 9793 O 1767.98 -4.56534 4.22446 0
M  V30 9794 C 1769.17 -5.62629 5.96531 0
M  V30 9795 O 1769.56 -6.87667 5.41053 0
M  V30 9796 C 1770.05 -4.52537 5.39283 0
M  V30 9797 C 1769.34 -4.20027 4.08623 0
M  V30 9798 N 1769.39 -2.76189 3.71603 0
M  V30 9799 H 1766.55 -4.797 7.24003 0
M  V30 9800 H 1766.28 -3.69856 5.84513 0
M  V30 9801 H 1767.15 -6.10356 5.41441 0
M  V30 9802 P 1771.11 -7.20834 5.23717 0
M  V30 9803 O 1771.33 -8.66104 5.38572 0
M  V30 9804 O 1771.9 -6.33544 6.1349 0
M  V30 9805 O 1771.36 -6.7751 3.72168 0
M  V30 9806 C 1770.42 -7.20825 2.7076 0
M  V30 9807 C 1771.15 -7.45864 1.40599 0
M  V30 9808 O 1771.36 -6.17651 0.734225 0
M  V30 9809 C 1772.55 -8.05808 1.51899 0
M  V30 9810 O 1772.94 -8.74358 0.335205 0
M  V30 9811 C 1773.43 -6.83093 1.70294 0
M  V30 9812 C 1772.72 -5.79992 0.836974 0
M  V30 9813 N 1772.77 -4.41864 1.38293 0
M  V30 9814 H 1769.93 -8.13644 3.0377 0
M  V30 9815 H 1769.66 -6.42788 2.55485 0
M  V30 9816 H 1770.53 -8.12039 0.792769 0
M  V30 9817 P 1774.49 -8.91 1.51505e-11 0
M  V30 9818 O 1774.71 -10.1726 -0.733694 0
M  V30 9819 O 1775.28 -8.73148 1.23936 0
M  V30 9820 O 1774.74 -7.66872 -0.971405 0
M  V30 9821 C 1773.8 -7.42309 -2.04641 0
M  V30 9822 C 1774.53 -6.86059 -3.24661 0
M  V30 9823 O 1774.74 -5.42847 -3.03646 0
M  V30 9824 C 1775.93 -7.41196 -3.50753 0
M  V30 9825 O 1776.32 -7.27073 -4.86816 0
M  V30 9826 C 1776.81 -6.5273 -2.63741 0
M  V30 9827 C 1776.1 -5.1842 -2.73198 0
M  V30 9828 N 1776.15 -4.38762 -1.4784 0
M  V30 9829 H 1773.31 -8.36803 -2.32493 0
M  V30 9830 H 1773.04 -6.70197 -1.71129 0
M  V30 9831 H 1773.91 -7.03551 -4.13168 0
M  V30 9832 P 1777.87 -7.20834 -5.23717 0
M  V30 9833 O 1778.09 -7.79853 -6.57286 0
M  V30 9834 O 1778.66 -7.79239 -4.12957 0
M  V30 9835 O 1778.12 -5.63315 -5.29344 0
M  V30 9836 C 1777.18 -4.80255 -6.01876 0
M  V30 9837 C 1777.91 -3.64202 -6.65911 0
M  V30 9838 O 1778.12 -2.60694 -5.64732 0
M  V30 9839 C 1779.31 -3.93473 -7.1943 0
M  V30 9840 O 1779.7 -3.02071 -8.21205 0
M  V30 9841 C 1780.19 -3.73047 -5.97036 0
M  V30 9842 C 1779.48 -2.58828 -5.25741 0
M  V30 9843 N 1779.53 -2.68068 -3.77503 0
M  V30 9844 H 1776.69 -5.40332 -6.79951 0
M  V30 9845 H 1776.42 -4.41613 -5.32378 0
M  V30 9846 H 1777.29 -3.26331 -7.47797 0
M  V30 9847 P 1781.25 -2.75334 -8.47391 0
M  V30 9848 O 1781.47 -2.44571 -9.90142 0
M  V30 9849 O 1782.04 -3.87688 -7.92115 0
M  V30 9850 O 1781.5 -1.4459 -7.59357 0
M  V30 9851 C 1780.56 -0.347608 -7.69215 0
M  V30 9852 C 1781.29 0.96767 -7.52806 0
M  V30 9853 O 1781.5 1.21036 -6.1011 0
M  V30 9854 C 1782.69 1.04544 -8.13308 0
M  V30 9855 O 1783.08 2.38311 -8.41922 0
M  V30 9856 C 1783.57 0.491279 -7.02284 0
M  V30 9857 C 1782.86 0.996264 -5.77469 0
M  V30 9858 N 1782.91 0.0501916 -4.62973 0
M  V30 9859 H 1780.07 -0.374722 -8.67691 0
M  V30 9860 H 1779.8 -0.443485 -6.90277 0
M  V30 9861 H 1780.67 1.75537 -7.96793 0
M  V30 9862 P 1784.63 2.75334 -8.47391 0
M  V30 9863 O 1784.85 3.84128 -9.44797 0
M  V30 9864 O 1785.42 1.51947 -8.68712 0
M  V30 9865 O 1784.88 3.29363 -6.99321 0
M  V30 9866 C 1783.94 4.24011 -6.4274 0
M  V30 9867 C 1784.67 5.20775 -5.52155 0
M  V30 9868 O 1784.88 4.56534 -4.22446 0
M  V30 9869 C 1786.07 5.62629 -5.96531 0
M  V30 9870 O 1786.46 6.87667 -5.41053 0
M  V30 9871 C 1786.95 4.52537 -5.39283 0
M  V30 9872 C 1786.24 4.20027 -4.08623 0
M  V30 9873 N 1786.29 2.76189 -3.71603 0
M  V30 9874 H 1783.45 4.797 -7.24003 0
M  V30 9875 H 1783.18 3.69856 -5.84513 0
M  V30 9876 H 1784.05 6.10356 -5.41441 0
M  V30 9877 P 1788.01 7.20834 -5.23717 0
M  V30 9878 O 1788.23 8.66104 -5.38572 0
M  V30 9879 O 1788.8 6.33544 -6.1349 0
M  V30 9880 O 1788.26 6.7751 -3.72168 0
M  V30 9881 C 1787.32 7.20825 -2.7076 0
M  V30 9882 C 1788.05 7.45864 -1.40599 0
M  V30 9883 O 1788.26 6.17651 -0.734225 0
M  V30 9884 C 1789.45 8.05808 -1.51899 0
M  V30 9885 O 1789.84 8.74358 -0.335205 0
M  V30 9886 C 1790.33 6.83093 -1.70294 0
M  V30 9887 C 1789.62 5.79992 -0.836974 0
M  V30 9888 N 1789.67 4.41864 -1.38293 0
M  V30 9889 H 1786.83 8.13644 -3.0377 0
M  V30 9890 H 1786.56 6.42788 -2.55485 0
M  V30 9891 H 1787.43 8.12039 -0.792769 0
M  V30 9892 P 1791.39 8.91 -1.62595e-11 0
M  V30 9893 O 1791.61 10.1726 0.733694 0
M  V30 9894 O 1792.18 8.73148 -1.23936 0
M  V30 9895 O 1791.64 7.66872 0.971405 0
M  V30 9896 C 1790.7 7.42309 2.04641 0
M  V30 9897 C 1791.43 6.86059 3.24661 0
M  V30 9898 O 1791.64 5.42847 3.03646 0
M  V30 9899 C 1792.83 7.41196 3.50753 0
M  V30 9900 O 1793.22 7.27073 4.86816 0
M  V30 9901 C 1793.71 6.5273 2.63741 0
M  V30 9902 C 1793 5.1842 2.73198 0
M  V30 9903 N 1793.05 4.38762 1.4784 0
M  V30 9904 H 1790.21 8.36803 2.32493 0
M  V30 9905 H 1789.94 6.70197 1.71129 0
M  V30 9906 H 1790.81 7.03551 4.13168 0
M  V30 9907 P 1794.77 7.20834 5.23717 0
M  V30 9908 O 1794.99 7.79853 6.57286 0
M  V30 9909 O 1795.56 7.79239 4.12957 0
M  V30 9910 O 1795.02 5.63315 5.29344 0
M  V30 9911 C 1794.08 4.80255 6.01876 0
M  V30 9912 C 1794.81 3.64202 6.65911 0
M  V30 9913 O 1795.02 2.60694 5.64732 0
M  V30 9914 C 1796.21 3.93473 7.1943 0
M  V30 9915 O 1796.6 3.02071 8.21205 0
M  V30 9916 C 1797.09 3.73047 5.97036 0
M  V30 9917 C 1796.38 2.58828 5.25741 0
M  V30 9918 N 1796.43 2.68068 3.77503 0
M  V30 9919 H 1793.59 5.40332 6.79951 0
M  V30 9920 H 1793.32 4.41613 5.32378 0
M  V30 9921 H 1794.19 3.26331 7.47797 0
M  V30 9922 P 1798.15 2.75334 8.47391 0
M  V30 9923 O 1798.37 2.44571 9.90142 0
M  V30 9924 O 1798.94 3.87688 7.92115 0
M  V30 9925 O 1798.4 1.4459 7.59357 0
M  V30 9926 C 1797.46 0.347608 7.69215 0
M  V30 9927 C 1798.19 -0.96767 7.52806 0
M  V30 9928 O 1798.4 -1.21036 6.1011 0
M  V30 9929 C 1799.59 -1.04544 8.13308 0
M  V30 9930 O 1799.98 -2.38311 8.41922 0
M  V30 9931 C 1800.47 -0.491279 7.02284 0
M  V30 9932 C 1799.76 -0.996264 5.77469 0
M  V30 9933 N 1799.81 -0.0501916 4.62973 0
M  V30 9934 H 1796.97 0.374722 8.67691 0
M  V30 9935 H 1796.7 0.443485 6.90277 0
M  V30 9936 H 1797.57 -1.75537 7.96793 0
M  V30 9937 P 1801.53 -2.75334 8.47391 0
M  V30 9938 O 1801.75 -3.84128 9.44797 0
M  V30 9939 O 1802.32 -1.51947 8.68712 0
M  V30 9940 O 1801.78 -3.29363 6.99321 0
M  V30 9941 C 1800.84 -4.24011 6.4274 0
M  V30 9942 C 1801.57 -5.20775 5.52155 0
M  V30 9943 O 1801.78 -4.56534 4.22446 0
M  V30 9944 C 1802.97 -5.62629 5.96531 0
M  V30 9945 O 1803.36 -6.87667 5.41053 0
M  V30 9946 C 1803.85 -4.52537 5.39283 0
M  V30 9947 C 1803.14 -4.20027 4.08623 0
M  V30 9948 N 1803.19 -2.76189 3.71603 0
M  V30 9949 H 1800.35 -4.797 7.24003 0
M  V30 9950 H 1800.08 -3.69856 5.84513 0
M  V30 9951 H 1800.95 -6.10356 5.41441 0
M  V30 9952 P 1804.91 -7.20834 5.23717 0
M  V30 9953 O 1805.13 -8.66274 5.38678 0
M  V30 9954 O 1805.7 -6.33687 6.13629 0
M  V30 9955 O 1805.16 -6.7751 3.72168 0
M  V30 9956 C 1804.22 -7.20919 2.70795 0
M  V30 9957 C 1804.95 -7.45864 1.40599 0
M  V30 9958 O 1805.16 -6.17751 0.734343 0
M  V30 9959 C 1806.35 -8.05906 1.51917 0
M  V30 9960 O 1806.74 -8.74358 0.335205 0
M  V30 9961 C 1807.23 -6.83093 1.70294 0
M  V30 9962 C 1806.52 -5.79992 0.836974 0
M  V30 9963 N 1806.57 -4.41864 1.38293 0
M  V30 9964 C 1806.49 -4.02089 2.69407 0
M  V30 9965 N 1806.56 -2.73403 2.85089 0
M  V30 9966 C 1806.71 -2.25086 1.5642 0
M  V30 9967 C 1806.84 -0.942887 1.04836 0
M  V30 9968 N 1806.85 0.150999 1.80369 0
M  V30 9969 N 1806.96 -0.812565 -0.28167 0
M  V30 9970 C 1806.95 -1.90572 -1.03784 0
M  V30 9971 N 1806.83 -3.167 -0.683905 0
M  V30 9972 C 1806.71 -3.26538 0.652815 0
M  V30 9973 H 1803.73 -8.13738 3.03804 0
M  V30 9974 H 1803.46 -6.42974 2.55559 0
M  V30 9975 H 1804.33 -8.12139 0.792866 0
M  V30 9976 H 1806.98 -5.80178 -0.160643 0
M  V30 9977 H 1807.26 -6.51379 2.75643 0
M  V30 9978 H 1808.25 -7.01832 1.3448 0
M  V30 9979 H 1806.42 -8.73771 2.38364 0
M  V30 9980 H 1806.38 -4.7189 3.52311 0
M  V30 9981 H 1806.76 0.0721434 2.82608 0
M  V30 9982 H 1806.95 1.0785 1.36544 0
M  V30 9983 H 1807.06 -1.73207 -2.10241 0
M  V30 9984 P 1808.29 -8.91 1.73686e-11 0
M  V30 9985 O 1808.51 -10.1726 -0.733694 0
M  V30 9986 O 1809.08 -8.73148 1.23936 0
M  V30 9987 O 1808.54 -7.66872 -0.971405 0
M  V30 9988 C 1807.6 -7.42309 -2.04641 0
M  V30 9989 C 1808.33 -6.86059 -3.24661 0
M  V30 9990 O 1808.54 -5.42847 -3.03646 0
M  V30 9991 C 1809.73 -7.41196 -3.50753 0
M  V30 9992 O 1810.12 -7.27073 -4.86816 0
M  V30 9993 C 1810.61 -6.5273 -2.63741 0
M  V30 9994 C 1809.9 -5.1842 -2.73198 0
M  V30 9995 N 1809.95 -4.38762 -1.4784 0
M  V30 9996 H 1807.11 -8.36803 -2.32493 0
M  V30 9997 H 1806.84 -6.70197 -1.71129 0
M  V30 9998 H 1807.71 -7.03551 -4.13168 0
M  V30 9999 P 1811.67 -7.20834 -5.23717 0
M  V30 10000 O 1811.89 -7.79853 -6.57286 0
M  V30 10001 O 1812.46 -7.79239 -4.12957 0
M  V30 10002 O 1811.92 -5.63315 -5.29344 0
M  V30 10003 C 1810.98 -4.80255 -6.01876 0
M  V30 10004 C 1811.71 -3.64202 -6.65911 0
M  V30 10005 O 1811.92 -2.60694 -5.64732 0
M  V30 10006 C 1813.11 -3.93473 -7.1943 0
M  V30 10007 O 1813.5 -3.02071 -8.21205 0
M  V30 10008 C 1813.99 -3.73047 -5.97036 0
M  V30 10009 C 1813.28 -2.58828 -5.25741 0
M  V30 10010 N 1813.33 -2.68068 -3.77503 0
M  V30 10011 H 1810.49 -5.40332 -6.79951 0
M  V30 10012 H 1810.22 -4.41613 -5.32378 0
M  V30 10013 H 1811.09 -3.26331 -7.47797 0
M  V30 10014 P 1815.05 -2.75334 -8.47391 0
M  V30 10015 O 1815.27 -2.44571 -9.90142 0
M  V30 10016 O 1815.84 -3.87688 -7.92115 0
M  V30 10017 O 1815.3 -1.4459 -7.59357 0
M  V30 10018 C 1814.36 -0.347608 -7.69215 0
M  V30 10019 C 1815.09 0.96767 -7.52806 0
M  V30 10020 O 1815.3 1.21036 -6.1011 0
M  V30 10021 C 1816.49 1.04544 -8.13308 0
M  V30 10022 O 1816.88 2.38311 -8.41922 0
M  V30 10023 C 1817.37 0.491279 -7.02284 0
M  V30 10024 C 1816.66 0.996264 -5.77469 0
M  V30 10025 N 1816.71 0.0501916 -4.62973 0
M  V30 10026 H 1813.87 -0.374722 -8.67691 0
M  V30 10027 H 1813.6 -0.443485 -6.90277 0
M  V30 10028 H 1814.47 1.75537 -7.96793 0
M  V30 10029 P 1818.43 2.75334 -8.47391 0
M  V30 10030 O 1818.65 3.84128 -9.44797 0
M  V30 10031 O 1819.22 1.51947 -8.68712 0
M  V30 10032 O 1818.68 3.29363 -6.99321 0
M  V30 10033 C 1817.74 4.24011 -6.4274 0
M  V30 10034 C 1818.47 5.20775 -5.52155 0
M  V30 10035 O 1818.68 4.56534 -4.22446 0
M  V30 10036 C 1819.87 5.62629 -5.96531 0
M  V30 10037 O 1820.26 6.87667 -5.41053 0
M  V30 10038 C 1820.75 4.52537 -5.39283 0
M  V30 10039 C 1820.04 4.20027 -4.08623 0
M  V30 10040 N 1820.09 2.76189 -3.71603 0
M  V30 10041 H 1817.25 4.797 -7.24003 0
M  V30 10042 H 1816.98 3.69856 -5.84513 0
M  V30 10043 H 1817.85 6.10356 -5.41441 0
M  V30 10044 P 1821.81 7.20834 -5.23717 0
M  V30 10045 O 1822.03 8.66104 -5.38572 0
M  V30 10046 O 1822.6 6.33544 -6.1349 0
M  V30 10047 O 1822.06 6.7751 -3.72168 0
M  V30 10048 C 1821.12 7.20825 -2.7076 0
M  V30 10049 C 1821.85 7.45864 -1.40599 0
M  V30 10050 O 1822.06 6.17651 -0.734225 0
M  V30 10051 C 1823.25 8.05808 -1.51899 0
M  V30 10052 O 1823.64 8.74358 -0.335205 0
M  V30 10053 C 1824.13 6.83093 -1.70294 0
M  V30 10054 C 1823.42 5.79992 -0.836974 0
M  V30 10055 N 1823.47 4.41864 -1.38293 0
M  V30 10056 H 1820.63 8.13644 -3.0377 0
M  V30 10057 H 1820.36 6.42788 -2.55485 0
M  V30 10058 H 1821.23 8.12039 -0.792769 0
M  V30 10059 P 1825.19 8.91 -1.84776e-11 0
M  V30 10060 O 1825.41 10.1746 0.733838 0
M  V30 10061 O 1825.98 8.73346 -1.23964 0
M  V30 10062 O 1825.44 7.66872 0.971405 0
M  V30 10063 C 1824.5 7.42405 2.04668 0
M  V30 10064 C 1825.23 6.86059 3.24661 0
M  V30 10065 O 1825.44 5.42934 3.03695 0
M  V30 10066 C 1826.63 7.41287 3.50796 0
M  V30 10067 O 1827.02 7.27073 4.86816 0
M  V30 10068 C 1827.51 6.5273 2.63741 0
M  V30 10069 C 1826.8 5.1842 2.73198 0
M  V30 10070 N 1826.85 4.38762 1.4784 0
M  V30 10071 H 1824.01 8.36899 2.3252 0
M  V30 10072 H 1823.74 6.70391 1.71179 0
M  V30 10073 H 1824.61 7.03638 4.13219 0
M  V30 10074 H 1827.26 4.59931 3.54016 0
M  V30 10075 H 1827.54 6.88995 1.59871 0
M  V30 10076 H 1828.53 6.4684 3.0373 0
M  V30 10077 H 1826.7 8.47002 3.20749 0
M  V30 10078 P 1828.57 7.20834 5.23717 0
M  V30 10079 O 1828.79 7.79853 6.57286 0
M  V30 10080 O 1829.36 7.79239 4.12957 0
M  V30 10081 O 1828.82 5.63315 5.29344 0
M  V30 10082 C 1827.88 4.80255 6.01876 0
M  V30 10083 C 1828.61 3.64202 6.65911 0
M  V30 10084 O 1828.82 2.60694 5.64732 0
M  V30 10085 C 1830.01 3.93473 7.1943 0
M  V30 10086 O 1830.4 3.02071 8.21205 0
M  V30 10087 C 1830.89 3.73047 5.97036 0
M  V30 10088 C 1830.18 2.58828 5.25741 0
M  V30 10089 N 1830.23 2.68068 3.77503 0
M  V30 10090 H 1827.39 5.40332 6.79951 0
M  V30 10091 H 1827.12 4.41613 5.32378 0
M  V30 10092 H 1827.99 3.26331 7.47797 0
M  V30 10093 P 1831.95 2.75334 8.47391 0
M  V30 10094 O 1832.17 2.44571 9.90142 0
M  V30 10095 O 1832.74 3.87688 7.92115 0
M  V30 10096 O 1832.2 1.4459 7.59357 0
M  V30 10097 C 1831.26 0.347608 7.69215 0
M  V30 10098 C 1831.99 -0.96767 7.52806 0
M  V30 10099 O 1832.2 -1.21036 6.1011 0
M  V30 10100 C 1833.39 -1.04544 8.13308 0
M  V30 10101 O 1833.78 -2.38311 8.41922 0
M  V30 10102 C 1834.27 -0.491279 7.02284 0
M  V30 10103 C 1833.56 -0.996264 5.77469 0
M  V30 10104 N 1833.61 -0.0501916 4.62973 0
M  V30 10105 H 1830.77 0.374722 8.67691 0
M  V30 10106 H 1830.5 0.443485 6.90277 0
M  V30 10107 H 1831.37 -1.75537 7.96793 0
M  V30 10108 P 1835.33 -2.75334 8.47391 0
M  V30 10109 O 1835.55 -3.84128 9.44797 0
M  V30 10110 O 1836.12 -1.51947 8.68712 0
M  V30 10111 O 1835.58 -3.29363 6.99321 0
M  V30 10112 C 1834.64 -4.24011 6.4274 0
M  V30 10113 C 1835.37 -5.20775 5.52155 0
M  V30 10114 O 1835.58 -4.56534 4.22446 0
M  V30 10115 C 1836.77 -5.62629 5.96531 0
M  V30 10116 O 1837.16 -6.87667 5.41053 0
M  V30 10117 C 1837.65 -4.52537 5.39283 0
M  V30 10118 C 1836.94 -4.20027 4.08623 0
M  V30 10119 N 1836.99 -2.76189 3.71603 0
M  V30 10120 C 1836.91 -1.64862 4.52822 0
M  V30 10121 N 1836.99 -0.512671 3.88633 0
M  V30 10122 C 1837.13 -0.888083 2.54977 0
M  V30 10123 C 1837.26 -0.094668 1.38677 0
M  V30 10124 N 1837.38 -0.890102 0.232633 0
M  V30 10125 C 1837.38 -2.26958 0.21772 0
M  V30 10126 N 1837.51 -2.84626 -0.97925 0
M  V30 10127 N 1837.25 -3.0178 1.31033 0
M  V30 10128 C 1837.13 -2.26781 2.43843 0
M  V30 10129 H 1834.15 -4.797 7.24003 0
M  V30 10130 H 1833.88 -3.69856 5.84513 0
M  V30 10131 H 1834.75 -6.10356 5.41441 0
M  V30 10132 P 1838.71 -7.20834 5.23717 0
M  V30 10133 O 1838.93 -8.66274 5.38678 0
M  V30 10134 O 1839.5 -6.33687 6.13629 0
M  V30 10135 O 1838.96 -6.7751 3.72168 0
M  V30 10136 C 1838.02 -7.20919 2.70795 0
M  V30 10137 C 1838.75 -7.45864 1.40599 0
M  V30 10138 O 1838.96 -6.17751 0.734343 0
M  V30 10139 C 1840.15 -8.05906 1.51917 0
M  V30 10140 O 1840.54 -8.74358 0.335205 0
M  V30 10141 C 1841.03 -6.83093 1.70294 0
M  V30 10142 C 1840.32 -5.79992 0.836974 0
M  V30 10143 N 1840.37 -4.41864 1.38293 0
M  V30 10144 C 1840.29 -4.02089 2.69407 0
M  V30 10145 N 1840.36 -2.73403 2.85089 0
M  V30 10146 C 1840.51 -2.25086 1.5642 0
M  V30 10147 C 1840.64 -0.942887 1.04836 0
M  V30 10148 N 1840.65 0.150999 1.80369 0
M  V30 10149 N 1840.76 -0.812565 -0.28167 0
M  V30 10150 C 1840.75 -1.90572 -1.03784 0
M  V30 10151 N 1840.63 -3.167 -0.683905 0
M  V30 10152 C 1840.51 -3.26538 0.652815 0
M  V30 10153 H 1837.53 -8.13738 3.03804 0
M  V30 10154 H 1837.26 -6.42974 2.55559 0
M  V30 10155 H 1838.13 -8.12139 0.792866 0
M  V30 10156 H 1840.78 -5.80178 -0.160643 0
M  V30 10157 H 1841.06 -6.51379 2.75643 0
M  V30 10158 H 1842.05 -7.01832 1.3448 0
M  V30 10159 H 1840.22 -8.73771 2.38364 0
M  V30 10160 H 1840.18 -4.7189 3.52311 0
M  V30 10161 H 1840.56 0.0721434 2.82608 0
M  V30 10162 H 1840.75 1.0785 1.36544 0
M  V30 10163 H 1840.86 -1.73207 -2.10241 0
M  V30 10164 P 1842.09 -8.91 1.95866e-11 0
M  V30 10165 O 1842.31 -10.1726 -0.733694 0
M  V30 10166 O 1842.88 -8.73148 1.23936 0
M  V30 10167 O 1842.34 -7.66872 -0.971405 0
M  V30 10168 C 1841.4 -7.42309 -2.04641 0
M  V30 10169 C 1842.13 -6.86059 -3.24661 0
M  V30 10170 O 1842.34 -5.42847 -3.03646 0
M  V30 10171 C 1843.53 -7.41196 -3.50753 0
M  V30 10172 O 1843.92 -7.27073 -4.86816 0
M  V30 10173 C 1844.41 -6.5273 -2.63741 0
M  V30 10174 C 1843.7 -5.1842 -2.73198 0
M  V30 10175 N 1843.75 -4.38762 -1.4784 0
M  V30 10176 H 1840.91 -8.36803 -2.32493 0
M  V30 10177 H 1840.64 -6.70197 -1.71129 0
M  V30 10178 H 1841.51 -7.03551 -4.13168 0
M  V30 10179 P 1845.47 -7.20834 -5.23717 0
M  V30 10180 O 1845.69 -7.79853 -6.57286 0
M  V30 10181 O 1846.26 -7.79239 -4.12957 0
M  V30 10182 O 1845.72 -5.63315 -5.29344 0
M  V30 10183 C 1844.78 -4.80255 -6.01876 0
M  V30 10184 C 1845.51 -3.64202 -6.65911 0
M  V30 10185 O 1845.72 -2.60694 -5.64732 0
M  V30 10186 C 1846.91 -3.93473 -7.1943 0
M  V30 10187 O 1847.3 -3.02071 -8.21205 0
M  V30 10188 C 1847.79 -3.73047 -5.97036 0
M  V30 10189 C 1847.08 -2.58828 -5.25741 0
M  V30 10190 N 1847.13 -2.68068 -3.77503 0
M  V30 10191 C 1847.05 -3.79715 -2.96723 0
M  V30 10192 N 1847.13 -3.5377 -1.68852 0
M  V30 10193 C 1847.27 -2.15054 -1.63254 0
M  V30 10194 C 1847.4 -1.28964 -0.518571 0
M  V30 10195 N 1847.52 0.0538097 -0.918425 0
M  V30 10196 C 1847.52 0.494275 -2.22578 0
M  V30 10197 N 1847.65 1.81086 -2.40434 0
M  V30 10198 N 1847.39 -0.313645 -3.27502 0
M  V30 10199 C 1847.27 -1.61829 -2.91033 0
M  V30 10200 H 1844.29 -5.40332 -6.79951 0
M  V30 10201 H 1844.02 -4.41613 -5.32378 0
M  V30 10202 H 1844.89 -3.26331 -7.47797 0
M  V30 10203 P 1848.85 -2.75334 -8.47391 0
M  V30 10204 O 1849.07 -2.44595 -9.90239 0
M  V30 10205 O 1849.64 -3.87732 -7.92204 0
M  V30 10206 O 1849.1 -1.4459 -7.59357 0
M  V30 10207 C 1848.16 -0.347563 -7.69115 0
M  V30 10208 C 1848.89 0.96767 -7.52806 0
M  V30 10209 O 1849.1 1.21036 -6.1011 0
M  V30 10210 C 1850.29 1.04544 -8.13308 0
M  V30 10211 O 1850.68 2.38311 -8.41922 0
M  V30 10212 C 1851.17 0.491279 -7.02284 0
M  V30 10213 C 1850.46 0.996264 -5.77469 0
M  V30 10214 N 1850.51 0.0501808 -4.62873 0
M  V30 10215 C 1850.66 0.588177 -3.36904 0
M  V30 10216 O 1850.75 1.78598 -3.17173 0
M  V30 10217 N 1850.7 -0.329694 -2.33686 0
M  V30 10218 C 1850.61 -1.6953 -2.45079 0
M  V30 10219 O 1850.66 -2.41926 -1.44899 0
M  V30 10220 C 1850.46 -2.16933 -3.80505 0
M  V30 10221 C 1850.35 -3.65373 -3.97621 0
M  V30 10222 C 1850.41 -1.30326 -4.83752 0
M  V30 10223 H 1847.67 -0.374722 -8.67691 0
M  V30 10224 H 1847.4 -0.443421 -6.90177 0
M  V30 10225 H 1848.27 1.75537 -7.96793 0
M  V30 10226 H 1850.92 1.94496 -5.46629 0
M  V30 10227 H 1851.2 -0.608651 -7.04676 0
M  V30 10228 H 1852.19 0.889672 -7.08939 0
M  V30 10229 H 1850.36 0.43308 -9.04564 0
M  V30 10230 H 1850.29 -1.68366 -5.8516 0
M  V30 10231 H 1851.32 -4.05985 -4.30448 0
M  V30 10232 H 1849.58 -3.88028 -4.72875 0
M  V30 10233 H 1850.07 -4.11381 -3.01609 0
M  V30 10234 H 1850.81 0.0393617 -1.41345 0
M  V30 10235 P 1852.23 2.75334 -8.47391 0
M  V30 10236 O 1852.45 3.84128 -9.44797 0
M  V30 10237 O 1853.02 1.51947 -8.68712 0
M  V30 10238 O 1852.48 3.29363 -6.99321 0
M  V30 10239 C 1851.54 4.24011 -6.4274 0
M  V30 10240 C 1852.27 5.20775 -5.52155 0
M  V30 10241 O 1852.48 4.56534 -4.22446 0
M  V30 10242 C 1853.67 5.62629 -5.96531 0
M  V30 10243 O 1854.06 6.87667 -5.41053 0
M  V30 10244 C 1854.55 4.52537 -5.39283 0
M  V30 10245 C 1853.84 4.20027 -4.08623 0
M  V30 10246 N 1853.89 2.76189 -3.71603 0
M  V30 10247 H 1851.05 4.797 -7.24003 0
M  V30 10248 H 1850.78 3.69856 -5.84513 0
M  V30 10249 H 1851.65 6.10356 -5.41441 0
M  V30 10250 P 1855.61 7.20834 -5.23717 0
M  V30 10251 O 1855.83 8.66104 -5.38572 0
M  V30 10252 O 1856.4 6.33544 -6.1349 0
M  V30 10253 O 1855.86 6.7751 -3.72168 0
M  V30 10254 C 1854.92 7.20825 -2.7076 0
M  V30 10255 C 1855.65 7.45864 -1.40599 0
M  V30 10256 O 1855.86 6.17651 -0.734225 0
M  V30 10257 C 1857.05 8.05808 -1.51899 0
M  V30 10258 O 1857.44 8.74358 -0.335205 0
M  V30 10259 C 1857.93 6.83093 -1.70294 0
M  V30 10260 C 1857.22 5.79992 -0.836974 0
M  V30 10261 N 1857.27 4.41864 -1.38293 0
M  V30 10262 H 1854.43 8.13644 -3.0377 0
M  V30 10263 H 1854.16 6.42788 -2.55485 0
M  V30 10264 H 1855.03 8.12039 -0.792769 0
M  V30 10265 P 1858.99 8.91 -2.06956e-11 0
M  V30 10266 O 1859.21 10.1746 0.733838 0
M  V30 10267 O 1859.78 8.73346 -1.23964 0
M  V30 10268 O 1859.24 7.66872 0.971405 0
M  V30 10269 C 1858.3 7.42405 2.04668 0
M  V30 10270 C 1859.03 6.86059 3.24661 0
M  V30 10271 O 1859.24 5.42934 3.03695 0
M  V30 10272 C 1860.43 7.41287 3.50796 0
M  V30 10273 O 1860.82 7.27073 4.86816 0
M  V30 10274 C 1861.31 6.5273 2.63741 0
M  V30 10275 C 1860.6 5.1842 2.73198 0
M  V30 10276 N 1860.65 4.38762 1.4784 0
M  V30 10277 C 1860.57 4.83651 0.183876 0
M  V30 10278 N 1860.64 3.88759 -0.699393 0
M  V30 10279 C 1860.79 2.7404 0.0575568 0
M  V30 10280 C 1860.92 1.37902 -0.293928 0
M  V30 10281 N 1860.93 0.938021 -1.54797 0
M  V30 10282 N 1861.04 0.491817 0.70549 0
M  V30 10283 C 1861.03 0.931735 1.95979 0
M  V30 10284 N 1860.91 2.16017 2.41481 0
M  V30 10285 C 1860.79 3.02547 1.39121 0
M  V30 10286 H 1857.81 8.36899 2.3252 0
M  V30 10287 H 1857.54 6.70391 1.71179 0
M  V30 10288 H 1858.41 7.03638 4.13219 0
M  V30 10289 H 1861.06 4.59931 3.54016 0
M  V30 10290 H 1861.34 6.88995 1.59871 0
M  V30 10291 H 1862.33 6.4684 3.0373 0
M  V30 10292 H 1860.5 8.47002 3.20749 0
M  V30 10293 H 1860.46 5.8885 -0.0765548 0
M  V30 10294 H 1860.84 1.60276 -2.32875 0
M  V30 10295 H 1861.03 -0.0699355 -1.73859 0
M  V30 10296 H 1861.14 0.165507 2.71897 0
M  V30 10297 P 1862.37 7.20834 5.23717 0
M  V30 10298 O 1862.59 7.79853 6.57286 0
M  V30 10299 O 1863.16 7.79239 4.12957 0
M  V30 10300 O 1862.62 5.63315 5.29344 0
M  V30 10301 C 1861.68 4.80255 6.01876 0
M  V30 10302 C 1862.41 3.64202 6.65911 0
M  V30 10303 O 1862.62 2.60694 5.64732 0
M  V30 10304 C 1863.81 3.93473 7.1943 0
M  V30 10305 O 1864.2 3.02071 8.21205 0
M  V30 10306 C 1864.69 3.73047 5.97036 0
M  V30 10307 C 1863.98 2.58828 5.25741 0
M  V30 10308 N 1864.03 2.68068 3.77503 0
M  V30 10309 C 1863.95 3.79715 2.96723 0
M  V30 10310 N 1864.03 3.5377 1.68852 0
M  V30 10311 C 1864.17 2.15054 1.63254 0
M  V30 10312 C 1864.3 1.28964 0.518571 0
M  V30 10313 O 1864.32 1.56826 -0.679156 0
M  V30 10314 N 1864.42 -0.0538097 0.918425 0
M  V30 10315 C 1864.42 -0.494275 2.22578 0
M  V30 10316 N 1864.55 -1.81086 2.40434 0
M  V30 10317 N 1864.29 0.313645 3.27502 0
M  V30 10318 C 1864.17 1.61829 2.91033 0
M  V30 10319 H 1861.19 5.40332 6.79951 0
M  V30 10320 H 1860.92 4.41613 5.32378 0
M  V30 10321 H 1861.79 3.26331 7.47797 0
M  V30 10322 H 1864.44 1.63422 5.56814 0
M  V30 10323 H 1864.72 4.63374 5.34244 0
M  V30 10324 H 1865.71 3.44728 6.25838 0
M  V30 10325 H 1863.88 4.96652 7.57263 0
M  V30 10326 H 1863.83 4.80617 3.3614 0
M  V30 10327 H 1864.51 -0.742702 0.199384 0
M  V30 10328 H 1864.55 -2.20598 3.35588 0
M  V30 10329 H 1864.65 -2.43518 1.58945 0
M  V30 10330 P 1865.75 2.75334 8.47391 0
M  V30 10331 O 1865.97 2.44619 9.90336 0
M  V30 10332 O 1866.54 3.87776 7.92294 0
M  V30 10333 O 1866 1.4459 7.59357 0
M  V30 10334 C 1865.06 0.347653 7.69315 0
M  V30 10335 C 1865.79 -0.96767 7.52806 0
M  V30 10336 O 1866 -1.21055 6.10208 0
M  V30 10337 C 1867.19 -1.04557 8.13408 0
M  V30 10338 O 1867.58 -2.38311 8.41922 0
M  V30 10339 C 1868.07 -0.491279 7.02284 0
M  V30 10340 C 1867.36 -0.996264 5.77469 0
M  V30 10341 N 1867.41 -0.0501916 4.62973 0
M  V30 10342 H 1864.57 0.374765 8.67791 0
M  V30 10343 H 1864.3 0.443613 6.90476 0
M  V30 10344 H 1865.17 -1.75559 7.96891 0
M  V30 10345 H 1867.82 -1.94563 5.46818 0
M  V30 10346 H 1868.1 0.608651 7.04676 0
M  V30 10347 H 1869.09 -0.889796 7.09039 0
M  V30 10348 H 1867.26 -0.433128 9.04664 0
M  V30 10349 P 1869.13 -2.75334 8.47391 0
M  V30 10350 O 1869.35 -3.84166 9.4489 0
M  V30 10351 O 1869.92 -1.51964 8.6881 0
M  V30 10352 O 1869.38 -3.29363 6.99321 0
M  V30 10353 C 1868.44 -4.23956 6.42656 0
M  V30 10354 C 1869.17 -5.20775 5.52155 0
M  V30 10355 O 1869.38 -4.56534 4.22446 0
M  V30 10356 C 1870.57 -5.62629 5.96531 0
M  V30 10357 O 1870.96 -6.87667 5.41053 0
M  V30 10358 C 1871.45 -4.52537 5.39283 0
M  V30 10359 C 1870.74 -4.20027 4.08623 0
M  V30 10360 N 1870.79 -2.7613 3.71522 0
M  V30 10361 C 1870.94 -2.45612 2.37989 0
M  V30 10362 O 1871.03 -3.30919 1.51621 0
M  V30 10363 N 1870.98 -1.10684 2.08435 0
M  V30 10364 C 1870.89 -0.0690084 2.9792 0
M  V30 10365 O 1870.94 1.10553 2.59426 0
M  V30 10366 C 1870.74 -0.481522 4.35345 0
M  V30 10367 C 1870.63 0.618778 5.36443 0
M  V30 10368 C 1870.69 -1.78906 4.67968 0
M  V30 10369 H 1867.95 -4.797 7.24003 0
M  V30 10370 H 1867.68 -3.69802 5.84429 0
M  V30 10371 H 1868.55 -6.10356 5.41441 0
M  V30 10372 H 1871.2 -4.78651 3.27911 0
M  V30 10373 H 1871.48 -3.64957 6.05871 0
M  V30 10374 H 1872.47 -4.8868 5.2125 0
M  V30 10375 H 1870.64 -5.66726 7.06352 0
M  V30 10376 H 1870.57 -2.07737 5.72367 0
M  V30 10377 H 1871.6 0.754375 5.86871 0
M  V30 10378 H 1869.86 0.359721 6.10641 0
M  V30 10379 H 1870.35 1.55533 4.8581 0
M  V30 10380 H 1871.08 -0.862651 1.12037 0
M  V30 10381 P 1872.51 -7.20834 5.23717 0
M  V30 10382 O 1872.73 -8.66274 5.38678 0
M  V30 10383 O 1873.3 -6.33687 6.13629 0
M  V30 10384 O 1872.76 -6.7751 3.72168 0
M  V30 10385 C 1871.82 -7.20919 2.70795 0
M  V30 10386 C 1872.55 -7.45864 1.40599 0
M  V30 10387 O 1872.76 -6.17751 0.734343 0
M  V30 10388 C 1873.95 -8.05906 1.51917 0
M  V30 10389 O 1874.34 -8.74358 0.335205 0
M  V30 10390 C 1874.83 -6.83093 1.70294 0
M  V30 10391 C 1874.12 -5.79992 0.836974 0
M  V30 10392 N 1874.17 -4.41864 1.38293 0
M  V30 10393 C 1874.09 -4.02089 2.69407 0
M  V30 10394 N 1874.16 -2.73403 2.85089 0
M  V30 10395 C 1874.31 -2.25086 1.5642 0
M  V30 10396 C 1874.44 -0.942887 1.04836 0
M  V30 10397 N 1874.45 0.150999 1.80369 0
M  V30 10398 N 1874.56 -0.812565 -0.28167 0
M  V30 10399 C 1874.55 -1.90572 -1.03784 0
M  V30 10400 N 1874.43 -3.167 -0.683905 0
M  V30 10401 C 1874.31 -3.26538 0.652815 0
M  V30 10402 H 1871.33 -8.13738 3.03804 0
M  V30 10403 H 1871.06 -6.42974 2.55559 0
M  V30 10404 H 1871.93 -8.12139 0.792866 0
M  V30 10405 H 1874.58 -5.80178 -0.160643 0
M  V30 10406 H 1874.86 -6.51379 2.75643 0
M  V30 10407 H 1875.85 -7.01832 1.3448 0
M  V30 10408 H 1874.02 -8.73771 2.38364 0
M  V30 10409 H 1873.98 -4.7189 3.52311 0
M  V30 10410 H 1874.36 0.0721434 2.82608 0
M  V30 10411 H 1874.55 1.0785 1.36544 0
M  V30 10412 H 1874.66 -1.73207 -2.10241 0
M  V30 10413 P 1875.89 -8.91 2.18046e-11 0
M  V30 10414 O 1876.11 -10.1726 -0.733694 0
M  V30 10415 O 1876.68 -8.73148 1.23936 0
M  V30 10416 O 1876.14 -7.66872 -0.971405 0
M  V30 10417 C 1875.2 -7.42309 -2.04641 0
M  V30 10418 C 1875.93 -6.86059 -3.24661 0
M  V30 10419 O 1876.14 -5.42847 -3.03646 0
M  V30 10420 C 1877.33 -7.41196 -3.50753 0
M  V30 10421 O 1877.72 -7.27073 -4.86816 0
M  V30 10422 C 1878.21 -6.5273 -2.63741 0
M  V30 10423 C 1877.5 -5.1842 -2.73198 0
M  V30 10424 N 1877.55 -4.38762 -1.4784 0
M  V30 10425 H 1874.71 -8.36803 -2.32493 0
M  V30 10426 H 1874.44 -6.70197 -1.71129 0
M  V30 10427 H 1875.31 -7.03551 -4.13168 0
M  V30 10428 P 1879.27 -7.20834 -5.23717 0
M  V30 10429 O 1879.49 -7.79853 -6.57286 0
M  V30 10430 O 1880.06 -7.79239 -4.12957 0
M  V30 10431 O 1879.52 -5.63315 -5.29344 0
M  V30 10432 C 1878.58 -4.80255 -6.01876 0
M  V30 10433 C 1879.31 -3.64202 -6.65911 0
M  V30 10434 O 1879.52 -2.60694 -5.64732 0
M  V30 10435 C 1880.71 -3.93473 -7.1943 0
M  V30 10436 O 1881.1 -3.02071 -8.21205 0
M  V30 10437 C 1881.59 -3.73047 -5.97036 0
M  V30 10438 C 1880.88 -2.58828 -5.25741 0
M  V30 10439 N 1880.93 -2.68068 -3.77503 0
M  V30 10440 H 1878.09 -5.40332 -6.79951 0
M  V30 10441 H 1877.82 -4.41613 -5.32378 0
M  V30 10442 H 1878.69 -3.26331 -7.47797 0
M  V30 10443 P 1882.65 -2.75334 -8.47391 0
M  V30 10444 O 1882.87 -2.44571 -9.90142 0
M  V30 10445 O 1883.44 -3.87688 -7.92115 0
M  V30 10446 O 1882.9 -1.4459 -7.59357 0
M  V30 10447 C 1881.96 -0.347608 -7.69215 0
M  V30 10448 C 1882.69 0.96767 -7.52806 0
M  V30 10449 O 1882.9 1.21036 -6.1011 0
M  V30 10450 C 1884.09 1.04544 -8.13308 0
M  V30 10451 O 1884.48 2.38311 -8.41922 0
M  V30 10452 C 1884.97 0.491279 -7.02284 0
M  V30 10453 C 1884.26 0.996264 -5.77469 0
M  V30 10454 N 1884.31 0.0501916 -4.62973 0
M  V30 10455 H 1881.47 -0.374722 -8.67691 0
M  V30 10456 H 1881.2 -0.443485 -6.90277 0
M  V30 10457 H 1882.07 1.75537 -7.96793 0
M  V30 10458 P 1886.03 2.75334 -8.47391 0
M  V30 10459 O 1886.25 3.84128 -9.44797 0
M  V30 10460 O 1886.82 1.51947 -8.68712 0
M  V30 10461 O 1886.28 3.29363 -6.99321 0
M  V30 10462 C 1885.34 4.24011 -6.4274 0
M  V30 10463 C 1886.07 5.20775 -5.52155 0
M  V30 10464 O 1886.28 4.56534 -4.22446 0
M  V30 10465 C 1887.47 5.62629 -5.96531 0
M  V30 10466 O 1887.86 6.87667 -5.41053 0
M  V30 10467 C 1888.35 4.52537 -5.39283 0
M  V30 10468 C 1887.64 4.20027 -4.08623 0
M  V30 10469 N 1887.69 2.76189 -3.71603 0
M  V30 10470 C 1887.61 1.64862 -4.52822 0
M  V30 10471 N 1887.69 0.512671 -3.88633 0
M  V30 10472 C 1887.83 0.888083 -2.54977 0
M  V30 10473 C 1887.96 0.094668 -1.38677 0
M  V30 10474 N 1888.08 0.890102 -0.232633 0
M  V30 10475 C 1888.08 2.26958 -0.21772 0
M  V30 10476 N 1888.21 2.84626 0.97925 0
M  V30 10477 N 1887.95 3.0178 -1.31033 0
M  V30 10478 C 1887.83 2.26781 -2.43843 0
M  V30 10479 H 1884.85 4.797 -7.24003 0
M  V30 10480 H 1884.58 3.69856 -5.84513 0
M  V30 10481 H 1885.45 6.10356 -5.41441 0
M  V30 10482 P 1889.41 7.20834 -5.23717 0
M  V30 10483 O 1889.63 8.66104 -5.38572 0
M  V30 10484 O 1890.2 6.33544 -6.1349 0
M  V30 10485 O 1889.66 6.7751 -3.72168 0
M  V30 10486 C 1888.72 7.20825 -2.7076 0
M  V30 10487 C 1889.45 7.45864 -1.40599 0
M  V30 10488 O 1889.66 6.17651 -0.734225 0
M  V30 10489 C 1890.85 8.05808 -1.51899 0
M  V30 10490 O 1891.24 8.74358 -0.335205 0
M  V30 10491 C 1891.73 6.83093 -1.70294 0
M  V30 10492 C 1891.02 5.79992 -0.836974 0
M  V30 10493 N 1891.07 4.41864 -1.38293 0
M  V30 10494 H 1888.23 8.13644 -3.0377 0
M  V30 10495 H 1887.96 6.42788 -2.55485 0
M  V30 10496 H 1888.83 8.12039 -0.792769 0
M  V30 10497 P 1892.79 8.91 -2.29136e-11 0
M  V30 10498 O 1893.01 10.1726 0.733694 0
M  V30 10499 O 1893.58 8.73148 -1.23936 0
M  V30 10500 O 1893.04 7.66872 0.971405 0
M  V30 10501 C 1892.1 7.42309 2.04641 0
M  V30 10502 C 1892.83 6.86059 3.24661 0
M  V30 10503 O 1893.04 5.42847 3.03646 0
M  V30 10504 C 1894.23 7.41196 3.50753 0
M  V30 10505 O 1894.62 7.27073 4.86816 0
M  V30 10506 C 1895.11 6.5273 2.63741 0
M  V30 10507 C 1894.4 5.1842 2.73198 0
M  V30 10508 N 1894.45 4.38762 1.4784 0
M  V30 10509 H 1891.61 8.36803 2.32493 0
M  V30 10510 H 1891.34 6.70197 1.71129 0
M  V30 10511 H 1892.21 7.03551 4.13168 0
M  V30 10512 P 1896.17 7.20834 5.23717 0
M  V30 10513 O 1896.39 7.79853 6.57286 0
M  V30 10514 O 1896.96 7.79239 4.12957 0
M  V30 10515 O 1896.42 5.63315 5.29344 0
M  V30 10516 C 1895.48 4.80255 6.01876 0
M  V30 10517 C 1896.21 3.64202 6.65911 0
M  V30 10518 O 1896.42 2.60694 5.64732 0
M  V30 10519 C 1897.61 3.93473 7.1943 0
M  V30 10520 O 1898 3.02071 8.21205 0
M  V30 10521 C 1898.49 3.73047 5.97036 0
M  V30 10522 C 1897.78 2.58828 5.25741 0
M  V30 10523 N 1897.83 2.68068 3.77503 0
M  V30 10524 H 1894.99 5.40332 6.79951 0
M  V30 10525 H 1894.72 4.41613 5.32378 0
M  V30 10526 H 1895.59 3.26331 7.47797 0
M  V30 10527 P 1899.55 2.75334 8.47391 0
M  V30 10528 O 1899.77 2.44571 9.90142 0
M  V30 10529 O 1900.34 3.87688 7.92115 0
M  V30 10530 O 1899.8 1.4459 7.59357 0
M  V30 10531 C 1898.86 0.347608 7.69215 0
M  V30 10532 C 1899.59 -0.96767 7.52806 0
M  V30 10533 O 1899.8 -1.21036 6.1011 0
M  V30 10534 C 1900.99 -1.04544 8.13308 0
M  V30 10535 O 1901.38 -2.38311 8.41922 0
M  V30 10536 C 1901.87 -0.491279 7.02284 0
M  V30 10537 C 1901.16 -0.996264 5.77469 0
M  V30 10538 N 1901.21 -0.0501916 4.62973 0
M  V30 10539 H 1898.37 0.374722 8.67691 0
M  V30 10540 H 1898.1 0.443485 6.90277 0
M  V30 10541 H 1898.97 -1.75537 7.96793 0
M  V30 10542 P 1902.93 -2.75334 8.47391 0
M  V30 10543 O 1903.15 -3.84128 9.44797 0
M  V30 10544 O 1903.72 -1.51947 8.68712 0
M  V30 10545 O 1903.18 -3.29363 6.99321 0
M  V30 10546 C 1902.24 -4.24011 6.4274 0
M  V30 10547 C 1902.97 -5.20775 5.52155 0
M  V30 10548 O 1903.18 -4.56534 4.22446 0
M  V30 10549 C 1904.37 -5.62629 5.96531 0
M  V30 10550 O 1904.76 -6.87667 5.41053 0
M  V30 10551 C 1905.25 -4.52537 5.39283 0
M  V30 10552 C 1904.54 -4.20027 4.08623 0
M  V30 10553 N 1904.59 -2.76189 3.71603 0
M  V30 10554 H 1901.75 -4.797 7.24003 0
M  V30 10555 H 1901.48 -3.69856 5.84513 0
M  V30 10556 H 1902.35 -6.10356 5.41441 0
M  V30 10557 P 1906.31 -7.20834 5.23717 0
M  V30 10558 O 1906.53 -8.66104 5.38572 0
M  V30 10559 O 1907.1 -6.33544 6.1349 0
M  V30 10560 O 1906.56 -6.7751 3.72168 0
M  V30 10561 C 1905.62 -7.20825 2.7076 0
M  V30 10562 C 1906.35 -7.45864 1.40599 0
M  V30 10563 O 1906.56 -6.17651 0.734225 0
M  V30 10564 C 1907.75 -8.05808 1.51899 0
M  V30 10565 O 1908.14 -8.74358 0.335205 0
M  V30 10566 C 1908.63 -6.83093 1.70294 0
M  V30 10567 C 1907.92 -5.79992 0.836974 0
M  V30 10568 N 1907.97 -4.41864 1.38293 0
M  V30 10569 H 1905.13 -8.13644 3.0377 0
M  V30 10570 H 1904.86 -6.42788 2.55485 0
M  V30 10571 H 1905.73 -8.12039 0.792769 0
M  V30 10572 P 1909.69 -8.91 2.40226e-11 0
M  V30 10573 O 1909.91 -10.1726 -0.733694 0
M  V30 10574 O 1910.48 -8.73148 1.23936 0
M  V30 10575 O 1909.94 -7.66872 -0.971405 0
M  V30 10576 C 1909 -7.42309 -2.04641 0
M  V30 10577 C 1909.73 -6.86059 -3.24661 0
M  V30 10578 O 1909.94 -5.42847 -3.03646 0
M  V30 10579 C 1911.13 -7.41196 -3.50753 0
M  V30 10580 O 1911.52 -7.27073 -4.86816 0
M  V30 10581 C 1912.01 -6.5273 -2.63741 0
M  V30 10582 C 1911.3 -5.1842 -2.73198 0
M  V30 10583 N 1911.35 -4.38762 -1.4784 0
M  V30 10584 H 1908.51 -8.36803 -2.32493 0
M  V30 10585 H 1908.24 -6.70197 -1.71129 0
M  V30 10586 H 1909.11 -7.03551 -4.13168 0
M  V30 10587 P 1913.07 -7.20834 -5.23717 0
M  V30 10588 O 1913.29 -7.7993 -6.57351 0
M  V30 10589 O 1913.86 -7.79328 -4.13004 0
M  V30 10590 O 1913.32 -5.63315 -5.29344 0
M  V30 10591 C 1912.38 -4.80193 -6.01798 0
M  V30 10592 C 1913.11 -3.64202 -6.65911 0
M  V30 10593 O 1913.32 -2.60694 -5.64732 0
M  V30 10594 C 1914.51 -3.93473 -7.1943 0
M  V30 10595 O 1914.9 -3.02071 -8.21205 0
M  V30 10596 C 1915.39 -3.73047 -5.97036 0
M  V30 10597 C 1914.68 -2.58828 -5.25741 0
M  V30 10598 N 1914.73 -2.6801 -3.77422 0
M  V30 10599 C 1914.88 -1.50443 -3.07133 0
M  V30 10600 O 1914.97 -0.419406 -3.61576 0
M  V30 10601 N 1914.92 -1.6403 -1.69677 0
M  V30 10602 C 1914.83 -2.81206 -0.986255 0
M  V30 10603 C 1914.68 -3.99158 -1.80325 0
M  V30 10604 C 1914.63 -3.89779 -3.1476 0
M  V30 10605 H 1911.89 -5.40332 -6.79951 0
M  V30 10606 H 1911.62 -4.41549 -5.32301 0
M  V30 10607 H 1912.49 -3.26331 -7.47797 0
M  V30 10608 H 1915.14 -1.6395 -5.56554 0
M  V30 10609 H 1915.42 -4.63439 -5.3432 0
M  V30 10610 H 1916.41 -3.44728 -6.25838 0
M  V30 10611 H 1914.58 -4.96652 -7.57263 0
M  V30 10612 H 1914.51 -4.80159 -3.74441 0
M  V30 10613 P 1916.45 -2.75334 -8.47391 0
M  V30 10614 O 1916.67 -2.44571 -9.90142 0
M  V30 10615 O 1917.24 -3.87688 -7.92115 0
M  V30 10616 O 1916.7 -1.4459 -7.59357 0
M  V30 10617 C 1915.76 -0.347608 -7.69215 0
M  V30 10618 C 1916.49 0.96767 -7.52806 0
M  V30 10619 O 1916.7 1.21036 -6.1011 0
M  V30 10620 C 1917.89 1.04544 -8.13308 0
M  V30 10621 O 1918.28 2.38311 -8.41922 0
M  V30 10622 C 1918.77 0.491279 -7.02284 0
M  V30 10623 C 1918.06 0.996264 -5.77469 0
M  V30 10624 N 1918.11 0.0501916 -4.62973 0
M  V30 10625 C 1918.03 -1.32786 -4.63244 0
M  V30 10626 N 1918.11 -1.86957 -3.44545 0
M  V30 10627 C 1918.25 -0.780241 -2.58481 0
M  V30 10628 C 1918.38 -0.738536 -1.17757 0
M  V30 10629 O 1918.4 -1.66794 -0.372349 0
M  V30 10630 N 1918.5 0.58337 -0.711393 0
M  V30 10631 C 1918.5 1.70816 -1.51017 0
M  V30 10632 N 1918.63 2.87826 -0.880757 0
M  V30 10633 N 1918.37 1.67126 -2.8339 0
M  V30 10634 C 1918.25 0.401421 -3.30572 0
M  V30 10635 H 1915.27 -0.374722 -8.67691 0
M  V30 10636 H 1915 -0.443485 -6.90277 0
M  V30 10637 H 1915.87 1.75537 -7.96793 0
M  V30 10638 H 1918.52 1.95076 -5.46529 0
M  V30 10639 H 1918.8 -0.608565 -7.04577 0
M  V30 10640 H 1919.79 0.889672 -7.08939 0
M  V30 10641 H 1917.96 0.43308 -9.04564 0
M  V30 10642 H 1917.91 -1.91249 -5.54442 0
M  V30 10643 H 1918.59 0.718054 0.275244 0
M  V30 10644 H 1918.63 3.75721 -1.41832 0
M  V30 10645 H 1918.73 2.90436 0.145468 0
M  V30 10646 P 1919.83 2.75334 -8.47391 0
M  V30 10647 O 1920.05 3.84204 -9.44982 0
M  V30 10648 O 1920.62 1.51982 -8.68909 0
M  V30 10649 O 1920.08 3.29363 -6.99321 0
M  V30 10650 C 1919.14 4.24066 -6.42823 0
M  V30 10651 C 1919.87 5.20775 -5.52155 0
M  V30 10652 O 1920.08 4.56607 -4.22514 0
M  V30 10653 C 1921.27 5.62697 -5.96604 0
M  V30 10654 O 1921.66 6.87667 -5.41053 0
M  V30 10655 C 1922.15 4.52537 -5.39283 0
M  V30 10656 C 1921.44 4.20027 -4.08623 0
M  V30 10657 N 1921.49 2.76189 -3.71603 0
M  V30 10658 C 1921.41 1.66944 -4.54297 0
M  V30 10659 N 1921.48 0.536169 -3.91344 0
M  V30 10660 C 1921.63 0.901569 -2.58849 0
M  V30 10661 C 1921.76 0.146599 -1.40236 0
M  V30 10662 N 1921.77 -1.18234 -1.37046 0
M  V30 10663 N 1921.88 0.822941 -0.249738 0
M  V30 10664 C 1921.87 2.15179 -0.280525 0
M  V30 10665 N 1921.75 2.96414 -1.30822 0
M  V30 10666 C 1921.63 2.25804 -2.44748 0
M  V30 10667 H 1918.65 4.79756 -7.24086 0
M  V30 10668 H 1918.38 3.69963 -5.84682 0
M  V30 10669 H 1919.25 6.10431 -5.41508 0
M  V30 10670 H 1921.9 4.78816 -3.28024 0
M  V30 10671 H 1922.18 3.64957 -6.05871 0
M  V30 10672 H 1923.17 4.88748 -5.21323 0
M  V30 10673 H 1921.34 5.66789 -7.0643 0
M  V30 10674 H 1921.3 1.74684 -5.62396 0
M  V30 10675 H 1921.68 -1.71949 -2.24394 0
M  V30 10676 H 1921.87 -1.67511 -0.470742 0
M  V30 10677 H 1921.98 2.63704 0.6828 0
M  V30 10678 P 1923.21 7.20834 -5.23717 0
M  V30 10679 O 1923.43 8.66104 -5.38572 0
M  V30 10680 O 1924 6.33544 -6.1349 0
M  V30 10681 O 1923.46 6.7751 -3.72168 0
M  V30 10682 C 1922.52 7.20825 -2.7076 0
M  V30 10683 C 1923.25 7.45864 -1.40599 0
M  V30 10684 O 1923.46 6.17651 -0.734225 0
M  V30 10685 C 1924.65 8.05808 -1.51899 0
M  V30 10686 O 1925.04 8.74358 -0.335205 0
M  V30 10687 C 1925.53 6.83093 -1.70294 0
M  V30 10688 C 1924.82 5.79992 -0.836974 0
M  V30 10689 N 1924.87 4.41864 -1.38293 0
M  V30 10690 H 1922.03 8.13644 -3.0377 0
M  V30 10691 H 1921.76 6.42788 -2.55485 0
M  V30 10692 H 1922.63 8.12039 -0.792769 0
M  V30 10693 P 1926.59 8.91 -2.51316e-11 0
M  V30 10694 O 1926.81 10.1726 0.733694 0
M  V30 10695 O 1927.38 8.73148 -1.23936 0
M  V30 10696 O 1926.84 7.66872 0.971405 0
M  V30 10697 C 1925.9 7.42309 2.04641 0
M  V30 10698 C 1926.63 6.86059 3.24661 0
M  V30 10699 O 1926.84 5.42847 3.03646 0
M  V30 10700 C 1928.03 7.41196 3.50753 0
M  V30 10701 O 1928.42 7.27073 4.86816 0
M  V30 10702 C 1928.91 6.5273 2.63741 0
M  V30 10703 C 1928.2 5.1842 2.73198 0
M  V30 10704 N 1928.25 4.38762 1.4784 0
M  V30 10705 C 1928.17 4.81605 0.168631 0
M  V30 10706 N 1928.25 3.85454 -0.713363 0
M  V30 10707 C 1928.39 2.6994 0.0566958 0
M  V30 10708 C 1928.52 1.34815 -0.338502 0
M  V30 10709 O 1928.54 0.869548 -1.47125 0
M  V30 10710 N 1928.64 0.496304 0.77465 0
M  V30 10711 C 1928.64 0.908403 2.09122 0
M  V30 10712 N 1928.77 -0.0517805 3.00955 0
M  V30 10713 N 1928.51 2.17875 2.46519 0
M  V30 10714 C 1928.39 3.01988 1.4033 0
M  V30 10715 H 1925.41 8.36803 2.32493 0
M  V30 10716 H 1925.14 6.70197 1.71129 0
M  V30 10717 H 1926.01 7.03551 4.13168 0
M  V30 10718 H 1928.66 4.59498 3.54415 0
M  V30 10719 H 1928.94 6.88898 1.59848 0
M  V30 10720 H 1929.93 6.46749 3.03687 0
M  V30 10721 H 1928.1 8.46908 3.20714 0
M  V30 10722 H 1928.05 5.86405 -0.105564 0
M  V30 10723 H 1928.73 -0.483664 0.597855 0
M  V30 10724 H 1928.77 0.187865 4.0116 0
M  V30 10725 H 1928.87 -1.03585 2.71726 0
M  V30 10726 P 1929.97 7.20834 5.23717 0
M  V30 10727 O 1930.19 7.79853 6.57286 0
M  V30 10728 O 1930.76 7.79239 4.12957 0
M  V30 10729 O 1930.22 5.63315 5.29344 0
M  V30 10730 C 1929.28 4.80255 6.01876 0
M  V30 10731 C 1930.01 3.64202 6.65911 0
M  V30 10732 O 1930.22 2.60694 5.64732 0
M  V30 10733 C 1931.41 3.93473 7.1943 0
M  V30 10734 O 1931.8 3.02071 8.21205 0
M  V30 10735 C 1932.29 3.73047 5.97036 0
M  V30 10736 C 1931.58 2.58828 5.25741 0
M  V30 10737 N 1931.63 2.68068 3.77503 0
M  V30 10738 H 1928.79 5.40332 6.79951 0
M  V30 10739 H 1928.52 4.41613 5.32378 0
M  V30 10740 H 1929.39 3.26331 7.47797 0
M  V30 10741 P 1933.35 2.75334 8.47391 0
M  V30 10742 O 1933.57 2.44571 9.90142 0
M  V30 10743 O 1934.14 3.87688 7.92115 0
M  V30 10744 O 1933.6 1.4459 7.59357 0
M  V30 10745 C 1932.66 0.347608 7.69215 0
M  V30 10746 C 1933.39 -0.96767 7.52806 0
M  V30 10747 O 1933.6 -1.21036 6.1011 0
M  V30 10748 C 1934.79 -1.04544 8.13308 0
M  V30 10749 O 1935.18 -2.38311 8.41922 0
M  V30 10750 C 1935.67 -0.491279 7.02284 0
M  V30 10751 C 1934.96 -0.996264 5.77469 0
M  V30 10752 N 1935.01 -0.0501916 4.62973 0
M  V30 10753 H 1932.17 0.374722 8.67691 0
M  V30 10754 H 1931.9 0.443485 6.90277 0
M  V30 10755 H 1932.77 -1.75537 7.96793 0
M  V30 10756 P 1936.73 -2.75334 8.47391 0
M  V30 10757 O 1936.95 -3.84204 9.44982 0
M  V30 10758 O 1937.52 -1.51982 8.68909 0
M  V30 10759 O 1936.98 -3.29363 6.99321 0
M  V30 10760 C 1936.04 -4.24066 6.42823 0
M  V30 10761 C 1936.77 -5.20775 5.52155 0
M  V30 10762 O 1936.98 -4.56607 4.22514 0
M  V30 10763 C 1938.17 -5.62697 5.96604 0
M  V30 10764 O 1938.56 -6.87667 5.41053 0
M  V30 10765 C 1939.05 -4.52537 5.39283 0
M  V30 10766 C 1938.34 -4.20027 4.08623 0
M  V30 10767 N 1938.39 -2.76189 3.71603 0
M  V30 10768 H 1935.55 -4.79756 7.24086 0
M  V30 10769 H 1935.28 -3.69963 5.84682 0
M  V30 10770 H 1936.15 -6.10431 5.41508 0
M  V30 10771 H 1938.8 -4.78816 3.28024 0
M  V30 10772 H 1939.08 -3.64957 6.05871 0
M  V30 10773 H 1940.07 -4.88748 5.21323 0
M  V30 10774 H 1938.24 -5.66789 7.0643 0
M  V30 10775 P 1940.11 -7.20834 5.23717 0
M  V30 10776 O 1940.33 -8.66104 5.38572 0
M  V30 10777 O 1940.9 -6.33544 6.1349 0
M  V30 10778 O 1940.36 -6.7751 3.72168 0
M  V30 10779 C 1939.42 -7.20825 2.7076 0
M  V30 10780 C 1940.15 -7.45864 1.40599 0
M  V30 10781 O 1940.36 -6.17651 0.734225 0
M  V30 10782 C 1941.55 -8.05808 1.51899 0
M  V30 10783 O 1941.94 -8.74358 0.335205 0
M  V30 10784 C 1942.43 -6.83093 1.70294 0
M  V30 10785 C 1941.72 -5.79992 0.836974 0
M  V30 10786 N 1941.77 -4.41864 1.38293 0
M  V30 10787 H 1938.93 -8.13644 3.0377 0
M  V30 10788 H 1938.66 -6.42788 2.55485 0
M  V30 10789 H 1939.53 -8.12039 0.792769 0
M  V30 10790 P 1943.49 -8.91 2.62406e-11 0
M  V30 10791 O 1943.71 -10.1726 -0.733694 0
M  V30 10792 O 1944.28 -8.73148 1.23936 0
M  V30 10793 O 1943.74 -7.66872 -0.971405 0
M  V30 10794 C 1942.8 -7.42309 -2.04641 0
M  V30 10795 C 1943.53 -6.86059 -3.24661 0
M  V30 10796 O 1943.74 -5.42847 -3.03646 0
M  V30 10797 C 1944.93 -7.41196 -3.50753 0
M  V30 10798 O 1945.32 -7.27073 -4.86816 0
M  V30 10799 C 1945.81 -6.5273 -2.63741 0
M  V30 10800 C 1945.1 -5.1842 -2.73198 0
M  V30 10801 N 1945.15 -4.38762 -1.4784 0
M  V30 10802 C 1945.07 -4.81605 -0.168631 0
M  V30 10803 N 1945.15 -3.85454 0.713363 0
M  V30 10804 C 1945.29 -2.6994 -0.0566958 0
M  V30 10805 C 1945.42 -1.34815 0.338502 0
M  V30 10806 N 1945.54 -0.496304 -0.77465 0
M  V30 10807 C 1945.54 -0.908403 -2.09122 0
M  V30 10808 N 1945.67 0.0517805 -3.00955 0
M  V30 10809 N 1945.41 -2.17875 -2.46519 0
M  V30 10810 C 1945.29 -3.01988 -1.4033 0
M  V30 10811 H 1942.31 -8.36803 -2.32493 0
M  V30 10812 H 1942.04 -6.70197 -1.71129 0
M  V30 10813 H 1942.91 -7.03551 -4.13168 0
M  V30 10814 P 1946.87 -7.20834 -5.23717 0
M  V30 10815 O 1947.09 -7.7993 -6.57351 0
M  V30 10816 O 1947.66 -7.79328 -4.13004 0
M  V30 10817 O 1947.12 -5.63315 -5.29344 0
M  V30 10818 C 1946.18 -4.80193 -6.01798 0
M  V30 10819 C 1946.91 -3.64202 -6.65911 0
M  V30 10820 O 1947.12 -2.60694 -5.64732 0
M  V30 10821 C 1948.31 -3.93473 -7.1943 0
M  V30 10822 O 1948.7 -3.02071 -8.21205 0
M  V30 10823 C 1949.19 -3.73047 -5.97036 0
M  V30 10824 C 1948.48 -2.58828 -5.25741 0
M  V30 10825 N 1948.53 -2.6801 -3.77422 0
M  V30 10826 C 1948.68 -1.50443 -3.07133 0
M  V30 10827 O 1948.77 -0.419406 -3.61576 0
M  V30 10828 N 1948.72 -1.6403 -1.69677 0
M  V30 10829 C 1948.63 -2.81206 -0.986255 0
M  V30 10830 C 1948.48 -3.99158 -1.80325 0
M  V30 10831 C 1948.43 -3.89779 -3.1476 0
M  V30 10832 H 1945.69 -5.40332 -6.79951 0
M  V30 10833 H 1945.42 -4.41549 -5.32301 0
M  V30 10834 H 1946.29 -3.26331 -7.47797 0
M  V30 10835 H 1948.94 -1.6395 -5.56554 0
M  V30 10836 H 1949.22 -4.63439 -5.3432 0
M  V30 10837 H 1950.21 -3.44728 -6.25838 0
M  V30 10838 H 1948.38 -4.96652 -7.57263 0
M  V30 10839 H 1948.31 -4.80159 -3.74441 0
M  V30 10840 P 1950.25 -2.75334 -8.47391 0
M  V30 10841 O 1950.47 -2.44595 -9.90239 0
M  V30 10842 O 1951.04 -3.87732 -7.92204 0
M  V30 10843 O 1950.5 -1.4459 -7.59357 0
M  V30 10844 C 1949.56 -0.347563 -7.69115 0
M  V30 10845 C 1950.29 0.96767 -7.52806 0
M  V30 10846 O 1950.5 1.21036 -6.1011 0
M  V30 10847 C 1951.69 1.04544 -8.13308 0
M  V30 10848 O 1952.08 2.38311 -8.41922 0
M  V30 10849 C 1952.57 0.491279 -7.02284 0
M  V30 10850 C 1951.86 0.996264 -5.77469 0
M  V30 10851 N 1951.91 0.0501808 -4.62873 0
M  V30 10852 C 1952.06 0.588177 -3.36904 0
M  V30 10853 O 1952.15 1.78598 -3.17173 0
M  V30 10854 N 1952.1 -0.329694 -2.33686 0
M  V30 10855 C 1952.01 -1.6953 -2.45079 0
M  V30 10856 C 1951.86 -2.16933 -3.80505 0
M  V30 10857 C 1951.81 -1.30326 -4.83752 0
M  V30 10858 H 1949.07 -0.374722 -8.67691 0
M  V30 10859 H 1948.8 -0.443421 -6.90177 0
M  V30 10860 H 1949.67 1.75537 -7.96793 0
M  V30 10861 H 1952.32 1.94496 -5.46629 0
M  V30 10862 H 1952.6 -0.608651 -7.04676 0
M  V30 10863 H 1953.59 0.889672 -7.08939 0
M  V30 10864 H 1951.76 0.43308 -9.04564 0
M  V30 10865 H 1951.69 -1.68366 -5.8516 0
M  V30 10866 P 1953.63 2.75334 -8.47391 0
M  V30 10867 O 1953.85 3.84128 -9.44797 0
M  V30 10868 O 1954.42 1.51947 -8.68712 0
M  V30 10869 O 1953.88 3.29363 -6.99321 0
M  V30 10870 C 1952.94 4.24011 -6.4274 0
M  V30 10871 C 1953.67 5.20775 -5.52155 0
M  V30 10872 O 1953.88 4.56534 -4.22446 0
M  V30 10873 C 1955.07 5.62629 -5.96531 0
M  V30 10874 O 1955.46 6.87667 -5.41053 0
M  V30 10875 C 1955.95 4.52537 -5.39283 0
M  V30 10876 C 1955.24 4.20027 -4.08623 0
M  V30 10877 N 1955.29 2.76189 -3.71603 0
M  V30 10878 H 1952.45 4.797 -7.24003 0
M  V30 10879 H 1952.18 3.69856 -5.84513 0
M  V30 10880 H 1953.05 6.10356 -5.41441 0
M  V30 10881 P 1957.01 7.20834 -5.23717 0
M  V30 10882 O 1957.23 8.66104 -5.38572 0
M  V30 10883 O 1957.8 6.33544 -6.1349 0
M  V30 10884 O 1957.26 6.7751 -3.72168 0
M  V30 10885 C 1956.32 7.20825 -2.7076 0
M  V30 10886 C 1957.05 7.45864 -1.40599 0
M  V30 10887 O 1957.26 6.17651 -0.734225 0
M  V30 10888 C 1958.45 8.05808 -1.51899 0
M  V30 10889 O 1958.84 8.74358 -0.335205 0
M  V30 10890 C 1959.33 6.83093 -1.70294 0
M  V30 10891 C 1958.62 5.79992 -0.836974 0
M  V30 10892 N 1958.67 4.41864 -1.38293 0
M  V30 10893 H 1955.83 8.13644 -3.0377 0
M  V30 10894 H 1955.56 6.42788 -2.55485 0
M  V30 10895 H 1956.43 8.12039 -0.792769 0
M  V30 10896 P 1960.39 8.91 -2.73496e-11 0
M  V30 10897 O 1960.61 10.1726 0.733694 0
M  V30 10898 O 1961.18 8.73148 -1.23936 0
M  V30 10899 O 1960.64 7.66872 0.971405 0
M  V30 10900 C 1959.7 7.42309 2.04641 0
M  V30 10901 C 1960.43 6.86059 3.24661 0
M  V30 10902 O 1960.64 5.42847 3.03646 0
M  V30 10903 C 1961.83 7.41196 3.50753 0
M  V30 10904 O 1962.22 7.27073 4.86816 0
M  V30 10905 C 1962.71 6.5273 2.63741 0
M  V30 10906 C 1962 5.1842 2.73198 0
M  V30 10907 N 1962.05 4.38762 1.4784 0
M  V30 10908 C 1961.97 4.81605 0.168631 0
M  V30 10909 N 1962.05 3.85454 -0.713363 0
M  V30 10910 C 1962.19 2.6994 0.0566958 0
M  V30 10911 C 1962.32 1.34815 -0.338502 0
M  V30 10912 N 1962.44 0.496304 0.77465 0
M  V30 10913 C 1962.44 0.908403 2.09122 0
M  V30 10914 N 1962.57 -0.0517805 3.00955 0
M  V30 10915 N 1962.31 2.17875 2.46519 0
M  V30 10916 C 1962.19 3.01988 1.4033 0
M  V30 10917 H 1959.21 8.36803 2.32493 0
M  V30 10918 H 1958.94 6.70197 1.71129 0
M  V30 10919 H 1959.81 7.03551 4.13168 0
M  V30 10920 P 1963.77 7.20834 5.23717 0
M  V30 10921 O 1963.99 7.79853 6.57286 0
M  V30 10922 O 1964.56 7.79239 4.12957 0
M  V30 10923 O 1964.02 5.63315 5.29344 0
M  V30 10924 C 1963.08 4.80255 6.01876 0
M  V30 10925 C 1963.81 3.64202 6.65911 0
M  V30 10926 O 1964.02 2.60694 5.64732 0
M  V30 10927 C 1965.21 3.93473 7.1943 0
M  V30 10928 O 1965.6 3.02071 8.21205 0
M  V30 10929 C 1966.09 3.73047 5.97036 0
M  V30 10930 C 1965.38 2.58828 5.25741 0
M  V30 10931 N 1965.43 2.68068 3.77503 0
M  V30 10932 H 1962.59 5.40332 6.79951 0
M  V30 10933 H 1962.32 4.41613 5.32378 0
M  V30 10934 H 1963.19 3.26331 7.47797 0
M  V30 10935 P 1967.15 2.75334 8.47391 0
M  V30 10936 O 1967.37 2.44619 9.90336 0
M  V30 10937 O 1967.94 3.87776 7.92294 0
M  V30 10938 O 1967.4 1.4459 7.59357 0
M  V30 10939 C 1966.46 0.347653 7.69315 0
M  V30 10940 C 1967.19 -0.96767 7.52806 0
M  V30 10941 O 1967.4 -1.21055 6.10208 0
M  V30 10942 C 1968.59 -1.04557 8.13408 0
M  V30 10943 O 1968.98 -2.38311 8.41922 0
M  V30 10944 C 1969.47 -0.491279 7.02284 0
M  V30 10945 C 1968.76 -0.996264 5.77469 0
M  V30 10946 N 1968.81 -0.0501916 4.62973 0
M  V30 10947 C 1968.73 1.31969 4.65661 0
M  V30 10948 N 1968.8 1.86649 3.48119 0
M  V30 10949 C 1968.95 0.792089 2.62406 0
M  V30 10950 C 1969.08 0.705684 1.2207 0
M  V30 10951 N 1969.09 1.76207 0.413762 0
M  V30 10952 N 1969.2 -0.518981 0.685754 0
M  V30 10953 C 1969.19 -1.57595 1.49174 0
M  V30 10954 N 1969.07 -1.62909 2.80066 0
M  V30 10955 C 1968.95 -0.388195 3.3073 0
M  V30 10956 H 1965.97 0.374765 8.67791 0
M  V30 10957 H 1965.7 0.443613 6.90476 0
M  V30 10958 H 1966.57 -1.75559 7.96891 0
M  V30 10959 H 1969.22 -1.94563 5.46818 0
M  V30 10960 H 1969.5 0.608651 7.04676 0
M  V30 10961 H 1970.49 -0.889796 7.09039 0
M  V30 10962 H 1968.66 -0.433128 9.04664 0
M  V30 10963 H 1968.62 1.89246 5.57664 0
M  V30 10964 H 1969 2.71005 0.804694 0
M  V30 10965 H 1969.19 1.63189 -0.603768 0
M  V30 10966 H 1969.3 -2.53475 0.997614 0
M  V30 10967 P 1970.53 -2.75334 8.47391 0
M  V30 10968 O 1970.75 -3.84166 9.4489 0
M  V30 10969 O 1971.32 -1.51964 8.6881 0
M  V30 10970 O 1970.78 -3.29363 6.99321 0
M  V30 10971 C 1969.84 -4.23956 6.42656 0
M  V30 10972 C 1970.57 -5.20775 5.52155 0
M  V30 10973 O 1970.78 -4.56534 4.22446 0
M  V30 10974 C 1971.97 -5.62629 5.96531 0
M  V30 10975 O 1972.36 -6.87667 5.41053 0
M  V30 10976 C 1972.85 -4.52537 5.39283 0
M  V30 10977 C 1972.14 -4.20027 4.08623 0
M  V30 10978 N 1972.19 -2.7613 3.71522 0
M  V30 10979 C 1972.34 -2.45612 2.37989 0
M  V30 10980 O 1972.43 -3.30919 1.51621 0
M  V30 10981 N 1972.38 -1.10684 2.08435 0
M  V30 10982 C 1972.29 -0.0690084 2.9792 0
M  V30 10983 O 1972.34 1.10553 2.59426 0
M  V30 10984 C 1972.14 -0.481522 4.35345 0
M  V30 10985 C 1972.03 0.618778 5.36443 0
M  V30 10986 C 1972.09 -1.78906 4.67968 0
M  V30 10987 H 1969.35 -4.797 7.24003 0
M  V30 10988 H 1969.08 -3.69802 5.84429 0
M  V30 10989 H 1969.95 -6.10356 5.41441 0
M  V30 10990 H 1972.6 -4.78651 3.27911 0
M  V30 10991 H 1972.88 -3.64957 6.05871 0
M  V30 10992 H 1973.87 -4.8868 5.2125 0
M  V30 10993 H 1972.04 -5.66726 7.06352 0
M  V30 10994 H 1971.97 -2.07737 5.72367 0
M  V30 10995 H 1973 0.754375 5.86871 0
M  V30 10996 H 1971.26 0.359721 6.10641 0
M  V30 10997 H 1971.75 1.55533 4.8581 0
M  V30 10998 H 1972.48 -0.862651 1.12037 0
M  V30 10999 P 1973.91 -7.20834 5.23717 0
M  V30 11000 O 1974.13 -8.66274 5.38678 0
M  V30 11001 O 1974.7 -6.33687 6.13629 0
M  V30 11002 O 1974.16 -6.7751 3.72168 0
M  V30 11003 C 1973.22 -7.20919 2.70795 0
M  V30 11004 C 1973.95 -7.45864 1.40599 0
M  V30 11005 O 1974.16 -6.17751 0.734343 0
M  V30 11006 C 1975.35 -8.05906 1.51917 0
M  V30 11007 O 1975.74 -8.74358 0.335205 0
M  V30 11008 C 1976.23 -6.83093 1.70294 0
M  V30 11009 C 1975.52 -5.79992 0.836974 0
M  V30 11010 N 1975.57 -4.41864 1.38293 0
M  V30 11011 C 1975.49 -4.02089 2.69407 0
M  V30 11012 N 1975.56 -2.73403 2.85089 0
M  V30 11013 C 1975.71 -2.25086 1.5642 0
M  V30 11014 C 1975.84 -0.942887 1.04836 0
M  V30 11015 N 1975.85 0.150999 1.80369 0
M  V30 11016 N 1975.96 -0.812565 -0.28167 0
M  V30 11017 C 1975.95 -1.90572 -1.03784 0
M  V30 11018 N 1975.83 -3.167 -0.683905 0
M  V30 11019 C 1975.71 -3.26538 0.652815 0
M  V30 11020 H 1972.73 -8.13738 3.03804 0
M  V30 11021 H 1972.46 -6.42974 2.55559 0
M  V30 11022 H 1973.33 -8.12139 0.792866 0
M  V30 11023 H 1975.98 -5.80178 -0.160643 0
M  V30 11024 H 1976.26 -6.51379 2.75643 0
M  V30 11025 H 1977.25 -7.01832 1.3448 0
M  V30 11026 H 1975.42 -8.73771 2.38364 0
M  V30 11027 H 1975.38 -4.7189 3.52311 0
M  V30 11028 H 1975.76 0.0721434 2.82608 0
M  V30 11029 H 1975.95 1.0785 1.36544 0
M  V30 11030 H 1976.06 -1.73207 -2.10241 0
M  V30 11031 P 1977.29 -8.91 2.84586e-11 0
M  V30 11032 O 1977.51 -10.1726 -0.733694 0
M  V30 11033 O 1978.08 -8.73148 1.23936 0
M  V30 11034 O 1977.54 -7.66872 -0.971405 0
M  V30 11035 C 1976.6 -7.42309 -2.04641 0
M  V30 11036 C 1977.33 -6.86059 -3.24661 0
M  V30 11037 O 1977.54 -5.42847 -3.03646 0
M  V30 11038 C 1978.73 -7.41196 -3.50753 0
M  V30 11039 O 1979.12 -7.27073 -4.86816 0
M  V30 11040 C 1979.61 -6.5273 -2.63741 0
M  V30 11041 C 1978.9 -5.1842 -2.73198 0
M  V30 11042 N 1978.95 -4.38762 -1.4784 0
M  V30 11043 H 1976.11 -8.36803 -2.32493 0
M  V30 11044 H 1975.84 -6.70197 -1.71129 0
M  V30 11045 H 1976.71 -7.03551 -4.13168 0
M  V30 11046 P 1980.67 -7.20834 -5.23717 0
M  V30 11047 O 1980.89 -7.7993 -6.57351 0
M  V30 11048 O 1981.46 -7.79328 -4.13004 0
M  V30 11049 O 1980.92 -5.63315 -5.29344 0
M  V30 11050 C 1979.98 -4.80193 -6.01798 0
M  V30 11051 C 1980.71 -3.64202 -6.65911 0
M  V30 11052 O 1980.92 -2.60694 -5.64732 0
M  V30 11053 C 1982.11 -3.93473 -7.1943 0
M  V30 11054 O 1982.5 -3.02071 -8.21205 0
M  V30 11055 C 1982.99 -3.73047 -5.97036 0
M  V30 11056 C 1982.28 -2.58828 -5.25741 0
M  V30 11057 N 1982.33 -2.6801 -3.77422 0
M  V30 11058 C 1982.48 -1.50443 -3.07133 0
M  V30 11059 O 1982.57 -0.419406 -3.61576 0
M  V30 11060 N 1982.52 -1.6403 -1.69677 0
M  V30 11061 C 1982.43 -2.81206 -0.986255 0
M  V30 11062 O 1982.48 -2.80892 0.249754 0
M  V30 11063 C 1982.28 -3.99158 -1.80325 0
M  V30 11064 C 1982.17 -5.29309 -1.06921 0
M  V30 11065 C 1982.23 -3.89779 -3.1476 0
M  V30 11066 H 1979.49 -5.40332 -6.79951 0
M  V30 11067 H 1979.22 -4.41549 -5.32301 0
M  V30 11068 H 1980.09 -3.26331 -7.47797 0
M  V30 11069 H 1982.74 -1.6395 -5.56554 0
M  V30 11070 H 1983.02 -4.63439 -5.3432 0
M  V30 11071 H 1984.01 -3.44728 -6.25838 0
M  V30 11072 H 1982.18 -4.96652 -7.57263 0
M  V30 11073 H 1982.11 -4.80159 -3.74441 0
M  V30 11074 H 1983.14 -5.81459 -1.09608 0
M  V30 11075 H 1981.4 -5.9187 -1.54487 0
M  V30 11076 H 1981.89 -5.10095 -0.0220288 0
M  V30 11077 H 1982.62 -0.798962 -1.16664 0
M  V30 11078 P 1984.05 -2.75334 -8.47391 0
M  V30 11079 O 1984.27 -2.44595 -9.90239 0
M  V30 11080 O 1984.84 -3.87732 -7.92204 0
M  V30 11081 O 1984.3 -1.4459 -7.59357 0
M  V30 11082 C 1983.36 -0.347563 -7.69115 0
M  V30 11083 C 1984.09 0.96767 -7.52806 0
M  V30 11084 O 1984.3 1.21036 -6.1011 0
M  V30 11085 C 1985.49 1.04544 -8.13308 0
M  V30 11086 O 1985.88 2.38311 -8.41922 0
M  V30 11087 C 1986.37 0.491279 -7.02284 0
M  V30 11088 C 1985.66 0.996264 -5.77469 0
M  V30 11089 N 1985.71 0.0501808 -4.62873 0
M  V30 11090 C 1985.86 0.588177 -3.36904 0
M  V30 11091 O 1985.95 1.78598 -3.17173 0
M  V30 11092 N 1985.9 -0.329694 -2.33686 0
M  V30 11093 C 1985.81 -1.6953 -2.45079 0
M  V30 11094 O 1985.86 -2.41926 -1.44899 0
M  V30 11095 C 1985.66 -2.16933 -3.80505 0
M  V30 11096 C 1985.55 -3.65373 -3.97621 0
M  V30 11097 C 1985.61 -1.30326 -4.83752 0
M  V30 11098 H 1982.87 -0.374722 -8.67691 0
M  V30 11099 H 1982.6 -0.443421 -6.90177 0
M  V30 11100 H 1983.47 1.75537 -7.96793 0
M  V30 11101 H 1986.12 1.94496 -5.46629 0
M  V30 11102 H 1986.4 -0.608651 -7.04676 0
M  V30 11103 H 1987.39 0.889672 -7.08939 0
M  V30 11104 H 1985.56 0.43308 -9.04564 0
M  V30 11105 H 1985.49 -1.68366 -5.8516 0
M  V30 11106 H 1986.52 -4.05985 -4.30448 0
M  V30 11107 H 1984.78 -3.88028 -4.72875 0
M  V30 11108 H 1985.27 -4.11381 -3.01609 0
M  V30 11109 H 1986 0.0393617 -1.41345 0
M  V30 11110 P 1987.43 2.75334 -8.47391 0
M  V30 11111 O 1987.65 3.84128 -9.44797 0
M  V30 11112 O 1988.22 1.51947 -8.68712 0
M  V30 11113 O 1987.68 3.29363 -6.99321 0
M  V30 11114 C 1986.74 4.24011 -6.4274 0
M  V30 11115 C 1987.47 5.20775 -5.52155 0
M  V30 11116 O 1987.68 4.56534 -4.22446 0
M  V30 11117 C 1988.87 5.62629 -5.96531 0
M  V30 11118 O 1989.26 6.87667 -5.41053 0
M  V30 11119 C 1989.75 4.52537 -5.39283 0
M  V30 11120 C 1989.04 4.20027 -4.08623 0
M  V30 11121 N 1989.09 2.76189 -3.71603 0
M  V30 11122 H 1986.25 4.797 -7.24003 0
M  V30 11123 H 1985.98 3.69856 -5.84513 0
M  V30 11124 H 1986.85 6.10356 -5.41441 0
M  V30 11125 P 1990.81 7.20834 -5.23717 0
M  V30 11126 O 1991.03 8.66104 -5.38572 0
M  V30 11127 O 1991.6 6.33544 -6.1349 0
M  V30 11128 O 1991.06 6.7751 -3.72168 0
M  V30 11129 C 1990.12 7.20825 -2.7076 0
M  V30 11130 C 1990.85 7.45864 -1.40599 0
M  V30 11131 O 1991.06 6.17651 -0.734225 0
M  V30 11132 C 1992.25 8.05808 -1.51899 0
M  V30 11133 O 1992.64 8.74358 -0.335205 0
M  V30 11134 C 1993.13 6.83093 -1.70294 0
M  V30 11135 C 1992.42 5.79992 -0.836974 0
M  V30 11136 N 1992.47 4.41864 -1.38293 0
M  V30 11137 C 1992.39 3.99538 -2.69438 0
M  V30 11138 N 1992.47 2.69909 -2.84277 0
M  V30 11139 C 1992.61 2.21719 -1.5408 0
M  V30 11140 C 1992.74 0.891712 -1.06628 0
M  V30 11141 O 1992.76 -0.161298 -1.70137 0
M  V30 11142 N 1992.86 0.856846 0.334985 0
M  V30 11143 C 1992.86 1.9641 1.15789 0
M  V30 11144 N 1992.99 1.72708 2.46522 0
M  V30 11145 N 1992.73 3.21165 0.713741 0
M  V30 11146 C 1992.61 3.26797 -0.639748 0
M  V30 11147 H 1989.63 8.13644 -3.0377 0
M  V30 11148 H 1989.36 6.42788 -2.55485 0
M  V30 11149 H 1990.23 8.12039 -0.792769 0
M  V30 11150 H 1992.88 5.80061 0.166416 0
M  V30 11151 H 1993.16 6.51287 -2.75604 0
M  V30 11152 H 1994.15 7.01734 -1.34462 0
M  V30 11153 H 1992.32 8.73674 -2.38337 0
M  V30 11154 H 1992.27 4.68207 -3.53221 0
M  V30 11155 H 1992.95 -0.0398818 0.767965 0
M  V30 11156 H 1992.99 2.50995 3.13503 0
M  V30 11157 H 1993.09 0.759148 2.80716 0
M  V30 11158 P 1994.19 8.91 -2.95676e-11 0
M  V30 11159 O 1994.41 10.1726 0.733694 0
M  V30 11160 O 1994.98 8.73148 -1.23936 0
M  V30 11161 O 1994.44 7.66872 0.971405 0
M  V30 11162 C 1993.5 7.42309 2.04641 0
M  V30 11163 C 1994.23 6.86059 3.24661 0
M  V30 11164 O 1994.44 5.42847 3.03646 0
M  V30 11165 C 1995.63 7.41196 3.50753 0
M  V30 11166 O 1996.02 7.27073 4.86816 0
M  V30 11167 C 1996.51 6.5273 2.63741 0
M  V30 11168 C 1995.8 5.1842 2.73198 0
M  V30 11169 N 1995.85 4.38762 1.4784 0
M  V30 11170 H 1993.01 8.36803 2.32493 0
M  V30 11171 H 1992.74 6.70197 1.71129 0
M  V30 11172 H 1993.61 7.03551 4.13168 0
M  V30 11173 P 1997.57 7.20834 5.23717 0
M  V30 11174 O 1997.79 7.80006 6.57415 0
M  V30 11175 O 1998.36 7.79416 4.13051 0
M  V30 11176 O 1997.82 5.63315 5.29344 0
M  V30 11177 C 1996.88 4.80318 6.01954 0
M  V30 11178 C 1997.61 3.64202 6.65911 0
M  V30 11179 O 1997.82 2.60736 5.64823 0
M  V30 11180 C 1999.01 3.93521 7.19518 0
M  V30 11181 O 1999.4 3.02071 8.21205 0
M  V30 11182 C 1999.89 3.73047 5.97036 0
M  V30 11183 C 1999.18 2.58828 5.25741 0
M  V30 11184 N 1999.23 2.68068 3.77503 0
M  V30 11185 H 1996.39 5.40394 6.8003 0
M  V30 11186 H 1996.12 4.41741 5.32532 0
M  V30 11187 H 1996.99 3.26371 7.47889 0
M  V30 11188 H 1999.64 1.64007 5.56746 0
M  V30 11189 H 1999.92 4.63439 5.3432 0
M  V30 11190 H 2000.91 3.44776 6.25925 0
M  V30 11191 H 1999.08 4.96707 7.57347 0
M  V30 11192 P 2000.95 2.75334 8.47391 0
M  V30 11193 O 2001.17 2.44619 9.90336 0
M  V30 11194 O 2001.74 3.87776 7.92294 0
M  V30 11195 O 2001.2 1.4459 7.59357 0
M  V30 11196 C 2000.26 0.347653 7.69315 0
M  V30 11197 C 2000.99 -0.96767 7.52806 0
M  V30 11198 O 2001.2 -1.21055 6.10208 0
M  V30 11199 C 2002.39 -1.04557 8.13408 0
M  V30 11200 O 2002.78 -2.38311 8.41922 0
M  V30 11201 C 2003.27 -0.491279 7.02284 0
M  V30 11202 C 2002.56 -0.996264 5.77469 0
M  V30 11203 N 2002.61 -0.0501916 4.62973 0
M  V30 11204 C 2002.53 1.31969 4.65661 0
M  V30 11205 N 2002.6 1.86649 3.48119 0
M  V30 11206 C 2002.75 0.792089 2.62406 0
M  V30 11207 C 2002.88 0.705684 1.2207 0
M  V30 11208 N 2002.89 1.76207 0.413762 0
M  V30 11209 N 2003 -0.518981 0.685754 0
M  V30 11210 C 2002.99 -1.57595 1.49174 0
M  V30 11211 N 2002.87 -1.62909 2.80066 0
M  V30 11212 C 2002.75 -0.388195 3.3073 0
M  V30 11213 H 1999.77 0.374765 8.67791 0
M  V30 11214 H 1999.5 0.443613 6.90476 0
M  V30 11215 H 2000.37 -1.75559 7.96891 0
M  V30 11216 H 2003.02 -1.94563 5.46818 0
M  V30 11217 H 2003.3 0.608651 7.04676 0
M  V30 11218 H 2004.29 -0.889796 7.09039 0
M  V30 11219 H 2002.46 -0.433128 9.04664 0
M  V30 11220 H 2002.42 1.89246 5.57664 0
M  V30 11221 H 2002.8 2.71005 0.804694 0
M  V30 11222 H 2002.99 1.63189 -0.603768 0
M  V30 11223 H 2003.1 -2.53475 0.997614 0
M  V30 11224 P 2004.33 -2.75334 8.47391 0
M  V30 11225 O 2004.55 -3.84128 9.44797 0
M  V30 11226 O 2005.12 -1.51947 8.68712 0
M  V30 11227 O 2004.58 -3.29363 6.99321 0
M  V30 11228 C 2003.64 -4.24011 6.4274 0
M  V30 11229 C 2004.37 -5.20775 5.52155 0
M  V30 11230 O 2004.58 -4.56534 4.22446 0
M  V30 11231 C 2005.77 -5.62629 5.96531 0
M  V30 11232 O 2006.16 -6.87667 5.41053 0
M  V30 11233 C 2006.65 -4.52537 5.39283 0
M  V30 11234 C 2005.94 -4.20027 4.08623 0
M  V30 11235 N 2005.99 -2.76189 3.71603 0
M  V30 11236 H 2003.15 -4.797 7.24003 0
M  V30 11237 H 2002.88 -3.69856 5.84513 0
M  V30 11238 H 2003.75 -6.10356 5.41441 0
M  V30 11239 P 2007.71 -7.20834 5.23717 0
M  V30 11240 O 2007.93 -8.66104 5.38572 0
M  V30 11241 O 2008.5 -6.33544 6.1349 0
M  V30 11242 O 2007.96 -6.7751 3.72168 0
M  V30 11243 C 2007.02 -7.20825 2.7076 0
M  V30 11244 C 2007.75 -7.45864 1.40599 0
M  V30 11245 O 2007.96 -6.17651 0.734225 0
M  V30 11246 C 2009.15 -8.05808 1.51899 0
M  V30 11247 O 2009.54 -8.74358 0.335205 0
M  V30 11248 C 2010.03 -6.83093 1.70294 0
M  V30 11249 C 2009.32 -5.79992 0.836974 0
M  V30 11250 N 2009.37 -4.41864 1.38293 0
M  V30 11251 H 2006.53 -8.13644 3.0377 0
M  V30 11252 H 2006.26 -6.42788 2.55485 0
M  V30 11253 H 2007.13 -8.12039 0.792769 0
M  V30 11254 P 2011.09 -8.91 3.06766e-11 0
M  V30 11255 O 2011.31 -10.1746 -0.733838 0
M  V30 11256 O 2011.88 -8.73346 1.23964 0
M  V30 11257 O 2011.34 -7.66872 -0.971405 0
M  V30 11258 C 2010.4 -7.42405 -2.04668 0
M  V30 11259 C 2011.13 -6.86059 -3.24661 0
M  V30 11260 O 2011.34 -5.42934 -3.03695 0
M  V30 11261 C 2012.53 -7.41287 -3.50796 0
M  V30 11262 O 2012.92 -7.27073 -4.86816 0
M  V30 11263 C 2013.41 -6.5273 -2.63741 0
M  V30 11264 C 2012.7 -5.1842 -2.73198 0
M  V30 11265 N 2012.75 -4.38762 -1.4784 0
M  V30 11266 H 2009.91 -8.36899 -2.3252 0
M  V30 11267 H 2009.64 -6.70391 -1.71179 0
M  V30 11268 H 2010.51 -7.03638 -4.13219 0
M  V30 11269 H 2013.16 -4.59931 -3.54016 0
M  V30 11270 H 2013.44 -6.88995 -1.59871 0
M  V30 11271 H 2014.43 -6.4684 -3.0373 0
M  V30 11272 H 2012.6 -8.47002 -3.20749 0
M  V30 11273 P 2014.47 -7.20834 -5.23717 0
M  V30 11274 O 2014.69 -7.79853 -6.57286 0
M  V30 11275 O 2015.26 -7.79239 -4.12957 0
M  V30 11276 O 2014.72 -5.63315 -5.29344 0
M  V30 11277 C 2013.78 -4.80255 -6.01876 0
M  V30 11278 C 2014.51 -3.64202 -6.65911 0
M  V30 11279 O 2014.72 -2.60694 -5.64732 0
M  V30 11280 C 2015.91 -3.93473 -7.1943 0
M  V30 11281 O 2016.3 -3.02071 -8.21205 0
M  V30 11282 C 2016.79 -3.73047 -5.97036 0
M  V30 11283 C 2016.08 -2.58828 -5.25741 0
M  V30 11284 N 2016.13 -2.68068 -3.77503 0
M  V30 11285 H 2013.29 -5.40332 -6.79951 0
M  V30 11286 H 2013.02 -4.41613 -5.32378 0
M  V30 11287 H 2013.89 -3.26331 -7.47797 0
M  V30 11288 P 2017.85 -2.75334 -8.47391 0
M  V30 11289 O 2018.07 -2.44571 -9.90142 0
M  V30 11290 O 2018.64 -3.87688 -7.92115 0
M  V30 11291 O 2018.1 -1.4459 -7.59357 0
M  V30 11292 C 2017.16 -0.347608 -7.69215 0
M  V30 11293 C 2017.89 0.96767 -7.52806 0
M  V30 11294 O 2018.1 1.21036 -6.1011 0
M  V30 11295 C 2019.29 1.04544 -8.13308 0
M  V30 11296 O 2019.68 2.38311 -8.41922 0
M  V30 11297 C 2020.17 0.491279 -7.02284 0
M  V30 11298 C 2019.46 0.996264 -5.77469 0
M  V30 11299 N 2019.51 0.0501916 -4.62973 0
M  V30 11300 H 2016.67 -0.374722 -8.67691 0
M  V30 11301 H 2016.4 -0.443485 -6.90277 0
M  V30 11302 H 2017.27 1.75537 -7.96793 0
M  V30 11303 P 2021.23 2.75334 -8.47391 0
M  V30 11304 O 2021.45 3.84128 -9.44797 0
M  V30 11305 O 2022.02 1.51947 -8.68712 0
M  V30 11306 O 2021.48 3.29363 -6.99321 0
M  V30 11307 C 2020.54 4.24011 -6.4274 0
M  V30 11308 C 2021.27 5.20775 -5.52155 0
M  V30 11309 O 2021.48 4.56534 -4.22446 0
M  V30 11310 C 2022.67 5.62629 -5.96531 0
M  V30 11311 O 2023.06 6.87667 -5.41053 0
M  V30 11312 C 2023.55 4.52537 -5.39283 0
M  V30 11313 C 2022.84 4.20027 -4.08623 0
M  V30 11314 N 2022.89 2.76189 -3.71603 0
M  V30 11315 C 2022.81 1.64862 -4.52822 0
M  V30 11316 N 2022.89 0.512671 -3.88633 0
M  V30 11317 C 2023.03 0.888083 -2.54977 0
M  V30 11318 C 2023.16 0.094668 -1.38677 0
M  V30 11319 N 2023.28 0.890102 -0.232633 0
M  V30 11320 C 2023.28 2.26958 -0.21772 0
M  V30 11321 N 2023.41 2.84626 0.97925 0
M  V30 11322 N 2023.15 3.0178 -1.31033 0
M  V30 11323 C 2023.03 2.26781 -2.43843 0
M  V30 11324 H 2020.05 4.797 -7.24003 0
M  V30 11325 H 2019.78 3.69856 -5.84513 0
M  V30 11326 H 2020.65 6.10356 -5.41441 0
M  V30 11327 P 2024.61 7.20834 -5.23717 0
M  V30 11328 O 2024.83 8.66104 -5.38572 0
M  V30 11329 O 2025.4 6.33544 -6.1349 0
M  V30 11330 O 2024.86 6.7751 -3.72168 0
M  V30 11331 C 2023.92 7.20825 -2.7076 0
M  V30 11332 C 2024.65 7.45864 -1.40599 0
M  V30 11333 O 2024.86 6.17651 -0.734225 0
M  V30 11334 C 2026.05 8.05808 -1.51899 0
M  V30 11335 O 2026.44 8.74358 -0.335205 0
M  V30 11336 C 2026.93 6.83093 -1.70294 0
M  V30 11337 C 2026.22 5.79992 -0.836974 0
M  V30 11338 N 2026.27 4.41864 -1.38293 0
M  V30 11339 H 2023.43 8.13644 -3.0377 0
M  V30 11340 H 2023.16 6.42788 -2.55485 0
M  V30 11341 H 2024.03 8.12039 -0.792769 0
M  V30 11342 P 2027.99 8.91 -3.17856e-11 0
M  V30 11343 O 2028.21 10.1726 0.733694 0
M  V30 11344 O 2028.78 8.73148 -1.23936 0
M  V30 11345 O 2028.24 7.66872 0.971405 0
M  V30 11346 C 2027.3 7.42309 2.04641 0
M  V30 11347 C 2028.03 6.86059 3.24661 0
M  V30 11348 O 2028.24 5.42847 3.03646 0
M  V30 11349 C 2029.43 7.41196 3.50753 0
M  V30 11350 O 2029.82 7.27073 4.86816 0
M  V30 11351 C 2030.31 6.5273 2.63741 0
M  V30 11352 C 2029.6 5.1842 2.73198 0
M  V30 11353 N 2029.65 4.38762 1.4784 0
M  V30 11354 H 2026.81 8.36803 2.32493 0
M  V30 11355 H 2026.54 6.70197 1.71129 0
M  V30 11356 H 2027.41 7.03551 4.13168 0
M  V30 11357 P 2031.37 7.20834 5.23717 0
M  V30 11358 O 2031.59 7.79853 6.57286 0
M  V30 11359 O 2032.16 7.79239 4.12957 0
M  V30 11360 O 2031.62 5.63315 5.29344 0
M  V30 11361 C 2030.68 4.80255 6.01876 0
M  V30 11362 C 2031.41 3.64202 6.65911 0
M  V30 11363 O 2031.62 2.60694 5.64732 0
M  V30 11364 C 2032.81 3.93473 7.1943 0
M  V30 11365 O 2033.2 3.02071 8.21205 0
M  V30 11366 C 2033.69 3.73047 5.97036 0
M  V30 11367 C 2032.98 2.58828 5.25741 0
M  V30 11368 N 2033.03 2.68068 3.77503 0
M  V30 11369 H 2030.19 5.40332 6.79951 0
M  V30 11370 H 2029.92 4.41613 5.32378 0
M  V30 11371 H 2030.79 3.26331 7.47797 0
M  V30 11372 P 2034.75 2.75334 8.47391 0
M  V30 11373 O 2034.97 2.44571 9.90142 0
M  V30 11374 O 2035.54 3.87688 7.92115 0
M  V30 11375 O 2035 1.4459 7.59357 0
M  V30 11376 C 2034.06 0.347608 7.69215 0
M  V30 11377 C 2034.79 -0.96767 7.52806 0
M  V30 11378 O 2035 -1.21036 6.1011 0
M  V30 11379 C 2036.19 -1.04544 8.13308 0
M  V30 11380 O 2036.58 -2.38311 8.41922 0
M  V30 11381 C 2037.07 -0.491279 7.02284 0
M  V30 11382 C 2036.36 -0.996264 5.77469 0
M  V30 11383 N 2036.41 -0.0501916 4.62973 0
M  V30 11384 H 2033.57 0.374722 8.67691 0
M  V30 11385 H 2033.3 0.443485 6.90277 0
M  V30 11386 H 2034.17 -1.75537 7.96793 0
M  V30 11387 P 2038.13 -2.75334 8.47391 0
M  V30 11388 O 2038.35 -3.84166 9.4489 0
M  V30 11389 O 2038.92 -1.51964 8.6881 0
M  V30 11390 O 2038.38 -3.29363 6.99321 0
M  V30 11391 C 2037.44 -4.23956 6.42656 0
M  V30 11392 C 2038.17 -5.20775 5.52155 0
M  V30 11393 O 2038.38 -4.56534 4.22446 0
M  V30 11394 C 2039.57 -5.62629 5.96531 0
M  V30 11395 O 2039.96 -6.87667 5.41053 0
M  V30 11396 C 2040.45 -4.52537 5.39283 0
M  V30 11397 C 2039.74 -4.20027 4.08623 0
M  V30 11398 N 2039.79 -2.7613 3.71522 0
M  V30 11399 C 2039.94 -2.45612 2.37989 0
M  V30 11400 O 2040.03 -3.30919 1.51621 0
M  V30 11401 N 2039.98 -1.10684 2.08435 0
M  V30 11402 C 2039.89 -0.0690084 2.9792 0
M  V30 11403 C 2039.74 -0.481522 4.35345 0
M  V30 11404 C 2039.69 -1.78906 4.67968 0
M  V30 11405 H 2036.95 -4.797 7.24003 0
M  V30 11406 H 2036.68 -3.69802 5.84429 0
M  V30 11407 H 2037.55 -6.10356 5.41441 0
M  V30 11408 H 2040.2 -4.78651 3.27911 0
M  V30 11409 H 2040.48 -3.64957 6.05871 0
M  V30 11410 H 2041.47 -4.8868 5.2125 0
M  V30 11411 H 2039.64 -5.66726 7.06352 0
M  V30 11412 H 2039.57 -2.07737 5.72367 0
M  V30 11413 P 2041.51 -7.20834 5.23717 0
M  V30 11414 O 2041.73 -8.66104 5.38572 0
M  V30 11415 O 2042.3 -6.33544 6.1349 0
M  V30 11416 O 2041.76 -6.7751 3.72168 0
M  V30 11417 C 2040.82 -7.20825 2.7076 0
M  V30 11418 C 2041.55 -7.45864 1.40599 0
M  V30 11419 O 2041.76 -6.17651 0.734225 0
M  V30 11420 C 2042.95 -8.05808 1.51899 0
M  V30 11421 O 2043.34 -8.74358 0.335205 0
M  V30 11422 C 2043.83 -6.83093 1.70294 0
M  V30 11423 C 2043.12 -5.79992 0.836974 0
M  V30 11424 N 2043.17 -4.41864 1.38293 0
M  V30 11425 H 2040.33 -8.13644 3.0377 0
M  V30 11426 H 2040.06 -6.42788 2.55485 0
M  V30 11427 H 2040.93 -8.12039 0.792769 0
M  V30 11428 P 2044.89 -8.91 3.28946e-11 0
M  V30 11429 O 2045.11 -10.1726 -0.733694 0
M  V30 11430 O 2045.68 -8.73148 1.23936 0
M  V30 11431 O 2045.14 -7.66872 -0.971405 0
M  V30 11432 C 2044.2 -7.42309 -2.04641 0
M  V30 11433 C 2044.93 -6.86059 -3.24661 0
M  V30 11434 O 2045.14 -5.42847 -3.03646 0
M  V30 11435 C 2046.33 -7.41196 -3.50753 0
M  V30 11436 O 2046.72 -7.27073 -4.86816 0
M  V30 11437 C 2047.21 -6.5273 -2.63741 0
M  V30 11438 C 2046.5 -5.1842 -2.73198 0
M  V30 11439 N 2046.55 -4.38762 -1.4784 0
M  V30 11440 H 2043.71 -8.36803 -2.32493 0
M  V30 11441 H 2043.44 -6.70197 -1.71129 0
M  V30 11442 H 2044.31 -7.03551 -4.13168 0
M  V30 11443 P 2048.27 -7.20834 -5.23717 0
M  V30 11444 O 2048.49 -7.79853 -6.57286 0
M  V30 11445 O 2049.06 -7.79239 -4.12957 0
M  V30 11446 O 2048.52 -5.63315 -5.29344 0
M  V30 11447 C 2047.58 -4.80255 -6.01876 0
M  V30 11448 C 2048.31 -3.64202 -6.65911 0
M  V30 11449 O 2048.52 -2.60694 -5.64732 0
M  V30 11450 C 2049.71 -3.93473 -7.1943 0
M  V30 11451 O 2050.1 -3.02071 -8.21205 0
M  V30 11452 C 2050.59 -3.73047 -5.97036 0
M  V30 11453 C 2049.88 -2.58828 -5.25741 0
M  V30 11454 N 2049.93 -2.68068 -3.77503 0
M  V30 11455 H 2047.09 -5.40332 -6.79951 0
M  V30 11456 H 2046.82 -4.41613 -5.32378 0
M  V30 11457 H 2047.69 -3.26331 -7.47797 0
M  V30 11458 P 2051.65 -2.75334 -8.47391 0
M  V30 11459 O 2051.87 -2.44571 -9.90142 0
M  V30 11460 O 2052.44 -3.87688 -7.92115 0
M  V30 11461 O 2051.9 -1.4459 -7.59357 0
M  V30 11462 C 2050.96 -0.347608 -7.69215 0
M  V30 11463 C 2051.69 0.96767 -7.52806 0
M  V30 11464 O 2051.9 1.21036 -6.1011 0
M  V30 11465 C 2053.09 1.04544 -8.13308 0
M  V30 11466 O 2053.48 2.38311 -8.41922 0
M  V30 11467 C 2053.97 0.491279 -7.02284 0
M  V30 11468 C 2053.26 0.996264 -5.77469 0
M  V30 11469 N 2053.31 0.0501916 -4.62973 0
M  V30 11470 H 2050.47 -0.374722 -8.67691 0
M  V30 11471 H 2050.2 -0.443485 -6.90277 0
M  V30 11472 H 2051.07 1.75537 -7.96793 0
M  V30 11473 P 2055.03 2.75334 -8.47391 0
M  V30 11474 O 2055.25 3.84166 -9.4489 0
M  V30 11475 O 2055.82 1.51964 -8.6881 0
M  V30 11476 O 2055.28 3.29363 -6.99321 0
M  V30 11477 C 2054.34 4.24011 -6.4274 0
M  V30 11478 C 2055.07 5.20775 -5.52155 0
M  V30 11479 O 2055.28 4.56534 -4.22446 0
M  V30 11480 C 2056.47 5.62629 -5.96531 0
M  V30 11481 O 2056.86 6.87667 -5.41053 0
M  V30 11482 C 2057.35 4.52537 -5.39283 0
M  V30 11483 C 2056.64 4.20027 -4.08623 0
M  V30 11484 N 2056.69 2.7613 -3.71522 0
M  V30 11485 C 2056.84 2.43702 -2.37085 0
M  V30 11486 O 2056.93 3.3531 -1.54039 0
M  V30 11487 N 2056.89 0.951103 -2.10621 0
M  V30 11488 C 2056.79 0.165021 -2.93537 0
M  V30 11489 N 2056.84 -1.09723 -2.53253 0
M  V30 11490 C 2056.64 0.469576 -4.32458 0
M  V30 11491 C 2056.59 1.78658 -4.65921 0
M  V30 11492 H 2053.85 4.79645 -7.23919 0
M  V30 11493 H 2053.58 3.69802 -5.84429 0
M  V30 11494 H 2054.45 6.10431 -5.41508 0
M  V30 11495 H 2057.1 4.78733 -3.27967 0
M  V30 11496 H 2057.38 3.64957 -6.05871 0
M  V30 11497 H 2058.37 4.8868 -5.2125 0
M  V30 11498 H 2056.54 5.66726 -7.06352 0
M  V30 11499 H 2056.47 2.06987 -5.70299 0
M  V30 11500 H 2056.57 -0.314383 -5.07728 0
M  V30 11501 H 2056.96 -1.31363 -1.5319 0
M  V30 11502 H 2056.76 -1.85978 -3.21943 0
M  V30 11503 P 2058.41 7.20834 -5.23717 0
M  V30 11504 O 2058.63 8.66104 -5.38572 0
M  V30 11505 O 2059.2 6.33544 -6.1349 0
M  V30 11506 O 2058.66 6.7751 -3.72168 0
M  V30 11507 C 2057.72 7.20825 -2.7076 0
M  V30 11508 C 2058.45 7.45864 -1.40599 0
M  V30 11509 O 2058.66 6.17651 -0.734225 0
M  V30 11510 C 2059.85 8.05808 -1.51899 0
M  V30 11511 O 2060.24 8.74358 -0.335205 0
M  V30 11512 C 2060.73 6.83093 -1.70294 0
M  V30 11513 C 2060.02 5.79992 -0.836974 0
M  V30 11514 N 2060.07 4.41864 -1.38293 0
M  V30 11515 C 2059.99 3.99538 -2.69438 0
M  V30 11516 N 2060.07 2.69909 -2.84277 0
M  V30 11517 C 2060.21 2.21719 -1.5408 0
M  V30 11518 C 2060.34 0.891712 -1.06628 0
M  V30 11519 O 2060.36 -0.161298 -1.70137 0
M  V30 11520 N 2060.46 0.856846 0.334985 0
M  V30 11521 C 2060.46 1.9641 1.15789 0
M  V30 11522 N 2060.59 1.72708 2.46522 0
M  V30 11523 N 2060.33 3.21165 0.713741 0
M  V30 11524 C 2060.21 3.26797 -0.639748 0
M  V30 11525 H 2057.23 8.13644 -3.0377 0
M  V30 11526 H 2056.96 6.42788 -2.55485 0
M  V30 11527 H 2057.83 8.12039 -0.792769 0
M  V30 11528 H 2060.48 5.80061 0.166416 0
M  V30 11529 H 2060.76 6.51287 -2.75604 0
M  V30 11530 H 2061.75 7.01734 -1.34462 0
M  V30 11531 H 2059.92 8.73674 -2.38337 0
M  V30 11532 H 2059.87 4.68207 -3.53221 0
M  V30 11533 H 2060.55 -0.0398818 0.767965 0
M  V30 11534 H 2060.59 2.50995 3.13503 0
M  V30 11535 H 2060.69 0.759148 2.80716 0
M  V30 11536 P 2061.79 8.91 -3.40036e-11 0
M  V30 11537 O 2062.01 10.1736 0.733766 0
M  V30 11538 O 2062.58 8.73247 -1.2395 0
M  V30 11539 O 2062.04 7.66872 0.971405 0
M  V30 11540 C 2061.1 7.42212 2.04614 0
M  V30 11541 C 2061.83 6.86059 3.24661 0
M  V30 11542 O 2062.04 5.42847 3.03646 0
M  V30 11543 C 2063.23 7.41196 3.50753 0
M  V30 11544 O 2063.62 7.27073 4.86816 0
M  V30 11545 C 2064.11 6.5273 2.63741 0
M  V30 11546 C 2063.4 5.1842 2.73198 0
M  V30 11547 N 2063.45 4.38668 1.47808 0
M  V30 11548 C 2063.6 3.02239 1.60048 0
M  V30 11549 O 2063.69 2.46459 2.67869 0
M  V30 11550 N 2063.64 2.32436 0.408571 0
M  V30 11551 C 2063.55 2.85471 -0.854993 0
M  V30 11552 O 2063.6 2.12566 -1.8531 0
M  V30 11553 C 2063.4 4.28918 -0.887335 0
M  V30 11554 C 2063.29 4.91066 -2.24619 0
M  V30 11555 C 2063.35 5.00349 0.255399 0
M  V30 11556 H 2060.61 8.36803 2.32493 0
M  V30 11557 H 2060.34 6.701 1.71105 0
M  V30 11558 H 2061.21 7.03551 4.13168 0
M  V30 11559 H 2063.86 4.59773 3.53894 0
M  V30 11560 H 2064.14 6.88995 1.59871 0
M  V30 11561 H 2065.13 6.46749 3.03687 0
M  V30 11562 H 2063.3 8.46908 3.20714 0
M  V30 11563 H 2063.23 6.08548 0.206986 0
M  V30 11564 H 2064.26 5.34836 -2.53099 0
M  V30 11565 H 2062.52 5.69638 -2.2291 0
M  V30 11566 H 2063.01 4.13971 -2.98044 0
M  V30 11567 H 2063.74 1.33211 0.474216 0
M  V30 11568 P 2065.17 7.20834 5.23717 0
M  V30 11569 O 2065.39 7.79853 6.57286 0
M  V30 11570 O 2065.96 7.79239 4.12957 0
M  V30 11571 O 2065.42 5.63315 5.29344 0
M  V30 11572 C 2064.48 4.80255 6.01876 0
M  V30 11573 C 2065.21 3.64202 6.65911 0
M  V30 11574 O 2065.42 2.60694 5.64732 0
M  V30 11575 C 2066.61 3.93473 7.1943 0
M  V30 11576 O 2067 3.02071 8.21205 0
M  V30 11577 C 2067.49 3.73047 5.97036 0
M  V30 11578 C 2066.78 2.58828 5.25741 0
M  V30 11579 N 2066.83 2.68068 3.77503 0
M  V30 11580 H 2063.99 5.40332 6.79951 0
M  V30 11581 H 2063.72 4.41613 5.32378 0
M  V30 11582 H 2064.59 3.26331 7.47797 0
M  V30 11583 P 2068.55 2.75334 8.47391 0
M  V30 11584 O 2068.77 2.44571 9.90142 0
M  V30 11585 O 2069.34 3.87688 7.92115 0
M  V30 11586 O 2068.8 1.4459 7.59357 0
M  V30 11587 C 2067.86 0.347608 7.69215 0
M  V30 11588 C 2068.59 -0.96767 7.52806 0
M  V30 11589 O 2068.8 -1.21036 6.1011 0
M  V30 11590 C 2069.99 -1.04544 8.13308 0
M  V30 11591 O 2070.38 -2.38311 8.41922 0
M  V30 11592 C 2070.87 -0.491279 7.02284 0
M  V30 11593 C 2070.16 -0.996264 5.77469 0
M  V30 11594 N 2070.21 -0.0501916 4.62973 0
M  V30 11595 C 2070.13 1.32786 4.63244 0
M  V30 11596 N 2070.21 1.86957 3.44545 0
M  V30 11597 C 2070.35 0.780241 2.58481 0
M  V30 11598 C 2070.48 0.738536 1.17757 0
M  V30 11599 O 2070.5 1.66794 0.372349 0
M  V30 11600 N 2070.6 -0.58337 0.711393 0
M  V30 11601 C 2070.6 -1.70816 1.51017 0
M  V30 11602 N 2070.73 -2.87826 0.880757 0
M  V30 11603 N 2070.47 -1.67126 2.8339 0
M  V30 11604 C 2070.35 -0.401421 3.30572 0
M  V30 11605 H 2067.37 0.374722 8.67691 0
M  V30 11606 H 2067.1 0.443485 6.90277 0
M  V30 11607 H 2067.97 -1.75537 7.96793 0
M  V30 11608 H 2070.62 -1.95076 5.46529 0
M  V30 11609 H 2070.9 0.608565 7.04577 0
M  V30 11610 H 2071.89 -0.889672 7.08939 0
M  V30 11611 H 2070.06 -0.43308 9.04564 0
M  V30 11612 H 2070.01 1.91249 5.54442 0
M  V30 11613 H 2070.69 -0.718054 -0.275244 0
M  V30 11614 H 2070.73 -3.75721 1.41832 0
M  V30 11615 H 2070.83 -2.90436 -0.145468 0
M  V30 11616 P 2071.93 -2.75334 8.47391 0
M  V30 11617 O 2072.15 -3.84128 9.44797 0
M  V30 11618 O 2072.72 -1.51947 8.68712 0
M  V30 11619 O 2072.18 -3.29363 6.99321 0
M  V30 11620 C 2071.24 -4.24011 6.4274 0
M  V30 11621 C 2071.97 -5.20775 5.52155 0
M  V30 11622 O 2072.18 -4.56534 4.22446 0
M  V30 11623 C 2073.37 -5.62629 5.96531 0
M  V30 11624 O 2073.76 -6.87667 5.41053 0
M  V30 11625 C 2074.25 -4.52537 5.39283 0
M  V30 11626 C 2073.54 -4.20027 4.08623 0
M  V30 11627 N 2073.59 -2.76189 3.71603 0
M  V30 11628 H 2070.75 -4.797 7.24003 0
M  V30 11629 H 2070.48 -3.69856 5.84513 0
M  V30 11630 H 2071.35 -6.10356 5.41441 0
M  V30 11631 P 2075.31 -7.20834 5.23717 0
M  V30 11632 O 2075.53 -8.66274 5.38678 0
M  V30 11633 O 2076.1 -6.33687 6.13629 0
M  V30 11634 O 2075.56 -6.7751 3.72168 0
M  V30 11635 C 2074.62 -7.20919 2.70795 0
M  V30 11636 C 2075.35 -7.45864 1.40599 0
M  V30 11637 O 2075.56 -6.17751 0.734343 0
M  V30 11638 C 2076.75 -8.05906 1.51917 0
M  V30 11639 O 2077.14 -8.74358 0.335205 0
M  V30 11640 C 2077.63 -6.83093 1.70294 0
M  V30 11641 C 2076.92 -5.79992 0.836974 0
M  V30 11642 N 2076.97 -4.41864 1.38293 0
M  V30 11643 C 2076.89 -4.02089 2.69407 0
M  V30 11644 N 2076.96 -2.73403 2.85089 0
M  V30 11645 C 2077.11 -2.25086 1.5642 0
M  V30 11646 C 2077.24 -0.942887 1.04836 0
M  V30 11647 N 2077.25 0.150999 1.80369 0
M  V30 11648 N 2077.36 -0.812565 -0.28167 0
M  V30 11649 C 2077.35 -1.90572 -1.03784 0
M  V30 11650 N 2077.23 -3.167 -0.683905 0
M  V30 11651 C 2077.11 -3.26538 0.652815 0
M  V30 11652 H 2074.13 -8.13738 3.03804 0
M  V30 11653 H 2073.86 -6.42974 2.55559 0
M  V30 11654 H 2074.73 -8.12139 0.792866 0
M  V30 11655 H 2077.38 -5.80178 -0.160643 0
M  V30 11656 H 2077.66 -6.51379 2.75643 0
M  V30 11657 H 2078.65 -7.01832 1.3448 0
M  V30 11658 H 2076.82 -8.73771 2.38364 0
M  V30 11659 H 2076.78 -4.7189 3.52311 0
M  V30 11660 H 2077.16 0.0721434 2.82608 0
M  V30 11661 H 2077.35 1.0785 1.36544 0
M  V30 11662 H 2077.45 -1.73207 -2.10241 0
M  V30 11663 P 2078.69 -8.91 3.51126e-11 0
M  V30 11664 O 2078.91 -10.1726 -0.733694 0
M  V30 11665 O 2079.48 -8.73148 1.23936 0
M  V30 11666 O 2078.94 -7.66872 -0.971405 0
M  V30 11667 C 2078 -7.42309 -2.04641 0
M  V30 11668 C 2078.73 -6.86059 -3.24661 0
M  V30 11669 O 2078.94 -5.42847 -3.03646 0
M  V30 11670 C 2080.13 -7.41196 -3.50753 0
M  V30 11671 O 2080.52 -7.27073 -4.86816 0
M  V30 11672 C 2081.01 -6.5273 -2.63741 0
M  V30 11673 C 2080.3 -5.1842 -2.73198 0
M  V30 11674 N 2080.35 -4.38762 -1.4784 0
M  V30 11675 H 2077.51 -8.36803 -2.32493 0
M  V30 11676 H 2077.24 -6.70197 -1.71129 0
M  V30 11677 H 2078.11 -7.03551 -4.13168 0
M  V30 11678 P 2082.07 -7.20834 -5.23717 0
M  V30 11679 O 2082.29 -7.79853 -6.57286 0
M  V30 11680 O 2082.86 -7.79239 -4.12957 0
M  V30 11681 O 2082.32 -5.63315 -5.29344 0
M  V30 11682 C 2081.38 -4.80255 -6.01876 0
M  V30 11683 C 2082.11 -3.64202 -6.65911 0
M  V30 11684 O 2082.32 -2.60694 -5.64732 0
M  V30 11685 C 2083.51 -3.93473 -7.1943 0
M  V30 11686 O 2083.9 -3.02071 -8.21205 0
M  V30 11687 C 2084.39 -3.73047 -5.97036 0
M  V30 11688 C 2083.68 -2.58828 -5.25741 0
M  V30 11689 N 2083.73 -2.68068 -3.77503 0
M  V30 11690 H 2080.89 -5.40332 -6.79951 0
M  V30 11691 H 2080.62 -4.41613 -5.32378 0
M  V30 11692 H 2081.49 -3.26331 -7.47797 0
M  V30 11693 P 2085.45 -2.75334 -8.47391 0
M  V30 11694 O 2085.67 -2.44571 -9.90142 0
M  V30 11695 O 2086.24 -3.87688 -7.92115 0
M  V30 11696 O 2085.7 -1.4459 -7.59357 0
M  V30 11697 C 2084.76 -0.347608 -7.69215 0
M  V30 11698 C 2085.49 0.96767 -7.52806 0
M  V30 11699 O 2085.7 1.21036 -6.1011 0
M  V30 11700 C 2086.89 1.04544 -8.13308 0
M  V30 11701 O 2087.28 2.38311 -8.41922 0
M  V30 11702 C 2087.77 0.491279 -7.02284 0
M  V30 11703 C 2087.06 0.996264 -5.77469 0
M  V30 11704 N 2087.11 0.0501916 -4.62973 0
M  V30 11705 H 2084.27 -0.374722 -8.67691 0
M  V30 11706 H 2084 -0.443485 -6.90277 0
M  V30 11707 H 2084.87 1.75537 -7.96793 0
M  V30 11708 P 2088.83 2.75334 -8.47391 0
M  V30 11709 O 2089.05 3.84166 -9.4489 0
M  V30 11710 O 2089.62 1.51964 -8.6881 0
M  V30 11711 O 2089.08 3.29363 -6.99321 0
M  V30 11712 C 2088.14 4.23956 -6.42656 0
M  V30 11713 C 2088.87 5.20775 -5.52155 0
M  V30 11714 O 2089.08 4.56534 -4.22446 0
M  V30 11715 C 2090.27 5.62629 -5.96531 0
M  V30 11716 O 2090.66 6.87667 -5.41053 0
M  V30 11717 C 2091.15 4.52537 -5.39283 0
M  V30 11718 C 2090.44 4.20027 -4.08623 0
M  V30 11719 N 2090.49 2.7613 -3.71522 0
M  V30 11720 C 2090.64 2.45612 -2.37989 0
M  V30 11721 O 2090.73 3.30919 -1.51621 0
M  V30 11722 N 2090.68 1.10684 -2.08435 0
M  V30 11723 C 2090.59 0.0690084 -2.9792 0
M  V30 11724 C 2090.44 0.481522 -4.35345 0
M  V30 11725 C 2090.39 1.78906 -4.67968 0
M  V30 11726 H 2087.65 4.797 -7.24003 0
M  V30 11727 H 2087.38 3.69802 -5.84429 0
M  V30 11728 H 2088.25 6.10356 -5.41441 0
M  V30 11729 H 2090.9 4.78651 -3.27911 0
M  V30 11730 H 2091.18 3.64957 -6.05871 0
M  V30 11731 H 2092.17 4.8868 -5.2125 0
M  V30 11732 H 2090.34 5.66726 -7.06352 0
M  V30 11733 H 2090.27 2.07737 -5.72367 0
M  V30 11734 P 2092.21 7.20834 -5.23717 0
M  V30 11735 O 2092.43 8.66104 -5.38572 0
M  V30 11736 O 2093 6.33544 -6.1349 0
M  V30 11737 O 2092.46 6.7751 -3.72168 0
M  V30 11738 C 2091.52 7.20825 -2.7076 0
M  V30 11739 C 2092.25 7.45864 -1.40599 0
M  V30 11740 O 2092.46 6.17651 -0.734225 0
M  V30 11741 C 2093.65 8.05808 -1.51899 0
M  V30 11742 O 2094.04 8.74358 -0.335205 0
M  V30 11743 C 2094.53 6.83093 -1.70294 0
M  V30 11744 C 2093.82 5.79992 -0.836974 0
M  V30 11745 N 2093.87 4.41864 -1.38293 0
M  V30 11746 C 2093.79 3.99538 -2.69438 0
M  V30 11747 N 2093.87 2.69909 -2.84277 0
M  V30 11748 C 2094.01 2.21719 -1.5408 0
M  V30 11749 C 2094.14 0.891712 -1.06628 0
M  V30 11750 O 2094.16 -0.161298 -1.70137 0
M  V30 11751 N 2094.26 0.856846 0.334985 0
M  V30 11752 C 2094.26 1.9641 1.15789 0
M  V30 11753 N 2094.39 1.72708 2.46522 0
M  V30 11754 N 2094.13 3.21165 0.713741 0
M  V30 11755 C 2094.01 3.26797 -0.639748 0
M  V30 11756 H 2091.03 8.13644 -3.0377 0
M  V30 11757 H 2090.76 6.42788 -2.55485 0
M  V30 11758 H 2091.63 8.12039 -0.792769 0
M  V30 11759 H 2094.28 5.80061 0.166416 0
M  V30 11760 H 2094.56 6.51287 -2.75604 0
M  V30 11761 H 2095.55 7.01734 -1.34462 0
M  V30 11762 H 2093.72 8.73674 -2.38337 0
M  V30 11763 H 2093.67 4.68207 -3.53221 0
M  V30 11764 H 2094.35 -0.0398818 0.767965 0
M  V30 11765 H 2094.39 2.50995 3.13503 0
M  V30 11766 H 2094.49 0.759148 2.80716 0
M  V30 11767 P 2095.59 8.91 -3.62216e-11 0
M  V30 11768 O 2095.81 10.1726 0.733694 0
M  V30 11769 O 2096.38 8.73148 -1.23936 0
M  V30 11770 O 2095.84 7.66872 0.971405 0
M  V30 11771 C 2094.9 7.42309 2.04641 0
M  V30 11772 C 2095.63 6.86059 3.24661 0
M  V30 11773 O 2095.84 5.42847 3.03646 0
M  V30 11774 C 2097.03 7.41196 3.50753 0
M  V30 11775 O 2097.42 7.27073 4.86816 0
M  V30 11776 C 2097.91 6.5273 2.63741 0
M  V30 11777 C 2097.2 5.1842 2.73198 0
M  V30 11778 N 2097.25 4.38762 1.4784 0
M  V30 11779 H 2094.41 8.36803 2.32493 0
M  V30 11780 H 2094.14 6.70197 1.71129 0
M  V30 11781 H 2095.01 7.03551 4.13168 0
M  V30 11782 P 2098.97 7.20834 5.23717 0
M  V30 11783 O 2099.19 7.7993 6.57351 0
M  V30 11784 O 2099.76 7.79328 4.13004 0
M  V30 11785 O 2099.22 5.63315 5.29344 0
M  V30 11786 C 2098.28 4.80193 6.01798 0
M  V30 11787 C 2099.01 3.64202 6.65911 0
M  V30 11788 O 2099.22 2.60694 5.64732 0
M  V30 11789 C 2100.41 3.93473 7.1943 0
M  V30 11790 O 2100.8 3.02071 8.21205 0
M  V30 11791 C 2101.29 3.73047 5.97036 0
M  V30 11792 C 2100.58 2.58828 5.25741 0
M  V30 11793 N 2100.63 2.6801 3.77422 0
M  V30 11794 C 2100.78 1.50443 3.07133 0
M  V30 11795 O 2100.87 0.419406 3.61576 0
M  V30 11796 N 2100.82 1.6403 1.69677 0
M  V30 11797 C 2100.73 2.81206 0.986255 0
M  V30 11798 O 2100.78 2.80892 -0.249754 0
M  V30 11799 C 2100.58 3.99158 1.80325 0
M  V30 11800 C 2100.47 5.29309 1.06921 0
M  V30 11801 C 2100.53 3.89779 3.1476 0
M  V30 11802 H 2097.79 5.40332 6.79951 0
M  V30 11803 H 2097.52 4.41549 5.32301 0
M  V30 11804 H 2098.39 3.26331 7.47797 0
M  V30 11805 H 2101.04 1.6395 5.56554 0
M  V30 11806 H 2101.32 4.63439 5.3432 0
M  V30 11807 H 2102.31 3.44728 6.25838 0
M  V30 11808 H 2100.48 4.96652 7.57263 0
M  V30 11809 H 2100.41 4.80159 3.74441 0
M  V30 11810 H 2101.44 5.81459 1.09608 0
M  V30 11811 H 2099.7 5.9187 1.54487 0
M  V30 11812 H 2100.19 5.10095 0.0220288 0
M  V30 11813 H 2100.92 0.798962 1.16664 0
M  V30 11814 P 2102.35 2.75334 8.47391 0
M  V30 11815 O 2102.57 2.44571 9.90142 0
M  V30 11816 O 2103.14 3.87688 7.92115 0
M  V30 11817 O 2102.6 1.4459 7.59357 0
M  V30 11818 C 2101.66 0.347608 7.69215 0
M  V30 11819 C 2102.39 -0.96767 7.52806 0
M  V30 11820 O 2102.6 -1.21036 6.1011 0
M  V30 11821 C 2103.79 -1.04544 8.13308 0
M  V30 11822 O 2104.18 -2.38311 8.41922 0
M  V30 11823 C 2104.67 -0.491279 7.02284 0
M  V30 11824 C 2103.96 -0.996264 5.77469 0
M  V30 11825 N 2104.01 -0.0501916 4.62973 0
M  V30 11826 H 2101.17 0.374722 8.67691 0
M  V30 11827 H 2100.9 0.443485 6.90277 0
M  V30 11828 H 2101.77 -1.75537 7.96793 0
M  V30 11829 P 2105.73 -2.75334 8.47391 0
M  V30 11830 O 2105.95 -3.84128 9.44797 0
M  V30 11831 O 2106.52 -1.51947 8.68712 0
M  V30 11832 O 2105.98 -3.29363 6.99321 0
M  V30 11833 C 2105.04 -4.24011 6.4274 0
M  V30 11834 C 2105.77 -5.20775 5.52155 0
M  V30 11835 O 2105.98 -4.56534 4.22446 0
M  V30 11836 C 2107.17 -5.62629 5.96531 0
M  V30 11837 O 2107.56 -6.87667 5.41053 0
M  V30 11838 C 2108.05 -4.52537 5.39283 0
M  V30 11839 C 2107.34 -4.20027 4.08623 0
M  V30 11840 N 2107.39 -2.76189 3.71603 0
M  V30 11841 H 2104.55 -4.797 7.24003 0
M  V30 11842 H 2104.28 -3.69856 5.84513 0
M  V30 11843 H 2105.15 -6.10356 5.41441 0
M  V30 11844 P 2109.11 -7.20834 5.23717 0
M  V30 11845 O 2109.33 -8.66104 5.38572 0
M  V30 11846 O 2109.9 -6.33544 6.1349 0
M  V30 11847 O 2109.36 -6.7751 3.72168 0
M  V30 11848 C 2108.42 -7.20825 2.7076 0
M  V30 11849 C 2109.15 -7.45864 1.40599 0
M  V30 11850 O 2109.36 -6.17651 0.734225 0
M  V30 11851 C 2110.55 -8.05808 1.51899 0
M  V30 11852 O 2110.94 -8.74358 0.335205 0
M  V30 11853 C 2111.43 -6.83093 1.70294 0
M  V30 11854 C 2110.72 -5.79992 0.836974 0
M  V30 11855 N 2110.77 -4.41864 1.38293 0
M  V30 11856 H 2107.93 -8.13644 3.0377 0
M  V30 11857 H 2107.66 -6.42788 2.55485 0
M  V30 11858 H 2108.53 -8.12039 0.792769 0
M  V30 11859 P 2112.49 -8.91 3.73306e-11 0
M  V30 11860 O 2112.71 -10.1736 -0.733766 0
M  V30 11861 O 2113.28 -8.73247 1.2395 0
M  V30 11862 O 2112.74 -7.66872 -0.971405 0
M  V30 11863 C 2111.8 -7.42212 -2.04614 0
M  V30 11864 C 2112.53 -6.86059 -3.24661 0
M  V30 11865 O 2112.74 -5.42847 -3.03646 0
M  V30 11866 C 2113.93 -7.41196 -3.50753 0
M  V30 11867 O 2114.32 -7.27073 -4.86816 0
M  V30 11868 C 2114.81 -6.5273 -2.63741 0
M  V30 11869 C 2114.1 -5.1842 -2.73198 0
M  V30 11870 N 2114.15 -4.38668 -1.47808 0
M  V30 11871 C 2114.3 -3.02239 -1.60048 0
M  V30 11872 O 2114.39 -2.46459 -2.67869 0
M  V30 11873 N 2114.34 -2.32436 -0.408571 0
M  V30 11874 C 2114.25 -2.85471 0.854993 0
M  V30 11875 C 2114.1 -4.28918 0.887335 0
M  V30 11876 C 2114.05 -5.00349 -0.255399 0
M  V30 11877 H 2111.31 -8.36803 -2.32493 0
M  V30 11878 H 2111.04 -6.701 -1.71105 0
M  V30 11879 H 2111.91 -7.03551 -4.13168 0
M  V30 11880 H 2114.56 -4.59773 -3.53894 0
M  V30 11881 H 2114.84 -6.88995 -1.59871 0
M  V30 11882 H 2115.83 -6.46749 -3.03687 0
M  V30 11883 H 2114 -8.46908 -3.20714 0
M  V30 11884 H 2113.93 -6.08548 -0.206986 0
M  V30 11885 P 2115.87 -7.20834 -5.23717 0
M  V30 11886 O 2116.09 -7.79853 -6.57286 0
M  V30 11887 O 2116.66 -7.79239 -4.12957 0
M  V30 11888 O 2116.12 -5.63315 -5.29344 0
M  V30 11889 C 2115.18 -4.80255 -6.01876 0
M  V30 11890 C 2115.91 -3.64202 -6.65911 0
M  V30 11891 O 2116.12 -2.60694 -5.64732 0
M  V30 11892 C 2117.31 -3.93473 -7.1943 0
M  V30 11893 O 2117.7 -3.02071 -8.21205 0
M  V30 11894 C 2118.19 -3.73047 -5.97036 0
M  V30 11895 C 2117.48 -2.58828 -5.25741 0
M  V30 11896 N 2117.53 -2.68068 -3.77503 0
M  V30 11897 H 2114.69 -5.40332 -6.79951 0
M  V30 11898 H 2114.42 -4.41613 -5.32378 0
M  V30 11899 H 2115.29 -3.26331 -7.47797 0
M  V30 11900 P 2119.25 -2.75334 -8.47391 0
M  V30 11901 O 2119.47 -2.44571 -9.90142 0
M  V30 11902 O 2120.04 -3.87688 -7.92115 0
M  V30 11903 O 2119.5 -1.4459 -7.59357 0
M  V30 11904 C 2118.56 -0.347608 -7.69215 0
M  V30 11905 C 2119.29 0.96767 -7.52806 0
M  V30 11906 O 2119.5 1.21036 -6.1011 0
M  V30 11907 C 2120.69 1.04544 -8.13308 0
M  V30 11908 O 2121.08 2.38311 -8.41922 0
M  V30 11909 C 2121.57 0.491279 -7.02284 0
M  V30 11910 C 2120.86 0.996264 -5.77469 0
M  V30 11911 N 2120.91 0.0501916 -4.62973 0
M  V30 11912 H 2118.07 -0.374722 -8.67691 0
M  V30 11913 H 2117.8 -0.443485 -6.90277 0
M  V30 11914 H 2118.67 1.75537 -7.96793 0
M  V30 11915 P 2122.63 2.75334 -8.47391 0
M  V30 11916 O 2122.85 3.84204 -9.44982 0
M  V30 11917 O 2123.42 1.51982 -8.68909 0
M  V30 11918 O 2122.88 3.29363 -6.99321 0
M  V30 11919 C 2121.94 4.24066 -6.42823 0
M  V30 11920 C 2122.67 5.20775 -5.52155 0
M  V30 11921 O 2122.88 4.56607 -4.22514 0
M  V30 11922 C 2124.07 5.62697 -5.96604 0
M  V30 11923 O 2124.46 6.87667 -5.41053 0
M  V30 11924 C 2124.95 4.52537 -5.39283 0
M  V30 11925 C 2124.24 4.20027 -4.08623 0
M  V30 11926 N 2124.29 2.76189 -3.71603 0
M  V30 11927 C 2124.21 1.66944 -4.54297 0
M  V30 11928 N 2124.28 0.536169 -3.91344 0
M  V30 11929 C 2124.43 0.901569 -2.58849 0
M  V30 11930 C 2124.56 0.146599 -1.40236 0
M  V30 11931 N 2124.57 -1.18234 -1.37046 0
M  V30 11932 N 2124.68 0.822941 -0.249738 0
M  V30 11933 C 2124.67 2.15179 -0.280525 0
M  V30 11934 N 2124.55 2.96414 -1.30822 0
M  V30 11935 C 2124.43 2.25804 -2.44748 0
M  V30 11936 H 2121.45 4.79756 -7.24086 0
M  V30 11937 H 2121.18 3.69963 -5.84682 0
M  V30 11938 H 2122.05 6.10431 -5.41508 0
M  V30 11939 H 2124.7 4.78816 -3.28024 0
M  V30 11940 H 2124.98 3.64957 -6.05871 0
M  V30 11941 H 2125.97 4.88748 -5.21323 0
M  V30 11942 H 2124.14 5.66789 -7.0643 0
M  V30 11943 H 2124.1 1.74684 -5.62396 0
M  V30 11944 H 2124.48 -1.71949 -2.24394 0
M  V30 11945 H 2124.67 -1.67511 -0.470742 0
M  V30 11946 H 2124.77 2.63704 0.6828 0
M  V30 11947 P 2126.01 7.20834 -5.23717 0
M  V30 11948 O 2126.23 8.66104 -5.38572 0
M  V30 11949 O 2126.8 6.33544 -6.1349 0
M  V30 11950 O 2126.26 6.7751 -3.72168 0
M  V30 11951 C 2125.32 7.20825 -2.7076 0
M  V30 11952 C 2126.05 7.45864 -1.40599 0
M  V30 11953 O 2126.26 6.17651 -0.734225 0
M  V30 11954 C 2127.45 8.05808 -1.51899 0
M  V30 11955 O 2127.84 8.74358 -0.335205 0
M  V30 11956 C 2128.33 6.83093 -1.70294 0
M  V30 11957 C 2127.62 5.79992 -0.836974 0
M  V30 11958 N 2127.67 4.41864 -1.38293 0
M  V30 11959 H 2124.83 8.13644 -3.0377 0
M  V30 11960 H 2124.56 6.42788 -2.55485 0
M  V30 11961 H 2125.43 8.12039 -0.792769 0
M  V30 11962 P 2129.39 8.91 -3.84396e-11 0
M  V30 11963 O 2129.61 10.1726 0.733694 0
M  V30 11964 O 2130.18 8.73148 -1.23936 0
M  V30 11965 O 2129.64 7.66872 0.971405 0
M  V30 11966 C 2128.7 7.42309 2.04641 0
M  V30 11967 C 2129.43 6.86059 3.24661 0
M  V30 11968 O 2129.64 5.42847 3.03646 0
M  V30 11969 C 2130.83 7.41196 3.50753 0
M  V30 11970 O 2131.22 7.27073 4.86816 0
M  V30 11971 C 2131.71 6.5273 2.63741 0
M  V30 11972 C 2131 5.1842 2.73198 0
M  V30 11973 N 2131.05 4.38762 1.4784 0
M  V30 11974 H 2128.21 8.36803 2.32493 0
M  V30 11975 H 2127.94 6.70197 1.71129 0
M  V30 11976 H 2128.81 7.03551 4.13168 0
M  V30 11977 P 2132.77 7.20834 5.23717 0
M  V30 11978 O 2132.99 7.79853 6.57286 0
M  V30 11979 O 2133.56 7.79239 4.12957 0
M  V30 11980 O 2133.02 5.63315 5.29344 0
M  V30 11981 C 2132.08 4.80255 6.01876 0
M  V30 11982 C 2132.81 3.64202 6.65911 0
M  V30 11983 O 2133.02 2.60694 5.64732 0
M  V30 11984 C 2134.21 3.93473 7.1943 0
M  V30 11985 O 2134.6 3.02071 8.21205 0
M  V30 11986 C 2135.09 3.73047 5.97036 0
M  V30 11987 C 2134.38 2.58828 5.25741 0
M  V30 11988 N 2134.43 2.68068 3.77503 0
M  V30 11989 H 2131.59 5.40332 6.79951 0
M  V30 11990 H 2131.32 4.41613 5.32378 0
M  V30 11991 H 2132.19 3.26331 7.47797 0
M  V30 11992 P 2136.15 2.75334 8.47391 0
M  V30 11993 O 2136.37 2.44571 9.90142 0
M  V30 11994 O 2136.94 3.87688 7.92115 0
M  V30 11995 O 2136.4 1.4459 7.59357 0
M  V30 11996 C 2135.46 0.347608 7.69215 0
M  V30 11997 C 2136.19 -0.96767 7.52806 0
M  V30 11998 O 2136.4 -1.21036 6.1011 0
M  V30 11999 C 2137.59 -1.04544 8.13308 0
M  V30 12000 O 2137.98 -2.38311 8.41922 0
M  V30 12001 C 2138.47 -0.491279 7.02284 0
M  V30 12002 C 2137.76 -0.996264 5.77469 0
M  V30 12003 N 2137.81 -0.0501916 4.62973 0
M  V30 12004 H 2134.97 0.374722 8.67691 0
M  V30 12005 H 2134.7 0.443485 6.90277 0
M  V30 12006 H 2135.57 -1.75537 7.96793 0
M  V30 12007 P 2139.53 -2.75334 8.47391 0
M  V30 12008 O 2139.75 -3.84128 9.44797 0
M  V30 12009 O 2140.32 -1.51947 8.68712 0
M  V30 12010 O 2139.78 -3.29363 6.99321 0
M  V30 12011 C 2138.84 -4.24011 6.4274 0
M  V30 12012 C 2139.57 -5.20775 5.52155 0
M  V30 12013 O 2139.78 -4.56534 4.22446 0
M  V30 12014 C 2140.97 -5.62629 5.96531 0
M  V30 12015 O 2141.36 -6.87667 5.41053 0
M  V30 12016 C 2141.85 -4.52537 5.39283 0
M  V30 12017 C 2141.14 -4.20027 4.08623 0
M  V30 12018 N 2141.19 -2.76189 3.71603 0
M  V30 12019 H 2138.35 -4.797 7.24003 0
M  V30 12020 H 2138.08 -3.69856 5.84513 0
M  V30 12021 H 2138.95 -6.10356 5.41441 0
M  V30 12022 P 2142.91 -7.20834 5.23717 0
M  V30 12023 O 2143.13 -8.66104 5.38572 0
M  V30 12024 O 2143.7 -6.33544 6.1349 0
M  V30 12025 O 2143.16 -6.7751 3.72168 0
M  V30 12026 C 2142.22 -7.20825 2.7076 0
M  V30 12027 C 2142.95 -7.45864 1.40599 0
M  V30 12028 O 2143.16 -6.17651 0.734225 0
M  V30 12029 C 2144.35 -8.05808 1.51899 0
M  V30 12030 O 2144.74 -8.74358 0.335205 0
M  V30 12031 C 2145.23 -6.83093 1.70294 0
M  V30 12032 C 2144.52 -5.79992 0.836974 0
M  V30 12033 N 2144.57 -4.41864 1.38293 0
M  V30 12034 H 2141.73 -8.13644 3.0377 0
M  V30 12035 H 2141.46 -6.42788 2.55485 0
M  V30 12036 H 2142.33 -8.12039 0.792769 0
M  V30 12037 P 2146.29 -8.91 3.95487e-11 0
M  V30 12038 O 2146.51 -10.1726 -0.733694 0
M  V30 12039 O 2147.08 -8.73148 1.23936 0
M  V30 12040 O 2146.54 -7.66872 -0.971405 0
M  V30 12041 C 2145.6 -7.42309 -2.04641 0
M  V30 12042 C 2146.33 -6.86059 -3.24661 0
M  V30 12043 O 2146.54 -5.42847 -3.03646 0
M  V30 12044 C 2147.73 -7.41196 -3.50753 0
M  V30 12045 O 2148.12 -7.27073 -4.86816 0
M  V30 12046 C 2148.61 -6.5273 -2.63741 0
M  V30 12047 C 2147.9 -5.1842 -2.73198 0
M  V30 12048 N 2147.95 -4.38762 -1.4784 0
M  V30 12049 H 2145.11 -8.36803 -2.32493 0
M  V30 12050 H 2144.84 -6.70197 -1.71129 0
M  V30 12051 H 2145.71 -7.03551 -4.13168 0
M  V30 12052 P 2149.67 -7.20834 -5.23717 0
M  V30 12053 O 2149.89 -7.79853 -6.57286 0
M  V30 12054 O 2150.46 -7.79239 -4.12957 0
M  V30 12055 O 2149.92 -5.63315 -5.29344 0
M  V30 12056 C 2148.98 -4.80255 -6.01876 0
M  V30 12057 C 2149.71 -3.64202 -6.65911 0
M  V30 12058 O 2149.92 -2.60694 -5.64732 0
M  V30 12059 C 2151.11 -3.93473 -7.1943 0
M  V30 12060 O 2151.5 -3.02071 -8.21205 0
M  V30 12061 C 2151.99 -3.73047 -5.97036 0
M  V30 12062 C 2151.28 -2.58828 -5.25741 0
M  V30 12063 N 2151.33 -2.68068 -3.77503 0
M  V30 12064 C 2151.25 -3.79715 -2.96723 0
M  V30 12065 N 2151.33 -3.5377 -1.68852 0
M  V30 12066 C 2151.47 -2.15054 -1.63254 0
M  V30 12067 C 2151.6 -1.28964 -0.518571 0
M  V30 12068 O 2151.62 -1.56826 0.679156 0
M  V30 12069 N 2151.72 0.0538097 -0.918425 0
M  V30 12070 C 2151.72 0.494275 -2.22578 0
M  V30 12071 N 2151.85 1.81086 -2.40434 0
M  V30 12072 N 2151.59 -0.313645 -3.27502 0
M  V30 12073 C 2151.47 -1.61829 -2.91033 0
M  V30 12074 H 2148.49 -5.40332 -6.79951 0
M  V30 12075 H 2148.22 -4.41613 -5.32378 0
M  V30 12076 H 2149.09 -3.26331 -7.47797 0
M  V30 12077 H 2151.74 -1.63422 -5.56814 0
M  V30 12078 H 2152.02 -4.63374 -5.34244 0
M  V30 12079 H 2153.01 -3.44728 -6.25838 0
M  V30 12080 H 2151.18 -4.96652 -7.57263 0
M  V30 12081 H 2151.13 -4.80617 -3.3614 0
M  V30 12082 H 2151.81 0.742702 -0.199384 0
M  V30 12083 H 2151.85 2.20598 -3.35588 0
M  V30 12084 H 2151.95 2.43518 -1.58945 0
M  V30 12085 P 2153.05 -2.75334 -8.47391 0
M  V30 12086 O 2153.27 -2.44571 -9.90142 0
M  V30 12087 O 2153.84 -3.87688 -7.92115 0
M  V30 12088 O 2153.3 -1.4459 -7.59357 0
M  V30 12089 C 2152.36 -0.347608 -7.69215 0
M  V30 12090 C 2153.09 0.96767 -7.52806 0
M  V30 12091 O 2153.3 1.21036 -6.1011 0
M  V30 12092 C 2154.49 1.04544 -8.13308 0
M  V30 12093 O 2154.88 2.38311 -8.41922 0
M  V30 12094 C 2155.37 0.491279 -7.02284 0
M  V30 12095 C 2154.66 0.996264 -5.77469 0
M  V30 12096 N 2154.71 0.0501916 -4.62973 0
M  V30 12097 H 2151.87 -0.374722 -8.67691 0
M  V30 12098 H 2151.6 -0.443485 -6.90277 0
M  V30 12099 H 2152.47 1.75537 -7.96793 0
M  V30 12100 P 2156.43 2.75334 -8.47391 0
M  V30 12101 O 2156.65 3.84128 -9.44797 0
M  V30 12102 O 2157.22 1.51947 -8.68712 0
M  V30 12103 O 2156.68 3.29363 -6.99321 0
M  V30 12104 C 2155.74 4.24011 -6.4274 0
M  V30 12105 C 2156.47 5.20775 -5.52155 0
M  V30 12106 O 2156.68 4.56534 -4.22446 0
M  V30 12107 C 2157.87 5.62629 -5.96531 0
M  V30 12108 O 2158.26 6.87667 -5.41053 0
M  V30 12109 C 2158.75 4.52537 -5.39283 0
M  V30 12110 C 2158.04 4.20027 -4.08623 0
M  V30 12111 N 2158.09 2.76189 -3.71603 0
M  V30 12112 H 2155.25 4.797 -7.24003 0
M  V30 12113 H 2154.98 3.69856 -5.84513 0
M  V30 12114 H 2155.85 6.10356 -5.41441 0
M  V30 12115 P 2159.81 7.20834 -5.23717 0
M  V30 12116 O 2160.03 8.66104 -5.38572 0
M  V30 12117 O 2160.6 6.33544 -6.1349 0
M  V30 12118 O 2160.06 6.7751 -3.72168 0
M  V30 12119 C 2159.12 7.20825 -2.7076 0
M  V30 12120 C 2159.85 7.45864 -1.40599 0
M  V30 12121 O 2160.06 6.17651 -0.734225 0
M  V30 12122 C 2161.25 8.05808 -1.51899 0
M  V30 12123 O 2161.64 8.74358 -0.335205 0
M  V30 12124 C 2162.13 6.83093 -1.70294 0
M  V30 12125 C 2161.42 5.79992 -0.836974 0
M  V30 12126 N 2161.47 4.41864 -1.38293 0
M  V30 12127 H 2158.63 8.13644 -3.0377 0
M  V30 12128 H 2158.36 6.42788 -2.55485 0
M  V30 12129 H 2159.23 8.12039 -0.792769 0
M  V30 12130 P 2163.19 8.91 -4.06577e-11 0
M  V30 12131 O 2163.41 10.1726 0.733694 0
M  V30 12132 O 2163.98 8.73148 -1.23936 0
M  V30 12133 O 2163.44 7.66872 0.971405 0
M  V30 12134 C 2162.5 7.42309 2.04641 0
M  V30 12135 C 2163.23 6.86059 3.24661 0
M  V30 12136 O 2163.44 5.42847 3.03646 0
M  V30 12137 C 2164.63 7.41196 3.50753 0
M  V30 12138 O 2165.02 7.27073 4.86816 0
M  V30 12139 C 2165.51 6.5273 2.63741 0
M  V30 12140 C 2164.8 5.1842 2.73198 0
M  V30 12141 N 2164.85 4.38762 1.4784 0
M  V30 12142 H 2162.01 8.36803 2.32493 0
M  V30 12143 H 2161.74 6.70197 1.71129 0
M  V30 12144 H 2162.61 7.03551 4.13168 0
M  V30 12145 P 2166.57 7.20834 5.23717 0
M  V30 12146 O 2166.79 7.79853 6.57286 0
M  V30 12147 O 2167.36 7.79239 4.12957 0
M  V30 12148 O 2166.82 5.63315 5.29344 0
M  V30 12149 C 2165.88 4.80255 6.01876 0
M  V30 12150 C 2166.61 3.64202 6.65911 0
M  V30 12151 O 2166.82 2.60694 5.64732 0
M  V30 12152 C 2168.01 3.93473 7.1943 0
M  V30 12153 O 2168.4 3.02071 8.21205 0
M  V30 12154 C 2168.89 3.73047 5.97036 0
M  V30 12155 C 2168.18 2.58828 5.25741 0
M  V30 12156 N 2168.23 2.68068 3.77503 0
M  V30 12157 C 2168.15 3.79715 2.96723 0
M  V30 12158 N 2168.23 3.5377 1.68852 0
M  V30 12159 C 2168.37 2.15054 1.63254 0
M  V30 12160 C 2168.5 1.28964 0.518571 0
M  V30 12161 N 2168.62 -0.0538097 0.918425 0
M  V30 12162 C 2168.62 -0.494275 2.22578 0
M  V30 12163 N 2168.75 -1.81086 2.40434 0
M  V30 12164 N 2168.49 0.313645 3.27502 0
M  V30 12165 C 2168.37 1.61829 2.91033 0
M  V30 12166 H 2165.39 5.40332 6.79951 0
M  V30 12167 H 2165.12 4.41613 5.32378 0
M  V30 12168 H 2165.99 3.26331 7.47797 0
M  V30 12169 P 2169.95 2.75334 8.47391 0
M  V30 12170 O 2170.17 2.44571 9.90142 0
M  V30 12171 O 2170.74 3.87688 7.92115 0
M  V30 12172 O 2170.2 1.4459 7.59357 0
M  V30 12173 C 2169.26 0.347608 7.69215 0
M  V30 12174 C 2169.99 -0.96767 7.52806 0
M  V30 12175 O 2170.2 -1.21036 6.1011 0
M  V30 12176 C 2171.39 -1.04544 8.13308 0
M  V30 12177 O 2171.78 -2.38311 8.41922 0
M  V30 12178 C 2172.27 -0.491279 7.02284 0
M  V30 12179 C 2171.56 -0.996264 5.77469 0
M  V30 12180 N 2171.61 -0.0501916 4.62973 0
M  V30 12181 H 2168.77 0.374722 8.67691 0
M  V30 12182 H 2168.5 0.443485 6.90277 0
M  V30 12183 H 2169.37 -1.75537 7.96793 0
M  V30 12184 P 2173.33 -2.75334 8.47391 0
M  V30 12185 O 2173.55 -3.84166 9.4489 0
M  V30 12186 O 2174.12 -1.51964 8.6881 0
M  V30 12187 O 2173.58 -3.29363 6.99321 0
M  V30 12188 C 2172.64 -4.23956 6.42656 0
M  V30 12189 C 2173.37 -5.20775 5.52155 0
M  V30 12190 O 2173.58 -4.56534 4.22446 0
M  V30 12191 C 2174.77 -5.62629 5.96531 0
M  V30 12192 O 2175.16 -6.87667 5.41053 0
M  V30 12193 C 2175.65 -4.52537 5.39283 0
M  V30 12194 C 2174.94 -4.20027 4.08623 0
M  V30 12195 N 2174.99 -2.7613 3.71522 0
M  V30 12196 C 2175.14 -2.45612 2.37989 0
M  V30 12197 O 2175.23 -3.30919 1.51621 0
M  V30 12198 N 2175.18 -1.10684 2.08435 0
M  V30 12199 C 2175.09 -0.0690084 2.9792 0
M  V30 12200 O 2175.14 1.10553 2.59426 0
M  V30 12201 C 2174.94 -0.481522 4.35345 0
M  V30 12202 C 2174.83 0.618778 5.36443 0
M  V30 12203 C 2174.89 -1.78906 4.67968 0
M  V30 12204 H 2172.15 -4.797 7.24003 0
M  V30 12205 H 2171.88 -3.69802 5.84429 0
M  V30 12206 H 2172.75 -6.10356 5.41441 0
M  V30 12207 H 2175.4 -4.78651 3.27911 0
M  V30 12208 H 2175.68 -3.64957 6.05871 0
M  V30 12209 H 2176.67 -4.8868 5.2125 0
M  V30 12210 H 2174.84 -5.66726 7.06352 0
M  V30 12211 H 2174.77 -2.07737 5.72367 0
M  V30 12212 H 2175.8 0.754375 5.86871 0
M  V30 12213 H 2174.06 0.359721 6.10641 0
M  V30 12214 H 2174.55 1.55533 4.8581 0
M  V30 12215 H 2175.28 -0.862651 1.12037 0
M  V30 12216 P 2176.71 -7.20834 5.23717 0
M  V30 12217 O 2176.93 -8.66104 5.38572 0
M  V30 12218 O 2177.5 -6.33544 6.1349 0
M  V30 12219 O 2176.96 -6.7751 3.72168 0
M  V30 12220 C 2176.02 -7.20825 2.7076 0
M  V30 12221 C 2176.75 -7.45864 1.40599 0
M  V30 12222 O 2176.96 -6.17651 0.734225 0
M  V30 12223 C 2178.15 -8.05808 1.51899 0
M  V30 12224 O 2178.54 -8.74358 0.335205 0
M  V30 12225 C 2179.03 -6.83093 1.70294 0
M  V30 12226 C 2178.32 -5.79992 0.836974 0
M  V30 12227 N 2178.37 -4.41864 1.38293 0
M  V30 12228 H 2175.53 -8.13644 3.0377 0
M  V30 12229 H 2175.26 -6.42788 2.55485 0
M  V30 12230 H 2176.13 -8.12039 0.792769 0
M  V30 12231 P 2180.09 -8.91 4.17667e-11 0
M  V30 12232 O 2180.31 -10.1746 -0.733838 0
M  V30 12233 O 2180.88 -8.73346 1.23964 0
M  V30 12234 O 2180.34 -7.66872 -0.971405 0
M  V30 12235 C 2179.4 -7.42405 -2.04668 0
M  V30 12236 C 2180.13 -6.86059 -3.24661 0
M  V30 12237 O 2180.34 -5.42934 -3.03695 0
M  V30 12238 C 2181.53 -7.41287 -3.50796 0
M  V30 12239 O 2181.92 -7.27073 -4.86816 0
M  V30 12240 C 2182.41 -6.5273 -2.63741 0
M  V30 12241 C 2181.7 -5.1842 -2.73198 0
M  V30 12242 N 2181.75 -4.38762 -1.4784 0
M  V30 12243 H 2178.91 -8.36899 -2.3252 0
M  V30 12244 H 2178.64 -6.70391 -1.71179 0
M  V30 12245 H 2179.51 -7.03638 -4.13219 0
M  V30 12246 H 2182.16 -4.59931 -3.54016 0
M  V30 12247 H 2182.44 -6.88995 -1.59871 0
M  V30 12248 H 2183.43 -6.4684 -3.0373 0
M  V30 12249 H 2181.6 -8.47002 -3.20749 0
M  V30 12250 P 2183.47 -7.20834 -5.23717 0
M  V30 12251 O 2183.69 -7.80006 -6.57415 0
M  V30 12252 O 2184.26 -7.79416 -4.13051 0
M  V30 12253 O 2183.72 -5.63315 -5.29344 0
M  V30 12254 C 2182.78 -4.80318 -6.01954 0
M  V30 12255 C 2183.51 -3.64202 -6.65911 0
M  V30 12256 O 2183.72 -2.60736 -5.64823 0
M  V30 12257 C 2184.91 -3.93521 -7.19518 0
M  V30 12258 O 2185.3 -3.02071 -8.21205 0
M  V30 12259 C 2185.79 -3.73047 -5.97036 0
M  V30 12260 C 2185.08 -2.58828 -5.25741 0
M  V30 12261 N 2185.13 -2.68068 -3.77503 0
M  V30 12262 H 2182.29 -5.40394 -6.8003 0
M  V30 12263 H 2182.02 -4.41741 -5.32532 0
M  V30 12264 H 2182.89 -3.26371 -7.47889 0
M  V30 12265 H 2185.54 -1.64007 -5.56746 0
M  V30 12266 H 2185.82 -4.63439 -5.3432 0
M  V30 12267 H 2186.81 -3.44776 -6.25925 0
M  V30 12268 H 2184.98 -4.96707 -7.57347 0
M  V30 12269 P 2186.85 -2.75334 -8.47391 0
M  V30 12270 O 2187.07 -2.44571 -9.90142 0
M  V30 12271 O 2187.64 -3.87688 -7.92115 0
M  V30 12272 O 2187.1 -1.4459 -7.59357 0
M  V30 12273 C 2186.16 -0.347608 -7.69215 0
M  V30 12274 C 2186.89 0.96767 -7.52806 0
M  V30 12275 O 2187.1 1.21036 -6.1011 0
M  V30 12276 C 2188.29 1.04544 -8.13308 0
M  V30 12277 O 2188.68 2.38311 -8.41922 0
M  V30 12278 C 2189.17 0.491279 -7.02284 0
M  V30 12279 C 2188.46 0.996264 -5.77469 0
M  V30 12280 N 2188.51 0.0501916 -4.62973 0
M  V30 12281 H 2185.67 -0.374722 -8.67691 0
M  V30 12282 H 2185.4 -0.443485 -6.90277 0
M  V30 12283 H 2186.27 1.75537 -7.96793 0
M  V30 12284 P 2190.23 2.75334 -8.47391 0
M  V30 12285 O 2190.45 3.84128 -9.44797 0
M  V30 12286 O 2191.02 1.51947 -8.68712 0
M  V30 12287 O 2190.48 3.29363 -6.99321 0
M  V30 12288 C 2189.54 4.24011 -6.4274 0
M  V30 12289 C 2190.27 5.20775 -5.52155 0
M  V30 12290 O 2190.48 4.56534 -4.22446 0
M  V30 12291 C 2191.67 5.62629 -5.96531 0
M  V30 12292 O 2192.06 6.87667 -5.41053 0
M  V30 12293 C 2192.55 4.52537 -5.39283 0
M  V30 12294 C 2191.84 4.20027 -4.08623 0
M  V30 12295 N 2191.89 2.76189 -3.71603 0
M  V30 12296 H 2189.05 4.797 -7.24003 0
M  V30 12297 H 2188.78 3.69856 -5.84513 0
M  V30 12298 H 2189.65 6.10356 -5.41441 0
M  V30 12299 P 2193.61 7.20834 -5.23717 0
M  V30 12300 O 2193.83 8.66104 -5.38572 0
M  V30 12301 O 2194.4 6.33544 -6.1349 0
M  V30 12302 O 2193.86 6.7751 -3.72168 0
M  V30 12303 C 2192.92 7.20825 -2.7076 0
M  V30 12304 C 2193.65 7.45864 -1.40599 0
M  V30 12305 O 2193.86 6.17651 -0.734225 0
M  V30 12306 C 2195.05 8.05808 -1.51899 0
M  V30 12307 O 2195.44 8.74358 -0.335205 0
M  V30 12308 C 2195.93 6.83093 -1.70294 0
M  V30 12309 C 2195.22 5.79992 -0.836974 0
M  V30 12310 N 2195.27 4.41864 -1.38293 0
M  V30 12311 H 2192.43 8.13644 -3.0377 0
M  V30 12312 H 2192.16 6.42788 -2.55485 0
M  V30 12313 H 2193.03 8.12039 -0.792769 0
M  V30 12314 P 2196.99 8.91 -4.28757e-11 0
M  V30 12315 O 2197.21 10.1726 0.733694 0
M  V30 12316 O 2197.78 8.73148 -1.23936 0
M  V30 12317 O 2197.24 7.66872 0.971405 0
M  V30 12318 C 2196.3 7.42309 2.04641 0
M  V30 12319 C 2197.03 6.86059 3.24661 0
M  V30 12320 O 2197.24 5.42847 3.03646 0
M  V30 12321 C 2198.43 7.41196 3.50753 0
M  V30 12322 O 2198.82 7.27073 4.86816 0
M  V30 12323 C 2199.31 6.5273 2.63741 0
M  V30 12324 C 2198.6 5.1842 2.73198 0
M  V30 12325 N 2198.65 4.38762 1.4784 0
M  V30 12326 H 2195.81 8.36803 2.32493 0
M  V30 12327 H 2195.54 6.70197 1.71129 0
M  V30 12328 H 2196.4 7.03551 4.13168 0
M  V30 12329 P 2200.37 7.20834 5.23717 0
M  V30 12330 O 2200.59 7.79853 6.57286 0
M  V30 12331 O 2201.16 7.79239 4.12957 0
M  V30 12332 O 2200.62 5.63315 5.29344 0
M  V30 12333 C 2199.68 4.80255 6.01876 0
M  V30 12334 C 2200.41 3.64202 6.65911 0
M  V30 12335 O 2200.62 2.60694 5.64732 0
M  V30 12336 C 2201.81 3.93473 7.1943 0
M  V30 12337 O 2202.2 3.02071 8.21205 0
M  V30 12338 C 2202.69 3.73047 5.97036 0
M  V30 12339 C 2201.98 2.58828 5.25741 0
M  V30 12340 N 2202.03 2.68068 3.77503 0
M  V30 12341 H 2199.19 5.40332 6.79951 0
M  V30 12342 H 2198.92 4.41613 5.32378 0
M  V30 12343 H 2199.78 3.26331 7.47797 0
M  V30 12344 P 2203.75 2.75334 8.47391 0
M  V30 12345 O 2203.97 2.44571 9.90142 0
M  V30 12346 O 2204.54 3.87688 7.92115 0
M  V30 12347 O 2204 1.4459 7.59357 0
M  V30 12348 C 2203.06 0.347608 7.69215 0
M  V30 12349 C 2203.79 -0.96767 7.52806 0
M  V30 12350 O 2204 -1.21036 6.1011 0
M  V30 12351 C 2205.19 -1.04544 8.13308 0
M  V30 12352 O 2205.58 -2.38311 8.41922 0
M  V30 12353 C 2206.07 -0.491279 7.02284 0
M  V30 12354 C 2205.36 -0.996264 5.77469 0
M  V30 12355 N 2205.41 -0.0501916 4.62973 0
M  V30 12356 H 2202.57 0.374722 8.67691 0
M  V30 12357 H 2202.3 0.443485 6.90277 0
M  V30 12358 H 2203.16 -1.75537 7.96793 0
M  V30 12359 P 2207.13 -2.75334 8.47391 0
M  V30 12360 O 2207.35 -3.84128 9.44797 0
M  V30 12361 O 2207.92 -1.51947 8.68712 0
M  V30 12362 O 2207.38 -3.29363 6.99321 0
M  V30 12363 C 2206.44 -4.24011 6.4274 0
M  V30 12364 C 2207.17 -5.20775 5.52155 0
M  V30 12365 O 2207.38 -4.56534 4.22446 0
M  V30 12366 C 2208.57 -5.62629 5.96531 0
M  V30 12367 O 2208.96 -6.87667 5.41053 0
M  V30 12368 C 2209.45 -4.52537 5.39283 0
M  V30 12369 C 2208.74 -4.20027 4.08623 0
M  V30 12370 N 2208.79 -2.76189 3.71603 0
M  V30 12371 H 2205.95 -4.797 7.24003 0
M  V30 12372 H 2205.68 -3.69856 5.84513 0
M  V30 12373 H 2206.54 -6.10356 5.41441 0
M  V30 12374 P 2210.51 -7.20834 5.23717 0
M  V30 12375 O 2210.73 -8.66274 5.38678 0
M  V30 12376 O 2211.3 -6.33687 6.13629 0
M  V30 12377 O 2210.76 -6.7751 3.72168 0
M  V30 12378 C 2209.82 -7.20919 2.70795 0
M  V30 12379 C 2210.55 -7.45864 1.40599 0
M  V30 12380 O 2210.76 -6.17751 0.734343 0
M  V30 12381 C 2211.95 -8.05906 1.51917 0
M  V30 12382 O 2212.34 -8.74358 0.335205 0
M  V30 12383 C 2212.83 -6.83093 1.70294 0
M  V30 12384 C 2212.12 -5.79992 0.836974 0
M  V30 12385 N 2212.17 -4.41864 1.38293 0
M  V30 12386 C 2212.09 -4.02089 2.69407 0
M  V30 12387 N 2212.16 -2.73403 2.85089 0
M  V30 12388 C 2212.31 -2.25086 1.5642 0
M  V30 12389 C 2212.44 -0.942887 1.04836 0
M  V30 12390 N 2212.45 0.150999 1.80369 0
M  V30 12391 N 2212.56 -0.812565 -0.28167 0
M  V30 12392 C 2212.55 -1.90572 -1.03784 0
M  V30 12393 N 2212.43 -3.167 -0.683905 0
M  V30 12394 C 2212.31 -3.26538 0.652815 0
M  V30 12395 H 2209.33 -8.13738 3.03804 0
M  V30 12396 H 2209.06 -6.42974 2.55559 0
M  V30 12397 H 2209.92 -8.12139 0.792866 0
M  V30 12398 H 2212.58 -5.80178 -0.160643 0
M  V30 12399 H 2212.86 -6.51379 2.75643 0
M  V30 12400 H 2213.85 -7.01832 1.3448 0
M  V30 12401 H 2212.02 -8.73771 2.38364 0
M  V30 12402 H 2211.98 -4.7189 3.52311 0
M  V30 12403 H 2212.36 0.0721434 2.82608 0
M  V30 12404 H 2212.55 1.0785 1.36544 0
M  V30 12405 H 2212.65 -1.73207 -2.10241 0
M  V30 12406 P 2213.89 -8.91 4.39847e-11 0
M  V30 12407 O 2214.11 -10.1726 -0.733694 0
M  V30 12408 O 2214.68 -8.73148 1.23936 0
M  V30 12409 O 2214.14 -7.66872 -0.971405 0
M  V30 12410 C 2213.2 -7.42309 -2.04641 0
M  V30 12411 C 2213.93 -6.86059 -3.24661 0
M  V30 12412 O 2214.14 -5.42847 -3.03646 0
M  V30 12413 C 2215.33 -7.41196 -3.50753 0
M  V30 12414 O 2215.72 -7.27073 -4.86816 0
M  V30 12415 C 2216.21 -6.5273 -2.63741 0
M  V30 12416 C 2215.5 -5.1842 -2.73198 0
M  V30 12417 N 2215.55 -4.38762 -1.4784 0
M  V30 12418 C 2215.47 -4.81605 -0.168631 0
M  V30 12419 N 2215.55 -3.85454 0.713363 0
M  V30 12420 C 2215.69 -2.6994 -0.0566958 0
M  V30 12421 C 2215.82 -1.34815 0.338502 0
M  V30 12422 N 2215.94 -0.496304 -0.77465 0
M  V30 12423 C 2215.94 -0.908403 -2.09122 0
M  V30 12424 N 2216.07 0.0517805 -3.00955 0
M  V30 12425 N 2215.81 -2.17875 -2.46519 0
M  V30 12426 C 2215.69 -3.01988 -1.4033 0
M  V30 12427 H 2212.71 -8.36803 -2.32493 0
M  V30 12428 H 2212.44 -6.70197 -1.71129 0
M  V30 12429 H 2213.3 -7.03551 -4.13168 0
M  V30 12430 P 2217.27 -7.20834 -5.23717 0
M  V30 12431 O 2217.49 -7.79853 -6.57286 0
M  V30 12432 O 2218.06 -7.79239 -4.12957 0
M  V30 12433 O 2217.52 -5.63315 -5.29344 0
M  V30 12434 C 2216.58 -4.80255 -6.01876 0
M  V30 12435 C 2217.31 -3.64202 -6.65911 0
M  V30 12436 O 2217.52 -2.60694 -5.64732 0
M  V30 12437 C 2218.71 -3.93473 -7.1943 0
M  V30 12438 O 2219.1 -3.02071 -8.21205 0
M  V30 12439 C 2219.59 -3.73047 -5.97036 0
M  V30 12440 C 2218.88 -2.58828 -5.25741 0
M  V30 12441 N 2218.93 -2.68068 -3.77503 0
M  V30 12442 H 2216.09 -5.40332 -6.79951 0
M  V30 12443 H 2215.82 -4.41613 -5.32378 0
M  V30 12444 H 2216.68 -3.26331 -7.47797 0
M  V30 12445 P 2220.65 -2.75334 -8.47391 0
M  V30 12446 O 2220.87 -2.44571 -9.90142 0
M  V30 12447 O 2221.44 -3.87688 -7.92115 0
M  V30 12448 O 2220.9 -1.4459 -7.59357 0
M  V30 12449 C 2219.96 -0.347608 -7.69215 0
M  V30 12450 C 2220.69 0.96767 -7.52806 0
M  V30 12451 O 2220.9 1.21036 -6.1011 0
M  V30 12452 C 2222.09 1.04544 -8.13308 0
M  V30 12453 O 2222.48 2.38311 -8.41922 0
M  V30 12454 C 2222.97 0.491279 -7.02284 0
M  V30 12455 C 2222.26 0.996264 -5.77469 0
M  V30 12456 N 2222.31 0.0501916 -4.62973 0
M  V30 12457 C 2222.23 -1.32786 -4.63244 0
M  V30 12458 N 2222.31 -1.86957 -3.44545 0
M  V30 12459 C 2222.45 -0.780241 -2.58481 0
M  V30 12460 C 2222.58 -0.738536 -1.17757 0
M  V30 12461 N 2222.7 0.58337 -0.711393 0
M  V30 12462 C 2222.7 1.70816 -1.51017 0
M  V30 12463 N 2222.83 2.87826 -0.880757 0
M  V30 12464 N 2222.57 1.67126 -2.8339 0
M  V30 12465 C 2222.45 0.401421 -3.30572 0
M  V30 12466 H 2219.47 -0.374722 -8.67691 0
M  V30 12467 H 2219.2 -0.443485 -6.90277 0
M  V30 12468 H 2220.06 1.75537 -7.96793 0
M  V30 12469 P 2224.03 2.75334 -8.47391 0
M  V30 12470 O 2224.25 3.84204 -9.44982 0
M  V30 12471 O 2224.82 1.51982 -8.68909 0
M  V30 12472 O 2224.28 3.29363 -6.99321 0
M  V30 12473 C 2223.34 4.24066 -6.42823 0
M  V30 12474 C 2224.07 5.20775 -5.52155 0
M  V30 12475 O 2224.28 4.56607 -4.22514 0
M  V30 12476 C 2225.47 5.62697 -5.96604 0
M  V30 12477 O 2225.86 6.87667 -5.41053 0
M  V30 12478 C 2226.35 4.52537 -5.39283 0
M  V30 12479 C 2225.64 4.20027 -4.08623 0
M  V30 12480 N 2225.69 2.76189 -3.71603 0
M  V30 12481 H 2222.85 4.79756 -7.24086 0
M  V30 12482 H 2222.58 3.69963 -5.84682 0
M  V30 12483 H 2223.44 6.10431 -5.41508 0
M  V30 12484 H 2226.1 4.78816 -3.28024 0
M  V30 12485 H 2226.38 3.64957 -6.05871 0
M  V30 12486 H 2227.37 4.88748 -5.21323 0
M  V30 12487 H 2225.54 5.66789 -7.0643 0
M  V30 12488 P 2227.41 7.20834 -5.23717 0
M  V30 12489 O 2227.63 8.66104 -5.38572 0
M  V30 12490 O 2228.2 6.33544 -6.1349 0
M  V30 12491 O 2227.66 6.7751 -3.72168 0
M  V30 12492 C 2226.72 7.20825 -2.7076 0
M  V30 12493 C 2227.45 7.45864 -1.40599 0
M  V30 12494 O 2227.66 6.17651 -0.734225 0
M  V30 12495 C 2228.85 8.05808 -1.51899 0
M  V30 12496 O 2229.24 8.74358 -0.335205 0
M  V30 12497 C 2229.73 6.83093 -1.70294 0
M  V30 12498 C 2229.02 5.79992 -0.836974 0
M  V30 12499 N 2229.07 4.41864 -1.38293 0
M  V30 12500 H 2226.23 8.13644 -3.0377 0
M  V30 12501 H 2225.96 6.42788 -2.55485 0
M  V30 12502 H 2226.82 8.12039 -0.792769 0
M  V30 12503 P 2230.79 8.91 -4.50937e-11 0
M  V30 12504 O 2231.01 10.1726 0.733694 0
M  V30 12505 O 2231.58 8.73148 -1.23936 0
M  V30 12506 O 2231.04 7.66872 0.971405 0
M  V30 12507 C 2230.1 7.42309 2.04641 0
M  V30 12508 C 2230.83 6.86059 3.24661 0
M  V30 12509 O 2231.04 5.42847 3.03646 0
M  V30 12510 C 2232.23 7.41196 3.50753 0
M  V30 12511 O 2232.62 7.27073 4.86816 0
M  V30 12512 C 2233.11 6.5273 2.63741 0
M  V30 12513 C 2232.4 5.1842 2.73198 0
M  V30 12514 N 2232.45 4.38762 1.4784 0
M  V30 12515 H 2229.61 8.36803 2.32493 0
M  V30 12516 H 2229.34 6.70197 1.71129 0
M  V30 12517 H 2230.2 7.03551 4.13168 0
M  V30 12518 P 2234.17 7.20834 5.23717 0
M  V30 12519 O 2234.39 7.80006 6.57415 0
M  V30 12520 O 2234.96 7.79416 4.13051 0
M  V30 12521 O 2234.42 5.63315 5.29344 0
M  V30 12522 C 2233.48 4.80318 6.01954 0
M  V30 12523 C 2234.21 3.64202 6.65911 0
M  V30 12524 O 2234.42 2.60736 5.64823 0
M  V30 12525 C 2235.61 3.93521 7.19518 0
M  V30 12526 O 2236 3.02071 8.21205 0
M  V30 12527 C 2236.49 3.73047 5.97036 0
M  V30 12528 C 2235.78 2.58828 5.25741 0
M  V30 12529 N 2235.83 2.68068 3.77503 0
M  V30 12530 C 2235.75 3.80474 2.99159 0
M  V30 12531 N 2235.82 3.55622 1.71925 0
M  V30 12532 C 2235.97 2.1832 1.65733 0
M  V30 12533 C 2236.1 1.28842 0.572777 0
M  V30 12534 N 2236.11 1.66875 -0.70098 0
M  V30 12535 N 2236.22 -0.016788 0.859836 0
M  V30 12536 C 2236.21 -0.398145 2.13316 0
M  V30 12537 N 2236.09 0.328224 3.22333 0
M  V30 12538 C 2235.97 1.62992 2.90383 0
M  V30 12539 H 2232.99 5.40394 6.8003 0
M  V30 12540 H 2232.72 4.41741 5.32532 0
M  V30 12541 H 2233.58 3.26371 7.47889 0
M  V30 12542 H 2236.24 1.64007 5.56746 0
M  V30 12543 H 2236.52 4.63439 5.3432 0
M  V30 12544 H 2237.51 3.44776 6.25925 0
M  V30 12545 H 2235.68 4.96707 7.57347 0
M  V30 12546 H 2235.64 4.8089 3.39924 0
M  V30 12547 H 2236.02 2.66547 -0.941919 0
M  V30 12548 H 2236.21 0.965341 -1.44766 0
M  V30 12549 H 2236.31 -1.46427 2.29697 0
M  V30 12550 P 2237.55 2.75334 8.47391 0
M  V30 12551 O 2237.77 2.44571 9.90142 0
M  V30 12552 O 2238.34 3.87688 7.92115 0
M  V30 12553 O 2237.8 1.4459 7.59357 0
M  V30 12554 C 2236.86 0.347608 7.69215 0
M  V30 12555 C 2237.59 -0.96767 7.52806 0
M  V30 12556 O 2237.8 -1.21036 6.1011 0
M  V30 12557 C 2238.99 -1.04544 8.13308 0
M  V30 12558 O 2239.38 -2.38311 8.41922 0
M  V30 12559 C 2239.87 -0.491279 7.02284 0
M  V30 12560 C 2239.16 -0.996264 5.77469 0
M  V30 12561 N 2239.21 -0.0501916 4.62973 0
M  V30 12562 H 2236.37 0.374722 8.67691 0
M  V30 12563 H 2236.1 0.443485 6.90277 0
M  V30 12564 H 2236.96 -1.75537 7.96793 0
M  V30 12565 P 2240.93 -2.75334 8.47391 0
M  V30 12566 O 2241.15 -3.84128 9.44797 0
M  V30 12567 O 2241.72 -1.51947 8.68712 0
M  V30 12568 O 2241.18 -3.29363 6.99321 0
M  V30 12569 C 2240.24 -4.24011 6.4274 0
M  V30 12570 C 2240.97 -5.20775 5.52155 0
M  V30 12571 O 2241.18 -4.56534 4.22446 0
M  V30 12572 C 2242.37 -5.62629 5.96531 0
M  V30 12573 O 2242.76 -6.87667 5.41053 0
M  V30 12574 C 2243.25 -4.52537 5.39283 0
M  V30 12575 C 2242.54 -4.20027 4.08623 0
M  V30 12576 N 2242.59 -2.76189 3.71603 0
M  V30 12577 H 2239.75 -4.797 7.24003 0
M  V30 12578 H 2239.48 -3.69856 5.84513 0
M  V30 12579 H 2240.34 -6.10356 5.41441 0
M  V30 12580 P 2244.31 -7.20834 5.23717 0
M  V30 12581 O 2244.53 -8.66104 5.38572 0
M  V30 12582 O 2245.1 -6.33544 6.1349 0
M  V30 12583 O 2244.56 -6.7751 3.72168 0
M  V30 12584 C 2243.62 -7.20825 2.7076 0
M  V30 12585 C 2244.35 -7.45864 1.40599 0
M  V30 12586 O 2244.56 -6.17651 0.734225 0
M  V30 12587 C 2245.75 -8.05808 1.51899 0
M  V30 12588 O 2246.14 -8.74358 0.335205 0
M  V30 12589 C 2246.63 -6.83093 1.70294 0
M  V30 12590 C 2245.92 -5.79992 0.836974 0
M  V30 12591 N 2245.97 -4.41864 1.38293 0
M  V30 12592 C 2245.89 -3.99538 2.69438 0
M  V30 12593 N 2245.97 -2.69909 2.84277 0
M  V30 12594 C 2246.11 -2.21719 1.5408 0
M  V30 12595 C 2246.24 -0.891712 1.06628 0
M  V30 12596 N 2246.36 -0.856846 -0.334985 0
M  V30 12597 C 2246.36 -1.9641 -1.15789 0
M  V30 12598 N 2246.49 -1.72708 -2.46522 0
M  V30 12599 N 2246.23 -3.21165 -0.713741 0
M  V30 12600 C 2246.11 -3.26797 0.639748 0
M  V30 12601 H 2243.13 -8.13644 3.0377 0
M  V30 12602 H 2242.86 -6.42788 2.55485 0
M  V30 12603 H 2243.72 -8.12039 0.792769 0
M  V30 12604 P 2247.69 -8.91 4.62027e-11 0
M  V30 12605 O 2247.91 -10.1726 -0.733694 0
M  V30 12606 O 2248.48 -8.73148 1.23936 0
M  V30 12607 O 2247.94 -7.66872 -0.971405 0
M  V30 12608 C 2247 -7.42309 -2.04641 0
M  V30 12609 C 2247.73 -6.86059 -3.24661 0
M  V30 12610 O 2247.94 -5.42847 -3.03646 0
M  V30 12611 C 2249.13 -7.41196 -3.50753 0
M  V30 12612 O 2249.52 -7.27073 -4.86816 0
M  V30 12613 C 2250.01 -6.5273 -2.63741 0
M  V30 12614 C 2249.3 -5.1842 -2.73198 0
M  V30 12615 N 2249.35 -4.38762 -1.4784 0
M  V30 12616 C 2249.27 -4.81605 -0.168631 0
M  V30 12617 N 2249.35 -3.85454 0.713363 0
M  V30 12618 C 2249.49 -2.6994 -0.0566958 0
M  V30 12619 C 2249.62 -1.34815 0.338502 0
M  V30 12620 O 2249.64 -0.869548 1.47125 0
M  V30 12621 N 2249.74 -0.496304 -0.77465 0
M  V30 12622 C 2249.74 -0.908403 -2.09122 0
M  V30 12623 N 2249.87 0.0517805 -3.00955 0
M  V30 12624 N 2249.61 -2.17875 -2.46519 0
M  V30 12625 C 2249.49 -3.01988 -1.4033 0
M  V30 12626 H 2246.51 -8.36803 -2.32493 0
M  V30 12627 H 2246.24 -6.70197 -1.71129 0
M  V30 12628 H 2247.1 -7.03551 -4.13168 0
M  V30 12629 H 2249.76 -4.59498 -3.54415 0
M  V30 12630 H 2250.04 -6.88898 -1.59848 0
M  V30 12631 H 2251.03 -6.46749 -3.03687 0
M  V30 12632 H 2249.2 -8.46908 -3.20714 0
M  V30 12633 H 2249.15 -5.86405 0.105564 0
M  V30 12634 H 2249.83 0.483664 -0.597855 0
M  V30 12635 H 2249.87 -0.187865 -4.0116 0
M  V30 12636 H 2249.97 1.03585 -2.71726 0
M  V30 12637 P 2251.07 -7.20834 -5.23717 0
M  V30 12638 O 2251.29 -7.79853 -6.57286 0
M  V30 12639 O 2251.86 -7.79239 -4.12957 0
M  V30 12640 O 2251.32 -5.63315 -5.29344 0
M  V30 12641 C 2250.38 -4.80255 -6.01876 0
M  V30 12642 C 2251.11 -3.64202 -6.65911 0
M  V30 12643 O 2251.32 -2.60694 -5.64732 0
M  V30 12644 C 2252.51 -3.93473 -7.1943 0
M  V30 12645 O 2252.9 -3.02071 -8.21205 0
M  V30 12646 C 2253.39 -3.73047 -5.97036 0
M  V30 12647 C 2252.68 -2.58828 -5.25741 0
M  V30 12648 N 2252.73 -2.68068 -3.77503 0
M  V30 12649 H 2249.89 -5.40332 -6.79951 0
M  V30 12650 H 2249.62 -4.41613 -5.32378 0
M  V30 12651 H 2250.48 -3.26331 -7.47797 0
M  V30 12652 P 2254.45 -2.75334 -8.47391 0
M  V30 12653 O 2254.67 -2.44571 -9.90142 0
M  V30 12654 O 2255.24 -3.87688 -7.92115 0
M  V30 12655 O 2254.7 -1.4459 -7.59357 0
M  V30 12656 C 2253.76 -0.347608 -7.69215 0
M  V30 12657 C 2254.49 0.96767 -7.52806 0
M  V30 12658 O 2254.7 1.21036 -6.1011 0
M  V30 12659 C 2255.89 1.04544 -8.13308 0
M  V30 12660 O 2256.28 2.38311 -8.41922 0
M  V30 12661 C 2256.77 0.491279 -7.02284 0
M  V30 12662 C 2256.06 0.996264 -5.77469 0
M  V30 12663 N 2256.11 0.0501916 -4.62973 0
M  V30 12664 C 2256.03 -1.32786 -4.63244 0
M  V30 12665 N 2256.11 -1.86957 -3.44545 0
M  V30 12666 C 2256.25 -0.780241 -2.58481 0
M  V30 12667 C 2256.38 -0.738536 -1.17757 0
M  V30 12668 N 2256.5 0.58337 -0.711393 0
M  V30 12669 C 2256.5 1.70816 -1.51017 0
M  V30 12670 N 2256.63 2.87826 -0.880757 0
M  V30 12671 N 2256.37 1.67126 -2.8339 0
M  V30 12672 C 2256.25 0.401421 -3.30572 0
M  V30 12673 H 2253.27 -0.374722 -8.67691 0
M  V30 12674 H 2253 -0.443485 -6.90277 0
M  V30 12675 H 2253.86 1.75537 -7.96793 0
M  V30 12676 P 2257.83 2.75334 -8.47391 0
M  V30 12677 O 2258.05 3.84128 -9.44797 0
M  V30 12678 O 2258.62 1.51947 -8.68712 0
M  V30 12679 O 2258.08 3.29363 -6.99321 0
M  V30 12680 C 2257.14 4.24011 -6.4274 0
M  V30 12681 C 2257.87 5.20775 -5.52155 0
M  V30 12682 O 2258.08 4.56534 -4.22446 0
M  V30 12683 C 2259.27 5.62629 -5.96531 0
M  V30 12684 O 2259.66 6.87667 -5.41053 0
M  V30 12685 C 2260.15 4.52537 -5.39283 0
M  V30 12686 C 2259.44 4.20027 -4.08623 0
M  V30 12687 N 2259.49 2.76189 -3.71603 0
M  V30 12688 H 2256.65 4.797 -7.24003 0
M  V30 12689 H 2256.38 3.69856 -5.84513 0
M  V30 12690 H 2257.24 6.10356 -5.41441 0
M  V30 12691 P 2261.21 7.20834 -5.23717 0
M  V30 12692 O 2261.43 8.66274 -5.38678 0
M  V30 12693 O 2262 6.33687 -6.13629 0
M  V30 12694 O 2261.46 6.7751 -3.72168 0
M  V30 12695 C 2260.52 7.20919 -2.70795 0
M  V30 12696 C 2261.25 7.45864 -1.40599 0
M  V30 12697 O 2261.46 6.17751 -0.734343 0
M  V30 12698 C 2262.65 8.05906 -1.51917 0
M  V30 12699 O 2263.04 8.74358 -0.335205 0
M  V30 12700 C 2263.53 6.83093 -1.70294 0
M  V30 12701 C 2262.82 5.79992 -0.836974 0
M  V30 12702 N 2262.87 4.41864 -1.38293 0
M  V30 12703 H 2260.03 8.13738 -3.03804 0
M  V30 12704 H 2259.76 6.42974 -2.55559 0
M  V30 12705 H 2260.62 8.12139 -0.792866 0
M  V30 12706 H 2263.28 5.80178 0.160643 0
M  V30 12707 H 2263.56 6.51379 -2.75643 0
M  V30 12708 H 2264.55 7.01832 -1.3448 0
M  V30 12709 H 2262.72 8.73771 -2.38364 0
M  V30 12710 P 2264.59 8.91 -4.73117e-11 0
M  V30 12711 O 2264.81 10.1736 0.733766 0
M  V30 12712 O 2265.38 8.73247 -1.2395 0
M  V30 12713 O 2264.84 7.66872 0.971405 0
M  V30 12714 C 2263.9 7.42309 2.04641 0
M  V30 12715 C 2264.63 6.86059 3.24661 0
M  V30 12716 O 2264.84 5.42847 3.03646 0
M  V30 12717 C 2266.03 7.41196 3.50753 0
M  V30 12718 O 2266.42 7.27073 4.86816 0
M  V30 12719 C 2266.91 6.5273 2.63741 0
M  V30 12720 C 2266.2 5.1842 2.73198 0
M  V30 12721 N 2266.25 4.38668 1.47808 0
M  V30 12722 C 2266.4 3.00789 1.58511 0
M  V30 12723 O 2266.49 2.50116 2.71298 0
M  V30 12724 N 2266.45 2.29703 0.253698 0
M  V30 12725 C 2266.35 2.84269 -0.750133 0
M  V30 12726 N 2266.4 2.06951 -1.82612 0
M  V30 12727 C 2266.2 4.25803 -0.889776 0
M  V30 12728 C 2266.15 4.98326 0.259363 0
M  V30 12729 H 2263.41 8.36707 2.32466 0
M  V30 12730 H 2263.14 6.701 1.71105 0
M  V30 12731 H 2264 7.03638 4.13219 0
M  V30 12732 H 2266.66 4.59852 3.53955 0
M  V30 12733 H 2266.94 6.88995 1.59871 0
M  V30 12734 H 2267.93 6.46749 3.03687 0
M  V30 12735 H 2266.1 8.46908 3.20714 0
M  V30 12736 H 2266.02 6.06349 0.206238 0
M  V30 12737 H 2266.13 4.73163 -1.86796 0
M  V30 12738 H 2266.51 1.05099 -1.72271 0
M  V30 12739 H 2266.32 2.48716 -2.76361 0
M  V30 12740 P 2267.97 7.20834 5.23717 0
M  V30 12741 O 2268.19 7.79853 6.57286 0
M  V30 12742 O 2268.76 7.79239 4.12957 0
M  V30 12743 O 2268.22 5.63315 5.29344 0
M  V30 12744 C 2267.28 4.80255 6.01876 0
M  V30 12745 C 2268.01 3.64202 6.65911 0
M  V30 12746 O 2268.22 2.60694 5.64732 0
M  V30 12747 C 2269.41 3.93473 7.1943 0
M  V30 12748 O 2269.8 3.02071 8.21205 0
M  V30 12749 C 2270.29 3.73047 5.97036 0
M  V30 12750 C 2269.58 2.58828 5.25741 0
M  V30 12751 N 2269.63 2.68068 3.77503 0
M  V30 12752 H 2266.79 5.40332 6.79951 0
M  V30 12753 H 2266.52 4.41613 5.32378 0
M  V30 12754 H 2267.38 3.26331 7.47797 0
M  V30 12755 P 2271.35 2.75334 8.47391 0
M  V30 12756 O 2271.57 2.44595 9.90239 0
M  V30 12757 O 2272.14 3.87732 7.92204 0
M  V30 12758 O 2271.6 1.4459 7.59357 0
M  V30 12759 C 2270.66 0.347563 7.69115 0
M  V30 12760 C 2271.39 -0.96767 7.52806 0
M  V30 12761 O 2271.6 -1.21036 6.1011 0
M  V30 12762 C 2272.79 -1.04544 8.13308 0
M  V30 12763 O 2273.18 -2.38311 8.41922 0
M  V30 12764 C 2273.67 -0.491279 7.02284 0
M  V30 12765 C 2272.96 -0.996264 5.77469 0
M  V30 12766 N 2273.01 -0.0501808 4.62873 0
M  V30 12767 C 2273.16 -0.588177 3.36904 0
M  V30 12768 O 2273.25 -1.78598 3.17173 0
M  V30 12769 N 2273.2 0.329694 2.33686 0
M  V30 12770 C 2273.11 1.6953 2.45079 0
M  V30 12771 C 2272.96 2.16933 3.80505 0
M  V30 12772 C 2272.91 1.30326 4.83752 0
M  V30 12773 H 2270.17 0.374722 8.67691 0
M  V30 12774 H 2269.9 0.443421 6.90177 0
M  V30 12775 H 2270.76 -1.75537 7.96793 0
M  V30 12776 H 2273.42 -1.94496 5.46629 0
M  V30 12777 H 2273.7 0.608651 7.04676 0
M  V30 12778 H 2274.69 -0.889672 7.08939 0
M  V30 12779 H 2272.86 -0.43308 9.04564 0
M  V30 12780 H 2272.79 1.68366 5.8516 0
M  V30 12781 P 2274.73 -2.75334 8.47391 0
M  V30 12782 O 2274.95 -3.84204 9.44982 0
M  V30 12783 O 2275.52 -1.51982 8.68909 0
M  V30 12784 O 2274.98 -3.29363 6.99321 0
M  V30 12785 C 2274.04 -4.24066 6.42823 0
M  V30 12786 C 2274.77 -5.20775 5.52155 0
M  V30 12787 O 2274.98 -4.56607 4.22514 0
M  V30 12788 C 2276.17 -5.62697 5.96604 0
M  V30 12789 O 2276.56 -6.87667 5.41053 0
M  V30 12790 C 2277.05 -4.52537 5.39283 0
M  V30 12791 C 2276.34 -4.20027 4.08623 0
M  V30 12792 N 2276.39 -2.76189 3.71603 0
M  V30 12793 H 2273.55 -4.79756 7.24086 0
M  V30 12794 H 2273.28 -3.69963 5.84682 0
M  V30 12795 H 2274.14 -6.10431 5.41508 0
M  V30 12796 H 2276.8 -4.78816 3.28024 0
M  V30 12797 H 2277.08 -3.64957 6.05871 0
M  V30 12798 H 2278.07 -4.88748 5.21323 0
M  V30 12799 H 2276.24 -5.66789 7.0643 0
M  V30 12800 P 2278.11 -7.20834 5.23717 0
M  V30 12801 O 2278.33 -8.66104 5.38572 0
M  V30 12802 O 2278.9 -6.33544 6.1349 0
M  V30 12803 O 2278.36 -6.7751 3.72168 0
M  V30 12804 C 2277.42 -7.20825 2.7076 0
M  V30 12805 C 2278.15 -7.45864 1.40599 0
M  V30 12806 O 2278.36 -6.17651 0.734225 0
M  V30 12807 C 2279.55 -8.05808 1.51899 0
M  V30 12808 O 2279.94 -8.74358 0.335205 0
M  V30 12809 C 2280.43 -6.83093 1.70294 0
M  V30 12810 C 2279.72 -5.79992 0.836974 0
M  V30 12811 N 2279.77 -4.41864 1.38293 0
M  V30 12812 H 2276.93 -8.13644 3.0377 0
M  V30 12813 H 2276.66 -6.42788 2.55485 0
M  V30 12814 H 2277.52 -8.12039 0.792769 0
M  V30 12815 P 2281.49 -8.91 4.84207e-11 0
M  V30 12816 O 2281.71 -10.1726 -0.733694 0
M  V30 12817 O 2282.28 -8.73148 1.23936 0
M  V30 12818 O 2281.74 -7.66872 -0.971405 0
M  V30 12819 C 2280.8 -7.42309 -2.04641 0
M  V30 12820 C 2281.53 -6.86059 -3.24661 0
M  V30 12821 O 2281.74 -5.42847 -3.03646 0
M  V30 12822 C 2282.93 -7.41196 -3.50753 0
M  V30 12823 O 2283.32 -7.27073 -4.86816 0
M  V30 12824 C 2283.81 -6.5273 -2.63741 0
M  V30 12825 C 2283.1 -5.1842 -2.73198 0
M  V30 12826 N 2283.15 -4.38762 -1.4784 0
M  V30 12827 H 2280.31 -8.36803 -2.32493 0
M  V30 12828 H 2280.04 -6.70197 -1.71129 0
M  V30 12829 H 2280.9 -7.03551 -4.13168 0
M  V30 12830 P 2284.87 -7.20834 -5.23717 0
M  V30 12831 O 2285.09 -7.79853 -6.57286 0
M  V30 12832 O 2285.66 -7.79239 -4.12957 0
M  V30 12833 O 2285.12 -5.63315 -5.29344 0
M  V30 12834 C 2284.18 -4.80255 -6.01876 0
M  V30 12835 C 2284.91 -3.64202 -6.65911 0
M  V30 12836 O 2285.12 -2.60694 -5.64732 0
M  V30 12837 C 2286.31 -3.93473 -7.1943 0
M  V30 12838 O 2286.7 -3.02071 -8.21205 0
M  V30 12839 C 2287.19 -3.73047 -5.97036 0
M  V30 12840 C 2286.48 -2.58828 -5.25741 0
M  V30 12841 N 2286.53 -2.68068 -3.77503 0
M  V30 12842 H 2283.69 -5.40332 -6.79951 0
M  V30 12843 H 2283.42 -4.41613 -5.32378 0
M  V30 12844 H 2284.28 -3.26331 -7.47797 0
M  V30 12845 P 2288.25 -2.75334 -8.47391 0
M  V30 12846 O 2288.47 -2.44571 -9.90142 0
M  V30 12847 O 2289.04 -3.87688 -7.92115 0
M  V30 12848 O 2288.5 -1.4459 -7.59357 0
M  V30 12849 C 2287.56 -0.347608 -7.69215 0
M  V30 12850 C 2288.29 0.96767 -7.52806 0
M  V30 12851 O 2288.5 1.21036 -6.1011 0
M  V30 12852 C 2289.69 1.04544 -8.13308 0
M  V30 12853 O 2290.08 2.38311 -8.41922 0
M  V30 12854 C 2290.57 0.491279 -7.02284 0
M  V30 12855 C 2289.86 0.996264 -5.77469 0
M  V30 12856 N 2289.91 0.0501916 -4.62973 0
M  V30 12857 H 2287.07 -0.374722 -8.67691 0
M  V30 12858 H 2286.8 -0.443485 -6.90277 0
M  V30 12859 H 2287.66 1.75537 -7.96793 0
M  V30 12860 P 2291.63 2.75334 -8.47391 0
M  V30 12861 O 2291.85 3.84204 -9.44982 0
M  V30 12862 O 2292.42 1.51982 -8.68909 0
M  V30 12863 O 2291.88 3.29363 -6.99321 0
M  V30 12864 C 2290.94 4.24066 -6.42823 0
M  V30 12865 C 2291.67 5.20775 -5.52155 0
M  V30 12866 O 2291.88 4.56607 -4.22514 0
M  V30 12867 C 2293.07 5.62697 -5.96604 0
M  V30 12868 O 2293.46 6.87667 -5.41053 0
M  V30 12869 C 2293.95 4.52537 -5.39283 0
M  V30 12870 C 2293.24 4.20027 -4.08623 0
M  V30 12871 N 2293.29 2.76189 -3.71603 0
M  V30 12872 H 2290.45 4.79756 -7.24086 0
M  V30 12873 H 2290.18 3.69963 -5.84682 0
M  V30 12874 H 2291.04 6.10431 -5.41508 0
M  V30 12875 H 2293.7 4.78816 -3.28024 0
M  V30 12876 H 2293.98 3.64957 -6.05871 0
M  V30 12877 H 2294.97 4.88748 -5.21323 0
M  V30 12878 H 2293.14 5.66789 -7.0643 0
M  V30 12879 P 2295.01 7.20834 -5.23717 0
M  V30 12880 O 2295.23 8.66104 -5.38572 0
M  V30 12881 O 2295.8 6.33544 -6.1349 0
M  V30 12882 O 2295.26 6.7751 -3.72168 0
M  V30 12883 C 2294.32 7.20825 -2.7076 0
M  V30 12884 C 2295.05 7.45864 -1.40599 0
M  V30 12885 O 2295.26 6.17651 -0.734225 0
M  V30 12886 C 2296.45 8.05808 -1.51899 0
M  V30 12887 O 2296.84 8.74358 -0.335205 0
M  V30 12888 C 2297.33 6.83093 -1.70294 0
M  V30 12889 C 2296.62 5.79992 -0.836974 0
M  V30 12890 N 2296.67 4.41864 -1.38293 0
M  V30 12891 H 2293.83 8.13644 -3.0377 0
M  V30 12892 H 2293.56 6.42788 -2.55485 0
M  V30 12893 H 2294.42 8.12039 -0.792769 0
M  V30 12894 P 2298.39 8.91 -4.95297e-11 0
M  V30 12895 O 2298.61 10.1746 0.733838 0
M  V30 12896 O 2299.18 8.73346 -1.23964 0
M  V30 12897 O 2298.64 7.66872 0.971405 0
M  V30 12898 C 2297.7 7.42405 2.04668 0
M  V30 12899 C 2298.43 6.86059 3.24661 0
M  V30 12900 O 2298.64 5.42934 3.03695 0
M  V30 12901 C 2299.83 7.41287 3.50796 0
M  V30 12902 O 2300.22 7.27073 4.86816 0
M  V30 12903 C 2300.71 6.5273 2.63741 0
M  V30 12904 C 2300 5.1842 2.73198 0
M  V30 12905 N 2300.05 4.38762 1.4784 0
M  V30 12906 H 2297.21 8.36899 2.3252 0
M  V30 12907 H 2296.94 6.70391 1.71179 0
M  V30 12908 H 2297.8 7.03638 4.13219 0
M  V30 12909 H 2300.46 4.59931 3.54016 0
M  V30 12910 H 2300.74 6.88995 1.59871 0
M  V30 12911 H 2301.73 6.4684 3.0373 0
M  V30 12912 H 2299.9 8.47002 3.20749 0
M  V30 12913 P 2301.77 7.20834 5.23717 0
M  V30 12914 O 2301.99 7.79853 6.57286 0
M  V30 12915 O 2302.56 7.79239 4.12957 0
M  V30 12916 O 2302.02 5.63315 5.29344 0
M  V30 12917 C 2301.08 4.80255 6.01876 0
M  V30 12918 C 2301.81 3.64202 6.65911 0
M  V30 12919 O 2302.02 2.60694 5.64732 0
M  V30 12920 C 2303.21 3.93473 7.1943 0
M  V30 12921 O 2303.6 3.02071 8.21205 0
M  V30 12922 C 2304.09 3.73047 5.97036 0
M  V30 12923 C 2303.38 2.58828 5.25741 0
M  V30 12924 N 2303.43 2.68068 3.77503 0
M  V30 12925 H 2300.59 5.40332 6.79951 0
M  V30 12926 H 2300.32 4.41613 5.32378 0
M  V30 12927 H 2301.18 3.26331 7.47797 0
M  V30 12928 P 2305.15 2.75334 8.47391 0
M  V30 12929 O 2305.37 2.44619 9.90336 0
M  V30 12930 O 2305.94 3.87776 7.92294 0
M  V30 12931 O 2305.4 1.4459 7.59357 0
M  V30 12932 C 2304.46 0.347653 7.69315 0
M  V30 12933 C 2305.19 -0.96767 7.52806 0
M  V30 12934 O 2305.4 -1.21055 6.10208 0
M  V30 12935 C 2306.59 -1.04557 8.13408 0
M  V30 12936 O 2306.98 -2.38311 8.41922 0
M  V30 12937 C 2307.47 -0.491279 7.02284 0
M  V30 12938 C 2306.76 -0.996264 5.77469 0
M  V30 12939 N 2306.81 -0.0501916 4.62973 0
M  V30 12940 H 2303.97 0.374765 8.67791 0
M  V30 12941 H 2303.7 0.443613 6.90476 0
M  V30 12942 H 2304.56 -1.75559 7.96891 0
M  V30 12943 H 2307.22 -1.94563 5.46818 0
M  V30 12944 H 2307.5 0.608651 7.04676 0
M  V30 12945 H 2308.49 -0.889796 7.09039 0
M  V30 12946 H 2306.66 -0.433128 9.04664 0
M  V30 12947 P 2308.53 -2.75334 8.47391 0
M  V30 12948 O 2308.75 -3.84128 9.44797 0
M  V30 12949 O 2309.32 -1.51947 8.68712 0
M  V30 12950 O 2308.78 -3.29363 6.99321 0
M  V30 12951 C 2307.84 -4.24011 6.4274 0
M  V30 12952 C 2308.57 -5.20775 5.52155 0
M  V30 12953 O 2308.78 -4.56534 4.22446 0
M  V30 12954 C 2309.97 -5.62629 5.96531 0
M  V30 12955 O 2310.36 -6.87667 5.41053 0
M  V30 12956 C 2310.85 -4.52537 5.39283 0
M  V30 12957 C 2310.14 -4.20027 4.08623 0
M  V30 12958 N 2310.19 -2.76189 3.71603 0
M  V30 12959 H 2307.35 -4.797 7.24003 0
M  V30 12960 H 2307.08 -3.69856 5.84513 0
M  V30 12961 H 2307.94 -6.10356 5.41441 0
M  V30 12962 P 2311.91 -7.20834 5.23717 0
M  V30 12963 O 2312.13 -8.66104 5.38572 0
M  V30 12964 O 2312.7 -6.33544 6.1349 0
M  V30 12965 O 2312.16 -6.7751 3.72168 0
M  V30 12966 C 2311.22 -7.20825 2.7076 0
M  V30 12967 C 2311.95 -7.45864 1.40599 0
M  V30 12968 O 2312.16 -6.17651 0.734225 0
M  V30 12969 C 2313.35 -8.05808 1.51899 0
M  V30 12970 O 2313.74 -8.74358 0.335205 0
M  V30 12971 C 2314.23 -6.83093 1.70294 0
M  V30 12972 C 2313.52 -5.79992 0.836974 0
M  V30 12973 N 2313.57 -4.41864 1.38293 0
M  V30 12974 C 2313.49 -3.99538 2.69438 0
M  V30 12975 N 2313.57 -2.69909 2.84277 0
M  V30 12976 C 2313.71 -2.21719 1.5408 0
M  V30 12977 C 2313.84 -0.891712 1.06628 0
M  V30 12978 N 2313.96 -0.856846 -0.334985 0
M  V30 12979 C 2313.96 -1.9641 -1.15789 0
M  V30 12980 N 2314.09 -1.72708 -2.46522 0
M  V30 12981 N 2313.83 -3.21165 -0.713741 0
M  V30 12982 C 2313.71 -3.26797 0.639748 0
M  V30 12983 H 2310.73 -8.13644 3.0377 0
M  V30 12984 H 2310.46 -6.42788 2.55485 0
M  V30 12985 H 2311.32 -8.12039 0.792769 0
M  V30 12986 P 2315.29 -8.91 5.06387e-11 0
M  V30 12987 O 2315.51 -10.1726 -0.733694 0
M  V30 12988 O 2316.08 -8.73148 1.23936 0
M  V30 12989 O 2315.54 -7.66872 -0.971405 0
M  V30 12990 C 2314.6 -7.42309 -2.04641 0
M  V30 12991 C 2315.33 -6.86059 -3.24661 0
M  V30 12992 O 2315.54 -5.42847 -3.03646 0
M  V30 12993 C 2316.73 -7.41196 -3.50753 0
M  V30 12994 O 2317.12 -7.27073 -4.86816 0
M  V30 12995 C 2317.61 -6.5273 -2.63741 0
M  V30 12996 C 2316.9 -5.1842 -2.73198 0
M  V30 12997 N 2316.95 -4.38762 -1.4784 0
M  V30 12998 H 2314.11 -8.36803 -2.32493 0
M  V30 12999 H 2313.84 -6.70197 -1.71129 0
M  V30 13000 H 2314.7 -7.03551 -4.13168 0
M  V30 13001 P 2318.67 -7.20834 -5.23717 0
M  V30 13002 O 2318.89 -7.80006 -6.57415 0
M  V30 13003 O 2319.46 -7.79416 -4.13051 0
M  V30 13004 O 2318.92 -5.63315 -5.29344 0
M  V30 13005 C 2317.98 -4.80318 -6.01954 0
M  V30 13006 C 2318.71 -3.64202 -6.65911 0
M  V30 13007 O 2318.92 -2.60736 -5.64823 0
M  V30 13008 C 2320.11 -3.93521 -7.19518 0
M  V30 13009 O 2320.5 -3.02071 -8.21205 0
M  V30 13010 C 2320.99 -3.73047 -5.97036 0
M  V30 13011 C 2320.28 -2.58828 -5.25741 0
M  V30 13012 N 2320.33 -2.68068 -3.77503 0
M  V30 13013 C 2320.25 -3.80474 -2.99159 0
M  V30 13014 N 2320.32 -3.55622 -1.71925 0
M  V30 13015 C 2320.47 -2.1832 -1.65733 0
M  V30 13016 C 2320.6 -1.28842 -0.572777 0
M  V30 13017 N 2320.61 -1.66875 0.70098 0
M  V30 13018 N 2320.72 0.016788 -0.859836 0
M  V30 13019 C 2320.71 0.398145 -2.13316 0
M  V30 13020 N 2320.59 -0.328224 -3.22333 0
M  V30 13021 C 2320.47 -1.62992 -2.90383 0
M  V30 13022 H 2317.49 -5.40394 -6.8003 0
M  V30 13023 H 2317.22 -4.41741 -5.32532 0
M  V30 13024 H 2318.08 -3.26371 -7.47889 0
M  V30 13025 H 2320.74 -1.64007 -5.56746 0
M  V30 13026 H 2321.02 -4.63439 -5.3432 0
M  V30 13027 H 2322.01 -3.44776 -6.25925 0
M  V30 13028 H 2320.18 -4.96707 -7.57347 0
M  V30 13029 H 2320.14 -4.8089 -3.39924 0
M  V30 13030 H 2320.52 -2.66547 0.941919 0
M  V30 13031 H 2320.71 -0.965341 1.44766 0
M  V30 13032 H 2320.81 1.46427 -2.29697 0
M  V30 13033 P 2322.05 -2.75334 -8.47391 0
M  V30 13034 O 2322.27 -2.44571 -9.90142 0
M  V30 13035 O 2322.84 -3.87688 -7.92115 0
M  V30 13036 O 2322.3 -1.4459 -7.59357 0
M  V30 13037 C 2321.36 -0.347608 -7.69215 0
M  V30 13038 C 2322.09 0.96767 -7.52806 0
M  V30 13039 O 2322.3 1.21036 -6.1011 0
M  V30 13040 C 2323.49 1.04544 -8.13308 0
M  V30 13041 O 2323.88 2.38311 -8.41922 0
M  V30 13042 C 2324.37 0.491279 -7.02284 0
M  V30 13043 C 2323.66 0.996264 -5.77469 0
M  V30 13044 N 2323.71 0.0501916 -4.62973 0
M  V30 13045 H 2320.87 -0.374722 -8.67691 0
M  V30 13046 H 2320.6 -0.443485 -6.90277 0
M  V30 13047 H 2321.46 1.75537 -7.96793 0
M  V30 13048 P 2325.43 2.75334 -8.47391 0
M  V30 13049 O 2325.65 3.84204 -9.44982 0
M  V30 13050 O 2326.22 1.51982 -8.68909 0
M  V30 13051 O 2325.68 3.29363 -6.99321 0
M  V30 13052 C 2324.74 4.24066 -6.42823 0
M  V30 13053 C 2325.47 5.20775 -5.52155 0
M  V30 13054 O 2325.68 4.56607 -4.22514 0
M  V30 13055 C 2326.87 5.62697 -5.96604 0
M  V30 13056 O 2327.26 6.87667 -5.41053 0
M  V30 13057 C 2327.75 4.52537 -5.39283 0
M  V30 13058 C 2327.04 4.20027 -4.08623 0
M  V30 13059 N 2327.09 2.76189 -3.71603 0
M  V30 13060 C 2327.01 1.66944 -4.54297 0
M  V30 13061 N 2327.08 0.536169 -3.91344 0
M  V30 13062 C 2327.23 0.901569 -2.58849 0
M  V30 13063 C 2327.36 0.146599 -1.40236 0
M  V30 13064 N 2327.37 -1.18234 -1.37046 0
M  V30 13065 N 2327.48 0.822941 -0.249738 0
M  V30 13066 C 2327.47 2.15179 -0.280525 0
M  V30 13067 N 2327.35 2.96414 -1.30822 0
M  V30 13068 C 2327.23 2.25804 -2.44748 0
M  V30 13069 H 2324.25 4.79756 -7.24086 0
M  V30 13070 H 2323.98 3.69963 -5.84682 0
M  V30 13071 H 2324.84 6.10431 -5.41508 0
M  V30 13072 H 2327.5 4.78816 -3.28024 0
M  V30 13073 H 2327.78 3.64957 -6.05871 0
M  V30 13074 H 2328.77 4.88748 -5.21323 0
M  V30 13075 H 2326.94 5.66789 -7.0643 0
M  V30 13076 H 2326.9 1.74684 -5.62396 0
M  V30 13077 H 2327.28 -1.71949 -2.24394 0
M  V30 13078 H 2327.47 -1.67511 -0.470742 0
M  V30 13079 H 2327.57 2.63704 0.6828 0
M  V30 13080 P 2328.81 7.20834 -5.23717 0
M  V30 13081 O 2329.03 8.66104 -5.38572 0
M  V30 13082 O 2329.6 6.33544 -6.1349 0
M  V30 13083 O 2329.06 6.7751 -3.72168 0
M  V30 13084 C 2328.12 7.20825 -2.7076 0
M  V30 13085 C 2328.85 7.45864 -1.40599 0
M  V30 13086 O 2329.06 6.17651 -0.734225 0
M  V30 13087 C 2330.25 8.05808 -1.51899 0
M  V30 13088 O 2330.64 8.74358 -0.335205 0
M  V30 13089 C 2331.13 6.83093 -1.70294 0
M  V30 13090 C 2330.42 5.79992 -0.836974 0
M  V30 13091 N 2330.47 4.41864 -1.38293 0
M  V30 13092 C 2330.39 3.99538 -2.69438 0
M  V30 13093 N 2330.47 2.69909 -2.84277 0
M  V30 13094 C 2330.61 2.21719 -1.5408 0
M  V30 13095 C 2330.74 0.891712 -1.06628 0
M  V30 13096 O 2330.76 -0.161298 -1.70137 0
M  V30 13097 N 2330.86 0.856846 0.334985 0
M  V30 13098 C 2330.86 1.9641 1.15789 0
M  V30 13099 N 2330.99 1.72708 2.46522 0
M  V30 13100 N 2330.73 3.21165 0.713741 0
M  V30 13101 C 2330.61 3.26797 -0.639748 0
M  V30 13102 H 2327.63 8.13644 -3.0377 0
M  V30 13103 H 2327.36 6.42788 -2.55485 0
M  V30 13104 H 2328.22 8.12039 -0.792769 0
M  V30 13105 H 2330.88 5.80061 0.166416 0
M  V30 13106 H 2331.16 6.51287 -2.75604 0
M  V30 13107 H 2332.15 7.01734 -1.34462 0
M  V30 13108 H 2330.32 8.73674 -2.38337 0
M  V30 13109 H 2330.27 4.68207 -3.53221 0
M  V30 13110 H 2330.95 -0.0398818 0.767965 0
M  V30 13111 H 2330.99 2.50995 3.13503 0
M  V30 13112 H 2331.09 0.759148 2.80716 0
M  V30 13113 P 2332.19 8.91 -5.17477e-11 0
M  V30 13114 O 2332.41 10.1726 0.733694 0
M  V30 13115 O 2332.98 8.73148 -1.23936 0
M  V30 13116 O 2332.44 7.66872 0.971405 0
M  V30 13117 C 2331.5 7.42309 2.04641 0
M  V30 13118 C 2332.23 6.86059 3.24661 0
M  V30 13119 O 2332.44 5.42847 3.03646 0
M  V30 13120 C 2333.63 7.41196 3.50753 0
M  V30 13121 O 2334.02 7.27073 4.86816 0
M  V30 13122 C 2334.51 6.5273 2.63741 0
M  V30 13123 C 2333.8 5.1842 2.73198 0
M  V30 13124 N 2333.85 4.38762 1.4784 0
M  V30 13125 H 2331.01 8.36803 2.32493 0
M  V30 13126 H 2330.74 6.70197 1.71129 0
M  V30 13127 H 2331.6 7.03551 4.13168 0
M  V30 13128 P 2335.57 7.20834 5.23717 0
M  V30 13129 O 2335.79 7.79853 6.57286 0
M  V30 13130 O 2336.36 7.79239 4.12957 0
M  V30 13131 O 2335.82 5.63315 5.29344 0
M  V30 13132 C 2334.88 4.80255 6.01876 0
M  V30 13133 C 2335.61 3.64202 6.65911 0
M  V30 13134 O 2335.82 2.60694 5.64732 0
M  V30 13135 C 2337.01 3.93473 7.1943 0
M  V30 13136 O 2337.4 3.02071 8.21205 0
M  V30 13137 C 2337.89 3.73047 5.97036 0
M  V30 13138 C 2337.18 2.58828 5.25741 0
M  V30 13139 N 2337.23 2.68068 3.77503 0
M  V30 13140 H 2334.39 5.40332 6.79951 0
M  V30 13141 H 2334.12 4.41613 5.32378 0
M  V30 13142 H 2334.98 3.26331 7.47797 0
M  V30 13143 P 2338.95 2.75334 8.47391 0
M  V30 13144 O 2339.17 2.44571 9.90142 0
M  V30 13145 O 2339.74 3.87688 7.92115 0
M  V30 13146 O 2339.2 1.4459 7.59357 0
M  V30 13147 C 2338.26 0.347608 7.69215 0
M  V30 13148 C 2338.99 -0.96767 7.52806 0
M  V30 13149 O 2339.2 -1.21036 6.1011 0
M  V30 13150 C 2340.39 -1.04544 8.13308 0
M  V30 13151 O 2340.78 -2.38311 8.41922 0
M  V30 13152 C 2341.27 -0.491279 7.02284 0
M  V30 13153 C 2340.56 -0.996264 5.77469 0
M  V30 13154 N 2340.61 -0.0501916 4.62973 0
M  V30 13155 H 2337.77 0.374722 8.67691 0
M  V30 13156 H 2337.5 0.443485 6.90277 0
M  V30 13157 H 2338.36 -1.75537 7.96793 0
M  V30 13158 P 2342.33 -2.75334 8.47391 0
M  V30 13159 O 2342.55 -3.84128 9.44797 0
M  V30 13160 O 2343.12 -1.51947 8.68712 0
M  V30 13161 O 2342.58 -3.29363 6.99321 0
M  V30 13162 C 2341.64 -4.24011 6.4274 0
M  V30 13163 C 2342.37 -5.20775 5.52155 0
M  V30 13164 O 2342.58 -4.56534 4.22446 0
M  V30 13165 C 2343.77 -5.62629 5.96531 0
M  V30 13166 O 2344.16 -6.87667 5.41053 0
M  V30 13167 C 2344.65 -4.52537 5.39283 0
M  V30 13168 C 2343.94 -4.20027 4.08623 0
M  V30 13169 N 2343.99 -2.76189 3.71603 0
M  V30 13170 C 2343.91 -1.64862 4.52822 0
M  V30 13171 N 2343.99 -0.512671 3.88633 0
M  V30 13172 C 2344.13 -0.888083 2.54977 0
M  V30 13173 C 2344.26 -0.094668 1.38677 0
M  V30 13174 O 2344.28 1.13053 1.28163 0
M  V30 13175 N 2344.38 -0.890102 0.232633 0
M  V30 13176 C 2344.38 -2.26958 0.21772 0
M  V30 13177 N 2344.51 -2.84626 -0.97925 0
M  V30 13178 N 2344.25 -3.0178 1.31033 0
M  V30 13179 C 2344.13 -2.26781 2.43843 0
M  V30 13180 H 2341.15 -4.797 7.24003 0
M  V30 13181 H 2340.88 -3.69856 5.84513 0
M  V30 13182 H 2341.74 -6.10356 5.41441 0
M  V30 13183 H 2344.4 -4.79061 3.27488 0
M  V30 13184 H 2344.68 -3.64906 6.05785 0
M  V30 13185 H 2345.67 -4.8868 5.2125 0
M  V30 13186 H 2343.84 -5.66726 7.06352 0
M  V30 13187 H 2343.79 -1.71169 5.60966 0
M  V30 13188 H 2344.47 -0.419134 -0.644739 0
M  V30 13189 H 2344.51 -3.87332 -1.06098 0
M  V30 13190 H 2344.61 -2.26417 -1.82483 0
M  V30 13191 P 2345.71 -7.20834 5.23717 0
M  V30 13192 O 2345.93 -8.66104 5.38572 0
M  V30 13193 O 2346.5 -6.33544 6.1349 0
M  V30 13194 O 2345.96 -6.7751 3.72168 0
M  V30 13195 C 2345.02 -7.20825 2.7076 0
M  V30 13196 C 2345.75 -7.45864 1.40599 0
M  V30 13197 O 2345.96 -6.17651 0.734225 0
M  V30 13198 C 2347.15 -8.05808 1.51899 0
M  V30 13199 O 2347.54 -8.74358 0.335205 0
M  V30 13200 C 2348.03 -6.83093 1.70294 0
M  V30 13201 C 2347.32 -5.79992 0.836974 0
M  V30 13202 N 2347.37 -4.41864 1.38293 0
M  V30 13203 H 2344.53 -8.13644 3.0377 0
M  V30 13204 H 2344.26 -6.42788 2.55485 0
M  V30 13205 H 2345.12 -8.12039 0.792769 0
M  V30 13206 P 2349.09 -8.91 5.28567e-11 0
M  V30 13207 O 2349.31 -10.1726 -0.733694 0
M  V30 13208 O 2349.88 -8.73148 1.23936 0
M  V30 13209 O 2349.34 -7.66872 -0.971405 0
M  V30 13210 C 2348.4 -7.42309 -2.04641 0
M  V30 13211 C 2349.13 -6.86059 -3.24661 0
M  V30 13212 O 2349.34 -5.42847 -3.03646 0
M  V30 13213 C 2350.53 -7.41196 -3.50753 0
M  V30 13214 O 2350.92 -7.27073 -4.86816 0
M  V30 13215 C 2351.41 -6.5273 -2.63741 0
M  V30 13216 C 2350.7 -5.1842 -2.73198 0
M  V30 13217 N 2350.75 -4.38762 -1.4784 0
M  V30 13218 H 2347.91 -8.36803 -2.32493 0
M  V30 13219 H 2347.64 -6.70197 -1.71129 0
M  V30 13220 H 2348.5 -7.03551 -4.13168 0
M  V30 13221 P 2352.47 -7.20834 -5.23717 0
M  V30 13222 O 2352.69 -7.79853 -6.57286 0
M  V30 13223 O 2353.26 -7.79239 -4.12957 0
M  V30 13224 O 2352.72 -5.63315 -5.29344 0
M  V30 13225 C 2351.78 -4.80255 -6.01876 0
M  V30 13226 C 2352.51 -3.64202 -6.65911 0
M  V30 13227 O 2352.72 -2.60694 -5.64732 0
M  V30 13228 C 2353.91 -3.93473 -7.1943 0
M  V30 13229 O 2354.3 -3.02071 -8.21205 0
M  V30 13230 C 2354.79 -3.73047 -5.97036 0
M  V30 13231 C 2354.08 -2.58828 -5.25741 0
M  V30 13232 N 2354.13 -2.68068 -3.77503 0
M  V30 13233 C 2354.05 -3.79715 -2.96723 0
M  V30 13234 N 2354.13 -3.5377 -1.68852 0
M  V30 13235 C 2354.27 -2.15054 -1.63254 0
M  V30 13236 C 2354.4 -1.28964 -0.518571 0
M  V30 13237 O 2354.42 -1.56826 0.679156 0
M  V30 13238 N 2354.52 0.0538097 -0.918425 0
M  V30 13239 C 2354.52 0.494275 -2.22578 0
M  V30 13240 N 2354.65 1.81086 -2.40434 0
M  V30 13241 N 2354.39 -0.313645 -3.27502 0
M  V30 13242 C 2354.27 -1.61829 -2.91033 0
M  V30 13243 H 2351.29 -5.40332 -6.79951 0
M  V30 13244 H 2351.02 -4.41613 -5.32378 0
M  V30 13245 H 2351.88 -3.26331 -7.47797 0
M  V30 13246 H 2354.54 -1.63422 -5.56814 0
M  V30 13247 H 2354.82 -4.63374 -5.34244 0
M  V30 13248 H 2355.81 -3.44728 -6.25838 0
M  V30 13249 H 2353.98 -4.96652 -7.57263 0
M  V30 13250 H 2353.93 -4.80617 -3.3614 0
M  V30 13251 H 2354.61 0.742702 -0.199384 0
M  V30 13252 H 2354.65 2.20598 -3.35588 0
M  V30 13253 H 2354.75 2.43518 -1.58945 0
M  V30 13254 P 2355.85 -2.75334 -8.47391 0
M  V30 13255 O 2356.07 -2.44571 -9.90142 0
M  V30 13256 O 2356.64 -3.87688 -7.92115 0
M  V30 13257 O 2356.1 -1.4459 -7.59357 0
M  V30 13258 C 2355.16 -0.347608 -7.69215 0
M  V30 13259 C 2355.89 0.96767 -7.52806 0
M  V30 13260 O 2356.1 1.21036 -6.1011 0
M  V30 13261 C 2357.29 1.04544 -8.13308 0
M  V30 13262 O 2357.68 2.38311 -8.41922 0
M  V30 13263 C 2358.17 0.491279 -7.02284 0
M  V30 13264 C 2357.46 0.996264 -5.77469 0
M  V30 13265 N 2357.51 0.0501916 -4.62973 0
M  V30 13266 H 2354.67 -0.374722 -8.67691 0
M  V30 13267 H 2354.4 -0.443485 -6.90277 0
M  V30 13268 H 2355.26 1.75537 -7.96793 0
M  V30 13269 P 2359.23 2.75334 -8.47391 0
M  V30 13270 O 2359.45 3.84128 -9.44797 0
M  V30 13271 O 2360.02 1.51947 -8.68712 0
M  V30 13272 O 2359.48 3.29363 -6.99321 0
M  V30 13273 C 2358.54 4.24011 -6.4274 0
M  V30 13274 C 2359.27 5.20775 -5.52155 0
M  V30 13275 O 2359.48 4.56534 -4.22446 0
M  V30 13276 C 2360.67 5.62629 -5.96531 0
M  V30 13277 O 2361.06 6.87667 -5.41053 0
M  V30 13278 C 2361.55 4.52537 -5.39283 0
M  V30 13279 C 2360.84 4.20027 -4.08623 0
M  V30 13280 N 2360.89 2.76189 -3.71603 0
M  V30 13281 C 2360.81 1.64862 -4.52822 0
M  V30 13282 N 2360.89 0.512671 -3.88633 0
M  V30 13283 C 2361.03 0.888083 -2.54977 0
M  V30 13284 C 2361.16 0.094668 -1.38677 0
M  V30 13285 O 2361.18 -1.13053 -1.28163 0
M  V30 13286 N 2361.28 0.890102 -0.232633 0
M  V30 13287 C 2361.28 2.26958 -0.21772 0
M  V30 13288 N 2361.41 2.84626 0.97925 0
M  V30 13289 N 2361.15 3.0178 -1.31033 0
M  V30 13290 C 2361.03 2.26781 -2.43843 0
M  V30 13291 H 2358.05 4.797 -7.24003 0
M  V30 13292 H 2357.78 3.69856 -5.84513 0
M  V30 13293 H 2358.64 6.10356 -5.41441 0
M  V30 13294 H 2361.3 4.79061 -3.27488 0
M  V30 13295 H 2361.58 3.64906 -6.05785 0
M  V30 13296 H 2362.57 4.8868 -5.2125 0
M  V30 13297 H 2360.74 5.66726 -7.06352 0
M  V30 13298 H 2360.69 1.71169 -5.60966 0
M  V30 13299 H 2361.37 0.419134 0.644739 0
M  V30 13300 H 2361.41 3.87332 1.06098 0
M  V30 13301 H 2361.51 2.26417 1.82483 0
M  V30 13302 P 2362.61 7.20834 -5.23717 0
M  V30 13303 O 2362.83 8.66104 -5.38572 0
M  V30 13304 O 2363.4 6.33544 -6.1349 0
M  V30 13305 O 2362.86 6.7751 -3.72168 0
M  V30 13306 C 2361.92 7.20825 -2.7076 0
M  V30 13307 C 2362.65 7.45864 -1.40599 0
M  V30 13308 O 2362.86 6.17651 -0.734225 0
M  V30 13309 C 2364.05 8.05808 -1.51899 0
M  V30 13310 O 2364.44 8.74358 -0.335205 0
M  V30 13311 C 2364.93 6.83093 -1.70294 0
M  V30 13312 C 2364.22 5.79992 -0.836974 0
M  V30 13313 N 2364.27 4.41864 -1.38293 0
M  V30 13314 C 2364.19 3.99538 -2.69438 0
M  V30 13315 N 2364.27 2.69909 -2.84277 0
M  V30 13316 C 2364.41 2.21719 -1.5408 0
M  V30 13317 C 2364.54 0.891712 -1.06628 0
M  V30 13318 O 2364.56 -0.161298 -1.70137 0
M  V30 13319 N 2364.66 0.856846 0.334985 0
M  V30 13320 C 2364.66 1.9641 1.15789 0
M  V30 13321 N 2364.79 1.72708 2.46522 0
M  V30 13322 N 2364.53 3.21165 0.713741 0
M  V30 13323 C 2364.41 3.26797 -0.639748 0
M  V30 13324 H 2361.43 8.13644 -3.0377 0
M  V30 13325 H 2361.16 6.42788 -2.55485 0
M  V30 13326 H 2362.02 8.12039 -0.792769 0
M  V30 13327 H 2364.68 5.80061 0.166416 0
M  V30 13328 H 2364.96 6.51287 -2.75604 0
M  V30 13329 H 2365.95 7.01734 -1.34462 0
M  V30 13330 H 2364.12 8.73674 -2.38337 0
M  V30 13331 H 2364.07 4.68207 -3.53221 0
M  V30 13332 H 2364.75 -0.0398818 0.767965 0
M  V30 13333 H 2364.79 2.50995 3.13503 0
M  V30 13334 H 2364.89 0.759148 2.80716 0
M  V30 13335 P 2365.99 8.91 -5.39657e-11 0
M  V30 13336 O 2366.21 10.1726 0.733694 0
M  V30 13337 O 2366.78 8.73148 -1.23936 0
M  V30 13338 O 2366.24 7.66872 0.971405 0
M  V30 13339 C 2365.3 7.42309 2.04641 0
M  V30 13340 C 2366.03 6.86059 3.24661 0
M  V30 13341 O 2366.24 5.42847 3.03646 0
M  V30 13342 C 2367.43 7.41196 3.50753 0
M  V30 13343 O 2367.82 7.27073 4.86816 0
M  V30 13344 C 2368.31 6.5273 2.63741 0
M  V30 13345 C 2367.6 5.1842 2.73198 0
M  V30 13346 N 2367.65 4.38762 1.4784 0
M  V30 13347 H 2364.81 8.36803 2.32493 0
M  V30 13348 H 2364.54 6.70197 1.71129 0
M  V30 13349 H 2365.4 7.03551 4.13168 0
M  V30 13350 P 2369.37 7.20834 5.23717 0
M  V30 13351 O 2369.59 7.80006 6.57415 0
M  V30 13352 O 2370.16 7.79416 4.13051 0
M  V30 13353 O 2369.62 5.63315 5.29344 0
M  V30 13354 C 2368.68 4.80318 6.01954 0
M  V30 13355 C 2369.41 3.64202 6.65911 0
M  V30 13356 O 2369.62 2.60736 5.64823 0
M  V30 13357 C 2370.81 3.93521 7.19518 0
M  V30 13358 O 2371.2 3.02071 8.21205 0
M  V30 13359 C 2371.69 3.73047 5.97036 0
M  V30 13360 C 2370.98 2.58828 5.25741 0
M  V30 13361 N 2371.03 2.68068 3.77503 0
M  V30 13362 H 2368.19 5.40394 6.8003 0
M  V30 13363 H 2367.92 4.41741 5.32532 0
M  V30 13364 H 2368.78 3.26371 7.47889 0
M  V30 13365 H 2371.44 1.64007 5.56746 0
M  V30 13366 H 2371.72 4.63439 5.3432 0
M  V30 13367 H 2372.71 3.44776 6.25925 0
M  V30 13368 H 2370.88 4.96707 7.57347 0
M  V30 13369 P 2372.75 2.75334 8.47391 0
M  V30 13370 O 2372.97 2.44595 9.90239 0
M  V30 13371 O 2373.54 3.87732 7.92204 0
M  V30 13372 O 2373 1.4459 7.59357 0
M  V30 13373 C 2372.06 0.347563 7.69115 0
M  V30 13374 C 2372.79 -0.96767 7.52806 0
M  V30 13375 O 2373 -1.21036 6.1011 0
M  V30 13376 C 2374.19 -1.04544 8.13308 0
M  V30 13377 O 2374.58 -2.38311 8.41922 0
M  V30 13378 C 2375.07 -0.491279 7.02284 0
M  V30 13379 C 2374.36 -0.996264 5.77469 0
M  V30 13380 N 2374.41 -0.0501808 4.62873 0
M  V30 13381 C 2374.56 -0.588177 3.36904 0
M  V30 13382 O 2374.65 -1.78598 3.17173 0
M  V30 13383 N 2374.6 0.329694 2.33686 0
M  V30 13384 C 2374.51 1.6953 2.45079 0
M  V30 13385 O 2374.56 2.41926 1.44899 0
M  V30 13386 C 2374.36 2.16933 3.80505 0
M  V30 13387 C 2374.25 3.65373 3.97621 0
M  V30 13388 C 2374.31 1.30326 4.83752 0
M  V30 13389 H 2371.57 0.374722 8.67691 0
M  V30 13390 H 2371.3 0.443421 6.90177 0
M  V30 13391 H 2372.16 -1.75537 7.96793 0
M  V30 13392 H 2374.82 -1.94496 5.46629 0
M  V30 13393 H 2375.1 0.608651 7.04676 0
M  V30 13394 H 2376.09 -0.889672 7.08939 0
M  V30 13395 H 2374.26 -0.43308 9.04564 0
M  V30 13396 H 2374.18 1.68366 5.8516 0
M  V30 13397 H 2375.21 4.05985 4.30448 0
M  V30 13398 H 2373.48 3.88028 4.72875 0
M  V30 13399 H 2373.97 4.11381 3.01609 0
M  V30 13400 H 2374.7 -0.0393617 1.41345 0
M  V30 13401 P 2376.13 -2.75334 8.47391 0
M  V30 13402 O 2376.35 -3.84128 9.44797 0
M  V30 13403 O 2376.92 -1.51947 8.68712 0
M  V30 13404 O 2376.38 -3.29363 6.99321 0
M  V30 13405 C 2375.44 -4.24011 6.4274 0
M  V30 13406 C 2376.17 -5.20775 5.52155 0
M  V30 13407 O 2376.38 -4.56534 4.22446 0
M  V30 13408 C 2377.57 -5.62629 5.96531 0
M  V30 13409 O 2377.96 -6.87667 5.41053 0
M  V30 13410 C 2378.45 -4.52537 5.39283 0
M  V30 13411 C 2377.74 -4.20027 4.08623 0
M  V30 13412 N 2377.79 -2.76189 3.71603 0
M  V30 13413 C 2377.71 -1.64862 4.52822 0
M  V30 13414 N 2377.79 -0.512671 3.88633 0
M  V30 13415 C 2377.93 -0.888083 2.54977 0
M  V30 13416 C 2378.06 -0.094668 1.38677 0
M  V30 13417 O 2378.08 1.13053 1.28163 0
M  V30 13418 N 2378.18 -0.890102 0.232633 0
M  V30 13419 C 2378.18 -2.26958 0.21772 0
M  V30 13420 N 2378.31 -2.84626 -0.97925 0
M  V30 13421 N 2378.05 -3.0178 1.31033 0
M  V30 13422 C 2377.93 -2.26781 2.43843 0
M  V30 13423 H 2374.95 -4.797 7.24003 0
M  V30 13424 H 2374.68 -3.69856 5.84513 0
M  V30 13425 H 2375.54 -6.10356 5.41441 0
M  V30 13426 H 2378.2 -4.79061 3.27488 0
M  V30 13427 H 2378.48 -3.64906 6.05785 0
M  V30 13428 H 2379.47 -4.8868 5.2125 0
M  V30 13429 H 2377.64 -5.66726 7.06352 0
M  V30 13430 H 2377.59 -1.71169 5.60966 0
M  V30 13431 H 2378.27 -0.419134 -0.644739 0
M  V30 13432 H 2378.31 -3.87332 -1.06098 0
M  V30 13433 H 2378.41 -2.26417 -1.82483 0
M  V30 13434 P 2379.51 -7.20834 5.23717 0
M  V30 13435 O 2379.73 -8.66104 5.38572 0
M  V30 13436 O 2380.3 -6.33544 6.1349 0
M  V30 13437 O 2379.76 -6.7751 3.72168 0
M  V30 13438 C 2378.82 -7.20825 2.7076 0
M  V30 13439 C 2379.55 -7.45864 1.40599 0
M  V30 13440 O 2379.76 -6.17651 0.734225 0
M  V30 13441 C 2380.95 -8.05808 1.51899 0
M  V30 13442 O 2381.34 -8.74358 0.335205 0
M  V30 13443 C 2381.83 -6.83093 1.70294 0
M  V30 13444 C 2381.12 -5.79992 0.836974 0
M  V30 13445 N 2381.17 -4.41864 1.38293 0
M  V30 13446 H 2378.33 -8.13644 3.0377 0
M  V30 13447 H 2378.06 -6.42788 2.55485 0
M  V30 13448 H 2378.92 -8.12039 0.792769 0
M  V30 13449 P 2382.89 -8.91 5.50747e-11 0
M  V30 13450 O 2383.11 -10.1726 -0.733694 0
M  V30 13451 O 2383.68 -8.73148 1.23936 0
M  V30 13452 O 2383.14 -7.66872 -0.971405 0
M  V30 13453 C 2382.2 -7.42309 -2.04641 0
M  V30 13454 C 2382.93 -6.86059 -3.24661 0
M  V30 13455 O 2383.14 -5.42847 -3.03646 0
M  V30 13456 C 2384.33 -7.41196 -3.50753 0
M  V30 13457 O 2384.72 -7.27073 -4.86816 0
M  V30 13458 C 2385.21 -6.5273 -2.63741 0
M  V30 13459 C 2384.5 -5.1842 -2.73198 0
M  V30 13460 N 2384.55 -4.38762 -1.4784 0
M  V30 13461 H 2381.71 -8.36803 -2.32493 0
M  V30 13462 H 2381.44 -6.70197 -1.71129 0
M  V30 13463 H 2382.3 -7.03551 -4.13168 0
M  V30 13464 P 2386.27 -7.20834 -5.23717 0
M  V30 13465 O 2386.49 -7.79853 -6.57286 0
M  V30 13466 O 2387.06 -7.79239 -4.12957 0
M  V30 13467 O 2386.52 -5.63315 -5.29344 0
M  V30 13468 C 2385.58 -4.80255 -6.01876 0
M  V30 13469 C 2386.31 -3.64202 -6.65911 0
M  V30 13470 O 2386.52 -2.60694 -5.64732 0
M  V30 13471 C 2387.71 -3.93473 -7.1943 0
M  V30 13472 O 2388.1 -3.02071 -8.21205 0
M  V30 13473 C 2388.59 -3.73047 -5.97036 0
M  V30 13474 C 2387.88 -2.58828 -5.25741 0
M  V30 13475 N 2387.93 -2.68068 -3.77503 0
M  V30 13476 C 2387.85 -3.79715 -2.96723 0
M  V30 13477 N 2387.93 -3.5377 -1.68852 0
M  V30 13478 C 2388.07 -2.15054 -1.63254 0
M  V30 13479 C 2388.2 -1.28964 -0.518571 0
M  V30 13480 N 2388.32 0.0538097 -0.918425 0
M  V30 13481 C 2388.32 0.494275 -2.22578 0
M  V30 13482 N 2388.45 1.81086 -2.40434 0
M  V30 13483 N 2388.19 -0.313645 -3.27502 0
M  V30 13484 C 2388.07 -1.61829 -2.91033 0
M  V30 13485 H 2385.09 -5.40332 -6.79951 0
M  V30 13486 H 2384.82 -4.41613 -5.32378 0
M  V30 13487 H 2385.68 -3.26331 -7.47797 0
M  V30 13488 P 2389.65 -2.75334 -8.47391 0
M  V30 13489 O 2389.87 -2.44595 -9.90239 0
M  V30 13490 O 2390.44 -3.87732 -7.92204 0
M  V30 13491 O 2389.9 -1.4459 -7.59357 0
M  V30 13492 C 2388.96 -0.347563 -7.69115 0
M  V30 13493 C 2389.69 0.96767 -7.52806 0
M  V30 13494 O 2389.9 1.21036 -6.1011 0
M  V30 13495 C 2391.09 1.04544 -8.13308 0
M  V30 13496 O 2391.48 2.38311 -8.41922 0
M  V30 13497 C 2391.97 0.491279 -7.02284 0
M  V30 13498 C 2391.26 0.996264 -5.77469 0
M  V30 13499 N 2391.31 0.0501808 -4.62873 0
M  V30 13500 C 2391.46 0.588177 -3.36904 0
M  V30 13501 O 2391.55 1.78598 -3.17173 0
M  V30 13502 N 2391.5 -0.329694 -2.33686 0
M  V30 13503 C 2391.41 -1.6953 -2.45079 0
M  V30 13504 C 2391.26 -2.16933 -3.80505 0
M  V30 13505 C 2391.21 -1.30326 -4.83752 0
M  V30 13506 H 2388.47 -0.374722 -8.67691 0
M  V30 13507 H 2388.2 -0.443421 -6.90177 0
M  V30 13508 H 2389.06 1.75537 -7.96793 0
M  V30 13509 H 2391.72 1.94496 -5.46629 0
M  V30 13510 H 2392 -0.608651 -7.04676 0
M  V30 13511 H 2392.99 0.889672 -7.08939 0
M  V30 13512 H 2391.16 0.43308 -9.04564 0
M  V30 13513 H 2391.08 -1.68366 -5.8516 0
M  V30 13514 P 2393.03 2.75334 -8.47391 0
M  V30 13515 O 2393.25 3.84204 -9.44982 0
M  V30 13516 O 2393.82 1.51982 -8.68909 0
M  V30 13517 O 2393.28 3.29363 -6.99321 0
M  V30 13518 C 2392.34 4.24066 -6.42823 0
M  V30 13519 C 2393.07 5.20775 -5.52155 0
M  V30 13520 O 2393.28 4.56607 -4.22514 0
M  V30 13521 C 2394.47 5.62697 -5.96604 0
M  V30 13522 O 2394.86 6.87667 -5.41053 0
M  V30 13523 C 2395.35 4.52537 -5.39283 0
M  V30 13524 C 2394.64 4.20027 -4.08623 0
M  V30 13525 N 2394.69 2.76189 -3.71603 0
M  V30 13526 C 2394.61 1.66944 -4.54297 0
M  V30 13527 N 2394.68 0.536169 -3.91344 0
M  V30 13528 C 2394.83 0.901569 -2.58849 0
M  V30 13529 C 2394.96 0.146599 -1.40236 0
M  V30 13530 N 2394.97 -1.18234 -1.37046 0
M  V30 13531 N 2395.08 0.822941 -0.249738 0
M  V30 13532 C 2395.07 2.15179 -0.280525 0
M  V30 13533 N 2394.95 2.96414 -1.30822 0
M  V30 13534 C 2394.83 2.25804 -2.44748 0
M  V30 13535 H 2391.85 4.79756 -7.24086 0
M  V30 13536 H 2391.58 3.69963 -5.84682 0
M  V30 13537 H 2392.44 6.10431 -5.41508 0
M  V30 13538 H 2395.1 4.78816 -3.28024 0
M  V30 13539 H 2395.38 3.64957 -6.05871 0
M  V30 13540 H 2396.37 4.88748 -5.21323 0
M  V30 13541 H 2394.54 5.66789 -7.0643 0
M  V30 13542 H 2394.49 1.74684 -5.62396 0
M  V30 13543 H 2394.88 -1.71949 -2.24394 0
M  V30 13544 H 2395.06 -1.67511 -0.470742 0
M  V30 13545 H 2395.17 2.63704 0.6828 0
M  V30 13546 P 2396.41 7.20834 -5.23717 0
M  V30 13547 O 2396.63 8.66104 -5.38572 0
M  V30 13548 O 2397.2 6.33544 -6.1349 0
M  V30 13549 O 2396.66 6.7751 -3.72168 0
M  V30 13550 C 2395.72 7.20825 -2.7076 0
M  V30 13551 C 2396.45 7.45864 -1.40599 0
M  V30 13552 O 2396.66 6.17651 -0.734225 0
M  V30 13553 C 2397.85 8.05808 -1.51899 0
M  V30 13554 O 2398.24 8.74358 -0.335205 0
M  V30 13555 C 2398.73 6.83093 -1.70294 0
M  V30 13556 C 2398.02 5.79992 -0.836974 0
M  V30 13557 N 2398.07 4.41864 -1.38293 0
M  V30 13558 H 2395.23 8.13644 -3.0377 0
M  V30 13559 H 2394.96 6.42788 -2.55485 0
M  V30 13560 H 2395.82 8.12039 -0.792769 0
M  V30 13561 P 2399.79 8.91 -5.61837e-11 0
M  V30 13562 O 2400.01 10.1726 0.733694 0
M  V30 13563 O 2400.58 8.73148 -1.23936 0
M  V30 13564 O 2400.04 7.66872 0.971405 0
M  V30 13565 C 2399.1 7.42309 2.04641 0
M  V30 13566 C 2399.83 6.86059 3.24661 0
M  V30 13567 O 2400.04 5.42847 3.03646 0
M  V30 13568 C 2401.23 7.41196 3.50753 0
M  V30 13569 O 2401.62 7.27073 4.86816 0
M  V30 13570 C 2402.11 6.5273 2.63741 0
M  V30 13571 C 2401.4 5.1842 2.73198 0
M  V30 13572 N 2401.45 4.38762 1.4784 0
M  V30 13573 H 2398.61 8.36803 2.32493 0
M  V30 13574 H 2398.34 6.70197 1.71129 0
M  V30 13575 H 2399.2 7.03551 4.13168 0
M  V30 13576 P 2403.17 7.20834 5.23717 0
M  V30 13577 O 2403.39 7.79853 6.57286 0
M  V30 13578 O 2403.96 7.79239 4.12957 0
M  V30 13579 O 2403.42 5.63315 5.29344 0
M  V30 13580 C 2402.48 4.80255 6.01876 0
M  V30 13581 C 2403.21 3.64202 6.65911 0
M  V30 13582 O 2403.42 2.60694 5.64732 0
M  V30 13583 C 2404.61 3.93473 7.1943 0
M  V30 13584 O 2405 3.02071 8.21205 0
M  V30 13585 C 2405.49 3.73047 5.97036 0
M  V30 13586 C 2404.78 2.58828 5.25741 0
M  V30 13587 N 2404.83 2.68068 3.77503 0
M  V30 13588 H 2401.99 5.40332 6.79951 0
M  V30 13589 H 2401.72 4.41613 5.32378 0
M  V30 13590 H 2402.58 3.26331 7.47797 0
M  V30 13591 P 2406.55 2.75334 8.47391 0
M  V30 13592 O 2406.77 2.44619 9.90336 0
M  V30 13593 O 2407.34 3.87776 7.92294 0
M  V30 13594 O 2406.8 1.4459 7.59357 0
M  V30 13595 C 2405.86 0.347653 7.69315 0
M  V30 13596 C 2406.59 -0.96767 7.52806 0
M  V30 13597 O 2406.8 -1.21055 6.10208 0
M  V30 13598 C 2407.99 -1.04557 8.13408 0
M  V30 13599 O 2408.38 -2.38311 8.41922 0
M  V30 13600 C 2408.87 -0.491279 7.02284 0
M  V30 13601 C 2408.16 -0.996264 5.77469 0
M  V30 13602 N 2408.21 -0.0501916 4.62973 0
M  V30 13603 H 2405.37 0.374765 8.67791 0
M  V30 13604 H 2405.1 0.443613 6.90476 0
M  V30 13605 H 2405.96 -1.75559 7.96891 0
M  V30 13606 H 2408.62 -1.94563 5.46818 0
M  V30 13607 H 2408.9 0.608651 7.04676 0
M  V30 13608 H 2409.89 -0.889796 7.09039 0
M  V30 13609 H 2408.06 -0.433128 9.04664 0
M  V30 13610 P 2409.93 -2.75334 8.47391 0
M  V30 13611 O 2410.15 -3.84128 9.44797 0
M  V30 13612 O 2410.72 -1.51947 8.68712 0
M  V30 13613 O 2410.18 -3.29363 6.99321 0
M  V30 13614 C 2409.24 -4.24011 6.4274 0
M  V30 13615 C 2409.97 -5.20775 5.52155 0
M  V30 13616 O 2410.18 -4.56534 4.22446 0
M  V30 13617 C 2411.37 -5.62629 5.96531 0
M  V30 13618 O 2411.76 -6.87667 5.41053 0
M  V30 13619 C 2412.25 -4.52537 5.39283 0
M  V30 13620 C 2411.54 -4.20027 4.08623 0
M  V30 13621 N 2411.59 -2.76189 3.71603 0
M  V30 13622 H 2408.75 -4.797 7.24003 0
M  V30 13623 H 2408.48 -3.69856 5.84513 0
M  V30 13624 H 2409.34 -6.10356 5.41441 0
M  V30 13625 P 2413.31 -7.20834 5.23717 0
M  V30 13626 O 2413.53 -8.66274 5.38678 0
M  V30 13627 O 2414.1 -6.33687 6.13629 0
M  V30 13628 O 2413.56 -6.7751 3.72168 0
M  V30 13629 C 2412.62 -7.20919 2.70795 0
M  V30 13630 C 2413.35 -7.45864 1.40599 0
M  V30 13631 O 2413.56 -6.17751 0.734343 0
M  V30 13632 C 2414.75 -8.05906 1.51917 0
M  V30 13633 O 2415.14 -8.74358 0.335205 0
M  V30 13634 C 2415.63 -6.83093 1.70294 0
M  V30 13635 C 2414.92 -5.79992 0.836974 0
M  V30 13636 N 2414.97 -4.41864 1.38293 0
M  V30 13637 H 2412.13 -8.13738 3.03804 0
M  V30 13638 H 2411.86 -6.42974 2.55559 0
M  V30 13639 H 2412.72 -8.12139 0.792866 0
M  V30 13640 H 2415.38 -5.80178 -0.160643 0
M  V30 13641 H 2415.66 -6.51379 2.75643 0
M  V30 13642 H 2416.65 -7.01832 1.3448 0
M  V30 13643 H 2414.82 -8.73771 2.38364 0
M  V30 13644 P 2416.69 -8.91 5.72927e-11 0
M  V30 13645 O 2416.91 -10.1726 -0.733694 0
M  V30 13646 O 2417.48 -8.73148 1.23936 0
M  V30 13647 O 2416.94 -7.66872 -0.971405 0
M  V30 13648 C 2416 -7.42309 -2.04641 0
M  V30 13649 C 2416.73 -6.86059 -3.24661 0
M  V30 13650 O 2416.94 -5.42847 -3.03646 0
M  V30 13651 C 2418.13 -7.41196 -3.50753 0
M  V30 13652 O 2418.52 -7.27073 -4.86816 0
M  V30 13653 C 2419.01 -6.5273 -2.63741 0
M  V30 13654 C 2418.3 -5.1842 -2.73198 0
M  V30 13655 N 2418.35 -4.38762 -1.4784 0
M  V30 13656 H 2415.51 -8.36803 -2.32493 0
M  V30 13657 H 2415.24 -6.70197 -1.71129 0
M  V30 13658 H 2416.1 -7.03551 -4.13168 0
M  V30 13659 P 2420.07 -7.20834 -5.23717 0
M  V30 13660 O 2420.29 -7.79853 -6.57286 0
M  V30 13661 O 2420.86 -7.79239 -4.12957 0
M  V30 13662 O 2420.32 -5.63315 -5.29344 0
M  V30 13663 C 2419.38 -4.80255 -6.01876 0
M  V30 13664 C 2420.11 -3.64202 -6.65911 0
M  V30 13665 O 2420.32 -2.60694 -5.64732 0
M  V30 13666 C 2421.51 -3.93473 -7.1943 0
M  V30 13667 O 2421.9 -3.02071 -8.21205 0
M  V30 13668 C 2422.39 -3.73047 -5.97036 0
M  V30 13669 C 2421.68 -2.58828 -5.25741 0
M  V30 13670 N 2421.73 -2.68068 -3.77503 0
M  V30 13671 C 2421.65 -3.79715 -2.96723 0
M  V30 13672 N 2421.73 -3.5377 -1.68852 0
M  V30 13673 C 2421.87 -2.15054 -1.63254 0
M  V30 13674 C 2422 -1.28964 -0.518571 0
M  V30 13675 O 2422.02 -1.56826 0.679156 0
M  V30 13676 N 2422.12 0.0538097 -0.918425 0
M  V30 13677 C 2422.12 0.494275 -2.22578 0
M  V30 13678 N 2422.25 1.81086 -2.40434 0
M  V30 13679 N 2421.99 -0.313645 -3.27502 0
M  V30 13680 C 2421.87 -1.61829 -2.91033 0
M  V30 13681 H 2418.89 -5.40332 -6.79951 0
M  V30 13682 H 2418.62 -4.41613 -5.32378 0
M  V30 13683 H 2419.48 -3.26331 -7.47797 0
M  V30 13684 H 2422.14 -1.63422 -5.56814 0
M  V30 13685 H 2422.42 -4.63374 -5.34244 0
M  V30 13686 H 2423.41 -3.44728 -6.25838 0
M  V30 13687 H 2421.58 -4.96652 -7.57263 0
M  V30 13688 H 2421.53 -4.80617 -3.3614 0
M  V30 13689 H 2422.21 0.742702 -0.199384 0
M  V30 13690 H 2422.25 2.20598 -3.35588 0
M  V30 13691 H 2422.35 2.43518 -1.58945 0
M  V30 13692 P 2423.45 -2.75334 -8.47391 0
M  V30 13693 O 2423.67 -2.44595 -9.90239 0
M  V30 13694 O 2424.24 -3.87732 -7.92204 0
M  V30 13695 O 2423.7 -1.4459 -7.59357 0
M  V30 13696 C 2422.76 -0.347563 -7.69115 0
M  V30 13697 C 2423.49 0.96767 -7.52806 0
M  V30 13698 O 2423.7 1.21036 -6.1011 0
M  V30 13699 C 2424.89 1.04544 -8.13308 0
M  V30 13700 O 2425.28 2.38311 -8.41922 0
M  V30 13701 C 2425.77 0.491279 -7.02284 0
M  V30 13702 C 2425.06 0.996264 -5.77469 0
M  V30 13703 N 2425.11 0.0501808 -4.62873 0
M  V30 13704 C 2425.26 0.588177 -3.36904 0
M  V30 13705 O 2425.35 1.78598 -3.17173 0
M  V30 13706 N 2425.3 -0.329694 -2.33686 0
M  V30 13707 C 2425.21 -1.6953 -2.45079 0
M  V30 13708 O 2425.26 -2.41926 -1.44899 0
M  V30 13709 C 2425.06 -2.16933 -3.80505 0
M  V30 13710 C 2424.95 -3.65373 -3.97621 0
M  V30 13711 C 2425.01 -1.30326 -4.83752 0
M  V30 13712 H 2422.27 -0.374722 -8.67691 0
M  V30 13713 H 2422 -0.443421 -6.90177 0
M  V30 13714 H 2422.86 1.75537 -7.96793 0
M  V30 13715 H 2425.52 1.94496 -5.46629 0
M  V30 13716 H 2425.8 -0.608651 -7.04676 0
M  V30 13717 H 2426.79 0.889672 -7.08939 0
M  V30 13718 H 2424.96 0.43308 -9.04564 0
M  V30 13719 H 2424.88 -1.68366 -5.8516 0
M  V30 13720 H 2425.91 -4.05985 -4.30448 0
M  V30 13721 H 2424.18 -3.88028 -4.72875 0
M  V30 13722 H 2424.67 -4.11381 -3.01609 0
M  V30 13723 H 2425.4 0.0393617 -1.41345 0
M  V30 13724 P 2426.83 2.75334 -8.47391 0
M  V30 13725 O 2427.05 3.84128 -9.44797 0
M  V30 13726 O 2427.62 1.51947 -8.68712 0
M  V30 13727 O 2427.08 3.29363 -6.99321 0
M  V30 13728 C 2426.14 4.24011 -6.4274 0
M  V30 13729 C 2426.87 5.20775 -5.52155 0
M  V30 13730 O 2427.08 4.56534 -4.22446 0
M  V30 13731 C 2428.27 5.62629 -5.96531 0
M  V30 13732 O 2428.66 6.87667 -5.41053 0
M  V30 13733 C 2429.15 4.52537 -5.39283 0
M  V30 13734 C 2428.44 4.20027 -4.08623 0
M  V30 13735 N 2428.49 2.76189 -3.71603 0
M  V30 13736 C 2428.41 1.64862 -4.52822 0
M  V30 13737 N 2428.49 0.512671 -3.88633 0
M  V30 13738 C 2428.63 0.888083 -2.54977 0
M  V30 13739 C 2428.76 0.094668 -1.38677 0
M  V30 13740 N 2428.88 0.890102 -0.232633 0
M  V30 13741 C 2428.88 2.26958 -0.21772 0
M  V30 13742 N 2429.01 2.84626 0.97925 0
M  V30 13743 N 2428.75 3.0178 -1.31033 0
M  V30 13744 C 2428.63 2.26781 -2.43843 0
M  V30 13745 H 2425.65 4.797 -7.24003 0
M  V30 13746 H 2425.38 3.69856 -5.84513 0
M  V30 13747 H 2426.24 6.10356 -5.41441 0
M  V30 13748 P 2430.21 7.20834 -5.23717 0
M  V30 13749 O 2430.43 8.66189 -5.38625 0
M  V30 13750 O 2431 6.33615 -6.1356 0
M  V30 13751 O 2430.46 6.7751 -3.72168 0
M  V30 13752 C 2429.52 7.20732 -2.70725 0
M  V30 13753 C 2430.25 7.45864 -1.40599 0
M  V30 13754 O 2430.46 6.17651 -0.734225 0
M  V30 13755 C 2431.65 8.05808 -1.51899 0
M  V30 13756 O 2432.04 8.74358 -0.335205 0
M  V30 13757 C 2432.53 6.83093 -1.70294 0
M  V30 13758 C 2431.82 5.79992 -0.836974 0
M  V30 13759 N 2431.87 4.41769 -1.38263 0
M  V30 13760 C 2432.02 3.38591 -0.481702 0
M  V30 13761 O 2432.11 3.56839 0.718452 0
M  V30 13762 N 2432.06 2.1206 -1.03569 0
M  V30 13763 C 2431.97 1.80696 -2.36966 0
M  V30 13764 C 2431.82 2.94845 -3.23898 0
M  V30 13765 C 2431.77 4.19803 -2.73435 0
M  V30 13766 H 2429.03 8.13644 -3.0377 0
M  V30 13767 H 2428.76 6.42695 -2.55448 0
M  V30 13768 H 2429.62 8.12039 -0.792769 0
M  V30 13769 H 2432.28 5.79978 0.160587 0
M  V30 13770 H 2432.56 6.51379 -2.75643 0
M  V30 13771 H 2433.55 7.01734 -1.34462 0
M  V30 13772 H 2431.72 8.73674 -2.38337 0
M  V30 13773 H 2431.64 5.04492 -3.4095 0
M  V30 13774 P 2433.59 8.91 -5.84017e-11 0
M  V30 13775 O 2433.81 10.1746 0.733838 0
M  V30 13776 O 2434.38 8.73346 -1.23964 0
M  V30 13777 O 2433.84 7.66872 0.971405 0
M  V30 13778 C 2432.9 7.42405 2.04668 0
M  V30 13779 C 2433.63 6.86059 3.24661 0
M  V30 13780 O 2433.84 5.42934 3.03695 0
M  V30 13781 C 2435.03 7.41287 3.50796 0
M  V30 13782 O 2435.42 7.27073 4.86816 0
M  V30 13783 C 2435.91 6.5273 2.63741 0
M  V30 13784 C 2435.2 5.1842 2.73198 0
M  V30 13785 N 2435.25 4.38762 1.4784 0
M  V30 13786 C 2435.17 4.83651 0.183876 0
M  V30 13787 N 2435.24 3.88759 -0.699393 0
M  V30 13788 C 2435.39 2.7404 0.0575568 0
M  V30 13789 C 2435.52 1.37902 -0.293928 0
M  V30 13790 N 2435.53 0.938021 -1.54797 0
M  V30 13791 N 2435.64 0.491817 0.70549 0
M  V30 13792 C 2435.63 0.931735 1.95979 0
M  V30 13793 N 2435.51 2.16017 2.41481 0
M  V30 13794 C 2435.39 3.02547 1.39121 0
M  V30 13795 H 2432.41 8.36899 2.3252 0
M  V30 13796 H 2432.14 6.70391 1.71179 0
M  V30 13797 H 2433 7.03638 4.13219 0
M  V30 13798 H 2435.66 4.59931 3.54016 0
M  V30 13799 H 2435.94 6.88995 1.59871 0
M  V30 13800 H 2436.93 6.4684 3.0373 0
M  V30 13801 H 2435.1 8.47002 3.20749 0
M  V30 13802 H 2435.05 5.8885 -0.0765548 0
M  V30 13803 H 2435.44 1.60276 -2.32875 0
M  V30 13804 H 2435.62 -0.0699355 -1.73859 0
M  V30 13805 H 2435.73 0.165507 2.71897 0
M  V30 13806 P 2436.97 7.20834 5.23717 0
M  V30 13807 O 2437.19 7.79853 6.57286 0
M  V30 13808 O 2437.76 7.79239 4.12957 0
M  V30 13809 O 2437.22 5.63315 5.29344 0
M  V30 13810 C 2436.28 4.80255 6.01876 0
M  V30 13811 C 2437.01 3.64202 6.65911 0
M  V30 13812 O 2437.22 2.60694 5.64732 0
M  V30 13813 C 2438.41 3.93473 7.1943 0
M  V30 13814 O 2438.8 3.02071 8.21205 0
M  V30 13815 C 2439.29 3.73047 5.97036 0
M  V30 13816 C 2438.58 2.58828 5.25741 0
M  V30 13817 N 2438.63 2.68068 3.77503 0
M  V30 13818 H 2435.79 5.40332 6.79951 0
M  V30 13819 H 2435.52 4.41613 5.32378 0
M  V30 13820 H 2436.38 3.26331 7.47797 0
M  V30 13821 P 2440.35 2.75334 8.47391 0
M  V30 13822 O 2440.57 2.44571 9.90142 0
M  V30 13823 O 2441.14 3.87688 7.92115 0
M  V30 13824 O 2440.6 1.4459 7.59357 0
M  V30 13825 C 2439.66 0.347608 7.69215 0
M  V30 13826 C 2440.39 -0.96767 7.52806 0
M  V30 13827 O 2440.6 -1.21036 6.1011 0
M  V30 13828 C 2441.79 -1.04544 8.13308 0
M  V30 13829 O 2442.18 -2.38311 8.41922 0
M  V30 13830 C 2442.67 -0.491279 7.02284 0
M  V30 13831 C 2441.96 -0.996264 5.77469 0
M  V30 13832 N 2442.01 -0.0501916 4.62973 0
M  V30 13833 H 2439.17 0.374722 8.67691 0
M  V30 13834 H 2438.9 0.443485 6.90277 0
M  V30 13835 H 2439.76 -1.75537 7.96793 0
M  V30 13836 P 2443.73 -2.75334 8.47391 0
M  V30 13837 O 2443.95 -3.84128 9.44797 0
M  V30 13838 O 2444.52 -1.51947 8.68712 0
M  V30 13839 O 2443.98 -3.29363 6.99321 0
M  V30 13840 C 2443.04 -4.24011 6.4274 0
M  V30 13841 C 2443.77 -5.20775 5.52155 0
M  V30 13842 O 2443.98 -4.56534 4.22446 0
M  V30 13843 C 2445.17 -5.62629 5.96531 0
M  V30 13844 O 2445.56 -6.87667 5.41053 0
M  V30 13845 C 2446.05 -4.52537 5.39283 0
M  V30 13846 C 2445.34 -4.20027 4.08623 0
M  V30 13847 N 2445.39 -2.76189 3.71603 0
M  V30 13848 H 2442.55 -4.797 7.24003 0
M  V30 13849 H 2442.28 -3.69856 5.84513 0
M  V30 13850 H 2443.14 -6.10356 5.41441 0
M  V30 13851 P 2447.11 -7.20834 5.23717 0
M  V30 13852 O 2447.33 -8.66104 5.38572 0
M  V30 13853 O 2447.9 -6.33544 6.1349 0
M  V30 13854 O 2447.36 -6.7751 3.72168 0
M  V30 13855 C 2446.42 -7.20825 2.7076 0
M  V30 13856 C 2447.15 -7.45864 1.40599 0
M  V30 13857 O 2447.36 -6.17651 0.734225 0
M  V30 13858 C 2448.55 -8.05808 1.51899 0
M  V30 13859 O 2448.94 -8.74358 0.335205 0
M  V30 13860 C 2449.43 -6.83093 1.70294 0
M  V30 13861 C 2448.72 -5.79992 0.836974 0
M  V30 13862 N 2448.77 -4.41864 1.38293 0
M  V30 13863 H 2445.93 -8.13644 3.0377 0
M  V30 13864 H 2445.66 -6.42788 2.55485 0
M  V30 13865 H 2446.52 -8.12039 0.792769 0
M  V30 13866 P 2450.49 -8.91 5.95107e-11 0
M  V30 13867 O 2450.71 -10.1726 -0.733694 0
M  V30 13868 O 2451.28 -8.73148 1.23936 0
M  V30 13869 O 2450.74 -7.66872 -0.971405 0
M  V30 13870 C 2449.8 -7.42309 -2.04641 0
M  V30 13871 C 2450.53 -6.86059 -3.24661 0
M  V30 13872 O 2450.74 -5.42847 -3.03646 0
M  V30 13873 C 2451.93 -7.41196 -3.50753 0
M  V30 13874 O 2452.32 -7.27073 -4.86816 0
M  V30 13875 C 2452.81 -6.5273 -2.63741 0
M  V30 13876 C 2452.1 -5.1842 -2.73198 0
M  V30 13877 N 2452.15 -4.38762 -1.4784 0
M  V30 13878 H 2449.31 -8.36803 -2.32493 0
M  V30 13879 H 2449.04 -6.70197 -1.71129 0
M  V30 13880 H 2449.9 -7.03551 -4.13168 0
M  V30 13881 P 2453.87 -7.20834 -5.23717 0
M  V30 13882 O 2454.09 -7.79853 -6.57286 0
M  V30 13883 O 2454.66 -7.79239 -4.12957 0
M  V30 13884 O 2454.12 -5.63315 -5.29344 0
M  V30 13885 C 2453.18 -4.80255 -6.01876 0
M  V30 13886 C 2453.91 -3.64202 -6.65911 0
M  V30 13887 O 2454.12 -2.60694 -5.64732 0
M  V30 13888 C 2455.31 -3.93473 -7.1943 0
M  V30 13889 O 2455.7 -3.02071 -8.21205 0
M  V30 13890 C 2456.19 -3.73047 -5.97036 0
M  V30 13891 C 2455.48 -2.58828 -5.25741 0
M  V30 13892 N 2455.53 -2.68068 -3.77503 0
M  V30 13893 H 2452.69 -5.40332 -6.79951 0
M  V30 13894 H 2452.42 -4.41613 -5.32378 0
M  V30 13895 H 2453.28 -3.26331 -7.47797 0
M  V30 13896 P 2457.25 -2.75334 -8.47391 0
M  V30 13897 O 2457.47 -2.44619 -9.90336 0
M  V30 13898 O 2458.04 -3.87776 -7.92294 0
M  V30 13899 O 2457.5 -1.4459 -7.59357 0
M  V30 13900 C 2456.56 -0.347653 -7.69315 0
M  V30 13901 C 2457.29 0.96767 -7.52806 0
M  V30 13902 O 2457.5 1.21055 -6.10208 0
M  V30 13903 C 2458.69 1.04557 -8.13408 0
M  V30 13904 O 2459.08 2.38311 -8.41922 0
M  V30 13905 C 2459.57 0.491279 -7.02284 0
M  V30 13906 C 2458.86 0.996264 -5.77469 0
M  V30 13907 N 2458.91 0.0501916 -4.62973 0
M  V30 13908 H 2456.07 -0.374765 -8.67791 0
M  V30 13909 H 2455.8 -0.443613 -6.90476 0
M  V30 13910 H 2456.66 1.75559 -7.96891 0
M  V30 13911 H 2459.32 1.94563 -5.46818 0
M  V30 13912 H 2459.6 -0.608651 -7.04676 0
M  V30 13913 H 2460.59 0.889796 -7.09039 0
M  V30 13914 H 2458.76 0.433128 -9.04664 0
M  V30 13915 P 2460.63 2.75334 -8.47391 0
M  V30 13916 O 2460.85 3.84128 -9.44797 0
M  V30 13917 O 2461.42 1.51947 -8.68712 0
M  V30 13918 O 2460.88 3.29363 -6.99321 0
M  V30 13919 C 2459.94 4.24011 -6.4274 0
M  V30 13920 C 2460.67 5.20775 -5.52155 0
M  V30 13921 O 2460.88 4.56534 -4.22446 0
M  V30 13922 C 2462.07 5.62629 -5.96531 0
M  V30 13923 O 2462.46 6.87667 -5.41053 0
M  V30 13924 C 2462.95 4.52537 -5.39283 0
M  V30 13925 C 2462.24 4.20027 -4.08623 0
M  V30 13926 N 2462.29 2.76189 -3.71603 0
M  V30 13927 C 2462.21 1.64862 -4.52822 0
M  V30 13928 N 2462.29 0.512671 -3.88633 0
M  V30 13929 C 2462.43 0.888083 -2.54977 0
M  V30 13930 C 2462.56 0.094668 -1.38677 0
M  V30 13931 O 2462.58 -1.13053 -1.28163 0
M  V30 13932 N 2462.68 0.890102 -0.232633 0
M  V30 13933 C 2462.68 2.26958 -0.21772 0
M  V30 13934 N 2462.81 2.84626 0.97925 0
M  V30 13935 N 2462.55 3.0178 -1.31033 0
M  V30 13936 C 2462.43 2.26781 -2.43843 0
M  V30 13937 H 2459.45 4.797 -7.24003 0
M  V30 13938 H 2459.18 3.69856 -5.84513 0
M  V30 13939 H 2460.04 6.10356 -5.41441 0
M  V30 13940 H 2462.7 4.79061 -3.27488 0
M  V30 13941 H 2462.98 3.64906 -6.05785 0
M  V30 13942 H 2463.97 4.8868 -5.2125 0
M  V30 13943 H 2462.14 5.66726 -7.06352 0
M  V30 13944 H 2462.09 1.71169 -5.60966 0
M  V30 13945 H 2462.77 0.419134 0.644739 0
M  V30 13946 H 2462.81 3.87332 1.06098 0
M  V30 13947 H 2462.91 2.26417 1.82483 0
M  V30 13948 P 2464.01 7.20834 -5.23717 0
M  V30 13949 O 2464.23 8.66104 -5.38572 0
M  V30 13950 O 2464.8 6.33544 -6.1349 0
M  V30 13951 O 2464.26 6.7751 -3.72168 0
M  V30 13952 C 2463.32 7.20825 -2.7076 0
M  V30 13953 C 2464.05 7.45864 -1.40599 0
M  V30 13954 O 2464.26 6.17651 -0.734225 0
M  V30 13955 C 2465.45 8.05808 -1.51899 0
M  V30 13956 O 2465.84 8.74358 -0.335205 0
M  V30 13957 C 2466.33 6.83093 -1.70294 0
M  V30 13958 C 2465.62 5.79992 -0.836974 0
M  V30 13959 N 2465.67 4.41864 -1.38293 0
M  V30 13960 H 2462.83 8.13644 -3.0377 0
M  V30 13961 H 2462.56 6.42788 -2.55485 0
M  V30 13962 H 2463.42 8.12039 -0.792769 0
M  V30 13963 P 2467.39 8.91 -6.06197e-11 0
M  V30 13964 O 2467.61 10.1726 0.733694 0
M  V30 13965 O 2468.18 8.73148 -1.23936 0
M  V30 13966 O 2467.64 7.66872 0.971405 0
M  V30 13967 C 2466.7 7.42309 2.04641 0
M  V30 13968 C 2467.43 6.86059 3.24661 0
M  V30 13969 O 2467.64 5.42847 3.03646 0
M  V30 13970 C 2468.83 7.41196 3.50753 0
M  V30 13971 O 2469.22 7.27073 4.86816 0
M  V30 13972 C 2469.71 6.5273 2.63741 0
M  V30 13973 C 2469 5.1842 2.73198 0
M  V30 13974 N 2469.05 4.38762 1.4784 0
M  V30 13975 H 2466.21 8.36803 2.32493 0
M  V30 13976 H 2465.94 6.70197 1.71129 0
M  V30 13977 H 2466.8 7.03551 4.13168 0
M  V30 13978 P 2470.77 7.20834 5.23717 0
M  V30 13979 O 2470.99 7.7993 6.57351 0
M  V30 13980 O 2471.56 7.79328 4.13004 0
M  V30 13981 O 2471.02 5.63315 5.29344 0
M  V30 13982 C 2470.08 4.80193 6.01798 0
M  V30 13983 C 2470.81 3.64202 6.65911 0
M  V30 13984 O 2471.02 2.60694 5.64732 0
M  V30 13985 C 2472.21 3.93473 7.1943 0
M  V30 13986 O 2472.6 3.02071 8.21205 0
M  V30 13987 C 2473.09 3.73047 5.97036 0
M  V30 13988 C 2472.38 2.58828 5.25741 0
M  V30 13989 N 2472.43 2.6801 3.77422 0
M  V30 13990 C 2472.58 1.50443 3.07133 0
M  V30 13991 O 2472.67 0.419406 3.61576 0
M  V30 13992 N 2472.62 1.6403 1.69677 0
M  V30 13993 C 2472.53 2.81206 0.986255 0
M  V30 13994 O 2472.58 2.80892 -0.249754 0
M  V30 13995 C 2472.38 3.99158 1.80325 0
M  V30 13996 C 2472.27 5.29309 1.06921 0
M  V30 13997 C 2472.33 3.89779 3.1476 0
M  V30 13998 H 2469.59 5.40332 6.79951 0
M  V30 13999 H 2469.32 4.41549 5.32301 0
M  V30 14000 H 2470.18 3.26331 7.47797 0
M  V30 14001 H 2472.84 1.6395 5.56554 0
M  V30 14002 H 2473.12 4.63439 5.3432 0
M  V30 14003 H 2474.11 3.44728 6.25838 0
M  V30 14004 H 2472.28 4.96652 7.57263 0
M  V30 14005 H 2472.2 4.80159 3.74441 0
M  V30 14006 H 2473.23 5.81459 1.09608 0
M  V30 14007 H 2471.5 5.9187 1.54487 0
M  V30 14008 H 2471.99 5.10095 0.0220288 0
M  V30 14009 H 2472.72 0.798962 1.16664 0
M  V30 14010 P 2474.15 2.75334 8.47391 0
M  V30 14011 O 2474.37 2.44571 9.90142 0
M  V30 14012 O 2474.94 3.87688 7.92115 0
M  V30 14013 O 2474.4 1.4459 7.59357 0
M  V30 14014 C 2473.46 0.347608 7.69215 0
M  V30 14015 C 2474.19 -0.96767 7.52806 0
M  V30 14016 O 2474.4 -1.21036 6.1011 0
M  V30 14017 C 2475.59 -1.04544 8.13308 0
M  V30 14018 O 2475.98 -2.38311 8.41922 0
M  V30 14019 C 2476.47 -0.491279 7.02284 0
M  V30 14020 C 2475.76 -0.996264 5.77469 0
M  V30 14021 N 2475.81 -0.0501916 4.62973 0
M  V30 14022 H 2472.97 0.374722 8.67691 0
M  V30 14023 H 2472.7 0.443485 6.90277 0
M  V30 14024 H 2473.56 -1.75537 7.96793 0
M  V30 14025 P 2477.53 -2.75334 8.47391 0
M  V30 14026 O 2477.75 -3.84128 9.44797 0
M  V30 14027 O 2478.32 -1.51947 8.68712 0
M  V30 14028 O 2477.78 -3.29363 6.99321 0
M  V30 14029 C 2476.84 -4.24011 6.4274 0
M  V30 14030 C 2477.57 -5.20775 5.52155 0
M  V30 14031 O 2477.78 -4.56534 4.22446 0
M  V30 14032 C 2478.97 -5.62629 5.96531 0
M  V30 14033 O 2479.36 -6.87667 5.41053 0
M  V30 14034 C 2479.85 -4.52537 5.39283 0
M  V30 14035 C 2479.14 -4.20027 4.08623 0
M  V30 14036 N 2479.19 -2.76189 3.71603 0
M  V30 14037 H 2476.35 -4.797 7.24003 0
M  V30 14038 H 2476.08 -3.69856 5.84513 0
M  V30 14039 H 2476.94 -6.10356 5.41441 0
M  V30 14040 P 2480.91 -7.20834 5.23717 0
M  V30 14041 O 2481.13 -8.66104 5.38572 0
M  V30 14042 O 2481.7 -6.33544 6.1349 0
M  V30 14043 O 2481.16 -6.7751 3.72168 0
M  V30 14044 C 2480.22 -7.20825 2.7076 0
M  V30 14045 C 2480.95 -7.45864 1.40599 0
M  V30 14046 O 2481.16 -6.17651 0.734225 0
M  V30 14047 C 2482.35 -8.05808 1.51899 0
M  V30 14048 O 2482.74 -8.74358 0.335205 0
M  V30 14049 C 2483.23 -6.83093 1.70294 0
M  V30 14050 C 2482.52 -5.79992 0.836974 0
M  V30 14051 N 2482.57 -4.41864 1.38293 0
M  V30 14052 H 2479.73 -8.13644 3.0377 0
M  V30 14053 H 2479.46 -6.42788 2.55485 0
M  V30 14054 H 2480.32 -8.12039 0.792769 0
M  V30 14055 P 2484.29 -8.91 6.17288e-11 0
M  V30 14056 O 2484.51 -10.1726 -0.733694 0
M  V30 14057 O 2485.08 -8.73148 1.23936 0
M  V30 14058 O 2484.54 -7.66872 -0.971405 0
M  V30 14059 C 2483.6 -7.42309 -2.04641 0
M  V30 14060 C 2484.33 -6.86059 -3.24661 0
M  V30 14061 O 2484.54 -5.42847 -3.03646 0
M  V30 14062 C 2485.73 -7.41196 -3.50753 0
M  V30 14063 O 2486.12 -7.27073 -4.86816 0
M  V30 14064 C 2486.61 -6.5273 -2.63741 0
M  V30 14065 C 2485.9 -5.1842 -2.73198 0
M  V30 14066 N 2485.95 -4.38762 -1.4784 0
M  V30 14067 H 2483.11 -8.36803 -2.32493 0
M  V30 14068 H 2482.84 -6.70197 -1.71129 0
M  V30 14069 H 2483.7 -7.03551 -4.13168 0
M  V30 14070 P 2487.67 -7.20834 -5.23717 0
M  V30 14071 O 2487.89 -7.7993 -6.57351 0
M  V30 14072 O 2488.46 -7.79328 -4.13004 0
M  V30 14073 O 2487.92 -5.63315 -5.29344 0
M  V30 14074 C 2486.98 -4.80193 -6.01798 0
M  V30 14075 C 2487.71 -3.64202 -6.65911 0
M  V30 14076 O 2487.92 -2.60694 -5.64732 0
M  V30 14077 C 2489.11 -3.93473 -7.1943 0
M  V30 14078 O 2489.5 -3.02071 -8.21205 0
M  V30 14079 C 2489.99 -3.73047 -5.97036 0
M  V30 14080 C 2489.28 -2.58828 -5.25741 0
M  V30 14081 N 2489.33 -2.6801 -3.77422 0
M  V30 14082 C 2489.48 -1.50443 -3.07133 0
M  V30 14083 O 2489.57 -0.419406 -3.61576 0
M  V30 14084 N 2489.52 -1.6403 -1.69677 0
M  V30 14085 C 2489.43 -2.81206 -0.986255 0
M  V30 14086 O 2489.48 -2.80892 0.249754 0
M  V30 14087 C 2489.28 -3.99158 -1.80325 0
M  V30 14088 C 2489.17 -5.29309 -1.06921 0
M  V30 14089 C 2489.23 -3.89779 -3.1476 0
M  V30 14090 H 2486.49 -5.40332 -6.79951 0
M  V30 14091 H 2486.22 -4.41549 -5.32301 0
M  V30 14092 H 2487.08 -3.26331 -7.47797 0
M  V30 14093 H 2489.74 -1.6395 -5.56554 0
M  V30 14094 H 2490.02 -4.63439 -5.3432 0
M  V30 14095 H 2491.01 -3.44728 -6.25838 0
M  V30 14096 H 2489.18 -4.96652 -7.57263 0
M  V30 14097 H 2489.1 -4.80159 -3.74441 0
M  V30 14098 H 2490.13 -5.81459 -1.09608 0
M  V30 14099 H 2488.4 -5.9187 -1.54487 0
M  V30 14100 H 2488.89 -5.10095 -0.0220288 0
M  V30 14101 H 2489.62 -0.798962 -1.16664 0
M  V30 14102 P 2491.05 -2.75334 -8.47391 0
M  V30 14103 O 2491.27 -2.44571 -9.90142 0
M  V30 14104 O 2491.84 -3.87688 -7.92115 0
M  V30 14105 O 2491.3 -1.4459 -7.59357 0
M  V30 14106 C 2490.36 -0.347608 -7.69215 0
M  V30 14107 C 2491.09 0.96767 -7.52806 0
M  V30 14108 O 2491.3 1.21036 -6.1011 0
M  V30 14109 C 2492.49 1.04544 -8.13308 0
M  V30 14110 O 2492.88 2.38311 -8.41922 0
M  V30 14111 C 2493.37 0.491279 -7.02284 0
M  V30 14112 C 2492.66 0.996264 -5.77469 0
M  V30 14113 N 2492.71 0.0501916 -4.62973 0
M  V30 14114 H 2489.87 -0.374722 -8.67691 0
M  V30 14115 H 2489.6 -0.443485 -6.90277 0
M  V30 14116 H 2490.46 1.75537 -7.96793 0
M  V30 14117 P 2494.43 2.75334 -8.47391 0
M  V30 14118 O 2494.65 3.84128 -9.44797 0
M  V30 14119 O 2495.22 1.51947 -8.68712 0
M  V30 14120 O 2494.68 3.29363 -6.99321 0
M  V30 14121 C 2493.74 4.24011 -6.4274 0
M  V30 14122 C 2494.47 5.20775 -5.52155 0
M  V30 14123 O 2494.68 4.56534 -4.22446 0
M  V30 14124 C 2495.87 5.62629 -5.96531 0
M  V30 14125 O 2496.26 6.87667 -5.41053 0
M  V30 14126 C 2496.75 4.52537 -5.39283 0
M  V30 14127 C 2496.04 4.20027 -4.08623 0
M  V30 14128 N 2496.09 2.76189 -3.71603 0
M  V30 14129 H 2493.25 4.797 -7.24003 0
M  V30 14130 H 2492.98 3.69856 -5.84513 0
M  V30 14131 H 2493.84 6.10356 -5.41441 0
M  V30 14132 P 2497.81 7.20834 -5.23717 0
M  V30 14133 O 2498.03 8.66274 -5.38678 0
M  V30 14134 O 2498.6 6.33687 -6.13629 0
M  V30 14135 O 2498.06 6.7751 -3.72168 0
M  V30 14136 C 2497.12 7.20919 -2.70795 0
M  V30 14137 C 2497.85 7.45864 -1.40599 0
M  V30 14138 O 2498.06 6.17751 -0.734343 0
M  V30 14139 C 2499.25 8.05906 -1.51917 0
M  V30 14140 O 2499.64 8.74358 -0.335205 0
M  V30 14141 C 2500.13 6.83093 -1.70294 0
M  V30 14142 C 2499.42 5.79992 -0.836974 0
M  V30 14143 N 2499.47 4.41864 -1.38293 0
M  V30 14144 C 2499.39 4.02089 -2.69407 0
M  V30 14145 N 2499.46 2.73403 -2.85089 0
M  V30 14146 C 2499.61 2.25086 -1.5642 0
M  V30 14147 C 2499.74 0.942887 -1.04836 0
M  V30 14148 N 2499.75 -0.150999 -1.80369 0
M  V30 14149 N 2499.86 0.812565 0.28167 0
M  V30 14150 C 2499.85 1.90572 1.03784 0
M  V30 14151 N 2499.73 3.167 0.683905 0
M  V30 14152 C 2499.61 3.26538 -0.652815 0
M  V30 14153 H 2496.63 8.13738 -3.03804 0
M  V30 14154 H 2496.36 6.42974 -2.55559 0
M  V30 14155 H 2497.22 8.12139 -0.792866 0
M  V30 14156 H 2499.88 5.80178 0.160643 0
M  V30 14157 H 2500.16 6.51379 -2.75643 0
M  V30 14158 H 2501.15 7.01832 -1.3448 0
M  V30 14159 H 2499.32 8.73771 -2.38364 0
M  V30 14160 H 2499.27 4.7189 -3.52311 0
M  V30 14161 H 2499.66 -0.0721434 -2.82608 0
M  V30 14162 H 2499.84 -1.0785 -1.36544 0
M  V30 14163 H 2499.95 1.73207 2.10241 0
M  V30 14164 P 2501.19 8.91 -6.28378e-11 0
M  V30 14165 O 2501.41 10.1726 0.733694 0
M  V30 14166 O 2501.98 8.73148 -1.23936 0
M  V30 14167 O 2501.44 7.66872 0.971405 0
M  V30 14168 C 2500.5 7.42309 2.04641 0
M  V30 14169 C 2501.23 6.86059 3.24661 0
M  V30 14170 O 2501.44 5.42847 3.03646 0
M  V30 14171 C 2502.63 7.41196 3.50753 0
M  V30 14172 O 2503.02 7.27073 4.86816 0
M  V30 14173 C 2503.51 6.5273 2.63741 0
M  V30 14174 C 2502.8 5.1842 2.73198 0
M  V30 14175 N 2502.85 4.38762 1.4784 0
M  V30 14176 H 2500.01 8.36803 2.32493 0
M  V30 14177 H 2499.74 6.70197 1.71129 0
M  V30 14178 H 2500.6 7.03551 4.13168 0
M  V30 14179 P 2504.57 7.20834 5.23717 0
M  V30 14180 O 2504.79 7.79853 6.57286 0
M  V30 14181 O 2505.36 7.79239 4.12957 0
M  V30 14182 O 2504.82 5.63315 5.29344 0
M  V30 14183 C 2503.88 4.80255 6.01876 0
M  V30 14184 C 2504.61 3.64202 6.65911 0
M  V30 14185 O 2504.82 2.60694 5.64732 0
M  V30 14186 C 2506.01 3.93473 7.1943 0
M  V30 14187 O 2506.4 3.02071 8.21205 0
M  V30 14188 C 2506.89 3.73047 5.97036 0
M  V30 14189 C 2506.18 2.58828 5.25741 0
M  V30 14190 N 2506.23 2.68068 3.77503 0
M  V30 14191 H 2503.39 5.40332 6.79951 0
M  V30 14192 H 2503.12 4.41613 5.32378 0
M  V30 14193 H 2503.98 3.26331 7.47797 0
M  V30 14194 P 2507.95 2.75334 8.47391 0
M  V30 14195 O 2508.17 2.44571 9.90142 0
M  V30 14196 O 2508.74 3.87688 7.92115 0
M  V30 14197 O 2508.2 1.4459 7.59357 0
M  V30 14198 C 2507.26 0.347608 7.69215 0
M  V30 14199 C 2507.99 -0.96767 7.52806 0
M  V30 14200 O 2508.2 -1.21036 6.1011 0
M  V30 14201 C 2509.39 -1.04544 8.13308 0
M  V30 14202 O 2509.78 -2.38311 8.41922 0
M  V30 14203 C 2510.27 -0.491279 7.02284 0
M  V30 14204 C 2509.56 -0.996264 5.77469 0
M  V30 14205 N 2509.61 -0.0501916 4.62973 0
M  V30 14206 H 2506.77 0.374722 8.67691 0
M  V30 14207 H 2506.5 0.443485 6.90277 0
M  V30 14208 H 2507.36 -1.75537 7.96793 0
M  V30 14209 P 2511.33 -2.75334 8.47391 0
M  V30 14210 O 2511.55 -3.84204 9.44982 0
M  V30 14211 O 2512.12 -1.51982 8.68909 0
M  V30 14212 O 2511.58 -3.29363 6.99321 0
M  V30 14213 C 2510.64 -4.24066 6.42823 0
M  V30 14214 C 2511.37 -5.20775 5.52155 0
M  V30 14215 O 2511.58 -4.56607 4.22514 0
M  V30 14216 C 2512.77 -5.62697 5.96604 0
M  V30 14217 O 2513.16 -6.87667 5.41053 0
M  V30 14218 C 2513.65 -4.52537 5.39283 0
M  V30 14219 C 2512.94 -4.20027 4.08623 0
M  V30 14220 N 2512.99 -2.76189 3.71603 0
M  V30 14221 C 2512.91 -1.66944 4.54297 0
M  V30 14222 N 2512.98 -0.536169 3.91344 0
M  V30 14223 C 2513.13 -0.901569 2.58849 0
M  V30 14224 C 2513.26 -0.146599 1.40236 0
M  V30 14225 N 2513.27 1.18234 1.37046 0
M  V30 14226 N 2513.38 -0.822941 0.249738 0
M  V30 14227 C 2513.37 -2.15179 0.280525 0
M  V30 14228 N 2513.25 -2.96414 1.30822 0
M  V30 14229 C 2513.13 -2.25804 2.44748 0
M  V30 14230 H 2510.15 -4.79756 7.24086 0
M  V30 14231 H 2509.88 -3.69963 5.84682 0
M  V30 14232 H 2510.74 -6.10431 5.41508 0
M  V30 14233 H 2513.4 -4.78816 3.28024 0
M  V30 14234 H 2513.68 -3.64957 6.05871 0
M  V30 14235 H 2514.67 -4.88748 5.21323 0
M  V30 14236 H 2512.84 -5.66789 7.0643 0
M  V30 14237 H 2512.79 -1.74684 5.62396 0
M  V30 14238 H 2513.18 1.71949 2.24394 0
M  V30 14239 H 2513.36 1.67511 0.470742 0
M  V30 14240 H 2513.47 -2.63704 -0.6828 0
M  V30 14241 P 2514.71 -7.20834 5.23717 0
M  V30 14242 O 2514.93 -8.66104 5.38572 0
M  V30 14243 O 2515.5 -6.33544 6.1349 0
M  V30 14244 O 2514.96 -6.7751 3.72168 0
M  V30 14245 C 2514.02 -7.20825 2.7076 0
M  V30 14246 C 2514.75 -7.45864 1.40599 0
M  V30 14247 O 2514.96 -6.17651 0.734225 0
M  V30 14248 C 2516.15 -8.05808 1.51899 0
M  V30 14249 O 2516.54 -8.74358 0.335205 0
M  V30 14250 C 2517.03 -6.83093 1.70294 0
M  V30 14251 C 2516.32 -5.79992 0.836974 0
M  V30 14252 N 2516.37 -4.41864 1.38293 0
M  V30 14253 H 2513.53 -8.13644 3.0377 0
M  V30 14254 H 2513.26 -6.42788 2.55485 0
M  V30 14255 H 2514.12 -8.12039 0.792769 0
M  V30 14256 P 2518.09 -8.91 6.39468e-11 0
M  V30 14257 O 2518.31 -10.1726 -0.733694 0
M  V30 14258 O 2518.88 -8.73148 1.23936 0
M  V30 14259 O 2518.34 -7.66872 -0.971405 0
M  V30 14260 C 2517.4 -7.42309 -2.04641 0
M  V30 14261 C 2518.13 -6.86059 -3.24661 0
M  V30 14262 O 2518.34 -5.42847 -3.03646 0
M  V30 14263 C 2519.53 -7.41196 -3.50753 0
M  V30 14264 O 2519.92 -7.27073 -4.86816 0
M  V30 14265 C 2520.41 -6.5273 -2.63741 0
M  V30 14266 C 2519.7 -5.1842 -2.73198 0
M  V30 14267 N 2519.75 -4.38762 -1.4784 0
M  V30 14268 H 2516.91 -8.36803 -2.32493 0
M  V30 14269 H 2516.64 -6.70197 -1.71129 0
M  V30 14270 H 2517.5 -7.03551 -4.13168 0
M  V30 14271 P 2521.47 -7.20834 -5.23717 0
M  V30 14272 O 2521.69 -7.79853 -6.57286 0
M  V30 14273 O 2522.26 -7.79239 -4.12957 0
M  V30 14274 O 2521.72 -5.63315 -5.29344 0
M  V30 14275 C 2520.78 -4.80255 -6.01876 0
M  V30 14276 C 2521.51 -3.64202 -6.65911 0
M  V30 14277 O 2521.72 -2.60694 -5.64732 0
M  V30 14278 C 2522.91 -3.93473 -7.1943 0
M  V30 14279 O 2523.3 -3.02071 -8.21205 0
M  V30 14280 C 2523.79 -3.73047 -5.97036 0
M  V30 14281 C 2523.08 -2.58828 -5.25741 0
M  V30 14282 N 2523.13 -2.68068 -3.77503 0
M  V30 14283 H 2520.29 -5.40332 -6.79951 0
M  V30 14284 H 2520.02 -4.41613 -5.32378 0
M  V30 14285 H 2520.88 -3.26331 -7.47797 0
M  V30 14286 P 2524.85 -2.75334 -8.47391 0
M  V30 14287 O 2525.07 -2.44595 -9.90239 0
M  V30 14288 O 2525.64 -3.87732 -7.92204 0
M  V30 14289 O 2525.1 -1.4459 -7.59357 0
M  V30 14290 C 2524.16 -0.347608 -7.69215 0
M  V30 14291 C 2524.89 0.96767 -7.52806 0
M  V30 14292 O 2525.1 1.21036 -6.1011 0
M  V30 14293 C 2526.29 1.04544 -8.13308 0
M  V30 14294 O 2526.68 2.38311 -8.41922 0
M  V30 14295 C 2527.17 0.491279 -7.02284 0
M  V30 14296 C 2526.46 0.996264 -5.77469 0
M  V30 14297 N 2526.51 0.0501808 -4.62873 0
M  V30 14298 C 2526.66 0.578037 -3.3505 0
M  V30 14299 O 2526.75 1.8073 -3.21711 0
M  V30 14300 N 2526.71 -0.468541 -2.263 0
M  V30 14301 C 2526.61 -1.59186 -2.47176 0
M  V30 14302 N 2526.66 -2.37626 -1.40392 0
M  V30 14303 C 2526.46 -2.16203 -3.77467 0
M  V30 14304 C 2526.41 -1.29324 -4.8195 0
M  V30 14305 H 2523.67 -0.374679 -8.67591 0
M  V30 14306 H 2523.4 -0.443421 -6.90177 0
M  V30 14307 H 2524.26 1.75559 -7.96891 0
M  V30 14308 H 2526.92 1.94529 -5.46723 0
M  V30 14309 H 2527.2 -0.608651 -7.04676 0
M  V30 14310 H 2528.19 0.889672 -7.08939 0
M  V30 14311 H 2526.36 0.43308 -9.04564 0
M  V30 14312 H 2526.28 -1.67758 -5.83046 0
M  V30 14313 H 2526.39 -3.23869 -3.92281 0
M  V30 14314 H 2526.77 -1.96317 -0.467202 0
M  V30 14315 H 2526.58 -3.39693 -1.51142 0
M  V30 14316 P 2528.23 2.75334 -8.47391 0
M  V30 14317 O 2528.45 3.84128 -9.44797 0
M  V30 14318 O 2529.02 1.51947 -8.68712 0
M  V30 14319 O 2528.48 3.29363 -6.99321 0
M  V30 14320 C 2527.54 4.24011 -6.4274 0
M  V30 14321 C 2528.27 5.20775 -5.52155 0
M  V30 14322 O 2528.48 4.56534 -4.22446 0
M  V30 14323 C 2529.67 5.62629 -5.96531 0
M  V30 14324 O 2530.06 6.87667 -5.41053 0
M  V30 14325 C 2530.55 4.52537 -5.39283 0
M  V30 14326 C 2529.84 4.20027 -4.08623 0
M  V30 14327 N 2529.89 2.76189 -3.71603 0
M  V30 14328 H 2527.05 4.797 -7.24003 0
M  V30 14329 H 2526.78 3.69856 -5.84513 0
M  V30 14330 H 2527.64 6.10356 -5.41441 0
M  V30 14331 P 2531.61 7.20834 -5.23717 0
M  V30 14332 O 2531.83 8.66104 -5.38572 0
M  V30 14333 O 2532.4 6.33544 -6.1349 0
M  V30 14334 O 2531.86 6.7751 -3.72168 0
M  V30 14335 C 2530.92 7.20825 -2.7076 0
M  V30 14336 C 2531.65 7.45864 -1.40599 0
M  V30 14337 O 2531.86 6.17651 -0.734225 0
M  V30 14338 C 2533.05 8.05808 -1.51899 0
M  V30 14339 O 2533.44 8.74358 -0.335205 0
M  V30 14340 C 2533.93 6.83093 -1.70294 0
M  V30 14341 C 2533.22 5.79992 -0.836974 0
M  V30 14342 N 2533.27 4.41864 -1.38293 0
M  V30 14343 C 2533.19 3.99538 -2.69438 0
M  V30 14344 N 2533.27 2.69909 -2.84277 0
M  V30 14345 C 2533.41 2.21719 -1.5408 0
M  V30 14346 C 2533.54 0.891712 -1.06628 0
M  V30 14347 N 2533.66 0.856846 0.334985 0
M  V30 14348 C 2533.66 1.9641 1.15789 0
M  V30 14349 N 2533.79 1.72708 2.46522 0
M  V30 14350 N 2533.53 3.21165 0.713741 0
M  V30 14351 C 2533.41 3.26797 -0.639748 0
M  V30 14352 H 2530.43 8.13644 -3.0377 0
M  V30 14353 H 2530.16 6.42788 -2.55485 0
M  V30 14354 H 2531.02 8.12039 -0.792769 0
M  V30 14355 P 2534.99 8.91 -6.50558e-11 0
M  V30 14356 O 2535.21 10.1726 0.733694 0
M  V30 14357 O 2535.78 8.73148 -1.23936 0
M  V30 14358 O 2535.24 7.66872 0.971405 0
M  V30 14359 C 2534.3 7.42309 2.04641 0
M  V30 14360 C 2535.03 6.86059 3.24661 0
M  V30 14361 O 2535.24 5.42847 3.03646 0
M  V30 14362 C 2536.43 7.41196 3.50753 0
M  V30 14363 O 2536.82 7.27073 4.86816 0
M  V30 14364 C 2537.31 6.5273 2.63741 0
M  V30 14365 C 2536.6 5.1842 2.73198 0
M  V30 14366 N 2536.65 4.38762 1.4784 0
M  V30 14367 C 2536.57 4.81605 0.168631 0
M  V30 14368 N 2536.65 3.85454 -0.713363 0
M  V30 14369 C 2536.79 2.6994 0.0566958 0
M  V30 14370 C 2536.92 1.34815 -0.338502 0
M  V30 14371 N 2537.04 0.496304 0.77465 0
M  V30 14372 C 2537.04 0.908403 2.09122 0
M  V30 14373 N 2537.17 -0.0517805 3.00955 0
M  V30 14374 N 2536.91 2.17875 2.46519 0
M  V30 14375 C 2536.79 3.01988 1.4033 0
M  V30 14376 H 2533.81 8.36803 2.32493 0
M  V30 14377 H 2533.54 6.70197 1.71129 0
M  V30 14378 H 2534.4 7.03551 4.13168 0
M  V30 14379 P 2538.36 7.20834 5.23717 0
M  V30 14380 O 2538.58 7.80006 6.57415 0
M  V30 14381 O 2539.15 7.79416 4.13051 0
M  V30 14382 O 2538.61 5.63315 5.29344 0
M  V30 14383 C 2537.67 4.80318 6.01954 0
M  V30 14384 C 2538.4 3.64202 6.65911 0
M  V30 14385 O 2538.61 2.60736 5.64823 0
M  V30 14386 C 2539.8 3.93521 7.19518 0
M  V30 14387 O 2540.19 3.02071 8.21205 0
M  V30 14388 C 2540.68 3.73047 5.97036 0
M  V30 14389 C 2539.97 2.58828 5.25741 0
M  V30 14390 N 2540.02 2.68068 3.77503 0
M  V30 14391 H 2537.19 5.40394 6.8003 0
M  V30 14392 H 2536.91 4.41741 5.32532 0
M  V30 14393 H 2537.78 3.26371 7.47889 0
M  V30 14394 H 2540.44 1.64007 5.56746 0
M  V30 14395 H 2540.72 4.63439 5.3432 0
M  V30 14396 H 2541.71 3.44776 6.25925 0
M  V30 14397 H 2539.87 4.96707 7.57347 0
M  V30 14398 P 2541.74 2.75334 8.47391 0
M  V30 14399 O 2541.96 2.44571 9.90142 0
M  V30 14400 O 2542.53 3.87688 7.92115 0
M  V30 14401 O 2541.99 1.4459 7.59357 0
M  V30 14402 C 2541.05 0.347608 7.69215 0
M  V30 14403 C 2541.78 -0.96767 7.52806 0
M  V30 14404 O 2541.99 -1.21036 6.1011 0
M  V30 14405 C 2543.18 -1.04544 8.13308 0
M  V30 14406 O 2543.57 -2.38311 8.41922 0
M  V30 14407 C 2544.06 -0.491279 7.02284 0
M  V30 14408 C 2543.35 -0.996264 5.77469 0
M  V30 14409 N 2543.4 -0.0501916 4.62973 0
M  V30 14410 H 2540.57 0.374722 8.67691 0
M  V30 14411 H 2540.3 0.443485 6.90277 0
M  V30 14412 H 2541.16 -1.75537 7.96793 0
M  V30 14413 P 2545.12 -2.75334 8.47391 0
M  V30 14414 O 2545.34 -3.84128 9.44797 0
M  V30 14415 O 2545.91 -1.51947 8.68712 0
M  V30 14416 O 2545.37 -3.29363 6.99321 0
M  V30 14417 C 2544.43 -4.24011 6.4274 0
M  V30 14418 C 2545.16 -5.20775 5.52155 0
M  V30 14419 O 2545.37 -4.56534 4.22446 0
M  V30 14420 C 2546.56 -5.62629 5.96531 0
M  V30 14421 O 2546.95 -6.87667 5.41053 0
M  V30 14422 C 2547.44 -4.52537 5.39283 0
M  V30 14423 C 2546.73 -4.20027 4.08623 0
M  V30 14424 N 2546.78 -2.76189 3.71603 0
M  V30 14425 H 2543.95 -4.797 7.24003 0
M  V30 14426 H 2543.68 -3.69856 5.84513 0
M  V30 14427 H 2544.54 -6.10356 5.41441 0
M  V30 14428 P 2548.5 -7.20834 5.23717 0
M  V30 14429 O 2548.72 -8.66104 5.38572 0
M  V30 14430 O 2549.29 -6.33544 6.1349 0
M  V30 14431 O 2548.75 -6.7751 3.72168 0
M  V30 14432 C 2547.81 -7.20825 2.7076 0
M  V30 14433 C 2548.54 -7.45864 1.40599 0
M  V30 14434 O 2548.75 -6.17651 0.734225 0
M  V30 14435 C 2549.94 -8.05808 1.51899 0
M  V30 14436 O 2550.33 -8.74358 0.335205 0
M  V30 14437 C 2550.82 -6.83093 1.70294 0
M  V30 14438 C 2550.11 -5.79992 0.836974 0
M  V30 14439 N 2550.16 -4.41864 1.38293 0
M  V30 14440 H 2547.33 -8.13644 3.0377 0
M  V30 14441 H 2547.06 -6.42788 2.55485 0
M  V30 14442 H 2547.92 -8.12039 0.792769 0
M  V30 14443 P 2551.88 -8.91 6.61648e-11 0
M  V30 14444 O 2552.1 -10.1726 -0.733694 0
M  V30 14445 O 2552.67 -8.73148 1.23936 0
M  V30 14446 O 2552.13 -7.66872 -0.971405 0
M  V30 14447 C 2551.19 -7.42309 -2.04641 0
M  V30 14448 C 2551.92 -6.86059 -3.24661 0
M  V30 14449 O 2552.13 -5.42847 -3.03646 0
M  V30 14450 C 2553.32 -7.41196 -3.50753 0
M  V30 14451 O 2553.71 -7.27073 -4.86816 0
M  V30 14452 C 2554.2 -6.5273 -2.63741 0
M  V30 14453 C 2553.49 -5.1842 -2.73198 0
M  V30 14454 N 2553.54 -4.38762 -1.4784 0
M  V30 14455 C 2553.46 -4.81605 -0.168631 0
M  V30 14456 N 2553.54 -3.85454 0.713363 0
M  V30 14457 C 2553.68 -2.6994 -0.0566958 0
M  V30 14458 C 2553.81 -1.34815 0.338502 0
M  V30 14459 O 2553.83 -0.869548 1.47125 0
M  V30 14460 N 2553.93 -0.496304 -0.77465 0
M  V30 14461 C 2553.93 -0.908403 -2.09122 0
M  V30 14462 N 2554.06 0.0517805 -3.00955 0
M  V30 14463 N 2553.8 -2.17875 -2.46519 0
M  V30 14464 C 2553.68 -3.01988 -1.4033 0
M  V30 14465 H 2550.71 -8.36803 -2.32493 0
M  V30 14466 H 2550.44 -6.70197 -1.71129 0
M  V30 14467 H 2551.3 -7.03551 -4.13168 0
M  V30 14468 H 2553.96 -4.59498 -3.54415 0
M  V30 14469 H 2554.24 -6.88898 -1.59848 0
M  V30 14470 H 2555.23 -6.46749 -3.03687 0
M  V30 14471 H 2553.39 -8.46908 -3.20714 0
M  V30 14472 H 2553.35 -5.86405 0.105564 0
M  V30 14473 H 2554.03 0.483664 -0.597855 0
M  V30 14474 H 2554.06 -0.187865 -4.0116 0
M  V30 14475 H 2554.17 1.03585 -2.71726 0
M  V30 14476 P 2555.26 -7.20834 -5.23717 0
M  V30 14477 O 2555.48 -7.79853 -6.57286 0
M  V30 14478 O 2556.05 -7.79239 -4.12957 0
M  V30 14479 O 2555.51 -5.63315 -5.29344 0
M  V30 14480 C 2554.57 -4.80255 -6.01876 0
M  V30 14481 C 2555.3 -3.64202 -6.65911 0
M  V30 14482 O 2555.51 -2.60694 -5.64732 0
M  V30 14483 C 2556.7 -3.93473 -7.1943 0
M  V30 14484 O 2557.09 -3.02071 -8.21205 0
M  V30 14485 C 2557.58 -3.73047 -5.97036 0
M  V30 14486 C 2556.87 -2.58828 -5.25741 0
M  V30 14487 N 2556.92 -2.68068 -3.77503 0
M  V30 14488 H 2554.09 -5.40332 -6.79951 0
M  V30 14489 H 2553.82 -4.41613 -5.32378 0
M  V30 14490 H 2554.68 -3.26331 -7.47797 0
M  V30 14491 P 2558.64 -2.75334 -8.47391 0
M  V30 14492 O 2558.86 -2.44571 -9.90142 0
M  V30 14493 O 2559.43 -3.87688 -7.92115 0
M  V30 14494 O 2558.89 -1.4459 -7.59357 0
M  V30 14495 C 2557.95 -0.347608 -7.69215 0
M  V30 14496 C 2558.68 0.96767 -7.52806 0
M  V30 14497 O 2558.89 1.21036 -6.1011 0
M  V30 14498 C 2560.08 1.04544 -8.13308 0
M  V30 14499 O 2560.47 2.38311 -8.41922 0
M  V30 14500 C 2560.96 0.491279 -7.02284 0
M  V30 14501 C 2560.25 0.996264 -5.77469 0
M  V30 14502 N 2560.3 0.0501916 -4.62973 0
M  V30 14503 H 2557.47 -0.374722 -8.67691 0
M  V30 14504 H 2557.2 -0.443485 -6.90277 0
M  V30 14505 H 2558.06 1.75537 -7.96793 0
M  V30 14506 P 2562.02 2.75334 -8.47391 0
M  V30 14507 O 2562.24 3.84128 -9.44797 0
M  V30 14508 O 2562.81 1.51947 -8.68712 0
M  V30 14509 O 2562.27 3.29363 -6.99321 0
M  V30 14510 C 2561.33 4.24011 -6.4274 0
M  V30 14511 C 2562.06 5.20775 -5.52155 0
M  V30 14512 O 2562.27 4.56534 -4.22446 0
M  V30 14513 C 2563.46 5.62629 -5.96531 0
M  V30 14514 O 2563.85 6.87667 -5.41053 0
M  V30 14515 C 2564.34 4.52537 -5.39283 0
M  V30 14516 C 2563.63 4.20027 -4.08623 0
M  V30 14517 N 2563.68 2.76189 -3.71603 0
M  V30 14518 H 2560.85 4.797 -7.24003 0
M  V30 14519 H 2560.58 3.69856 -5.84513 0
M  V30 14520 H 2561.44 6.10356 -5.41441 0
M  V30 14521 P 2565.4 7.20834 -5.23717 0
M  V30 14522 O 2565.62 8.66104 -5.38572 0
M  V30 14523 O 2566.19 6.33544 -6.1349 0
M  V30 14524 O 2565.65 6.7751 -3.72168 0
M  V30 14525 C 2564.71 7.20825 -2.7076 0
M  V30 14526 C 2565.44 7.45864 -1.40599 0
M  V30 14527 O 2565.65 6.17651 -0.734225 0
M  V30 14528 C 2566.84 8.05808 -1.51899 0
M  V30 14529 O 2567.23 8.74358 -0.335205 0
M  V30 14530 C 2567.72 6.83093 -1.70294 0
M  V30 14531 C 2567.01 5.79992 -0.836974 0
M  V30 14532 N 2567.06 4.41864 -1.38293 0
M  V30 14533 H 2564.23 8.13644 -3.0377 0
M  V30 14534 H 2563.96 6.42788 -2.55485 0
M  V30 14535 H 2564.82 8.12039 -0.792769 0
M  V30 14536 P 2568.78 8.91 -6.72738e-11 0
M  V30 14537 O 2569 10.1726 0.733694 0
M  V30 14538 O 2569.57 8.73148 -1.23936 0
M  V30 14539 O 2569.03 7.66872 0.971405 0
M  V30 14540 C 2568.09 7.42309 2.04641 0
M  V30 14541 C 2568.82 6.86059 3.24661 0
M  V30 14542 O 2569.03 5.42847 3.03646 0
M  V30 14543 C 2570.22 7.41196 3.50753 0
M  V30 14544 O 2570.61 7.27073 4.86816 0
M  V30 14545 C 2571.1 6.5273 2.63741 0
M  V30 14546 C 2570.39 5.1842 2.73198 0
M  V30 14547 N 2570.44 4.38762 1.4784 0
M  V30 14548 H 2567.61 8.36803 2.32493 0
M  V30 14549 H 2567.34 6.70197 1.71129 0
M  V30 14550 H 2568.2 7.03551 4.13168 0
M  V30 14551 P 2572.16 7.20834 5.23717 0
M  V30 14552 O 2572.38 7.79853 6.57286 0
M  V30 14553 O 2572.95 7.79239 4.12957 0
M  V30 14554 O 2572.41 5.63315 5.29344 0
M  V30 14555 C 2571.47 4.80255 6.01876 0
M  V30 14556 C 2572.2 3.64202 6.65911 0
M  V30 14557 O 2572.41 2.60694 5.64732 0
M  V30 14558 C 2573.6 3.93473 7.1943 0
M  V30 14559 O 2573.99 3.02071 8.21205 0
M  V30 14560 C 2574.48 3.73047 5.97036 0
M  V30 14561 C 2573.77 2.58828 5.25741 0
M  V30 14562 N 2573.82 2.68068 3.77503 0
M  V30 14563 H 2570.99 5.40332 6.79951 0
M  V30 14564 H 2570.72 4.41613 5.32378 0
M  V30 14565 H 2571.58 3.26331 7.47797 0
M  V30 14566 P 2575.54 2.75334 8.47391 0
M  V30 14567 O 2575.76 2.44595 9.90239 0
M  V30 14568 O 2576.33 3.87732 7.92204 0
M  V30 14569 O 2575.79 1.4459 7.59357 0
M  V30 14570 C 2574.85 0.347563 7.69115 0
M  V30 14571 C 2575.58 -0.96767 7.52806 0
M  V30 14572 O 2575.79 -1.21036 6.1011 0
M  V30 14573 C 2576.98 -1.04544 8.13308 0
M  V30 14574 O 2577.37 -2.38311 8.41922 0
M  V30 14575 C 2577.86 -0.491279 7.02284 0
M  V30 14576 C 2577.15 -0.996264 5.77469 0
M  V30 14577 N 2577.2 -0.0501808 4.62873 0
M  V30 14578 C 2577.35 -0.588177 3.36904 0
M  V30 14579 O 2577.44 -1.78598 3.17173 0
M  V30 14580 N 2577.39 0.329694 2.33686 0
M  V30 14581 C 2577.3 1.6953 2.45079 0
M  V30 14582 C 2577.15 2.16933 3.80505 0
M  V30 14583 C 2577.1 1.30326 4.83752 0
M  V30 14584 H 2574.36 0.374722 8.67691 0
M  V30 14585 H 2574.1 0.443421 6.90177 0
M  V30 14586 H 2574.96 -1.75537 7.96793 0
M  V30 14587 H 2577.62 -1.94496 5.46629 0
M  V30 14588 H 2577.9 0.608651 7.04676 0
M  V30 14589 H 2578.89 -0.889672 7.08939 0
M  V30 14590 H 2577.05 -0.43308 9.04564 0
M  V30 14591 H 2576.98 1.68366 5.8516 0
M  V30 14592 P 2578.92 -2.75334 8.47391 0
M  V30 14593 O 2579.14 -3.84128 9.44797 0
M  V30 14594 O 2579.71 -1.51947 8.68712 0
M  V30 14595 O 2579.17 -3.29363 6.99321 0
M  V30 14596 C 2578.23 -4.24011 6.4274 0
M  V30 14597 C 2578.96 -5.20775 5.52155 0
M  V30 14598 O 2579.17 -4.56534 4.22446 0
M  V30 14599 C 2580.36 -5.62629 5.96531 0
M  V30 14600 O 2580.75 -6.87667 5.41053 0
M  V30 14601 C 2581.24 -4.52537 5.39283 0
M  V30 14602 C 2580.53 -4.20027 4.08623 0
M  V30 14603 N 2580.58 -2.76189 3.71603 0
M  V30 14604 H 2577.75 -4.797 7.24003 0
M  V30 14605 H 2577.48 -3.69856 5.84513 0
M  V30 14606 H 2578.34 -6.10356 5.41441 0
M  V30 14607 P 2582.3 -7.20834 5.23717 0
M  V30 14608 O 2582.52 -8.66104 5.38572 0
M  V30 14609 O 2583.09 -6.33544 6.1349 0
M  V30 14610 O 2582.55 -6.7751 3.72168 0
M  V30 14611 C 2581.61 -7.20825 2.7076 0
M  V30 14612 C 2582.34 -7.45864 1.40599 0
M  V30 14613 O 2582.55 -6.17651 0.734225 0
M  V30 14614 C 2583.74 -8.05808 1.51899 0
M  V30 14615 O 2584.13 -8.74358 0.335205 0
M  V30 14616 C 2584.62 -6.83093 1.70294 0
M  V30 14617 C 2583.91 -5.79992 0.836974 0
M  V30 14618 N 2583.96 -4.41864 1.38293 0
M  V30 14619 H 2581.13 -8.13644 3.0377 0
M  V30 14620 H 2580.86 -6.42788 2.55485 0
M  V30 14621 H 2581.72 -8.12039 0.792769 0
M  V30 14622 P 2585.68 -8.91 6.83828e-11 0
M  V30 14623 O 2585.9 -10.1726 -0.733694 0
M  V30 14624 O 2586.47 -8.73148 1.23936 0
M  V30 14625 O 2585.93 -7.66872 -0.971405 0
M  V30 14626 C 2584.99 -7.42309 -2.04641 0
M  V30 14627 C 2585.72 -6.86059 -3.24661 0
M  V30 14628 O 2585.93 -5.42847 -3.03646 0
M  V30 14629 C 2587.12 -7.41196 -3.50753 0
M  V30 14630 O 2587.51 -7.27073 -4.86816 0
M  V30 14631 C 2588 -6.5273 -2.63741 0
M  V30 14632 C 2587.29 -5.1842 -2.73198 0
M  V30 14633 N 2587.34 -4.38762 -1.4784 0
M  V30 14634 H 2584.51 -8.36803 -2.32493 0
M  V30 14635 H 2584.24 -6.70197 -1.71129 0
M  V30 14636 H 2585.1 -7.03551 -4.13168 0
M  V30 14637 P 2589.06 -7.20834 -5.23717 0
M  V30 14638 O 2589.28 -7.79853 -6.57286 0
M  V30 14639 O 2589.85 -7.79239 -4.12957 0
M  V30 14640 O 2589.31 -5.63315 -5.29344 0
M  V30 14641 C 2588.37 -4.80255 -6.01876 0
M  V30 14642 C 2589.1 -3.64202 -6.65911 0
M  V30 14643 O 2589.31 -2.60694 -5.64732 0
M  V30 14644 C 2590.5 -3.93473 -7.1943 0
M  V30 14645 O 2590.89 -3.02071 -8.21205 0
M  V30 14646 C 2591.38 -3.73047 -5.97036 0
M  V30 14647 C 2590.67 -2.58828 -5.25741 0
M  V30 14648 N 2590.72 -2.68068 -3.77503 0
M  V30 14649 H 2587.89 -5.40332 -6.79951 0
M  V30 14650 H 2587.62 -4.41613 -5.32378 0
M  V30 14651 H 2588.48 -3.26331 -7.47797 0
M  V30 14652 P 2592.44 -2.75334 -8.47391 0
M  V30 14653 O 2592.66 -2.44571 -9.90142 0
M  V30 14654 O 2593.23 -3.87688 -7.92115 0
M  V30 14655 O 2592.69 -1.4459 -7.59357 0
M  V30 14656 C 2591.75 -0.347608 -7.69215 0
M  V30 14657 C 2592.48 0.96767 -7.52806 0
M  V30 14658 O 2592.69 1.21036 -6.1011 0
M  V30 14659 C 2593.88 1.04544 -8.13308 0
M  V30 14660 O 2594.27 2.38311 -8.41922 0
M  V30 14661 C 2594.76 0.491279 -7.02284 0
M  V30 14662 C 2594.05 0.996264 -5.77469 0
M  V30 14663 N 2594.1 0.0501916 -4.62973 0
M  V30 14664 H 2591.27 -0.374722 -8.67691 0
M  V30 14665 H 2591 -0.443485 -6.90277 0
M  V30 14666 H 2591.86 1.75537 -7.96793 0
M  V30 14667 P 2595.82 2.75334 -8.47391 0
M  V30 14668 O 2596.04 3.84128 -9.44797 0
M  V30 14669 O 2596.61 1.51947 -8.68712 0
M  V30 14670 O 2596.07 3.29363 -6.99321 0
M  V30 14671 C 2595.13 4.24011 -6.4274 0
M  V30 14672 C 2595.86 5.20775 -5.52155 0
M  V30 14673 O 2596.07 4.56534 -4.22446 0
M  V30 14674 C 2597.26 5.62629 -5.96531 0
M  V30 14675 O 2597.65 6.87667 -5.41053 0
M  V30 14676 C 2598.14 4.52537 -5.39283 0
M  V30 14677 C 2597.43 4.20027 -4.08623 0
M  V30 14678 N 2597.48 2.76189 -3.71603 0
M  V30 14679 H 2594.65 4.797 -7.24003 0
M  V30 14680 H 2594.38 3.69856 -5.84513 0
M  V30 14681 H 2595.24 6.10356 -5.41441 0
M  V30 14682 P 2599.2 7.20834 -5.23717 0
M  V30 14683 O 2599.42 8.66104 -5.38572 0
M  V30 14684 O 2599.99 6.33544 -6.1349 0
M  V30 14685 O 2599.45 6.7751 -3.72168 0
M  V30 14686 C 2598.51 7.20825 -2.7076 0
M  V30 14687 C 2599.24 7.45864 -1.40599 0
M  V30 14688 O 2599.45 6.17651 -0.734225 0
M  V30 14689 C 2600.64 8.05808 -1.51899 0
M  V30 14690 O 2601.03 8.74358 -0.335205 0
M  V30 14691 C 2601.52 6.83093 -1.70294 0
M  V30 14692 C 2600.81 5.79992 -0.836974 0
M  V30 14693 N 2600.86 4.41864 -1.38293 0
M  V30 14694 H 2598.03 8.13644 -3.0377 0
M  V30 14695 H 2597.76 6.42788 -2.55485 0
M  V30 14696 H 2598.62 8.12039 -0.792769 0
M  V30 14697 P 2602.58 8.91 -6.94918e-11 0
M  V30 14698 O 2602.8 10.1726 0.733694 0
M  V30 14699 O 2603.37 8.73148 -1.23936 0
M  V30 14700 O 2602.83 7.66872 0.971405 0
M  V30 14701 C 2601.89 7.42309 2.04641 0
M  V30 14702 C 2602.62 6.86059 3.24661 0
M  V30 14703 O 2602.83 5.42847 3.03646 0
M  V30 14704 C 2604.02 7.41196 3.50753 0
M  V30 14705 O 2604.41 7.27073 4.86816 0
M  V30 14706 C 2604.9 6.5273 2.63741 0
M  V30 14707 C 2604.19 5.1842 2.73198 0
M  V30 14708 N 2604.24 4.38762 1.4784 0
M  V30 14709 H 2601.41 8.36803 2.32493 0
M  V30 14710 H 2601.14 6.70197 1.71129 0
M  V30 14711 H 2602 7.03551 4.13168 0
M  V30 14712 P 2605.96 7.20834 5.23717 0
M  V30 14713 O 2606.18 7.79853 6.57286 0
M  V30 14714 O 2606.75 7.79239 4.12957 0
M  V30 14715 O 2606.21 5.63315 5.29344 0
M  V30 14716 C 2605.27 4.80255 6.01876 0
M  V30 14717 C 2606 3.64202 6.65911 0
M  V30 14718 O 2606.21 2.60694 5.64732 0
M  V30 14719 C 2607.4 3.93473 7.1943 0
M  V30 14720 O 2607.79 3.02071 8.21205 0
M  V30 14721 C 2608.28 3.73047 5.97036 0
M  V30 14722 C 2607.57 2.58828 5.25741 0
M  V30 14723 N 2607.62 2.68068 3.77503 0
M  V30 14724 C 2607.54 3.79715 2.96723 0
M  V30 14725 N 2607.62 3.5377 1.68852 0
M  V30 14726 C 2607.76 2.15054 1.63254 0
M  V30 14727 C 2607.89 1.28964 0.518571 0
M  V30 14728 N 2608.01 -0.0538097 0.918425 0
M  V30 14729 C 2608.01 -0.494275 2.22578 0
M  V30 14730 N 2608.14 -1.81086 2.40434 0
M  V30 14731 N 2607.88 0.313645 3.27502 0
M  V30 14732 C 2607.76 1.61829 2.91033 0
M  V30 14733 H 2604.79 5.40332 6.79951 0
M  V30 14734 H 2604.52 4.41613 5.32378 0
M  V30 14735 H 2605.38 3.26331 7.47797 0
M  V30 14736 P 2609.34 2.75334 8.47391 0
M  V30 14737 O 2609.56 2.44571 9.90142 0
M  V30 14738 O 2610.13 3.87688 7.92115 0
M  V30 14739 O 2609.59 1.4459 7.59357 0
M  V30 14740 C 2608.65 0.347608 7.69215 0
M  V30 14741 C 2609.38 -0.96767 7.52806 0
M  V30 14742 O 2609.59 -1.21036 6.1011 0
M  V30 14743 C 2610.78 -1.04544 8.13308 0
M  V30 14744 O 2611.17 -2.38311 8.41922 0
M  V30 14745 C 2611.66 -0.491279 7.02284 0
M  V30 14746 C 2610.95 -0.996264 5.77469 0
M  V30 14747 N 2611 -0.0501916 4.62973 0
M  V30 14748 H 2608.17 0.374722 8.67691 0
M  V30 14749 H 2607.9 0.443485 6.90277 0
M  V30 14750 H 2608.76 -1.75537 7.96793 0
M  V30 14751 P 2612.72 -2.75334 8.47391 0
M  V30 14752 O 2612.94 -3.84128 9.44797 0
M  V30 14753 O 2613.51 -1.51947 8.68712 0
M  V30 14754 O 2612.97 -3.29363 6.99321 0
M  V30 14755 C 2612.03 -4.24011 6.4274 0
M  V30 14756 C 2612.76 -5.20775 5.52155 0
M  V30 14757 O 2612.97 -4.56534 4.22446 0
M  V30 14758 C 2614.16 -5.62629 5.96531 0
M  V30 14759 O 2614.55 -6.87667 5.41053 0
M  V30 14760 C 2615.04 -4.52537 5.39283 0
M  V30 14761 C 2614.33 -4.20027 4.08623 0
M  V30 14762 N 2614.38 -2.76189 3.71603 0
M  V30 14763 H 2611.55 -4.797 7.24003 0
M  V30 14764 H 2611.28 -3.69856 5.84513 0
M  V30 14765 H 2612.14 -6.10356 5.41441 0
M  V30 14766 P 2616.1 -7.20834 5.23717 0
M  V30 14767 O 2616.32 -8.66104 5.38572 0
M  V30 14768 O 2616.89 -6.33544 6.1349 0
M  V30 14769 O 2616.35 -6.7751 3.72168 0
M  V30 14770 C 2615.41 -7.20825 2.7076 0
M  V30 14771 C 2616.14 -7.45864 1.40599 0
M  V30 14772 O 2616.35 -6.17651 0.734225 0
M  V30 14773 C 2617.54 -8.05808 1.51899 0
M  V30 14774 O 2617.93 -8.74358 0.335205 0
M  V30 14775 C 2618.42 -6.83093 1.70294 0
M  V30 14776 C 2617.71 -5.79992 0.836974 0
M  V30 14777 N 2617.76 -4.41864 1.38293 0
M  V30 14778 H 2614.93 -8.13644 3.0377 0
M  V30 14779 H 2614.66 -6.42788 2.55485 0
M  V30 14780 H 2615.52 -8.12039 0.792769 0
M  V30 14781 P 2619.48 -8.91 7.06008e-11 0
M  V30 14782 O 2619.7 -10.1736 -0.733766 0
M  V30 14783 O 2620.27 -8.73247 1.2395 0
M  V30 14784 O 2619.73 -7.66872 -0.971405 0
M  V30 14785 C 2618.79 -7.42212 -2.04614 0
M  V30 14786 C 2619.52 -6.86059 -3.24661 0
M  V30 14787 O 2619.73 -5.42847 -3.03646 0
M  V30 14788 C 2620.92 -7.41196 -3.50753 0
M  V30 14789 O 2621.31 -7.27073 -4.86816 0
M  V30 14790 C 2621.8 -6.5273 -2.63741 0
M  V30 14791 C 2621.09 -5.1842 -2.73198 0
M  V30 14792 N 2621.14 -4.38668 -1.47808 0
M  V30 14793 C 2621.29 -3.02239 -1.60048 0
M  V30 14794 O 2621.38 -2.46459 -2.67869 0
M  V30 14795 N 2621.33 -2.32436 -0.408571 0
M  V30 14796 C 2621.24 -2.85471 0.854993 0
M  V30 14797 C 2621.09 -4.28918 0.887335 0
M  V30 14798 C 2621.04 -5.00349 -0.255399 0
M  V30 14799 H 2618.3 -8.36803 -2.32493 0
M  V30 14800 H 2618.04 -6.701 -1.71105 0
M  V30 14801 H 2618.9 -7.03551 -4.13168 0
M  V30 14802 H 2621.56 -4.59773 -3.53894 0
M  V30 14803 H 2621.84 -6.88995 -1.59871 0
M  V30 14804 H 2622.83 -6.46749 -3.03687 0
M  V30 14805 H 2620.99 -8.46908 -3.20714 0
M  V30 14806 H 2620.92 -6.08548 -0.206986 0
M  V30 14807 P 2622.86 -7.20834 -5.23717 0
M  V30 14808 O 2623.08 -7.79853 -6.57286 0
M  V30 14809 O 2623.65 -7.79239 -4.12957 0
M  V30 14810 O 2623.11 -5.63315 -5.29344 0
M  V30 14811 C 2622.17 -4.80255 -6.01876 0
M  V30 14812 C 2622.9 -3.64202 -6.65911 0
M  V30 14813 O 2623.11 -2.60694 -5.64732 0
M  V30 14814 C 2624.3 -3.93473 -7.1943 0
M  V30 14815 O 2624.69 -3.02071 -8.21205 0
M  V30 14816 C 2625.18 -3.73047 -5.97036 0
M  V30 14817 C 2624.47 -2.58828 -5.25741 0
M  V30 14818 N 2624.52 -2.68068 -3.77503 0
M  V30 14819 H 2621.69 -5.40332 -6.79951 0
M  V30 14820 H 2621.42 -4.41613 -5.32378 0
M  V30 14821 H 2622.28 -3.26331 -7.47797 0
M  V30 14822 P 2626.24 -2.75334 -8.47391 0
M  V30 14823 O 2626.46 -2.44571 -9.90142 0
M  V30 14824 O 2627.03 -3.87688 -7.92115 0
M  V30 14825 O 2626.49 -1.4459 -7.59357 0
M  V30 14826 C 2625.55 -0.347608 -7.69215 0
M  V30 14827 C 2626.28 0.96767 -7.52806 0
M  V30 14828 O 2626.49 1.21036 -6.1011 0
M  V30 14829 C 2627.68 1.04544 -8.13308 0
M  V30 14830 O 2628.07 2.38311 -8.41922 0
M  V30 14831 C 2628.56 0.491279 -7.02284 0
M  V30 14832 C 2627.85 0.996264 -5.77469 0
M  V30 14833 N 2627.9 0.0501916 -4.62973 0
M  V30 14834 H 2625.07 -0.374722 -8.67691 0
M  V30 14835 H 2624.8 -0.443485 -6.90277 0
M  V30 14836 H 2625.66 1.75537 -7.96793 0
M  V30 14837 P 2629.62 2.75334 -8.47391 0
M  V30 14838 O 2629.84 3.84128 -9.44797 0
M  V30 14839 O 2630.41 1.51947 -8.68712 0
M  V30 14840 O 2629.87 3.29363 -6.99321 0
M  V30 14841 C 2628.93 4.24011 -6.4274 0
M  V30 14842 C 2629.66 5.20775 -5.52155 0
M  V30 14843 O 2629.87 4.56534 -4.22446 0
M  V30 14844 C 2631.06 5.62629 -5.96531 0
M  V30 14845 O 2631.45 6.87667 -5.41053 0
M  V30 14846 C 2631.94 4.52537 -5.39283 0
M  V30 14847 C 2631.23 4.20027 -4.08623 0
M  V30 14848 N 2631.28 2.76189 -3.71603 0
M  V30 14849 H 2628.45 4.797 -7.24003 0
M  V30 14850 H 2628.18 3.69856 -5.84513 0
M  V30 14851 H 2629.04 6.10356 -5.41441 0
M  V30 14852 P 2633 7.20834 -5.23717 0
M  V30 14853 O 2633.22 8.66274 -5.38678 0
M  V30 14854 O 2633.79 6.33687 -6.13629 0
M  V30 14855 O 2633.25 6.7751 -3.72168 0
M  V30 14856 C 2632.31 7.20919 -2.70795 0
M  V30 14857 C 2633.04 7.45864 -1.40599 0
M  V30 14858 O 2633.25 6.17751 -0.734343 0
M  V30 14859 C 2634.44 8.05906 -1.51917 0
M  V30 14860 O 2634.83 8.74358 -0.335205 0
M  V30 14861 C 2635.32 6.83093 -1.70294 0
M  V30 14862 C 2634.61 5.79992 -0.836974 0
M  V30 14863 N 2634.66 4.41864 -1.38293 0
M  V30 14864 C 2634.58 4.02089 -2.69407 0
M  V30 14865 N 2634.65 2.73403 -2.85089 0
M  V30 14866 C 2634.8 2.25086 -1.5642 0
M  V30 14867 C 2634.93 0.942887 -1.04836 0
M  V30 14868 N 2634.94 -0.150999 -1.80369 0
M  V30 14869 N 2635.05 0.812565 0.28167 0
M  V30 14870 C 2635.04 1.90572 1.03784 0
M  V30 14871 N 2634.92 3.167 0.683905 0
M  V30 14872 C 2634.8 3.26538 -0.652815 0
M  V30 14873 H 2631.83 8.13738 -3.03804 0
M  V30 14874 H 2631.55 6.42974 -2.55559 0
M  V30 14875 H 2632.42 8.12139 -0.792866 0
M  V30 14876 H 2635.08 5.80178 0.160643 0
M  V30 14877 H 2635.36 6.51379 -2.75643 0
M  V30 14878 H 2636.35 7.01832 -1.3448 0
M  V30 14879 H 2634.51 8.73771 -2.38364 0
M  V30 14880 H 2634.47 4.7189 -3.52311 0
M  V30 14881 H 2634.85 -0.0721434 -2.82608 0
M  V30 14882 H 2635.04 -1.0785 -1.36544 0
M  V30 14883 H 2635.15 1.73207 2.10241 0
M  V30 14884 P 2636.38 8.91 -7.17098e-11 0
M  V30 14885 O 2636.6 10.1726 0.733694 0
M  V30 14886 O 2637.17 8.73148 -1.23936 0
M  V30 14887 O 2636.63 7.66872 0.971405 0
M  V30 14888 C 2635.69 7.42309 2.04641 0
M  V30 14889 C 2636.42 6.86059 3.24661 0
M  V30 14890 O 2636.63 5.42847 3.03646 0
M  V30 14891 C 2637.82 7.41196 3.50753 0
M  V30 14892 O 2638.21 7.27073 4.86816 0
M  V30 14893 C 2638.7 6.5273 2.63741 0
M  V30 14894 C 2637.99 5.1842 2.73198 0
M  V30 14895 N 2638.04 4.38762 1.4784 0
M  V30 14896 H 2635.21 8.36803 2.32493 0
M  V30 14897 H 2634.94 6.70197 1.71129 0
M  V30 14898 H 2635.8 7.03551 4.13168 0
M  V30 14899 P 2639.76 7.20834 5.23717 0
M  V30 14900 O 2639.98 7.79853 6.57286 0
M  V30 14901 O 2640.55 7.79239 4.12957 0
M  V30 14902 O 2640.01 5.63315 5.29344 0
M  V30 14903 C 2639.07 4.80255 6.01876 0
M  V30 14904 C 2639.8 3.64202 6.65911 0
M  V30 14905 O 2640.01 2.60694 5.64732 0
M  V30 14906 C 2641.2 3.93473 7.1943 0
M  V30 14907 O 2641.59 3.02071 8.21205 0
M  V30 14908 C 2642.08 3.73047 5.97036 0
M  V30 14909 C 2641.37 2.58828 5.25741 0
M  V30 14910 N 2641.42 2.68068 3.77503 0
M  V30 14911 H 2638.59 5.40332 6.79951 0
M  V30 14912 H 2638.32 4.41613 5.32378 0
M  V30 14913 H 2639.18 3.26331 7.47797 0
M  V30 14914 P 2643.14 2.75334 8.47391 0
M  V30 14915 O 2643.36 2.44571 9.90142 0
M  V30 14916 O 2643.93 3.87688 7.92115 0
M  V30 14917 O 2643.39 1.4459 7.59357 0
M  V30 14918 C 2642.45 0.347608 7.69215 0
M  V30 14919 C 2643.18 -0.96767 7.52806 0
M  V30 14920 O 2643.39 -1.21036 6.1011 0
M  V30 14921 C 2644.58 -1.04544 8.13308 0
M  V30 14922 O 2644.97 -2.38311 8.41922 0
M  V30 14923 C 2645.46 -0.491279 7.02284 0
M  V30 14924 C 2644.75 -0.996264 5.77469 0
M  V30 14925 N 2644.8 -0.0501916 4.62973 0
M  V30 14926 H 2641.97 0.374722 8.67691 0
M  V30 14927 H 2641.7 0.443485 6.90277 0
M  V30 14928 H 2642.56 -1.75537 7.96793 0
M  V30 14929 P 2646.52 -2.75334 8.47391 0
M  V30 14930 O 2646.74 -3.84128 9.44797 0
M  V30 14931 O 2647.31 -1.51947 8.68712 0
M  V30 14932 O 2646.77 -3.29363 6.99321 0
M  V30 14933 C 2645.83 -4.24011 6.4274 0
M  V30 14934 C 2646.56 -5.20775 5.52155 0
M  V30 14935 O 2646.77 -4.56534 4.22446 0
M  V30 14936 C 2647.96 -5.62629 5.96531 0
M  V30 14937 O 2648.35 -6.87667 5.41053 0
M  V30 14938 C 2648.84 -4.52537 5.39283 0
M  V30 14939 C 2648.13 -4.20027 4.08623 0
M  V30 14940 N 2648.18 -2.76189 3.71603 0
M  V30 14941 H 2645.35 -4.797 7.24003 0
M  V30 14942 H 2645.08 -3.69856 5.84513 0
M  V30 14943 H 2645.94 -6.10356 5.41441 0
M  V30 14944 P 2649.9 -7.20834 5.23717 0
M  V30 14945 O 2650.12 -8.66274 5.38678 0
M  V30 14946 O 2650.69 -6.33687 6.13629 0
M  V30 14947 O 2650.15 -6.7751 3.72168 0
M  V30 14948 C 2649.21 -7.20919 2.70795 0
M  V30 14949 C 2649.94 -7.45864 1.40599 0
M  V30 14950 O 2650.15 -6.17751 0.734343 0
M  V30 14951 C 2651.34 -8.05906 1.51917 0
M  V30 14952 O 2651.73 -8.74358 0.335205 0
M  V30 14953 C 2652.22 -6.83093 1.70294 0
M  V30 14954 C 2651.51 -5.79992 0.836974 0
M  V30 14955 N 2651.56 -4.41864 1.38293 0
M  V30 14956 C 2651.48 -4.02089 2.69407 0
M  V30 14957 N 2651.55 -2.73403 2.85089 0
M  V30 14958 C 2651.7 -2.25086 1.5642 0
M  V30 14959 C 2651.83 -0.942887 1.04836 0
M  V30 14960 N 2651.84 0.150999 1.80369 0
M  V30 14961 N 2651.95 -0.812565 -0.28167 0
M  V30 14962 C 2651.94 -1.90572 -1.03784 0
M  V30 14963 N 2651.82 -3.167 -0.683905 0
M  V30 14964 C 2651.7 -3.26538 0.652815 0
M  V30 14965 H 2648.73 -8.13738 3.03804 0
M  V30 14966 H 2648.45 -6.42974 2.55559 0
M  V30 14967 H 2649.32 -8.12139 0.792866 0
M  V30 14968 H 2651.98 -5.80178 -0.160643 0
M  V30 14969 H 2652.26 -6.51379 2.75643 0
M  V30 14970 H 2653.25 -7.01832 1.3448 0
M  V30 14971 H 2651.41 -8.73771 2.38364 0
M  V30 14972 H 2651.37 -4.7189 3.52311 0
M  V30 14973 H 2651.75 0.0721434 2.82608 0
M  V30 14974 H 2651.94 1.0785 1.36544 0
M  V30 14975 H 2652.05 -1.73207 -2.10241 0
M  V30 14976 P 2653.28 -8.91 7.28188e-11 0
M  V30 14977 O 2653.5 -10.1726 -0.733694 0
M  V30 14978 O 2654.07 -8.73148 1.23936 0
M  V30 14979 O 2653.53 -7.66872 -0.971405 0
M  V30 14980 C 2652.59 -7.42309 -2.04641 0
M  V30 14981 C 2653.32 -6.86059 -3.24661 0
M  V30 14982 O 2653.53 -5.42847 -3.03646 0
M  V30 14983 C 2654.72 -7.41196 -3.50753 0
M  V30 14984 O 2655.11 -7.27073 -4.86816 0
M  V30 14985 C 2655.6 -6.5273 -2.63741 0
M  V30 14986 C 2654.89 -5.1842 -2.73198 0
M  V30 14987 N 2654.94 -4.38762 -1.4784 0
M  V30 14988 H 2652.11 -8.36803 -2.32493 0
M  V30 14989 H 2651.84 -6.70197 -1.71129 0
M  V30 14990 H 2652.7 -7.03551 -4.13168 0
M  V30 14991 P 2656.66 -7.20834 -5.23717 0
M  V30 14992 O 2656.88 -7.79853 -6.57286 0
M  V30 14993 O 2657.45 -7.79239 -4.12957 0
M  V30 14994 O 2656.91 -5.63315 -5.29344 0
M  V30 14995 C 2655.97 -4.80255 -6.01876 0
M  V30 14996 C 2656.7 -3.64202 -6.65911 0
M  V30 14997 O 2656.91 -2.60694 -5.64732 0
M  V30 14998 C 2658.1 -3.93473 -7.1943 0
M  V30 14999 O 2658.49 -3.02071 -8.21205 0
M  V30 15000 C 2658.98 -3.73047 -5.97036 0
M  V30 15001 C 2658.27 -2.58828 -5.25741 0
M  V30 15002 N 2658.32 -2.68068 -3.77503 0
M  V30 15003 H 2655.49 -5.40332 -6.79951 0
M  V30 15004 H 2655.22 -4.41613 -5.32378 0
M  V30 15005 H 2656.08 -3.26331 -7.47797 0
M  V30 15006 P 2660.04 -2.75334 -8.47391 0
M  V30 15007 O 2660.26 -2.44571 -9.90142 0
M  V30 15008 O 2660.83 -3.87688 -7.92115 0
M  V30 15009 O 2660.29 -1.4459 -7.59357 0
M  V30 15010 C 2659.35 -0.347608 -7.69215 0
M  V30 15011 C 2660.08 0.96767 -7.52806 0
M  V30 15012 O 2660.29 1.21036 -6.1011 0
M  V30 15013 C 2661.48 1.04544 -8.13308 0
M  V30 15014 O 2661.87 2.38311 -8.41922 0
M  V30 15015 C 2662.36 0.491279 -7.02284 0
M  V30 15016 C 2661.65 0.996264 -5.77469 0
M  V30 15017 N 2661.7 0.0501916 -4.62973 0
M  V30 15018 H 2658.87 -0.374722 -8.67691 0
M  V30 15019 H 2658.6 -0.443485 -6.90277 0
M  V30 15020 H 2659.46 1.75537 -7.96793 0
M  V30 15021 P 2663.42 2.75334 -8.47391 0
M  V30 15022 O 2663.64 3.84204 -9.44982 0
M  V30 15023 O 2664.21 1.51982 -8.68909 0
M  V30 15024 O 2663.67 3.29363 -6.99321 0
M  V30 15025 C 2662.73 4.24066 -6.42823 0
M  V30 15026 C 2663.46 5.20775 -5.52155 0
M  V30 15027 O 2663.67 4.56607 -4.22514 0
M  V30 15028 C 2664.86 5.62697 -5.96604 0
M  V30 15029 O 2665.25 6.87667 -5.41053 0
M  V30 15030 C 2665.74 4.52537 -5.39283 0
M  V30 15031 C 2665.03 4.20027 -4.08623 0
M  V30 15032 N 2665.08 2.76189 -3.71603 0
M  V30 15033 C 2665 1.66944 -4.54297 0
M  V30 15034 N 2665.07 0.536169 -3.91344 0
M  V30 15035 C 2665.22 0.901569 -2.58849 0
M  V30 15036 C 2665.35 0.146599 -1.40236 0
M  V30 15037 N 2665.36 -1.18234 -1.37046 0
M  V30 15038 N 2665.47 0.822941 -0.249738 0
M  V30 15039 C 2665.46 2.15179 -0.280525 0
M  V30 15040 N 2665.34 2.96414 -1.30822 0
M  V30 15041 C 2665.22 2.25804 -2.44748 0
M  V30 15042 H 2662.25 4.79756 -7.24086 0
M  V30 15043 H 2661.97 3.69963 -5.84682 0
M  V30 15044 H 2662.84 6.10431 -5.41508 0
M  V30 15045 H 2665.5 4.78816 -3.28024 0
M  V30 15046 H 2665.78 3.64957 -6.05871 0
M  V30 15047 H 2666.77 4.88748 -5.21323 0
M  V30 15048 H 2664.93 5.66789 -7.0643 0
M  V30 15049 H 2664.89 1.74684 -5.62396 0
M  V30 15050 H 2665.27 -1.71949 -2.24394 0
M  V30 15051 H 2665.46 -1.67511 -0.470742 0
M  V30 15052 H 2665.57 2.63704 0.6828 0
M  V30 15053 P 2666.8 7.20834 -5.23717 0
M  V30 15054 O 2667.02 8.66104 -5.38572 0
M  V30 15055 O 2667.59 6.33544 -6.1349 0
M  V30 15056 O 2667.05 6.7751 -3.72168 0
M  V30 15057 C 2666.11 7.20825 -2.7076 0
M  V30 15058 C 2666.84 7.45864 -1.40599 0
M  V30 15059 O 2667.05 6.17651 -0.734225 0
M  V30 15060 C 2668.24 8.05808 -1.51899 0
M  V30 15061 O 2668.63 8.74358 -0.335205 0
M  V30 15062 C 2669.12 6.83093 -1.70294 0
M  V30 15063 C 2668.41 5.79992 -0.836974 0
M  V30 15064 N 2668.46 4.41864 -1.38293 0
M  V30 15065 H 2665.63 8.13644 -3.0377 0
M  V30 15066 H 2665.36 6.42788 -2.55485 0
M  V30 15067 H 2666.22 8.12039 -0.792769 0
M  V30 15068 P 2670.18 8.91 -7.39278e-11 0
M  V30 15069 O 2670.4 10.1736 0.733766 0
M  V30 15070 O 2670.97 8.73247 -1.2395 0
M  V30 15071 O 2670.43 7.66872 0.971405 0
M  V30 15072 C 2669.49 7.42212 2.04614 0
M  V30 15073 C 2670.22 6.86059 3.24661 0
M  V30 15074 O 2670.43 5.42847 3.03646 0
M  V30 15075 C 2671.62 7.41196 3.50753 0
M  V30 15076 O 2672.01 7.27073 4.86816 0
M  V30 15077 C 2672.5 6.5273 2.63741 0
M  V30 15078 C 2671.79 5.1842 2.73198 0
M  V30 15079 N 2671.84 4.38668 1.47808 0
M  V30 15080 C 2671.99 3.02239 1.60048 0
M  V30 15081 O 2672.08 2.46459 2.67869 0
M  V30 15082 N 2672.03 2.32436 0.408571 0
M  V30 15083 C 2671.94 2.85471 -0.854993 0
M  V30 15084 C 2671.79 4.28918 -0.887335 0
M  V30 15085 C 2671.74 5.00349 0.255399 0
M  V30 15086 H 2669 8.36803 2.32493 0
M  V30 15087 H 2668.74 6.701 1.71105 0
M  V30 15088 H 2669.6 7.03551 4.13168 0
M  V30 15089 H 2672.26 4.59773 3.53894 0
M  V30 15090 H 2672.54 6.88995 1.59871 0
M  V30 15091 H 2673.53 6.46749 3.03687 0
M  V30 15092 H 2671.69 8.46908 3.20714 0
M  V30 15093 H 2671.62 6.08548 0.206986 0
M  V30 15094 P 2673.56 7.20834 5.23717 0
M  V30 15095 O 2673.78 7.79853 6.57286 0
M  V30 15096 O 2674.35 7.79239 4.12957 0
M  V30 15097 O 2673.81 5.63315 5.29344 0
M  V30 15098 C 2672.87 4.80255 6.01876 0
M  V30 15099 C 2673.6 3.64202 6.65911 0
M  V30 15100 O 2673.81 2.60694 5.64732 0
M  V30 15101 C 2675 3.93473 7.1943 0
M  V30 15102 O 2675.39 3.02071 8.21205 0
M  V30 15103 C 2675.88 3.73047 5.97036 0
M  V30 15104 C 2675.17 2.58828 5.25741 0
M  V30 15105 N 2675.22 2.68068 3.77503 0
M  V30 15106 H 2672.39 5.40332 6.79951 0
M  V30 15107 H 2672.12 4.41613 5.32378 0
M  V30 15108 H 2672.98 3.26331 7.47797 0
M  V30 15109 P 2676.94 2.75334 8.47391 0
M  V30 15110 O 2677.16 2.44571 9.90142 0
M  V30 15111 O 2677.73 3.87688 7.92115 0
M  V30 15112 O 2677.19 1.4459 7.59357 0
M  V30 15113 C 2676.25 0.347608 7.69215 0
M  V30 15114 C 2676.98 -0.96767 7.52806 0
M  V30 15115 O 2677.19 -1.21036 6.1011 0
M  V30 15116 C 2678.38 -1.04544 8.13308 0
M  V30 15117 O 2678.77 -2.38311 8.41922 0
M  V30 15118 C 2679.26 -0.491279 7.02284 0
M  V30 15119 C 2678.55 -0.996264 5.77469 0
M  V30 15120 N 2678.6 -0.0501916 4.62973 0
M  V30 15121 H 2675.77 0.374722 8.67691 0
M  V30 15122 H 2675.5 0.443485 6.90277 0
M  V30 15123 H 2676.36 -1.75537 7.96793 0
M  V30 15124 P 2680.32 -2.75334 8.47391 0
M  V30 15125 O 2680.54 -3.84128 9.44797 0
M  V30 15126 O 2681.11 -1.51947 8.68712 0
M  V30 15127 O 2680.57 -3.29363 6.99321 0
M  V30 15128 C 2679.63 -4.24011 6.4274 0
M  V30 15129 C 2680.36 -5.20775 5.52155 0
M  V30 15130 O 2680.57 -4.56534 4.22446 0
M  V30 15131 C 2681.76 -5.62629 5.96531 0
M  V30 15132 O 2682.15 -6.87667 5.41053 0
M  V30 15133 C 2682.64 -4.52537 5.39283 0
M  V30 15134 C 2681.93 -4.20027 4.08623 0
M  V30 15135 N 2681.98 -2.76189 3.71603 0
M  V30 15136 C 2681.9 -1.64862 4.52822 0
M  V30 15137 N 2681.98 -0.512671 3.88633 0
M  V30 15138 C 2682.12 -0.888083 2.54977 0
M  V30 15139 C 2682.25 -0.094668 1.38677 0
M  V30 15140 O 2682.27 1.13053 1.28163 0
M  V30 15141 N 2682.37 -0.890102 0.232633 0
M  V30 15142 C 2682.37 -2.26958 0.21772 0
M  V30 15143 N 2682.5 -2.84626 -0.97925 0
M  V30 15144 N 2682.24 -3.0178 1.31033 0
M  V30 15145 C 2682.12 -2.26781 2.43843 0
M  V30 15146 H 2679.15 -4.797 7.24003 0
M  V30 15147 H 2678.88 -3.69856 5.84513 0
M  V30 15148 H 2679.74 -6.10356 5.41441 0
M  V30 15149 H 2682.4 -4.79061 3.27488 0
M  V30 15150 H 2682.68 -3.64906 6.05785 0
M  V30 15151 H 2683.67 -4.8868 5.2125 0
M  V30 15152 H 2681.83 -5.66726 7.06352 0
M  V30 15153 H 2681.79 -1.71169 5.60966 0
M  V30 15154 H 2682.47 -0.419134 -0.644739 0
M  V30 15155 H 2682.5 -3.87332 -1.06098 0
M  V30 15156 H 2682.61 -2.26417 -1.82483 0
M  V30 15157 P 2683.7 -7.20834 5.23717 0
M  V30 15158 O 2683.92 -8.66104 5.38572 0
M  V30 15159 O 2684.49 -6.33544 6.1349 0
M  V30 15160 O 2683.95 -6.7751 3.72168 0
M  V30 15161 C 2683.01 -7.20825 2.7076 0
M  V30 15162 C 2683.74 -7.45864 1.40599 0
M  V30 15163 O 2683.95 -6.17651 0.734225 0
M  V30 15164 C 2685.14 -8.05808 1.51899 0
M  V30 15165 O 2685.53 -8.74358 0.335205 0
M  V30 15166 C 2686.02 -6.83093 1.70294 0
M  V30 15167 C 2685.31 -5.79992 0.836974 0
M  V30 15168 N 2685.36 -4.41864 1.38293 0
M  V30 15169 C 2685.28 -3.99538 2.69438 0
M  V30 15170 N 2685.36 -2.69909 2.84277 0
M  V30 15171 C 2685.5 -2.21719 1.5408 0
M  V30 15172 C 2685.63 -0.891712 1.06628 0
M  V30 15173 O 2685.65 0.161298 1.70137 0
M  V30 15174 N 2685.75 -0.856846 -0.334985 0
M  V30 15175 C 2685.75 -1.9641 -1.15789 0
M  V30 15176 N 2685.88 -1.72708 -2.46522 0
M  V30 15177 N 2685.62 -3.21165 -0.713741 0
M  V30 15178 C 2685.5 -3.26797 0.639748 0
M  V30 15179 H 2682.53 -8.13644 3.0377 0
M  V30 15180 H 2682.26 -6.42788 2.55485 0
M  V30 15181 H 2683.12 -8.12039 0.792769 0
M  V30 15182 H 2685.78 -5.80061 -0.166416 0
M  V30 15183 H 2686.06 -6.51287 2.75604 0
M  V30 15184 H 2687.05 -7.01734 1.34462 0
M  V30 15185 H 2685.21 -8.73674 2.38337 0
M  V30 15186 H 2685.17 -4.68207 3.53221 0
M  V30 15187 H 2685.85 0.0398818 -0.767965 0
M  V30 15188 H 2685.88 -2.50995 -3.13503 0
M  V30 15189 H 2685.99 -0.759148 -2.80716 0
M  V30 15190 P 2687.08 -8.91 7.50368e-11 0
M  V30 15191 O 2687.3 -10.1726 -0.733694 0
M  V30 15192 O 2687.87 -8.73148 1.23936 0
M  V30 15193 O 2687.33 -7.66872 -0.971405 0
M  V30 15194 C 2686.39 -7.42309 -2.04641 0
M  V30 15195 C 2687.12 -6.86059 -3.24661 0
M  V30 15196 O 2687.33 -5.42847 -3.03646 0
M  V30 15197 C 2688.52 -7.41196 -3.50753 0
M  V30 15198 O 2688.91 -7.27073 -4.86816 0
M  V30 15199 C 2689.4 -6.5273 -2.63741 0
M  V30 15200 C 2688.69 -5.1842 -2.73198 0
M  V30 15201 N 2688.74 -4.38762 -1.4784 0
M  V30 15202 H 2685.91 -8.36803 -2.32493 0
M  V30 15203 H 2685.64 -6.70197 -1.71129 0
M  V30 15204 H 2686.5 -7.03551 -4.13168 0
M  V30 15205 P 2690.46 -7.20834 -5.23717 0
M  V30 15206 O 2690.68 -7.79853 -6.57286 0
M  V30 15207 O 2691.25 -7.79239 -4.12957 0
M  V30 15208 O 2690.71 -5.63315 -5.29344 0
M  V30 15209 C 2689.77 -4.80255 -6.01876 0
M  V30 15210 C 2690.5 -3.64202 -6.65911 0
M  V30 15211 O 2690.71 -2.60694 -5.64732 0
M  V30 15212 C 2691.9 -3.93473 -7.1943 0
M  V30 15213 O 2692.29 -3.02071 -8.21205 0
M  V30 15214 C 2692.78 -3.73047 -5.97036 0
M  V30 15215 C 2692.07 -2.58828 -5.25741 0
M  V30 15216 N 2692.12 -2.68068 -3.77503 0
M  V30 15217 H 2689.29 -5.40332 -6.79951 0
M  V30 15218 H 2689.02 -4.41613 -5.32378 0
M  V30 15219 H 2689.88 -3.26331 -7.47797 0
M  V30 15220 P 2693.84 -2.75334 -8.47391 0
M  V30 15221 O 2694.06 -2.44571 -9.90142 0
M  V30 15222 O 2694.63 -3.87688 -7.92115 0
M  V30 15223 O 2694.09 -1.4459 -7.59357 0
M  V30 15224 C 2693.15 -0.347608 -7.69215 0
M  V30 15225 C 2693.88 0.96767 -7.52806 0
M  V30 15226 O 2694.09 1.21036 -6.1011 0
M  V30 15227 C 2695.28 1.04544 -8.13308 0
M  V30 15228 O 2695.67 2.38311 -8.41922 0
M  V30 15229 C 2696.16 0.491279 -7.02284 0
M  V30 15230 C 2695.45 0.996264 -5.77469 0
M  V30 15231 N 2695.5 0.0501916 -4.62973 0
M  V30 15232 C 2695.42 -1.32786 -4.63244 0
M  V30 15233 N 2695.5 -1.86957 -3.44545 0
M  V30 15234 C 2695.64 -0.780241 -2.58481 0
M  V30 15235 C 2695.77 -0.738536 -1.17757 0
M  V30 15236 O 2695.79 -1.66794 -0.372349 0
M  V30 15237 N 2695.89 0.58337 -0.711393 0
M  V30 15238 C 2695.89 1.70816 -1.51017 0
M  V30 15239 N 2696.02 2.87826 -0.880757 0
M  V30 15240 N 2695.76 1.67126 -2.8339 0
M  V30 15241 C 2695.64 0.401421 -3.30572 0
M  V30 15242 H 2692.67 -0.374722 -8.67691 0
M  V30 15243 H 2692.4 -0.443485 -6.90277 0
M  V30 15244 H 2693.26 1.75537 -7.96793 0
M  V30 15245 H 2695.92 1.95076 -5.46529 0
M  V30 15246 H 2696.2 -0.608565 -7.04577 0
M  V30 15247 H 2697.19 0.889672 -7.08939 0
M  V30 15248 H 2695.35 0.43308 -9.04564 0
M  V30 15249 H 2695.31 -1.91249 -5.54442 0
M  V30 15250 H 2695.99 0.718054 0.275244 0
M  V30 15251 H 2696.02 3.75721 -1.41832 0
M  V30 15252 H 2696.13 2.90436 0.145468 0
M  V30 15253 P 2697.22 2.75334 -8.47391 0
M  V30 15254 O 2697.44 3.84128 -9.44797 0
M  V30 15255 O 2698.01 1.51947 -8.68712 0
M  V30 15256 O 2697.47 3.29363 -6.99321 0
M  V30 15257 C 2696.53 4.24011 -6.4274 0
M  V30 15258 C 2697.26 5.20775 -5.52155 0
M  V30 15259 O 2697.47 4.56534 -4.22446 0
M  V30 15260 C 2698.66 5.62629 -5.96531 0
M  V30 15261 O 2699.05 6.87667 -5.41053 0
M  V30 15262 C 2699.54 4.52537 -5.39283 0
M  V30 15263 C 2698.83 4.20027 -4.08623 0
M  V30 15264 N 2698.88 2.76189 -3.71603 0
M  V30 15265 H 2696.05 4.797 -7.24003 0
M  V30 15266 H 2695.78 3.69856 -5.84513 0
M  V30 15267 H 2696.64 6.10356 -5.41441 0
M  V30 15268 P 2700.6 7.20834 -5.23717 0
M  V30 15269 O 2700.82 8.66104 -5.38572 0
M  V30 15270 O 2701.39 6.33544 -6.1349 0
M  V30 15271 O 2700.85 6.7751 -3.72168 0
M  V30 15272 C 2699.91 7.20825 -2.7076 0
M  V30 15273 C 2700.64 7.45864 -1.40599 0
M  V30 15274 O 2700.85 6.17651 -0.734225 0
M  V30 15275 C 2702.04 8.05808 -1.51899 0
M  V30 15276 O 2702.43 8.74358 -0.335205 0
M  V30 15277 C 2702.92 6.83093 -1.70294 0
M  V30 15278 C 2702.21 5.79992 -0.836974 0
M  V30 15279 N 2702.26 4.41864 -1.38293 0
M  V30 15280 H 2699.43 8.13644 -3.0377 0
M  V30 15281 H 2699.16 6.42788 -2.55485 0
M  V30 15282 H 2700.02 8.12039 -0.792769 0
M  V30 15283 P 2703.98 8.91 -7.61458e-11 0
M  V30 15284 O 2704.2 10.1736 0.733766 0
M  V30 15285 O 2704.77 8.73247 -1.2395 0
M  V30 15286 O 2704.23 7.66872 0.971405 0
M  V30 15287 C 2703.29 7.42309 2.04641 0
M  V30 15288 C 2704.02 6.86059 3.24661 0
M  V30 15289 O 2704.23 5.42847 3.03646 0
M  V30 15290 C 2705.42 7.41196 3.50753 0
M  V30 15291 O 2705.81 7.27073 4.86816 0
M  V30 15292 C 2706.3 6.5273 2.63741 0
M  V30 15293 C 2705.59 5.1842 2.73198 0
M  V30 15294 N 2705.64 4.38668 1.47808 0
M  V30 15295 C 2705.79 3.00789 1.58511 0
M  V30 15296 O 2705.88 2.50116 2.71298 0
M  V30 15297 N 2705.84 2.29703 0.253698 0
M  V30 15298 C 2705.74 2.84269 -0.750133 0
M  V30 15299 N 2705.79 2.06951 -1.82612 0
M  V30 15300 C 2705.59 4.25803 -0.889776 0
M  V30 15301 C 2705.54 4.98326 0.259363 0
M  V30 15302 H 2702.8 8.36707 2.32466 0
M  V30 15303 H 2702.54 6.701 1.71105 0
M  V30 15304 H 2703.4 7.03638 4.13219 0
M  V30 15305 H 2706.06 4.59852 3.53955 0
M  V30 15306 H 2706.34 6.88995 1.59871 0
M  V30 15307 H 2707.33 6.46749 3.03687 0
M  V30 15308 H 2705.49 8.46908 3.20714 0
M  V30 15309 H 2705.42 6.06349 0.206238 0
M  V30 15310 H 2705.52 4.73163 -1.86796 0
M  V30 15311 H 2705.91 1.05099 -1.72271 0
M  V30 15312 H 2705.72 2.48716 -2.76361 0
M  V30 15313 P 2707.36 7.20834 5.23717 0
M  V30 15314 O 2707.58 7.79853 6.57286 0
M  V30 15315 O 2708.15 7.79239 4.12957 0
M  V30 15316 O 2707.61 5.63315 5.29344 0
M  V30 15317 C 2706.67 4.80255 6.01876 0
M  V30 15318 C 2707.4 3.64202 6.65911 0
M  V30 15319 O 2707.61 2.60694 5.64732 0
M  V30 15320 C 2708.8 3.93473 7.1943 0
M  V30 15321 O 2709.19 3.02071 8.21205 0
M  V30 15322 C 2709.68 3.73047 5.97036 0
M  V30 15323 C 2708.97 2.58828 5.25741 0
M  V30 15324 N 2709.02 2.68068 3.77503 0
M  V30 15325 H 2706.18 5.40332 6.79951 0
M  V30 15326 H 2705.91 4.41613 5.32378 0
M  V30 15327 H 2706.78 3.26331 7.47797 0
M  V30 15328 P 2710.74 2.75334 8.47391 0
M  V30 15329 O 2710.96 2.44571 9.90142 0
M  V30 15330 O 2711.53 3.87688 7.92115 0
M  V30 15331 O 2710.99 1.4459 7.59357 0
M  V30 15332 C 2710.05 0.347608 7.69215 0
M  V30 15333 C 2710.78 -0.96767 7.52806 0
M  V30 15334 O 2710.99 -1.21036 6.1011 0
M  V30 15335 C 2712.18 -1.04544 8.13308 0
M  V30 15336 O 2712.57 -2.38311 8.41922 0
M  V30 15337 C 2713.06 -0.491279 7.02284 0
M  V30 15338 C 2712.35 -0.996264 5.77469 0
M  V30 15339 N 2712.4 -0.0501916 4.62973 0
M  V30 15340 H 2709.56 0.374722 8.67691 0
M  V30 15341 H 2709.29 0.443485 6.90277 0
M  V30 15342 H 2710.16 -1.75537 7.96793 0
M  V30 15343 P 2714.12 -2.75334 8.47391 0
M  V30 15344 O 2714.34 -3.84204 9.44982 0
M  V30 15345 O 2714.91 -1.51982 8.68909 0
M  V30 15346 O 2714.37 -3.29363 6.99321 0
M  V30 15347 C 2713.43 -4.24066 6.42823 0
M  V30 15348 C 2714.16 -5.20775 5.52155 0
M  V30 15349 O 2714.37 -4.56607 4.22514 0
M  V30 15350 C 2715.56 -5.62697 5.96604 0
M  V30 15351 O 2715.95 -6.87667 5.41053 0
M  V30 15352 C 2716.44 -4.52537 5.39283 0
M  V30 15353 C 2715.73 -4.20027 4.08623 0
M  V30 15354 N 2715.78 -2.76189 3.71603 0
M  V30 15355 H 2712.95 -4.79756 7.24086 0
M  V30 15356 H 2712.67 -3.69963 5.84682 0
M  V30 15357 H 2713.54 -6.10431 5.41508 0
M  V30 15358 H 2716.2 -4.78816 3.28024 0
M  V30 15359 H 2716.48 -3.64957 6.05871 0
M  V30 15360 H 2717.47 -4.88748 5.21323 0
M  V30 15361 H 2715.63 -5.66789 7.0643 0
M  V30 15362 P 2717.5 -7.20834 5.23717 0
M  V30 15363 O 2717.72 -8.66104 5.38572 0
M  V30 15364 O 2718.29 -6.33544 6.1349 0
M  V30 15365 O 2717.75 -6.7751 3.72168 0
M  V30 15366 C 2716.81 -7.20825 2.7076 0
M  V30 15367 C 2717.54 -7.45864 1.40599 0
M  V30 15368 O 2717.75 -6.17651 0.734225 0
M  V30 15369 C 2718.94 -8.05808 1.51899 0
M  V30 15370 O 2719.33 -8.74358 0.335205 0
M  V30 15371 C 2719.82 -6.83093 1.70294 0
M  V30 15372 C 2719.11 -5.79992 0.836974 0
M  V30 15373 N 2719.16 -4.41864 1.38293 0
M  V30 15374 H 2716.32 -8.13644 3.0377 0
M  V30 15375 H 2716.05 -6.42788 2.55485 0
M  V30 15376 H 2716.92 -8.12039 0.792769 0
M  V30 15377 P 2720.88 -8.91 7.72548e-11 0
M  V30 15378 O 2721.1 -10.1726 -0.733694 0
M  V30 15379 O 2721.67 -8.73148 1.23936 0
M  V30 15380 O 2721.13 -7.66872 -0.971405 0
M  V30 15381 C 2720.19 -7.42309 -2.04641 0
M  V30 15382 C 2720.92 -6.86059 -3.24661 0
M  V30 15383 O 2721.13 -5.42847 -3.03646 0
M  V30 15384 C 2722.32 -7.41196 -3.50753 0
M  V30 15385 O 2722.71 -7.27073 -4.86816 0
M  V30 15386 C 2723.2 -6.5273 -2.63741 0
M  V30 15387 C 2722.49 -5.1842 -2.73198 0
M  V30 15388 N 2722.54 -4.38762 -1.4784 0
M  V30 15389 C 2722.46 -4.81605 -0.168631 0
M  V30 15390 N 2722.54 -3.85454 0.713363 0
M  V30 15391 C 2722.68 -2.6994 -0.0566958 0
M  V30 15392 C 2722.81 -1.34815 0.338502 0
M  V30 15393 N 2722.93 -0.496304 -0.77465 0
M  V30 15394 C 2722.93 -0.908403 -2.09122 0
M  V30 15395 N 2723.06 0.0517805 -3.00955 0
M  V30 15396 N 2722.8 -2.17875 -2.46519 0
M  V30 15397 C 2722.68 -3.01988 -1.4033 0
M  V30 15398 H 2719.7 -8.36803 -2.32493 0
M  V30 15399 H 2719.43 -6.70197 -1.71129 0
M  V30 15400 H 2720.3 -7.03551 -4.13168 0
M  V30 15401 P 2724.26 -7.20834 -5.23717 0
M  V30 15402 O 2724.48 -7.79853 -6.57286 0
M  V30 15403 O 2725.05 -7.79239 -4.12957 0
M  V30 15404 O 2724.51 -5.63315 -5.29344 0
M  V30 15405 C 2723.57 -4.80255 -6.01876 0
M  V30 15406 C 2724.3 -3.64202 -6.65911 0
M  V30 15407 O 2724.51 -2.60694 -5.64732 0
M  V30 15408 C 2725.7 -3.93473 -7.1943 0
M  V30 15409 O 2726.09 -3.02071 -8.21205 0
M  V30 15410 C 2726.58 -3.73047 -5.97036 0
M  V30 15411 C 2725.87 -2.58828 -5.25741 0
M  V30 15412 N 2725.92 -2.68068 -3.77503 0
M  V30 15413 C 2725.84 -3.79715 -2.96723 0
M  V30 15414 N 2725.92 -3.5377 -1.68852 0
M  V30 15415 C 2726.06 -2.15054 -1.63254 0
M  V30 15416 C 2726.19 -1.28964 -0.518571 0
M  V30 15417 O 2726.21 -1.56826 0.679156 0
M  V30 15418 N 2726.31 0.0538097 -0.918425 0
M  V30 15419 C 2726.31 0.494275 -2.22578 0
M  V30 15420 N 2726.44 1.81086 -2.40434 0
M  V30 15421 N 2726.18 -0.313645 -3.27502 0
M  V30 15422 C 2726.06 -1.61829 -2.91033 0
M  V30 15423 H 2723.08 -5.40332 -6.79951 0
M  V30 15424 H 2722.81 -4.41613 -5.32378 0
M  V30 15425 H 2723.68 -3.26331 -7.47797 0
M  V30 15426 H 2726.34 -1.63422 -5.56814 0
M  V30 15427 H 2726.62 -4.63374 -5.34244 0
M  V30 15428 H 2727.61 -3.44728 -6.25838 0
M  V30 15429 H 2725.77 -4.96652 -7.57263 0
M  V30 15430 H 2725.72 -4.80617 -3.3614 0
M  V30 15431 H 2726.41 0.742702 -0.199384 0
M  V30 15432 H 2726.44 2.20598 -3.35588 0
M  V30 15433 H 2726.54 2.43518 -1.58945 0
M  V30 15434 P 2727.64 -2.75334 -8.47391 0
M  V30 15435 O 2727.86 -2.44571 -9.90142 0
M  V30 15436 O 2728.43 -3.87688 -7.92115 0
M  V30 15437 O 2727.89 -1.4459 -7.59357 0
M  V30 15438 C 2726.95 -0.347608 -7.69215 0
M  V30 15439 C 2727.68 0.96767 -7.52806 0
M  V30 15440 O 2727.89 1.21036 -6.1011 0
M  V30 15441 C 2729.08 1.04544 -8.13308 0
M  V30 15442 O 2729.47 2.38311 -8.41922 0
M  V30 15443 C 2729.96 0.491279 -7.02284 0
M  V30 15444 C 2729.25 0.996264 -5.77469 0
M  V30 15445 N 2729.3 0.0501916 -4.62973 0
M  V30 15446 H 2726.46 -0.374722 -8.67691 0
M  V30 15447 H 2726.19 -0.443485 -6.90277 0
M  V30 15448 H 2727.06 1.75537 -7.96793 0
M  V30 15449 P 2731.02 2.75334 -8.47391 0
M  V30 15450 O 2731.24 3.84128 -9.44797 0
M  V30 15451 O 2731.81 1.51947 -8.68712 0
M  V30 15452 O 2731.27 3.29363 -6.99321 0
M  V30 15453 C 2730.33 4.24011 -6.4274 0
M  V30 15454 C 2731.06 5.20775 -5.52155 0
M  V30 15455 O 2731.27 4.56534 -4.22446 0
M  V30 15456 C 2732.46 5.62629 -5.96531 0
M  V30 15457 O 2732.85 6.87667 -5.41053 0
M  V30 15458 C 2733.34 4.52537 -5.39283 0
M  V30 15459 C 2732.63 4.20027 -4.08623 0
M  V30 15460 N 2732.68 2.76189 -3.71603 0
M  V30 15461 H 2729.84 4.797 -7.24003 0
M  V30 15462 H 2729.57 3.69856 -5.84513 0
M  V30 15463 H 2730.44 6.10356 -5.41441 0
M  V30 15464 P 2734.4 7.20834 -5.23717 0
M  V30 15465 O 2734.62 8.66189 -5.38625 0
M  V30 15466 O 2735.19 6.33615 -6.1356 0
M  V30 15467 O 2734.65 6.7751 -3.72168 0
M  V30 15468 C 2733.71 7.20732 -2.70725 0
M  V30 15469 C 2734.44 7.45864 -1.40599 0
M  V30 15470 O 2734.65 6.17651 -0.734225 0
M  V30 15471 C 2735.84 8.05808 -1.51899 0
M  V30 15472 O 2736.23 8.74358 -0.335205 0
M  V30 15473 C 2736.72 6.83093 -1.70294 0
M  V30 15474 C 2736.01 5.79992 -0.836974 0
M  V30 15475 N 2736.06 4.41769 -1.38263 0
M  V30 15476 C 2736.21 3.38591 -0.481702 0
M  V30 15477 O 2736.3 3.56839 0.718452 0
M  V30 15478 N 2736.25 2.1206 -1.03569 0
M  V30 15479 C 2736.16 1.80696 -2.36966 0
M  V30 15480 O 2736.21 0.630473 -2.74862 0
M  V30 15481 C 2736.01 2.94845 -3.23898 0
M  V30 15482 C 2735.9 2.65253 -4.70362 0
M  V30 15483 C 2735.96 4.19803 -2.73435 0
M  V30 15484 H 2733.22 8.13644 -3.0377 0
M  V30 15485 H 2732.95 6.42695 -2.55448 0
M  V30 15486 H 2733.82 8.12039 -0.792769 0
M  V30 15487 H 2736.48 5.79978 0.160587 0
M  V30 15488 H 2736.76 6.51379 -2.75643 0
M  V30 15489 H 2737.75 7.01734 -1.34462 0
M  V30 15490 H 2735.91 8.73674 -2.38337 0
M  V30 15491 H 2735.84 5.04492 -3.4095 0
M  V30 15492 H 2736.87 2.83924 -5.1913 0
M  V30 15493 H 2735.14 3.29824 -5.15163 0
M  V30 15494 H 2735.62 1.59723 -4.84449 0
M  V30 15495 H 2736.36 1.35644 -0.399345 0
M  V30 15496 P 2737.78 8.91 -7.83638e-11 0
M  V30 15497 O 2738 10.1736 0.733766 0
M  V30 15498 O 2738.57 8.73247 -1.2395 0
M  V30 15499 O 2738.03 7.66872 0.971405 0
M  V30 15500 C 2737.09 7.42212 2.04614 0
M  V30 15501 C 2737.82 6.86059 3.24661 0
M  V30 15502 O 2738.03 5.42847 3.03646 0
M  V30 15503 C 2739.22 7.41196 3.50753 0
M  V30 15504 O 2739.61 7.27073 4.86816 0
M  V30 15505 C 2740.1 6.5273 2.63741 0
M  V30 15506 C 2739.39 5.1842 2.73198 0
M  V30 15507 N 2739.44 4.38668 1.47808 0
M  V30 15508 C 2739.59 3.02239 1.60048 0
M  V30 15509 O 2739.68 2.46459 2.67869 0
M  V30 15510 N 2739.63 2.32436 0.408571 0
M  V30 15511 C 2739.54 2.85471 -0.854993 0
M  V30 15512 C 2739.39 4.28918 -0.887335 0
M  V30 15513 C 2739.34 5.00349 0.255399 0
M  V30 15514 H 2736.6 8.36803 2.32493 0
M  V30 15515 H 2736.33 6.701 1.71105 0
M  V30 15516 H 2737.2 7.03551 4.13168 0
M  V30 15517 H 2739.86 4.59773 3.53894 0
M  V30 15518 H 2740.14 6.88995 1.59871 0
M  V30 15519 H 2741.13 6.46749 3.03687 0
M  V30 15520 H 2739.29 8.46908 3.20714 0
M  V30 15521 H 2739.22 6.08548 0.206986 0
M  V30 15522 P 2741.16 7.20834 5.23717 0
M  V30 15523 O 2741.38 7.79853 6.57286 0
M  V30 15524 O 2741.95 7.79239 4.12957 0
M  V30 15525 O 2741.41 5.63315 5.29344 0
M  V30 15526 C 2740.47 4.80255 6.01876 0
M  V30 15527 C 2741.2 3.64202 6.65911 0
M  V30 15528 O 2741.41 2.60694 5.64732 0
M  V30 15529 C 2742.6 3.93473 7.1943 0
M  V30 15530 O 2742.99 3.02071 8.21205 0
M  V30 15531 C 2743.48 3.73047 5.97036 0
M  V30 15532 C 2742.77 2.58828 5.25741 0
M  V30 15533 N 2742.82 2.68068 3.77503 0
M  V30 15534 H 2739.98 5.40332 6.79951 0
M  V30 15535 H 2739.71 4.41613 5.32378 0
M  V30 15536 H 2740.58 3.26331 7.47797 0
M  V30 15537 P 2744.54 2.75334 8.47391 0
M  V30 15538 O 2744.76 2.44571 9.90142 0
M  V30 15539 O 2745.33 3.87688 7.92115 0
M  V30 15540 O 2744.79 1.4459 7.59357 0
M  V30 15541 C 2743.85 0.347608 7.69215 0
M  V30 15542 C 2744.58 -0.96767 7.52806 0
M  V30 15543 O 2744.79 -1.21036 6.1011 0
M  V30 15544 C 2745.98 -1.04544 8.13308 0
M  V30 15545 O 2746.37 -2.38311 8.41922 0
M  V30 15546 C 2746.86 -0.491279 7.02284 0
M  V30 15547 C 2746.15 -0.996264 5.77469 0
M  V30 15548 N 2746.2 -0.0501916 4.62973 0
M  V30 15549 C 2746.12 1.32786 4.63244 0
M  V30 15550 N 2746.2 1.86957 3.44545 0
M  V30 15551 C 2746.34 0.780241 2.58481 0
M  V30 15552 C 2746.47 0.738536 1.17757 0
M  V30 15553 N 2746.59 -0.58337 0.711393 0
M  V30 15554 C 2746.59 -1.70816 1.51017 0
M  V30 15555 N 2746.72 -2.87826 0.880757 0
M  V30 15556 N 2746.46 -1.67126 2.8339 0
M  V30 15557 C 2746.34 -0.401421 3.30572 0
M  V30 15558 H 2743.36 0.374722 8.67691 0
M  V30 15559 H 2743.09 0.443485 6.90277 0
M  V30 15560 H 2743.96 -1.75537 7.96793 0
M  V30 15561 P 2747.92 -2.75334 8.47391 0
M  V30 15562 O 2748.14 -3.84204 9.44982 0
M  V30 15563 O 2748.71 -1.51982 8.68909 0
M  V30 15564 O 2748.17 -3.29363 6.99321 0
M  V30 15565 C 2747.23 -4.24066 6.42823 0
M  V30 15566 C 2747.96 -5.20775 5.52155 0
M  V30 15567 O 2748.17 -4.56607 4.22514 0
M  V30 15568 C 2749.36 -5.62697 5.96604 0
M  V30 15569 O 2749.75 -6.87667 5.41053 0
M  V30 15570 C 2750.24 -4.52537 5.39283 0
M  V30 15571 C 2749.53 -4.20027 4.08623 0
M  V30 15572 N 2749.58 -2.76189 3.71603 0
M  V30 15573 C 2749.5 -1.66944 4.54297 0
M  V30 15574 N 2749.57 -0.536169 3.91344 0
M  V30 15575 C 2749.72 -0.901569 2.58849 0
M  V30 15576 C 2749.85 -0.146599 1.40236 0
M  V30 15577 N 2749.86 1.18234 1.37046 0
M  V30 15578 N 2749.97 -0.822941 0.249738 0
M  V30 15579 C 2749.96 -2.15179 0.280525 0
M  V30 15580 N 2749.84 -2.96414 1.30822 0
M  V30 15581 C 2749.72 -2.25804 2.44748 0
M  V30 15582 H 2746.75 -4.79756 7.24086 0
M  V30 15583 H 2746.47 -3.69963 5.84682 0
M  V30 15584 H 2747.34 -6.10431 5.41508 0
M  V30 15585 H 2750 -4.78816 3.28024 0
M  V30 15586 H 2750.28 -3.64957 6.05871 0
M  V30 15587 H 2751.27 -4.88748 5.21323 0
M  V30 15588 H 2749.43 -5.66789 7.0643 0
M  V30 15589 H 2749.39 -1.74684 5.62396 0
M  V30 15590 H 2749.77 1.71949 2.24394 0
M  V30 15591 H 2749.96 1.67511 0.470742 0
M  V30 15592 H 2750.07 -2.63704 -0.6828 0
M  V30 15593 P 2751.3 -7.20834 5.23717 0
M  V30 15594 O 2751.52 -8.66104 5.38572 0
M  V30 15595 O 2752.09 -6.33544 6.1349 0
M  V30 15596 O 2751.55 -6.7751 3.72168 0
M  V30 15597 C 2750.61 -7.20825 2.7076 0
M  V30 15598 C 2751.34 -7.45864 1.40599 0
M  V30 15599 O 2751.55 -6.17651 0.734225 0
M  V30 15600 C 2752.74 -8.05808 1.51899 0
M  V30 15601 O 2753.13 -8.74358 0.335205 0
M  V30 15602 C 2753.62 -6.83093 1.70294 0
M  V30 15603 C 2752.91 -5.79992 0.836974 0
M  V30 15604 N 2752.96 -4.41864 1.38293 0
M  V30 15605 H 2750.12 -8.13644 3.0377 0
M  V30 15606 H 2749.85 -6.42788 2.55485 0
M  V30 15607 H 2750.72 -8.12039 0.792769 0
M  V30 15608 P 2754.68 -8.91 7.94728e-11 0
M  V30 15609 O 2754.9 -10.1726 -0.733694 0
M  V30 15610 O 2755.47 -8.73148 1.23936 0
M  V30 15611 O 2754.93 -7.66872 -0.971405 0
M  V30 15612 C 2753.99 -7.42309 -2.04641 0
M  V30 15613 C 2754.72 -6.86059 -3.24661 0
M  V30 15614 O 2754.93 -5.42847 -3.03646 0
M  V30 15615 C 2756.12 -7.41196 -3.50753 0
M  V30 15616 O 2756.51 -7.27073 -4.86816 0
M  V30 15617 C 2757 -6.5273 -2.63741 0
M  V30 15618 C 2756.29 -5.1842 -2.73198 0
M  V30 15619 N 2756.34 -4.38762 -1.4784 0
M  V30 15620 H 2753.5 -8.36803 -2.32493 0
M  V30 15621 H 2753.23 -6.70197 -1.71129 0
M  V30 15622 H 2754.1 -7.03551 -4.13168 0
M  V30 15623 P 2758.06 -7.20834 -5.23717 0
M  V30 15624 O 2758.28 -7.79853 -6.57286 0
M  V30 15625 O 2758.85 -7.79239 -4.12957 0
M  V30 15626 O 2758.31 -5.63315 -5.29344 0
M  V30 15627 C 2757.37 -4.80255 -6.01876 0
M  V30 15628 C 2758.1 -3.64202 -6.65911 0
M  V30 15629 O 2758.31 -2.60694 -5.64732 0
M  V30 15630 C 2759.5 -3.93473 -7.1943 0
M  V30 15631 O 2759.89 -3.02071 -8.21205 0
M  V30 15632 C 2760.38 -3.73047 -5.97036 0
M  V30 15633 C 2759.67 -2.58828 -5.25741 0
M  V30 15634 N 2759.72 -2.68068 -3.77503 0
M  V30 15635 C 2759.64 -3.79715 -2.96723 0
M  V30 15636 N 2759.72 -3.5377 -1.68852 0
M  V30 15637 C 2759.86 -2.15054 -1.63254 0
M  V30 15638 C 2759.99 -1.28964 -0.518571 0
M  V30 15639 O 2760.01 -1.56826 0.679156 0
M  V30 15640 N 2760.11 0.0538097 -0.918425 0
M  V30 15641 C 2760.11 0.494275 -2.22578 0
M  V30 15642 N 2760.24 1.81086 -2.40434 0
M  V30 15643 N 2759.98 -0.313645 -3.27502 0
M  V30 15644 C 2759.86 -1.61829 -2.91033 0
M  V30 15645 H 2756.88 -5.40332 -6.79951 0
M  V30 15646 H 2756.61 -4.41613 -5.32378 0
M  V30 15647 H 2757.48 -3.26331 -7.47797 0
M  V30 15648 H 2760.14 -1.63422 -5.56814 0
M  V30 15649 H 2760.42 -4.63374 -5.34244 0
M  V30 15650 H 2761.41 -3.44728 -6.25838 0
M  V30 15651 H 2759.57 -4.96652 -7.57263 0
M  V30 15652 H 2759.52 -4.80617 -3.3614 0
M  V30 15653 H 2760.21 0.742702 -0.199384 0
M  V30 15654 H 2760.24 2.20598 -3.35588 0
M  V30 15655 H 2760.34 2.43518 -1.58945 0
M  V30 15656 P 2761.44 -2.75334 -8.47391 0
M  V30 15657 O 2761.66 -2.44571 -9.90142 0
M  V30 15658 O 2762.23 -3.87688 -7.92115 0
M  V30 15659 O 2761.69 -1.4459 -7.59357 0
M  V30 15660 C 2760.75 -0.347608 -7.69215 0
M  V30 15661 C 2761.48 0.96767 -7.52806 0
M  V30 15662 O 2761.69 1.21036 -6.1011 0
M  V30 15663 C 2762.88 1.04544 -8.13308 0
M  V30 15664 O 2763.27 2.38311 -8.41922 0
M  V30 15665 C 2763.76 0.491279 -7.02284 0
M  V30 15666 C 2763.05 0.996264 -5.77469 0
M  V30 15667 N 2763.1 0.0501916 -4.62973 0
M  V30 15668 H 2760.26 -0.374722 -8.67691 0
M  V30 15669 H 2759.99 -0.443485 -6.90277 0
M  V30 15670 H 2760.86 1.75537 -7.96793 0
M  V30 15671 P 2764.82 2.75334 -8.47391 0
M  V30 15672 O 2765.04 3.84128 -9.44797 0
M  V30 15673 O 2765.61 1.51947 -8.68712 0
M  V30 15674 O 2765.07 3.29363 -6.99321 0
M  V30 15675 C 2764.13 4.24011 -6.4274 0
M  V30 15676 C 2764.86 5.20775 -5.52155 0
M  V30 15677 O 2765.07 4.56534 -4.22446 0
M  V30 15678 C 2766.26 5.62629 -5.96531 0
M  V30 15679 O 2766.65 6.87667 -5.41053 0
M  V30 15680 C 2767.14 4.52537 -5.39283 0
M  V30 15681 C 2766.43 4.20027 -4.08623 0
M  V30 15682 N 2766.48 2.76189 -3.71603 0
M  V30 15683 H 2763.64 4.797 -7.24003 0
M  V30 15684 H 2763.37 3.69856 -5.84513 0
M  V30 15685 H 2764.24 6.10356 -5.41441 0
M  V30 15686 P 2768.2 7.20834 -5.23717 0
M  V30 15687 O 2768.42 8.66104 -5.38572 0
M  V30 15688 O 2768.99 6.33544 -6.1349 0
M  V30 15689 O 2768.45 6.7751 -3.72168 0
M  V30 15690 C 2767.51 7.20825 -2.7076 0
M  V30 15691 C 2768.24 7.45864 -1.40599 0
M  V30 15692 O 2768.45 6.17651 -0.734225 0
M  V30 15693 C 2769.64 8.05808 -1.51899 0
M  V30 15694 O 2770.03 8.74358 -0.335205 0
M  V30 15695 C 2770.52 6.83093 -1.70294 0
M  V30 15696 C 2769.81 5.79992 -0.836974 0
M  V30 15697 N 2769.86 4.41864 -1.38293 0
M  V30 15698 H 2767.02 8.13644 -3.0377 0
M  V30 15699 H 2766.75 6.42788 -2.55485 0
M  V30 15700 H 2767.62 8.12039 -0.792769 0
M  V30 15701 P 2771.58 8.91 -8.05818e-11 0
M  V30 15702 O 2771.8 10.1746 0.733838 0
M  V30 15703 O 2772.37 8.73346 -1.23964 0
M  V30 15704 O 2771.83 7.66872 0.971405 0
M  V30 15705 C 2770.89 7.42405 2.04668 0
M  V30 15706 C 2771.62 6.86059 3.24661 0
M  V30 15707 O 2771.83 5.42934 3.03695 0
M  V30 15708 C 2773.02 7.41287 3.50796 0
M  V30 15709 O 2773.41 7.27073 4.86816 0
M  V30 15710 C 2773.9 6.5273 2.63741 0
M  V30 15711 C 2773.19 5.1842 2.73198 0
M  V30 15712 N 2773.24 4.38762 1.4784 0
M  V30 15713 C 2773.16 4.83651 0.183876 0
M  V30 15714 N 2773.23 3.88759 -0.699393 0
M  V30 15715 C 2773.38 2.7404 0.0575568 0
M  V30 15716 C 2773.51 1.37902 -0.293928 0
M  V30 15717 N 2773.52 0.938021 -1.54797 0
M  V30 15718 N 2773.63 0.491817 0.70549 0
M  V30 15719 C 2773.62 0.931735 1.95979 0
M  V30 15720 N 2773.5 2.16017 2.41481 0
M  V30 15721 C 2773.38 3.02547 1.39121 0
M  V30 15722 H 2770.41 8.36899 2.3252 0
M  V30 15723 H 2770.13 6.70391 1.71179 0
M  V30 15724 H 2771 7.03638 4.13219 0
M  V30 15725 H 2773.66 4.59931 3.54016 0
M  V30 15726 H 2773.94 6.88995 1.59871 0
M  V30 15727 H 2774.93 6.4684 3.0373 0
M  V30 15728 H 2773.09 8.47002 3.20749 0
M  V30 15729 H 2773.05 5.8885 -0.0765548 0
M  V30 15730 H 2773.43 1.60276 -2.32875 0
M  V30 15731 H 2773.62 -0.0699355 -1.73859 0
M  V30 15732 H 2773.73 0.165507 2.71897 0
M  V30 15733 P 2774.96 7.20834 5.23717 0
M  V30 15734 O 2775.18 7.79853 6.57286 0
M  V30 15735 O 2775.75 7.79239 4.12957 0
M  V30 15736 O 2775.21 5.63315 5.29344 0
M  V30 15737 C 2774.27 4.80255 6.01876 0
M  V30 15738 C 2775 3.64202 6.65911 0
M  V30 15739 O 2775.21 2.60694 5.64732 0
M  V30 15740 C 2776.4 3.93473 7.1943 0
M  V30 15741 O 2776.79 3.02071 8.21205 0
M  V30 15742 C 2777.28 3.73047 5.97036 0
M  V30 15743 C 2776.57 2.58828 5.25741 0
M  V30 15744 N 2776.62 2.68068 3.77503 0
M  V30 15745 H 2773.78 5.40332 6.79951 0
M  V30 15746 H 2773.51 4.41613 5.32378 0
M  V30 15747 H 2774.38 3.26331 7.47797 0
M  V30 15748 P 2778.34 2.75334 8.47391 0
M  V30 15749 O 2778.56 2.44571 9.90142 0
M  V30 15750 O 2779.13 3.87688 7.92115 0
M  V30 15751 O 2778.59 1.4459 7.59357 0
M  V30 15752 C 2777.65 0.347608 7.69215 0
M  V30 15753 C 2778.38 -0.96767 7.52806 0
M  V30 15754 O 2778.59 -1.21036 6.1011 0
M  V30 15755 C 2779.78 -1.04544 8.13308 0
M  V30 15756 O 2780.17 -2.38311 8.41922 0
M  V30 15757 C 2780.66 -0.491279 7.02284 0
M  V30 15758 C 2779.95 -0.996264 5.77469 0
M  V30 15759 N 2780 -0.0501916 4.62973 0
M  V30 15760 H 2777.16 0.374722 8.67691 0
M  V30 15761 H 2776.89 0.443485 6.90277 0
M  V30 15762 H 2777.76 -1.75537 7.96793 0
M  V30 15763 P 2781.72 -2.75334 8.47391 0
M  V30 15764 O 2781.94 -3.84128 9.44797 0
M  V30 15765 O 2782.51 -1.51947 8.68712 0
M  V30 15766 O 2781.97 -3.29363 6.99321 0
M  V30 15767 C 2781.03 -4.24011 6.4274 0
M  V30 15768 C 2781.76 -5.20775 5.52155 0
M  V30 15769 O 2781.97 -4.56534 4.22446 0
M  V30 15770 C 2783.16 -5.62629 5.96531 0
M  V30 15771 O 2783.55 -6.87667 5.41053 0
M  V30 15772 C 2784.04 -4.52537 5.39283 0
M  V30 15773 C 2783.33 -4.20027 4.08623 0
M  V30 15774 N 2783.38 -2.76189 3.71603 0
M  V30 15775 H 2780.54 -4.797 7.24003 0
M  V30 15776 H 2780.27 -3.69856 5.84513 0
M  V30 15777 H 2781.14 -6.10356 5.41441 0
M  V30 15778 P 2785.1 -7.20834 5.23717 0
M  V30 15779 O 2785.32 -8.66104 5.38572 0
M  V30 15780 O 2785.89 -6.33544 6.1349 0
M  V30 15781 O 2785.35 -6.7751 3.72168 0
M  V30 15782 C 2784.41 -7.20825 2.7076 0
M  V30 15783 C 2785.14 -7.45864 1.40599 0
M  V30 15784 O 2785.35 -6.17651 0.734225 0
M  V30 15785 C 2786.54 -8.05808 1.51899 0
M  V30 15786 O 2786.93 -8.74358 0.335205 0
M  V30 15787 C 2787.42 -6.83093 1.70294 0
M  V30 15788 C 2786.71 -5.79992 0.836974 0
M  V30 15789 N 2786.76 -4.41864 1.38293 0
M  V30 15790 H 2783.92 -8.13644 3.0377 0
M  V30 15791 H 2783.65 -6.42788 2.55485 0
M  V30 15792 H 2784.52 -8.12039 0.792769 0
M  V30 15793 P 2788.48 -8.91 8.16908e-11 0
M  V30 15794 O 2788.7 -10.1726 -0.733694 0
M  V30 15795 O 2789.27 -8.73148 1.23936 0
M  V30 15796 O 2788.73 -7.66872 -0.971405 0
M  V30 15797 C 2787.79 -7.42309 -2.04641 0
M  V30 15798 C 2788.52 -6.86059 -3.24661 0
M  V30 15799 O 2788.73 -5.42847 -3.03646 0
M  V30 15800 C 2789.92 -7.41196 -3.50753 0
M  V30 15801 O 2790.31 -7.27073 -4.86816 0
M  V30 15802 C 2790.8 -6.5273 -2.63741 0
M  V30 15803 C 2790.09 -5.1842 -2.73198 0
M  V30 15804 N 2790.14 -4.38762 -1.4784 0
M  V30 15805 H 2787.3 -8.36803 -2.32493 0
M  V30 15806 H 2787.03 -6.70197 -1.71129 0
M  V30 15807 H 2787.9 -7.03551 -4.13168 0
M  V30 15808 P 2791.86 -7.20834 -5.23717 0
M  V30 15809 O 2792.08 -7.79853 -6.57286 0
M  V30 15810 O 2792.65 -7.79239 -4.12957 0
M  V30 15811 O 2792.11 -5.63315 -5.29344 0
M  V30 15812 C 2791.17 -4.80255 -6.01876 0
M  V30 15813 C 2791.9 -3.64202 -6.65911 0
M  V30 15814 O 2792.11 -2.60694 -5.64732 0
M  V30 15815 C 2793.3 -3.93473 -7.1943 0
M  V30 15816 O 2793.69 -3.02071 -8.21205 0
M  V30 15817 C 2794.18 -3.73047 -5.97036 0
M  V30 15818 C 2793.47 -2.58828 -5.25741 0
M  V30 15819 N 2793.52 -2.68068 -3.77503 0
M  V30 15820 C 2793.44 -3.79715 -2.96723 0
M  V30 15821 N 2793.52 -3.5377 -1.68852 0
M  V30 15822 C 2793.66 -2.15054 -1.63254 0
M  V30 15823 C 2793.79 -1.28964 -0.518571 0
M  V30 15824 O 2793.81 -1.56826 0.679156 0
M  V30 15825 N 2793.91 0.0538097 -0.918425 0
M  V30 15826 C 2793.91 0.494275 -2.22578 0
M  V30 15827 N 2794.04 1.81086 -2.40434 0
M  V30 15828 N 2793.78 -0.313645 -3.27502 0
M  V30 15829 C 2793.66 -1.61829 -2.91033 0
M  V30 15830 H 2790.68 -5.40332 -6.79951 0
M  V30 15831 H 2790.41 -4.41613 -5.32378 0
M  V30 15832 H 2791.28 -3.26331 -7.47797 0
M  V30 15833 H 2793.94 -1.63422 -5.56814 0
M  V30 15834 H 2794.22 -4.63374 -5.34244 0
M  V30 15835 H 2795.21 -3.44728 -6.25838 0
M  V30 15836 H 2793.37 -4.96652 -7.57263 0
M  V30 15837 H 2793.32 -4.80617 -3.3614 0
M  V30 15838 H 2794.01 0.742702 -0.199384 0
M  V30 15839 H 2794.04 2.20598 -3.35588 0
M  V30 15840 H 2794.14 2.43518 -1.58945 0
M  V30 15841 P 2795.24 -2.75334 -8.47391 0
M  V30 15842 O 2795.46 -2.44571 -9.90142 0
M  V30 15843 O 2796.03 -3.87688 -7.92115 0
M  V30 15844 O 2795.49 -1.4459 -7.59357 0
M  V30 15845 C 2794.55 -0.347608 -7.69215 0
M  V30 15846 C 2795.28 0.96767 -7.52806 0
M  V30 15847 O 2795.49 1.21036 -6.1011 0
M  V30 15848 C 2796.68 1.04544 -8.13308 0
M  V30 15849 O 2797.07 2.38311 -8.41922 0
M  V30 15850 C 2797.56 0.491279 -7.02284 0
M  V30 15851 C 2796.85 0.996264 -5.77469 0
M  V30 15852 N 2796.9 0.0501916 -4.62973 0
M  V30 15853 H 2794.06 -0.374722 -8.67691 0
M  V30 15854 H 2793.79 -0.443485 -6.90277 0
M  V30 15855 H 2794.66 1.75537 -7.96793 0
M  V30 15856 P 2798.62 2.75334 -8.47391 0
M  V30 15857 O 2798.84 3.84128 -9.44797 0
M  V30 15858 O 2799.41 1.51947 -8.68712 0
M  V30 15859 O 2798.87 3.29363 -6.99321 0
M  V30 15860 C 2797.93 4.24011 -6.4274 0
M  V30 15861 C 2798.66 5.20775 -5.52155 0
M  V30 15862 O 2798.87 4.56534 -4.22446 0
M  V30 15863 C 2800.06 5.62629 -5.96531 0
M  V30 15864 O 2800.45 6.87667 -5.41053 0
M  V30 15865 C 2800.94 4.52537 -5.39283 0
M  V30 15866 C 2800.23 4.20027 -4.08623 0
M  V30 15867 N 2800.28 2.76189 -3.71603 0
M  V30 15868 H 2797.44 4.797 -7.24003 0
M  V30 15869 H 2797.17 3.69856 -5.84513 0
M  V30 15870 H 2798.04 6.10356 -5.41441 0
M  V30 15871 P 2802 7.20834 -5.23717 0
M  V30 15872 O 2802.22 8.66104 -5.38572 0
M  V30 15873 O 2802.79 6.33544 -6.1349 0
M  V30 15874 O 2802.25 6.7751 -3.72168 0
M  V30 15875 C 2801.31 7.20825 -2.7076 0
M  V30 15876 C 2802.04 7.45864 -1.40599 0
M  V30 15877 O 2802.25 6.17651 -0.734225 0
M  V30 15878 C 2803.44 8.05808 -1.51899 0
M  V30 15879 O 2803.83 8.74358 -0.335205 0
M  V30 15880 C 2804.32 6.83093 -1.70294 0
M  V30 15881 C 2803.61 5.79992 -0.836974 0
M  V30 15882 N 2803.66 4.41864 -1.38293 0
M  V30 15883 H 2800.82 8.13644 -3.0377 0
M  V30 15884 H 2800.55 6.42788 -2.55485 0
M  V30 15885 H 2801.42 8.12039 -0.792769 0
M  V30 15886 P 2805.38 8.91 -8.27998e-11 0
M  V30 15887 O 2805.6 10.1736 0.733766 0
M  V30 15888 O 2806.17 8.73247 -1.2395 0
M  V30 15889 O 2805.63 7.66872 0.971405 0
M  V30 15890 C 2804.69 7.42212 2.04614 0
M  V30 15891 C 2805.42 6.86059 3.24661 0
M  V30 15892 O 2805.63 5.42847 3.03646 0
M  V30 15893 C 2806.82 7.41196 3.50753 0
M  V30 15894 O 2807.21 7.27073 4.86816 0
M  V30 15895 C 2807.7 6.5273 2.63741 0
M  V30 15896 C 2806.99 5.1842 2.73198 0
M  V30 15897 N 2807.04 4.38668 1.47808 0
M  V30 15898 C 2807.19 3.02239 1.60048 0
M  V30 15899 O 2807.28 2.46459 2.67869 0
M  V30 15900 N 2807.23 2.32436 0.408571 0
M  V30 15901 C 2807.14 2.85471 -0.854993 0
M  V30 15902 C 2806.99 4.28918 -0.887335 0
M  V30 15903 C 2806.94 5.00349 0.255399 0
M  V30 15904 H 2804.2 8.36803 2.32493 0
M  V30 15905 H 2803.93 6.701 1.71105 0
M  V30 15906 H 2804.8 7.03551 4.13168 0
M  V30 15907 H 2807.46 4.59773 3.53894 0
M  V30 15908 H 2807.74 6.88995 1.59871 0
M  V30 15909 H 2808.73 6.46749 3.03687 0
M  V30 15910 H 2806.89 8.46908 3.20714 0
M  V30 15911 H 2806.82 6.08548 0.206986 0
M  V30 15912 P 2808.76 7.20834 5.23717 0
M  V30 15913 O 2808.98 7.79853 6.57286 0
M  V30 15914 O 2809.55 7.79239 4.12957 0
M  V30 15915 O 2809.01 5.63315 5.29344 0
M  V30 15916 C 2808.07 4.80255 6.01876 0
M  V30 15917 C 2808.8 3.64202 6.65911 0
M  V30 15918 O 2809.01 2.60694 5.64732 0
M  V30 15919 C 2810.2 3.93473 7.1943 0
M  V30 15920 O 2810.59 3.02071 8.21205 0
M  V30 15921 C 2811.08 3.73047 5.97036 0
M  V30 15922 C 2810.37 2.58828 5.25741 0
M  V30 15923 N 2810.42 2.68068 3.77503 0
M  V30 15924 H 2807.58 5.40332 6.79951 0
M  V30 15925 H 2807.31 4.41613 5.32378 0
M  V30 15926 H 2808.18 3.26331 7.47797 0
M  V30 15927 P 2812.14 2.75334 8.47391 0
M  V30 15928 O 2812.36 2.44571 9.90142 0
M  V30 15929 O 2812.93 3.87688 7.92115 0
M  V30 15930 O 2812.39 1.4459 7.59357 0
M  V30 15931 C 2811.45 0.347608 7.69215 0
M  V30 15932 C 2812.18 -0.96767 7.52806 0
M  V30 15933 O 2812.39 -1.21036 6.1011 0
M  V30 15934 C 2813.58 -1.04544 8.13308 0
M  V30 15935 O 2813.97 -2.38311 8.41922 0
M  V30 15936 C 2814.46 -0.491279 7.02284 0
M  V30 15937 C 2813.75 -0.996264 5.77469 0
M  V30 15938 N 2813.8 -0.0501916 4.62973 0
M  V30 15939 H 2810.96 0.374722 8.67691 0
M  V30 15940 H 2810.69 0.443485 6.90277 0
M  V30 15941 H 2811.56 -1.75537 7.96793 0
M  V30 15942 P 2815.52 -2.75334 8.47391 0
M  V30 15943 O 2815.74 -3.84128 9.44797 0
M  V30 15944 O 2816.31 -1.51947 8.68712 0
M  V30 15945 O 2815.77 -3.29363 6.99321 0
M  V30 15946 C 2814.83 -4.24011 6.4274 0
M  V30 15947 C 2815.56 -5.20775 5.52155 0
M  V30 15948 O 2815.77 -4.56534 4.22446 0
M  V30 15949 C 2816.96 -5.62629 5.96531 0
M  V30 15950 O 2817.35 -6.87667 5.41053 0
M  V30 15951 C 2817.84 -4.52537 5.39283 0
M  V30 15952 C 2817.13 -4.20027 4.08623 0
M  V30 15953 N 2817.18 -2.76189 3.71603 0
M  V30 15954 H 2814.34 -4.797 7.24003 0
M  V30 15955 H 2814.07 -3.69856 5.84513 0
M  V30 15956 H 2814.94 -6.10356 5.41441 0
M  V30 15957 P 2818.9 -7.20834 5.23717 0
M  V30 15958 O 2819.12 -8.66104 5.38572 0
M  V30 15959 O 2819.69 -6.33544 6.1349 0
M  V30 15960 O 2819.15 -6.7751 3.72168 0
M  V30 15961 C 2818.21 -7.20825 2.7076 0
M  V30 15962 C 2818.94 -7.45864 1.40599 0
M  V30 15963 O 2819.15 -6.17651 0.734225 0
M  V30 15964 C 2820.34 -8.05808 1.51899 0
M  V30 15965 O 2820.73 -8.74358 0.335205 0
M  V30 15966 C 2821.22 -6.83093 1.70294 0
M  V30 15967 C 2820.51 -5.79992 0.836974 0
M  V30 15968 N 2820.56 -4.41864 1.38293 0
M  V30 15969 H 2817.72 -8.13644 3.0377 0
M  V30 15970 H 2817.45 -6.42788 2.55485 0
M  V30 15971 H 2818.32 -8.12039 0.792769 0
M  V30 15972 P 2822.28 -8.91 8.39088e-11 0
M  V30 15973 O 2822.5 -10.1726 -0.733694 0
M  V30 15974 O 2823.07 -8.73148 1.23936 0
M  V30 15975 O 2822.53 -7.66872 -0.971405 0
M  V30 15976 C 2821.59 -7.42309 -2.04641 0
M  V30 15977 C 2822.32 -6.86059 -3.24661 0
M  V30 15978 O 2822.53 -5.42847 -3.03646 0
M  V30 15979 C 2823.72 -7.41196 -3.50753 0
M  V30 15980 O 2824.11 -7.27073 -4.86816 0
M  V30 15981 C 2824.6 -6.5273 -2.63741 0
M  V30 15982 C 2823.89 -5.1842 -2.73198 0
M  V30 15983 N 2823.94 -4.38762 -1.4784 0
M  V30 15984 C 2823.86 -4.81605 -0.168631 0
M  V30 15985 N 2823.94 -3.85454 0.713363 0
M  V30 15986 C 2824.08 -2.6994 -0.0566958 0
M  V30 15987 C 2824.21 -1.34815 0.338502 0
M  V30 15988 N 2824.33 -0.496304 -0.77465 0
M  V30 15989 C 2824.33 -0.908403 -2.09122 0
M  V30 15990 N 2824.46 0.0517805 -3.00955 0
M  V30 15991 N 2824.2 -2.17875 -2.46519 0
M  V30 15992 C 2824.08 -3.01988 -1.4033 0
M  V30 15993 H 2821.1 -8.36803 -2.32493 0
M  V30 15994 H 2820.83 -6.70197 -1.71129 0
M  V30 15995 H 2821.7 -7.03551 -4.13168 0
M  V30 15996 P 2825.66 -7.20834 -5.23717 0
M  V30 15997 O 2825.88 -7.79853 -6.57286 0
M  V30 15998 O 2826.45 -7.79239 -4.12957 0
M  V30 15999 O 2825.91 -5.63315 -5.29344 0
M  V30 16000 C 2824.97 -4.80255 -6.01876 0
M  V30 16001 C 2825.7 -3.64202 -6.65911 0
M  V30 16002 O 2825.91 -2.60694 -5.64732 0
M  V30 16003 C 2827.1 -3.93473 -7.1943 0
M  V30 16004 O 2827.49 -3.02071 -8.21205 0
M  V30 16005 C 2827.98 -3.73047 -5.97036 0
M  V30 16006 C 2827.27 -2.58828 -5.25741 0
M  V30 16007 N 2827.32 -2.68068 -3.77503 0
M  V30 16008 H 2824.48 -5.40332 -6.79951 0
M  V30 16009 H 2824.21 -4.41613 -5.32378 0
M  V30 16010 H 2825.08 -3.26331 -7.47797 0
M  V30 16011 P 2829.04 -2.75334 -8.47391 0
M  V30 16012 O 2829.26 -2.44571 -9.90142 0
M  V30 16013 O 2829.83 -3.87688 -7.92115 0
M  V30 16014 O 2829.29 -1.4459 -7.59357 0
M  V30 16015 C 2828.35 -0.347608 -7.69215 0
M  V30 16016 C 2829.08 0.96767 -7.52806 0
M  V30 16017 O 2829.29 1.21036 -6.1011 0
M  V30 16018 C 2830.48 1.04544 -8.13308 0
M  V30 16019 O 2830.87 2.38311 -8.41922 0
M  V30 16020 C 2831.36 0.491279 -7.02284 0
M  V30 16021 C 2830.65 0.996264 -5.77469 0
M  V30 16022 N 2830.7 0.0501916 -4.62973 0
M  V30 16023 C 2830.62 -1.32786 -4.63244 0
M  V30 16024 N 2830.7 -1.86957 -3.44545 0
M  V30 16025 C 2830.84 -0.780241 -2.58481 0
M  V30 16026 C 2830.97 -0.738536 -1.17757 0
M  V30 16027 O 2830.99 -1.66794 -0.372349 0
M  V30 16028 N 2831.09 0.58337 -0.711393 0
M  V30 16029 C 2831.09 1.70816 -1.51017 0
M  V30 16030 N 2831.22 2.87826 -0.880757 0
M  V30 16031 N 2830.96 1.67126 -2.8339 0
M  V30 16032 C 2830.84 0.401421 -3.30572 0
M  V30 16033 H 2827.86 -0.374722 -8.67691 0
M  V30 16034 H 2827.59 -0.443485 -6.90277 0
M  V30 16035 H 2828.46 1.75537 -7.96793 0
M  V30 16036 H 2831.12 1.95076 -5.46529 0
M  V30 16037 H 2831.4 -0.608565 -7.04577 0
M  V30 16038 H 2832.39 0.889672 -7.08939 0
M  V30 16039 H 2830.55 0.43308 -9.04564 0
M  V30 16040 H 2830.5 -1.91249 -5.54442 0
M  V30 16041 H 2831.19 0.718054 0.275244 0
M  V30 16042 H 2831.22 3.75721 -1.41832 0
M  V30 16043 H 2831.32 2.90436 0.145468 0
M  V30 16044 P 2832.42 2.75334 -8.47391 0
M  V30 16045 O 2832.64 3.84128 -9.44797 0
M  V30 16046 O 2833.21 1.51947 -8.68712 0
M  V30 16047 O 2832.67 3.29363 -6.99321 0
M  V30 16048 C 2831.73 4.24011 -6.4274 0
M  V30 16049 C 2832.46 5.20775 -5.52155 0
M  V30 16050 O 2832.67 4.56534 -4.22446 0
M  V30 16051 C 2833.86 5.62629 -5.96531 0
M  V30 16052 O 2834.25 6.87667 -5.41053 0
M  V30 16053 C 2834.74 4.52537 -5.39283 0
M  V30 16054 C 2834.03 4.20027 -4.08623 0
M  V30 16055 N 2834.08 2.76189 -3.71603 0
M  V30 16056 H 2831.24 4.797 -7.24003 0
M  V30 16057 H 2830.97 3.69856 -5.84513 0
M  V30 16058 H 2831.84 6.10356 -5.41441 0
M  V30 16059 P 2835.8 7.20834 -5.23717 0
M  V30 16060 O 2836.02 8.66104 -5.38572 0
M  V30 16061 O 2836.59 6.33544 -6.1349 0
M  V30 16062 O 2836.05 6.7751 -3.72168 0
M  V30 16063 C 2835.11 7.20825 -2.7076 0
M  V30 16064 C 2835.84 7.45864 -1.40599 0
M  V30 16065 O 2836.05 6.17651 -0.734225 0
M  V30 16066 C 2837.24 8.05808 -1.51899 0
M  V30 16067 O 2837.63 8.74358 -0.335205 0
M  V30 16068 C 2838.12 6.83093 -1.70294 0
M  V30 16069 C 2837.41 5.79992 -0.836974 0
M  V30 16070 N 2837.46 4.41864 -1.38293 0
M  V30 16071 H 2834.62 8.13644 -3.0377 0
M  V30 16072 H 2834.35 6.42788 -2.55485 0
M  V30 16073 H 2835.22 8.12039 -0.792769 0
M  V30 16074 P 2839.18 8.91 -8.50179e-11 0
M  V30 16075 O 2839.4 10.1726 0.733694 0
M  V30 16076 O 2839.97 8.73148 -1.23936 0
M  V30 16077 O 2839.43 7.66872 0.971405 0
M  V30 16078 C 2838.49 7.42309 2.04641 0
M  V30 16079 C 2839.22 6.86059 3.24661 0
M  V30 16080 O 2839.43 5.42847 3.03646 0
M  V30 16081 C 2840.62 7.41196 3.50753 0
M  V30 16082 O 2841.01 7.27073 4.86816 0
M  V30 16083 C 2841.5 6.5273 2.63741 0
M  V30 16084 C 2840.79 5.1842 2.73198 0
M  V30 16085 N 2840.84 4.38762 1.4784 0
M  V30 16086 H 2838 8.36803 2.32493 0
M  V30 16087 H 2837.73 6.70197 1.71129 0
M  V30 16088 H 2838.6 7.03551 4.13168 0
M  V30 16089 P 2842.56 7.20834 5.23717 0
M  V30 16090 O 2842.78 7.79853 6.57286 0
M  V30 16091 O 2843.35 7.79239 4.12957 0
M  V30 16092 O 2842.81 5.63315 5.29344 0
M  V30 16093 C 2841.87 4.80255 6.01876 0
M  V30 16094 C 2842.6 3.64202 6.65911 0
M  V30 16095 O 2842.81 2.60694 5.64732 0
M  V30 16096 C 2844 3.93473 7.1943 0
M  V30 16097 O 2844.39 3.02071 8.21205 0
M  V30 16098 C 2844.88 3.73047 5.97036 0
M  V30 16099 C 2844.17 2.58828 5.25741 0
M  V30 16100 N 2844.22 2.68068 3.77503 0
M  V30 16101 C 2844.14 3.79715 2.96723 0
M  V30 16102 N 2844.22 3.5377 1.68852 0
M  V30 16103 C 2844.36 2.15054 1.63254 0
M  V30 16104 C 2844.49 1.28964 0.518571 0
M  V30 16105 O 2844.51 1.56826 -0.679156 0
M  V30 16106 N 2844.61 -0.0538097 0.918425 0
M  V30 16107 C 2844.61 -0.494275 2.22578 0
M  V30 16108 N 2844.74 -1.81086 2.40434 0
M  V30 16109 N 2844.48 0.313645 3.27502 0
M  V30 16110 C 2844.36 1.61829 2.91033 0
M  V30 16111 H 2841.38 5.40332 6.79951 0
M  V30 16112 H 2841.11 4.41613 5.32378 0
M  V30 16113 H 2841.98 3.26331 7.47797 0
M  V30 16114 H 2844.64 1.63422 5.56814 0
M  V30 16115 H 2844.92 4.63374 5.34244 0
M  V30 16116 H 2845.91 3.44728 6.25838 0
M  V30 16117 H 2844.07 4.96652 7.57263 0
M  V30 16118 H 2844.02 4.80617 3.3614 0
M  V30 16119 H 2844.71 -0.742702 0.199384 0
M  V30 16120 H 2844.74 -2.20598 3.35588 0
M  V30 16121 H 2844.84 -2.43518 1.58945 0
M  V30 16122 P 2845.94 2.75334 8.47391 0
M  V30 16123 O 2846.16 2.44571 9.90142 0
M  V30 16124 O 2846.73 3.87688 7.92115 0
M  V30 16125 O 2846.19 1.4459 7.59357 0
M  V30 16126 C 2845.25 0.347608 7.69215 0
M  V30 16127 C 2845.98 -0.96767 7.52806 0
M  V30 16128 O 2846.19 -1.21036 6.1011 0
M  V30 16129 C 2847.38 -1.04544 8.13308 0
M  V30 16130 O 2847.77 -2.38311 8.41922 0
M  V30 16131 C 2848.26 -0.491279 7.02284 0
M  V30 16132 C 2847.55 -0.996264 5.77469 0
M  V30 16133 N 2847.6 -0.0501916 4.62973 0
M  V30 16134 H 2844.76 0.374722 8.67691 0
M  V30 16135 H 2844.49 0.443485 6.90277 0
M  V30 16136 H 2845.36 -1.75537 7.96793 0
M  V30 16137 P 2849.32 -2.75334 8.47391 0
M  V30 16138 O 2849.54 -3.84128 9.44797 0
M  V30 16139 O 2850.11 -1.51947 8.68712 0
M  V30 16140 O 2849.57 -3.29363 6.99321 0
M  V30 16141 C 2848.63 -4.24011 6.4274 0
M  V30 16142 C 2849.36 -5.20775 5.52155 0
M  V30 16143 O 2849.57 -4.56534 4.22446 0
M  V30 16144 C 2850.76 -5.62629 5.96531 0
M  V30 16145 O 2851.15 -6.87667 5.41053 0
M  V30 16146 C 2851.64 -4.52537 5.39283 0
M  V30 16147 C 2850.93 -4.20027 4.08623 0
M  V30 16148 N 2850.98 -2.76189 3.71603 0
M  V30 16149 H 2848.14 -4.797 7.24003 0
M  V30 16150 H 2847.87 -3.69856 5.84513 0
M  V30 16151 H 2848.74 -6.10356 5.41441 0
M  V30 16152 P 2852.7 -7.20834 5.23717 0
M  V30 16153 O 2852.92 -8.66189 5.38625 0
M  V30 16154 O 2853.49 -6.33615 6.1356 0
M  V30 16155 O 2852.95 -6.7751 3.72168 0
M  V30 16156 C 2852.01 -7.20825 2.7076 0
M  V30 16157 C 2852.74 -7.45864 1.40599 0
M  V30 16158 O 2852.95 -6.17651 0.734225 0
M  V30 16159 C 2854.14 -8.05808 1.51899 0
M  V30 16160 O 2854.53 -8.74358 0.335205 0
M  V30 16161 C 2855.02 -6.83093 1.70294 0
M  V30 16162 C 2854.31 -5.79992 0.836974 0
M  V30 16163 N 2854.36 -4.41769 1.38263 0
M  V30 16164 C 2854.51 -3.36514 0.485617 0
M  V30 16165 O 2854.6 -3.61814 -0.724703 0
M  V30 16166 N 2854.56 -2.00746 1.14492 0
M  V30 16167 C 2854.46 -1.85887 2.27776 0
M  V30 16168 N 2854.51 -0.600907 2.69379 0
M  V30 16169 C 2854.31 -2.92182 3.22265 0
M  V30 16170 C 2854.26 -4.18399 2.71925 0
M  V30 16171 H 2851.52 -8.1355 3.03735 0
M  V30 16172 H 2851.25 -6.42695 2.55448 0
M  V30 16173 H 2852.12 -8.12139 0.792866 0
M  V30 16174 H 2854.78 -5.80078 -0.160615 0
M  V30 16175 H 2855.06 -6.51379 2.75643 0
M  V30 16176 H 2856.05 -7.01734 1.34462 0
M  V30 16177 H 2854.21 -8.73674 2.38337 0
M  V30 16178 H 2854.14 -5.02669 3.39718 0
M  V30 16179 H 2854.24 -2.73001 4.29239 0
M  V30 16180 H 2854.63 0.162318 2.01146 0
M  V30 16181 H 2854.43 -0.387742 3.69773 0
M  V30 16182 P 2856.08 -8.91 8.61269e-11 0
M  V30 16183 O 2856.3 -10.1726 -0.733694 0
M  V30 16184 O 2856.87 -8.73148 1.23936 0
M  V30 16185 O 2856.33 -7.66872 -0.971405 0
M  V30 16186 C 2855.39 -7.42309 -2.04641 0
M  V30 16187 C 2856.12 -6.86059 -3.24661 0
M  V30 16188 O 2856.33 -5.42847 -3.03646 0
M  V30 16189 C 2857.52 -7.41196 -3.50753 0
M  V30 16190 O 2857.91 -7.27073 -4.86816 0
M  V30 16191 C 2858.4 -6.5273 -2.63741 0
M  V30 16192 C 2857.69 -5.1842 -2.73198 0
M  V30 16193 N 2857.74 -4.38762 -1.4784 0
M  V30 16194 H 2854.9 -8.36803 -2.32493 0
M  V30 16195 H 2854.63 -6.70197 -1.71129 0
M  V30 16196 H 2855.5 -7.03551 -4.13168 0
M  V30 16197 P 2859.46 -7.20834 -5.23717 0
M  V30 16198 O 2859.68 -7.80006 -6.57415 0
M  V30 16199 O 2860.25 -7.79416 -4.13051 0
M  V30 16200 O 2859.71 -5.63315 -5.29344 0
M  V30 16201 C 2858.77 -4.80318 -6.01954 0
M  V30 16202 C 2859.5 -3.64202 -6.65911 0
M  V30 16203 O 2859.71 -2.60736 -5.64823 0
M  V30 16204 C 2860.9 -3.93521 -7.19518 0
M  V30 16205 O 2861.29 -3.02071 -8.21205 0
M  V30 16206 C 2861.78 -3.73047 -5.97036 0
M  V30 16207 C 2861.07 -2.58828 -5.25741 0
M  V30 16208 N 2861.12 -2.68068 -3.77503 0
M  V30 16209 C 2861.04 -3.80474 -2.99159 0
M  V30 16210 N 2861.11 -3.55622 -1.71925 0
M  V30 16211 C 2861.26 -2.1832 -1.65733 0
M  V30 16212 C 2861.39 -1.28842 -0.572777 0
M  V30 16213 N 2861.4 -1.66875 0.70098 0
M  V30 16214 N 2861.51 0.016788 -0.859836 0
M  V30 16215 C 2861.5 0.398145 -2.13316 0
M  V30 16216 N 2861.38 -0.328224 -3.22333 0
M  V30 16217 C 2861.26 -1.62992 -2.90383 0
M  V30 16218 H 2858.29 -5.40394 -6.8003 0
M  V30 16219 H 2858.01 -4.41741 -5.32532 0
M  V30 16220 H 2858.88 -3.26371 -7.47889 0
M  V30 16221 H 2861.54 -1.64007 -5.56746 0
M  V30 16222 H 2861.82 -4.63439 -5.3432 0
M  V30 16223 H 2862.81 -3.44776 -6.25925 0
M  V30 16224 H 2860.97 -4.96707 -7.57347 0
M  V30 16225 H 2860.93 -4.8089 -3.39924 0
M  V30 16226 H 2861.31 -2.66547 0.941919 0
M  V30 16227 H 2861.5 -0.965341 1.44766 0
M  V30 16228 H 2861.61 1.46427 -2.29697 0
M  V30 16229 P 2862.84 -2.75334 -8.47391 0
M  V30 16230 O 2863.06 -2.44619 -9.90336 0
M  V30 16231 O 2863.63 -3.87776 -7.92294 0
M  V30 16232 O 2863.09 -1.4459 -7.59357 0
M  V30 16233 C 2862.15 -0.347653 -7.69315 0
M  V30 16234 C 2862.88 0.96767 -7.52806 0
M  V30 16235 O 2863.09 1.21055 -6.10208 0
M  V30 16236 C 2864.28 1.04557 -8.13408 0
M  V30 16237 O 2864.67 2.38311 -8.41922 0
M  V30 16238 C 2865.16 0.491279 -7.02284 0
M  V30 16239 C 2864.45 0.996264 -5.77469 0
M  V30 16240 N 2864.5 0.0501916 -4.62973 0
M  V30 16241 H 2861.67 -0.374765 -8.67791 0
M  V30 16242 H 2861.39 -0.443613 -6.90476 0
M  V30 16243 H 2862.26 1.75559 -7.96891 0
M  V30 16244 H 2864.92 1.94563 -5.46818 0
M  V30 16245 H 2865.2 -0.608651 -7.04676 0
M  V30 16246 H 2866.19 0.889796 -7.09039 0
M  V30 16247 H 2864.35 0.433128 -9.04664 0
M  V30 16248 P 2866.22 2.75334 -8.47391 0
M  V30 16249 O 2866.44 3.84128 -9.44797 0
M  V30 16250 O 2867.01 1.51947 -8.68712 0
M  V30 16251 O 2866.47 3.29363 -6.99321 0
M  V30 16252 C 2865.53 4.24011 -6.4274 0
M  V30 16253 C 2866.26 5.20775 -5.52155 0
M  V30 16254 O 2866.47 4.56534 -4.22446 0
M  V30 16255 C 2867.66 5.62629 -5.96531 0
M  V30 16256 O 2868.05 6.87667 -5.41053 0
M  V30 16257 C 2868.54 4.52537 -5.39283 0
M  V30 16258 C 2867.83 4.20027 -4.08623 0
M  V30 16259 N 2867.88 2.76189 -3.71603 0
M  V30 16260 H 2865.04 4.797 -7.24003 0
M  V30 16261 H 2864.77 3.69856 -5.84513 0
M  V30 16262 H 2865.64 6.10356 -5.41441 0
M  V30 16263 P 2869.6 7.20834 -5.23717 0
M  V30 16264 O 2869.82 8.66104 -5.38572 0
M  V30 16265 O 2870.39 6.33544 -6.1349 0
M  V30 16266 O 2869.85 6.7751 -3.72168 0
M  V30 16267 C 2868.91 7.20825 -2.7076 0
M  V30 16268 C 2869.64 7.45864 -1.40599 0
M  V30 16269 O 2869.85 6.17651 -0.734225 0
M  V30 16270 C 2871.04 8.05808 -1.51899 0
M  V30 16271 O 2871.43 8.74358 -0.335205 0
M  V30 16272 C 2871.92 6.83093 -1.70294 0
M  V30 16273 C 2871.21 5.79992 -0.836974 0
M  V30 16274 N 2871.26 4.41864 -1.38293 0
M  V30 16275 H 2868.42 8.13644 -3.0377 0
M  V30 16276 H 2868.15 6.42788 -2.55485 0
M  V30 16277 H 2869.02 8.12039 -0.792769 0
M  V30 16278 P 2872.98 8.91 -8.72359e-11 0
M  V30 16279 O 2873.2 10.1726 0.733694 0
M  V30 16280 O 2873.77 8.73148 -1.23936 0
M  V30 16281 O 2873.23 7.66872 0.971405 0
M  V30 16282 C 2872.29 7.42309 2.04641 0
M  V30 16283 C 2873.02 6.86059 3.24661 0
M  V30 16284 O 2873.23 5.42847 3.03646 0
M  V30 16285 C 2874.42 7.41196 3.50753 0
M  V30 16286 O 2874.81 7.27073 4.86816 0
M  V30 16287 C 2875.3 6.5273 2.63741 0
M  V30 16288 C 2874.59 5.1842 2.73198 0
M  V30 16289 N 2874.64 4.38762 1.4784 0
M  V30 16290 C 2874.56 4.81605 0.168631 0
M  V30 16291 N 2874.64 3.85454 -0.713363 0
M  V30 16292 C 2874.78 2.6994 0.0566958 0
M  V30 16293 C 2874.91 1.34815 -0.338502 0
M  V30 16294 O 2874.93 0.869548 -1.47125 0
M  V30 16295 N 2875.03 0.496304 0.77465 0
M  V30 16296 C 2875.03 0.908403 2.09122 0
M  V30 16297 N 2875.16 -0.0517805 3.00955 0
M  V30 16298 N 2874.9 2.17875 2.46519 0
M  V30 16299 C 2874.78 3.01988 1.4033 0
M  V30 16300 H 2871.8 8.36803 2.32493 0
M  V30 16301 H 2871.53 6.70197 1.71129 0
M  V30 16302 H 2872.4 7.03551 4.13168 0
M  V30 16303 H 2875.06 4.59498 3.54415 0
M  V30 16304 H 2875.34 6.88898 1.59848 0
M  V30 16305 H 2876.33 6.46749 3.03687 0
M  V30 16306 H 2874.49 8.46908 3.20714 0
M  V30 16307 H 2874.44 5.86405 -0.105564 0
M  V30 16308 H 2875.13 -0.483664 0.597855 0
M  V30 16309 H 2875.16 0.187865 4.0116 0
M  V30 16310 H 2875.26 -1.03585 2.71726 0
M  V30 16311 P 2876.36 7.20834 5.23717 0
M  V30 16312 O 2876.58 7.7993 6.57351 0
M  V30 16313 O 2877.15 7.79328 4.13004 0
M  V30 16314 O 2876.61 5.63315 5.29344 0
M  V30 16315 C 2875.67 4.80193 6.01798 0
M  V30 16316 C 2876.4 3.64202 6.65911 0
M  V30 16317 O 2876.61 2.60694 5.64732 0
M  V30 16318 C 2877.8 3.93473 7.1943 0
M  V30 16319 O 2878.19 3.02071 8.21205 0
M  V30 16320 C 2878.68 3.73047 5.97036 0
M  V30 16321 C 2877.97 2.58828 5.25741 0
M  V30 16322 N 2878.02 2.6801 3.77422 0
M  V30 16323 C 2878.17 1.50443 3.07133 0
M  V30 16324 O 2878.26 0.419406 3.61576 0
M  V30 16325 N 2878.21 1.6403 1.69677 0
M  V30 16326 C 2878.12 2.81206 0.986255 0
M  V30 16327 O 2878.17 2.80892 -0.249754 0
M  V30 16328 C 2877.97 3.99158 1.80325 0
M  V30 16329 C 2877.86 5.29309 1.06921 0
M  V30 16330 C 2877.92 3.89779 3.1476 0
M  V30 16331 H 2875.18 5.40332 6.79951 0
M  V30 16332 H 2874.91 4.41549 5.32301 0
M  V30 16333 H 2875.78 3.26331 7.47797 0
M  V30 16334 H 2878.44 1.6395 5.56554 0
M  V30 16335 H 2878.71 4.63439 5.3432 0
M  V30 16336 H 2879.71 3.44728 6.25838 0
M  V30 16337 H 2877.87 4.96652 7.57263 0
M  V30 16338 H 2877.8 4.80159 3.74441 0
M  V30 16339 H 2878.83 5.81459 1.09608 0
M  V30 16340 H 2877.09 5.9187 1.54487 0
M  V30 16341 H 2877.58 5.10095 0.0220288 0
M  V30 16342 H 2878.32 0.798962 1.16664 0
M  V30 16343 P 2879.74 2.75334 8.47391 0
M  V30 16344 O 2879.96 2.44571 9.90142 0
M  V30 16345 O 2880.53 3.87688 7.92115 0
M  V30 16346 O 2879.99 1.4459 7.59357 0
M  V30 16347 C 2879.05 0.347608 7.69215 0
M  V30 16348 C 2879.78 -0.96767 7.52806 0
M  V30 16349 O 2879.99 -1.21036 6.1011 0
M  V30 16350 C 2881.18 -1.04544 8.13308 0
M  V30 16351 O 2881.57 -2.38311 8.41922 0
M  V30 16352 C 2882.06 -0.491279 7.02284 0
M  V30 16353 C 2881.35 -0.996264 5.77469 0
M  V30 16354 N 2881.4 -0.0501916 4.62973 0
M  V30 16355 H 2878.56 0.374722 8.67691 0
M  V30 16356 H 2878.29 0.443485 6.90277 0
M  V30 16357 H 2879.16 -1.75537 7.96793 0
M  V30 16358 P 2883.12 -2.75334 8.47391 0
M  V30 16359 O 2883.34 -3.84128 9.44797 0
M  V30 16360 O 2883.91 -1.51947 8.68712 0
M  V30 16361 O 2883.37 -3.29363 6.99321 0
M  V30 16362 C 2882.43 -4.24011 6.4274 0
M  V30 16363 C 2883.16 -5.20775 5.52155 0
M  V30 16364 O 2883.37 -4.56534 4.22446 0
M  V30 16365 C 2884.56 -5.62629 5.96531 0
M  V30 16366 O 2884.95 -6.87667 5.41053 0
M  V30 16367 C 2885.44 -4.52537 5.39283 0
M  V30 16368 C 2884.73 -4.20027 4.08623 0
M  V30 16369 N 2884.78 -2.76189 3.71603 0
M  V30 16370 H 2881.94 -4.797 7.24003 0
M  V30 16371 H 2881.67 -3.69856 5.84513 0
M  V30 16372 H 2882.54 -6.10356 5.41441 0
M  V30 16373 P 2886.5 -7.20834 5.23717 0
M  V30 16374 O 2886.72 -8.66189 5.38625 0
M  V30 16375 O 2887.29 -6.33615 6.1356 0
M  V30 16376 O 2886.75 -6.7751 3.72168 0
M  V30 16377 C 2885.81 -7.20732 2.70725 0
M  V30 16378 C 2886.54 -7.45864 1.40599 0
M  V30 16379 O 2886.75 -6.17651 0.734225 0
M  V30 16380 C 2887.94 -8.05808 1.51899 0
M  V30 16381 O 2888.33 -8.74358 0.335205 0
M  V30 16382 C 2888.82 -6.83093 1.70294 0
M  V30 16383 C 2888.11 -5.79992 0.836974 0
M  V30 16384 N 2888.16 -4.41769 1.38263 0
M  V30 16385 C 2888.31 -3.38591 0.481702 0
M  V30 16386 O 2888.4 -3.56839 -0.718452 0
M  V30 16387 N 2888.35 -2.1206 1.03569 0
M  V30 16388 C 2888.26 -1.80696 2.36966 0
M  V30 16389 O 2888.31 -0.630473 2.74862 0
M  V30 16390 C 2888.11 -2.94845 3.23898 0
M  V30 16391 C 2888 -2.65253 4.70362 0
M  V30 16392 C 2888.06 -4.19803 2.73435 0
M  V30 16393 H 2885.32 -8.13644 3.0377 0
M  V30 16394 H 2885.05 -6.42695 2.55448 0
M  V30 16395 H 2885.92 -8.12039 0.792769 0
M  V30 16396 H 2888.58 -5.79978 -0.160587 0
M  V30 16397 H 2888.85 -6.51379 2.75643 0
M  V30 16398 H 2889.85 -7.01734 1.34462 0
M  V30 16399 H 2888.01 -8.73674 2.38337 0
M  V30 16400 H 2887.94 -5.04492 3.4095 0
M  V30 16401 H 2888.97 -2.83924 5.1913 0
M  V30 16402 H 2887.23 -3.29824 5.15163 0
M  V30 16403 H 2887.72 -1.59723 4.84449 0
M  V30 16404 H 2888.46 -1.35644 0.399345 0
M  V30 16405 P 2889.88 -8.91 8.83449e-11 0
M  V30 16406 O 2890.1 -10.1726 -0.733694 0
M  V30 16407 O 2890.67 -8.73148 1.23936 0
M  V30 16408 O 2890.13 -7.66872 -0.971405 0
M  V30 16409 C 2889.19 -7.42309 -2.04641 0
M  V30 16410 C 2889.92 -6.86059 -3.24661 0
M  V30 16411 O 2890.13 -5.42847 -3.03646 0
M  V30 16412 C 2891.32 -7.41196 -3.50753 0
M  V30 16413 O 2891.71 -7.27073 -4.86816 0
M  V30 16414 C 2892.2 -6.5273 -2.63741 0
M  V30 16415 C 2891.49 -5.1842 -2.73198 0
M  V30 16416 N 2891.54 -4.38762 -1.4784 0
M  V30 16417 H 2888.7 -8.36803 -2.32493 0
M  V30 16418 H 2888.43 -6.70197 -1.71129 0
M  V30 16419 H 2889.3 -7.03551 -4.13168 0
M  V30 16420 P 2893.26 -7.20834 -5.23717 0
M  V30 16421 O 2893.48 -7.79853 -6.57286 0
M  V30 16422 O 2894.05 -7.79239 -4.12957 0
M  V30 16423 O 2893.51 -5.63315 -5.29344 0
M  V30 16424 C 2892.57 -4.80255 -6.01876 0
M  V30 16425 C 2893.3 -3.64202 -6.65911 0
M  V30 16426 O 2893.51 -2.60694 -5.64732 0
M  V30 16427 C 2894.7 -3.93473 -7.1943 0
M  V30 16428 O 2895.09 -3.02071 -8.21205 0
M  V30 16429 C 2895.58 -3.73047 -5.97036 0
M  V30 16430 C 2894.87 -2.58828 -5.25741 0
M  V30 16431 N 2894.92 -2.68068 -3.77503 0
M  V30 16432 H 2892.08 -5.40332 -6.79951 0
M  V30 16433 H 2891.81 -4.41613 -5.32378 0
M  V30 16434 H 2892.68 -3.26331 -7.47797 0
M  V30 16435 P 2896.64 -2.75334 -8.47391 0
M  V30 16436 O 2896.86 -2.44571 -9.90142 0
M  V30 16437 O 2897.43 -3.87688 -7.92115 0
M  V30 16438 O 2896.89 -1.4459 -7.59357 0
M  V30 16439 C 2895.95 -0.347608 -7.69215 0
M  V30 16440 C 2896.68 0.96767 -7.52806 0
M  V30 16441 O 2896.89 1.21036 -6.1011 0
M  V30 16442 C 2898.08 1.04544 -8.13308 0
M  V30 16443 O 2898.47 2.38311 -8.41922 0
M  V30 16444 C 2898.96 0.491279 -7.02284 0
M  V30 16445 C 2898.25 0.996264 -5.77469 0
M  V30 16446 N 2898.3 0.0501916 -4.62973 0
M  V30 16447 H 2895.46 -0.374722 -8.67691 0
M  V30 16448 H 2895.19 -0.443485 -6.90277 0
M  V30 16449 H 2896.06 1.75537 -7.96793 0
M  V30 16450 P 2900.02 2.75334 -8.47391 0
M  V30 16451 O 2900.24 3.84128 -9.44797 0
M  V30 16452 O 2900.81 1.51947 -8.68712 0
M  V30 16453 O 2900.27 3.29363 -6.99321 0
M  V30 16454 C 2899.33 4.24011 -6.4274 0
M  V30 16455 C 2900.06 5.20775 -5.52155 0
M  V30 16456 O 2900.27 4.56534 -4.22446 0
M  V30 16457 C 2901.46 5.62629 -5.96531 0
M  V30 16458 O 2901.85 6.87667 -5.41053 0
M  V30 16459 C 2902.34 4.52537 -5.39283 0
M  V30 16460 C 2901.63 4.20027 -4.08623 0
M  V30 16461 N 2901.68 2.76189 -3.71603 0
M  V30 16462 H 2898.84 4.797 -7.24003 0
M  V30 16463 H 2898.57 3.69856 -5.84513 0
M  V30 16464 H 2899.44 6.10356 -5.41441 0
M  V30 16465 P 2903.4 7.20834 -5.23717 0
M  V30 16466 O 2903.62 8.66104 -5.38572 0
M  V30 16467 O 2904.19 6.33544 -6.1349 0
M  V30 16468 O 2903.65 6.7751 -3.72168 0
M  V30 16469 C 2902.71 7.20825 -2.7076 0
M  V30 16470 C 2903.44 7.45864 -1.40599 0
M  V30 16471 O 2903.65 6.17651 -0.734225 0
M  V30 16472 C 2904.84 8.05808 -1.51899 0
M  V30 16473 O 2905.23 8.74358 -0.335205 0
M  V30 16474 C 2905.72 6.83093 -1.70294 0
M  V30 16475 C 2905.01 5.79992 -0.836974 0
M  V30 16476 N 2905.06 4.41864 -1.38293 0
M  V30 16477 H 2902.22 8.13644 -3.0377 0
M  V30 16478 H 2901.95 6.42788 -2.55485 0
M  V30 16479 H 2902.82 8.12039 -0.792769 0
M  V30 16480 P 2906.78 8.91 -8.94539e-11 0
M  V30 16481 O 2907 10.1726 0.733694 0
M  V30 16482 O 2907.57 8.73148 -1.23936 0
M  V30 16483 O 2907.03 7.66872 0.971405 0
M  V30 16484 C 2906.09 7.42309 2.04641 0
M  V30 16485 C 2906.82 6.86059 3.24661 0
M  V30 16486 O 2907.03 5.42847 3.03646 0
M  V30 16487 C 2908.22 7.41196 3.50753 0
M  V30 16488 O 2908.61 7.27073 4.86816 0
M  V30 16489 C 2909.1 6.5273 2.63741 0
M  V30 16490 C 2908.39 5.1842 2.73198 0
M  V30 16491 N 2908.44 4.38762 1.4784 0
M  V30 16492 H 2905.6 8.36803 2.32493 0
M  V30 16493 H 2905.33 6.70197 1.71129 0
M  V30 16494 H 2906.2 7.03551 4.13168 0
M  V30 16495 P 2910.16 7.20834 5.23717 0
M  V30 16496 O 2910.38 7.79853 6.57286 0
M  V30 16497 O 2910.95 7.79239 4.12957 0
M  V30 16498 O 2910.41 5.63315 5.29344 0
M  V30 16499 C 2909.47 4.80255 6.01876 0
M  V30 16500 C 2910.2 3.64202 6.65911 0
M  V30 16501 O 2910.41 2.60694 5.64732 0
M  V30 16502 C 2911.6 3.93473 7.1943 0
M  V30 16503 O 2911.99 3.02071 8.21205 0
M  V30 16504 C 2912.48 3.73047 5.97036 0
M  V30 16505 C 2911.77 2.58828 5.25741 0
M  V30 16506 N 2911.82 2.68068 3.77503 0
M  V30 16507 H 2908.98 5.40332 6.79951 0
M  V30 16508 H 2908.71 4.41613 5.32378 0
M  V30 16509 H 2909.58 3.26331 7.47797 0
M  V30 16510 P 2913.54 2.75334 8.47391 0
M  V30 16511 O 2913.76 2.44571 9.90142 0
M  V30 16512 O 2914.33 3.87688 7.92115 0
M  V30 16513 O 2913.79 1.4459 7.59357 0
M  V30 16514 C 2912.85 0.347608 7.69215 0
M  V30 16515 C 2913.58 -0.96767 7.52806 0
M  V30 16516 O 2913.79 -1.21036 6.1011 0
M  V30 16517 C 2914.98 -1.04544 8.13308 0
M  V30 16518 O 2915.37 -2.38311 8.41922 0
M  V30 16519 C 2915.86 -0.491279 7.02284 0
M  V30 16520 C 2915.15 -0.996264 5.77469 0
M  V30 16521 N 2915.2 -0.0501916 4.62973 0
M  V30 16522 H 2912.36 0.374722 8.67691 0
M  V30 16523 H 2912.09 0.443485 6.90277 0
M  V30 16524 H 2912.96 -1.75537 7.96793 0
M  V30 16525 P 2916.92 -2.75334 8.47391 0
M  V30 16526 O 2917.14 -3.84204 9.44982 0
M  V30 16527 O 2917.71 -1.51982 8.68909 0
M  V30 16528 O 2917.17 -3.29363 6.99321 0
M  V30 16529 C 2916.23 -4.24066 6.42823 0
M  V30 16530 C 2916.96 -5.20775 5.52155 0
M  V30 16531 O 2917.17 -4.56607 4.22514 0
M  V30 16532 C 2918.36 -5.62697 5.96604 0
M  V30 16533 O 2918.75 -6.87667 5.41053 0
M  V30 16534 C 2919.24 -4.52537 5.39283 0
M  V30 16535 C 2918.53 -4.20027 4.08623 0
M  V30 16536 N 2918.58 -2.76189 3.71603 0
M  V30 16537 H 2915.74 -4.79756 7.24086 0
M  V30 16538 H 2915.47 -3.69963 5.84682 0
M  V30 16539 H 2916.34 -6.10431 5.41508 0
M  V30 16540 H 2919 -4.78816 3.28024 0
M  V30 16541 H 2919.28 -3.64957 6.05871 0
M  V30 16542 H 2920.27 -4.88748 5.21323 0
M  V30 16543 H 2918.43 -5.66789 7.0643 0
M  V30 16544 P 2920.3 -7.20834 5.23717 0
M  V30 16545 O 2920.52 -8.66274 5.38678 0
M  V30 16546 O 2921.09 -6.33687 6.13629 0
M  V30 16547 O 2920.55 -6.7751 3.72168 0
M  V30 16548 C 2919.61 -7.20919 2.70795 0
M  V30 16549 C 2920.34 -7.45864 1.40599 0
M  V30 16550 O 2920.55 -6.17751 0.734343 0
M  V30 16551 C 2921.74 -8.05906 1.51917 0
M  V30 16552 O 2922.13 -8.74358 0.335205 0
M  V30 16553 C 2922.62 -6.83093 1.70294 0
M  V30 16554 C 2921.91 -5.79992 0.836974 0
M  V30 16555 N 2921.96 -4.41864 1.38293 0
M  V30 16556 H 2919.12 -8.13738 3.03804 0
M  V30 16557 H 2918.85 -6.42974 2.55559 0
M  V30 16558 H 2919.72 -8.12139 0.792866 0
M  V30 16559 H 2922.38 -5.80178 -0.160643 0
M  V30 16560 H 2922.66 -6.51379 2.75643 0
M  V30 16561 H 2923.65 -7.01832 1.3448 0
M  V30 16562 H 2921.81 -8.73771 2.38364 0
M  V30 16563 P 2923.68 -8.91 9.05629e-11 0
M  V30 16564 O 2923.9 -10.1746 -0.733838 0
M  V30 16565 O 2924.47 -8.73346 1.23964 0
M  V30 16566 O 2923.93 -7.66872 -0.971405 0
M  V30 16567 C 2922.99 -7.42405 -2.04668 0
M  V30 16568 C 2923.72 -6.86059 -3.24661 0
M  V30 16569 O 2923.93 -5.42934 -3.03695 0
M  V30 16570 C 2925.12 -7.41287 -3.50796 0
M  V30 16571 O 2925.51 -7.27073 -4.86816 0
M  V30 16572 C 2926 -6.5273 -2.63741 0
M  V30 16573 C 2925.29 -5.1842 -2.73198 0
M  V30 16574 N 2925.34 -4.38762 -1.4784 0
M  V30 16575 H 2922.5 -8.36899 -2.3252 0
M  V30 16576 H 2922.23 -6.70391 -1.71179 0
M  V30 16577 H 2923.1 -7.03638 -4.13219 0
M  V30 16578 H 2925.76 -4.59931 -3.54016 0
M  V30 16579 H 2926.04 -6.88995 -1.59871 0
M  V30 16580 H 2927.03 -6.4684 -3.0373 0
M  V30 16581 H 2925.19 -8.47002 -3.20749 0
M  V30 16582 P 2927.06 -7.20834 -5.23717 0
M  V30 16583 O 2927.28 -7.79853 -6.57286 0
M  V30 16584 O 2927.85 -7.79239 -4.12957 0
M  V30 16585 O 2927.31 -5.63315 -5.29344 0
M  V30 16586 C 2926.37 -4.80255 -6.01876 0
M  V30 16587 C 2927.1 -3.64202 -6.65911 0
M  V30 16588 O 2927.31 -2.60694 -5.64732 0
M  V30 16589 C 2928.5 -3.93473 -7.1943 0
M  V30 16590 O 2928.89 -3.02071 -8.21205 0
M  V30 16591 C 2929.38 -3.73047 -5.97036 0
M  V30 16592 C 2928.67 -2.58828 -5.25741 0
M  V30 16593 N 2928.72 -2.68068 -3.77503 0
M  V30 16594 H 2925.88 -5.40332 -6.79951 0
M  V30 16595 H 2925.61 -4.41613 -5.32378 0
M  V30 16596 H 2926.48 -3.26331 -7.47797 0
M  V30 16597 P 2930.44 -2.75334 -8.47391 0
M  V30 16598 O 2930.66 -2.44595 -9.90239 0
M  V30 16599 O 2931.23 -3.87732 -7.92204 0
M  V30 16600 O 2930.69 -1.4459 -7.59357 0
M  V30 16601 C 2929.75 -0.347563 -7.69115 0
M  V30 16602 C 2930.48 0.96767 -7.52806 0
M  V30 16603 O 2930.69 1.21036 -6.1011 0
M  V30 16604 C 2931.88 1.04544 -8.13308 0
M  V30 16605 O 2932.27 2.38311 -8.41922 0
M  V30 16606 C 2932.76 0.491279 -7.02284 0
M  V30 16607 C 2932.05 0.996264 -5.77469 0
M  V30 16608 N 2932.1 0.0501808 -4.62873 0
M  V30 16609 C 2932.25 0.588177 -3.36904 0
M  V30 16610 O 2932.34 1.78598 -3.17173 0
M  V30 16611 N 2932.29 -0.329694 -2.33686 0
M  V30 16612 C 2932.2 -1.6953 -2.45079 0
M  V30 16613 C 2932.05 -2.16933 -3.80505 0
M  V30 16614 C 2932 -1.30326 -4.83752 0
M  V30 16615 H 2929.26 -0.374722 -8.67691 0
M  V30 16616 H 2928.99 -0.443421 -6.90177 0
M  V30 16617 H 2929.86 1.75537 -7.96793 0
M  V30 16618 H 2932.52 1.94496 -5.46629 0
M  V30 16619 H 2932.79 -0.608651 -7.04676 0
M  V30 16620 H 2933.79 0.889672 -7.08939 0
M  V30 16621 H 2931.95 0.43308 -9.04564 0
M  V30 16622 H 2931.88 -1.68366 -5.8516 0
M  V30 16623 P 2933.82 2.75334 -8.47391 0
M  V30 16624 O 2934.04 3.84166 -9.4489 0
M  V30 16625 O 2934.61 1.51964 -8.6881 0
M  V30 16626 O 2934.07 3.29363 -6.99321 0
M  V30 16627 C 2933.13 4.23956 -6.42656 0
M  V30 16628 C 2933.86 5.20775 -5.52155 0
M  V30 16629 O 2934.07 4.56534 -4.22446 0
M  V30 16630 C 2935.26 5.62629 -5.96531 0
M  V30 16631 O 2935.65 6.87667 -5.41053 0
M  V30 16632 C 2936.14 4.52537 -5.39283 0
M  V30 16633 C 2935.43 4.20027 -4.08623 0
M  V30 16634 N 2935.48 2.7613 -3.71522 0
M  V30 16635 C 2935.63 2.45612 -2.37989 0
M  V30 16636 O 2935.72 3.30919 -1.51621 0
M  V30 16637 N 2935.67 1.10684 -2.08435 0
M  V30 16638 C 2935.58 0.0690084 -2.9792 0
M  V30 16639 O 2935.63 -1.10553 -2.59426 0
M  V30 16640 C 2935.43 0.481522 -4.35345 0
M  V30 16641 C 2935.32 -0.618778 -5.36443 0
M  V30 16642 C 2935.38 1.78906 -4.67968 0
M  V30 16643 H 2932.64 4.797 -7.24003 0
M  V30 16644 H 2932.37 3.69802 -5.84429 0
M  V30 16645 H 2933.24 6.10356 -5.41441 0
M  V30 16646 H 2935.9 4.78651 -3.27911 0
M  V30 16647 H 2936.17 3.64957 -6.05871 0
M  V30 16648 H 2937.17 4.8868 -5.2125 0
M  V30 16649 H 2935.33 5.66726 -7.06352 0
M  V30 16650 H 2935.26 2.07737 -5.72367 0
M  V30 16651 H 2936.29 -0.754375 -5.86871 0
M  V30 16652 H 2934.55 -0.359721 -6.10641 0
M  V30 16653 H 2935.04 -1.55533 -4.8581 0
M  V30 16654 H 2935.78 0.862651 -1.12037 0
M  V30 16655 P 2937.2 7.20834 -5.23717 0
M  V30 16656 O 2937.42 8.66104 -5.38572 0
M  V30 16657 O 2937.99 6.33544 -6.1349 0
M  V30 16658 O 2937.45 6.7751 -3.72168 0
M  V30 16659 C 2936.51 7.20825 -2.7076 0
M  V30 16660 C 2937.24 7.45864 -1.40599 0
M  V30 16661 O 2937.45 6.17651 -0.734225 0
M  V30 16662 C 2938.64 8.05808 -1.51899 0
M  V30 16663 O 2939.03 8.74358 -0.335205 0
M  V30 16664 C 2939.52 6.83093 -1.70294 0
M  V30 16665 C 2938.81 5.79992 -0.836974 0
M  V30 16666 N 2938.86 4.41864 -1.38293 0
M  V30 16667 H 2936.02 8.13644 -3.0377 0
M  V30 16668 H 2935.75 6.42788 -2.55485 0
M  V30 16669 H 2936.62 8.12039 -0.792769 0
M  V30 16670 P 2940.58 8.91 -9.16719e-11 0
M  V30 16671 O 2940.8 10.1726 0.733694 0
M  V30 16672 O 2941.37 8.73148 -1.23936 0
M  V30 16673 O 2940.83 7.66872 0.971405 0
M  V30 16674 C 2939.89 7.42309 2.04641 0
M  V30 16675 C 2940.62 6.86059 3.24661 0
M  V30 16676 O 2940.83 5.42847 3.03646 0
M  V30 16677 C 2942.02 7.41196 3.50753 0
M  V30 16678 O 2942.41 7.27073 4.86816 0
M  V30 16679 C 2942.9 6.5273 2.63741 0
M  V30 16680 C 2942.19 5.1842 2.73198 0
M  V30 16681 N 2942.24 4.38762 1.4784 0
M  V30 16682 H 2939.4 8.36803 2.32493 0
M  V30 16683 H 2939.13 6.70197 1.71129 0
M  V30 16684 H 2940 7.03551 4.13168 0
M  V30 16685 P 2943.96 7.20834 5.23717 0
M  V30 16686 O 2944.18 7.79853 6.57286 0
M  V30 16687 O 2944.75 7.79239 4.12957 0
M  V30 16688 O 2944.21 5.63315 5.29344 0
M  V30 16689 C 2943.27 4.80255 6.01876 0
M  V30 16690 C 2944 3.64202 6.65911 0
M  V30 16691 O 2944.21 2.60694 5.64732 0
M  V30 16692 C 2945.4 3.93473 7.1943 0
M  V30 16693 O 2945.79 3.02071 8.21205 0
M  V30 16694 C 2946.28 3.73047 5.97036 0
M  V30 16695 C 2945.57 2.58828 5.25741 0
M  V30 16696 N 2945.62 2.68068 3.77503 0
M  V30 16697 H 2942.78 5.40332 6.79951 0
M  V30 16698 H 2942.51 4.41613 5.32378 0
M  V30 16699 H 2943.38 3.26331 7.47797 0
M  V30 16700 P 2947.34 2.75334 8.47391 0
M  V30 16701 O 2947.56 2.44571 9.90142 0
M  V30 16702 O 2948.13 3.87688 7.92115 0
M  V30 16703 O 2947.59 1.4459 7.59357 0
M  V30 16704 C 2946.65 0.347608 7.69215 0
M  V30 16705 C 2947.38 -0.96767 7.52806 0
M  V30 16706 O 2947.59 -1.21036 6.1011 0
M  V30 16707 C 2948.78 -1.04544 8.13308 0
M  V30 16708 O 2949.17 -2.38311 8.41922 0
M  V30 16709 C 2949.66 -0.491279 7.02284 0
M  V30 16710 C 2948.95 -0.996264 5.77469 0
M  V30 16711 N 2949 -0.0501916 4.62973 0
M  V30 16712 H 2946.16 0.374722 8.67691 0
M  V30 16713 H 2945.89 0.443485 6.90277 0
M  V30 16714 H 2946.76 -1.75537 7.96793 0
M  V30 16715 P 2950.72 -2.75334 8.47391 0
M  V30 16716 O 2950.94 -3.84128 9.44797 0
M  V30 16717 O 2951.51 -1.51947 8.68712 0
M  V30 16718 O 2950.97 -3.29363 6.99321 0
M  V30 16719 C 2950.03 -4.24011 6.4274 0
M  V30 16720 C 2950.76 -5.20775 5.52155 0
M  V30 16721 O 2950.97 -4.56534 4.22446 0
M  V30 16722 C 2952.16 -5.62629 5.96531 0
M  V30 16723 O 2952.55 -6.87667 5.41053 0
M  V30 16724 C 2953.04 -4.52537 5.39283 0
M  V30 16725 C 2952.33 -4.20027 4.08623 0
M  V30 16726 N 2952.38 -2.76189 3.71603 0
M  V30 16727 H 2949.54 -4.797 7.24003 0
M  V30 16728 H 2949.27 -3.69856 5.84513 0
M  V30 16729 H 2950.14 -6.10356 5.41441 0
M  V30 16730 P 2954.1 -7.20834 5.23717 0
M  V30 16731 O 2954.32 -8.66189 5.38625 0
M  V30 16732 O 2954.89 -6.33615 6.1356 0
M  V30 16733 O 2954.35 -6.7751 3.72168 0
M  V30 16734 C 2953.41 -7.20732 2.70725 0
M  V30 16735 C 2954.14 -7.45864 1.40599 0
M  V30 16736 O 2954.35 -6.17651 0.734225 0
M  V30 16737 C 2955.54 -8.05808 1.51899 0
M  V30 16738 O 2955.93 -8.74358 0.335205 0
M  V30 16739 C 2956.42 -6.83093 1.70294 0
M  V30 16740 C 2955.71 -5.79992 0.836974 0
M  V30 16741 N 2955.76 -4.41769 1.38263 0
M  V30 16742 C 2955.91 -3.38591 0.481702 0
M  V30 16743 O 2956 -3.56839 -0.718452 0
M  V30 16744 N 2955.95 -2.1206 1.03569 0
M  V30 16745 C 2955.86 -1.80696 2.36966 0
M  V30 16746 O 2955.91 -0.630473 2.74862 0
M  V30 16747 C 2955.71 -2.94845 3.23898 0
M  V30 16748 C 2955.6 -2.65253 4.70362 0
M  V30 16749 C 2955.66 -4.19803 2.73435 0
M  V30 16750 H 2952.92 -8.13644 3.0377 0
M  V30 16751 H 2952.65 -6.42695 2.55448 0
M  V30 16752 H 2953.52 -8.12039 0.792769 0
M  V30 16753 H 2956.18 -5.79978 -0.160587 0
M  V30 16754 H 2956.45 -6.51379 2.75643 0
M  V30 16755 H 2957.45 -7.01734 1.34462 0
M  V30 16756 H 2955.61 -8.73674 2.38337 0
M  V30 16757 H 2955.54 -5.04492 3.4095 0
M  V30 16758 H 2956.57 -2.83924 5.1913 0
M  V30 16759 H 2954.83 -3.29824 5.15163 0
M  V30 16760 H 2955.32 -1.59723 4.84449 0
M  V30 16761 H 2956.06 -1.35644 0.399345 0
M  V30 16762 P 2957.48 -8.91 9.27809e-11 0
M  V30 16763 O 2957.7 -10.1726 -0.733694 0
M  V30 16764 O 2958.27 -8.73148 1.23936 0
M  V30 16765 O 2957.73 -7.66872 -0.971405 0
M  V30 16766 C 2956.79 -7.42309 -2.04641 0
M  V30 16767 C 2957.52 -6.86059 -3.24661 0
M  V30 16768 O 2957.73 -5.42847 -3.03646 0
M  V30 16769 C 2958.92 -7.41196 -3.50753 0
M  V30 16770 O 2959.31 -7.27073 -4.86816 0
M  V30 16771 C 2959.8 -6.5273 -2.63741 0
M  V30 16772 C 2959.09 -5.1842 -2.73198 0
M  V30 16773 N 2959.14 -4.38762 -1.4784 0
M  V30 16774 H 2956.3 -8.36803 -2.32493 0
M  V30 16775 H 2956.03 -6.70197 -1.71129 0
M  V30 16776 H 2956.9 -7.03551 -4.13168 0
M  V30 16777 P 2960.86 -7.20834 -5.23717 0
M  V30 16778 O 2961.08 -7.79853 -6.57286 0
M  V30 16779 O 2961.65 -7.79239 -4.12957 0
M  V30 16780 O 2961.11 -5.63315 -5.29344 0
M  V30 16781 C 2960.17 -4.80255 -6.01876 0
M  V30 16782 C 2960.9 -3.64202 -6.65911 0
M  V30 16783 O 2961.11 -2.60694 -5.64732 0
M  V30 16784 C 2962.3 -3.93473 -7.1943 0
M  V30 16785 O 2962.69 -3.02071 -8.21205 0
M  V30 16786 C 2963.18 -3.73047 -5.97036 0
M  V30 16787 C 2962.47 -2.58828 -5.25741 0
M  V30 16788 N 2962.52 -2.68068 -3.77503 0
M  V30 16789 H 2959.68 -5.40332 -6.79951 0
M  V30 16790 H 2959.41 -4.41613 -5.32378 0
M  V30 16791 H 2960.28 -3.26331 -7.47797 0
M  V30 16792 P 2964.24 -2.75334 -8.47391 0
M  V30 16793 O 2964.46 -2.44571 -9.90142 0
M  V30 16794 O 2965.03 -3.87688 -7.92115 0
M  V30 16795 O 2964.49 -1.4459 -7.59357 0
M  V30 16796 C 2963.55 -0.347608 -7.69215 0
M  V30 16797 C 2964.28 0.96767 -7.52806 0
M  V30 16798 O 2964.49 1.21036 -6.1011 0
M  V30 16799 C 2965.68 1.04544 -8.13308 0
M  V30 16800 O 2966.07 2.38311 -8.41922 0
M  V30 16801 C 2966.56 0.491279 -7.02284 0
M  V30 16802 C 2965.85 0.996264 -5.77469 0
M  V30 16803 N 2965.9 0.0501916 -4.62973 0
M  V30 16804 H 2963.06 -0.374722 -8.67691 0
M  V30 16805 H 2962.79 -0.443485 -6.90277 0
M  V30 16806 H 2963.66 1.75537 -7.96793 0
M  V30 16807 P 2967.62 2.75334 -8.47391 0
M  V30 16808 O 2967.84 3.84128 -9.44797 0
M  V30 16809 O 2968.41 1.51947 -8.68712 0
M  V30 16810 O 2967.87 3.29363 -6.99321 0
M  V30 16811 C 2966.93 4.24011 -6.4274 0
M  V30 16812 C 2967.66 5.20775 -5.52155 0
M  V30 16813 O 2967.87 4.56534 -4.22446 0
M  V30 16814 C 2969.06 5.62629 -5.96531 0
M  V30 16815 O 2969.45 6.87667 -5.41053 0
M  V30 16816 C 2969.94 4.52537 -5.39283 0
M  V30 16817 C 2969.23 4.20027 -4.08623 0
M  V30 16818 N 2969.28 2.76189 -3.71603 0
M  V30 16819 H 2966.44 4.797 -7.24003 0
M  V30 16820 H 2966.17 3.69856 -5.84513 0
M  V30 16821 H 2967.04 6.10356 -5.41441 0
M  V30 16822 P 2971 7.20834 -5.23717 0
M  V30 16823 O 2971.22 8.66104 -5.38572 0
M  V30 16824 O 2971.79 6.33544 -6.1349 0
M  V30 16825 O 2971.25 6.7751 -3.72168 0
M  V30 16826 C 2970.31 7.20825 -2.7076 0
M  V30 16827 C 2971.04 7.45864 -1.40599 0
M  V30 16828 O 2971.25 6.17651 -0.734225 0
M  V30 16829 C 2972.44 8.05808 -1.51899 0
M  V30 16830 O 2972.83 8.74358 -0.335205 0
M  V30 16831 C 2973.32 6.83093 -1.70294 0
M  V30 16832 C 2972.61 5.79992 -0.836974 0
M  V30 16833 N 2972.66 4.41864 -1.38293 0
M  V30 16834 H 2969.82 8.13644 -3.0377 0
M  V30 16835 H 2969.55 6.42788 -2.55485 0
M  V30 16836 H 2970.42 8.12039 -0.792769 0
M  V30 16837 P 2974.38 8.91 -9.38899e-11 0
M  V30 16838 O 2974.6 10.1726 0.733694 0
M  V30 16839 O 2975.17 8.73148 -1.23936 0
M  V30 16840 O 2974.63 7.66872 0.971405 0
M  V30 16841 C 2973.69 7.42309 2.04641 0
M  V30 16842 C 2974.42 6.86059 3.24661 0
M  V30 16843 O 2974.63 5.42847 3.03646 0
M  V30 16844 C 2975.82 7.41196 3.50753 0
M  V30 16845 O 2976.21 7.27073 4.86816 0
M  V30 16846 C 2976.7 6.5273 2.63741 0
M  V30 16847 C 2975.99 5.1842 2.73198 0
M  V30 16848 N 2976.04 4.38762 1.4784 0
M  V30 16849 H 2973.2 8.36803 2.32493 0
M  V30 16850 H 2972.93 6.70197 1.71129 0
M  V30 16851 H 2973.8 7.03551 4.13168 0
M  V30 16852 P 2977.76 7.20834 5.23717 0
M  V30 16853 O 2977.98 7.79853 6.57286 0
M  V30 16854 O 2978.55 7.79239 4.12957 0
M  V30 16855 O 2978.01 5.63315 5.29344 0
M  V30 16856 C 2977.07 4.80255 6.01876 0
M  V30 16857 C 2977.8 3.64202 6.65911 0
M  V30 16858 O 2978.01 2.60694 5.64732 0
M  V30 16859 C 2979.2 3.93473 7.1943 0
M  V30 16860 O 2979.59 3.02071 8.21205 0
M  V30 16861 C 2980.08 3.73047 5.97036 0
M  V30 16862 C 2979.37 2.58828 5.25741 0
M  V30 16863 N 2979.42 2.68068 3.77503 0
M  V30 16864 C 2979.34 3.79715 2.96723 0
M  V30 16865 N 2979.42 3.5377 1.68852 0
M  V30 16866 C 2979.56 2.15054 1.63254 0
M  V30 16867 C 2979.69 1.28964 0.518571 0
M  V30 16868 O 2979.71 1.56826 -0.679156 0
M  V30 16869 N 2979.81 -0.0538097 0.918425 0
M  V30 16870 C 2979.81 -0.494275 2.22578 0
M  V30 16871 N 2979.94 -1.81086 2.40434 0
M  V30 16872 N 2979.68 0.313645 3.27502 0
M  V30 16873 C 2979.56 1.61829 2.91033 0
M  V30 16874 H 2976.58 5.40332 6.79951 0
M  V30 16875 H 2976.31 4.41613 5.32378 0
M  V30 16876 H 2977.18 3.26331 7.47797 0
M  V30 16877 H 2979.84 1.63422 5.56814 0
M  V30 16878 H 2980.11 4.63374 5.34244 0
M  V30 16879 H 2981.11 3.44728 6.25838 0
M  V30 16880 H 2979.27 4.96652 7.57263 0
M  V30 16881 H 2979.22 4.80617 3.3614 0
M  V30 16882 H 2979.91 -0.742702 0.199384 0
M  V30 16883 H 2979.94 -2.20598 3.35588 0
M  V30 16884 H 2980.04 -2.43518 1.58945 0
M  V30 16885 P 2981.14 2.75334 8.47391 0
M  V30 16886 O 2981.36 2.44571 9.90142 0
M  V30 16887 O 2981.93 3.87688 7.92115 0
M  V30 16888 O 2981.39 1.4459 7.59357 0
M  V30 16889 C 2980.45 0.347608 7.69215 0
M  V30 16890 C 2981.18 -0.96767 7.52806 0
M  V30 16891 O 2981.39 -1.21036 6.1011 0
M  V30 16892 C 2982.58 -1.04544 8.13308 0
M  V30 16893 O 2982.97 -2.38311 8.41922 0
M  V30 16894 C 2983.46 -0.491279 7.02284 0
M  V30 16895 C 2982.75 -0.996264 5.77469 0
M  V30 16896 N 2982.8 -0.0501916 4.62973 0
M  V30 16897 H 2979.96 0.374722 8.67691 0
M  V30 16898 H 2979.69 0.443485 6.90277 0
M  V30 16899 H 2980.56 -1.75537 7.96793 0
M  V30 16900 P 2984.52 -2.75334 8.47391 0
M  V30 16901 O 2984.74 -3.84166 9.4489 0
M  V30 16902 O 2985.31 -1.51964 8.6881 0
M  V30 16903 O 2984.77 -3.29363 6.99321 0
M  V30 16904 C 2983.83 -4.23956 6.42656 0
M  V30 16905 C 2984.56 -5.20775 5.52155 0
M  V30 16906 O 2984.77 -4.56534 4.22446 0
M  V30 16907 C 2985.96 -5.62629 5.96531 0
M  V30 16908 O 2986.35 -6.87667 5.41053 0
M  V30 16909 C 2986.84 -4.52537 5.39283 0
M  V30 16910 C 2986.13 -4.20027 4.08623 0
M  V30 16911 N 2986.18 -2.7613 3.71522 0
M  V30 16912 C 2986.33 -2.45612 2.37989 0
M  V30 16913 O 2986.42 -3.30919 1.51621 0
M  V30 16914 N 2986.37 -1.10684 2.08435 0
M  V30 16915 C 2986.28 -0.0690084 2.9792 0
M  V30 16916 O 2986.33 1.10553 2.59426 0
M  V30 16917 C 2986.13 -0.481522 4.35345 0
M  V30 16918 C 2986.02 0.618778 5.36443 0
M  V30 16919 C 2986.08 -1.78906 4.67968 0
M  V30 16920 H 2983.34 -4.797 7.24003 0
M  V30 16921 H 2983.07 -3.69802 5.84429 0
M  V30 16922 H 2983.94 -6.10356 5.41441 0
M  V30 16923 H 2986.6 -4.78651 3.27911 0
M  V30 16924 H 2986.87 -3.64957 6.05871 0
M  V30 16925 H 2987.87 -4.8868 5.2125 0
M  V30 16926 H 2986.03 -5.66726 7.06352 0
M  V30 16927 H 2985.96 -2.07737 5.72367 0
M  V30 16928 H 2986.99 0.754375 5.86871 0
M  V30 16929 H 2985.25 0.359721 6.10641 0
M  V30 16930 H 2985.74 1.55533 4.8581 0
M  V30 16931 H 2986.48 -0.862651 1.12037 0
M  V30 16932 P 2987.9 -7.20834 5.23717 0
M  V30 16933 O 2988.12 -8.66104 5.38572 0
M  V30 16934 O 2988.69 -6.33544 6.1349 0
M  V30 16935 O 2988.15 -6.7751 3.72168 0
M  V30 16936 C 2987.21 -7.20825 2.7076 0
M  V30 16937 C 2987.94 -7.45864 1.40599 0
M  V30 16938 O 2988.15 -6.17651 0.734225 0
M  V30 16939 C 2989.34 -8.05808 1.51899 0
M  V30 16940 O 2989.73 -8.74358 0.335205 0
M  V30 16941 C 2990.22 -6.83093 1.70294 0
M  V30 16942 C 2989.51 -5.79992 0.836974 0
M  V30 16943 N 2989.56 -4.41864 1.38293 0
M  V30 16944 H 2986.72 -8.13644 3.0377 0
M  V30 16945 H 2986.45 -6.42788 2.55485 0
M  V30 16946 H 2987.32 -8.12039 0.792769 0
M  V30 16947 P 2991.28 -8.91 9.49989e-11 0
M  V30 16948 O 2991.5 -10.1746 -0.733838 0
M  V30 16949 O 2992.07 -8.73346 1.23964 0
M  V30 16950 O 2991.53 -7.66872 -0.971405 0
M  V30 16951 C 2990.59 -7.42405 -2.04668 0
M  V30 16952 C 2991.32 -6.86059 -3.24661 0
M  V30 16953 O 2991.53 -5.42934 -3.03695 0
M  V30 16954 C 2992.72 -7.41287 -3.50796 0
M  V30 16955 O 2993.11 -7.27073 -4.86816 0
M  V30 16956 C 2993.6 -6.5273 -2.63741 0
M  V30 16957 C 2992.89 -5.1842 -2.73198 0
M  V30 16958 N 2992.94 -4.38762 -1.4784 0
M  V30 16959 C 2992.86 -4.83651 -0.183876 0
M  V30 16960 N 2992.93 -3.88759 0.699393 0
M  V30 16961 C 2993.08 -2.7404 -0.0575568 0
M  V30 16962 C 2993.21 -1.37902 0.293928 0
M  V30 16963 N 2993.22 -0.938021 1.54797 0
M  V30 16964 N 2993.33 -0.491817 -0.70549 0
M  V30 16965 C 2993.32 -0.931735 -1.95979 0
M  V30 16966 N 2993.2 -2.16017 -2.41481 0
M  V30 16967 C 2993.08 -3.02547 -1.39121 0
M  V30 16968 H 2990.1 -8.36899 -2.3252 0
M  V30 16969 H 2989.83 -6.70391 -1.71179 0
M  V30 16970 H 2990.7 -7.03638 -4.13219 0
M  V30 16971 H 2993.36 -4.59931 -3.54016 0
M  V30 16972 H 2993.64 -6.88995 -1.59871 0
M  V30 16973 H 2994.63 -6.4684 -3.0373 0
M  V30 16974 H 2992.79 -8.47002 -3.20749 0
M  V30 16975 H 2992.75 -5.8885 0.0765548 0
M  V30 16976 H 2993.13 -1.60276 2.32875 0
M  V30 16977 H 2993.32 0.0699355 1.73859 0
M  V30 16978 H 2993.43 -0.165507 -2.71897 0
M  V30 16979 P 2994.66 -7.20834 -5.23717 0
M  V30 16980 O 2994.88 -7.80006 -6.57415 0
M  V30 16981 O 2995.45 -7.79416 -4.13051 0
M  V30 16982 O 2994.91 -5.63315 -5.29344 0
M  V30 16983 C 2993.97 -4.80318 -6.01954 0
M  V30 16984 C 2994.7 -3.64202 -6.65911 0
M  V30 16985 O 2994.91 -2.60736 -5.64823 0
M  V30 16986 C 2996.1 -3.93521 -7.19518 0
M  V30 16987 O 2996.49 -3.02071 -8.21205 0
M  V30 16988 C 2996.98 -3.73047 -5.97036 0
M  V30 16989 C 2996.27 -2.58828 -5.25741 0
M  V30 16990 N 2996.32 -2.68068 -3.77503 0
M  V30 16991 C 2996.24 -3.80474 -2.99159 0
M  V30 16992 N 2996.31 -3.55622 -1.71925 0
M  V30 16993 C 2996.46 -2.1832 -1.65733 0
M  V30 16994 C 2996.59 -1.28842 -0.572777 0
M  V30 16995 N 2996.6 -1.66875 0.70098 0
M  V30 16996 N 2996.71 0.016788 -0.859836 0
M  V30 16997 C 2996.7 0.398145 -2.13316 0
M  V30 16998 N 2996.58 -0.328224 -3.22333 0
M  V30 16999 C 2996.46 -1.62992 -2.90383 0
M  V30 17000 H 2993.48 -5.40394 -6.8003 0
M  V30 17001 H 2993.21 -4.41741 -5.32532 0
M  V30 17002 H 2994.08 -3.26371 -7.47889 0
M  V30 17003 H 2996.74 -1.64007 -5.56746 0
M  V30 17004 H 2997.02 -4.63439 -5.3432 0
M  V30 17005 H 2998.01 -3.44776 -6.25925 0
M  V30 17006 H 2996.17 -4.96707 -7.57347 0
M  V30 17007 H 2996.13 -4.8089 -3.39924 0
M  V30 17008 H 2996.51 -2.66547 0.941919 0
M  V30 17009 H 2996.7 -0.965341 1.44766 0
M  V30 17010 H 2996.81 1.46427 -2.29697 0
M  V30 17011 P 2998.04 -2.75334 -8.47391 0
M  V30 17012 O 2998.26 -2.44571 -9.90142 0
M  V30 17013 O 2998.83 -3.87688 -7.92115 0
M  V30 17014 O 2998.29 -1.4459 -7.59357 0
M  V30 17015 C 2997.35 -0.347608 -7.69215 0
M  V30 17016 C 2998.08 0.96767 -7.52806 0
M  V30 17017 O 2998.29 1.21036 -6.1011 0
M  V30 17018 C 2999.48 1.04544 -8.13308 0
M  V30 17019 O 2999.87 2.38311 -8.41922 0
M  V30 17020 C 3000.36 0.491279 -7.02284 0
M  V30 17021 C 2999.65 0.996264 -5.77469 0
M  V30 17022 N 2999.7 0.0501916 -4.62973 0
M  V30 17023 H 2996.86 -0.374722 -8.67691 0
M  V30 17024 H 2996.59 -0.443485 -6.90277 0
M  V30 17025 H 2997.46 1.75537 -7.96793 0
M  V30 17026 P 3001.42 2.75334 -8.47391 0
M  V30 17027 O 3001.64 3.84128 -9.44797 0
M  V30 17028 O 3002.21 1.51947 -8.68712 0
M  V30 17029 O 3001.67 3.29363 -6.99321 0
M  V30 17030 C 3000.73 4.24011 -6.4274 0
M  V30 17031 C 3001.46 5.20775 -5.52155 0
M  V30 17032 O 3001.67 4.56534 -4.22446 0
M  V30 17033 C 3002.86 5.62629 -5.96531 0
M  V30 17034 O 3003.25 6.87667 -5.41053 0
M  V30 17035 C 3003.74 4.52537 -5.39283 0
M  V30 17036 C 3003.03 4.20027 -4.08623 0
M  V30 17037 N 3003.08 2.76189 -3.71603 0
M  V30 17038 H 3000.24 4.797 -7.24003 0
M  V30 17039 H 2999.97 3.69856 -5.84513 0
M  V30 17040 H 3000.84 6.10356 -5.41441 0
M  V30 17041 P 3004.8 7.20834 -5.23717 0
M  V30 17042 O 3005.02 8.66104 -5.38572 0
M  V30 17043 O 3005.59 6.33544 -6.1349 0
M  V30 17044 O 3005.05 6.7751 -3.72168 0
M  V30 17045 C 3004.11 7.20825 -2.7076 0
M  V30 17046 C 3004.84 7.45864 -1.40599 0
M  V30 17047 O 3005.05 6.17651 -0.734225 0
M  V30 17048 C 3006.24 8.05808 -1.51899 0
M  V30 17049 O 3006.63 8.74358 -0.335205 0
M  V30 17050 C 3007.12 6.83093 -1.70294 0
M  V30 17051 C 3006.41 5.79992 -0.836974 0
M  V30 17052 N 3006.46 4.41864 -1.38293 0
M  V30 17053 H 3003.62 8.13644 -3.0377 0
M  V30 17054 H 3003.35 6.42788 -2.55485 0
M  V30 17055 H 3004.22 8.12039 -0.792769 0
M  V30 17056 P 3008.18 8.91 -9.61079e-11 0
M  V30 17057 O 3008.4 10.1736 0.733766 0
M  V30 17058 O 3008.97 8.73247 -1.2395 0
M  V30 17059 O 3008.43 7.66872 0.971405 0
M  V30 17060 C 3007.49 7.42212 2.04614 0
M  V30 17061 C 3008.22 6.86059 3.24661 0
M  V30 17062 O 3008.43 5.42847 3.03646 0
M  V30 17063 C 3009.62 7.41196 3.50753 0
M  V30 17064 O 3010.01 7.27073 4.86816 0
M  V30 17065 C 3010.5 6.5273 2.63741 0
M  V30 17066 C 3009.79 5.1842 2.73198 0
M  V30 17067 N 3009.84 4.38668 1.47808 0
M  V30 17068 C 3009.99 3.02239 1.60048 0
M  V30 17069 O 3010.08 2.46459 2.67869 0
M  V30 17070 N 3010.03 2.32436 0.408571 0
M  V30 17071 C 3009.94 2.85471 -0.854993 0
M  V30 17072 C 3009.79 4.28918 -0.887335 0
M  V30 17073 C 3009.74 5.00349 0.255399 0
M  V30 17074 H 3007 8.36803 2.32493 0
M  V30 17075 H 3006.73 6.701 1.71105 0
M  V30 17076 H 3007.6 7.03551 4.13168 0
M  V30 17077 H 3010.26 4.59773 3.53894 0
M  V30 17078 H 3010.53 6.88995 1.59871 0
M  V30 17079 H 3011.53 6.46749 3.03687 0
M  V30 17080 H 3009.69 8.46908 3.20714 0
M  V30 17081 H 3009.62 6.08548 0.206986 0
M  V30 17082 P 3011.56 7.20834 5.23717 0
M  V30 17083 O 3011.78 7.79853 6.57286 0
M  V30 17084 O 3012.35 7.79239 4.12957 0
M  V30 17085 O 3011.81 5.63315 5.29344 0
M  V30 17086 C 3010.87 4.80255 6.01876 0
M  V30 17087 C 3011.6 3.64202 6.65911 0
M  V30 17088 O 3011.81 2.60694 5.64732 0
M  V30 17089 C 3013 3.93473 7.1943 0
M  V30 17090 O 3013.39 3.02071 8.21205 0
M  V30 17091 C 3013.88 3.73047 5.97036 0
M  V30 17092 C 3013.17 2.58828 5.25741 0
M  V30 17093 N 3013.22 2.68068 3.77503 0
M  V30 17094 H 3010.38 5.40332 6.79951 0
M  V30 17095 H 3010.11 4.41613 5.32378 0
M  V30 17096 H 3010.98 3.26331 7.47797 0
M  V30 17097 P 3014.94 2.75334 8.47391 0
M  V30 17098 O 3015.16 2.44571 9.90142 0
M  V30 17099 O 3015.73 3.87688 7.92115 0
M  V30 17100 O 3015.19 1.4459 7.59357 0
M  V30 17101 C 3014.25 0.347608 7.69215 0
M  V30 17102 C 3014.98 -0.96767 7.52806 0
M  V30 17103 O 3015.19 -1.21036 6.1011 0
M  V30 17104 C 3016.38 -1.04544 8.13308 0
M  V30 17105 O 3016.77 -2.38311 8.41922 0
M  V30 17106 C 3017.26 -0.491279 7.02284 0
M  V30 17107 C 3016.55 -0.996264 5.77469 0
M  V30 17108 N 3016.6 -0.0501916 4.62973 0
M  V30 17109 H 3013.76 0.374722 8.67691 0
M  V30 17110 H 3013.49 0.443485 6.90277 0
M  V30 17111 H 3014.36 -1.75537 7.96793 0
M  V30 17112 P 3018.32 -2.75334 8.47391 0
M  V30 17113 O 3018.54 -3.84128 9.44797 0
M  V30 17114 O 3019.11 -1.51947 8.68712 0
M  V30 17115 O 3018.57 -3.29363 6.99321 0
M  V30 17116 C 3017.63 -4.24011 6.4274 0
M  V30 17117 C 3018.36 -5.20775 5.52155 0
M  V30 17118 O 3018.57 -4.56534 4.22446 0
M  V30 17119 C 3019.76 -5.62629 5.96531 0
M  V30 17120 O 3020.15 -6.87667 5.41053 0
M  V30 17121 C 3020.64 -4.52537 5.39283 0
M  V30 17122 C 3019.93 -4.20027 4.08623 0
M  V30 17123 N 3019.98 -2.76189 3.71603 0
M  V30 17124 H 3017.14 -4.797 7.24003 0
M  V30 17125 H 3016.87 -3.69856 5.84513 0
M  V30 17126 H 3017.74 -6.10356 5.41441 0
M  V30 17127 P 3021.7 -7.20834 5.23717 0
M  V30 17128 O 3021.92 -8.66274 5.38678 0
M  V30 17129 O 3022.49 -6.33687 6.13629 0
M  V30 17130 O 3021.95 -6.7751 3.72168 0
M  V30 17131 C 3021.01 -7.20919 2.70795 0
M  V30 17132 C 3021.74 -7.45864 1.40599 0
M  V30 17133 O 3021.95 -6.17751 0.734343 0
M  V30 17134 C 3023.14 -8.05906 1.51917 0
M  V30 17135 O 3023.53 -8.74358 0.335205 0
M  V30 17136 C 3024.02 -6.83093 1.70294 0
M  V30 17137 C 3023.31 -5.79992 0.836974 0
M  V30 17138 N 3023.36 -4.41864 1.38293 0
M  V30 17139 C 3023.28 -4.02089 2.69407 0
M  V30 17140 N 3023.35 -2.73403 2.85089 0
M  V30 17141 C 3023.5 -2.25086 1.5642 0
M  V30 17142 C 3023.63 -0.942887 1.04836 0
M  V30 17143 N 3023.64 0.150999 1.80369 0
M  V30 17144 N 3023.75 -0.812565 -0.28167 0
M  V30 17145 C 3023.74 -1.90572 -1.03784 0
M  V30 17146 N 3023.62 -3.167 -0.683905 0
M  V30 17147 C 3023.5 -3.26538 0.652815 0
M  V30 17148 H 3020.52 -8.13738 3.03804 0
M  V30 17149 H 3020.25 -6.42974 2.55559 0
M  V30 17150 H 3021.12 -8.12139 0.792866 0
M  V30 17151 H 3023.78 -5.80178 -0.160643 0
M  V30 17152 H 3024.06 -6.51379 2.75643 0
M  V30 17153 H 3025.05 -7.01832 1.3448 0
M  V30 17154 H 3023.21 -8.73771 2.38364 0
M  V30 17155 H 3023.17 -4.7189 3.52311 0
M  V30 17156 H 3023.55 0.0721434 2.82608 0
M  V30 17157 H 3023.74 1.0785 1.36544 0
M  V30 17158 H 3023.85 -1.73207 -2.10241 0
M  V30 17159 P 3025.08 -8.91 9.72169e-11 0
M  V30 17160 O 3025.3 -10.1726 -0.733694 0
M  V30 17161 O 3025.87 -8.73148 1.23936 0
M  V30 17162 O 3025.33 -7.66872 -0.971405 0
M  V30 17163 C 3024.39 -7.42309 -2.04641 0
M  V30 17164 C 3025.12 -6.86059 -3.24661 0
M  V30 17165 O 3025.33 -5.42847 -3.03646 0
M  V30 17166 C 3026.52 -7.41196 -3.50753 0
M  V30 17167 O 3026.91 -7.27073 -4.86816 0
M  V30 17168 C 3027.4 -6.5273 -2.63741 0
M  V30 17169 C 3026.69 -5.1842 -2.73198 0
M  V30 17170 N 3026.74 -4.38762 -1.4784 0
M  V30 17171 H 3023.9 -8.36803 -2.32493 0
M  V30 17172 H 3023.63 -6.70197 -1.71129 0
M  V30 17173 H 3024.5 -7.03551 -4.13168 0
M  V30 17174 P 3028.46 -7.20834 -5.23717 0
M  V30 17175 O 3028.68 -7.79853 -6.57286 0
M  V30 17176 O 3029.25 -7.79239 -4.12957 0
M  V30 17177 O 3028.71 -5.63315 -5.29344 0
M  V30 17178 C 3027.77 -4.80255 -6.01876 0
M  V30 17179 C 3028.5 -3.64202 -6.65911 0
M  V30 17180 O 3028.71 -2.60694 -5.64732 0
M  V30 17181 C 3029.9 -3.93473 -7.1943 0
M  V30 17182 O 3030.29 -3.02071 -8.21205 0
M  V30 17183 C 3030.78 -3.73047 -5.97036 0
M  V30 17184 C 3030.07 -2.58828 -5.25741 0
M  V30 17185 N 3030.12 -2.68068 -3.77503 0
M  V30 17186 H 3027.28 -5.40332 -6.79951 0
M  V30 17187 H 3027.01 -4.41613 -5.32378 0
M  V30 17188 H 3027.88 -3.26331 -7.47797 0
M  V30 17189 P 3031.84 -2.75334 -8.47391 0
M  V30 17190 O 3032.06 -2.44571 -9.90142 0
M  V30 17191 O 3032.63 -3.87688 -7.92115 0
M  V30 17192 O 3032.09 -1.4459 -7.59357 0
M  V30 17193 C 3031.15 -0.347608 -7.69215 0
M  V30 17194 C 3031.88 0.96767 -7.52806 0
M  V30 17195 O 3032.09 1.21036 -6.1011 0
M  V30 17196 C 3033.28 1.04544 -8.13308 0
M  V30 17197 O 3033.67 2.38311 -8.41922 0
M  V30 17198 C 3034.16 0.491279 -7.02284 0
M  V30 17199 C 3033.45 0.996264 -5.77469 0
M  V30 17200 N 3033.5 0.0501916 -4.62973 0
M  V30 17201 H 3030.66 -0.374722 -8.67691 0
M  V30 17202 H 3030.39 -0.443485 -6.90277 0
M  V30 17203 H 3031.26 1.75537 -7.96793 0
M  V30 17204 P 3035.22 2.75334 -8.47391 0
M  V30 17205 O 3035.44 3.84128 -9.44797 0
M  V30 17206 O 3036.01 1.51947 -8.68712 0
M  V30 17207 O 3035.47 3.29363 -6.99321 0
M  V30 17208 C 3034.53 4.24011 -6.4274 0
M  V30 17209 C 3035.26 5.20775 -5.52155 0
M  V30 17210 O 3035.47 4.56534 -4.22446 0
M  V30 17211 C 3036.66 5.62629 -5.96531 0
M  V30 17212 O 3037.05 6.87667 -5.41053 0
M  V30 17213 C 3037.54 4.52537 -5.39283 0
M  V30 17214 C 3036.83 4.20027 -4.08623 0
M  V30 17215 N 3036.88 2.76189 -3.71603 0
M  V30 17216 H 3034.04 4.797 -7.24003 0
M  V30 17217 H 3033.77 3.69856 -5.84513 0
M  V30 17218 H 3034.64 6.10356 -5.41441 0
M  V30 17219 P 3038.6 7.20834 -5.23717 0
M  V30 17220 O 3038.82 8.66274 -5.38678 0
M  V30 17221 O 3039.39 6.33687 -6.13629 0
M  V30 17222 O 3038.85 6.7751 -3.72168 0
M  V30 17223 C 3037.91 7.20919 -2.70795 0
M  V30 17224 C 3038.64 7.45864 -1.40599 0
M  V30 17225 O 3038.85 6.17751 -0.734343 0
M  V30 17226 C 3040.04 8.05906 -1.51917 0
M  V30 17227 O 3040.43 8.74358 -0.335205 0
M  V30 17228 C 3040.92 6.83093 -1.70294 0
M  V30 17229 C 3040.21 5.79992 -0.836974 0
M  V30 17230 N 3040.26 4.41864 -1.38293 0
M  V30 17231 H 3037.42 8.13738 -3.03804 0
M  V30 17232 H 3037.15 6.42974 -2.55559 0
M  V30 17233 H 3038.02 8.12139 -0.792866 0
M  V30 17234 H 3040.68 5.80178 0.160643 0
M  V30 17235 H 3040.96 6.51379 -2.75643 0
M  V30 17236 H 3041.95 7.01832 -1.3448 0
M  V30 17237 H 3040.11 8.73771 -2.38364 0
M  V30 17238 P 3041.98 8.91 -9.83259e-11 0
M  V30 17239 O 3042.2 10.1726 0.733694 0
M  V30 17240 O 3042.77 8.73148 -1.23936 0
M  V30 17241 O 3042.23 7.66872 0.971405 0
M  V30 17242 C 3041.29 7.42309 2.04641 0
M  V30 17243 C 3042.02 6.86059 3.24661 0
M  V30 17244 O 3042.23 5.42847 3.03646 0
M  V30 17245 C 3043.42 7.41196 3.50753 0
M  V30 17246 O 3043.81 7.27073 4.86816 0
M  V30 17247 C 3044.3 6.5273 2.63741 0
M  V30 17248 C 3043.59 5.1842 2.73198 0
M  V30 17249 N 3043.64 4.38762 1.4784 0
M  V30 17250 H 3040.8 8.36803 2.32493 0
M  V30 17251 H 3040.53 6.70197 1.71129 0
M  V30 17252 H 3041.4 7.03551 4.13168 0
M  V30 17253 P 3045.36 7.20834 5.23717 0
M  V30 17254 O 3045.58 7.79853 6.57286 0
M  V30 17255 O 3046.15 7.79239 4.12957 0
M  V30 17256 O 3045.61 5.63315 5.29344 0
M  V30 17257 C 3044.67 4.80255 6.01876 0
M  V30 17258 C 3045.4 3.64202 6.65911 0
M  V30 17259 O 3045.61 2.60694 5.64732 0
M  V30 17260 C 3046.8 3.93473 7.1943 0
M  V30 17261 O 3047.19 3.02071 8.21205 0
M  V30 17262 C 3047.68 3.73047 5.97036 0
M  V30 17263 C 3046.97 2.58828 5.25741 0
M  V30 17264 N 3047.02 2.68068 3.77503 0
M  V30 17265 H 3044.18 5.40332 6.79951 0
M  V30 17266 H 3043.91 4.41613 5.32378 0
M  V30 17267 H 3044.78 3.26331 7.47797 0
M  V30 17268 P 3048.74 2.75334 8.47391 0
M  V30 17269 O 3048.96 2.44571 9.90142 0
M  V30 17270 O 3049.53 3.87688 7.92115 0
M  V30 17271 O 3048.99 1.4459 7.59357 0
M  V30 17272 C 3048.05 0.347608 7.69215 0
M  V30 17273 C 3048.78 -0.96767 7.52806 0
M  V30 17274 O 3048.99 -1.21036 6.1011 0
M  V30 17275 C 3050.18 -1.04544 8.13308 0
M  V30 17276 O 3050.57 -2.38311 8.41922 0
M  V30 17277 C 3051.06 -0.491279 7.02284 0
M  V30 17278 C 3050.35 -0.996264 5.77469 0
M  V30 17279 N 3050.4 -0.0501916 4.62973 0
M  V30 17280 H 3047.56 0.374722 8.67691 0
M  V30 17281 H 3047.29 0.443485 6.90277 0
M  V30 17282 H 3048.16 -1.75537 7.96793 0
M  V30 17283 H 3050.44 -2.92663 7.63961 0
M  V30 17284 H 3054.46 -0.0909867 -9.51056 0
M  V30 17285 O 3054.34 -0.778697 -8.86988 0
M  V30 17286 P 3052.9 -1.17771 -8.83182 0
M  V30 17287 O 3052.68 -2.07206 -9.98732 0
M  V30 17288 O 3052.11 0.0743816 -8.81969 0
M  V30 17289 O 3052.65 -1.97652 -7.47304 0
M  V30 17290 C 3053.59 -3.01133 -7.08783 0
M  V30 17291 C 3052.86 -4.12613 -6.37049 0
M  V30 17292 O 3052.65 -3.72827 -4.97879 0
M  V30 17293 C 3051.46 -4.45085 -6.88694 0
M  V30 17294 O 3051.07 -5.7877 -6.5624 0
M  V30 17295 C 3050.58 -3.47817 -6.12078 0
M  V30 17296 C 3051.29 -3.39414 -4.77697 0
M  V30 17297 N 3051.24 -2.04615 -4.15333 0
M  V30 17298 H 3054.08 -3.41248 -7.98759 0
M  V30 17299 H 3054.35 -2.5837 -6.41742 0
M  V30 17300 H 3053.48 -5.02657 -6.42673 0
M  V30 17301 P 3049.52 -6.144 -6.45285 0
M  V30 17302 O 3049.3 -7.54673 -6.86199 0
M  V30 17303 O 3048.73 -5.12391 -7.179 0
M  V30 17304 O 3049.27 -5.99158 -4.88404 0
M  V30 17305 C 3050.21 -6.60234 -3.96415 0
M  V30 17306 C 3049.48 -7.08259 -2.72856 0
M  V30 17307 O 3049.27 -5.9427 -1.83651 0
M  V30 17308 C 3048.08 -7.64886 -2.9555 0
M  V30 17309 O 3047.69 -8.53963 -1.90717 0
M  V30 17310 C 3047.2 -6.4116 -2.90739 0
M  V30 17311 C 3047.91 -5.55375 -1.86963 0
M  V30 17312 N 3047.86 -4.09448 -2.16152 0
M  V30 17313 H 3050.7 -7.45574 -4.45629 0
M  V30 17314 H 3050.97 -5.85864 -3.679 0
M  V30 17315 H 3050.1 -7.84412 -2.24479 0
M  V30 17316 H 3047.45 -5.73457 -0.888562 0
M  V30 17317 H 3047.17 -5.90877 -3.88583 0
M  V30 17318 H 3046.18 -6.6596 -2.58858 0
M  V30 17319 H 3048.01 -8.16339 -3.92049 0
M  V30 17320 P 3046.14 -8.7635 -1.60911 0
M  V30 17321 O 3045.92 -10.1388 -1.11561 0
M  V30 17322 O 3045.35 -8.36503 -2.79617 0
M  V30 17323 O 3045.89 -7.71806 -0.42951 0
M  V30 17324 C 3046.83 -7.67148 0.673689 0
M  V30 17325 C 3046.1 -7.33374 1.95559 0
M  V30 17326 O 3045.89 -5.88721 2.00726 0
M  V30 17327 C 3044.7 -7.92526 2.10483 0
M  V30 17328 O 3044.31 -8.02971 3.47653 0
M  V30 17329 C 3043.82 -6.89602 1.41652 0
M  V30 17330 C 3044.53 -5.59201 1.75185 0
M  V30 17331 N 3044.48 -4.58235 0.662552 0
M  V30 17332 H 3047.32 -8.65116 0.777161 0
M  V30 17333 H 3047.59 -6.90173 0.474152 0
M  V30 17334 H 3046.73 -7.66548 2.79458 0
M  V30 17335 P 3042.76 -8.03563 3.84925 0
M  V30 17336 O 3042.54 -8.85821 5.0569 0
M  V30 17337 O 3041.97 -8.41101 2.65469 0
M  V30 17338 O 3042.51 -6.4965 4.18908 0
M  V30 17339 C 3043.45 -5.81037 5.05421 0
M  V30 17340 C 3042.72 -4.78366 5.89277 0
M  V30 17341 O 3042.51 -3.58302 5.08433 0
M  V30 17342 C 3041.32 -5.17448 6.36119 0
M  V30 17343 O 3040.93 -4.45271 7.53232 0
M  V30 17344 C 3040.44 -4.74639 5.19936 0
M  V30 17345 C 3041.15 -3.49432 4.70418 0
M  V30 17346 N 3041.1 -3.31776 3.22945 0
M  V30 17347 H 3043.94 -6.54213 5.71376 0
M  V30 17348 H 3044.21 -5.30492 4.44033 0
M  V30 17349 H 3043.35 -4.55889 6.76652 0
M  V30 17350 P 3039.38 -4.23843 7.83734 0
M  V30 17351 O 3039.16 -4.19407 9.29784 0
M  V30 17352 O 3038.59 -5.24426 7.09156 0
M  V30 17353 O 3039.13 -2.7935 7.20758 0
M  V30 17354 C 3040.07 -1.7299 7.50419 0
M  V30 17355 C 3039.34 -0.406376 7.57911 0
M  V30 17356 O 3039.13 0.0897726 6.21935 0
M  V30 17357 C 3037.94 -0.447224 8.1878 0
M  V30 17358 O 3037.55 0.825065 8.71101 0
M  V30 17359 C 3037.06 -0.783801 6.99623 0
M  V30 17360 C 3037.77 -0.0619192 5.85967 0
M  V30 17361 N 3037.72 -0.790462 4.56202 0
M  V30 17362 H 3040.56 -1.93423 8.4679 0
M  V30 17363 H 3040.83 -1.68852 6.70877 0
M  V30 17364 H 3039.97 0.289041 8.15388 0
M  V30 17365 H 3037.31 0.927006 5.72848 0
M  V30 17366 H 3037.03 -1.86973 6.82036 0
M  V30 17367 H 3036.04 -0.403953 7.13357 0
M  V30 17368 H 3037.87 -1.20599 8.97534 0
M  V30 17369 P 3036 1.17771 8.83182 0
M  V30 17370 O 3035.78 2.07206 9.98732 0
M  V30 17371 O 3035.21 -0.0743816 8.81969 0
M  V30 17372 O 3035.75 1.97652 7.47304 0
M  V30 17373 C 3036.69 3.01133 7.08783 0
M  V30 17374 C 3035.96 4.12613 6.37049 0
M  V30 17375 O 3035.75 3.72827 4.97879 0
M  V30 17376 C 3034.56 4.45085 6.88694 0
M  V30 17377 O 3034.17 5.7877 6.5624 0
M  V30 17378 C 3033.68 3.47817 6.12078 0
M  V30 17379 C 3034.39 3.39414 4.77697 0
M  V30 17380 N 3034.34 2.04615 4.15333 0
M  V30 17381 H 3037.18 3.41248 7.98759 0
M  V30 17382 H 3037.45 2.5837 6.41742 0
M  V30 17383 H 3036.59 5.02657 6.42673 0
M  V30 17384 P 3032.62 6.144 6.45285 0
M  V30 17385 O 3032.4 7.54673 6.86199 0
M  V30 17386 O 3031.83 5.12391 7.179 0
M  V30 17387 O 3032.37 5.99158 4.88404 0
M  V30 17388 C 3033.31 6.60234 3.96415 0
M  V30 17389 C 3032.58 7.08259 2.72856 0
M  V30 17390 O 3032.37 5.9427 1.83651 0
M  V30 17391 C 3031.18 7.64886 2.9555 0
M  V30 17392 O 3030.79 8.53963 1.90717 0
M  V30 17393 C 3030.3 6.4116 2.90739 0
M  V30 17394 C 3031.01 5.55375 1.86963 0
M  V30 17395 N 3030.96 4.09664 2.15742 0
M  V30 17396 H 3033.8 7.45574 4.45629 0
M  V30 17397 H 3034.07 5.86232 3.67314 0
M  V30 17398 H 3033.21 7.84412 2.24479 0
M  V30 17399 P 3029.24 8.7635 1.60911 0
M  V30 17400 O 3029.02 10.1388 1.11561 0
M  V30 17401 O 3028.45 8.36503 2.79617 0
M  V30 17402 O 3028.99 7.71806 0.42951 0
M  V30 17403 C 3029.93 7.67148 -0.673689 0
M  V30 17404 C 3029.2 7.33374 -1.95559 0
M  V30 17405 O 3028.99 5.88721 -2.00726 0
M  V30 17406 C 3027.8 7.92526 -2.10483 0
M  V30 17407 O 3027.41 8.02971 -3.47653 0
M  V30 17408 C 3026.92 6.89602 -1.41652 0
M  V30 17409 C 3027.63 5.59201 -1.75185 0
M  V30 17410 N 3027.58 4.58301 -0.657969 0
M  V30 17411 H 3030.42 8.65116 -0.777161 0
M  V30 17412 H 3030.69 6.9022 -0.46725 0
M  V30 17413 H 3029.83 7.66548 -2.79458 0
M  V30 17414 H 3027.17 5.16165 -2.65183 0
M  V30 17415 H 3026.89 7.06433 -0.329384 0
M  V30 17416 H 3025.9 6.90926 -1.82021 0
M  V30 17417 H 3027.73 8.90873 -1.62657 0
M  V30 17418 P 3025.86 8.03563 -3.84925 0
M  V30 17419 O 3025.64 8.85821 -5.0569 0
M  V30 17420 O 3025.07 8.41101 -2.65469 0
M  V30 17421 O 3025.61 6.4965 -4.18908 0
M  V30 17422 C 3026.55 5.80886 -5.05289 0
M  V30 17423 C 3025.82 4.78366 -5.89277 0
M  V30 17424 O 3025.61 3.58302 -5.08433 0
M  V30 17425 C 3024.42 5.16748 -6.36559 0
M  V30 17426 O 3024.03 4.45271 -7.53232 0
M  V30 17427 C 3023.54 4.74572 -5.19863 0
M  V30 17428 C 3024.25 3.49373 -4.70338 0
M  V30 17429 N 3024.2 3.31704 -3.22876 0
M  V30 17430 C 3024.05 2.03326 -2.74871 0
M  V30 17431 O 3023.96 1.06486 -3.48076 0
M  V30 17432 N 3024.01 1.91838 -1.37456 0
M  V30 17433 C 3024.1 2.94295 -0.462035 0
M  V30 17434 O 3024.05 2.71763 0.752928 0
M  V30 17435 C 3024.25 4.25064 -1.05249 0
M  V30 17436 C 3024.36 5.39815 -0.095697 0
M  V30 17437 C 3024.3 4.40214 -2.39192 0
M  V30 17438 H 3027.04 6.54063 -5.71245 0
M  V30 17439 H 3027.31 5.30339 -4.43905 0
M  V30 17440 H 3026.45 4.55889 -6.76652 0
M  V30 17441 H 3023.79 2.6167 -5.17842 0
M  V30 17442 H 3023.51 5.52155 -4.41878 0
M  V30 17443 H 3022.52 4.51918 -5.53297 0
M  V30 17444 H 3024.35 6.25055 -6.55162 0
M  V30 17445 H 3024.42 5.39798 -2.81523 0
M  V30 17446 H 3023.39 5.91593 -0.0279582 0
M  V30 17447 H 3025.13 6.10038 -0.450573 0
M  V30 17448 H 3024.64 5.02007 0.89937 0
M  V30 17449 H 3023.91 0.995326 -1.00435 0
M  V30 17450 P 3022.48 4.23843 -7.83734 0
M  V30 17451 O 3022.26 4.19407 -9.29784 0
M  V30 17452 O 3021.69 5.24426 -7.09156 0
M  V30 17453 O 3022.23 2.7935 -7.20758 0
M  V30 17454 C 3023.17 1.7299 -7.50419 0
M  V30 17455 C 3022.44 0.406376 -7.57911 0
M  V30 17456 O 3022.23 -0.0897726 -6.21935 0
M  V30 17457 C 3021.04 0.447224 -8.1878 0
M  V30 17458 O 3020.65 -0.825065 -8.71101 0
M  V30 17459 C 3020.16 0.783801 -6.99623 0
M  V30 17460 C 3020.87 0.0619192 -5.85967 0
M  V30 17461 N 3020.82 0.790462 -4.56202 0
M  V30 17462 H 3023.66 1.93423 -8.4679 0
M  V30 17463 H 3023.93 1.68852 -6.70877 0
M  V30 17464 H 3023.07 -0.289041 -8.15388 0
M  V30 17465 H 3020.41 -0.927006 -5.72848 0
M  V30 17466 H 3020.13 1.86973 -6.82036 0
M  V30 17467 H 3019.14 0.403953 -7.13357 0
M  V30 17468 H 3020.97 1.20599 -8.97534 0
M  V30 17469 P 3019.1 -1.17771 -8.83182 0
M  V30 17470 O 3018.88 -2.07206 -9.98732 0
M  V30 17471 O 3018.31 0.0743816 -8.81969 0
M  V30 17472 O 3018.85 -1.97652 -7.47304 0
M  V30 17473 C 3019.79 -3.01133 -7.08783 0
M  V30 17474 C 3019.06 -4.12613 -6.37049 0
M  V30 17475 O 3018.85 -3.72827 -4.97879 0
M  V30 17476 C 3017.66 -4.45085 -6.88694 0
M  V30 17477 O 3017.27 -5.7877 -6.5624 0
M  V30 17478 C 3016.78 -3.47817 -6.12078 0
M  V30 17479 C 3017.49 -3.39414 -4.77697 0
M  V30 17480 N 3017.44 -2.04199 -4.15538 0
M  V30 17481 H 3020.28 -3.41248 -7.98759 0
M  V30 17482 H 3020.55 -2.57728 -6.42 0
M  V30 17483 H 3019.69 -5.02657 -6.42673 0
M  V30 17484 H 3017.03 -4.11708 -4.08956 0
M  V30 17485 H 3016.75 -2.49626 -6.61679 0
M  V30 17486 H 3015.76 -3.8662 -6.00862 0
M  V30 17487 H 3017.59 -4.29991 -7.97006 0
M  V30 17488 P 3015.72 -6.144 -6.45285 0
M  V30 17489 O 3015.5 -7.54673 -6.86199 0
M  V30 17490 O 3014.93 -5.12391 -7.179 0
M  V30 17491 O 3015.47 -5.99158 -4.88404 0
M  V30 17492 C 3016.41 -6.60234 -3.96415 0
M  V30 17493 C 3015.68 -7.08259 -2.72856 0
M  V30 17494 O 3015.47 -5.9427 -1.83651 0
M  V30 17495 C 3014.28 -7.64886 -2.9555 0
M  V30 17496 O 3013.89 -8.53963 -1.90717 0
M  V30 17497 C 3013.4 -6.4116 -2.90739 0
M  V30 17498 C 3014.11 -5.55375 -1.86963 0
M  V30 17499 N 3014.06 -4.09664 -2.15742 0
M  V30 17500 H 3016.9 -7.45574 -4.45629 0
M  V30 17501 H 3017.17 -5.86232 -3.67314 0
M  V30 17502 H 3016.31 -7.84412 -2.24479 0
M  V30 17503 P 3012.34 -8.7635 -1.60911 0
M  V30 17504 O 3012.12 -10.1388 -1.11561 0
M  V30 17505 O 3011.55 -8.36503 -2.79617 0
M  V30 17506 O 3012.09 -7.71806 -0.42951 0
M  V30 17507 C 3013.03 -7.67148 0.673689 0
M  V30 17508 C 3012.3 -7.33374 1.95559 0
M  V30 17509 O 3012.09 -5.88721 2.00726 0
M  V30 17510 C 3010.9 -7.92526 2.10483 0
M  V30 17511 O 3010.51 -8.02971 3.47653 0
M  V30 17512 C 3010.02 -6.89602 1.41652 0
M  V30 17513 C 3010.73 -5.59201 1.75185 0
M  V30 17514 N 3010.68 -4.58235 0.662552 0
M  V30 17515 C 3010.76 -4.7683 -0.704049 0
M  V30 17516 N 3010.68 -3.66233 -1.39775 0
M  V30 17517 C 3010.54 -2.66526 -0.431739 0
M  V30 17518 C 3010.41 -1.26394 -0.575992 0
M  V30 17519 N 3010.29 -0.62859 0.67177 0
M  V30 17520 C 3010.29 -1.27134 1.89385 0
M  V30 17521 N 3010.16 -0.492035 2.96951 0
M  V30 17522 N 3010.42 -2.58978 2.02907 0
M  V30 17523 C 3010.54 -3.22433 0.832218 0
M  V30 17524 H 3013.52 -8.65116 0.777161 0
M  V30 17525 H 3013.79 -6.90173 0.474152 0
M  V30 17526 H 3012.93 -7.66548 2.79458 0
M  V30 17527 P 3008.96 -8.03563 3.84925 0
M  V30 17528 O 3008.74 -8.85821 5.0569 0
M  V30 17529 O 3008.17 -8.41101 2.65469 0
M  V30 17530 O 3008.71 -6.4965 4.18908 0
M  V30 17531 C 3009.65 -5.81037 5.05421 0
M  V30 17532 C 3008.92 -4.78366 5.89277 0
M  V30 17533 O 3008.71 -3.58302 5.08433 0
M  V30 17534 C 3007.52 -5.17448 6.36119 0
M  V30 17535 O 3007.13 -4.45271 7.53232 0
M  V30 17536 C 3006.64 -4.74639 5.19936 0
M  V30 17537 C 3007.35 -3.49432 4.70418 0
M  V30 17538 N 3007.3 -3.32099 3.22613 0
M  V30 17539 H 3010.14 -6.54213 5.71376 0
M  V30 17540 H 3010.41 -5.30936 4.43503 0
M  V30 17541 H 3009.55 -4.55889 6.76652 0
M  V30 17542 H 3006.89 -2.61715 5.17932 0
M  V30 17543 H 3006.61 -5.52155 4.41878 0
M  V30 17544 H 3005.62 -4.51981 5.53374 0
M  V30 17545 H 3007.45 -6.25124 6.55234 0
M  V30 17546 P 3005.58 -4.23843 7.83734 0
M  V30 17547 O 3005.36 -4.19407 9.29784 0
M  V30 17548 O 3004.79 -5.24426 7.09156 0
M  V30 17549 O 3005.33 -2.7935 7.20758 0
M  V30 17550 C 3006.27 -1.7299 7.50419 0
M  V30 17551 C 3005.54 -0.406376 7.57911 0
M  V30 17552 O 3005.33 0.0897726 6.21935 0
M  V30 17553 C 3004.14 -0.447224 8.1878 0
M  V30 17554 O 3003.75 0.825065 8.71101 0
M  V30 17555 C 3003.26 -0.783801 6.99623 0
M  V30 17556 C 3003.97 -0.0619192 5.85967 0
M  V30 17557 N 3003.92 -0.7859 4.56281 0
M  V30 17558 H 3006.76 -1.93423 8.4679 0
M  V30 17559 H 3007.03 -1.68181 6.71046 0
M  V30 17560 H 3006.17 0.289041 8.15388 0
M  V30 17561 P 3002.2 1.17771 8.83182 0
M  V30 17562 O 3001.98 2.07206 9.98732 0
M  V30 17563 O 3001.41 -0.0743816 8.81969 0
M  V30 17564 O 3001.95 1.97652 7.47304 0
M  V30 17565 C 3002.89 3.01133 7.08783 0
M  V30 17566 C 3002.16 4.12613 6.37049 0
M  V30 17567 O 3001.95 3.72827 4.97879 0
M  V30 17568 C 3000.76 4.45085 6.88694 0
M  V30 17569 O 3000.37 5.7877 6.5624 0
M  V30 17570 C 2999.88 3.47817 6.12078 0
M  V30 17571 C 3000.59 3.39414 4.77697 0
M  V30 17572 N 3000.54 2.04199 4.15538 0
M  V30 17573 H 3003.38 3.41248 7.98759 0
M  V30 17574 H 3003.65 2.57728 6.42 0
M  V30 17575 H 3002.79 5.02657 6.42673 0
M  V30 17576 H 3000.13 4.11708 4.08956 0
M  V30 17577 H 2999.85 2.49626 6.61679 0
M  V30 17578 H 2998.86 3.8662 6.00862 0
M  V30 17579 H 3000.69 4.29991 7.97006 0
M  V30 17580 P 2998.82 6.144 6.45285 0
M  V30 17581 O 2998.6 7.54673 6.86199 0
M  V30 17582 O 2998.03 5.12391 7.179 0
M  V30 17583 O 2998.57 5.99158 4.88404 0
M  V30 17584 C 2999.51 6.60062 3.96313 0
M  V30 17585 C 2998.78 7.08259 2.72856 0
M  V30 17586 O 2998.57 5.9427 1.83651 0
M  V30 17587 C 2997.38 7.65087 2.94749 0
M  V30 17588 O 2996.99 8.53963 1.90717 0
M  V30 17589 C 2996.5 6.41069 2.90698 0
M  V30 17590 C 2997.21 5.5528 1.86931 0
M  V30 17591 N 2997.16 4.09575 2.15696 0
M  V30 17592 C 2997.01 3.24249 1.08435 0
M  V30 17593 O 2996.92 3.63946 -0.0628747 0
M  V30 17594 N 2996.97 1.90009 1.39973 0
M  V30 17595 C 2997.06 1.34884 2.65614 0
M  V30 17596 O 2997.01 0.123716 2.81728 0
M  V30 17597 C 2997.21 2.3145 3.71736 0
M  V30 17598 C 2997.32 1.75913 5.10438 0
M  V30 17599 C 2997.26 3.63518 3.44754 0
M  V30 17600 H 3000 7.45402 4.45526 0
M  V30 17601 H 3000.27 5.86062 3.67208 0
M  V30 17602 H 2999.41 7.84412 2.24479 0
M  V30 17603 H 2996.75 5.73358 0.888409 0
M  V30 17604 H 2996.47 5.90877 3.88583 0
M  V30 17605 H 2995.48 6.65867 2.58821 0
M  V30 17606 H 2997.31 8.16248 3.92006 0
M  V30 17607 H 2997.38 4.34551 4.26383 0
M  V30 17608 H 2996.35 1.85471 5.61775 0
M  V30 17609 H 2998.09 2.31364 5.66257 0
M  V30 17610 H 2997.6 0.695936 5.05229 0
M  V30 17611 H 2996.87 1.26277 0.63625 0
M  V30 17612 P 2995.44 8.7635 1.60911 0
M  V30 17613 O 2995.22 10.1388 1.11561 0
M  V30 17614 O 2994.65 8.36503 2.79617 0
M  V30 17615 O 2995.19 7.71806 0.42951 0
M  V30 17616 C 2996.13 7.66948 -0.673514 0
M  V30 17617 C 2995.4 7.33374 -1.95559 0
M  V30 17618 O 2995.19 5.88721 -2.00726 0
M  V30 17619 C 2994 7.92218 -2.1125 0
M  V30 17620 O 2993.61 8.02971 -3.47653 0
M  V30 17621 C 2993.12 6.89504 -1.41631 0
M  V30 17622 C 2993.83 5.59106 -1.75155 0
M  V30 17623 N 2993.78 4.58136 -0.662409 0
M  V30 17624 C 2993.63 3.26059 -1.02863 0
M  V30 17625 O 2993.54 2.90743 -2.19009 0
M  V30 17626 N 2993.59 2.35995 0.0155585 0
M  V30 17627 C 2993.68 2.65248 1.35603 0
M  V30 17628 O 2993.63 1.75605 2.20651 0
M  V30 17629 C 2993.83 4.05747 1.64698 0
M  V30 17630 C 2993.94 4.42345 3.09553 0
M  V30 17631 C 2993.88 4.96734 0.652411 0
M  V30 17632 H 2996.62 8.64917 -0.776982 0
M  V30 17633 H 2996.89 6.89974 -0.474015 0
M  V30 17634 H 2996.03 7.66548 -2.79458 0
M  V30 17635 H 2993.37 5.16076 -2.65138 0
M  V30 17636 H 2993.09 7.06433 -0.329384 0
M  V30 17637 H 2992.1 6.90829 -1.81996 0
M  V30 17638 H 2993.93 8.90774 -1.62639 0
M  V30 17639 H 2994 6.02181 0.895285 0
M  V30 17640 H 2992.97 4.80252 3.45468 0
M  V30 17641 H 2994.71 5.20015 3.22119 0
M  V30 17642 H 2994.22 3.53269 3.67833 0
M  V30 17643 H 2993.49 1.39558 -0.227499 0
M  V30 17644 P 2992.06 8.03563 -3.84925 0
M  V30 17645 O 2991.84 8.85821 -5.0569 0
M  V30 17646 O 2991.27 8.41101 -2.65469 0
M  V30 17647 O 2991.81 6.4965 -4.18908 0
M  V30 17648 C 2992.75 5.81037 -5.05421 0
M  V30 17649 C 2992.02 4.78366 -5.89277 0
M  V30 17650 O 2991.81 3.58302 -5.08433 0
M  V30 17651 C 2990.62 5.17448 -6.36119 0
M  V30 17652 O 2990.23 4.45271 -7.53232 0
M  V30 17653 C 2989.74 4.74639 -5.19936 0
M  V30 17654 C 2990.45 3.49432 -4.70418 0
M  V30 17655 N 2990.4 3.32099 -3.22613 0
M  V30 17656 H 2993.24 6.54213 -5.71376 0
M  V30 17657 H 2993.51 5.30936 -4.43503 0
M  V30 17658 H 2992.65 4.55889 -6.76652 0
M  V30 17659 H 2989.99 2.61715 -5.17932 0
M  V30 17660 H 2989.71 5.52155 -4.41878 0
M  V30 17661 H 2988.72 4.51981 -5.53374 0
M  V30 17662 H 2990.55 6.25124 -6.55234 0
M  V30 17663 P 2988.68 4.23843 -7.83734 0
M  V30 17664 O 2988.46 4.19407 -9.29784 0
M  V30 17665 O 2987.89 5.24426 -7.09156 0
M  V30 17666 O 2988.43 2.7935 -7.20758 0
M  V30 17667 C 2989.37 1.7299 -7.50419 0
M  V30 17668 C 2988.64 0.406376 -7.57911 0
M  V30 17669 O 2988.43 -0.0897726 -6.21935 0
M  V30 17670 C 2987.24 0.447224 -8.1878 0
M  V30 17671 O 2986.85 -0.825065 -8.71101 0
M  V30 17672 C 2986.36 0.783801 -6.99623 0
M  V30 17673 C 2987.07 0.0619192 -5.85967 0
M  V30 17674 N 2987.02 0.790462 -4.56202 0
M  V30 17675 C 2987.1 2.13895 -4.34171 0
M  V30 17676 N 2987.03 2.46449 -3.08687 0
M  V30 17677 C 2986.88 1.2525 -2.43697 0
M  V30 17678 C 2986.75 0.914535 -1.07318 0
M  V30 17679 N 2986.74 1.80782 -0.0887348 0
M  V30 17680 N 2986.63 -0.386745 -0.768133 0
M  V30 17681 C 2986.64 -1.28096 -1.75159 0
M  V30 17682 N 2986.76 -1.09708 -3.04861 0
M  V30 17683 C 2986.88 0.214857 -3.32306 0
M  V30 17684 H 2989.86 1.93423 -8.4679 0
M  V30 17685 H 2990.13 1.68852 -6.70877 0
M  V30 17686 H 2989.27 -0.289041 -8.15388 0
M  V30 17687 H 2986.61 -0.927006 -5.72848 0
M  V30 17688 H 2986.33 1.86973 -6.82036 0
M  V30 17689 H 2985.34 0.403953 -7.13357 0
M  V30 17690 H 2987.17 1.20599 -8.97534 0
M  V30 17691 H 2987.21 2.86846 -5.14318 0
M  V30 17692 H 2986.83 2.81082 -0.302037 0
M  V30 17693 H 2986.64 1.49688 0.889064 0
M  V30 17694 H 2986.54 -2.31317 -1.43855 0
M  V30 17695 P 2985.3 -1.17771 -8.83182 0
M  V30 17696 O 2985.08 -2.07206 -9.98732 0
M  V30 17697 O 2984.51 0.0743816 -8.81969 0
M  V30 17698 O 2985.05 -1.97652 -7.47304 0
M  V30 17699 C 2985.99 -3.01133 -7.08783 0
M  V30 17700 C 2985.26 -4.12613 -6.37049 0
M  V30 17701 O 2985.05 -3.72827 -4.97879 0
M  V30 17702 C 2983.86 -4.45085 -6.88694 0
M  V30 17703 O 2983.47 -5.7877 -6.5624 0
M  V30 17704 C 2982.98 -3.47817 -6.12078 0
M  V30 17705 C 2983.69 -3.39414 -4.77697 0
M  V30 17706 N 2983.64 -2.04615 -4.15333 0
M  V30 17707 H 2986.48 -3.41248 -7.98759 0
M  V30 17708 H 2986.75 -2.5837 -6.41742 0
M  V30 17709 H 2985.89 -5.02657 -6.42673 0
M  V30 17710 P 2981.92 -6.144 -6.45285 0
M  V30 17711 O 2981.7 -7.54673 -6.86199 0
M  V30 17712 O 2981.13 -5.12391 -7.179 0
M  V30 17713 O 2981.67 -5.99236 -4.88467 0
M  V30 17714 C 2982.61 -6.60234 -3.96415 0
M  V30 17715 C 2981.88 -7.08079 -2.736 0
M  V30 17716 O 2981.67 -5.94365 -1.8368 0
M  V30 17717 C 2980.48 -7.64886 -2.9555 0
M  V30 17718 O 2980.09 -8.5406 -1.90739 0
M  V30 17719 C 2979.6 -6.4116 -2.90739 0
M  V30 17720 C 2980.31 -5.55375 -1.86963 0
M  V30 17721 N 2980.26 -4.09664 -2.15742 0
M  V30 17722 C 2980.11 -3.22231 -1.08477 0
M  V30 17723 O 2980.02 -3.68951 0.0600489 0
M  V30 17724 N 2980.06 -1.76692 -1.48799 0
M  V30 17725 C 2980.16 -1.41695 -2.57602 0
M  V30 17726 N 2980.11 -0.107296 -2.75791 0
M  V30 17727 C 2980.31 -2.29178 -3.69733 0
M  V30 17728 C 2980.36 -3.62753 -3.42653 0
M  V30 17729 H 2983.1 -7.45488 -4.45578 0
M  V30 17730 H 2983.37 -5.86232 -3.67314 0
M  V30 17731 H 2982.51 -7.84508 -2.24507 0
M  V30 17732 H 2979.85 -5.73556 -0.888715 0
M  V30 17733 H 2979.57 -5.9096 -3.88638 0
M  V30 17734 H 2978.58 -6.66053 -2.58894 0
M  V30 17735 H 2980.41 -8.16339 -3.92049 0
M  V30 17736 H 2980.49 -4.33052 -4.24913 0
M  V30 17737 H 2980.38 -1.9103 -4.71577 0
M  V30 17738 H 2980 0.521221 -1.95056 0
M  V30 17739 H 2980.19 0.286429 -3.70695 0
M  V30 17740 P 2978.54 -8.7635 -1.60911 0
M  V30 17741 O 2978.32 -10.1388 -1.11561 0
M  V30 17742 O 2977.75 -8.36503 -2.79617 0
M  V30 17743 O 2978.29 -7.71806 -0.42951 0
M  V30 17744 C 2979.23 -7.67148 0.673689 0
M  V30 17745 C 2978.5 -7.33374 1.95559 0
M  V30 17746 O 2978.29 -5.88721 2.00726 0
M  V30 17747 C 2977.1 -7.92526 2.10483 0
M  V30 17748 O 2976.71 -8.02971 3.47653 0
M  V30 17749 C 2976.22 -6.89602 1.41652 0
M  V30 17750 C 2976.93 -5.59201 1.75185 0
M  V30 17751 N 2976.88 -4.58235 0.662552 0
M  V30 17752 H 2979.72 -8.65116 0.777161 0
M  V30 17753 H 2979.99 -6.90173 0.474152 0
M  V30 17754 H 2979.13 -7.66548 2.79458 0
M  V30 17755 P 2975.16 -8.03563 3.84925 0
M  V30 17756 O 2974.94 -8.85821 5.0569 0
M  V30 17757 O 2974.37 -8.41101 2.65469 0
M  V30 17758 O 2974.91 -6.4965 4.18908 0
M  V30 17759 C 2975.85 -5.81037 5.05421 0
M  V30 17760 C 2975.12 -4.78366 5.89277 0
M  V30 17761 O 2974.91 -3.58302 5.08433 0
M  V30 17762 C 2973.72 -5.17448 6.36119 0
M  V30 17763 O 2973.33 -4.45271 7.53232 0
M  V30 17764 C 2972.84 -4.74639 5.19936 0
M  V30 17765 C 2973.55 -3.49432 4.70418 0
M  V30 17766 N 2973.5 -3.31776 3.22945 0
M  V30 17767 H 2976.34 -6.54213 5.71376 0
M  V30 17768 H 2976.61 -5.30492 4.44033 0
M  V30 17769 H 2975.75 -4.55889 6.76652 0
M  V30 17770 P 2971.78 -4.23843 7.83734 0
M  V30 17771 O 2971.56 -4.19407 9.29784 0
M  V30 17772 O 2970.99 -5.24426 7.09156 0
M  V30 17773 O 2971.53 -2.7935 7.20758 0
M  V30 17774 C 2972.47 -1.7299 7.50419 0
M  V30 17775 C 2971.74 -0.406376 7.57911 0
M  V30 17776 O 2971.53 0.0897726 6.21935 0
M  V30 17777 C 2970.34 -0.447224 8.1878 0
M  V30 17778 O 2969.95 0.825065 8.71101 0
M  V30 17779 C 2969.46 -0.783801 6.99623 0
M  V30 17780 C 2970.17 -0.0619192 5.85967 0
M  V30 17781 N 2970.12 -0.7859 4.56281 0
M  V30 17782 H 2972.96 -1.93423 8.4679 0
M  V30 17783 H 2973.23 -1.68181 6.71046 0
M  V30 17784 H 2972.37 0.289041 8.15388 0
M  V30 17785 P 2968.4 1.17771 8.83182 0
M  V30 17786 O 2968.18 2.07206 9.98732 0
M  V30 17787 O 2967.61 -0.0743816 8.81969 0
M  V30 17788 O 2968.15 1.97652 7.47304 0
M  V30 17789 C 2969.09 3.01133 7.08783 0
M  V30 17790 C 2968.36 4.12613 6.37049 0
M  V30 17791 O 2968.15 3.72827 4.97879 0
M  V30 17792 C 2966.96 4.45085 6.88694 0
M  V30 17793 O 2966.57 5.7877 6.5624 0
M  V30 17794 C 2966.08 3.47817 6.12078 0
M  V30 17795 C 2966.79 3.39414 4.77697 0
M  V30 17796 N 2966.74 2.04199 4.15538 0
M  V30 17797 H 2969.58 3.41248 7.98759 0
M  V30 17798 H 2969.85 2.57728 6.42 0
M  V30 17799 H 2968.99 5.02657 6.42673 0
M  V30 17800 H 2966.33 4.11708 4.08956 0
M  V30 17801 H 2966.05 2.49626 6.61679 0
M  V30 17802 H 2965.06 3.8662 6.00862 0
M  V30 17803 H 2966.89 4.29991 7.97006 0
M  V30 17804 P 2965.02 6.144 6.45285 0
M  V30 17805 O 2964.8 7.54673 6.86199 0
M  V30 17806 O 2964.23 5.12391 7.179 0
M  V30 17807 O 2964.77 5.99158 4.88404 0
M  V30 17808 C 2965.71 6.60234 3.96415 0
M  V30 17809 C 2964.98 7.08259 2.72856 0
M  V30 17810 O 2964.77 5.9427 1.83651 0
M  V30 17811 C 2963.58 7.64886 2.9555 0
M  V30 17812 O 2963.19 8.53963 1.90717 0
M  V30 17813 C 2962.7 6.4116 2.90739 0
M  V30 17814 C 2963.41 5.55375 1.86963 0
M  V30 17815 N 2963.36 4.09664 2.15742 0
M  V30 17816 H 2966.2 7.45574 4.45629 0
M  V30 17817 H 2966.47 5.86232 3.67314 0
M  V30 17818 H 2965.61 7.84412 2.24479 0
M  V30 17819 P 2961.64 8.7635 1.60911 0
M  V30 17820 O 2961.42 10.1388 1.11561 0
M  V30 17821 O 2960.85 8.36503 2.79617 0
M  V30 17822 O 2961.39 7.71806 0.42951 0
M  V30 17823 C 2962.33 7.67148 -0.673689 0
M  V30 17824 C 2961.6 7.33374 -1.95559 0
M  V30 17825 O 2961.39 5.88721 -2.00726 0
M  V30 17826 C 2960.2 7.92526 -2.10483 0
M  V30 17827 O 2959.81 8.02971 -3.47653 0
M  V30 17828 C 2959.32 6.89602 -1.41652 0
M  V30 17829 C 2960.03 5.59201 -1.75185 0
M  V30 17830 N 2959.98 4.58235 -0.662552 0
M  V30 17831 H 2962.82 8.65116 -0.777161 0
M  V30 17832 H 2963.09 6.90173 -0.474152 0
M  V30 17833 H 2962.23 7.66548 -2.79458 0
M  V30 17834 P 2958.26 8.03563 -3.84925 0
M  V30 17835 O 2958.04 8.85821 -5.0569 0
M  V30 17836 O 2957.47 8.41101 -2.65469 0
M  V30 17837 O 2958.01 6.4965 -4.18908 0
M  V30 17838 C 2958.95 5.81037 -5.05421 0
M  V30 17839 C 2958.22 4.78366 -5.89277 0
M  V30 17840 O 2958.01 3.58302 -5.08433 0
M  V30 17841 C 2956.82 5.17448 -6.36119 0
M  V30 17842 O 2956.43 4.45271 -7.53232 0
M  V30 17843 C 2955.94 4.74639 -5.19936 0
M  V30 17844 C 2956.65 3.49432 -4.70418 0
M  V30 17845 N 2956.6 3.32099 -3.22613 0
M  V30 17846 C 2956.68 4.28245 -2.25527 0
M  V30 17847 N 2956.61 3.80823 -1.04874 0
M  V30 17848 C 2956.46 2.44571 -1.23535 0
M  V30 17849 C 2956.33 1.37068 -0.330675 0
M  V30 17850 N 2956.32 1.51472 0.990824 0
M  V30 17851 N 2956.21 0.138614 -0.848756 0
M  V30 17852 C 2956.22 -0.00675923 -2.16999 0
M  V30 17853 N 2956.34 0.904372 -3.11122 0
M  V30 17854 C 2956.46 2.12707 -2.56212 0
M  V30 17855 H 2959.44 6.54213 -5.71376 0
M  V30 17856 H 2959.71 5.30936 -4.43503 0
M  V30 17857 H 2958.85 4.55889 -6.76652 0
M  V30 17858 H 2956.19 2.61715 -5.17932 0
M  V30 17859 H 2955.91 5.52155 -4.41878 0
M  V30 17860 H 2954.92 4.51981 -5.53374 0
M  V30 17861 H 2956.75 6.25124 -6.55234 0
M  V30 17862 H 2956.79 5.34372 -2.47488 0
M  V30 17863 H 2956.41 2.45153 1.4078 0
M  V30 17864 H 2956.22 0.688422 1.59911 0
M  V30 17865 H 2956.12 -1.02584 -2.52346 0
M  V30 17866 P 2954.88 4.23843 -7.83734 0
M  V30 17867 O 2954.66 4.19407 -9.29784 0
M  V30 17868 O 2954.09 5.24426 -7.09156 0
M  V30 17869 O 2954.63 2.7935 -7.20758 0
M  V30 17870 C 2955.57 1.7299 -7.50419 0
M  V30 17871 C 2954.84 0.406376 -7.57911 0
M  V30 17872 O 2954.63 -0.0897726 -6.21935 0
M  V30 17873 C 2953.44 0.447224 -8.1878 0
M  V30 17874 O 2953.05 -0.825065 -8.71101 0
M  V30 17875 C 2952.56 0.783801 -6.99623 0
M  V30 17876 C 2953.27 0.0619192 -5.85967 0
M  V30 17877 N 2953.22 0.790462 -4.56202 0
M  V30 17878 H 2956.06 1.93423 -8.4679 0
M  V30 17879 H 2956.33 1.68852 -6.70877 0
M  V30 17880 H 2955.47 -0.289041 -8.15388 0
M  V30 17881 H 2952.81 -0.927006 -5.72848 0
M  V30 17882 H 2952.53 1.86973 -6.82036 0
M  V30 17883 H 2951.54 0.403953 -7.13357 0
M  V30 17884 H 2953.37 1.20599 -8.97534 0
M  V30 17885 P 2951.5 -1.17771 -8.83182 0
M  V30 17886 O 2951.28 -2.07206 -9.98732 0
M  V30 17887 O 2950.71 0.0743816 -8.81969 0
M  V30 17888 O 2951.25 -1.97652 -7.47304 0
M  V30 17889 C 2952.19 -3.01133 -7.08783 0
M  V30 17890 C 2951.46 -4.12613 -6.37049 0
M  V30 17891 O 2951.25 -3.72827 -4.97879 0
M  V30 17892 C 2950.06 -4.45085 -6.88694 0
M  V30 17893 O 2949.67 -5.7877 -6.5624 0
M  V30 17894 C 2949.18 -3.47817 -6.12078 0
M  V30 17895 C 2949.89 -3.39414 -4.77697 0
M  V30 17896 N 2949.84 -2.04615 -4.15333 0
M  V30 17897 H 2952.68 -3.41248 -7.98759 0
M  V30 17898 H 2952.95 -2.5837 -6.41742 0
M  V30 17899 H 2952.09 -5.02657 -6.42673 0
M  V30 17900 P 2948.12 -6.144 -6.45285 0
M  V30 17901 O 2947.9 -7.54673 -6.86199 0
M  V30 17902 O 2947.33 -5.12391 -7.179 0
M  V30 17903 O 2947.87 -5.99158 -4.88404 0
M  V30 17904 C 2948.81 -6.60234 -3.96415 0
M  V30 17905 C 2948.08 -7.08259 -2.72856 0
M  V30 17906 O 2947.87 -5.9427 -1.83651 0
M  V30 17907 C 2946.68 -7.64886 -2.9555 0
M  V30 17908 O 2946.29 -8.53963 -1.90717 0
M  V30 17909 C 2945.8 -6.4116 -2.90739 0
M  V30 17910 C 2946.51 -5.55375 -1.86963 0
M  V30 17911 N 2946.46 -4.09664 -2.15742 0
M  V30 17912 H 2949.3 -7.45574 -4.45629 0
M  V30 17913 H 2949.57 -5.86232 -3.67314 0
M  V30 17914 H 2948.71 -7.84412 -2.24479 0
M  V30 17915 P 2944.74 -8.7635 -1.60911 0
M  V30 17916 O 2944.52 -10.1388 -1.11561 0
M  V30 17917 O 2943.95 -8.36503 -2.79617 0
M  V30 17918 O 2944.49 -7.71806 -0.42951 0
M  V30 17919 C 2945.43 -7.67148 0.673689 0
M  V30 17920 C 2944.7 -7.33374 1.95559 0
M  V30 17921 O 2944.49 -5.88721 2.00726 0
M  V30 17922 C 2943.3 -7.92526 2.10483 0
M  V30 17923 O 2942.91 -8.02971 3.47653 0
M  V30 17924 C 2942.42 -6.89602 1.41652 0
M  V30 17925 C 2943.13 -5.59201 1.75185 0
M  V30 17926 N 2943.08 -4.58235 0.662552 0
M  V30 17927 H 2945.92 -8.65116 0.777161 0
M  V30 17928 H 2946.19 -6.90173 0.474152 0
M  V30 17929 H 2945.33 -7.66548 2.79458 0
M  V30 17930 P 2941.36 -8.03563 3.84925 0
M  V30 17931 O 2941.14 -8.85821 5.0569 0
M  V30 17932 O 2940.57 -8.41101 2.65469 0
M  V30 17933 O 2941.11 -6.4965 4.18908 0
M  V30 17934 C 2942.05 -5.81037 5.05421 0
M  V30 17935 C 2941.32 -4.78366 5.89277 0
M  V30 17936 O 2941.11 -3.58302 5.08433 0
M  V30 17937 C 2939.92 -5.17448 6.36119 0
M  V30 17938 O 2939.53 -4.45271 7.53232 0
M  V30 17939 C 2939.04 -4.74639 5.19936 0
M  V30 17940 C 2939.75 -3.49432 4.70418 0
M  V30 17941 N 2939.7 -3.31776 3.22945 0
M  V30 17942 H 2942.54 -6.54213 5.71376 0
M  V30 17943 H 2942.81 -5.30492 4.44033 0
M  V30 17944 H 2941.95 -4.55889 6.76652 0
M  V30 17945 P 2937.98 -4.23843 7.83734 0
M  V30 17946 O 2937.76 -4.19407 9.29784 0
M  V30 17947 O 2937.19 -5.24426 7.09156 0
M  V30 17948 O 2937.73 -2.7935 7.20758 0
M  V30 17949 C 2938.67 -1.7299 7.50419 0
M  V30 17950 C 2937.94 -0.406376 7.57911 0
M  V30 17951 O 2937.73 0.0897726 6.21935 0
M  V30 17952 C 2936.54 -0.447224 8.1878 0
M  V30 17953 O 2936.15 0.825065 8.71101 0
M  V30 17954 C 2935.66 -0.783801 6.99623 0
M  V30 17955 C 2936.37 -0.0619192 5.85967 0
M  V30 17956 N 2936.32 -0.790462 4.56202 0
M  V30 17957 C 2936.4 -2.13895 4.34171 0
M  V30 17958 N 2936.33 -2.46449 3.08687 0
M  V30 17959 C 2936.18 -1.2525 2.43697 0
M  V30 17960 C 2936.05 -0.914535 1.07318 0
M  V30 17961 N 2936.04 -1.80782 0.0887348 0
M  V30 17962 N 2935.93 0.386745 0.768133 0
M  V30 17963 C 2935.94 1.28096 1.75159 0
M  V30 17964 N 2936.06 1.09708 3.04861 0
M  V30 17965 C 2936.18 -0.214857 3.32306 0
M  V30 17966 H 2939.16 -1.93423 8.4679 0
M  V30 17967 H 2939.43 -1.68852 6.70877 0
M  V30 17968 H 2938.57 0.289041 8.15388 0
M  V30 17969 H 2935.91 0.927006 5.72848 0
M  V30 17970 H 2935.63 -1.86973 6.82036 0
M  V30 17971 H 2934.64 -0.403953 7.13357 0
M  V30 17972 H 2936.47 -1.20599 8.97534 0
M  V30 17973 H 2936.51 -2.86846 5.14318 0
M  V30 17974 H 2936.13 -2.81082 0.302037 0
M  V30 17975 H 2935.94 -1.49688 -0.889064 0
M  V30 17976 H 2935.84 2.31317 1.43855 0
M  V30 17977 P 2934.6 1.17771 8.83182 0
M  V30 17978 O 2934.38 2.07206 9.98732 0
M  V30 17979 O 2933.81 -0.0743816 8.81969 0
M  V30 17980 O 2934.35 1.97652 7.47304 0
M  V30 17981 C 2935.29 3.01133 7.08783 0
M  V30 17982 C 2934.56 4.12613 6.37049 0
M  V30 17983 O 2934.35 3.72827 4.97879 0
M  V30 17984 C 2933.16 4.45085 6.88694 0
M  V30 17985 O 2932.77 5.7877 6.5624 0
M  V30 17986 C 2932.28 3.47817 6.12078 0
M  V30 17987 C 2932.99 3.39414 4.77697 0
M  V30 17988 N 2932.94 2.04615 4.15333 0
M  V30 17989 C 2933.02 0.803897 4.75249 0
M  V30 17990 N 2932.94 -0.197615 3.91502 0
M  V30 17991 C 2932.8 0.413002 2.66823 0
M  V30 17992 C 2932.67 -0.157221 1.38007 0
M  V30 17993 N 2932.55 0.833136 0.390236 0
M  V30 17994 C 2932.55 2.19402 0.623885 0
M  V30 17995 N 2932.42 2.97622 -0.449677 0
M  V30 17996 N 2932.68 2.73005 1.83601 0
M  V30 17997 C 2932.8 1.78786 2.80935 0
M  V30 17998 H 2935.78 3.41248 7.98759 0
M  V30 17999 H 2936.05 2.5837 6.41742 0
M  V30 18000 H 2935.19 5.02657 6.42673 0
M  V30 18001 P 2931.22 6.144 6.45285 0
M  V30 18002 O 2931 7.54673 6.86199 0
M  V30 18003 O 2930.43 5.12391 7.179 0
M  V30 18004 O 2930.97 5.99158 4.88404 0
M  V30 18005 C 2931.91 6.60234 3.96415 0
M  V30 18006 C 2931.18 7.08259 2.72856 0
M  V30 18007 O 2930.97 5.9427 1.83651 0
M  V30 18008 C 2929.78 7.64886 2.9555 0
M  V30 18009 O 2929.39 8.53963 1.90717 0
M  V30 18010 C 2928.9 6.4116 2.90739 0
M  V30 18011 C 2929.61 5.55375 1.86963 0
M  V30 18012 N 2929.56 4.09448 2.16152 0
M  V30 18013 H 2932.4 7.45574 4.45629 0
M  V30 18014 H 2932.67 5.85864 3.679 0
M  V30 18015 H 2931.81 7.84412 2.24479 0
M  V30 18016 H 2929.15 5.73457 0.888562 0
M  V30 18017 H 2928.87 5.90877 3.88583 0
M  V30 18018 H 2927.88 6.6596 2.58858 0
M  V30 18019 H 2929.71 8.16339 3.92049 0
M  V30 18020 P 2927.84 8.7635 1.60911 0
M  V30 18021 O 2927.62 10.1388 1.11561 0
M  V30 18022 O 2927.05 8.36503 2.79617 0
M  V30 18023 O 2927.59 7.71806 0.42951 0
M  V30 18024 C 2928.53 7.67148 -0.673689 0
M  V30 18025 C 2927.8 7.33374 -1.95559 0
M  V30 18026 O 2927.59 5.88721 -2.00726 0
M  V30 18027 C 2926.4 7.92526 -2.10483 0
M  V30 18028 O 2926.01 8.02971 -3.47653 0
M  V30 18029 C 2925.52 6.89602 -1.41652 0
M  V30 18030 C 2926.23 5.59201 -1.75185 0
M  V30 18031 N 2926.18 4.58235 -0.662552 0
M  V30 18032 H 2929.02 8.65116 -0.777161 0
M  V30 18033 H 2929.29 6.90173 -0.474152 0
M  V30 18034 H 2928.43 7.66548 -2.79458 0
M  V30 18035 P 2924.46 8.03563 -3.84925 0
M  V30 18036 O 2924.24 8.85821 -5.0569 0
M  V30 18037 O 2923.67 8.41101 -2.65469 0
M  V30 18038 O 2924.21 6.4965 -4.18908 0
M  V30 18039 C 2925.15 5.81037 -5.05421 0
M  V30 18040 C 2924.42 4.78366 -5.89277 0
M  V30 18041 O 2924.21 3.58302 -5.08433 0
M  V30 18042 C 2923.02 5.17448 -6.36119 0
M  V30 18043 O 2922.63 4.45271 -7.53232 0
M  V30 18044 C 2922.14 4.74639 -5.19936 0
M  V30 18045 C 2922.85 3.49432 -4.70418 0
M  V30 18046 N 2922.8 3.31776 -3.22945 0
M  V30 18047 H 2925.64 6.54213 -5.71376 0
M  V30 18048 H 2925.91 5.30492 -4.44033 0
M  V30 18049 H 2925.05 4.55889 -6.76652 0
M  V30 18050 P 2921.08 4.23843 -7.83734 0
M  V30 18051 O 2920.86 4.19407 -9.29784 0
M  V30 18052 O 2920.29 5.24426 -7.09156 0
M  V30 18053 O 2920.83 2.7935 -7.20758 0
M  V30 18054 C 2921.77 1.7299 -7.50419 0
M  V30 18055 C 2921.04 0.406376 -7.57911 0
M  V30 18056 O 2920.83 -0.0897726 -6.21935 0
M  V30 18057 C 2919.64 0.447224 -8.1878 0
M  V30 18058 O 2919.25 -0.825065 -8.71101 0
M  V30 18059 C 2918.76 0.783801 -6.99623 0
M  V30 18060 C 2919.47 0.0619192 -5.85967 0
M  V30 18061 N 2919.42 0.7859 -4.56281 0
M  V30 18062 H 2922.26 1.93423 -8.4679 0
M  V30 18063 H 2922.53 1.68181 -6.71046 0
M  V30 18064 H 2921.67 -0.289041 -8.15388 0
M  V30 18065 P 2917.7 -1.17771 -8.83182 0
M  V30 18066 O 2917.48 -2.07206 -9.98732 0
M  V30 18067 O 2916.91 0.0743816 -8.81969 0
M  V30 18068 O 2917.45 -1.97652 -7.47304 0
M  V30 18069 C 2918.39 -3.01133 -7.08783 0
M  V30 18070 C 2917.66 -4.12613 -6.37049 0
M  V30 18071 O 2917.45 -3.72827 -4.97879 0
M  V30 18072 C 2916.26 -4.45085 -6.88694 0
M  V30 18073 O 2915.87 -5.7877 -6.5624 0
M  V30 18074 C 2915.38 -3.47817 -6.12078 0
M  V30 18075 C 2916.09 -3.39414 -4.77697 0
M  V30 18076 N 2916.04 -2.04615 -4.15333 0
M  V30 18077 H 2918.88 -3.41248 -7.98759 0
M  V30 18078 H 2919.15 -2.5837 -6.41742 0
M  V30 18079 H 2918.29 -5.02657 -6.42673 0
M  V30 18080 P 2914.32 -6.144 -6.45285 0
M  V30 18081 O 2914.1 -7.54673 -6.86199 0
M  V30 18082 O 2913.53 -5.12391 -7.179 0
M  V30 18083 O 2914.07 -5.99158 -4.88404 0
M  V30 18084 C 2915.01 -6.60234 -3.96415 0
M  V30 18085 C 2914.28 -7.08259 -2.72856 0
M  V30 18086 O 2914.07 -5.9427 -1.83651 0
M  V30 18087 C 2912.88 -7.64886 -2.9555 0
M  V30 18088 O 2912.49 -8.53963 -1.90717 0
M  V30 18089 C 2912 -6.4116 -2.90739 0
M  V30 18090 C 2912.71 -5.55375 -1.86963 0
M  V30 18091 N 2912.66 -4.09664 -2.15742 0
M  V30 18092 H 2915.5 -7.45574 -4.45629 0
M  V30 18093 H 2915.77 -5.86232 -3.67314 0
M  V30 18094 H 2914.91 -7.84412 -2.24479 0
M  V30 18095 P 2910.94 -8.7635 -1.60911 0
M  V30 18096 O 2910.72 -10.1388 -1.11561 0
M  V30 18097 O 2910.15 -8.36503 -2.79617 0
M  V30 18098 O 2910.69 -7.71806 -0.42951 0
M  V30 18099 C 2911.63 -7.67148 0.673689 0
M  V30 18100 C 2910.9 -7.33374 1.95559 0
M  V30 18101 O 2910.69 -5.88721 2.00726 0
M  V30 18102 C 2909.5 -7.92526 2.10483 0
M  V30 18103 O 2909.11 -8.02971 3.47653 0
M  V30 18104 C 2908.62 -6.89602 1.41652 0
M  V30 18105 C 2909.33 -5.59201 1.75185 0
M  V30 18106 N 2909.28 -4.58301 0.657969 0
M  V30 18107 H 2912.12 -8.65116 0.777161 0
M  V30 18108 H 2912.39 -6.9022 0.46725 0
M  V30 18109 H 2911.53 -7.66548 2.79458 0
M  V30 18110 H 2908.87 -5.16165 2.65183 0
M  V30 18111 H 2908.59 -7.06433 0.329384 0
M  V30 18112 H 2907.6 -6.90926 1.82021 0
M  V30 18113 H 2909.43 -8.90873 1.62657 0
M  V30 18114 P 2907.56 -8.03563 3.84925 0
M  V30 18115 O 2907.34 -8.85821 5.0569 0
M  V30 18116 O 2906.77 -8.41101 2.65469 0
M  V30 18117 O 2907.31 -6.4965 4.18908 0
M  V30 18118 C 2908.25 -5.81037 5.05421 0
M  V30 18119 C 2907.52 -4.78366 5.89277 0
M  V30 18120 O 2907.31 -3.58302 5.08433 0
M  V30 18121 C 2906.12 -5.17448 6.36119 0
M  V30 18122 O 2905.73 -4.45271 7.53232 0
M  V30 18123 C 2905.24 -4.74639 5.19936 0
M  V30 18124 C 2905.95 -3.49432 4.70418 0
M  V30 18125 N 2905.9 -3.32099 3.22613 0
M  V30 18126 H 2908.74 -6.54213 5.71376 0
M  V30 18127 H 2909.01 -5.30936 4.43503 0
M  V30 18128 H 2908.15 -4.55889 6.76652 0
M  V30 18129 H 2905.49 -2.61715 5.17932 0
M  V30 18130 H 2905.21 -5.52155 4.41878 0
M  V30 18131 H 2904.22 -4.51981 5.53374 0
M  V30 18132 H 2906.05 -6.25124 6.55234 0
M  V30 18133 P 2904.18 -4.23843 7.83734 0
M  V30 18134 O 2903.96 -4.19407 9.29784 0
M  V30 18135 O 2903.39 -5.24426 7.09156 0
M  V30 18136 O 2903.93 -2.7935 7.20758 0
M  V30 18137 C 2904.87 -1.7299 7.50419 0
M  V30 18138 C 2904.14 -0.406376 7.57911 0
M  V30 18139 O 2903.93 0.0897726 6.21935 0
M  V30 18140 C 2902.74 -0.447224 8.1878 0
M  V30 18141 O 2902.35 0.825065 8.71101 0
M  V30 18142 C 2901.86 -0.783801 6.99623 0
M  V30 18143 C 2902.57 -0.0619192 5.85967 0
M  V30 18144 N 2902.52 -0.790462 4.56202 0
M  V30 18145 H 2905.36 -1.93423 8.4679 0
M  V30 18146 H 2905.63 -1.68852 6.70877 0
M  V30 18147 H 2904.77 0.289041 8.15388 0
M  V30 18148 H 2902.11 0.927006 5.72848 0
M  V30 18149 H 2901.83 -1.86973 6.82036 0
M  V30 18150 H 2900.84 -0.403953 7.13357 0
M  V30 18151 H 2902.67 -1.20599 8.97534 0
M  V30 18152 P 2900.8 1.17771 8.83182 0
M  V30 18153 O 2900.58 2.07206 9.98732 0
M  V30 18154 O 2900.01 -0.0743816 8.81969 0
M  V30 18155 O 2900.55 1.97652 7.47304 0
M  V30 18156 C 2901.49 3.01133 7.08783 0
M  V30 18157 C 2900.76 4.12613 6.37049 0
M  V30 18158 O 2900.55 3.72827 4.97879 0
M  V30 18159 C 2899.36 4.45085 6.88694 0
M  V30 18160 O 2898.97 5.7877 6.5624 0
M  V30 18161 C 2898.48 3.47817 6.12078 0
M  V30 18162 C 2899.19 3.39414 4.77697 0
M  V30 18163 N 2899.14 2.04615 4.15333 0
M  V30 18164 H 2901.98 3.41248 7.98759 0
M  V30 18165 H 2902.25 2.5837 6.41742 0
M  V30 18166 H 2901.39 5.02657 6.42673 0
M  V30 18167 P 2897.42 6.144 6.45285 0
M  V30 18168 O 2897.2 7.54673 6.86199 0
M  V30 18169 O 2896.63 5.12391 7.179 0
M  V30 18170 O 2897.17 5.99158 4.88404 0
M  V30 18171 C 2898.11 6.60234 3.96415 0
M  V30 18172 C 2897.38 7.08259 2.72856 0
M  V30 18173 O 2897.17 5.9427 1.83651 0
M  V30 18174 C 2895.98 7.64886 2.9555 0
M  V30 18175 O 2895.59 8.53963 1.90717 0
M  V30 18176 C 2895.1 6.4116 2.90739 0
M  V30 18177 C 2895.81 5.55375 1.86963 0
M  V30 18178 N 2895.76 4.09664 2.15742 0
M  V30 18179 H 2898.6 7.45574 4.45629 0
M  V30 18180 H 2898.87 5.86232 3.67314 0
M  V30 18181 H 2898.01 7.84412 2.24479 0
M  V30 18182 P 2894.04 8.7635 1.60911 0
M  V30 18183 O 2893.82 10.1388 1.11561 0
M  V30 18184 O 2893.25 8.36503 2.79617 0
M  V30 18185 O 2893.79 7.71806 0.42951 0
M  V30 18186 C 2894.73 7.67148 -0.673689 0
M  V30 18187 C 2894 7.33374 -1.95559 0
M  V30 18188 O 2893.79 5.88721 -2.00726 0
M  V30 18189 C 2892.6 7.92526 -2.10483 0
M  V30 18190 O 2892.21 8.02971 -3.47653 0
M  V30 18191 C 2891.72 6.89602 -1.41652 0
M  V30 18192 C 2892.43 5.59201 -1.75185 0
M  V30 18193 N 2892.38 4.58301 -0.657969 0
M  V30 18194 H 2895.22 8.65116 -0.777161 0
M  V30 18195 H 2895.49 6.9022 -0.46725 0
M  V30 18196 H 2894.63 7.66548 -2.79458 0
M  V30 18197 H 2891.97 5.16165 -2.65183 0
M  V30 18198 H 2891.69 7.06433 -0.329384 0
M  V30 18199 H 2890.7 6.90926 -1.82021 0
M  V30 18200 H 2892.53 8.90873 -1.62657 0
M  V30 18201 P 2890.66 8.03563 -3.84925 0
M  V30 18202 O 2890.44 8.85821 -5.0569 0
M  V30 18203 O 2889.87 8.41101 -2.65469 0
M  V30 18204 O 2890.41 6.4965 -4.18908 0
M  V30 18205 C 2891.35 5.81037 -5.05421 0
M  V30 18206 C 2890.62 4.78366 -5.89277 0
M  V30 18207 O 2890.41 3.58302 -5.08433 0
M  V30 18208 C 2889.22 5.17448 -6.36119 0
M  V30 18209 O 2888.83 4.45271 -7.53232 0
M  V30 18210 C 2888.34 4.74639 -5.19936 0
M  V30 18211 C 2889.05 3.49432 -4.70418 0
M  V30 18212 N 2889 3.32099 -3.22613 0
M  V30 18213 C 2889.08 4.28245 -2.25527 0
M  V30 18214 N 2889.01 3.80823 -1.04874 0
M  V30 18215 C 2888.86 2.44571 -1.23535 0
M  V30 18216 C 2888.73 1.37068 -0.330675 0
M  V30 18217 N 2888.72 1.51472 0.990824 0
M  V30 18218 N 2888.61 0.138614 -0.848756 0
M  V30 18219 C 2888.62 -0.00675923 -2.16999 0
M  V30 18220 N 2888.74 0.904372 -3.11122 0
M  V30 18221 C 2888.86 2.12707 -2.56212 0
M  V30 18222 H 2891.84 6.54213 -5.71376 0
M  V30 18223 H 2892.11 5.30936 -4.43503 0
M  V30 18224 H 2891.25 4.55889 -6.76652 0
M  V30 18225 H 2888.59 2.61715 -5.17932 0
M  V30 18226 H 2888.31 5.52155 -4.41878 0
M  V30 18227 H 2887.32 4.51981 -5.53374 0
M  V30 18228 H 2889.15 6.25124 -6.55234 0
M  V30 18229 H 2889.19 5.34372 -2.47488 0
M  V30 18230 H 2888.81 2.45153 1.4078 0
M  V30 18231 H 2888.62 0.688422 1.59911 0
M  V30 18232 H 2888.52 -1.02584 -2.52346 0
M  V30 18233 P 2887.28 4.23843 -7.83734 0
M  V30 18234 O 2887.06 4.19407 -9.29784 0
M  V30 18235 O 2886.49 5.24426 -7.09156 0
M  V30 18236 O 2887.03 2.7935 -7.20758 0
M  V30 18237 C 2887.97 1.7299 -7.50419 0
M  V30 18238 C 2887.24 0.406376 -7.57911 0
M  V30 18239 O 2887.03 -0.0897726 -6.21935 0
M  V30 18240 C 2885.84 0.447224 -8.1878 0
M  V30 18241 O 2885.45 -0.825065 -8.71101 0
M  V30 18242 C 2884.96 0.783801 -6.99623 0
M  V30 18243 C 2885.67 0.0619192 -5.85967 0
M  V30 18244 N 2885.62 0.7859 -4.56281 0
M  V30 18245 H 2888.46 1.93423 -8.4679 0
M  V30 18246 H 2888.73 1.68181 -6.71046 0
M  V30 18247 H 2887.87 -0.289041 -8.15388 0
M  V30 18248 P 2883.9 -1.17771 -8.83182 0
M  V30 18249 O 2883.68 -2.07206 -9.98732 0
M  V30 18250 O 2883.11 0.0743816 -8.81969 0
M  V30 18251 O 2883.65 -1.97652 -7.47304 0
M  V30 18252 C 2884.59 -3.01133 -7.08783 0
M  V30 18253 C 2883.86 -4.12613 -6.37049 0
M  V30 18254 O 2883.65 -3.72827 -4.97879 0
M  V30 18255 C 2882.46 -4.45085 -6.88694 0
M  V30 18256 O 2882.07 -5.7877 -6.5624 0
M  V30 18257 C 2881.58 -3.47817 -6.12078 0
M  V30 18258 C 2882.29 -3.39414 -4.77697 0
M  V30 18259 N 2882.24 -2.04615 -4.15333 0
M  V30 18260 H 2885.08 -3.41248 -7.98759 0
M  V30 18261 H 2885.35 -2.5837 -6.41742 0
M  V30 18262 H 2884.49 -5.02657 -6.42673 0
M  V30 18263 P 2880.52 -6.144 -6.45285 0
M  V30 18264 O 2880.3 -7.54673 -6.86199 0
M  V30 18265 O 2879.73 -5.12391 -7.179 0
M  V30 18266 O 2880.27 -5.99158 -4.88404 0
M  V30 18267 C 2881.21 -6.60234 -3.96415 0
M  V30 18268 C 2880.48 -7.08259 -2.72856 0
M  V30 18269 O 2880.27 -5.9427 -1.83651 0
M  V30 18270 C 2879.08 -7.64886 -2.9555 0
M  V30 18271 O 2878.69 -8.53963 -1.90717 0
M  V30 18272 C 2878.2 -6.4116 -2.90739 0
M  V30 18273 C 2878.91 -5.55375 -1.86963 0
M  V30 18274 N 2878.86 -4.09448 -2.16152 0
M  V30 18275 C 2878.94 -3.46824 -3.37593 0
M  V30 18276 N 2878.87 -2.17422 -3.29777 0
M  V30 18277 C 2878.72 -1.93065 -1.94427 0
M  V30 18278 C 2878.59 -0.738053 -1.20141 0
M  V30 18279 N 2878.58 0.474256 -1.74676 0
M  V30 18280 N 2878.47 -0.850049 0.13045 0
M  V30 18281 C 2878.48 -2.06169 0.676992 0
M  V30 18282 N 2878.6 -3.23842 0.101312 0
M  V30 18283 C 2878.72 -3.09402 -1.23122 0
M  V30 18284 H 2881.7 -7.45574 -4.45629 0
M  V30 18285 H 2881.97 -5.85864 -3.679 0
M  V30 18286 H 2881.11 -7.84412 -2.24479 0
M  V30 18287 H 2878.45 -5.73457 -0.888562 0
M  V30 18288 H 2878.17 -5.90877 -3.88583 0
M  V30 18289 H 2877.18 -6.6596 -2.58858 0
M  V30 18290 H 2879.01 -8.16339 -3.92049 0
M  V30 18291 H 2879.05 -4.00505 -4.3174 0
M  V30 18292 H 2878.67 0.581337 -2.76658 0
M  V30 18293 H 2878.48 1.30811 -1.14888 0
M  V30 18294 H 2878.38 -2.08295 1.75542 0
M  V30 18295 P 2877.14 -8.7635 -1.60911 0
M  V30 18296 O 2876.92 -10.1388 -1.11561 0
M  V30 18297 O 2876.35 -8.36503 -2.79617 0
M  V30 18298 O 2876.89 -7.71906 -0.429565 0
M  V30 18299 C 2877.83 -7.67148 0.673689 0
M  V30 18300 C 2877.1 -7.33666 1.94851 0
M  V30 18301 O 2876.89 -5.88816 2.00759 0
M  V30 18302 C 2875.7 -7.92526 2.10483 0
M  V30 18303 O 2875.31 -8.03063 3.47693 0
M  V30 18304 C 2874.82 -6.89602 1.41652 0
M  V30 18305 C 2875.53 -5.59201 1.75185 0
M  V30 18306 N 2875.48 -4.58235 0.662552 0
M  V30 18307 C 2875.33 -3.24451 1.01643 0
M  V30 18308 O 2875.24 -2.94958 2.21722 0
M  V30 18309 N 2875.28 -2.30408 -0.165238 0
M  V30 18310 C 2875.38 -2.66048 -1.25118 0
M  V30 18311 N 2875.33 -1.70787 -2.16813 0
M  V30 18312 C 2875.53 -4.02732 -1.64413 0
M  V30 18313 C 2875.58 -4.9488 -0.63991 0
M  V30 18314 H 2878.32 -8.65017 0.777072 0
M  V30 18315 H 2878.59 -6.90173 0.474152 0
M  V30 18316 H 2877.73 -7.66642 2.79492 0
M  V30 18317 H 2875.07 -5.16254 2.65229 0
M  V30 18318 H 2874.79 -7.06532 0.329431 0
M  V30 18319 H 2873.8 -6.91023 1.82047 0
M  V30 18320 H 2875.63 -8.90873 1.62657 0
M  V30 18321 H 2875.71 -6.00104 -0.892197 0
M  V30 18322 H 2875.6 -4.31733 -2.69229 0
M  V30 18323 H 2875.22 -0.724835 -1.8844 0
M  V30 18324 H 2875.41 -1.94716 -3.16734 0
M  V30 18325 P 2873.76 -8.03563 3.84925 0
M  V30 18326 O 2873.54 -8.85821 5.0569 0
M  V30 18327 O 2872.97 -8.41101 2.65469 0
M  V30 18328 O 2873.51 -6.4965 4.18908 0
M  V30 18329 C 2874.45 -5.81037 5.05421 0
M  V30 18330 C 2873.72 -4.78366 5.89277 0
M  V30 18331 O 2873.51 -3.58302 5.08433 0
M  V30 18332 C 2872.32 -5.17448 6.36119 0
M  V30 18333 O 2871.93 -4.45271 7.53232 0
M  V30 18334 C 2871.44 -4.74639 5.19936 0
M  V30 18335 C 2872.15 -3.49432 4.70418 0
M  V30 18336 N 2872.1 -3.32099 3.22613 0
M  V30 18337 H 2874.94 -6.54213 5.71376 0
M  V30 18338 H 2875.21 -5.30936 4.43503 0
M  V30 18339 H 2874.35 -4.55889 6.76652 0
M  V30 18340 H 2871.69 -2.61715 5.17932 0
M  V30 18341 H 2871.41 -5.52155 4.41878 0
M  V30 18342 H 2870.42 -4.51981 5.53374 0
M  V30 18343 H 2872.25 -6.25124 6.55234 0
M  V30 18344 P 2870.38 -4.23843 7.83734 0
M  V30 18345 O 2870.16 -4.19407 9.29784 0
M  V30 18346 O 2869.59 -5.24426 7.09156 0
M  V30 18347 O 2870.13 -2.7935 7.20758 0
M  V30 18348 C 2871.07 -1.7299 7.50419 0
M  V30 18349 C 2870.34 -0.406376 7.57911 0
M  V30 18350 O 2870.13 0.0897726 6.21935 0
M  V30 18351 C 2868.94 -0.447224 8.1878 0
M  V30 18352 O 2868.55 0.825065 8.71101 0
M  V30 18353 C 2868.06 -0.783801 6.99623 0
M  V30 18354 C 2868.77 -0.0619192 5.85967 0
M  V30 18355 N 2868.72 -0.7859 4.56281 0
M  V30 18356 H 2871.56 -1.93423 8.4679 0
M  V30 18357 H 2871.83 -1.68181 6.71046 0
M  V30 18358 H 2870.97 0.289041 8.15388 0
M  V30 18359 P 2867 1.17771 8.83182 0
M  V30 18360 O 2866.78 2.07206 9.98732 0
M  V30 18361 O 2866.21 -0.0743816 8.81969 0
M  V30 18362 O 2866.75 1.97652 7.47304 0
M  V30 18363 C 2867.69 3.01133 7.08783 0
M  V30 18364 C 2866.96 4.12613 6.37049 0
M  V30 18365 O 2866.75 3.72827 4.97879 0
M  V30 18366 C 2865.56 4.45085 6.88694 0
M  V30 18367 O 2865.17 5.7877 6.5624 0
M  V30 18368 C 2864.68 3.47817 6.12078 0
M  V30 18369 C 2865.39 3.39414 4.77697 0
M  V30 18370 N 2865.34 2.04615 4.15333 0
M  V30 18371 H 2868.18 3.41248 7.98759 0
M  V30 18372 H 2868.45 2.5837 6.41742 0
M  V30 18373 H 2867.59 5.02657 6.42673 0
M  V30 18374 P 2863.62 6.144 6.45285 0
M  V30 18375 O 2863.4 7.54673 6.86199 0
M  V30 18376 O 2862.83 5.12391 7.179 0
M  V30 18377 O 2863.37 5.99158 4.88404 0
M  V30 18378 C 2864.31 6.60062 3.96313 0
M  V30 18379 C 2863.58 7.08259 2.72856 0
M  V30 18380 O 2863.37 5.9427 1.83651 0
M  V30 18381 C 2862.18 7.65087 2.94749 0
M  V30 18382 O 2861.79 8.53963 1.90717 0
M  V30 18383 C 2861.3 6.41069 2.90698 0
M  V30 18384 C 2862.01 5.5528 1.86931 0
M  V30 18385 N 2861.96 4.09575 2.15696 0
M  V30 18386 C 2861.81 3.24249 1.08435 0
M  V30 18387 O 2861.72 3.63946 -0.0628747 0
M  V30 18388 N 2861.77 1.90009 1.39973 0
M  V30 18389 C 2861.86 1.34884 2.65614 0
M  V30 18390 O 2861.81 0.123716 2.81728 0
M  V30 18391 C 2862.01 2.3145 3.71736 0
M  V30 18392 C 2862.12 1.75913 5.10438 0
M  V30 18393 C 2862.06 3.63518 3.44754 0
M  V30 18394 H 2864.8 7.45402 4.45526 0
M  V30 18395 H 2865.07 5.86062 3.67208 0
M  V30 18396 H 2864.21 7.84412 2.24479 0
M  V30 18397 H 2861.55 5.73358 0.888409 0
M  V30 18398 H 2861.27 5.90877 3.88583 0
M  V30 18399 H 2860.28 6.65867 2.58821 0
M  V30 18400 H 2862.11 8.16248 3.92006 0
M  V30 18401 H 2862.19 4.34551 4.26383 0
M  V30 18402 H 2861.16 1.85471 5.61775 0
M  V30 18403 H 2862.89 2.31364 5.66257 0
M  V30 18404 H 2862.4 0.695936 5.05229 0
M  V30 18405 H 2861.67 1.26277 0.63625 0
M  V30 18406 P 2860.24 8.7635 1.60911 0
M  V30 18407 O 2860.02 10.1388 1.11561 0
M  V30 18408 O 2859.45 8.36503 2.79617 0
M  V30 18409 O 2859.99 7.71806 0.42951 0
M  V30 18410 C 2860.93 7.67148 -0.673689 0
M  V30 18411 C 2860.2 7.33374 -1.95559 0
M  V30 18412 O 2859.99 5.88721 -2.00726 0
M  V30 18413 C 2858.8 7.92526 -2.10483 0
M  V30 18414 O 2858.41 8.02971 -3.47653 0
M  V30 18415 C 2857.92 6.89602 -1.41652 0
M  V30 18416 C 2858.63 5.59201 -1.75185 0
M  V30 18417 N 2858.58 4.58235 -0.662552 0
M  V30 18418 H 2861.42 8.65116 -0.777161 0
M  V30 18419 H 2861.69 6.90173 -0.474152 0
M  V30 18420 H 2860.83 7.66548 -2.79458 0
M  V30 18421 P 2856.86 8.03563 -3.84925 0
M  V30 18422 O 2856.64 8.85821 -5.0569 0
M  V30 18423 O 2856.07 8.41101 -2.65469 0
M  V30 18424 O 2856.61 6.4965 -4.18908 0
M  V30 18425 C 2857.55 5.81037 -5.05421 0
M  V30 18426 C 2856.82 4.78366 -5.89277 0
M  V30 18427 O 2856.61 3.58302 -5.08433 0
M  V30 18428 C 2855.42 5.17448 -6.36119 0
M  V30 18429 O 2855.03 4.45271 -7.53232 0
M  V30 18430 C 2854.54 4.74639 -5.19936 0
M  V30 18431 C 2855.25 3.49432 -4.70418 0
M  V30 18432 N 2855.2 3.31776 -3.22945 0
M  V30 18433 C 2855.28 4.27147 -2.23315 0
M  V30 18434 N 2855.2 3.78447 -1.02186 0
M  V30 18435 C 2855.06 2.41001 -1.21732 0
M  V30 18436 C 2854.93 1.36111 -0.27694 0
M  V30 18437 O 2854.91 1.42065 0.951767 0
M  V30 18438 N 2854.81 0.113683 -0.912949 0
M  V30 18439 C 2854.81 -0.0846396 -2.27943 0
M  V30 18440 N 2854.68 -1.34737 -2.6916 0
M  V30 18441 N 2854.94 0.902521 -3.16379 0
M  V30 18442 C 2855.06 2.11937 -2.56849 0
M  V30 18443 H 2858.04 6.54213 -5.71376 0
M  V30 18444 H 2858.31 5.30492 -4.44033 0
M  V30 18445 H 2857.45 4.55889 -6.76652 0
M  V30 18446 H 2854.79 2.6176 -5.18021 0
M  V30 18447 H 2854.51 5.52233 -4.41941 0
M  V30 18448 H 2853.52 4.52045 -5.53452 0
M  V30 18449 H 2855.35 6.25193 -6.55307 0
M  V30 18450 H 2855.4 5.3351 -2.43857 0
M  V30 18451 H 2854.72 -0.69331 -0.330371 0
M  V30 18452 H 2854.68 -1.56433 -3.6988 0
M  V30 18453 H 2854.58 -2.10701 -2.00133 0
M  V30 18454 P 2853.48 4.23843 -7.83734 0
M  V30 18455 O 2853.26 4.19407 -9.29784 0
M  V30 18456 O 2852.69 5.24426 -7.09156 0
M  V30 18457 O 2853.23 2.7935 -7.20758 0
M  V30 18458 C 2854.17 1.7299 -7.50419 0
M  V30 18459 C 2853.44 0.406376 -7.57911 0
M  V30 18460 O 2853.23 -0.0897726 -6.21935 0
M  V30 18461 C 2852.04 0.447224 -8.1878 0
M  V30 18462 O 2851.65 -0.825065 -8.71101 0
M  V30 18463 C 2851.16 0.783801 -6.99623 0
M  V30 18464 C 2851.87 0.0619192 -5.85967 0
M  V30 18465 N 2851.82 0.790462 -4.56202 0
M  V30 18466 H 2854.66 1.93423 -8.4679 0
M  V30 18467 H 2854.93 1.68852 -6.70877 0
M  V30 18468 H 2854.07 -0.289041 -8.15388 0
M  V30 18469 H 2851.41 -0.927006 -5.72848 0
M  V30 18470 H 2851.13 1.86973 -6.82036 0
M  V30 18471 H 2850.14 0.403953 -7.13357 0
M  V30 18472 H 2851.97 1.20599 -8.97534 0
M  V30 18473 P 2850.1 -1.17771 -8.83182 0
M  V30 18474 O 2849.88 -2.07206 -9.98732 0
M  V30 18475 O 2849.31 0.0743816 -8.81969 0
M  V30 18476 O 2849.85 -1.97652 -7.47304 0
M  V30 18477 C 2850.79 -3.01133 -7.08783 0
M  V30 18478 C 2850.06 -4.12613 -6.37049 0
M  V30 18479 O 2849.85 -3.72827 -4.97879 0
M  V30 18480 C 2848.66 -4.45085 -6.88694 0
M  V30 18481 O 2848.27 -5.7877 -6.5624 0
M  V30 18482 C 2847.78 -3.47817 -6.12078 0
M  V30 18483 C 2848.49 -3.39414 -4.77697 0
M  V30 18484 N 2848.44 -2.04199 -4.15538 0
M  V30 18485 H 2851.28 -3.41248 -7.98759 0
M  V30 18486 H 2851.55 -2.57728 -6.42 0
M  V30 18487 H 2850.69 -5.02657 -6.42673 0
M  V30 18488 H 2848.03 -4.11708 -4.08956 0
M  V30 18489 H 2847.75 -2.49626 -6.61679 0
M  V30 18490 H 2846.76 -3.8662 -6.00862 0
M  V30 18491 H 2848.59 -4.29991 -7.97006 0
M  V30 18492 P 2846.72 -6.144 -6.45285 0
M  V30 18493 O 2846.5 -7.54673 -6.86199 0
M  V30 18494 O 2845.93 -5.12391 -7.179 0
M  V30 18495 O 2846.47 -5.99236 -4.88467 0
M  V30 18496 C 2847.41 -6.60234 -3.96415 0
M  V30 18497 C 2846.68 -7.08079 -2.736 0
M  V30 18498 O 2846.47 -5.94365 -1.8368 0
M  V30 18499 C 2845.28 -7.64886 -2.9555 0
M  V30 18500 O 2844.89 -8.5406 -1.90739 0
M  V30 18501 C 2844.4 -6.4116 -2.90739 0
M  V30 18502 C 2845.11 -5.55375 -1.86963 0
M  V30 18503 N 2845.06 -4.09664 -2.15742 0
M  V30 18504 C 2844.91 -3.22231 -1.08477 0
M  V30 18505 O 2844.82 -3.68951 0.0600489 0
M  V30 18506 N 2844.86 -1.76692 -1.48799 0
M  V30 18507 C 2844.96 -1.41695 -2.57602 0
M  V30 18508 N 2844.91 -0.107296 -2.75791 0
M  V30 18509 C 2845.11 -2.29178 -3.69733 0
M  V30 18510 C 2845.16 -3.62753 -3.42653 0
M  V30 18511 H 2847.9 -7.45488 -4.45578 0
M  V30 18512 H 2848.17 -5.86232 -3.67314 0
M  V30 18513 H 2847.31 -7.84508 -2.24507 0
M  V30 18514 H 2844.65 -5.73556 -0.888715 0
M  V30 18515 H 2844.37 -5.9096 -3.88638 0
M  V30 18516 H 2843.38 -6.66053 -2.58894 0
M  V30 18517 H 2845.21 -8.16339 -3.92049 0
M  V30 18518 H 2845.29 -4.33052 -4.24913 0
M  V30 18519 H 2845.18 -1.9103 -4.71577 0
M  V30 18520 H 2844.8 0.521221 -1.95056 0
M  V30 18521 H 2844.99 0.286429 -3.70695 0
M  V30 18522 P 2843.34 -8.7635 -1.60911 0
M  V30 18523 O 2843.12 -10.1388 -1.11561 0
M  V30 18524 O 2842.55 -8.36503 -2.79617 0
M  V30 18525 O 2843.09 -7.71806 -0.42951 0
M  V30 18526 C 2844.03 -7.67148 0.673689 0
M  V30 18527 C 2843.3 -7.33374 1.95559 0
M  V30 18528 O 2843.09 -5.88721 2.00726 0
M  V30 18529 C 2841.9 -7.92526 2.10483 0
M  V30 18530 O 2841.51 -8.02971 3.47653 0
M  V30 18531 C 2841.02 -6.89602 1.41652 0
M  V30 18532 C 2841.73 -5.59201 1.75185 0
M  V30 18533 N 2841.68 -4.58235 0.662552 0
M  V30 18534 H 2844.52 -8.65116 0.777161 0
M  V30 18535 H 2844.79 -6.90173 0.474152 0
M  V30 18536 H 2843.93 -7.66548 2.79458 0
M  V30 18537 P 2839.96 -8.03563 3.84925 0
M  V30 18538 O 2839.74 -8.85821 5.0569 0
M  V30 18539 O 2839.17 -8.41101 2.65469 0
M  V30 18540 O 2839.71 -6.4965 4.18908 0
M  V30 18541 C 2840.65 -5.81037 5.05421 0
M  V30 18542 C 2839.92 -4.78366 5.89277 0
M  V30 18543 O 2839.71 -3.58302 5.08433 0
M  V30 18544 C 2838.52 -5.17448 6.36119 0
M  V30 18545 O 2838.13 -4.45271 7.53232 0
M  V30 18546 C 2837.64 -4.74639 5.19936 0
M  V30 18547 C 2838.35 -3.49432 4.70418 0
M  V30 18548 N 2838.3 -3.31776 3.22945 0
M  V30 18549 H 2841.14 -6.54213 5.71376 0
M  V30 18550 H 2841.41 -5.30492 4.44033 0
M  V30 18551 H 2840.55 -4.55889 6.76652 0
M  V30 18552 P 2836.58 -4.23843 7.83734 0
M  V30 18553 O 2836.36 -4.19407 9.29784 0
M  V30 18554 O 2835.79 -5.24426 7.09156 0
M  V30 18555 O 2836.33 -2.7935 7.20758 0
M  V30 18556 C 2837.27 -1.7299 7.50419 0
M  V30 18557 C 2836.54 -0.406376 7.57911 0
M  V30 18558 O 2836.33 0.0897726 6.21935 0
M  V30 18559 C 2835.14 -0.447224 8.1878 0
M  V30 18560 O 2834.75 0.825065 8.71101 0
M  V30 18561 C 2834.26 -0.783801 6.99623 0
M  V30 18562 C 2834.97 -0.0619192 5.85967 0
M  V30 18563 N 2834.92 -0.7859 4.56281 0
M  V30 18564 H 2837.76 -1.93423 8.4679 0
M  V30 18565 H 2838.03 -1.68181 6.71046 0
M  V30 18566 H 2837.17 0.289041 8.15388 0
M  V30 18567 P 2833.2 1.17771 8.83182 0
M  V30 18568 O 2832.98 2.07206 9.98732 0
M  V30 18569 O 2832.41 -0.0743816 8.81969 0
M  V30 18570 O 2832.95 1.97678 7.474 0
M  V30 18571 C 2833.89 3.01133 7.08783 0
M  V30 18572 C 2833.16 4.1203 6.37546 0
M  V30 18573 O 2832.95 3.72887 4.9796 0
M  V30 18574 C 2831.76 4.45085 6.88694 0
M  V30 18575 O 2831.37 5.78836 6.56315 0
M  V30 18576 C 2830.88 3.47817 6.12078 0
M  V30 18577 C 2831.59 3.39414 4.77697 0
M  V30 18578 N 2831.54 2.04615 4.15333 0
M  V30 18579 C 2831.39 1.96929 2.77162 0
M  V30 18580 O 2831.3 3.02017 2.12006 0
M  V30 18581 N 2831.34 0.55485 2.24237 0
M  V30 18582 C 2831.44 -0.367808 2.9169 0
M  V30 18583 N 2831.39 -1.53426 2.29427 0
M  V30 18584 C 2831.59 -0.319148 4.33828 0
M  V30 18585 C 2831.64 0.920672 4.90433 0
M  V30 18586 H 2834.38 3.41209 7.98667 0
M  V30 18587 H 2834.65 2.5837 6.41742 0
M  V30 18588 H 2833.79 5.02718 6.42752 0
M  V30 18589 H 2831.13 4.11779 4.09026 0
M  V30 18590 H 2830.85 2.49661 6.61772 0
M  V30 18591 H 2829.86 3.86674 6.00946 0
M  V30 18592 H 2831.69 4.29991 7.97006 0
M  V30 18593 H 2831.77 1.00589 5.98303 0
M  V30 18594 H 2831.66 -1.22639 4.93799 0
M  V30 18595 H 2831.28 -1.56819 1.27167 0
M  V30 18596 H 2831.47 -2.41062 2.83063 0
M  V30 18597 P 2829.82 6.144 6.45285 0
M  V30 18598 O 2829.6 7.54673 6.86199 0
M  V30 18599 O 2829.03 5.12391 7.179 0
M  V30 18600 O 2829.57 5.99158 4.88404 0
M  V30 18601 C 2830.51 6.60234 3.96415 0
M  V30 18602 C 2829.78 7.08259 2.72856 0
M  V30 18603 O 2829.57 5.9427 1.83651 0
M  V30 18604 C 2828.38 7.64886 2.9555 0
M  V30 18605 O 2827.99 8.53963 1.90717 0
M  V30 18606 C 2827.5 6.4116 2.90739 0
M  V30 18607 C 2828.21 5.55375 1.86963 0
M  V30 18608 N 2828.16 4.09664 2.15742 0
M  V30 18609 H 2831 7.45574 4.45629 0
M  V30 18610 H 2831.27 5.86232 3.67314 0
M  V30 18611 H 2830.41 7.84412 2.24479 0
M  V30 18612 P 2826.44 8.7635 1.60911 0
M  V30 18613 O 2826.22 10.1388 1.11561 0
M  V30 18614 O 2825.65 8.36503 2.79617 0
M  V30 18615 O 2826.19 7.71806 0.42951 0
M  V30 18616 C 2827.13 7.66948 -0.673514 0
M  V30 18617 C 2826.4 7.33374 -1.95559 0
M  V30 18618 O 2826.19 5.88721 -2.00726 0
M  V30 18619 C 2825 7.92218 -2.1125 0
M  V30 18620 O 2824.61 8.02971 -3.47653 0
M  V30 18621 C 2824.12 6.89504 -1.41631 0
M  V30 18622 C 2824.83 5.59106 -1.75155 0
M  V30 18623 N 2824.78 4.58136 -0.662409 0
M  V30 18624 C 2824.63 3.26059 -1.02863 0
M  V30 18625 O 2824.54 2.90743 -2.19009 0
M  V30 18626 N 2824.59 2.35995 0.0155585 0
M  V30 18627 C 2824.68 2.65248 1.35603 0
M  V30 18628 C 2824.83 4.05747 1.64698 0
M  V30 18629 C 2824.88 4.96734 0.652411 0
M  V30 18630 H 2827.62 8.64917 -0.776982 0
M  V30 18631 H 2827.89 6.89974 -0.474015 0
M  V30 18632 H 2827.03 7.66548 -2.79458 0
M  V30 18633 H 2824.37 5.16076 -2.65138 0
M  V30 18634 H 2824.09 7.06433 -0.329384 0
M  V30 18635 H 2823.1 6.90829 -1.81996 0
M  V30 18636 H 2824.93 8.90774 -1.62639 0
M  V30 18637 H 2825.01 6.02181 0.895285 0
M  V30 18638 P 2823.06 8.03563 -3.84925 0
M  V30 18639 O 2822.84 8.85821 -5.0569 0
M  V30 18640 O 2822.27 8.41101 -2.65469 0
M  V30 18641 O 2822.81 6.4965 -4.18908 0
M  V30 18642 C 2823.75 5.81037 -5.05421 0
M  V30 18643 C 2823.02 4.78366 -5.89277 0
M  V30 18644 O 2822.81 3.58302 -5.08433 0
M  V30 18645 C 2821.62 5.17448 -6.36119 0
M  V30 18646 O 2821.23 4.45271 -7.53232 0
M  V30 18647 C 2820.74 4.74639 -5.19936 0
M  V30 18648 C 2821.45 3.49432 -4.70418 0
M  V30 18649 N 2821.4 3.31776 -3.22945 0
M  V30 18650 H 2824.24 6.54213 -5.71376 0
M  V30 18651 H 2824.51 5.30492 -4.44033 0
M  V30 18652 H 2823.65 4.55889 -6.76652 0
M  V30 18653 P 2819.68 4.23843 -7.83734 0
M  V30 18654 O 2819.46 4.19407 -9.29784 0
M  V30 18655 O 2818.89 5.24426 -7.09156 0
M  V30 18656 O 2819.43 2.7935 -7.20758 0
M  V30 18657 C 2820.37 1.7299 -7.50419 0
M  V30 18658 C 2819.64 0.406376 -7.57911 0
M  V30 18659 O 2819.43 -0.0897726 -6.21935 0
M  V30 18660 C 2818.24 0.447224 -8.1878 0
M  V30 18661 O 2817.85 -0.825065 -8.71101 0
M  V30 18662 C 2817.36 0.783801 -6.99623 0
M  V30 18663 C 2818.07 0.0619192 -5.85967 0
M  V30 18664 N 2818.02 0.7859 -4.56281 0
M  V30 18665 H 2820.86 1.93423 -8.4679 0
M  V30 18666 H 2821.13 1.68181 -6.71046 0
M  V30 18667 H 2820.27 -0.289041 -8.15388 0
M  V30 18668 P 2816.3 -1.17771 -8.83182 0
M  V30 18669 O 2816.08 -2.07206 -9.98732 0
M  V30 18670 O 2815.51 0.0743816 -8.81969 0
M  V30 18671 O 2816.05 -1.97652 -7.47304 0
M  V30 18672 C 2816.99 -3.01133 -7.08783 0
M  V30 18673 C 2816.26 -4.12613 -6.37049 0
M  V30 18674 O 2816.05 -3.72827 -4.97879 0
M  V30 18675 C 2814.86 -4.45085 -6.88694 0
M  V30 18676 O 2814.47 -5.7877 -6.5624 0
M  V30 18677 C 2813.98 -3.47817 -6.12078 0
M  V30 18678 C 2814.69 -3.39414 -4.77697 0
M  V30 18679 N 2814.64 -2.04615 -4.15333 0
M  V30 18680 H 2817.48 -3.41248 -7.98759 0
M  V30 18681 H 2817.75 -2.5837 -6.41742 0
M  V30 18682 H 2816.89 -5.02657 -6.42673 0
M  V30 18683 P 2812.92 -6.144 -6.45285 0
M  V30 18684 O 2812.7 -7.54673 -6.86199 0
M  V30 18685 O 2812.13 -5.12391 -7.179 0
M  V30 18686 O 2812.67 -5.99158 -4.88404 0
M  V30 18687 C 2813.61 -6.60234 -3.96415 0
M  V30 18688 C 2812.88 -7.08259 -2.72856 0
M  V30 18689 O 2812.67 -5.9427 -1.83651 0
M  V30 18690 C 2811.48 -7.64886 -2.9555 0
M  V30 18691 O 2811.09 -8.53963 -1.90717 0
M  V30 18692 C 2810.6 -6.4116 -2.90739 0
M  V30 18693 C 2811.31 -5.55375 -1.86963 0
M  V30 18694 N 2811.26 -4.09664 -2.15742 0
M  V30 18695 H 2814.1 -7.45574 -4.45629 0
M  V30 18696 H 2814.37 -5.86232 -3.67314 0
M  V30 18697 H 2813.51 -7.84412 -2.24479 0
M  V30 18698 P 2809.54 -8.7635 -1.60911 0
M  V30 18699 O 2809.32 -10.1388 -1.11561 0
M  V30 18700 O 2808.75 -8.36503 -2.79617 0
M  V30 18701 O 2809.29 -7.71806 -0.42951 0
M  V30 18702 C 2810.23 -7.67148 0.673689 0
M  V30 18703 C 2809.5 -7.33374 1.95559 0
M  V30 18704 O 2809.29 -5.88721 2.00726 0
M  V30 18705 C 2808.1 -7.92526 2.10483 0
M  V30 18706 O 2807.71 -8.02971 3.47653 0
M  V30 18707 C 2807.22 -6.89602 1.41652 0
M  V30 18708 C 2807.93 -5.59201 1.75185 0
M  V30 18709 N 2807.88 -4.58235 0.662552 0
M  V30 18710 C 2807.96 -4.7683 -0.704049 0
M  V30 18711 N 2807.88 -3.66233 -1.39775 0
M  V30 18712 C 2807.74 -2.66526 -0.431739 0
M  V30 18713 C 2807.61 -1.26394 -0.575992 0
M  V30 18714 N 2807.49 -0.62859 0.67177 0
M  V30 18715 C 2807.49 -1.27134 1.89385 0
M  V30 18716 N 2807.36 -0.492035 2.96951 0
M  V30 18717 N 2807.62 -2.58978 2.02907 0
M  V30 18718 C 2807.74 -3.22433 0.832218 0
M  V30 18719 H 2810.72 -8.65116 0.777161 0
M  V30 18720 H 2810.99 -6.90173 0.474152 0
M  V30 18721 H 2810.13 -7.66548 2.79458 0
M  V30 18722 P 2806.16 -8.03563 3.84925 0
M  V30 18723 O 2805.94 -8.85821 5.0569 0
M  V30 18724 O 2805.37 -8.41101 2.65469 0
M  V30 18725 O 2805.91 -6.4965 4.18908 0
M  V30 18726 C 2806.85 -5.81037 5.05421 0
M  V30 18727 C 2806.12 -4.78366 5.89277 0
M  V30 18728 O 2805.91 -3.58302 5.08433 0
M  V30 18729 C 2804.72 -5.17448 6.36119 0
M  V30 18730 O 2804.33 -4.45271 7.53232 0
M  V30 18731 C 2803.84 -4.74639 5.19936 0
M  V30 18732 C 2804.55 -3.49432 4.70418 0
M  V30 18733 N 2804.5 -3.31776 3.22945 0
M  V30 18734 H 2807.34 -6.54213 5.71376 0
M  V30 18735 H 2807.61 -5.30492 4.44033 0
M  V30 18736 H 2806.75 -4.55889 6.76652 0
M  V30 18737 P 2802.78 -4.23843 7.83734 0
M  V30 18738 O 2802.56 -4.19407 9.29784 0
M  V30 18739 O 2801.99 -5.24426 7.09156 0
M  V30 18740 O 2802.53 -2.7935 7.20758 0
M  V30 18741 C 2803.47 -1.7299 7.50419 0
M  V30 18742 C 2802.74 -0.406376 7.57911 0
M  V30 18743 O 2802.53 0.0897726 6.21935 0
M  V30 18744 C 2801.34 -0.447224 8.1878 0
M  V30 18745 O 2800.95 0.825065 8.71101 0
M  V30 18746 C 2800.46 -0.783801 6.99623 0
M  V30 18747 C 2801.17 -0.0619192 5.85967 0
M  V30 18748 N 2801.12 -0.790462 4.56202 0
M  V30 18749 H 2803.96 -1.93423 8.4679 0
M  V30 18750 H 2804.23 -1.68852 6.70877 0
M  V30 18751 H 2803.37 0.289041 8.15388 0
M  V30 18752 H 2800.71 0.927006 5.72848 0
M  V30 18753 H 2800.43 -1.86973 6.82036 0
M  V30 18754 H 2799.44 -0.403953 7.13357 0
M  V30 18755 H 2801.27 -1.20599 8.97534 0
M  V30 18756 P 2799.4 1.17771 8.83182 0
M  V30 18757 O 2799.18 2.07206 9.98732 0
M  V30 18758 O 2798.61 -0.0743816 8.81969 0
M  V30 18759 O 2799.15 1.97652 7.47304 0
M  V30 18760 C 2800.09 3.01133 7.08783 0
M  V30 18761 C 2799.36 4.12613 6.37049 0
M  V30 18762 O 2799.15 3.72827 4.97879 0
M  V30 18763 C 2797.96 4.45085 6.88694 0
M  V30 18764 O 2797.57 5.7877 6.5624 0
M  V30 18765 C 2797.08 3.47817 6.12078 0
M  V30 18766 C 2797.79 3.39414 4.77697 0
M  V30 18767 N 2797.74 2.04615 4.15333 0
M  V30 18768 H 2800.58 3.41248 7.98759 0
M  V30 18769 H 2800.85 2.5837 6.41742 0
M  V30 18770 H 2799.99 5.02657 6.42673 0
M  V30 18771 P 2796.02 6.144 6.45285 0
M  V30 18772 O 2795.8 7.54673 6.86199 0
M  V30 18773 O 2795.23 5.12391 7.179 0
M  V30 18774 O 2795.77 5.99236 4.88467 0
M  V30 18775 C 2796.71 6.60234 3.96415 0
M  V30 18776 C 2795.98 7.08079 2.736 0
M  V30 18777 O 2795.77 5.94365 1.8368 0
M  V30 18778 C 2794.58 7.64886 2.9555 0
M  V30 18779 O 2794.19 8.5406 1.90739 0
M  V30 18780 C 2793.7 6.4116 2.90739 0
M  V30 18781 C 2794.41 5.55375 1.86963 0
M  V30 18782 N 2794.36 4.09664 2.15742 0
M  V30 18783 C 2794.21 3.22231 1.08477 0
M  V30 18784 O 2794.12 3.68951 -0.0600489 0
M  V30 18785 N 2794.16 1.76692 1.48799 0
M  V30 18786 C 2794.26 1.41695 2.57602 0
M  V30 18787 N 2794.21 0.107296 2.75791 0
M  V30 18788 C 2794.41 2.29178 3.69733 0
M  V30 18789 C 2794.46 3.62753 3.42653 0
M  V30 18790 H 2797.2 7.45488 4.45578 0
M  V30 18791 H 2797.47 5.86232 3.67314 0
M  V30 18792 H 2796.61 7.84508 2.24507 0
M  V30 18793 H 2793.95 5.73556 0.888715 0
M  V30 18794 H 2793.67 5.9096 3.88638 0
M  V30 18795 H 2792.68 6.66053 2.58894 0
M  V30 18796 H 2794.51 8.16339 3.92049 0
M  V30 18797 H 2794.59 4.33052 4.24913 0
M  V30 18798 H 2794.48 1.9103 4.71577 0
M  V30 18799 H 2794.1 -0.521221 1.95056 0
M  V30 18800 H 2794.29 -0.286429 3.70695 0
M  V30 18801 P 2792.64 8.7635 1.60911 0
M  V30 18802 O 2792.42 10.1388 1.11561 0
M  V30 18803 O 2791.85 8.36503 2.79617 0
M  V30 18804 O 2792.39 7.71806 0.42951 0
M  V30 18805 C 2793.33 7.67148 -0.673689 0
M  V30 18806 C 2792.6 7.33374 -1.95559 0
M  V30 18807 O 2792.39 5.88721 -2.00726 0
M  V30 18808 C 2791.2 7.92526 -2.10483 0
M  V30 18809 O 2790.81 8.02971 -3.47653 0
M  V30 18810 C 2790.32 6.89602 -1.41652 0
M  V30 18811 C 2791.03 5.59201 -1.75185 0
M  V30 18812 N 2790.98 4.58235 -0.662552 0
M  V30 18813 H 2793.82 8.65116 -0.777161 0
M  V30 18814 H 2794.09 6.90173 -0.474152 0
M  V30 18815 H 2793.23 7.66548 -2.79458 0
M  V30 18816 P 2789.26 8.03563 -3.84925 0
M  V30 18817 O 2789.04 8.85821 -5.0569 0
M  V30 18818 O 2788.47 8.41101 -2.65469 0
M  V30 18819 O 2789.01 6.4965 -4.18908 0
M  V30 18820 C 2789.95 5.81037 -5.05421 0
M  V30 18821 C 2789.22 4.78366 -5.89277 0
M  V30 18822 O 2789.01 3.58302 -5.08433 0
M  V30 18823 C 2787.82 5.17448 -6.36119 0
M  V30 18824 O 2787.43 4.45271 -7.53232 0
M  V30 18825 C 2786.94 4.74639 -5.19936 0
M  V30 18826 C 2787.65 3.49432 -4.70418 0
M  V30 18827 N 2787.6 3.31776 -3.22945 0
M  V30 18828 H 2790.44 6.54213 -5.71376 0
M  V30 18829 H 2790.71 5.30492 -4.44033 0
M  V30 18830 H 2789.85 4.55889 -6.76652 0
M  V30 18831 P 2785.88 4.23843 -7.83734 0
M  V30 18832 O 2785.66 4.19407 -9.29784 0
M  V30 18833 O 2785.09 5.24426 -7.09156 0
M  V30 18834 O 2785.63 2.7935 -7.20758 0
M  V30 18835 C 2786.57 1.7299 -7.50419 0
M  V30 18836 C 2785.84 0.406376 -7.57911 0
M  V30 18837 O 2785.63 -0.0897726 -6.21935 0
M  V30 18838 C 2784.44 0.447224 -8.1878 0
M  V30 18839 O 2784.05 -0.825065 -8.71101 0
M  V30 18840 C 2783.56 0.783801 -6.99623 0
M  V30 18841 C 2784.27 0.0619192 -5.85967 0
M  V30 18842 N 2784.22 0.7859 -4.56281 0
M  V30 18843 H 2787.06 1.93423 -8.4679 0
M  V30 18844 H 2787.33 1.68181 -6.71046 0
M  V30 18845 H 2786.47 -0.289041 -8.15388 0
M  V30 18846 P 2782.5 -1.17771 -8.83182 0
M  V30 18847 O 2782.28 -2.07206 -9.98732 0
M  V30 18848 O 2781.71 0.0743816 -8.81969 0
M  V30 18849 O 2782.25 -1.97652 -7.47304 0
M  V30 18850 C 2783.19 -3.01133 -7.08783 0
M  V30 18851 C 2782.46 -4.12613 -6.37049 0
M  V30 18852 O 2782.25 -3.72827 -4.97879 0
M  V30 18853 C 2781.06 -4.45085 -6.88694 0
M  V30 18854 O 2780.67 -5.7877 -6.5624 0
M  V30 18855 C 2780.18 -3.47817 -6.12078 0
M  V30 18856 C 2780.89 -3.39414 -4.77697 0
M  V30 18857 N 2780.84 -2.04615 -4.15333 0
M  V30 18858 H 2783.68 -3.41248 -7.98759 0
M  V30 18859 H 2783.95 -2.5837 -6.41742 0
M  V30 18860 H 2783.09 -5.02657 -6.42673 0
M  V30 18861 P 2779.12 -6.144 -6.45285 0
M  V30 18862 O 2778.9 -7.54673 -6.86199 0
M  V30 18863 O 2778.33 -5.12391 -7.179 0
M  V30 18864 O 2778.87 -5.99158 -4.88404 0
M  V30 18865 C 2779.81 -6.60234 -3.96415 0
M  V30 18866 C 2779.08 -7.08259 -2.72856 0
M  V30 18867 O 2778.87 -5.9427 -1.83651 0
M  V30 18868 C 2777.68 -7.64886 -2.9555 0
M  V30 18869 O 2777.29 -8.53963 -1.90717 0
M  V30 18870 C 2776.8 -6.4116 -2.90739 0
M  V30 18871 C 2777.51 -5.55375 -1.86963 0
M  V30 18872 N 2777.46 -4.09664 -2.15742 0
M  V30 18873 H 2780.3 -7.45574 -4.45629 0
M  V30 18874 H 2780.57 -5.86232 -3.67314 0
M  V30 18875 H 2779.71 -7.84412 -2.24479 0
M  V30 18876 P 2775.74 -8.7635 -1.60911 0
M  V30 18877 O 2775.52 -10.1388 -1.11561 0
M  V30 18878 O 2774.95 -8.36503 -2.79617 0
M  V30 18879 O 2775.49 -7.71806 -0.42951 0
M  V30 18880 C 2776.43 -7.66948 0.673514 0
M  V30 18881 C 2775.7 -7.33374 1.95559 0
M  V30 18882 O 2775.49 -5.88721 2.00726 0
M  V30 18883 C 2774.3 -7.92218 2.1125 0
M  V30 18884 O 2773.91 -8.02971 3.47653 0
M  V30 18885 C 2773.42 -6.89504 1.41631 0
M  V30 18886 C 2774.13 -5.59106 1.75155 0
M  V30 18887 N 2774.08 -4.58136 0.662409 0
M  V30 18888 C 2773.93 -3.26059 1.02863 0
M  V30 18889 O 2773.84 -2.90743 2.19009 0
M  V30 18890 N 2773.89 -2.35995 -0.0155585 0
M  V30 18891 C 2773.98 -2.65248 -1.35603 0
M  V30 18892 O 2773.93 -1.75605 -2.20651 0
M  V30 18893 C 2774.13 -4.05747 -1.64698 0
M  V30 18894 C 2774.24 -4.42345 -3.09553 0
M  V30 18895 C 2774.18 -4.96734 -0.652411 0
M  V30 18896 H 2776.92 -8.64917 0.776982 0
M  V30 18897 H 2777.19 -6.89974 0.474015 0
M  V30 18898 H 2776.33 -7.66548 2.79458 0
M  V30 18899 H 2773.67 -5.16076 2.65138 0
M  V30 18900 H 2773.39 -7.06433 0.329384 0
M  V30 18901 H 2772.4 -6.90829 1.81996 0
M  V30 18902 H 2774.23 -8.90774 1.62639 0
M  V30 18903 H 2774.31 -6.02181 -0.895285 0
M  V30 18904 H 2773.28 -4.80252 -3.45468 0
M  V30 18905 H 2775.01 -5.20015 -3.22119 0
M  V30 18906 H 2774.52 -3.53269 -3.67833 0
M  V30 18907 H 2773.79 -1.39558 0.227499 0
M  V30 18908 P 2772.36 -8.03563 3.84925 0
M  V30 18909 O 2772.14 -8.85821 5.0569 0
M  V30 18910 O 2771.57 -8.41101 2.65469 0
M  V30 18911 O 2772.11 -6.4965 4.18908 0
M  V30 18912 C 2773.05 -5.81037 5.05421 0
M  V30 18913 C 2772.32 -4.78366 5.89277 0
M  V30 18914 O 2772.11 -3.58302 5.08433 0
M  V30 18915 C 2770.92 -5.17448 6.36119 0
M  V30 18916 O 2770.53 -4.45271 7.53232 0
M  V30 18917 C 2770.04 -4.74639 5.19936 0
M  V30 18918 C 2770.75 -3.49432 4.70418 0
M  V30 18919 N 2770.7 -3.32099 3.22613 0
M  V30 18920 H 2773.54 -6.54213 5.71376 0
M  V30 18921 H 2773.81 -5.30936 4.43503 0
M  V30 18922 H 2772.95 -4.55889 6.76652 0
M  V30 18923 H 2770.29 -2.61715 5.17932 0
M  V30 18924 H 2770.01 -5.52155 4.41878 0
M  V30 18925 H 2769.02 -4.51981 5.53374 0
M  V30 18926 H 2770.85 -6.25124 6.55234 0
M  V30 18927 P 2768.98 -4.23843 7.83734 0
M  V30 18928 O 2768.76 -4.19407 9.29784 0
M  V30 18929 O 2768.19 -5.24426 7.09156 0
M  V30 18930 O 2768.73 -2.7935 7.20758 0
M  V30 18931 C 2769.67 -1.7299 7.50419 0
M  V30 18932 C 2768.94 -0.406376 7.57911 0
M  V30 18933 O 2768.73 0.0897726 6.21935 0
M  V30 18934 C 2767.54 -0.447224 8.1878 0
M  V30 18935 O 2767.15 0.825065 8.71101 0
M  V30 18936 C 2766.66 -0.783801 6.99623 0
M  V30 18937 C 2767.37 -0.0619192 5.85967 0
M  V30 18938 N 2767.32 -0.7859 4.56281 0
M  V30 18939 H 2770.16 -1.93423 8.4679 0
M  V30 18940 H 2770.43 -1.68181 6.71046 0
M  V30 18941 H 2769.57 0.289041 8.15388 0
M  V30 18942 P 2765.6 1.17771 8.83182 0
M  V30 18943 O 2765.38 2.07206 9.98732 0
M  V30 18944 O 2764.81 -0.0743816 8.81969 0
M  V30 18945 O 2765.35 1.97652 7.47304 0
M  V30 18946 C 2766.29 3.01133 7.08783 0
M  V30 18947 C 2765.56 4.12613 6.37049 0
M  V30 18948 O 2765.35 3.72827 4.97879 0
M  V30 18949 C 2764.16 4.45085 6.88694 0
M  V30 18950 O 2763.77 5.7877 6.5624 0
M  V30 18951 C 2763.28 3.47817 6.12078 0
M  V30 18952 C 2763.99 3.39414 4.77697 0
M  V30 18953 N 2763.94 2.04615 4.15333 0
M  V30 18954 H 2766.78 3.41248 7.98759 0
M  V30 18955 H 2767.05 2.5837 6.41742 0
M  V30 18956 H 2766.19 5.02657 6.42673 0
M  V30 18957 P 2762.22 6.144 6.45285 0
M  V30 18958 O 2762 7.54673 6.86199 0
M  V30 18959 O 2761.43 5.12391 7.179 0
M  V30 18960 O 2761.97 5.99236 4.88467 0
M  V30 18961 C 2762.91 6.60234 3.96415 0
M  V30 18962 C 2762.18 7.08079 2.736 0
M  V30 18963 O 2761.97 5.94365 1.8368 0
M  V30 18964 C 2760.78 7.64886 2.9555 0
M  V30 18965 O 2760.39 8.5406 1.90739 0
M  V30 18966 C 2759.9 6.4116 2.90739 0
M  V30 18967 C 2760.61 5.55375 1.86963 0
M  V30 18968 N 2760.56 4.09664 2.15742 0
M  V30 18969 C 2760.41 3.22231 1.08477 0
M  V30 18970 O 2760.32 3.68951 -0.0600489 0
M  V30 18971 N 2760.36 1.76692 1.48799 0
M  V30 18972 C 2760.46 1.41695 2.57602 0
M  V30 18973 N 2760.41 0.107296 2.75791 0
M  V30 18974 C 2760.61 2.29178 3.69733 0
M  V30 18975 C 2760.66 3.62753 3.42653 0
M  V30 18976 H 2763.4 7.45488 4.45578 0
M  V30 18977 H 2763.67 5.86232 3.67314 0
M  V30 18978 H 2762.81 7.84508 2.24507 0
M  V30 18979 H 2760.15 5.73556 0.888715 0
M  V30 18980 H 2759.87 5.9096 3.88638 0
M  V30 18981 H 2758.88 6.66053 2.58894 0
M  V30 18982 H 2760.71 8.16339 3.92049 0
M  V30 18983 H 2760.79 4.33052 4.24913 0
M  V30 18984 H 2760.68 1.9103 4.71577 0
M  V30 18985 H 2760.3 -0.521221 1.95056 0
M  V30 18986 H 2760.49 -0.286429 3.70695 0
M  V30 18987 P 2758.84 8.7635 1.60911 0
M  V30 18988 O 2758.62 10.1388 1.11561 0
M  V30 18989 O 2758.05 8.36503 2.79617 0
M  V30 18990 O 2758.59 7.71806 0.42951 0
M  V30 18991 C 2759.53 7.67148 -0.673689 0
M  V30 18992 C 2758.8 7.33374 -1.95559 0
M  V30 18993 O 2758.59 5.88721 -2.00726 0
M  V30 18994 C 2757.4 7.92526 -2.10483 0
M  V30 18995 O 2757.01 8.02971 -3.47653 0
M  V30 18996 C 2756.52 6.89602 -1.41652 0
M  V30 18997 C 2757.23 5.59201 -1.75185 0
M  V30 18998 N 2757.18 4.58301 -0.657969 0
M  V30 18999 H 2760.02 8.65116 -0.777161 0
M  V30 19000 H 2760.29 6.9022 -0.46725 0
M  V30 19001 H 2759.43 7.66548 -2.79458 0
M  V30 19002 H 2756.77 5.16165 -2.65183 0
M  V30 19003 H 2756.49 7.06433 -0.329384 0
M  V30 19004 H 2755.5 6.90926 -1.82021 0
M  V30 19005 H 2757.33 8.90873 -1.62657 0
M  V30 19006 P 2755.46 8.03563 -3.84925 0
M  V30 19007 O 2755.24 8.85821 -5.0569 0
M  V30 19008 O 2754.67 8.41101 -2.65469 0
M  V30 19009 O 2755.21 6.4965 -4.18908 0
M  V30 19010 C 2756.15 5.81037 -5.05421 0
M  V30 19011 C 2755.42 4.78366 -5.89277 0
M  V30 19012 O 2755.21 3.58302 -5.08433 0
M  V30 19013 C 2754.02 5.17448 -6.36119 0
M  V30 19014 O 2753.63 4.45271 -7.53232 0
M  V30 19015 C 2753.14 4.74639 -5.19936 0
M  V30 19016 C 2753.85 3.49432 -4.70418 0
M  V30 19017 N 2753.8 3.31776 -3.22945 0
M  V30 19018 H 2756.64 6.54213 -5.71376 0
M  V30 19019 H 2756.91 5.30492 -4.44033 0
M  V30 19020 H 2756.05 4.55889 -6.76652 0
M  V30 19021 P 2752.08 4.23843 -7.83734 0
M  V30 19022 O 2751.86 4.19407 -9.29784 0
M  V30 19023 O 2751.29 5.24426 -7.09156 0
M  V30 19024 O 2751.83 2.7935 -7.20758 0
M  V30 19025 C 2752.77 1.72945 -7.50224 0
M  V30 19026 C 2752.04 0.406376 -7.57911 0
M  V30 19027 O 2751.83 -0.0897726 -6.21935 0
M  V30 19028 C 2750.64 0.438983 -8.18724 0
M  V30 19029 O 2750.25 -0.825065 -8.71101 0
M  V30 19030 C 2749.76 0.783689 -6.99524 0
M  V30 19031 C 2750.47 0.0619086 -5.85867 0
M  V30 19032 N 2750.42 0.78573 -4.56183 0
M  V30 19033 C 2750.27 0.0292889 -3.41887 0
M  V30 19034 O 2750.18 -1.18445 -3.4419 0
M  V30 19035 N 2750.23 0.744061 -2.23964 0
M  V30 19036 C 2750.32 2.10932 -2.10362 0
M  V30 19037 O 2750.27 2.64117 -0.98825 0
M  V30 19038 C 2750.47 2.8202 -3.34994 0
M  V30 19039 C 2750.58 4.31095 -3.25037 0
M  V30 19040 C 2750.52 2.15547 -4.52261 0
M  V30 19041 H 2753.26 1.93379 -8.46595 0
M  V30 19042 H 2753.53 1.68132 -6.70852 0
M  V30 19043 H 2752.67 -0.289041 -8.15388 0
M  V30 19044 H 2750.01 -0.926847 -5.72749 0
M  V30 19045 H 2749.73 1.86973 -6.82036 0
M  V30 19046 H 2748.74 0.403896 -7.13257 0
M  V30 19047 H 2750.57 1.20585 -8.97435 0
M  V30 19048 H 2750.65 2.71231 -5.45042 0
M  V30 19049 H 2749.62 4.76966 -3.49992 0
M  V30 19050 H 2751.35 4.67047 -3.95024 0
M  V30 19051 H 2750.86 4.58996 -2.22312 0
M  V30 19052 H 2750.13 0.214893 -1.39758 0
M  V30 19053 P 2748.7 -1.17771 -8.83182 0
M  V30 19054 O 2748.48 -2.07206 -9.98732 0
M  V30 19055 O 2747.91 0.0743816 -8.81969 0
M  V30 19056 O 2748.45 -1.97652 -7.47304 0
M  V30 19057 C 2749.39 -3.01055 -7.08599 0
M  V30 19058 C 2748.66 -4.12613 -6.37049 0
M  V30 19059 O 2748.45 -3.72827 -4.97879 0
M  V30 19060 C 2747.26 -4.45719 -6.88164 0
M  V30 19061 O 2746.87 -5.7877 -6.5624 0
M  V30 19062 C 2746.38 -3.47768 -6.11991 0
M  V30 19063 C 2747.09 -3.39356 -4.77615 0
M  V30 19064 N 2747.04 -2.04571 -4.15244 0
M  V30 19065 C 2746.89 -1.98587 -2.78314 0
M  V30 19066 O 2746.8 -2.98134 -2.08835 0
M  V30 19067 N 2746.85 -0.714467 -2.24925 0
M  V30 19068 C 2746.94 0.470001 -2.94169 0
M  V30 19069 C 2747.09 0.312541 -4.36783 0
M  V30 19070 C 2747.14 -0.914512 -4.92583 0
M  V30 19071 H 2749.88 -3.41169 -7.98575 0
M  V30 19072 H 2750.15 -2.58295 -6.41556 0
M  V30 19073 H 2749.29 -5.02657 -6.42673 0
M  V30 19074 H 2746.63 -4.11637 -4.08885 0
M  V30 19075 H 2746.35 -2.49626 -6.61679 0
M  V30 19076 H 2745.36 -3.86566 -6.00778 0
M  V30 19077 H 2747.19 -4.29943 -7.96918 0
M  V30 19078 H 2747.27 -1.00937 -6.00374 0
M  V30 19079 P 2745.32 -6.144 -6.45285 0
M  V30 19080 O 2745.1 -7.54673 -6.86199 0
M  V30 19081 O 2744.53 -5.12391 -7.179 0
M  V30 19082 O 2745.07 -5.99158 -4.88404 0
M  V30 19083 C 2746.01 -6.60234 -3.96415 0
M  V30 19084 C 2745.28 -7.08259 -2.72856 0
M  V30 19085 O 2745.07 -5.9427 -1.83651 0
M  V30 19086 C 2743.88 -7.64886 -2.9555 0
M  V30 19087 O 2743.49 -8.53963 -1.90717 0
M  V30 19088 C 2743 -6.4116 -2.90739 0
M  V30 19089 C 2743.71 -5.55375 -1.86963 0
M  V30 19090 N 2743.66 -4.09664 -2.15742 0
M  V30 19091 H 2746.5 -7.45574 -4.45629 0
M  V30 19092 H 2746.77 -5.86232 -3.67314 0
M  V30 19093 H 2745.91 -7.84412 -2.24479 0
M  V30 19094 P 2741.94 -8.7635 -1.60911 0
M  V30 19095 O 2741.72 -10.1388 -1.11561 0
M  V30 19096 O 2741.15 -8.36503 -2.79617 0
M  V30 19097 O 2741.69 -7.71806 -0.42951 0
M  V30 19098 C 2742.63 -7.67148 0.673689 0
M  V30 19099 C 2741.9 -7.33374 1.95559 0
M  V30 19100 O 2741.69 -5.88721 2.00726 0
M  V30 19101 C 2740.5 -7.92526 2.10483 0
M  V30 19102 O 2740.11 -8.02971 3.47653 0
M  V30 19103 C 2739.62 -6.89602 1.41652 0
M  V30 19104 C 2740.33 -5.59201 1.75185 0
M  V30 19105 N 2740.28 -4.58235 0.662552 0
M  V30 19106 C 2740.36 -4.7683 -0.704049 0
M  V30 19107 N 2740.28 -3.66233 -1.39775 0
M  V30 19108 C 2740.14 -2.66526 -0.431739 0
M  V30 19109 C 2740.01 -1.26394 -0.575992 0
M  V30 19110 N 2739.89 -0.62859 0.67177 0
M  V30 19111 C 2739.89 -1.27134 1.89385 0
M  V30 19112 N 2739.76 -0.492035 2.96951 0
M  V30 19113 N 2740.02 -2.58978 2.02907 0
M  V30 19114 C 2740.14 -3.22433 0.832218 0
M  V30 19115 H 2743.12 -8.65116 0.777161 0
M  V30 19116 H 2743.39 -6.90173 0.474152 0
M  V30 19117 H 2742.53 -7.66548 2.79458 0
M  V30 19118 P 2738.56 -8.03563 3.84925 0
M  V30 19119 O 2738.34 -8.85821 5.0569 0
M  V30 19120 O 2737.77 -8.41101 2.65469 0
M  V30 19121 O 2738.31 -6.4965 4.18908 0
M  V30 19122 C 2739.25 -5.81037 5.05421 0
M  V30 19123 C 2738.52 -4.78366 5.89277 0
M  V30 19124 O 2738.31 -3.58302 5.08433 0
M  V30 19125 C 2737.12 -5.17448 6.36119 0
M  V30 19126 O 2736.73 -4.45271 7.53232 0
M  V30 19127 C 2736.24 -4.74639 5.19936 0
M  V30 19128 C 2736.95 -3.49432 4.70418 0
M  V30 19129 N 2736.9 -3.32099 3.22613 0
M  V30 19130 C 2736.98 -4.28245 2.25527 0
M  V30 19131 N 2736.91 -3.80823 1.04874 0
M  V30 19132 C 2736.76 -2.44571 1.23535 0
M  V30 19133 C 2736.63 -1.37068 0.330675 0
M  V30 19134 N 2736.62 -1.51472 -0.990824 0
M  V30 19135 N 2736.51 -0.138614 0.848756 0
M  V30 19136 C 2736.52 0.00675923 2.16999 0
M  V30 19137 N 2736.64 -0.904372 3.11122 0
M  V30 19138 C 2736.76 -2.12707 2.56212 0
M  V30 19139 H 2739.74 -6.54213 5.71376 0
M  V30 19140 H 2740.01 -5.30936 4.43503 0
M  V30 19141 H 2739.15 -4.55889 6.76652 0
M  V30 19142 H 2736.49 -2.61715 5.17932 0
M  V30 19143 H 2736.21 -5.52155 4.41878 0
M  V30 19144 H 2735.22 -4.51981 5.53374 0
M  V30 19145 H 2737.05 -6.25124 6.55234 0
M  V30 19146 H 2737.1 -5.34372 2.47488 0
M  V30 19147 H 2736.71 -2.45153 -1.4078 0
M  V30 19148 H 2736.53 -0.688422 -1.59911 0
M  V30 19149 H 2736.42 1.02584 2.52346 0
M  V30 19150 P 2735.18 -4.23843 7.83734 0
M  V30 19151 O 2734.96 -4.19407 9.29784 0
M  V30 19152 O 2734.39 -5.24426 7.09156 0
M  V30 19153 O 2734.93 -2.7935 7.20758 0
M  V30 19154 C 2735.87 -1.7299 7.50419 0
M  V30 19155 C 2735.14 -0.406376 7.57911 0
M  V30 19156 O 2734.93 0.0897726 6.21935 0
M  V30 19157 C 2733.74 -0.447224 8.1878 0
M  V30 19158 O 2733.35 0.825065 8.71101 0
M  V30 19159 C 2732.86 -0.783801 6.99623 0
M  V30 19160 C 2733.57 -0.0619192 5.85967 0
M  V30 19161 N 2733.52 -0.7859 4.56281 0
M  V30 19162 H 2736.36 -1.93423 8.4679 0
M  V30 19163 H 2736.63 -1.68181 6.71046 0
M  V30 19164 H 2735.77 0.289041 8.15388 0
M  V30 19165 P 2731.8 1.17771 8.83182 0
M  V30 19166 O 2731.58 2.07206 9.98732 0
M  V30 19167 O 2731.01 -0.0743816 8.81969 0
M  V30 19168 O 2731.55 1.97652 7.47304 0
M  V30 19169 C 2732.49 3.01133 7.08783 0
M  V30 19170 C 2731.76 4.12613 6.37049 0
M  V30 19171 O 2731.55 3.72827 4.97879 0
M  V30 19172 C 2730.36 4.45085 6.88694 0
M  V30 19173 O 2729.97 5.7877 6.5624 0
M  V30 19174 C 2729.48 3.47817 6.12078 0
M  V30 19175 C 2730.19 3.39414 4.77697 0
M  V30 19176 N 2730.14 2.04615 4.15333 0
M  V30 19177 H 2732.98 3.41248 7.98759 0
M  V30 19178 H 2733.25 2.5837 6.41742 0
M  V30 19179 H 2732.39 5.02657 6.42673 0
M  V30 19180 P 2728.42 6.144 6.45285 0
M  V30 19181 O 2728.2 7.54673 6.86199 0
M  V30 19182 O 2727.63 5.12391 7.179 0
M  V30 19183 O 2728.17 5.99236 4.88467 0
M  V30 19184 C 2729.11 6.60234 3.96415 0
M  V30 19185 C 2728.38 7.08079 2.736 0
M  V30 19186 O 2728.17 5.94365 1.8368 0
M  V30 19187 C 2726.98 7.64886 2.9555 0
M  V30 19188 O 2726.59 8.5406 1.90739 0
M  V30 19189 C 2726.1 6.4116 2.90739 0
M  V30 19190 C 2726.81 5.55375 1.86963 0
M  V30 19191 N 2726.76 4.09664 2.15742 0
M  V30 19192 C 2726.61 3.22231 1.08477 0
M  V30 19193 O 2726.52 3.68951 -0.0600489 0
M  V30 19194 N 2726.56 1.76692 1.48799 0
M  V30 19195 C 2726.66 1.41695 2.57602 0
M  V30 19196 N 2726.61 0.107296 2.75791 0
M  V30 19197 C 2726.81 2.29178 3.69733 0
M  V30 19198 C 2726.86 3.62753 3.42653 0
M  V30 19199 H 2729.6 7.45488 4.45578 0
M  V30 19200 H 2729.87 5.86232 3.67314 0
M  V30 19201 H 2729.01 7.84508 2.24507 0
M  V30 19202 H 2726.35 5.73556 0.888715 0
M  V30 19203 H 2726.07 5.9096 3.88638 0
M  V30 19204 H 2725.08 6.66053 2.58894 0
M  V30 19205 H 2726.91 8.16339 3.92049 0
M  V30 19206 H 2726.99 4.33052 4.24913 0
M  V30 19207 H 2726.88 1.9103 4.71577 0
M  V30 19208 H 2726.5 -0.521221 1.95056 0
M  V30 19209 H 2726.69 -0.286429 3.70695 0
M  V30 19210 P 2725.04 8.7635 1.60911 0
M  V30 19211 O 2724.82 10.1388 1.11561 0
M  V30 19212 O 2724.25 8.36503 2.79617 0
M  V30 19213 O 2724.79 7.71806 0.42951 0
M  V30 19214 C 2725.73 7.66948 -0.673514 0
M  V30 19215 C 2725 7.33374 -1.95559 0
M  V30 19216 O 2724.79 5.88721 -2.00726 0
M  V30 19217 C 2723.6 7.92218 -2.1125 0
M  V30 19218 O 2723.21 8.02971 -3.47653 0
M  V30 19219 C 2722.72 6.89504 -1.41631 0
M  V30 19220 C 2723.43 5.59106 -1.75155 0
M  V30 19221 N 2723.38 4.58136 -0.662409 0
M  V30 19222 C 2723.23 3.26059 -1.02863 0
M  V30 19223 O 2723.14 2.90743 -2.19009 0
M  V30 19224 N 2723.19 2.35995 0.0155585 0
M  V30 19225 C 2723.28 2.65248 1.35603 0
M  V30 19226 C 2723.43 4.05747 1.64698 0
M  V30 19227 C 2723.48 4.96734 0.652411 0
M  V30 19228 H 2726.22 8.64917 -0.776982 0
M  V30 19229 H 2726.49 6.89974 -0.474015 0
M  V30 19230 H 2725.63 7.66548 -2.79458 0
M  V30 19231 H 2722.97 5.16076 -2.65138 0
M  V30 19232 H 2722.69 7.06433 -0.329384 0
M  V30 19233 H 2721.7 6.90829 -1.81996 0
M  V30 19234 H 2723.53 8.90774 -1.62639 0
M  V30 19235 H 2723.61 6.02181 0.895285 0
M  V30 19236 P 2721.66 8.03563 -3.84925 0
M  V30 19237 O 2721.44 8.85821 -5.0569 0
M  V30 19238 O 2720.87 8.41101 -2.65469 0
M  V30 19239 O 2721.41 6.4965 -4.18908 0
M  V30 19240 C 2722.35 5.81037 -5.05421 0
M  V30 19241 C 2721.62 4.78366 -5.89277 0
M  V30 19242 O 2721.41 3.58302 -5.08433 0
M  V30 19243 C 2720.22 5.17448 -6.36119 0
M  V30 19244 O 2719.83 4.45271 -7.53232 0
M  V30 19245 C 2719.34 4.74639 -5.19936 0
M  V30 19246 C 2720.05 3.49432 -4.70418 0
M  V30 19247 N 2720 3.31776 -3.22945 0
M  V30 19248 H 2722.84 6.54213 -5.71376 0
M  V30 19249 H 2723.11 5.30492 -4.44033 0
M  V30 19250 H 2722.25 4.55889 -6.76652 0
M  V30 19251 P 2718.28 4.23843 -7.83734 0
M  V30 19252 O 2718.06 4.19407 -9.29784 0
M  V30 19253 O 2717.49 5.24426 -7.09156 0
M  V30 19254 O 2718.03 2.7935 -7.20758 0
M  V30 19255 C 2718.97 1.7299 -7.50419 0
M  V30 19256 C 2718.24 0.406376 -7.57911 0
M  V30 19257 O 2718.03 -0.0897726 -6.21935 0
M  V30 19258 C 2716.84 0.447224 -8.1878 0
M  V30 19259 O 2716.45 -0.825065 -8.71101 0
M  V30 19260 C 2715.96 0.783801 -6.99623 0
M  V30 19261 C 2716.67 0.0619192 -5.85967 0
M  V30 19262 N 2716.62 0.7859 -4.56281 0
M  V30 19263 H 2719.46 1.93423 -8.4679 0
M  V30 19264 H 2719.73 1.68181 -6.71046 0
M  V30 19265 H 2718.87 -0.289041 -8.15388 0
M  V30 19266 P 2714.9 -1.17771 -8.83182 0
M  V30 19267 O 2714.68 -2.07206 -9.98732 0
M  V30 19268 O 2714.11 0.0743816 -8.81969 0
M  V30 19269 O 2714.65 -1.97652 -7.47304 0
M  V30 19270 C 2715.59 -3.01133 -7.08783 0
M  V30 19271 C 2714.86 -4.12613 -6.37049 0
M  V30 19272 O 2714.65 -3.72827 -4.97879 0
M  V30 19273 C 2713.46 -4.45085 -6.88694 0
M  V30 19274 O 2713.07 -5.7877 -6.5624 0
M  V30 19275 C 2712.58 -3.47817 -6.12078 0
M  V30 19276 C 2713.29 -3.39414 -4.77697 0
M  V30 19277 N 2713.24 -2.04615 -4.15333 0
M  V30 19278 H 2716.08 -3.41248 -7.98759 0
M  V30 19279 H 2716.35 -2.5837 -6.41742 0
M  V30 19280 H 2715.49 -5.02657 -6.42673 0
M  V30 19281 P 2711.52 -6.144 -6.45285 0
M  V30 19282 O 2711.3 -7.54673 -6.86199 0
M  V30 19283 O 2710.73 -5.12391 -7.179 0
M  V30 19284 O 2711.27 -5.99158 -4.88404 0
M  V30 19285 C 2712.21 -6.60234 -3.96415 0
M  V30 19286 C 2711.48 -7.08259 -2.72856 0
M  V30 19287 O 2711.27 -5.9427 -1.83651 0
M  V30 19288 C 2710.08 -7.64886 -2.9555 0
M  V30 19289 O 2709.69 -8.53963 -1.90717 0
M  V30 19290 C 2709.2 -6.4116 -2.90739 0
M  V30 19291 C 2709.91 -5.55375 -1.86963 0
M  V30 19292 N 2709.86 -4.09664 -2.15742 0
M  V30 19293 H 2712.7 -7.45574 -4.45629 0
M  V30 19294 H 2712.97 -5.86232 -3.67314 0
M  V30 19295 H 2712.11 -7.84412 -2.24479 0
M  V30 19296 P 2708.14 -8.7635 -1.60911 0
M  V30 19297 O 2707.92 -10.1388 -1.11561 0
M  V30 19298 O 2707.35 -8.36503 -2.79617 0
M  V30 19299 O 2707.89 -7.71806 -0.42951 0
M  V30 19300 C 2708.83 -7.67148 0.673689 0
M  V30 19301 C 2708.1 -7.33374 1.95559 0
M  V30 19302 O 2707.89 -5.88721 2.00726 0
M  V30 19303 C 2706.7 -7.92526 2.10483 0
M  V30 19304 O 2706.31 -8.02971 3.47653 0
M  V30 19305 C 2705.82 -6.89602 1.41652 0
M  V30 19306 C 2706.53 -5.59201 1.75185 0
M  V30 19307 N 2706.48 -4.58235 0.662552 0
M  V30 19308 C 2706.56 -4.7683 -0.704049 0
M  V30 19309 N 2706.48 -3.66233 -1.39775 0
M  V30 19310 C 2706.34 -2.66526 -0.431739 0
M  V30 19311 C 2706.21 -1.26394 -0.575992 0
M  V30 19312 O 2706.19 -0.589894 -1.60503 0
M  V30 19313 N 2706.09 -0.62859 0.67177 0
M  V30 19314 C 2706.09 -1.27134 1.89385 0
M  V30 19315 N 2705.96 -0.492035 2.96951 0
M  V30 19316 N 2706.22 -2.58978 2.02907 0
M  V30 19317 C 2706.34 -3.22433 0.832218 0
M  V30 19318 H 2709.32 -8.65116 0.777161 0
M  V30 19319 H 2709.6 -6.90173 0.474152 0
M  V30 19320 H 2708.73 -7.66548 2.79458 0
M  V30 19321 H 2706.07 -5.16254 2.65229 0
M  V30 19322 H 2705.79 -7.06532 0.329431 0
M  V30 19323 H 2704.8 -6.91023 1.82047 0
M  V30 19324 H 2706.64 -8.90971 1.62675 0
M  V30 19325 H 2706.68 -5.74954 -1.16305 0
M  V30 19326 H 2706 0.366713 0.674793 0
M  V30 19327 H 2705.97 -0.908532 3.91188 0
M  V30 19328 H 2705.86 0.528253 2.85758 0
M  V30 19329 P 2704.76 -8.03563 3.84925 0
M  V30 19330 O 2704.54 -8.85821 5.0569 0
M  V30 19331 O 2703.97 -8.41101 2.65469 0
M  V30 19332 O 2704.51 -6.4965 4.18908 0
M  V30 19333 C 2705.45 -5.81037 5.05421 0
M  V30 19334 C 2704.72 -4.78366 5.89277 0
M  V30 19335 O 2704.51 -3.58302 5.08433 0
M  V30 19336 C 2703.32 -5.17448 6.36119 0
M  V30 19337 O 2702.93 -4.45271 7.53232 0
M  V30 19338 C 2702.44 -4.74639 5.19936 0
M  V30 19339 C 2703.15 -3.49432 4.70418 0
M  V30 19340 N 2703.1 -3.32099 3.22613 0
M  V30 19341 H 2705.94 -6.54213 5.71376 0
M  V30 19342 H 2706.22 -5.30936 4.43503 0
M  V30 19343 H 2705.35 -4.55889 6.76652 0
M  V30 19344 H 2702.69 -2.61715 5.17932 0
M  V30 19345 H 2702.41 -5.52155 4.41878 0
M  V30 19346 H 2701.42 -4.51981 5.53374 0
M  V30 19347 H 2703.26 -6.25124 6.55234 0
M  V30 19348 P 2701.38 -4.23843 7.83734 0
M  V30 19349 O 2701.16 -4.19407 9.29784 0
M  V30 19350 O 2700.59 -5.24426 7.09156 0
M  V30 19351 O 2701.13 -2.7935 7.20758 0
M  V30 19352 C 2702.07 -1.7299 7.50419 0
M  V30 19353 C 2701.34 -0.406376 7.57911 0
M  V30 19354 O 2701.13 0.0897726 6.21935 0
M  V30 19355 C 2699.94 -0.447224 8.1878 0
M  V30 19356 O 2699.55 0.825065 8.71101 0
M  V30 19357 C 2699.06 -0.783801 6.99623 0
M  V30 19358 C 2699.77 -0.0619192 5.85967 0
M  V30 19359 N 2699.72 -0.7859 4.56281 0
M  V30 19360 H 2702.56 -1.93423 8.4679 0
M  V30 19361 H 2702.84 -1.68181 6.71046 0
M  V30 19362 H 2701.97 0.289041 8.15388 0
M  V30 19363 P 2698 1.17771 8.83182 0
M  V30 19364 O 2697.78 2.07206 9.98732 0
M  V30 19365 O 2697.21 -0.0743816 8.81969 0
M  V30 19366 O 2697.75 1.97678 7.474 0
M  V30 19367 C 2698.69 3.01133 7.08783 0
M  V30 19368 C 2697.96 4.1203 6.37546 0
M  V30 19369 O 2697.75 3.72887 4.9796 0
M  V30 19370 C 2696.56 4.45085 6.88694 0
M  V30 19371 O 2696.17 5.78836 6.56315 0
M  V30 19372 C 2695.68 3.47817 6.12078 0
M  V30 19373 C 2696.39 3.39414 4.77697 0
M  V30 19374 N 2696.34 2.04615 4.15333 0
M  V30 19375 C 2696.19 1.96929 2.77162 0
M  V30 19376 O 2696.1 3.02017 2.12006 0
M  V30 19377 N 2696.14 0.55485 2.24237 0
M  V30 19378 C 2696.24 -0.367808 2.9169 0
M  V30 19379 N 2696.19 -1.53426 2.29427 0
M  V30 19380 C 2696.39 -0.319148 4.33828 0
M  V30 19381 C 2696.44 0.920672 4.90433 0
M  V30 19382 H 2699.18 3.41209 7.98667 0
M  V30 19383 H 2699.45 2.5837 6.41742 0
M  V30 19384 H 2698.59 5.02718 6.42752 0
M  V30 19385 H 2695.93 4.11779 4.09026 0
M  V30 19386 H 2695.65 2.49661 6.61772 0
M  V30 19387 H 2694.66 3.86674 6.00946 0
M  V30 19388 H 2696.5 4.29991 7.97006 0
M  V30 19389 H 2696.57 1.00589 5.98303 0
M  V30 19390 H 2696.47 -1.22639 4.93799 0
M  V30 19391 H 2696.08 -1.56819 1.27167 0
M  V30 19392 H 2696.27 -2.41062 2.83063 0
M  V30 19393 P 2694.62 6.144 6.45285 0
M  V30 19394 O 2694.4 7.54673 6.86199 0
M  V30 19395 O 2693.83 5.12391 7.179 0
M  V30 19396 O 2694.37 5.99158 4.88404 0
M  V30 19397 C 2695.31 6.60234 3.96415 0
M  V30 19398 C 2694.58 7.08259 2.72856 0
M  V30 19399 O 2694.37 5.9427 1.83651 0
M  V30 19400 C 2693.18 7.64886 2.9555 0
M  V30 19401 O 2692.79 8.53963 1.90717 0
M  V30 19402 C 2692.3 6.4116 2.90739 0
M  V30 19403 C 2693.01 5.55375 1.86963 0
M  V30 19404 N 2692.96 4.09664 2.15742 0
M  V30 19405 H 2695.8 7.45574 4.45629 0
M  V30 19406 H 2696.08 5.86232 3.67314 0
M  V30 19407 H 2695.21 7.84412 2.24479 0
M  V30 19408 P 2691.24 8.7635 1.60911 0
M  V30 19409 O 2691.02 10.1388 1.11561 0
M  V30 19410 O 2690.45 8.36503 2.79617 0
M  V30 19411 O 2690.99 7.71806 0.42951 0
M  V30 19412 C 2691.93 7.67148 -0.673689 0
M  V30 19413 C 2691.2 7.33374 -1.95559 0
M  V30 19414 O 2690.99 5.88721 -2.00726 0
M  V30 19415 C 2689.8 7.92526 -2.10483 0
M  V30 19416 O 2689.41 8.02971 -3.47653 0
M  V30 19417 C 2688.92 6.89602 -1.41652 0
M  V30 19418 C 2689.63 5.59201 -1.75185 0
M  V30 19419 N 2689.58 4.58235 -0.662552 0
M  V30 19420 H 2692.42 8.65116 -0.777161 0
M  V30 19421 H 2692.7 6.90173 -0.474152 0
M  V30 19422 H 2691.83 7.66548 -2.79458 0
M  V30 19423 P 2687.86 8.03563 -3.84925 0
M  V30 19424 O 2687.64 8.85821 -5.0569 0
M  V30 19425 O 2687.07 8.41101 -2.65469 0
M  V30 19426 O 2687.61 6.49734 -4.18962 0
M  V30 19427 C 2688.55 5.81037 -5.05421 0
M  V30 19428 C 2687.82 4.79018 -5.88876 0
M  V30 19429 O 2687.61 3.58359 -5.08515 0
M  V30 19430 C 2686.42 5.17448 -6.36119 0
M  V30 19431 O 2686.03 4.45322 -7.53318 0
M  V30 19432 C 2685.54 4.74639 -5.19936 0
M  V30 19433 C 2686.25 3.49432 -4.70418 0
M  V30 19434 N 2686.2 3.31776 -3.22945 0
M  V30 19435 C 2686.05 2.02742 -2.72939 0
M  V30 19436 O 2685.96 1.08301 -3.52749 0
M  V30 19437 N 2686 1.96117 -1.22063 0
M  V30 19438 C 2686.1 2.8878 -0.551566 0
M  V30 19439 N 2686.05 2.65609 0.750198 0
M  V30 19440 C 2686.25 4.22457 -1.03707 0
M  V30 19441 C 2686.3 4.37979 -2.39113 0
M  V30 19442 H 2689.04 6.54138 -5.7131 0
M  V30 19443 H 2689.31 5.30492 -4.44033 0
M  V30 19444 H 2688.45 4.55945 -6.76735 0
M  V30 19445 H 2685.79 2.6176 -5.18021 0
M  V30 19446 H 2685.51 5.52233 -4.41941 0
M  V30 19447 H 2684.52 4.52045 -5.53452 0
M  V30 19448 H 2686.36 6.25124 -6.55234 0
M  V30 19449 H 2686.43 5.37936 -2.80552 0
M  V30 19450 H 2686.33 5.07528 -0.359553 0
M  V30 19451 H 2685.94 1.69403 1.09847 0
M  V30 19452 H 2686.13 3.43701 1.41792 0
M  V30 19453 P 2684.48 4.23843 -7.83734 0
M  V30 19454 O 2684.26 4.19407 -9.29784 0
M  V30 19455 O 2683.69 5.24426 -7.09156 0
M  V30 19456 O 2684.23 2.79386 -7.20852 0
M  V30 19457 C 2685.17 1.7299 -7.50419 0
M  V30 19458 C 2684.44 0.41401 -7.5797 0
M  V30 19459 O 2684.23 -0.089787 -6.22035 0
M  V30 19460 C 2683.04 0.447224 -8.1878 0
M  V30 19461 O 2682.65 -0.825159 -8.71201 0
M  V30 19462 C 2682.16 0.783801 -6.99623 0
M  V30 19463 C 2682.87 0.0619192 -5.85967 0
M  V30 19464 N 2682.82 0.7859 -4.56281 0
M  V30 19465 C 2682.67 0.0359258 -3.39981 0
M  V30 19466 O 2682.58 -1.19723 -3.49038 0
M  V30 19467 N 2682.62 0.869151 -2.14025 0
M  V30 19468 C 2682.72 2.01207 -2.14363 0
M  V30 19469 N 2682.67 2.58978 -0.954287 0
M  V30 19470 C 2682.87 2.80817 -3.32215 0
M  V30 19471 C 2682.92 2.13785 -4.50884 0
M  V30 19472 H 2685.66 1.93401 -8.46693 0
M  V30 19473 H 2685.93 1.68181 -6.71046 0
M  V30 19474 H 2685.07 -0.289076 -8.15488 0
M  V30 19475 H 2682.41 -0.927166 -5.72947 0
M  V30 19476 H 2682.13 1.87 -6.82132 0
M  V30 19477 H 2681.14 0.404009 -7.13457 0
M  V30 19478 H 2682.98 1.20599 -8.97534 0
M  V30 19479 H 2683.05 2.70295 -5.43162 0
M  V30 19480 H 2682.95 3.89465 -3.27406 0
M  V30 19481 H 2682.56 2.01616 -0.107046 0
M  V30 19482 H 2682.75 3.61403 -0.873101 0
M  V30 19483 P 2681.1 -1.17771 -8.83182 0
M  V30 19484 O 2680.88 -2.07206 -9.98732 0
M  V30 19485 O 2680.31 0.0743816 -8.81969 0
M  V30 19486 O 2680.85 -1.97652 -7.47304 0
M  V30 19487 C 2681.79 -3.01133 -7.08783 0
M  V30 19488 C 2681.06 -4.12613 -6.37049 0
M  V30 19489 O 2680.85 -3.72827 -4.97879 0
M  V30 19490 C 2679.66 -4.45085 -6.88694 0
M  V30 19491 O 2679.27 -5.7877 -6.5624 0
M  V30 19492 C 2678.78 -3.47817 -6.12078 0
M  V30 19493 C 2679.49 -3.39414 -4.77697 0
M  V30 19494 N 2679.44 -2.04615 -4.15333 0
M  V30 19495 H 2682.28 -3.41248 -7.98759 0
M  V30 19496 H 2682.56 -2.5837 -6.41742 0
M  V30 19497 H 2681.69 -5.02657 -6.42673 0
M  V30 19498 P 2677.72 -6.144 -6.45285 0
M  V30 19499 O 2677.5 -7.54673 -6.86199 0
M  V30 19500 O 2676.93 -5.12391 -7.179 0
M  V30 19501 O 2677.47 -5.99158 -4.88404 0
M  V30 19502 C 2678.41 -6.60234 -3.96415 0
M  V30 19503 C 2677.68 -7.08259 -2.72856 0
M  V30 19504 O 2677.47 -5.9427 -1.83651 0
M  V30 19505 C 2676.28 -7.64886 -2.9555 0
M  V30 19506 O 2675.89 -8.53963 -1.90717 0
M  V30 19507 C 2675.4 -6.4116 -2.90739 0
M  V30 19508 C 2676.11 -5.55375 -1.86963 0
M  V30 19509 N 2676.06 -4.09448 -2.16152 0
M  V30 19510 H 2678.9 -7.45574 -4.45629 0
M  V30 19511 H 2679.18 -5.85864 -3.679 0
M  V30 19512 H 2678.31 -7.84412 -2.24479 0
M  V30 19513 H 2675.65 -5.73457 -0.888562 0
M  V30 19514 H 2675.37 -5.90877 -3.88583 0
M  V30 19515 H 2674.38 -6.6596 -2.58858 0
M  V30 19516 H 2676.22 -8.16339 -3.92049 0
M  V30 19517 P 2674.34 -8.7635 -1.60911 0
M  V30 19518 O 2674.12 -10.1388 -1.11561 0
M  V30 19519 O 2673.55 -8.36503 -2.79617 0
M  V30 19520 O 2674.09 -7.71806 -0.42951 0
M  V30 19521 C 2675.03 -7.67148 0.673689 0
M  V30 19522 C 2674.3 -7.33374 1.95559 0
M  V30 19523 O 2674.09 -5.88721 2.00726 0
M  V30 19524 C 2672.9 -7.92526 2.10483 0
M  V30 19525 O 2672.51 -8.02971 3.47653 0
M  V30 19526 C 2672.02 -6.89602 1.41652 0
M  V30 19527 C 2672.73 -5.59201 1.75185 0
M  V30 19528 N 2672.68 -4.58235 0.662552 0
M  V30 19529 C 2672.76 -4.7683 -0.704049 0
M  V30 19530 N 2672.68 -3.66233 -1.39775 0
M  V30 19531 C 2672.54 -2.66526 -0.431739 0
M  V30 19532 C 2672.41 -1.26394 -0.575992 0
M  V30 19533 N 2672.29 -0.62859 0.67177 0
M  V30 19534 C 2672.29 -1.27134 1.89385 0
M  V30 19535 N 2672.16 -0.492035 2.96951 0
M  V30 19536 N 2672.42 -2.58978 2.02907 0
M  V30 19537 C 2672.54 -3.22433 0.832218 0
M  V30 19538 H 2675.52 -8.65116 0.777161 0
M  V30 19539 H 2675.8 -6.90173 0.474152 0
M  V30 19540 H 2674.93 -7.66548 2.79458 0
M  V30 19541 P 2670.96 -8.03563 3.84925 0
M  V30 19542 O 2670.74 -8.85821 5.0569 0
M  V30 19543 O 2670.17 -8.41101 2.65469 0
M  V30 19544 O 2670.71 -6.4965 4.18908 0
M  V30 19545 C 2671.65 -5.81037 5.05421 0
M  V30 19546 C 2670.92 -4.78366 5.89277 0
M  V30 19547 O 2670.71 -3.58302 5.08433 0
M  V30 19548 C 2669.52 -5.17448 6.36119 0
M  V30 19549 O 2669.13 -4.45271 7.53232 0
M  V30 19550 C 2668.64 -4.74639 5.19936 0
M  V30 19551 C 2669.35 -3.49432 4.70418 0
M  V30 19552 N 2669.3 -3.32099 3.22613 0
M  V30 19553 H 2672.14 -6.54213 5.71376 0
M  V30 19554 H 2672.42 -5.30936 4.43503 0
M  V30 19555 H 2671.55 -4.55889 6.76652 0
M  V30 19556 H 2668.89 -2.61715 5.17932 0
M  V30 19557 H 2668.61 -5.52155 4.41878 0
M  V30 19558 H 2667.62 -4.51981 5.53374 0
M  V30 19559 H 2669.46 -6.25124 6.55234 0
M  V30 19560 P 2667.58 -4.23843 7.83734 0
M  V30 19561 O 2667.36 -4.19407 9.29784 0
M  V30 19562 O 2666.79 -5.24426 7.09156 0
M  V30 19563 O 2667.33 -2.7935 7.20758 0
M  V30 19564 C 2668.27 -1.72945 7.50224 0
M  V30 19565 C 2667.54 -0.406376 7.57911 0
M  V30 19566 O 2667.33 0.0897726 6.21935 0
M  V30 19567 C 2666.14 -0.438983 8.18724 0
M  V30 19568 O 2665.75 0.825065 8.71101 0
M  V30 19569 C 2665.26 -0.783689 6.99524 0
M  V30 19570 C 2665.97 -0.0619086 5.85867 0
M  V30 19571 N 2665.92 -0.78573 4.56183 0
M  V30 19572 C 2665.77 -0.0292889 3.41887 0
M  V30 19573 O 2665.68 1.18445 3.4419 0
M  V30 19574 N 2665.73 -0.744061 2.23964 0
M  V30 19575 C 2665.82 -2.10932 2.10362 0
M  V30 19576 O 2665.77 -2.64117 0.98825 0
M  V30 19577 C 2665.97 -2.8202 3.34994 0
M  V30 19578 C 2666.08 -4.31095 3.25037 0
M  V30 19579 C 2666.02 -2.15547 4.52261 0
M  V30 19580 H 2668.77 -1.93379 8.46595 0
M  V30 19581 H 2669.03 -1.68132 6.70852 0
M  V30 19582 H 2668.17 0.289041 8.15388 0
M  V30 19583 H 2665.51 0.926847 5.72749 0
M  V30 19584 H 2665.23 -1.86973 6.82036 0
M  V30 19585 H 2664.24 -0.403896 7.13257 0
M  V30 19586 H 2666.08 -1.20585 8.97435 0
M  V30 19587 H 2666.15 -2.71231 5.45042 0
M  V30 19588 H 2665.12 -4.76966 3.49992 0
M  V30 19589 H 2666.85 -4.67047 3.95024 0
M  V30 19590 H 2666.37 -4.58996 2.22312 0
M  V30 19591 H 2665.63 -0.214893 1.39758 0
M  V30 19592 P 2664.2 1.17771 8.83182 0
M  V30 19593 O 2663.98 2.07206 9.98732 0
M  V30 19594 O 2663.41 -0.0743816 8.81969 0
M  V30 19595 O 2663.95 1.97652 7.47304 0
M  V30 19596 C 2664.89 3.01133 7.08783 0
M  V30 19597 C 2664.16 4.12613 6.37049 0
M  V30 19598 O 2663.95 3.72827 4.97879 0
M  V30 19599 C 2662.76 4.45085 6.88694 0
M  V30 19600 O 2662.37 5.7877 6.5624 0
M  V30 19601 C 2661.88 3.47817 6.12078 0
M  V30 19602 C 2662.59 3.39414 4.77697 0
M  V30 19603 N 2662.54 2.04615 4.15333 0
M  V30 19604 H 2665.38 3.41248 7.98759 0
M  V30 19605 H 2665.66 2.5837 6.41742 0
M  V30 19606 H 2664.79 5.02657 6.42673 0
M  V30 19607 P 2660.82 6.144 6.45285 0
M  V30 19608 O 2660.6 7.54673 6.86199 0
M  V30 19609 O 2660.03 5.12391 7.179 0
M  V30 19610 O 2660.57 5.99158 4.88404 0
M  V30 19611 C 2661.51 6.60234 3.96415 0
M  V30 19612 C 2660.78 7.08259 2.72856 0
M  V30 19613 O 2660.57 5.9427 1.83651 0
M  V30 19614 C 2659.38 7.64886 2.9555 0
M  V30 19615 O 2658.99 8.53963 1.90717 0
M  V30 19616 C 2658.5 6.4116 2.90739 0
M  V30 19617 C 2659.21 5.55375 1.86963 0
M  V30 19618 N 2659.16 4.09664 2.15742 0
M  V30 19619 H 2662 7.45574 4.45629 0
M  V30 19620 H 2662.28 5.86232 3.67314 0
M  V30 19621 H 2661.41 7.84412 2.24479 0
M  V30 19622 P 2657.44 8.7635 1.60911 0
M  V30 19623 O 2657.22 10.1388 1.11561 0
M  V30 19624 O 2656.65 8.36503 2.79617 0
M  V30 19625 O 2657.19 7.71806 0.42951 0
M  V30 19626 C 2658.13 7.67148 -0.673689 0
M  V30 19627 C 2657.4 7.33374 -1.95559 0
M  V30 19628 O 2657.19 5.88721 -2.00726 0
M  V30 19629 C 2656 7.92526 -2.10483 0
M  V30 19630 O 2655.61 8.02971 -3.47653 0
M  V30 19631 C 2655.12 6.89602 -1.41652 0
M  V30 19632 C 2655.83 5.59201 -1.75185 0
M  V30 19633 N 2655.78 4.58235 -0.662552 0
M  V30 19634 H 2658.62 8.65116 -0.777161 0
M  V30 19635 H 2658.9 6.90173 -0.474152 0
M  V30 19636 H 2658.03 7.66548 -2.79458 0
M  V30 19637 P 2654.06 8.03563 -3.84925 0
M  V30 19638 O 2653.84 8.85821 -5.0569 0
M  V30 19639 O 2653.27 8.41101 -2.65469 0
M  V30 19640 O 2653.81 6.4965 -4.18908 0
M  V30 19641 C 2654.75 5.80886 -5.05289 0
M  V30 19642 C 2654.02 4.78366 -5.89277 0
M  V30 19643 O 2653.81 3.58302 -5.08433 0
M  V30 19644 C 2652.62 5.16748 -6.36559 0
M  V30 19645 O 2652.23 4.45271 -7.53232 0
M  V30 19646 C 2651.74 4.74572 -5.19863 0
M  V30 19647 C 2652.45 3.49373 -4.70338 0
M  V30 19648 N 2652.4 3.31704 -3.22876 0
M  V30 19649 C 2652.25 2.03326 -2.74871 0
M  V30 19650 O 2652.16 1.06486 -3.48076 0
M  V30 19651 N 2652.21 1.91838 -1.37456 0
M  V30 19652 C 2652.3 2.94295 -0.462035 0
M  V30 19653 O 2652.25 2.71763 0.752928 0
M  V30 19654 C 2652.45 4.25064 -1.05249 0
M  V30 19655 C 2652.56 5.39815 -0.095697 0
M  V30 19656 C 2652.5 4.40214 -2.39192 0
M  V30 19657 H 2655.25 6.54063 -5.71245 0
M  V30 19658 H 2655.51 5.30339 -4.43905 0
M  V30 19659 H 2654.65 4.55889 -6.76652 0
M  V30 19660 H 2651.99 2.6167 -5.17842 0
M  V30 19661 H 2651.71 5.52155 -4.41878 0
M  V30 19662 H 2650.72 4.51918 -5.53297 0
M  V30 19663 H 2652.56 6.25055 -6.55162 0
M  V30 19664 H 2652.63 5.39798 -2.81523 0
M  V30 19665 H 2651.6 5.91593 -0.0279582 0
M  V30 19666 H 2653.33 6.10038 -0.450573 0
M  V30 19667 H 2652.85 5.02007 0.89937 0
M  V30 19668 H 2652.11 0.995326 -1.00435 0
M  V30 19669 P 2650.68 4.23843 -7.83734 0
M  V30 19670 O 2650.46 4.19407 -9.29784 0
M  V30 19671 O 2649.89 5.24426 -7.09156 0
M  V30 19672 O 2650.43 2.7935 -7.20758 0
M  V30 19673 C 2651.37 1.7299 -7.50419 0
M  V30 19674 C 2650.64 0.406376 -7.57911 0
M  V30 19675 O 2650.43 -0.0897726 -6.21935 0
M  V30 19676 C 2649.24 0.447224 -8.1878 0
M  V30 19677 O 2648.85 -0.825065 -8.71101 0
M  V30 19678 C 2648.36 0.783801 -6.99623 0
M  V30 19679 C 2649.07 0.0619192 -5.85967 0
M  V30 19680 N 2649.02 0.790462 -4.56202 0
M  V30 19681 H 2651.86 1.93423 -8.4679 0
M  V30 19682 H 2652.14 1.68852 -6.70877 0
M  V30 19683 H 2651.27 -0.289041 -8.15388 0
M  V30 19684 H 2648.61 -0.927006 -5.72848 0
M  V30 19685 H 2648.33 1.86973 -6.82036 0
M  V30 19686 H 2647.34 0.403953 -7.13357 0
M  V30 19687 H 2649.18 1.20599 -8.97534 0
M  V30 19688 P 2647.3 -1.17771 -8.83182 0
M  V30 19689 O 2647.08 -2.07206 -9.98732 0
M  V30 19690 O 2646.51 0.0743816 -8.81969 0
M  V30 19691 O 2647.05 -1.97652 -7.47304 0
M  V30 19692 C 2647.99 -3.01133 -7.08783 0
M  V30 19693 C 2647.26 -4.12613 -6.37049 0
M  V30 19694 O 2647.05 -3.72827 -4.97879 0
M  V30 19695 C 2645.86 -4.45085 -6.88694 0
M  V30 19696 O 2645.47 -5.7877 -6.5624 0
M  V30 19697 C 2644.98 -3.47817 -6.12078 0
M  V30 19698 C 2645.69 -3.39414 -4.77697 0
M  V30 19699 N 2645.64 -2.04199 -4.15538 0
M  V30 19700 H 2648.48 -3.41248 -7.98759 0
M  V30 19701 H 2648.76 -2.57728 -6.42 0
M  V30 19702 H 2647.89 -5.02657 -6.42673 0
M  V30 19703 H 2645.23 -4.11708 -4.08956 0
M  V30 19704 H 2644.95 -2.49626 -6.61679 0
M  V30 19705 H 2643.96 -3.8662 -6.00862 0
M  V30 19706 H 2645.8 -4.29991 -7.97006 0
M  V30 19707 P 2643.92 -6.144 -6.45285 0
M  V30 19708 O 2643.7 -7.54673 -6.86199 0
M  V30 19709 O 2643.13 -5.12391 -7.179 0
M  V30 19710 O 2643.67 -5.99158 -4.88404 0
M  V30 19711 C 2644.61 -6.60234 -3.96415 0
M  V30 19712 C 2643.88 -7.08259 -2.72856 0
M  V30 19713 O 2643.67 -5.9427 -1.83651 0
M  V30 19714 C 2642.48 -7.64886 -2.9555 0
M  V30 19715 O 2642.09 -8.53963 -1.90717 0
M  V30 19716 C 2641.6 -6.4116 -2.90739 0
M  V30 19717 C 2642.31 -5.55375 -1.86963 0
M  V30 19718 N 2642.26 -4.09664 -2.15742 0
M  V30 19719 H 2645.1 -7.45574 -4.45629 0
M  V30 19720 H 2645.38 -5.86232 -3.67314 0
M  V30 19721 H 2644.51 -7.84412 -2.24479 0
M  V30 19722 P 2640.54 -8.7635 -1.60911 0
M  V30 19723 O 2640.32 -10.1388 -1.11561 0
M  V30 19724 O 2639.75 -8.36503 -2.79617 0
M  V30 19725 O 2640.29 -7.71806 -0.42951 0
M  V30 19726 C 2641.23 -7.67148 0.673689 0
M  V30 19727 C 2640.5 -7.33374 1.95559 0
M  V30 19728 O 2640.29 -5.88721 2.00726 0
M  V30 19729 C 2639.1 -7.92526 2.10483 0
M  V30 19730 O 2638.71 -8.02971 3.47653 0
M  V30 19731 C 2638.22 -6.89602 1.41652 0
M  V30 19732 C 2638.93 -5.59201 1.75185 0
M  V30 19733 N 2638.88 -4.58301 0.657969 0
M  V30 19734 H 2641.72 -8.65116 0.777161 0
M  V30 19735 H 2642 -6.9022 0.46725 0
M  V30 19736 H 2641.13 -7.66548 2.79458 0
M  V30 19737 H 2638.47 -5.16165 2.65183 0
M  V30 19738 H 2638.19 -7.06433 0.329384 0
M  V30 19739 H 2637.2 -6.90926 1.82021 0
M  V30 19740 H 2639.04 -8.90873 1.62657 0
M  V30 19741 P 2637.16 -8.03563 3.84925 0
M  V30 19742 O 2636.94 -8.85821 5.0569 0
M  V30 19743 O 2636.37 -8.41101 2.65469 0
M  V30 19744 O 2636.91 -6.4965 4.18908 0
M  V30 19745 C 2637.85 -5.80886 5.05289 0
M  V30 19746 C 2637.12 -4.78366 5.89277 0
M  V30 19747 O 2636.91 -3.58302 5.08433 0
M  V30 19748 C 2635.72 -5.16748 6.36559 0
M  V30 19749 O 2635.33 -4.45271 7.53232 0
M  V30 19750 C 2634.84 -4.74572 5.19863 0
M  V30 19751 C 2635.55 -3.49373 4.70338 0
M  V30 19752 N 2635.5 -3.31704 3.22876 0
M  V30 19753 C 2635.35 -2.03326 2.74871 0
M  V30 19754 O 2635.26 -1.06486 3.48076 0
M  V30 19755 N 2635.31 -1.91838 1.37456 0
M  V30 19756 C 2635.4 -2.94295 0.462035 0
M  V30 19757 O 2635.35 -2.71763 -0.752928 0
M  V30 19758 C 2635.55 -4.25064 1.05249 0
M  V30 19759 C 2635.66 -5.39815 0.095697 0
M  V30 19760 C 2635.6 -4.40214 2.39192 0
M  V30 19761 H 2638.35 -6.54063 5.71245 0
M  V30 19762 H 2638.61 -5.30339 4.43905 0
M  V30 19763 H 2637.75 -4.55889 6.76652 0
M  V30 19764 H 2635.09 -2.6167 5.17842 0
M  V30 19765 H 2634.81 -5.52155 4.41878 0
M  V30 19766 H 2633.82 -4.51918 5.53297 0
M  V30 19767 H 2635.66 -6.25055 6.55162 0
M  V30 19768 H 2635.73 -5.39798 2.81523 0
M  V30 19769 H 2634.7 -5.91593 0.0279582 0
M  V30 19770 H 2636.43 -6.10038 0.450573 0
M  V30 19771 H 2635.95 -5.02007 -0.89937 0
M  V30 19772 H 2635.21 -0.995326 1.00435 0
M  V30 19773 P 2633.78 -4.23843 7.83734 0
M  V30 19774 O 2633.56 -4.19407 9.29784 0
M  V30 19775 O 2632.99 -5.24426 7.09156 0
M  V30 19776 O 2633.53 -2.7935 7.20758 0
M  V30 19777 C 2634.47 -1.7299 7.50419 0
M  V30 19778 C 2633.74 -0.406376 7.57911 0
M  V30 19779 O 2633.53 0.0897726 6.21935 0
M  V30 19780 C 2632.34 -0.447224 8.1878 0
M  V30 19781 O 2631.95 0.825065 8.71101 0
M  V30 19782 C 2631.46 -0.783801 6.99623 0
M  V30 19783 C 2632.17 -0.0619192 5.85967 0
M  V30 19784 N 2632.12 -0.7859 4.56281 0
M  V30 19785 H 2634.96 -1.93423 8.4679 0
M  V30 19786 H 2635.24 -1.68181 6.71046 0
M  V30 19787 H 2634.37 0.289041 8.15388 0
M  V30 19788 P 2630.4 1.17771 8.83182 0
M  V30 19789 O 2630.18 2.07206 9.98732 0
M  V30 19790 O 2629.61 -0.0743816 8.81969 0
M  V30 19791 O 2630.15 1.97652 7.47304 0
M  V30 19792 C 2631.09 3.01133 7.08783 0
M  V30 19793 C 2630.36 4.12613 6.37049 0
M  V30 19794 O 2630.15 3.72827 4.97879 0
M  V30 19795 C 2628.96 4.45085 6.88694 0
M  V30 19796 O 2628.57 5.7877 6.5624 0
M  V30 19797 C 2628.08 3.47817 6.12078 0
M  V30 19798 C 2628.79 3.39414 4.77697 0
M  V30 19799 N 2628.74 2.04199 4.15538 0
M  V30 19800 H 2631.58 3.41248 7.98759 0
M  V30 19801 H 2631.86 2.57728 6.42 0
M  V30 19802 H 2630.99 5.02657 6.42673 0
M  V30 19803 H 2628.33 4.11708 4.08956 0
M  V30 19804 H 2628.05 2.49626 6.61679 0
M  V30 19805 H 2627.06 3.8662 6.00862 0
M  V30 19806 H 2628.9 4.29991 7.97006 0
M  V30 19807 P 2627.02 6.144 6.45285 0
M  V30 19808 O 2626.8 7.54673 6.86199 0
M  V30 19809 O 2626.23 5.12391 7.179 0
M  V30 19810 O 2626.77 5.99158 4.88404 0
M  V30 19811 C 2627.71 6.60234 3.96415 0
M  V30 19812 C 2626.98 7.08259 2.72856 0
M  V30 19813 O 2626.77 5.9427 1.83651 0
M  V30 19814 C 2625.58 7.64886 2.9555 0
M  V30 19815 O 2625.19 8.53963 1.90717 0
M  V30 19816 C 2624.7 6.4116 2.90739 0
M  V30 19817 C 2625.41 5.55375 1.86963 0
M  V30 19818 N 2625.36 4.09664 2.15742 0
M  V30 19819 H 2628.2 7.45574 4.45629 0
M  V30 19820 H 2628.48 5.86232 3.67314 0
M  V30 19821 H 2627.61 7.84412 2.24479 0
M  V30 19822 P 2623.64 8.7635 1.60911 0
M  V30 19823 O 2623.42 10.1388 1.11561 0
M  V30 19824 O 2622.85 8.36503 2.79617 0
M  V30 19825 O 2623.39 7.71806 0.42951 0
M  V30 19826 C 2624.33 7.67148 -0.673689 0
M  V30 19827 C 2623.6 7.33374 -1.95559 0
M  V30 19828 O 2623.39 5.88721 -2.00726 0
M  V30 19829 C 2622.2 7.92526 -2.10483 0
M  V30 19830 O 2621.81 8.02971 -3.47653 0
M  V30 19831 C 2621.32 6.89602 -1.41652 0
M  V30 19832 C 2622.03 5.59201 -1.75185 0
M  V30 19833 N 2621.98 4.58235 -0.662552 0
M  V30 19834 C 2622.06 4.7683 0.704049 0
M  V30 19835 N 2621.98 3.66233 1.39775 0
M  V30 19836 C 2621.84 2.66526 0.431739 0
M  V30 19837 C 2621.71 1.26394 0.575992 0
M  V30 19838 N 2621.59 0.62859 -0.67177 0
M  V30 19839 C 2621.59 1.27134 -1.89385 0
M  V30 19840 N 2621.46 0.492035 -2.96951 0
M  V30 19841 N 2621.72 2.58978 -2.02907 0
M  V30 19842 C 2621.84 3.22433 -0.832218 0
M  V30 19843 H 2624.82 8.65116 -0.777161 0
M  V30 19844 H 2625.1 6.90173 -0.474152 0
M  V30 19845 H 2624.23 7.66548 -2.79458 0
M  V30 19846 P 2620.26 8.03563 -3.84925 0
M  V30 19847 O 2620.04 8.85821 -5.0569 0
M  V30 19848 O 2619.47 8.41101 -2.65469 0
M  V30 19849 O 2620.01 6.4965 -4.18908 0
M  V30 19850 C 2620.95 5.81037 -5.05421 0
M  V30 19851 C 2620.22 4.78366 -5.89277 0
M  V30 19852 O 2620.01 3.58302 -5.08433 0
M  V30 19853 C 2618.82 5.17448 -6.36119 0
M  V30 19854 O 2618.43 4.45271 -7.53232 0
M  V30 19855 C 2617.94 4.74639 -5.19936 0
M  V30 19856 C 2618.65 3.49432 -4.70418 0
M  V30 19857 N 2618.6 3.31776 -3.22945 0
M  V30 19858 H 2621.44 6.54213 -5.71376 0
M  V30 19859 H 2621.72 5.30492 -4.44033 0
M  V30 19860 H 2620.85 4.55889 -6.76652 0
M  V30 19861 P 2616.88 4.23843 -7.83734 0
M  V30 19862 O 2616.66 4.19407 -9.29784 0
M  V30 19863 O 2616.09 5.24426 -7.09156 0
M  V30 19864 O 2616.63 2.7935 -7.20758 0
M  V30 19865 C 2617.57 1.7299 -7.50419 0
M  V30 19866 C 2616.84 0.406376 -7.57911 0
M  V30 19867 O 2616.63 -0.0897726 -6.21935 0
M  V30 19868 C 2615.44 0.447224 -8.1878 0
M  V30 19869 O 2615.05 -0.825065 -8.71101 0
M  V30 19870 C 2614.56 0.783801 -6.99623 0
M  V30 19871 C 2615.27 0.0619192 -5.85967 0
M  V30 19872 N 2615.22 0.7859 -4.56281 0
M  V30 19873 H 2618.06 1.93423 -8.4679 0
M  V30 19874 H 2618.34 1.68181 -6.71046 0
M  V30 19875 H 2617.47 -0.289041 -8.15388 0
M  V30 19876 P 2613.5 -1.17771 -8.83182 0
M  V30 19877 O 2613.28 -2.07206 -9.98732 0
M  V30 19878 O 2612.71 0.0743816 -8.81969 0
M  V30 19879 O 2613.25 -1.97652 -7.47304 0
M  V30 19880 C 2614.19 -3.01133 -7.08783 0
M  V30 19881 C 2613.46 -4.12613 -6.37049 0
M  V30 19882 O 2613.25 -3.72827 -4.97879 0
M  V30 19883 C 2612.06 -4.45085 -6.88694 0
M  V30 19884 O 2611.67 -5.7877 -6.5624 0
M  V30 19885 C 2611.18 -3.47817 -6.12078 0
M  V30 19886 C 2611.89 -3.39414 -4.77697 0
M  V30 19887 N 2611.84 -2.04615 -4.15333 0
M  V30 19888 H 2614.68 -3.41248 -7.98759 0
M  V30 19889 H 2614.96 -2.5837 -6.41742 0
M  V30 19890 H 2614.09 -5.02657 -6.42673 0
M  V30 19891 P 2610.12 -6.144 -6.45285 0
M  V30 19892 O 2609.9 -7.54673 -6.86199 0
M  V30 19893 O 2609.33 -5.12391 -7.179 0
M  V30 19894 O 2609.87 -5.99158 -4.88404 0
M  V30 19895 C 2610.81 -6.60062 -3.96313 0
M  V30 19896 C 2610.08 -7.08259 -2.72856 0
M  V30 19897 O 2609.87 -5.9427 -1.83651 0
M  V30 19898 C 2608.68 -7.65087 -2.94749 0
M  V30 19899 O 2608.29 -8.53963 -1.90717 0
M  V30 19900 C 2607.8 -6.41069 -2.90698 0
M  V30 19901 C 2608.51 -5.5528 -1.86931 0
M  V30 19902 N 2608.46 -4.09575 -2.15696 0
M  V30 19903 C 2608.31 -3.24249 -1.08435 0
M  V30 19904 O 2608.22 -3.63946 0.0628747 0
M  V30 19905 N 2608.27 -1.90009 -1.39973 0
M  V30 19906 C 2608.36 -1.34884 -2.65614 0
M  V30 19907 C 2608.51 -2.3145 -3.71736 0
M  V30 19908 C 2608.56 -3.63518 -3.44754 0
M  V30 19909 H 2611.31 -7.45402 -4.45526 0
M  V30 19910 H 2611.57 -5.86062 -3.67208 0
M  V30 19911 H 2610.71 -7.84412 -2.24479 0
M  V30 19912 H 2608.05 -5.73358 -0.888409 0
M  V30 19913 H 2607.77 -5.90877 -3.88583 0
M  V30 19914 H 2606.78 -6.65867 -2.58821 0
M  V30 19915 H 2608.62 -8.16248 -3.92006 0
M  V30 19916 H 2608.69 -4.34551 -4.26383 0
M  V30 19917 P 2606.74 -8.7635 -1.60911 0
M  V30 19918 O 2606.52 -10.1388 -1.11561 0
M  V30 19919 O 2605.95 -8.36503 -2.79617 0
M  V30 19920 O 2606.49 -7.71806 -0.42951 0
M  V30 19921 C 2607.43 -7.67148 0.673689 0
M  V30 19922 C 2606.7 -7.33374 1.95559 0
M  V30 19923 O 2606.49 -5.88721 2.00726 0
M  V30 19924 C 2605.3 -7.92526 2.10483 0
M  V30 19925 O 2604.91 -8.02971 3.47653 0
M  V30 19926 C 2604.42 -6.89602 1.41652 0
M  V30 19927 C 2605.13 -5.59201 1.75185 0
M  V30 19928 N 2605.08 -4.58235 0.662552 0
M  V30 19929 H 2607.92 -8.65116 0.777161 0
M  V30 19930 H 2608.2 -6.90173 0.474152 0
M  V30 19931 H 2607.33 -7.66548 2.79458 0
M  V30 19932 P 2603.36 -8.03563 3.84925 0
M  V30 19933 O 2603.14 -8.85821 5.0569 0
M  V30 19934 O 2602.57 -8.41101 2.65469 0
M  V30 19935 O 2603.11 -6.4965 4.18908 0
M  V30 19936 C 2604.05 -5.81037 5.05421 0
M  V30 19937 C 2603.32 -4.78366 5.89277 0
M  V30 19938 O 2603.11 -3.58302 5.08433 0
M  V30 19939 C 2601.92 -5.17448 6.36119 0
M  V30 19940 O 2601.53 -4.45271 7.53232 0
M  V30 19941 C 2601.04 -4.74639 5.19936 0
M  V30 19942 C 2601.75 -3.49432 4.70418 0
M  V30 19943 N 2601.7 -3.31776 3.22945 0
M  V30 19944 H 2604.54 -6.54213 5.71376 0
M  V30 19945 H 2604.82 -5.30492 4.44033 0
M  V30 19946 H 2603.95 -4.55889 6.76652 0
M  V30 19947 P 2599.98 -4.23843 7.83734 0
M  V30 19948 O 2599.76 -4.19407 9.29784 0
M  V30 19949 O 2599.19 -5.24426 7.09156 0
M  V30 19950 O 2599.73 -2.7935 7.20758 0
M  V30 19951 C 2600.67 -1.7299 7.50419 0
M  V30 19952 C 2599.94 -0.406376 7.57911 0
M  V30 19953 O 2599.73 0.0897726 6.21935 0
M  V30 19954 C 2598.54 -0.447224 8.1878 0
M  V30 19955 O 2598.15 0.825065 8.71101 0
M  V30 19956 C 2597.66 -0.783801 6.99623 0
M  V30 19957 C 2598.37 -0.0619192 5.85967 0
M  V30 19958 N 2598.32 -0.790462 4.56202 0
M  V30 19959 H 2601.16 -1.93423 8.4679 0
M  V30 19960 H 2601.44 -1.68852 6.70877 0
M  V30 19961 H 2600.57 0.289041 8.15388 0
M  V30 19962 H 2597.91 0.927006 5.72848 0
M  V30 19963 H 2597.63 -1.86973 6.82036 0
M  V30 19964 H 2596.64 -0.403953 7.13357 0
M  V30 19965 H 2598.48 -1.20599 8.97534 0
M  V30 19966 P 2596.6 1.17771 8.83182 0
M  V30 19967 O 2596.38 2.07206 9.98732 0
M  V30 19968 O 2595.81 -0.0743816 8.81969 0
M  V30 19969 O 2596.35 1.97652 7.47304 0
M  V30 19970 C 2597.29 3.01133 7.08783 0
M  V30 19971 C 2596.56 4.12613 6.37049 0
M  V30 19972 O 2596.35 3.72827 4.97879 0
M  V30 19973 C 2595.16 4.45085 6.88694 0
M  V30 19974 O 2594.77 5.7877 6.5624 0
M  V30 19975 C 2594.28 3.47817 6.12078 0
M  V30 19976 C 2594.99 3.39414 4.77697 0
M  V30 19977 N 2594.94 2.04615 4.15333 0
M  V30 19978 H 2597.78 3.41248 7.98759 0
M  V30 19979 H 2598.06 2.5837 6.41742 0
M  V30 19980 H 2597.19 5.02657 6.42673 0
M  V30 19981 P 2593.22 6.144 6.45285 0
M  V30 19982 O 2593 7.54673 6.86199 0
M  V30 19983 O 2592.43 5.12391 7.179 0
M  V30 19984 O 2592.97 5.99158 4.88404 0
M  V30 19985 C 2593.91 6.60234 3.96415 0
M  V30 19986 C 2593.18 7.08259 2.72856 0
M  V30 19987 O 2592.97 5.9427 1.83651 0
M  V30 19988 C 2591.78 7.64886 2.9555 0
M  V30 19989 O 2591.39 8.53963 1.90717 0
M  V30 19990 C 2590.9 6.4116 2.90739 0
M  V30 19991 C 2591.61 5.55375 1.86963 0
M  V30 19992 N 2591.56 4.09664 2.15742 0
M  V30 19993 H 2594.4 7.45574 4.45629 0
M  V30 19994 H 2594.68 5.86232 3.67314 0
M  V30 19995 H 2593.81 7.84412 2.24479 0
M  V30 19996 P 2589.84 8.7635 1.60911 0
M  V30 19997 O 2589.62 10.1388 1.11561 0
M  V30 19998 O 2589.05 8.36503 2.79617 0
M  V30 19999 O 2589.59 7.71806 0.42951 0
M  V30 20000 C 2590.53 7.67148 -0.673689 0
M  V30 20001 C 2589.8 7.33374 -1.95559 0
M  V30 20002 O 2589.59 5.88721 -2.00726 0
M  V30 20003 C 2588.4 7.92526 -2.10483 0
M  V30 20004 O 2588.01 8.02971 -3.47653 0
M  V30 20005 C 2587.52 6.89602 -1.41652 0
M  V30 20006 C 2588.23 5.59201 -1.75185 0
M  V30 20007 N 2588.18 4.58235 -0.662552 0
M  V30 20008 H 2591.02 8.65116 -0.777161 0
M  V30 20009 H 2591.3 6.90173 -0.474152 0
M  V30 20010 H 2590.43 7.66548 -2.79458 0
M  V30 20011 P 2586.46 8.03563 -3.84925 0
M  V30 20012 O 2586.24 8.85821 -5.0569 0
M  V30 20013 O 2585.67 8.41101 -2.65469 0
M  V30 20014 O 2586.21 6.4965 -4.18908 0
M  V30 20015 C 2587.15 5.81037 -5.05421 0
M  V30 20016 C 2586.42 4.78366 -5.89277 0
M  V30 20017 O 2586.21 3.58302 -5.08433 0
M  V30 20018 C 2585.02 5.17448 -6.36119 0
M  V30 20019 O 2584.63 4.45271 -7.53232 0
M  V30 20020 C 2584.14 4.74639 -5.19936 0
M  V30 20021 C 2584.85 3.49432 -4.70418 0
M  V30 20022 N 2584.8 3.32099 -3.22613 0
M  V30 20023 H 2587.64 6.54213 -5.71376 0
M  V30 20024 H 2587.92 5.30936 -4.43503 0
M  V30 20025 H 2587.05 4.55889 -6.76652 0
M  V30 20026 H 2584.39 2.61715 -5.17932 0
M  V30 20027 H 2584.11 5.52155 -4.41878 0
M  V30 20028 H 2583.12 4.51981 -5.53374 0
M  V30 20029 H 2584.96 6.25124 -6.55234 0
M  V30 20030 P 2583.08 4.23843 -7.83734 0
M  V30 20031 O 2582.86 4.19407 -9.29784 0
M  V30 20032 O 2582.29 5.24426 -7.09156 0
M  V30 20033 O 2582.83 2.7935 -7.20758 0
M  V30 20034 C 2583.77 1.7299 -7.50419 0
M  V30 20035 C 2583.04 0.406376 -7.57911 0
M  V30 20036 O 2582.83 -0.0897726 -6.21935 0
M  V30 20037 C 2581.64 0.447224 -8.1878 0
M  V30 20038 O 2581.25 -0.825065 -8.71101 0
M  V30 20039 C 2580.76 0.783801 -6.99623 0
M  V30 20040 C 2581.47 0.0619192 -5.85967 0
M  V30 20041 N 2581.42 0.7859 -4.56281 0
M  V30 20042 H 2584.26 1.93423 -8.4679 0
M  V30 20043 H 2584.54 1.68181 -6.71046 0
M  V30 20044 H 2583.67 -0.289041 -8.15388 0
M  V30 20045 P 2579.7 -1.17771 -8.83182 0
M  V30 20046 O 2579.48 -2.07206 -9.98732 0
M  V30 20047 O 2578.91 0.0743816 -8.81969 0
M  V30 20048 O 2579.45 -1.97652 -7.47304 0
M  V30 20049 C 2580.39 -3.01133 -7.08783 0
M  V30 20050 C 2579.66 -4.12613 -6.37049 0
M  V30 20051 O 2579.45 -3.72827 -4.97879 0
M  V30 20052 C 2578.26 -4.45085 -6.88694 0
M  V30 20053 O 2577.87 -5.7877 -6.5624 0
M  V30 20054 C 2577.38 -3.47817 -6.12078 0
M  V30 20055 C 2578.09 -3.39414 -4.77697 0
M  V30 20056 N 2578.04 -2.04615 -4.15333 0
M  V30 20057 C 2578.12 -0.803897 -4.75249 0
M  V30 20058 N 2578.04 0.197615 -3.91502 0
M  V30 20059 C 2577.9 -0.413002 -2.66823 0
M  V30 20060 C 2577.77 0.157221 -1.38007 0
M  V30 20061 N 2577.65 -0.833136 -0.390236 0
M  V30 20062 C 2577.65 -2.19402 -0.623885 0
M  V30 20063 N 2577.52 -2.97622 0.449677 0
M  V30 20064 N 2577.78 -2.73005 -1.83601 0
M  V30 20065 C 2577.9 -1.78786 -2.80935 0
M  V30 20066 H 2580.88 -3.41248 -7.98759 0
M  V30 20067 H 2581.16 -2.5837 -6.41742 0
M  V30 20068 H 2580.29 -5.02657 -6.42673 0
M  V30 20069 P 2576.32 -6.144 -6.45285 0
M  V30 20070 O 2576.1 -7.54673 -6.86199 0
M  V30 20071 O 2575.53 -5.12391 -7.179 0
M  V30 20072 O 2576.07 -5.99158 -4.88404 0
M  V30 20073 C 2577.01 -6.60234 -3.96415 0
M  V30 20074 C 2576.28 -7.08259 -2.72856 0
M  V30 20075 O 2576.07 -5.9427 -1.83651 0
M  V30 20076 C 2574.88 -7.64886 -2.9555 0
M  V30 20077 O 2574.49 -8.53963 -1.90717 0
M  V30 20078 C 2574 -6.4116 -2.90739 0
M  V30 20079 C 2574.71 -5.55375 -1.86963 0
M  V30 20080 N 2574.66 -4.09664 -2.15742 0
M  V30 20081 H 2577.5 -7.45574 -4.45629 0
M  V30 20082 H 2577.78 -5.86232 -3.67314 0
M  V30 20083 H 2576.91 -7.84412 -2.24479 0
M  V30 20084 P 2572.94 -8.7635 -1.60911 0
M  V30 20085 O 2572.72 -10.1388 -1.11561 0
M  V30 20086 O 2572.15 -8.36503 -2.79617 0
M  V30 20087 O 2572.69 -7.71806 -0.42951 0
M  V30 20088 C 2573.63 -7.67148 0.673689 0
M  V30 20089 C 2572.9 -7.33374 1.95559 0
M  V30 20090 O 2572.69 -5.88721 2.00726 0
M  V30 20091 C 2571.5 -7.92526 2.10483 0
M  V30 20092 O 2571.11 -8.02971 3.47653 0
M  V30 20093 C 2570.62 -6.89602 1.41652 0
M  V30 20094 C 2571.33 -5.59201 1.75185 0
M  V30 20095 N 2571.28 -4.58235 0.662552 0
M  V30 20096 H 2574.12 -8.65116 0.777161 0
M  V30 20097 H 2574.4 -6.90173 0.474152 0
M  V30 20098 H 2573.53 -7.66548 2.79458 0
M  V30 20099 P 2569.56 -8.03563 3.84925 0
M  V30 20100 O 2569.34 -8.85821 5.0569 0
M  V30 20101 O 2568.77 -8.41101 2.65469 0
M  V30 20102 O 2569.31 -6.4965 4.18908 0
M  V30 20103 C 2570.25 -5.81037 5.05421 0
M  V30 20104 C 2569.52 -4.78366 5.89277 0
M  V30 20105 O 2569.31 -3.58302 5.08433 0
M  V30 20106 C 2568.12 -5.17448 6.36119 0
M  V30 20107 O 2567.73 -4.45271 7.53232 0
M  V30 20108 C 2567.24 -4.74639 5.19936 0
M  V30 20109 C 2567.95 -3.49432 4.70418 0
M  V30 20110 N 2567.9 -3.31776 3.22945 0
M  V30 20111 H 2570.74 -6.54213 5.71376 0
M  V30 20112 H 2571.02 -5.30492 4.44033 0
M  V30 20113 H 2570.15 -4.55889 6.76652 0
M  V30 20114 P 2566.18 -4.23843 7.83734 0
M  V30 20115 O 2565.96 -4.19407 9.29784 0
M  V30 20116 O 2565.39 -5.24426 7.09156 0
M  V30 20117 O 2565.93 -2.7935 7.20758 0
M  V30 20118 C 2566.87 -1.7299 7.50419 0
M  V30 20119 C 2566.14 -0.406376 7.57911 0
M  V30 20120 O 2565.93 0.0897726 6.21935 0
M  V30 20121 C 2564.74 -0.447224 8.1878 0
M  V30 20122 O 2564.35 0.825065 8.71101 0
M  V30 20123 C 2563.86 -0.783801 6.99623 0
M  V30 20124 C 2564.57 -0.0619192 5.85967 0
M  V30 20125 N 2564.52 -0.790462 4.56202 0
M  V30 20126 H 2567.36 -1.93423 8.4679 0
M  V30 20127 H 2567.64 -1.68852 6.70877 0
M  V30 20128 H 2566.77 0.289041 8.15388 0
M  V30 20129 H 2564.11 0.927006 5.72848 0
M  V30 20130 H 2563.83 -1.86973 6.82036 0
M  V30 20131 H 2562.84 -0.403953 7.13357 0
M  V30 20132 H 2564.68 -1.20599 8.97534 0
M  V30 20133 P 2562.8 1.17771 8.83182 0
M  V30 20134 O 2562.58 2.07206 9.98732 0
M  V30 20135 O 2562.01 -0.0743816 8.81969 0
M  V30 20136 O 2562.55 1.97652 7.47304 0
M  V30 20137 C 2563.49 3.01133 7.08783 0
M  V30 20138 C 2562.76 4.12613 6.37049 0
M  V30 20139 O 2562.55 3.72827 4.97879 0
M  V30 20140 C 2561.36 4.45085 6.88694 0
M  V30 20141 O 2560.97 5.7877 6.5624 0
M  V30 20142 C 2560.48 3.47817 6.12078 0
M  V30 20143 C 2561.19 3.39414 4.77697 0
M  V30 20144 N 2561.14 2.04615 4.15333 0
M  V30 20145 H 2563.98 3.41248 7.98759 0
M  V30 20146 H 2564.26 2.5837 6.41742 0
M  V30 20147 H 2563.39 5.02657 6.42673 0
M  V30 20148 P 2559.42 6.144 6.45285 0
M  V30 20149 O 2559.2 7.54673 6.86199 0
M  V30 20150 O 2558.63 5.12391 7.179 0
M  V30 20151 O 2559.17 5.99158 4.88404 0
M  V30 20152 C 2560.11 6.60234 3.96415 0
M  V30 20153 C 2559.38 7.08259 2.72856 0
M  V30 20154 O 2559.17 5.9427 1.83651 0
M  V30 20155 C 2557.98 7.64886 2.9555 0
M  V30 20156 O 2557.59 8.53963 1.90717 0
M  V30 20157 C 2557.1 6.4116 2.90739 0
M  V30 20158 C 2557.81 5.55375 1.86963 0
M  V30 20159 N 2557.76 4.09664 2.15742 0
M  V30 20160 H 2560.6 7.45574 4.45629 0
M  V30 20161 H 2560.88 5.86232 3.67314 0
M  V30 20162 H 2560.01 7.84412 2.24479 0
M  V30 20163 P 2556.04 8.7635 1.60911 0
M  V30 20164 O 2555.82 10.1388 1.11561 0
M  V30 20165 O 2555.25 8.36503 2.79617 0
M  V30 20166 O 2555.79 7.71906 0.429565 0
M  V30 20167 C 2556.73 7.67148 -0.673689 0
M  V30 20168 C 2556 7.33666 -1.94851 0
M  V30 20169 O 2555.79 5.88816 -2.00759 0
M  V30 20170 C 2554.6 7.92526 -2.10483 0
M  V30 20171 O 2554.21 8.03063 -3.47693 0
M  V30 20172 C 2553.72 6.89602 -1.41652 0
M  V30 20173 C 2554.43 5.59201 -1.75185 0
M  V30 20174 N 2554.38 4.58235 -0.662552 0
M  V30 20175 C 2554.23 3.24451 -1.01643 0
M  V30 20176 O 2554.14 2.94958 -2.21722 0
M  V30 20177 N 2554.18 2.30408 0.165238 0
M  V30 20178 C 2554.28 2.66048 1.25118 0
M  V30 20179 N 2554.23 1.70787 2.16813 0
M  V30 20180 C 2554.43 4.02732 1.64413 0
M  V30 20181 C 2554.48 4.9488 0.63991 0
M  V30 20182 H 2557.22 8.65017 -0.777072 0
M  V30 20183 H 2557.49 6.90173 -0.474152 0
M  V30 20184 H 2556.63 7.66642 -2.79492 0
M  V30 20185 H 2553.97 5.16254 -2.65229 0
M  V30 20186 H 2553.69 7.06532 -0.329431 0
M  V30 20187 H 2552.7 6.91023 -1.82047 0
M  V30 20188 H 2554.54 8.90873 -1.62657 0
M  V30 20189 H 2554.61 6.00104 0.892197 0
M  V30 20190 H 2554.51 4.31733 2.69229 0
M  V30 20191 H 2554.12 0.724835 1.8844 0
M  V30 20192 H 2554.31 1.94716 3.16734 0
M  V30 20193 P 2552.66 8.03563 -3.84925 0
M  V30 20194 O 2552.44 8.85821 -5.0569 0
M  V30 20195 O 2551.87 8.41101 -2.65469 0
M  V30 20196 O 2552.41 6.4965 -4.18908 0
M  V30 20197 C 2553.35 5.81037 -5.05421 0
M  V30 20198 C 2552.62 4.78366 -5.89277 0
M  V30 20199 O 2552.41 3.58302 -5.08433 0
M  V30 20200 C 2551.22 5.17448 -6.36119 0
M  V30 20201 O 2550.83 4.45271 -7.53232 0
M  V30 20202 C 2550.34 4.74639 -5.19936 0
M  V30 20203 C 2551.05 3.49432 -4.70418 0
M  V30 20204 N 2551 3.31776 -3.22945 0
M  V30 20205 H 2553.84 6.54213 -5.71376 0
M  V30 20206 H 2554.12 5.30492 -4.44033 0
M  V30 20207 H 2553.25 4.55889 -6.76652 0
M  V30 20208 P 2549.28 4.23843 -7.83734 0
M  V30 20209 O 2549.06 4.19407 -9.29784 0
M  V30 20210 O 2548.49 5.24426 -7.09156 0
M  V30 20211 O 2549.03 2.7935 -7.20758 0
M  V30 20212 C 2549.97 1.7299 -7.50419 0
M  V30 20213 C 2549.24 0.406376 -7.57911 0
M  V30 20214 O 2549.03 -0.0897726 -6.21935 0
M  V30 20215 C 2547.84 0.447224 -8.1878 0
M  V30 20216 O 2547.45 -0.825065 -8.71101 0
M  V30 20217 C 2546.96 0.783801 -6.99623 0
M  V30 20218 C 2547.67 0.0619192 -5.85967 0
M  V30 20219 N 2547.62 0.7859 -4.56281 0
M  V30 20220 H 2550.46 1.93423 -8.4679 0
M  V30 20221 H 2550.74 1.68181 -6.71046 0
M  V30 20222 H 2549.87 -0.289041 -8.15388 0
M  V30 20223 P 2545.9 -1.17771 -8.83182 0
M  V30 20224 O 2545.68 -2.07206 -9.98732 0
M  V30 20225 O 2545.11 0.0743816 -8.81969 0
M  V30 20226 O 2545.65 -1.97652 -7.47304 0
M  V30 20227 C 2546.59 -3.01133 -7.08783 0
M  V30 20228 C 2545.86 -4.12613 -6.37049 0
M  V30 20229 O 2545.65 -3.72827 -4.97879 0
M  V30 20230 C 2544.46 -4.45085 -6.88694 0
M  V30 20231 O 2544.07 -5.7877 -6.5624 0
M  V30 20232 C 2543.58 -3.47817 -6.12078 0
M  V30 20233 C 2544.29 -3.39414 -4.77697 0
M  V30 20234 N 2544.24 -2.04615 -4.15333 0
M  V30 20235 H 2547.08 -3.41248 -7.98759 0
M  V30 20236 H 2547.36 -2.5837 -6.41742 0
M  V30 20237 H 2546.49 -5.02657 -6.42673 0
M  V30 20238 P 2542.52 -6.144 -6.45285 0
M  V30 20239 O 2542.3 -7.54673 -6.86199 0
M  V30 20240 O 2541.73 -5.12391 -7.179 0
M  V30 20241 O 2542.27 -5.99158 -4.88404 0
M  V30 20242 C 2543.21 -6.60234 -3.96415 0
M  V30 20243 C 2542.48 -7.08259 -2.72856 0
M  V30 20244 O 2542.27 -5.9427 -1.83651 0
M  V30 20245 C 2541.08 -7.64886 -2.9555 0
M  V30 20246 O 2540.69 -8.53963 -1.90717 0
M  V30 20247 C 2540.2 -6.4116 -2.90739 0
M  V30 20248 C 2540.91 -5.55375 -1.86963 0
M  V30 20249 N 2540.86 -4.09664 -2.15742 0
M  V30 20250 H 2543.7 -7.45574 -4.45629 0
M  V30 20251 H 2543.98 -5.86232 -3.67314 0
M  V30 20252 H 2543.11 -7.84412 -2.24479 0
M  V30 20253 P 2539.15 -8.7635 -1.60911 0
M  V30 20254 O 2538.93 -10.1388 -1.11561 0
M  V30 20255 O 2538.36 -8.36503 -2.79617 0
M  V30 20256 O 2538.9 -7.71806 -0.42951 0
M  V30 20257 C 2539.84 -7.66948 0.673514 0
M  V30 20258 C 2539.11 -7.33374 1.95559 0
M  V30 20259 O 2538.9 -5.88721 2.00726 0
M  V30 20260 C 2537.71 -7.92218 2.1125 0
M  V30 20261 O 2537.32 -8.02971 3.47653 0
M  V30 20262 C 2536.83 -6.89504 1.41631 0
M  V30 20263 C 2537.54 -5.59106 1.75155 0
M  V30 20264 N 2537.49 -4.58136 0.662409 0
M  V30 20265 C 2537.34 -3.26059 1.02863 0
M  V30 20266 O 2537.25 -2.90743 2.19009 0
M  V30 20267 N 2537.3 -2.35995 -0.0155585 0
M  V30 20268 C 2537.39 -2.65248 -1.35603 0
M  V30 20269 C 2537.54 -4.05747 -1.64698 0
M  V30 20270 C 2537.59 -4.96734 -0.652411 0
M  V30 20271 H 2540.33 -8.64917 0.776982 0
M  V30 20272 H 2540.6 -6.89974 0.474015 0
M  V30 20273 H 2539.73 -7.66548 2.79458 0
M  V30 20274 H 2537.07 -5.16076 2.65138 0
M  V30 20275 H 2536.79 -7.06433 0.329384 0
M  V30 20276 H 2535.8 -6.90829 1.81996 0
M  V30 20277 H 2537.64 -8.90774 1.62639 0
M  V30 20278 H 2537.71 -6.02181 -0.895285 0
M  V30 20279 P 2535.77 -8.03563 3.84925 0
M  V30 20280 O 2535.55 -8.85821 5.0569 0
M  V30 20281 O 2534.98 -8.41101 2.65469 0
M  V30 20282 O 2535.52 -6.4965 4.18908 0
M  V30 20283 C 2536.46 -5.80886 5.05289 0
M  V30 20284 C 2535.73 -4.78366 5.89277 0
M  V30 20285 O 2535.52 -3.58302 5.08433 0
M  V30 20286 C 2534.33 -5.16748 6.36559 0
M  V30 20287 O 2533.94 -4.45271 7.53232 0
M  V30 20288 C 2533.45 -4.74572 5.19863 0
M  V30 20289 C 2534.16 -3.49373 4.70338 0
M  V30 20290 N 2534.11 -3.31704 3.22876 0
M  V30 20291 C 2533.96 -2.03326 2.74871 0
M  V30 20292 O 2533.87 -1.06486 3.48076 0
M  V30 20293 N 2533.92 -1.91838 1.37456 0
M  V30 20294 C 2534.01 -2.94295 0.462035 0
M  V30 20295 C 2534.16 -4.25064 1.05249 0
M  V30 20296 C 2534.21 -4.40214 2.39192 0
M  V30 20297 H 2536.95 -6.54063 5.71245 0
M  V30 20298 H 2537.22 -5.30339 4.43905 0
M  V30 20299 H 2536.35 -4.55889 6.76652 0
M  V30 20300 H 2533.69 -2.6167 5.17842 0
M  V30 20301 H 2533.41 -5.52155 4.41878 0
M  V30 20302 H 2532.42 -4.51918 5.53297 0
M  V30 20303 H 2534.26 -6.25055 6.55162 0
M  V30 20304 H 2534.33 -5.39798 2.81523 0
M  V30 20305 P 2532.39 -4.23843 7.83734 0
M  V30 20306 O 2532.17 -4.19407 9.29784 0
M  V30 20307 O 2531.6 -5.24426 7.09156 0
M  V30 20308 O 2532.14 -2.7935 7.20758 0
M  V30 20309 C 2533.08 -1.7299 7.50419 0
M  V30 20310 C 2532.35 -0.406376 7.57911 0
M  V30 20311 O 2532.14 0.0897726 6.21935 0
M  V30 20312 C 2530.95 -0.447224 8.1878 0
M  V30 20313 O 2530.56 0.825065 8.71101 0
M  V30 20314 C 2530.07 -0.783801 6.99623 0
M  V30 20315 C 2530.78 -0.0619192 5.85967 0
M  V30 20316 N 2530.73 -0.7859 4.56281 0
M  V30 20317 H 2533.56 -1.93423 8.4679 0
M  V30 20318 H 2533.84 -1.68181 6.71046 0
M  V30 20319 H 2532.97 0.289041 8.15388 0
M  V30 20320 P 2529.01 1.17771 8.83182 0
M  V30 20321 O 2528.79 2.07206 9.98732 0
M  V30 20322 O 2528.22 -0.0743816 8.81969 0
M  V30 20323 O 2528.76 1.97652 7.47304 0
M  V30 20324 C 2529.7 3.01133 7.08783 0
M  V30 20325 C 2528.97 4.12613 6.37049 0
M  V30 20326 O 2528.76 3.72827 4.97879 0
M  V30 20327 C 2527.57 4.45085 6.88694 0
M  V30 20328 O 2527.18 5.7877 6.5624 0
M  V30 20329 C 2526.69 3.47817 6.12078 0
M  V30 20330 C 2527.4 3.39414 4.77697 0
M  V30 20331 N 2527.35 2.04615 4.15333 0
M  V30 20332 C 2527.43 0.803897 4.75249 0
M  V30 20333 N 2527.35 -0.197615 3.91502 0
M  V30 20334 C 2527.21 0.413002 2.66823 0
M  V30 20335 C 2527.08 -0.157221 1.38007 0
M  V30 20336 O 2527.06 -1.34419 1.057 0
M  V30 20337 N 2526.96 0.833136 0.390236 0
M  V30 20338 C 2526.96 2.19402 0.623885 0
M  V30 20339 N 2526.83 2.97622 -0.449677 0
M  V30 20340 N 2527.09 2.73005 1.83601 0
M  V30 20341 C 2527.21 1.78786 2.80935 0
M  V30 20342 H 2530.18 3.41248 7.98759 0
M  V30 20343 H 2530.46 2.5837 6.41742 0
M  V30 20344 H 2529.59 5.02657 6.42673 0
M  V30 20345 H 2526.93 4.11779 4.09026 0
M  V30 20346 H 2526.65 2.49661 6.61772 0
M  V30 20347 H 2525.66 3.86674 6.00946 0
M  V30 20348 H 2527.5 4.30038 7.97094 0
M  V30 20349 H 2527.55 0.670579 5.82754 0
M  V30 20350 H 2526.86 0.528446 -0.557287 0
M  V30 20351 H 2526.83 4.00117 -0.344773 0
M  V30 20352 H 2526.73 2.55448 -1.38544 0
M  V30 20353 P 2525.63 6.144 6.45285 0
M  V30 20354 O 2525.41 7.54673 6.86199 0
M  V30 20355 O 2524.84 5.12391 7.179 0
M  V30 20356 O 2525.38 5.99158 4.88404 0
M  V30 20357 C 2526.32 6.60234 3.96415 0
M  V30 20358 C 2525.59 7.08259 2.72856 0
M  V30 20359 O 2525.38 5.9427 1.83651 0
M  V30 20360 C 2524.19 7.64886 2.9555 0
M  V30 20361 O 2523.8 8.53963 1.90717 0
M  V30 20362 C 2523.31 6.4116 2.90739 0
M  V30 20363 C 2524.02 5.55375 1.86963 0
M  V30 20364 N 2523.97 4.09664 2.15742 0
M  V30 20365 H 2526.8 7.45574 4.45629 0
M  V30 20366 H 2527.08 5.86232 3.67314 0
M  V30 20367 H 2526.21 7.84412 2.24479 0
M  V30 20368 P 2522.25 8.7635 1.60911 0
M  V30 20369 O 2522.03 10.1388 1.11561 0
M  V30 20370 O 2521.46 8.36503 2.79617 0
M  V30 20371 O 2522 7.71806 0.42951 0
M  V30 20372 C 2522.94 7.67148 -0.673689 0
M  V30 20373 C 2522.21 7.33374 -1.95559 0
M  V30 20374 O 2522 5.88721 -2.00726 0
M  V30 20375 C 2520.81 7.92526 -2.10483 0
M  V30 20376 O 2520.42 8.02971 -3.47653 0
M  V30 20377 C 2519.93 6.89602 -1.41652 0
M  V30 20378 C 2520.64 5.59201 -1.75185 0
M  V30 20379 N 2520.59 4.58301 -0.657969 0
M  V30 20380 H 2523.42 8.65116 -0.777161 0
M  V30 20381 H 2523.7 6.9022 -0.46725 0
M  V30 20382 H 2522.83 7.66548 -2.79458 0
M  V30 20383 H 2520.17 5.16165 -2.65183 0
M  V30 20384 H 2519.89 7.06433 -0.329384 0
M  V30 20385 H 2518.9 6.90926 -1.82021 0
M  V30 20386 H 2520.74 8.90873 -1.62657 0
M  V30 20387 P 2518.87 8.03563 -3.84925 0
M  V30 20388 O 2518.65 8.85821 -5.0569 0
M  V30 20389 O 2518.08 8.41101 -2.65469 0
M  V30 20390 O 2518.62 6.4965 -4.18908 0
M  V30 20391 C 2519.56 5.81037 -5.05421 0
M  V30 20392 C 2518.83 4.78366 -5.89277 0
M  V30 20393 O 2518.62 3.58302 -5.08433 0
M  V30 20394 C 2517.43 5.17448 -6.36119 0
M  V30 20395 O 2517.04 4.45271 -7.53232 0
M  V30 20396 C 2516.55 4.74639 -5.19936 0
M  V30 20397 C 2517.26 3.49432 -4.70418 0
M  V30 20398 N 2517.21 3.31776 -3.22945 0
M  V30 20399 H 2520.04 6.54213 -5.71376 0
M  V30 20400 H 2520.32 5.30492 -4.44033 0
M  V30 20401 H 2519.45 4.55889 -6.76652 0
M  V30 20402 P 2515.49 4.23843 -7.83734 0
M  V30 20403 O 2515.27 4.19407 -9.29784 0
M  V30 20404 O 2514.7 5.24426 -7.09156 0
M  V30 20405 O 2515.24 2.7935 -7.20758 0
M  V30 20406 C 2516.18 1.72945 -7.50224 0
M  V30 20407 C 2515.45 0.406376 -7.57911 0
M  V30 20408 O 2515.24 -0.0897726 -6.21935 0
M  V30 20409 C 2514.05 0.438983 -8.18724 0
M  V30 20410 O 2513.66 -0.825065 -8.71101 0
M  V30 20411 C 2513.17 0.783689 -6.99524 0
M  V30 20412 C 2513.88 0.0619086 -5.85867 0
M  V30 20413 N 2513.83 0.78573 -4.56183 0
M  V30 20414 C 2513.68 0.0292889 -3.41887 0
M  V30 20415 O 2513.59 -1.18445 -3.4419 0
M  V30 20416 N 2513.64 0.744061 -2.23964 0
M  V30 20417 C 2513.73 2.10932 -2.10362 0
M  V30 20418 O 2513.68 2.64117 -0.98825 0
M  V30 20419 C 2513.88 2.8202 -3.34994 0
M  V30 20420 C 2513.99 4.31095 -3.25037 0
M  V30 20421 C 2513.93 2.15547 -4.52261 0
M  V30 20422 H 2516.67 1.93379 -8.46595 0
M  V30 20423 H 2516.94 1.68132 -6.70852 0
M  V30 20424 H 2516.07 -0.289041 -8.15388 0
M  V30 20425 H 2513.41 -0.926847 -5.72749 0
M  V30 20426 H 2513.13 1.86973 -6.82036 0
M  V30 20427 H 2512.14 0.403896 -7.13257 0
M  V30 20428 H 2513.98 1.20585 -8.97435 0
M  V30 20429 H 2514.05 2.71231 -5.45042 0
M  V30 20430 H 2513.02 4.76966 -3.49992 0
M  V30 20431 H 2514.75 4.67047 -3.95024 0
M  V30 20432 H 2514.27 4.58996 -2.22312 0
M  V30 20433 H 2513.53 0.214893 -1.39758 0
M  V30 20434 P 2512.11 -1.17771 -8.83182 0
M  V30 20435 O 2511.89 -2.07206 -9.98732 0
M  V30 20436 O 2511.32 0.0743816 -8.81969 0
M  V30 20437 O 2511.86 -1.97652 -7.47304 0
M  V30 20438 C 2512.8 -3.01133 -7.08783 0
M  V30 20439 C 2512.07 -4.12613 -6.37049 0
M  V30 20440 O 2511.86 -3.72827 -4.97879 0
M  V30 20441 C 2510.67 -4.45085 -6.88694 0
M  V30 20442 O 2510.28 -5.7877 -6.5624 0
M  V30 20443 C 2509.79 -3.47817 -6.12078 0
M  V30 20444 C 2510.5 -3.39414 -4.77697 0
M  V30 20445 N 2510.45 -2.04199 -4.15538 0
M  V30 20446 H 2513.28 -3.41248 -7.98759 0
M  V30 20447 H 2513.56 -2.57728 -6.42 0
M  V30 20448 H 2512.69 -5.02657 -6.42673 0
M  V30 20449 H 2510.03 -4.11708 -4.08956 0
M  V30 20450 H 2509.75 -2.49626 -6.61679 0
M  V30 20451 H 2508.76 -3.8662 -6.00862 0
M  V30 20452 H 2510.6 -4.29991 -7.97006 0
M  V30 20453 P 2508.73 -6.144 -6.45285 0
M  V30 20454 O 2508.51 -7.54673 -6.86199 0
M  V30 20455 O 2507.94 -5.12391 -7.179 0
M  V30 20456 O 2508.48 -5.99158 -4.88404 0
M  V30 20457 C 2509.42 -6.60234 -3.96415 0
M  V30 20458 C 2508.69 -7.08259 -2.72856 0
M  V30 20459 O 2508.48 -5.9427 -1.83651 0
M  V30 20460 C 2507.29 -7.64886 -2.9555 0
M  V30 20461 O 2506.9 -8.53963 -1.90717 0
M  V30 20462 C 2506.41 -6.4116 -2.90739 0
M  V30 20463 C 2507.12 -5.55375 -1.86963 0
M  V30 20464 N 2507.07 -4.09664 -2.15742 0
M  V30 20465 H 2509.9 -7.45574 -4.45629 0
M  V30 20466 H 2510.18 -5.86232 -3.67314 0
M  V30 20467 H 2509.31 -7.84412 -2.24479 0
M  V30 20468 P 2505.35 -8.7635 -1.60911 0
M  V30 20469 O 2505.13 -10.1388 -1.11561 0
M  V30 20470 O 2504.56 -8.36503 -2.79617 0
M  V30 20471 O 2505.1 -7.71806 -0.42951 0
M  V30 20472 C 2506.04 -7.67148 0.673689 0
M  V30 20473 C 2505.31 -7.33374 1.95559 0
M  V30 20474 O 2505.1 -5.88721 2.00726 0
M  V30 20475 C 2503.91 -7.92526 2.10483 0
M  V30 20476 O 2503.52 -8.02971 3.47653 0
M  V30 20477 C 2503.03 -6.89602 1.41652 0
M  V30 20478 C 2503.74 -5.59201 1.75185 0
M  V30 20479 N 2503.69 -4.58235 0.662552 0
M  V30 20480 H 2506.52 -8.65116 0.777161 0
M  V30 20481 H 2506.8 -6.90173 0.474152 0
M  V30 20482 H 2505.93 -7.66548 2.79458 0
M  V30 20483 P 2501.97 -8.03563 3.84925 0
M  V30 20484 O 2501.75 -8.85821 5.0569 0
M  V30 20485 O 2501.18 -8.41101 2.65469 0
M  V30 20486 O 2501.72 -6.4965 4.18908 0
M  V30 20487 C 2502.66 -5.80886 5.05289 0
M  V30 20488 C 2501.93 -4.78366 5.89277 0
M  V30 20489 O 2501.72 -3.58302 5.08433 0
M  V30 20490 C 2500.53 -5.16748 6.36559 0
M  V30 20491 O 2500.14 -4.45271 7.53232 0
M  V30 20492 C 2499.65 -4.74572 5.19863 0
M  V30 20493 C 2500.36 -3.49373 4.70338 0
M  V30 20494 N 2500.31 -3.31704 3.22876 0
M  V30 20495 C 2500.16 -2.03326 2.74871 0
M  V30 20496 O 2500.07 -1.06486 3.48076 0
M  V30 20497 N 2500.12 -1.91838 1.37456 0
M  V30 20498 C 2500.21 -2.94295 0.462035 0
M  V30 20499 O 2500.16 -2.71763 -0.752928 0
M  V30 20500 C 2500.36 -4.25064 1.05249 0
M  V30 20501 C 2500.47 -5.39815 0.095697 0
M  V30 20502 C 2500.41 -4.40214 2.39192 0
M  V30 20503 H 2503.15 -6.54063 5.71245 0
M  V30 20504 H 2503.42 -5.30339 4.43905 0
M  V30 20505 H 2502.55 -4.55889 6.76652 0
M  V30 20506 H 2499.89 -2.6167 5.17842 0
M  V30 20507 H 2499.61 -5.52155 4.41878 0
M  V30 20508 H 2498.62 -4.51918 5.53297 0
M  V30 20509 H 2500.46 -6.25055 6.55162 0
M  V30 20510 H 2500.53 -5.39798 2.81523 0
M  V30 20511 H 2499.5 -5.91593 0.0279582 0
M  V30 20512 H 2501.23 -6.10038 0.450573 0
M  V30 20513 H 2500.75 -5.02007 -0.89937 0
M  V30 20514 H 2500.01 -0.995326 1.00435 0
M  V30 20515 P 2498.59 -4.23843 7.83734 0
M  V30 20516 O 2498.37 -4.19407 9.29784 0
M  V30 20517 O 2497.8 -5.24426 7.09156 0
M  V30 20518 O 2498.34 -2.7935 7.20758 0
M  V30 20519 C 2499.28 -1.7299 7.50419 0
M  V30 20520 C 2498.55 -0.406376 7.57911 0
M  V30 20521 O 2498.34 0.0897726 6.21935 0
M  V30 20522 C 2497.15 -0.447224 8.1878 0
M  V30 20523 O 2496.76 0.825065 8.71101 0
M  V30 20524 C 2496.27 -0.783801 6.99623 0
M  V30 20525 C 2496.98 -0.0619192 5.85967 0
M  V30 20526 N 2496.93 -0.790462 4.56202 0
M  V30 20527 H 2499.76 -1.93423 8.4679 0
M  V30 20528 H 2500.04 -1.68852 6.70877 0
M  V30 20529 H 2499.17 0.289041 8.15388 0
M  V30 20530 H 2496.51 0.927006 5.72848 0
M  V30 20531 H 2496.23 -1.86973 6.82036 0
M  V30 20532 H 2495.24 -0.403953 7.13357 0
M  V30 20533 H 2497.08 -1.20599 8.97534 0
M  V30 20534 P 2495.21 1.17771 8.83182 0
M  V30 20535 O 2494.99 2.07206 9.98732 0
M  V30 20536 O 2494.42 -0.0743816 8.81969 0
M  V30 20537 O 2494.96 1.97652 7.47304 0
M  V30 20538 C 2495.9 3.01133 7.08783 0
M  V30 20539 C 2495.17 4.12613 6.37049 0
M  V30 20540 O 2494.96 3.72827 4.97879 0
M  V30 20541 C 2493.77 4.45085 6.88694 0
M  V30 20542 O 2493.38 5.7877 6.5624 0
M  V30 20543 C 2492.89 3.47817 6.12078 0
M  V30 20544 C 2493.6 3.39414 4.77697 0
M  V30 20545 N 2493.55 2.04615 4.15333 0
M  V30 20546 H 2496.38 3.41248 7.98759 0
M  V30 20547 H 2496.66 2.5837 6.41742 0
M  V30 20548 H 2495.79 5.02657 6.42673 0
M  V30 20549 P 2491.83 6.144 6.45285 0
M  V30 20550 O 2491.61 7.54673 6.86199 0
M  V30 20551 O 2491.04 5.12391 7.179 0
M  V30 20552 O 2491.58 5.99158 4.88404 0
M  V30 20553 C 2492.52 6.60234 3.96415 0
M  V30 20554 C 2491.79 7.08259 2.72856 0
M  V30 20555 O 2491.58 5.9427 1.83651 0
M  V30 20556 C 2490.39 7.64886 2.9555 0
M  V30 20557 O 2490 8.53963 1.90717 0
M  V30 20558 C 2489.51 6.4116 2.90739 0
M  V30 20559 C 2490.22 5.55375 1.86963 0
M  V30 20560 N 2490.17 4.09448 2.16152 0
M  V30 20561 C 2490.25 3.46824 3.37593 0
M  V30 20562 N 2490.18 2.17422 3.29777 0
M  V30 20563 C 2490.03 1.93065 1.94427 0
M  V30 20564 C 2489.9 0.738053 1.20141 0
M  V30 20565 N 2489.89 -0.474256 1.74676 0
M  V30 20566 N 2489.78 0.850049 -0.13045 0
M  V30 20567 C 2489.79 2.06169 -0.676992 0
M  V30 20568 N 2489.91 3.23842 -0.101312 0
M  V30 20569 C 2490.03 3.09402 1.23122 0
M  V30 20570 H 2493 7.45574 4.45629 0
M  V30 20571 H 2493.28 5.85864 3.679 0
M  V30 20572 H 2492.41 7.84412 2.24479 0
M  V30 20573 H 2489.75 5.73457 0.888562 0
M  V30 20574 H 2489.47 5.90877 3.88583 0
M  V30 20575 H 2488.48 6.6596 2.58858 0
M  V30 20576 H 2490.32 8.16339 3.92049 0
M  V30 20577 H 2490.36 4.00505 4.3174 0
M  V30 20578 H 2489.98 -0.581337 2.76658 0
M  V30 20579 H 2489.79 -1.30811 1.14888 0
M  V30 20580 H 2489.68 2.08295 -1.75542 0
M  V30 20581 P 2488.45 8.7635 1.60911 0
M  V30 20582 O 2488.23 10.1388 1.11561 0
M  V30 20583 O 2487.66 8.36503 2.79617 0
M  V30 20584 O 2488.2 7.71806 0.42951 0
M  V30 20585 C 2489.14 7.67148 -0.673689 0
M  V30 20586 C 2488.41 7.33374 -1.95559 0
M  V30 20587 O 2488.2 5.88721 -2.00726 0
M  V30 20588 C 2487.01 7.92526 -2.10483 0
M  V30 20589 O 2486.62 8.02971 -3.47653 0
M  V30 20590 C 2486.13 6.89602 -1.41652 0
M  V30 20591 C 2486.84 5.59201 -1.75185 0
M  V30 20592 N 2486.79 4.58301 -0.657969 0
M  V30 20593 H 2489.62 8.65116 -0.777161 0
M  V30 20594 H 2489.9 6.9022 -0.46725 0
M  V30 20595 H 2489.03 7.66548 -2.79458 0
M  V30 20596 H 2486.37 5.16165 -2.65183 0
M  V30 20597 H 2486.09 7.06433 -0.329384 0
M  V30 20598 H 2485.1 6.90926 -1.82021 0
M  V30 20599 H 2486.94 8.90873 -1.62657 0
M  V30 20600 P 2485.07 8.03563 -3.84925 0
M  V30 20601 O 2484.85 8.85821 -5.0569 0
M  V30 20602 O 2484.28 8.41101 -2.65469 0
M  V30 20603 O 2484.82 6.4965 -4.18908 0
M  V30 20604 C 2485.76 5.81037 -5.05421 0
M  V30 20605 C 2485.03 4.78366 -5.89277 0
M  V30 20606 O 2484.82 3.58302 -5.08433 0
M  V30 20607 C 2483.63 5.17448 -6.36119 0
M  V30 20608 O 2483.24 4.45271 -7.53232 0
M  V30 20609 C 2482.75 4.74639 -5.19936 0
M  V30 20610 C 2483.46 3.49432 -4.70418 0
M  V30 20611 N 2483.41 3.32099 -3.22613 0
M  V30 20612 H 2486.24 6.54213 -5.71376 0
M  V30 20613 H 2486.52 5.30936 -4.43503 0
M  V30 20614 H 2485.65 4.55889 -6.76652 0
M  V30 20615 H 2482.99 2.61715 -5.17932 0
M  V30 20616 H 2482.71 5.52155 -4.41878 0
M  V30 20617 H 2481.72 4.51981 -5.53374 0
M  V30 20618 H 2483.56 6.25124 -6.55234 0
M  V30 20619 P 2481.69 4.23843 -7.83734 0
M  V30 20620 O 2481.47 4.19407 -9.29784 0
M  V30 20621 O 2480.9 5.24426 -7.09156 0
M  V30 20622 O 2481.44 2.7935 -7.20758 0
M  V30 20623 C 2482.38 1.7299 -7.50419 0
M  V30 20624 C 2481.65 0.406376 -7.57911 0
M  V30 20625 O 2481.44 -0.0897726 -6.21935 0
M  V30 20626 C 2480.25 0.447224 -8.1878 0
M  V30 20627 O 2479.86 -0.825065 -8.71101 0
M  V30 20628 C 2479.37 0.783801 -6.99623 0
M  V30 20629 C 2480.08 0.0619192 -5.85967 0
M  V30 20630 N 2480.03 0.790462 -4.56202 0
M  V30 20631 H 2482.86 1.93423 -8.4679 0
M  V30 20632 H 2483.14 1.68852 -6.70877 0
M  V30 20633 H 2482.27 -0.289041 -8.15388 0
M  V30 20634 H 2479.61 -0.927006 -5.72848 0
M  V30 20635 H 2479.33 1.86973 -6.82036 0
M  V30 20636 H 2478.34 0.403953 -7.13357 0
M  V30 20637 H 2480.18 1.20599 -8.97534 0
M  V30 20638 P 2478.31 -1.17771 -8.83182 0
M  V30 20639 O 2478.09 -2.07206 -9.98732 0
M  V30 20640 O 2477.52 0.0743816 -8.81969 0
M  V30 20641 O 2478.06 -1.97652 -7.47304 0
M  V30 20642 C 2479 -3.01133 -7.08783 0
M  V30 20643 C 2478.27 -4.12613 -6.37049 0
M  V30 20644 O 2478.06 -3.72827 -4.97879 0
M  V30 20645 C 2476.87 -4.45085 -6.88694 0
M  V30 20646 O 2476.48 -5.7877 -6.5624 0
M  V30 20647 C 2475.99 -3.47817 -6.12078 0
M  V30 20648 C 2476.7 -3.39414 -4.77697 0
M  V30 20649 N 2476.65 -2.04615 -4.15333 0
M  V30 20650 H 2479.48 -3.41248 -7.98759 0
M  V30 20651 H 2479.76 -2.5837 -6.41742 0
M  V30 20652 H 2478.89 -5.02657 -6.42673 0
M  V30 20653 P 2474.93 -6.144 -6.45285 0
M  V30 20654 O 2474.71 -7.54673 -6.86199 0
M  V30 20655 O 2474.14 -5.12391 -7.179 0
M  V30 20656 O 2474.68 -5.99158 -4.88404 0
M  V30 20657 C 2475.62 -6.60234 -3.96415 0
M  V30 20658 C 2474.89 -7.08259 -2.72856 0
M  V30 20659 O 2474.68 -5.9427 -1.83651 0
M  V30 20660 C 2473.49 -7.64886 -2.9555 0
M  V30 20661 O 2473.1 -8.53963 -1.90717 0
M  V30 20662 C 2472.61 -6.4116 -2.90739 0
M  V30 20663 C 2473.32 -5.55375 -1.86963 0
M  V30 20664 N 2473.27 -4.09448 -2.16152 0
M  V30 20665 C 2473.35 -3.46824 -3.37593 0
M  V30 20666 N 2473.28 -2.17422 -3.29777 0
M  V30 20667 C 2473.13 -1.93065 -1.94427 0
M  V30 20668 C 2473 -0.738053 -1.20141 0
M  V30 20669 N 2472.99 0.474256 -1.74676 0
M  V30 20670 N 2472.88 -0.850049 0.13045 0
M  V30 20671 C 2472.89 -2.06169 0.676992 0
M  V30 20672 N 2473.01 -3.23842 0.101312 0
M  V30 20673 C 2473.13 -3.09402 -1.23122 0
M  V30 20674 H 2476.1 -7.45574 -4.45629 0
M  V30 20675 H 2476.38 -5.85864 -3.679 0
M  V30 20676 H 2475.51 -7.84412 -2.24479 0
M  V30 20677 H 2472.85 -5.73457 -0.888562 0
M  V30 20678 H 2472.57 -5.90877 -3.88583 0
M  V30 20679 H 2471.58 -6.6596 -2.58858 0
M  V30 20680 H 2473.42 -8.16339 -3.92049 0
M  V30 20681 H 2473.46 -4.00505 -4.3174 0
M  V30 20682 H 2473.08 0.581337 -2.76658 0
M  V30 20683 H 2472.89 1.30811 -1.14888 0
M  V30 20684 H 2472.78 -2.08295 1.75542 0
M  V30 20685 P 2471.55 -8.7635 -1.60911 0
M  V30 20686 O 2471.33 -10.1388 -1.11561 0
M  V30 20687 O 2470.76 -8.36503 -2.79617 0
M  V30 20688 O 2471.3 -7.71806 -0.42951 0
M  V30 20689 C 2472.24 -7.67148 0.673689 0
M  V30 20690 C 2471.51 -7.33374 1.95559 0
M  V30 20691 O 2471.3 -5.88721 2.00726 0
M  V30 20692 C 2470.11 -7.92526 2.10483 0
M  V30 20693 O 2469.72 -8.02971 3.47653 0
M  V30 20694 C 2469.23 -6.89602 1.41652 0
M  V30 20695 C 2469.94 -5.59201 1.75185 0
M  V30 20696 N 2469.89 -4.58235 0.662552 0
M  V30 20697 H 2472.72 -8.65116 0.777161 0
M  V30 20698 H 2473 -6.90173 0.474152 0
M  V30 20699 H 2472.13 -7.66548 2.79458 0
M  V30 20700 P 2468.17 -8.03563 3.84925 0
M  V30 20701 O 2467.95 -8.85821 5.0569 0
M  V30 20702 O 2467.38 -8.41101 2.65469 0
M  V30 20703 O 2467.92 -6.4965 4.18908 0
M  V30 20704 C 2468.86 -5.81037 5.05421 0
M  V30 20705 C 2468.13 -4.78366 5.89277 0
M  V30 20706 O 2467.92 -3.58302 5.08433 0
M  V30 20707 C 2466.73 -5.17448 6.36119 0
M  V30 20708 O 2466.34 -4.45271 7.53232 0
M  V30 20709 C 2465.85 -4.74639 5.19936 0
M  V30 20710 C 2466.56 -3.49432 4.70418 0
M  V30 20711 N 2466.51 -3.31776 3.22945 0
M  V30 20712 H 2469.34 -6.54213 5.71376 0
M  V30 20713 H 2469.62 -5.30492 4.44033 0
M  V30 20714 H 2468.75 -4.55889 6.76652 0
M  V30 20715 P 2464.79 -4.23843 7.83734 0
M  V30 20716 O 2464.57 -4.19407 9.29784 0
M  V30 20717 O 2464 -5.24426 7.09156 0
M  V30 20718 O 2464.54 -2.79386 7.20852 0
M  V30 20719 C 2465.48 -1.7299 7.50419 0
M  V30 20720 C 2464.75 -0.41401 7.5797 0
M  V30 20721 O 2464.54 0.089787 6.22035 0
M  V30 20722 C 2463.35 -0.447224 8.1878 0
M  V30 20723 O 2462.96 0.825159 8.71201 0
M  V30 20724 C 2462.47 -0.783801 6.99623 0
M  V30 20725 C 2463.18 -0.0619192 5.85967 0
M  V30 20726 N 2463.13 -0.7859 4.56281 0
M  V30 20727 C 2462.98 -0.0359258 3.39981 0
M  V30 20728 O 2462.89 1.19723 3.49038 0
M  V30 20729 N 2462.93 -0.869151 2.14025 0
M  V30 20730 C 2463.03 -2.01207 2.14363 0
M  V30 20731 N 2462.98 -2.58978 0.954287 0
M  V30 20732 C 2463.18 -2.80817 3.32215 0
M  V30 20733 C 2463.23 -2.13785 4.50884 0
M  V30 20734 H 2465.97 -1.93401 8.46693 0
M  V30 20735 H 2466.24 -1.68181 6.71046 0
M  V30 20736 H 2465.37 0.289076 8.15488 0
M  V30 20737 H 2462.71 0.927166 5.72947 0
M  V30 20738 H 2462.43 -1.87 6.82132 0
M  V30 20739 H 2461.44 -0.404009 7.13457 0
M  V30 20740 H 2463.28 -1.20599 8.97534 0
M  V30 20741 H 2463.35 -2.70295 5.43162 0
M  V30 20742 H 2463.25 -3.89465 3.27406 0
M  V30 20743 H 2462.86 -2.01616 0.107046 0
M  V30 20744 H 2463.05 -3.61403 0.873101 0
M  V30 20745 P 2461.41 1.17771 8.83182 0
M  V30 20746 O 2461.19 2.07206 9.98732 0
M  V30 20747 O 2460.62 -0.0743816 8.81969 0
M  V30 20748 O 2461.16 1.97652 7.47304 0
M  V30 20749 C 2462.1 3.01133 7.08783 0
M  V30 20750 C 2461.37 4.12613 6.37049 0
M  V30 20751 O 2461.16 3.72827 4.97879 0
M  V30 20752 C 2459.97 4.45085 6.88694 0
M  V30 20753 O 2459.58 5.7877 6.5624 0
M  V30 20754 C 2459.09 3.47817 6.12078 0
M  V30 20755 C 2459.8 3.39414 4.77697 0
M  V30 20756 N 2459.75 2.04615 4.15333 0
M  V30 20757 H 2462.58 3.41248 7.98759 0
M  V30 20758 H 2462.86 2.5837 6.41742 0
M  V30 20759 H 2461.99 5.02657 6.42673 0
M  V30 20760 P 2458.03 6.144 6.45285 0
M  V30 20761 O 2457.81 7.54673 6.86199 0
M  V30 20762 O 2457.24 5.12391 7.179 0
M  V30 20763 O 2457.78 5.99158 4.88404 0
M  V30 20764 C 2458.72 6.60234 3.96415 0
M  V30 20765 C 2457.99 7.08259 2.72856 0
M  V30 20766 O 2457.78 5.9427 1.83651 0
M  V30 20767 C 2456.59 7.64886 2.9555 0
M  V30 20768 O 2456.2 8.53963 1.90717 0
M  V30 20769 C 2455.71 6.4116 2.90739 0
M  V30 20770 C 2456.42 5.55375 1.86963 0
M  V30 20771 N 2456.37 4.09664 2.15742 0
M  V30 20772 H 2459.2 7.45574 4.45629 0
M  V30 20773 H 2459.48 5.86232 3.67314 0
M  V30 20774 H 2458.61 7.84412 2.24479 0
M  V30 20775 P 2454.65 8.7635 1.60911 0
M  V30 20776 O 2454.43 10.1388 1.11561 0
M  V30 20777 O 2453.86 8.36503 2.79617 0
M  V30 20778 O 2454.4 7.71806 0.42951 0
M  V30 20779 C 2455.34 7.67148 -0.673689 0
M  V30 20780 C 2454.61 7.33374 -1.95559 0
M  V30 20781 O 2454.4 5.88721 -2.00726 0
M  V30 20782 C 2453.21 7.92526 -2.10483 0
M  V30 20783 O 2452.82 8.02971 -3.47653 0
M  V30 20784 C 2452.33 6.89602 -1.41652 0
M  V30 20785 C 2453.04 5.59201 -1.75185 0
M  V30 20786 N 2452.99 4.58301 -0.657969 0
M  V30 20787 H 2455.82 8.65116 -0.777161 0
M  V30 20788 H 2456.1 6.9022 -0.46725 0
M  V30 20789 H 2455.23 7.66548 -2.79458 0
M  V30 20790 H 2452.57 5.16165 -2.65183 0
M  V30 20791 H 2452.29 7.06433 -0.329384 0
M  V30 20792 H 2451.3 6.90926 -1.82021 0
M  V30 20793 H 2453.14 8.90873 -1.62657 0
M  V30 20794 P 2451.27 8.03563 -3.84925 0
M  V30 20795 O 2451.05 8.85821 -5.0569 0
M  V30 20796 O 2450.48 8.41101 -2.65469 0
M  V30 20797 O 2451.02 6.4965 -4.18908 0
M  V30 20798 C 2451.96 5.81037 -5.05421 0
M  V30 20799 C 2451.23 4.78366 -5.89277 0
M  V30 20800 O 2451.02 3.58302 -5.08433 0
M  V30 20801 C 2449.83 5.17448 -6.36119 0
M  V30 20802 O 2449.44 4.45271 -7.53232 0
M  V30 20803 C 2448.95 4.74639 -5.19936 0
M  V30 20804 C 2449.66 3.49432 -4.70418 0
M  V30 20805 N 2449.61 3.31776 -3.22945 0
M  V30 20806 H 2452.44 6.54213 -5.71376 0
M  V30 20807 H 2452.72 5.30492 -4.44033 0
M  V30 20808 H 2451.85 4.55889 -6.76652 0
M  V30 20809 P 2447.89 4.23843 -7.83734 0
M  V30 20810 O 2447.67 4.19407 -9.29784 0
M  V30 20811 O 2447.1 5.24426 -7.09156 0
M  V30 20812 O 2447.64 2.7935 -7.20758 0
M  V30 20813 C 2448.58 1.7299 -7.50419 0
M  V30 20814 C 2447.85 0.406376 -7.57911 0
M  V30 20815 O 2447.64 -0.0897726 -6.21935 0
M  V30 20816 C 2446.45 0.447224 -8.1878 0
M  V30 20817 O 2446.06 -0.825065 -8.71101 0
M  V30 20818 C 2445.57 0.783801 -6.99623 0
M  V30 20819 C 2446.28 0.0619192 -5.85967 0
M  V30 20820 N 2446.23 0.790462 -4.56202 0
M  V30 20821 H 2449.06 1.93423 -8.4679 0
M  V30 20822 H 2449.34 1.68852 -6.70877 0
M  V30 20823 H 2448.47 -0.289041 -8.15388 0
M  V30 20824 H 2445.81 -0.927006 -5.72848 0
M  V30 20825 H 2445.53 1.86973 -6.82036 0
M  V30 20826 H 2444.54 0.403953 -7.13357 0
M  V30 20827 H 2446.38 1.20599 -8.97534 0
M  V30 20828 P 2444.51 -1.17771 -8.83182 0
M  V30 20829 O 2444.29 -2.07206 -9.98732 0
M  V30 20830 O 2443.72 0.0743816 -8.81969 0
M  V30 20831 O 2444.26 -1.97652 -7.47304 0
M  V30 20832 C 2445.2 -3.01133 -7.08783 0
M  V30 20833 C 2444.47 -4.12613 -6.37049 0
M  V30 20834 O 2444.26 -3.72827 -4.97879 0
M  V30 20835 C 2443.07 -4.45085 -6.88694 0
M  V30 20836 O 2442.68 -5.7877 -6.5624 0
M  V30 20837 C 2442.19 -3.47817 -6.12078 0
M  V30 20838 C 2442.9 -3.39414 -4.77697 0
M  V30 20839 N 2442.85 -2.04615 -4.15333 0
M  V30 20840 H 2445.68 -3.41248 -7.98759 0
M  V30 20841 H 2445.96 -2.5837 -6.41742 0
M  V30 20842 H 2445.09 -5.02657 -6.42673 0
M  V30 20843 P 2441.13 -6.144 -6.45285 0
M  V30 20844 O 2440.91 -7.54673 -6.86199 0
M  V30 20845 O 2440.34 -5.12391 -7.179 0
M  V30 20846 O 2440.88 -5.99158 -4.88404 0
M  V30 20847 C 2441.82 -6.60234 -3.96415 0
M  V30 20848 C 2441.09 -7.08259 -2.72856 0
M  V30 20849 O 2440.88 -5.9427 -1.83651 0
M  V30 20850 C 2439.69 -7.64886 -2.9555 0
M  V30 20851 O 2439.3 -8.53963 -1.90717 0
M  V30 20852 C 2438.81 -6.4116 -2.90739 0
M  V30 20853 C 2439.52 -5.55375 -1.86963 0
M  V30 20854 N 2439.47 -4.09664 -2.15742 0
M  V30 20855 H 2442.3 -7.45574 -4.45629 0
M  V30 20856 H 2442.58 -5.86232 -3.67314 0
M  V30 20857 H 2441.71 -7.84412 -2.24479 0
M  V30 20858 P 2437.75 -8.7635 -1.60911 0
M  V30 20859 O 2437.53 -10.1388 -1.11561 0
M  V30 20860 O 2436.96 -8.36503 -2.79617 0
M  V30 20861 O 2437.5 -7.71806 -0.42951 0
M  V30 20862 C 2438.44 -7.66948 0.673514 0
M  V30 20863 C 2437.71 -7.33374 1.95559 0
M  V30 20864 O 2437.5 -5.88721 2.00726 0
M  V30 20865 C 2436.31 -7.92218 2.1125 0
M  V30 20866 O 2435.92 -8.02971 3.47653 0
M  V30 20867 C 2435.43 -6.89504 1.41631 0
M  V30 20868 C 2436.14 -5.59106 1.75155 0
M  V30 20869 N 2436.09 -4.58136 0.662409 0
M  V30 20870 C 2435.94 -3.26059 1.02863 0
M  V30 20871 O 2435.85 -2.90743 2.19009 0
M  V30 20872 N 2435.9 -2.35995 -0.0155585 0
M  V30 20873 C 2435.99 -2.65248 -1.35603 0
M  V30 20874 O 2435.94 -1.75605 -2.20651 0
M  V30 20875 C 2436.14 -4.05747 -1.64698 0
M  V30 20876 C 2436.25 -4.42345 -3.09553 0
M  V30 20877 C 2436.19 -4.96734 -0.652411 0
M  V30 20878 H 2438.93 -8.64917 0.776982 0
M  V30 20879 H 2439.2 -6.89974 0.474015 0
M  V30 20880 H 2438.33 -7.66548 2.79458 0
M  V30 20881 H 2435.67 -5.16076 2.65138 0
M  V30 20882 H 2435.39 -7.06433 0.329384 0
M  V30 20883 H 2434.4 -6.90829 1.81996 0
M  V30 20884 H 2436.24 -8.90774 1.62639 0
M  V30 20885 H 2436.31 -6.02181 -0.895285 0
M  V30 20886 H 2435.28 -4.80252 -3.45468 0
M  V30 20887 H 2437.01 -5.20015 -3.22119 0
M  V30 20888 H 2436.53 -3.53269 -3.67833 0
M  V30 20889 H 2435.79 -1.39558 0.227499 0
M  V30 20890 P 2434.37 -8.03563 3.84925 0
M  V30 20891 O 2434.15 -8.85821 5.0569 0
M  V30 20892 O 2433.58 -8.41101 2.65469 0
M  V30 20893 O 2434.12 -6.4965 4.18908 0
M  V30 20894 C 2435.06 -5.81037 5.05421 0
M  V30 20895 C 2434.33 -4.78366 5.89277 0
M  V30 20896 O 2434.12 -3.58302 5.08433 0
M  V30 20897 C 2432.93 -5.17448 6.36119 0
M  V30 20898 O 2432.54 -4.45271 7.53232 0
M  V30 20899 C 2432.05 -4.74639 5.19936 0
M  V30 20900 C 2432.76 -3.49432 4.70418 0
M  V30 20901 N 2432.71 -3.31776 3.22945 0
M  V30 20902 C 2432.79 -4.27147 2.23315 0
M  V30 20903 N 2432.71 -3.78447 1.02186 0
M  V30 20904 C 2432.57 -2.41001 1.21732 0
M  V30 20905 C 2432.44 -1.36111 0.27694 0
M  V30 20906 N 2432.32 -0.113683 0.912949 0
M  V30 20907 C 2432.32 0.0846396 2.27943 0
M  V30 20908 N 2432.19 1.34737 2.6916 0
M  V30 20909 N 2432.45 -0.902521 3.16379 0
M  V30 20910 C 2432.57 -2.11937 2.56849 0
M  V30 20911 H 2435.54 -6.54213 5.71376 0
M  V30 20912 H 2435.82 -5.30492 4.44033 0
M  V30 20913 H 2434.95 -4.55889 6.76652 0
M  V30 20914 P 2430.99 -4.23843 7.83734 0
M  V30 20915 O 2430.77 -4.19407 9.29784 0
M  V30 20916 O 2430.2 -5.24426 7.09156 0
M  V30 20917 O 2430.74 -2.7935 7.20758 0
M  V30 20918 C 2431.68 -1.72945 7.50224 0
M  V30 20919 C 2430.95 -0.406376 7.57911 0
M  V30 20920 O 2430.74 0.0897726 6.21935 0
M  V30 20921 C 2429.55 -0.438983 8.18724 0
M  V30 20922 O 2429.16 0.825065 8.71101 0
M  V30 20923 C 2428.67 -0.783689 6.99524 0
M  V30 20924 C 2429.38 -0.0619086 5.85867 0
M  V30 20925 N 2429.33 -0.78573 4.56183 0
M  V30 20926 C 2429.18 -0.0292889 3.41887 0
M  V30 20927 O 2429.09 1.18445 3.4419 0
M  V30 20928 N 2429.14 -0.744061 2.23964 0
M  V30 20929 C 2429.23 -2.10932 2.10362 0
M  V30 20930 C 2429.38 -2.8202 3.34994 0
M  V30 20931 C 2429.43 -2.15547 4.52261 0
M  V30 20932 H 2432.17 -1.93379 8.46595 0
M  V30 20933 H 2432.44 -1.68132 6.70852 0
M  V30 20934 H 2431.57 0.289041 8.15388 0
M  V30 20935 H 2428.91 0.926847 5.72749 0
M  V30 20936 H 2428.63 -1.86973 6.82036 0
M  V30 20937 H 2427.64 -0.403896 7.13257 0
M  V30 20938 H 2429.48 -1.20585 8.97435 0
M  V30 20939 H 2429.55 -2.71231 5.45042 0
M  V30 20940 P 2427.61 1.17771 8.83182 0
M  V30 20941 O 2427.39 2.07206 9.98732 0
M  V30 20942 O 2426.82 -0.0743816 8.81969 0
M  V30 20943 O 2427.36 1.97652 7.47304 0
M  V30 20944 C 2428.3 3.01133 7.08783 0
M  V30 20945 C 2427.57 4.12613 6.37049 0
M  V30 20946 O 2427.36 3.72827 4.97879 0
M  V30 20947 C 2426.17 4.45085 6.88694 0
M  V30 20948 O 2425.78 5.7877 6.5624 0
M  V30 20949 C 2425.29 3.47817 6.12078 0
M  V30 20950 C 2426 3.39414 4.77697 0
M  V30 20951 N 2425.95 2.04199 4.15538 0
M  V30 20952 C 2426.03 0.821545 4.76977 0
M  V30 20953 N 2425.96 -0.1794 3.94592 0
M  V30 20954 C 2425.81 0.419121 2.70776 0
M  V30 20955 C 2425.68 -0.109072 1.40577 0
M  V30 20956 N 2425.67 -1.4104 1.1344 0
M  V30 20957 N 2425.56 0.764381 0.39411 0
M  V30 20958 C 2425.57 2.06587 0.664135 0
M  V30 20959 N 2425.69 2.67948 1.82153 0
M  V30 20960 C 2425.81 1.77942 2.8147 0
M  V30 20961 H 2428.78 3.41248 7.98759 0
M  V30 20962 H 2429.06 2.57728 6.42 0
M  V30 20963 H 2428.19 5.02657 6.42673 0
M  V30 20964 H 2425.53 4.11708 4.08956 0
M  V30 20965 H 2425.25 2.49626 6.61679 0
M  V30 20966 H 2424.26 3.8662 6.00862 0
M  V30 20967 H 2426.1 4.29991 7.97006 0
M  V30 20968 H 2426.14 0.702451 5.84696 0
M  V30 20969 H 2425.76 -2.09647 1.89651 0
M  V30 20970 H 2425.57 -1.73358 0.160575 0
M  V30 20971 H 2425.46 2.71695 -0.195838 0
M  V30 20972 P 2424.23 6.144 6.45285 0
M  V30 20973 O 2424.01 7.54673 6.86199 0
M  V30 20974 O 2423.44 5.12391 7.179 0
M  V30 20975 O 2423.98 5.99236 4.88467 0
M  V30 20976 C 2424.92 6.60234 3.96415 0
M  V30 20977 C 2424.19 7.08079 2.736 0
M  V30 20978 O 2423.98 5.94365 1.8368 0
M  V30 20979 C 2422.79 7.64886 2.9555 0
M  V30 20980 O 2422.4 8.5406 1.90739 0
M  V30 20981 C 2421.91 6.4116 2.90739 0
M  V30 20982 C 2422.62 5.55375 1.86963 0
M  V30 20983 N 2422.57 4.09664 2.15742 0
M  V30 20984 C 2422.42 3.22231 1.08477 0
M  V30 20985 O 2422.33 3.68951 -0.0600489 0
M  V30 20986 N 2422.37 1.76692 1.48799 0
M  V30 20987 C 2422.47 1.41695 2.57602 0
M  V30 20988 N 2422.42 0.107296 2.75791 0
M  V30 20989 C 2422.62 2.29178 3.69733 0
M  V30 20990 C 2422.67 3.62753 3.42653 0
M  V30 20991 H 2425.41 7.45488 4.45578 0
M  V30 20992 H 2425.68 5.86232 3.67314 0
M  V30 20993 H 2424.81 7.84508 2.24507 0
M  V30 20994 H 2422.15 5.73556 0.888715 0
M  V30 20995 H 2421.87 5.9096 3.88638 0
M  V30 20996 H 2420.88 6.66053 2.58894 0
M  V30 20997 H 2422.72 8.16339 3.92049 0
M  V30 20998 H 2422.79 4.33052 4.24913 0
M  V30 20999 H 2422.69 1.9103 4.71577 0
M  V30 21000 H 2422.3 -0.521221 1.95056 0
M  V30 21001 H 2422.49 -0.286429 3.70695 0
M  V30 21002 P 2420.85 8.7635 1.60911 0
M  V30 21003 O 2420.63 10.1388 1.11561 0
M  V30 21004 O 2420.06 8.36503 2.79617 0
M  V30 21005 O 2420.6 7.71806 0.42951 0
M  V30 21006 C 2421.54 7.67148 -0.673689 0
M  V30 21007 C 2420.81 7.33374 -1.95559 0
M  V30 21008 O 2420.6 5.88721 -2.00726 0
M  V30 21009 C 2419.41 7.92526 -2.10483 0
M  V30 21010 O 2419.02 8.02971 -3.47653 0
M  V30 21011 C 2418.53 6.89602 -1.41652 0
M  V30 21012 C 2419.24 5.59201 -1.75185 0
M  V30 21013 N 2419.19 4.58235 -0.662552 0
M  V30 21014 H 2422.02 8.65116 -0.777161 0
M  V30 21015 H 2422.3 6.90173 -0.474152 0
M  V30 21016 H 2421.43 7.66548 -2.79458 0
M  V30 21017 P 2417.47 8.03563 -3.84925 0
M  V30 21018 O 2417.25 8.85821 -5.0569 0
M  V30 21019 O 2416.68 8.41101 -2.65469 0
M  V30 21020 O 2417.22 6.4965 -4.18908 0
M  V30 21021 C 2418.16 5.81037 -5.05421 0
M  V30 21022 C 2417.43 4.78366 -5.89277 0
M  V30 21023 O 2417.22 3.58302 -5.08433 0
M  V30 21024 C 2416.03 5.17448 -6.36119 0
M  V30 21025 O 2415.64 4.45271 -7.53232 0
M  V30 21026 C 2415.15 4.74639 -5.19936 0
M  V30 21027 C 2415.86 3.49432 -4.70418 0
M  V30 21028 N 2415.81 3.31776 -3.22945 0
M  V30 21029 H 2418.64 6.54213 -5.71376 0
M  V30 21030 H 2418.92 5.30492 -4.44033 0
M  V30 21031 H 2418.05 4.55889 -6.76652 0
M  V30 21032 P 2414.09 4.23843 -7.83734 0
M  V30 21033 O 2413.87 4.19407 -9.29784 0
M  V30 21034 O 2413.3 5.24426 -7.09156 0
M  V30 21035 O 2413.84 2.7935 -7.20758 0
M  V30 21036 C 2414.78 1.7299 -7.50419 0
M  V30 21037 C 2414.05 0.406376 -7.57911 0
M  V30 21038 O 2413.84 -0.0897726 -6.21935 0
M  V30 21039 C 2412.65 0.447224 -8.1878 0
M  V30 21040 O 2412.26 -0.825065 -8.71101 0
M  V30 21041 C 2411.77 0.783801 -6.99623 0
M  V30 21042 C 2412.48 0.0619192 -5.85967 0
M  V30 21043 N 2412.43 0.790462 -4.56202 0
M  V30 21044 H 2415.26 1.93423 -8.4679 0
M  V30 21045 H 2415.54 1.68852 -6.70877 0
M  V30 21046 H 2414.67 -0.289041 -8.15388 0
M  V30 21047 H 2412.01 -0.927006 -5.72848 0
M  V30 21048 H 2411.73 1.86973 -6.82036 0
M  V30 21049 H 2410.74 0.403953 -7.13357 0
M  V30 21050 H 2412.58 1.20599 -8.97534 0
M  V30 21051 P 2410.71 -1.17771 -8.83182 0
M  V30 21052 O 2410.49 -2.07206 -9.98732 0
M  V30 21053 O 2409.92 0.0743816 -8.81969 0
M  V30 21054 O 2410.46 -1.97652 -7.47304 0
M  V30 21055 C 2411.4 -3.01133 -7.08783 0
M  V30 21056 C 2410.67 -4.12613 -6.37049 0
M  V30 21057 O 2410.46 -3.72827 -4.97879 0
M  V30 21058 C 2409.27 -4.45085 -6.88694 0
M  V30 21059 O 2408.88 -5.7877 -6.5624 0
M  V30 21060 C 2408.39 -3.47817 -6.12078 0
M  V30 21061 C 2409.1 -3.39414 -4.77697 0
M  V30 21062 N 2409.05 -2.04615 -4.15333 0
M  V30 21063 H 2411.88 -3.41248 -7.98759 0
M  V30 21064 H 2412.16 -2.5837 -6.41742 0
M  V30 21065 H 2411.29 -5.02657 -6.42673 0
M  V30 21066 P 2407.33 -6.144 -6.45285 0
M  V30 21067 O 2407.11 -7.54673 -6.86199 0
M  V30 21068 O 2406.54 -5.12391 -7.179 0
M  V30 21069 O 2407.08 -5.99158 -4.88404 0
M  V30 21070 C 2408.02 -6.60234 -3.96415 0
M  V30 21071 C 2407.29 -7.08259 -2.72856 0
M  V30 21072 O 2407.08 -5.9427 -1.83651 0
M  V30 21073 C 2405.89 -7.64886 -2.9555 0
M  V30 21074 O 2405.5 -8.53963 -1.90717 0
M  V30 21075 C 2405.01 -6.4116 -2.90739 0
M  V30 21076 C 2405.72 -5.55375 -1.86963 0
M  V30 21077 N 2405.67 -4.09664 -2.15742 0
M  V30 21078 H 2408.5 -7.45574 -4.45629 0
M  V30 21079 H 2408.78 -5.86232 -3.67314 0
M  V30 21080 H 2407.91 -7.84412 -2.24479 0
M  V30 21081 P 2403.95 -8.7635 -1.60911 0
M  V30 21082 O 2403.73 -10.1388 -1.11561 0
M  V30 21083 O 2403.16 -8.36503 -2.79617 0
M  V30 21084 O 2403.7 -7.71806 -0.42951 0
M  V30 21085 C 2404.64 -7.67148 0.673689 0
M  V30 21086 C 2403.91 -7.33374 1.95559 0
M  V30 21087 O 2403.7 -5.88721 2.00726 0
M  V30 21088 C 2402.51 -7.92526 2.10483 0
M  V30 21089 O 2402.12 -8.02971 3.47653 0
M  V30 21090 C 2401.63 -6.89602 1.41652 0
M  V30 21091 C 2402.34 -5.59201 1.75185 0
M  V30 21092 N 2402.29 -4.58235 0.662552 0
M  V30 21093 H 2405.12 -8.65116 0.777161 0
M  V30 21094 H 2405.4 -6.90173 0.474152 0
M  V30 21095 H 2404.53 -7.66548 2.79458 0
M  V30 21096 P 2400.57 -8.03563 3.84925 0
M  V30 21097 O 2400.35 -8.85821 5.0569 0
M  V30 21098 O 2399.78 -8.41101 2.65469 0
M  V30 21099 O 2400.32 -6.4965 4.18908 0
M  V30 21100 C 2401.26 -5.81037 5.05421 0
M  V30 21101 C 2400.53 -4.78366 5.89277 0
M  V30 21102 O 2400.32 -3.58302 5.08433 0
M  V30 21103 C 2399.13 -5.17448 6.36119 0
M  V30 21104 O 2398.74 -4.45271 7.53232 0
M  V30 21105 C 2398.25 -4.74639 5.19936 0
M  V30 21106 C 2398.96 -3.49432 4.70418 0
M  V30 21107 N 2398.91 -3.31776 3.22945 0
M  V30 21108 H 2401.74 -6.54213 5.71376 0
M  V30 21109 H 2402.02 -5.30492 4.44033 0
M  V30 21110 H 2401.15 -4.55889 6.76652 0
M  V30 21111 P 2397.19 -4.23843 7.83734 0
M  V30 21112 O 2396.97 -4.19407 9.29784 0
M  V30 21113 O 2396.4 -5.24426 7.09156 0
M  V30 21114 O 2396.94 -2.7935 7.20758 0
M  V30 21115 C 2397.88 -1.72945 7.50224 0
M  V30 21116 C 2397.15 -0.406376 7.57911 0
M  V30 21117 O 2396.94 0.0897726 6.21935 0
M  V30 21118 C 2395.75 -0.438983 8.18724 0
M  V30 21119 O 2395.36 0.825065 8.71101 0
M  V30 21120 C 2394.87 -0.783689 6.99524 0
M  V30 21121 C 2395.58 -0.0619086 5.85867 0
M  V30 21122 N 2395.53 -0.78573 4.56183 0
M  V30 21123 C 2395.38 -0.0292889 3.41887 0
M  V30 21124 O 2395.29 1.18445 3.4419 0
M  V30 21125 N 2395.34 -0.744061 2.23964 0
M  V30 21126 C 2395.43 -2.10932 2.10362 0
M  V30 21127 O 2395.38 -2.64117 0.98825 0
M  V30 21128 C 2395.58 -2.8202 3.34994 0
M  V30 21129 C 2395.69 -4.31095 3.25037 0
M  V30 21130 C 2395.63 -2.15547 4.52261 0
M  V30 21131 H 2398.37 -1.93379 8.46595 0
M  V30 21132 H 2398.64 -1.68132 6.70852 0
M  V30 21133 H 2397.77 0.289041 8.15388 0
M  V30 21134 H 2395.11 0.926847 5.72749 0
M  V30 21135 H 2394.83 -1.86973 6.82036 0
M  V30 21136 H 2393.84 -0.403896 7.13257 0
M  V30 21137 H 2395.68 -1.20585 8.97435 0
M  V30 21138 H 2395.75 -2.71231 5.45042 0
M  V30 21139 H 2394.72 -4.76966 3.49992 0
M  V30 21140 H 2396.45 -4.67047 3.95024 0
M  V30 21141 H 2395.97 -4.58996 2.22312 0
M  V30 21142 H 2395.23 -0.214893 1.39758 0
M  V30 21143 P 2393.81 1.17771 8.83182 0
M  V30 21144 O 2393.59 2.07206 9.98732 0
M  V30 21145 O 2393.02 -0.0743816 8.81969 0
M  V30 21146 O 2393.56 1.97652 7.47304 0
M  V30 21147 C 2394.5 3.01133 7.08783 0
M  V30 21148 C 2393.77 4.12613 6.37049 0
M  V30 21149 O 2393.56 3.72827 4.97879 0
M  V30 21150 C 2392.37 4.45085 6.88694 0
M  V30 21151 O 2391.98 5.7877 6.5624 0
M  V30 21152 C 2391.49 3.47817 6.12078 0
M  V30 21153 C 2392.2 3.39414 4.77697 0
M  V30 21154 N 2392.15 2.04615 4.15333 0
M  V30 21155 C 2392.23 0.803897 4.75249 0
M  V30 21156 N 2392.15 -0.197615 3.91502 0
M  V30 21157 C 2392.01 0.413002 2.66823 0
M  V30 21158 C 2391.88 -0.157221 1.38007 0
M  V30 21159 N 2391.76 0.833136 0.390236 0
M  V30 21160 C 2391.76 2.19402 0.623885 0
M  V30 21161 N 2391.63 2.97622 -0.449677 0
M  V30 21162 N 2391.89 2.73005 1.83601 0
M  V30 21163 C 2392.01 1.78786 2.80935 0
M  V30 21164 H 2394.98 3.41248 7.98759 0
M  V30 21165 H 2395.26 2.5837 6.41742 0
M  V30 21166 H 2394.39 5.02657 6.42673 0
M  V30 21167 P 2390.43 6.144 6.45285 0
M  V30 21168 O 2390.21 7.54673 6.86199 0
M  V30 21169 O 2389.64 5.12391 7.179 0
M  V30 21170 O 2390.18 5.99158 4.88404 0
M  V30 21171 C 2391.12 6.60062 3.96313 0
M  V30 21172 C 2390.39 7.08259 2.72856 0
M  V30 21173 O 2390.18 5.9427 1.83651 0
M  V30 21174 C 2388.99 7.65087 2.94749 0
M  V30 21175 O 2388.6 8.53963 1.90717 0
M  V30 21176 C 2388.11 6.41069 2.90698 0
M  V30 21177 C 2388.82 5.5528 1.86931 0
M  V30 21178 N 2388.77 4.09575 2.15696 0
M  V30 21179 C 2388.62 3.24249 1.08435 0
M  V30 21180 O 2388.53 3.63946 -0.0628747 0
M  V30 21181 N 2388.58 1.90009 1.39973 0
M  V30 21182 C 2388.67 1.34884 2.65614 0
M  V30 21183 C 2388.82 2.3145 3.71736 0
M  V30 21184 C 2388.87 3.63518 3.44754 0
M  V30 21185 H 2391.61 7.45402 4.45526 0
M  V30 21186 H 2391.88 5.86062 3.67208 0
M  V30 21187 H 2391.01 7.84412 2.24479 0
M  V30 21188 H 2388.35 5.73358 0.888409 0
M  V30 21189 H 2388.07 5.90877 3.88583 0
M  V30 21190 H 2387.08 6.65867 2.58821 0
M  V30 21191 H 2388.92 8.16248 3.92006 0
M  V30 21192 H 2388.99 4.34551 4.26383 0
M  V30 21193 P 2387.05 8.7635 1.60911 0
M  V30 21194 O 2386.83 10.1388 1.11561 0
M  V30 21195 O 2386.26 8.36503 2.79617 0
M  V30 21196 O 2386.8 7.71806 0.42951 0
M  V30 21197 C 2387.74 7.67148 -0.673689 0
M  V30 21198 C 2387.01 7.33374 -1.95559 0
M  V30 21199 O 2386.8 5.88721 -2.00726 0
M  V30 21200 C 2385.61 7.92526 -2.10483 0
M  V30 21201 O 2385.22 8.02971 -3.47653 0
M  V30 21202 C 2384.73 6.89602 -1.41652 0
M  V30 21203 C 2385.44 5.59201 -1.75185 0
M  V30 21204 N 2385.39 4.58301 -0.657969 0
M  V30 21205 H 2388.22 8.65116 -0.777161 0
M  V30 21206 H 2388.5 6.9022 -0.46725 0
M  V30 21207 H 2387.63 7.66548 -2.79458 0
M  V30 21208 H 2384.97 5.16165 -2.65183 0
M  V30 21209 H 2384.69 7.06433 -0.329384 0
M  V30 21210 H 2383.7 6.90926 -1.82021 0
M  V30 21211 H 2385.54 8.90873 -1.62657 0
M  V30 21212 P 2383.67 8.03563 -3.84925 0
M  V30 21213 O 2383.45 8.85821 -5.0569 0
M  V30 21214 O 2382.88 8.41101 -2.65469 0
M  V30 21215 O 2383.42 6.4965 -4.18908 0
M  V30 21216 C 2384.36 5.81037 -5.05421 0
M  V30 21217 C 2383.63 4.78366 -5.89277 0
M  V30 21218 O 2383.42 3.58302 -5.08433 0
M  V30 21219 C 2382.23 5.17448 -6.36119 0
M  V30 21220 O 2381.84 4.45271 -7.53232 0
M  V30 21221 C 2381.35 4.74639 -5.19936 0
M  V30 21222 C 2382.06 3.49432 -4.70418 0
M  V30 21223 N 2382.01 3.32099 -3.22613 0
M  V30 21224 H 2384.84 6.54213 -5.71376 0
M  V30 21225 H 2385.12 5.30936 -4.43503 0
M  V30 21226 H 2384.25 4.55889 -6.76652 0
M  V30 21227 H 2381.59 2.61715 -5.17932 0
M  V30 21228 H 2381.31 5.52155 -4.41878 0
M  V30 21229 H 2380.32 4.51981 -5.53374 0
M  V30 21230 H 2382.16 6.25124 -6.55234 0
M  V30 21231 P 2380.29 4.23843 -7.83734 0
M  V30 21232 O 2380.07 4.19407 -9.29784 0
M  V30 21233 O 2379.5 5.24426 -7.09156 0
M  V30 21234 O 2380.04 2.79386 -7.20852 0
M  V30 21235 C 2380.98 1.7299 -7.50419 0
M  V30 21236 C 2380.25 0.41401 -7.5797 0
M  V30 21237 O 2380.04 -0.089787 -6.22035 0
M  V30 21238 C 2378.85 0.447224 -8.1878 0
M  V30 21239 O 2378.46 -0.825159 -8.71201 0
M  V30 21240 C 2377.97 0.783801 -6.99623 0
M  V30 21241 C 2378.68 0.0619192 -5.85967 0
M  V30 21242 N 2378.63 0.7859 -4.56281 0
M  V30 21243 C 2378.48 0.0359258 -3.39981 0
M  V30 21244 O 2378.39 -1.19723 -3.49038 0
M  V30 21245 N 2378.43 0.869151 -2.14025 0
M  V30 21246 C 2378.53 2.01207 -2.14363 0
M  V30 21247 N 2378.48 2.58978 -0.954287 0
M  V30 21248 C 2378.68 2.80817 -3.32215 0
M  V30 21249 C 2378.73 2.13785 -4.50884 0
M  V30 21250 H 2381.47 1.93401 -8.46693 0
M  V30 21251 H 2381.74 1.68181 -6.71046 0
M  V30 21252 H 2380.87 -0.289076 -8.15488 0
M  V30 21253 H 2378.21 -0.927166 -5.72947 0
M  V30 21254 H 2377.93 1.87 -6.82132 0
M  V30 21255 H 2376.94 0.404009 -7.13457 0
M  V30 21256 H 2378.78 1.20599 -8.97534 0
M  V30 21257 H 2378.85 2.70295 -5.43162 0
M  V30 21258 H 2378.75 3.89465 -3.27406 0
M  V30 21259 H 2378.36 2.01616 -0.107046 0
M  V30 21260 H 2378.55 3.61403 -0.873101 0
M  V30 21261 P 2376.91 -1.17771 -8.83182 0
M  V30 21262 O 2376.69 -2.07206 -9.98732 0
M  V30 21263 O 2376.12 0.0743816 -8.81969 0
M  V30 21264 O 2376.66 -1.97652 -7.47304 0
M  V30 21265 C 2377.6 -3.01133 -7.08783 0
M  V30 21266 C 2376.87 -4.12613 -6.37049 0
M  V30 21267 O 2376.66 -3.72827 -4.97879 0
M  V30 21268 C 2375.47 -4.45085 -6.88694 0
M  V30 21269 O 2375.08 -5.7877 -6.5624 0
M  V30 21270 C 2374.59 -3.47817 -6.12078 0
M  V30 21271 C 2375.3 -3.39414 -4.77697 0
M  V30 21272 N 2375.25 -2.04199 -4.15538 0
M  V30 21273 C 2375.33 -0.821545 -4.76977 0
M  V30 21274 N 2375.26 0.1794 -3.94592 0
M  V30 21275 C 2375.11 -0.419121 -2.70776 0
M  V30 21276 C 2374.98 0.109072 -1.40577 0
M  V30 21277 N 2374.97 1.4104 -1.1344 0
M  V30 21278 N 2374.86 -0.764381 -0.39411 0
M  V30 21279 C 2374.87 -2.06587 -0.664135 0
M  V30 21280 N 2374.99 -2.67948 -1.82153 0
M  V30 21281 C 2375.11 -1.77942 -2.8147 0
M  V30 21282 H 2378.08 -3.41248 -7.98759 0
M  V30 21283 H 2378.36 -2.57728 -6.42 0
M  V30 21284 H 2377.49 -5.02657 -6.42673 0
M  V30 21285 H 2374.83 -4.11708 -4.08956 0
M  V30 21286 H 2374.55 -2.49626 -6.61679 0
M  V30 21287 H 2373.56 -3.8662 -6.00862 0
M  V30 21288 H 2375.4 -4.29991 -7.97006 0
M  V30 21289 H 2375.44 -0.702451 -5.84696 0
M  V30 21290 H 2375.06 2.09647 -1.89651 0
M  V30 21291 H 2374.87 1.73358 -0.160575 0
M  V30 21292 H 2374.76 -2.71695 0.195838 0
M  V30 21293 P 2373.53 -6.144 -6.45285 0
M  V30 21294 O 2373.31 -7.54673 -6.86199 0
M  V30 21295 O 2372.74 -5.12391 -7.179 0
M  V30 21296 O 2373.28 -5.99158 -4.88404 0
M  V30 21297 C 2374.22 -6.60234 -3.96415 0
M  V30 21298 C 2373.49 -7.08259 -2.72856 0
M  V30 21299 O 2373.28 -5.9427 -1.83651 0
M  V30 21300 C 2372.09 -7.64886 -2.9555 0
M  V30 21301 O 2371.7 -8.53963 -1.90717 0
M  V30 21302 C 2371.21 -6.4116 -2.90739 0
M  V30 21303 C 2371.92 -5.55375 -1.86963 0
M  V30 21304 N 2371.87 -4.09664 -2.15742 0
M  V30 21305 H 2374.7 -7.45574 -4.45629 0
M  V30 21306 H 2374.98 -5.86232 -3.67314 0
M  V30 21307 H 2374.11 -7.84412 -2.24479 0
M  V30 21308 P 2370.15 -8.7635 -1.60911 0
M  V30 21309 O 2369.93 -10.1388 -1.11561 0
M  V30 21310 O 2369.36 -8.36503 -2.79617 0
M  V30 21311 O 2369.9 -7.71806 -0.42951 0
M  V30 21312 C 2370.84 -7.67148 0.673689 0
M  V30 21313 C 2370.11 -7.33374 1.95559 0
M  V30 21314 O 2369.9 -5.88721 2.00726 0
M  V30 21315 C 2368.71 -7.92526 2.10483 0
M  V30 21316 O 2368.32 -8.02971 3.47653 0
M  V30 21317 C 2367.83 -6.89602 1.41652 0
M  V30 21318 C 2368.54 -5.59201 1.75185 0
M  V30 21319 N 2368.49 -4.58235 0.662552 0
M  V30 21320 H 2371.33 -8.65116 0.777161 0
M  V30 21321 H 2371.6 -6.90173 0.474152 0
M  V30 21322 H 2370.73 -7.66548 2.79458 0
M  V30 21323 P 2366.77 -8.03563 3.84925 0
M  V30 21324 O 2366.55 -8.85821 5.0569 0
M  V30 21325 O 2365.98 -8.41101 2.65469 0
M  V30 21326 O 2366.52 -6.49734 4.18962 0
M  V30 21327 C 2367.46 -5.81037 5.05421 0
M  V30 21328 C 2366.73 -4.79018 5.88876 0
M  V30 21329 O 2366.52 -3.58359 5.08515 0
M  V30 21330 C 2365.33 -5.17448 6.36119 0
M  V30 21331 O 2364.94 -4.45322 7.53318 0
M  V30 21332 C 2364.45 -4.74639 5.19936 0
M  V30 21333 C 2365.16 -3.49432 4.70418 0
M  V30 21334 N 2365.11 -3.31776 3.22945 0
M  V30 21335 C 2364.96 -2.02742 2.72939 0
M  V30 21336 O 2364.87 -1.08301 3.52749 0
M  V30 21337 N 2364.91 -1.96117 1.22063 0
M  V30 21338 C 2365.01 -2.8878 0.551566 0
M  V30 21339 N 2364.96 -2.65609 -0.750198 0
M  V30 21340 C 2365.16 -4.22457 1.03707 0
M  V30 21341 C 2365.21 -4.37979 2.39113 0
M  V30 21342 H 2367.95 -6.54138 5.7131 0
M  V30 21343 H 2368.22 -5.30492 4.44033 0
M  V30 21344 H 2367.35 -4.55945 6.76735 0
M  V30 21345 H 2364.69 -2.6176 5.18021 0
M  V30 21346 H 2364.41 -5.52233 4.41941 0
M  V30 21347 H 2363.42 -4.52045 5.53452 0
M  V30 21348 H 2365.26 -6.25124 6.55234 0
M  V30 21349 H 2365.33 -5.37936 2.80552 0
M  V30 21350 H 2365.23 -5.07528 0.359553 0
M  V30 21351 H 2364.84 -1.69403 -1.09847 0
M  V30 21352 H 2365.04 -3.43701 -1.41792 0
M  V30 21353 P 2363.39 -4.23843 7.83734 0
M  V30 21354 O 2363.17 -4.19407 9.29784 0
M  V30 21355 O 2362.6 -5.24426 7.09156 0
M  V30 21356 O 2363.14 -2.79386 7.20852 0
M  V30 21357 C 2364.08 -1.7299 7.50419 0
M  V30 21358 C 2363.35 -0.41401 7.5797 0
M  V30 21359 O 2363.14 0.089787 6.22035 0
M  V30 21360 C 2361.95 -0.447224 8.1878 0
M  V30 21361 O 2361.56 0.825159 8.71201 0
M  V30 21362 C 2361.07 -0.783801 6.99623 0
M  V30 21363 C 2361.78 -0.0619192 5.85967 0
M  V30 21364 N 2361.73 -0.7859 4.56281 0
M  V30 21365 C 2361.58 -0.0359258 3.39981 0
M  V30 21366 O 2361.49 1.19723 3.49038 0
M  V30 21367 N 2361.53 -0.869151 2.14025 0
M  V30 21368 C 2361.63 -2.01207 2.14363 0
M  V30 21369 N 2361.58 -2.58978 0.954287 0
M  V30 21370 C 2361.78 -2.80817 3.32215 0
M  V30 21371 C 2361.83 -2.13785 4.50884 0
M  V30 21372 H 2364.57 -1.93401 8.46693 0
M  V30 21373 H 2364.84 -1.68181 6.71046 0
M  V30 21374 H 2363.97 0.289076 8.15488 0
M  V30 21375 H 2361.31 0.927166 5.72947 0
M  V30 21376 H 2361.03 -1.87 6.82132 0
M  V30 21377 H 2360.04 -0.404009 7.13457 0
M  V30 21378 H 2361.88 -1.20599 8.97534 0
M  V30 21379 H 2361.95 -2.70295 5.43162 0
M  V30 21380 H 2361.85 -3.89465 3.27406 0
M  V30 21381 H 2361.46 -2.01616 0.107046 0
M  V30 21382 H 2361.66 -3.61403 0.873101 0
M  V30 21383 P 2360.01 1.17771 8.83182 0
M  V30 21384 O 2359.79 2.07206 9.98732 0
M  V30 21385 O 2359.22 -0.0743816 8.81969 0
M  V30 21386 O 2359.76 1.97652 7.47304 0
M  V30 21387 C 2360.7 3.01133 7.08783 0
M  V30 21388 C 2359.97 4.12613 6.37049 0
M  V30 21389 O 2359.76 3.72827 4.97879 0
M  V30 21390 C 2358.57 4.45085 6.88694 0
M  V30 21391 O 2358.18 5.7877 6.5624 0
M  V30 21392 C 2357.69 3.47817 6.12078 0
M  V30 21393 C 2358.4 3.39414 4.77697 0
M  V30 21394 N 2358.35 2.04615 4.15333 0
M  V30 21395 H 2361.19 3.41248 7.98759 0
M  V30 21396 H 2361.46 2.5837 6.41742 0
M  V30 21397 H 2360.59 5.02657 6.42673 0
M  V30 21398 P 2356.63 6.144 6.45285 0
M  V30 21399 O 2356.41 7.54673 6.86199 0
M  V30 21400 O 2355.84 5.12391 7.179 0
M  V30 21401 O 2356.38 5.99236 4.88467 0
M  V30 21402 C 2357.32 6.60234 3.96415 0
M  V30 21403 C 2356.59 7.08079 2.736 0
M  V30 21404 O 2356.38 5.94365 1.8368 0
M  V30 21405 C 2355.19 7.64886 2.9555 0
M  V30 21406 O 2354.8 8.5406 1.90739 0
M  V30 21407 C 2354.31 6.4116 2.90739 0
M  V30 21408 C 2355.02 5.55375 1.86963 0
M  V30 21409 N 2354.97 4.09664 2.15742 0
M  V30 21410 C 2354.82 3.22231 1.08477 0
M  V30 21411 O 2354.73 3.68951 -0.0600489 0
M  V30 21412 N 2354.77 1.76692 1.48799 0
M  V30 21413 C 2354.87 1.41695 2.57602 0
M  V30 21414 N 2354.82 0.107296 2.75791 0
M  V30 21415 C 2355.02 2.29178 3.69733 0
M  V30 21416 C 2355.07 3.62753 3.42653 0
M  V30 21417 H 2357.81 7.45488 4.45578 0
M  V30 21418 H 2358.08 5.86232 3.67314 0
M  V30 21419 H 2357.21 7.84508 2.24507 0
M  V30 21420 H 2354.55 5.73556 0.888715 0
M  V30 21421 H 2354.27 5.9096 3.88638 0
M  V30 21422 H 2353.28 6.66053 2.58894 0
M  V30 21423 H 2355.12 8.16339 3.92049 0
M  V30 21424 H 2355.19 4.33052 4.24913 0
M  V30 21425 H 2355.09 1.9103 4.71577 0
M  V30 21426 H 2354.7 -0.521221 1.95056 0
M  V30 21427 H 2354.9 -0.286429 3.70695 0
M  V30 21428 P 2353.25 8.7635 1.60911 0
M  V30 21429 O 2353.03 10.1388 1.11561 0
M  V30 21430 O 2352.46 8.36503 2.79617 0
M  V30 21431 O 2353 7.71806 0.42951 0
M  V30 21432 C 2353.94 7.67148 -0.673689 0
M  V30 21433 C 2353.21 7.33374 -1.95559 0
M  V30 21434 O 2353 5.88721 -2.00726 0
M  V30 21435 C 2351.81 7.92526 -2.10483 0
M  V30 21436 O 2351.42 8.02971 -3.47653 0
M  V30 21437 C 2350.93 6.89602 -1.41652 0
M  V30 21438 C 2351.64 5.59201 -1.75185 0
M  V30 21439 N 2351.59 4.58301 -0.657969 0
M  V30 21440 H 2354.43 8.65116 -0.777161 0
M  V30 21441 H 2354.7 6.9022 -0.46725 0
M  V30 21442 H 2353.83 7.66548 -2.79458 0
M  V30 21443 H 2351.17 5.16165 -2.65183 0
M  V30 21444 H 2350.89 7.06433 -0.329384 0
M  V30 21445 H 2349.9 6.90926 -1.82021 0
M  V30 21446 H 2351.74 8.90873 -1.62657 0
M  V30 21447 P 2349.87 8.03563 -3.84925 0
M  V30 21448 O 2349.65 8.85821 -5.0569 0
M  V30 21449 O 2349.08 8.41101 -2.65469 0
M  V30 21450 O 2349.62 6.4965 -4.18908 0
M  V30 21451 C 2350.56 5.81037 -5.05421 0
M  V30 21452 C 2349.83 4.78366 -5.89277 0
M  V30 21453 O 2349.62 3.58302 -5.08433 0
M  V30 21454 C 2348.43 5.17448 -6.36119 0
M  V30 21455 O 2348.04 4.45271 -7.53232 0
M  V30 21456 C 2347.55 4.74639 -5.19936 0
M  V30 21457 C 2348.26 3.49432 -4.70418 0
M  V30 21458 N 2348.21 3.32099 -3.22613 0
M  V30 21459 H 2351.05 6.54213 -5.71376 0
M  V30 21460 H 2351.32 5.30936 -4.43503 0
M  V30 21461 H 2350.45 4.55889 -6.76652 0
M  V30 21462 H 2347.79 2.61715 -5.17932 0
M  V30 21463 H 2347.51 5.52155 -4.41878 0
M  V30 21464 H 2346.52 4.51981 -5.53374 0
M  V30 21465 H 2348.36 6.25124 -6.55234 0
M  V30 21466 P 2346.49 4.23843 -7.83734 0
M  V30 21467 O 2346.27 4.19407 -9.29784 0
M  V30 21468 O 2345.7 5.24426 -7.09156 0
M  V30 21469 O 2346.24 2.79386 -7.20852 0
M  V30 21470 C 2347.18 1.7299 -7.50419 0
M  V30 21471 C 2346.45 0.41401 -7.5797 0
M  V30 21472 O 2346.24 -0.089787 -6.22035 0
M  V30 21473 C 2345.05 0.447224 -8.1878 0
M  V30 21474 O 2344.66 -0.825159 -8.71201 0
M  V30 21475 C 2344.17 0.783801 -6.99623 0
M  V30 21476 C 2344.88 0.0619192 -5.85967 0
M  V30 21477 N 2344.83 0.7859 -4.56281 0
M  V30 21478 C 2344.68 0.0359258 -3.39981 0
M  V30 21479 O 2344.59 -1.19723 -3.49038 0
M  V30 21480 N 2344.63 0.869151 -2.14025 0
M  V30 21481 C 2344.73 2.01207 -2.14363 0
M  V30 21482 N 2344.68 2.58978 -0.954287 0
M  V30 21483 C 2344.88 2.80817 -3.32215 0
M  V30 21484 C 2344.93 2.13785 -4.50884 0
M  V30 21485 H 2347.67 1.93401 -8.46693 0
M  V30 21486 H 2347.94 1.68181 -6.71046 0
M  V30 21487 H 2347.07 -0.289076 -8.15488 0
M  V30 21488 H 2344.41 -0.927166 -5.72947 0
M  V30 21489 H 2344.13 1.87 -6.82132 0
M  V30 21490 H 2343.14 0.404009 -7.13457 0
M  V30 21491 H 2344.98 1.20599 -8.97534 0
M  V30 21492 H 2345.05 2.70295 -5.43162 0
M  V30 21493 H 2344.95 3.89465 -3.27406 0
M  V30 21494 H 2344.56 2.01616 -0.107046 0
M  V30 21495 H 2344.76 3.61403 -0.873101 0
M  V30 21496 P 2343.11 -1.17771 -8.83182 0
M  V30 21497 O 2342.89 -2.07206 -9.98732 0
M  V30 21498 O 2342.32 0.0743816 -8.81969 0
M  V30 21499 O 2342.86 -1.97652 -7.47304 0
M  V30 21500 C 2343.8 -3.01133 -7.08783 0
M  V30 21501 C 2343.07 -4.12613 -6.37049 0
M  V30 21502 O 2342.86 -3.72827 -4.97879 0
M  V30 21503 C 2341.67 -4.45085 -6.88694 0
M  V30 21504 O 2341.28 -5.7877 -6.5624 0
M  V30 21505 C 2340.79 -3.47817 -6.12078 0
M  V30 21506 C 2341.5 -3.39414 -4.77697 0
M  V30 21507 N 2341.45 -2.04615 -4.15333 0
M  V30 21508 H 2344.29 -3.41248 -7.98759 0
M  V30 21509 H 2344.56 -2.5837 -6.41742 0
M  V30 21510 H 2343.69 -5.02657 -6.42673 0
M  V30 21511 P 2339.73 -6.144 -6.45285 0
M  V30 21512 O 2339.51 -7.54673 -6.86199 0
M  V30 21513 O 2338.94 -5.12391 -7.179 0
M  V30 21514 O 2339.48 -5.99158 -4.88404 0
M  V30 21515 C 2340.42 -6.60234 -3.96415 0
M  V30 21516 C 2339.69 -7.08259 -2.72856 0
M  V30 21517 O 2339.48 -5.9427 -1.83651 0
M  V30 21518 C 2338.29 -7.64886 -2.9555 0
M  V30 21519 O 2337.9 -8.53963 -1.90717 0
M  V30 21520 C 2337.41 -6.4116 -2.90739 0
M  V30 21521 C 2338.12 -5.55375 -1.86963 0
M  V30 21522 N 2338.07 -4.09664 -2.15742 0
M  V30 21523 H 2340.91 -7.45574 -4.45629 0
M  V30 21524 H 2341.18 -5.86232 -3.67314 0
M  V30 21525 H 2340.31 -7.84412 -2.24479 0
M  V30 21526 P 2336.35 -8.7635 -1.60911 0
M  V30 21527 O 2336.13 -10.1388 -1.11561 0
M  V30 21528 O 2335.56 -8.36503 -2.79617 0
M  V30 21529 O 2336.1 -7.71806 -0.42951 0
M  V30 21530 C 2337.04 -7.67148 0.673689 0
M  V30 21531 C 2336.31 -7.33374 1.95559 0
M  V30 21532 O 2336.1 -5.88721 2.00726 0
M  V30 21533 C 2334.91 -7.92526 2.10483 0
M  V30 21534 O 2334.52 -8.02971 3.47653 0
M  V30 21535 C 2334.03 -6.89602 1.41652 0
M  V30 21536 C 2334.74 -5.59201 1.75185 0
M  V30 21537 N 2334.69 -4.58235 0.662552 0
M  V30 21538 H 2337.53 -8.65116 0.777161 0
M  V30 21539 H 2337.8 -6.90173 0.474152 0
M  V30 21540 H 2336.93 -7.66548 2.79458 0
M  V30 21541 P 2332.97 -8.03563 3.84925 0
M  V30 21542 O 2332.75 -8.85821 5.0569 0
M  V30 21543 O 2332.18 -8.41101 2.65469 0
M  V30 21544 O 2332.72 -6.49734 4.18962 0
M  V30 21545 C 2333.66 -5.81037 5.05421 0
M  V30 21546 C 2332.93 -4.79018 5.88876 0
M  V30 21547 O 2332.72 -3.58359 5.08515 0
M  V30 21548 C 2331.53 -5.17448 6.36119 0
M  V30 21549 O 2331.14 -4.45322 7.53318 0
M  V30 21550 C 2330.65 -4.74639 5.19936 0
M  V30 21551 C 2331.36 -3.49432 4.70418 0
M  V30 21552 N 2331.31 -3.31776 3.22945 0
M  V30 21553 C 2331.16 -2.02742 2.72939 0
M  V30 21554 O 2331.07 -1.08301 3.52749 0
M  V30 21555 N 2331.11 -1.96117 1.22063 0
M  V30 21556 C 2331.21 -2.8878 0.551566 0
M  V30 21557 N 2331.16 -2.65609 -0.750198 0
M  V30 21558 C 2331.36 -4.22457 1.03707 0
M  V30 21559 C 2331.41 -4.37979 2.39113 0
M  V30 21560 H 2334.15 -6.54138 5.7131 0
M  V30 21561 H 2334.42 -5.30492 4.44033 0
M  V30 21562 H 2333.55 -4.55945 6.76735 0
M  V30 21563 H 2330.89 -2.6176 5.18021 0
M  V30 21564 H 2330.61 -5.52233 4.41941 0
M  V30 21565 H 2329.62 -4.52045 5.53452 0
M  V30 21566 H 2331.46 -6.25124 6.55234 0
M  V30 21567 H 2331.53 -5.37936 2.80552 0
M  V30 21568 H 2331.43 -5.07528 0.359553 0
M  V30 21569 H 2331.04 -1.69403 -1.09847 0
M  V30 21570 H 2331.24 -3.43701 -1.41792 0
M  V30 21571 P 2329.59 -4.23843 7.83734 0
M  V30 21572 O 2329.37 -4.19407 9.29784 0
M  V30 21573 O 2328.8 -5.24426 7.09156 0
M  V30 21574 O 2329.34 -2.7935 7.20758 0
M  V30 21575 C 2330.28 -1.72945 7.50224 0
M  V30 21576 C 2329.55 -0.406376 7.57911 0
M  V30 21577 O 2329.34 0.0897726 6.21935 0
M  V30 21578 C 2328.15 -0.438983 8.18724 0
M  V30 21579 O 2327.76 0.825065 8.71101 0
M  V30 21580 C 2327.27 -0.783689 6.99524 0
M  V30 21581 C 2327.98 -0.0619086 5.85867 0
M  V30 21582 N 2327.93 -0.78573 4.56183 0
M  V30 21583 C 2327.78 -0.0292889 3.41887 0
M  V30 21584 O 2327.69 1.18445 3.4419 0
M  V30 21585 N 2327.74 -0.744061 2.23964 0
M  V30 21586 C 2327.83 -2.10932 2.10362 0
M  V30 21587 O 2327.78 -2.64117 0.98825 0
M  V30 21588 C 2327.98 -2.8202 3.34994 0
M  V30 21589 C 2328.09 -4.31095 3.25037 0
M  V30 21590 C 2328.03 -2.15547 4.52261 0
M  V30 21591 H 2330.77 -1.93379 8.46595 0
M  V30 21592 H 2331.04 -1.68132 6.70852 0
M  V30 21593 H 2330.17 0.289041 8.15388 0
M  V30 21594 H 2327.51 0.926847 5.72749 0
M  V30 21595 H 2327.24 -1.86973 6.82036 0
M  V30 21596 H 2326.24 -0.403896 7.13257 0
M  V30 21597 H 2328.08 -1.20585 8.97435 0
M  V30 21598 H 2328.15 -2.71231 5.45042 0
M  V30 21599 H 2327.12 -4.76966 3.49992 0
M  V30 21600 H 2328.86 -4.67047 3.95024 0
M  V30 21601 H 2328.37 -4.58996 2.22312 0
M  V30 21602 H 2327.63 -0.214893 1.39758 0
M  V30 21603 P 2326.21 1.17771 8.83182 0
M  V30 21604 O 2325.99 2.07206 9.98732 0
M  V30 21605 O 2325.42 -0.0743816 8.81969 0
M  V30 21606 O 2325.96 1.97652 7.47304 0
M  V30 21607 C 2326.9 3.01133 7.08783 0
M  V30 21608 C 2326.17 4.12613 6.37049 0
M  V30 21609 O 2325.96 3.72827 4.97879 0
M  V30 21610 C 2324.77 4.45085 6.88694 0
M  V30 21611 O 2324.38 5.7877 6.5624 0
M  V30 21612 C 2323.89 3.47817 6.12078 0
M  V30 21613 C 2324.6 3.39414 4.77697 0
M  V30 21614 N 2324.55 2.04615 4.15333 0
M  V30 21615 H 2327.39 3.41248 7.98759 0
M  V30 21616 H 2327.66 2.5837 6.41742 0
M  V30 21617 H 2326.79 5.02657 6.42673 0
M  V30 21618 P 2322.83 6.144 6.45285 0
M  V30 21619 O 2322.61 7.54673 6.86199 0
M  V30 21620 O 2322.04 5.12391 7.179 0
M  V30 21621 O 2322.58 5.99158 4.88404 0
M  V30 21622 C 2323.52 6.60062 3.96313 0
M  V30 21623 C 2322.79 7.08259 2.72856 0
M  V30 21624 O 2322.58 5.9427 1.83651 0
M  V30 21625 C 2321.39 7.65087 2.94749 0
M  V30 21626 O 2321 8.53963 1.90717 0
M  V30 21627 C 2320.51 6.41069 2.90698 0
M  V30 21628 C 2321.22 5.5528 1.86931 0
M  V30 21629 N 2321.17 4.09575 2.15696 0
M  V30 21630 C 2321.02 3.24249 1.08435 0
M  V30 21631 O 2320.93 3.63946 -0.0628747 0
M  V30 21632 N 2320.98 1.90009 1.39973 0
M  V30 21633 C 2321.07 1.34884 2.65614 0
M  V30 21634 O 2321.02 0.123716 2.81728 0
M  V30 21635 C 2321.22 2.3145 3.71736 0
M  V30 21636 C 2321.33 1.75913 5.10438 0
M  V30 21637 C 2321.27 3.63518 3.44754 0
M  V30 21638 H 2324.01 7.45402 4.45526 0
M  V30 21639 H 2324.28 5.86062 3.67208 0
M  V30 21640 H 2323.41 7.84412 2.24479 0
M  V30 21641 H 2320.75 5.73358 0.888409 0
M  V30 21642 H 2320.48 5.90877 3.88583 0
M  V30 21643 H 2319.48 6.65867 2.58821 0
M  V30 21644 H 2321.32 8.16248 3.92006 0
M  V30 21645 H 2321.39 4.34551 4.26383 0
M  V30 21646 H 2320.36 1.85471 5.61775 0
M  V30 21647 H 2322.1 2.31364 5.66257 0
M  V30 21648 H 2321.61 0.695936 5.05229 0
M  V30 21649 H 2320.87 1.26277 0.63625 0
M  V30 21650 P 2319.45 8.7635 1.60911 0
M  V30 21651 O 2319.23 10.1388 1.11561 0
M  V30 21652 O 2318.66 8.36503 2.79617 0
M  V30 21653 O 2319.2 7.71806 0.42951 0
M  V30 21654 C 2320.14 7.67148 -0.673689 0
M  V30 21655 C 2319.41 7.33374 -1.95559 0
M  V30 21656 O 2319.2 5.88721 -2.00726 0
M  V30 21657 C 2318.01 7.92526 -2.10483 0
M  V30 21658 O 2317.62 8.02971 -3.47653 0
M  V30 21659 C 2317.13 6.89602 -1.41652 0
M  V30 21660 C 2317.84 5.59201 -1.75185 0
M  V30 21661 N 2317.79 4.58235 -0.662552 0
M  V30 21662 H 2320.63 8.65116 -0.777161 0
M  V30 21663 H 2320.9 6.90173 -0.474152 0
M  V30 21664 H 2320.03 7.66548 -2.79458 0
M  V30 21665 P 2316.07 8.03563 -3.84925 0
M  V30 21666 O 2315.85 8.85821 -5.0569 0
M  V30 21667 O 2315.28 8.41101 -2.65469 0
M  V30 21668 O 2315.82 6.4965 -4.18908 0
M  V30 21669 C 2316.76 5.80886 -5.05289 0
M  V30 21670 C 2316.03 4.78366 -5.89277 0
M  V30 21671 O 2315.82 3.58302 -5.08433 0
M  V30 21672 C 2314.63 5.16748 -6.36559 0
M  V30 21673 O 2314.24 4.45271 -7.53232 0
M  V30 21674 C 2313.75 4.74572 -5.19863 0
M  V30 21675 C 2314.46 3.49373 -4.70338 0
M  V30 21676 N 2314.41 3.31704 -3.22876 0
M  V30 21677 C 2314.26 2.03326 -2.74871 0
M  V30 21678 O 2314.17 1.06486 -3.48076 0
M  V30 21679 N 2314.22 1.91838 -1.37456 0
M  V30 21680 C 2314.31 2.94295 -0.462035 0
M  V30 21681 C 2314.46 4.25064 -1.05249 0
M  V30 21682 C 2314.51 4.40214 -2.39192 0
M  V30 21683 H 2317.25 6.54063 -5.71245 0
M  V30 21684 H 2317.52 5.30339 -4.43905 0
M  V30 21685 H 2316.65 4.55889 -6.76652 0
M  V30 21686 H 2313.99 2.6167 -5.17842 0
M  V30 21687 H 2313.72 5.52155 -4.41878 0
M  V30 21688 H 2312.72 4.51918 -5.53297 0
M  V30 21689 H 2314.56 6.25055 -6.55162 0
M  V30 21690 H 2314.63 5.39798 -2.81523 0
M  V30 21691 P 2312.69 4.23843 -7.83734 0
M  V30 21692 O 2312.47 4.19407 -9.29784 0
M  V30 21693 O 2311.9 5.24426 -7.09156 0
M  V30 21694 O 2312.44 2.7935 -7.20758 0
M  V30 21695 C 2313.38 1.7299 -7.50419 0
M  V30 21696 C 2312.65 0.406376 -7.57911 0
M  V30 21697 O 2312.44 -0.0897726 -6.21935 0
M  V30 21698 C 2311.25 0.447224 -8.1878 0
M  V30 21699 O 2310.86 -0.825065 -8.71101 0
M  V30 21700 C 2310.37 0.783801 -6.99623 0
M  V30 21701 C 2311.08 0.0619192 -5.85967 0
M  V30 21702 N 2311.03 0.790462 -4.56202 0
M  V30 21703 H 2313.87 1.93423 -8.4679 0
M  V30 21704 H 2314.14 1.68852 -6.70877 0
M  V30 21705 H 2313.27 -0.289041 -8.15388 0
M  V30 21706 H 2310.61 -0.927006 -5.72848 0
M  V30 21707 H 2310.33 1.86973 -6.82036 0
M  V30 21708 H 2309.34 0.403953 -7.13357 0
M  V30 21709 H 2311.18 1.20599 -8.97534 0
M  V30 21710 P 2309.31 -1.17771 -8.83182 0
M  V30 21711 O 2309.09 -2.07206 -9.98732 0
M  V30 21712 O 2308.52 0.0743816 -8.81969 0
M  V30 21713 O 2309.06 -1.97652 -7.47304 0
M  V30 21714 C 2310 -3.01133 -7.08783 0
M  V30 21715 C 2309.27 -4.12613 -6.37049 0
M  V30 21716 O 2309.06 -3.72827 -4.97879 0
M  V30 21717 C 2307.87 -4.45085 -6.88694 0
M  V30 21718 O 2307.48 -5.7877 -6.5624 0
M  V30 21719 C 2306.99 -3.47817 -6.12078 0
M  V30 21720 C 2307.7 -3.39414 -4.77697 0
M  V30 21721 N 2307.65 -2.04615 -4.15333 0
M  V30 21722 H 2310.49 -3.41248 -7.98759 0
M  V30 21723 H 2310.76 -2.5837 -6.41742 0
M  V30 21724 H 2309.89 -5.02657 -6.42673 0
M  V30 21725 P 2305.93 -6.144 -6.45285 0
M  V30 21726 O 2305.71 -7.54673 -6.86199 0
M  V30 21727 O 2305.14 -5.12391 -7.179 0
M  V30 21728 O 2305.68 -5.99158 -4.88404 0
M  V30 21729 C 2306.62 -6.60234 -3.96415 0
M  V30 21730 C 2305.89 -7.08259 -2.72856 0
M  V30 21731 O 2305.68 -5.9427 -1.83651 0
M  V30 21732 C 2304.49 -7.64886 -2.9555 0
M  V30 21733 O 2304.1 -8.53963 -1.90717 0
M  V30 21734 C 2303.61 -6.4116 -2.90739 0
M  V30 21735 C 2304.32 -5.55375 -1.86963 0
M  V30 21736 N 2304.27 -4.09664 -2.15742 0
M  V30 21737 H 2307.11 -7.45574 -4.45629 0
M  V30 21738 H 2307.38 -5.86232 -3.67314 0
M  V30 21739 H 2306.51 -7.84412 -2.24479 0
M  V30 21740 P 2302.55 -8.7635 -1.60911 0
M  V30 21741 O 2302.33 -10.1388 -1.11561 0
M  V30 21742 O 2301.76 -8.36503 -2.79617 0
M  V30 21743 O 2302.3 -7.71806 -0.42951 0
M  V30 21744 C 2303.24 -7.67148 0.673689 0
M  V30 21745 C 2302.51 -7.33374 1.95559 0
M  V30 21746 O 2302.3 -5.88721 2.00726 0
M  V30 21747 C 2301.11 -7.92526 2.10483 0
M  V30 21748 O 2300.72 -8.02971 3.47653 0
M  V30 21749 C 2300.23 -6.89602 1.41652 0
M  V30 21750 C 2300.94 -5.59201 1.75185 0
M  V30 21751 N 2300.89 -4.58235 0.662552 0
M  V30 21752 H 2303.73 -8.65116 0.777161 0
M  V30 21753 H 2304 -6.90173 0.474152 0
M  V30 21754 H 2303.13 -7.66548 2.79458 0
M  V30 21755 P 2299.17 -8.03563 3.84925 0
M  V30 21756 O 2298.95 -8.85821 5.0569 0
M  V30 21757 O 2298.38 -8.41101 2.65469 0
M  V30 21758 O 2298.92 -6.4965 4.18908 0
M  V30 21759 C 2299.86 -5.81037 5.05421 0
M  V30 21760 C 2299.13 -4.78366 5.89277 0
M  V30 21761 O 2298.92 -3.58302 5.08433 0
M  V30 21762 C 2297.73 -5.17448 6.36119 0
M  V30 21763 O 2297.34 -4.45271 7.53232 0
M  V30 21764 C 2296.85 -4.74639 5.19936 0
M  V30 21765 C 2297.56 -3.49432 4.70418 0
M  V30 21766 N 2297.51 -3.31776 3.22945 0
M  V30 21767 H 2300.35 -6.54213 5.71376 0
M  V30 21768 H 2300.62 -5.30492 4.44033 0
M  V30 21769 H 2299.75 -4.55889 6.76652 0
M  V30 21770 P 2295.79 -4.23843 7.83734 0
M  V30 21771 O 2295.57 -4.19407 9.29784 0
M  V30 21772 O 2295 -5.24426 7.09156 0
M  V30 21773 O 2295.54 -2.7935 7.20758 0
M  V30 21774 C 2296.48 -1.7299 7.50419 0
M  V30 21775 C 2295.75 -0.406376 7.57911 0
M  V30 21776 O 2295.54 0.0897726 6.21935 0
M  V30 21777 C 2294.35 -0.447224 8.1878 0
M  V30 21778 O 2293.96 0.825065 8.71101 0
M  V30 21779 C 2293.47 -0.783801 6.99623 0
M  V30 21780 C 2294.18 -0.0619192 5.85967 0
M  V30 21781 N 2294.13 -0.7859 4.56281 0
M  V30 21782 H 2296.97 -1.93423 8.4679 0
M  V30 21783 H 2297.24 -1.68181 6.71046 0
M  V30 21784 H 2296.37 0.289041 8.15388 0
M  V30 21785 P 2292.41 1.17771 8.83182 0
M  V30 21786 O 2292.19 2.07206 9.98732 0
M  V30 21787 O 2291.62 -0.0743816 8.81969 0
M  V30 21788 O 2292.16 1.97652 7.47304 0
M  V30 21789 C 2293.1 3.01133 7.08783 0
M  V30 21790 C 2292.37 4.12613 6.37049 0
M  V30 21791 O 2292.16 3.72827 4.97879 0
M  V30 21792 C 2290.97 4.45085 6.88694 0
M  V30 21793 O 2290.58 5.7877 6.5624 0
M  V30 21794 C 2290.09 3.47817 6.12078 0
M  V30 21795 C 2290.8 3.39414 4.77697 0
M  V30 21796 N 2290.75 2.04615 4.15333 0
M  V30 21797 H 2293.59 3.41248 7.98759 0
M  V30 21798 H 2293.86 2.5837 6.41742 0
M  V30 21799 H 2292.99 5.02657 6.42673 0
M  V30 21800 P 2289.03 6.144 6.45285 0
M  V30 21801 O 2288.81 7.54673 6.86199 0
M  V30 21802 O 2288.24 5.12391 7.179 0
M  V30 21803 O 2288.78 5.99158 4.88404 0
M  V30 21804 C 2289.72 6.60234 3.96415 0
M  V30 21805 C 2288.99 7.08259 2.72856 0
M  V30 21806 O 2288.78 5.9427 1.83651 0
M  V30 21807 C 2287.59 7.64886 2.9555 0
M  V30 21808 O 2287.2 8.53963 1.90717 0
M  V30 21809 C 2286.71 6.4116 2.90739 0
M  V30 21810 C 2287.42 5.55375 1.86963 0
M  V30 21811 N 2287.37 4.09448 2.16152 0
M  V30 21812 H 2290.21 7.45574 4.45629 0
M  V30 21813 H 2290.48 5.85864 3.679 0
M  V30 21814 H 2289.61 7.84412 2.24479 0
M  V30 21815 H 2286.95 5.73457 0.888562 0
M  V30 21816 H 2286.67 5.90877 3.88583 0
M  V30 21817 H 2285.68 6.6596 2.58858 0
M  V30 21818 H 2287.52 8.16339 3.92049 0
M  V30 21819 P 2285.65 8.7635 1.60911 0
M  V30 21820 O 2285.43 10.1388 1.11561 0
M  V30 21821 O 2284.86 8.36503 2.79617 0
M  V30 21822 O 2285.4 7.71806 0.42951 0
M  V30 21823 C 2286.34 7.67148 -0.673689 0
M  V30 21824 C 2285.61 7.33374 -1.95559 0
M  V30 21825 O 2285.4 5.88721 -2.00726 0
M  V30 21826 C 2284.21 7.92526 -2.10483 0
M  V30 21827 O 2283.82 8.02971 -3.47653 0
M  V30 21828 C 2283.33 6.89602 -1.41652 0
M  V30 21829 C 2284.04 5.59201 -1.75185 0
M  V30 21830 N 2283.99 4.58235 -0.662552 0
M  V30 21831 H 2286.83 8.65116 -0.777161 0
M  V30 21832 H 2287.1 6.90173 -0.474152 0
M  V30 21833 H 2286.23 7.66548 -2.79458 0
M  V30 21834 P 2282.27 8.03563 -3.84925 0
M  V30 21835 O 2282.05 8.85821 -5.0569 0
M  V30 21836 O 2281.48 8.41101 -2.65469 0
M  V30 21837 O 2282.02 6.4965 -4.18908 0
M  V30 21838 C 2282.96 5.81037 -5.05421 0
M  V30 21839 C 2282.23 4.78366 -5.89277 0
M  V30 21840 O 2282.02 3.58302 -5.08433 0
M  V30 21841 C 2280.83 5.17448 -6.36119 0
M  V30 21842 O 2280.44 4.45271 -7.53232 0
M  V30 21843 C 2279.95 4.74639 -5.19936 0
M  V30 21844 C 2280.66 3.49432 -4.70418 0
M  V30 21845 N 2280.61 3.31776 -3.22945 0
M  V30 21846 H 2283.45 6.54213 -5.71376 0
M  V30 21847 H 2283.72 5.30492 -4.44033 0
M  V30 21848 H 2282.85 4.55889 -6.76652 0
M  V30 21849 P 2278.89 4.23843 -7.83734 0
M  V30 21850 O 2278.67 4.19407 -9.29784 0
M  V30 21851 O 2278.1 5.24426 -7.09156 0
M  V30 21852 O 2278.64 2.7935 -7.20758 0
M  V30 21853 C 2279.58 1.7299 -7.50419 0
M  V30 21854 C 2278.85 0.406376 -7.57911 0
M  V30 21855 O 2278.64 -0.0897726 -6.21935 0
M  V30 21856 C 2277.45 0.447224 -8.1878 0
M  V30 21857 O 2277.06 -0.825065 -8.71101 0
M  V30 21858 C 2276.57 0.783801 -6.99623 0
M  V30 21859 C 2277.28 0.0619192 -5.85967 0
M  V30 21860 N 2277.23 0.7859 -4.56281 0
M  V30 21861 H 2280.07 1.93423 -8.4679 0
M  V30 21862 H 2280.34 1.68181 -6.71046 0
M  V30 21863 H 2279.47 -0.289041 -8.15388 0
M  V30 21864 P 2275.51 -1.17771 -8.83182 0
M  V30 21865 O 2275.29 -2.07206 -9.98732 0
M  V30 21866 O 2274.72 0.0743816 -8.81969 0
M  V30 21867 O 2275.26 -1.97652 -7.47304 0
M  V30 21868 C 2276.2 -3.01133 -7.08783 0
M  V30 21869 C 2275.47 -4.12613 -6.37049 0
M  V30 21870 O 2275.26 -3.72827 -4.97879 0
M  V30 21871 C 2274.07 -4.45085 -6.88694 0
M  V30 21872 O 2273.68 -5.7877 -6.5624 0
M  V30 21873 C 2273.19 -3.47817 -6.12078 0
M  V30 21874 C 2273.9 -3.39414 -4.77697 0
M  V30 21875 N 2273.85 -2.04615 -4.15333 0
M  V30 21876 C 2273.93 -0.803897 -4.75249 0
M  V30 21877 N 2273.85 0.197615 -3.91502 0
M  V30 21878 C 2273.71 -0.413002 -2.66823 0
M  V30 21879 C 2273.58 0.157221 -1.38007 0
M  V30 21880 N 2273.46 -0.833136 -0.390236 0
M  V30 21881 C 2273.46 -2.19402 -0.623885 0
M  V30 21882 N 2273.33 -2.97622 0.449677 0
M  V30 21883 N 2273.59 -2.73005 -1.83601 0
M  V30 21884 C 2273.71 -1.78786 -2.80935 0
M  V30 21885 H 2276.69 -3.41248 -7.98759 0
M  V30 21886 H 2276.96 -2.5837 -6.41742 0
M  V30 21887 H 2276.09 -5.02657 -6.42673 0
M  V30 21888 P 2272.13 -6.144 -6.45285 0
M  V30 21889 O 2271.91 -7.54673 -6.86199 0
M  V30 21890 O 2271.34 -5.12391 -7.179 0
M  V30 21891 O 2271.88 -5.99158 -4.88404 0
M  V30 21892 C 2272.82 -6.60234 -3.96415 0
M  V30 21893 C 2272.09 -7.08259 -2.72856 0
M  V30 21894 O 2271.88 -5.9427 -1.83651 0
M  V30 21895 C 2270.69 -7.64886 -2.9555 0
M  V30 21896 O 2270.3 -8.53963 -1.90717 0
M  V30 21897 C 2269.81 -6.4116 -2.90739 0
M  V30 21898 C 2270.52 -5.55375 -1.86963 0
M  V30 21899 N 2270.47 -4.09664 -2.15742 0
M  V30 21900 H 2273.31 -7.45574 -4.45629 0
M  V30 21901 H 2273.58 -5.86232 -3.67314 0
M  V30 21902 H 2272.71 -7.84412 -2.24479 0
M  V30 21903 P 2268.75 -8.7635 -1.60911 0
M  V30 21904 O 2268.53 -10.1388 -1.11561 0
M  V30 21905 O 2267.96 -8.36503 -2.79617 0
M  V30 21906 O 2268.5 -7.71806 -0.42951 0
M  V30 21907 C 2269.44 -7.67148 0.673689 0
M  V30 21908 C 2268.71 -7.33374 1.95559 0
M  V30 21909 O 2268.5 -5.88721 2.00726 0
M  V30 21910 C 2267.31 -7.92526 2.10483 0
M  V30 21911 O 2266.92 -8.02971 3.47653 0
M  V30 21912 C 2266.43 -6.89602 1.41652 0
M  V30 21913 C 2267.14 -5.59201 1.75185 0
M  V30 21914 N 2267.09 -4.58235 0.662552 0
M  V30 21915 C 2267.17 -4.7683 -0.704049 0
M  V30 21916 N 2267.09 -3.66233 -1.39775 0
M  V30 21917 C 2266.95 -2.66526 -0.431739 0
M  V30 21918 C 2266.82 -1.26394 -0.575992 0
M  V30 21919 O 2266.8 -0.589894 -1.60503 0
M  V30 21920 N 2266.7 -0.62859 0.67177 0
M  V30 21921 C 2266.7 -1.27134 1.89385 0
M  V30 21922 N 2266.57 -0.492035 2.96951 0
M  V30 21923 N 2266.83 -2.58978 2.02907 0
M  V30 21924 C 2266.95 -3.22433 0.832218 0
M  V30 21925 H 2269.93 -8.65116 0.777161 0
M  V30 21926 H 2270.2 -6.90173 0.474152 0
M  V30 21927 H 2269.33 -7.66548 2.79458 0
M  V30 21928 H 2266.67 -5.16254 2.65229 0
M  V30 21929 H 2266.39 -7.06532 0.329431 0
M  V30 21930 H 2265.4 -6.91023 1.82047 0
M  V30 21931 H 2267.24 -8.90971 1.62675 0
M  V30 21932 H 2267.29 -5.74954 -1.16305 0
M  V30 21933 H 2266.6 0.366713 0.674793 0
M  V30 21934 H 2266.57 -0.908532 3.91188 0
M  V30 21935 H 2266.47 0.528253 2.85758 0
M  V30 21936 P 2265.37 -8.03563 3.84925 0
M  V30 21937 O 2265.15 -8.85821 5.0569 0
M  V30 21938 O 2264.58 -8.41101 2.65469 0
M  V30 21939 O 2265.12 -6.4965 4.18908 0
M  V30 21940 C 2266.06 -5.81037 5.05421 0
M  V30 21941 C 2265.33 -4.78366 5.89277 0
M  V30 21942 O 2265.12 -3.58302 5.08433 0
M  V30 21943 C 2263.93 -5.17448 6.36119 0
M  V30 21944 O 2263.54 -4.45271 7.53232 0
M  V30 21945 C 2263.05 -4.74639 5.19936 0
M  V30 21946 C 2263.76 -3.49432 4.70418 0
M  V30 21947 N 2263.71 -3.31776 3.22945 0
M  V30 21948 H 2266.55 -6.54213 5.71376 0
M  V30 21949 H 2266.82 -5.30492 4.44033 0
M  V30 21950 H 2265.95 -4.55889 6.76652 0
M  V30 21951 P 2261.99 -4.23843 7.83734 0
M  V30 21952 O 2261.77 -4.19407 9.29784 0
M  V30 21953 O 2261.2 -5.24426 7.09156 0
M  V30 21954 O 2261.74 -2.7935 7.20758 0
M  V30 21955 C 2262.68 -1.7299 7.50419 0
M  V30 21956 C 2261.95 -0.406376 7.57911 0
M  V30 21957 O 2261.74 0.0897726 6.21935 0
M  V30 21958 C 2260.55 -0.447224 8.1878 0
M  V30 21959 O 2260.16 0.825065 8.71101 0
M  V30 21960 C 2259.67 -0.783801 6.99623 0
M  V30 21961 C 2260.38 -0.0619192 5.85967 0
M  V30 21962 N 2260.33 -0.7859 4.56281 0
M  V30 21963 H 2263.17 -1.93423 8.4679 0
M  V30 21964 H 2263.44 -1.68181 6.71046 0
M  V30 21965 H 2262.57 0.289041 8.15388 0
M  V30 21966 P 2258.61 1.17771 8.83182 0
M  V30 21967 O 2258.39 2.07206 9.98732 0
M  V30 21968 O 2257.82 -0.0743816 8.81969 0
M  V30 21969 O 2258.36 1.97652 7.47304 0
M  V30 21970 C 2259.3 3.01055 7.08599 0
M  V30 21971 C 2258.57 4.12613 6.37049 0
M  V30 21972 O 2258.36 3.72827 4.97879 0
M  V30 21973 C 2257.17 4.45719 6.88164 0
M  V30 21974 O 2256.78 5.7877 6.5624 0
M  V30 21975 C 2256.29 3.47768 6.11991 0
M  V30 21976 C 2257 3.39356 4.77615 0
M  V30 21977 N 2256.95 2.04571 4.15244 0
M  V30 21978 C 2256.8 1.98587 2.78314 0
M  V30 21979 O 2256.71 2.98134 2.08835 0
M  V30 21980 N 2256.76 0.714467 2.24925 0
M  V30 21981 C 2256.85 -0.470001 2.94169 0
M  V30 21982 C 2257 -0.312541 4.36783 0
M  V30 21983 C 2257.05 0.914512 4.92583 0
M  V30 21984 H 2259.79 3.41169 7.98575 0
M  V30 21985 H 2260.06 2.58295 6.41556 0
M  V30 21986 H 2259.19 5.02657 6.42673 0
M  V30 21987 H 2256.53 4.11637 4.08885 0
M  V30 21988 H 2256.26 2.49626 6.61679 0
M  V30 21989 H 2255.26 3.86566 6.00778 0
M  V30 21990 H 2257.1 4.29943 7.96918 0
M  V30 21991 H 2257.17 1.00937 6.00374 0
M  V30 21992 P 2255.23 6.144 6.45285 0
M  V30 21993 O 2255.01 7.54673 6.86199 0
M  V30 21994 O 2254.44 5.12391 7.179 0
M  V30 21995 O 2254.98 5.99158 4.88404 0
M  V30 21996 C 2255.92 6.60234 3.96415 0
M  V30 21997 C 2255.19 7.08259 2.72856 0
M  V30 21998 O 2254.98 5.9427 1.83651 0
M  V30 21999 C 2253.79 7.64886 2.9555 0
M  V30 22000 O 2253.4 8.53963 1.90717 0
M  V30 22001 C 2252.91 6.4116 2.90739 0
M  V30 22002 C 2253.62 5.55375 1.86963 0
M  V30 22003 N 2253.57 4.09664 2.15742 0
M  V30 22004 H 2256.41 7.45574 4.45629 0
M  V30 22005 H 2256.68 5.86232 3.67314 0
M  V30 22006 H 2255.81 7.84412 2.24479 0
M  V30 22007 P 2251.85 8.7635 1.60911 0
M  V30 22008 O 2251.63 10.1388 1.11561 0
M  V30 22009 O 2251.06 8.36503 2.79617 0
M  V30 22010 O 2251.6 7.71906 0.429565 0
M  V30 22011 C 2252.54 7.67148 -0.673689 0
M  V30 22012 C 2251.81 7.33666 -1.94851 0
M  V30 22013 O 2251.6 5.88816 -2.00759 0
M  V30 22014 C 2250.41 7.92526 -2.10483 0
M  V30 22015 O 2250.02 8.03063 -3.47693 0
M  V30 22016 C 2249.53 6.89602 -1.41652 0
M  V30 22017 C 2250.24 5.59201 -1.75185 0
M  V30 22018 N 2250.19 4.58235 -0.662552 0
M  V30 22019 C 2250.04 3.24451 -1.01643 0
M  V30 22020 O 2249.95 2.94958 -2.21722 0
M  V30 22021 N 2249.99 2.30408 0.165238 0
M  V30 22022 C 2250.09 2.66048 1.25118 0
M  V30 22023 N 2250.04 1.70787 2.16813 0
M  V30 22024 C 2250.24 4.02732 1.64413 0
M  V30 22025 C 2250.29 4.9488 0.63991 0
M  V30 22026 H 2253.03 8.65017 -0.777072 0
M  V30 22027 H 2253.3 6.90173 -0.474152 0
M  V30 22028 H 2252.43 7.66642 -2.79492 0
M  V30 22029 H 2249.77 5.16254 -2.65229 0
M  V30 22030 H 2249.49 7.06532 -0.329431 0
M  V30 22031 H 2248.5 6.91023 -1.82047 0
M  V30 22032 H 2250.34 8.90873 -1.62657 0
M  V30 22033 H 2250.41 6.00104 0.892197 0
M  V30 22034 H 2250.31 4.31733 2.69229 0
M  V30 22035 H 2249.92 0.724835 1.8844 0
M  V30 22036 H 2250.12 1.94716 3.16734 0
M  V30 22037 P 2248.47 8.03563 -3.84925 0
M  V30 22038 O 2248.25 8.85821 -5.0569 0
M  V30 22039 O 2247.68 8.41101 -2.65469 0
M  V30 22040 O 2248.22 6.4965 -4.18908 0
M  V30 22041 C 2249.16 5.80886 -5.05289 0
M  V30 22042 C 2248.43 4.78366 -5.89277 0
M  V30 22043 O 2248.22 3.58302 -5.08433 0
M  V30 22044 C 2247.03 5.16748 -6.36559 0
M  V30 22045 O 2246.64 4.45271 -7.53232 0
M  V30 22046 C 2246.15 4.74572 -5.19863 0
M  V30 22047 C 2246.86 3.49373 -4.70338 0
M  V30 22048 N 2246.81 3.31704 -3.22876 0
M  V30 22049 C 2246.66 2.03326 -2.74871 0
M  V30 22050 O 2246.57 1.06486 -3.48076 0
M  V30 22051 N 2246.62 1.91838 -1.37456 0
M  V30 22052 C 2246.71 2.94295 -0.462035 0
M  V30 22053 C 2246.86 4.25064 -1.05249 0
M  V30 22054 C 2246.91 4.40214 -2.39192 0
M  V30 22055 H 2249.65 6.54063 -5.71245 0
M  V30 22056 H 2249.92 5.30339 -4.43905 0
M  V30 22057 H 2249.05 4.55889 -6.76652 0
M  V30 22058 H 2246.39 2.6167 -5.17842 0
M  V30 22059 H 2246.12 5.52155 -4.41878 0
M  V30 22060 H 2245.12 4.51918 -5.53297 0
M  V30 22061 H 2246.96 6.25055 -6.55162 0
M  V30 22062 H 2247.03 5.39798 -2.81523 0
M  V30 22063 P 2245.09 4.23843 -7.83734 0
M  V30 22064 O 2244.87 4.19407 -9.29784 0
M  V30 22065 O 2244.3 5.24426 -7.09156 0
M  V30 22066 O 2244.84 2.7935 -7.20758 0
M  V30 22067 C 2245.78 1.7299 -7.50419 0
M  V30 22068 C 2245.05 0.406376 -7.57911 0
M  V30 22069 O 2244.84 -0.0897726 -6.21935 0
M  V30 22070 C 2243.65 0.447224 -8.1878 0
M  V30 22071 O 2243.26 -0.825065 -8.71101 0
M  V30 22072 C 2242.77 0.783801 -6.99623 0
M  V30 22073 C 2243.48 0.0619192 -5.85967 0
M  V30 22074 N 2243.43 0.790462 -4.56202 0
M  V30 22075 H 2246.27 1.93423 -8.4679 0
M  V30 22076 H 2246.54 1.68852 -6.70877 0
M  V30 22077 H 2245.67 -0.289041 -8.15388 0
M  V30 22078 H 2243.01 -0.927006 -5.72848 0
M  V30 22079 H 2242.73 1.86973 -6.82036 0
M  V30 22080 H 2241.74 0.403953 -7.13357 0
M  V30 22081 H 2243.58 1.20599 -8.97534 0
M  V30 22082 P 2241.71 -1.17771 -8.83182 0
M  V30 22083 O 2241.49 -2.07206 -9.98732 0
M  V30 22084 O 2240.92 0.0743816 -8.81969 0
M  V30 22085 O 2241.46 -1.97652 -7.47304 0
M  V30 22086 C 2242.4 -3.01133 -7.08783 0
M  V30 22087 C 2241.67 -4.12613 -6.37049 0
M  V30 22088 O 2241.46 -3.72827 -4.97879 0
M  V30 22089 C 2240.27 -4.45085 -6.88694 0
M  V30 22090 O 2239.88 -5.7877 -6.5624 0
M  V30 22091 C 2239.39 -3.47817 -6.12078 0
M  V30 22092 C 2240.1 -3.39414 -4.77697 0
M  V30 22093 N 2240.05 -2.04615 -4.15333 0
M  V30 22094 H 2242.89 -3.41248 -7.98759 0
M  V30 22095 H 2243.16 -2.5837 -6.41742 0
M  V30 22096 H 2242.29 -5.02657 -6.42673 0
M  V30 22097 P 2238.33 -6.144 -6.45285 0
M  V30 22098 O 2238.11 -7.54673 -6.86199 0
M  V30 22099 O 2237.54 -5.12391 -7.179 0
M  V30 22100 O 2238.08 -5.99158 -4.88404 0
M  V30 22101 C 2239.02 -6.60062 -3.96313 0
M  V30 22102 C 2238.29 -7.08259 -2.72856 0
M  V30 22103 O 2238.08 -5.9427 -1.83651 0
M  V30 22104 C 2236.89 -7.65087 -2.94749 0
M  V30 22105 O 2236.5 -8.53963 -1.90717 0
M  V30 22106 C 2236.01 -6.41069 -2.90698 0
M  V30 22107 C 2236.72 -5.5528 -1.86931 0
M  V30 22108 N 2236.67 -4.09575 -2.15696 0
M  V30 22109 C 2236.52 -3.24249 -1.08435 0
M  V30 22110 O 2236.43 -3.63946 0.0628747 0
M  V30 22111 N 2236.48 -1.90009 -1.39973 0
M  V30 22112 C 2236.57 -1.34884 -2.65614 0
M  V30 22113 O 2236.52 -0.123716 -2.81728 0
M  V30 22114 C 2236.72 -2.3145 -3.71736 0
M  V30 22115 C 2236.83 -1.75913 -5.10438 0
M  V30 22116 C 2236.77 -3.63518 -3.44754 0
M  V30 22117 H 2239.51 -7.45402 -4.45526 0
M  V30 22118 H 2239.78 -5.86062 -3.67208 0
M  V30 22119 H 2238.91 -7.84412 -2.24479 0
M  V30 22120 H 2236.25 -5.73358 -0.888409 0
M  V30 22121 H 2235.98 -5.90877 -3.88583 0
M  V30 22122 H 2234.98 -6.65867 -2.58821 0
M  V30 22123 H 2236.82 -8.16248 -3.92006 0
M  V30 22124 H 2236.89 -4.34551 -4.26383 0
M  V30 22125 H 2235.86 -1.85471 -5.61775 0
M  V30 22126 H 2237.6 -2.31364 -5.66257 0
M  V30 22127 H 2237.11 -0.695936 -5.05229 0
M  V30 22128 H 2236.37 -1.26277 -0.63625 0
M  V30 22129 P 2234.95 -8.7635 -1.60911 0
M  V30 22130 O 2234.73 -10.1388 -1.11561 0
M  V30 22131 O 2234.16 -8.36503 -2.79617 0
M  V30 22132 O 2234.7 -7.71806 -0.42951 0
M  V30 22133 C 2235.64 -7.67148 0.673689 0
M  V30 22134 C 2234.91 -7.33374 1.95559 0
M  V30 22135 O 2234.7 -5.88721 2.00726 0
M  V30 22136 C 2233.51 -7.92526 2.10483 0
M  V30 22137 O 2233.12 -8.02971 3.47653 0
M  V30 22138 C 2232.63 -6.89602 1.41652 0
M  V30 22139 C 2233.34 -5.59201 1.75185 0
M  V30 22140 N 2233.29 -4.58235 0.662552 0
M  V30 22141 H 2236.13 -8.65116 0.777161 0
M  V30 22142 H 2236.4 -6.90173 0.474152 0
M  V30 22143 H 2235.53 -7.66548 2.79458 0
M  V30 22144 P 2231.57 -8.03563 3.84925 0
M  V30 22145 O 2231.35 -8.85821 5.0569 0
M  V30 22146 O 2230.78 -8.41101 2.65469 0
M  V30 22147 O 2231.32 -6.4965 4.18908 0
M  V30 22148 C 2232.26 -5.81037 5.05421 0
M  V30 22149 C 2231.53 -4.78366 5.89277 0
M  V30 22150 O 2231.32 -3.58302 5.08433 0
M  V30 22151 C 2230.13 -5.17448 6.36119 0
M  V30 22152 O 2229.74 -4.45271 7.53232 0
M  V30 22153 C 2229.25 -4.74639 5.19936 0
M  V30 22154 C 2229.96 -3.49432 4.70418 0
M  V30 22155 N 2229.91 -3.31776 3.22945 0
M  V30 22156 H 2232.75 -6.54213 5.71376 0
M  V30 22157 H 2233.02 -5.30492 4.44033 0
M  V30 22158 H 2232.15 -4.55889 6.76652 0
M  V30 22159 P 2228.19 -4.23843 7.83734 0
M  V30 22160 O 2227.97 -4.19407 9.29784 0
M  V30 22161 O 2227.4 -5.24426 7.09156 0
M  V30 22162 O 2227.94 -2.7935 7.20758 0
M  V30 22163 C 2228.88 -1.7299 7.50419 0
M  V30 22164 C 2228.15 -0.406376 7.57911 0
M  V30 22165 O 2227.94 0.0897726 6.21935 0
M  V30 22166 C 2226.75 -0.447224 8.1878 0
M  V30 22167 O 2226.36 0.825065 8.71101 0
M  V30 22168 C 2225.87 -0.783801 6.99623 0
M  V30 22169 C 2226.58 -0.0619192 5.85967 0
M  V30 22170 N 2226.53 -0.7859 4.56281 0
M  V30 22171 H 2229.37 -1.93423 8.4679 0
M  V30 22172 H 2229.64 -1.68181 6.71046 0
M  V30 22173 H 2228.77 0.289041 8.15388 0
M  V30 22174 P 2224.81 1.17771 8.83182 0
M  V30 22175 O 2224.59 2.07206 9.98732 0
M  V30 22176 O 2224.02 -0.0743816 8.81969 0
M  V30 22177 O 2224.56 1.97652 7.47304 0
M  V30 22178 C 2225.5 3.01055 7.08599 0
M  V30 22179 C 2224.77 4.12613 6.37049 0
M  V30 22180 O 2224.56 3.72827 4.97879 0
M  V30 22181 C 2223.37 4.45719 6.88164 0
M  V30 22182 O 2222.98 5.7877 6.5624 0
M  V30 22183 C 2222.49 3.47768 6.11991 0
M  V30 22184 C 2223.2 3.39356 4.77615 0
M  V30 22185 N 2223.15 2.04571 4.15244 0
M  V30 22186 C 2223 1.98587 2.78314 0
M  V30 22187 O 2222.91 2.98134 2.08835 0
M  V30 22188 N 2222.96 0.714467 2.24925 0
M  V30 22189 C 2223.05 -0.470001 2.94169 0
M  V30 22190 C 2223.2 -0.312541 4.36783 0
M  V30 22191 C 2223.25 0.914512 4.92583 0
M  V30 22192 H 2225.99 3.41169 7.98575 0
M  V30 22193 H 2226.26 2.58295 6.41556 0
M  V30 22194 H 2225.39 5.02657 6.42673 0
M  V30 22195 H 2222.73 4.11637 4.08885 0
M  V30 22196 H 2222.46 2.49626 6.61679 0
M  V30 22197 H 2221.46 3.86566 6.00778 0
M  V30 22198 H 2223.3 4.29943 7.96918 0
M  V30 22199 H 2223.37 1.00937 6.00374 0
M  V30 22200 P 2221.43 6.144 6.45285 0
M  V30 22201 O 2221.21 7.54673 6.86199 0
M  V30 22202 O 2220.64 5.12391 7.179 0
M  V30 22203 O 2221.18 5.99158 4.88404 0
M  V30 22204 C 2222.12 6.60234 3.96415 0
M  V30 22205 C 2221.39 7.08259 2.72856 0
M  V30 22206 O 2221.18 5.9427 1.83651 0
M  V30 22207 C 2219.99 7.64886 2.9555 0
M  V30 22208 O 2219.6 8.53963 1.90717 0
M  V30 22209 C 2219.11 6.4116 2.90739 0
M  V30 22210 C 2219.82 5.55375 1.86963 0
M  V30 22211 N 2219.77 4.09664 2.15742 0
M  V30 22212 H 2222.61 7.45574 4.45629 0
M  V30 22213 H 2222.88 5.86232 3.67314 0
M  V30 22214 H 2222.01 7.84412 2.24479 0
M  V30 22215 P 2218.05 8.7635 1.60911 0
M  V30 22216 O 2217.83 10.1388 1.11561 0
M  V30 22217 O 2217.26 8.36503 2.79617 0
M  V30 22218 O 2217.8 7.71806 0.42951 0
M  V30 22219 C 2218.74 7.66948 -0.673514 0
M  V30 22220 C 2218.01 7.33374 -1.95559 0
M  V30 22221 O 2217.8 5.88721 -2.00726 0
M  V30 22222 C 2216.61 7.92218 -2.1125 0
M  V30 22223 O 2216.22 8.02971 -3.47653 0
M  V30 22224 C 2215.73 6.89504 -1.41631 0
M  V30 22225 C 2216.44 5.59106 -1.75155 0
M  V30 22226 N 2216.39 4.58136 -0.662409 0
M  V30 22227 C 2216.24 3.26059 -1.02863 0
M  V30 22228 O 2216.15 2.90743 -2.19009 0
M  V30 22229 N 2216.2 2.35995 0.0155585 0
M  V30 22230 C 2216.29 2.65248 1.35603 0
M  V30 22231 C 2216.44 4.05747 1.64698 0
M  V30 22232 C 2216.49 4.96734 0.652411 0
M  V30 22233 H 2219.23 8.64917 -0.776982 0
M  V30 22234 H 2219.5 6.89974 -0.474015 0
M  V30 22235 H 2218.63 7.66548 -2.79458 0
M  V30 22236 H 2215.97 5.16076 -2.65138 0
M  V30 22237 H 2215.7 7.06433 -0.329384 0
M  V30 22238 H 2214.7 6.90829 -1.81996 0
M  V30 22239 H 2216.54 8.90774 -1.62639 0
M  V30 22240 H 2216.61 6.02181 0.895285 0
M  V30 22241 P 2214.67 8.03563 -3.84925 0
M  V30 22242 O 2214.45 8.85821 -5.0569 0
M  V30 22243 O 2213.88 8.41101 -2.65469 0
M  V30 22244 O 2214.42 6.4965 -4.18908 0
M  V30 22245 C 2215.36 5.80886 -5.05289 0
M  V30 22246 C 2214.63 4.78366 -5.89277 0
M  V30 22247 O 2214.42 3.58302 -5.08433 0
M  V30 22248 C 2213.23 5.16748 -6.36559 0
M  V30 22249 O 2212.84 4.45271 -7.53232 0
M  V30 22250 C 2212.35 4.74572 -5.19863 0
M  V30 22251 C 2213.06 3.49373 -4.70338 0
M  V30 22252 N 2213.01 3.31704 -3.22876 0
M  V30 22253 C 2212.86 2.03326 -2.74871 0
M  V30 22254 O 2212.77 1.06486 -3.48076 0
M  V30 22255 N 2212.82 1.91838 -1.37456 0
M  V30 22256 C 2212.91 2.94295 -0.462035 0
M  V30 22257 O 2212.86 2.71763 0.752928 0
M  V30 22258 C 2213.06 4.25064 -1.05249 0
M  V30 22259 C 2213.17 5.39815 -0.095697 0
M  V30 22260 C 2213.11 4.40214 -2.39192 0
M  V30 22261 H 2215.85 6.54063 -5.71245 0
M  V30 22262 H 2216.12 5.30339 -4.43905 0
M  V30 22263 H 2215.25 4.55889 -6.76652 0
M  V30 22264 H 2212.59 2.6167 -5.17842 0
M  V30 22265 H 2212.32 5.52155 -4.41878 0
M  V30 22266 H 2211.32 4.51918 -5.53297 0
M  V30 22267 H 2213.16 6.25055 -6.55162 0
M  V30 22268 H 2213.23 5.39798 -2.81523 0
M  V30 22269 H 2212.2 5.91593 -0.0279582 0
M  V30 22270 H 2213.94 6.10038 -0.450573 0
M  V30 22271 H 2213.45 5.02007 0.89937 0
M  V30 22272 H 2212.71 0.995326 -1.00435 0
M  V30 22273 P 2211.29 4.23843 -7.83734 0
M  V30 22274 O 2211.07 4.19407 -9.29784 0
M  V30 22275 O 2210.5 5.24426 -7.09156 0
M  V30 22276 O 2211.04 2.7935 -7.20758 0
M  V30 22277 C 2211.98 1.7299 -7.50419 0
M  V30 22278 C 2211.25 0.406376 -7.57911 0
M  V30 22279 O 2211.04 -0.0897726 -6.21935 0
M  V30 22280 C 2209.85 0.447224 -8.1878 0
M  V30 22281 O 2209.46 -0.825065 -8.71101 0
M  V30 22282 C 2208.97 0.783801 -6.99623 0
M  V30 22283 C 2209.68 0.0619192 -5.85967 0
M  V30 22284 N 2209.63 0.7859 -4.56281 0
M  V30 22285 H 2212.47 1.93423 -8.4679 0
M  V30 22286 H 2212.74 1.68181 -6.71046 0
M  V30 22287 H 2211.87 -0.289041 -8.15388 0
M  V30 22288 P 2207.91 -1.17771 -8.83182 0
M  V30 22289 O 2207.69 -2.07206 -9.98732 0
M  V30 22290 O 2207.12 0.0743816 -8.81969 0
M  V30 22291 O 2207.66 -1.97652 -7.47304 0
M  V30 22292 C 2208.6 -3.01133 -7.08783 0
M  V30 22293 C 2207.87 -4.12613 -6.37049 0
M  V30 22294 O 2207.66 -3.72827 -4.97879 0
M  V30 22295 C 2206.47 -4.45085 -6.88694 0
M  V30 22296 O 2206.08 -5.7877 -6.5624 0
M  V30 22297 C 2205.59 -3.47817 -6.12078 0
M  V30 22298 C 2206.3 -3.39414 -4.77697 0
M  V30 22299 N 2206.25 -2.04199 -4.15538 0
M  V30 22300 H 2209.09 -3.41248 -7.98759 0
M  V30 22301 H 2209.36 -2.57728 -6.42 0
M  V30 22302 H 2208.49 -5.02657 -6.42673 0
M  V30 22303 H 2205.83 -4.11708 -4.08956 0
M  V30 22304 H 2205.55 -2.49626 -6.61679 0
M  V30 22305 H 2204.56 -3.8662 -6.00862 0
M  V30 22306 H 2206.4 -4.29991 -7.97006 0
M  V30 22307 P 2204.53 -6.144 -6.45285 0
M  V30 22308 O 2204.31 -7.54673 -6.86199 0
M  V30 22309 O 2203.74 -5.12391 -7.179 0
M  V30 22310 O 2204.28 -5.99158 -4.88404 0
M  V30 22311 C 2205.22 -6.60234 -3.96415 0
M  V30 22312 C 2204.49 -7.08259 -2.72856 0
M  V30 22313 O 2204.28 -5.9427 -1.83651 0
M  V30 22314 C 2203.09 -7.64886 -2.9555 0
M  V30 22315 O 2202.7 -8.53963 -1.90717 0
M  V30 22316 C 2202.21 -6.4116 -2.90739 0
M  V30 22317 C 2202.92 -5.55375 -1.86963 0
M  V30 22318 N 2202.87 -4.09448 -2.16152 0
M  V30 22319 H 2205.71 -7.45574 -4.45629 0
M  V30 22320 H 2205.98 -5.85864 -3.679 0
M  V30 22321 H 2205.11 -7.84412 -2.24479 0
M  V30 22322 H 2202.45 -5.73457 -0.888562 0
M  V30 22323 H 2202.17 -5.90877 -3.88583 0
M  V30 22324 H 2201.18 -6.6596 -2.58858 0
M  V30 22325 H 2203.02 -8.16339 -3.92049 0
M  V30 22326 P 2201.15 -8.7635 -1.60911 0
M  V30 22327 O 2200.93 -10.1388 -1.11561 0
M  V30 22328 O 2200.36 -8.36503 -2.79617 0
M  V30 22329 O 2200.9 -7.71806 -0.42951 0
M  V30 22330 C 2201.84 -7.67148 0.673689 0
M  V30 22331 C 2201.11 -7.33374 1.95559 0
M  V30 22332 O 2200.9 -5.88721 2.00726 0
M  V30 22333 C 2199.71 -7.92526 2.10483 0
M  V30 22334 O 2199.32 -8.02971 3.47653 0
M  V30 22335 C 2198.83 -6.89602 1.41652 0
M  V30 22336 C 2199.54 -5.59201 1.75185 0
M  V30 22337 N 2199.49 -4.58235 0.662552 0
M  V30 22338 H 2202.33 -8.65116 0.777161 0
M  V30 22339 H 2202.6 -6.90173 0.474152 0
M  V30 22340 H 2201.73 -7.66548 2.79458 0
M  V30 22341 P 2197.77 -8.03563 3.84925 0
M  V30 22342 O 2197.55 -8.85821 5.0569 0
M  V30 22343 O 2196.98 -8.41101 2.65469 0
M  V30 22344 O 2197.52 -6.4965 4.18908 0
M  V30 22345 C 2198.46 -5.81037 5.05421 0
M  V30 22346 C 2197.73 -4.78366 5.89277 0
M  V30 22347 O 2197.52 -3.58302 5.08433 0
M  V30 22348 C 2196.33 -5.17448 6.36119 0
M  V30 22349 O 2195.94 -4.45271 7.53232 0
M  V30 22350 C 2195.45 -4.74639 5.19936 0
M  V30 22351 C 2196.16 -3.49432 4.70418 0
M  V30 22352 N 2196.11 -3.31776 3.22945 0
M  V30 22353 H 2198.95 -6.54213 5.71376 0
M  V30 22354 H 2199.22 -5.30492 4.44033 0
M  V30 22355 H 2198.35 -4.55889 6.76652 0
M  V30 22356 P 2194.39 -4.23843 7.83734 0
M  V30 22357 O 2194.17 -4.19407 9.29784 0
M  V30 22358 O 2193.6 -5.24426 7.09156 0
M  V30 22359 O 2194.14 -2.7935 7.20758 0
M  V30 22360 C 2195.08 -1.7299 7.50419 0
M  V30 22361 C 2194.35 -0.406376 7.57911 0
M  V30 22362 O 2194.14 0.0897726 6.21935 0
M  V30 22363 C 2192.95 -0.447224 8.1878 0
M  V30 22364 O 2192.56 0.825065 8.71101 0
M  V30 22365 C 2192.07 -0.783801 6.99623 0
M  V30 22366 C 2192.78 -0.0619192 5.85967 0
M  V30 22367 N 2192.73 -0.790462 4.56202 0
M  V30 22368 H 2195.57 -1.93423 8.4679 0
M  V30 22369 H 2195.84 -1.68852 6.70877 0
M  V30 22370 H 2194.97 0.289041 8.15388 0
M  V30 22371 H 2192.32 0.927006 5.72848 0
M  V30 22372 H 2192.04 -1.86973 6.82036 0
M  V30 22373 H 2191.04 -0.403953 7.13357 0
M  V30 22374 H 2192.88 -1.20599 8.97534 0
M  V30 22375 P 2191.01 1.17771 8.83182 0
M  V30 22376 O 2190.79 2.07206 9.98732 0
M  V30 22377 O 2190.22 -0.0743816 8.81969 0
M  V30 22378 O 2190.76 1.97652 7.47304 0
M  V30 22379 C 2191.7 3.01133 7.08783 0
M  V30 22380 C 2190.97 4.12613 6.37049 0
M  V30 22381 O 2190.76 3.72827 4.97879 0
M  V30 22382 C 2189.57 4.45085 6.88694 0
M  V30 22383 O 2189.18 5.7877 6.5624 0
M  V30 22384 C 2188.69 3.47817 6.12078 0
M  V30 22385 C 2189.4 3.39414 4.77697 0
M  V30 22386 N 2189.35 2.04615 4.15333 0
M  V30 22387 H 2192.19 3.41248 7.98759 0
M  V30 22388 H 2192.46 2.5837 6.41742 0
M  V30 22389 H 2191.59 5.02657 6.42673 0
M  V30 22390 P 2187.63 6.144 6.45285 0
M  V30 22391 O 2187.41 7.54673 6.86199 0
M  V30 22392 O 2186.84 5.12391 7.179 0
M  V30 22393 O 2187.38 5.99158 4.88404 0
M  V30 22394 C 2188.32 6.60234 3.96415 0
M  V30 22395 C 2187.59 7.08259 2.72856 0
M  V30 22396 O 2187.38 5.9427 1.83651 0
M  V30 22397 C 2186.19 7.64886 2.9555 0
M  V30 22398 O 2185.8 8.53963 1.90717 0
M  V30 22399 C 2185.31 6.4116 2.90739 0
M  V30 22400 C 2186.02 5.55375 1.86963 0
M  V30 22401 N 2185.97 4.09664 2.15742 0
M  V30 22402 H 2188.81 7.45574 4.45629 0
M  V30 22403 H 2189.08 5.86232 3.67314 0
M  V30 22404 H 2188.21 7.84412 2.24479 0
M  V30 22405 P 2184.25 8.7635 1.60911 0
M  V30 22406 O 2184.03 10.1388 1.11561 0
M  V30 22407 O 2183.46 8.36503 2.79617 0
M  V30 22408 O 2184 7.71806 0.42951 0
M  V30 22409 C 2184.94 7.67148 -0.673689 0
M  V30 22410 C 2184.21 7.33374 -1.95559 0
M  V30 22411 O 2184 5.88721 -2.00726 0
M  V30 22412 C 2182.81 7.92526 -2.10483 0
M  V30 22413 O 2182.42 8.02971 -3.47653 0
M  V30 22414 C 2181.93 6.89602 -1.41652 0
M  V30 22415 C 2182.64 5.59201 -1.75185 0
M  V30 22416 N 2182.59 4.58235 -0.662552 0
M  V30 22417 H 2185.43 8.65116 -0.777161 0
M  V30 22418 H 2185.7 6.90173 -0.474152 0
M  V30 22419 H 2184.83 7.66548 -2.79458 0
M  V30 22420 P 2180.87 8.03563 -3.84925 0
M  V30 22421 O 2180.65 8.85821 -5.0569 0
M  V30 22422 O 2180.08 8.41101 -2.65469 0
M  V30 22423 O 2180.62 6.4965 -4.18908 0
M  V30 22424 C 2181.56 5.81037 -5.05421 0
M  V30 22425 C 2180.83 4.78366 -5.89277 0
M  V30 22426 O 2180.62 3.58302 -5.08433 0
M  V30 22427 C 2179.43 5.17448 -6.36119 0
M  V30 22428 O 2179.04 4.45271 -7.53232 0
M  V30 22429 C 2178.55 4.74639 -5.19936 0
M  V30 22430 C 2179.26 3.49432 -4.70418 0
M  V30 22431 N 2179.21 3.31776 -3.22945 0
M  V30 22432 H 2182.05 6.54213 -5.71376 0
M  V30 22433 H 2182.32 5.30492 -4.44033 0
M  V30 22434 H 2181.45 4.55889 -6.76652 0
M  V30 22435 P 2177.49 4.23843 -7.83734 0
M  V30 22436 O 2177.27 4.19407 -9.29784 0
M  V30 22437 O 2176.7 5.24426 -7.09156 0
M  V30 22438 O 2177.24 2.7935 -7.20758 0
M  V30 22439 C 2178.18 1.7299 -7.50419 0
M  V30 22440 C 2177.45 0.406376 -7.57911 0
M  V30 22441 O 2177.24 -0.0897726 -6.21935 0
M  V30 22442 C 2176.05 0.447224 -8.1878 0
M  V30 22443 O 2175.66 -0.825065 -8.71101 0
M  V30 22444 C 2175.17 0.783801 -6.99623 0
M  V30 22445 C 2175.88 0.0619192 -5.85967 0
M  V30 22446 N 2175.83 0.790462 -4.56202 0
M  V30 22447 C 2175.91 2.13895 -4.34171 0
M  V30 22448 N 2175.84 2.46449 -3.08687 0
M  V30 22449 C 2175.69 1.2525 -2.43697 0
M  V30 22450 C 2175.56 0.914535 -1.07318 0
M  V30 22451 N 2175.55 1.80782 -0.0887348 0
M  V30 22452 N 2175.44 -0.386745 -0.768133 0
M  V30 22453 C 2175.45 -1.28096 -1.75159 0
M  V30 22454 N 2175.57 -1.09708 -3.04861 0
M  V30 22455 C 2175.69 0.214857 -3.32306 0
M  V30 22456 H 2178.67 1.93423 -8.4679 0
M  V30 22457 H 2178.94 1.68852 -6.70877 0
M  V30 22458 H 2178.07 -0.289041 -8.15388 0
M  V30 22459 H 2175.42 -0.927006 -5.72848 0
M  V30 22460 H 2175.14 1.86973 -6.82036 0
M  V30 22461 H 2174.14 0.403953 -7.13357 0
M  V30 22462 H 2175.98 1.20599 -8.97534 0
M  V30 22463 H 2176.02 2.86846 -5.14318 0
M  V30 22464 H 2175.64 2.81082 -0.302037 0
M  V30 22465 H 2175.45 1.49688 0.889064 0
M  V30 22466 H 2175.34 -2.31317 -1.43855 0
M  V30 22467 P 2174.11 -1.17771 -8.83182 0
M  V30 22468 O 2173.89 -2.07206 -9.98732 0
M  V30 22469 O 2173.32 0.0743816 -8.81969 0
M  V30 22470 O 2173.86 -1.97652 -7.47304 0
M  V30 22471 C 2174.8 -3.01133 -7.08783 0
M  V30 22472 C 2174.07 -4.12613 -6.37049 0
M  V30 22473 O 2173.86 -3.72827 -4.97879 0
M  V30 22474 C 2172.67 -4.45085 -6.88694 0
M  V30 22475 O 2172.28 -5.7877 -6.5624 0
M  V30 22476 C 2171.79 -3.47817 -6.12078 0
M  V30 22477 C 2172.5 -3.39414 -4.77697 0
M  V30 22478 N 2172.45 -2.04199 -4.15538 0
M  V30 22479 H 2175.29 -3.41248 -7.98759 0
M  V30 22480 H 2175.56 -2.57728 -6.42 0
M  V30 22481 H 2174.69 -5.02657 -6.42673 0
M  V30 22482 H 2172.04 -4.11708 -4.08956 0
M  V30 22483 H 2171.76 -2.49626 -6.61679 0
M  V30 22484 H 2170.76 -3.8662 -6.00862 0
M  V30 22485 H 2172.6 -4.29991 -7.97006 0
M  V30 22486 P 2170.73 -6.144 -6.45285 0
M  V30 22487 O 2170.51 -7.54673 -6.86199 0
M  V30 22488 O 2169.94 -5.12391 -7.179 0
M  V30 22489 O 2170.48 -5.99158 -4.88404 0
M  V30 22490 C 2171.42 -6.60062 -3.96313 0
M  V30 22491 C 2170.69 -7.08259 -2.72856 0
M  V30 22492 O 2170.48 -5.9427 -1.83651 0
M  V30 22493 C 2169.29 -7.65087 -2.94749 0
M  V30 22494 O 2168.9 -8.53963 -1.90717 0
M  V30 22495 C 2168.41 -6.41069 -2.90698 0
M  V30 22496 C 2169.12 -5.5528 -1.86931 0
M  V30 22497 N 2169.07 -4.09575 -2.15696 0
M  V30 22498 C 2168.92 -3.24249 -1.08435 0
M  V30 22499 O 2168.83 -3.63946 0.0628747 0
M  V30 22500 N 2168.88 -1.90009 -1.39973 0
M  V30 22501 C 2168.97 -1.34884 -2.65614 0
M  V30 22502 C 2169.12 -2.3145 -3.71736 0
M  V30 22503 C 2169.17 -3.63518 -3.44754 0
M  V30 22504 H 2171.91 -7.45402 -4.45526 0
M  V30 22505 H 2172.18 -5.86062 -3.67208 0
M  V30 22506 H 2171.31 -7.84412 -2.24479 0
M  V30 22507 H 2168.66 -5.73358 -0.888409 0
M  V30 22508 H 2168.38 -5.90877 -3.88583 0
M  V30 22509 H 2167.38 -6.65867 -2.58821 0
M  V30 22510 H 2169.22 -8.16248 -3.92006 0
M  V30 22511 H 2169.29 -4.34551 -4.26383 0
M  V30 22512 P 2167.35 -8.7635 -1.60911 0
M  V30 22513 O 2167.13 -10.1388 -1.11561 0
M  V30 22514 O 2166.56 -8.36503 -2.79617 0
M  V30 22515 O 2167.1 -7.71806 -0.42951 0
M  V30 22516 C 2168.04 -7.67148 0.673689 0
M  V30 22517 C 2167.31 -7.33374 1.95559 0
M  V30 22518 O 2167.1 -5.88721 2.00726 0
M  V30 22519 C 2165.91 -7.92526 2.10483 0
M  V30 22520 O 2165.52 -8.02971 3.47653 0
M  V30 22521 C 2165.03 -6.89602 1.41652 0
M  V30 22522 C 2165.74 -5.59201 1.75185 0
M  V30 22523 N 2165.69 -4.58235 0.662552 0
M  V30 22524 H 2168.53 -8.65116 0.777161 0
M  V30 22525 H 2168.8 -6.90173 0.474152 0
M  V30 22526 H 2167.93 -7.66548 2.79458 0
M  V30 22527 P 2163.97 -8.03563 3.84925 0
M  V30 22528 O 2163.75 -8.85821 5.0569 0
M  V30 22529 O 2163.18 -8.41101 2.65469 0
M  V30 22530 O 2163.72 -6.4965 4.18908 0
M  V30 22531 C 2164.66 -5.81037 5.05421 0
M  V30 22532 C 2163.93 -4.78366 5.89277 0
M  V30 22533 O 2163.72 -3.58302 5.08433 0
M  V30 22534 C 2162.53 -5.17448 6.36119 0
M  V30 22535 O 2162.14 -4.45271 7.53232 0
M  V30 22536 C 2161.65 -4.74639 5.19936 0
M  V30 22537 C 2162.36 -3.49432 4.70418 0
M  V30 22538 N 2162.31 -3.32099 3.22613 0
M  V30 22539 H 2165.15 -6.54213 5.71376 0
M  V30 22540 H 2165.42 -5.30936 4.43503 0
M  V30 22541 H 2164.55 -4.55889 6.76652 0
M  V30 22542 H 2161.9 -2.61715 5.17932 0
M  V30 22543 H 2161.62 -5.52155 4.41878 0
M  V30 22544 H 2160.62 -4.51981 5.53374 0
M  V30 22545 H 2162.46 -6.25124 6.55234 0
M  V30 22546 P 2160.59 -4.23843 7.83734 0
M  V30 22547 O 2160.37 -4.19407 9.29784 0
M  V30 22548 O 2159.8 -5.24426 7.09156 0
M  V30 22549 O 2160.34 -2.7935 7.20758 0
M  V30 22550 C 2161.28 -1.7299 7.50419 0
M  V30 22551 C 2160.55 -0.406376 7.57911 0
M  V30 22552 O 2160.34 0.0897726 6.21935 0
M  V30 22553 C 2159.15 -0.447224 8.1878 0
M  V30 22554 O 2158.76 0.825065 8.71101 0
M  V30 22555 C 2158.27 -0.783801 6.99623 0
M  V30 22556 C 2158.98 -0.0619192 5.85967 0
M  V30 22557 N 2158.93 -0.790462 4.56202 0
M  V30 22558 H 2161.77 -1.93423 8.4679 0
M  V30 22559 H 2162.04 -1.68852 6.70877 0
M  V30 22560 H 2161.17 0.289041 8.15388 0
M  V30 22561 H 2158.52 0.927006 5.72848 0
M  V30 22562 H 2158.24 -1.86973 6.82036 0
M  V30 22563 H 2157.24 -0.403953 7.13357 0
M  V30 22564 H 2159.08 -1.20599 8.97534 0
M  V30 22565 P 2157.21 1.17771 8.83182 0
M  V30 22566 O 2156.99 2.07206 9.98732 0
M  V30 22567 O 2156.42 -0.0743816 8.81969 0
M  V30 22568 O 2156.96 1.97652 7.47304 0
M  V30 22569 C 2157.9 3.01133 7.08783 0
M  V30 22570 C 2157.17 4.12613 6.37049 0
M  V30 22571 O 2156.96 3.72827 4.97879 0
M  V30 22572 C 2155.77 4.45085 6.88694 0
M  V30 22573 O 2155.38 5.7877 6.5624 0
M  V30 22574 C 2154.89 3.47817 6.12078 0
M  V30 22575 C 2155.6 3.39414 4.77697 0
M  V30 22576 N 2155.55 2.04615 4.15333 0
M  V30 22577 H 2158.39 3.41248 7.98759 0
M  V30 22578 H 2158.66 2.5837 6.41742 0
M  V30 22579 H 2157.79 5.02657 6.42673 0
M  V30 22580 P 2153.83 6.144 6.45285 0
M  V30 22581 O 2153.61 7.54673 6.86199 0
M  V30 22582 O 2153.04 5.12391 7.179 0
M  V30 22583 O 2153.58 5.99236 4.88467 0
M  V30 22584 C 2154.52 6.60234 3.96415 0
M  V30 22585 C 2153.79 7.08079 2.736 0
M  V30 22586 O 2153.58 5.94365 1.8368 0
M  V30 22587 C 2152.39 7.64886 2.9555 0
M  V30 22588 O 2152 8.5406 1.90739 0
M  V30 22589 C 2151.51 6.4116 2.90739 0
M  V30 22590 C 2152.22 5.55375 1.86963 0
M  V30 22591 N 2152.17 4.09664 2.15742 0
M  V30 22592 C 2152.02 3.22231 1.08477 0
M  V30 22593 O 2151.93 3.68951 -0.0600489 0
M  V30 22594 N 2151.97 1.76692 1.48799 0
M  V30 22595 C 2152.07 1.41695 2.57602 0
M  V30 22596 N 2152.02 0.107296 2.75791 0
M  V30 22597 C 2152.22 2.29178 3.69733 0
M  V30 22598 C 2152.27 3.62753 3.42653 0
M  V30 22599 H 2155.01 7.45488 4.45578 0
M  V30 22600 H 2155.28 5.86232 3.67314 0
M  V30 22601 H 2154.41 7.84508 2.24507 0
M  V30 22602 H 2151.76 5.73556 0.888715 0
M  V30 22603 H 2151.48 5.9096 3.88638 0
M  V30 22604 H 2150.48 6.66053 2.58894 0
M  V30 22605 H 2152.32 8.16339 3.92049 0
M  V30 22606 H 2152.39 4.33052 4.24913 0
M  V30 22607 H 2152.29 1.9103 4.71577 0
M  V30 22608 H 2151.9 -0.521221 1.95056 0
M  V30 22609 H 2152.1 -0.286429 3.70695 0
M  V30 22610 P 2150.45 8.7635 1.60911 0
M  V30 22611 O 2150.23 10.1388 1.11561 0
M  V30 22612 O 2149.66 8.36503 2.79617 0
M  V30 22613 O 2150.2 7.71806 0.42951 0
M  V30 22614 C 2151.14 7.67148 -0.673689 0
M  V30 22615 C 2150.41 7.33374 -1.95559 0
M  V30 22616 O 2150.2 5.88721 -2.00726 0
M  V30 22617 C 2149.01 7.92526 -2.10483 0
M  V30 22618 O 2148.62 8.02971 -3.47653 0
M  V30 22619 C 2148.13 6.89602 -1.41652 0
M  V30 22620 C 2148.84 5.59201 -1.75185 0
M  V30 22621 N 2148.79 4.58235 -0.662552 0
M  V30 22622 H 2151.63 8.65116 -0.777161 0
M  V30 22623 H 2151.9 6.90173 -0.474152 0
M  V30 22624 H 2151.03 7.66548 -2.79458 0
M  V30 22625 P 2147.07 8.03563 -3.84925 0
M  V30 22626 O 2146.85 8.85821 -5.0569 0
M  V30 22627 O 2146.28 8.41101 -2.65469 0
M  V30 22628 O 2146.82 6.4965 -4.18908 0
M  V30 22629 C 2147.76 5.81037 -5.05421 0
M  V30 22630 C 2147.03 4.78366 -5.89277 0
M  V30 22631 O 2146.82 3.58302 -5.08433 0
M  V30 22632 C 2145.63 5.17448 -6.36119 0
M  V30 22633 O 2145.24 4.45271 -7.53232 0
M  V30 22634 C 2144.75 4.74639 -5.19936 0
M  V30 22635 C 2145.46 3.49432 -4.70418 0
M  V30 22636 N 2145.41 3.32099 -3.22613 0
M  V30 22637 H 2148.25 6.54213 -5.71376 0
M  V30 22638 H 2148.52 5.30936 -4.43503 0
M  V30 22639 H 2147.65 4.55889 -6.76652 0
M  V30 22640 H 2145 2.61715 -5.17932 0
M  V30 22641 H 2144.72 5.52155 -4.41878 0
M  V30 22642 H 2143.72 4.51981 -5.53374 0
M  V30 22643 H 2145.56 6.25124 -6.55234 0
M  V30 22644 P 2143.69 4.23843 -7.83734 0
M  V30 22645 O 2143.47 4.19407 -9.29784 0
M  V30 22646 O 2142.9 5.24426 -7.09156 0
M  V30 22647 O 2143.44 2.7935 -7.20758 0
M  V30 22648 C 2144.38 1.7299 -7.50419 0
M  V30 22649 C 2143.65 0.406376 -7.57911 0
M  V30 22650 O 2143.44 -0.0897726 -6.21935 0
M  V30 22651 C 2142.25 0.447224 -8.1878 0
M  V30 22652 O 2141.86 -0.825065 -8.71101 0
M  V30 22653 C 2141.37 0.783801 -6.99623 0
M  V30 22654 C 2142.08 0.0619192 -5.85967 0
M  V30 22655 N 2142.03 0.790462 -4.56202 0
M  V30 22656 H 2144.87 1.93423 -8.4679 0
M  V30 22657 H 2145.14 1.68852 -6.70877 0
M  V30 22658 H 2144.27 -0.289041 -8.15388 0
M  V30 22659 H 2141.62 -0.927006 -5.72848 0
M  V30 22660 H 2141.34 1.86973 -6.82036 0
M  V30 22661 H 2140.34 0.403953 -7.13357 0
M  V30 22662 H 2142.18 1.20599 -8.97534 0
M  V30 22663 P 2140.31 -1.17771 -8.83182 0
M  V30 22664 O 2140.09 -2.07206 -9.98732 0
M  V30 22665 O 2139.52 0.0743816 -8.81969 0
M  V30 22666 O 2140.06 -1.97652 -7.47304 0
M  V30 22667 C 2141 -3.01133 -7.08783 0
M  V30 22668 C 2140.27 -4.12613 -6.37049 0
M  V30 22669 O 2140.06 -3.72827 -4.97879 0
M  V30 22670 C 2138.87 -4.45085 -6.88694 0
M  V30 22671 O 2138.48 -5.7877 -6.5624 0
M  V30 22672 C 2137.99 -3.47817 -6.12078 0
M  V30 22673 C 2138.7 -3.39414 -4.77697 0
M  V30 22674 N 2138.65 -2.04615 -4.15333 0
M  V30 22675 H 2141.49 -3.41248 -7.98759 0
M  V30 22676 H 2141.76 -2.5837 -6.41742 0
M  V30 22677 H 2140.89 -5.02657 -6.42673 0
M  V30 22678 P 2136.93 -6.144 -6.45285 0
M  V30 22679 O 2136.71 -7.54673 -6.86199 0
M  V30 22680 O 2136.14 -5.12391 -7.179 0
M  V30 22681 O 2136.68 -5.99158 -4.88404 0
M  V30 22682 C 2137.62 -6.60234 -3.96415 0
M  V30 22683 C 2136.89 -7.08259 -2.72856 0
M  V30 22684 O 2136.68 -5.9427 -1.83651 0
M  V30 22685 C 2135.49 -7.64886 -2.9555 0
M  V30 22686 O 2135.1 -8.53963 -1.90717 0
M  V30 22687 C 2134.61 -6.4116 -2.90739 0
M  V30 22688 C 2135.32 -5.55375 -1.86963 0
M  V30 22689 N 2135.27 -4.09664 -2.15742 0
M  V30 22690 H 2138.11 -7.45574 -4.45629 0
M  V30 22691 H 2138.38 -5.86232 -3.67314 0
M  V30 22692 H 2137.51 -7.84412 -2.24479 0
M  V30 22693 P 2133.55 -8.7635 -1.60911 0
M  V30 22694 O 2133.33 -10.1388 -1.11561 0
M  V30 22695 O 2132.76 -8.36503 -2.79617 0
M  V30 22696 O 2133.3 -7.71806 -0.42951 0
M  V30 22697 C 2134.24 -7.67148 0.673689 0
M  V30 22698 C 2133.51 -7.33374 1.95559 0
M  V30 22699 O 2133.3 -5.88721 2.00726 0
M  V30 22700 C 2132.11 -7.92526 2.10483 0
M  V30 22701 O 2131.72 -8.02971 3.47653 0
M  V30 22702 C 2131.23 -6.89602 1.41652 0
M  V30 22703 C 2131.94 -5.59201 1.75185 0
M  V30 22704 N 2131.89 -4.58301 0.657969 0
M  V30 22705 H 2134.73 -8.65116 0.777161 0
M  V30 22706 H 2135 -6.9022 0.46725 0
M  V30 22707 H 2134.13 -7.66548 2.79458 0
M  V30 22708 H 2131.48 -5.16165 2.65183 0
M  V30 22709 H 2131.2 -7.06433 0.329384 0
M  V30 22710 H 2130.2 -6.90926 1.82021 0
M  V30 22711 H 2132.04 -8.90873 1.62657 0
M  V30 22712 P 2130.17 -8.03563 3.84925 0
M  V30 22713 O 2129.95 -8.85821 5.0569 0
M  V30 22714 O 2129.38 -8.41101 2.65469 0
M  V30 22715 O 2129.92 -6.4965 4.18908 0
M  V30 22716 C 2130.86 -5.81037 5.05421 0
M  V30 22717 C 2130.13 -4.78366 5.89277 0
M  V30 22718 O 2129.92 -3.58302 5.08433 0
M  V30 22719 C 2128.73 -5.17448 6.36119 0
M  V30 22720 O 2128.34 -4.45271 7.53232 0
M  V30 22721 C 2127.85 -4.74639 5.19936 0
M  V30 22722 C 2128.56 -3.49432 4.70418 0
M  V30 22723 N 2128.51 -3.32099 3.22613 0
M  V30 22724 H 2131.35 -6.54213 5.71376 0
M  V30 22725 H 2131.62 -5.30936 4.43503 0
M  V30 22726 H 2130.75 -4.55889 6.76652 0
M  V30 22727 H 2128.1 -2.61715 5.17932 0
M  V30 22728 H 2127.82 -5.52155 4.41878 0
M  V30 22729 H 2126.82 -4.51981 5.53374 0
M  V30 22730 H 2128.66 -6.25124 6.55234 0
M  V30 22731 P 2126.79 -4.23843 7.83734 0
M  V30 22732 O 2126.57 -4.19407 9.29784 0
M  V30 22733 O 2126 -5.24426 7.09156 0
M  V30 22734 O 2126.54 -2.7935 7.20758 0
M  V30 22735 C 2127.48 -1.72945 7.50224 0
M  V30 22736 C 2126.75 -0.406376 7.57911 0
M  V30 22737 O 2126.54 0.0897726 6.21935 0
M  V30 22738 C 2125.35 -0.438983 8.18724 0
M  V30 22739 O 2124.96 0.825065 8.71101 0
M  V30 22740 C 2124.47 -0.783689 6.99524 0
M  V30 22741 C 2125.18 -0.0619086 5.85867 0
M  V30 22742 N 2125.13 -0.78573 4.56183 0
M  V30 22743 C 2124.98 -0.0292889 3.41887 0
M  V30 22744 O 2124.89 1.18445 3.4419 0
M  V30 22745 N 2124.94 -0.744061 2.23964 0
M  V30 22746 C 2125.03 -2.10932 2.10362 0
M  V30 22747 O 2124.98 -2.64117 0.98825 0
M  V30 22748 C 2125.18 -2.8202 3.34994 0
M  V30 22749 C 2125.29 -4.31095 3.25037 0
M  V30 22750 C 2125.23 -2.15547 4.52261 0
M  V30 22751 H 2127.97 -1.93379 8.46595 0
M  V30 22752 H 2128.24 -1.68132 6.70852 0
M  V30 22753 H 2127.37 0.289041 8.15388 0
M  V30 22754 H 2124.72 0.926847 5.72749 0
M  V30 22755 H 2124.44 -1.86973 6.82036 0
M  V30 22756 H 2123.44 -0.403896 7.13257 0
M  V30 22757 H 2125.28 -1.20585 8.97435 0
M  V30 22758 H 2125.35 -2.71231 5.45042 0
M  V30 22759 H 2124.32 -4.76966 3.49992 0
M  V30 22760 H 2126.06 -4.67047 3.95024 0
M  V30 22761 H 2125.57 -4.58996 2.22312 0
M  V30 22762 H 2124.83 -0.214893 1.39758 0
M  V30 22763 P 2123.41 1.17771 8.83182 0
M  V30 22764 O 2123.19 2.07206 9.98732 0
M  V30 22765 O 2122.62 -0.0743816 8.81969 0
M  V30 22766 O 2123.16 1.97652 7.47304 0
M  V30 22767 C 2124.1 3.01133 7.08783 0
M  V30 22768 C 2123.37 4.12613 6.37049 0
M  V30 22769 O 2123.16 3.72827 4.97879 0
M  V30 22770 C 2121.97 4.45085 6.88694 0
M  V30 22771 O 2121.58 5.7877 6.5624 0
M  V30 22772 C 2121.09 3.47817 6.12078 0
M  V30 22773 C 2121.8 3.39414 4.77697 0
M  V30 22774 N 2121.75 2.04199 4.15538 0
M  V30 22775 H 2124.59 3.41248 7.98759 0
M  V30 22776 H 2124.86 2.57728 6.42 0
M  V30 22777 H 2123.99 5.02657 6.42673 0
M  V30 22778 H 2121.34 4.11708 4.08956 0
M  V30 22779 H 2121.06 2.49626 6.61679 0
M  V30 22780 H 2120.06 3.8662 6.00862 0
M  V30 22781 H 2121.9 4.29991 7.97006 0
M  V30 22782 P 2120.03 6.144 6.45285 0
M  V30 22783 O 2119.81 7.54673 6.86199 0
M  V30 22784 O 2119.24 5.12391 7.179 0
M  V30 22785 O 2119.78 5.99158 4.88404 0
M  V30 22786 C 2120.72 6.60234 3.96415 0
M  V30 22787 C 2119.99 7.08259 2.72856 0
M  V30 22788 O 2119.78 5.9427 1.83651 0
M  V30 22789 C 2118.59 7.64886 2.9555 0
M  V30 22790 O 2118.2 8.53963 1.90717 0
M  V30 22791 C 2117.71 6.4116 2.90739 0
M  V30 22792 C 2118.42 5.55375 1.86963 0
M  V30 22793 N 2118.37 4.09664 2.15742 0
M  V30 22794 H 2121.21 7.45574 4.45629 0
M  V30 22795 H 2121.48 5.86232 3.67314 0
M  V30 22796 H 2120.61 7.84412 2.24479 0
M  V30 22797 P 2116.65 8.7635 1.60911 0
M  V30 22798 O 2116.43 10.1388 1.11561 0
M  V30 22799 O 2115.86 8.36503 2.79617 0
M  V30 22800 O 2116.4 7.71806 0.42951 0
M  V30 22801 C 2117.34 7.67148 -0.673689 0
M  V30 22802 C 2116.61 7.33374 -1.95559 0
M  V30 22803 O 2116.4 5.88721 -2.00726 0
M  V30 22804 C 2115.21 7.92526 -2.10483 0
M  V30 22805 O 2114.82 8.02971 -3.47653 0
M  V30 22806 C 2114.33 6.89602 -1.41652 0
M  V30 22807 C 2115.04 5.59201 -1.75185 0
M  V30 22808 N 2114.99 4.58235 -0.662552 0
M  V30 22809 C 2115.07 4.7683 0.704049 0
M  V30 22810 N 2114.99 3.66233 1.39775 0
M  V30 22811 C 2114.85 2.66526 0.431739 0
M  V30 22812 C 2114.72 1.26394 0.575992 0
M  V30 22813 N 2114.6 0.62859 -0.67177 0
M  V30 22814 C 2114.6 1.27134 -1.89385 0
M  V30 22815 N 2114.47 0.492035 -2.96951 0
M  V30 22816 N 2114.73 2.58978 -2.02907 0
M  V30 22817 C 2114.85 3.22433 -0.832218 0
M  V30 22818 H 2117.83 8.65116 -0.777161 0
M  V30 22819 H 2118.1 6.90173 -0.474152 0
M  V30 22820 H 2117.23 7.66548 -2.79458 0
M  V30 22821 P 2113.27 8.03563 -3.84925 0
M  V30 22822 O 2113.05 8.85821 -5.0569 0
M  V30 22823 O 2112.48 8.41101 -2.65469 0
M  V30 22824 O 2113.02 6.4965 -4.18908 0
M  V30 22825 C 2113.96 5.81037 -5.05421 0
M  V30 22826 C 2113.23 4.78366 -5.89277 0
M  V30 22827 O 2113.02 3.58302 -5.08433 0
M  V30 22828 C 2111.83 5.17448 -6.36119 0
M  V30 22829 O 2111.44 4.45271 -7.53232 0
M  V30 22830 C 2110.95 4.74639 -5.19936 0
M  V30 22831 C 2111.66 3.49432 -4.70418 0
M  V30 22832 N 2111.61 3.31776 -3.22945 0
M  V30 22833 H 2114.45 6.54213 -5.71376 0
M  V30 22834 H 2114.72 5.30492 -4.44033 0
M  V30 22835 H 2113.85 4.55889 -6.76652 0
M  V30 22836 P 2109.89 4.23843 -7.83734 0
M  V30 22837 O 2109.67 4.19407 -9.29784 0
M  V30 22838 O 2109.1 5.24426 -7.09156 0
M  V30 22839 O 2109.64 2.7935 -7.20758 0
M  V30 22840 C 2110.58 1.7299 -7.50419 0
M  V30 22841 C 2109.85 0.406376 -7.57911 0
M  V30 22842 O 2109.64 -0.0897726 -6.21935 0
M  V30 22843 C 2108.45 0.447224 -8.1878 0
M  V30 22844 O 2108.06 -0.825065 -8.71101 0
M  V30 22845 C 2107.57 0.783801 -6.99623 0
M  V30 22846 C 2108.28 0.0619192 -5.85967 0
M  V30 22847 N 2108.23 0.790462 -4.56202 0
M  V30 22848 H 2111.07 1.93423 -8.4679 0
M  V30 22849 H 2111.34 1.68852 -6.70877 0
M  V30 22850 H 2110.47 -0.289041 -8.15388 0
M  V30 22851 H 2107.82 -0.927006 -5.72848 0
M  V30 22852 H 2107.54 1.86973 -6.82036 0
M  V30 22853 H 2106.54 0.403953 -7.13357 0
M  V30 22854 H 2108.38 1.20599 -8.97534 0
M  V30 22855 P 2106.51 -1.17771 -8.83182 0
M  V30 22856 O 2106.29 -2.07206 -9.98732 0
M  V30 22857 O 2105.72 0.0743816 -8.81969 0
M  V30 22858 O 2106.26 -1.97652 -7.47304 0
M  V30 22859 C 2107.2 -3.01133 -7.08783 0
M  V30 22860 C 2106.47 -4.12613 -6.37049 0
M  V30 22861 O 2106.26 -3.72827 -4.97879 0
M  V30 22862 C 2105.07 -4.45085 -6.88694 0
M  V30 22863 O 2104.68 -5.7877 -6.5624 0
M  V30 22864 C 2104.19 -3.47817 -6.12078 0
M  V30 22865 C 2104.9 -3.39414 -4.77697 0
M  V30 22866 N 2104.85 -2.04199 -4.15538 0
M  V30 22867 H 2107.69 -3.41248 -7.98759 0
M  V30 22868 H 2107.96 -2.57728 -6.42 0
M  V30 22869 H 2107.09 -5.02657 -6.42673 0
M  V30 22870 H 2104.44 -4.11708 -4.08956 0
M  V30 22871 H 2104.16 -2.49626 -6.61679 0
M  V30 22872 H 2103.16 -3.8662 -6.00862 0
M  V30 22873 H 2105 -4.29991 -7.97006 0
M  V30 22874 P 2103.13 -6.144 -6.45285 0
M  V30 22875 O 2102.91 -7.54673 -6.86199 0
M  V30 22876 O 2102.34 -5.12391 -7.179 0
M  V30 22877 O 2102.88 -5.99158 -4.88404 0
M  V30 22878 C 2103.82 -6.60234 -3.96415 0
M  V30 22879 C 2103.09 -7.08259 -2.72856 0
M  V30 22880 O 2102.88 -5.9427 -1.83651 0
M  V30 22881 C 2101.69 -7.64886 -2.9555 0
M  V30 22882 O 2101.3 -8.53963 -1.90717 0
M  V30 22883 C 2100.81 -6.4116 -2.90739 0
M  V30 22884 C 2101.52 -5.55375 -1.86963 0
M  V30 22885 N 2101.47 -4.09448 -2.16152 0
M  V30 22886 C 2101.55 -3.46824 -3.37593 0
M  V30 22887 N 2101.48 -2.17422 -3.29777 0
M  V30 22888 C 2101.33 -1.93065 -1.94427 0
M  V30 22889 C 2101.2 -0.738053 -1.20141 0
M  V30 22890 N 2101.19 0.474256 -1.74676 0
M  V30 22891 N 2101.08 -0.850049 0.13045 0
M  V30 22892 C 2101.09 -2.06169 0.676992 0
M  V30 22893 N 2101.21 -3.23842 0.101312 0
M  V30 22894 C 2101.33 -3.09402 -1.23122 0
M  V30 22895 H 2104.31 -7.45574 -4.45629 0
M  V30 22896 H 2104.58 -5.85864 -3.679 0
M  V30 22897 H 2103.71 -7.84412 -2.24479 0
M  V30 22898 H 2101.06 -5.73457 -0.888562 0
M  V30 22899 H 2100.78 -5.90877 -3.88583 0
M  V30 22900 H 2099.78 -6.6596 -2.58858 0
M  V30 22901 H 2101.62 -8.16339 -3.92049 0
M  V30 22902 H 2101.66 -4.00505 -4.3174 0
M  V30 22903 H 2101.28 0.581337 -2.76658 0
M  V30 22904 H 2101.09 1.30811 -1.14888 0
M  V30 22905 H 2100.98 -2.08295 1.75542 0
M  V30 22906 P 2099.75 -8.7635 -1.60911 0
M  V30 22907 O 2099.53 -10.1388 -1.11561 0
M  V30 22908 O 2098.96 -8.36503 -2.79617 0
M  V30 22909 O 2099.5 -7.71806 -0.42951 0
M  V30 22910 C 2100.44 -7.67148 0.673689 0
M  V30 22911 C 2099.71 -7.33374 1.95559 0
M  V30 22912 O 2099.5 -5.88721 2.00726 0
M  V30 22913 C 2098.31 -7.92526 2.10483 0
M  V30 22914 O 2097.92 -8.02971 3.47653 0
M  V30 22915 C 2097.43 -6.89602 1.41652 0
M  V30 22916 C 2098.14 -5.59201 1.75185 0
M  V30 22917 N 2098.09 -4.58301 0.657969 0
M  V30 22918 H 2100.93 -8.65116 0.777161 0
M  V30 22919 H 2101.2 -6.9022 0.46725 0
M  V30 22920 H 2100.33 -7.66548 2.79458 0
M  V30 22921 H 2097.68 -5.16165 2.65183 0
M  V30 22922 H 2097.4 -7.06433 0.329384 0
M  V30 22923 H 2096.4 -6.90926 1.82021 0
M  V30 22924 H 2098.24 -8.90873 1.62657 0
M  V30 22925 P 2096.37 -8.03563 3.84925 0
M  V30 22926 O 2096.15 -8.85821 5.0569 0
M  V30 22927 O 2095.58 -8.41101 2.65469 0
M  V30 22928 O 2096.12 -6.49734 4.18962 0
M  V30 22929 C 2097.06 -5.81037 5.05421 0
M  V30 22930 C 2096.33 -4.79018 5.88876 0
M  V30 22931 O 2096.12 -3.58359 5.08515 0
M  V30 22932 C 2094.93 -5.17448 6.36119 0
M  V30 22933 O 2094.54 -4.45322 7.53318 0
M  V30 22934 C 2094.05 -4.74639 5.19936 0
M  V30 22935 C 2094.76 -3.49432 4.70418 0
M  V30 22936 N 2094.71 -3.31776 3.22945 0
M  V30 22937 C 2094.56 -2.02742 2.72939 0
M  V30 22938 O 2094.47 -1.08301 3.52749 0
M  V30 22939 N 2094.51 -1.96117 1.22063 0
M  V30 22940 C 2094.61 -2.8878 0.551566 0
M  V30 22941 N 2094.56 -2.65609 -0.750198 0
M  V30 22942 C 2094.76 -4.22457 1.03707 0
M  V30 22943 C 2094.81 -4.37979 2.39113 0
M  V30 22944 H 2097.55 -6.54138 5.7131 0
M  V30 22945 H 2097.82 -5.30492 4.44033 0
M  V30 22946 H 2096.95 -4.55945 6.76735 0
M  V30 22947 H 2094.3 -2.6176 5.18021 0
M  V30 22948 H 2094.02 -5.52233 4.41941 0
M  V30 22949 H 2093.02 -4.52045 5.53452 0
M  V30 22950 H 2094.86 -6.25124 6.55234 0
M  V30 22951 H 2094.93 -5.37936 2.80552 0
M  V30 22952 H 2094.83 -5.07528 0.359553 0
M  V30 22953 H 2094.44 -1.69403 -1.09847 0
M  V30 22954 H 2094.64 -3.43701 -1.41792 0
M  V30 22955 P 2092.99 -4.23843 7.83734 0
M  V30 22956 O 2092.77 -4.19407 9.29784 0
M  V30 22957 O 2092.2 -5.24426 7.09156 0
M  V30 22958 O 2092.74 -2.7935 7.20758 0
M  V30 22959 C 2093.68 -1.7299 7.50419 0
M  V30 22960 C 2092.95 -0.406376 7.57911 0
M  V30 22961 O 2092.74 0.0897726 6.21935 0
M  V30 22962 C 2091.55 -0.447224 8.1878 0
M  V30 22963 O 2091.16 0.825065 8.71101 0
M  V30 22964 C 2090.67 -0.783801 6.99623 0
M  V30 22965 C 2091.38 -0.0619192 5.85967 0
M  V30 22966 N 2091.33 -0.7859 4.56281 0
M  V30 22967 C 2091.41 -2.14308 4.31736 0
M  V30 22968 N 2091.33 -2.46106 3.05116 0
M  V30 22969 C 2091.19 -1.23422 2.4014 0
M  V30 22970 C 2091.06 -0.938381 1.02409 0
M  V30 22971 N 2090.94 0.444647 0.805413 0
M  V30 22972 C 2090.94 1.40829 1.79435 0
M  V30 22973 N 2090.81 2.67213 1.38558 0
M  V30 22974 N 2091.07 1.12947 3.09005 0
M  V30 22975 C 2091.19 -0.204887 3.32369 0
M  V30 22976 H 2094.17 -1.93423 8.4679 0
M  V30 22977 H 2094.44 -1.68181 6.71046 0
M  V30 22978 H 2093.57 0.289041 8.15388 0
M  V30 22979 P 2089.61 1.17771 8.83182 0
M  V30 22980 O 2089.39 2.07206 9.98732 0
M  V30 22981 O 2088.82 -0.0743816 8.81969 0
M  V30 22982 O 2089.36 1.97652 7.47304 0
M  V30 22983 C 2090.3 3.01133 7.08783 0
M  V30 22984 C 2089.57 4.12613 6.37049 0
M  V30 22985 O 2089.36 3.72827 4.97879 0
M  V30 22986 C 2088.17 4.45085 6.88694 0
M  V30 22987 O 2087.78 5.7877 6.5624 0
M  V30 22988 C 2087.29 3.47817 6.12078 0
M  V30 22989 C 2088 3.39414 4.77697 0
M  V30 22990 N 2087.95 2.04615 4.15333 0
M  V30 22991 H 2090.79 3.41248 7.98759 0
M  V30 22992 H 2091.06 2.5837 6.41742 0
M  V30 22993 H 2090.19 5.02657 6.42673 0
M  V30 22994 P 2086.23 6.144 6.45285 0
M  V30 22995 O 2086.01 7.54673 6.86199 0
M  V30 22996 O 2085.44 5.12391 7.179 0
M  V30 22997 O 2085.98 5.99158 4.88404 0
M  V30 22998 C 2086.92 6.60234 3.96415 0
M  V30 22999 C 2086.19 7.08259 2.72856 0
M  V30 23000 O 2085.98 5.9427 1.83651 0
M  V30 23001 C 2084.79 7.64886 2.9555 0
M  V30 23002 O 2084.4 8.53963 1.90717 0
M  V30 23003 C 2083.91 6.4116 2.90739 0
M  V30 23004 C 2084.62 5.55375 1.86963 0
M  V30 23005 N 2084.57 4.09664 2.15742 0
M  V30 23006 H 2087.41 7.45574 4.45629 0
M  V30 23007 H 2087.68 5.86232 3.67314 0
M  V30 23008 H 2086.81 7.84412 2.24479 0
M  V30 23009 P 2082.85 8.7635 1.60911 0
M  V30 23010 O 2082.63 10.1388 1.11561 0
M  V30 23011 O 2082.06 8.36503 2.79617 0
M  V30 23012 O 2082.6 7.71806 0.42951 0
M  V30 23013 C 2083.54 7.67148 -0.673689 0
M  V30 23014 C 2082.81 7.33374 -1.95559 0
M  V30 23015 O 2082.6 5.88721 -2.00726 0
M  V30 23016 C 2081.41 7.92526 -2.10483 0
M  V30 23017 O 2081.02 8.02971 -3.47653 0
M  V30 23018 C 2080.53 6.89602 -1.41652 0
M  V30 23019 C 2081.24 5.59201 -1.75185 0
M  V30 23020 N 2081.19 4.58235 -0.662552 0
M  V30 23021 H 2084.03 8.65116 -0.777161 0
M  V30 23022 H 2084.3 6.90173 -0.474152 0
M  V30 23023 H 2083.43 7.66548 -2.79458 0
M  V30 23024 P 2079.47 8.03563 -3.84925 0
M  V30 23025 O 2079.25 8.85821 -5.0569 0
M  V30 23026 O 2078.68 8.41101 -2.65469 0
M  V30 23027 O 2079.22 6.4965 -4.18908 0
M  V30 23028 C 2080.16 5.80886 -5.05289 0
M  V30 23029 C 2079.43 4.78366 -5.89277 0
M  V30 23030 O 2079.22 3.58302 -5.08433 0
M  V30 23031 C 2078.03 5.16748 -6.36559 0
M  V30 23032 O 2077.64 4.45271 -7.53232 0
M  V30 23033 C 2077.15 4.74572 -5.19863 0
M  V30 23034 C 2077.86 3.49373 -4.70338 0
M  V30 23035 N 2077.81 3.31704 -3.22876 0
M  V30 23036 C 2077.66 2.03326 -2.74871 0
M  V30 23037 O 2077.57 1.06486 -3.48076 0
M  V30 23038 N 2077.62 1.91838 -1.37456 0
M  V30 23039 C 2077.71 2.94295 -0.462035 0
M  V30 23040 O 2077.66 2.71763 0.752928 0
M  V30 23041 C 2077.86 4.25064 -1.05249 0
M  V30 23042 C 2077.97 5.39815 -0.095697 0
M  V30 23043 C 2077.91 4.40214 -2.39192 0
M  V30 23044 H 2080.65 6.54063 -5.71245 0
M  V30 23045 H 2080.92 5.30339 -4.43905 0
M  V30 23046 H 2080.05 4.55889 -6.76652 0
M  V30 23047 H 2077.4 2.6167 -5.17842 0
M  V30 23048 H 2077.12 5.52155 -4.41878 0
M  V30 23049 H 2076.12 4.51918 -5.53297 0
M  V30 23050 H 2077.96 6.25055 -6.55162 0
M  V30 23051 H 2078.03 5.39798 -2.81523 0
M  V30 23052 H 2077 5.91593 -0.0279582 0
M  V30 23053 H 2078.74 6.10038 -0.450573 0
M  V30 23054 H 2078.25 5.02007 0.89937 0
M  V30 23055 H 2077.51 0.995326 -1.00435 0
M  V30 23056 P 2076.09 4.23843 -7.83734 0
M  V30 23057 O 2075.87 4.19407 -9.29784 0
M  V30 23058 O 2075.3 5.24426 -7.09156 0
M  V30 23059 O 2075.84 2.7935 -7.20758 0
M  V30 23060 C 2076.78 1.7299 -7.50419 0
M  V30 23061 C 2076.05 0.406376 -7.57911 0
M  V30 23062 O 2075.84 -0.0897726 -6.21935 0
M  V30 23063 C 2074.65 0.447224 -8.1878 0
M  V30 23064 O 2074.26 -0.825065 -8.71101 0
M  V30 23065 C 2073.77 0.783801 -6.99623 0
M  V30 23066 C 2074.48 0.0619192 -5.85967 0
M  V30 23067 N 2074.43 0.7859 -4.56281 0
M  V30 23068 H 2077.27 1.93423 -8.4679 0
M  V30 23069 H 2077.54 1.68181 -6.71046 0
M  V30 23070 H 2076.67 -0.289041 -8.15388 0
M  V30 23071 P 2072.71 -1.17771 -8.83182 0
M  V30 23072 O 2072.49 -2.07206 -9.98732 0
M  V30 23073 O 2071.92 0.0743816 -8.81969 0
M  V30 23074 O 2072.46 -1.97678 -7.474 0
M  V30 23075 C 2073.4 -3.01133 -7.08783 0
M  V30 23076 C 2072.67 -4.1203 -6.37546 0
M  V30 23077 O 2072.46 -3.72887 -4.9796 0
M  V30 23078 C 2071.27 -4.45085 -6.88694 0
M  V30 23079 O 2070.88 -5.78836 -6.56315 0
M  V30 23080 C 2070.39 -3.47817 -6.12078 0
M  V30 23081 C 2071.1 -3.39414 -4.77697 0
M  V30 23082 N 2071.05 -2.04615 -4.15333 0
M  V30 23083 C 2070.9 -1.96929 -2.77162 0
M  V30 23084 O 2070.81 -3.02017 -2.12006 0
M  V30 23085 N 2070.85 -0.55485 -2.24237 0
M  V30 23086 C 2070.95 0.367808 -2.9169 0
M  V30 23087 N 2070.9 1.53426 -2.29427 0
M  V30 23088 C 2071.1 0.319148 -4.33828 0
M  V30 23089 C 2071.15 -0.920672 -4.90433 0
M  V30 23090 H 2073.89 -3.41209 -7.98667 0
M  V30 23091 H 2074.16 -2.5837 -6.41742 0
M  V30 23092 H 2073.29 -5.02718 -6.42752 0
M  V30 23093 H 2070.64 -4.11779 -4.09026 0
M  V30 23094 H 2070.36 -2.49661 -6.61772 0
M  V30 23095 H 2069.36 -3.86674 -6.00946 0
M  V30 23096 H 2071.2 -4.29991 -7.97006 0
M  V30 23097 H 2071.27 -1.00589 -5.98303 0
M  V30 23098 H 2071.17 1.22639 -4.93799 0
M  V30 23099 H 2070.78 1.56819 -1.27167 0
M  V30 23100 H 2070.98 2.41062 -2.83063 0
M  V30 23101 P 2069.33 -6.144 -6.45285 0
M  V30 23102 O 2069.11 -7.54673 -6.86199 0
M  V30 23103 O 2068.54 -5.12391 -7.179 0
M  V30 23104 O 2069.08 -5.99158 -4.88404 0
M  V30 23105 C 2070.02 -6.60234 -3.96415 0
M  V30 23106 C 2069.29 -7.08259 -2.72856 0
M  V30 23107 O 2069.08 -5.9427 -1.83651 0
M  V30 23108 C 2067.89 -7.64886 -2.9555 0
M  V30 23109 O 2067.5 -8.53963 -1.90717 0
M  V30 23110 C 2067.01 -6.4116 -2.90739 0
M  V30 23111 C 2067.72 -5.55375 -1.86963 0
M  V30 23112 N 2067.67 -4.09664 -2.15742 0
M  V30 23113 H 2070.51 -7.45574 -4.45629 0
M  V30 23114 H 2070.78 -5.86232 -3.67314 0
M  V30 23115 H 2069.91 -7.84412 -2.24479 0
M  V30 23116 P 2065.95 -8.7635 -1.60911 0
M  V30 23117 O 2065.73 -10.1388 -1.11561 0
M  V30 23118 O 2065.16 -8.36503 -2.79617 0
M  V30 23119 O 2065.7 -7.71806 -0.42951 0
M  V30 23120 C 2066.64 -7.67148 0.673689 0
M  V30 23121 C 2065.91 -7.33374 1.95559 0
M  V30 23122 O 2065.7 -5.88721 2.00726 0
M  V30 23123 C 2064.51 -7.92526 2.10483 0
M  V30 23124 O 2064.12 -8.02971 3.47653 0
M  V30 23125 C 2063.63 -6.89602 1.41652 0
M  V30 23126 C 2064.34 -5.59201 1.75185 0
M  V30 23127 N 2064.29 -4.58301 0.657969 0
M  V30 23128 C 2064.37 -4.79019 -0.692603 0
M  V30 23129 N 2064.3 -3.69736 -1.38998 0
M  V30 23130 C 2064.15 -2.70474 -0.438135 0
M  V30 23131 C 2064.02 -1.30327 -0.538142 0
M  V30 23132 N 2064.01 -0.64304 -1.69192 0
M  V30 23133 N 2063.9 -0.611027 0.605183 0
M  V30 23134 C 2063.91 -1.27002 1.75953 0
M  V30 23135 N 2064.03 -2.56038 1.98546 0
M  V30 23136 C 2064.15 -3.22681 0.822541 0
M  V30 23137 H 2067.13 -8.65116 0.777161 0
M  V30 23138 H 2067.4 -6.9022 0.46725 0
M  V30 23139 H 2066.53 -7.66548 2.79458 0
M  V30 23140 H 2063.88 -5.16165 2.65183 0
M  V30 23141 H 2063.6 -7.06433 0.329384 0
M  V30 23142 H 2062.6 -6.90926 1.82021 0
M  V30 23143 H 2064.44 -8.90873 1.62657 0
M  V30 23144 H 2064.48 -5.77785 -1.13874 0
M  V30 23145 H 2064.1 -1.15585 -2.57991 0
M  V30 23146 H 2063.91 0.382989 -1.69835 0
M  V30 23147 H 2063.8 -0.653331 2.64449 0
M  V30 23148 P 2062.57 -8.03563 3.84925 0
M  V30 23149 O 2062.35 -8.85821 5.0569 0
M  V30 23150 O 2061.78 -8.41101 2.65469 0
M  V30 23151 O 2062.32 -6.49734 4.18962 0
M  V30 23152 C 2063.26 -5.81037 5.05421 0
M  V30 23153 C 2062.53 -4.79018 5.88876 0
M  V30 23154 O 2062.32 -3.58359 5.08515 0
M  V30 23155 C 2061.13 -5.17448 6.36119 0
M  V30 23156 O 2060.74 -4.45322 7.53318 0
M  V30 23157 C 2060.25 -4.74639 5.19936 0
M  V30 23158 C 2060.96 -3.49432 4.70418 0
M  V30 23159 N 2060.91 -3.31776 3.22945 0
M  V30 23160 C 2060.76 -2.02742 2.72939 0
M  V30 23161 O 2060.67 -1.08301 3.52749 0
M  V30 23162 N 2060.71 -1.96117 1.22063 0
M  V30 23163 C 2060.81 -2.8878 0.551566 0
M  V30 23164 N 2060.76 -2.65609 -0.750198 0
M  V30 23165 C 2060.96 -4.22457 1.03707 0
M  V30 23166 C 2061.01 -4.37979 2.39113 0
M  V30 23167 H 2063.75 -6.54138 5.7131 0
M  V30 23168 H 2064.02 -5.30492 4.44033 0
M  V30 23169 H 2063.15 -4.55945 6.76735 0
M  V30 23170 H 2060.5 -2.6176 5.18021 0
M  V30 23171 H 2060.22 -5.52233 4.41941 0
M  V30 23172 H 2059.22 -4.52045 5.53452 0
M  V30 23173 H 2061.06 -6.25124 6.55234 0
M  V30 23174 H 2061.13 -5.37936 2.80552 0
M  V30 23175 H 2061.03 -5.07528 0.359553 0
M  V30 23176 H 2060.64 -1.69403 -1.09847 0
M  V30 23177 H 2060.84 -3.43701 -1.41792 0
M  V30 23178 P 2059.19 -4.23843 7.83734 0
M  V30 23179 O 2058.97 -4.19407 9.29784 0
M  V30 23180 O 2058.4 -5.24426 7.09156 0
M  V30 23181 O 2058.94 -2.7935 7.20758 0
M  V30 23182 C 2059.88 -1.7299 7.50419 0
M  V30 23183 C 2059.15 -0.406376 7.57911 0
M  V30 23184 O 2058.94 0.0897726 6.21935 0
M  V30 23185 C 2057.75 -0.447224 8.1878 0
M  V30 23186 O 2057.36 0.825065 8.71101 0
M  V30 23187 C 2056.87 -0.783801 6.99623 0
M  V30 23188 C 2057.58 -0.0619192 5.85967 0
M  V30 23189 N 2057.53 -0.7859 4.56281 0
M  V30 23190 C 2057.61 -2.14308 4.31736 0
M  V30 23191 N 2057.53 -2.46106 3.05116 0
M  V30 23192 C 2057.39 -1.23422 2.4014 0
M  V30 23193 C 2057.26 -0.938381 1.02409 0
M  V30 23194 O 2057.24 -1.70876 0.0650402 0
M  V30 23195 N 2057.14 0.444647 0.805413 0
M  V30 23196 C 2057.14 1.40829 1.79435 0
M  V30 23197 N 2057.01 2.67213 1.38558 0
M  V30 23198 N 2057.27 1.12947 3.09005 0
M  V30 23199 C 2057.39 -0.204887 3.32369 0
M  V30 23200 H 2060.37 -1.93423 8.4679 0
M  V30 23201 H 2060.64 -1.68181 6.71046 0
M  V30 23202 H 2059.77 0.289041 8.15388 0
M  V30 23203 H 2057.12 0.927166 5.72947 0
M  V30 23204 H 2056.84 -1.87 6.82132 0
M  V30 23205 H 2055.84 -0.404009 7.13457 0
M  V30 23206 H 2057.68 -1.20612 8.97633 0
M  V30 23207 H 2057.73 -2.88284 5.10874 0
M  V30 23208 H 2057.05 0.755087 -0.140242 0
M  V30 23209 H 2057.01 3.43967 2.0729 0
M  V30 23210 H 2056.91 2.88096 0.380644 0
M  V30 23211 P 2055.81 1.17771 8.83182 0
M  V30 23212 O 2055.59 2.07206 9.98732 0
M  V30 23213 O 2055.02 -0.0743816 8.81969 0
M  V30 23214 O 2055.56 1.97652 7.47304 0
M  V30 23215 C 2056.5 3.01133 7.08783 0
M  V30 23216 C 2055.77 4.12613 6.37049 0
M  V30 23217 O 2055.56 3.72827 4.97879 0
M  V30 23218 C 2054.37 4.45085 6.88694 0
M  V30 23219 O 2053.98 5.7877 6.5624 0
M  V30 23220 C 2053.49 3.47817 6.12078 0
M  V30 23221 C 2054.2 3.39414 4.77697 0
M  V30 23222 N 2054.15 2.04615 4.15333 0
M  V30 23223 H 2056.99 3.41248 7.98759 0
M  V30 23224 H 2057.26 2.5837 6.41742 0
M  V30 23225 H 2056.39 5.02657 6.42673 0
M  V30 23226 P 2052.43 6.144 6.45285 0
M  V30 23227 O 2052.21 7.54673 6.86199 0
M  V30 23228 O 2051.64 5.12391 7.179 0
M  V30 23229 O 2052.18 5.99158 4.88404 0
M  V30 23230 C 2053.12 6.60234 3.96415 0
M  V30 23231 C 2052.39 7.08259 2.72856 0
M  V30 23232 O 2052.18 5.9427 1.83651 0
M  V30 23233 C 2050.99 7.64886 2.9555 0
M  V30 23234 O 2050.6 8.53963 1.90717 0
M  V30 23235 C 2050.11 6.4116 2.90739 0
M  V30 23236 C 2050.82 5.55375 1.86963 0
M  V30 23237 N 2050.77 4.09664 2.15742 0
M  V30 23238 H 2053.61 7.45574 4.45629 0
M  V30 23239 H 2053.88 5.86232 3.67314 0
M  V30 23240 H 2053.01 7.84412 2.24479 0
M  V30 23241 P 2049.05 8.7635 1.60911 0
M  V30 23242 O 2048.83 10.1388 1.11561 0
M  V30 23243 O 2048.26 8.36503 2.79617 0
M  V30 23244 O 2048.8 7.71806 0.42951 0
M  V30 23245 C 2049.74 7.67148 -0.673689 0
M  V30 23246 C 2049.01 7.33374 -1.95559 0
M  V30 23247 O 2048.8 5.88721 -2.00726 0
M  V30 23248 C 2047.61 7.92526 -2.10483 0
M  V30 23249 O 2047.22 8.02971 -3.47653 0
M  V30 23250 C 2046.73 6.89602 -1.41652 0
M  V30 23251 C 2047.44 5.59201 -1.75185 0
M  V30 23252 N 2047.39 4.58235 -0.662552 0
M  V30 23253 H 2050.23 8.65116 -0.777161 0
M  V30 23254 H 2050.5 6.90173 -0.474152 0
M  V30 23255 H 2049.63 7.66548 -2.79458 0
M  V30 23256 P 2045.67 8.03563 -3.84925 0
M  V30 23257 O 2045.45 8.85821 -5.0569 0
M  V30 23258 O 2044.88 8.41101 -2.65469 0
M  V30 23259 O 2045.42 6.4965 -4.18908 0
M  V30 23260 C 2046.36 5.81037 -5.05421 0
M  V30 23261 C 2045.63 4.78366 -5.89277 0
M  V30 23262 O 2045.42 3.58302 -5.08433 0
M  V30 23263 C 2044.23 5.17448 -6.36119 0
M  V30 23264 O 2043.84 4.45271 -7.53232 0
M  V30 23265 C 2043.35 4.74639 -5.19936 0
M  V30 23266 C 2044.06 3.49432 -4.70418 0
M  V30 23267 N 2044.01 3.31776 -3.22945 0
M  V30 23268 H 2046.85 6.54213 -5.71376 0
M  V30 23269 H 2047.12 5.30492 -4.44033 0
M  V30 23270 H 2046.25 4.55889 -6.76652 0
M  V30 23271 P 2042.29 4.23843 -7.83734 0
M  V30 23272 O 2042.07 4.19407 -9.29784 0
M  V30 23273 O 2041.5 5.24426 -7.09156 0
M  V30 23274 O 2042.04 2.7935 -7.20758 0
M  V30 23275 C 2042.98 1.7299 -7.50419 0
M  V30 23276 C 2042.25 0.406376 -7.57911 0
M  V30 23277 O 2042.04 -0.0897726 -6.21935 0
M  V30 23278 C 2040.85 0.447224 -8.1878 0
M  V30 23279 O 2040.46 -0.825065 -8.71101 0
M  V30 23280 C 2039.97 0.783801 -6.99623 0
M  V30 23281 C 2040.68 0.0619192 -5.85967 0
M  V30 23282 N 2040.63 0.7859 -4.56281 0
M  V30 23283 C 2040.71 2.14308 -4.31736 0
M  V30 23284 N 2040.63 2.46106 -3.05116 0
M  V30 23285 C 2040.49 1.23422 -2.4014 0
M  V30 23286 C 2040.36 0.938381 -1.02409 0
M  V30 23287 N 2040.24 -0.444647 -0.805413 0
M  V30 23288 C 2040.24 -1.40829 -1.79435 0
M  V30 23289 N 2040.11 -2.67213 -1.38558 0
M  V30 23290 N 2040.37 -1.12947 -3.09005 0
M  V30 23291 C 2040.49 0.204887 -3.32369 0
M  V30 23292 H 2043.47 1.93423 -8.4679 0
M  V30 23293 H 2043.74 1.68181 -6.71046 0
M  V30 23294 H 2042.87 -0.289041 -8.15388 0
M  V30 23295 P 2038.91 -1.17771 -8.83182 0
M  V30 23296 O 2038.69 -2.07206 -9.98732 0
M  V30 23297 O 2038.12 0.0743816 -8.81969 0
M  V30 23298 O 2038.66 -1.97652 -7.47304 0
M  V30 23299 C 2039.6 -3.01133 -7.08783 0
M  V30 23300 C 2038.87 -4.12613 -6.37049 0
M  V30 23301 O 2038.66 -3.72827 -4.97879 0
M  V30 23302 C 2037.47 -4.45085 -6.88694 0
M  V30 23303 O 2037.08 -5.7877 -6.5624 0
M  V30 23304 C 2036.59 -3.47817 -6.12078 0
M  V30 23305 C 2037.3 -3.39414 -4.77697 0
M  V30 23306 N 2037.25 -2.04615 -4.15333 0
M  V30 23307 H 2040.09 -3.41248 -7.98759 0
M  V30 23308 H 2040.36 -2.5837 -6.41742 0
M  V30 23309 H 2039.49 -5.02657 -6.42673 0
M  V30 23310 P 2035.53 -6.144 -6.45285 0
M  V30 23311 O 2035.31 -7.54673 -6.86199 0
M  V30 23312 O 2034.74 -5.12391 -7.179 0
M  V30 23313 O 2035.28 -5.99158 -4.88404 0
M  V30 23314 C 2036.22 -6.60234 -3.96415 0
M  V30 23315 C 2035.49 -7.08259 -2.72856 0
M  V30 23316 O 2035.28 -5.9427 -1.83651 0
M  V30 23317 C 2034.09 -7.64886 -2.9555 0
M  V30 23318 O 2033.7 -8.53963 -1.90717 0
M  V30 23319 C 2033.21 -6.4116 -2.90739 0
M  V30 23320 C 2033.92 -5.55375 -1.86963 0
M  V30 23321 N 2033.87 -4.09664 -2.15742 0
M  V30 23322 H 2036.71 -7.45574 -4.45629 0
M  V30 23323 H 2036.98 -5.86232 -3.67314 0
M  V30 23324 H 2036.11 -7.84412 -2.24479 0
M  V30 23325 P 2032.15 -8.7635 -1.60911 0
M  V30 23326 O 2031.93 -10.1388 -1.11561 0
M  V30 23327 O 2031.36 -8.36503 -2.79617 0
M  V30 23328 O 2031.9 -7.71806 -0.42951 0
M  V30 23329 C 2032.84 -7.67148 0.673689 0
M  V30 23330 C 2032.11 -7.33374 1.95559 0
M  V30 23331 O 2031.9 -5.88721 2.00726 0
M  V30 23332 C 2030.71 -7.92526 2.10483 0
M  V30 23333 O 2030.32 -8.02971 3.47653 0
M  V30 23334 C 2029.83 -6.89602 1.41652 0
M  V30 23335 C 2030.54 -5.59201 1.75185 0
M  V30 23336 N 2030.49 -4.58235 0.662552 0
M  V30 23337 H 2033.33 -8.65116 0.777161 0
M  V30 23338 H 2033.6 -6.90173 0.474152 0
M  V30 23339 H 2032.73 -7.66548 2.79458 0
M  V30 23340 P 2028.77 -8.03563 3.84925 0
M  V30 23341 O 2028.55 -8.85821 5.0569 0
M  V30 23342 O 2027.98 -8.41101 2.65469 0
M  V30 23343 O 2028.52 -6.4965 4.18908 0
M  V30 23344 C 2029.46 -5.81037 5.05421 0
M  V30 23345 C 2028.73 -4.78366 5.89277 0
M  V30 23346 O 2028.52 -3.58302 5.08433 0
M  V30 23347 C 2027.33 -5.17448 6.36119 0
M  V30 23348 O 2026.94 -4.45271 7.53232 0
M  V30 23349 C 2026.45 -4.74639 5.19936 0
M  V30 23350 C 2027.16 -3.49432 4.70418 0
M  V30 23351 N 2027.11 -3.32099 3.22613 0
M  V30 23352 H 2029.95 -6.54213 5.71376 0
M  V30 23353 H 2030.22 -5.30936 4.43503 0
M  V30 23354 H 2029.35 -4.55889 6.76652 0
M  V30 23355 H 2026.7 -2.61715 5.17932 0
M  V30 23356 H 2026.42 -5.52155 4.41878 0
M  V30 23357 H 2025.43 -4.51981 5.53374 0
M  V30 23358 H 2027.26 -6.25124 6.55234 0
M  V30 23359 P 2025.39 -4.23843 7.83734 0
M  V30 23360 O 2025.17 -4.19407 9.29784 0
M  V30 23361 O 2024.6 -5.24426 7.09156 0
M  V30 23362 O 2025.14 -2.7935 7.20758 0
M  V30 23363 C 2026.08 -1.72945 7.50224 0
M  V30 23364 C 2025.35 -0.406376 7.57911 0
M  V30 23365 O 2025.14 0.0897726 6.21935 0
M  V30 23366 C 2023.95 -0.438983 8.18724 0
M  V30 23367 O 2023.56 0.825065 8.71101 0
M  V30 23368 C 2023.07 -0.783689 6.99524 0
M  V30 23369 C 2023.78 -0.0619086 5.85867 0
M  V30 23370 N 2023.73 -0.78573 4.56183 0
M  V30 23371 C 2023.58 -0.0292889 3.41887 0
M  V30 23372 O 2023.49 1.18445 3.4419 0
M  V30 23373 N 2023.54 -0.744061 2.23964 0
M  V30 23374 C 2023.63 -2.10932 2.10362 0
M  V30 23375 C 2023.78 -2.8202 3.34994 0
M  V30 23376 C 2023.83 -2.15547 4.52261 0
M  V30 23377 H 2026.57 -1.93379 8.46595 0
M  V30 23378 H 2026.84 -1.68132 6.70852 0
M  V30 23379 H 2025.97 0.289041 8.15388 0
M  V30 23380 H 2023.32 0.926847 5.72749 0
M  V30 23381 H 2023.04 -1.86973 6.82036 0
M  V30 23382 H 2022.05 -0.403896 7.13257 0
M  V30 23383 H 2023.88 -1.20585 8.97435 0
M  V30 23384 H 2023.95 -2.71231 5.45042 0
M  V30 23385 P 2022.01 1.17771 8.83182 0
M  V30 23386 O 2021.79 2.07206 9.98732 0
M  V30 23387 O 2021.22 -0.0743816 8.81969 0
M  V30 23388 O 2021.76 1.97652 7.47304 0
M  V30 23389 C 2022.7 3.01133 7.08783 0
M  V30 23390 C 2021.97 4.12613 6.37049 0
M  V30 23391 O 2021.76 3.72827 4.97879 0
M  V30 23392 C 2020.57 4.45085 6.88694 0
M  V30 23393 O 2020.18 5.7877 6.5624 0
M  V30 23394 C 2019.69 3.47817 6.12078 0
M  V30 23395 C 2020.4 3.39414 4.77697 0
M  V30 23396 N 2020.35 2.04615 4.15333 0
M  V30 23397 H 2023.19 3.41248 7.98759 0
M  V30 23398 H 2023.46 2.5837 6.41742 0
M  V30 23399 H 2022.59 5.02657 6.42673 0
M  V30 23400 P 2018.63 6.144 6.45285 0
M  V30 23401 O 2018.41 7.54673 6.86199 0
M  V30 23402 O 2017.84 5.12391 7.179 0
M  V30 23403 O 2018.38 5.99158 4.88404 0
M  V30 23404 C 2019.32 6.60234 3.96415 0
M  V30 23405 C 2018.59 7.08259 2.72856 0
M  V30 23406 O 2018.38 5.9427 1.83651 0
M  V30 23407 C 2017.19 7.64886 2.9555 0
M  V30 23408 O 2016.8 8.53963 1.90717 0
M  V30 23409 C 2016.31 6.4116 2.90739 0
M  V30 23410 C 2017.02 5.55375 1.86963 0
M  V30 23411 N 2016.97 4.09664 2.15742 0
M  V30 23412 H 2019.81 7.45574 4.45629 0
M  V30 23413 H 2020.08 5.86232 3.67314 0
M  V30 23414 H 2019.21 7.84412 2.24479 0
M  V30 23415 P 2015.25 8.7635 1.60911 0
M  V30 23416 O 2015.03 10.1388 1.11561 0
M  V30 23417 O 2014.46 8.36503 2.79617 0
M  V30 23418 O 2015 7.71806 0.42951 0
M  V30 23419 C 2015.94 7.67148 -0.673689 0
M  V30 23420 C 2015.21 7.33374 -1.95559 0
M  V30 23421 O 2015 5.88721 -2.00726 0
M  V30 23422 C 2013.81 7.92526 -2.10483 0
M  V30 23423 O 2013.42 8.02971 -3.47653 0
M  V30 23424 C 2012.93 6.89602 -1.41652 0
M  V30 23425 C 2013.64 5.59201 -1.75185 0
M  V30 23426 N 2013.59 4.58235 -0.662552 0
M  V30 23427 H 2016.43 8.65116 -0.777161 0
M  V30 23428 H 2016.7 6.90173 -0.474152 0
M  V30 23429 H 2015.83 7.66548 -2.79458 0
M  V30 23430 P 2011.87 8.03563 -3.84925 0
M  V30 23431 O 2011.65 8.85821 -5.0569 0
M  V30 23432 O 2011.08 8.41101 -2.65469 0
M  V30 23433 O 2011.62 6.4965 -4.18908 0
M  V30 23434 C 2012.56 5.81037 -5.05421 0
M  V30 23435 C 2011.83 4.78366 -5.89277 0
M  V30 23436 O 2011.62 3.58302 -5.08433 0
M  V30 23437 C 2010.43 5.17448 -6.36119 0
M  V30 23438 O 2010.04 4.45271 -7.53232 0
M  V30 23439 C 2009.55 4.74639 -5.19936 0
M  V30 23440 C 2010.26 3.49432 -4.70418 0
M  V30 23441 N 2010.21 3.31776 -3.22945 0
M  V30 23442 H 2013.05 6.54213 -5.71376 0
M  V30 23443 H 2013.32 5.30492 -4.44033 0
M  V30 23444 H 2012.45 4.55889 -6.76652 0
M  V30 23445 P 2008.49 4.23843 -7.83734 0
M  V30 23446 O 2008.27 4.19407 -9.29784 0
M  V30 23447 O 2007.7 5.24426 -7.09156 0
M  V30 23448 O 2008.24 2.7935 -7.20758 0
M  V30 23449 C 2009.18 1.7299 -7.50419 0
M  V30 23450 C 2008.45 0.406376 -7.57911 0
M  V30 23451 O 2008.24 -0.0897726 -6.21935 0
M  V30 23452 C 2007.05 0.447224 -8.1878 0
M  V30 23453 O 2006.66 -0.825065 -8.71101 0
M  V30 23454 C 2006.17 0.783801 -6.99623 0
M  V30 23455 C 2006.88 0.0619192 -5.85967 0
M  V30 23456 N 2006.83 0.7859 -4.56281 0
M  V30 23457 H 2009.67 1.93423 -8.4679 0
M  V30 23458 H 2009.94 1.68181 -6.71046 0
M  V30 23459 H 2009.07 -0.289041 -8.15388 0
M  V30 23460 P 2005.11 -1.17771 -8.83182 0
M  V30 23461 O 2004.89 -2.07206 -9.98732 0
M  V30 23462 O 2004.32 0.0743816 -8.81969 0
M  V30 23463 O 2004.86 -1.97652 -7.47304 0
M  V30 23464 C 2005.8 -3.01055 -7.08599 0
M  V30 23465 C 2005.07 -4.12613 -6.37049 0
M  V30 23466 O 2004.86 -3.72827 -4.97879 0
M  V30 23467 C 2003.67 -4.45719 -6.88164 0
M  V30 23468 O 2003.28 -5.7877 -6.5624 0
M  V30 23469 C 2002.79 -3.47768 -6.11991 0
M  V30 23470 C 2003.5 -3.39356 -4.77615 0
M  V30 23471 N 2003.45 -2.04571 -4.15244 0
M  V30 23472 C 2003.3 -1.98587 -2.78314 0
M  V30 23473 O 2003.21 -2.98134 -2.08835 0
M  V30 23474 N 2003.26 -0.714467 -2.24925 0
M  V30 23475 C 2003.35 0.470001 -2.94169 0
M  V30 23476 O 2003.3 1.55587 -2.35195 0
M  V30 23477 C 2003.5 0.312541 -4.36783 0
M  V30 23478 C 2003.61 1.57711 -5.16352 0
M  V30 23479 C 2003.55 -0.914512 -4.92583 0
M  V30 23480 H 2006.29 -3.41169 -7.98575 0
M  V30 23481 H 2006.56 -2.58295 -6.41556 0
M  V30 23482 H 2005.69 -5.02657 -6.42673 0
M  V30 23483 H 2003.04 -4.11637 -4.08885 0
M  V30 23484 H 2002.76 -2.49626 -6.61679 0
M  V30 23485 H 2001.77 -3.86566 -6.00778 0
M  V30 23486 H 2003.6 -4.29943 -7.96918 0
M  V30 23487 H 2003.67 -1.00937 -6.00374 0
M  V30 23488 H 2002.64 1.80153 -5.63503 0
M  V30 23489 H 2004.38 1.4566 -5.94104 0
M  V30 23490 H 2003.89 2.40664 -4.49645 0
M  V30 23491 H 2003.15 -0.647622 -1.25697 0
M  V30 23492 P 2001.73 -6.144 -6.45285 0
M  V30 23493 O 2001.51 -7.54673 -6.86199 0
M  V30 23494 O 2000.94 -5.12391 -7.179 0
M  V30 23495 O 2001.48 -5.99158 -4.88404 0
M  V30 23496 C 2002.42 -6.60234 -3.96415 0
M  V30 23497 C 2001.69 -7.08259 -2.72856 0
M  V30 23498 O 2001.48 -5.9427 -1.83651 0
M  V30 23499 C 2000.29 -7.64886 -2.9555 0
M  V30 23500 O 1999.9 -8.53963 -1.90717 0
M  V30 23501 C 1999.41 -6.4116 -2.90739 0
M  V30 23502 C 2000.12 -5.55375 -1.86963 0
M  V30 23503 N 2000.07 -4.09664 -2.15742 0
M  V30 23504 H 2002.91 -7.45574 -4.45629 0
M  V30 23505 H 2003.18 -5.86232 -3.67314 0
M  V30 23506 H 2002.31 -7.84412 -2.24479 0
M  V30 23507 P 1998.35 -8.7635 -1.60911 0
M  V30 23508 O 1998.13 -10.1388 -1.11561 0
M  V30 23509 O 1997.56 -8.36503 -2.79617 0
M  V30 23510 O 1998.1 -7.71806 -0.42951 0
M  V30 23511 C 1999.04 -7.67148 0.673689 0
M  V30 23512 C 1998.31 -7.33374 1.95559 0
M  V30 23513 O 1998.1 -5.88721 2.00726 0
M  V30 23514 C 1996.91 -7.92526 2.10483 0
M  V30 23515 O 1996.52 -8.02971 3.47653 0
M  V30 23516 C 1996.03 -6.89602 1.41652 0
M  V30 23517 C 1996.74 -5.59201 1.75185 0
M  V30 23518 N 1996.69 -4.58235 0.662552 0
M  V30 23519 H 1999.53 -8.65116 0.777161 0
M  V30 23520 H 1999.8 -6.90173 0.474152 0
M  V30 23521 H 1998.93 -7.66548 2.79458 0
M  V30 23522 P 1994.97 -8.03563 3.84925 0
M  V30 23523 O 1994.75 -8.85821 5.0569 0
M  V30 23524 O 1994.18 -8.41101 2.65469 0
M  V30 23525 O 1994.72 -6.49734 4.18962 0
M  V30 23526 C 1995.66 -5.81037 5.05421 0
M  V30 23527 C 1994.93 -4.79018 5.88876 0
M  V30 23528 O 1994.72 -3.58359 5.08515 0
M  V30 23529 C 1993.53 -5.17448 6.36119 0
M  V30 23530 O 1993.14 -4.45322 7.53318 0
M  V30 23531 C 1992.65 -4.74639 5.19936 0
M  V30 23532 C 1993.36 -3.49432 4.70418 0
M  V30 23533 N 1993.31 -3.31776 3.22945 0
M  V30 23534 C 1993.16 -2.02742 2.72939 0
M  V30 23535 O 1993.07 -1.08301 3.52749 0
M  V30 23536 N 1993.11 -1.96117 1.22063 0
M  V30 23537 C 1993.21 -2.8878 0.551566 0
M  V30 23538 N 1993.16 -2.65609 -0.750198 0
M  V30 23539 C 1993.36 -4.22457 1.03707 0
M  V30 23540 C 1993.41 -4.37979 2.39113 0
M  V30 23541 H 1996.15 -6.54138 5.7131 0
M  V30 23542 H 1996.42 -5.30492 4.44033 0
M  V30 23543 H 1995.55 -4.55945 6.76735 0
M  V30 23544 H 1992.9 -2.6176 5.18021 0
M  V30 23545 H 1992.62 -5.52233 4.41941 0
M  V30 23546 H 1991.63 -4.52045 5.53452 0
M  V30 23547 H 1993.46 -6.25124 6.55234 0
M  V30 23548 H 1993.53 -5.37936 2.80552 0
M  V30 23549 H 1993.43 -5.07528 0.359553 0
M  V30 23550 H 1993.04 -1.69403 -1.09847 0
M  V30 23551 H 1993.24 -3.43701 -1.41792 0
M  V30 23552 P 1991.59 -4.23843 7.83734 0
M  V30 23553 O 1991.37 -4.19407 9.29784 0
M  V30 23554 O 1990.8 -5.24426 7.09156 0
M  V30 23555 O 1991.34 -2.7935 7.20758 0
M  V30 23556 C 1992.28 -1.7299 7.50419 0
M  V30 23557 C 1991.55 -0.406376 7.57911 0
M  V30 23558 O 1991.34 0.0897726 6.21935 0
M  V30 23559 C 1990.15 -0.447224 8.1878 0
M  V30 23560 O 1989.76 0.825065 8.71101 0
M  V30 23561 C 1989.27 -0.783801 6.99623 0
M  V30 23562 C 1989.98 -0.0619192 5.85967 0
M  V30 23563 N 1989.93 -0.7859 4.56281 0
M  V30 23564 H 1992.77 -1.93423 8.4679 0
M  V30 23565 H 1993.04 -1.68181 6.71046 0
M  V30 23566 H 1992.17 0.289041 8.15388 0
M  V30 23567 P 1988.21 1.17771 8.83182 0
M  V30 23568 O 1987.99 2.07206 9.98732 0
M  V30 23569 O 1987.42 -0.0743816 8.81969 0
M  V30 23570 O 1987.96 1.97652 7.47304 0
M  V30 23571 C 1988.9 3.01133 7.08783 0
M  V30 23572 C 1988.17 4.12613 6.37049 0
M  V30 23573 O 1987.96 3.72827 4.97879 0
M  V30 23574 C 1986.77 4.45085 6.88694 0
M  V30 23575 O 1986.38 5.7877 6.5624 0
M  V30 23576 C 1985.89 3.47817 6.12078 0
M  V30 23577 C 1986.6 3.39414 4.77697 0
M  V30 23578 N 1986.55 2.04199 4.15538 0
M  V30 23579 C 1986.63 0.821545 4.76977 0
M  V30 23580 N 1986.56 -0.1794 3.94592 0
M  V30 23581 C 1986.41 0.419121 2.70776 0
M  V30 23582 C 1986.28 -0.109072 1.40577 0
M  V30 23583 N 1986.27 -1.4104 1.1344 0
M  V30 23584 N 1986.16 0.764381 0.39411 0
M  V30 23585 C 1986.17 2.06587 0.664135 0
M  V30 23586 N 1986.29 2.67948 1.82153 0
M  V30 23587 C 1986.41 1.77942 2.8147 0
M  V30 23588 H 1989.39 3.41248 7.98759 0
M  V30 23589 H 1989.66 2.57728 6.42 0
M  V30 23590 H 1988.79 5.02657 6.42673 0
M  V30 23591 H 1986.14 4.11708 4.08956 0
M  V30 23592 H 1985.86 2.49626 6.61679 0
M  V30 23593 H 1984.87 3.8662 6.00862 0
M  V30 23594 H 1986.7 4.29991 7.97006 0
M  V30 23595 H 1986.74 0.702451 5.84696 0
M  V30 23596 H 1986.36 -2.09647 1.89651 0
M  V30 23597 H 1986.17 -1.73358 0.160575 0
M  V30 23598 H 1986.06 2.71695 -0.195838 0
M  V30 23599 P 1984.83 6.144 6.45285 0
M  V30 23600 O 1984.61 7.54673 6.86199 0
M  V30 23601 O 1984.04 5.12391 7.179 0
M  V30 23602 O 1984.58 5.99158 4.88404 0
M  V30 23603 C 1985.52 6.60234 3.96415 0
M  V30 23604 C 1984.79 7.08259 2.72856 0
M  V30 23605 O 1984.58 5.9427 1.83651 0
M  V30 23606 C 1983.39 7.64886 2.9555 0
M  V30 23607 O 1983 8.53963 1.90717 0
M  V30 23608 C 1982.51 6.4116 2.90739 0
M  V30 23609 C 1983.22 5.55375 1.86963 0
M  V30 23610 N 1983.17 4.09448 2.16152 0
M  V30 23611 C 1983.25 3.46824 3.37593 0
M  V30 23612 N 1983.18 2.17422 3.29777 0
M  V30 23613 C 1983.03 1.93065 1.94427 0
M  V30 23614 C 1982.9 0.738053 1.20141 0
M  V30 23615 N 1982.89 -0.474256 1.74676 0
M  V30 23616 N 1982.78 0.850049 -0.13045 0
M  V30 23617 C 1982.79 2.06169 -0.676992 0
M  V30 23618 N 1982.91 3.23842 -0.101312 0
M  V30 23619 C 1983.03 3.09402 1.23122 0
M  V30 23620 H 1986.01 7.45574 4.45629 0
M  V30 23621 H 1986.28 5.85864 3.679 0
M  V30 23622 H 1985.41 7.84412 2.24479 0
M  V30 23623 H 1982.76 5.73457 0.888562 0
M  V30 23624 H 1982.48 5.90877 3.88583 0
M  V30 23625 H 1981.49 6.6596 2.58858 0
M  V30 23626 H 1983.32 8.16339 3.92049 0
M  V30 23627 H 1983.36 4.00505 4.3174 0
M  V30 23628 H 1982.98 -0.581337 2.76658 0
M  V30 23629 H 1982.79 -1.30811 1.14888 0
M  V30 23630 H 1982.68 2.08295 -1.75542 0
M  V30 23631 P 1981.45 8.7635 1.60911 0
M  V30 23632 O 1981.23 10.1388 1.11561 0
M  V30 23633 O 1980.66 8.36503 2.79617 0
M  V30 23634 O 1981.2 7.71806 0.42951 0
M  V30 23635 C 1982.14 7.67148 -0.673689 0
M  V30 23636 C 1981.41 7.33374 -1.95559 0
M  V30 23637 O 1981.2 5.88721 -2.00726 0
M  V30 23638 C 1980.01 7.92526 -2.10483 0
M  V30 23639 O 1979.62 8.02971 -3.47653 0
M  V30 23640 C 1979.13 6.89602 -1.41652 0
M  V30 23641 C 1979.84 5.59201 -1.75185 0
M  V30 23642 N 1979.79 4.58235 -0.662552 0
M  V30 23643 H 1982.63 8.65116 -0.777161 0
M  V30 23644 H 1982.9 6.90173 -0.474152 0
M  V30 23645 H 1982.03 7.66548 -2.79458 0
M  V30 23646 P 1978.07 8.03563 -3.84925 0
M  V30 23647 O 1977.85 8.85821 -5.0569 0
M  V30 23648 O 1977.28 8.41101 -2.65469 0
M  V30 23649 O 1977.82 6.4965 -4.18908 0
M  V30 23650 C 1978.76 5.80886 -5.05289 0
M  V30 23651 C 1978.03 4.78366 -5.89277 0
M  V30 23652 O 1977.82 3.58302 -5.08433 0
M  V30 23653 C 1976.63 5.16748 -6.36559 0
M  V30 23654 O 1976.24 4.45271 -7.53232 0
M  V30 23655 C 1975.75 4.74572 -5.19863 0
M  V30 23656 C 1976.46 3.49373 -4.70338 0
M  V30 23657 N 1976.41 3.31704 -3.22876 0
M  V30 23658 C 1976.26 2.03326 -2.74871 0
M  V30 23659 O 1976.17 1.06486 -3.48076 0
M  V30 23660 N 1976.22 1.91838 -1.37456 0
M  V30 23661 C 1976.31 2.94295 -0.462035 0
M  V30 23662 O 1976.26 2.71763 0.752928 0
M  V30 23663 C 1976.46 4.25064 -1.05249 0
M  V30 23664 C 1976.57 5.39815 -0.095697 0
M  V30 23665 C 1976.51 4.40214 -2.39192 0
M  V30 23666 H 1979.25 6.54063 -5.71245 0
M  V30 23667 H 1979.52 5.30339 -4.43905 0
M  V30 23668 H 1978.65 4.55889 -6.76652 0
M  V30 23669 H 1976 2.6167 -5.17842 0
M  V30 23670 H 1975.72 5.52155 -4.41878 0
M  V30 23671 H 1974.73 4.51918 -5.53297 0
M  V30 23672 H 1976.56 6.25055 -6.55162 0
M  V30 23673 H 1976.63 5.39798 -2.81523 0
M  V30 23674 H 1975.6 5.91593 -0.0279582 0
M  V30 23675 H 1977.34 6.10038 -0.450573 0
M  V30 23676 H 1976.85 5.02007 0.89937 0
M  V30 23677 H 1976.11 0.995326 -1.00435 0
M  V30 23678 P 1974.69 4.23843 -7.83734 0
M  V30 23679 O 1974.47 4.19407 -9.29784 0
M  V30 23680 O 1973.9 5.24426 -7.09156 0
M  V30 23681 O 1974.44 2.7935 -7.20758 0
M  V30 23682 C 1975.38 1.7299 -7.50419 0
M  V30 23683 C 1974.65 0.406376 -7.57911 0
M  V30 23684 O 1974.44 -0.0897726 -6.21935 0
M  V30 23685 C 1973.25 0.447224 -8.1878 0
M  V30 23686 O 1972.86 -0.825065 -8.71101 0
M  V30 23687 C 1972.37 0.783801 -6.99623 0
M  V30 23688 C 1973.08 0.0619192 -5.85967 0
M  V30 23689 N 1973.03 0.790462 -4.56202 0
M  V30 23690 C 1973.11 2.13895 -4.34171 0
M  V30 23691 N 1973.04 2.46449 -3.08687 0
M  V30 23692 C 1972.89 1.2525 -2.43697 0
M  V30 23693 C 1972.76 0.914535 -1.07318 0
M  V30 23694 N 1972.75 1.80782 -0.0887348 0
M  V30 23695 N 1972.64 -0.386745 -0.768133 0
M  V30 23696 C 1972.65 -1.28096 -1.75159 0
M  V30 23697 N 1972.77 -1.09708 -3.04861 0
M  V30 23698 C 1972.89 0.214857 -3.32306 0
M  V30 23699 H 1975.87 1.93423 -8.4679 0
M  V30 23700 H 1976.14 1.68852 -6.70877 0
M  V30 23701 H 1975.27 -0.289041 -8.15388 0
M  V30 23702 H 1972.62 -0.927006 -5.72848 0
M  V30 23703 H 1972.34 1.86973 -6.82036 0
M  V30 23704 H 1971.35 0.403953 -7.13357 0
M  V30 23705 H 1973.18 1.20599 -8.97534 0
M  V30 23706 H 1973.22 2.86846 -5.14318 0
M  V30 23707 H 1972.84 2.81082 -0.302037 0
M  V30 23708 H 1972.65 1.49688 0.889064 0
M  V30 23709 H 1972.54 -2.31317 -1.43855 0
M  V30 23710 P 1971.31 -1.17771 -8.83182 0
M  V30 23711 O 1971.09 -2.07206 -9.98732 0
M  V30 23712 O 1970.52 0.0743816 -8.81969 0
M  V30 23713 O 1971.06 -1.97652 -7.47304 0
M  V30 23714 C 1972 -3.01055 -7.08599 0
M  V30 23715 C 1971.27 -4.12613 -6.37049 0
M  V30 23716 O 1971.06 -3.72827 -4.97879 0
M  V30 23717 C 1969.87 -4.45719 -6.88164 0
M  V30 23718 O 1969.48 -5.7877 -6.5624 0
M  V30 23719 C 1968.99 -3.47768 -6.11991 0
M  V30 23720 C 1969.7 -3.39356 -4.77615 0
M  V30 23721 N 1969.65 -2.04571 -4.15244 0
M  V30 23722 C 1969.5 -1.98587 -2.78314 0
M  V30 23723 O 1969.41 -2.98134 -2.08835 0
M  V30 23724 N 1969.46 -0.714467 -2.24925 0
M  V30 23725 C 1969.55 0.470001 -2.94169 0
M  V30 23726 O 1969.5 1.55587 -2.35195 0
M  V30 23727 C 1969.7 0.312541 -4.36783 0
M  V30 23728 C 1969.81 1.57711 -5.16352 0
M  V30 23729 C 1969.75 -0.914512 -4.92583 0
M  V30 23730 H 1972.49 -3.41169 -7.98575 0
M  V30 23731 H 1972.76 -2.58295 -6.41556 0
M  V30 23732 H 1971.89 -5.02657 -6.42673 0
M  V30 23733 H 1969.24 -4.11637 -4.08885 0
M  V30 23734 H 1968.96 -2.49626 -6.61679 0
M  V30 23735 H 1967.97 -3.86566 -6.00778 0
M  V30 23736 H 1969.8 -4.29943 -7.96918 0
M  V30 23737 H 1969.87 -1.00937 -6.00374 0
M  V30 23738 H 1968.84 1.80153 -5.63503 0
M  V30 23739 H 1970.58 1.4566 -5.94104 0
M  V30 23740 H 1970.09 2.40664 -4.49645 0
M  V30 23741 H 1969.35 -0.647622 -1.25697 0
M  V30 23742 P 1967.93 -6.144 -6.45285 0
M  V30 23743 O 1967.71 -7.54673 -6.86199 0
M  V30 23744 O 1967.14 -5.12391 -7.179 0
M  V30 23745 O 1967.68 -5.99158 -4.88404 0
M  V30 23746 C 1968.62 -6.60234 -3.96415 0
M  V30 23747 C 1967.89 -7.08259 -2.72856 0
M  V30 23748 O 1967.68 -5.9427 -1.83651 0
M  V30 23749 C 1966.49 -7.64886 -2.9555 0
M  V30 23750 O 1966.1 -8.53963 -1.90717 0
M  V30 23751 C 1965.61 -6.4116 -2.90739 0
M  V30 23752 C 1966.32 -5.55375 -1.86963 0
M  V30 23753 N 1966.27 -4.09664 -2.15742 0
M  V30 23754 H 1969.11 -7.45574 -4.45629 0
M  V30 23755 H 1969.38 -5.86232 -3.67314 0
M  V30 23756 H 1968.51 -7.84412 -2.24479 0
M  V30 23757 P 1964.55 -8.7635 -1.60911 0
M  V30 23758 O 1964.33 -10.1388 -1.11561 0
M  V30 23759 O 1963.76 -8.36503 -2.79617 0
M  V30 23760 O 1964.3 -7.71806 -0.42951 0
M  V30 23761 C 1965.24 -7.66948 0.673514 0
M  V30 23762 C 1964.51 -7.33374 1.95559 0
M  V30 23763 O 1964.3 -5.88721 2.00726 0
M  V30 23764 C 1963.11 -7.92218 2.1125 0
M  V30 23765 O 1962.72 -8.02971 3.47653 0
M  V30 23766 C 1962.23 -6.89504 1.41631 0
M  V30 23767 C 1962.94 -5.59106 1.75155 0
M  V30 23768 N 1962.89 -4.58136 0.662409 0
M  V30 23769 C 1962.74 -3.26059 1.02863 0
M  V30 23770 O 1962.65 -2.90743 2.19009 0
M  V30 23771 N 1962.7 -2.35995 -0.0155585 0
M  V30 23772 C 1962.79 -2.65248 -1.35603 0
M  V30 23773 C 1962.94 -4.05747 -1.64698 0
M  V30 23774 C 1962.99 -4.96734 -0.652411 0
M  V30 23775 H 1965.73 -8.64917 0.776982 0
M  V30 23776 H 1966 -6.89974 0.474015 0
M  V30 23777 H 1965.13 -7.66548 2.79458 0
M  V30 23778 H 1962.48 -5.16076 2.65138 0
M  V30 23779 H 1962.2 -7.06433 0.329384 0
M  V30 23780 H 1961.21 -6.90829 1.81996 0
M  V30 23781 H 1963.04 -8.90774 1.62639 0
M  V30 23782 H 1963.11 -6.02181 -0.895285 0
M  V30 23783 P 1961.17 -8.03563 3.84925 0
M  V30 23784 O 1960.95 -8.85821 5.0569 0
M  V30 23785 O 1960.38 -8.41101 2.65469 0
M  V30 23786 O 1960.92 -6.4965 4.18908 0
M  V30 23787 C 1961.86 -5.81037 5.05421 0
M  V30 23788 C 1961.13 -4.78366 5.89277 0
M  V30 23789 O 1960.92 -3.58302 5.08433 0
M  V30 23790 C 1959.73 -5.17448 6.36119 0
M  V30 23791 O 1959.34 -4.45271 7.53232 0
M  V30 23792 C 1958.85 -4.74639 5.19936 0
M  V30 23793 C 1959.56 -3.49432 4.70418 0
M  V30 23794 N 1959.51 -3.31776 3.22945 0
M  V30 23795 H 1962.35 -6.54213 5.71376 0
M  V30 23796 H 1962.62 -5.30492 4.44033 0
M  V30 23797 H 1961.75 -4.55889 6.76652 0
M  V30 23798 P 1957.79 -4.23843 7.83734 0
M  V30 23799 O 1957.57 -4.19407 9.29784 0
M  V30 23800 O 1957 -5.24426 7.09156 0
M  V30 23801 O 1957.54 -2.7935 7.20758 0
M  V30 23802 C 1958.48 -1.7299 7.50419 0
M  V30 23803 C 1957.75 -0.406376 7.57911 0
M  V30 23804 O 1957.54 0.0897726 6.21935 0
M  V30 23805 C 1956.35 -0.447224 8.1878 0
M  V30 23806 O 1955.96 0.825065 8.71101 0
M  V30 23807 C 1955.47 -0.783801 6.99623 0
M  V30 23808 C 1956.18 -0.0619192 5.85967 0
M  V30 23809 N 1956.13 -0.790462 4.56202 0
M  V30 23810 H 1958.97 -1.93423 8.4679 0
M  V30 23811 H 1959.24 -1.68852 6.70877 0
M  V30 23812 H 1958.37 0.289041 8.15388 0
M  V30 23813 H 1955.72 0.927006 5.72848 0
M  V30 23814 H 1955.44 -1.86973 6.82036 0
M  V30 23815 H 1954.45 -0.403953 7.13357 0
M  V30 23816 H 1956.28 -1.20599 8.97534 0
M  V30 23817 P 1954.41 1.17771 8.83182 0
M  V30 23818 O 1954.19 2.07206 9.98732 0
M  V30 23819 O 1953.62 -0.0743816 8.81969 0
M  V30 23820 O 1954.16 1.97652 7.47304 0
M  V30 23821 C 1955.1 3.01133 7.08783 0
M  V30 23822 C 1954.37 4.12613 6.37049 0
M  V30 23823 O 1954.16 3.72827 4.97879 0
M  V30 23824 C 1952.97 4.45085 6.88694 0
M  V30 23825 O 1952.58 5.7877 6.5624 0
M  V30 23826 C 1952.09 3.47817 6.12078 0
M  V30 23827 C 1952.8 3.39414 4.77697 0
M  V30 23828 N 1952.75 2.04615 4.15333 0
M  V30 23829 C 1952.83 0.803897 4.75249 0
M  V30 23830 N 1952.75 -0.197615 3.91502 0
M  V30 23831 C 1952.61 0.413002 2.66823 0
M  V30 23832 C 1952.48 -0.157221 1.38007 0
M  V30 23833 N 1952.36 0.833136 0.390236 0
M  V30 23834 C 1952.36 2.19402 0.623885 0
M  V30 23835 N 1952.23 2.97622 -0.449677 0
M  V30 23836 N 1952.49 2.73005 1.83601 0
M  V30 23837 C 1952.61 1.78786 2.80935 0
M  V30 23838 H 1955.59 3.41248 7.98759 0
M  V30 23839 H 1955.86 2.5837 6.41742 0
M  V30 23840 H 1954.99 5.02657 6.42673 0
M  V30 23841 P 1951.03 6.144 6.45285 0
M  V30 23842 O 1950.81 7.54673 6.86199 0
M  V30 23843 O 1950.24 5.12391 7.179 0
M  V30 23844 O 1950.78 5.99158 4.88404 0
M  V30 23845 C 1951.72 6.60234 3.96415 0
M  V30 23846 C 1950.99 7.08259 2.72856 0
M  V30 23847 O 1950.78 5.9427 1.83651 0
M  V30 23848 C 1949.59 7.64886 2.9555 0
M  V30 23849 O 1949.2 8.53963 1.90717 0
M  V30 23850 C 1948.71 6.4116 2.90739 0
M  V30 23851 C 1949.42 5.55375 1.86963 0
M  V30 23852 N 1949.37 4.09664 2.15742 0
M  V30 23853 C 1949.45 3.44381 3.37233 0
M  V30 23854 N 1949.37 2.14131 3.28347 0
M  V30 23855 C 1949.23 1.90247 1.91588 0
M  V30 23856 C 1949.1 0.683992 1.20892 0
M  V30 23857 N 1948.98 0.903396 -0.173998 0
M  V30 23858 C 1948.98 2.14171 -0.784879 0
M  V30 23859 N 1948.85 2.1435 -2.11317 0
M  V30 23860 N 1949.11 3.28784 -0.119316 0
M  V30 23861 C 1949.23 3.0977 1.22194 0
M  V30 23862 H 1952.21 7.45574 4.45629 0
M  V30 23863 H 1952.48 5.86232 3.67314 0
M  V30 23864 H 1951.61 7.84412 2.24479 0
M  V30 23865 P 1947.65 8.7635 1.60911 0
M  V30 23866 O 1947.43 10.1388 1.11561 0
M  V30 23867 O 1946.86 8.36503 2.79617 0
M  V30 23868 O 1947.4 7.71806 0.42951 0
M  V30 23869 C 1948.34 7.66948 -0.673514 0
M  V30 23870 C 1947.61 7.33374 -1.95559 0
M  V30 23871 O 1947.4 5.88721 -2.00726 0
M  V30 23872 C 1946.21 7.92218 -2.1125 0
M  V30 23873 O 1945.82 8.02971 -3.47653 0
M  V30 23874 C 1945.33 6.89504 -1.41631 0
M  V30 23875 C 1946.04 5.59106 -1.75155 0
M  V30 23876 N 1945.99 4.58136 -0.662409 0
M  V30 23877 C 1945.84 3.26059 -1.02863 0
M  V30 23878 O 1945.75 2.90743 -2.19009 0
M  V30 23879 N 1945.8 2.35995 0.0155585 0
M  V30 23880 C 1945.89 2.65248 1.35603 0
M  V30 23881 C 1946.04 4.05747 1.64698 0
M  V30 23882 C 1946.09 4.96734 0.652411 0
M  V30 23883 H 1948.83 8.64917 -0.776982 0
M  V30 23884 H 1949.1 6.89974 -0.474015 0
M  V30 23885 H 1948.23 7.66548 -2.79458 0
M  V30 23886 H 1945.58 5.16076 -2.65138 0
M  V30 23887 H 1945.3 7.06433 -0.329384 0
M  V30 23888 H 1944.31 6.90829 -1.81996 0
M  V30 23889 H 1946.14 8.90774 -1.62639 0
M  V30 23890 H 1946.21 6.02181 0.895285 0
M  V30 23891 P 1944.27 8.03563 -3.84925 0
M  V30 23892 O 1944.05 8.85821 -5.0569 0
M  V30 23893 O 1943.48 8.41101 -2.65469 0
M  V30 23894 O 1944.02 6.4965 -4.18908 0
M  V30 23895 C 1944.96 5.81037 -5.05421 0
M  V30 23896 C 1944.23 4.78366 -5.89277 0
M  V30 23897 O 1944.02 3.58302 -5.08433 0
M  V30 23898 C 1942.83 5.17448 -6.36119 0
M  V30 23899 O 1942.44 4.45271 -7.53232 0
M  V30 23900 C 1941.95 4.74639 -5.19936 0
M  V30 23901 C 1942.66 3.49432 -4.70418 0
M  V30 23902 N 1942.61 3.31776 -3.22945 0
M  V30 23903 H 1945.45 6.54213 -5.71376 0
M  V30 23904 H 1945.72 5.30492 -4.44033 0
M  V30 23905 H 1944.85 4.55889 -6.76652 0
M  V30 23906 P 1940.89 4.23843 -7.83734 0
M  V30 23907 O 1940.67 4.19407 -9.29784 0
M  V30 23908 O 1940.1 5.24426 -7.09156 0
M  V30 23909 O 1940.64 2.7935 -7.20758 0
M  V30 23910 C 1941.58 1.7299 -7.50419 0
M  V30 23911 C 1940.85 0.406376 -7.57911 0
M  V30 23912 O 1940.64 -0.0897726 -6.21935 0
M  V30 23913 C 1939.45 0.447224 -8.1878 0
M  V30 23914 O 1939.06 -0.825065 -8.71101 0
M  V30 23915 C 1938.57 0.783801 -6.99623 0
M  V30 23916 C 1939.28 0.0619192 -5.85967 0
M  V30 23917 N 1939.23 0.7859 -4.56281 0
M  V30 23918 H 1942.07 1.93423 -8.4679 0
M  V30 23919 H 1942.34 1.68181 -6.71046 0
M  V30 23920 H 1941.47 -0.289041 -8.15388 0
M  V30 23921 P 1937.51 -1.17771 -8.83182 0
M  V30 23922 O 1937.29 -2.07206 -9.98732 0
M  V30 23923 O 1936.72 0.0743816 -8.81969 0
M  V30 23924 O 1937.26 -1.97652 -7.47304 0
M  V30 23925 C 1938.2 -3.01133 -7.08783 0
M  V30 23926 C 1937.47 -4.12613 -6.37049 0
M  V30 23927 O 1937.26 -3.72827 -4.97879 0
M  V30 23928 C 1936.07 -4.45085 -6.88694 0
M  V30 23929 O 1935.68 -5.7877 -6.5624 0
M  V30 23930 C 1935.19 -3.47817 -6.12078 0
M  V30 23931 C 1935.9 -3.39414 -4.77697 0
M  V30 23932 N 1935.85 -2.04615 -4.15333 0
M  V30 23933 H 1938.69 -3.41248 -7.98759 0
M  V30 23934 H 1938.96 -2.5837 -6.41742 0
M  V30 23935 H 1938.09 -5.02657 -6.42673 0
M  V30 23936 P 1934.13 -6.144 -6.45285 0
M  V30 23937 O 1933.91 -7.54673 -6.86199 0
M  V30 23938 O 1933.34 -5.12391 -7.179 0
M  V30 23939 O 1933.88 -5.99158 -4.88404 0
M  V30 23940 C 1934.82 -6.60234 -3.96415 0
M  V30 23941 C 1934.09 -7.08259 -2.72856 0
M  V30 23942 O 1933.88 -5.9427 -1.83651 0
M  V30 23943 C 1932.69 -7.64886 -2.9555 0
M  V30 23944 O 1932.3 -8.53963 -1.90717 0
M  V30 23945 C 1931.81 -6.4116 -2.90739 0
M  V30 23946 C 1932.52 -5.55375 -1.86963 0
M  V30 23947 N 1932.47 -4.09664 -2.15742 0
M  V30 23948 H 1935.31 -7.45574 -4.45629 0
M  V30 23949 H 1935.58 -5.86232 -3.67314 0
M  V30 23950 H 1934.71 -7.84412 -2.24479 0
M  V30 23951 P 1930.75 -8.7635 -1.60911 0
M  V30 23952 O 1930.53 -10.1388 -1.11561 0
M  V30 23953 O 1929.96 -8.36503 -2.79617 0
M  V30 23954 O 1930.5 -7.71906 -0.429565 0
M  V30 23955 C 1931.44 -7.67148 0.673689 0
M  V30 23956 C 1930.71 -7.33666 1.94851 0
M  V30 23957 O 1930.5 -5.88816 2.00759 0
M  V30 23958 C 1929.31 -7.92526 2.10483 0
M  V30 23959 O 1928.92 -8.03063 3.47693 0
M  V30 23960 C 1928.43 -6.89602 1.41652 0
M  V30 23961 C 1929.14 -5.59201 1.75185 0
M  V30 23962 N 1929.09 -4.58235 0.662552 0
M  V30 23963 C 1928.94 -3.24451 1.01643 0
M  V30 23964 O 1928.85 -2.94958 2.21722 0
M  V30 23965 N 1928.89 -2.30408 -0.165238 0
M  V30 23966 C 1928.99 -2.66048 -1.25118 0
M  V30 23967 N 1928.94 -1.70787 -2.16813 0
M  V30 23968 C 1929.14 -4.02732 -1.64413 0
M  V30 23969 C 1929.19 -4.9488 -0.63991 0
M  V30 23970 H 1931.93 -8.65017 0.777072 0
M  V30 23971 H 1932.2 -6.90173 0.474152 0
M  V30 23972 H 1931.33 -7.66642 2.79492 0
M  V30 23973 H 1928.68 -5.16254 2.65229 0
M  V30 23974 H 1928.4 -7.06532 0.329431 0
M  V30 23975 H 1927.41 -6.91023 1.82047 0
M  V30 23976 H 1929.24 -8.90873 1.62657 0
M  V30 23977 H 1929.31 -6.00104 -0.892197 0
M  V30 23978 H 1929.21 -4.31733 -2.69229 0
M  V30 23979 H 1928.82 -0.724835 -1.8844 0
M  V30 23980 H 1929.02 -1.94716 -3.16734 0
M  V30 23981 P 1927.37 -8.03563 3.84925 0
M  V30 23982 O 1927.15 -8.85821 5.0569 0
M  V30 23983 O 1926.58 -8.41101 2.65469 0
M  V30 23984 O 1927.12 -6.4965 4.18908 0
M  V30 23985 C 1928.06 -5.81037 5.05421 0
M  V30 23986 C 1927.33 -4.78366 5.89277 0
M  V30 23987 O 1927.12 -3.58302 5.08433 0
M  V30 23988 C 1925.93 -5.17448 6.36119 0
M  V30 23989 O 1925.54 -4.45271 7.53232 0
M  V30 23990 C 1925.05 -4.74639 5.19936 0
M  V30 23991 C 1925.76 -3.49432 4.70418 0
M  V30 23992 N 1925.71 -3.31776 3.22945 0
M  V30 23993 H 1928.55 -6.54213 5.71376 0
M  V30 23994 H 1928.82 -5.30492 4.44033 0
M  V30 23995 H 1927.95 -4.55889 6.76652 0
M  V30 23996 P 1923.99 -4.23843 7.83734 0
M  V30 23997 O 1923.77 -4.19407 9.29784 0
M  V30 23998 O 1923.2 -5.24426 7.09156 0
M  V30 23999 O 1923.74 -2.7935 7.20758 0
M  V30 24000 C 1924.68 -1.72945 7.50224 0
M  V30 24001 C 1923.95 -0.406376 7.57911 0
M  V30 24002 O 1923.74 0.0897726 6.21935 0
M  V30 24003 C 1922.55 -0.438983 8.18724 0
M  V30 24004 O 1922.16 0.825065 8.71101 0
M  V30 24005 C 1921.67 -0.783689 6.99524 0
M  V30 24006 C 1922.38 -0.0619086 5.85867 0
M  V30 24007 N 1922.33 -0.78573 4.56183 0
M  V30 24008 C 1922.18 -0.0292889 3.41887 0
M  V30 24009 O 1922.09 1.18445 3.4419 0
M  V30 24010 N 1922.14 -0.744061 2.23964 0
M  V30 24011 C 1922.23 -2.10932 2.10362 0
M  V30 24012 O 1922.18 -2.64117 0.98825 0
M  V30 24013 C 1922.38 -2.8202 3.34994 0
M  V30 24014 C 1922.49 -4.31095 3.25037 0
M  V30 24015 C 1922.43 -2.15547 4.52261 0
M  V30 24016 H 1925.17 -1.93379 8.46595 0
M  V30 24017 H 1925.44 -1.68132 6.70852 0
M  V30 24018 H 1924.57 0.289041 8.15388 0
M  V30 24019 H 1921.92 0.926847 5.72749 0
M  V30 24020 H 1921.64 -1.86973 6.82036 0
M  V30 24021 H 1920.65 -0.403896 7.13257 0
M  V30 24022 H 1922.48 -1.20585 8.97435 0
M  V30 24023 H 1922.55 -2.71231 5.45042 0
M  V30 24024 H 1921.52 -4.76966 3.49992 0
M  V30 24025 H 1923.26 -4.67047 3.95024 0
M  V30 24026 H 1922.77 -4.58996 2.22312 0
M  V30 24027 H 1922.03 -0.214893 1.39758 0
M  V30 24028 P 1920.61 1.17771 8.83182 0
M  V30 24029 O 1920.39 2.07206 9.98732 0
M  V30 24030 O 1919.82 -0.0743816 8.81969 0
M  V30 24031 O 1920.36 1.97678 7.474 0
M  V30 24032 C 1921.3 3.01133 7.08783 0
M  V30 24033 C 1920.57 4.1203 6.37546 0
M  V30 24034 O 1920.36 3.72887 4.9796 0
M  V30 24035 C 1919.17 4.45085 6.88694 0
M  V30 24036 O 1918.78 5.78836 6.56315 0
M  V30 24037 C 1918.29 3.47817 6.12078 0
M  V30 24038 C 1919 3.39414 4.77697 0
M  V30 24039 N 1918.95 2.04615 4.15333 0
M  V30 24040 C 1918.8 1.96929 2.77162 0
M  V30 24041 O 1918.71 3.02017 2.12006 0
M  V30 24042 N 1918.75 0.55485 2.24237 0
M  V30 24043 C 1918.85 -0.367808 2.9169 0
M  V30 24044 N 1918.8 -1.53426 2.29427 0
M  V30 24045 C 1919 -0.319148 4.33828 0
M  V30 24046 C 1919.05 0.920672 4.90433 0
M  V30 24047 H 1921.79 3.41209 7.98667 0
M  V30 24048 H 1922.06 2.5837 6.41742 0
M  V30 24049 H 1921.19 5.02718 6.42752 0
M  V30 24050 H 1918.54 4.11779 4.09026 0
M  V30 24051 H 1918.26 2.49661 6.61772 0
M  V30 24052 H 1917.27 3.86674 6.00946 0
M  V30 24053 H 1919.1 4.29991 7.97006 0
M  V30 24054 H 1919.17 1.00589 5.98303 0
M  V30 24055 H 1919.07 -1.22639 4.93799 0
M  V30 24056 H 1918.68 -1.56819 1.27167 0
M  V30 24057 H 1918.88 -2.41062 2.83063 0
M  V30 24058 P 1917.23 6.144 6.45285 0
M  V30 24059 O 1917.01 7.54673 6.86199 0
M  V30 24060 O 1916.44 5.12391 7.179 0
M  V30 24061 O 1916.98 5.99158 4.88404 0
M  V30 24062 C 1917.92 6.60234 3.96415 0
M  V30 24063 C 1917.19 7.08259 2.72856 0
M  V30 24064 O 1916.98 5.9427 1.83651 0
M  V30 24065 C 1915.79 7.64886 2.9555 0
M  V30 24066 O 1915.4 8.53963 1.90717 0
M  V30 24067 C 1914.91 6.4116 2.90739 0
M  V30 24068 C 1915.62 5.55375 1.86963 0
M  V30 24069 N 1915.57 4.09664 2.15742 0
M  V30 24070 C 1915.65 3.44381 3.37233 0
M  V30 24071 N 1915.57 2.14131 3.28347 0
M  V30 24072 C 1915.43 1.90247 1.91588 0
M  V30 24073 C 1915.3 0.683992 1.20892 0
M  V30 24074 N 1915.18 0.903396 -0.173998 0
M  V30 24075 C 1915.18 2.14171 -0.784879 0
M  V30 24076 N 1915.05 2.1435 -2.11317 0
M  V30 24077 N 1915.31 3.28784 -0.119316 0
M  V30 24078 C 1915.43 3.0977 1.22194 0
M  V30 24079 H 1918.41 7.45574 4.45629 0
M  V30 24080 H 1918.68 5.86232 3.67314 0
M  V30 24081 H 1917.81 7.84412 2.24479 0
M  V30 24082 P 1913.85 8.7635 1.60911 0
M  V30 24083 O 1913.63 10.1388 1.11561 0
M  V30 24084 O 1913.06 8.36503 2.79617 0
M  V30 24085 O 1913.6 7.71806 0.42951 0
M  V30 24086 C 1914.54 7.67148 -0.673689 0
M  V30 24087 C 1913.81 7.33374 -1.95559 0
M  V30 24088 O 1913.6 5.88721 -2.00726 0
M  V30 24089 C 1912.41 7.92526 -2.10483 0
M  V30 24090 O 1912.02 8.02971 -3.47653 0
M  V30 24091 C 1911.53 6.89602 -1.41652 0
M  V30 24092 C 1912.24 5.59201 -1.75185 0
M  V30 24093 N 1912.19 4.58235 -0.662552 0
M  V30 24094 H 1915.03 8.65116 -0.777161 0
M  V30 24095 H 1915.3 6.90173 -0.474152 0
M  V30 24096 H 1914.43 7.66548 -2.79458 0
M  V30 24097 P 1910.47 8.03563 -3.84925 0
M  V30 24098 O 1910.25 8.85821 -5.0569 0
M  V30 24099 O 1909.68 8.41101 -2.65469 0
M  V30 24100 O 1910.22 6.4965 -4.18908 0
M  V30 24101 C 1911.16 5.81037 -5.05421 0
M  V30 24102 C 1910.43 4.78366 -5.89277 0
M  V30 24103 O 1910.22 3.58302 -5.08433 0
M  V30 24104 C 1909.03 5.17448 -6.36119 0
M  V30 24105 O 1908.64 4.45271 -7.53232 0
M  V30 24106 C 1908.15 4.74639 -5.19936 0
M  V30 24107 C 1908.86 3.49432 -4.70418 0
M  V30 24108 N 1908.81 3.32099 -3.22613 0
M  V30 24109 H 1911.65 6.54213 -5.71376 0
M  V30 24110 H 1911.92 5.30936 -4.43503 0
M  V30 24111 H 1911.05 4.55889 -6.76652 0
M  V30 24112 H 1908.4 2.61715 -5.17932 0
M  V30 24113 H 1908.12 5.52155 -4.41878 0
M  V30 24114 H 1907.13 4.51981 -5.53374 0
M  V30 24115 H 1908.96 6.25124 -6.55234 0
M  V30 24116 P 1907.09 4.23843 -7.83734 0
M  V30 24117 O 1906.87 4.19407 -9.29784 0
M  V30 24118 O 1906.3 5.24426 -7.09156 0
M  V30 24119 O 1906.84 2.7935 -7.20758 0
M  V30 24120 C 1907.78 1.7299 -7.50419 0
M  V30 24121 C 1907.05 0.406376 -7.57911 0
M  V30 24122 O 1906.84 -0.0897726 -6.21935 0
M  V30 24123 C 1905.65 0.447224 -8.1878 0
M  V30 24124 O 1905.26 -0.825065 -8.71101 0
M  V30 24125 C 1904.77 0.783801 -6.99623 0
M  V30 24126 C 1905.48 0.0619192 -5.85967 0
M  V30 24127 N 1905.43 0.7859 -4.56281 0
M  V30 24128 H 1908.27 1.93423 -8.4679 0
M  V30 24129 H 1908.54 1.68181 -6.71046 0
M  V30 24130 H 1907.67 -0.289041 -8.15388 0
M  V30 24131 P 1903.71 -1.17771 -8.83182 0
M  V30 24132 O 1903.49 -2.07206 -9.98732 0
M  V30 24133 O 1902.92 0.0743816 -8.81969 0
M  V30 24134 O 1903.46 -1.97652 -7.47304 0
M  V30 24135 C 1904.4 -3.01133 -7.08783 0
M  V30 24136 C 1903.67 -4.12613 -6.37049 0
M  V30 24137 O 1903.46 -3.72827 -4.97879 0
M  V30 24138 C 1902.27 -4.45085 -6.88694 0
M  V30 24139 O 1901.88 -5.7877 -6.5624 0
M  V30 24140 C 1901.39 -3.47817 -6.12078 0
M  V30 24141 C 1902.1 -3.39414 -4.77697 0
M  V30 24142 N 1902.05 -2.04615 -4.15333 0
M  V30 24143 H 1904.89 -3.41248 -7.98759 0
M  V30 24144 H 1905.16 -2.5837 -6.41742 0
M  V30 24145 H 1904.29 -5.02657 -6.42673 0
M  V30 24146 P 1900.33 -6.144 -6.45285 0
M  V30 24147 O 1900.11 -7.54673 -6.86199 0
M  V30 24148 O 1899.54 -5.12391 -7.179 0
M  V30 24149 O 1900.08 -5.99158 -4.88404 0
M  V30 24150 C 1901.02 -6.60234 -3.96415 0
M  V30 24151 C 1900.29 -7.08259 -2.72856 0
M  V30 24152 O 1900.08 -5.9427 -1.83651 0
M  V30 24153 C 1898.89 -7.64886 -2.9555 0
M  V30 24154 O 1898.5 -8.53963 -1.90717 0
M  V30 24155 C 1898.01 -6.4116 -2.90739 0
M  V30 24156 C 1898.72 -5.55375 -1.86963 0
M  V30 24157 N 1898.67 -4.09664 -2.15742 0
M  V30 24158 H 1901.51 -7.45574 -4.45629 0
M  V30 24159 H 1901.78 -5.86232 -3.67314 0
M  V30 24160 H 1900.91 -7.84412 -2.24479 0
M  V30 24161 P 1896.95 -8.7635 -1.60911 0
M  V30 24162 O 1896.73 -10.1388 -1.11561 0
M  V30 24163 O 1896.16 -8.36503 -2.79617 0
M  V30 24164 O 1896.7 -7.71806 -0.42951 0
M  V30 24165 C 1897.64 -7.67148 0.673689 0
M  V30 24166 C 1896.91 -7.33374 1.95559 0
M  V30 24167 O 1896.7 -5.88721 2.00726 0
M  V30 24168 C 1895.51 -7.92526 2.10483 0
M  V30 24169 O 1895.12 -8.02971 3.47653 0
M  V30 24170 C 1894.63 -6.89602 1.41652 0
M  V30 24171 C 1895.34 -5.59201 1.75185 0
M  V30 24172 N 1895.29 -4.58235 0.662552 0
M  V30 24173 H 1898.13 -8.65116 0.777161 0
M  V30 24174 H 1898.4 -6.90173 0.474152 0
M  V30 24175 H 1897.53 -7.66548 2.79458 0
M  V30 24176 P 1893.57 -8.03563 3.84925 0
M  V30 24177 O 1893.35 -8.85821 5.0569 0
M  V30 24178 O 1892.78 -8.41101 2.65469 0
M  V30 24179 O 1893.32 -6.4965 4.18908 0
M  V30 24180 C 1894.26 -5.81037 5.05421 0
M  V30 24181 C 1893.53 -4.78366 5.89277 0
M  V30 24182 O 1893.32 -3.58302 5.08433 0
M  V30 24183 C 1892.13 -5.17448 6.36119 0
M  V30 24184 O 1891.74 -4.45271 7.53232 0
M  V30 24185 C 1891.25 -4.74639 5.19936 0
M  V30 24186 C 1891.96 -3.49432 4.70418 0
M  V30 24187 N 1891.91 -3.32099 3.22613 0
M  V30 24188 H 1894.75 -6.54213 5.71376 0
M  V30 24189 H 1895.02 -5.30936 4.43503 0
M  V30 24190 H 1894.15 -4.55889 6.76652 0
M  V30 24191 H 1891.5 -2.61715 5.17932 0
M  V30 24192 H 1891.22 -5.52155 4.41878 0
M  V30 24193 H 1890.23 -4.51981 5.53374 0
M  V30 24194 H 1892.06 -6.25124 6.55234 0
M  V30 24195 P 1890.19 -4.23843 7.83734 0
M  V30 24196 O 1889.97 -4.19407 9.29784 0
M  V30 24197 O 1889.4 -5.24426 7.09156 0
M  V30 24198 O 1889.94 -2.7935 7.20758 0
M  V30 24199 C 1890.88 -1.72945 7.50224 0
M  V30 24200 C 1890.15 -0.406376 7.57911 0
M  V30 24201 O 1889.94 0.0897726 6.21935 0
M  V30 24202 C 1888.75 -0.438983 8.18724 0
M  V30 24203 O 1888.36 0.825065 8.71101 0
M  V30 24204 C 1887.87 -0.783689 6.99524 0
M  V30 24205 C 1888.58 -0.0619086 5.85867 0
M  V30 24206 N 1888.53 -0.78573 4.56183 0
M  V30 24207 C 1888.38 -0.0292889 3.41887 0
M  V30 24208 O 1888.29 1.18445 3.4419 0
M  V30 24209 N 1888.34 -0.744061 2.23964 0
M  V30 24210 C 1888.43 -2.10932 2.10362 0
M  V30 24211 C 1888.58 -2.8202 3.34994 0
M  V30 24212 C 1888.63 -2.15547 4.52261 0
M  V30 24213 H 1891.37 -1.93379 8.46595 0
M  V30 24214 H 1891.64 -1.68132 6.70852 0
M  V30 24215 H 1890.77 0.289041 8.15388 0
M  V30 24216 H 1888.12 0.926847 5.72749 0
M  V30 24217 H 1887.84 -1.86973 6.82036 0
M  V30 24218 H 1886.85 -0.403896 7.13257 0
M  V30 24219 H 1888.68 -1.20585 8.97435 0
M  V30 24220 H 1888.75 -2.71231 5.45042 0
M  V30 24221 P 1886.81 1.17771 8.83182 0
M  V30 24222 O 1886.59 2.07206 9.98732 0
M  V30 24223 O 1886.02 -0.0743816 8.81969 0
M  V30 24224 O 1886.56 1.97652 7.47304 0
M  V30 24225 C 1887.5 3.01133 7.08783 0
M  V30 24226 C 1886.77 4.12613 6.37049 0
M  V30 24227 O 1886.56 3.72827 4.97879 0
M  V30 24228 C 1885.37 4.45085 6.88694 0
M  V30 24229 O 1884.98 5.7877 6.5624 0
M  V30 24230 C 1884.49 3.47817 6.12078 0
M  V30 24231 C 1885.2 3.39414 4.77697 0
M  V30 24232 N 1885.15 2.04615 4.15333 0
M  V30 24233 H 1887.99 3.41248 7.98759 0
M  V30 24234 H 1888.26 2.5837 6.41742 0
M  V30 24235 H 1887.39 5.02657 6.42673 0
M  V30 24236 P 1883.43 6.144 6.45285 0
M  V30 24237 O 1883.21 7.54673 6.86199 0
M  V30 24238 O 1882.64 5.12391 7.179 0
M  V30 24239 O 1883.18 5.99158 4.88404 0
M  V30 24240 C 1884.12 6.60234 3.96415 0
M  V30 24241 C 1883.39 7.08259 2.72856 0
M  V30 24242 O 1883.18 5.9427 1.83651 0
M  V30 24243 C 1881.99 7.64886 2.9555 0
M  V30 24244 O 1881.6 8.53963 1.90717 0
M  V30 24245 C 1881.11 6.4116 2.90739 0
M  V30 24246 C 1881.82 5.55375 1.86963 0
M  V30 24247 N 1881.77 4.09664 2.15742 0
M  V30 24248 H 1884.61 7.45574 4.45629 0
M  V30 24249 H 1884.88 5.86232 3.67314 0
M  V30 24250 H 1884.01 7.84412 2.24479 0
M  V30 24251 P 1880.05 8.7635 1.60911 0
M  V30 24252 O 1879.83 10.1388 1.11561 0
M  V30 24253 O 1879.26 8.36503 2.79617 0
M  V30 24254 O 1879.8 7.71806 0.42951 0
M  V30 24255 C 1880.74 7.67148 -0.673689 0
M  V30 24256 C 1880.01 7.33374 -1.95559 0
M  V30 24257 O 1879.8 5.88721 -2.00726 0
M  V30 24258 C 1878.61 7.92526 -2.10483 0
M  V30 24259 O 1878.22 8.02971 -3.47653 0
M  V30 24260 C 1877.73 6.89602 -1.41652 0
M  V30 24261 C 1878.44 5.59201 -1.75185 0
M  V30 24262 N 1878.39 4.58235 -0.662552 0
M  V30 24263 H 1881.23 8.65116 -0.777161 0
M  V30 24264 H 1881.5 6.90173 -0.474152 0
M  V30 24265 H 1880.63 7.66548 -2.79458 0
M  V30 24266 P 1876.67 8.03563 -3.84925 0
M  V30 24267 O 1876.45 8.85821 -5.0569 0
M  V30 24268 O 1875.88 8.41101 -2.65469 0
M  V30 24269 O 1876.42 6.4965 -4.18908 0
M  V30 24270 C 1877.36 5.80886 -5.05289 0
M  V30 24271 C 1876.63 4.78366 -5.89277 0
M  V30 24272 O 1876.42 3.58302 -5.08433 0
M  V30 24273 C 1875.23 5.16748 -6.36559 0
M  V30 24274 O 1874.84 4.45271 -7.53232 0
M  V30 24275 C 1874.35 4.74572 -5.19863 0
M  V30 24276 C 1875.06 3.49373 -4.70338 0
M  V30 24277 N 1875.01 3.31704 -3.22876 0
M  V30 24278 C 1874.86 2.03326 -2.74871 0
M  V30 24279 O 1874.77 1.06486 -3.48076 0
M  V30 24280 N 1874.82 1.91838 -1.37456 0
M  V30 24281 C 1874.91 2.94295 -0.462035 0
M  V30 24282 O 1874.86 2.71763 0.752928 0
M  V30 24283 C 1875.06 4.25064 -1.05249 0
M  V30 24284 C 1875.17 5.39815 -0.095697 0
M  V30 24285 C 1875.11 4.40214 -2.39192 0
M  V30 24286 H 1877.85 6.54063 -5.71245 0
M  V30 24287 H 1878.12 5.30339 -4.43905 0
M  V30 24288 H 1877.25 4.55889 -6.76652 0
M  V30 24289 H 1874.6 2.6167 -5.17842 0
M  V30 24290 H 1874.32 5.52155 -4.41878 0
M  V30 24291 H 1873.33 4.51918 -5.53297 0
M  V30 24292 H 1875.16 6.25055 -6.55162 0
M  V30 24293 H 1875.23 5.39798 -2.81523 0
M  V30 24294 H 1874.2 5.91593 -0.0279582 0
M  V30 24295 H 1875.94 6.10038 -0.450573 0
M  V30 24296 H 1875.45 5.02007 0.89937 0
M  V30 24297 H 1874.71 0.995326 -1.00435 0
M  V30 24298 P 1873.29 4.23843 -7.83734 0
M  V30 24299 O 1873.07 4.19407 -9.29784 0
M  V30 24300 O 1872.5 5.24426 -7.09156 0
M  V30 24301 O 1873.04 2.7935 -7.20758 0
M  V30 24302 C 1873.98 1.7299 -7.50419 0
M  V30 24303 C 1873.25 0.406376 -7.57911 0
M  V30 24304 O 1873.04 -0.0897726 -6.21935 0
M  V30 24305 C 1871.85 0.447224 -8.1878 0
M  V30 24306 O 1871.46 -0.825065 -8.71101 0
M  V30 24307 C 1870.97 0.783801 -6.99623 0
M  V30 24308 C 1871.68 0.0619192 -5.85967 0
M  V30 24309 N 1871.63 0.790462 -4.56202 0
M  V30 24310 C 1871.71 2.13895 -4.34171 0
M  V30 24311 N 1871.64 2.46449 -3.08687 0
M  V30 24312 C 1871.49 1.2525 -2.43697 0
M  V30 24313 C 1871.36 0.914535 -1.07318 0
M  V30 24314 N 1871.35 1.80782 -0.0887348 0
M  V30 24315 N 1871.24 -0.386745 -0.768133 0
M  V30 24316 C 1871.25 -1.28096 -1.75159 0
M  V30 24317 N 1871.37 -1.09708 -3.04861 0
M  V30 24318 C 1871.49 0.214857 -3.32306 0
M  V30 24319 H 1874.47 1.93423 -8.4679 0
M  V30 24320 H 1874.74 1.68852 -6.70877 0
M  V30 24321 H 1873.87 -0.289041 -8.15388 0
M  V30 24322 H 1871.22 -0.927006 -5.72848 0
M  V30 24323 H 1870.94 1.86973 -6.82036 0
M  V30 24324 H 1869.95 0.403953 -7.13357 0
M  V30 24325 H 1871.78 1.20599 -8.97534 0
M  V30 24326 H 1871.82 2.86846 -5.14318 0
M  V30 24327 H 1871.44 2.81082 -0.302037 0
M  V30 24328 H 1871.25 1.49688 0.889064 0
M  V30 24329 H 1871.14 -2.31317 -1.43855 0
M  V30 24330 P 1869.91 -1.17771 -8.83182 0
M  V30 24331 O 1869.69 -2.07206 -9.98732 0
M  V30 24332 O 1869.12 0.0743816 -8.81969 0
M  V30 24333 O 1869.66 -1.97652 -7.47304 0
M  V30 24334 C 1870.6 -3.01133 -7.08783 0
M  V30 24335 C 1869.87 -4.12613 -6.37049 0
M  V30 24336 O 1869.66 -3.72827 -4.97879 0
M  V30 24337 C 1868.47 -4.45085 -6.88694 0
M  V30 24338 O 1868.08 -5.7877 -6.5624 0
M  V30 24339 C 1867.59 -3.47817 -6.12078 0
M  V30 24340 C 1868.3 -3.39414 -4.77697 0
M  V30 24341 N 1868.25 -2.04615 -4.15333 0
M  V30 24342 H 1871.09 -3.41248 -7.98759 0
M  V30 24343 H 1871.36 -2.5837 -6.41742 0
M  V30 24344 H 1870.49 -5.02657 -6.42673 0
M  V30 24345 P 1866.53 -6.144 -6.45285 0
M  V30 24346 O 1866.31 -7.54673 -6.86199 0
M  V30 24347 O 1865.74 -5.12391 -7.179 0
M  V30 24348 O 1866.28 -5.99236 -4.88467 0
M  V30 24349 C 1867.22 -6.60234 -3.96415 0
M  V30 24350 C 1866.49 -7.08079 -2.736 0
M  V30 24351 O 1866.28 -5.94365 -1.8368 0
M  V30 24352 C 1865.09 -7.64886 -2.9555 0
M  V30 24353 O 1864.7 -8.5406 -1.90739 0
M  V30 24354 C 1864.21 -6.4116 -2.90739 0
M  V30 24355 C 1864.92 -5.55375 -1.86963 0
M  V30 24356 N 1864.87 -4.09664 -2.15742 0
M  V30 24357 C 1864.72 -3.22231 -1.08477 0
M  V30 24358 O 1864.63 -3.68951 0.0600489 0
M  V30 24359 N 1864.67 -1.76692 -1.48799 0
M  V30 24360 C 1864.77 -1.41695 -2.57602 0
M  V30 24361 N 1864.72 -0.107296 -2.75791 0
M  V30 24362 C 1864.92 -2.29178 -3.69733 0
M  V30 24363 C 1864.97 -3.62753 -3.42653 0
M  V30 24364 H 1867.71 -7.45488 -4.45578 0
M  V30 24365 H 1867.98 -5.86232 -3.67314 0
M  V30 24366 H 1867.11 -7.84508 -2.24507 0
M  V30 24367 H 1864.46 -5.73556 -0.888715 0
M  V30 24368 H 1864.18 -5.9096 -3.88638 0
M  V30 24369 H 1863.19 -6.66053 -2.58894 0
M  V30 24370 H 1865.02 -8.16339 -3.92049 0
M  V30 24371 H 1865.09 -4.33052 -4.24913 0
M  V30 24372 H 1864.99 -1.9103 -4.71577 0
M  V30 24373 H 1864.6 0.521221 -1.95056 0
M  V30 24374 H 1864.8 0.286429 -3.70695 0
M  V30 24375 P 1863.15 -8.7635 -1.60911 0
M  V30 24376 O 1862.93 -10.1388 -1.11561 0
M  V30 24377 O 1862.36 -8.36503 -2.79617 0
M  V30 24378 O 1862.9 -7.71806 -0.42951 0
M  V30 24379 C 1863.84 -7.66948 0.673514 0
M  V30 24380 C 1863.11 -7.33374 1.95559 0
M  V30 24381 O 1862.9 -5.88721 2.00726 0
M  V30 24382 C 1861.71 -7.92218 2.1125 0
M  V30 24383 O 1861.32 -8.02971 3.47653 0
M  V30 24384 C 1860.83 -6.89504 1.41631 0
M  V30 24385 C 1861.54 -5.59106 1.75155 0
M  V30 24386 N 1861.49 -4.58136 0.662409 0
M  V30 24387 C 1861.34 -3.26059 1.02863 0
M  V30 24388 O 1861.25 -2.90743 2.19009 0
M  V30 24389 N 1861.3 -2.35995 -0.0155585 0
M  V30 24390 C 1861.39 -2.65248 -1.35603 0
M  V30 24391 O 1861.34 -1.75605 -2.20651 0
M  V30 24392 C 1861.54 -4.05747 -1.64698 0
M  V30 24393 C 1861.65 -4.42345 -3.09553 0
M  V30 24394 C 1861.59 -4.96734 -0.652411 0
M  V30 24395 H 1864.33 -8.64917 0.776982 0
M  V30 24396 H 1864.6 -6.89974 0.474015 0
M  V30 24397 H 1863.73 -7.66548 2.79458 0
M  V30 24398 H 1861.08 -5.16076 2.65138 0
M  V30 24399 H 1860.8 -7.06433 0.329384 0
M  V30 24400 H 1859.81 -6.90829 1.81996 0
M  V30 24401 H 1861.64 -8.90774 1.62639 0
M  V30 24402 H 1861.71 -6.02181 -0.895285 0
M  V30 24403 H 1860.68 -4.80252 -3.45468 0
M  V30 24404 H 1862.42 -5.20015 -3.22119 0
M  V30 24405 H 1861.93 -3.53269 -3.67833 0
M  V30 24406 H 1861.19 -1.39558 0.227499 0
M  V30 24407 P 1859.77 -8.03563 3.84925 0
M  V30 24408 O 1859.55 -8.85821 5.0569 0
M  V30 24409 O 1858.98 -8.41101 2.65469 0
M  V30 24410 O 1859.52 -6.4965 4.18908 0
M  V30 24411 C 1860.46 -5.81037 5.05421 0
M  V30 24412 C 1859.73 -4.78366 5.89277 0
M  V30 24413 O 1859.52 -3.58302 5.08433 0
M  V30 24414 C 1858.33 -5.17448 6.36119 0
M  V30 24415 O 1857.94 -4.45271 7.53232 0
M  V30 24416 C 1857.45 -4.74639 5.19936 0
M  V30 24417 C 1858.16 -3.49432 4.70418 0
M  V30 24418 N 1858.11 -3.31776 3.22945 0
M  V30 24419 H 1860.95 -6.54213 5.71376 0
M  V30 24420 H 1861.22 -5.30492 4.44033 0
M  V30 24421 H 1860.35 -4.55889 6.76652 0
M  V30 24422 P 1856.39 -4.23843 7.83734 0
M  V30 24423 O 1856.17 -4.19407 9.29784 0
M  V30 24424 O 1855.6 -5.24426 7.09156 0
M  V30 24425 O 1856.14 -2.7935 7.20758 0
M  V30 24426 C 1857.08 -1.7299 7.50419 0
M  V30 24427 C 1856.35 -0.406376 7.57911 0
M  V30 24428 O 1856.14 0.0897726 6.21935 0
M  V30 24429 C 1854.95 -0.447224 8.1878 0
M  V30 24430 O 1854.56 0.825065 8.71101 0
M  V30 24431 C 1854.07 -0.783801 6.99623 0
M  V30 24432 C 1854.78 -0.0619192 5.85967 0
M  V30 24433 N 1854.73 -0.7859 4.56281 0
M  V30 24434 H 1857.57 -1.93423 8.4679 0
M  V30 24435 H 1857.84 -1.68181 6.71046 0
M  V30 24436 H 1856.97 0.289041 8.15388 0
M  V30 24437 P 1853.01 1.17771 8.83182 0
M  V30 24438 O 1852.79 2.07206 9.98732 0
M  V30 24439 O 1852.22 -0.0743816 8.81969 0
M  V30 24440 O 1852.76 1.97652 7.47304 0
M  V30 24441 C 1853.7 3.01133 7.08783 0
M  V30 24442 C 1852.97 4.12613 6.37049 0
M  V30 24443 O 1852.76 3.72827 4.97879 0
M  V30 24444 C 1851.57 4.45085 6.88694 0
M  V30 24445 O 1851.18 5.7877 6.5624 0
M  V30 24446 C 1850.69 3.47817 6.12078 0
M  V30 24447 C 1851.4 3.39414 4.77697 0
M  V30 24448 N 1851.35 2.04199 4.15538 0
M  V30 24449 C 1851.43 0.821545 4.76977 0
M  V30 24450 N 1851.36 -0.1794 3.94592 0
M  V30 24451 C 1851.21 0.419121 2.70776 0
M  V30 24452 C 1851.08 -0.109072 1.40577 0
M  V30 24453 N 1851.07 -1.4104 1.1344 0
M  V30 24454 N 1850.96 0.764381 0.39411 0
M  V30 24455 C 1850.97 2.06587 0.664135 0
M  V30 24456 N 1851.09 2.67948 1.82153 0
M  V30 24457 C 1851.21 1.77942 2.8147 0
M  V30 24458 H 1854.19 3.41248 7.98759 0
M  V30 24459 H 1854.46 2.57728 6.42 0
M  V30 24460 H 1853.59 5.02657 6.42673 0
M  V30 24461 H 1850.94 4.11708 4.08956 0
M  V30 24462 H 1850.66 2.49626 6.61679 0
M  V30 24463 H 1849.67 3.8662 6.00862 0
M  V30 24464 H 1851.5 4.29991 7.97006 0
M  V30 24465 H 1851.54 0.702451 5.84696 0
M  V30 24466 H 1851.16 -2.09647 1.89651 0
M  V30 24467 H 1850.97 -1.73358 0.160575 0
M  V30 24468 H 1850.86 2.71695 -0.195838 0
M  V30 24469 P 1849.63 6.144 6.45285 0
M  V30 24470 O 1849.41 7.54673 6.86199 0
M  V30 24471 O 1848.84 5.12391 7.179 0
M  V30 24472 O 1849.38 5.99158 4.88404 0
M  V30 24473 C 1850.32 6.60062 3.96313 0
M  V30 24474 C 1849.59 7.08259 2.72856 0
M  V30 24475 O 1849.38 5.9427 1.83651 0
M  V30 24476 C 1848.19 7.65087 2.94749 0
M  V30 24477 O 1847.8 8.53963 1.90717 0
M  V30 24478 C 1847.31 6.41069 2.90698 0
M  V30 24479 C 1848.02 5.5528 1.86931 0
M  V30 24480 N 1847.97 4.09575 2.15696 0
M  V30 24481 C 1847.82 3.24249 1.08435 0
M  V30 24482 O 1847.73 3.63946 -0.0628747 0
M  V30 24483 N 1847.78 1.90009 1.39973 0
M  V30 24484 C 1847.87 1.34884 2.65614 0
M  V30 24485 C 1848.02 2.3145 3.71736 0
M  V30 24486 C 1848.07 3.63518 3.44754 0
M  V30 24487 H 1850.81 7.45402 4.45526 0
M  V30 24488 H 1851.08 5.86062 3.67208 0
M  V30 24489 H 1850.21 7.84412 2.24479 0
M  V30 24490 H 1847.56 5.73358 0.888409 0
M  V30 24491 H 1847.28 5.90877 3.88583 0
M  V30 24492 H 1846.29 6.65867 2.58821 0
M  V30 24493 H 1848.12 8.16248 3.92006 0
M  V30 24494 H 1848.19 4.34551 4.26383 0
M  V30 24495 P 1846.25 8.7635 1.60911 0
M  V30 24496 O 1846.03 10.1388 1.11561 0
M  V30 24497 O 1845.46 8.36503 2.79617 0
M  V30 24498 O 1846 7.71806 0.42951 0
M  V30 24499 C 1846.94 7.67148 -0.673689 0
M  V30 24500 C 1846.21 7.33374 -1.95559 0
M  V30 24501 O 1846 5.88721 -2.00726 0
M  V30 24502 C 1844.81 7.92526 -2.10483 0
M  V30 24503 O 1844.42 8.02971 -3.47653 0
M  V30 24504 C 1843.93 6.89602 -1.41652 0
M  V30 24505 C 1844.64 5.59201 -1.75185 0
M  V30 24506 N 1844.59 4.58235 -0.662552 0
M  V30 24507 H 1847.43 8.65116 -0.777161 0
M  V30 24508 H 1847.7 6.90173 -0.474152 0
M  V30 24509 H 1846.83 7.66548 -2.79458 0
M  V30 24510 P 1842.87 8.03563 -3.84925 0
M  V30 24511 O 1842.65 8.85821 -5.0569 0
M  V30 24512 O 1842.08 8.41101 -2.65469 0
M  V30 24513 O 1842.62 6.4965 -4.18908 0
M  V30 24514 C 1843.56 5.80886 -5.05289 0
M  V30 24515 C 1842.83 4.78366 -5.89277 0
M  V30 24516 O 1842.62 3.58302 -5.08433 0
M  V30 24517 C 1841.43 5.16748 -6.36559 0
M  V30 24518 O 1841.04 4.45271 -7.53232 0
M  V30 24519 C 1840.55 4.74572 -5.19863 0
M  V30 24520 C 1841.26 3.49373 -4.70338 0
M  V30 24521 N 1841.21 3.31704 -3.22876 0
M  V30 24522 C 1841.06 2.03326 -2.74871 0
M  V30 24523 O 1840.97 1.06486 -3.48076 0
M  V30 24524 N 1841.02 1.91838 -1.37456 0
M  V30 24525 C 1841.11 2.94295 -0.462035 0
M  V30 24526 O 1841.06 2.71763 0.752928 0
M  V30 24527 C 1841.26 4.25064 -1.05249 0
M  V30 24528 C 1841.37 5.39815 -0.095697 0
M  V30 24529 C 1841.31 4.40214 -2.39192 0
M  V30 24530 H 1844.05 6.54063 -5.71245 0
M  V30 24531 H 1844.32 5.30339 -4.43905 0
M  V30 24532 H 1843.45 4.55889 -6.76652 0
M  V30 24533 H 1840.8 2.6167 -5.17842 0
M  V30 24534 H 1840.52 5.52155 -4.41878 0
M  V30 24535 H 1839.53 4.51918 -5.53297 0
M  V30 24536 H 1841.36 6.25055 -6.55162 0
M  V30 24537 H 1841.43 5.39798 -2.81523 0
M  V30 24538 H 1840.4 5.91593 -0.0279582 0
M  V30 24539 H 1842.14 6.10038 -0.450573 0
M  V30 24540 H 1841.65 5.02007 0.89937 0
M  V30 24541 H 1840.91 0.995326 -1.00435 0
M  V30 24542 P 1839.49 4.23843 -7.83734 0
M  V30 24543 O 1839.27 4.19407 -9.29784 0
M  V30 24544 O 1838.7 5.24426 -7.09156 0
M  V30 24545 O 1839.24 2.7935 -7.20758 0
M  V30 24546 C 1840.18 1.72945 -7.50224 0
M  V30 24547 C 1839.45 0.406376 -7.57911 0
M  V30 24548 O 1839.24 -0.0897726 -6.21935 0
M  V30 24549 C 1838.05 0.438983 -8.18724 0
M  V30 24550 O 1837.66 -0.825065 -8.71101 0
M  V30 24551 C 1837.17 0.783689 -6.99524 0
M  V30 24552 C 1837.88 0.0619086 -5.85867 0
M  V30 24553 N 1837.83 0.78573 -4.56183 0
M  V30 24554 C 1837.68 0.0292889 -3.41887 0
M  V30 24555 O 1837.59 -1.18445 -3.4419 0
M  V30 24556 N 1837.64 0.744061 -2.23964 0
M  V30 24557 C 1837.73 2.10932 -2.10362 0
M  V30 24558 C 1837.88 2.8202 -3.34994 0
M  V30 24559 C 1837.93 2.15547 -4.52261 0
M  V30 24560 H 1840.67 1.93379 -8.46595 0
M  V30 24561 H 1840.94 1.68132 -6.70852 0
M  V30 24562 H 1840.07 -0.289041 -8.15388 0
M  V30 24563 H 1837.42 -0.926847 -5.72749 0
M  V30 24564 H 1837.14 1.86973 -6.82036 0
M  V30 24565 H 1836.15 0.403896 -7.13257 0
M  V30 24566 H 1837.98 1.20585 -8.97435 0
M  V30 24567 H 1838.05 2.71231 -5.45042 0
M  V30 24568 P 1836.11 -1.17771 -8.83182 0
M  V30 24569 O 1835.89 -2.07206 -9.98732 0
M  V30 24570 O 1835.32 0.0743816 -8.81969 0
M  V30 24571 O 1835.86 -1.97652 -7.47304 0
M  V30 24572 C 1836.8 -3.01133 -7.08783 0
M  V30 24573 C 1836.07 -4.12613 -6.37049 0
M  V30 24574 O 1835.86 -3.72827 -4.97879 0
M  V30 24575 C 1834.67 -4.45085 -6.88694 0
M  V30 24576 O 1834.28 -5.7877 -6.5624 0
M  V30 24577 C 1833.79 -3.47817 -6.12078 0
M  V30 24578 C 1834.5 -3.39414 -4.77697 0
M  V30 24579 N 1834.45 -2.04615 -4.15333 0
M  V30 24580 H 1837.29 -3.41248 -7.98759 0
M  V30 24581 H 1837.56 -2.5837 -6.41742 0
M  V30 24582 H 1836.69 -5.02657 -6.42673 0
M  V30 24583 P 1832.73 -6.144 -6.45285 0
M  V30 24584 O 1832.51 -7.54673 -6.86199 0
M  V30 24585 O 1831.94 -5.12391 -7.179 0
M  V30 24586 O 1832.48 -5.99158 -4.88404 0
M  V30 24587 C 1833.42 -6.60234 -3.96415 0
M  V30 24588 C 1832.69 -7.08259 -2.72856 0
M  V30 24589 O 1832.48 -5.9427 -1.83651 0
M  V30 24590 C 1831.29 -7.64886 -2.9555 0
M  V30 24591 O 1830.9 -8.53963 -1.90717 0
M  V30 24592 C 1830.41 -6.4116 -2.90739 0
M  V30 24593 C 1831.12 -5.55375 -1.86963 0
M  V30 24594 N 1831.07 -4.09664 -2.15742 0
M  V30 24595 H 1833.91 -7.45574 -4.45629 0
M  V30 24596 H 1834.18 -5.86232 -3.67314 0
M  V30 24597 H 1833.31 -7.84412 -2.24479 0
M  V30 24598 P 1829.35 -8.7635 -1.60911 0
M  V30 24599 O 1829.13 -10.1388 -1.11561 0
M  V30 24600 O 1828.56 -8.36503 -2.79617 0
M  V30 24601 O 1829.1 -7.71806 -0.42951 0
M  V30 24602 C 1830.04 -7.67148 0.673689 0
M  V30 24603 C 1829.31 -7.33374 1.95559 0
M  V30 24604 O 1829.1 -5.88721 2.00726 0
M  V30 24605 C 1827.91 -7.92526 2.10483 0
M  V30 24606 O 1827.52 -8.02971 3.47653 0
M  V30 24607 C 1827.03 -6.89602 1.41652 0
M  V30 24608 C 1827.74 -5.59201 1.75185 0
M  V30 24609 N 1827.69 -4.58235 0.662552 0
M  V30 24610 H 1830.53 -8.65116 0.777161 0
M  V30 24611 H 1830.8 -6.90173 0.474152 0
M  V30 24612 H 1829.93 -7.66548 2.79458 0
M  V30 24613 P 1825.97 -8.03563 3.84925 0
M  V30 24614 O 1825.75 -8.85821 5.0569 0
M  V30 24615 O 1825.18 -8.41101 2.65469 0
M  V30 24616 O 1825.72 -6.4965 4.18908 0
M  V30 24617 C 1826.66 -5.81037 5.05421 0
M  V30 24618 C 1825.93 -4.78366 5.89277 0
M  V30 24619 O 1825.72 -3.58302 5.08433 0
M  V30 24620 C 1824.53 -5.17448 6.36119 0
M  V30 24621 O 1824.14 -4.45271 7.53232 0
M  V30 24622 C 1823.65 -4.74639 5.19936 0
M  V30 24623 C 1824.36 -3.49432 4.70418 0
M  V30 24624 N 1824.31 -3.31776 3.22945 0
M  V30 24625 H 1827.15 -6.54213 5.71376 0
M  V30 24626 H 1827.42 -5.30492 4.44033 0
M  V30 24627 H 1826.55 -4.55889 6.76652 0
M  V30 24628 P 1822.59 -4.23843 7.83734 0
M  V30 24629 O 1822.37 -4.19407 9.29784 0
M  V30 24630 O 1821.8 -5.24426 7.09156 0
M  V30 24631 O 1822.34 -2.7935 7.20758 0
M  V30 24632 C 1823.28 -1.7299 7.50419 0
M  V30 24633 C 1822.55 -0.406376 7.57911 0
M  V30 24634 O 1822.34 0.0897726 6.21935 0
M  V30 24635 C 1821.15 -0.447224 8.1878 0
M  V30 24636 O 1820.76 0.825065 8.71101 0
M  V30 24637 C 1820.27 -0.783801 6.99623 0
M  V30 24638 C 1820.98 -0.0619192 5.85967 0
M  V30 24639 N 1820.93 -0.7859 4.56281 0
M  V30 24640 H 1823.77 -1.93423 8.4679 0
M  V30 24641 H 1824.04 -1.68181 6.71046 0
M  V30 24642 H 1823.17 0.289041 8.15388 0
M  V30 24643 P 1819.21 1.17771 8.83182 0
M  V30 24644 O 1818.99 2.07206 9.98732 0
M  V30 24645 O 1818.42 -0.0743816 8.81969 0
M  V30 24646 O 1818.96 1.97652 7.47304 0
M  V30 24647 C 1819.9 3.01133 7.08783 0
M  V30 24648 C 1819.17 4.12613 6.37049 0
M  V30 24649 O 1818.96 3.72827 4.97879 0
M  V30 24650 C 1817.77 4.45085 6.88694 0
M  V30 24651 O 1817.38 5.7877 6.5624 0
M  V30 24652 C 1816.89 3.47817 6.12078 0
M  V30 24653 C 1817.6 3.39414 4.77697 0
M  V30 24654 N 1817.55 2.04615 4.15333 0
M  V30 24655 H 1820.39 3.41248 7.98759 0
M  V30 24656 H 1820.66 2.5837 6.41742 0
M  V30 24657 H 1819.79 5.02657 6.42673 0
M  V30 24658 P 1815.83 6.144 6.45285 0
M  V30 24659 O 1815.61 7.54673 6.86199 0
M  V30 24660 O 1815.04 5.12391 7.179 0
M  V30 24661 O 1815.58 5.99158 4.88404 0
M  V30 24662 C 1816.52 6.60234 3.96415 0
M  V30 24663 C 1815.79 7.08259 2.72856 0
M  V30 24664 O 1815.58 5.9427 1.83651 0
M  V30 24665 C 1814.39 7.64886 2.9555 0
M  V30 24666 O 1814 8.53963 1.90717 0
M  V30 24667 C 1813.51 6.4116 2.90739 0
M  V30 24668 C 1814.22 5.55375 1.86963 0
M  V30 24669 N 1814.17 4.09448 2.16152 0
M  V30 24670 H 1817.01 7.45574 4.45629 0
M  V30 24671 H 1817.28 5.85864 3.679 0
M  V30 24672 H 1816.41 7.84412 2.24479 0
M  V30 24673 H 1813.76 5.73457 0.888562 0
M  V30 24674 H 1813.48 5.90877 3.88583 0
M  V30 24675 H 1812.49 6.6596 2.58858 0
M  V30 24676 H 1814.32 8.16339 3.92049 0
M  V30 24677 P 1812.45 8.7635 1.60911 0
M  V30 24678 O 1812.23 10.1388 1.11561 0
M  V30 24679 O 1811.66 8.36503 2.79617 0
M  V30 24680 O 1812.2 7.71806 0.42951 0
M  V30 24681 C 1813.14 7.67148 -0.673689 0
M  V30 24682 C 1812.41 7.33374 -1.95559 0
M  V30 24683 O 1812.2 5.88721 -2.00726 0
M  V30 24684 C 1811.01 7.92526 -2.10483 0
M  V30 24685 O 1810.62 8.02971 -3.47653 0
M  V30 24686 C 1810.13 6.89602 -1.41652 0
M  V30 24687 C 1810.84 5.59201 -1.75185 0
M  V30 24688 N 1810.79 4.58301 -0.657969 0
M  V30 24689 H 1813.63 8.65116 -0.777161 0
M  V30 24690 H 1813.9 6.9022 -0.46725 0
M  V30 24691 H 1813.03 7.66548 -2.79458 0
M  V30 24692 H 1810.38 5.16165 -2.65183 0
M  V30 24693 H 1810.1 7.06433 -0.329384 0
M  V30 24694 H 1809.11 6.90926 -1.82021 0
M  V30 24695 H 1810.94 8.90873 -1.62657 0
M  V30 24696 P 1809.07 8.03563 -3.84925 0
M  V30 24697 O 1808.85 8.85821 -5.0569 0
M  V30 24698 O 1808.28 8.41101 -2.65469 0
M  V30 24699 O 1808.82 6.4965 -4.18908 0
M  V30 24700 C 1809.76 5.80886 -5.05289 0
M  V30 24701 C 1809.03 4.78366 -5.89277 0
M  V30 24702 O 1808.82 3.58302 -5.08433 0
M  V30 24703 C 1807.63 5.16748 -6.36559 0
M  V30 24704 O 1807.24 4.45271 -7.53232 0
M  V30 24705 C 1806.75 4.74572 -5.19863 0
M  V30 24706 C 1807.46 3.49373 -4.70338 0
M  V30 24707 N 1807.41 3.31704 -3.22876 0
M  V30 24708 C 1807.26 2.03326 -2.74871 0
M  V30 24709 O 1807.17 1.06486 -3.48076 0
M  V30 24710 N 1807.22 1.91838 -1.37456 0
M  V30 24711 C 1807.31 2.94295 -0.462035 0
M  V30 24712 O 1807.26 2.71763 0.752928 0
M  V30 24713 C 1807.46 4.25064 -1.05249 0
M  V30 24714 C 1807.57 5.39815 -0.095697 0
M  V30 24715 C 1807.51 4.40214 -2.39192 0
M  V30 24716 H 1810.25 6.54063 -5.71245 0
M  V30 24717 H 1810.52 5.30339 -4.43905 0
M  V30 24718 H 1809.65 4.55889 -6.76652 0
M  V30 24719 H 1807 2.6167 -5.17842 0
M  V30 24720 H 1806.72 5.52155 -4.41878 0
M  V30 24721 H 1805.73 4.51918 -5.53297 0
M  V30 24722 H 1807.56 6.25055 -6.55162 0
M  V30 24723 H 1807.63 5.39798 -2.81523 0
M  V30 24724 H 1806.6 5.91593 -0.0279582 0
M  V30 24725 H 1808.34 6.10038 -0.450573 0
M  V30 24726 H 1807.85 5.02007 0.89937 0
M  V30 24727 H 1807.11 0.995326 -1.00435 0
M  V30 24728 P 1805.69 4.23843 -7.83734 0
M  V30 24729 O 1805.47 4.19407 -9.29784 0
M  V30 24730 O 1804.9 5.24426 -7.09156 0
M  V30 24731 O 1805.44 2.7935 -7.20758 0
M  V30 24732 C 1806.38 1.7299 -7.50419 0
M  V30 24733 C 1805.65 0.406376 -7.57911 0
M  V30 24734 O 1805.44 -0.0897726 -6.21935 0
M  V30 24735 C 1804.25 0.447224 -8.1878 0
M  V30 24736 O 1803.86 -0.825065 -8.71101 0
M  V30 24737 C 1803.37 0.783801 -6.99623 0
M  V30 24738 C 1804.08 0.0619192 -5.85967 0
M  V30 24739 N 1804.03 0.790462 -4.56202 0
M  V30 24740 H 1806.87 1.93423 -8.4679 0
M  V30 24741 H 1807.14 1.68852 -6.70877 0
M  V30 24742 H 1806.27 -0.289041 -8.15388 0
M  V30 24743 H 1803.62 -0.927006 -5.72848 0
M  V30 24744 H 1803.34 1.86973 -6.82036 0
M  V30 24745 H 1802.35 0.403953 -7.13357 0
M  V30 24746 H 1804.18 1.20599 -8.97534 0
M  V30 24747 P 1802.31 -1.17771 -8.83182 0
M  V30 24748 O 1802.09 -2.07206 -9.98732 0
M  V30 24749 O 1801.52 0.0743816 -8.81969 0
M  V30 24750 O 1802.06 -1.97652 -7.47304 0
M  V30 24751 C 1803 -3.01133 -7.08783 0
M  V30 24752 C 1802.27 -4.12613 -6.37049 0
M  V30 24753 O 1802.06 -3.72827 -4.97879 0
M  V30 24754 C 1800.87 -4.45085 -6.88694 0
M  V30 24755 O 1800.48 -5.7877 -6.5624 0
M  V30 24756 C 1799.99 -3.47817 -6.12078 0
M  V30 24757 C 1800.7 -3.39414 -4.77697 0
M  V30 24758 N 1800.65 -2.04615 -4.15333 0
M  V30 24759 H 1803.49 -3.41248 -7.98759 0
M  V30 24760 H 1803.76 -2.5837 -6.41742 0
M  V30 24761 H 1802.89 -5.02657 -6.42673 0
M  V30 24762 P 1798.93 -6.144 -6.45285 0
M  V30 24763 O 1798.71 -7.54673 -6.86199 0
M  V30 24764 O 1798.14 -5.12391 -7.179 0
M  V30 24765 O 1798.68 -5.99158 -4.88404 0
M  V30 24766 C 1799.62 -6.60234 -3.96415 0
M  V30 24767 C 1798.89 -7.08259 -2.72856 0
M  V30 24768 O 1798.68 -5.9427 -1.83651 0
M  V30 24769 C 1797.49 -7.64886 -2.9555 0
M  V30 24770 O 1797.1 -8.53963 -1.90717 0
M  V30 24771 C 1796.61 -6.4116 -2.90739 0
M  V30 24772 C 1797.32 -5.55375 -1.86963 0
M  V30 24773 N 1797.27 -4.09448 -2.16152 0
M  V30 24774 H 1800.11 -7.45574 -4.45629 0
M  V30 24775 H 1800.38 -5.85864 -3.679 0
M  V30 24776 H 1799.51 -7.84412 -2.24479 0
M  V30 24777 H 1796.86 -5.73457 -0.888562 0
M  V30 24778 H 1796.58 -5.90877 -3.88583 0
M  V30 24779 H 1795.59 -6.6596 -2.58858 0
M  V30 24780 H 1797.42 -8.16339 -3.92049 0
M  V30 24781 P 1795.55 -8.7635 -1.60911 0
M  V30 24782 O 1795.33 -10.1388 -1.11561 0
M  V30 24783 O 1794.76 -8.36503 -2.79617 0
M  V30 24784 O 1795.3 -7.71806 -0.42951 0
M  V30 24785 C 1796.24 -7.67148 0.673689 0
M  V30 24786 C 1795.51 -7.33374 1.95559 0
M  V30 24787 O 1795.3 -5.88721 2.00726 0
M  V30 24788 C 1794.11 -7.92526 2.10483 0
M  V30 24789 O 1793.72 -8.02971 3.47653 0
M  V30 24790 C 1793.23 -6.89602 1.41652 0
M  V30 24791 C 1793.94 -5.59201 1.75185 0
M  V30 24792 N 1793.89 -4.58301 0.657969 0
M  V30 24793 H 1796.73 -8.65116 0.777161 0
M  V30 24794 H 1797 -6.9022 0.46725 0
M  V30 24795 H 1796.13 -7.66548 2.79458 0
M  V30 24796 H 1793.48 -5.16165 2.65183 0
M  V30 24797 H 1793.2 -7.06433 0.329384 0
M  V30 24798 H 1792.21 -6.90926 1.82021 0
M  V30 24799 H 1794.04 -8.90873 1.62657 0
M  V30 24800 P 1792.17 -8.03563 3.84925 0
M  V30 24801 O 1791.95 -8.85821 5.0569 0
M  V30 24802 O 1791.38 -8.41101 2.65469 0
M  V30 24803 O 1791.92 -6.4965 4.18908 0
M  V30 24804 C 1792.86 -5.81037 5.05421 0
M  V30 24805 C 1792.13 -4.78366 5.89277 0
M  V30 24806 O 1791.92 -3.58302 5.08433 0
M  V30 24807 C 1790.73 -5.17448 6.36119 0
M  V30 24808 O 1790.34 -4.45271 7.53232 0
M  V30 24809 C 1789.85 -4.74639 5.19936 0
M  V30 24810 C 1790.56 -3.49432 4.70418 0
M  V30 24811 N 1790.51 -3.31776 3.22945 0
M  V30 24812 H 1793.35 -6.54213 5.71376 0
M  V30 24813 H 1793.62 -5.30492 4.44033 0
M  V30 24814 H 1792.75 -4.55889 6.76652 0
M  V30 24815 P 1788.79 -4.23843 7.83734 0
M  V30 24816 O 1788.57 -4.19407 9.29784 0
M  V30 24817 O 1788 -5.24426 7.09156 0
M  V30 24818 O 1788.54 -2.7935 7.20758 0
M  V30 24819 C 1789.48 -1.7299 7.50419 0
M  V30 24820 C 1788.75 -0.406376 7.57911 0
M  V30 24821 O 1788.54 0.0897726 6.21935 0
M  V30 24822 C 1787.35 -0.447224 8.1878 0
M  V30 24823 O 1786.96 0.825065 8.71101 0
M  V30 24824 C 1786.47 -0.783801 6.99623 0
M  V30 24825 C 1787.18 -0.0619192 5.85967 0
M  V30 24826 N 1787.13 -0.790462 4.56202 0
M  V30 24827 H 1789.97 -1.93423 8.4679 0
M  V30 24828 H 1790.24 -1.68852 6.70877 0
M  V30 24829 H 1789.37 0.289041 8.15388 0
M  V30 24830 H 1786.72 0.927006 5.72848 0
M  V30 24831 H 1786.44 -1.86973 6.82036 0
M  V30 24832 H 1785.45 -0.403953 7.13357 0
M  V30 24833 H 1787.28 -1.20599 8.97534 0
M  V30 24834 P 1785.41 1.17771 8.83182 0
M  V30 24835 O 1785.19 2.07206 9.98732 0
M  V30 24836 O 1784.62 -0.0743816 8.81969 0
M  V30 24837 O 1785.16 1.97652 7.47304 0
M  V30 24838 C 1786.1 3.01133 7.08783 0
M  V30 24839 C 1785.37 4.12613 6.37049 0
M  V30 24840 O 1785.16 3.72827 4.97879 0
M  V30 24841 C 1783.97 4.45085 6.88694 0
M  V30 24842 O 1783.58 5.7877 6.5624 0
M  V30 24843 C 1783.09 3.47817 6.12078 0
M  V30 24844 C 1783.8 3.39414 4.77697 0
M  V30 24845 N 1783.75 2.04615 4.15333 0
M  V30 24846 H 1786.59 3.41248 7.98759 0
M  V30 24847 H 1786.86 2.5837 6.41742 0
M  V30 24848 H 1785.99 5.02657 6.42673 0
M  V30 24849 P 1782.03 6.144 6.45285 0
M  V30 24850 O 1781.81 7.54673 6.86199 0
M  V30 24851 O 1781.24 5.12391 7.179 0
M  V30 24852 O 1781.78 5.99158 4.88404 0
M  V30 24853 C 1782.72 6.60234 3.96415 0
M  V30 24854 C 1781.99 7.08259 2.72856 0
M  V30 24855 O 1781.78 5.9427 1.83651 0
M  V30 24856 C 1780.59 7.64886 2.9555 0
M  V30 24857 O 1780.2 8.53963 1.90717 0
M  V30 24858 C 1779.71 6.4116 2.90739 0
M  V30 24859 C 1780.42 5.55375 1.86963 0
M  V30 24860 N 1780.37 4.09448 2.16152 0
M  V30 24861 H 1783.21 7.45574 4.45629 0
M  V30 24862 H 1783.48 5.85864 3.679 0
M  V30 24863 H 1782.61 7.84412 2.24479 0
M  V30 24864 H 1779.96 5.73457 0.888562 0
M  V30 24865 H 1779.68 5.90877 3.88583 0
M  V30 24866 H 1778.69 6.6596 2.58858 0
M  V30 24867 H 1780.52 8.16339 3.92049 0
M  V30 24868 P 1778.65 8.7635 1.60911 0
M  V30 24869 O 1778.43 10.1388 1.11561 0
M  V30 24870 O 1777.86 8.36503 2.79617 0
M  V30 24871 O 1778.4 7.71806 0.42951 0
M  V30 24872 C 1779.34 7.67148 -0.673689 0
M  V30 24873 C 1778.61 7.33374 -1.95559 0
M  V30 24874 O 1778.4 5.88721 -2.00726 0
M  V30 24875 C 1777.21 7.92526 -2.10483 0
M  V30 24876 O 1776.82 8.02971 -3.47653 0
M  V30 24877 C 1776.33 6.89602 -1.41652 0
M  V30 24878 C 1777.04 5.59201 -1.75185 0
M  V30 24879 N 1776.99 4.58235 -0.662552 0
M  V30 24880 H 1779.83 8.65116 -0.777161 0
M  V30 24881 H 1780.1 6.90173 -0.474152 0
M  V30 24882 H 1779.23 7.66548 -2.79458 0
M  V30 24883 P 1775.27 8.03563 -3.84925 0
M  V30 24884 O 1775.05 8.85821 -5.0569 0
M  V30 24885 O 1774.48 8.41101 -2.65469 0
M  V30 24886 O 1775.02 6.4965 -4.18908 0
M  V30 24887 C 1775.96 5.81037 -5.05421 0
M  V30 24888 C 1775.23 4.78366 -5.89277 0
M  V30 24889 O 1775.02 3.58302 -5.08433 0
M  V30 24890 C 1773.83 5.17448 -6.36119 0
M  V30 24891 O 1773.44 4.45271 -7.53232 0
M  V30 24892 C 1772.95 4.74639 -5.19936 0
M  V30 24893 C 1773.66 3.49432 -4.70418 0
M  V30 24894 N 1773.61 3.31776 -3.22945 0
M  V30 24895 H 1776.45 6.54213 -5.71376 0
M  V30 24896 H 1776.72 5.30492 -4.44033 0
M  V30 24897 H 1775.85 4.55889 -6.76652 0
M  V30 24898 P 1771.89 4.23843 -7.83734 0
M  V30 24899 O 1771.67 4.19407 -9.29784 0
M  V30 24900 O 1771.1 5.24426 -7.09156 0
M  V30 24901 O 1771.64 2.7935 -7.20758 0
M  V30 24902 C 1772.58 1.7299 -7.50419 0
M  V30 24903 C 1771.85 0.406376 -7.57911 0
M  V30 24904 O 1771.64 -0.0897726 -6.21935 0
M  V30 24905 C 1770.45 0.447224 -8.1878 0
M  V30 24906 O 1770.06 -0.825065 -8.71101 0
M  V30 24907 C 1769.57 0.783801 -6.99623 0
M  V30 24908 C 1770.28 0.0619192 -5.85967 0
M  V30 24909 N 1770.23 0.790462 -4.56202 0
M  V30 24910 H 1773.07 1.93423 -8.4679 0
M  V30 24911 H 1773.34 1.68852 -6.70877 0
M  V30 24912 H 1772.47 -0.289041 -8.15388 0
M  V30 24913 H 1769.82 -0.927006 -5.72848 0
M  V30 24914 H 1769.54 1.86973 -6.82036 0
M  V30 24915 H 1768.55 0.403953 -7.13357 0
M  V30 24916 H 1770.38 1.20599 -8.97534 0
M  V30 24917 P 1768.51 -1.17771 -8.83182 0
M  V30 24918 O 1768.29 -2.07206 -9.98732 0
M  V30 24919 O 1767.72 0.0743816 -8.81969 0
M  V30 24920 O 1768.26 -1.97652 -7.47304 0
M  V30 24921 C 1769.2 -3.01133 -7.08783 0
M  V30 24922 C 1768.47 -4.12613 -6.37049 0
M  V30 24923 O 1768.26 -3.72827 -4.97879 0
M  V30 24924 C 1767.07 -4.45085 -6.88694 0
M  V30 24925 O 1766.68 -5.7877 -6.5624 0
M  V30 24926 C 1766.19 -3.47817 -6.12078 0
M  V30 24927 C 1766.9 -3.39414 -4.77697 0
M  V30 24928 N 1766.85 -2.04199 -4.15538 0
M  V30 24929 H 1769.69 -3.41248 -7.98759 0
M  V30 24930 H 1769.96 -2.57728 -6.42 0
M  V30 24931 H 1769.09 -5.02657 -6.42673 0
M  V30 24932 H 1766.44 -4.11708 -4.08956 0
M  V30 24933 H 1766.16 -2.49626 -6.61679 0
M  V30 24934 H 1765.17 -3.8662 -6.00862 0
M  V30 24935 H 1767 -4.29991 -7.97006 0
M  V30 24936 P 1765.13 -6.144 -6.45285 0
M  V30 24937 O 1764.91 -7.54673 -6.86199 0
M  V30 24938 O 1764.34 -5.12391 -7.179 0
M  V30 24939 O 1764.88 -5.99158 -4.88404 0
M  V30 24940 C 1765.82 -6.60234 -3.96415 0
M  V30 24941 C 1765.09 -7.08259 -2.72856 0
M  V30 24942 O 1764.88 -5.9427 -1.83651 0
M  V30 24943 C 1763.69 -7.64886 -2.9555 0
M  V30 24944 O 1763.3 -8.53963 -1.90717 0
M  V30 24945 C 1762.81 -6.4116 -2.90739 0
M  V30 24946 C 1763.52 -5.55375 -1.86963 0
M  V30 24947 N 1763.47 -4.09664 -2.15742 0
M  V30 24948 H 1766.31 -7.45574 -4.45629 0
M  V30 24949 H 1766.58 -5.86232 -3.67314 0
M  V30 24950 H 1765.71 -7.84412 -2.24479 0
M  V30 24951 P 1761.75 -8.7635 -1.60911 0
M  V30 24952 O 1761.53 -10.1388 -1.11561 0
M  V30 24953 O 1760.96 -8.36503 -2.79617 0
M  V30 24954 O 1761.5 -7.71806 -0.42951 0
M  V30 24955 C 1762.44 -7.67148 0.673689 0
M  V30 24956 C 1761.71 -7.33374 1.95559 0
M  V30 24957 O 1761.5 -5.88721 2.00726 0
M  V30 24958 C 1760.31 -7.92526 2.10483 0
M  V30 24959 O 1759.92 -8.02971 3.47653 0
M  V30 24960 C 1759.43 -6.89602 1.41652 0
M  V30 24961 C 1760.14 -5.59201 1.75185 0
M  V30 24962 N 1760.09 -4.58301 0.657969 0
M  V30 24963 H 1762.93 -8.65116 0.777161 0
M  V30 24964 H 1763.2 -6.9022 0.46725 0
M  V30 24965 H 1762.33 -7.66548 2.79458 0
M  V30 24966 H 1759.68 -5.16165 2.65183 0
M  V30 24967 H 1759.4 -7.06433 0.329384 0
M  V30 24968 H 1758.41 -6.90926 1.82021 0
M  V30 24969 H 1760.24 -8.90873 1.62657 0
M  V30 24970 P 1758.37 -8.03563 3.84925 0
M  V30 24971 O 1758.15 -8.85821 5.0569 0
M  V30 24972 O 1757.58 -8.41101 2.65469 0
M  V30 24973 O 1758.12 -6.4965 4.18908 0
M  V30 24974 C 1759.06 -5.81037 5.05421 0
M  V30 24975 C 1758.33 -4.78366 5.89277 0
M  V30 24976 O 1758.12 -3.58302 5.08433 0
M  V30 24977 C 1756.93 -5.17448 6.36119 0
M  V30 24978 O 1756.54 -4.45271 7.53232 0
M  V30 24979 C 1756.05 -4.74639 5.19936 0
M  V30 24980 C 1756.76 -3.49432 4.70418 0
M  V30 24981 N 1756.71 -3.31776 3.22945 0
M  V30 24982 H 1759.55 -6.54213 5.71376 0
M  V30 24983 H 1759.82 -5.30492 4.44033 0
M  V30 24984 H 1758.95 -4.55889 6.76652 0
M  V30 24985 P 1754.99 -4.23843 7.83734 0
M  V30 24986 O 1754.77 -4.19407 9.29784 0
M  V30 24987 O 1754.2 -5.24426 7.09156 0
M  V30 24988 O 1754.74 -2.7935 7.20758 0
M  V30 24989 C 1755.68 -1.72945 7.50224 0
M  V30 24990 C 1754.95 -0.406376 7.57911 0
M  V30 24991 O 1754.74 0.0897726 6.21935 0
M  V30 24992 C 1753.55 -0.438983 8.18724 0
M  V30 24993 O 1753.16 0.825065 8.71101 0
M  V30 24994 C 1752.67 -0.783689 6.99524 0
M  V30 24995 C 1753.38 -0.0619086 5.85867 0
M  V30 24996 N 1753.33 -0.78573 4.56183 0
M  V30 24997 C 1753.18 -0.0292889 3.41887 0
M  V30 24998 O 1753.09 1.18445 3.4419 0
M  V30 24999 N 1753.14 -0.744061 2.23964 0
M  V30 25000 C 1753.23 -2.10932 2.10362 0
M  V30 25001 C 1753.38 -2.8202 3.34994 0
M  V30 25002 C 1753.43 -2.15547 4.52261 0
M  V30 25003 H 1756.17 -1.93379 8.46595 0
M  V30 25004 H 1756.44 -1.68132 6.70852 0
M  V30 25005 H 1755.57 0.289041 8.15388 0
M  V30 25006 H 1752.92 0.926847 5.72749 0
M  V30 25007 H 1752.64 -1.86973 6.82036 0
M  V30 25008 H 1751.65 -0.403896 7.13257 0
M  V30 25009 H 1753.48 -1.20585 8.97435 0
M  V30 25010 H 1753.55 -2.71231 5.45042 0
M  V30 25011 P 1751.61 1.17771 8.83182 0
M  V30 25012 O 1751.39 2.07206 9.98732 0
M  V30 25013 O 1750.82 -0.0743816 8.81969 0
M  V30 25014 O 1751.36 1.97652 7.47304 0
M  V30 25015 C 1752.3 3.01133 7.08783 0
M  V30 25016 C 1751.57 4.12613 6.37049 0
M  V30 25017 O 1751.36 3.72827 4.97879 0
M  V30 25018 C 1750.17 4.45085 6.88694 0
M  V30 25019 O 1749.78 5.7877 6.5624 0
M  V30 25020 C 1749.29 3.47817 6.12078 0
M  V30 25021 C 1750 3.39414 4.77697 0
M  V30 25022 N 1749.95 2.04615 4.15333 0
M  V30 25023 C 1750.03 0.803897 4.75249 0
M  V30 25024 N 1749.95 -0.197615 3.91502 0
M  V30 25025 C 1749.81 0.413002 2.66823 0
M  V30 25026 C 1749.68 -0.157221 1.38007 0
M  V30 25027 N 1749.56 0.833136 0.390236 0
M  V30 25028 C 1749.56 2.19402 0.623885 0
M  V30 25029 N 1749.43 2.97622 -0.449677 0
M  V30 25030 N 1749.69 2.73005 1.83601 0
M  V30 25031 C 1749.81 1.78786 2.80935 0
M  V30 25032 H 1752.79 3.41248 7.98759 0
M  V30 25033 H 1753.06 2.5837 6.41742 0
M  V30 25034 H 1752.19 5.02657 6.42673 0
M  V30 25035 P 1748.23 6.144 6.45285 0
M  V30 25036 O 1748.01 7.54673 6.86199 0
M  V30 25037 O 1747.44 5.12391 7.179 0
M  V30 25038 O 1747.98 5.99158 4.88404 0
M  V30 25039 C 1748.92 6.60234 3.96415 0
M  V30 25040 C 1748.19 7.08259 2.72856 0
M  V30 25041 O 1747.98 5.9427 1.83651 0
M  V30 25042 C 1746.79 7.64886 2.9555 0
M  V30 25043 O 1746.4 8.53963 1.90717 0
M  V30 25044 C 1745.91 6.4116 2.90739 0
M  V30 25045 C 1746.62 5.55375 1.86963 0
M  V30 25046 N 1746.57 4.09448 2.16152 0
M  V30 25047 H 1749.41 7.45574 4.45629 0
M  V30 25048 H 1749.68 5.85864 3.679 0
M  V30 25049 H 1748.81 7.84412 2.24479 0
M  V30 25050 H 1746.16 5.73457 0.888562 0
M  V30 25051 H 1745.88 5.90877 3.88583 0
M  V30 25052 H 1744.89 6.6596 2.58858 0
M  V30 25053 H 1746.72 8.16339 3.92049 0
M  V30 25054 P 1744.85 8.7635 1.60911 0
M  V30 25055 O 1744.63 10.1388 1.11561 0
M  V30 25056 O 1744.06 8.36503 2.79617 0
M  V30 25057 O 1744.6 7.71806 0.42951 0
M  V30 25058 C 1745.54 7.67148 -0.673689 0
M  V30 25059 C 1744.81 7.33374 -1.95559 0
M  V30 25060 O 1744.6 5.88721 -2.00726 0
M  V30 25061 C 1743.41 7.92526 -2.10483 0
M  V30 25062 O 1743.02 8.02971 -3.47653 0
M  V30 25063 C 1742.53 6.89602 -1.41652 0
M  V30 25064 C 1743.24 5.59201 -1.75185 0
M  V30 25065 N 1743.19 4.58235 -0.662552 0
M  V30 25066 H 1746.03 8.65116 -0.777161 0
M  V30 25067 H 1746.3 6.90173 -0.474152 0
M  V30 25068 H 1745.43 7.66548 -2.79458 0
M  V30 25069 P 1741.47 8.03563 -3.84925 0
M  V30 25070 O 1741.25 8.85821 -5.0569 0
M  V30 25071 O 1740.68 8.41101 -2.65469 0
M  V30 25072 O 1741.22 6.4965 -4.18908 0
M  V30 25073 C 1742.16 5.81037 -5.05421 0
M  V30 25074 C 1741.43 4.78366 -5.89277 0
M  V30 25075 O 1741.22 3.58302 -5.08433 0
M  V30 25076 C 1740.03 5.17448 -6.36119 0
M  V30 25077 O 1739.64 4.45271 -7.53232 0
M  V30 25078 C 1739.15 4.74639 -5.19936 0
M  V30 25079 C 1739.86 3.49432 -4.70418 0
M  V30 25080 N 1739.81 3.32099 -3.22613 0
M  V30 25081 H 1742.65 6.54213 -5.71376 0
M  V30 25082 H 1742.92 5.30936 -4.43503 0
M  V30 25083 H 1742.05 4.55889 -6.76652 0
M  V30 25084 H 1739.4 2.61715 -5.17932 0
M  V30 25085 H 1739.12 5.52155 -4.41878 0
M  V30 25086 H 1738.13 4.51981 -5.53374 0
M  V30 25087 H 1739.96 6.25124 -6.55234 0
M  V30 25088 P 1738.09 4.23843 -7.83734 0
M  V30 25089 O 1737.87 4.19407 -9.29784 0
M  V30 25090 O 1737.3 5.24426 -7.09156 0
M  V30 25091 O 1737.84 2.7935 -7.20758 0
M  V30 25092 C 1738.78 1.7299 -7.50419 0
M  V30 25093 C 1738.05 0.406376 -7.57911 0
M  V30 25094 O 1737.84 -0.0897726 -6.21935 0
M  V30 25095 C 1736.65 0.447224 -8.1878 0
M  V30 25096 O 1736.26 -0.825065 -8.71101 0
M  V30 25097 C 1735.77 0.783801 -6.99623 0
M  V30 25098 C 1736.48 0.0619192 -5.85967 0
M  V30 25099 N 1736.43 0.7859 -4.56281 0
M  V30 25100 H 1739.27 1.93423 -8.4679 0
M  V30 25101 H 1739.54 1.68181 -6.71046 0
M  V30 25102 H 1738.67 -0.289041 -8.15388 0
M  V30 25103 P 1734.71 -1.17771 -8.83182 0
M  V30 25104 O 1734.49 -2.07206 -9.98732 0
M  V30 25105 O 1733.92 0.0743816 -8.81969 0
M  V30 25106 O 1734.46 -1.97652 -7.47304 0
M  V30 25107 C 1735.4 -3.01133 -7.08783 0
M  V30 25108 C 1734.67 -4.12613 -6.37049 0
M  V30 25109 O 1734.46 -3.72827 -4.97879 0
M  V30 25110 C 1733.27 -4.45085 -6.88694 0
M  V30 25111 O 1732.88 -5.7877 -6.5624 0
M  V30 25112 C 1732.39 -3.47817 -6.12078 0
M  V30 25113 C 1733.1 -3.39414 -4.77697 0
M  V30 25114 N 1733.05 -2.04615 -4.15333 0
M  V30 25115 H 1735.89 -3.41248 -7.98759 0
M  V30 25116 H 1736.16 -2.5837 -6.41742 0
M  V30 25117 H 1735.29 -5.02657 -6.42673 0
M  V30 25118 P 1731.33 -6.144 -6.45285 0
M  V30 25119 O 1731.11 -7.54673 -6.86199 0
M  V30 25120 O 1730.54 -5.12391 -7.179 0
M  V30 25121 O 1731.08 -5.99158 -4.88404 0
M  V30 25122 C 1732.02 -6.60234 -3.96415 0
M  V30 25123 C 1731.29 -7.08259 -2.72856 0
M  V30 25124 O 1731.08 -5.9427 -1.83651 0
M  V30 25125 C 1729.89 -7.64886 -2.9555 0
M  V30 25126 O 1729.5 -8.53963 -1.90717 0
M  V30 25127 C 1729.01 -6.4116 -2.90739 0
M  V30 25128 C 1729.72 -5.55375 -1.86963 0
M  V30 25129 N 1729.67 -4.09664 -2.15742 0
M  V30 25130 H 1732.51 -7.45574 -4.45629 0
M  V30 25131 H 1732.78 -5.86232 -3.67314 0
M  V30 25132 H 1731.91 -7.84412 -2.24479 0
M  V30 25133 P 1727.95 -8.7635 -1.60911 0
M  V30 25134 O 1727.73 -10.1388 -1.11561 0
M  V30 25135 O 1727.16 -8.36503 -2.79617 0
M  V30 25136 O 1727.7 -7.71806 -0.42951 0
M  V30 25137 C 1728.64 -7.67148 0.673689 0
M  V30 25138 C 1727.91 -7.33374 1.95559 0
M  V30 25139 O 1727.7 -5.88721 2.00726 0
M  V30 25140 C 1726.51 -7.92526 2.10483 0
M  V30 25141 O 1726.12 -8.02971 3.47653 0
M  V30 25142 C 1725.63 -6.89602 1.41652 0
M  V30 25143 C 1726.34 -5.59201 1.75185 0
M  V30 25144 N 1726.29 -4.58301 0.657969 0
M  V30 25145 H 1729.13 -8.65116 0.777161 0
M  V30 25146 H 1729.4 -6.9022 0.46725 0
M  V30 25147 H 1728.53 -7.66548 2.79458 0
M  V30 25148 H 1725.88 -5.16165 2.65183 0
M  V30 25149 H 1725.6 -7.06433 0.329384 0
M  V30 25150 H 1724.61 -6.90926 1.82021 0
M  V30 25151 H 1726.44 -8.90873 1.62657 0
M  V30 25152 P 1724.57 -8.03563 3.84925 0
M  V30 25153 O 1724.35 -8.85821 5.0569 0
M  V30 25154 O 1723.78 -8.41101 2.65469 0
M  V30 25155 O 1724.32 -6.4965 4.18908 0
M  V30 25156 C 1725.26 -5.81037 5.05421 0
M  V30 25157 C 1724.53 -4.78366 5.89277 0
M  V30 25158 O 1724.32 -3.58302 5.08433 0
M  V30 25159 C 1723.13 -5.17448 6.36119 0
M  V30 25160 O 1722.74 -4.45271 7.53232 0
M  V30 25161 C 1722.25 -4.74639 5.19936 0
M  V30 25162 C 1722.96 -3.49432 4.70418 0
M  V30 25163 N 1722.91 -3.31776 3.22945 0
M  V30 25164 H 1725.75 -6.54213 5.71376 0
M  V30 25165 H 1726.02 -5.30492 4.44033 0
M  V30 25166 H 1725.15 -4.55889 6.76652 0
M  V30 25167 P 1721.19 -4.23843 7.83734 0
M  V30 25168 O 1720.97 -4.19407 9.29784 0
M  V30 25169 O 1720.4 -5.24426 7.09156 0
M  V30 25170 O 1720.94 -2.7935 7.20758 0
M  V30 25171 C 1721.88 -1.7299 7.50419 0
M  V30 25172 C 1721.15 -0.406376 7.57911 0
M  V30 25173 O 1720.94 0.0897726 6.21935 0
M  V30 25174 C 1719.75 -0.447224 8.1878 0
M  V30 25175 O 1719.36 0.825065 8.71101 0
M  V30 25176 C 1718.87 -0.783801 6.99623 0
M  V30 25177 C 1719.58 -0.0619192 5.85967 0
M  V30 25178 N 1719.53 -0.790462 4.56202 0
M  V30 25179 H 1722.37 -1.93423 8.4679 0
M  V30 25180 H 1722.64 -1.68852 6.70877 0
M  V30 25181 H 1721.77 0.289041 8.15388 0
M  V30 25182 H 1719.12 0.927006 5.72848 0
M  V30 25183 H 1718.84 -1.86973 6.82036 0
M  V30 25184 H 1717.85 -0.403953 7.13357 0
M  V30 25185 H 1719.68 -1.20599 8.97534 0
M  V30 25186 P 1717.81 1.17771 8.83182 0
M  V30 25187 O 1717.59 2.07206 9.98732 0
M  V30 25188 O 1717.02 -0.0743816 8.81969 0
M  V30 25189 O 1717.56 1.97652 7.47304 0
M  V30 25190 C 1718.5 3.01133 7.08783 0
M  V30 25191 C 1717.77 4.12613 6.37049 0
M  V30 25192 O 1717.56 3.72827 4.97879 0
M  V30 25193 C 1716.37 4.45085 6.88694 0
M  V30 25194 O 1715.98 5.7877 6.5624 0
M  V30 25195 C 1715.49 3.47817 6.12078 0
M  V30 25196 C 1716.2 3.39414 4.77697 0
M  V30 25197 N 1716.15 2.04615 4.15333 0
M  V30 25198 H 1718.99 3.41248 7.98759 0
M  V30 25199 H 1719.26 2.5837 6.41742 0
M  V30 25200 H 1718.39 5.02657 6.42673 0
M  V30 25201 P 1714.43 6.144 6.45285 0
M  V30 25202 O 1714.21 7.54673 6.86199 0
M  V30 25203 O 1713.64 5.12391 7.179 0
M  V30 25204 O 1714.18 5.99158 4.88404 0
M  V30 25205 C 1715.12 6.60234 3.96415 0
M  V30 25206 C 1714.39 7.08259 2.72856 0
M  V30 25207 O 1714.18 5.9427 1.83651 0
M  V30 25208 C 1712.99 7.64886 2.9555 0
M  V30 25209 O 1712.6 8.53963 1.90717 0
M  V30 25210 C 1712.11 6.4116 2.90739 0
M  V30 25211 C 1712.82 5.55375 1.86963 0
M  V30 25212 N 1712.77 4.09664 2.15742 0
M  V30 25213 H 1715.61 7.45574 4.45629 0
M  V30 25214 H 1715.88 5.86232 3.67314 0
M  V30 25215 H 1715.01 7.84412 2.24479 0
M  V30 25216 P 1711.05 8.7635 1.60911 0
M  V30 25217 O 1710.83 10.1388 1.11561 0
M  V30 25218 O 1710.26 8.36503 2.79617 0
M  V30 25219 O 1710.8 7.71806 0.42951 0
M  V30 25220 C 1711.74 7.67148 -0.673689 0
M  V30 25221 C 1711.01 7.33374 -1.95559 0
M  V30 25222 O 1710.8 5.88721 -2.00726 0
M  V30 25223 C 1709.61 7.92526 -2.10483 0
M  V30 25224 O 1709.22 8.02971 -3.47653 0
M  V30 25225 C 1708.73 6.89602 -1.41652 0
M  V30 25226 C 1709.44 5.59201 -1.75185 0
M  V30 25227 N 1709.39 4.58235 -0.662552 0
M  V30 25228 H 1712.23 8.65116 -0.777161 0
M  V30 25229 H 1712.5 6.90173 -0.474152 0
M  V30 25230 H 1711.63 7.66548 -2.79458 0
M  V30 25231 P 1707.67 8.03563 -3.84925 0
M  V30 25232 O 1707.45 8.85821 -5.0569 0
M  V30 25233 O 1706.88 8.41101 -2.65469 0
M  V30 25234 O 1707.42 6.4965 -4.18908 0
M  V30 25235 C 1708.36 5.81037 -5.05421 0
M  V30 25236 C 1707.63 4.78366 -5.89277 0
M  V30 25237 O 1707.42 3.58302 -5.08433 0
M  V30 25238 C 1706.23 5.17448 -6.36119 0
M  V30 25239 O 1705.84 4.45271 -7.53232 0
M  V30 25240 C 1705.35 4.74639 -5.19936 0
M  V30 25241 C 1706.06 3.49432 -4.70418 0
M  V30 25242 N 1706.01 3.31776 -3.22945 0
M  V30 25243 H 1708.85 6.54213 -5.71376 0
M  V30 25244 H 1709.12 5.30492 -4.44033 0
M  V30 25245 H 1708.25 4.55889 -6.76652 0
M  V30 25246 P 1704.29 4.23843 -7.83734 0
M  V30 25247 O 1704.07 4.19407 -9.29784 0
M  V30 25248 O 1703.5 5.24426 -7.09156 0
M  V30 25249 O 1704.04 2.7935 -7.20758 0
M  V30 25250 C 1704.98 1.7299 -7.50419 0
M  V30 25251 C 1704.25 0.406376 -7.57911 0
M  V30 25252 O 1704.04 -0.0897726 -6.21935 0
M  V30 25253 C 1702.85 0.447224 -8.1878 0
M  V30 25254 O 1702.46 -0.825065 -8.71101 0
M  V30 25255 C 1701.97 0.783801 -6.99623 0
M  V30 25256 C 1702.68 0.0619192 -5.85967 0
M  V30 25257 N 1702.63 0.7859 -4.56281 0
M  V30 25258 H 1705.47 1.93423 -8.4679 0
M  V30 25259 H 1705.74 1.68181 -6.71046 0
M  V30 25260 H 1704.87 -0.289041 -8.15388 0
M  V30 25261 P 1700.91 -1.17771 -8.83182 0
M  V30 25262 O 1700.69 -2.07206 -9.98732 0
M  V30 25263 O 1700.12 0.0743816 -8.81969 0
M  V30 25264 O 1700.66 -1.97652 -7.47304 0
M  V30 25265 C 1701.6 -3.01133 -7.08783 0
M  V30 25266 C 1700.87 -4.12613 -6.37049 0
M  V30 25267 O 1700.66 -3.72827 -4.97879 0
M  V30 25268 C 1699.47 -4.45085 -6.88694 0
M  V30 25269 O 1699.08 -5.7877 -6.5624 0
M  V30 25270 C 1698.59 -3.47817 -6.12078 0
M  V30 25271 C 1699.3 -3.39414 -4.77697 0
M  V30 25272 N 1699.25 -2.04615 -4.15333 0
M  V30 25273 H 1702.09 -3.41248 -7.98759 0
M  V30 25274 H 1702.36 -2.5837 -6.41742 0
M  V30 25275 H 1701.49 -5.02657 -6.42673 0
M  V30 25276 P 1697.53 -6.144 -6.45285 0
M  V30 25277 O 1697.31 -7.54673 -6.86199 0
M  V30 25278 O 1696.74 -5.12391 -7.179 0
M  V30 25279 O 1697.28 -5.99158 -4.88404 0
M  V30 25280 C 1698.22 -6.60062 -3.96313 0
M  V30 25281 C 1697.49 -7.08259 -2.72856 0
M  V30 25282 O 1697.28 -5.9427 -1.83651 0
M  V30 25283 C 1696.09 -7.65087 -2.94749 0
M  V30 25284 O 1695.7 -8.53963 -1.90717 0
M  V30 25285 C 1695.21 -6.41069 -2.90698 0
M  V30 25286 C 1695.92 -5.5528 -1.86931 0
M  V30 25287 N 1695.87 -4.09575 -2.15696 0
M  V30 25288 C 1695.72 -3.24249 -1.08435 0
M  V30 25289 O 1695.63 -3.63946 0.0628747 0
M  V30 25290 N 1695.68 -1.90009 -1.39973 0
M  V30 25291 C 1695.77 -1.34884 -2.65614 0
M  V30 25292 O 1695.72 -0.123716 -2.81728 0
M  V30 25293 C 1695.92 -2.3145 -3.71736 0
M  V30 25294 C 1696.03 -1.75913 -5.10438 0
M  V30 25295 C 1695.97 -3.63518 -3.44754 0
M  V30 25296 H 1698.71 -7.45402 -4.45526 0
M  V30 25297 H 1698.98 -5.86062 -3.67208 0
M  V30 25298 H 1698.11 -7.84412 -2.24479 0
M  V30 25299 H 1695.46 -5.73358 -0.888409 0
M  V30 25300 H 1695.18 -5.90877 -3.88583 0
M  V30 25301 H 1694.19 -6.65867 -2.58821 0
M  V30 25302 H 1696.02 -8.16248 -3.92006 0
M  V30 25303 H 1696.09 -4.34551 -4.26383 0
M  V30 25304 H 1695.06 -1.85471 -5.61775 0
M  V30 25305 H 1696.8 -2.31364 -5.66257 0
M  V30 25306 H 1696.31 -0.695936 -5.05229 0
M  V30 25307 H 1695.57 -1.26277 -0.63625 0
M  V30 25308 P 1694.15 -8.7635 -1.60911 0
M  V30 25309 O 1693.93 -10.1388 -1.11561 0
M  V30 25310 O 1693.36 -8.36503 -2.79617 0
M  V30 25311 O 1693.9 -7.71806 -0.42951 0
M  V30 25312 C 1694.84 -7.67148 0.673689 0
M  V30 25313 C 1694.11 -7.33374 1.95559 0
M  V30 25314 O 1693.9 -5.88721 2.00726 0
M  V30 25315 C 1692.71 -7.92526 2.10483 0
M  V30 25316 O 1692.32 -8.02971 3.47653 0
M  V30 25317 C 1691.83 -6.89602 1.41652 0
M  V30 25318 C 1692.54 -5.59201 1.75185 0
M  V30 25319 N 1692.49 -4.58235 0.662552 0
M  V30 25320 H 1695.33 -8.65116 0.777161 0
M  V30 25321 H 1695.6 -6.90173 0.474152 0
M  V30 25322 H 1694.73 -7.66548 2.79458 0
M  V30 25323 P 1690.77 -8.03563 3.84925 0
M  V30 25324 O 1690.55 -8.85821 5.0569 0
M  V30 25325 O 1689.98 -8.41101 2.65469 0
M  V30 25326 O 1690.52 -6.4965 4.18908 0
M  V30 25327 C 1691.46 -5.81037 5.05421 0
M  V30 25328 C 1690.73 -4.78366 5.89277 0
M  V30 25329 O 1690.52 -3.58302 5.08433 0
M  V30 25330 C 1689.33 -5.17448 6.36119 0
M  V30 25331 O 1688.94 -4.45271 7.53232 0
M  V30 25332 C 1688.45 -4.74639 5.19936 0
M  V30 25333 C 1689.16 -3.49432 4.70418 0
M  V30 25334 N 1689.11 -3.32099 3.22613 0
M  V30 25335 H 1691.95 -6.54213 5.71376 0
M  V30 25336 H 1692.22 -5.30936 4.43503 0
M  V30 25337 H 1691.35 -4.55889 6.76652 0
M  V30 25338 H 1688.7 -2.61715 5.17932 0
M  V30 25339 H 1688.42 -5.52155 4.41878 0
M  V30 25340 H 1687.43 -4.51981 5.53374 0
M  V30 25341 H 1689.26 -6.25124 6.55234 0
M  V30 25342 P 1687.39 -4.23843 7.83734 0
M  V30 25343 O 1687.17 -4.19407 9.29784 0
M  V30 25344 O 1686.6 -5.24426 7.09156 0
M  V30 25345 O 1687.14 -2.7935 7.20758 0
M  V30 25346 C 1688.08 -1.7299 7.50419 0
M  V30 25347 C 1687.35 -0.406376 7.57911 0
M  V30 25348 O 1687.14 0.0897726 6.21935 0
M  V30 25349 C 1685.95 -0.447224 8.1878 0
M  V30 25350 O 1685.56 0.825065 8.71101 0
M  V30 25351 C 1685.07 -0.783801 6.99623 0
M  V30 25352 C 1685.78 -0.0619192 5.85967 0
M  V30 25353 N 1685.73 -0.7859 4.56281 0
M  V30 25354 H 1688.57 -1.93423 8.4679 0
M  V30 25355 H 1688.84 -1.68181 6.71046 0
M  V30 25356 H 1687.97 0.289041 8.15388 0
M  V30 25357 P 1684.01 1.17771 8.83182 0
M  V30 25358 O 1683.79 2.07206 9.98732 0
M  V30 25359 O 1683.22 -0.0743816 8.81969 0
M  V30 25360 O 1683.76 1.97652 7.47304 0
M  V30 25361 C 1684.7 3.01133 7.08783 0
M  V30 25362 C 1683.97 4.12613 6.37049 0
M  V30 25363 O 1683.76 3.72827 4.97879 0
M  V30 25364 C 1682.57 4.45085 6.88694 0
M  V30 25365 O 1682.18 5.7877 6.5624 0
M  V30 25366 C 1681.69 3.47817 6.12078 0
M  V30 25367 C 1682.4 3.39414 4.77697 0
M  V30 25368 N 1682.35 2.04615 4.15333 0
M  V30 25369 H 1685.19 3.41248 7.98759 0
M  V30 25370 H 1685.46 2.5837 6.41742 0
M  V30 25371 H 1684.59 5.02657 6.42673 0
M  V30 25372 P 1680.63 6.144 6.45285 0
M  V30 25373 O 1680.41 7.54673 6.86199 0
M  V30 25374 O 1679.84 5.12391 7.179 0
M  V30 25375 O 1680.38 5.99158 4.88404 0
M  V30 25376 C 1681.32 6.60234 3.96415 0
M  V30 25377 C 1680.59 7.08259 2.72856 0
M  V30 25378 O 1680.38 5.9427 1.83651 0
M  V30 25379 C 1679.19 7.64886 2.9555 0
M  V30 25380 O 1678.8 8.53963 1.90717 0
M  V30 25381 C 1678.31 6.4116 2.90739 0
M  V30 25382 C 1679.02 5.55375 1.86963 0
M  V30 25383 N 1678.97 4.09664 2.15742 0
M  V30 25384 H 1681.81 7.45574 4.45629 0
M  V30 25385 H 1682.08 5.86232 3.67314 0
M  V30 25386 H 1681.21 7.84412 2.24479 0
M  V30 25387 P 1677.25 8.7635 1.60911 0
M  V30 25388 O 1677.03 10.1388 1.11561 0
M  V30 25389 O 1676.46 8.36503 2.79617 0
M  V30 25390 O 1677 7.71906 0.429565 0
M  V30 25391 C 1677.94 7.67148 -0.673689 0
M  V30 25392 C 1677.21 7.33666 -1.94851 0
M  V30 25393 O 1677 5.88816 -2.00759 0
M  V30 25394 C 1675.81 7.92526 -2.10483 0
M  V30 25395 O 1675.42 8.03063 -3.47693 0
M  V30 25396 C 1674.93 6.89602 -1.41652 0
M  V30 25397 C 1675.64 5.59201 -1.75185 0
M  V30 25398 N 1675.59 4.58235 -0.662552 0
M  V30 25399 C 1675.44 3.24451 -1.01643 0
M  V30 25400 O 1675.35 2.94958 -2.21722 0
M  V30 25401 N 1675.39 2.30408 0.165238 0
M  V30 25402 C 1675.49 2.66048 1.25118 0
M  V30 25403 N 1675.44 1.70787 2.16813 0
M  V30 25404 C 1675.64 4.02732 1.64413 0
M  V30 25405 C 1675.69 4.9488 0.63991 0
M  V30 25406 H 1678.43 8.65017 -0.777072 0
M  V30 25407 H 1678.7 6.90173 -0.474152 0
M  V30 25408 H 1677.83 7.66642 -2.79492 0
M  V30 25409 H 1675.18 5.16254 -2.65229 0
M  V30 25410 H 1674.9 7.06532 -0.329431 0
M  V30 25411 H 1673.91 6.91023 -1.82047 0
M  V30 25412 H 1675.74 8.90873 -1.62657 0
M  V30 25413 H 1675.81 6.00104 0.892197 0
M  V30 25414 H 1675.71 4.31733 2.69229 0
M  V30 25415 H 1675.32 0.724835 1.8844 0
M  V30 25416 H 1675.52 1.94716 3.16734 0
M  V30 25417 P 1673.87 8.03563 -3.84925 0
M  V30 25418 O 1673.65 8.85821 -5.0569 0
M  V30 25419 O 1673.08 8.41101 -2.65469 0
M  V30 25420 O 1673.62 6.4965 -4.18908 0
M  V30 25421 C 1674.56 5.81037 -5.05421 0
M  V30 25422 C 1673.83 4.78366 -5.89277 0
M  V30 25423 O 1673.62 3.58302 -5.08433 0
M  V30 25424 C 1672.43 5.17448 -6.36119 0
M  V30 25425 O 1672.04 4.45271 -7.53232 0
M  V30 25426 C 1671.55 4.74639 -5.19936 0
M  V30 25427 C 1672.26 3.49432 -4.70418 0
M  V30 25428 N 1672.21 3.31776 -3.22945 0
M  V30 25429 H 1675.05 6.54213 -5.71376 0
M  V30 25430 H 1675.32 5.30492 -4.44033 0
M  V30 25431 H 1674.45 4.55889 -6.76652 0
M  V30 25432 P 1670.49 4.23843 -7.83734 0
M  V30 25433 O 1670.27 4.19407 -9.29784 0
M  V30 25434 O 1669.7 5.24426 -7.09156 0
M  V30 25435 O 1670.24 2.7935 -7.20758 0
M  V30 25436 C 1671.18 1.72945 -7.50224 0
M  V30 25437 C 1670.45 0.406376 -7.57911 0
M  V30 25438 O 1670.24 -0.0897726 -6.21935 0
M  V30 25439 C 1669.05 0.438983 -8.18724 0
M  V30 25440 O 1668.66 -0.825065 -8.71101 0
M  V30 25441 C 1668.17 0.783689 -6.99524 0
M  V30 25442 C 1668.88 0.0619086 -5.85867 0
M  V30 25443 N 1668.83 0.78573 -4.56183 0
M  V30 25444 C 1668.68 0.0292889 -3.41887 0
M  V30 25445 O 1668.59 -1.18445 -3.4419 0
M  V30 25446 N 1668.64 0.744061 -2.23964 0
M  V30 25447 C 1668.73 2.10932 -2.10362 0
M  V30 25448 C 1668.88 2.8202 -3.34994 0
M  V30 25449 C 1668.93 2.15547 -4.52261 0
M  V30 25450 H 1671.67 1.93379 -8.46595 0
M  V30 25451 H 1671.94 1.68132 -6.70852 0
M  V30 25452 H 1671.07 -0.289041 -8.15388 0
M  V30 25453 H 1668.42 -0.926847 -5.72749 0
M  V30 25454 H 1668.14 1.86973 -6.82036 0
M  V30 25455 H 1667.15 0.403896 -7.13257 0
M  V30 25456 H 1668.98 1.20585 -8.97435 0
M  V30 25457 H 1669.05 2.71231 -5.45042 0
M  V30 25458 P 1667.11 -1.17771 -8.83182 0
M  V30 25459 O 1666.89 -2.07206 -9.98732 0
M  V30 25460 O 1666.32 0.0743816 -8.81969 0
M  V30 25461 O 1666.86 -1.97652 -7.47304 0
M  V30 25462 C 1667.8 -3.01133 -7.08783 0
M  V30 25463 C 1667.07 -4.12613 -6.37049 0
M  V30 25464 O 1666.86 -3.72827 -4.97879 0
M  V30 25465 C 1665.67 -4.45085 -6.88694 0
M  V30 25466 O 1665.28 -5.7877 -6.5624 0
M  V30 25467 C 1664.79 -3.47817 -6.12078 0
M  V30 25468 C 1665.5 -3.39414 -4.77697 0
M  V30 25469 N 1665.45 -2.04615 -4.15333 0
M  V30 25470 H 1668.29 -3.41248 -7.98759 0
M  V30 25471 H 1668.56 -2.5837 -6.41742 0
M  V30 25472 H 1667.69 -5.02657 -6.42673 0
M  V30 25473 P 1663.73 -6.144 -6.45285 0
M  V30 25474 O 1663.51 -7.54673 -6.86199 0
M  V30 25475 O 1662.94 -5.12391 -7.179 0
M  V30 25476 O 1663.48 -5.99158 -4.88404 0
M  V30 25477 C 1664.42 -6.60062 -3.96313 0
M  V30 25478 C 1663.69 -7.08259 -2.72856 0
M  V30 25479 O 1663.48 -5.9427 -1.83651 0
M  V30 25480 C 1662.29 -7.65087 -2.94749 0
M  V30 25481 O 1661.9 -8.53963 -1.90717 0
M  V30 25482 C 1661.41 -6.41069 -2.90698 0
M  V30 25483 C 1662.12 -5.5528 -1.86931 0
M  V30 25484 N 1662.07 -4.09575 -2.15696 0
M  V30 25485 C 1661.92 -3.24249 -1.08435 0
M  V30 25486 O 1661.83 -3.63946 0.0628747 0
M  V30 25487 N 1661.88 -1.90009 -1.39973 0
M  V30 25488 C 1661.97 -1.34884 -2.65614 0
M  V30 25489 O 1661.92 -0.123716 -2.81728 0
M  V30 25490 C 1662.12 -2.3145 -3.71736 0
M  V30 25491 C 1662.23 -1.75913 -5.10438 0
M  V30 25492 C 1662.17 -3.63518 -3.44754 0
M  V30 25493 H 1664.91 -7.45402 -4.45526 0
M  V30 25494 H 1665.18 -5.86062 -3.67208 0
M  V30 25495 H 1664.31 -7.84412 -2.24479 0
M  V30 25496 H 1661.66 -5.73358 -0.888409 0
M  V30 25497 H 1661.38 -5.90877 -3.88583 0
M  V30 25498 H 1660.39 -6.65867 -2.58821 0
M  V30 25499 H 1662.22 -8.16248 -3.92006 0
M  V30 25500 H 1662.29 -4.34551 -4.26383 0
M  V30 25501 H 1661.26 -1.85471 -5.61775 0
M  V30 25502 H 1663 -2.31364 -5.66257 0
M  V30 25503 H 1662.51 -0.695936 -5.05229 0
M  V30 25504 H 1661.78 -1.26277 -0.63625 0
M  V30 25505 P 1660.35 -8.7635 -1.60911 0
M  V30 25506 O 1660.13 -10.1388 -1.11561 0
M  V30 25507 O 1659.56 -8.36503 -2.79617 0
M  V30 25508 O 1660.1 -7.71806 -0.42951 0
M  V30 25509 C 1661.04 -7.66948 0.673514 0
M  V30 25510 C 1660.31 -7.33374 1.95559 0
M  V30 25511 O 1660.1 -5.88721 2.00726 0
M  V30 25512 C 1658.91 -7.92218 2.1125 0
M  V30 25513 O 1658.52 -8.02971 3.47653 0
M  V30 25514 C 1658.03 -6.89504 1.41631 0
M  V30 25515 C 1658.74 -5.59106 1.75155 0
M  V30 25516 N 1658.69 -4.58136 0.662409 0
M  V30 25517 C 1658.54 -3.26059 1.02863 0
M  V30 25518 O 1658.45 -2.90743 2.19009 0
M  V30 25519 N 1658.5 -2.35995 -0.0155585 0
M  V30 25520 C 1658.59 -2.65248 -1.35603 0
M  V30 25521 O 1658.54 -1.75605 -2.20651 0
M  V30 25522 C 1658.74 -4.05747 -1.64698 0
M  V30 25523 C 1658.85 -4.42345 -3.09553 0
M  V30 25524 C 1658.79 -4.96734 -0.652411 0
M  V30 25525 H 1661.53 -8.64917 0.776982 0
M  V30 25526 H 1661.8 -6.89974 0.474015 0
M  V30 25527 H 1660.93 -7.66548 2.79458 0
M  V30 25528 H 1658.28 -5.16076 2.65138 0
M  V30 25529 H 1658 -7.06433 0.329384 0
M  V30 25530 H 1657.01 -6.90829 1.81996 0
M  V30 25531 H 1658.84 -8.90774 1.62639 0
M  V30 25532 H 1658.91 -6.02181 -0.895285 0
M  V30 25533 H 1657.88 -4.80252 -3.45468 0
M  V30 25534 H 1659.62 -5.20015 -3.22119 0
M  V30 25535 H 1659.13 -3.53269 -3.67833 0
M  V30 25536 H 1658.4 -1.39558 0.227499 0
M  V30 25537 P 1656.97 -8.03563 3.84925 0
M  V30 25538 O 1656.75 -8.85821 5.0569 0
M  V30 25539 O 1656.18 -8.41101 2.65469 0
M  V30 25540 O 1656.72 -6.4965 4.18908 0
M  V30 25541 C 1657.66 -5.81037 5.05421 0
M  V30 25542 C 1656.93 -4.78366 5.89277 0
M  V30 25543 O 1656.72 -3.58302 5.08433 0
M  V30 25544 C 1655.53 -5.17448 6.36119 0
M  V30 25545 O 1655.14 -4.45271 7.53232 0
M  V30 25546 C 1654.65 -4.74639 5.19936 0
M  V30 25547 C 1655.36 -3.49432 4.70418 0
M  V30 25548 N 1655.31 -3.31776 3.22945 0
M  V30 25549 H 1658.15 -6.54213 5.71376 0
M  V30 25550 H 1658.42 -5.30492 4.44033 0
M  V30 25551 H 1657.55 -4.55889 6.76652 0
M  V30 25552 P 1653.59 -4.23843 7.83734 0
M  V30 25553 O 1653.37 -4.19407 9.29784 0
M  V30 25554 O 1652.8 -5.24426 7.09156 0
M  V30 25555 O 1653.34 -2.7935 7.20758 0
M  V30 25556 C 1654.28 -1.7299 7.50419 0
M  V30 25557 C 1653.55 -0.406376 7.57911 0
M  V30 25558 O 1653.34 0.0897726 6.21935 0
M  V30 25559 C 1652.15 -0.447224 8.1878 0
M  V30 25560 O 1651.76 0.825065 8.71101 0
M  V30 25561 C 1651.27 -0.783801 6.99623 0
M  V30 25562 C 1651.98 -0.0619192 5.85967 0
M  V30 25563 N 1651.93 -0.7859 4.56281 0
M  V30 25564 H 1654.77 -1.93423 8.4679 0
M  V30 25565 H 1655.04 -1.68181 6.71046 0
M  V30 25566 H 1654.17 0.289041 8.15388 0
M  V30 25567 P 1650.21 1.17771 8.83182 0
M  V30 25568 O 1649.99 2.07206 9.98732 0
M  V30 25569 O 1649.42 -0.0743816 8.81969 0
M  V30 25570 O 1649.96 1.97652 7.47304 0
M  V30 25571 C 1650.9 3.01133 7.08783 0
M  V30 25572 C 1650.17 4.12613 6.37049 0
M  V30 25573 O 1649.96 3.72827 4.97879 0
M  V30 25574 C 1648.77 4.45085 6.88694 0
M  V30 25575 O 1648.38 5.7877 6.5624 0
M  V30 25576 C 1647.89 3.47817 6.12078 0
M  V30 25577 C 1648.6 3.39414 4.77697 0
M  V30 25578 N 1648.55 2.04615 4.15333 0
M  V30 25579 C 1648.63 0.803897 4.75249 0
M  V30 25580 N 1648.55 -0.197615 3.91502 0
M  V30 25581 C 1648.41 0.413002 2.66823 0
M  V30 25582 C 1648.28 -0.157221 1.38007 0
M  V30 25583 N 1648.16 0.833136 0.390236 0
M  V30 25584 C 1648.16 2.19402 0.623885 0
M  V30 25585 N 1648.03 2.97622 -0.449677 0
M  V30 25586 N 1648.29 2.73005 1.83601 0
M  V30 25587 C 1648.41 1.78786 2.80935 0
M  V30 25588 H 1651.39 3.41248 7.98759 0
M  V30 25589 H 1651.66 2.5837 6.41742 0
M  V30 25590 H 1650.79 5.02657 6.42673 0
M  V30 25591 P 1646.83 6.144 6.45285 0
M  V30 25592 O 1646.61 7.54673 6.86199 0
M  V30 25593 O 1646.04 5.12391 7.179 0
M  V30 25594 O 1646.58 5.99236 4.88467 0
M  V30 25595 C 1647.52 6.60234 3.96415 0
M  V30 25596 C 1646.79 7.08079 2.736 0
M  V30 25597 O 1646.58 5.94365 1.8368 0
M  V30 25598 C 1645.39 7.64886 2.9555 0
M  V30 25599 O 1645 8.5406 1.90739 0
M  V30 25600 C 1644.51 6.4116 2.90739 0
M  V30 25601 C 1645.22 5.55375 1.86963 0
M  V30 25602 N 1645.17 4.09664 2.15742 0
M  V30 25603 C 1645.02 3.22231 1.08477 0
M  V30 25604 O 1644.93 3.68951 -0.0600489 0
M  V30 25605 N 1644.97 1.76692 1.48799 0
M  V30 25606 C 1645.07 1.41695 2.57602 0
M  V30 25607 N 1645.02 0.107296 2.75791 0
M  V30 25608 C 1645.22 2.29178 3.69733 0
M  V30 25609 C 1645.27 3.62753 3.42653 0
M  V30 25610 H 1648.01 7.45488 4.45578 0
M  V30 25611 H 1648.28 5.86232 3.67314 0
M  V30 25612 H 1647.41 7.84508 2.24507 0
M  V30 25613 H 1644.76 5.73556 0.888715 0
M  V30 25614 H 1644.48 5.9096 3.88638 0
M  V30 25615 H 1643.49 6.66053 2.58894 0
M  V30 25616 H 1645.32 8.16339 3.92049 0
M  V30 25617 H 1645.39 4.33052 4.24913 0
M  V30 25618 H 1645.29 1.9103 4.71577 0
M  V30 25619 H 1644.9 -0.521221 1.95056 0
M  V30 25620 H 1645.1 -0.286429 3.70695 0
M  V30 25621 P 1643.45 8.7635 1.60911 0
M  V30 25622 O 1643.23 10.1388 1.11561 0
M  V30 25623 O 1642.66 8.36503 2.79617 0
M  V30 25624 O 1643.2 7.71806 0.42951 0
M  V30 25625 C 1644.14 7.67148 -0.673689 0
M  V30 25626 C 1643.41 7.33374 -1.95559 0
M  V30 25627 O 1643.2 5.88721 -2.00726 0
M  V30 25628 C 1642.01 7.92526 -2.10483 0
M  V30 25629 O 1641.62 8.02971 -3.47653 0
M  V30 25630 C 1641.13 6.89602 -1.41652 0
M  V30 25631 C 1641.84 5.59201 -1.75185 0
M  V30 25632 N 1641.79 4.58301 -0.657969 0
M  V30 25633 H 1644.63 8.65116 -0.777161 0
M  V30 25634 H 1644.9 6.9022 -0.46725 0
M  V30 25635 H 1644.03 7.66548 -2.79458 0
M  V30 25636 H 1641.38 5.16165 -2.65183 0
M  V30 25637 H 1641.1 7.06433 -0.329384 0
M  V30 25638 H 1640.11 6.90926 -1.82021 0
M  V30 25639 H 1641.94 8.90873 -1.62657 0
M  V30 25640 P 1640.07 8.03563 -3.84925 0
M  V30 25641 O 1639.85 8.85821 -5.0569 0
M  V30 25642 O 1639.28 8.41101 -2.65469 0
M  V30 25643 O 1639.82 6.4965 -4.18908 0
M  V30 25644 C 1640.76 5.81037 -5.05421 0
M  V30 25645 C 1640.03 4.78366 -5.89277 0
M  V30 25646 O 1639.82 3.58302 -5.08433 0
M  V30 25647 C 1638.63 5.17448 -6.36119 0
M  V30 25648 O 1638.24 4.45271 -7.53232 0
M  V30 25649 C 1637.75 4.74639 -5.19936 0
M  V30 25650 C 1638.46 3.49432 -4.70418 0
M  V30 25651 N 1638.41 3.31776 -3.22945 0
M  V30 25652 H 1641.25 6.54213 -5.71376 0
M  V30 25653 H 1641.52 5.30492 -4.44033 0
M  V30 25654 H 1640.65 4.55889 -6.76652 0
M  V30 25655 P 1636.69 4.23843 -7.83734 0
M  V30 25656 O 1636.47 4.19407 -9.29784 0
M  V30 25657 O 1635.9 5.24426 -7.09156 0
M  V30 25658 O 1636.44 2.7935 -7.20758 0
M  V30 25659 C 1637.38 1.7299 -7.50419 0
M  V30 25660 C 1636.65 0.406376 -7.57911 0
M  V30 25661 O 1636.44 -0.0897726 -6.21935 0
M  V30 25662 C 1635.25 0.447224 -8.1878 0
M  V30 25663 O 1634.86 -0.825065 -8.71101 0
M  V30 25664 C 1634.37 0.783801 -6.99623 0
M  V30 25665 C 1635.08 0.0619192 -5.85967 0
M  V30 25666 N 1635.03 0.7859 -4.56281 0
M  V30 25667 H 1637.87 1.93423 -8.4679 0
M  V30 25668 H 1638.14 1.68181 -6.71046 0
M  V30 25669 H 1637.27 -0.289041 -8.15388 0
M  V30 25670 P 1633.31 -1.17771 -8.83182 0
M  V30 25671 O 1633.09 -2.07206 -9.98732 0
M  V30 25672 O 1632.52 0.0743816 -8.81969 0
M  V30 25673 O 1633.06 -1.97652 -7.47304 0
M  V30 25674 C 1634 -3.01133 -7.08783 0
M  V30 25675 C 1633.27 -4.12613 -6.37049 0
M  V30 25676 O 1633.06 -3.72827 -4.97879 0
M  V30 25677 C 1631.87 -4.45085 -6.88694 0
M  V30 25678 O 1631.48 -5.7877 -6.5624 0
M  V30 25679 C 1630.99 -3.47817 -6.12078 0
M  V30 25680 C 1631.7 -3.39414 -4.77697 0
M  V30 25681 N 1631.65 -2.04199 -4.15538 0
M  V30 25682 H 1634.49 -3.41248 -7.98759 0
M  V30 25683 H 1634.76 -2.57728 -6.42 0
M  V30 25684 H 1633.89 -5.02657 -6.42673 0
M  V30 25685 H 1631.24 -4.11708 -4.08956 0
M  V30 25686 H 1630.96 -2.49626 -6.61679 0
M  V30 25687 H 1629.97 -3.8662 -6.00862 0
M  V30 25688 H 1631.8 -4.29991 -7.97006 0
M  V30 25689 P 1629.93 -6.144 -6.45285 0
M  V30 25690 O 1629.71 -7.54673 -6.86199 0
M  V30 25691 O 1629.14 -5.12391 -7.179 0
M  V30 25692 O 1629.68 -5.99158 -4.88404 0
M  V30 25693 C 1630.62 -6.60062 -3.96313 0
M  V30 25694 C 1629.89 -7.08259 -2.72856 0
M  V30 25695 O 1629.68 -5.9427 -1.83651 0
M  V30 25696 C 1628.49 -7.65087 -2.94749 0
M  V30 25697 O 1628.1 -8.53963 -1.90717 0
M  V30 25698 C 1627.61 -6.41069 -2.90698 0
M  V30 25699 C 1628.32 -5.5528 -1.86931 0
M  V30 25700 N 1628.27 -4.09575 -2.15696 0
M  V30 25701 C 1628.12 -3.24249 -1.08435 0
M  V30 25702 O 1628.03 -3.63946 0.0628747 0
M  V30 25703 N 1628.08 -1.90009 -1.39973 0
M  V30 25704 C 1628.17 -1.34884 -2.65614 0
M  V30 25705 C 1628.32 -2.3145 -3.71736 0
M  V30 25706 C 1628.37 -3.63518 -3.44754 0
M  V30 25707 H 1631.11 -7.45402 -4.45526 0
M  V30 25708 H 1631.38 -5.86062 -3.67208 0
M  V30 25709 H 1630.51 -7.84412 -2.24479 0
M  V30 25710 H 1627.86 -5.73358 -0.888409 0
M  V30 25711 H 1627.58 -5.90877 -3.88583 0
M  V30 25712 H 1626.59 -6.65867 -2.58821 0
M  V30 25713 H 1628.42 -8.16248 -3.92006 0
M  V30 25714 H 1628.49 -4.34551 -4.26383 0
M  V30 25715 P 1626.55 -8.7635 -1.60911 0
M  V30 25716 O 1626.33 -10.1388 -1.11561 0
M  V30 25717 O 1625.76 -8.36503 -2.79617 0
M  V30 25718 O 1626.3 -7.71806 -0.42951 0
M  V30 25719 C 1627.24 -7.67148 0.673689 0
M  V30 25720 C 1626.51 -7.33374 1.95559 0
M  V30 25721 O 1626.3 -5.88721 2.00726 0
M  V30 25722 C 1625.11 -7.92526 2.10483 0
M  V30 25723 O 1624.72 -8.02971 3.47653 0
M  V30 25724 C 1624.23 -6.89602 1.41652 0
M  V30 25725 C 1624.94 -5.59201 1.75185 0
M  V30 25726 N 1624.89 -4.58235 0.662552 0
M  V30 25727 H 1627.73 -8.65116 0.777161 0
M  V30 25728 H 1628 -6.90173 0.474152 0
M  V30 25729 H 1627.13 -7.66548 2.79458 0
M  V30 25730 P 1623.17 -8.03563 3.84925 0
M  V30 25731 O 1622.95 -8.85821 5.0569 0
M  V30 25732 O 1622.38 -8.41101 2.65469 0
M  V30 25733 O 1622.92 -6.4965 4.18908 0
M  V30 25734 C 1623.86 -5.81037 5.05421 0
M  V30 25735 C 1623.13 -4.78366 5.89277 0
M  V30 25736 O 1622.92 -3.58302 5.08433 0
M  V30 25737 C 1621.73 -5.17448 6.36119 0
M  V30 25738 O 1621.34 -4.45271 7.53232 0
M  V30 25739 C 1620.85 -4.74639 5.19936 0
M  V30 25740 C 1621.56 -3.49432 4.70418 0
M  V30 25741 N 1621.51 -3.31776 3.22945 0
M  V30 25742 H 1624.35 -6.54213 5.71376 0
M  V30 25743 H 1624.62 -5.30492 4.44033 0
M  V30 25744 H 1623.75 -4.55889 6.76652 0
M  V30 25745 P 1619.79 -4.23843 7.83734 0
M  V30 25746 O 1619.57 -4.19407 9.29784 0
M  V30 25747 O 1619 -5.24426 7.09156 0
M  V30 25748 O 1619.54 -2.7935 7.20758 0
M  V30 25749 C 1620.48 -1.7299 7.50419 0
M  V30 25750 C 1619.75 -0.406376 7.57911 0
M  V30 25751 O 1619.54 0.0897726 6.21935 0
M  V30 25752 C 1618.35 -0.447224 8.1878 0
M  V30 25753 O 1617.96 0.825065 8.71101 0
M  V30 25754 C 1617.47 -0.783801 6.99623 0
M  V30 25755 C 1618.18 -0.0619192 5.85967 0
M  V30 25756 N 1618.13 -0.7859 4.56281 0
M  V30 25757 H 1620.97 -1.93423 8.4679 0
M  V30 25758 H 1621.24 -1.68181 6.71046 0
M  V30 25759 H 1620.37 0.289041 8.15388 0
M  V30 25760 P 1616.41 1.17771 8.83182 0
M  V30 25761 O 1616.19 2.07206 9.98732 0
M  V30 25762 O 1615.62 -0.0743816 8.81969 0
M  V30 25763 O 1616.16 1.97652 7.47304 0
M  V30 25764 C 1617.1 3.01133 7.08783 0
M  V30 25765 C 1616.37 4.12613 6.37049 0
M  V30 25766 O 1616.16 3.72827 4.97879 0
M  V30 25767 C 1614.97 4.45085 6.88694 0
M  V30 25768 O 1614.58 5.7877 6.5624 0
M  V30 25769 C 1614.09 3.47817 6.12078 0
M  V30 25770 C 1614.8 3.39414 4.77697 0
M  V30 25771 N 1614.75 2.04615 4.15333 0
M  V30 25772 H 1617.59 3.41248 7.98759 0
M  V30 25773 H 1617.86 2.5837 6.41742 0
M  V30 25774 H 1616.99 5.02657 6.42673 0
M  V30 25775 P 1613.03 6.144 6.45285 0
M  V30 25776 O 1612.81 7.54673 6.86199 0
M  V30 25777 O 1612.24 5.12391 7.179 0
M  V30 25778 O 1612.78 5.99158 4.88404 0
M  V30 25779 C 1613.72 6.60234 3.96415 0
M  V30 25780 C 1612.99 7.08259 2.72856 0
M  V30 25781 O 1612.78 5.9427 1.83651 0
M  V30 25782 C 1611.59 7.64886 2.9555 0
M  V30 25783 O 1611.2 8.53963 1.90717 0
M  V30 25784 C 1610.71 6.4116 2.90739 0
M  V30 25785 C 1611.42 5.55375 1.86963 0
M  V30 25786 N 1611.37 4.09448 2.16152 0
M  V30 25787 H 1614.21 7.45574 4.45629 0
M  V30 25788 H 1614.48 5.85864 3.679 0
M  V30 25789 H 1613.61 7.84412 2.24479 0
M  V30 25790 H 1610.96 5.73457 0.888562 0
M  V30 25791 H 1610.68 5.90877 3.88583 0
M  V30 25792 H 1609.69 6.6596 2.58858 0
M  V30 25793 H 1611.52 8.16339 3.92049 0
M  V30 25794 P 1609.65 8.7635 1.60911 0
M  V30 25795 O 1609.43 10.1388 1.11561 0
M  V30 25796 O 1608.86 8.36503 2.79617 0
M  V30 25797 O 1609.4 7.71806 0.42951 0
M  V30 25798 C 1610.34 7.67148 -0.673689 0
M  V30 25799 C 1609.61 7.33374 -1.95559 0
M  V30 25800 O 1609.4 5.88721 -2.00726 0
M  V30 25801 C 1608.21 7.92526 -2.10483 0
M  V30 25802 O 1607.82 8.02971 -3.47653 0
M  V30 25803 C 1607.33 6.89602 -1.41652 0
M  V30 25804 C 1608.04 5.59201 -1.75185 0
M  V30 25805 N 1607.99 4.58301 -0.657969 0
M  V30 25806 C 1608.07 4.79019 0.692603 0
M  V30 25807 N 1608 3.69736 1.38998 0
M  V30 25808 C 1607.85 2.70474 0.438135 0
M  V30 25809 C 1607.72 1.30327 0.538142 0
M  V30 25810 N 1607.71 0.64304 1.69192 0
M  V30 25811 N 1607.6 0.611027 -0.605183 0
M  V30 25812 C 1607.61 1.27002 -1.75953 0
M  V30 25813 N 1607.73 2.56038 -1.98546 0
M  V30 25814 C 1607.85 3.22681 -0.822541 0
M  V30 25815 H 1610.83 8.65116 -0.777161 0
M  V30 25816 H 1611.1 6.9022 -0.46725 0
M  V30 25817 H 1610.23 7.66548 -2.79458 0
M  V30 25818 H 1607.58 5.16165 -2.65183 0
M  V30 25819 H 1607.3 7.06433 -0.329384 0
M  V30 25820 H 1606.31 6.90926 -1.82021 0
M  V30 25821 H 1608.14 8.90873 -1.62657 0
M  V30 25822 H 1608.18 5.77785 1.13874 0
M  V30 25823 H 1607.8 1.15585 2.57991 0
M  V30 25824 H 1607.61 -0.382989 1.69835 0
M  V30 25825 H 1607.5 0.653331 -2.64449 0
M  V30 25826 P 1606.27 8.03563 -3.84925 0
M  V30 25827 O 1606.05 8.85821 -5.0569 0
M  V30 25828 O 1605.48 8.41101 -2.65469 0
M  V30 25829 O 1606.02 6.4965 -4.18908 0
M  V30 25830 C 1606.96 5.81037 -5.05421 0
M  V30 25831 C 1606.23 4.78366 -5.89277 0
M  V30 25832 O 1606.02 3.58302 -5.08433 0
M  V30 25833 C 1604.83 5.17448 -6.36119 0
M  V30 25834 O 1604.44 4.45271 -7.53232 0
M  V30 25835 C 1603.95 4.74639 -5.19936 0
M  V30 25836 C 1604.66 3.49432 -4.70418 0
M  V30 25837 N 1604.61 3.31776 -3.22945 0
M  V30 25838 H 1607.45 6.54213 -5.71376 0
M  V30 25839 H 1607.72 5.30492 -4.44033 0
M  V30 25840 H 1606.85 4.55889 -6.76652 0
M  V30 25841 P 1602.89 4.23843 -7.83734 0
M  V30 25842 O 1602.67 4.19407 -9.29784 0
M  V30 25843 O 1602.1 5.24426 -7.09156 0
M  V30 25844 O 1602.64 2.7935 -7.20758 0
M  V30 25845 C 1603.58 1.7299 -7.50419 0
M  V30 25846 C 1602.85 0.406376 -7.57911 0
M  V30 25847 O 1602.64 -0.0897726 -6.21935 0
M  V30 25848 C 1601.45 0.447224 -8.1878 0
M  V30 25849 O 1601.06 -0.825065 -8.71101 0
M  V30 25850 C 1600.57 0.783801 -6.99623 0
M  V30 25851 C 1601.28 0.0619192 -5.85967 0
M  V30 25852 N 1601.23 0.7859 -4.56281 0
M  V30 25853 H 1604.07 1.93423 -8.4679 0
M  V30 25854 H 1604.34 1.68181 -6.71046 0
M  V30 25855 H 1603.47 -0.289041 -8.15388 0
M  V30 25856 P 1599.51 -1.17771 -8.83182 0
M  V30 25857 O 1599.29 -2.07206 -9.98732 0
M  V30 25858 O 1598.72 0.0743816 -8.81969 0
M  V30 25859 O 1599.26 -1.97652 -7.47304 0
M  V30 25860 C 1600.2 -3.01133 -7.08783 0
M  V30 25861 C 1599.47 -4.12613 -6.37049 0
M  V30 25862 O 1599.26 -3.72827 -4.97879 0
M  V30 25863 C 1598.07 -4.45085 -6.88694 0
M  V30 25864 O 1597.68 -5.7877 -6.5624 0
M  V30 25865 C 1597.19 -3.47817 -6.12078 0
M  V30 25866 C 1597.9 -3.39414 -4.77697 0
M  V30 25867 N 1597.85 -2.04199 -4.15538 0
M  V30 25868 C 1597.93 -0.821545 -4.76977 0
M  V30 25869 N 1597.86 0.1794 -3.94592 0
M  V30 25870 C 1597.71 -0.419121 -2.70776 0
M  V30 25871 C 1597.58 0.109072 -1.40577 0
M  V30 25872 N 1597.57 1.4104 -1.1344 0
M  V30 25873 N 1597.46 -0.764381 -0.39411 0
M  V30 25874 C 1597.47 -2.06587 -0.664135 0
M  V30 25875 N 1597.59 -2.67948 -1.82153 0
M  V30 25876 C 1597.71 -1.77942 -2.8147 0
M  V30 25877 H 1600.69 -3.41248 -7.98759 0
M  V30 25878 H 1600.96 -2.57728 -6.42 0
M  V30 25879 H 1600.09 -5.02657 -6.42673 0
M  V30 25880 H 1597.44 -4.11708 -4.08956 0
M  V30 25881 H 1597.16 -2.49626 -6.61679 0
M  V30 25882 H 1596.17 -3.8662 -6.00862 0
M  V30 25883 H 1598 -4.29991 -7.97006 0
M  V30 25884 H 1598.04 -0.702451 -5.84696 0
M  V30 25885 H 1597.66 2.09647 -1.89651 0
M  V30 25886 H 1597.47 1.73358 -0.160575 0
M  V30 25887 H 1597.36 -2.71695 0.195838 0
M  V30 25888 P 1596.13 -6.144 -6.45285 0
M  V30 25889 O 1595.91 -7.54673 -6.86199 0
M  V30 25890 O 1595.34 -5.12391 -7.179 0
M  V30 25891 O 1595.88 -5.99158 -4.88404 0
M  V30 25892 C 1596.82 -6.60234 -3.96415 0
M  V30 25893 C 1596.09 -7.08259 -2.72856 0
M  V30 25894 O 1595.88 -5.9427 -1.83651 0
M  V30 25895 C 1594.69 -7.64886 -2.9555 0
M  V30 25896 O 1594.3 -8.53963 -1.90717 0
M  V30 25897 C 1593.81 -6.4116 -2.90739 0
M  V30 25898 C 1594.52 -5.55375 -1.86963 0
M  V30 25899 N 1594.47 -4.09664 -2.15742 0
M  V30 25900 H 1597.31 -7.45574 -4.45629 0
M  V30 25901 H 1597.58 -5.86232 -3.67314 0
M  V30 25902 H 1596.71 -7.84412 -2.24479 0
M  V30 25903 P 1592.75 -8.7635 -1.60911 0
M  V30 25904 O 1592.53 -10.1388 -1.11561 0
M  V30 25905 O 1591.96 -8.36503 -2.79617 0
M  V30 25906 O 1592.5 -7.71806 -0.42951 0
M  V30 25907 C 1593.44 -7.67148 0.673689 0
M  V30 25908 C 1592.71 -7.33374 1.95559 0
M  V30 25909 O 1592.5 -5.88721 2.00726 0
M  V30 25910 C 1591.31 -7.92526 2.10483 0
M  V30 25911 O 1590.92 -8.02971 3.47653 0
M  V30 25912 C 1590.43 -6.89602 1.41652 0
M  V30 25913 C 1591.14 -5.59201 1.75185 0
M  V30 25914 N 1591.09 -4.58235 0.662552 0
M  V30 25915 H 1593.93 -8.65116 0.777161 0
M  V30 25916 H 1594.2 -6.90173 0.474152 0
M  V30 25917 H 1593.33 -7.66548 2.79458 0
M  V30 25918 P 1589.37 -8.03563 3.84925 0
M  V30 25919 O 1589.15 -8.85821 5.0569 0
M  V30 25920 O 1588.58 -8.41101 2.65469 0
M  V30 25921 O 1589.12 -6.4965 4.18908 0
M  V30 25922 C 1590.06 -5.81037 5.05421 0
M  V30 25923 C 1589.33 -4.78366 5.89277 0
M  V30 25924 O 1589.12 -3.58302 5.08433 0
M  V30 25925 C 1587.93 -5.17448 6.36119 0
M  V30 25926 O 1587.54 -4.45271 7.53232 0
M  V30 25927 C 1587.05 -4.74639 5.19936 0
M  V30 25928 C 1587.76 -3.49432 4.70418 0
M  V30 25929 N 1587.71 -3.31776 3.22945 0
M  V30 25930 H 1590.55 -6.54213 5.71376 0
M  V30 25931 H 1590.82 -5.30492 4.44033 0
M  V30 25932 H 1589.95 -4.55889 6.76652 0
M  V30 25933 P 1585.99 -4.23843 7.83734 0
M  V30 25934 O 1585.77 -4.19407 9.29784 0
M  V30 25935 O 1585.2 -5.24426 7.09156 0
M  V30 25936 O 1585.74 -2.79386 7.20852 0
M  V30 25937 C 1586.68 -1.7299 7.50419 0
M  V30 25938 C 1585.95 -0.41401 7.5797 0
M  V30 25939 O 1585.74 0.089787 6.22035 0
M  V30 25940 C 1584.55 -0.447224 8.1878 0
M  V30 25941 O 1584.16 0.825159 8.71201 0
M  V30 25942 C 1583.67 -0.783801 6.99623 0
M  V30 25943 C 1584.38 -0.0619192 5.85967 0
M  V30 25944 N 1584.33 -0.7859 4.56281 0
M  V30 25945 C 1584.18 -0.0359258 3.39981 0
M  V30 25946 O 1584.09 1.19723 3.49038 0
M  V30 25947 N 1584.13 -0.869151 2.14025 0
M  V30 25948 C 1584.23 -2.01207 2.14363 0
M  V30 25949 N 1584.18 -2.58978 0.954287 0
M  V30 25950 C 1584.38 -2.80817 3.32215 0
M  V30 25951 C 1584.43 -2.13785 4.50884 0
M  V30 25952 H 1587.17 -1.93401 8.46693 0
M  V30 25953 H 1587.44 -1.68181 6.71046 0
M  V30 25954 H 1586.57 0.289076 8.15488 0
M  V30 25955 H 1583.92 0.927166 5.72947 0
M  V30 25956 H 1583.64 -1.87 6.82132 0
M  V30 25957 H 1582.65 -0.404009 7.13457 0
M  V30 25958 H 1584.48 -1.20599 8.97534 0
M  V30 25959 H 1584.55 -2.70295 5.43162 0
M  V30 25960 H 1584.45 -3.89465 3.27406 0
M  V30 25961 H 1584.06 -2.01616 0.107046 0
M  V30 25962 H 1584.26 -3.61403 0.873101 0
M  V30 25963 P 1582.61 1.17771 8.83182 0
M  V30 25964 O 1582.39 2.07206 9.98732 0
M  V30 25965 O 1581.82 -0.0743816 8.81969 0
M  V30 25966 O 1582.36 1.97652 7.47304 0
M  V30 25967 C 1583.3 3.01133 7.08783 0
M  V30 25968 C 1582.57 4.12613 6.37049 0
M  V30 25969 O 1582.36 3.72827 4.97879 0
M  V30 25970 C 1581.17 4.45085 6.88694 0
M  V30 25971 O 1580.78 5.7877 6.5624 0
M  V30 25972 C 1580.29 3.47817 6.12078 0
M  V30 25973 C 1581 3.39414 4.77697 0
M  V30 25974 N 1580.95 2.04199 4.15538 0
M  V30 25975 H 1583.79 3.41248 7.98759 0
M  V30 25976 H 1584.06 2.57728 6.42 0
M  V30 25977 H 1583.19 5.02657 6.42673 0
M  V30 25978 H 1580.54 4.11708 4.08956 0
M  V30 25979 H 1580.26 2.49626 6.61679 0
M  V30 25980 H 1579.27 3.8662 6.00862 0
M  V30 25981 H 1581.1 4.29991 7.97006 0
M  V30 25982 P 1579.23 6.144 6.45285 0
M  V30 25983 O 1579.01 7.54673 6.86199 0
M  V30 25984 O 1578.44 5.12391 7.179 0
M  V30 25985 O 1578.98 5.99158 4.88404 0
M  V30 25986 C 1579.92 6.60062 3.96313 0
M  V30 25987 C 1579.19 7.08259 2.72856 0
M  V30 25988 O 1578.98 5.9427 1.83651 0
M  V30 25989 C 1577.79 7.65087 2.94749 0
M  V30 25990 O 1577.4 8.53963 1.90717 0
M  V30 25991 C 1576.91 6.41069 2.90698 0
M  V30 25992 C 1577.62 5.5528 1.86931 0
M  V30 25993 N 1577.57 4.09575 2.15696 0
M  V30 25994 C 1577.42 3.24249 1.08435 0
M  V30 25995 O 1577.33 3.63946 -0.0628747 0
M  V30 25996 N 1577.38 1.90009 1.39973 0
M  V30 25997 C 1577.47 1.34884 2.65614 0
M  V30 25998 C 1577.62 2.3145 3.71736 0
M  V30 25999 C 1577.67 3.63518 3.44754 0
M  V30 26000 H 1580.41 7.45402 4.45526 0
M  V30 26001 H 1580.68 5.86062 3.67208 0
M  V30 26002 H 1579.81 7.84412 2.24479 0
M  V30 26003 H 1577.16 5.73358 0.888409 0
M  V30 26004 H 1576.88 5.90877 3.88583 0
M  V30 26005 H 1575.89 6.65867 2.58821 0
M  V30 26006 H 1577.72 8.16248 3.92006 0
M  V30 26007 H 1577.79 4.34551 4.26383 0
M  V30 26008 P 1575.85 8.7635 1.60911 0
M  V30 26009 O 1575.63 10.1388 1.11561 0
M  V30 26010 O 1575.06 8.36503 2.79617 0
M  V30 26011 O 1575.6 7.71806 0.42951 0
M  V30 26012 C 1576.54 7.67148 -0.673689 0
M  V30 26013 C 1575.81 7.33374 -1.95559 0
M  V30 26014 O 1575.6 5.88721 -2.00726 0
M  V30 26015 C 1574.41 7.92526 -2.10483 0
M  V30 26016 O 1574.02 8.02971 -3.47653 0
M  V30 26017 C 1573.53 6.89602 -1.41652 0
M  V30 26018 C 1574.24 5.59201 -1.75185 0
M  V30 26019 N 1574.19 4.58301 -0.657969 0
M  V30 26020 H 1577.03 8.65116 -0.777161 0
M  V30 26021 H 1577.3 6.9022 -0.46725 0
M  V30 26022 H 1576.43 7.66548 -2.79458 0
M  V30 26023 H 1573.78 5.16165 -2.65183 0
M  V30 26024 H 1573.5 7.06433 -0.329384 0
M  V30 26025 H 1572.51 6.90926 -1.82021 0
M  V30 26026 H 1574.34 8.90873 -1.62657 0
M  V30 26027 P 1572.47 8.03563 -3.84925 0
M  V30 26028 O 1572.25 8.85821 -5.0569 0
M  V30 26029 O 1571.68 8.41101 -2.65469 0
M  V30 26030 O 1572.22 6.4965 -4.18908 0
M  V30 26031 C 1573.16 5.81037 -5.05421 0
M  V30 26032 C 1572.43 4.78366 -5.89277 0
M  V30 26033 O 1572.22 3.58302 -5.08433 0
M  V30 26034 C 1571.03 5.17448 -6.36119 0
M  V30 26035 O 1570.64 4.45271 -7.53232 0
M  V30 26036 C 1570.15 4.74639 -5.19936 0
M  V30 26037 C 1570.86 3.49432 -4.70418 0
M  V30 26038 N 1570.81 3.32099 -3.22613 0
M  V30 26039 H 1573.65 6.54213 -5.71376 0
M  V30 26040 H 1573.92 5.30936 -4.43503 0
M  V30 26041 H 1573.05 4.55889 -6.76652 0
M  V30 26042 H 1570.4 2.61715 -5.17932 0
M  V30 26043 H 1570.12 5.52155 -4.41878 0
M  V30 26044 H 1569.13 4.51981 -5.53374 0
M  V30 26045 H 1570.96 6.25124 -6.55234 0
M  V30 26046 P 1569.09 4.23843 -7.83734 0
M  V30 26047 O 1568.87 4.19407 -9.29784 0
M  V30 26048 O 1568.3 5.24426 -7.09156 0
M  V30 26049 O 1568.84 2.7935 -7.20758 0
M  V30 26050 C 1569.78 1.7299 -7.50419 0
M  V30 26051 C 1569.05 0.406376 -7.57911 0
M  V30 26052 O 1568.84 -0.0897726 -6.21935 0
M  V30 26053 C 1567.65 0.447224 -8.1878 0
M  V30 26054 O 1567.26 -0.825065 -8.71101 0
M  V30 26055 C 1566.77 0.783801 -6.99623 0
M  V30 26056 C 1567.48 0.0619192 -5.85967 0
M  V30 26057 N 1567.43 0.7859 -4.56281 0
M  V30 26058 C 1567.51 2.14308 -4.31736 0
M  V30 26059 N 1567.43 2.46106 -3.05116 0
M  V30 26060 C 1567.29 1.23422 -2.4014 0
M  V30 26061 C 1567.16 0.938381 -1.02409 0
M  V30 26062 N 1567.04 -0.444647 -0.805413 0
M  V30 26063 C 1567.04 -1.40829 -1.79435 0
M  V30 26064 N 1566.91 -2.67213 -1.38558 0
M  V30 26065 N 1567.17 -1.12947 -3.09005 0
M  V30 26066 C 1567.29 0.204887 -3.32369 0
M  V30 26067 H 1570.27 1.93423 -8.4679 0
M  V30 26068 H 1570.54 1.68181 -6.71046 0
M  V30 26069 H 1569.67 -0.289041 -8.15388 0
M  V30 26070 P 1565.71 -1.17771 -8.83182 0
M  V30 26071 O 1565.49 -2.07206 -9.98732 0
M  V30 26072 O 1564.92 0.0743816 -8.81969 0
M  V30 26073 O 1565.46 -1.97652 -7.47304 0
M  V30 26074 C 1566.4 -3.01133 -7.08783 0
M  V30 26075 C 1565.67 -4.12613 -6.37049 0
M  V30 26076 O 1565.46 -3.72827 -4.97879 0
M  V30 26077 C 1564.27 -4.45085 -6.88694 0
M  V30 26078 O 1563.88 -5.7877 -6.5624 0
M  V30 26079 C 1563.39 -3.47817 -6.12078 0
M  V30 26080 C 1564.1 -3.39414 -4.77697 0
M  V30 26081 N 1564.05 -2.04615 -4.15333 0
M  V30 26082 C 1564.13 -0.803897 -4.75249 0
M  V30 26083 N 1564.05 0.197615 -3.91502 0
M  V30 26084 C 1563.91 -0.413002 -2.66823 0
M  V30 26085 C 1563.78 0.157221 -1.38007 0
M  V30 26086 N 1563.66 -0.833136 -0.390236 0
M  V30 26087 C 1563.66 -2.19402 -0.623885 0
M  V30 26088 N 1563.53 -2.97622 0.449677 0
M  V30 26089 N 1563.79 -2.73005 -1.83601 0
M  V30 26090 C 1563.91 -1.78786 -2.80935 0
M  V30 26091 H 1566.89 -3.41248 -7.98759 0
M  V30 26092 H 1567.16 -2.5837 -6.41742 0
M  V30 26093 H 1566.29 -5.02657 -6.42673 0
M  V30 26094 P 1562.33 -6.144 -6.45285 0
M  V30 26095 O 1562.11 -7.54673 -6.86199 0
M  V30 26096 O 1561.54 -5.12391 -7.179 0
M  V30 26097 O 1562.08 -5.99158 -4.88404 0
M  V30 26098 C 1563.02 -6.60234 -3.96415 0
M  V30 26099 C 1562.29 -7.08259 -2.72856 0
M  V30 26100 O 1562.08 -5.9427 -1.83651 0
M  V30 26101 C 1560.89 -7.64886 -2.9555 0
M  V30 26102 O 1560.5 -8.53963 -1.90717 0
M  V30 26103 C 1560.01 -6.4116 -2.90739 0
M  V30 26104 C 1560.72 -5.55375 -1.86963 0
M  V30 26105 N 1560.67 -4.09664 -2.15742 0
M  V30 26106 H 1563.51 -7.45574 -4.45629 0
M  V30 26107 H 1563.78 -5.86232 -3.67314 0
M  V30 26108 H 1562.91 -7.84412 -2.24479 0
M  V30 26109 P 1558.95 -8.7635 -1.60911 0
M  V30 26110 O 1558.73 -10.1388 -1.11561 0
M  V30 26111 O 1558.16 -8.36503 -2.79617 0
M  V30 26112 O 1558.7 -7.71806 -0.42951 0
M  V30 26113 C 1559.64 -7.67148 0.673689 0
M  V30 26114 C 1558.91 -7.33374 1.95559 0
M  V30 26115 O 1558.7 -5.88721 2.00726 0
M  V30 26116 C 1557.51 -7.92526 2.10483 0
M  V30 26117 O 1557.12 -8.02971 3.47653 0
M  V30 26118 C 1556.63 -6.89602 1.41652 0
M  V30 26119 C 1557.34 -5.59201 1.75185 0
M  V30 26120 N 1557.29 -4.58235 0.662552 0
M  V30 26121 H 1560.13 -8.65116 0.777161 0
M  V30 26122 H 1560.4 -6.90173 0.474152 0
M  V30 26123 H 1559.53 -7.66548 2.79458 0
M  V30 26124 P 1555.57 -8.03563 3.84925 0
M  V30 26125 O 1555.35 -8.85821 5.0569 0
M  V30 26126 O 1554.78 -8.41101 2.65469 0
M  V30 26127 O 1555.32 -6.49734 4.18962 0
M  V30 26128 C 1556.26 -5.81037 5.05421 0
M  V30 26129 C 1555.53 -4.79018 5.88876 0
M  V30 26130 O 1555.32 -3.58359 5.08515 0
M  V30 26131 C 1554.13 -5.17448 6.36119 0
M  V30 26132 O 1553.74 -4.45322 7.53318 0
M  V30 26133 C 1553.25 -4.74639 5.19936 0
M  V30 26134 C 1553.96 -3.49432 4.70418 0
M  V30 26135 N 1553.91 -3.31776 3.22945 0
M  V30 26136 C 1553.76 -2.02742 2.72939 0
M  V30 26137 O 1553.67 -1.08301 3.52749 0
M  V30 26138 N 1553.71 -1.96117 1.22063 0
M  V30 26139 C 1553.81 -2.8878 0.551566 0
M  V30 26140 N 1553.76 -2.65609 -0.750198 0
M  V30 26141 C 1553.96 -4.22457 1.03707 0
M  V30 26142 C 1554.01 -4.37979 2.39113 0
M  V30 26143 H 1556.75 -6.54138 5.7131 0
M  V30 26144 H 1557.02 -5.30492 4.44033 0
M  V30 26145 H 1556.15 -4.55945 6.76735 0
M  V30 26146 H 1553.5 -2.6176 5.18021 0
M  V30 26147 H 1553.22 -5.52233 4.41941 0
M  V30 26148 H 1552.23 -4.52045 5.53452 0
M  V30 26149 H 1554.06 -6.25124 6.55234 0
M  V30 26150 H 1554.13 -5.37936 2.80552 0
M  V30 26151 H 1554.03 -5.07528 0.359553 0
M  V30 26152 H 1553.64 -1.69403 -1.09847 0
M  V30 26153 H 1553.84 -3.43701 -1.41792 0
M  V30 26154 P 1552.19 -4.23843 7.83734 0
M  V30 26155 O 1551.97 -4.19407 9.29784 0
M  V30 26156 O 1551.4 -5.24426 7.09156 0
M  V30 26157 O 1551.94 -2.7935 7.20758 0
M  V30 26158 C 1552.88 -1.7299 7.50419 0
M  V30 26159 C 1552.15 -0.406376 7.57911 0
M  V30 26160 O 1551.94 0.0897726 6.21935 0
M  V30 26161 C 1550.75 -0.447224 8.1878 0
M  V30 26162 O 1550.36 0.825065 8.71101 0
M  V30 26163 C 1549.87 -0.783801 6.99623 0
M  V30 26164 C 1550.58 -0.0619192 5.85967 0
M  V30 26165 N 1550.53 -0.7859 4.56281 0
M  V30 26166 H 1553.37 -1.93423 8.4679 0
M  V30 26167 H 1553.64 -1.68181 6.71046 0
M  V30 26168 H 1552.77 0.289041 8.15388 0
M  V30 26169 P 1548.81 1.17771 8.83182 0
M  V30 26170 O 1548.59 2.07206 9.98732 0
M  V30 26171 O 1548.02 -0.0743816 8.81969 0
M  V30 26172 O 1548.56 1.97652 7.47304 0
M  V30 26173 C 1549.5 3.01133 7.08783 0
M  V30 26174 C 1548.77 4.12613 6.37049 0
M  V30 26175 O 1548.56 3.72827 4.97879 0
M  V30 26176 C 1547.37 4.45085 6.88694 0
M  V30 26177 O 1546.98 5.7877 6.5624 0
M  V30 26178 C 1546.49 3.47817 6.12078 0
M  V30 26179 C 1547.2 3.39414 4.77697 0
M  V30 26180 N 1547.15 2.04615 4.15333 0
M  V30 26181 H 1549.99 3.41248 7.98759 0
M  V30 26182 H 1550.26 2.5837 6.41742 0
M  V30 26183 H 1549.39 5.02657 6.42673 0
M  V30 26184 P 1545.43 6.144 6.45285 0
M  V30 26185 O 1545.21 7.54673 6.86199 0
M  V30 26186 O 1544.64 5.12391 7.179 0
M  V30 26187 O 1545.18 5.99158 4.88404 0
M  V30 26188 C 1546.12 6.60234 3.96415 0
M  V30 26189 C 1545.39 7.08259 2.72856 0
M  V30 26190 O 1545.18 5.9427 1.83651 0
M  V30 26191 C 1543.99 7.64886 2.9555 0
M  V30 26192 O 1543.6 8.53963 1.90717 0
M  V30 26193 C 1543.11 6.4116 2.90739 0
M  V30 26194 C 1543.82 5.55375 1.86963 0
M  V30 26195 N 1543.77 4.09448 2.16152 0
M  V30 26196 H 1546.61 7.45574 4.45629 0
M  V30 26197 H 1546.88 5.85864 3.679 0
M  V30 26198 H 1546.01 7.84412 2.24479 0
M  V30 26199 H 1543.36 5.73457 0.888562 0
M  V30 26200 H 1543.08 5.90877 3.88583 0
M  V30 26201 H 1542.09 6.6596 2.58858 0
M  V30 26202 H 1543.92 8.16339 3.92049 0
M  V30 26203 P 1542.05 8.7635 1.60911 0
M  V30 26204 O 1541.83 10.1388 1.11561 0
M  V30 26205 O 1541.26 8.36503 2.79617 0
M  V30 26206 O 1541.8 7.71806 0.42951 0
M  V30 26207 C 1542.74 7.67148 -0.673689 0
M  V30 26208 C 1542.01 7.33374 -1.95559 0
M  V30 26209 O 1541.8 5.88721 -2.00726 0
M  V30 26210 C 1540.61 7.92526 -2.10483 0
M  V30 26211 O 1540.22 8.02971 -3.47653 0
M  V30 26212 C 1539.73 6.89602 -1.41652 0
M  V30 26213 C 1540.44 5.59201 -1.75185 0
M  V30 26214 N 1540.39 4.58235 -0.662552 0
M  V30 26215 C 1540.47 4.7683 0.704049 0
M  V30 26216 N 1540.39 3.66233 1.39775 0
M  V30 26217 C 1540.25 2.66526 0.431739 0
M  V30 26218 C 1540.12 1.26394 0.575992 0
M  V30 26219 O 1540.1 0.589894 1.60503 0
M  V30 26220 N 1540 0.62859 -0.67177 0
M  V30 26221 C 1540 1.27134 -1.89385 0
M  V30 26222 N 1539.87 0.492035 -2.96951 0
M  V30 26223 N 1540.13 2.58978 -2.02907 0
M  V30 26224 C 1540.25 3.22433 -0.832218 0
M  V30 26225 H 1543.23 8.65116 -0.777161 0
M  V30 26226 H 1543.5 6.90173 -0.474152 0
M  V30 26227 H 1542.63 7.66548 -2.79458 0
M  V30 26228 H 1539.98 5.16254 -2.65229 0
M  V30 26229 H 1539.7 7.06532 -0.329431 0
M  V30 26230 H 1538.71 6.91023 -1.82047 0
M  V30 26231 H 1540.54 8.90971 -1.62675 0
M  V30 26232 H 1540.59 5.74954 1.16305 0
M  V30 26233 H 1539.91 -0.366713 -0.674793 0
M  V30 26234 H 1539.87 0.908532 -3.91188 0
M  V30 26235 H 1539.77 -0.528253 -2.85758 0
M  V30 26236 P 1538.67 8.03563 -3.84925 0
M  V30 26237 O 1538.45 8.85821 -5.0569 0
M  V30 26238 O 1537.88 8.41101 -2.65469 0
M  V30 26239 O 1538.42 6.4965 -4.18908 0
M  V30 26240 C 1539.36 5.81037 -5.05421 0
M  V30 26241 C 1538.63 4.78366 -5.89277 0
M  V30 26242 O 1538.42 3.58302 -5.08433 0
M  V30 26243 C 1537.23 5.17448 -6.36119 0
M  V30 26244 O 1536.84 4.45271 -7.53232 0
M  V30 26245 C 1536.35 4.74639 -5.19936 0
M  V30 26246 C 1537.06 3.49432 -4.70418 0
M  V30 26247 N 1537.01 3.32099 -3.22613 0
M  V30 26248 H 1539.85 6.54213 -5.71376 0
M  V30 26249 H 1540.12 5.30936 -4.43503 0
M  V30 26250 H 1539.25 4.55889 -6.76652 0
M  V30 26251 H 1536.6 2.61715 -5.17932 0
M  V30 26252 H 1536.32 5.52155 -4.41878 0
M  V30 26253 H 1535.33 4.51981 -5.53374 0
M  V30 26254 H 1537.16 6.25124 -6.55234 0
M  V30 26255 P 1535.29 4.23843 -7.83734 0
M  V30 26256 O 1535.07 4.19407 -9.29784 0
M  V30 26257 O 1534.5 5.24426 -7.09156 0
M  V30 26258 O 1535.04 2.7935 -7.20758 0
M  V30 26259 C 1535.98 1.7299 -7.50419 0
M  V30 26260 C 1535.25 0.406376 -7.57911 0
M  V30 26261 O 1535.04 -0.0897726 -6.21935 0
M  V30 26262 C 1533.85 0.447224 -8.1878 0
M  V30 26263 O 1533.46 -0.825065 -8.71101 0
M  V30 26264 C 1532.97 0.783801 -6.99623 0
M  V30 26265 C 1533.68 0.0619192 -5.85967 0
M  V30 26266 N 1533.63 0.7859 -4.56281 0
M  V30 26267 C 1533.71 2.14308 -4.31736 0
M  V30 26268 N 1533.63 2.46106 -3.05116 0
M  V30 26269 C 1533.49 1.23422 -2.4014 0
M  V30 26270 C 1533.36 0.938381 -1.02409 0
M  V30 26271 N 1533.24 -0.444647 -0.805413 0
M  V30 26272 C 1533.24 -1.40829 -1.79435 0
M  V30 26273 N 1533.11 -2.67213 -1.38558 0
M  V30 26274 N 1533.37 -1.12947 -3.09005 0
M  V30 26275 C 1533.49 0.204887 -3.32369 0
M  V30 26276 H 1536.47 1.93423 -8.4679 0
M  V30 26277 H 1536.74 1.68181 -6.71046 0
M  V30 26278 H 1535.87 -0.289041 -8.15388 0
M  V30 26279 P 1531.91 -1.17771 -8.83182 0
M  V30 26280 O 1531.69 -2.07206 -9.98732 0
M  V30 26281 O 1531.12 0.0743816 -8.81969 0
M  V30 26282 O 1531.66 -1.97652 -7.47304 0
M  V30 26283 C 1532.6 -3.01133 -7.08783 0
M  V30 26284 C 1531.87 -4.12613 -6.37049 0
M  V30 26285 O 1531.66 -3.72827 -4.97879 0
M  V30 26286 C 1530.47 -4.45085 -6.88694 0
M  V30 26287 O 1530.08 -5.7877 -6.5624 0
M  V30 26288 C 1529.59 -3.47817 -6.12078 0
M  V30 26289 C 1530.3 -3.39414 -4.77697 0
M  V30 26290 N 1530.25 -2.04615 -4.15333 0
M  V30 26291 H 1533.09 -3.41248 -7.98759 0
M  V30 26292 H 1533.36 -2.5837 -6.41742 0
M  V30 26293 H 1532.49 -5.02657 -6.42673 0
M  V30 26294 P 1528.53 -6.144 -6.45285 0
M  V30 26295 O 1528.31 -7.54673 -6.86199 0
M  V30 26296 O 1527.74 -5.12391 -7.179 0
M  V30 26297 O 1528.28 -5.99158 -4.88404 0
M  V30 26298 C 1529.22 -6.60234 -3.96415 0
M  V30 26299 C 1528.49 -7.08259 -2.72856 0
M  V30 26300 O 1528.28 -5.9427 -1.83651 0
M  V30 26301 C 1527.09 -7.64886 -2.9555 0
M  V30 26302 O 1526.7 -8.53963 -1.90717 0
M  V30 26303 C 1526.21 -6.4116 -2.90739 0
M  V30 26304 C 1526.92 -5.55375 -1.86963 0
M  V30 26305 N 1526.87 -4.09448 -2.16152 0
M  V30 26306 H 1529.71 -7.45574 -4.45629 0
M  V30 26307 H 1529.98 -5.85864 -3.679 0
M  V30 26308 H 1529.11 -7.84412 -2.24479 0
M  V30 26309 H 1526.46 -5.73457 -0.888562 0
M  V30 26310 H 1526.18 -5.90877 -3.88583 0
M  V30 26311 H 1525.19 -6.6596 -2.58858 0
M  V30 26312 H 1527.02 -8.16339 -3.92049 0
M  V30 26313 P 1525.15 -8.7635 -1.60911 0
M  V30 26314 O 1524.93 -10.1388 -1.11561 0
M  V30 26315 O 1524.36 -8.36503 -2.79617 0
M  V30 26316 O 1524.9 -7.71806 -0.42951 0
M  V30 26317 C 1525.84 -7.67148 0.673689 0
M  V30 26318 C 1525.11 -7.33374 1.95559 0
M  V30 26319 O 1524.9 -5.88721 2.00726 0
M  V30 26320 C 1523.71 -7.92526 2.10483 0
M  V30 26321 O 1523.32 -8.02971 3.47653 0
M  V30 26322 C 1522.83 -6.89602 1.41652 0
M  V30 26323 C 1523.54 -5.59201 1.75185 0
M  V30 26324 N 1523.49 -4.58301 0.657969 0
M  V30 26325 H 1526.33 -8.65116 0.777161 0
M  V30 26326 H 1526.6 -6.9022 0.46725 0
M  V30 26327 H 1525.73 -7.66548 2.79458 0
M  V30 26328 H 1523.08 -5.16165 2.65183 0
M  V30 26329 H 1522.8 -7.06433 0.329384 0
M  V30 26330 H 1521.81 -6.90926 1.82021 0
M  V30 26331 H 1523.64 -8.90873 1.62657 0
M  V30 26332 P 1521.77 -8.03563 3.84925 0
M  V30 26333 O 1521.55 -8.85821 5.0569 0
M  V30 26334 O 1520.98 -8.41101 2.65469 0
M  V30 26335 O 1521.52 -6.4965 4.18908 0
M  V30 26336 C 1522.46 -5.81037 5.05421 0
M  V30 26337 C 1521.73 -4.78366 5.89277 0
M  V30 26338 O 1521.52 -3.58302 5.08433 0
M  V30 26339 C 1520.33 -5.17448 6.36119 0
M  V30 26340 O 1519.94 -4.45271 7.53232 0
M  V30 26341 C 1519.45 -4.74639 5.19936 0
M  V30 26342 C 1520.16 -3.49432 4.70418 0
M  V30 26343 N 1520.11 -3.31776 3.22945 0
M  V30 26344 H 1522.95 -6.54213 5.71376 0
M  V30 26345 H 1523.22 -5.30492 4.44033 0
M  V30 26346 H 1522.35 -4.55889 6.76652 0
M  V30 26347 P 1518.39 -4.23843 7.83734 0
M  V30 26348 O 1518.17 -4.19407 9.29784 0
M  V30 26349 O 1517.6 -5.24426 7.09156 0
M  V30 26350 O 1518.14 -2.7935 7.20758 0
M  V30 26351 C 1519.08 -1.72945 7.50224 0
M  V30 26352 C 1518.35 -0.406376 7.57911 0
M  V30 26353 O 1518.14 0.0897726 6.21935 0
M  V30 26354 C 1516.95 -0.438983 8.18724 0
M  V30 26355 O 1516.56 0.825065 8.71101 0
M  V30 26356 C 1516.07 -0.783689 6.99524 0
M  V30 26357 C 1516.78 -0.0619086 5.85867 0
M  V30 26358 N 1516.73 -0.78573 4.56183 0
M  V30 26359 C 1516.58 -0.0292889 3.41887 0
M  V30 26360 O 1516.49 1.18445 3.4419 0
M  V30 26361 N 1516.54 -0.744061 2.23964 0
M  V30 26362 C 1516.63 -2.10932 2.10362 0
M  V30 26363 C 1516.78 -2.8202 3.34994 0
M  V30 26364 C 1516.83 -2.15547 4.52261 0
M  V30 26365 H 1519.57 -1.93379 8.46595 0
M  V30 26366 H 1519.84 -1.68132 6.70852 0
M  V30 26367 H 1518.97 0.289041 8.15388 0
M  V30 26368 H 1516.32 0.926847 5.72749 0
M  V30 26369 H 1516.04 -1.86973 6.82036 0
M  V30 26370 H 1515.05 -0.403896 7.13257 0
M  V30 26371 H 1516.88 -1.20585 8.97435 0
M  V30 26372 H 1516.95 -2.71231 5.45042 0
M  V30 26373 P 1515.01 1.17771 8.83182 0
M  V30 26374 O 1514.79 2.07206 9.98732 0
M  V30 26375 O 1514.22 -0.0743816 8.81969 0
M  V30 26376 O 1514.76 1.97652 7.47304 0
M  V30 26377 C 1515.7 3.01133 7.08783 0
M  V30 26378 C 1514.97 4.12613 6.37049 0
M  V30 26379 O 1514.76 3.72827 4.97879 0
M  V30 26380 C 1513.57 4.45085 6.88694 0
M  V30 26381 O 1513.18 5.7877 6.5624 0
M  V30 26382 C 1512.69 3.47817 6.12078 0
M  V30 26383 C 1513.4 3.39414 4.77697 0
M  V30 26384 N 1513.35 2.04615 4.15333 0
M  V30 26385 H 1516.19 3.41248 7.98759 0
M  V30 26386 H 1516.46 2.5837 6.41742 0
M  V30 26387 H 1515.59 5.02657 6.42673 0
M  V30 26388 P 1511.63 6.144 6.45285 0
M  V30 26389 O 1511.41 7.54673 6.86199 0
M  V30 26390 O 1510.84 5.12391 7.179 0
M  V30 26391 O 1511.38 5.99158 4.88404 0
M  V30 26392 C 1512.32 6.60062 3.96313 0
M  V30 26393 C 1511.59 7.08259 2.72856 0
M  V30 26394 O 1511.38 5.9427 1.83651 0
M  V30 26395 C 1510.19 7.65087 2.94749 0
M  V30 26396 O 1509.8 8.53963 1.90717 0
M  V30 26397 C 1509.31 6.41069 2.90698 0
M  V30 26398 C 1510.02 5.5528 1.86931 0
M  V30 26399 N 1509.97 4.09575 2.15696 0
M  V30 26400 C 1509.82 3.24249 1.08435 0
M  V30 26401 O 1509.73 3.63946 -0.0628747 0
M  V30 26402 N 1509.78 1.90009 1.39973 0
M  V30 26403 C 1509.87 1.34884 2.65614 0
M  V30 26404 O 1509.82 0.123716 2.81728 0
M  V30 26405 C 1510.02 2.3145 3.71736 0
M  V30 26406 C 1510.13 1.75913 5.10438 0
M  V30 26407 C 1510.07 3.63518 3.44754 0
M  V30 26408 H 1512.81 7.45402 4.45526 0
M  V30 26409 H 1513.08 5.86062 3.67208 0
M  V30 26410 H 1512.21 7.84412 2.24479 0
M  V30 26411 H 1509.56 5.73358 0.888409 0
M  V30 26412 H 1509.28 5.90877 3.88583 0
M  V30 26413 H 1508.29 6.65867 2.58821 0
M  V30 26414 H 1510.12 8.16248 3.92006 0
M  V30 26415 H 1510.19 4.34551 4.26383 0
M  V30 26416 H 1509.16 1.85471 5.61775 0
M  V30 26417 H 1510.9 2.31364 5.66257 0
M  V30 26418 H 1510.41 0.695936 5.05229 0
M  V30 26419 H 1509.68 1.26277 0.63625 0
M  V30 26420 P 1508.25 8.7635 1.60911 0
M  V30 26421 O 1508.03 10.1388 1.11561 0
M  V30 26422 O 1507.46 8.36503 2.79617 0
M  V30 26423 O 1508 7.71806 0.42951 0
M  V30 26424 C 1508.94 7.67148 -0.673689 0
M  V30 26425 C 1508.21 7.33374 -1.95559 0
M  V30 26426 O 1508 5.88721 -2.00726 0
M  V30 26427 C 1506.81 7.92526 -2.10483 0
M  V30 26428 O 1506.42 8.02971 -3.47653 0
M  V30 26429 C 1505.93 6.89602 -1.41652 0
M  V30 26430 C 1506.64 5.59201 -1.75185 0
M  V30 26431 N 1506.59 4.58235 -0.662552 0
M  V30 26432 H 1509.43 8.65116 -0.777161 0
M  V30 26433 H 1509.7 6.90173 -0.474152 0
M  V30 26434 H 1508.83 7.66548 -2.79458 0
M  V30 26435 P 1504.87 8.03563 -3.84925 0
M  V30 26436 O 1504.65 8.85821 -5.0569 0
M  V30 26437 O 1504.08 8.41101 -2.65469 0
M  V30 26438 O 1504.62 6.4965 -4.18908 0
M  V30 26439 C 1505.56 5.80886 -5.05289 0
M  V30 26440 C 1504.83 4.78366 -5.89277 0
M  V30 26441 O 1504.62 3.58302 -5.08433 0
M  V30 26442 C 1503.43 5.16748 -6.36559 0
M  V30 26443 O 1503.04 4.45271 -7.53232 0
M  V30 26444 C 1502.55 4.74572 -5.19863 0
M  V30 26445 C 1503.26 3.49373 -4.70338 0
M  V30 26446 N 1503.21 3.31704 -3.22876 0
M  V30 26447 C 1503.06 2.03326 -2.74871 0
M  V30 26448 O 1502.97 1.06486 -3.48076 0
M  V30 26449 N 1503.02 1.91838 -1.37456 0
M  V30 26450 C 1503.11 2.94295 -0.462035 0
M  V30 26451 O 1503.06 2.71763 0.752928 0
M  V30 26452 C 1503.26 4.25064 -1.05249 0
M  V30 26453 C 1503.37 5.39815 -0.095697 0
M  V30 26454 C 1503.31 4.40214 -2.39192 0
M  V30 26455 H 1506.05 6.54063 -5.71245 0
M  V30 26456 H 1506.32 5.30339 -4.43905 0
M  V30 26457 H 1505.45 4.55889 -6.76652 0
M  V30 26458 H 1502.8 2.6167 -5.17842 0
M  V30 26459 H 1502.52 5.52155 -4.41878 0
M  V30 26460 H 1501.53 4.51918 -5.53297 0
M  V30 26461 H 1503.36 6.25055 -6.55162 0
M  V30 26462 H 1503.43 5.39798 -2.81523 0
M  V30 26463 H 1502.4 5.91593 -0.0279582 0
M  V30 26464 H 1504.14 6.10038 -0.450573 0
M  V30 26465 H 1503.65 5.02007 0.89937 0
M  V30 26466 H 1502.92 0.995326 -1.00435 0
M  V30 26467 P 1501.49 4.23843 -7.83734 0
M  V30 26468 O 1501.27 4.19407 -9.29784 0
M  V30 26469 O 1500.7 5.24426 -7.09156 0
M  V30 26470 O 1501.24 2.7935 -7.20758 0
M  V30 26471 C 1502.18 1.7299 -7.50419 0
M  V30 26472 C 1501.45 0.406376 -7.57911 0
M  V30 26473 O 1501.24 -0.0897726 -6.21935 0
M  V30 26474 C 1500.05 0.447224 -8.1878 0
M  V30 26475 O 1499.66 -0.825065 -8.71101 0
M  V30 26476 C 1499.17 0.783801 -6.99623 0
M  V30 26477 C 1499.88 0.0619192 -5.85967 0
M  V30 26478 N 1499.83 0.7859 -4.56281 0
M  V30 26479 H 1502.67 1.93423 -8.4679 0
M  V30 26480 H 1502.94 1.68181 -6.71046 0
M  V30 26481 H 1502.07 -0.289041 -8.15388 0
M  V30 26482 P 1498.11 -1.17771 -8.83182 0
M  V30 26483 O 1497.89 -2.07206 -9.98732 0
M  V30 26484 O 1497.32 0.0743816 -8.81969 0
M  V30 26485 O 1497.86 -1.97652 -7.47304 0
M  V30 26486 C 1498.8 -3.01133 -7.08783 0
M  V30 26487 C 1498.07 -4.12613 -6.37049 0
M  V30 26488 O 1497.86 -3.72827 -4.97879 0
M  V30 26489 C 1496.67 -4.45085 -6.88694 0
M  V30 26490 O 1496.28 -5.7877 -6.5624 0
M  V30 26491 C 1495.79 -3.47817 -6.12078 0
M  V30 26492 C 1496.5 -3.39414 -4.77697 0
M  V30 26493 N 1496.45 -2.04615 -4.15333 0
M  V30 26494 H 1499.29 -3.41248 -7.98759 0
M  V30 26495 H 1499.56 -2.5837 -6.41742 0
M  V30 26496 H 1498.69 -5.02657 -6.42673 0
M  V30 26497 P 1494.73 -6.144 -6.45285 0
M  V30 26498 O 1494.51 -7.54673 -6.86199 0
M  V30 26499 O 1493.94 -5.12391 -7.179 0
M  V30 26500 O 1494.48 -5.99158 -4.88404 0
M  V30 26501 C 1495.42 -6.60234 -3.96415 0
M  V30 26502 C 1494.69 -7.08259 -2.72856 0
M  V30 26503 O 1494.48 -5.9427 -1.83651 0
M  V30 26504 C 1493.29 -7.64886 -2.9555 0
M  V30 26505 O 1492.9 -8.53963 -1.90717 0
M  V30 26506 C 1492.41 -6.4116 -2.90739 0
M  V30 26507 C 1493.12 -5.55375 -1.86963 0
M  V30 26508 N 1493.07 -4.09664 -2.15742 0
M  V30 26509 C 1493.15 -3.44381 -3.37233 0
M  V30 26510 N 1493.07 -2.14131 -3.28347 0
M  V30 26511 C 1492.93 -1.90247 -1.91588 0
M  V30 26512 C 1492.8 -0.683992 -1.20892 0
M  V30 26513 N 1492.68 -0.903396 0.173998 0
M  V30 26514 C 1492.68 -2.14171 0.784879 0
M  V30 26515 N 1492.55 -2.1435 2.11317 0
M  V30 26516 N 1492.81 -3.28784 0.119316 0
M  V30 26517 C 1492.93 -3.0977 -1.22194 0
M  V30 26518 H 1495.91 -7.45574 -4.45629 0
M  V30 26519 H 1496.18 -5.86232 -3.67314 0
M  V30 26520 H 1495.31 -7.84412 -2.24479 0
M  V30 26521 P 1491.35 -8.7635 -1.60911 0
M  V30 26522 O 1491.13 -10.1388 -1.11561 0
M  V30 26523 O 1490.56 -8.36503 -2.79617 0
M  V30 26524 O 1491.1 -7.71806 -0.42951 0
M  V30 26525 C 1492.04 -7.67148 0.673689 0
M  V30 26526 C 1491.31 -7.33374 1.95559 0
M  V30 26527 O 1491.1 -5.88721 2.00726 0
M  V30 26528 C 1489.91 -7.92526 2.10483 0
M  V30 26529 O 1489.52 -8.02971 3.47653 0
M  V30 26530 C 1489.03 -6.89602 1.41652 0
M  V30 26531 C 1489.74 -5.59201 1.75185 0
M  V30 26532 N 1489.69 -4.58301 0.657969 0
M  V30 26533 H 1492.53 -8.65116 0.777161 0
M  V30 26534 H 1492.8 -6.9022 0.46725 0
M  V30 26535 H 1491.93 -7.66548 2.79458 0
M  V30 26536 H 1489.28 -5.16165 2.65183 0
M  V30 26537 H 1489 -7.06433 0.329384 0
M  V30 26538 H 1488.01 -6.90926 1.82021 0
M  V30 26539 H 1489.84 -8.90873 1.62657 0
M  V30 26540 P 1487.97 -8.03563 3.84925 0
M  V30 26541 O 1487.75 -8.85821 5.0569 0
M  V30 26542 O 1487.18 -8.41101 2.65469 0
M  V30 26543 O 1487.72 -6.4965 4.18908 0
M  V30 26544 C 1488.66 -5.81037 5.05421 0
M  V30 26545 C 1487.93 -4.78366 5.89277 0
M  V30 26546 O 1487.72 -3.58302 5.08433 0
M  V30 26547 C 1486.53 -5.17448 6.36119 0
M  V30 26548 O 1486.14 -4.45271 7.53232 0
M  V30 26549 C 1485.65 -4.74639 5.19936 0
M  V30 26550 C 1486.36 -3.49432 4.70418 0
M  V30 26551 N 1486.31 -3.31776 3.22945 0
M  V30 26552 H 1489.15 -6.54213 5.71376 0
M  V30 26553 H 1489.42 -5.30492 4.44033 0
M  V30 26554 H 1488.55 -4.55889 6.76652 0
M  V30 26555 P 1484.59 -4.23843 7.83734 0
M  V30 26556 O 1484.37 -4.19407 9.29784 0
M  V30 26557 O 1483.8 -5.24426 7.09156 0
M  V30 26558 O 1484.34 -2.7935 7.20758 0
M  V30 26559 C 1485.28 -1.7299 7.50419 0
M  V30 26560 C 1484.55 -0.406376 7.57911 0
M  V30 26561 O 1484.34 0.0897726 6.21935 0
M  V30 26562 C 1483.15 -0.447224 8.1878 0
M  V30 26563 O 1482.76 0.825065 8.71101 0
M  V30 26564 C 1482.27 -0.783801 6.99623 0
M  V30 26565 C 1482.98 -0.0619192 5.85967 0
M  V30 26566 N 1482.93 -0.7859 4.56281 0
M  V30 26567 H 1485.77 -1.93423 8.4679 0
M  V30 26568 H 1486.04 -1.68181 6.71046 0
M  V30 26569 H 1485.17 0.289041 8.15388 0
M  V30 26570 P 1481.21 1.17771 8.83182 0
M  V30 26571 O 1480.99 2.07206 9.98732 0
M  V30 26572 O 1480.42 -0.0743816 8.81969 0
M  V30 26573 O 1480.96 1.97652 7.47304 0
M  V30 26574 C 1481.9 3.01133 7.08783 0
M  V30 26575 C 1481.17 4.12613 6.37049 0
M  V30 26576 O 1480.96 3.72827 4.97879 0
M  V30 26577 C 1479.77 4.45085 6.88694 0
M  V30 26578 O 1479.38 5.7877 6.5624 0
M  V30 26579 C 1478.89 3.47817 6.12078 0
M  V30 26580 C 1479.6 3.39414 4.77697 0
M  V30 26581 N 1479.55 2.04615 4.15333 0
M  V30 26582 H 1482.39 3.41248 7.98759 0
M  V30 26583 H 1482.66 2.5837 6.41742 0
M  V30 26584 H 1481.79 5.02657 6.42673 0
M  V30 26585 P 1477.83 6.144 6.45285 0
M  V30 26586 O 1477.61 7.54673 6.86199 0
M  V30 26587 O 1477.04 5.12391 7.179 0
M  V30 26588 O 1477.58 5.99158 4.88404 0
M  V30 26589 C 1478.52 6.60062 3.96313 0
M  V30 26590 C 1477.79 7.08259 2.72856 0
M  V30 26591 O 1477.58 5.9427 1.83651 0
M  V30 26592 C 1476.39 7.65087 2.94749 0
M  V30 26593 O 1476 8.53963 1.90717 0
M  V30 26594 C 1475.51 6.41069 2.90698 0
M  V30 26595 C 1476.22 5.5528 1.86931 0
M  V30 26596 N 1476.17 4.09575 2.15696 0
M  V30 26597 C 1476.02 3.24249 1.08435 0
M  V30 26598 O 1475.93 3.63946 -0.0628747 0
M  V30 26599 N 1475.98 1.90009 1.39973 0
M  V30 26600 C 1476.07 1.34884 2.65614 0
M  V30 26601 O 1476.02 0.123716 2.81728 0
M  V30 26602 C 1476.22 2.3145 3.71736 0
M  V30 26603 C 1476.33 1.75913 5.10438 0
M  V30 26604 C 1476.27 3.63518 3.44754 0
M  V30 26605 H 1479.01 7.45402 4.45526 0
M  V30 26606 H 1479.28 5.86062 3.67208 0
M  V30 26607 H 1478.41 7.84412 2.24479 0
M  V30 26608 H 1475.76 5.73358 0.888409 0
M  V30 26609 H 1475.48 5.90877 3.88583 0
M  V30 26610 H 1474.49 6.65867 2.58821 0
M  V30 26611 H 1476.32 8.16248 3.92006 0
M  V30 26612 H 1476.39 4.34551 4.26383 0
M  V30 26613 H 1475.36 1.85471 5.61775 0
M  V30 26614 H 1477.1 2.31364 5.66257 0
M  V30 26615 H 1476.61 0.695936 5.05229 0
M  V30 26616 H 1475.88 1.26277 0.63625 0
M  V30 26617 P 1474.45 8.7635 1.60911 0
M  V30 26618 O 1474.23 10.1388 1.11561 0
M  V30 26619 O 1473.66 8.36503 2.79617 0
M  V30 26620 O 1474.2 7.71806 0.42951 0
M  V30 26621 C 1475.14 7.67148 -0.673689 0
M  V30 26622 C 1474.41 7.33374 -1.95559 0
M  V30 26623 O 1474.2 5.88721 -2.00726 0
M  V30 26624 C 1473.01 7.92526 -2.10483 0
M  V30 26625 O 1472.62 8.02971 -3.47653 0
M  V30 26626 C 1472.13 6.89602 -1.41652 0
M  V30 26627 C 1472.84 5.59201 -1.75185 0
M  V30 26628 N 1472.79 4.58235 -0.662552 0
M  V30 26629 H 1475.63 8.65116 -0.777161 0
M  V30 26630 H 1475.9 6.90173 -0.474152 0
M  V30 26631 H 1475.03 7.66548 -2.79458 0
M  V30 26632 P 1471.07 8.03563 -3.84925 0
M  V30 26633 O 1470.85 8.85821 -5.0569 0
M  V30 26634 O 1470.28 8.41101 -2.65469 0
M  V30 26635 O 1470.82 6.4965 -4.18908 0
M  V30 26636 C 1471.76 5.81037 -5.05421 0
M  V30 26637 C 1471.03 4.78366 -5.89277 0
M  V30 26638 O 1470.82 3.58302 -5.08433 0
M  V30 26639 C 1469.63 5.17448 -6.36119 0
M  V30 26640 O 1469.24 4.45271 -7.53232 0
M  V30 26641 C 1468.75 4.74639 -5.19936 0
M  V30 26642 C 1469.46 3.49432 -4.70418 0
M  V30 26643 N 1469.41 3.32099 -3.22613 0
M  V30 26644 H 1472.25 6.54213 -5.71376 0
M  V30 26645 H 1472.52 5.30936 -4.43503 0
M  V30 26646 H 1471.65 4.55889 -6.76652 0
M  V30 26647 H 1469 2.61715 -5.17932 0
M  V30 26648 H 1468.72 5.52155 -4.41878 0
M  V30 26649 H 1467.73 4.51981 -5.53374 0
M  V30 26650 H 1469.56 6.25124 -6.55234 0
M  V30 26651 P 1467.69 4.23843 -7.83734 0
M  V30 26652 O 1467.47 4.19407 -9.29784 0
M  V30 26653 O 1466.9 5.24426 -7.09156 0
M  V30 26654 O 1467.44 2.7935 -7.20758 0
M  V30 26655 C 1468.38 1.7299 -7.50419 0
M  V30 26656 C 1467.65 0.406376 -7.57911 0
M  V30 26657 O 1467.44 -0.0897726 -6.21935 0
M  V30 26658 C 1466.25 0.447224 -8.1878 0
M  V30 26659 O 1465.86 -0.825065 -8.71101 0
M  V30 26660 C 1465.37 0.783801 -6.99623 0
M  V30 26661 C 1466.08 0.0619192 -5.85967 0
M  V30 26662 N 1466.03 0.7859 -4.56281 0
M  V30 26663 H 1468.87 1.93423 -8.4679 0
M  V30 26664 H 1469.14 1.68181 -6.71046 0
M  V30 26665 H 1468.27 -0.289041 -8.15388 0
M  V30 26666 P 1464.31 -1.17771 -8.83182 0
M  V30 26667 O 1464.09 -2.07206 -9.98732 0
M  V30 26668 O 1463.52 0.0743816 -8.81969 0
M  V30 26669 O 1464.06 -1.97652 -7.47304 0
M  V30 26670 C 1465 -3.01133 -7.08783 0
M  V30 26671 C 1464.27 -4.12613 -6.37049 0
M  V30 26672 O 1464.06 -3.72827 -4.97879 0
M  V30 26673 C 1462.87 -4.45085 -6.88694 0
M  V30 26674 O 1462.48 -5.7877 -6.5624 0
M  V30 26675 C 1461.99 -3.47817 -6.12078 0
M  V30 26676 C 1462.7 -3.39414 -4.77697 0
M  V30 26677 N 1462.65 -2.04199 -4.15538 0
M  V30 26678 C 1462.73 -0.821545 -4.76977 0
M  V30 26679 N 1462.66 0.1794 -3.94592 0
M  V30 26680 C 1462.51 -0.419121 -2.70776 0
M  V30 26681 C 1462.38 0.109072 -1.40577 0
M  V30 26682 N 1462.37 1.4104 -1.1344 0
M  V30 26683 N 1462.26 -0.764381 -0.39411 0
M  V30 26684 C 1462.27 -2.06587 -0.664135 0
M  V30 26685 N 1462.39 -2.67948 -1.82153 0
M  V30 26686 C 1462.51 -1.77942 -2.8147 0
M  V30 26687 H 1465.49 -3.41248 -7.98759 0
M  V30 26688 H 1465.76 -2.57728 -6.42 0
M  V30 26689 H 1464.89 -5.02657 -6.42673 0
M  V30 26690 H 1462.24 -4.11708 -4.08956 0
M  V30 26691 H 1461.96 -2.49626 -6.61679 0
M  V30 26692 H 1460.97 -3.8662 -6.00862 0
M  V30 26693 H 1462.8 -4.29991 -7.97006 0
M  V30 26694 H 1462.84 -0.702451 -5.84696 0
M  V30 26695 H 1462.46 2.09647 -1.89651 0
M  V30 26696 H 1462.27 1.73358 -0.160575 0
M  V30 26697 H 1462.17 -2.71695 0.195838 0
M  V30 26698 P 1460.93 -6.144 -6.45285 0
M  V30 26699 O 1460.71 -7.54673 -6.86199 0
M  V30 26700 O 1460.14 -5.12391 -7.179 0
M  V30 26701 O 1460.68 -5.99236 -4.88467 0
M  V30 26702 C 1461.62 -6.60234 -3.96415 0
M  V30 26703 C 1460.89 -7.08079 -2.736 0
M  V30 26704 O 1460.68 -5.94365 -1.8368 0
M  V30 26705 C 1459.49 -7.64886 -2.9555 0
M  V30 26706 O 1459.1 -8.5406 -1.90739 0
M  V30 26707 C 1458.61 -6.4116 -2.90739 0
M  V30 26708 C 1459.32 -5.55375 -1.86963 0
M  V30 26709 N 1459.27 -4.09664 -2.15742 0
M  V30 26710 C 1459.12 -3.22231 -1.08477 0
M  V30 26711 O 1459.03 -3.68951 0.0600489 0
M  V30 26712 N 1459.07 -1.76692 -1.48799 0
M  V30 26713 C 1459.17 -1.41695 -2.57602 0
M  V30 26714 N 1459.12 -0.107296 -2.75791 0
M  V30 26715 C 1459.32 -2.29178 -3.69733 0
M  V30 26716 C 1459.37 -3.62753 -3.42653 0
M  V30 26717 H 1462.11 -7.45488 -4.45578 0
M  V30 26718 H 1462.38 -5.86232 -3.67314 0
M  V30 26719 H 1461.51 -7.84508 -2.24507 0
M  V30 26720 H 1458.86 -5.73556 -0.888715 0
M  V30 26721 H 1458.58 -5.9096 -3.88638 0
M  V30 26722 H 1457.59 -6.66053 -2.58894 0
M  V30 26723 H 1459.42 -8.16339 -3.92049 0
M  V30 26724 H 1459.49 -4.33052 -4.24913 0
M  V30 26725 H 1459.39 -1.9103 -4.71577 0
M  V30 26726 H 1459 0.521221 -1.95056 0
M  V30 26727 H 1459.2 0.286429 -3.70695 0
M  V30 26728 P 1457.55 -8.7635 -1.60911 0
M  V30 26729 O 1457.33 -10.1388 -1.11561 0
M  V30 26730 O 1456.76 -8.36503 -2.79617 0
M  V30 26731 O 1457.3 -7.71806 -0.42951 0
M  V30 26732 C 1458.24 -7.66948 0.673514 0
M  V30 26733 C 1457.51 -7.33374 1.95559 0
M  V30 26734 O 1457.3 -5.88721 2.00726 0
M  V30 26735 C 1456.11 -7.92218 2.1125 0
M  V30 26736 O 1455.72 -8.02971 3.47653 0
M  V30 26737 C 1455.23 -6.89504 1.41631 0
M  V30 26738 C 1455.94 -5.59106 1.75155 0
M  V30 26739 N 1455.89 -4.58136 0.662409 0
M  V30 26740 C 1455.74 -3.26059 1.02863 0
M  V30 26741 O 1455.65 -2.90743 2.19009 0
M  V30 26742 N 1455.7 -2.35995 -0.0155585 0
M  V30 26743 C 1455.79 -2.65248 -1.35603 0
M  V30 26744 O 1455.74 -1.75605 -2.20651 0
M  V30 26745 C 1455.94 -4.05747 -1.64698 0
M  V30 26746 C 1456.05 -4.42345 -3.09553 0
M  V30 26747 C 1455.99 -4.96734 -0.652411 0
M  V30 26748 H 1458.73 -8.64917 0.776982 0
M  V30 26749 H 1459 -6.89974 0.474015 0
M  V30 26750 H 1458.13 -7.66548 2.79458 0
M  V30 26751 H 1455.48 -5.16076 2.65138 0
M  V30 26752 H 1455.2 -7.06433 0.329384 0
M  V30 26753 H 1454.21 -6.90829 1.81996 0
M  V30 26754 H 1456.04 -8.90774 1.62639 0
M  V30 26755 H 1456.11 -6.02181 -0.895285 0
M  V30 26756 H 1455.08 -4.80252 -3.45468 0
M  V30 26757 H 1456.82 -5.20015 -3.22119 0
M  V30 26758 H 1456.33 -3.53269 -3.67833 0
M  V30 26759 H 1455.6 -1.39558 0.227499 0
M  V30 26760 P 1454.17 -8.03563 3.84925 0
M  V30 26761 O 1453.95 -8.85821 5.0569 0
M  V30 26762 O 1453.38 -8.41101 2.65469 0
M  V30 26763 O 1453.92 -6.4965 4.18908 0
M  V30 26764 C 1454.86 -5.81037 5.05421 0
M  V30 26765 C 1454.13 -4.78366 5.89277 0
M  V30 26766 O 1453.92 -3.58302 5.08433 0
M  V30 26767 C 1452.73 -5.17448 6.36119 0
M  V30 26768 O 1452.34 -4.45271 7.53232 0
M  V30 26769 C 1451.85 -4.74639 5.19936 0
M  V30 26770 C 1452.56 -3.49432 4.70418 0
M  V30 26771 N 1452.51 -3.31776 3.22945 0
M  V30 26772 H 1455.35 -6.54213 5.71376 0
M  V30 26773 H 1455.62 -5.30492 4.44033 0
M  V30 26774 H 1454.75 -4.55889 6.76652 0
M  V30 26775 P 1450.79 -4.23843 7.83734 0
M  V30 26776 O 1450.57 -4.19407 9.29784 0
M  V30 26777 O 1450 -5.24426 7.09156 0
M  V30 26778 O 1450.54 -2.7935 7.20758 0
M  V30 26779 C 1451.48 -1.7299 7.50419 0
M  V30 26780 C 1450.75 -0.406376 7.57911 0
M  V30 26781 O 1450.54 0.0897726 6.21935 0
M  V30 26782 C 1449.35 -0.447224 8.1878 0
M  V30 26783 O 1448.96 0.825065 8.71101 0
M  V30 26784 C 1448.47 -0.783801 6.99623 0
M  V30 26785 C 1449.18 -0.0619192 5.85967 0
M  V30 26786 N 1449.13 -0.790462 4.56202 0
M  V30 26787 C 1449.21 -2.13895 4.34171 0
M  V30 26788 N 1449.14 -2.46449 3.08687 0
M  V30 26789 C 1448.99 -1.2525 2.43697 0
M  V30 26790 C 1448.86 -0.914535 1.07318 0
M  V30 26791 N 1448.85 -1.80782 0.0887348 0
M  V30 26792 N 1448.74 0.386745 0.768133 0
M  V30 26793 C 1448.75 1.28096 1.75159 0
M  V30 26794 N 1448.87 1.09708 3.04861 0
M  V30 26795 C 1448.99 -0.214857 3.32306 0
M  V30 26796 H 1451.97 -1.93423 8.4679 0
M  V30 26797 H 1452.24 -1.68852 6.70877 0
M  V30 26798 H 1451.37 0.289041 8.15388 0
M  V30 26799 H 1448.72 0.927006 5.72848 0
M  V30 26800 H 1448.44 -1.86973 6.82036 0
M  V30 26801 H 1447.45 -0.403953 7.13357 0
M  V30 26802 H 1449.28 -1.20599 8.97534 0
M  V30 26803 H 1449.32 -2.86846 5.14318 0
M  V30 26804 H 1448.94 -2.81082 0.302037 0
M  V30 26805 H 1448.75 -1.49688 -0.889064 0
M  V30 26806 H 1448.65 2.31317 1.43855 0
M  V30 26807 P 1447.41 1.17771 8.83182 0
M  V30 26808 O 1447.19 2.07206 9.98732 0
M  V30 26809 O 1446.62 -0.0743816 8.81969 0
M  V30 26810 O 1447.16 1.97652 7.47304 0
M  V30 26811 C 1448.1 3.01133 7.08783 0
M  V30 26812 C 1447.37 4.12613 6.37049 0
M  V30 26813 O 1447.16 3.72827 4.97879 0
M  V30 26814 C 1445.97 4.45085 6.88694 0
M  V30 26815 O 1445.58 5.7877 6.5624 0
M  V30 26816 C 1445.09 3.47817 6.12078 0
M  V30 26817 C 1445.8 3.39414 4.77697 0
M  V30 26818 N 1445.75 2.04615 4.15333 0
M  V30 26819 H 1448.59 3.41248 7.98759 0
M  V30 26820 H 1448.86 2.5837 6.41742 0
M  V30 26821 H 1447.99 5.02657 6.42673 0
M  V30 26822 P 1444.03 6.144 6.45285 0
M  V30 26823 O 1443.81 7.54673 6.86199 0
M  V30 26824 O 1443.24 5.12391 7.179 0
M  V30 26825 O 1443.78 5.99158 4.88404 0
M  V30 26826 C 1444.72 6.60234 3.96415 0
M  V30 26827 C 1443.99 7.08259 2.72856 0
M  V30 26828 O 1443.78 5.9427 1.83651 0
M  V30 26829 C 1442.59 7.64886 2.9555 0
M  V30 26830 O 1442.2 8.53963 1.90717 0
M  V30 26831 C 1441.71 6.4116 2.90739 0
M  V30 26832 C 1442.42 5.55375 1.86963 0
M  V30 26833 N 1442.37 4.09664 2.15742 0
M  V30 26834 H 1445.21 7.45574 4.45629 0
M  V30 26835 H 1445.48 5.86232 3.67314 0
M  V30 26836 H 1444.61 7.84412 2.24479 0
M  V30 26837 P 1440.65 8.7635 1.60911 0
M  V30 26838 O 1440.43 10.1388 1.11561 0
M  V30 26839 O 1439.86 8.36503 2.79617 0
M  V30 26840 O 1440.4 7.71806 0.42951 0
M  V30 26841 C 1441.34 7.67148 -0.673689 0
M  V30 26842 C 1440.61 7.33374 -1.95559 0
M  V30 26843 O 1440.4 5.88721 -2.00726 0
M  V30 26844 C 1439.21 7.92526 -2.10483 0
M  V30 26845 O 1438.82 8.02971 -3.47653 0
M  V30 26846 C 1438.33 6.89602 -1.41652 0
M  V30 26847 C 1439.04 5.59201 -1.75185 0
M  V30 26848 N 1438.99 4.58301 -0.657969 0
M  V30 26849 H 1441.83 8.65116 -0.777161 0
M  V30 26850 H 1442.1 6.9022 -0.46725 0
M  V30 26851 H 1441.23 7.66548 -2.79458 0
M  V30 26852 H 1438.58 5.16165 -2.65183 0
M  V30 26853 H 1438.3 7.06433 -0.329384 0
M  V30 26854 H 1437.31 6.90926 -1.82021 0
M  V30 26855 H 1439.14 8.90873 -1.62657 0
M  V30 26856 P 1437.27 8.03563 -3.84925 0
M  V30 26857 O 1437.05 8.85821 -5.0569 0
M  V30 26858 O 1436.48 8.41101 -2.65469 0
M  V30 26859 O 1437.02 6.4965 -4.18908 0
M  V30 26860 C 1437.96 5.81037 -5.05421 0
M  V30 26861 C 1437.23 4.78366 -5.89277 0
M  V30 26862 O 1437.02 3.58302 -5.08433 0
M  V30 26863 C 1435.83 5.17448 -6.36119 0
M  V30 26864 O 1435.44 4.45271 -7.53232 0
M  V30 26865 C 1434.95 4.74639 -5.19936 0
M  V30 26866 C 1435.66 3.49432 -4.70418 0
M  V30 26867 N 1435.61 3.31776 -3.22945 0
M  V30 26868 H 1438.45 6.54213 -5.71376 0
M  V30 26869 H 1438.72 5.30492 -4.44033 0
M  V30 26870 H 1437.85 4.55889 -6.76652 0
M  V30 26871 P 1433.89 4.23843 -7.83734 0
M  V30 26872 O 1433.67 4.19407 -9.29784 0
M  V30 26873 O 1433.1 5.24426 -7.09156 0
M  V30 26874 O 1433.64 2.7935 -7.20758 0
M  V30 26875 C 1434.58 1.7299 -7.50419 0
M  V30 26876 C 1433.85 0.406376 -7.57911 0
M  V30 26877 O 1433.64 -0.0897726 -6.21935 0
M  V30 26878 C 1432.45 0.447224 -8.1878 0
M  V30 26879 O 1432.06 -0.825065 -8.71101 0
M  V30 26880 C 1431.57 0.783801 -6.99623 0
M  V30 26881 C 1432.28 0.0619192 -5.85967 0
M  V30 26882 N 1432.23 0.7859 -4.56281 0
M  V30 26883 H 1435.07 1.93423 -8.4679 0
M  V30 26884 H 1435.34 1.68181 -6.71046 0
M  V30 26885 H 1434.47 -0.289041 -8.15388 0
M  V30 26886 P 1430.51 -1.17771 -8.83182 0
M  V30 26887 O 1430.29 -2.07206 -9.98732 0
M  V30 26888 O 1429.72 0.0743816 -8.81969 0
M  V30 26889 O 1430.26 -1.97652 -7.47304 0
M  V30 26890 C 1431.2 -3.01133 -7.08783 0
M  V30 26891 C 1430.47 -4.12613 -6.37049 0
M  V30 26892 O 1430.26 -3.72827 -4.97879 0
M  V30 26893 C 1429.07 -4.45085 -6.88694 0
M  V30 26894 O 1428.68 -5.7877 -6.5624 0
M  V30 26895 C 1428.19 -3.47817 -6.12078 0
M  V30 26896 C 1428.9 -3.39414 -4.77697 0
M  V30 26897 N 1428.85 -2.04615 -4.15333 0
M  V30 26898 H 1431.69 -3.41248 -7.98759 0
M  V30 26899 H 1431.96 -2.5837 -6.41742 0
M  V30 26900 H 1431.09 -5.02657 -6.42673 0
M  V30 26901 P 1427.13 -6.144 -6.45285 0
M  V30 26902 O 1426.91 -7.54673 -6.86199 0
M  V30 26903 O 1426.34 -5.12391 -7.179 0
M  V30 26904 O 1426.88 -5.99158 -4.88404 0
M  V30 26905 C 1427.82 -6.60234 -3.96415 0
M  V30 26906 C 1427.09 -7.08259 -2.72856 0
M  V30 26907 O 1426.88 -5.9427 -1.83651 0
M  V30 26908 C 1425.69 -7.64886 -2.9555 0
M  V30 26909 O 1425.3 -8.53963 -1.90717 0
M  V30 26910 C 1424.81 -6.4116 -2.90739 0
M  V30 26911 C 1425.52 -5.55375 -1.86963 0
M  V30 26912 N 1425.47 -4.09664 -2.15742 0
M  V30 26913 H 1428.31 -7.45574 -4.45629 0
M  V30 26914 H 1428.58 -5.86232 -3.67314 0
M  V30 26915 H 1427.71 -7.84412 -2.24479 0
M  V30 26916 P 1423.75 -8.7635 -1.60911 0
M  V30 26917 O 1423.53 -10.1388 -1.11561 0
M  V30 26918 O 1422.96 -8.36503 -2.79617 0
M  V30 26919 O 1423.5 -7.71806 -0.42951 0
M  V30 26920 C 1424.44 -7.66948 0.673514 0
M  V30 26921 C 1423.71 -7.33374 1.95559 0
M  V30 26922 O 1423.5 -5.88721 2.00726 0
M  V30 26923 C 1422.31 -7.92218 2.1125 0
M  V30 26924 O 1421.92 -8.02971 3.47653 0
M  V30 26925 C 1421.43 -6.89504 1.41631 0
M  V30 26926 C 1422.14 -5.59106 1.75155 0
M  V30 26927 N 1422.09 -4.58136 0.662409 0
M  V30 26928 C 1421.94 -3.26059 1.02863 0
M  V30 26929 O 1421.85 -2.90743 2.19009 0
M  V30 26930 N 1421.9 -2.35995 -0.0155585 0
M  V30 26931 C 1421.99 -2.65248 -1.35603 0
M  V30 26932 C 1422.14 -4.05747 -1.64698 0
M  V30 26933 C 1422.19 -4.96734 -0.652411 0
M  V30 26934 H 1424.93 -8.64917 0.776982 0
M  V30 26935 H 1425.2 -6.89974 0.474015 0
M  V30 26936 H 1424.33 -7.66548 2.79458 0
M  V30 26937 H 1421.68 -5.16076 2.65138 0
M  V30 26938 H 1421.4 -7.06433 0.329384 0
M  V30 26939 H 1420.41 -6.90829 1.81996 0
M  V30 26940 H 1422.24 -8.90774 1.62639 0
M  V30 26941 H 1422.31 -6.02181 -0.895285 0
M  V30 26942 P 1420.37 -8.03563 3.84925 0
M  V30 26943 O 1420.15 -8.85821 5.0569 0
M  V30 26944 O 1419.58 -8.41101 2.65469 0
M  V30 26945 O 1420.12 -6.4965 4.18908 0
M  V30 26946 C 1421.06 -5.81037 5.05421 0
M  V30 26947 C 1420.33 -4.78366 5.89277 0
M  V30 26948 O 1420.12 -3.58302 5.08433 0
M  V30 26949 C 1418.93 -5.17448 6.36119 0
M  V30 26950 O 1418.54 -4.45271 7.53232 0
M  V30 26951 C 1418.05 -4.74639 5.19936 0
M  V30 26952 C 1418.76 -3.49432 4.70418 0
M  V30 26953 N 1418.71 -3.31776 3.22945 0
M  V30 26954 H 1421.55 -6.54213 5.71376 0
M  V30 26955 H 1421.82 -5.30492 4.44033 0
M  V30 26956 H 1420.95 -4.55889 6.76652 0
M  V30 26957 P 1416.99 -4.23843 7.83734 0
M  V30 26958 O 1416.77 -4.19407 9.29784 0
M  V30 26959 O 1416.2 -5.24426 7.09156 0
M  V30 26960 O 1416.74 -2.7935 7.20758 0
M  V30 26961 C 1417.68 -1.7299 7.50419 0
M  V30 26962 C 1416.95 -0.406376 7.57911 0
M  V30 26963 O 1416.74 0.0897726 6.21935 0
M  V30 26964 C 1415.55 -0.447224 8.1878 0
M  V30 26965 O 1415.16 0.825065 8.71101 0
M  V30 26966 C 1414.67 -0.783801 6.99623 0
M  V30 26967 C 1415.38 -0.0619192 5.85967 0
M  V30 26968 N 1415.33 -0.7859 4.56281 0
M  V30 26969 H 1418.17 -1.93423 8.4679 0
M  V30 26970 H 1418.44 -1.68181 6.71046 0
M  V30 26971 H 1417.57 0.289041 8.15388 0
M  V30 26972 P 1413.61 1.17771 8.83182 0
M  V30 26973 O 1413.39 2.07206 9.98732 0
M  V30 26974 O 1412.82 -0.0743816 8.81969 0
M  V30 26975 O 1413.36 1.97652 7.47304 0
M  V30 26976 C 1414.3 3.01133 7.08783 0
M  V30 26977 C 1413.57 4.12613 6.37049 0
M  V30 26978 O 1413.36 3.72827 4.97879 0
M  V30 26979 C 1412.17 4.45085 6.88694 0
M  V30 26980 O 1411.78 5.7877 6.5624 0
M  V30 26981 C 1411.29 3.47817 6.12078 0
M  V30 26982 C 1412 3.39414 4.77697 0
M  V30 26983 N 1411.95 2.04199 4.15538 0
M  V30 26984 H 1414.79 3.41248 7.98759 0
M  V30 26985 H 1415.06 2.57728 6.42 0
M  V30 26986 H 1414.19 5.02657 6.42673 0
M  V30 26987 H 1411.54 4.11708 4.08956 0
M  V30 26988 H 1411.26 2.49626 6.61679 0
M  V30 26989 H 1410.27 3.8662 6.00862 0
M  V30 26990 H 1412.1 4.29991 7.97006 0
M  V30 26991 P 1410.23 6.144 6.45285 0
M  V30 26992 O 1410.01 7.54673 6.86199 0
M  V30 26993 O 1409.44 5.12391 7.179 0
M  V30 26994 O 1409.98 5.99158 4.88404 0
M  V30 26995 C 1410.92 6.60234 3.96415 0
M  V30 26996 C 1410.19 7.08259 2.72856 0
M  V30 26997 O 1409.98 5.9427 1.83651 0
M  V30 26998 C 1408.79 7.64886 2.9555 0
M  V30 26999 O 1408.4 8.53963 1.90717 0
M  V30 27000 C 1407.91 6.4116 2.90739 0
M  V30 27001 C 1408.62 5.55375 1.86963 0
M  V30 27002 N 1408.57 4.09664 2.15742 0
M  V30 27003 H 1411.41 7.45574 4.45629 0
M  V30 27004 H 1411.68 5.86232 3.67314 0
M  V30 27005 H 1410.81 7.84412 2.24479 0
M  V30 27006 P 1406.85 8.7635 1.60911 0
M  V30 27007 O 1406.63 10.1388 1.11561 0
M  V30 27008 O 1406.06 8.36503 2.79617 0
M  V30 27009 O 1406.6 7.71806 0.42951 0
M  V30 27010 C 1407.54 7.67148 -0.673689 0
M  V30 27011 C 1406.81 7.33374 -1.95559 0
M  V30 27012 O 1406.6 5.88721 -2.00726 0
M  V30 27013 C 1405.41 7.92526 -2.10483 0
M  V30 27014 O 1405.02 8.02971 -3.47653 0
M  V30 27015 C 1404.53 6.89602 -1.41652 0
M  V30 27016 C 1405.24 5.59201 -1.75185 0
M  V30 27017 N 1405.19 4.58235 -0.662552 0
M  V30 27018 C 1405.27 4.7683 0.704049 0
M  V30 27019 N 1405.19 3.66233 1.39775 0
M  V30 27020 C 1405.05 2.66526 0.431739 0
M  V30 27021 C 1404.92 1.26394 0.575992 0
M  V30 27022 N 1404.8 0.62859 -0.67177 0
M  V30 27023 C 1404.8 1.27134 -1.89385 0
M  V30 27024 N 1404.67 0.492035 -2.96951 0
M  V30 27025 N 1404.93 2.58978 -2.02907 0
M  V30 27026 C 1405.05 3.22433 -0.832218 0
M  V30 27027 H 1408.03 8.65116 -0.777161 0
M  V30 27028 H 1408.3 6.90173 -0.474152 0
M  V30 27029 H 1407.43 7.66548 -2.79458 0
M  V30 27030 P 1403.47 8.03563 -3.84925 0
M  V30 27031 O 1403.25 8.85821 -5.0569 0
M  V30 27032 O 1402.68 8.41101 -2.65469 0
M  V30 27033 O 1403.22 6.4965 -4.18908 0
M  V30 27034 C 1404.16 5.81037 -5.05421 0
M  V30 27035 C 1403.43 4.78366 -5.89277 0
M  V30 27036 O 1403.22 3.58302 -5.08433 0
M  V30 27037 C 1402.03 5.17448 -6.36119 0
M  V30 27038 O 1401.64 4.45271 -7.53232 0
M  V30 27039 C 1401.15 4.74639 -5.19936 0
M  V30 27040 C 1401.86 3.49432 -4.70418 0
M  V30 27041 N 1401.81 3.31776 -3.22945 0
M  V30 27042 H 1404.65 6.54213 -5.71376 0
M  V30 27043 H 1404.92 5.30492 -4.44033 0
M  V30 27044 H 1404.05 4.55889 -6.76652 0
M  V30 27045 P 1400.09 4.23843 -7.83734 0
M  V30 27046 O 1399.87 4.19407 -9.29784 0
M  V30 27047 O 1399.3 5.24426 -7.09156 0
M  V30 27048 O 1399.84 2.7935 -7.20758 0
M  V30 27049 C 1400.78 1.7299 -7.50419 0
M  V30 27050 C 1400.05 0.406376 -7.57911 0
M  V30 27051 O 1399.84 -0.0897726 -6.21935 0
M  V30 27052 C 1398.65 0.447224 -8.1878 0
M  V30 27053 O 1398.26 -0.825065 -8.71101 0
M  V30 27054 C 1397.77 0.783801 -6.99623 0
M  V30 27055 C 1398.48 0.0619192 -5.85967 0
M  V30 27056 N 1398.43 0.790462 -4.56202 0
M  V30 27057 H 1401.27 1.93423 -8.4679 0
M  V30 27058 H 1401.54 1.68852 -6.70877 0
M  V30 27059 H 1400.67 -0.289041 -8.15388 0
M  V30 27060 H 1398.02 -0.927006 -5.72848 0
M  V30 27061 H 1397.74 1.86973 -6.82036 0
M  V30 27062 H 1396.75 0.403953 -7.13357 0
M  V30 27063 H 1398.58 1.20599 -8.97534 0
M  V30 27064 P 1396.71 -1.17771 -8.83182 0
M  V30 27065 O 1396.49 -2.07206 -9.98732 0
M  V30 27066 O 1395.92 0.0743816 -8.81969 0
M  V30 27067 O 1396.46 -1.97652 -7.47304 0
M  V30 27068 C 1397.4 -3.01133 -7.08783 0
M  V30 27069 C 1396.67 -4.12613 -6.37049 0
M  V30 27070 O 1396.46 -3.72827 -4.97879 0
M  V30 27071 C 1395.27 -4.45085 -6.88694 0
M  V30 27072 O 1394.88 -5.7877 -6.5624 0
M  V30 27073 C 1394.39 -3.47817 -6.12078 0
M  V30 27074 C 1395.1 -3.39414 -4.77697 0
M  V30 27075 N 1395.05 -2.04199 -4.15538 0
M  V30 27076 C 1395.13 -0.821545 -4.76977 0
M  V30 27077 N 1395.06 0.1794 -3.94592 0
M  V30 27078 C 1394.91 -0.419121 -2.70776 0
M  V30 27079 C 1394.78 0.109072 -1.40577 0
M  V30 27080 N 1394.77 1.4104 -1.1344 0
M  V30 27081 N 1394.66 -0.764381 -0.39411 0
M  V30 27082 C 1394.67 -2.06587 -0.664135 0
M  V30 27083 N 1394.79 -2.67948 -1.82153 0
M  V30 27084 C 1394.91 -1.77942 -2.8147 0
M  V30 27085 H 1397.89 -3.41248 -7.98759 0
M  V30 27086 H 1398.16 -2.57728 -6.42 0
M  V30 27087 H 1397.29 -5.02657 -6.42673 0
M  V30 27088 H 1394.64 -4.11708 -4.08956 0
M  V30 27089 H 1394.36 -2.49626 -6.61679 0
M  V30 27090 H 1393.37 -3.8662 -6.00862 0
M  V30 27091 H 1395.2 -4.29991 -7.97006 0
M  V30 27092 H 1395.24 -0.702451 -5.84696 0
M  V30 27093 H 1394.86 2.09647 -1.89651 0
M  V30 27094 H 1394.67 1.73358 -0.160575 0
M  V30 27095 H 1394.57 -2.71695 0.195838 0
M  V30 27096 P 1393.33 -6.144 -6.45285 0
M  V30 27097 O 1393.11 -7.54673 -6.86199 0
M  V30 27098 O 1392.54 -5.12391 -7.179 0
M  V30 27099 O 1393.08 -5.99158 -4.88404 0
M  V30 27100 C 1394.02 -6.60234 -3.96415 0
M  V30 27101 C 1393.29 -7.08259 -2.72856 0
M  V30 27102 O 1393.08 -5.9427 -1.83651 0
M  V30 27103 C 1391.89 -7.64886 -2.9555 0
M  V30 27104 O 1391.5 -8.53963 -1.90717 0
M  V30 27105 C 1391.01 -6.4116 -2.90739 0
M  V30 27106 C 1391.72 -5.55375 -1.86963 0
M  V30 27107 N 1391.67 -4.09664 -2.15742 0
M  V30 27108 H 1394.51 -7.45574 -4.45629 0
M  V30 27109 H 1394.78 -5.86232 -3.67314 0
M  V30 27110 H 1393.91 -7.84412 -2.24479 0
M  V30 27111 P 1389.95 -8.7635 -1.60911 0
M  V30 27112 O 1389.73 -10.1388 -1.11561 0
M  V30 27113 O 1389.16 -8.36503 -2.79617 0
M  V30 27114 O 1389.7 -7.71806 -0.42951 0
M  V30 27115 C 1390.64 -7.67148 0.673689 0
M  V30 27116 C 1389.91 -7.33374 1.95559 0
M  V30 27117 O 1389.7 -5.88721 2.00726 0
M  V30 27118 C 1388.51 -7.92526 2.10483 0
M  V30 27119 O 1388.12 -8.02971 3.47653 0
M  V30 27120 C 1387.63 -6.89602 1.41652 0
M  V30 27121 C 1388.34 -5.59201 1.75185 0
M  V30 27122 N 1388.29 -4.58301 0.657969 0
M  V30 27123 H 1391.13 -8.65116 0.777161 0
M  V30 27124 H 1391.4 -6.9022 0.46725 0
M  V30 27125 H 1390.53 -7.66548 2.79458 0
M  V30 27126 H 1387.88 -5.16165 2.65183 0
M  V30 27127 H 1387.6 -7.06433 0.329384 0
M  V30 27128 H 1386.61 -6.90926 1.82021 0
M  V30 27129 H 1388.44 -8.90873 1.62657 0
M  V30 27130 P 1386.57 -8.03563 3.84925 0
M  V30 27131 O 1386.35 -8.85821 5.0569 0
M  V30 27132 O 1385.78 -8.41101 2.65469 0
M  V30 27133 O 1386.32 -6.4965 4.18908 0
M  V30 27134 C 1387.26 -5.81037 5.05421 0
M  V30 27135 C 1386.53 -4.78366 5.89277 0
M  V30 27136 O 1386.32 -3.58302 5.08433 0
M  V30 27137 C 1385.13 -5.17448 6.36119 0
M  V30 27138 O 1384.74 -4.45271 7.53232 0
M  V30 27139 C 1384.25 -4.74639 5.19936 0
M  V30 27140 C 1384.96 -3.49432 4.70418 0
M  V30 27141 N 1384.91 -3.31776 3.22945 0
M  V30 27142 H 1387.75 -6.54213 5.71376 0
M  V30 27143 H 1388.02 -5.30492 4.44033 0
M  V30 27144 H 1387.15 -4.55889 6.76652 0
M  V30 27145 P 1383.19 -4.23843 7.83734 0
M  V30 27146 O 1382.97 -4.19407 9.29784 0
M  V30 27147 O 1382.4 -5.24426 7.09156 0
M  V30 27148 O 1382.94 -2.7935 7.20758 0
M  V30 27149 C 1383.88 -1.7299 7.50419 0
M  V30 27150 C 1383.15 -0.406376 7.57911 0
M  V30 27151 O 1382.94 0.0897726 6.21935 0
M  V30 27152 C 1381.75 -0.447224 8.1878 0
M  V30 27153 O 1381.36 0.825065 8.71101 0
M  V30 27154 C 1380.87 -0.783801 6.99623 0
M  V30 27155 C 1381.58 -0.0619192 5.85967 0
M  V30 27156 N 1381.53 -0.790462 4.56202 0
M  V30 27157 H 1384.37 -1.93423 8.4679 0
M  V30 27158 H 1384.64 -1.68852 6.70877 0
M  V30 27159 H 1383.77 0.289041 8.15388 0
M  V30 27160 H 1381.12 0.927006 5.72848 0
M  V30 27161 H 1380.84 -1.86973 6.82036 0
M  V30 27162 H 1379.85 -0.403953 7.13357 0
M  V30 27163 H 1381.68 -1.20599 8.97534 0
M  V30 27164 P 1379.81 1.17771 8.83182 0
M  V30 27165 O 1379.59 2.07206 9.98732 0
M  V30 27166 O 1379.02 -0.0743816 8.81969 0
M  V30 27167 O 1379.56 1.97652 7.47304 0
M  V30 27168 C 1380.5 3.01133 7.08783 0
M  V30 27169 C 1379.77 4.12613 6.37049 0
M  V30 27170 O 1379.56 3.72827 4.97879 0
M  V30 27171 C 1378.37 4.45085 6.88694 0
M  V30 27172 O 1377.98 5.7877 6.5624 0
M  V30 27173 C 1377.49 3.47817 6.12078 0
M  V30 27174 C 1378.2 3.39414 4.77697 0
M  V30 27175 N 1378.15 2.04615 4.15333 0
M  V30 27176 H 1380.99 3.41248 7.98759 0
M  V30 27177 H 1381.26 2.5837 6.41742 0
M  V30 27178 H 1380.39 5.02657 6.42673 0
M  V30 27179 P 1376.43 6.144 6.45285 0
M  V30 27180 O 1376.21 7.54673 6.86199 0
M  V30 27181 O 1375.64 5.12391 7.179 0
M  V30 27182 O 1376.18 5.99158 4.88404 0
M  V30 27183 C 1377.12 6.60234 3.96415 0
M  V30 27184 C 1376.39 7.08259 2.72856 0
M  V30 27185 O 1376.18 5.9427 1.83651 0
M  V30 27186 C 1374.99 7.64886 2.9555 0
M  V30 27187 O 1374.6 8.53963 1.90717 0
M  V30 27188 C 1374.11 6.4116 2.90739 0
M  V30 27189 C 1374.82 5.55375 1.86963 0
M  V30 27190 N 1374.77 4.09664 2.15742 0
M  V30 27191 H 1377.61 7.45574 4.45629 0
M  V30 27192 H 1377.88 5.86232 3.67314 0
M  V30 27193 H 1377.01 7.84412 2.24479 0
M  V30 27194 P 1373.05 8.7635 1.60911 0
M  V30 27195 O 1372.83 10.1388 1.11561 0
M  V30 27196 O 1372.26 8.36503 2.79617 0
M  V30 27197 O 1372.8 7.71806 0.42951 0
M  V30 27198 C 1373.74 7.67148 -0.673689 0
M  V30 27199 C 1373.01 7.33374 -1.95559 0
M  V30 27200 O 1372.8 5.88721 -2.00726 0
M  V30 27201 C 1371.61 7.92526 -2.10483 0
M  V30 27202 O 1371.22 8.02971 -3.47653 0
M  V30 27203 C 1370.73 6.89602 -1.41652 0
M  V30 27204 C 1371.44 5.59201 -1.75185 0
M  V30 27205 N 1371.39 4.58235 -0.662552 0
M  V30 27206 C 1371.47 4.7683 0.704049 0
M  V30 27207 N 1371.39 3.66233 1.39775 0
M  V30 27208 C 1371.25 2.66526 0.431739 0
M  V30 27209 C 1371.12 1.26394 0.575992 0
M  V30 27210 N 1371 0.62859 -0.67177 0
M  V30 27211 C 1371 1.27134 -1.89385 0
M  V30 27212 N 1370.87 0.492035 -2.96951 0
M  V30 27213 N 1371.13 2.58978 -2.02907 0
M  V30 27214 C 1371.25 3.22433 -0.832218 0
M  V30 27215 H 1374.23 8.65116 -0.777161 0
M  V30 27216 H 1374.5 6.90173 -0.474152 0
M  V30 27217 H 1373.63 7.66548 -2.79458 0
M  V30 27218 P 1369.67 8.03563 -3.84925 0
M  V30 27219 O 1369.45 8.85821 -5.0569 0
M  V30 27220 O 1368.88 8.41101 -2.65469 0
M  V30 27221 O 1369.42 6.4965 -4.18908 0
M  V30 27222 C 1370.36 5.81037 -5.05421 0
M  V30 27223 C 1369.63 4.78366 -5.89277 0
M  V30 27224 O 1369.42 3.58302 -5.08433 0
M  V30 27225 C 1368.23 5.17448 -6.36119 0
M  V30 27226 O 1367.84 4.45271 -7.53232 0
M  V30 27227 C 1367.35 4.74639 -5.19936 0
M  V30 27228 C 1368.06 3.49432 -4.70418 0
M  V30 27229 N 1368.01 3.32099 -3.22613 0
M  V30 27230 H 1370.85 6.54213 -5.71376 0
M  V30 27231 H 1371.12 5.30936 -4.43503 0
M  V30 27232 H 1370.25 4.55889 -6.76652 0
M  V30 27233 H 1367.6 2.61715 -5.17932 0
M  V30 27234 H 1367.32 5.52155 -4.41878 0
M  V30 27235 H 1366.33 4.51981 -5.53374 0
M  V30 27236 H 1368.16 6.25124 -6.55234 0
M  V30 27237 P 1366.29 4.23843 -7.83734 0
M  V30 27238 O 1366.07 4.19407 -9.29784 0
M  V30 27239 O 1365.5 5.24426 -7.09156 0
M  V30 27240 O 1366.04 2.7935 -7.20758 0
M  V30 27241 C 1366.98 1.7299 -7.50419 0
M  V30 27242 C 1366.25 0.406376 -7.57911 0
M  V30 27243 O 1366.04 -0.0897726 -6.21935 0
M  V30 27244 C 1364.85 0.447224 -8.1878 0
M  V30 27245 O 1364.46 -0.825065 -8.71101 0
M  V30 27246 C 1363.97 0.783801 -6.99623 0
M  V30 27247 C 1364.68 0.0619192 -5.85967 0
M  V30 27248 N 1364.63 0.7859 -4.56281 0
M  V30 27249 C 1364.71 2.14308 -4.31736 0
M  V30 27250 N 1364.63 2.46106 -3.05116 0
M  V30 27251 C 1364.49 1.23422 -2.4014 0
M  V30 27252 C 1364.36 0.938381 -1.02409 0
M  V30 27253 N 1364.24 -0.444647 -0.805413 0
M  V30 27254 C 1364.24 -1.40829 -1.79435 0
M  V30 27255 N 1364.11 -2.67213 -1.38558 0
M  V30 27256 N 1364.37 -1.12947 -3.09005 0
M  V30 27257 C 1364.49 0.204887 -3.32369 0
M  V30 27258 H 1367.47 1.93423 -8.4679 0
M  V30 27259 H 1367.74 1.68181 -6.71046 0
M  V30 27260 H 1366.87 -0.289041 -8.15388 0
M  V30 27261 P 1362.91 -1.17771 -8.83182 0
M  V30 27262 O 1362.69 -2.07206 -9.98732 0
M  V30 27263 O 1362.12 0.0743816 -8.81969 0
M  V30 27264 O 1362.66 -1.97652 -7.47304 0
M  V30 27265 C 1363.6 -3.01055 -7.08599 0
M  V30 27266 C 1362.87 -4.12613 -6.37049 0
M  V30 27267 O 1362.66 -3.72827 -4.97879 0
M  V30 27268 C 1361.47 -4.45719 -6.88164 0
M  V30 27269 O 1361.08 -5.7877 -6.5624 0
M  V30 27270 C 1360.59 -3.47768 -6.11991 0
M  V30 27271 C 1361.3 -3.39356 -4.77615 0
M  V30 27272 N 1361.25 -2.04571 -4.15244 0
M  V30 27273 C 1361.1 -1.98587 -2.78314 0
M  V30 27274 O 1361.01 -2.98134 -2.08835 0
M  V30 27275 N 1361.06 -0.714467 -2.24925 0
M  V30 27276 C 1361.15 0.470001 -2.94169 0
M  V30 27277 C 1361.3 0.312541 -4.36783 0
M  V30 27278 C 1361.35 -0.914512 -4.92583 0
M  V30 27279 H 1364.09 -3.41169 -7.98575 0
M  V30 27280 H 1364.36 -2.58295 -6.41556 0
M  V30 27281 H 1363.49 -5.02657 -6.42673 0
M  V30 27282 H 1360.84 -4.11637 -4.08885 0
M  V30 27283 H 1360.56 -2.49626 -6.61679 0
M  V30 27284 H 1359.57 -3.86566 -6.00778 0
M  V30 27285 H 1361.4 -4.29943 -7.96918 0
M  V30 27286 H 1361.47 -1.00937 -6.00374 0
M  V30 27287 P 1359.53 -6.144 -6.45285 0
M  V30 27288 O 1359.31 -7.54673 -6.86199 0
M  V30 27289 O 1358.74 -5.12391 -7.179 0
M  V30 27290 O 1359.28 -5.99158 -4.88404 0
M  V30 27291 C 1360.22 -6.60234 -3.96415 0
M  V30 27292 C 1359.49 -7.08259 -2.72856 0
M  V30 27293 O 1359.28 -5.9427 -1.83651 0
M  V30 27294 C 1358.09 -7.64886 -2.9555 0
M  V30 27295 O 1357.7 -8.53963 -1.90717 0
M  V30 27296 C 1357.21 -6.4116 -2.90739 0
M  V30 27297 C 1357.92 -5.55375 -1.86963 0
M  V30 27298 N 1357.87 -4.09664 -2.15742 0
M  V30 27299 H 1360.71 -7.45574 -4.45629 0
M  V30 27300 H 1360.98 -5.86232 -3.67314 0
M  V30 27301 H 1360.11 -7.84412 -2.24479 0
M  V30 27302 P 1356.15 -8.7635 -1.60911 0
M  V30 27303 O 1355.93 -10.1388 -1.11561 0
M  V30 27304 O 1355.36 -8.36503 -2.79617 0
M  V30 27305 O 1355.9 -7.71806 -0.42951 0
M  V30 27306 C 1356.84 -7.67148 0.673689 0
M  V30 27307 C 1356.11 -7.33374 1.95559 0
M  V30 27308 O 1355.9 -5.88721 2.00726 0
M  V30 27309 C 1354.71 -7.92526 2.10483 0
M  V30 27310 O 1354.32 -8.02971 3.47653 0
M  V30 27311 C 1353.83 -6.89602 1.41652 0
M  V30 27312 C 1354.54 -5.59201 1.75185 0
M  V30 27313 N 1354.49 -4.58235 0.662552 0
M  V30 27314 H 1357.33 -8.65116 0.777161 0
M  V30 27315 H 1357.6 -6.90173 0.474152 0
M  V30 27316 H 1356.73 -7.66548 2.79458 0
M  V30 27317 P 1352.77 -8.03563 3.84925 0
M  V30 27318 O 1352.55 -8.85821 5.0569 0
M  V30 27319 O 1351.98 -8.41101 2.65469 0
M  V30 27320 O 1352.52 -6.4965 4.18908 0
M  V30 27321 C 1353.46 -5.81037 5.05421 0
M  V30 27322 C 1352.73 -4.78366 5.89277 0
M  V30 27323 O 1352.52 -3.58302 5.08433 0
M  V30 27324 C 1351.33 -5.17448 6.36119 0
M  V30 27325 O 1350.94 -4.45271 7.53232 0
M  V30 27326 C 1350.45 -4.74639 5.19936 0
M  V30 27327 C 1351.16 -3.49432 4.70418 0
M  V30 27328 N 1351.11 -3.31776 3.22945 0
M  V30 27329 H 1353.95 -6.54213 5.71376 0
M  V30 27330 H 1354.22 -5.30492 4.44033 0
M  V30 27331 H 1353.36 -4.55889 6.76652 0
M  V30 27332 P 1349.39 -4.23843 7.83734 0
M  V30 27333 O 1349.17 -4.19407 9.29784 0
M  V30 27334 O 1348.6 -5.24426 7.09156 0
M  V30 27335 O 1349.14 -2.7935 7.20758 0
M  V30 27336 C 1350.08 -1.7299 7.50419 0
M  V30 27337 C 1349.35 -0.406376 7.57911 0
M  V30 27338 O 1349.14 0.0897726 6.21935 0
M  V30 27339 C 1347.95 -0.447224 8.1878 0
M  V30 27340 O 1347.56 0.825065 8.71101 0
M  V30 27341 C 1347.07 -0.783801 6.99623 0
M  V30 27342 C 1347.78 -0.0619192 5.85967 0
M  V30 27343 N 1347.73 -0.7859 4.56281 0
M  V30 27344 H 1350.57 -1.93423 8.4679 0
M  V30 27345 H 1350.84 -1.68181 6.71046 0
M  V30 27346 H 1349.98 0.289041 8.15388 0
M  V30 27347 P 1346.01 1.17771 8.83182 0
M  V30 27348 O 1345.79 2.07206 9.98732 0
M  V30 27349 O 1345.22 -0.0743816 8.81969 0
M  V30 27350 O 1345.76 1.97652 7.47304 0
M  V30 27351 C 1346.7 3.01133 7.08783 0
M  V30 27352 C 1345.97 4.12613 6.37049 0
M  V30 27353 O 1345.76 3.72827 4.97879 0
M  V30 27354 C 1344.57 4.45085 6.88694 0
M  V30 27355 O 1344.18 5.7877 6.5624 0
M  V30 27356 C 1343.69 3.47817 6.12078 0
M  V30 27357 C 1344.4 3.39414 4.77697 0
M  V30 27358 N 1344.35 2.04615 4.15333 0
M  V30 27359 H 1347.19 3.41248 7.98759 0
M  V30 27360 H 1347.46 2.5837 6.41742 0
M  V30 27361 H 1346.6 5.02657 6.42673 0
M  V30 27362 P 1342.63 6.144 6.45285 0
M  V30 27363 O 1342.41 7.54673 6.86199 0
M  V30 27364 O 1341.84 5.12391 7.179 0
M  V30 27365 O 1342.38 5.99158 4.88404 0
M  V30 27366 C 1343.32 6.60234 3.96415 0
M  V30 27367 C 1342.59 7.08259 2.72856 0
M  V30 27368 O 1342.38 5.9427 1.83651 0
M  V30 27369 C 1341.19 7.64886 2.9555 0
M  V30 27370 O 1340.8 8.53963 1.90717 0
M  V30 27371 C 1340.31 6.4116 2.90739 0
M  V30 27372 C 1341.02 5.55375 1.86963 0
M  V30 27373 N 1340.97 4.09448 2.16152 0
M  V30 27374 H 1343.81 7.45574 4.45629 0
M  V30 27375 H 1344.08 5.85864 3.679 0
M  V30 27376 H 1343.22 7.84412 2.24479 0
M  V30 27377 H 1340.56 5.73457 0.888562 0
M  V30 27378 H 1340.28 5.90877 3.88583 0
M  V30 27379 H 1339.29 6.6596 2.58858 0
M  V30 27380 H 1341.12 8.16339 3.92049 0
M  V30 27381 P 1339.25 8.7635 1.60911 0
M  V30 27382 O 1339.03 10.1388 1.11561 0
M  V30 27383 O 1338.46 8.36503 2.79617 0
M  V30 27384 O 1339 7.71806 0.42951 0
M  V30 27385 C 1339.94 7.67148 -0.673689 0
M  V30 27386 C 1339.21 7.33374 -1.95559 0
M  V30 27387 O 1339 5.88721 -2.00726 0
M  V30 27388 C 1337.81 7.92526 -2.10483 0
M  V30 27389 O 1337.42 8.02971 -3.47653 0
M  V30 27390 C 1336.93 6.89602 -1.41652 0
M  V30 27391 C 1337.64 5.59201 -1.75185 0
M  V30 27392 N 1337.59 4.58235 -0.662552 0
M  V30 27393 H 1340.43 8.65116 -0.777161 0
M  V30 27394 H 1340.7 6.90173 -0.474152 0
M  V30 27395 H 1339.84 7.66548 -2.79458 0
M  V30 27396 P 1335.87 8.03563 -3.84925 0
M  V30 27397 O 1335.65 8.85821 -5.0569 0
M  V30 27398 O 1335.08 8.41101 -2.65469 0
M  V30 27399 O 1335.62 6.4965 -4.18908 0
M  V30 27400 C 1336.56 5.81037 -5.05421 0
M  V30 27401 C 1335.83 4.78366 -5.89277 0
M  V30 27402 O 1335.62 3.58302 -5.08433 0
M  V30 27403 C 1334.43 5.17448 -6.36119 0
M  V30 27404 O 1334.04 4.45271 -7.53232 0
M  V30 27405 C 1333.55 4.74639 -5.19936 0
M  V30 27406 C 1334.26 3.49432 -4.70418 0
M  V30 27407 N 1334.21 3.31776 -3.22945 0
M  V30 27408 H 1337.05 6.54213 -5.71376 0
M  V30 27409 H 1337.32 5.30492 -4.44033 0
M  V30 27410 H 1336.46 4.55889 -6.76652 0
M  V30 27411 P 1332.49 4.23843 -7.83734 0
M  V30 27412 O 1332.27 4.19407 -9.29784 0
M  V30 27413 O 1331.7 5.24426 -7.09156 0
M  V30 27414 O 1332.24 2.7935 -7.20758 0
M  V30 27415 C 1333.18 1.72945 -7.50224 0
M  V30 27416 C 1332.45 0.406376 -7.57911 0
M  V30 27417 O 1332.24 -0.0897726 -6.21935 0
M  V30 27418 C 1331.05 0.438983 -8.18724 0
M  V30 27419 O 1330.66 -0.825065 -8.71101 0
M  V30 27420 C 1330.17 0.783689 -6.99524 0
M  V30 27421 C 1330.88 0.0619086 -5.85867 0
M  V30 27422 N 1330.83 0.78573 -4.56183 0
M  V30 27423 C 1330.68 0.0292889 -3.41887 0
M  V30 27424 O 1330.59 -1.18445 -3.4419 0
M  V30 27425 N 1330.64 0.744061 -2.23964 0
M  V30 27426 C 1330.73 2.10932 -2.10362 0
M  V30 27427 O 1330.68 2.64117 -0.98825 0
M  V30 27428 C 1330.88 2.8202 -3.34994 0
M  V30 27429 C 1330.99 4.31095 -3.25037 0
M  V30 27430 C 1330.93 2.15547 -4.52261 0
M  V30 27431 H 1333.67 1.93379 -8.46595 0
M  V30 27432 H 1333.94 1.68132 -6.70852 0
M  V30 27433 H 1333.08 -0.289041 -8.15388 0
M  V30 27434 H 1330.42 -0.926847 -5.72749 0
M  V30 27435 H 1330.14 1.86973 -6.82036 0
M  V30 27436 H 1329.15 0.403896 -7.13257 0
M  V30 27437 H 1330.98 1.20585 -8.97435 0
M  V30 27438 H 1331.05 2.71231 -5.45042 0
M  V30 27439 H 1330.02 4.76966 -3.49992 0
M  V30 27440 H 1331.76 4.67047 -3.95024 0
M  V30 27441 H 1331.27 4.58996 -2.22312 0
M  V30 27442 H 1330.54 0.214893 -1.39758 0
M  V30 27443 P 1329.11 -1.17771 -8.83182 0
M  V30 27444 O 1328.89 -2.07206 -9.98732 0
M  V30 27445 O 1328.32 0.0743816 -8.81969 0
M  V30 27446 O 1328.86 -1.97678 -7.474 0
M  V30 27447 C 1329.8 -3.01133 -7.08783 0
M  V30 27448 C 1329.07 -4.1203 -6.37546 0
M  V30 27449 O 1328.86 -3.72887 -4.9796 0
M  V30 27450 C 1327.67 -4.45085 -6.88694 0
M  V30 27451 O 1327.28 -5.78836 -6.56315 0
M  V30 27452 C 1326.79 -3.47817 -6.12078 0
M  V30 27453 C 1327.5 -3.39414 -4.77697 0
M  V30 27454 N 1327.45 -2.04615 -4.15333 0
M  V30 27455 C 1327.3 -1.96929 -2.77162 0
M  V30 27456 O 1327.21 -3.02017 -2.12006 0
M  V30 27457 N 1327.25 -0.55485 -2.24237 0
M  V30 27458 C 1327.35 0.367808 -2.9169 0
M  V30 27459 N 1327.3 1.53426 -2.29427 0
M  V30 27460 C 1327.5 0.319148 -4.33828 0
M  V30 27461 C 1327.55 -0.920672 -4.90433 0
M  V30 27462 H 1330.29 -3.41209 -7.98667 0
M  V30 27463 H 1330.56 -2.5837 -6.41742 0
M  V30 27464 H 1329.7 -5.02718 -6.42752 0
M  V30 27465 H 1327.04 -4.11779 -4.09026 0
M  V30 27466 H 1326.76 -2.49661 -6.61772 0
M  V30 27467 H 1325.77 -3.86674 -6.00946 0
M  V30 27468 H 1327.6 -4.29991 -7.97006 0
M  V30 27469 H 1327.68 -1.00589 -5.98303 0
M  V30 27470 H 1327.57 1.22639 -4.93799 0
M  V30 27471 H 1327.19 1.56819 -1.27167 0
M  V30 27472 H 1327.38 2.41062 -2.83063 0
M  V30 27473 P 1325.73 -6.144 -6.45285 0
M  V30 27474 O 1325.51 -7.54673 -6.86199 0
M  V30 27475 O 1324.94 -5.12391 -7.179 0
M  V30 27476 O 1325.48 -5.99158 -4.88404 0
M  V30 27477 C 1326.42 -6.60234 -3.96415 0
M  V30 27478 C 1325.69 -7.08259 -2.72856 0
M  V30 27479 O 1325.48 -5.9427 -1.83651 0
M  V30 27480 C 1324.29 -7.64886 -2.9555 0
M  V30 27481 O 1323.9 -8.53963 -1.90717 0
M  V30 27482 C 1323.41 -6.4116 -2.90739 0
M  V30 27483 C 1324.12 -5.55375 -1.86963 0
M  V30 27484 N 1324.07 -4.09664 -2.15742 0
M  V30 27485 H 1326.91 -7.45574 -4.45629 0
M  V30 27486 H 1327.18 -5.86232 -3.67314 0
M  V30 27487 H 1326.32 -7.84412 -2.24479 0
M  V30 27488 P 1322.35 -8.7635 -1.60911 0
M  V30 27489 O 1322.13 -10.1388 -1.11561 0
M  V30 27490 O 1321.56 -8.36503 -2.79617 0
M  V30 27491 O 1322.1 -7.71806 -0.42951 0
M  V30 27492 C 1323.04 -7.67148 0.673689 0
M  V30 27493 C 1322.31 -7.33374 1.95559 0
M  V30 27494 O 1322.1 -5.88721 2.00726 0
M  V30 27495 C 1320.91 -7.92526 2.10483 0
M  V30 27496 O 1320.52 -8.02971 3.47653 0
M  V30 27497 C 1320.03 -6.89602 1.41652 0
M  V30 27498 C 1320.74 -5.59201 1.75185 0
M  V30 27499 N 1320.69 -4.58235 0.662552 0
M  V30 27500 C 1320.77 -4.7683 -0.704049 0
M  V30 27501 N 1320.69 -3.66233 -1.39775 0
M  V30 27502 C 1320.55 -2.66526 -0.431739 0
M  V30 27503 C 1320.42 -1.26394 -0.575992 0
M  V30 27504 N 1320.3 -0.62859 0.67177 0
M  V30 27505 C 1320.3 -1.27134 1.89385 0
M  V30 27506 N 1320.17 -0.492035 2.96951 0
M  V30 27507 N 1320.43 -2.58978 2.02907 0
M  V30 27508 C 1320.55 -3.22433 0.832218 0
M  V30 27509 H 1323.53 -8.65116 0.777161 0
M  V30 27510 H 1323.8 -6.90173 0.474152 0
M  V30 27511 H 1322.94 -7.66548 2.79458 0
M  V30 27512 P 1318.97 -8.03563 3.84925 0
M  V30 27513 O 1318.75 -8.85821 5.0569 0
M  V30 27514 O 1318.18 -8.41101 2.65469 0
M  V30 27515 O 1318.72 -6.4965 4.18908 0
M  V30 27516 C 1319.66 -5.81037 5.05421 0
M  V30 27517 C 1318.93 -4.78366 5.89277 0
M  V30 27518 O 1318.72 -3.58302 5.08433 0
M  V30 27519 C 1317.53 -5.17448 6.36119 0
M  V30 27520 O 1317.14 -4.45271 7.53232 0
M  V30 27521 C 1316.65 -4.74639 5.19936 0
M  V30 27522 C 1317.36 -3.49432 4.70418 0
M  V30 27523 N 1317.31 -3.31776 3.22945 0
M  V30 27524 H 1320.15 -6.54213 5.71376 0
M  V30 27525 H 1320.42 -5.30492 4.44033 0
M  V30 27526 H 1319.56 -4.55889 6.76652 0
M  V30 27527 P 1315.59 -4.23843 7.83734 0
M  V30 27528 O 1315.37 -4.19407 9.29784 0
M  V30 27529 O 1314.8 -5.24426 7.09156 0
M  V30 27530 O 1315.34 -2.7935 7.20758 0
M  V30 27531 C 1316.28 -1.7299 7.50419 0
M  V30 27532 C 1315.55 -0.406376 7.57911 0
M  V30 27533 O 1315.34 0.0897726 6.21935 0
M  V30 27534 C 1314.15 -0.447224 8.1878 0
M  V30 27535 O 1313.76 0.825065 8.71101 0
M  V30 27536 C 1313.27 -0.783801 6.99623 0
M  V30 27537 C 1313.98 -0.0619192 5.85967 0
M  V30 27538 N 1313.93 -0.7859 4.56281 0
M  V30 27539 H 1316.77 -1.93423 8.4679 0
M  V30 27540 H 1317.04 -1.68181 6.71046 0
M  V30 27541 H 1316.18 0.289041 8.15388 0
M  V30 27542 P 1312.21 1.17771 8.83182 0
M  V30 27543 O 1311.99 2.07206 9.98732 0
M  V30 27544 O 1311.42 -0.0743816 8.81969 0
M  V30 27545 O 1311.96 1.97652 7.47304 0
M  V30 27546 C 1312.9 3.01133 7.08783 0
M  V30 27547 C 1312.17 4.12613 6.37049 0
M  V30 27548 O 1311.96 3.72827 4.97879 0
M  V30 27549 C 1310.77 4.45085 6.88694 0
M  V30 27550 O 1310.38 5.7877 6.5624 0
M  V30 27551 C 1309.89 3.47817 6.12078 0
M  V30 27552 C 1310.6 3.39414 4.77697 0
M  V30 27553 N 1310.55 2.04615 4.15333 0
M  V30 27554 H 1313.39 3.41248 7.98759 0
M  V30 27555 H 1313.66 2.5837 6.41742 0
M  V30 27556 H 1312.8 5.02657 6.42673 0
M  V30 27557 P 1308.83 6.144 6.45285 0
M  V30 27558 O 1308.61 7.54673 6.86199 0
M  V30 27559 O 1308.04 5.12391 7.179 0
M  V30 27560 O 1308.58 5.99158 4.88404 0
M  V30 27561 C 1309.52 6.60234 3.96415 0
M  V30 27562 C 1308.79 7.08259 2.72856 0
M  V30 27563 O 1308.58 5.9427 1.83651 0
M  V30 27564 C 1307.39 7.64886 2.9555 0
M  V30 27565 O 1307 8.53963 1.90717 0
M  V30 27566 C 1306.51 6.4116 2.90739 0
M  V30 27567 C 1307.22 5.55375 1.86963 0
M  V30 27568 N 1307.17 4.09664 2.15742 0
M  V30 27569 H 1310.01 7.45574 4.45629 0
M  V30 27570 H 1310.28 5.86232 3.67314 0
M  V30 27571 H 1309.42 7.84412 2.24479 0
M  V30 27572 P 1305.45 8.7635 1.60911 0
M  V30 27573 O 1305.23 10.1388 1.11561 0
M  V30 27574 O 1304.66 8.36503 2.79617 0
M  V30 27575 O 1305.2 7.71806 0.42951 0
M  V30 27576 C 1306.14 7.67148 -0.673689 0
M  V30 27577 C 1305.41 7.33374 -1.95559 0
M  V30 27578 O 1305.2 5.88721 -2.00726 0
M  V30 27579 C 1304.01 7.92526 -2.10483 0
M  V30 27580 O 1303.62 8.02971 -3.47653 0
M  V30 27581 C 1303.13 6.89602 -1.41652 0
M  V30 27582 C 1303.84 5.59201 -1.75185 0
M  V30 27583 N 1303.79 4.58235 -0.662552 0
M  V30 27584 H 1306.63 8.65116 -0.777161 0
M  V30 27585 H 1306.9 6.90173 -0.474152 0
M  V30 27586 H 1306.04 7.66548 -2.79458 0
M  V30 27587 P 1302.07 8.03563 -3.84925 0
M  V30 27588 O 1301.85 8.85821 -5.0569 0
M  V30 27589 O 1301.28 8.41101 -2.65469 0
M  V30 27590 O 1301.82 6.4965 -4.18908 0
M  V30 27591 C 1302.76 5.81037 -5.05421 0
M  V30 27592 C 1302.03 4.78366 -5.89277 0
M  V30 27593 O 1301.82 3.58302 -5.08433 0
M  V30 27594 C 1300.63 5.17448 -6.36119 0
M  V30 27595 O 1300.24 4.45271 -7.53232 0
M  V30 27596 C 1299.75 4.74639 -5.19936 0
M  V30 27597 C 1300.46 3.49432 -4.70418 0
M  V30 27598 N 1300.41 3.32099 -3.22613 0
M  V30 27599 H 1303.25 6.54213 -5.71376 0
M  V30 27600 H 1303.52 5.30936 -4.43503 0
M  V30 27601 H 1302.66 4.55889 -6.76652 0
M  V30 27602 H 1300 2.61715 -5.17932 0
M  V30 27603 H 1299.72 5.52155 -4.41878 0
M  V30 27604 H 1298.73 4.51981 -5.53374 0
M  V30 27605 H 1300.56 6.25124 -6.55234 0
M  V30 27606 P 1298.69 4.23843 -7.83734 0
M  V30 27607 O 1298.47 4.19407 -9.29784 0
M  V30 27608 O 1297.9 5.24426 -7.09156 0
M  V30 27609 O 1298.44 2.7935 -7.20758 0
M  V30 27610 C 1299.38 1.72945 -7.50224 0
M  V30 27611 C 1298.65 0.406376 -7.57911 0
M  V30 27612 O 1298.44 -0.0897726 -6.21935 0
M  V30 27613 C 1297.25 0.438983 -8.18724 0
M  V30 27614 O 1296.86 -0.825065 -8.71101 0
M  V30 27615 C 1296.37 0.783689 -6.99524 0
M  V30 27616 C 1297.08 0.0619086 -5.85867 0
M  V30 27617 N 1297.03 0.78573 -4.56183 0
M  V30 27618 C 1296.88 0.0292889 -3.41887 0
M  V30 27619 O 1296.79 -1.18445 -3.4419 0
M  V30 27620 N 1296.84 0.744061 -2.23964 0
M  V30 27621 C 1296.93 2.10932 -2.10362 0
M  V30 27622 C 1297.08 2.8202 -3.34994 0
M  V30 27623 C 1297.13 2.15547 -4.52261 0
M  V30 27624 H 1299.87 1.93379 -8.46595 0
M  V30 27625 H 1300.14 1.68132 -6.70852 0
M  V30 27626 H 1299.28 -0.289041 -8.15388 0
M  V30 27627 H 1296.62 -0.926847 -5.72749 0
M  V30 27628 H 1296.34 1.86973 -6.82036 0
M  V30 27629 H 1295.35 0.403896 -7.13257 0
M  V30 27630 H 1297.18 1.20585 -8.97435 0
M  V30 27631 H 1297.25 2.71231 -5.45042 0
M  V30 27632 P 1295.31 -1.17771 -8.83182 0
M  V30 27633 O 1295.09 -2.07206 -9.98732 0
M  V30 27634 O 1294.52 0.0743816 -8.81969 0
M  V30 27635 O 1295.06 -1.97678 -7.474 0
M  V30 27636 C 1296 -3.01133 -7.08783 0
M  V30 27637 C 1295.27 -4.1203 -6.37546 0
M  V30 27638 O 1295.06 -3.72887 -4.9796 0
M  V30 27639 C 1293.87 -4.45085 -6.88694 0
M  V30 27640 O 1293.48 -5.78836 -6.56315 0
M  V30 27641 C 1292.99 -3.47817 -6.12078 0
M  V30 27642 C 1293.7 -3.39414 -4.77697 0
M  V30 27643 N 1293.65 -2.04615 -4.15333 0
M  V30 27644 C 1293.5 -1.96929 -2.77162 0
M  V30 27645 O 1293.41 -3.02017 -2.12006 0
M  V30 27646 N 1293.45 -0.55485 -2.24237 0
M  V30 27647 C 1293.55 0.367808 -2.9169 0
M  V30 27648 N 1293.5 1.53426 -2.29427 0
M  V30 27649 C 1293.7 0.319148 -4.33828 0
M  V30 27650 C 1293.75 -0.920672 -4.90433 0
M  V30 27651 H 1296.49 -3.41209 -7.98667 0
M  V30 27652 H 1296.76 -2.5837 -6.41742 0
M  V30 27653 H 1295.9 -5.02718 -6.42752 0
M  V30 27654 H 1293.24 -4.11779 -4.09026 0
M  V30 27655 H 1292.96 -2.49661 -6.61772 0
M  V30 27656 H 1291.97 -3.86674 -6.00946 0
M  V30 27657 H 1293.8 -4.29991 -7.97006 0
M  V30 27658 H 1293.88 -1.00589 -5.98303 0
M  V30 27659 H 1293.77 1.22639 -4.93799 0
M  V30 27660 H 1293.39 1.56819 -1.27167 0
M  V30 27661 H 1293.58 2.41062 -2.83063 0
M  V30 27662 P 1291.93 -6.144 -6.45285 0
M  V30 27663 O 1291.71 -7.54673 -6.86199 0
M  V30 27664 O 1291.14 -5.12391 -7.179 0
M  V30 27665 O 1291.68 -5.99158 -4.88404 0
M  V30 27666 C 1292.62 -6.60234 -3.96415 0
M  V30 27667 C 1291.89 -7.08259 -2.72856 0
M  V30 27668 O 1291.68 -5.9427 -1.83651 0
M  V30 27669 C 1290.49 -7.64886 -2.9555 0
M  V30 27670 O 1290.1 -8.53963 -1.90717 0
M  V30 27671 C 1289.61 -6.4116 -2.90739 0
M  V30 27672 C 1290.32 -5.55375 -1.86963 0
M  V30 27673 N 1290.27 -4.09664 -2.15742 0
M  V30 27674 H 1293.11 -7.45574 -4.45629 0
M  V30 27675 H 1293.38 -5.86232 -3.67314 0
M  V30 27676 H 1292.52 -7.84412 -2.24479 0
M  V30 27677 P 1288.55 -8.7635 -1.60911 0
M  V30 27678 O 1288.33 -10.1388 -1.11561 0
M  V30 27679 O 1287.76 -8.36503 -2.79617 0
M  V30 27680 O 1288.3 -7.71806 -0.42951 0
M  V30 27681 C 1289.24 -7.67148 0.673689 0
M  V30 27682 C 1288.51 -7.33374 1.95559 0
M  V30 27683 O 1288.3 -5.88721 2.00726 0
M  V30 27684 C 1287.11 -7.92526 2.10483 0
M  V30 27685 O 1286.72 -8.02971 3.47653 0
M  V30 27686 C 1286.23 -6.89602 1.41652 0
M  V30 27687 C 1286.94 -5.59201 1.75185 0
M  V30 27688 N 1286.89 -4.58235 0.662552 0
M  V30 27689 H 1289.73 -8.65116 0.777161 0
M  V30 27690 H 1290 -6.90173 0.474152 0
M  V30 27691 H 1289.14 -7.66548 2.79458 0
M  V30 27692 P 1285.17 -8.03563 3.84925 0
M  V30 27693 O 1284.95 -8.85821 5.0569 0
M  V30 27694 O 1284.38 -8.41101 2.65469 0
M  V30 27695 O 1284.92 -6.4965 4.18908 0
M  V30 27696 C 1285.86 -5.81037 5.05421 0
M  V30 27697 C 1285.13 -4.78366 5.89277 0
M  V30 27698 O 1284.92 -3.58302 5.08433 0
M  V30 27699 C 1283.73 -5.17448 6.36119 0
M  V30 27700 O 1283.34 -4.45271 7.53232 0
M  V30 27701 C 1282.85 -4.74639 5.19936 0
M  V30 27702 C 1283.56 -3.49432 4.70418 0
M  V30 27703 N 1283.51 -3.31776 3.22945 0
M  V30 27704 H 1286.35 -6.54213 5.71376 0
M  V30 27705 H 1286.62 -5.30492 4.44033 0
M  V30 27706 H 1285.76 -4.55889 6.76652 0
M  V30 27707 P 1281.79 -4.23843 7.83734 0
M  V30 27708 O 1281.57 -4.19407 9.29784 0
M  V30 27709 O 1281 -5.24426 7.09156 0
M  V30 27710 O 1281.54 -2.7935 7.20758 0
M  V30 27711 C 1282.48 -1.7299 7.50419 0
M  V30 27712 C 1281.75 -0.406376 7.57911 0
M  V30 27713 O 1281.54 0.0897726 6.21935 0
M  V30 27714 C 1280.35 -0.447224 8.1878 0
M  V30 27715 O 1279.96 0.825065 8.71101 0
M  V30 27716 C 1279.47 -0.783801 6.99623 0
M  V30 27717 C 1280.18 -0.0619192 5.85967 0
M  V30 27718 N 1280.13 -0.7859 4.56281 0
M  V30 27719 H 1282.97 -1.93423 8.4679 0
M  V30 27720 H 1283.24 -1.68181 6.71046 0
M  V30 27721 H 1282.38 0.289041 8.15388 0
M  V30 27722 P 1278.41 1.17771 8.83182 0
M  V30 27723 O 1278.19 2.07206 9.98732 0
M  V30 27724 O 1277.62 -0.0743816 8.81969 0
M  V30 27725 O 1278.16 1.97652 7.47304 0
M  V30 27726 C 1279.1 3.01133 7.08783 0
M  V30 27727 C 1278.37 4.12613 6.37049 0
M  V30 27728 O 1278.16 3.72827 4.97879 0
M  V30 27729 C 1276.97 4.45085 6.88694 0
M  V30 27730 O 1276.58 5.7877 6.5624 0
M  V30 27731 C 1276.09 3.47817 6.12078 0
M  V30 27732 C 1276.8 3.39414 4.77697 0
M  V30 27733 N 1276.75 2.04199 4.15538 0
M  V30 27734 H 1279.59 3.41248 7.98759 0
M  V30 27735 H 1279.86 2.57728 6.42 0
M  V30 27736 H 1279 5.02657 6.42673 0
M  V30 27737 H 1276.34 4.11708 4.08956 0
M  V30 27738 H 1276.06 2.49626 6.61679 0
M  V30 27739 H 1275.07 3.8662 6.00862 0
M  V30 27740 H 1276.9 4.29991 7.97006 0
M  V30 27741 P 1275.03 6.144 6.45285 0
M  V30 27742 O 1274.81 7.54673 6.86199 0
M  V30 27743 O 1274.24 5.12391 7.179 0
M  V30 27744 O 1274.78 5.99158 4.88404 0
M  V30 27745 C 1275.72 6.60234 3.96415 0
M  V30 27746 C 1274.99 7.08259 2.72856 0
M  V30 27747 O 1274.78 5.9427 1.83651 0
M  V30 27748 C 1273.59 7.64886 2.9555 0
M  V30 27749 O 1273.2 8.53963 1.90717 0
M  V30 27750 C 1272.71 6.4116 2.90739 0
M  V30 27751 C 1273.42 5.55375 1.86963 0
M  V30 27752 N 1273.37 4.09664 2.15742 0
M  V30 27753 H 1276.21 7.45574 4.45629 0
M  V30 27754 H 1276.48 5.86232 3.67314 0
M  V30 27755 H 1275.62 7.84412 2.24479 0
M  V30 27756 P 1271.65 8.7635 1.60911 0
M  V30 27757 O 1271.43 10.1388 1.11561 0
M  V30 27758 O 1270.86 8.36503 2.79617 0
M  V30 27759 O 1271.4 7.71806 0.42951 0
M  V30 27760 C 1272.34 7.67148 -0.673689 0
M  V30 27761 C 1271.61 7.33374 -1.95559 0
M  V30 27762 O 1271.4 5.88721 -2.00726 0
M  V30 27763 C 1270.21 7.92526 -2.10483 0
M  V30 27764 O 1269.82 8.02971 -3.47653 0
M  V30 27765 C 1269.33 6.89602 -1.41652 0
M  V30 27766 C 1270.04 5.59201 -1.75185 0
M  V30 27767 N 1269.99 4.58235 -0.662552 0
M  V30 27768 H 1272.83 8.65116 -0.777161 0
M  V30 27769 H 1273.1 6.90173 -0.474152 0
M  V30 27770 H 1272.24 7.66548 -2.79458 0
M  V30 27771 P 1268.27 8.03563 -3.84925 0
M  V30 27772 O 1268.05 8.85821 -5.0569 0
M  V30 27773 O 1267.48 8.41101 -2.65469 0
M  V30 27774 O 1268.02 6.4965 -4.18908 0
M  V30 27775 C 1268.96 5.81037 -5.05421 0
M  V30 27776 C 1268.23 4.78366 -5.89277 0
M  V30 27777 O 1268.02 3.58302 -5.08433 0
M  V30 27778 C 1266.83 5.17448 -6.36119 0
M  V30 27779 O 1266.44 4.45271 -7.53232 0
M  V30 27780 C 1265.95 4.74639 -5.19936 0
M  V30 27781 C 1266.66 3.49432 -4.70418 0
M  V30 27782 N 1266.61 3.31776 -3.22945 0
M  V30 27783 H 1269.45 6.54213 -5.71376 0
M  V30 27784 H 1269.72 5.30492 -4.44033 0
M  V30 27785 H 1268.86 4.55889 -6.76652 0
M  V30 27786 P 1264.89 4.23843 -7.83734 0
M  V30 27787 O 1264.67 4.19407 -9.29784 0
M  V30 27788 O 1264.1 5.24426 -7.09156 0
M  V30 27789 O 1264.64 2.7935 -7.20758 0
M  V30 27790 C 1265.58 1.7299 -7.50419 0
M  V30 27791 C 1264.85 0.406376 -7.57911 0
M  V30 27792 O 1264.64 -0.0897726 -6.21935 0
M  V30 27793 C 1263.45 0.447224 -8.1878 0
M  V30 27794 O 1263.06 -0.825065 -8.71101 0
M  V30 27795 C 1262.57 0.783801 -6.99623 0
M  V30 27796 C 1263.28 0.0619192 -5.85967 0
M  V30 27797 N 1263.23 0.790462 -4.56202 0
M  V30 27798 H 1266.07 1.93423 -8.4679 0
M  V30 27799 H 1266.34 1.68852 -6.70877 0
M  V30 27800 H 1265.48 -0.289041 -8.15388 0
M  V30 27801 H 1262.82 -0.927006 -5.72848 0
M  V30 27802 H 1262.54 1.86973 -6.82036 0
M  V30 27803 H 1261.55 0.403953 -7.13357 0
M  V30 27804 H 1263.38 1.20599 -8.97534 0
M  V30 27805 P 1261.51 -1.17771 -8.83182 0
M  V30 27806 O 1261.29 -2.07206 -9.98732 0
M  V30 27807 O 1260.72 0.0743816 -8.81969 0
M  V30 27808 O 1261.26 -1.97652 -7.47304 0
M  V30 27809 C 1262.2 -3.01133 -7.08783 0
M  V30 27810 C 1261.47 -4.12613 -6.37049 0
M  V30 27811 O 1261.26 -3.72827 -4.97879 0
M  V30 27812 C 1260.07 -4.45085 -6.88694 0
M  V30 27813 O 1259.68 -5.7877 -6.5624 0
M  V30 27814 C 1259.19 -3.47817 -6.12078 0
M  V30 27815 C 1259.9 -3.39414 -4.77697 0
M  V30 27816 N 1259.85 -2.04615 -4.15333 0
M  V30 27817 H 1262.69 -3.41248 -7.98759 0
M  V30 27818 H 1262.96 -2.5837 -6.41742 0
M  V30 27819 H 1262.1 -5.02657 -6.42673 0
M  V30 27820 P 1258.13 -6.144 -6.45285 0
M  V30 27821 O 1257.91 -7.54673 -6.86199 0
M  V30 27822 O 1257.34 -5.12391 -7.179 0
M  V30 27823 O 1257.88 -5.99158 -4.88404 0
M  V30 27824 C 1258.82 -6.60234 -3.96415 0
M  V30 27825 C 1258.09 -7.08259 -2.72856 0
M  V30 27826 O 1257.88 -5.9427 -1.83651 0
M  V30 27827 C 1256.69 -7.64886 -2.9555 0
M  V30 27828 O 1256.3 -8.53963 -1.90717 0
M  V30 27829 C 1255.81 -6.4116 -2.90739 0
M  V30 27830 C 1256.52 -5.55375 -1.86963 0
M  V30 27831 N 1256.47 -4.09448 -2.16152 0
M  V30 27832 H 1259.31 -7.45574 -4.45629 0
M  V30 27833 H 1259.58 -5.85864 -3.679 0
M  V30 27834 H 1258.72 -7.84412 -2.24479 0
M  V30 27835 H 1256.06 -5.73457 -0.888562 0
M  V30 27836 H 1255.78 -5.90877 -3.88583 0
M  V30 27837 H 1254.79 -6.6596 -2.58858 0
M  V30 27838 H 1256.62 -8.16339 -3.92049 0
M  V30 27839 P 1254.75 -8.7635 -1.60911 0
M  V30 27840 O 1254.53 -10.1388 -1.11561 0
M  V30 27841 O 1253.96 -8.36503 -2.79617 0
M  V30 27842 O 1254.5 -7.71806 -0.42951 0
M  V30 27843 C 1255.44 -7.67148 0.673689 0
M  V30 27844 C 1254.71 -7.33374 1.95559 0
M  V30 27845 O 1254.5 -5.88721 2.00726 0
M  V30 27846 C 1253.31 -7.92526 2.10483 0
M  V30 27847 O 1252.92 -8.02971 3.47653 0
M  V30 27848 C 1252.43 -6.89602 1.41652 0
M  V30 27849 C 1253.14 -5.59201 1.75185 0
M  V30 27850 N 1253.09 -4.58235 0.662552 0
M  V30 27851 H 1255.93 -8.65116 0.777161 0
M  V30 27852 H 1256.2 -6.90173 0.474152 0
M  V30 27853 H 1255.34 -7.66548 2.79458 0
M  V30 27854 P 1251.37 -8.03563 3.84925 0
M  V30 27855 O 1251.15 -8.85821 5.0569 0
M  V30 27856 O 1250.58 -8.41101 2.65469 0
M  V30 27857 O 1251.12 -6.4965 4.18908 0
M  V30 27858 C 1252.06 -5.81037 5.05421 0
M  V30 27859 C 1251.33 -4.78366 5.89277 0
M  V30 27860 O 1251.12 -3.58302 5.08433 0
M  V30 27861 C 1249.93 -5.17448 6.36119 0
M  V30 27862 O 1249.54 -4.45271 7.53232 0
M  V30 27863 C 1249.05 -4.74639 5.19936 0
M  V30 27864 C 1249.76 -3.49432 4.70418 0
M  V30 27865 N 1249.71 -3.31776 3.22945 0
M  V30 27866 H 1252.55 -6.54213 5.71376 0
M  V30 27867 H 1252.82 -5.30492 4.44033 0
M  V30 27868 H 1251.96 -4.55889 6.76652 0
M  V30 27869 P 1247.99 -4.23843 7.83734 0
M  V30 27870 O 1247.77 -4.19407 9.29784 0
M  V30 27871 O 1247.2 -5.24426 7.09156 0
M  V30 27872 O 1247.74 -2.7935 7.20758 0
M  V30 27873 C 1248.68 -1.7299 7.50419 0
M  V30 27874 C 1247.95 -0.406376 7.57911 0
M  V30 27875 O 1247.74 0.0897726 6.21935 0
M  V30 27876 C 1246.55 -0.447224 8.1878 0
M  V30 27877 O 1246.16 0.825065 8.71101 0
M  V30 27878 C 1245.67 -0.783801 6.99623 0
M  V30 27879 C 1246.38 -0.0619192 5.85967 0
M  V30 27880 N 1246.33 -0.7859 4.56281 0
M  V30 27881 H 1249.17 -1.93423 8.4679 0
M  V30 27882 H 1249.44 -1.68181 6.71046 0
M  V30 27883 H 1248.58 0.289041 8.15388 0
M  V30 27884 P 1244.61 1.17771 8.83182 0
M  V30 27885 O 1244.39 2.07206 9.98732 0
M  V30 27886 O 1243.82 -0.0743816 8.81969 0
M  V30 27887 O 1244.36 1.97652 7.47304 0
M  V30 27888 C 1245.3 3.01133 7.08783 0
M  V30 27889 C 1244.57 4.12613 6.37049 0
M  V30 27890 O 1244.36 3.72827 4.97879 0
M  V30 27891 C 1243.17 4.45085 6.88694 0
M  V30 27892 O 1242.78 5.7877 6.5624 0
M  V30 27893 C 1242.29 3.47817 6.12078 0
M  V30 27894 C 1243 3.39414 4.77697 0
M  V30 27895 N 1242.95 2.04615 4.15333 0
M  V30 27896 H 1245.79 3.41248 7.98759 0
M  V30 27897 H 1246.06 2.5837 6.41742 0
M  V30 27898 H 1245.2 5.02657 6.42673 0
M  V30 27899 P 1241.23 6.144 6.45285 0
M  V30 27900 O 1241.01 7.54673 6.86199 0
M  V30 27901 O 1240.44 5.12391 7.179 0
M  V30 27902 O 1240.98 5.99158 4.88404 0
M  V30 27903 C 1241.92 6.60062 3.96313 0
M  V30 27904 C 1241.19 7.08259 2.72856 0
M  V30 27905 O 1240.98 5.9427 1.83651 0
M  V30 27906 C 1239.79 7.65087 2.94749 0
M  V30 27907 O 1239.4 8.53963 1.90717 0
M  V30 27908 C 1238.91 6.41069 2.90698 0
M  V30 27909 C 1239.62 5.5528 1.86931 0
M  V30 27910 N 1239.57 4.09575 2.15696 0
M  V30 27911 C 1239.42 3.24249 1.08435 0
M  V30 27912 O 1239.33 3.63946 -0.0628747 0
M  V30 27913 N 1239.38 1.90009 1.39973 0
M  V30 27914 C 1239.47 1.34884 2.65614 0
M  V30 27915 O 1239.42 0.123716 2.81728 0
M  V30 27916 C 1239.62 2.3145 3.71736 0
M  V30 27917 C 1239.73 1.75913 5.10438 0
M  V30 27918 C 1239.67 3.63518 3.44754 0
M  V30 27919 H 1242.41 7.45402 4.45526 0
M  V30 27920 H 1242.68 5.86062 3.67208 0
M  V30 27921 H 1241.82 7.84412 2.24479 0
M  V30 27922 H 1239.16 5.73358 0.888409 0
M  V30 27923 H 1238.88 5.90877 3.88583 0
M  V30 27924 H 1237.89 6.65867 2.58821 0
M  V30 27925 H 1239.72 8.16248 3.92006 0
M  V30 27926 H 1239.79 4.34551 4.26383 0
M  V30 27927 H 1238.76 1.85471 5.61775 0
M  V30 27928 H 1240.5 2.31364 5.66257 0
M  V30 27929 H 1240.01 0.695936 5.05229 0
M  V30 27930 H 1239.28 1.26277 0.63625 0
M  V30 27931 P 1237.85 8.7635 1.60911 0
M  V30 27932 O 1237.63 10.1388 1.11561 0
M  V30 27933 O 1237.06 8.36503 2.79617 0
M  V30 27934 O 1237.6 7.71806 0.42951 0
M  V30 27935 C 1238.54 7.67148 -0.673689 0
M  V30 27936 C 1237.81 7.33374 -1.95559 0
M  V30 27937 O 1237.6 5.88721 -2.00726 0
M  V30 27938 C 1236.41 7.92526 -2.10483 0
M  V30 27939 O 1236.02 8.02971 -3.47653 0
M  V30 27940 C 1235.53 6.89602 -1.41652 0
M  V30 27941 C 1236.24 5.59201 -1.75185 0
M  V30 27942 N 1236.19 4.58301 -0.657969 0
M  V30 27943 H 1239.03 8.65116 -0.777161 0
M  V30 27944 H 1239.3 6.9022 -0.46725 0
M  V30 27945 H 1238.44 7.66548 -2.79458 0
M  V30 27946 H 1235.78 5.16165 -2.65183 0
M  V30 27947 H 1235.5 7.06433 -0.329384 0
M  V30 27948 H 1234.51 6.90926 -1.82021 0
M  V30 27949 H 1236.34 8.90873 -1.62657 0
M  V30 27950 P 1234.47 8.03563 -3.84925 0
M  V30 27951 O 1234.25 8.85821 -5.0569 0
M  V30 27952 O 1233.68 8.41101 -2.65469 0
M  V30 27953 O 1234.22 6.4965 -4.18908 0
M  V30 27954 C 1235.16 5.81037 -5.05421 0
M  V30 27955 C 1234.43 4.78366 -5.89277 0
M  V30 27956 O 1234.22 3.58302 -5.08433 0
M  V30 27957 C 1233.03 5.17448 -6.36119 0
M  V30 27958 O 1232.64 4.45271 -7.53232 0
M  V30 27959 C 1232.15 4.74639 -5.19936 0
M  V30 27960 C 1232.86 3.49432 -4.70418 0
M  V30 27961 N 1232.81 3.31776 -3.22945 0
M  V30 27962 H 1235.65 6.54213 -5.71376 0
M  V30 27963 H 1235.92 5.30492 -4.44033 0
M  V30 27964 H 1235.06 4.55889 -6.76652 0
M  V30 27965 P 1231.09 4.23843 -7.83734 0
M  V30 27966 O 1230.87 4.19407 -9.29784 0
M  V30 27967 O 1230.3 5.24426 -7.09156 0
M  V30 27968 O 1230.84 2.7935 -7.20758 0
M  V30 27969 C 1231.78 1.7299 -7.50419 0
M  V30 27970 C 1231.05 0.406376 -7.57911 0
M  V30 27971 O 1230.84 -0.0897726 -6.21935 0
M  V30 27972 C 1229.65 0.447224 -8.1878 0
M  V30 27973 O 1229.26 -0.825065 -8.71101 0
M  V30 27974 C 1228.77 0.783801 -6.99623 0
M  V30 27975 C 1229.48 0.0619192 -5.85967 0
M  V30 27976 N 1229.43 0.790462 -4.56202 0
M  V30 27977 C 1229.51 2.13895 -4.34171 0
M  V30 27978 N 1229.44 2.46449 -3.08687 0
M  V30 27979 C 1229.29 1.2525 -2.43697 0
M  V30 27980 C 1229.16 0.914535 -1.07318 0
M  V30 27981 N 1229.15 1.80782 -0.0887348 0
M  V30 27982 N 1229.04 -0.386745 -0.768133 0
M  V30 27983 C 1229.05 -1.28096 -1.75159 0
M  V30 27984 N 1229.17 -1.09708 -3.04861 0
M  V30 27985 C 1229.29 0.214857 -3.32306 0
M  V30 27986 H 1232.27 1.93423 -8.4679 0
M  V30 27987 H 1232.54 1.68852 -6.70877 0
M  V30 27988 H 1231.68 -0.289041 -8.15388 0
M  V30 27989 H 1229.02 -0.927006 -5.72848 0
M  V30 27990 H 1228.74 1.86973 -6.82036 0
M  V30 27991 H 1227.75 0.403953 -7.13357 0
M  V30 27992 H 1229.58 1.20599 -8.97534 0
M  V30 27993 H 1229.62 2.86846 -5.14318 0
M  V30 27994 H 1229.24 2.81082 -0.302037 0
M  V30 27995 H 1229.05 1.49688 0.889064 0
M  V30 27996 H 1228.95 -2.31317 -1.43855 0
M  V30 27997 P 1227.71 -1.17771 -8.83182 0
M  V30 27998 O 1227.49 -2.07206 -9.98732 0
M  V30 27999 O 1226.92 0.0743816 -8.81969 0
M  V30 28000 O 1227.46 -1.97652 -7.47304 0
M  V30 28001 C 1228.4 -3.01133 -7.08783 0
M  V30 28002 C 1227.67 -4.12613 -6.37049 0
M  V30 28003 O 1227.46 -3.72827 -4.97879 0
M  V30 28004 C 1226.27 -4.45085 -6.88694 0
M  V30 28005 O 1225.88 -5.7877 -6.5624 0
M  V30 28006 C 1225.39 -3.47817 -6.12078 0
M  V30 28007 C 1226.1 -3.39414 -4.77697 0
M  V30 28008 N 1226.05 -2.04199 -4.15538 0
M  V30 28009 H 1228.89 -3.41248 -7.98759 0
M  V30 28010 H 1229.16 -2.57728 -6.42 0
M  V30 28011 H 1228.3 -5.02657 -6.42673 0
M  V30 28012 H 1225.64 -4.11708 -4.08956 0
M  V30 28013 H 1225.36 -2.49626 -6.61679 0
M  V30 28014 H 1224.37 -3.8662 -6.00862 0
M  V30 28015 H 1226.2 -4.29991 -7.97006 0
M  V30 28016 P 1224.33 -6.144 -6.45285 0
M  V30 28017 O 1224.11 -7.54673 -6.86199 0
M  V30 28018 O 1223.54 -5.12391 -7.179 0
M  V30 28019 O 1224.08 -5.99158 -4.88404 0
M  V30 28020 C 1225.02 -6.60234 -3.96415 0
M  V30 28021 C 1224.29 -7.08259 -2.72856 0
M  V30 28022 O 1224.08 -5.9427 -1.83651 0
M  V30 28023 C 1222.89 -7.64886 -2.9555 0
M  V30 28024 O 1222.5 -8.53963 -1.90717 0
M  V30 28025 C 1222.01 -6.4116 -2.90739 0
M  V30 28026 C 1222.72 -5.55375 -1.86963 0
M  V30 28027 N 1222.67 -4.09664 -2.15742 0
M  V30 28028 H 1225.51 -7.45574 -4.45629 0
M  V30 28029 H 1225.78 -5.86232 -3.67314 0
M  V30 28030 H 1224.92 -7.84412 -2.24479 0
M  V30 28031 P 1220.95 -8.7635 -1.60911 0
M  V30 28032 O 1220.73 -10.1388 -1.11561 0
M  V30 28033 O 1220.16 -8.36503 -2.79617 0
M  V30 28034 O 1220.7 -7.71806 -0.42951 0
M  V30 28035 C 1221.64 -7.67148 0.673689 0
M  V30 28036 C 1220.91 -7.33374 1.95559 0
M  V30 28037 O 1220.7 -5.88721 2.00726 0
M  V30 28038 C 1219.51 -7.92526 2.10483 0
M  V30 28039 O 1219.12 -8.02971 3.47653 0
M  V30 28040 C 1218.63 -6.89602 1.41652 0
M  V30 28041 C 1219.34 -5.59201 1.75185 0
M  V30 28042 N 1219.29 -4.58235 0.662552 0
M  V30 28043 H 1222.13 -8.65116 0.777161 0
M  V30 28044 H 1222.4 -6.90173 0.474152 0
M  V30 28045 H 1221.54 -7.66548 2.79458 0
M  V30 28046 P 1217.57 -8.03563 3.84925 0
M  V30 28047 O 1217.35 -8.85821 5.0569 0
M  V30 28048 O 1216.78 -8.41101 2.65469 0
M  V30 28049 O 1217.32 -6.4965 4.18908 0
M  V30 28050 C 1218.26 -5.81037 5.05421 0
M  V30 28051 C 1217.53 -4.78366 5.89277 0
M  V30 28052 O 1217.32 -3.58302 5.08433 0
M  V30 28053 C 1216.13 -5.17448 6.36119 0
M  V30 28054 O 1215.74 -4.45271 7.53232 0
M  V30 28055 C 1215.25 -4.74639 5.19936 0
M  V30 28056 C 1215.96 -3.49432 4.70418 0
M  V30 28057 N 1215.91 -3.32099 3.22613 0
M  V30 28058 H 1218.75 -6.54213 5.71376 0
M  V30 28059 H 1219.02 -5.30936 4.43503 0
M  V30 28060 H 1218.16 -4.55889 6.76652 0
M  V30 28061 H 1215.5 -2.61715 5.17932 0
M  V30 28062 H 1215.22 -5.52155 4.41878 0
M  V30 28063 H 1214.23 -4.51981 5.53374 0
M  V30 28064 H 1216.06 -6.25124 6.55234 0
M  V30 28065 P 1214.19 -4.23843 7.83734 0
M  V30 28066 O 1213.97 -4.19407 9.29784 0
M  V30 28067 O 1213.4 -5.24426 7.09156 0
M  V30 28068 O 1213.94 -2.7935 7.20758 0
M  V30 28069 C 1214.88 -1.7299 7.50419 0
M  V30 28070 C 1214.15 -0.406376 7.57911 0
M  V30 28071 O 1213.94 0.0897726 6.21935 0
M  V30 28072 C 1212.75 -0.447224 8.1878 0
M  V30 28073 O 1212.36 0.825065 8.71101 0
M  V30 28074 C 1211.87 -0.783801 6.99623 0
M  V30 28075 C 1212.58 -0.0619192 5.85967 0
M  V30 28076 N 1212.53 -0.7859 4.56281 0
M  V30 28077 H 1215.37 -1.93423 8.4679 0
M  V30 28078 H 1215.64 -1.68181 6.71046 0
M  V30 28079 H 1214.78 0.289041 8.15388 0
M  V30 28080 P 1210.81 1.17771 8.83182 0
M  V30 28081 O 1210.59 2.07206 9.98732 0
M  V30 28082 O 1210.02 -0.0743816 8.81969 0
M  V30 28083 O 1210.56 1.97652 7.47304 0
M  V30 28084 C 1211.5 3.01133 7.08783 0
M  V30 28085 C 1210.77 4.12613 6.37049 0
M  V30 28086 O 1210.56 3.72827 4.97879 0
M  V30 28087 C 1209.37 4.45085 6.88694 0
M  V30 28088 O 1208.98 5.7877 6.5624 0
M  V30 28089 C 1208.49 3.47817 6.12078 0
M  V30 28090 C 1209.2 3.39414 4.77697 0
M  V30 28091 N 1209.15 2.04615 4.15333 0
M  V30 28092 H 1211.99 3.41248 7.98759 0
M  V30 28093 H 1212.26 2.5837 6.41742 0
M  V30 28094 H 1211.4 5.02657 6.42673 0
M  V30 28095 P 1207.43 6.144 6.45285 0
M  V30 28096 O 1207.21 7.54673 6.86199 0
M  V30 28097 O 1206.64 5.12391 7.179 0
M  V30 28098 O 1207.18 5.99158 4.88404 0
M  V30 28099 C 1208.12 6.60234 3.96415 0
M  V30 28100 C 1207.39 7.08259 2.72856 0
M  V30 28101 O 1207.18 5.9427 1.83651 0
M  V30 28102 C 1205.99 7.64886 2.9555 0
M  V30 28103 O 1205.6 8.53963 1.90717 0
M  V30 28104 C 1205.11 6.4116 2.90739 0
M  V30 28105 C 1205.82 5.55375 1.86963 0
M  V30 28106 N 1205.77 4.09448 2.16152 0
M  V30 28107 H 1208.61 7.45574 4.45629 0
M  V30 28108 H 1208.88 5.85864 3.679 0
M  V30 28109 H 1208.02 7.84412 2.24479 0
M  V30 28110 H 1205.36 5.73457 0.888562 0
M  V30 28111 H 1205.08 5.90877 3.88583 0
M  V30 28112 H 1204.09 6.6596 2.58858 0
M  V30 28113 H 1205.92 8.16339 3.92049 0
M  V30 28114 P 1204.05 8.7635 1.60911 0
M  V30 28115 O 1203.83 10.1388 1.11561 0
M  V30 28116 O 1203.26 8.36503 2.79617 0
M  V30 28117 O 1203.8 7.71806 0.42951 0
M  V30 28118 C 1204.74 7.67148 -0.673689 0
M  V30 28119 C 1204.01 7.33374 -1.95559 0
M  V30 28120 O 1203.8 5.88721 -2.00726 0
M  V30 28121 C 1202.61 7.92526 -2.10483 0
M  V30 28122 O 1202.22 8.02971 -3.47653 0
M  V30 28123 C 1201.73 6.89602 -1.41652 0
M  V30 28124 C 1202.44 5.59201 -1.75185 0
M  V30 28125 N 1202.39 4.58235 -0.662552 0
M  V30 28126 H 1205.23 8.65116 -0.777161 0
M  V30 28127 H 1205.5 6.90173 -0.474152 0
M  V30 28128 H 1204.64 7.66548 -2.79458 0
M  V30 28129 P 1200.67 8.03563 -3.84925 0
M  V30 28130 O 1200.45 8.85821 -5.0569 0
M  V30 28131 O 1199.88 8.41101 -2.65469 0
M  V30 28132 O 1200.42 6.4965 -4.18908 0
M  V30 28133 C 1201.36 5.81037 -5.05421 0
M  V30 28134 C 1200.63 4.78366 -5.89277 0
M  V30 28135 O 1200.42 3.58302 -5.08433 0
M  V30 28136 C 1199.23 5.17448 -6.36119 0
M  V30 28137 O 1198.84 4.45271 -7.53232 0
M  V30 28138 C 1198.35 4.74639 -5.19936 0
M  V30 28139 C 1199.06 3.49432 -4.70418 0
M  V30 28140 N 1199.01 3.31776 -3.22945 0
M  V30 28141 H 1201.85 6.54213 -5.71376 0
M  V30 28142 H 1202.12 5.30492 -4.44033 0
M  V30 28143 H 1201.26 4.55889 -6.76652 0
M  V30 28144 P 1197.29 4.23843 -7.83734 0
M  V30 28145 O 1197.07 4.19407 -9.29784 0
M  V30 28146 O 1196.5 5.24426 -7.09156 0
M  V30 28147 O 1197.04 2.7935 -7.20758 0
M  V30 28148 C 1197.98 1.7299 -7.50419 0
M  V30 28149 C 1197.25 0.406376 -7.57911 0
M  V30 28150 O 1197.04 -0.0897726 -6.21935 0
M  V30 28151 C 1195.85 0.447224 -8.1878 0
M  V30 28152 O 1195.46 -0.825065 -8.71101 0
M  V30 28153 C 1194.97 0.783801 -6.99623 0
M  V30 28154 C 1195.68 0.0619192 -5.85967 0
M  V30 28155 N 1195.63 0.7859 -4.56281 0
M  V30 28156 H 1198.47 1.93423 -8.4679 0
M  V30 28157 H 1198.74 1.68181 -6.71046 0
M  V30 28158 H 1197.88 -0.289041 -8.15388 0
M  V30 28159 P 1193.91 -1.17771 -8.83182 0
M  V30 28160 O 1193.69 -2.07206 -9.98732 0
M  V30 28161 O 1193.12 0.0743816 -8.81969 0
M  V30 28162 O 1193.66 -1.97652 -7.47304 0
M  V30 28163 C 1194.6 -3.01133 -7.08783 0
M  V30 28164 C 1193.87 -4.12613 -6.37049 0
M  V30 28165 O 1193.66 -3.72827 -4.97879 0
M  V30 28166 C 1192.47 -4.45085 -6.88694 0
M  V30 28167 O 1192.08 -5.7877 -6.5624 0
M  V30 28168 C 1191.59 -3.47817 -6.12078 0
M  V30 28169 C 1192.3 -3.39414 -4.77697 0
M  V30 28170 N 1192.25 -2.04615 -4.15333 0
M  V30 28171 H 1195.09 -3.41248 -7.98759 0
M  V30 28172 H 1195.36 -2.5837 -6.41742 0
M  V30 28173 H 1194.5 -5.02657 -6.42673 0
M  V30 28174 P 1190.53 -6.144 -6.45285 0
M  V30 28175 O 1190.31 -7.54673 -6.86199 0
M  V30 28176 O 1189.74 -5.12391 -7.179 0
M  V30 28177 O 1190.28 -5.99158 -4.88404 0
M  V30 28178 C 1191.22 -6.60234 -3.96415 0
M  V30 28179 C 1190.49 -7.08259 -2.72856 0
M  V30 28180 O 1190.28 -5.9427 -1.83651 0
M  V30 28181 C 1189.09 -7.64886 -2.9555 0
M  V30 28182 O 1188.7 -8.53963 -1.90717 0
M  V30 28183 C 1188.21 -6.4116 -2.90739 0
M  V30 28184 C 1188.92 -5.55375 -1.86963 0
M  V30 28185 N 1188.87 -4.09448 -2.16152 0
M  V30 28186 H 1191.71 -7.45574 -4.45629 0
M  V30 28187 H 1191.98 -5.85864 -3.679 0
M  V30 28188 H 1191.12 -7.84412 -2.24479 0
M  V30 28189 H 1188.46 -5.73457 -0.888562 0
M  V30 28190 H 1188.18 -5.90877 -3.88583 0
M  V30 28191 H 1187.19 -6.6596 -2.58858 0
M  V30 28192 H 1189.02 -8.16339 -3.92049 0
M  V30 28193 P 1187.15 -8.7635 -1.60911 0
M  V30 28194 O 1186.93 -10.1388 -1.11561 0
M  V30 28195 O 1186.36 -8.36503 -2.79617 0
M  V30 28196 O 1186.9 -7.71806 -0.42951 0
M  V30 28197 C 1187.84 -7.66948 0.673514 0
M  V30 28198 C 1187.11 -7.33374 1.95559 0
M  V30 28199 O 1186.9 -5.88721 2.00726 0
M  V30 28200 C 1185.71 -7.92218 2.1125 0
M  V30 28201 O 1185.32 -8.02971 3.47653 0
M  V30 28202 C 1184.83 -6.89504 1.41631 0
M  V30 28203 C 1185.54 -5.59106 1.75155 0
M  V30 28204 N 1185.49 -4.58136 0.662409 0
M  V30 28205 C 1185.34 -3.26059 1.02863 0
M  V30 28206 O 1185.25 -2.90743 2.19009 0
M  V30 28207 N 1185.3 -2.35995 -0.0155585 0
M  V30 28208 C 1185.39 -2.65248 -1.35603 0
M  V30 28209 O 1185.34 -1.75605 -2.20651 0
M  V30 28210 C 1185.54 -4.05747 -1.64698 0
M  V30 28211 C 1185.65 -4.42345 -3.09553 0
M  V30 28212 C 1185.59 -4.96734 -0.652411 0
M  V30 28213 H 1188.33 -8.64917 0.776982 0
M  V30 28214 H 1188.6 -6.89974 0.474015 0
M  V30 28215 H 1187.74 -7.66548 2.79458 0
M  V30 28216 H 1185.08 -5.16076 2.65138 0
M  V30 28217 H 1184.8 -7.06433 0.329384 0
M  V30 28218 H 1183.81 -6.90829 1.81996 0
M  V30 28219 H 1185.64 -8.90774 1.62639 0
M  V30 28220 H 1185.72 -6.02181 -0.895285 0
M  V30 28221 H 1184.69 -4.80252 -3.45468 0
M  V30 28222 H 1186.42 -5.20015 -3.22119 0
M  V30 28223 H 1185.93 -3.53269 -3.67833 0
M  V30 28224 H 1185.2 -1.39558 0.227499 0
M  V30 28225 P 1183.77 -8.03563 3.84925 0
M  V30 28226 O 1183.55 -8.85821 5.0569 0
M  V30 28227 O 1182.98 -8.41101 2.65469 0
M  V30 28228 O 1183.52 -6.4965 4.18908 0
M  V30 28229 C 1184.46 -5.81037 5.05421 0
M  V30 28230 C 1183.73 -4.78366 5.89277 0
M  V30 28231 O 1183.52 -3.58302 5.08433 0
M  V30 28232 C 1182.33 -5.17448 6.36119 0
M  V30 28233 O 1181.94 -4.45271 7.53232 0
M  V30 28234 C 1181.45 -4.74639 5.19936 0
M  V30 28235 C 1182.16 -3.49432 4.70418 0
M  V30 28236 N 1182.11 -3.31776 3.22945 0
M  V30 28237 C 1182.19 -4.27147 2.23315 0
M  V30 28238 N 1182.11 -3.78447 1.02186 0
M  V30 28239 C 1181.97 -2.41001 1.21732 0
M  V30 28240 C 1181.84 -1.36111 0.27694 0
M  V30 28241 N 1181.72 -0.113683 0.912949 0
M  V30 28242 C 1181.72 0.0846396 2.27943 0
M  V30 28243 N 1181.59 1.34737 2.6916 0
M  V30 28244 N 1181.85 -0.902521 3.16379 0
M  V30 28245 C 1181.97 -2.11937 2.56849 0
M  V30 28246 H 1184.95 -6.54213 5.71376 0
M  V30 28247 H 1185.22 -5.30492 4.44033 0
M  V30 28248 H 1184.36 -4.55889 6.76652 0
M  V30 28249 P 1180.39 -4.23843 7.83734 0
M  V30 28250 O 1180.17 -4.19407 9.29784 0
M  V30 28251 O 1179.6 -5.24426 7.09156 0
M  V30 28252 O 1180.14 -2.7935 7.20758 0
M  V30 28253 C 1181.08 -1.7299 7.50419 0
M  V30 28254 C 1180.35 -0.406376 7.57911 0
M  V30 28255 O 1180.14 0.0897726 6.21935 0
M  V30 28256 C 1178.95 -0.447224 8.1878 0
M  V30 28257 O 1178.56 0.825065 8.71101 0
M  V30 28258 C 1178.07 -0.783801 6.99623 0
M  V30 28259 C 1178.78 -0.0619192 5.85967 0
M  V30 28260 N 1178.73 -0.7859 4.56281 0
M  V30 28261 C 1178.81 -2.14308 4.31736 0
M  V30 28262 N 1178.73 -2.46106 3.05116 0
M  V30 28263 C 1178.59 -1.23422 2.4014 0
M  V30 28264 C 1178.46 -0.938381 1.02409 0
M  V30 28265 N 1178.34 0.444647 0.805413 0
M  V30 28266 C 1178.34 1.40829 1.79435 0
M  V30 28267 N 1178.21 2.67213 1.38558 0
M  V30 28268 N 1178.47 1.12947 3.09005 0
M  V30 28269 C 1178.59 -0.204887 3.32369 0
M  V30 28270 H 1181.57 -1.93423 8.4679 0
M  V30 28271 H 1181.84 -1.68181 6.71046 0
M  V30 28272 H 1180.98 0.289041 8.15388 0
M  V30 28273 P 1177.01 1.17771 8.83182 0
M  V30 28274 O 1176.79 2.07206 9.98732 0
M  V30 28275 O 1176.22 -0.0743816 8.81969 0
M  V30 28276 O 1176.76 1.97678 7.474 0
M  V30 28277 C 1177.7 3.01133 7.08783 0
M  V30 28278 C 1176.97 4.1203 6.37546 0
M  V30 28279 O 1176.76 3.72887 4.9796 0
M  V30 28280 C 1175.57 4.45085 6.88694 0
M  V30 28281 O 1175.18 5.78836 6.56315 0
M  V30 28282 C 1174.69 3.47817 6.12078 0
M  V30 28283 C 1175.4 3.39414 4.77697 0
M  V30 28284 N 1175.35 2.04615 4.15333 0
M  V30 28285 C 1175.2 1.96929 2.77162 0
M  V30 28286 O 1175.11 3.02017 2.12006 0
M  V30 28287 N 1175.15 0.55485 2.24237 0
M  V30 28288 C 1175.25 -0.367808 2.9169 0
M  V30 28289 N 1175.2 -1.53426 2.29427 0
M  V30 28290 C 1175.4 -0.319148 4.33828 0
M  V30 28291 C 1175.45 0.920672 4.90433 0
M  V30 28292 H 1178.19 3.41209 7.98667 0
M  V30 28293 H 1178.46 2.5837 6.41742 0
M  V30 28294 H 1177.6 5.02718 6.42752 0
M  V30 28295 H 1174.94 4.11779 4.09026 0
M  V30 28296 H 1174.66 2.49661 6.61772 0
M  V30 28297 H 1173.67 3.86674 6.00946 0
M  V30 28298 H 1175.5 4.29991 7.97006 0
M  V30 28299 H 1175.58 1.00589 5.98303 0
M  V30 28300 H 1175.47 -1.22639 4.93799 0
M  V30 28301 H 1175.09 -1.56819 1.27167 0
M  V30 28302 H 1175.28 -2.41062 2.83063 0
M  V30 28303 P 1173.63 6.144 6.45285 0
M  V30 28304 O 1173.41 7.54673 6.86199 0
M  V30 28305 O 1172.84 5.12391 7.179 0
M  V30 28306 O 1173.38 5.99158 4.88404 0
M  V30 28307 C 1174.32 6.60234 3.96415 0
M  V30 28308 C 1173.59 7.08259 2.72856 0
M  V30 28309 O 1173.38 5.9427 1.83651 0
M  V30 28310 C 1172.19 7.64886 2.9555 0
M  V30 28311 O 1171.8 8.53963 1.90717 0
M  V30 28312 C 1171.31 6.4116 2.90739 0
M  V30 28313 C 1172.02 5.55375 1.86963 0
M  V30 28314 N 1171.97 4.09664 2.15742 0
M  V30 28315 H 1174.81 7.45574 4.45629 0
M  V30 28316 H 1175.08 5.86232 3.67314 0
M  V30 28317 H 1174.22 7.84412 2.24479 0
M  V30 28318 P 1170.25 8.7635 1.60911 0
M  V30 28319 O 1170.03 10.1388 1.11561 0
M  V30 28320 O 1169.46 8.36503 2.79617 0
M  V30 28321 O 1170 7.71806 0.42951 0
M  V30 28322 C 1170.94 7.67148 -0.673689 0
M  V30 28323 C 1170.21 7.33374 -1.95559 0
M  V30 28324 O 1170 5.88721 -2.00726 0
M  V30 28325 C 1168.81 7.92526 -2.10483 0
M  V30 28326 O 1168.42 8.02971 -3.47653 0
M  V30 28327 C 1167.93 6.89602 -1.41652 0
M  V30 28328 C 1168.64 5.59201 -1.75185 0
M  V30 28329 N 1168.59 4.58301 -0.657969 0
M  V30 28330 H 1171.43 8.65116 -0.777161 0
M  V30 28331 H 1171.7 6.9022 -0.46725 0
M  V30 28332 H 1170.84 7.66548 -2.79458 0
M  V30 28333 H 1168.18 5.16165 -2.65183 0
M  V30 28334 H 1167.9 7.06433 -0.329384 0
M  V30 28335 H 1166.91 6.90926 -1.82021 0
M  V30 28336 H 1168.74 8.90873 -1.62657 0
M  V30 28337 P 1166.87 8.03563 -3.84925 0
M  V30 28338 O 1166.65 8.85821 -5.0569 0
M  V30 28339 O 1166.08 8.41101 -2.65469 0
M  V30 28340 O 1166.62 6.4965 -4.18908 0
M  V30 28341 C 1167.56 5.81037 -5.05421 0
M  V30 28342 C 1166.83 4.78366 -5.89277 0
M  V30 28343 O 1166.62 3.58302 -5.08433 0
M  V30 28344 C 1165.43 5.17448 -6.36119 0
M  V30 28345 O 1165.04 4.45271 -7.53232 0
M  V30 28346 C 1164.55 4.74639 -5.19936 0
M  V30 28347 C 1165.26 3.49432 -4.70418 0
M  V30 28348 N 1165.21 3.31776 -3.22945 0
M  V30 28349 H 1168.05 6.54213 -5.71376 0
M  V30 28350 H 1168.32 5.30492 -4.44033 0
M  V30 28351 H 1167.46 4.55889 -6.76652 0
M  V30 28352 P 1163.49 4.23843 -7.83734 0
M  V30 28353 O 1163.27 4.19407 -9.29784 0
M  V30 28354 O 1162.7 5.24426 -7.09156 0
M  V30 28355 O 1163.24 2.7935 -7.20758 0
M  V30 28356 C 1164.18 1.7299 -7.50419 0
M  V30 28357 C 1163.45 0.406376 -7.57911 0
M  V30 28358 O 1163.24 -0.0897726 -6.21935 0
M  V30 28359 C 1162.05 0.447224 -8.1878 0
M  V30 28360 O 1161.66 -0.825065 -8.71101 0
M  V30 28361 C 1161.17 0.783801 -6.99623 0
M  V30 28362 C 1161.88 0.0619192 -5.85967 0
M  V30 28363 N 1161.83 0.790462 -4.56202 0
M  V30 28364 H 1164.67 1.93423 -8.4679 0
M  V30 28365 H 1164.94 1.68852 -6.70877 0
M  V30 28366 H 1164.08 -0.289041 -8.15388 0
M  V30 28367 H 1161.42 -0.927006 -5.72848 0
M  V30 28368 H 1161.14 1.86973 -6.82036 0
M  V30 28369 H 1160.15 0.403953 -7.13357 0
M  V30 28370 H 1161.98 1.20599 -8.97534 0
M  V30 28371 P 1160.11 -1.17771 -8.83182 0
M  V30 28372 O 1159.89 -2.07206 -9.98732 0
M  V30 28373 O 1159.32 0.0743816 -8.81969 0
M  V30 28374 O 1159.86 -1.97652 -7.47304 0
M  V30 28375 C 1160.8 -3.01133 -7.08783 0
M  V30 28376 C 1160.07 -4.12613 -6.37049 0
M  V30 28377 O 1159.86 -3.72827 -4.97879 0
M  V30 28378 C 1158.67 -4.45085 -6.88694 0
M  V30 28379 O 1158.28 -5.7877 -6.5624 0
M  V30 28380 C 1157.79 -3.47817 -6.12078 0
M  V30 28381 C 1158.5 -3.39414 -4.77697 0
M  V30 28382 N 1158.45 -2.04615 -4.15333 0
M  V30 28383 H 1161.29 -3.41248 -7.98759 0
M  V30 28384 H 1161.56 -2.5837 -6.41742 0
M  V30 28385 H 1160.7 -5.02657 -6.42673 0
M  V30 28386 P 1156.73 -6.144 -6.45285 0
M  V30 28387 O 1156.51 -7.54673 -6.86199 0
M  V30 28388 O 1155.94 -5.12391 -7.179 0
M  V30 28389 O 1156.48 -5.99158 -4.88404 0
M  V30 28390 C 1157.42 -6.60234 -3.96415 0
M  V30 28391 C 1156.69 -7.08259 -2.72856 0
M  V30 28392 O 1156.48 -5.9427 -1.83651 0
M  V30 28393 C 1155.29 -7.64886 -2.9555 0
M  V30 28394 O 1154.9 -8.53963 -1.90717 0
M  V30 28395 C 1154.41 -6.4116 -2.90739 0
M  V30 28396 C 1155.12 -5.55375 -1.86963 0
M  V30 28397 N 1155.07 -4.09664 -2.15742 0
M  V30 28398 H 1157.91 -7.45574 -4.45629 0
M  V30 28399 H 1158.18 -5.86232 -3.67314 0
M  V30 28400 H 1157.32 -7.84412 -2.24479 0
M  V30 28401 P 1153.35 -8.7635 -1.60911 0
M  V30 28402 O 1153.13 -10.1388 -1.11561 0
M  V30 28403 O 1152.56 -8.36503 -2.79617 0
M  V30 28404 O 1153.1 -7.71806 -0.42951 0
M  V30 28405 C 1154.04 -7.67148 0.673689 0
M  V30 28406 C 1153.31 -7.33374 1.95559 0
M  V30 28407 O 1153.1 -5.88721 2.00726 0
M  V30 28408 C 1151.91 -7.92526 2.10483 0
M  V30 28409 O 1151.52 -8.02971 3.47653 0
M  V30 28410 C 1151.03 -6.89602 1.41652 0
M  V30 28411 C 1151.74 -5.59201 1.75185 0
M  V30 28412 N 1151.69 -4.58235 0.662552 0
M  V30 28413 H 1154.53 -8.65116 0.777161 0
M  V30 28414 H 1154.8 -6.90173 0.474152 0
M  V30 28415 H 1153.94 -7.66548 2.79458 0
M  V30 28416 P 1149.97 -8.03563 3.84925 0
M  V30 28417 O 1149.75 -8.85821 5.0569 0
M  V30 28418 O 1149.18 -8.41101 2.65469 0
M  V30 28419 O 1149.72 -6.4965 4.18908 0
M  V30 28420 C 1150.66 -5.81037 5.05421 0
M  V30 28421 C 1149.93 -4.78366 5.89277 0
M  V30 28422 O 1149.72 -3.58302 5.08433 0
M  V30 28423 C 1148.53 -5.17448 6.36119 0
M  V30 28424 O 1148.14 -4.45271 7.53232 0
M  V30 28425 C 1147.65 -4.74639 5.19936 0
M  V30 28426 C 1148.36 -3.49432 4.70418 0
M  V30 28427 N 1148.31 -3.31776 3.22945 0
M  V30 28428 H 1151.15 -6.54213 5.71376 0
M  V30 28429 H 1151.42 -5.30492 4.44033 0
M  V30 28430 H 1150.56 -4.55889 6.76652 0
M  V30 28431 P 1146.59 -4.23843 7.83734 0
M  V30 28432 O 1146.37 -4.19407 9.29784 0
M  V30 28433 O 1145.8 -5.24426 7.09156 0
M  V30 28434 O 1146.34 -2.7935 7.20758 0
M  V30 28435 C 1147.28 -1.7299 7.50419 0
M  V30 28436 C 1146.55 -0.406376 7.57911 0
M  V30 28437 O 1146.34 0.0897726 6.21935 0
M  V30 28438 C 1145.15 -0.447224 8.1878 0
M  V30 28439 O 1144.76 0.825065 8.71101 0
M  V30 28440 C 1144.27 -0.783801 6.99623 0
M  V30 28441 C 1144.98 -0.0619192 5.85967 0
M  V30 28442 N 1144.93 -0.7859 4.56281 0
M  V30 28443 H 1147.77 -1.93423 8.4679 0
M  V30 28444 H 1148.04 -1.68181 6.71046 0
M  V30 28445 H 1147.18 0.289041 8.15388 0
M  V30 28446 P 1143.21 1.17771 8.83182 0
M  V30 28447 O 1142.99 2.07206 9.98732 0
M  V30 28448 O 1142.42 -0.0743816 8.81969 0
M  V30 28449 O 1142.96 1.97652 7.47304 0
M  V30 28450 C 1143.9 3.01055 7.08599 0
M  V30 28451 C 1143.17 4.12613 6.37049 0
M  V30 28452 O 1142.96 3.72827 4.97879 0
M  V30 28453 C 1141.77 4.45719 6.88164 0
M  V30 28454 O 1141.38 5.7877 6.5624 0
M  V30 28455 C 1140.89 3.47768 6.11991 0
M  V30 28456 C 1141.6 3.39356 4.77615 0
M  V30 28457 N 1141.55 2.04571 4.15244 0
M  V30 28458 C 1141.4 1.98587 2.78314 0
M  V30 28459 O 1141.31 2.98134 2.08835 0
M  V30 28460 N 1141.36 0.714467 2.24925 0
M  V30 28461 C 1141.45 -0.470001 2.94169 0
M  V30 28462 C 1141.6 -0.312541 4.36783 0
M  V30 28463 C 1141.65 0.914512 4.92583 0
M  V30 28464 H 1144.39 3.41169 7.98575 0
M  V30 28465 H 1144.66 2.58295 6.41556 0
M  V30 28466 H 1143.8 5.02657 6.42673 0
M  V30 28467 H 1141.14 4.11637 4.08885 0
M  V30 28468 H 1140.86 2.49626 6.61679 0
M  V30 28469 H 1139.87 3.86566 6.00778 0
M  V30 28470 H 1141.7 4.29943 7.96918 0
M  V30 28471 H 1141.78 1.00937 6.00374 0
M  V30 28472 P 1139.83 6.144 6.45285 0
M  V30 28473 O 1139.61 7.54673 6.86199 0
M  V30 28474 O 1139.04 5.12391 7.179 0
M  V30 28475 O 1139.58 5.99158 4.88404 0
M  V30 28476 C 1140.52 6.60234 3.96415 0
M  V30 28477 C 1139.79 7.08259 2.72856 0
M  V30 28478 O 1139.58 5.9427 1.83651 0
M  V30 28479 C 1138.39 7.64886 2.9555 0
M  V30 28480 O 1138 8.53963 1.90717 0
M  V30 28481 C 1137.51 6.4116 2.90739 0
M  V30 28482 C 1138.22 5.55375 1.86963 0
M  V30 28483 N 1138.17 4.09448 2.16152 0
M  V30 28484 H 1141.01 7.45574 4.45629 0
M  V30 28485 H 1141.28 5.85864 3.679 0
M  V30 28486 H 1140.42 7.84412 2.24479 0
M  V30 28487 H 1137.76 5.73457 0.888562 0
M  V30 28488 H 1137.48 5.90877 3.88583 0
M  V30 28489 H 1136.49 6.6596 2.58858 0
M  V30 28490 H 1138.32 8.16339 3.92049 0
M  V30 28491 P 1136.45 8.7635 1.60911 0
M  V30 28492 O 1136.23 10.1388 1.11561 0
M  V30 28493 O 1135.66 8.36503 2.79617 0
M  V30 28494 O 1136.2 7.71806 0.42951 0
M  V30 28495 C 1137.14 7.66948 -0.673514 0
M  V30 28496 C 1136.41 7.33374 -1.95559 0
M  V30 28497 O 1136.2 5.88721 -2.00726 0
M  V30 28498 C 1135.01 7.92218 -2.1125 0
M  V30 28499 O 1134.62 8.02971 -3.47653 0
M  V30 28500 C 1134.13 6.89504 -1.41631 0
M  V30 28501 C 1134.84 5.59106 -1.75155 0
M  V30 28502 N 1134.79 4.58136 -0.662409 0
M  V30 28503 C 1134.64 3.26059 -1.02863 0
M  V30 28504 O 1134.55 2.90743 -2.19009 0
M  V30 28505 N 1134.6 2.35995 0.0155585 0
M  V30 28506 C 1134.69 2.65248 1.35603 0
M  V30 28507 O 1134.64 1.75605 2.20651 0
M  V30 28508 C 1134.84 4.05747 1.64698 0
M  V30 28509 C 1134.95 4.42345 3.09553 0
M  V30 28510 C 1134.89 4.96734 0.652411 0
M  V30 28511 H 1137.63 8.64917 -0.776982 0
M  V30 28512 H 1137.9 6.89974 -0.474015 0
M  V30 28513 H 1137.04 7.66548 -2.79458 0
M  V30 28514 H 1134.38 5.16076 -2.65138 0
M  V30 28515 H 1134.1 7.06433 -0.329384 0
M  V30 28516 H 1133.11 6.90829 -1.81996 0
M  V30 28517 H 1134.94 8.90774 -1.62639 0
M  V30 28518 H 1135.02 6.02181 0.895285 0
M  V30 28519 H 1133.99 4.80252 3.45468 0
M  V30 28520 H 1135.72 5.20015 3.22119 0
M  V30 28521 H 1135.23 3.53269 3.67833 0
M  V30 28522 H 1134.5 1.39558 -0.227499 0
M  V30 28523 P 1133.07 8.03563 -3.84925 0
M  V30 28524 O 1132.85 8.85821 -5.0569 0
M  V30 28525 O 1132.28 8.41101 -2.65469 0
M  V30 28526 O 1132.82 6.4965 -4.18908 0
M  V30 28527 C 1133.76 5.81037 -5.05421 0
M  V30 28528 C 1133.03 4.78366 -5.89277 0
M  V30 28529 O 1132.82 3.58302 -5.08433 0
M  V30 28530 C 1131.63 5.17448 -6.36119 0
M  V30 28531 O 1131.24 4.45271 -7.53232 0
M  V30 28532 C 1130.75 4.74639 -5.19936 0
M  V30 28533 C 1131.46 3.49432 -4.70418 0
M  V30 28534 N 1131.41 3.32099 -3.22613 0
M  V30 28535 H 1134.25 6.54213 -5.71376 0
M  V30 28536 H 1134.52 5.30936 -4.43503 0
M  V30 28537 H 1133.66 4.55889 -6.76652 0
M  V30 28538 H 1131 2.61715 -5.17932 0
M  V30 28539 H 1130.72 5.52155 -4.41878 0
M  V30 28540 H 1129.73 4.51981 -5.53374 0
M  V30 28541 H 1131.56 6.25124 -6.55234 0
M  V30 28542 P 1129.69 4.23843 -7.83734 0
M  V30 28543 O 1129.47 4.19407 -9.29784 0
M  V30 28544 O 1128.9 5.24426 -7.09156 0
M  V30 28545 O 1129.44 2.7935 -7.20758 0
M  V30 28546 C 1130.38 1.7299 -7.50419 0
M  V30 28547 C 1129.65 0.406376 -7.57911 0
M  V30 28548 O 1129.44 -0.0897726 -6.21935 0
M  V30 28549 C 1128.25 0.447224 -8.1878 0
M  V30 28550 O 1127.86 -0.825065 -8.71101 0
M  V30 28551 C 1127.37 0.783801 -6.99623 0
M  V30 28552 C 1128.08 0.0619192 -5.85967 0
M  V30 28553 N 1128.03 0.7859 -4.56281 0
M  V30 28554 H 1130.87 1.93423 -8.4679 0
M  V30 28555 H 1131.14 1.68181 -6.71046 0
M  V30 28556 H 1130.28 -0.289041 -8.15388 0
M  V30 28557 P 1126.31 -1.17771 -8.83182 0
M  V30 28558 O 1126.09 -2.07206 -9.98732 0
M  V30 28559 O 1125.52 0.0743816 -8.81969 0
M  V30 28560 O 1126.06 -1.97652 -7.47304 0
M  V30 28561 C 1127 -3.01133 -7.08783 0
M  V30 28562 C 1126.27 -4.12613 -6.37049 0
M  V30 28563 O 1126.06 -3.72827 -4.97879 0
M  V30 28564 C 1124.87 -4.45085 -6.88694 0
M  V30 28565 O 1124.48 -5.7877 -6.5624 0
M  V30 28566 C 1123.99 -3.47817 -6.12078 0
M  V30 28567 C 1124.7 -3.39414 -4.77697 0
M  V30 28568 N 1124.65 -2.04615 -4.15333 0
M  V30 28569 H 1127.49 -3.41248 -7.98759 0
M  V30 28570 H 1127.76 -2.5837 -6.41742 0
M  V30 28571 H 1126.9 -5.02657 -6.42673 0
M  V30 28572 P 1122.93 -6.144 -6.45285 0
M  V30 28573 O 1122.71 -7.54673 -6.86199 0
M  V30 28574 O 1122.14 -5.12391 -7.179 0
M  V30 28575 O 1122.68 -5.99158 -4.88404 0
M  V30 28576 C 1123.62 -6.60234 -3.96415 0
M  V30 28577 C 1122.89 -7.08259 -2.72856 0
M  V30 28578 O 1122.68 -5.9427 -1.83651 0
M  V30 28579 C 1121.49 -7.64886 -2.9555 0
M  V30 28580 O 1121.1 -8.53963 -1.90717 0
M  V30 28581 C 1120.61 -6.4116 -2.90739 0
M  V30 28582 C 1121.32 -5.55375 -1.86963 0
M  V30 28583 N 1121.27 -4.09664 -2.15742 0
M  V30 28584 H 1124.11 -7.45574 -4.45629 0
M  V30 28585 H 1124.38 -5.86232 -3.67314 0
M  V30 28586 H 1123.52 -7.84412 -2.24479 0
M  V30 28587 P 1119.55 -8.7635 -1.60911 0
M  V30 28588 O 1119.33 -10.1388 -1.11561 0
M  V30 28589 O 1118.76 -8.36503 -2.79617 0
M  V30 28590 O 1119.3 -7.71806 -0.42951 0
M  V30 28591 C 1120.24 -7.67148 0.673689 0
M  V30 28592 C 1119.51 -7.33374 1.95559 0
M  V30 28593 O 1119.3 -5.88721 2.00726 0
M  V30 28594 C 1118.11 -7.92526 2.10483 0
M  V30 28595 O 1117.72 -8.02971 3.47653 0
M  V30 28596 C 1117.23 -6.89602 1.41652 0
M  V30 28597 C 1117.94 -5.59201 1.75185 0
M  V30 28598 N 1117.89 -4.58235 0.662552 0
M  V30 28599 H 1120.73 -8.65116 0.777161 0
M  V30 28600 H 1121 -6.90173 0.474152 0
M  V30 28601 H 1120.14 -7.66548 2.79458 0
M  V30 28602 P 1116.17 -8.03563 3.84925 0
M  V30 28603 O 1115.95 -8.85821 5.0569 0
M  V30 28604 O 1115.38 -8.41101 2.65469 0
M  V30 28605 O 1115.92 -6.4965 4.18908 0
M  V30 28606 C 1116.86 -5.80886 5.05289 0
M  V30 28607 C 1116.13 -4.78366 5.89277 0
M  V30 28608 O 1115.92 -3.58302 5.08433 0
M  V30 28609 C 1114.73 -5.16748 6.36559 0
M  V30 28610 O 1114.34 -4.45271 7.53232 0
M  V30 28611 C 1113.85 -4.74572 5.19863 0
M  V30 28612 C 1114.56 -3.49373 4.70338 0
M  V30 28613 N 1114.51 -3.31704 3.22876 0
M  V30 28614 C 1114.36 -2.03326 2.74871 0
M  V30 28615 O 1114.27 -1.06486 3.48076 0
M  V30 28616 N 1114.32 -1.91838 1.37456 0
M  V30 28617 C 1114.41 -2.94295 0.462035 0
M  V30 28618 C 1114.56 -4.25064 1.05249 0
M  V30 28619 C 1114.61 -4.40214 2.39192 0
M  V30 28620 H 1117.35 -6.54063 5.71245 0
M  V30 28621 H 1117.62 -5.30339 4.43905 0
M  V30 28622 H 1116.76 -4.55889 6.76652 0
M  V30 28623 H 1114.1 -2.6167 5.17842 0
M  V30 28624 H 1113.82 -5.52155 4.41878 0
M  V30 28625 H 1112.83 -4.51918 5.53297 0
M  V30 28626 H 1114.66 -6.25055 6.55162 0
M  V30 28627 H 1114.74 -5.39798 2.81523 0
M  V30 28628 P 1112.79 -4.23843 7.83734 0
M  V30 28629 O 1112.57 -4.19407 9.29784 0
M  V30 28630 O 1112 -5.24426 7.09156 0
M  V30 28631 O 1112.54 -2.7935 7.20758 0
M  V30 28632 C 1113.48 -1.7299 7.50419 0
M  V30 28633 C 1112.75 -0.406376 7.57911 0
M  V30 28634 O 1112.54 0.0897726 6.21935 0
M  V30 28635 C 1111.35 -0.447224 8.1878 0
M  V30 28636 O 1110.96 0.825065 8.71101 0
M  V30 28637 C 1110.47 -0.783801 6.99623 0
M  V30 28638 C 1111.18 -0.0619192 5.85967 0
M  V30 28639 N 1111.13 -0.7859 4.56281 0
M  V30 28640 C 1111.21 -2.14308 4.31736 0
M  V30 28641 N 1111.13 -2.46106 3.05116 0
M  V30 28642 C 1110.99 -1.23422 2.4014 0
M  V30 28643 C 1110.86 -0.938381 1.02409 0
M  V30 28644 N 1110.74 0.444647 0.805413 0
M  V30 28645 C 1110.74 1.40829 1.79435 0
M  V30 28646 N 1110.61 2.67213 1.38558 0
M  V30 28647 N 1110.87 1.12947 3.09005 0
M  V30 28648 C 1110.99 -0.204887 3.32369 0
M  V30 28649 H 1113.97 -1.93423 8.4679 0
M  V30 28650 H 1114.24 -1.68181 6.71046 0
M  V30 28651 H 1113.38 0.289041 8.15388 0
M  V30 28652 P 1109.41 1.17771 8.83182 0
M  V30 28653 O 1109.19 2.07206 9.98732 0
M  V30 28654 O 1108.62 -0.0743816 8.81969 0
M  V30 28655 O 1109.16 1.97652 7.47304 0
M  V30 28656 C 1110.1 3.01133 7.08783 0
M  V30 28657 C 1109.37 4.12613 6.37049 0
M  V30 28658 O 1109.16 3.72827 4.97879 0
M  V30 28659 C 1107.97 4.45085 6.88694 0
M  V30 28660 O 1107.58 5.7877 6.5624 0
M  V30 28661 C 1107.09 3.47817 6.12078 0
M  V30 28662 C 1107.8 3.39414 4.77697 0
M  V30 28663 N 1107.75 2.04615 4.15333 0
M  V30 28664 H 1110.59 3.41248 7.98759 0
M  V30 28665 H 1110.86 2.5837 6.41742 0
M  V30 28666 H 1110 5.02657 6.42673 0
M  V30 28667 P 1106.03 6.144 6.45285 0
M  V30 28668 O 1105.81 7.54673 6.86199 0
M  V30 28669 O 1105.24 5.12391 7.179 0
M  V30 28670 O 1105.78 5.99158 4.88404 0
M  V30 28671 C 1106.72 6.60234 3.96415 0
M  V30 28672 C 1105.99 7.08259 2.72856 0
M  V30 28673 O 1105.78 5.9427 1.83651 0
M  V30 28674 C 1104.59 7.64886 2.9555 0
M  V30 28675 O 1104.2 8.53963 1.90717 0
M  V30 28676 C 1103.71 6.4116 2.90739 0
M  V30 28677 C 1104.42 5.55375 1.86963 0
M  V30 28678 N 1104.37 4.09448 2.16152 0
M  V30 28679 H 1107.21 7.45574 4.45629 0
M  V30 28680 H 1107.48 5.85864 3.679 0
M  V30 28681 H 1106.62 7.84412 2.24479 0
M  V30 28682 H 1103.96 5.73457 0.888562 0
M  V30 28683 H 1103.68 5.90877 3.88583 0
M  V30 28684 H 1102.69 6.6596 2.58858 0
M  V30 28685 H 1104.52 8.16339 3.92049 0
M  V30 28686 P 1102.65 8.7635 1.60911 0
M  V30 28687 O 1102.43 10.1388 1.11561 0
M  V30 28688 O 1101.86 8.36503 2.79617 0
M  V30 28689 O 1102.4 7.71806 0.42951 0
M  V30 28690 C 1103.34 7.67148 -0.673689 0
M  V30 28691 C 1102.61 7.33374 -1.95559 0
M  V30 28692 O 1102.4 5.88721 -2.00726 0
M  V30 28693 C 1101.21 7.92526 -2.10483 0
M  V30 28694 O 1100.82 8.02971 -3.47653 0
M  V30 28695 C 1100.33 6.89602 -1.41652 0
M  V30 28696 C 1101.04 5.59201 -1.75185 0
M  V30 28697 N 1100.99 4.58235 -0.662552 0
M  V30 28698 H 1103.83 8.65116 -0.777161 0
M  V30 28699 H 1104.1 6.90173 -0.474152 0
M  V30 28700 H 1103.24 7.66548 -2.79458 0
M  V30 28701 P 1099.27 8.03563 -3.84925 0
M  V30 28702 O 1099.05 8.85821 -5.0569 0
M  V30 28703 O 1098.48 8.41101 -2.65469 0
M  V30 28704 O 1099.02 6.4965 -4.18908 0
M  V30 28705 C 1099.96 5.81037 -5.05421 0
M  V30 28706 C 1099.23 4.78366 -5.89277 0
M  V30 28707 O 1099.02 3.58302 -5.08433 0
M  V30 28708 C 1097.83 5.17448 -6.36119 0
M  V30 28709 O 1097.44 4.45271 -7.53232 0
M  V30 28710 C 1096.95 4.74639 -5.19936 0
M  V30 28711 C 1097.66 3.49432 -4.70418 0
M  V30 28712 N 1097.61 3.31776 -3.22945 0
M  V30 28713 H 1100.45 6.54213 -5.71376 0
M  V30 28714 H 1100.72 5.30492 -4.44033 0
M  V30 28715 H 1099.86 4.55889 -6.76652 0
M  V30 28716 P 1095.89 4.23843 -7.83734 0
M  V30 28717 O 1095.67 4.19407 -9.29784 0
M  V30 28718 O 1095.1 5.24426 -7.09156 0
M  V30 28719 O 1095.64 2.7935 -7.20758 0
M  V30 28720 C 1096.58 1.7299 -7.50419 0
M  V30 28721 C 1095.85 0.406376 -7.57911 0
M  V30 28722 O 1095.64 -0.0897726 -6.21935 0
M  V30 28723 C 1094.45 0.447224 -8.1878 0
M  V30 28724 O 1094.06 -0.825065 -8.71101 0
M  V30 28725 C 1093.57 0.783801 -6.99623 0
M  V30 28726 C 1094.28 0.0619192 -5.85967 0
M  V30 28727 N 1094.23 0.7859 -4.56281 0
M  V30 28728 H 1097.07 1.93423 -8.4679 0
M  V30 28729 H 1097.34 1.68181 -6.71046 0
M  V30 28730 H 1096.48 -0.289041 -8.15388 0
M  V30 28731 P 1092.51 -1.17771 -8.83182 0
M  V30 28732 O 1092.29 -2.07206 -9.98732 0
M  V30 28733 O 1091.72 0.0743816 -8.81969 0
M  V30 28734 O 1092.26 -1.97652 -7.47304 0
M  V30 28735 C 1093.2 -3.01133 -7.08783 0
M  V30 28736 C 1092.47 -4.12613 -6.37049 0
M  V30 28737 O 1092.26 -3.72827 -4.97879 0
M  V30 28738 C 1091.07 -4.45085 -6.88694 0
M  V30 28739 O 1090.68 -5.7877 -6.5624 0
M  V30 28740 C 1090.19 -3.47817 -6.12078 0
M  V30 28741 C 1090.9 -3.39414 -4.77697 0
M  V30 28742 N 1090.85 -2.04615 -4.15333 0
M  V30 28743 C 1090.93 -0.803897 -4.75249 0
M  V30 28744 N 1090.85 0.197615 -3.91502 0
M  V30 28745 C 1090.71 -0.413002 -2.66823 0
M  V30 28746 C 1090.58 0.157221 -1.38007 0
M  V30 28747 N 1090.46 -0.833136 -0.390236 0
M  V30 28748 C 1090.46 -2.19402 -0.623885 0
M  V30 28749 N 1090.33 -2.97622 0.449677 0
M  V30 28750 N 1090.59 -2.73005 -1.83601 0
M  V30 28751 C 1090.71 -1.78786 -2.80935 0
M  V30 28752 H 1093.69 -3.41248 -7.98759 0
M  V30 28753 H 1093.96 -2.5837 -6.41742 0
M  V30 28754 H 1093.1 -5.02657 -6.42673 0
M  V30 28755 P 1089.13 -6.144 -6.45285 0
M  V30 28756 O 1088.91 -7.54673 -6.86199 0
M  V30 28757 O 1088.34 -5.12391 -7.179 0
M  V30 28758 O 1088.88 -5.99158 -4.88404 0
M  V30 28759 C 1089.82 -6.60234 -3.96415 0
M  V30 28760 C 1089.09 -7.08259 -2.72856 0
M  V30 28761 O 1088.88 -5.9427 -1.83651 0
M  V30 28762 C 1087.69 -7.64886 -2.9555 0
M  V30 28763 O 1087.3 -8.53963 -1.90717 0
M  V30 28764 C 1086.81 -6.4116 -2.90739 0
M  V30 28765 C 1087.52 -5.55375 -1.86963 0
M  V30 28766 N 1087.47 -4.09448 -2.16152 0
M  V30 28767 H 1090.31 -7.45574 -4.45629 0
M  V30 28768 H 1090.58 -5.85864 -3.679 0
M  V30 28769 H 1089.72 -7.84412 -2.24479 0
M  V30 28770 H 1087.06 -5.73457 -0.888562 0
M  V30 28771 H 1086.78 -5.90877 -3.88583 0
M  V30 28772 H 1085.79 -6.6596 -2.58858 0
M  V30 28773 H 1087.62 -8.16339 -3.92049 0
M  V30 28774 P 1085.75 -8.7635 -1.60911 0
M  V30 28775 O 1085.53 -10.1388 -1.11561 0
M  V30 28776 O 1084.96 -8.36503 -2.79617 0
M  V30 28777 O 1085.5 -7.71806 -0.42951 0
M  V30 28778 C 1086.44 -7.67148 0.673689 0
M  V30 28779 C 1085.71 -7.33374 1.95559 0
M  V30 28780 O 1085.5 -5.88721 2.00726 0
M  V30 28781 C 1084.31 -7.92526 2.10483 0
M  V30 28782 O 1083.92 -8.02971 3.47653 0
M  V30 28783 C 1083.43 -6.89602 1.41652 0
M  V30 28784 C 1084.14 -5.59201 1.75185 0
M  V30 28785 N 1084.09 -4.58235 0.662552 0
M  V30 28786 H 1086.93 -8.65116 0.777161 0
M  V30 28787 H 1087.2 -6.90173 0.474152 0
M  V30 28788 H 1086.34 -7.66548 2.79458 0
M  V30 28789 P 1082.37 -8.03563 3.84925 0
M  V30 28790 O 1082.15 -8.85821 5.0569 0
M  V30 28791 O 1081.58 -8.41101 2.65469 0
M  V30 28792 O 1082.12 -6.4965 4.18908 0
M  V30 28793 C 1083.06 -5.81037 5.05421 0
M  V30 28794 C 1082.33 -4.78366 5.89277 0
M  V30 28795 O 1082.12 -3.58302 5.08433 0
M  V30 28796 C 1080.93 -5.17448 6.36119 0
M  V30 28797 O 1080.54 -4.45271 7.53232 0
M  V30 28798 C 1080.05 -4.74639 5.19936 0
M  V30 28799 C 1080.76 -3.49432 4.70418 0
M  V30 28800 N 1080.71 -3.31776 3.22945 0
M  V30 28801 C 1080.79 -4.27147 2.23315 0
M  V30 28802 N 1080.71 -3.78447 1.02186 0
M  V30 28803 C 1080.57 -2.41001 1.21732 0
M  V30 28804 C 1080.44 -1.36111 0.27694 0
M  V30 28805 N 1080.32 -0.113683 0.912949 0
M  V30 28806 C 1080.32 0.0846396 2.27943 0
M  V30 28807 N 1080.19 1.34737 2.6916 0
M  V30 28808 N 1080.45 -0.902521 3.16379 0
M  V30 28809 C 1080.57 -2.11937 2.56849 0
M  V30 28810 H 1083.55 -6.54213 5.71376 0
M  V30 28811 H 1083.82 -5.30492 4.44033 0
M  V30 28812 H 1082.96 -4.55889 6.76652 0
M  V30 28813 P 1078.99 -4.23843 7.83734 0
M  V30 28814 O 1078.77 -4.19407 9.29784 0
M  V30 28815 O 1078.2 -5.24426 7.09156 0
M  V30 28816 O 1078.74 -2.7935 7.20758 0
M  V30 28817 C 1079.68 -1.72945 7.50224 0
M  V30 28818 C 1078.95 -0.406376 7.57911 0
M  V30 28819 O 1078.74 0.0897726 6.21935 0
M  V30 28820 C 1077.55 -0.438983 8.18724 0
M  V30 28821 O 1077.16 0.825065 8.71101 0
M  V30 28822 C 1076.67 -0.783689 6.99524 0
M  V30 28823 C 1077.38 -0.0619086 5.85867 0
M  V30 28824 N 1077.33 -0.78573 4.56183 0
M  V30 28825 C 1077.18 -0.0292889 3.41887 0
M  V30 28826 O 1077.09 1.18445 3.4419 0
M  V30 28827 N 1077.14 -0.744061 2.23964 0
M  V30 28828 C 1077.23 -2.10932 2.10362 0
M  V30 28829 C 1077.38 -2.8202 3.34994 0
M  V30 28830 C 1077.43 -2.15547 4.52261 0
M  V30 28831 H 1080.17 -1.93379 8.46595 0
M  V30 28832 H 1080.44 -1.68132 6.70852 0
M  V30 28833 H 1079.58 0.289041 8.15388 0
M  V30 28834 H 1076.92 0.926847 5.72749 0
M  V30 28835 H 1076.64 -1.86973 6.82036 0
M  V30 28836 H 1075.65 -0.403896 7.13257 0
M  V30 28837 H 1077.48 -1.20585 8.97435 0
M  V30 28838 H 1077.56 -2.71231 5.45042 0
M  V30 28839 P 1075.61 1.17771 8.83182 0
M  V30 28840 O 1075.39 2.07206 9.98732 0
M  V30 28841 O 1074.82 -0.0743816 8.81969 0
M  V30 28842 O 1075.36 1.97652 7.47304 0
M  V30 28843 C 1076.3 3.01133 7.08783 0
M  V30 28844 C 1075.57 4.12613 6.37049 0
M  V30 28845 O 1075.36 3.72827 4.97879 0
M  V30 28846 C 1074.17 4.45085 6.88694 0
M  V30 28847 O 1073.78 5.7877 6.5624 0
M  V30 28848 C 1073.29 3.47817 6.12078 0
M  V30 28849 C 1074 3.39414 4.77697 0
M  V30 28850 N 1073.95 2.04615 4.15333 0
M  V30 28851 H 1076.79 3.41248 7.98759 0
M  V30 28852 H 1077.06 2.5837 6.41742 0
M  V30 28853 H 1076.2 5.02657 6.42673 0
M  V30 28854 P 1072.23 6.144 6.45285 0
M  V30 28855 O 1072.01 7.54673 6.86199 0
M  V30 28856 O 1071.44 5.12391 7.179 0
M  V30 28857 O 1071.98 5.99158 4.88404 0
M  V30 28858 C 1072.92 6.60234 3.96415 0
M  V30 28859 C 1072.19 7.08259 2.72856 0
M  V30 28860 O 1071.98 5.9427 1.83651 0
M  V30 28861 C 1070.79 7.64886 2.9555 0
M  V30 28862 O 1070.4 8.53963 1.90717 0
M  V30 28863 C 1069.91 6.4116 2.90739 0
M  V30 28864 C 1070.62 5.55375 1.86963 0
M  V30 28865 N 1070.57 4.09664 2.15742 0
M  V30 28866 H 1073.41 7.45574 4.45629 0
M  V30 28867 H 1073.68 5.86232 3.67314 0
M  V30 28868 H 1072.82 7.84412 2.24479 0
M  V30 28869 P 1068.85 8.7635 1.60911 0
M  V30 28870 O 1068.63 10.1388 1.11561 0
M  V30 28871 O 1068.06 8.36503 2.79617 0
M  V30 28872 O 1068.6 7.71806 0.42951 0
M  V30 28873 C 1069.54 7.67148 -0.673689 0
M  V30 28874 C 1068.81 7.33374 -1.95559 0
M  V30 28875 O 1068.6 5.88721 -2.00726 0
M  V30 28876 C 1067.41 7.92526 -2.10483 0
M  V30 28877 O 1067.02 8.02971 -3.47653 0
M  V30 28878 C 1066.53 6.89602 -1.41652 0
M  V30 28879 C 1067.24 5.59201 -1.75185 0
M  V30 28880 N 1067.19 4.58235 -0.662552 0
M  V30 28881 H 1070.03 8.65116 -0.777161 0
M  V30 28882 H 1070.3 6.90173 -0.474152 0
M  V30 28883 H 1069.44 7.66548 -2.79458 0
M  V30 28884 P 1065.47 8.03563 -3.84925 0
M  V30 28885 O 1065.25 8.85821 -5.0569 0
M  V30 28886 O 1064.68 8.41101 -2.65469 0
M  V30 28887 O 1065.22 6.4965 -4.18908 0
M  V30 28888 C 1066.16 5.81037 -5.05421 0
M  V30 28889 C 1065.43 4.78366 -5.89277 0
M  V30 28890 O 1065.22 3.58302 -5.08433 0
M  V30 28891 C 1064.03 5.17448 -6.36119 0
M  V30 28892 O 1063.64 4.45271 -7.53232 0
M  V30 28893 C 1063.15 4.74639 -5.19936 0
M  V30 28894 C 1063.86 3.49432 -4.70418 0
M  V30 28895 N 1063.81 3.32099 -3.22613 0
M  V30 28896 H 1066.65 6.54213 -5.71376 0
M  V30 28897 H 1066.92 5.30936 -4.43503 0
M  V30 28898 H 1066.06 4.55889 -6.76652 0
M  V30 28899 H 1063.4 2.61715 -5.17932 0
M  V30 28900 H 1063.12 5.52155 -4.41878 0
M  V30 28901 H 1062.13 4.51981 -5.53374 0
M  V30 28902 H 1063.96 6.25124 -6.55234 0
M  V30 28903 P 1062.09 4.23843 -7.83734 0
M  V30 28904 O 1061.87 4.19407 -9.29784 0
M  V30 28905 O 1061.3 5.24426 -7.09156 0
M  V30 28906 O 1061.84 2.7935 -7.20758 0
M  V30 28907 C 1062.78 1.7299 -7.50419 0
M  V30 28908 C 1062.05 0.406376 -7.57911 0
M  V30 28909 O 1061.84 -0.0897726 -6.21935 0
M  V30 28910 C 1060.65 0.447224 -8.1878 0
M  V30 28911 O 1060.26 -0.825065 -8.71101 0
M  V30 28912 C 1059.77 0.783801 -6.99623 0
M  V30 28913 C 1060.48 0.0619192 -5.85967 0
M  V30 28914 N 1060.43 0.7859 -4.56281 0
M  V30 28915 H 1063.27 1.93423 -8.4679 0
M  V30 28916 H 1063.54 1.68181 -6.71046 0
M  V30 28917 H 1062.68 -0.289041 -8.15388 0
M  V30 28918 P 1058.71 -1.17771 -8.83182 0
M  V30 28919 O 1058.49 -2.07206 -9.98732 0
M  V30 28920 O 1057.92 0.0743816 -8.81969 0
M  V30 28921 O 1058.46 -1.97652 -7.47304 0
M  V30 28922 C 1059.4 -3.01055 -7.08599 0
M  V30 28923 C 1058.67 -4.12613 -6.37049 0
M  V30 28924 O 1058.46 -3.72827 -4.97879 0
M  V30 28925 C 1057.27 -4.45719 -6.88164 0
M  V30 28926 O 1056.88 -5.7877 -6.5624 0
M  V30 28927 C 1056.39 -3.47768 -6.11991 0
M  V30 28928 C 1057.1 -3.39356 -4.77615 0
M  V30 28929 N 1057.05 -2.04571 -4.15244 0
M  V30 28930 C 1056.9 -1.98587 -2.78314 0
M  V30 28931 O 1056.81 -2.98134 -2.08835 0
M  V30 28932 N 1056.86 -0.714467 -2.24925 0
M  V30 28933 C 1056.95 0.470001 -2.94169 0
M  V30 28934 C 1057.1 0.312541 -4.36783 0
M  V30 28935 C 1057.15 -0.914512 -4.92583 0
M  V30 28936 H 1059.89 -3.41169 -7.98575 0
M  V30 28937 H 1060.16 -2.58295 -6.41556 0
M  V30 28938 H 1059.3 -5.02657 -6.42673 0
M  V30 28939 H 1056.64 -4.11637 -4.08885 0
M  V30 28940 H 1056.36 -2.49626 -6.61679 0
M  V30 28941 H 1055.37 -3.86566 -6.00778 0
M  V30 28942 H 1057.2 -4.29943 -7.96918 0
M  V30 28943 H 1057.28 -1.00937 -6.00374 0
M  V30 28944 P 1055.33 -6.144 -6.45285 0
M  V30 28945 O 1055.11 -7.54673 -6.86199 0
M  V30 28946 O 1054.54 -5.12391 -7.179 0
M  V30 28947 O 1055.08 -5.99158 -4.88404 0
M  V30 28948 C 1056.02 -6.60234 -3.96415 0
M  V30 28949 C 1055.29 -7.08259 -2.72856 0
M  V30 28950 O 1055.08 -5.9427 -1.83651 0
M  V30 28951 C 1053.89 -7.64886 -2.9555 0
M  V30 28952 O 1053.5 -8.53963 -1.90717 0
M  V30 28953 C 1053.01 -6.4116 -2.90739 0
M  V30 28954 C 1053.72 -5.55375 -1.86963 0
M  V30 28955 N 1053.67 -4.09664 -2.15742 0
M  V30 28956 H 1056.51 -7.45574 -4.45629 0
M  V30 28957 H 1056.78 -5.86232 -3.67314 0
M  V30 28958 H 1055.92 -7.84412 -2.24479 0
M  V30 28959 P 1051.95 -8.7635 -1.60911 0
M  V30 28960 O 1051.73 -10.1388 -1.11561 0
M  V30 28961 O 1051.16 -8.36503 -2.79617 0
M  V30 28962 O 1051.7 -7.71806 -0.42951 0
M  V30 28963 C 1052.64 -7.67148 0.673689 0
M  V30 28964 C 1051.91 -7.33374 1.95559 0
M  V30 28965 O 1051.7 -5.88721 2.00726 0
M  V30 28966 C 1050.51 -7.92526 2.10483 0
M  V30 28967 O 1050.12 -8.02971 3.47653 0
M  V30 28968 C 1049.63 -6.89602 1.41652 0
M  V30 28969 C 1050.34 -5.59201 1.75185 0
M  V30 28970 N 1050.29 -4.58301 0.657969 0
M  V30 28971 H 1053.13 -8.65116 0.777161 0
M  V30 28972 H 1053.4 -6.9022 0.46725 0
M  V30 28973 H 1052.54 -7.66548 2.79458 0
M  V30 28974 H 1049.88 -5.16165 2.65183 0
M  V30 28975 H 1049.6 -7.06433 0.329384 0
M  V30 28976 H 1048.61 -6.90926 1.82021 0
M  V30 28977 H 1050.44 -8.90873 1.62657 0
M  V30 28978 P 1048.57 -8.03563 3.84925 0
M  V30 28979 O 1048.35 -8.85821 5.0569 0
M  V30 28980 O 1047.78 -8.41101 2.65469 0
M  V30 28981 O 1048.32 -6.4965 4.18908 0
M  V30 28982 C 1049.26 -5.81037 5.05421 0
M  V30 28983 C 1048.53 -4.78366 5.89277 0
M  V30 28984 O 1048.32 -3.58302 5.08433 0
M  V30 28985 C 1047.13 -5.17448 6.36119 0
M  V30 28986 O 1046.74 -4.45271 7.53232 0
M  V30 28987 C 1046.25 -4.74639 5.19936 0
M  V30 28988 C 1046.96 -3.49432 4.70418 0
M  V30 28989 N 1046.91 -3.32099 3.22613 0
M  V30 28990 H 1049.75 -6.54213 5.71376 0
M  V30 28991 H 1050.02 -5.30936 4.43503 0
M  V30 28992 H 1049.16 -4.55889 6.76652 0
M  V30 28993 H 1046.5 -2.61715 5.17932 0
M  V30 28994 H 1046.22 -5.52155 4.41878 0
M  V30 28995 H 1045.23 -4.51981 5.53374 0
M  V30 28996 H 1047.06 -6.25124 6.55234 0
M  V30 28997 P 1045.19 -4.23843 7.83734 0
M  V30 28998 O 1044.97 -4.19407 9.29784 0
M  V30 28999 O 1044.4 -5.24426 7.09156 0
M  V30 29000 O 1044.94 -2.7935 7.20758 0
M  V30 29001 C 1045.88 -1.7299 7.50419 0
M  V30 29002 C 1045.15 -0.406376 7.57911 0
M  V30 29003 O 1044.94 0.0897726 6.21935 0
M  V30 29004 C 1043.75 -0.447224 8.1878 0
M  V30 29005 O 1043.36 0.825065 8.71101 0
M  V30 29006 C 1042.87 -0.783801 6.99623 0
M  V30 29007 C 1043.58 -0.0619192 5.85967 0
M  V30 29008 N 1043.53 -0.7859 4.56281 0
M  V30 29009 H 1046.37 -1.93423 8.4679 0
M  V30 29010 H 1046.64 -1.68181 6.71046 0
M  V30 29011 H 1045.78 0.289041 8.15388 0
M  V30 29012 P 1041.81 1.17771 8.83182 0
M  V30 29013 O 1041.59 2.07206 9.98732 0
M  V30 29014 O 1041.02 -0.0743816 8.81969 0
M  V30 29015 O 1041.56 1.97652 7.47304 0
M  V30 29016 C 1042.5 3.01133 7.08783 0
M  V30 29017 C 1041.77 4.12613 6.37049 0
M  V30 29018 O 1041.56 3.72827 4.97879 0
M  V30 29019 C 1040.37 4.45085 6.88694 0
M  V30 29020 O 1039.98 5.7877 6.5624 0
M  V30 29021 C 1039.49 3.47817 6.12078 0
M  V30 29022 C 1040.2 3.39414 4.77697 0
M  V30 29023 N 1040.15 2.04615 4.15333 0
M  V30 29024 H 1042.99 3.41248 7.98759 0
M  V30 29025 H 1043.26 2.5837 6.41742 0
M  V30 29026 H 1042.4 5.02657 6.42673 0
M  V30 29027 P 1038.43 6.144 6.45285 0
M  V30 29028 O 1038.21 7.54673 6.86199 0
M  V30 29029 O 1037.64 5.12391 7.179 0
M  V30 29030 O 1038.18 5.99236 4.88467 0
M  V30 29031 C 1039.12 6.60234 3.96415 0
M  V30 29032 C 1038.39 7.08079 2.736 0
M  V30 29033 O 1038.18 5.94365 1.8368 0
M  V30 29034 C 1036.99 7.64886 2.9555 0
M  V30 29035 O 1036.6 8.5406 1.90739 0
M  V30 29036 C 1036.11 6.4116 2.90739 0
M  V30 29037 C 1036.82 5.55375 1.86963 0
M  V30 29038 N 1036.77 4.09664 2.15742 0
M  V30 29039 C 1036.62 3.22231 1.08477 0
M  V30 29040 O 1036.53 3.68951 -0.0600489 0
M  V30 29041 N 1036.57 1.76692 1.48799 0
M  V30 29042 C 1036.67 1.41695 2.57602 0
M  V30 29043 N 1036.62 0.107296 2.75791 0
M  V30 29044 C 1036.82 2.29178 3.69733 0
M  V30 29045 C 1036.87 3.62753 3.42653 0
M  V30 29046 H 1039.61 7.45488 4.45578 0
M  V30 29047 H 1039.88 5.86232 3.67314 0
M  V30 29048 H 1039.02 7.84508 2.24507 0
M  V30 29049 H 1036.36 5.73556 0.888715 0
M  V30 29050 H 1036.08 5.9096 3.88638 0
M  V30 29051 H 1035.09 6.66053 2.58894 0
M  V30 29052 H 1036.92 8.16339 3.92049 0
M  V30 29053 H 1037 4.33052 4.24913 0
M  V30 29054 H 1036.89 1.9103 4.71577 0
M  V30 29055 H 1036.51 -0.521221 1.95056 0
M  V30 29056 H 1036.7 -0.286429 3.70695 0
M  V30 29057 P 1035.05 8.7635 1.60911 0
M  V30 29058 O 1034.83 10.1388 1.11561 0
M  V30 29059 O 1034.26 8.36503 2.79617 0
M  V30 29060 O 1034.8 7.71806 0.42951 0
M  V30 29061 C 1035.74 7.67148 -0.673689 0
M  V30 29062 C 1035.01 7.33374 -1.95559 0
M  V30 29063 O 1034.8 5.88721 -2.00726 0
M  V30 29064 C 1033.61 7.92526 -2.10483 0
M  V30 29065 O 1033.22 8.02971 -3.47653 0
M  V30 29066 C 1032.73 6.89602 -1.41652 0
M  V30 29067 C 1033.44 5.59201 -1.75185 0
M  V30 29068 N 1033.39 4.58301 -0.657969 0
M  V30 29069 H 1036.23 8.65116 -0.777161 0
M  V30 29070 H 1036.5 6.9022 -0.46725 0
M  V30 29071 H 1035.64 7.66548 -2.79458 0
M  V30 29072 H 1032.98 5.16165 -2.65183 0
M  V30 29073 H 1032.7 7.06433 -0.329384 0
M  V30 29074 H 1031.71 6.90926 -1.82021 0
M  V30 29075 H 1033.54 8.90873 -1.62657 0
M  V30 29076 P 1031.67 8.03563 -3.84925 0
M  V30 29077 O 1031.45 8.85821 -5.0569 0
M  V30 29078 O 1030.88 8.41101 -2.65469 0
M  V30 29079 O 1031.42 6.4965 -4.18908 0
M  V30 29080 C 1032.36 5.81037 -5.05421 0
M  V30 29081 C 1031.63 4.78366 -5.89277 0
M  V30 29082 O 1031.42 3.58302 -5.08433 0
M  V30 29083 C 1030.23 5.17448 -6.36119 0
M  V30 29084 O 1029.84 4.45271 -7.53232 0
M  V30 29085 C 1029.35 4.74639 -5.19936 0
M  V30 29086 C 1030.06 3.49432 -4.70418 0
M  V30 29087 N 1030.01 3.31776 -3.22945 0
M  V30 29088 C 1030.09 4.27147 -2.23315 0
M  V30 29089 N 1030.01 3.78447 -1.02186 0
M  V30 29090 C 1029.87 2.41001 -1.21732 0
M  V30 29091 C 1029.74 1.36111 -0.27694 0
M  V30 29092 N 1029.62 0.113683 -0.912949 0
M  V30 29093 C 1029.62 -0.0846396 -2.27943 0
M  V30 29094 N 1029.49 -1.34737 -2.6916 0
M  V30 29095 N 1029.75 0.902521 -3.16379 0
M  V30 29096 C 1029.87 2.11937 -2.56849 0
M  V30 29097 H 1032.85 6.54213 -5.71376 0
M  V30 29098 H 1033.12 5.30492 -4.44033 0
M  V30 29099 H 1032.26 4.55889 -6.76652 0
M  V30 29100 P 1028.29 4.23843 -7.83734 0
M  V30 29101 O 1028.07 4.19407 -9.29784 0
M  V30 29102 O 1027.5 5.24426 -7.09156 0
M  V30 29103 O 1028.04 2.7935 -7.20758 0
M  V30 29104 C 1028.98 1.7299 -7.50419 0
M  V30 29105 C 1028.25 0.406376 -7.57911 0
M  V30 29106 O 1028.04 -0.0897726 -6.21935 0
M  V30 29107 C 1026.85 0.447224 -8.1878 0
M  V30 29108 O 1026.46 -0.825065 -8.71101 0
M  V30 29109 C 1025.97 0.783801 -6.99623 0
M  V30 29110 C 1026.68 0.0619192 -5.85967 0
M  V30 29111 N 1026.63 0.790462 -4.56202 0
M  V30 29112 H 1029.47 1.93423 -8.4679 0
M  V30 29113 H 1029.74 1.68852 -6.70877 0
M  V30 29114 H 1028.88 -0.289041 -8.15388 0
M  V30 29115 H 1026.22 -0.927006 -5.72848 0
M  V30 29116 H 1025.94 1.86973 -6.82036 0
M  V30 29117 H 1024.95 0.403953 -7.13357 0
M  V30 29118 H 1026.78 1.20599 -8.97534 0
M  V30 29119 P 1024.91 -1.17771 -8.83182 0
M  V30 29120 O 1024.69 -2.07206 -9.98732 0
M  V30 29121 O 1024.12 0.0743816 -8.81969 0
M  V30 29122 O 1024.66 -1.97652 -7.47304 0
M  V30 29123 C 1025.6 -3.01133 -7.08783 0
M  V30 29124 C 1024.87 -4.12613 -6.37049 0
M  V30 29125 O 1024.66 -3.72827 -4.97879 0
M  V30 29126 C 1023.47 -4.45085 -6.88694 0
M  V30 29127 O 1023.08 -5.7877 -6.5624 0
M  V30 29128 C 1022.59 -3.47817 -6.12078 0
M  V30 29129 C 1023.3 -3.39414 -4.77697 0
M  V30 29130 N 1023.25 -2.04615 -4.15333 0
M  V30 29131 H 1026.09 -3.41248 -7.98759 0
M  V30 29132 H 1026.36 -2.5837 -6.41742 0
M  V30 29133 H 1025.5 -5.02657 -6.42673 0
M  V30 29134 P 1021.53 -6.144 -6.45285 0
M  V30 29135 O 1021.31 -7.54673 -6.86199 0
M  V30 29136 O 1020.74 -5.12391 -7.179 0
M  V30 29137 O 1021.28 -5.99158 -4.88404 0
M  V30 29138 C 1022.22 -6.60234 -3.96415 0
M  V30 29139 C 1021.49 -7.08259 -2.72856 0
M  V30 29140 O 1021.28 -5.9427 -1.83651 0
M  V30 29141 C 1020.09 -7.64886 -2.9555 0
M  V30 29142 O 1019.7 -8.53963 -1.90717 0
M  V30 29143 C 1019.21 -6.4116 -2.90739 0
M  V30 29144 C 1019.92 -5.55375 -1.86963 0
M  V30 29145 N 1019.87 -4.09448 -2.16152 0
M  V30 29146 H 1022.71 -7.45574 -4.45629 0
M  V30 29147 H 1022.98 -5.85864 -3.679 0
M  V30 29148 H 1022.12 -7.84412 -2.24479 0
M  V30 29149 H 1019.46 -5.73457 -0.888562 0
M  V30 29150 H 1019.18 -5.90877 -3.88583 0
M  V30 29151 H 1018.19 -6.6596 -2.58858 0
M  V30 29152 H 1020.02 -8.16339 -3.92049 0
M  V30 29153 P 1018.15 -8.7635 -1.60911 0
M  V30 29154 O 1017.93 -10.1388 -1.11561 0
M  V30 29155 O 1017.36 -8.36503 -2.79617 0
M  V30 29156 O 1017.9 -7.71906 -0.429565 0
M  V30 29157 C 1018.84 -7.67148 0.673689 0
M  V30 29158 C 1018.11 -7.33666 1.94851 0
M  V30 29159 O 1017.9 -5.88816 2.00759 0
M  V30 29160 C 1016.71 -7.92526 2.10483 0
M  V30 29161 O 1016.32 -8.03063 3.47693 0
M  V30 29162 C 1015.83 -6.89602 1.41652 0
M  V30 29163 C 1016.54 -5.59201 1.75185 0
M  V30 29164 N 1016.49 -4.58235 0.662552 0
M  V30 29165 C 1016.34 -3.24451 1.01643 0
M  V30 29166 O 1016.25 -2.94958 2.21722 0
M  V30 29167 N 1016.29 -2.30408 -0.165238 0
M  V30 29168 C 1016.39 -2.66048 -1.25118 0
M  V30 29169 N 1016.34 -1.70787 -2.16813 0
M  V30 29170 C 1016.54 -4.02732 -1.64413 0
M  V30 29171 C 1016.59 -4.9488 -0.63991 0
M  V30 29172 H 1019.33 -8.65017 0.777072 0
M  V30 29173 H 1019.6 -6.90173 0.474152 0
M  V30 29174 H 1018.74 -7.66642 2.79492 0
M  V30 29175 H 1016.08 -5.16254 2.65229 0
M  V30 29176 H 1015.8 -7.06532 0.329431 0
M  V30 29177 H 1014.81 -6.91023 1.82047 0
M  V30 29178 H 1016.65 -8.90873 1.62657 0
M  V30 29179 H 1016.72 -6.00104 -0.892197 0
M  V30 29180 H 1016.62 -4.31733 -2.69229 0
M  V30 29181 H 1016.23 -0.724835 -1.8844 0
M  V30 29182 H 1016.42 -1.94716 -3.16734 0
M  V30 29183 P 1014.77 -8.03563 3.84925 0
M  V30 29184 O 1014.55 -8.85821 5.0569 0
M  V30 29185 O 1013.98 -8.41101 2.65469 0
M  V30 29186 O 1014.52 -6.4965 4.18908 0
M  V30 29187 C 1015.46 -5.81037 5.05421 0
M  V30 29188 C 1014.73 -4.78366 5.89277 0
M  V30 29189 O 1014.52 -3.58302 5.08433 0
M  V30 29190 C 1013.33 -5.17448 6.36119 0
M  V30 29191 O 1012.94 -4.45271 7.53232 0
M  V30 29192 C 1012.45 -4.74639 5.19936 0
M  V30 29193 C 1013.16 -3.49432 4.70418 0
M  V30 29194 N 1013.11 -3.31776 3.22945 0
M  V30 29195 H 1015.95 -6.54213 5.71376 0
M  V30 29196 H 1016.23 -5.30492 4.44033 0
M  V30 29197 H 1015.36 -4.55889 6.76652 0
M  V30 29198 P 1011.39 -4.23843 7.83734 0
M  V30 29199 O 1011.17 -4.19407 9.29784 0
M  V30 29200 O 1010.6 -5.24426 7.09156 0
M  V30 29201 O 1011.14 -2.7935 7.20758 0
M  V30 29202 C 1012.08 -1.7299 7.50419 0
M  V30 29203 C 1011.35 -0.406376 7.57911 0
M  V30 29204 O 1011.14 0.0897726 6.21935 0
M  V30 29205 C 1009.95 -0.447224 8.1878 0
M  V30 29206 O 1009.56 0.825065 8.71101 0
M  V30 29207 C 1009.07 -0.783801 6.99623 0
M  V30 29208 C 1009.78 -0.0619192 5.85967 0
M  V30 29209 N 1009.73 -0.7859 4.56281 0
M  V30 29210 H 1012.57 -1.93423 8.4679 0
M  V30 29211 H 1012.85 -1.68181 6.71046 0
M  V30 29212 H 1011.98 0.289041 8.15388 0
M  V30 29213 P 1008.01 1.17771 8.83182 0
M  V30 29214 O 1007.79 2.07206 9.98732 0
M  V30 29215 O 1007.22 -0.0743816 8.81969 0
M  V30 29216 O 1007.76 1.97652 7.47304 0
M  V30 29217 C 1008.7 3.01133 7.08783 0
M  V30 29218 C 1007.97 4.12613 6.37049 0
M  V30 29219 O 1007.76 3.72827 4.97879 0
M  V30 29220 C 1006.57 4.45085 6.88694 0
M  V30 29221 O 1006.18 5.7877 6.5624 0
M  V30 29222 C 1005.69 3.47817 6.12078 0
M  V30 29223 C 1006.4 3.39414 4.77697 0
M  V30 29224 N 1006.35 2.04615 4.15333 0
M  V30 29225 H 1009.19 3.41248 7.98759 0
M  V30 29226 H 1009.47 2.5837 6.41742 0
M  V30 29227 H 1008.6 5.02657 6.42673 0
M  V30 29228 P 1004.63 6.144 6.45285 0
M  V30 29229 O 1004.41 7.54673 6.86199 0
M  V30 29230 O 1003.84 5.12391 7.179 0
M  V30 29231 O 1004.38 5.99158 4.88404 0
M  V30 29232 C 1005.32 6.60234 3.96415 0
M  V30 29233 C 1004.59 7.08259 2.72856 0
M  V30 29234 O 1004.38 5.9427 1.83651 0
M  V30 29235 C 1003.19 7.64886 2.9555 0
M  V30 29236 O 1002.8 8.53963 1.90717 0
M  V30 29237 C 1002.31 6.4116 2.90739 0
M  V30 29238 C 1003.02 5.55375 1.86963 0
M  V30 29239 N 1002.97 4.09664 2.15742 0
M  V30 29240 H 1005.81 7.45574 4.45629 0
M  V30 29241 H 1006.09 5.86232 3.67314 0
M  V30 29242 H 1005.22 7.84412 2.24479 0
M  V30 29243 P 1001.25 8.7635 1.60911 0
M  V30 29244 O 1001.03 10.1388 1.11561 0
M  V30 29245 O 1000.46 8.36503 2.79617 0
M  V30 29246 O 1001 7.71806 0.42951 0
M  V30 29247 C 1001.94 7.67148 -0.673689 0
M  V30 29248 C 1001.21 7.33374 -1.95559 0
M  V30 29249 O 1001 5.88721 -2.00726 0
M  V30 29250 C 999.814 7.92526 -2.10483 0
M  V30 29251 O 999.424 8.02971 -3.47653 0
M  V30 29252 C 998.934 6.89602 -1.41652 0
M  V30 29253 C 999.644 5.59201 -1.75185 0
M  V30 29254 N 999.594 4.58235 -0.662552 0
M  V30 29255 H 1002.43 8.65116 -0.777161 0
M  V30 29256 H 1002.71 6.90173 -0.474152 0
M  V30 29257 H 1001.84 7.66548 -2.79458 0
M  V30 29258 P 997.874 8.03563 -3.84925 0
M  V30 29259 O 997.654 8.85821 -5.0569 0
M  V30 29260 O 997.084 8.41101 -2.65469 0
M  V30 29261 O 997.624 6.4965 -4.18908 0
M  V30 29262 C 998.564 5.81037 -5.05421 0
M  V30 29263 C 997.834 4.78366 -5.89277 0
M  V30 29264 O 997.624 3.58302 -5.08433 0
M  V30 29265 C 996.434 5.17448 -6.36119 0
M  V30 29266 O 996.044 4.45271 -7.53232 0
M  V30 29267 C 995.554 4.74639 -5.19936 0
M  V30 29268 C 996.264 3.49432 -4.70418 0
M  V30 29269 N 996.214 3.31776 -3.22945 0
M  V30 29270 H 999.053 6.54213 -5.71376 0
M  V30 29271 H 999.325 5.30492 -4.44033 0
M  V30 29272 H 998.457 4.55889 -6.76652 0
M  V30 29273 P 994.494 4.23843 -7.83734 0
M  V30 29274 O 994.274 4.19407 -9.29784 0
M  V30 29275 O 993.704 5.24426 -7.09156 0
M  V30 29276 O 994.244 2.7935 -7.20758 0
M  V30 29277 C 995.184 1.7299 -7.50419 0
M  V30 29278 C 994.454 0.406376 -7.57911 0
M  V30 29279 O 994.244 -0.0897726 -6.21935 0
M  V30 29280 C 993.054 0.447224 -8.1878 0
M  V30 29281 O 992.664 -0.825065 -8.71101 0
M  V30 29282 C 992.174 0.783801 -6.99623 0
M  V30 29283 C 992.884 0.0619192 -5.85967 0
M  V30 29284 N 992.834 0.790462 -4.56202 0
M  V30 29285 H 995.673 1.93423 -8.4679 0
M  V30 29286 H 995.945 1.68852 -6.70877 0
M  V30 29287 H 995.077 -0.289041 -8.15388 0
M  V30 29288 H 992.422 -0.927006 -5.72848 0
M  V30 29289 H 992.142 1.86973 -6.82036 0
M  V30 29290 H 991.151 0.403953 -7.13357 0
M  V30 29291 H 992.985 1.20599 -8.97534 0
M  V30 29292 P 991.114 -1.17771 -8.83182 0
M  V30 29293 O 990.894 -2.07206 -9.98732 0
M  V30 29294 O 990.324 0.0743816 -8.81969 0
M  V30 29295 O 990.864 -1.97652 -7.47304 0
M  V30 29296 C 991.804 -3.01133 -7.08783 0
M  V30 29297 C 991.074 -4.12613 -6.37049 0
M  V30 29298 O 990.864 -3.72827 -4.97879 0
M  V30 29299 C 989.674 -4.45085 -6.88694 0
M  V30 29300 O 989.284 -5.7877 -6.5624 0
M  V30 29301 C 988.794 -3.47817 -6.12078 0
M  V30 29302 C 989.504 -3.39414 -4.77697 0
M  V30 29303 N 989.454 -2.04615 -4.15333 0
M  V30 29304 H 992.293 -3.41248 -7.98759 0
M  V30 29305 H 992.565 -2.5837 -6.41742 0
M  V30 29306 H 991.697 -5.02657 -6.42673 0
M  V30 29307 P 987.734 -6.144 -6.45285 0
M  V30 29308 O 987.514 -7.54673 -6.86199 0
M  V30 29309 O 986.944 -5.12391 -7.179 0
M  V30 29310 O 987.484 -5.99158 -4.88404 0
M  V30 29311 C 988.424 -6.60234 -3.96415 0
M  V30 29312 C 987.694 -7.08259 -2.72856 0
M  V30 29313 O 987.484 -5.9427 -1.83651 0
M  V30 29314 C 986.294 -7.64886 -2.9555 0
M  V30 29315 O 985.904 -8.53963 -1.90717 0
M  V30 29316 C 985.414 -6.4116 -2.90739 0
M  V30 29317 C 986.124 -5.55375 -1.86963 0
M  V30 29318 N 986.074 -4.09664 -2.15742 0
M  V30 29319 C 986.154 -3.44381 -3.37233 0
M  V30 29320 N 986.074 -2.14131 -3.28347 0
M  V30 29321 C 985.934 -1.90247 -1.91588 0
M  V30 29322 C 985.804 -0.683992 -1.20892 0
M  V30 29323 N 985.684 -0.903396 0.173998 0
M  V30 29324 C 985.684 -2.14171 0.784879 0
M  V30 29325 N 985.554 -2.1435 2.11317 0
M  V30 29326 N 985.814 -3.28784 0.119316 0
M  V30 29327 C 985.934 -3.0977 -1.22194 0
M  V30 29328 H 988.913 -7.45574 -4.45629 0
M  V30 29329 H 989.185 -5.86232 -3.67314 0
M  V30 29330 H 988.317 -7.84412 -2.24479 0
M  V30 29331 P 984.354 -8.7635 -1.60911 0
M  V30 29332 O 984.134 -10.1388 -1.11561 0
M  V30 29333 O 983.564 -8.36503 -2.79617 0
M  V30 29334 O 984.104 -7.71806 -0.42951 0
M  V30 29335 C 985.044 -7.67148 0.673689 0
M  V30 29336 C 984.314 -7.33374 1.95559 0
M  V30 29337 O 984.104 -5.88721 2.00726 0
M  V30 29338 C 982.914 -7.92526 2.10483 0
M  V30 29339 O 982.524 -8.02971 3.47653 0
M  V30 29340 C 982.034 -6.89602 1.41652 0
M  V30 29341 C 982.744 -5.59201 1.75185 0
M  V30 29342 N 982.694 -4.58301 0.657969 0
M  V30 29343 H 985.533 -8.65116 0.777161 0
M  V30 29344 H 985.805 -6.9022 0.46725 0
M  V30 29345 H 984.937 -7.66548 2.79458 0
M  V30 29346 H 982.282 -5.16165 2.65183 0
M  V30 29347 H 982.002 -7.06433 0.329384 0
M  V30 29348 H 981.011 -6.90926 1.82021 0
M  V30 29349 H 982.845 -8.90873 1.62657 0
M  V30 29350 P 980.974 -8.03563 3.84925 0
M  V30 29351 O 980.754 -8.85821 5.0569 0
M  V30 29352 O 980.184 -8.41101 2.65469 0
M  V30 29353 O 980.724 -6.4965 4.18908 0
M  V30 29354 C 981.664 -5.81037 5.05421 0
M  V30 29355 C 980.934 -4.78366 5.89277 0
M  V30 29356 O 980.724 -3.58302 5.08433 0
M  V30 29357 C 979.534 -5.17448 6.36119 0
M  V30 29358 O 979.144 -4.45271 7.53232 0
M  V30 29359 C 978.654 -4.74639 5.19936 0
M  V30 29360 C 979.364 -3.49432 4.70418 0
M  V30 29361 N 979.314 -3.31776 3.22945 0
M  V30 29362 H 982.153 -6.54213 5.71376 0
M  V30 29363 H 982.425 -5.30492 4.44033 0
M  V30 29364 H 981.557 -4.55889 6.76652 0
M  V30 29365 P 977.594 -4.23843 7.83734 0
M  V30 29366 O 977.374 -4.19407 9.29784 0
M  V30 29367 O 976.804 -5.24426 7.09156 0
M  V30 29368 O 977.344 -2.7935 7.20758 0
M  V30 29369 C 978.284 -1.7299 7.50419 0
M  V30 29370 C 977.554 -0.406376 7.57911 0
M  V30 29371 O 977.344 0.0897726 6.21935 0
M  V30 29372 C 976.154 -0.447224 8.1878 0
M  V30 29373 O 975.764 0.825065 8.71101 0
M  V30 29374 C 975.274 -0.783801 6.99623 0
M  V30 29375 C 975.984 -0.0619192 5.85967 0
M  V30 29376 N 975.934 -0.790462 4.56202 0
M  V30 29377 H 978.773 -1.93423 8.4679 0
M  V30 29378 H 979.045 -1.68852 6.70877 0
M  V30 29379 H 978.177 0.289041 8.15388 0
M  V30 29380 H 975.522 0.927006 5.72848 0
M  V30 29381 H 975.242 -1.86973 6.82036 0
M  V30 29382 H 974.251 -0.403953 7.13357 0
M  V30 29383 H 976.085 -1.20599 8.97534 0
M  V30 29384 P 974.214 1.17771 8.83182 0
M  V30 29385 O 973.994 2.07206 9.98732 0
M  V30 29386 O 973.424 -0.0743816 8.81969 0
M  V30 29387 O 973.964 1.97652 7.47304 0
M  V30 29388 C 974.904 3.01133 7.08783 0
M  V30 29389 C 974.174 4.12613 6.37049 0
M  V30 29390 O 973.964 3.72827 4.97879 0
M  V30 29391 C 972.774 4.45085 6.88694 0
M  V30 29392 O 972.384 5.7877 6.5624 0
M  V30 29393 C 971.894 3.47817 6.12078 0
M  V30 29394 C 972.604 3.39414 4.77697 0
M  V30 29395 N 972.554 2.04615 4.15333 0
M  V30 29396 C 972.634 0.803897 4.75249 0
M  V30 29397 N 972.554 -0.197615 3.91502 0
M  V30 29398 C 972.414 0.413002 2.66823 0
M  V30 29399 C 972.284 -0.157221 1.38007 0
M  V30 29400 N 972.164 0.833136 0.390236 0
M  V30 29401 C 972.164 2.19402 0.623885 0
M  V30 29402 N 972.034 2.97622 -0.449677 0
M  V30 29403 N 972.294 2.73005 1.83601 0
M  V30 29404 C 972.414 1.78786 2.80935 0
M  V30 29405 H 975.393 3.41248 7.98759 0
M  V30 29406 H 975.665 2.5837 6.41742 0
M  V30 29407 H 974.797 5.02657 6.42673 0
M  V30 29408 P 970.834 6.144 6.45285 0
M  V30 29409 O 970.614 7.54673 6.86199 0
M  V30 29410 O 970.044 5.12391 7.179 0
M  V30 29411 O 970.584 5.99158 4.88404 0
M  V30 29412 C 971.524 6.60234 3.96415 0
M  V30 29413 C 970.794 7.08259 2.72856 0
M  V30 29414 O 970.584 5.9427 1.83651 0
M  V30 29415 C 969.394 7.64886 2.9555 0
M  V30 29416 O 969.004 8.53963 1.90717 0
M  V30 29417 C 968.514 6.4116 2.90739 0
M  V30 29418 C 969.224 5.55375 1.86963 0
M  V30 29419 N 969.174 4.09448 2.16152 0
M  V30 29420 H 972.013 7.45574 4.45629 0
M  V30 29421 H 972.285 5.85864 3.679 0
M  V30 29422 H 971.417 7.84412 2.24479 0
M  V30 29423 H 968.762 5.73457 0.888562 0
M  V30 29424 H 968.482 5.90877 3.88583 0
M  V30 29425 H 967.491 6.6596 2.58858 0
M  V30 29426 H 969.325 8.16339 3.92049 0
M  V30 29427 P 967.454 8.7635 1.60911 0
M  V30 29428 O 967.234 10.1388 1.11561 0
M  V30 29429 O 966.664 8.36503 2.79617 0
M  V30 29430 O 967.204 7.71806 0.42951 0
M  V30 29431 C 968.144 7.67148 -0.673689 0
M  V30 29432 C 967.414 7.33374 -1.95559 0
M  V30 29433 O 967.204 5.88721 -2.00726 0
M  V30 29434 C 966.014 7.92526 -2.10483 0
M  V30 29435 O 965.624 8.02971 -3.47653 0
M  V30 29436 C 965.134 6.89602 -1.41652 0
M  V30 29437 C 965.844 5.59201 -1.75185 0
M  V30 29438 N 965.794 4.58235 -0.662552 0
M  V30 29439 H 968.633 8.65116 -0.777161 0
M  V30 29440 H 968.905 6.90173 -0.474152 0
M  V30 29441 H 968.037 7.66548 -2.79458 0
M  V30 29442 P 964.074 8.03563 -3.84925 0
M  V30 29443 O 963.854 8.85821 -5.0569 0
M  V30 29444 O 963.284 8.41101 -2.65469 0
M  V30 29445 O 963.824 6.4965 -4.18908 0
M  V30 29446 C 964.764 5.81037 -5.05421 0
M  V30 29447 C 964.034 4.78366 -5.89277 0
M  V30 29448 O 963.824 3.58302 -5.08433 0
M  V30 29449 C 962.634 5.17448 -6.36119 0
M  V30 29450 O 962.244 4.45271 -7.53232 0
M  V30 29451 C 961.754 4.74639 -5.19936 0
M  V30 29452 C 962.464 3.49432 -4.70418 0
M  V30 29453 N 962.414 3.31776 -3.22945 0
M  V30 29454 H 965.253 6.54213 -5.71376 0
M  V30 29455 H 965.525 5.30492 -4.44033 0
M  V30 29456 H 964.657 4.55889 -6.76652 0
M  V30 29457 P 960.694 4.23843 -7.83734 0
M  V30 29458 O 960.474 4.19407 -9.29784 0
M  V30 29459 O 959.904 5.24426 -7.09156 0
M  V30 29460 O 960.444 2.7935 -7.20758 0
M  V30 29461 C 961.384 1.7299 -7.50419 0
M  V30 29462 C 960.654 0.406376 -7.57911 0
M  V30 29463 O 960.444 -0.0897726 -6.21935 0
M  V30 29464 C 959.254 0.447224 -8.1878 0
M  V30 29465 O 958.864 -0.825065 -8.71101 0
M  V30 29466 C 958.374 0.783801 -6.99623 0
M  V30 29467 C 959.084 0.0619192 -5.85967 0
M  V30 29468 N 959.034 0.7859 -4.56281 0
M  V30 29469 H 961.873 1.93423 -8.4679 0
M  V30 29470 H 962.145 1.68181 -6.71046 0
M  V30 29471 H 961.277 -0.289041 -8.15388 0
M  V30 29472 P 957.314 -1.17771 -8.83182 0
M  V30 29473 O 957.094 -2.07206 -9.98732 0
M  V30 29474 O 956.524 0.0743816 -8.81969 0
M  V30 29475 O 957.064 -1.97652 -7.47304 0
M  V30 29476 C 958.004 -3.01133 -7.08783 0
M  V30 29477 C 957.274 -4.12613 -6.37049 0
M  V30 29478 O 957.064 -3.72827 -4.97879 0
M  V30 29479 C 955.874 -4.45085 -6.88694 0
M  V30 29480 O 955.484 -5.7877 -6.5624 0
M  V30 29481 C 954.994 -3.47817 -6.12078 0
M  V30 29482 C 955.704 -3.39414 -4.77697 0
M  V30 29483 N 955.654 -2.04199 -4.15538 0
M  V30 29484 C 955.734 -0.821545 -4.76977 0
M  V30 29485 N 955.664 0.1794 -3.94592 0
M  V30 29486 C 955.514 -0.419121 -2.70776 0
M  V30 29487 C 955.384 0.109072 -1.40577 0
M  V30 29488 N 955.374 1.4104 -1.1344 0
M  V30 29489 N 955.264 -0.764381 -0.39411 0
M  V30 29490 C 955.274 -2.06587 -0.664135 0
M  V30 29491 N 955.394 -2.67948 -1.82153 0
M  V30 29492 C 955.514 -1.77942 -2.8147 0
M  V30 29493 H 958.493 -3.41248 -7.98759 0
M  V30 29494 H 958.765 -2.57728 -6.42 0
M  V30 29495 H 957.897 -5.02657 -6.42673 0
M  V30 29496 H 955.242 -4.11708 -4.08956 0
M  V30 29497 H 954.962 -2.49626 -6.61679 0
M  V30 29498 H 953.971 -3.8662 -6.00862 0
M  V30 29499 H 955.805 -4.29991 -7.97006 0
M  V30 29500 H 955.846 -0.702451 -5.84696 0
M  V30 29501 H 955.465 2.09647 -1.89651 0
M  V30 29502 H 955.276 1.73358 -0.160575 0
M  V30 29503 H 955.168 -2.71695 0.195838 0
M  V30 29504 P 953.934 -6.144 -6.45285 0
M  V30 29505 O 953.714 -7.54673 -6.86199 0
M  V30 29506 O 953.144 -5.12391 -7.179 0
M  V30 29507 O 953.684 -5.99158 -4.88404 0
M  V30 29508 C 954.624 -6.60234 -3.96415 0
M  V30 29509 C 953.894 -7.08259 -2.72856 0
M  V30 29510 O 953.684 -5.9427 -1.83651 0
M  V30 29511 C 952.494 -7.64886 -2.9555 0
M  V30 29512 O 952.104 -8.53963 -1.90717 0
M  V30 29513 C 951.614 -6.4116 -2.90739 0
M  V30 29514 C 952.324 -5.55375 -1.86963 0
M  V30 29515 N 952.274 -4.09664 -2.15742 0
M  V30 29516 H 955.113 -7.45574 -4.45629 0
M  V30 29517 H 955.385 -5.86232 -3.67314 0
M  V30 29518 H 954.517 -7.84412 -2.24479 0
M  V30 29519 P 950.554 -8.7635 -1.60911 0
M  V30 29520 O 950.334 -10.1388 -1.11561 0
M  V30 29521 O 949.764 -8.36503 -2.79617 0
M  V30 29522 O 950.304 -7.71806 -0.42951 0
M  V30 29523 C 951.244 -7.67148 0.673689 0
M  V30 29524 C 950.514 -7.33374 1.95559 0
M  V30 29525 O 950.304 -5.88721 2.00726 0
M  V30 29526 C 949.114 -7.92526 2.10483 0
M  V30 29527 O 948.724 -8.02971 3.47653 0
M  V30 29528 C 948.234 -6.89602 1.41652 0
M  V30 29529 C 948.944 -5.59201 1.75185 0
M  V30 29530 N 948.894 -4.58301 0.657969 0
M  V30 29531 H 951.733 -8.65116 0.777161 0
M  V30 29532 H 952.005 -6.9022 0.46725 0
M  V30 29533 H 951.137 -7.66548 2.79458 0
M  V30 29534 H 948.482 -5.16165 2.65183 0
M  V30 29535 H 948.202 -7.06433 0.329384 0
M  V30 29536 H 947.211 -6.90926 1.82021 0
M  V30 29537 H 949.045 -8.90873 1.62657 0
M  V30 29538 P 947.174 -8.03563 3.84925 0
M  V30 29539 O 946.954 -8.85821 5.0569 0
M  V30 29540 O 946.384 -8.41101 2.65469 0
M  V30 29541 O 946.924 -6.4965 4.18908 0
M  V30 29542 C 947.864 -5.81037 5.05421 0
M  V30 29543 C 947.134 -4.78366 5.89277 0
M  V30 29544 O 946.924 -3.58302 5.08433 0
M  V30 29545 C 945.734 -5.17448 6.36119 0
M  V30 29546 O 945.344 -4.45271 7.53232 0
M  V30 29547 C 944.854 -4.74639 5.19936 0
M  V30 29548 C 945.564 -3.49432 4.70418 0
M  V30 29549 N 945.514 -3.31776 3.22945 0
M  V30 29550 H 948.353 -6.54213 5.71376 0
M  V30 29551 H 948.625 -5.30492 4.44033 0
M  V30 29552 H 947.757 -4.55889 6.76652 0
M  V30 29553 P 943.794 -4.23843 7.83734 0
M  V30 29554 O 943.574 -4.19407 9.29784 0
M  V30 29555 O 943.004 -5.24426 7.09156 0
M  V30 29556 O 943.544 -2.7935 7.20758 0
M  V30 29557 C 944.484 -1.7299 7.50419 0
M  V30 29558 C 943.754 -0.406376 7.57911 0
M  V30 29559 O 943.544 0.0897726 6.21935 0
M  V30 29560 C 942.354 -0.447224 8.1878 0
M  V30 29561 O 941.964 0.825065 8.71101 0
M  V30 29562 C 941.474 -0.783801 6.99623 0
M  V30 29563 C 942.184 -0.0619192 5.85967 0
M  V30 29564 N 942.134 -0.790462 4.56202 0
M  V30 29565 H 944.973 -1.93423 8.4679 0
M  V30 29566 H 945.245 -1.68852 6.70877 0
M  V30 29567 H 944.377 0.289041 8.15388 0
M  V30 29568 H 941.722 0.927006 5.72848 0
M  V30 29569 H 941.442 -1.86973 6.82036 0
M  V30 29570 H 940.451 -0.403953 7.13357 0
M  V30 29571 H 942.285 -1.20599 8.97534 0
M  V30 29572 P 940.414 1.17771 8.83182 0
M  V30 29573 O 940.194 2.07206 9.98732 0
M  V30 29574 O 939.624 -0.0743816 8.81969 0
M  V30 29575 O 940.164 1.97652 7.47304 0
M  V30 29576 C 941.104 3.01133 7.08783 0
M  V30 29577 C 940.374 4.12613 6.37049 0
M  V30 29578 O 940.164 3.72827 4.97879 0
M  V30 29579 C 938.974 4.45085 6.88694 0
M  V30 29580 O 938.584 5.7877 6.5624 0
M  V30 29581 C 938.094 3.47817 6.12078 0
M  V30 29582 C 938.804 3.39414 4.77697 0
M  V30 29583 N 938.754 2.04199 4.15538 0
M  V30 29584 H 941.593 3.41248 7.98759 0
M  V30 29585 H 941.865 2.57728 6.42 0
M  V30 29586 H 940.997 5.02657 6.42673 0
M  V30 29587 H 938.342 4.11708 4.08956 0
M  V30 29588 H 938.062 2.49626 6.61679 0
M  V30 29589 H 937.071 3.8662 6.00862 0
M  V30 29590 H 938.905 4.29991 7.97006 0
M  V30 29591 P 937.034 6.144 6.45285 0
M  V30 29592 O 936.814 7.54673 6.86199 0
M  V30 29593 O 936.244 5.12391 7.179 0
M  V30 29594 O 936.784 5.99158 4.88404 0
M  V30 29595 C 937.724 6.60234 3.96415 0
M  V30 29596 C 936.994 7.08259 2.72856 0
M  V30 29597 O 936.784 5.9427 1.83651 0
M  V30 29598 C 935.594 7.64886 2.9555 0
M  V30 29599 O 935.204 8.53963 1.90717 0
M  V30 29600 C 934.714 6.4116 2.90739 0
M  V30 29601 C 935.424 5.55375 1.86963 0
M  V30 29602 N 935.374 4.09664 2.15742 0
M  V30 29603 C 935.454 3.44381 3.37233 0
M  V30 29604 N 935.374 2.14131 3.28347 0
M  V30 29605 C 935.234 1.90247 1.91588 0
M  V30 29606 C 935.104 0.683992 1.20892 0
M  V30 29607 N 934.984 0.903396 -0.173998 0
M  V30 29608 C 934.984 2.14171 -0.784879 0
M  V30 29609 N 934.854 2.1435 -2.11317 0
M  V30 29610 N 935.114 3.28784 -0.119316 0
M  V30 29611 C 935.234 3.0977 1.22194 0
M  V30 29612 H 938.213 7.45574 4.45629 0
M  V30 29613 H 938.485 5.86232 3.67314 0
M  V30 29614 H 937.617 7.84412 2.24479 0
M  V30 29615 P 933.655 8.7635 1.60911 0
M  V30 29616 O 933.435 10.1388 1.11561 0
M  V30 29617 O 932.865 8.36503 2.79617 0
M  V30 29618 O 933.405 7.71806 0.42951 0
M  V30 29619 C 934.345 7.67148 -0.673689 0
M  V30 29620 C 933.615 7.33374 -1.95559 0
M  V30 29621 O 933.405 5.88721 -2.00726 0
M  V30 29622 C 932.215 7.92526 -2.10483 0
M  V30 29623 O 931.825 8.02971 -3.47653 0
M  V30 29624 C 931.335 6.89602 -1.41652 0
M  V30 29625 C 932.045 5.59201 -1.75185 0
M  V30 29626 N 931.995 4.58235 -0.662552 0
M  V30 29627 H 934.834 8.65116 -0.777161 0
M  V30 29628 H 935.106 6.90173 -0.474152 0
M  V30 29629 H 934.238 7.66548 -2.79458 0
M  V30 29630 P 930.275 8.03563 -3.84925 0
M  V30 29631 O 930.055 8.85821 -5.0569 0
M  V30 29632 O 929.485 8.41101 -2.65469 0
M  V30 29633 O 930.025 6.4965 -4.18908 0
M  V30 29634 C 930.965 5.81037 -5.05421 0
M  V30 29635 C 930.235 4.78366 -5.89277 0
M  V30 29636 O 930.025 3.58302 -5.08433 0
M  V30 29637 C 928.835 5.17448 -6.36119 0
M  V30 29638 O 928.445 4.45271 -7.53232 0
M  V30 29639 C 927.955 4.74639 -5.19936 0
M  V30 29640 C 928.665 3.49432 -4.70418 0
M  V30 29641 N 928.615 3.32099 -3.22613 0
M  V30 29642 H 931.454 6.54213 -5.71376 0
M  V30 29643 H 931.726 5.30936 -4.43503 0
M  V30 29644 H 930.858 4.55889 -6.76652 0
M  V30 29645 H 928.203 2.61715 -5.17932 0
M  V30 29646 H 927.923 5.52155 -4.41878 0
M  V30 29647 H 926.932 4.51981 -5.53374 0
M  V30 29648 H 928.766 6.25124 -6.55234 0
M  V30 29649 P 926.895 4.23843 -7.83734 0
M  V30 29650 O 926.675 4.19407 -9.29784 0
M  V30 29651 O 926.105 5.24426 -7.09156 0
M  V30 29652 O 926.645 2.7935 -7.20758 0
M  V30 29653 C 927.585 1.7299 -7.50419 0
M  V30 29654 C 926.855 0.406376 -7.57911 0
M  V30 29655 O 926.645 -0.0897726 -6.21935 0
M  V30 29656 C 925.455 0.447224 -8.1878 0
M  V30 29657 O 925.065 -0.825065 -8.71101 0
M  V30 29658 C 924.575 0.783801 -6.99623 0
M  V30 29659 C 925.285 0.0619192 -5.85967 0
M  V30 29660 N 925.235 0.7859 -4.56281 0
M  V30 29661 H 928.074 1.93423 -8.4679 0
M  V30 29662 H 928.346 1.68181 -6.71046 0
M  V30 29663 H 927.478 -0.289041 -8.15388 0
M  V30 29664 P 923.515 -1.17771 -8.83182 0
M  V30 29665 O 923.295 -2.07206 -9.98732 0
M  V30 29666 O 922.725 0.0743816 -8.81969 0
M  V30 29667 O 923.265 -1.97652 -7.47304 0
M  V30 29668 C 924.205 -3.01133 -7.08783 0
M  V30 29669 C 923.475 -4.12613 -6.37049 0
M  V30 29670 O 923.265 -3.72827 -4.97879 0
M  V30 29671 C 922.075 -4.45085 -6.88694 0
M  V30 29672 O 921.685 -5.7877 -6.5624 0
M  V30 29673 C 921.195 -3.47817 -6.12078 0
M  V30 29674 C 921.905 -3.39414 -4.77697 0
M  V30 29675 N 921.855 -2.04615 -4.15333 0
M  V30 29676 C 921.935 -0.803897 -4.75249 0
M  V30 29677 N 921.855 0.197615 -3.91502 0
M  V30 29678 C 921.715 -0.413002 -2.66823 0
M  V30 29679 C 921.585 0.157221 -1.38007 0
M  V30 29680 N 921.465 -0.833136 -0.390236 0
M  V30 29681 C 921.465 -2.19402 -0.623885 0
M  V30 29682 N 921.335 -2.97622 0.449677 0
M  V30 29683 N 921.595 -2.73005 -1.83601 0
M  V30 29684 C 921.715 -1.78786 -2.80935 0
M  V30 29685 H 924.694 -3.41248 -7.98759 0
M  V30 29686 H 924.966 -2.5837 -6.41742 0
M  V30 29687 H 924.098 -5.02657 -6.42673 0
M  V30 29688 P 920.135 -6.144 -6.45285 0
M  V30 29689 O 919.915 -7.54673 -6.86199 0
M  V30 29690 O 919.345 -5.12391 -7.179 0
M  V30 29691 O 919.885 -5.99158 -4.88404 0
M  V30 29692 C 920.825 -6.60234 -3.96415 0
M  V30 29693 C 920.095 -7.08259 -2.72856 0
M  V30 29694 O 919.885 -5.9427 -1.83651 0
M  V30 29695 C 918.695 -7.64886 -2.9555 0
M  V30 29696 O 918.305 -8.53963 -1.90717 0
M  V30 29697 C 917.815 -6.4116 -2.90739 0
M  V30 29698 C 918.525 -5.55375 -1.86963 0
M  V30 29699 N 918.475 -4.09448 -2.16152 0
M  V30 29700 H 921.314 -7.45574 -4.45629 0
M  V30 29701 H 921.586 -5.85864 -3.679 0
M  V30 29702 H 920.718 -7.84412 -2.24479 0
M  V30 29703 H 918.063 -5.73457 -0.888562 0
M  V30 29704 H 917.783 -5.90877 -3.88583 0
M  V30 29705 H 916.792 -6.6596 -2.58858 0
M  V30 29706 H 918.626 -8.16339 -3.92049 0
M  V30 29707 P 916.755 -8.7635 -1.60911 0
M  V30 29708 O 916.535 -10.1388 -1.11561 0
M  V30 29709 O 915.965 -8.36503 -2.79617 0
M  V30 29710 O 916.505 -7.71806 -0.42951 0
M  V30 29711 C 917.445 -7.67148 0.673689 0
M  V30 29712 C 916.715 -7.33374 1.95559 0
M  V30 29713 O 916.505 -5.88721 2.00726 0
M  V30 29714 C 915.315 -7.92526 2.10483 0
M  V30 29715 O 914.925 -8.02971 3.47653 0
M  V30 29716 C 914.435 -6.89602 1.41652 0
M  V30 29717 C 915.145 -5.59201 1.75185 0
M  V30 29718 N 915.095 -4.58235 0.662552 0
M  V30 29719 H 917.934 -8.65116 0.777161 0
M  V30 29720 H 918.206 -6.90173 0.474152 0
M  V30 29721 H 917.338 -7.66548 2.79458 0
M  V30 29722 P 913.375 -8.03563 3.84925 0
M  V30 29723 O 913.155 -8.85821 5.0569 0
M  V30 29724 O 912.585 -8.41101 2.65469 0
M  V30 29725 O 913.125 -6.4965 4.18908 0
M  V30 29726 C 914.065 -5.81037 5.05421 0
M  V30 29727 C 913.335 -4.78366 5.89277 0
M  V30 29728 O 913.125 -3.58302 5.08433 0
M  V30 29729 C 911.935 -5.17448 6.36119 0
M  V30 29730 O 911.545 -4.45271 7.53232 0
M  V30 29731 C 911.055 -4.74639 5.19936 0
M  V30 29732 C 911.765 -3.49432 4.70418 0
M  V30 29733 N 911.715 -3.31776 3.22945 0
M  V30 29734 H 914.554 -6.54213 5.71376 0
M  V30 29735 H 914.826 -5.30492 4.44033 0
M  V30 29736 H 913.958 -4.55889 6.76652 0
M  V30 29737 P 909.995 -4.23843 7.83734 0
M  V30 29738 O 909.775 -4.19407 9.29784 0
M  V30 29739 O 909.205 -5.24426 7.09156 0
M  V30 29740 O 909.745 -2.7935 7.20758 0
M  V30 29741 C 910.685 -1.7299 7.50419 0
M  V30 29742 C 909.955 -0.406376 7.57911 0
M  V30 29743 O 909.745 0.0897726 6.21935 0
M  V30 29744 C 908.555 -0.447224 8.1878 0
M  V30 29745 O 908.165 0.825065 8.71101 0
M  V30 29746 C 907.675 -0.783801 6.99623 0
M  V30 29747 C 908.385 -0.0619192 5.85967 0
M  V30 29748 N 908.335 -0.790462 4.56202 0
M  V30 29749 H 911.174 -1.93423 8.4679 0
M  V30 29750 H 911.446 -1.68852 6.70877 0
M  V30 29751 H 910.578 0.289041 8.15388 0
M  V30 29752 H 907.923 0.927006 5.72848 0
M  V30 29753 H 907.643 -1.86973 6.82036 0
M  V30 29754 H 906.652 -0.403953 7.13357 0
M  V30 29755 H 908.486 -1.20599 8.97534 0
M  V30 29756 P 906.615 1.17771 8.83182 0
M  V30 29757 O 906.395 2.07206 9.98732 0
M  V30 29758 O 905.825 -0.0743816 8.81969 0
M  V30 29759 O 906.365 1.97652 7.47304 0
M  V30 29760 C 907.305 3.01133 7.08783 0
M  V30 29761 C 906.575 4.12613 6.37049 0
M  V30 29762 O 906.365 3.72827 4.97879 0
M  V30 29763 C 905.175 4.45085 6.88694 0
M  V30 29764 O 904.785 5.7877 6.5624 0
M  V30 29765 C 904.295 3.47817 6.12078 0
M  V30 29766 C 905.005 3.39414 4.77697 0
M  V30 29767 N 904.955 2.04615 4.15333 0
M  V30 29768 H 907.794 3.41248 7.98759 0
M  V30 29769 H 908.066 2.5837 6.41742 0
M  V30 29770 H 907.198 5.02657 6.42673 0
M  V30 29771 P 903.235 6.144 6.45285 0
M  V30 29772 O 903.015 7.54673 6.86199 0
M  V30 29773 O 902.445 5.12391 7.179 0
M  V30 29774 O 902.985 5.99236 4.88467 0
M  V30 29775 C 903.925 6.60234 3.96415 0
M  V30 29776 C 903.195 7.08079 2.736 0
M  V30 29777 O 902.985 5.94365 1.8368 0
M  V30 29778 C 901.795 7.64886 2.9555 0
M  V30 29779 O 901.405 8.5406 1.90739 0
M  V30 29780 C 900.915 6.4116 2.90739 0
M  V30 29781 C 901.625 5.55375 1.86963 0
M  V30 29782 N 901.575 4.09664 2.15742 0
M  V30 29783 C 901.425 3.22231 1.08477 0
M  V30 29784 O 901.335 3.68951 -0.0600489 0
M  V30 29785 N 901.375 1.76692 1.48799 0
M  V30 29786 C 901.475 1.41695 2.57602 0
M  V30 29787 N 901.425 0.107296 2.75791 0
M  V30 29788 C 901.625 2.29178 3.69733 0
M  V30 29789 C 901.675 3.62753 3.42653 0
M  V30 29790 H 904.415 7.45488 4.45578 0
M  V30 29791 H 904.685 5.86232 3.67314 0
M  V30 29792 H 903.818 7.84508 2.24507 0
M  V30 29793 H 901.163 5.73556 0.888715 0
M  V30 29794 H 900.883 5.9096 3.88638 0
M  V30 29795 H 899.892 6.66053 2.58894 0
M  V30 29796 H 901.726 8.16339 3.92049 0
M  V30 29797 H 901.798 4.33052 4.24913 0
M  V30 29798 H 901.696 1.9103 4.71577 0
M  V30 29799 H 901.308 -0.521221 1.95056 0
M  V30 29800 H 901.504 -0.286429 3.70695 0
M  V30 29801 P 899.855 8.7635 1.60911 0
M  V30 29802 O 899.635 10.1388 1.11561 0
M  V30 29803 O 899.065 8.36503 2.79617 0
M  V30 29804 O 899.605 7.71806 0.42951 0
M  V30 29805 C 900.545 7.67148 -0.673689 0
M  V30 29806 C 899.815 7.33374 -1.95559 0
M  V30 29807 O 899.605 5.88721 -2.00726 0
M  V30 29808 C 898.415 7.92526 -2.10483 0
M  V30 29809 O 898.025 8.02971 -3.47653 0
M  V30 29810 C 897.535 6.89602 -1.41652 0
M  V30 29811 C 898.245 5.59201 -1.75185 0
M  V30 29812 N 898.195 4.58235 -0.662552 0
M  V30 29813 H 901.034 8.65116 -0.777161 0
M  V30 29814 H 901.306 6.90173 -0.474152 0
M  V30 29815 H 900.438 7.66548 -2.79458 0
M  V30 29816 P 896.475 8.03563 -3.84925 0
M  V30 29817 O 896.255 8.85821 -5.0569 0
M  V30 29818 O 895.685 8.41101 -2.65469 0
M  V30 29819 O 896.225 6.4965 -4.18908 0
M  V30 29820 C 897.165 5.81037 -5.05421 0
M  V30 29821 C 896.435 4.78366 -5.89277 0
M  V30 29822 O 896.225 3.58302 -5.08433 0
M  V30 29823 C 895.035 5.17448 -6.36119 0
M  V30 29824 O 894.645 4.45271 -7.53232 0
M  V30 29825 C 894.155 4.74639 -5.19936 0
M  V30 29826 C 894.865 3.49432 -4.70418 0
M  V30 29827 N 894.815 3.31776 -3.22945 0
M  V30 29828 H 897.654 6.54213 -5.71376 0
M  V30 29829 H 897.926 5.30492 -4.44033 0
M  V30 29830 H 897.058 4.55889 -6.76652 0
M  V30 29831 P 893.095 4.23843 -7.83734 0
M  V30 29832 O 892.875 4.19407 -9.29784 0
M  V30 29833 O 892.305 5.24426 -7.09156 0
M  V30 29834 O 892.845 2.7935 -7.20758 0
M  V30 29835 C 893.785 1.7299 -7.50419 0
M  V30 29836 C 893.055 0.406376 -7.57911 0
M  V30 29837 O 892.845 -0.0897726 -6.21935 0
M  V30 29838 C 891.655 0.447224 -8.1878 0
M  V30 29839 O 891.265 -0.825065 -8.71101 0
M  V30 29840 C 890.775 0.783801 -6.99623 0
M  V30 29841 C 891.485 0.0619192 -5.85967 0
M  V30 29842 N 891.435 0.790462 -4.56202 0
M  V30 29843 C 891.515 2.13895 -4.34171 0
M  V30 29844 N 891.445 2.46449 -3.08687 0
M  V30 29845 C 891.295 1.2525 -2.43697 0
M  V30 29846 C 891.165 0.914535 -1.07318 0
M  V30 29847 N 891.155 1.80782 -0.0887348 0
M  V30 29848 N 891.045 -0.386745 -0.768133 0
M  V30 29849 C 891.055 -1.28096 -1.75159 0
M  V30 29850 N 891.175 -1.09708 -3.04861 0
M  V30 29851 C 891.295 0.214857 -3.32306 0
M  V30 29852 H 894.274 1.93423 -8.4679 0
M  V30 29853 H 894.546 1.68852 -6.70877 0
M  V30 29854 H 893.678 -0.289041 -8.15388 0
M  V30 29855 H 891.023 -0.927006 -5.72848 0
M  V30 29856 H 890.743 1.86973 -6.82036 0
M  V30 29857 H 889.752 0.403953 -7.13357 0
M  V30 29858 H 891.586 1.20599 -8.97534 0
M  V30 29859 H 891.627 2.86846 -5.14318 0
M  V30 29860 H 891.246 2.81082 -0.302037 0
M  V30 29861 H 891.057 1.49688 0.889064 0
M  V30 29862 H 890.949 -2.31317 -1.43855 0
M  V30 29863 P 889.715 -1.17771 -8.83182 0
M  V30 29864 O 889.495 -2.07206 -9.98732 0
M  V30 29865 O 888.925 0.0743816 -8.81969 0
M  V30 29866 O 889.465 -1.97652 -7.47304 0
M  V30 29867 C 890.405 -3.01133 -7.08783 0
M  V30 29868 C 889.675 -4.12613 -6.37049 0
M  V30 29869 O 889.465 -3.72827 -4.97879 0
M  V30 29870 C 888.275 -4.45085 -6.88694 0
M  V30 29871 O 887.885 -5.7877 -6.5624 0
M  V30 29872 C 887.395 -3.47817 -6.12078 0
M  V30 29873 C 888.105 -3.39414 -4.77697 0
M  V30 29874 N 888.055 -2.04615 -4.15333 0
M  V30 29875 H 890.894 -3.41248 -7.98759 0
M  V30 29876 H 891.166 -2.5837 -6.41742 0
M  V30 29877 H 890.298 -5.02657 -6.42673 0
M  V30 29878 P 886.335 -6.144 -6.45285 0
M  V30 29879 O 886.115 -7.54673 -6.86199 0
M  V30 29880 O 885.545 -5.12391 -7.179 0
M  V30 29881 O 886.085 -5.99158 -4.88404 0
M  V30 29882 C 887.025 -6.60234 -3.96415 0
M  V30 29883 C 886.295 -7.08259 -2.72856 0
M  V30 29884 O 886.085 -5.9427 -1.83651 0
M  V30 29885 C 884.895 -7.64886 -2.9555 0
M  V30 29886 O 884.505 -8.53963 -1.90717 0
M  V30 29887 C 884.015 -6.4116 -2.90739 0
M  V30 29888 C 884.725 -5.55375 -1.86963 0
M  V30 29889 N 884.675 -4.09664 -2.15742 0
M  V30 29890 H 887.514 -7.45574 -4.45629 0
M  V30 29891 H 887.786 -5.86232 -3.67314 0
M  V30 29892 H 886.918 -7.84412 -2.24479 0
M  V30 29893 P 882.955 -8.7635 -1.60911 0
M  V30 29894 O 882.735 -10.1388 -1.11561 0
M  V30 29895 O 882.165 -8.36503 -2.79617 0
M  V30 29896 O 882.705 -7.71806 -0.42951 0
M  V30 29897 C 883.645 -7.67148 0.673689 0
M  V30 29898 C 882.915 -7.33374 1.95559 0
M  V30 29899 O 882.705 -5.88721 2.00726 0
M  V30 29900 C 881.515 -7.92526 2.10483 0
M  V30 29901 O 881.125 -8.02971 3.47653 0
M  V30 29902 C 880.635 -6.89602 1.41652 0
M  V30 29903 C 881.345 -5.59201 1.75185 0
M  V30 29904 N 881.295 -4.58235 0.662552 0
M  V30 29905 H 884.134 -8.65116 0.777161 0
M  V30 29906 H 884.406 -6.90173 0.474152 0
M  V30 29907 H 883.538 -7.66548 2.79458 0
M  V30 29908 P 879.575 -8.03563 3.84925 0
M  V30 29909 O 879.355 -8.85821 5.0569 0
M  V30 29910 O 878.785 -8.41101 2.65469 0
M  V30 29911 O 879.325 -6.4965 4.18908 0
M  V30 29912 C 880.265 -5.80886 5.05289 0
M  V30 29913 C 879.535 -4.78366 5.89277 0
M  V30 29914 O 879.325 -3.58302 5.08433 0
M  V30 29915 C 878.135 -5.16748 6.36559 0
M  V30 29916 O 877.745 -4.45271 7.53232 0
M  V30 29917 C 877.255 -4.74572 5.19863 0
M  V30 29918 C 877.965 -3.49373 4.70338 0
M  V30 29919 N 877.915 -3.31704 3.22876 0
M  V30 29920 C 877.765 -2.03326 2.74871 0
M  V30 29921 O 877.675 -1.06486 3.48076 0
M  V30 29922 N 877.725 -1.91838 1.37456 0
M  V30 29923 C 877.815 -2.94295 0.462035 0
M  V30 29924 C 877.965 -4.25064 1.05249 0
M  V30 29925 C 878.015 -4.40214 2.39192 0
M  V30 29926 H 880.756 -6.54063 5.71245 0
M  V30 29927 H 881.025 -5.30339 4.43905 0
M  V30 29928 H 880.158 -4.55889 6.76652 0
M  V30 29929 H 877.503 -2.6167 5.17842 0
M  V30 29930 H 877.224 -5.52155 4.41878 0
M  V30 29931 H 876.232 -4.51918 5.53297 0
M  V30 29932 H 878.066 -6.25055 6.55162 0
M  V30 29933 H 878.137 -5.39798 2.81523 0
M  V30 29934 P 876.195 -4.23843 7.83734 0
M  V30 29935 O 875.975 -4.19407 9.29784 0
M  V30 29936 O 875.405 -5.24426 7.09156 0
M  V30 29937 O 875.945 -2.7935 7.20758 0
M  V30 29938 C 876.885 -1.7299 7.50419 0
M  V30 29939 C 876.155 -0.406376 7.57911 0
M  V30 29940 O 875.945 0.0897726 6.21935 0
M  V30 29941 C 874.755 -0.447224 8.1878 0
M  V30 29942 O 874.365 0.825065 8.71101 0
M  V30 29943 C 873.875 -0.783801 6.99623 0
M  V30 29944 C 874.585 -0.0619192 5.85967 0
M  V30 29945 N 874.535 -0.790462 4.56202 0
M  V30 29946 H 877.374 -1.93423 8.4679 0
M  V30 29947 H 877.646 -1.68852 6.70877 0
M  V30 29948 H 876.778 0.289041 8.15388 0
M  V30 29949 H 874.123 0.927006 5.72848 0
M  V30 29950 H 873.843 -1.86973 6.82036 0
M  V30 29951 H 872.852 -0.403953 7.13357 0
M  V30 29952 H 874.686 -1.20599 8.97534 0
M  V30 29953 P 872.815 1.17771 8.83182 0
M  V30 29954 O 872.595 2.07206 9.98732 0
M  V30 29955 O 872.025 -0.0743816 8.81969 0
M  V30 29956 O 872.565 1.97678 7.474 0
M  V30 29957 C 873.505 3.01133 7.08783 0
M  V30 29958 C 872.775 4.1203 6.37546 0
M  V30 29959 O 872.565 3.72887 4.9796 0
M  V30 29960 C 871.375 4.45085 6.88694 0
M  V30 29961 O 870.985 5.78836 6.56315 0
M  V30 29962 C 870.495 3.47817 6.12078 0
M  V30 29963 C 871.205 3.39414 4.77697 0
M  V30 29964 N 871.155 2.04615 4.15333 0
M  V30 29965 C 871.005 1.96929 2.77162 0
M  V30 29966 O 870.915 3.02017 2.12006 0
M  V30 29967 N 870.955 0.55485 2.24237 0
M  V30 29968 C 871.055 -0.367808 2.9169 0
M  V30 29969 N 871.005 -1.53426 2.29427 0
M  V30 29970 C 871.205 -0.319148 4.33828 0
M  V30 29971 C 871.255 0.920672 4.90433 0
M  V30 29972 H 873.995 3.41209 7.98667 0
M  V30 29973 H 874.265 2.5837 6.41742 0
M  V30 29974 H 873.398 5.02718 6.42752 0
M  V30 29975 H 870.743 4.11779 4.09026 0
M  V30 29976 H 870.463 2.49661 6.61772 0
M  V30 29977 H 869.472 3.86674 6.00946 0
M  V30 29978 H 871.306 4.29991 7.97006 0
M  V30 29979 H 871.378 1.00589 5.98303 0
M  V30 29980 H 871.276 -1.22639 4.93799 0
M  V30 29981 H 870.888 -1.56819 1.27167 0
M  V30 29982 H 871.084 -2.41062 2.83063 0
M  V30 29983 P 869.435 6.144 6.45285 0
M  V30 29984 O 869.215 7.54673 6.86199 0
M  V30 29985 O 868.645 5.12391 7.179 0
M  V30 29986 O 869.185 5.99158 4.88404 0
M  V30 29987 C 870.125 6.60234 3.96415 0
M  V30 29988 C 869.395 7.08259 2.72856 0
M  V30 29989 O 869.185 5.9427 1.83651 0
M  V30 29990 C 867.995 7.64886 2.9555 0
M  V30 29991 O 867.605 8.53963 1.90717 0
M  V30 29992 C 867.115 6.4116 2.90739 0
M  V30 29993 C 867.825 5.55375 1.86963 0
M  V30 29994 N 867.775 4.09664 2.15742 0
M  V30 29995 C 867.855 3.44381 3.37233 0
M  V30 29996 N 867.775 2.14131 3.28347 0
M  V30 29997 C 867.635 1.90247 1.91588 0
M  V30 29998 C 867.505 0.683992 1.20892 0
M  V30 29999 N 867.385 0.903396 -0.173998 0
M  V30 30000 C 867.385 2.14171 -0.784879 0
M  V30 30001 N 867.255 2.1435 -2.11317 0
M  V30 30002 N 867.515 3.28784 -0.119316 0
M  V30 30003 C 867.635 3.0977 1.22194 0
M  V30 30004 H 870.614 7.45574 4.45629 0
M  V30 30005 H 870.886 5.86232 3.67314 0
M  V30 30006 H 870.018 7.84412 2.24479 0
M  V30 30007 P 866.055 8.7635 1.60911 0
M  V30 30008 O 865.835 10.1388 1.11561 0
M  V30 30009 O 865.265 8.36503 2.79617 0
M  V30 30010 O 865.805 7.71806 0.42951 0
M  V30 30011 C 866.745 7.67148 -0.673689 0
M  V30 30012 C 866.015 7.33374 -1.95559 0
M  V30 30013 O 865.805 5.88721 -2.00726 0
M  V30 30014 C 864.615 7.92526 -2.10483 0
M  V30 30015 O 864.225 8.02971 -3.47653 0
M  V30 30016 C 863.735 6.89602 -1.41652 0
M  V30 30017 C 864.445 5.59201 -1.75185 0
M  V30 30018 N 864.395 4.58235 -0.662552 0
M  V30 30019 H 867.234 8.65116 -0.777161 0
M  V30 30020 H 867.506 6.90173 -0.474152 0
M  V30 30021 H 866.638 7.66548 -2.79458 0
M  V30 30022 P 862.675 8.03563 -3.84925 0
M  V30 30023 O 862.455 8.85821 -5.0569 0
M  V30 30024 O 861.885 8.41101 -2.65469 0
M  V30 30025 O 862.425 6.4965 -4.18908 0
M  V30 30026 C 863.365 5.81037 -5.05421 0
M  V30 30027 C 862.635 4.78366 -5.89277 0
M  V30 30028 O 862.425 3.58302 -5.08433 0
M  V30 30029 C 861.235 5.17448 -6.36119 0
M  V30 30030 O 860.845 4.45271 -7.53232 0
M  V30 30031 C 860.355 4.74639 -5.19936 0
M  V30 30032 C 861.065 3.49432 -4.70418 0
M  V30 30033 N 861.015 3.31776 -3.22945 0
M  V30 30034 H 863.854 6.54213 -5.71376 0
M  V30 30035 H 864.126 5.30492 -4.44033 0
M  V30 30036 H 863.258 4.55889 -6.76652 0
M  V30 30037 P 859.295 4.23843 -7.83734 0
M  V30 30038 O 859.075 4.19407 -9.29784 0
M  V30 30039 O 858.505 5.24426 -7.09156 0
M  V30 30040 O 859.045 2.7935 -7.20758 0
M  V30 30041 C 859.985 1.7299 -7.50419 0
M  V30 30042 C 859.255 0.406376 -7.57911 0
M  V30 30043 O 859.045 -0.0897726 -6.21935 0
M  V30 30044 C 857.855 0.447224 -8.1878 0
M  V30 30045 O 857.465 -0.825065 -8.71101 0
M  V30 30046 C 856.975 0.783801 -6.99623 0
M  V30 30047 C 857.685 0.0619192 -5.85967 0
M  V30 30048 N 857.635 0.7859 -4.56281 0
M  V30 30049 H 860.474 1.93423 -8.4679 0
M  V30 30050 H 860.746 1.68181 -6.71046 0
M  V30 30051 H 859.878 -0.289041 -8.15388 0
M  V30 30052 P 855.915 -1.17771 -8.83182 0
M  V30 30053 O 855.695 -2.07206 -9.98732 0
M  V30 30054 O 855.125 0.0743816 -8.81969 0
M  V30 30055 O 855.665 -1.97652 -7.47304 0
M  V30 30056 C 856.605 -3.01133 -7.08783 0
M  V30 30057 C 855.875 -4.12613 -6.37049 0
M  V30 30058 O 855.665 -3.72827 -4.97879 0
M  V30 30059 C 854.475 -4.45085 -6.88694 0
M  V30 30060 O 854.085 -5.7877 -6.5624 0
M  V30 30061 C 853.595 -3.47817 -6.12078 0
M  V30 30062 C 854.305 -3.39414 -4.77697 0
M  V30 30063 N 854.255 -2.04615 -4.15333 0
M  V30 30064 H 857.094 -3.41248 -7.98759 0
M  V30 30065 H 857.366 -2.5837 -6.41742 0
M  V30 30066 H 856.498 -5.02657 -6.42673 0
M  V30 30067 P 852.535 -6.144 -6.45285 0
M  V30 30068 O 852.315 -7.54673 -6.86199 0
M  V30 30069 O 851.745 -5.12391 -7.179 0
M  V30 30070 O 852.285 -5.99158 -4.88404 0
M  V30 30071 C 853.225 -6.60234 -3.96415 0
M  V30 30072 C 852.495 -7.08259 -2.72856 0
M  V30 30073 O 852.285 -5.9427 -1.83651 0
M  V30 30074 C 851.095 -7.64886 -2.9555 0
M  V30 30075 O 850.705 -8.53963 -1.90717 0
M  V30 30076 C 850.215 -6.4116 -2.90739 0
M  V30 30077 C 850.925 -5.55375 -1.86963 0
M  V30 30078 N 850.875 -4.09664 -2.15742 0
M  V30 30079 H 853.714 -7.45574 -4.45629 0
M  V30 30080 H 853.986 -5.86232 -3.67314 0
M  V30 30081 H 853.118 -7.84412 -2.24479 0
M  V30 30082 P 849.155 -8.7635 -1.60911 0
M  V30 30083 O 848.935 -10.1388 -1.11561 0
M  V30 30084 O 848.365 -8.36503 -2.79617 0
M  V30 30085 O 848.905 -7.71806 -0.42951 0
M  V30 30086 C 849.845 -7.67148 0.673689 0
M  V30 30087 C 849.115 -7.33374 1.95559 0
M  V30 30088 O 848.905 -5.88721 2.00726 0
M  V30 30089 C 847.715 -7.92526 2.10483 0
M  V30 30090 O 847.325 -8.02971 3.47653 0
M  V30 30091 C 846.835 -6.89602 1.41652 0
M  V30 30092 C 847.545 -5.59201 1.75185 0
M  V30 30093 N 847.495 -4.58301 0.657969 0
M  V30 30094 H 850.334 -8.65116 0.777161 0
M  V30 30095 H 850.606 -6.9022 0.46725 0
M  V30 30096 H 849.738 -7.66548 2.79458 0
M  V30 30097 H 847.083 -5.16165 2.65183 0
M  V30 30098 H 846.803 -7.06433 0.329384 0
M  V30 30099 H 845.812 -6.90926 1.82021 0
M  V30 30100 H 847.646 -8.90873 1.62657 0
M  V30 30101 P 845.775 -8.03563 3.84925 0
M  V30 30102 O 845.555 -8.85821 5.0569 0
M  V30 30103 O 844.985 -8.41101 2.65469 0
M  V30 30104 O 845.525 -6.4965 4.18908 0
M  V30 30105 C 846.465 -5.81037 5.05421 0
M  V30 30106 C 845.735 -4.78366 5.89277 0
M  V30 30107 O 845.525 -3.58302 5.08433 0
M  V30 30108 C 844.335 -5.17448 6.36119 0
M  V30 30109 O 843.945 -4.45271 7.53232 0
M  V30 30110 C 843.455 -4.74639 5.19936 0
M  V30 30111 C 844.165 -3.49432 4.70418 0
M  V30 30112 N 844.115 -3.31776 3.22945 0
M  V30 30113 H 846.954 -6.54213 5.71376 0
M  V30 30114 H 847.226 -5.30492 4.44033 0
M  V30 30115 H 846.358 -4.55889 6.76652 0
M  V30 30116 P 842.395 -4.23843 7.83734 0
M  V30 30117 O 842.175 -4.19407 9.29784 0
M  V30 30118 O 841.605 -5.24426 7.09156 0
M  V30 30119 O 842.145 -2.7935 7.20758 0
M  V30 30120 C 843.085 -1.72945 7.50224 0
M  V30 30121 C 842.355 -0.406376 7.57911 0
M  V30 30122 O 842.145 0.0897726 6.21935 0
M  V30 30123 C 840.955 -0.438983 8.18724 0
M  V30 30124 O 840.565 0.825065 8.71101 0
M  V30 30125 C 840.075 -0.783689 6.99524 0
M  V30 30126 C 840.785 -0.0619086 5.85867 0
M  V30 30127 N 840.735 -0.78573 4.56183 0
M  V30 30128 C 840.585 -0.0292889 3.41887 0
M  V30 30129 O 840.495 1.18445 3.4419 0
M  V30 30130 N 840.545 -0.744061 2.23964 0
M  V30 30131 C 840.635 -2.10932 2.10362 0
M  V30 30132 C 840.785 -2.8202 3.34994 0
M  V30 30133 C 840.835 -2.15547 4.52261 0
M  V30 30134 H 843.576 -1.93379 8.46595 0
M  V30 30135 H 843.845 -1.68132 6.70852 0
M  V30 30136 H 842.978 0.289041 8.15388 0
M  V30 30137 H 840.323 0.926847 5.72749 0
M  V30 30138 H 840.044 -1.86973 6.82036 0
M  V30 30139 H 839.052 -0.403896 7.13257 0
M  V30 30140 H 840.886 -1.20585 8.97435 0
M  V30 30141 H 840.957 -2.71231 5.45042 0
M  V30 30142 P 839.015 1.17771 8.83182 0
M  V30 30143 O 838.795 2.07206 9.98732 0
M  V30 30144 O 838.225 -0.0743816 8.81969 0
M  V30 30145 O 838.765 1.97652 7.47304 0
M  V30 30146 C 839.705 3.01133 7.08783 0
M  V30 30147 C 838.975 4.12613 6.37049 0
M  V30 30148 O 838.765 3.72827 4.97879 0
M  V30 30149 C 837.575 4.45085 6.88694 0
M  V30 30150 O 837.185 5.7877 6.5624 0
M  V30 30151 C 836.695 3.47817 6.12078 0
M  V30 30152 C 837.405 3.39414 4.77697 0
M  V30 30153 N 837.355 2.04199 4.15538 0
M  V30 30154 C 837.435 0.821545 4.76977 0
M  V30 30155 N 837.365 -0.1794 3.94592 0
M  V30 30156 C 837.215 0.419121 2.70776 0
M  V30 30157 C 837.085 -0.109072 1.40577 0
M  V30 30158 N 837.075 -1.4104 1.1344 0
M  V30 30159 N 836.965 0.764381 0.39411 0
M  V30 30160 C 836.975 2.06587 0.664135 0
M  V30 30161 N 837.095 2.67948 1.82153 0
M  V30 30162 C 837.215 1.77942 2.8147 0
M  V30 30163 H 840.194 3.41248 7.98759 0
M  V30 30164 H 840.466 2.57728 6.42 0
M  V30 30165 H 839.598 5.02657 6.42673 0
M  V30 30166 H 836.943 4.11708 4.08956 0
M  V30 30167 H 836.663 2.49626 6.61679 0
M  V30 30168 H 835.672 3.8662 6.00862 0
M  V30 30169 H 837.506 4.29991 7.97006 0
M  V30 30170 H 837.547 0.702451 5.84696 0
M  V30 30171 H 837.166 -2.09647 1.89651 0
M  V30 30172 H 836.977 -1.73358 0.160575 0
M  V30 30173 H 836.869 2.71695 -0.195838 0
M  V30 30174 P 835.635 6.144 6.45285 0
M  V30 30175 O 835.415 7.54673 6.86199 0
M  V30 30176 O 834.845 5.12391 7.179 0
M  V30 30177 O 835.385 5.99158 4.88404 0
M  V30 30178 C 836.325 6.60234 3.96415 0
M  V30 30179 C 835.595 7.08259 2.72856 0
M  V30 30180 O 835.385 5.9427 1.83651 0
M  V30 30181 C 834.195 7.64886 2.9555 0
M  V30 30182 O 833.805 8.53963 1.90717 0
M  V30 30183 C 833.315 6.4116 2.90739 0
M  V30 30184 C 834.025 5.55375 1.86963 0
M  V30 30185 N 833.975 4.09448 2.16152 0
M  V30 30186 H 836.814 7.45574 4.45629 0
M  V30 30187 H 837.086 5.85864 3.679 0
M  V30 30188 H 836.218 7.84412 2.24479 0
M  V30 30189 H 833.563 5.73457 0.888562 0
M  V30 30190 H 833.283 5.90877 3.88583 0
M  V30 30191 H 832.292 6.6596 2.58858 0
M  V30 30192 H 834.126 8.16339 3.92049 0
M  V30 30193 P 832.255 8.7635 1.60911 0
M  V30 30194 O 832.035 10.1388 1.11561 0
M  V30 30195 O 831.465 8.36503 2.79617 0
M  V30 30196 O 832.005 7.71806 0.42951 0
M  V30 30197 C 832.945 7.66948 -0.673514 0
M  V30 30198 C 832.215 7.33374 -1.95559 0
M  V30 30199 O 832.005 5.88721 -2.00726 0
M  V30 30200 C 830.815 7.92218 -2.1125 0
M  V30 30201 O 830.425 8.02971 -3.47653 0
M  V30 30202 C 829.935 6.89504 -1.41631 0
M  V30 30203 C 830.645 5.59106 -1.75155 0
M  V30 30204 N 830.595 4.58136 -0.662409 0
M  V30 30205 C 830.445 3.26059 -1.02863 0
M  V30 30206 O 830.355 2.90743 -2.19009 0
M  V30 30207 N 830.405 2.35995 0.0155585 0
M  V30 30208 C 830.495 2.65248 1.35603 0
M  V30 30209 C 830.645 4.05747 1.64698 0
M  V30 30210 C 830.695 4.96734 0.652411 0
M  V30 30211 H 833.436 8.64917 -0.776982 0
M  V30 30212 H 833.705 6.89974 -0.474015 0
M  V30 30213 H 832.838 7.66548 -2.79458 0
M  V30 30214 H 830.183 5.16076 -2.65138 0
M  V30 30215 H 829.904 7.06433 -0.329384 0
M  V30 30216 H 828.912 6.90829 -1.81996 0
M  V30 30217 H 830.746 8.90774 -1.62639 0
M  V30 30218 H 830.817 6.02181 0.895285 0
M  V30 30219 P 828.875 8.03563 -3.84925 0
M  V30 30220 O 828.655 8.85821 -5.0569 0
M  V30 30221 O 828.085 8.41101 -2.65469 0
M  V30 30222 O 828.625 6.4965 -4.18908 0
M  V30 30223 C 829.565 5.81037 -5.05421 0
M  V30 30224 C 828.835 4.78366 -5.89277 0
M  V30 30225 O 828.625 3.58302 -5.08433 0
M  V30 30226 C 827.435 5.17448 -6.36119 0
M  V30 30227 O 827.045 4.45271 -7.53232 0
M  V30 30228 C 826.555 4.74639 -5.19936 0
M  V30 30229 C 827.265 3.49432 -4.70418 0
M  V30 30230 N 827.215 3.31776 -3.22945 0
M  V30 30231 H 830.054 6.54213 -5.71376 0
M  V30 30232 H 830.326 5.30492 -4.44033 0
M  V30 30233 H 829.458 4.55889 -6.76652 0
M  V30 30234 P 825.495 4.23843 -7.83734 0
M  V30 30235 O 825.275 4.19407 -9.29784 0
M  V30 30236 O 824.705 5.24426 -7.09156 0
M  V30 30237 O 825.245 2.7935 -7.20758 0
M  V30 30238 C 826.185 1.7299 -7.50419 0
M  V30 30239 C 825.455 0.406376 -7.57911 0
M  V30 30240 O 825.245 -0.0897726 -6.21935 0
M  V30 30241 C 824.055 0.447224 -8.1878 0
M  V30 30242 O 823.665 -0.825065 -8.71101 0
M  V30 30243 C 823.175 0.783801 -6.99623 0
M  V30 30244 C 823.885 0.0619192 -5.85967 0
M  V30 30245 N 823.835 0.7859 -4.56281 0
M  V30 30246 H 826.674 1.93423 -8.4679 0
M  V30 30247 H 826.946 1.68181 -6.71046 0
M  V30 30248 H 826.078 -0.289041 -8.15388 0
M  V30 30249 P 822.115 -1.17771 -8.83182 0
M  V30 30250 O 821.895 -2.07206 -9.98732 0
M  V30 30251 O 821.325 0.0743816 -8.81969 0
M  V30 30252 O 821.865 -1.97652 -7.47304 0
M  V30 30253 C 822.805 -3.01133 -7.08783 0
M  V30 30254 C 822.075 -4.12613 -6.37049 0
M  V30 30255 O 821.865 -3.72827 -4.97879 0
M  V30 30256 C 820.675 -4.45085 -6.88694 0
M  V30 30257 O 820.285 -5.7877 -6.5624 0
M  V30 30258 C 819.795 -3.47817 -6.12078 0
M  V30 30259 C 820.505 -3.39414 -4.77697 0
M  V30 30260 N 820.455 -2.04199 -4.15538 0
M  V30 30261 H 823.294 -3.41248 -7.98759 0
M  V30 30262 H 823.566 -2.57728 -6.42 0
M  V30 30263 H 822.698 -5.02657 -6.42673 0
M  V30 30264 H 820.043 -4.11708 -4.08956 0
M  V30 30265 H 819.763 -2.49626 -6.61679 0
M  V30 30266 H 818.772 -3.8662 -6.00862 0
M  V30 30267 H 820.606 -4.29991 -7.97006 0
M  V30 30268 P 818.735 -6.144 -6.45285 0
M  V30 30269 O 818.515 -7.54673 -6.86199 0
M  V30 30270 O 817.945 -5.12391 -7.179 0
M  V30 30271 O 818.485 -5.99158 -4.88404 0
M  V30 30272 C 819.425 -6.60234 -3.96415 0
M  V30 30273 C 818.695 -7.08259 -2.72856 0
M  V30 30274 O 818.485 -5.9427 -1.83651 0
M  V30 30275 C 817.295 -7.64886 -2.9555 0
M  V30 30276 O 816.905 -8.53963 -1.90717 0
M  V30 30277 C 816.415 -6.4116 -2.90739 0
M  V30 30278 C 817.125 -5.55375 -1.86963 0
M  V30 30279 N 817.075 -4.09664 -2.15742 0
M  V30 30280 H 819.914 -7.45574 -4.45629 0
M  V30 30281 H 820.186 -5.86232 -3.67314 0
M  V30 30282 H 819.318 -7.84412 -2.24479 0
M  V30 30283 P 815.355 -8.7635 -1.60911 0
M  V30 30284 O 815.135 -10.1388 -1.11561 0
M  V30 30285 O 814.565 -8.36503 -2.79617 0
M  V30 30286 O 815.105 -7.71806 -0.42951 0
M  V30 30287 C 816.045 -7.66948 0.673514 0
M  V30 30288 C 815.315 -7.33374 1.95559 0
M  V30 30289 O 815.105 -5.88721 2.00726 0
M  V30 30290 C 813.915 -7.92218 2.1125 0
M  V30 30291 O 813.525 -8.02971 3.47653 0
M  V30 30292 C 813.035 -6.89504 1.41631 0
M  V30 30293 C 813.745 -5.59106 1.75155 0
M  V30 30294 N 813.695 -4.58136 0.662409 0
M  V30 30295 C 813.545 -3.26059 1.02863 0
M  V30 30296 O 813.455 -2.90743 2.19009 0
M  V30 30297 N 813.505 -2.35995 -0.0155585 0
M  V30 30298 C 813.595 -2.65248 -1.35603 0
M  V30 30299 C 813.745 -4.05747 -1.64698 0
M  V30 30300 C 813.795 -4.96734 -0.652411 0
M  V30 30301 H 816.536 -8.64917 0.776982 0
M  V30 30302 H 816.805 -6.89974 0.474015 0
M  V30 30303 H 815.938 -7.66548 2.79458 0
M  V30 30304 H 813.283 -5.16076 2.65138 0
M  V30 30305 H 813.004 -7.06433 0.329384 0
M  V30 30306 H 812.012 -6.90829 1.81996 0
M  V30 30307 H 813.846 -8.90774 1.62639 0
M  V30 30308 H 813.917 -6.02181 -0.895285 0
M  V30 30309 P 811.975 -8.03563 3.84925 0
M  V30 30310 O 811.755 -8.85821 5.0569 0
M  V30 30311 O 811.185 -8.41101 2.65469 0
M  V30 30312 O 811.725 -6.4965 4.18908 0
M  V30 30313 C 812.665 -5.81037 5.05421 0
M  V30 30314 C 811.935 -4.78366 5.89277 0
M  V30 30315 O 811.725 -3.58302 5.08433 0
M  V30 30316 C 810.535 -5.17448 6.36119 0
M  V30 30317 O 810.145 -4.45271 7.53232 0
M  V30 30318 C 809.655 -4.74639 5.19936 0
M  V30 30319 C 810.365 -3.49432 4.70418 0
M  V30 30320 N 810.315 -3.32099 3.22613 0
M  V30 30321 H 813.154 -6.54213 5.71376 0
M  V30 30322 H 813.426 -5.30936 4.43503 0
M  V30 30323 H 812.558 -4.55889 6.76652 0
M  V30 30324 H 809.903 -2.61715 5.17932 0
M  V30 30325 H 809.623 -5.52155 4.41878 0
M  V30 30326 H 808.632 -4.51981 5.53374 0
M  V30 30327 H 810.466 -6.25124 6.55234 0
M  V30 30328 P 808.595 -4.23843 7.83734 0
M  V30 30329 O 808.375 -4.19407 9.29784 0
M  V30 30330 O 807.805 -5.24426 7.09156 0
M  V30 30331 O 808.345 -2.7935 7.20758 0
M  V30 30332 C 809.285 -1.72945 7.50224 0
M  V30 30333 C 808.555 -0.406376 7.57911 0
M  V30 30334 O 808.345 0.0897726 6.21935 0
M  V30 30335 C 807.155 -0.438983 8.18724 0
M  V30 30336 O 806.765 0.825065 8.71101 0
M  V30 30337 C 806.275 -0.783689 6.99524 0
M  V30 30338 C 806.985 -0.0619086 5.85867 0
M  V30 30339 N 806.935 -0.78573 4.56183 0
M  V30 30340 C 806.785 -0.0292889 3.41887 0
M  V30 30341 O 806.695 1.18445 3.4419 0
M  V30 30342 N 806.745 -0.744061 2.23964 0
M  V30 30343 C 806.835 -2.10932 2.10362 0
M  V30 30344 O 806.785 -2.64117 0.98825 0
M  V30 30345 C 806.985 -2.8202 3.34994 0
M  V30 30346 C 807.095 -4.31095 3.25037 0
M  V30 30347 C 807.035 -2.15547 4.52261 0
M  V30 30348 H 809.776 -1.93379 8.46595 0
M  V30 30349 H 810.045 -1.68132 6.70852 0
M  V30 30350 H 809.178 0.289041 8.15388 0
M  V30 30351 H 806.523 0.926847 5.72749 0
M  V30 30352 H 806.244 -1.86973 6.82036 0
M  V30 30353 H 805.252 -0.403896 7.13257 0
M  V30 30354 H 807.086 -1.20585 8.97435 0
M  V30 30355 H 807.157 -2.71231 5.45042 0
M  V30 30356 H 806.127 -4.76966 3.49992 0
M  V30 30357 H 807.864 -4.67047 3.95024 0
M  V30 30358 H 807.376 -4.58996 2.22312 0
M  V30 30359 H 806.64 -0.214893 1.39758 0
M  V30 30360 P 805.215 1.17771 8.83182 0
M  V30 30361 O 804.995 2.07206 9.98732 0
M  V30 30362 O 804.425 -0.0743816 8.81969 0
M  V30 30363 O 804.965 1.97652 7.47304 0
M  V30 30364 C 805.905 3.01133 7.08783 0
M  V30 30365 C 805.175 4.12613 6.37049 0
M  V30 30366 O 804.965 3.72827 4.97879 0
M  V30 30367 C 803.775 4.45085 6.88694 0
M  V30 30368 O 803.385 5.7877 6.5624 0
M  V30 30369 C 802.895 3.47817 6.12078 0
M  V30 30370 C 803.605 3.39414 4.77697 0
M  V30 30371 N 803.555 2.04199 4.15538 0
M  V30 30372 C 803.635 0.821545 4.76977 0
M  V30 30373 N 803.565 -0.1794 3.94592 0
M  V30 30374 C 803.415 0.419121 2.70776 0
M  V30 30375 C 803.285 -0.109072 1.40577 0
M  V30 30376 N 803.275 -1.4104 1.1344 0
M  V30 30377 N 803.165 0.764381 0.39411 0
M  V30 30378 C 803.175 2.06587 0.664135 0
M  V30 30379 N 803.295 2.67948 1.82153 0
M  V30 30380 C 803.415 1.77942 2.8147 0
M  V30 30381 H 806.394 3.41248 7.98759 0
M  V30 30382 H 806.666 2.57728 6.42 0
M  V30 30383 H 805.798 5.02657 6.42673 0
M  V30 30384 H 803.143 4.11708 4.08956 0
M  V30 30385 H 802.863 2.49626 6.61679 0
M  V30 30386 H 801.872 3.8662 6.00862 0
M  V30 30387 H 803.706 4.29991 7.97006 0
M  V30 30388 H 803.747 0.702451 5.84696 0
M  V30 30389 H 803.366 -2.09647 1.89651 0
M  V30 30390 H 803.177 -1.73358 0.160575 0
M  V30 30391 H 803.069 2.71695 -0.195838 0
M  V30 30392 P 801.835 6.144 6.45285 0
M  V30 30393 O 801.615 7.54673 6.86199 0
M  V30 30394 O 801.045 5.12391 7.179 0
M  V30 30395 O 801.585 5.99158 4.88404 0
M  V30 30396 C 802.525 6.60234 3.96415 0
M  V30 30397 C 801.795 7.08259 2.72856 0
M  V30 30398 O 801.585 5.9427 1.83651 0
M  V30 30399 C 800.395 7.64886 2.9555 0
M  V30 30400 O 800.005 8.53963 1.90717 0
M  V30 30401 C 799.515 6.4116 2.90739 0
M  V30 30402 C 800.225 5.55375 1.86963 0
M  V30 30403 N 800.175 4.09448 2.16152 0
M  V30 30404 H 803.014 7.45574 4.45629 0
M  V30 30405 H 803.286 5.85864 3.679 0
M  V30 30406 H 802.418 7.84412 2.24479 0
M  V30 30407 H 799.763 5.73457 0.888562 0
M  V30 30408 H 799.483 5.90877 3.88583 0
M  V30 30409 H 798.492 6.6596 2.58858 0
M  V30 30410 H 800.326 8.16339 3.92049 0
M  V30 30411 P 798.455 8.7635 1.60911 0
M  V30 30412 O 798.235 10.1388 1.11561 0
M  V30 30413 O 797.665 8.36503 2.79617 0
M  V30 30414 O 798.205 7.71806 0.42951 0
M  V30 30415 C 799.145 7.67148 -0.673689 0
M  V30 30416 C 798.415 7.33374 -1.95559 0
M  V30 30417 O 798.205 5.88721 -2.00726 0
M  V30 30418 C 797.015 7.92526 -2.10483 0
M  V30 30419 O 796.625 8.02971 -3.47653 0
M  V30 30420 C 796.135 6.89602 -1.41652 0
M  V30 30421 C 796.845 5.59201 -1.75185 0
M  V30 30422 N 796.795 4.58235 -0.662552 0
M  V30 30423 H 799.634 8.65116 -0.777161 0
M  V30 30424 H 799.906 6.90173 -0.474152 0
M  V30 30425 H 799.038 7.66548 -2.79458 0
M  V30 30426 P 795.075 8.03563 -3.84925 0
M  V30 30427 O 794.855 8.85821 -5.0569 0
M  V30 30428 O 794.285 8.41101 -2.65469 0
M  V30 30429 O 794.825 6.49734 -4.18962 0
M  V30 30430 C 795.765 5.81037 -5.05421 0
M  V30 30431 C 795.035 4.79018 -5.88876 0
M  V30 30432 O 794.825 3.58359 -5.08515 0
M  V30 30433 C 793.635 5.17448 -6.36119 0
M  V30 30434 O 793.245 4.45322 -7.53318 0
M  V30 30435 C 792.755 4.74639 -5.19936 0
M  V30 30436 C 793.465 3.49432 -4.70418 0
M  V30 30437 N 793.415 3.31776 -3.22945 0
M  V30 30438 C 793.265 2.02742 -2.72939 0
M  V30 30439 O 793.175 1.08301 -3.52749 0
M  V30 30440 N 793.215 1.96117 -1.22063 0
M  V30 30441 C 793.315 2.8878 -0.551566 0
M  V30 30442 N 793.265 2.65609 0.750198 0
M  V30 30443 C 793.465 4.22457 -1.03707 0
M  V30 30444 C 793.515 4.37979 -2.39113 0
M  V30 30445 H 796.255 6.54138 -5.7131 0
M  V30 30446 H 796.525 5.30492 -4.44033 0
M  V30 30447 H 795.658 4.55945 -6.76735 0
M  V30 30448 H 793.003 2.6176 -5.18021 0
M  V30 30449 H 792.723 5.52233 -4.41941 0
M  V30 30450 H 791.732 4.52045 -5.53452 0
M  V30 30451 H 793.566 6.25124 -6.55234 0
M  V30 30452 H 793.638 5.37936 -2.80552 0
M  V30 30453 H 793.536 5.07528 -0.359553 0
M  V30 30454 H 793.148 1.69403 1.09847 0
M  V30 30455 H 793.344 3.43701 1.41792 0
M  V30 30456 P 791.695 4.23843 -7.83734 0
M  V30 30457 O 791.475 4.19407 -9.29784 0
M  V30 30458 O 790.905 5.24426 -7.09156 0
M  V30 30459 O 791.445 2.7935 -7.20758 0
M  V30 30460 C 792.385 1.7299 -7.50419 0
M  V30 30461 C 791.655 0.406376 -7.57911 0
M  V30 30462 O 791.445 -0.0897726 -6.21935 0
M  V30 30463 C 790.255 0.447224 -8.1878 0
M  V30 30464 O 789.865 -0.825065 -8.71101 0
M  V30 30465 C 789.375 0.783801 -6.99623 0
M  V30 30466 C 790.085 0.0619192 -5.85967 0
M  V30 30467 N 790.035 0.7859 -4.56281 0
M  V30 30468 H 792.874 1.93423 -8.4679 0
M  V30 30469 H 793.146 1.68181 -6.71046 0
M  V30 30470 H 792.278 -0.289041 -8.15388 0
M  V30 30471 P 788.315 -1.17771 -8.83182 0
M  V30 30472 O 788.095 -2.07206 -9.98732 0
M  V30 30473 O 787.525 0.0743816 -8.81969 0
M  V30 30474 O 788.065 -1.97652 -7.47304 0
M  V30 30475 C 789.005 -3.01133 -7.08783 0
M  V30 30476 C 788.275 -4.12613 -6.37049 0
M  V30 30477 O 788.065 -3.72827 -4.97879 0
M  V30 30478 C 786.875 -4.45085 -6.88694 0
M  V30 30479 O 786.485 -5.7877 -6.5624 0
M  V30 30480 C 785.995 -3.47817 -6.12078 0
M  V30 30481 C 786.705 -3.39414 -4.77697 0
M  V30 30482 N 786.655 -2.04615 -4.15333 0
M  V30 30483 H 789.494 -3.41248 -7.98759 0
M  V30 30484 H 789.766 -2.5837 -6.41742 0
M  V30 30485 H 788.898 -5.02657 -6.42673 0
M  V30 30486 P 784.935 -6.144 -6.45285 0
M  V30 30487 O 784.715 -7.54673 -6.86199 0
M  V30 30488 O 784.145 -5.12391 -7.179 0
M  V30 30489 O 784.685 -5.99158 -4.88404 0
M  V30 30490 C 785.625 -6.60234 -3.96415 0
M  V30 30491 C 784.895 -7.08259 -2.72856 0
M  V30 30492 O 784.685 -5.9427 -1.83651 0
M  V30 30493 C 783.495 -7.64886 -2.9555 0
M  V30 30494 O 783.105 -8.53963 -1.90717 0
M  V30 30495 C 782.615 -6.4116 -2.90739 0
M  V30 30496 C 783.325 -5.55375 -1.86963 0
M  V30 30497 N 783.275 -4.09664 -2.15742 0
M  V30 30498 H 786.114 -7.45574 -4.45629 0
M  V30 30499 H 786.386 -5.86232 -3.67314 0
M  V30 30500 H 785.518 -7.84412 -2.24479 0
M  V30 30501 P 781.555 -8.7635 -1.60911 0
M  V30 30502 O 781.335 -10.1388 -1.11561 0
M  V30 30503 O 780.765 -8.36503 -2.79617 0
M  V30 30504 O 781.305 -7.71806 -0.42951 0
M  V30 30505 C 782.245 -7.67148 0.673689 0
M  V30 30506 C 781.515 -7.33374 1.95559 0
M  V30 30507 O 781.305 -5.88721 2.00726 0
M  V30 30508 C 780.115 -7.92526 2.10483 0
M  V30 30509 O 779.725 -8.02971 3.47653 0
M  V30 30510 C 779.235 -6.89602 1.41652 0
M  V30 30511 C 779.945 -5.59201 1.75185 0
M  V30 30512 N 779.895 -4.58301 0.657969 0
M  V30 30513 H 782.734 -8.65116 0.777161 0
M  V30 30514 H 783.006 -6.9022 0.46725 0
M  V30 30515 H 782.138 -7.66548 2.79458 0
M  V30 30516 H 779.483 -5.16165 2.65183 0
M  V30 30517 H 779.203 -7.06433 0.329384 0
M  V30 30518 H 778.212 -6.90926 1.82021 0
M  V30 30519 H 780.046 -8.90873 1.62657 0
M  V30 30520 P 778.175 -8.03563 3.84925 0
M  V30 30521 O 777.955 -8.85821 5.0569 0
M  V30 30522 O 777.385 -8.41101 2.65469 0
M  V30 30523 O 777.925 -6.4965 4.18908 0
M  V30 30524 C 778.865 -5.81037 5.05421 0
M  V30 30525 C 778.135 -4.78366 5.89277 0
M  V30 30526 O 777.925 -3.58302 5.08433 0
M  V30 30527 C 776.735 -5.17448 6.36119 0
M  V30 30528 O 776.345 -4.45271 7.53232 0
M  V30 30529 C 775.855 -4.74639 5.19936 0
M  V30 30530 C 776.565 -3.49432 4.70418 0
M  V30 30531 N 776.515 -3.31776 3.22945 0
M  V30 30532 H 779.354 -6.54213 5.71376 0
M  V30 30533 H 779.626 -5.30492 4.44033 0
M  V30 30534 H 778.758 -4.55889 6.76652 0
M  V30 30535 P 774.795 -4.23843 7.83734 0
M  V30 30536 O 774.575 -4.19407 9.29784 0
M  V30 30537 O 774.005 -5.24426 7.09156 0
M  V30 30538 O 774.545 -2.7935 7.20758 0
M  V30 30539 C 775.485 -1.72945 7.50224 0
M  V30 30540 C 774.755 -0.406376 7.57911 0
M  V30 30541 O 774.545 0.0897726 6.21935 0
M  V30 30542 C 773.355 -0.438983 8.18724 0
M  V30 30543 O 772.965 0.825065 8.71101 0
M  V30 30544 C 772.475 -0.783689 6.99524 0
M  V30 30545 C 773.185 -0.0619086 5.85867 0
M  V30 30546 N 773.135 -0.78573 4.56183 0
M  V30 30547 C 772.985 -0.0292889 3.41887 0
M  V30 30548 O 772.895 1.18445 3.4419 0
M  V30 30549 N 772.945 -0.744061 2.23964 0
M  V30 30550 C 773.035 -2.10932 2.10362 0
M  V30 30551 C 773.185 -2.8202 3.34994 0
M  V30 30552 C 773.235 -2.15547 4.52261 0
M  V30 30553 H 775.976 -1.93379 8.46595 0
M  V30 30554 H 776.245 -1.68132 6.70852 0
M  V30 30555 H 775.378 0.289041 8.15388 0
M  V30 30556 H 772.723 0.926847 5.72749 0
M  V30 30557 H 772.444 -1.86973 6.82036 0
M  V30 30558 H 771.452 -0.403896 7.13257 0
M  V30 30559 H 773.286 -1.20585 8.97435 0
M  V30 30560 H 773.357 -2.71231 5.45042 0
M  V30 30561 P 771.415 1.17771 8.83182 0
M  V30 30562 O 771.195 2.07206 9.98732 0
M  V30 30563 O 770.625 -0.0743816 8.81969 0
M  V30 30564 O 771.165 1.97652 7.47304 0
M  V30 30565 C 772.105 3.01133 7.08783 0
M  V30 30566 C 771.375 4.12613 6.37049 0
M  V30 30567 O 771.165 3.72827 4.97879 0
M  V30 30568 C 769.975 4.45085 6.88694 0
M  V30 30569 O 769.585 5.7877 6.5624 0
M  V30 30570 C 769.095 3.47817 6.12078 0
M  V30 30571 C 769.805 3.39414 4.77697 0
M  V30 30572 N 769.755 2.04615 4.15333 0
M  V30 30573 H 772.594 3.41248 7.98759 0
M  V30 30574 H 772.866 2.5837 6.41742 0
M  V30 30575 H 771.998 5.02657 6.42673 0
M  V30 30576 P 768.035 6.144 6.45285 0
M  V30 30577 O 767.815 7.54673 6.86199 0
M  V30 30578 O 767.245 5.12391 7.179 0
M  V30 30579 O 767.785 5.99158 4.88404 0
M  V30 30580 C 768.725 6.60234 3.96415 0
M  V30 30581 C 767.995 7.08259 2.72856 0
M  V30 30582 O 767.785 5.9427 1.83651 0
M  V30 30583 C 766.595 7.64886 2.9555 0
M  V30 30584 O 766.205 8.53963 1.90717 0
M  V30 30585 C 765.715 6.4116 2.90739 0
M  V30 30586 C 766.425 5.55375 1.86963 0
M  V30 30587 N 766.375 4.09664 2.15742 0
M  V30 30588 C 766.455 3.44381 3.37233 0
M  V30 30589 N 766.375 2.14131 3.28347 0
M  V30 30590 C 766.235 1.90247 1.91588 0
M  V30 30591 C 766.105 0.683992 1.20892 0
M  V30 30592 N 765.985 0.903396 -0.173998 0
M  V30 30593 C 765.985 2.14171 -0.784879 0
M  V30 30594 N 765.855 2.1435 -2.11317 0
M  V30 30595 N 766.115 3.28784 -0.119316 0
M  V30 30596 C 766.235 3.0977 1.22194 0
M  V30 30597 H 769.214 7.45574 4.45629 0
M  V30 30598 H 769.486 5.86232 3.67314 0
M  V30 30599 H 768.618 7.84412 2.24479 0
M  V30 30600 P 764.656 8.7635 1.60911 0
M  V30 30601 O 764.436 10.1388 1.11561 0
M  V30 30602 O 763.866 8.36503 2.79617 0
M  V30 30603 O 764.406 7.71806 0.42951 0
M  V30 30604 C 765.346 7.67148 -0.673689 0
M  V30 30605 C 764.616 7.33374 -1.95559 0
M  V30 30606 O 764.406 5.88721 -2.00726 0
M  V30 30607 C 763.216 7.92526 -2.10483 0
M  V30 30608 O 762.826 8.02971 -3.47653 0
M  V30 30609 C 762.336 6.89602 -1.41652 0
M  V30 30610 C 763.046 5.59201 -1.75185 0
M  V30 30611 N 762.996 4.58235 -0.662552 0
M  V30 30612 H 765.835 8.65116 -0.777161 0
M  V30 30613 H 766.107 6.90173 -0.474152 0
M  V30 30614 H 765.239 7.66548 -2.79458 0
M  V30 30615 P 761.276 8.03563 -3.84925 0
M  V30 30616 O 761.056 8.85821 -5.0569 0
M  V30 30617 O 760.486 8.41101 -2.65469 0
M  V30 30618 O 761.026 6.4965 -4.18908 0
M  V30 30619 C 761.966 5.81037 -5.05421 0
M  V30 30620 C 761.236 4.78366 -5.89277 0
M  V30 30621 O 761.026 3.58302 -5.08433 0
M  V30 30622 C 759.836 5.17448 -6.36119 0
M  V30 30623 O 759.446 4.45271 -7.53232 0
M  V30 30624 C 758.956 4.74639 -5.19936 0
M  V30 30625 C 759.666 3.49432 -4.70418 0
M  V30 30626 N 759.616 3.31776 -3.22945 0
M  V30 30627 C 759.696 4.27147 -2.23315 0
M  V30 30628 N 759.616 3.78447 -1.02186 0
M  V30 30629 C 759.476 2.41001 -1.21732 0
M  V30 30630 C 759.346 1.36111 -0.27694 0
M  V30 30631 N 759.226 0.113683 -0.912949 0
M  V30 30632 C 759.226 -0.0846396 -2.27943 0
M  V30 30633 N 759.096 -1.34737 -2.6916 0
M  V30 30634 N 759.356 0.902521 -3.16379 0
M  V30 30635 C 759.476 2.11937 -2.56849 0
M  V30 30636 H 762.455 6.54213 -5.71376 0
M  V30 30637 H 762.727 5.30492 -4.44033 0
M  V30 30638 H 761.859 4.55889 -6.76652 0
M  V30 30639 P 757.896 4.23843 -7.83734 0
M  V30 30640 O 757.676 4.19407 -9.29784 0
M  V30 30641 O 757.106 5.24426 -7.09156 0
M  V30 30642 O 757.646 2.7935 -7.20758 0
M  V30 30643 C 758.586 1.7299 -7.50419 0
M  V30 30644 C 757.856 0.406376 -7.57911 0
M  V30 30645 O 757.646 -0.0897726 -6.21935 0
M  V30 30646 C 756.456 0.447224 -8.1878 0
M  V30 30647 O 756.066 -0.825065 -8.71101 0
M  V30 30648 C 755.576 0.783801 -6.99623 0
M  V30 30649 C 756.286 0.0619192 -5.85967 0
M  V30 30650 N 756.236 0.7859 -4.56281 0
M  V30 30651 H 759.075 1.93423 -8.4679 0
M  V30 30652 H 759.347 1.68181 -6.71046 0
M  V30 30653 H 758.479 -0.289041 -8.15388 0
M  V30 30654 P 754.516 -1.17771 -8.83182 0
M  V30 30655 O 754.296 -2.07206 -9.98732 0
M  V30 30656 O 753.726 0.0743816 -8.81969 0
M  V30 30657 O 754.266 -1.97652 -7.47304 0
M  V30 30658 C 755.206 -3.01133 -7.08783 0
M  V30 30659 C 754.476 -4.12613 -6.37049 0
M  V30 30660 O 754.266 -3.72827 -4.97879 0
M  V30 30661 C 753.076 -4.45085 -6.88694 0
M  V30 30662 O 752.686 -5.7877 -6.5624 0
M  V30 30663 C 752.196 -3.47817 -6.12078 0
M  V30 30664 C 752.906 -3.39414 -4.77697 0
M  V30 30665 N 752.856 -2.04615 -4.15333 0
M  V30 30666 H 755.695 -3.41248 -7.98759 0
M  V30 30667 H 755.967 -2.5837 -6.41742 0
M  V30 30668 H 755.099 -5.02657 -6.42673 0
M  V30 30669 P 751.136 -6.144 -6.45285 0
M  V30 30670 O 750.916 -7.54673 -6.86199 0
M  V30 30671 O 750.346 -5.12391 -7.179 0
M  V30 30672 O 750.886 -5.99158 -4.88404 0
M  V30 30673 C 751.826 -6.60234 -3.96415 0
M  V30 30674 C 751.096 -7.08259 -2.72856 0
M  V30 30675 O 750.886 -5.9427 -1.83651 0
M  V30 30676 C 749.696 -7.64886 -2.9555 0
M  V30 30677 O 749.306 -8.53963 -1.90717 0
M  V30 30678 C 748.816 -6.4116 -2.90739 0
M  V30 30679 C 749.526 -5.55375 -1.86963 0
M  V30 30680 N 749.476 -4.09448 -2.16152 0
M  V30 30681 H 752.315 -7.45574 -4.45629 0
M  V30 30682 H 752.587 -5.85864 -3.679 0
M  V30 30683 H 751.719 -7.84412 -2.24479 0
M  V30 30684 H 749.064 -5.73457 -0.888562 0
M  V30 30685 H 748.784 -5.90877 -3.88583 0
M  V30 30686 H 747.793 -6.6596 -2.58858 0
M  V30 30687 H 749.627 -8.16339 -3.92049 0
M  V30 30688 P 747.756 -8.7635 -1.60911 0
M  V30 30689 O 747.536 -10.1388 -1.11561 0
M  V30 30690 O 746.966 -8.36503 -2.79617 0
M  V30 30691 O 747.506 -7.71806 -0.42951 0
M  V30 30692 C 748.446 -7.67148 0.673689 0
M  V30 30693 C 747.716 -7.33374 1.95559 0
M  V30 30694 O 747.506 -5.88721 2.00726 0
M  V30 30695 C 746.316 -7.92526 2.10483 0
M  V30 30696 O 745.926 -8.02971 3.47653 0
M  V30 30697 C 745.436 -6.89602 1.41652 0
M  V30 30698 C 746.146 -5.59201 1.75185 0
M  V30 30699 N 746.096 -4.58235 0.662552 0
M  V30 30700 H 748.935 -8.65116 0.777161 0
M  V30 30701 H 749.207 -6.90173 0.474152 0
M  V30 30702 H 748.339 -7.66548 2.79458 0
M  V30 30703 P 744.376 -8.03563 3.84925 0
M  V30 30704 O 744.156 -8.85821 5.0569 0
M  V30 30705 O 743.586 -8.41101 2.65469 0
M  V30 30706 O 744.126 -6.4965 4.18908 0
M  V30 30707 C 745.066 -5.81037 5.05421 0
M  V30 30708 C 744.336 -4.78366 5.89277 0
M  V30 30709 O 744.126 -3.58302 5.08433 0
M  V30 30710 C 742.936 -5.17448 6.36119 0
M  V30 30711 O 742.546 -4.45271 7.53232 0
M  V30 30712 C 742.056 -4.74639 5.19936 0
M  V30 30713 C 742.766 -3.49432 4.70418 0
M  V30 30714 N 742.716 -3.32099 3.22613 0
M  V30 30715 H 745.555 -6.54213 5.71376 0
M  V30 30716 H 745.827 -5.30936 4.43503 0
M  V30 30717 H 744.959 -4.55889 6.76652 0
M  V30 30718 H 742.304 -2.61715 5.17932 0
M  V30 30719 H 742.024 -5.52155 4.41878 0
M  V30 30720 H 741.033 -4.51981 5.53374 0
M  V30 30721 H 742.867 -6.25124 6.55234 0
M  V30 30722 P 740.996 -4.23843 7.83734 0
M  V30 30723 O 740.776 -4.19407 9.29784 0
M  V30 30724 O 740.206 -5.24426 7.09156 0
M  V30 30725 O 740.746 -2.7935 7.20758 0
M  V30 30726 C 741.686 -1.7299 7.50419 0
M  V30 30727 C 740.956 -0.406376 7.57911 0
M  V30 30728 O 740.746 0.0897726 6.21935 0
M  V30 30729 C 739.556 -0.447224 8.1878 0
M  V30 30730 O 739.166 0.825065 8.71101 0
M  V30 30731 C 738.676 -0.783801 6.99623 0
M  V30 30732 C 739.386 -0.0619192 5.85967 0
M  V30 30733 N 739.336 -0.7859 4.56281 0
M  V30 30734 H 742.175 -1.93423 8.4679 0
M  V30 30735 H 742.447 -1.68181 6.71046 0
M  V30 30736 H 741.579 0.289041 8.15388 0
M  V30 30737 P 737.616 1.17771 8.83182 0
M  V30 30738 O 737.396 2.07206 9.98732 0
M  V30 30739 O 736.826 -0.0743816 8.81969 0
M  V30 30740 O 737.366 1.97652 7.47304 0
M  V30 30741 C 738.306 3.01133 7.08783 0
M  V30 30742 C 737.576 4.12613 6.37049 0
M  V30 30743 O 737.366 3.72827 4.97879 0
M  V30 30744 C 736.176 4.45085 6.88694 0
M  V30 30745 O 735.786 5.7877 6.5624 0
M  V30 30746 C 735.296 3.47817 6.12078 0
M  V30 30747 C 736.006 3.39414 4.77697 0
M  V30 30748 N 735.956 2.04615 4.15333 0
M  V30 30749 H 738.795 3.41248 7.98759 0
M  V30 30750 H 739.067 2.5837 6.41742 0
M  V30 30751 H 738.199 5.02657 6.42673 0
M  V30 30752 P 734.236 6.144 6.45285 0
M  V30 30753 O 734.016 7.54673 6.86199 0
M  V30 30754 O 733.446 5.12391 7.179 0
M  V30 30755 O 733.986 5.99158 4.88404 0
M  V30 30756 C 734.926 6.60234 3.96415 0
M  V30 30757 C 734.196 7.08259 2.72856 0
M  V30 30758 O 733.986 5.9427 1.83651 0
M  V30 30759 C 732.796 7.64886 2.9555 0
M  V30 30760 O 732.406 8.53963 1.90717 0
M  V30 30761 C 731.916 6.4116 2.90739 0
M  V30 30762 C 732.626 5.55375 1.86963 0
M  V30 30763 N 732.576 4.09664 2.15742 0
M  V30 30764 H 735.415 7.45574 4.45629 0
M  V30 30765 H 735.687 5.86232 3.67314 0
M  V30 30766 H 734.819 7.84412 2.24479 0
M  V30 30767 P 730.856 8.7635 1.60911 0
M  V30 30768 O 730.636 10.1388 1.11561 0
M  V30 30769 O 730.066 8.36503 2.79617 0
M  V30 30770 O 730.606 7.71806 0.42951 0
M  V30 30771 C 731.546 7.67148 -0.673689 0
M  V30 30772 C 730.816 7.33374 -1.95559 0
M  V30 30773 O 730.606 5.88721 -2.00726 0
M  V30 30774 C 729.416 7.92526 -2.10483 0
M  V30 30775 O 729.026 8.02971 -3.47653 0
M  V30 30776 C 728.536 6.89602 -1.41652 0
M  V30 30777 C 729.246 5.59201 -1.75185 0
M  V30 30778 N 729.196 4.58235 -0.662552 0
M  V30 30779 H 732.035 8.65116 -0.777161 0
M  V30 30780 H 732.307 6.90173 -0.474152 0
M  V30 30781 H 731.439 7.66548 -2.79458 0
M  V30 30782 P 727.476 8.03563 -3.84925 0
M  V30 30783 O 727.256 8.85821 -5.0569 0
M  V30 30784 O 726.686 8.41101 -2.65469 0
M  V30 30785 O 727.226 6.49734 -4.18962 0
M  V30 30786 C 728.166 5.81037 -5.05421 0
M  V30 30787 C 727.436 4.79018 -5.88876 0
M  V30 30788 O 727.226 3.58359 -5.08515 0
M  V30 30789 C 726.036 5.17448 -6.36119 0
M  V30 30790 O 725.646 4.45322 -7.53318 0
M  V30 30791 C 725.156 4.74639 -5.19936 0
M  V30 30792 C 725.866 3.49432 -4.70418 0
M  V30 30793 N 725.816 3.31776 -3.22945 0
M  V30 30794 C 725.666 2.02742 -2.72939 0
M  V30 30795 O 725.576 1.08301 -3.52749 0
M  V30 30796 N 725.616 1.96117 -1.22063 0
M  V30 30797 C 725.716 2.8878 -0.551566 0
M  V30 30798 N 725.666 2.65609 0.750198 0
M  V30 30799 C 725.866 4.22457 -1.03707 0
M  V30 30800 C 725.916 4.37979 -2.39113 0
M  V30 30801 H 728.656 6.54138 -5.7131 0
M  V30 30802 H 728.926 5.30492 -4.44033 0
M  V30 30803 H 728.059 4.55945 -6.76735 0
M  V30 30804 H 725.404 2.6176 -5.18021 0
M  V30 30805 H 725.124 5.52233 -4.41941 0
M  V30 30806 H 724.133 4.52045 -5.53452 0
M  V30 30807 H 725.967 6.25124 -6.55234 0
M  V30 30808 H 726.039 5.37936 -2.80552 0
M  V30 30809 H 725.937 5.07528 -0.359553 0
M  V30 30810 H 725.549 1.69403 1.09847 0
M  V30 30811 H 725.745 3.43701 1.41792 0
M  V30 30812 P 724.096 4.23843 -7.83734 0
M  V30 30813 O 723.876 4.19407 -9.29784 0
M  V30 30814 O 723.306 5.24426 -7.09156 0
M  V30 30815 O 723.846 2.7935 -7.20758 0
M  V30 30816 C 724.786 1.7299 -7.50419 0
M  V30 30817 C 724.056 0.406376 -7.57911 0
M  V30 30818 O 723.846 -0.0897726 -6.21935 0
M  V30 30819 C 722.656 0.447224 -8.1878 0
M  V30 30820 O 722.266 -0.825065 -8.71101 0
M  V30 30821 C 721.776 0.783801 -6.99623 0
M  V30 30822 C 722.486 0.0619192 -5.85967 0
M  V30 30823 N 722.436 0.790462 -4.56202 0
M  V30 30824 C 722.516 2.13895 -4.34171 0
M  V30 30825 N 722.446 2.46449 -3.08687 0
M  V30 30826 C 722.296 1.2525 -2.43697 0
M  V30 30827 C 722.166 0.914535 -1.07318 0
M  V30 30828 N 722.156 1.80782 -0.0887348 0
M  V30 30829 N 722.046 -0.386745 -0.768133 0
M  V30 30830 C 722.056 -1.28096 -1.75159 0
M  V30 30831 N 722.176 -1.09708 -3.04861 0
M  V30 30832 C 722.296 0.214857 -3.32306 0
M  V30 30833 H 725.275 1.93423 -8.4679 0
M  V30 30834 H 725.547 1.68852 -6.70877 0
M  V30 30835 H 724.679 -0.289041 -8.15388 0
M  V30 30836 H 722.024 -0.927006 -5.72848 0
M  V30 30837 H 721.744 1.86973 -6.82036 0
M  V30 30838 H 720.753 0.403953 -7.13357 0
M  V30 30839 H 722.587 1.20599 -8.97534 0
M  V30 30840 H 722.628 2.86846 -5.14318 0
M  V30 30841 H 722.247 2.81082 -0.302037 0
M  V30 30842 H 722.058 1.49688 0.889064 0
M  V30 30843 H 721.95 -2.31317 -1.43855 0
M  V30 30844 P 720.716 -1.17771 -8.83182 0
M  V30 30845 O 720.496 -2.07206 -9.98732 0
M  V30 30846 O 719.926 0.0743816 -8.81969 0
M  V30 30847 O 720.466 -1.97652 -7.47304 0
M  V30 30848 C 721.406 -3.01133 -7.08783 0
M  V30 30849 C 720.676 -4.12613 -6.37049 0
M  V30 30850 O 720.466 -3.72827 -4.97879 0
M  V30 30851 C 719.276 -4.45085 -6.88694 0
M  V30 30852 O 718.886 -5.7877 -6.5624 0
M  V30 30853 C 718.396 -3.47817 -6.12078 0
M  V30 30854 C 719.106 -3.39414 -4.77697 0
M  V30 30855 N 719.056 -2.04615 -4.15333 0
M  V30 30856 H 721.895 -3.41248 -7.98759 0
M  V30 30857 H 722.167 -2.5837 -6.41742 0
M  V30 30858 H 721.299 -5.02657 -6.42673 0
M  V30 30859 P 717.336 -6.144 -6.45285 0
M  V30 30860 O 717.116 -7.54673 -6.86199 0
M  V30 30861 O 716.546 -5.12391 -7.179 0
M  V30 30862 O 717.086 -5.99158 -4.88404 0
M  V30 30863 C 718.026 -6.60234 -3.96415 0
M  V30 30864 C 717.296 -7.08259 -2.72856 0
M  V30 30865 O 717.086 -5.9427 -1.83651 0
M  V30 30866 C 715.896 -7.64886 -2.9555 0
M  V30 30867 O 715.506 -8.53963 -1.90717 0
M  V30 30868 C 715.016 -6.4116 -2.90739 0
M  V30 30869 C 715.726 -5.55375 -1.86963 0
M  V30 30870 N 715.676 -4.09664 -2.15742 0
M  V30 30871 H 718.515 -7.45574 -4.45629 0
M  V30 30872 H 718.787 -5.86232 -3.67314 0
M  V30 30873 H 717.919 -7.84412 -2.24479 0
M  V30 30874 P 713.956 -8.7635 -1.60911 0
M  V30 30875 O 713.736 -10.1388 -1.11561 0
M  V30 30876 O 713.166 -8.36503 -2.79617 0
M  V30 30877 O 713.706 -7.71806 -0.42951 0
M  V30 30878 C 714.646 -7.67148 0.673689 0
M  V30 30879 C 713.916 -7.33374 1.95559 0
M  V30 30880 O 713.706 -5.88721 2.00726 0
M  V30 30881 C 712.516 -7.92526 2.10483 0
M  V30 30882 O 712.126 -8.02971 3.47653 0
M  V30 30883 C 711.636 -6.89602 1.41652 0
M  V30 30884 C 712.346 -5.59201 1.75185 0
M  V30 30885 N 712.296 -4.58235 0.662552 0
M  V30 30886 H 715.135 -8.65116 0.777161 0
M  V30 30887 H 715.407 -6.90173 0.474152 0
M  V30 30888 H 714.539 -7.66548 2.79458 0
M  V30 30889 P 710.576 -8.03563 3.84925 0
M  V30 30890 O 710.356 -8.85821 5.0569 0
M  V30 30891 O 709.786 -8.41101 2.65469 0
M  V30 30892 O 710.326 -6.4965 4.18908 0
M  V30 30893 C 711.266 -5.81037 5.05421 0
M  V30 30894 C 710.536 -4.78366 5.89277 0
M  V30 30895 O 710.326 -3.58302 5.08433 0
M  V30 30896 C 709.136 -5.17448 6.36119 0
M  V30 30897 O 708.746 -4.45271 7.53232 0
M  V30 30898 C 708.256 -4.74639 5.19936 0
M  V30 30899 C 708.966 -3.49432 4.70418 0
M  V30 30900 N 708.916 -3.31776 3.22945 0
M  V30 30901 H 711.755 -6.54213 5.71376 0
M  V30 30902 H 712.027 -5.30492 4.44033 0
M  V30 30903 H 711.159 -4.55889 6.76652 0
M  V30 30904 P 707.196 -4.23843 7.83734 0
M  V30 30905 O 706.976 -4.19407 9.29784 0
M  V30 30906 O 706.406 -5.24426 7.09156 0
M  V30 30907 O 706.946 -2.7935 7.20758 0
M  V30 30908 C 707.886 -1.7299 7.50419 0
M  V30 30909 C 707.156 -0.406376 7.57911 0
M  V30 30910 O 706.946 0.0897726 6.21935 0
M  V30 30911 C 705.756 -0.447224 8.1878 0
M  V30 30912 O 705.366 0.825065 8.71101 0
M  V30 30913 C 704.876 -0.783801 6.99623 0
M  V30 30914 C 705.586 -0.0619192 5.85967 0
M  V30 30915 N 705.536 -0.790462 4.56202 0
M  V30 30916 C 705.616 -2.13895 4.34171 0
M  V30 30917 N 705.546 -2.46449 3.08687 0
M  V30 30918 C 705.396 -1.2525 2.43697 0
M  V30 30919 C 705.266 -0.914535 1.07318 0
M  V30 30920 N 705.256 -1.80782 0.0887348 0
M  V30 30921 N 705.146 0.386745 0.768133 0
M  V30 30922 C 705.156 1.28096 1.75159 0
M  V30 30923 N 705.276 1.09708 3.04861 0
M  V30 30924 C 705.396 -0.214857 3.32306 0
M  V30 30925 H 708.375 -1.93423 8.4679 0
M  V30 30926 H 708.647 -1.68852 6.70877 0
M  V30 30927 H 707.779 0.289041 8.15388 0
M  V30 30928 H 705.124 0.927006 5.72848 0
M  V30 30929 H 704.844 -1.86973 6.82036 0
M  V30 30930 H 703.853 -0.403953 7.13357 0
M  V30 30931 H 705.687 -1.20599 8.97534 0
M  V30 30932 H 705.728 -2.86846 5.14318 0
M  V30 30933 H 705.347 -2.81082 0.302037 0
M  V30 30934 H 705.158 -1.49688 -0.889064 0
M  V30 30935 H 705.05 2.31317 1.43855 0
M  V30 30936 P 703.816 1.17771 8.83182 0
M  V30 30937 O 703.596 2.07206 9.98732 0
M  V30 30938 O 703.026 -0.0743816 8.81969 0
M  V30 30939 O 703.566 1.97652 7.47304 0
M  V30 30940 C 704.506 3.01133 7.08783 0
M  V30 30941 C 703.776 4.12613 6.37049 0
M  V30 30942 O 703.566 3.72827 4.97879 0
M  V30 30943 C 702.376 4.45085 6.88694 0
M  V30 30944 O 701.986 5.7877 6.5624 0
M  V30 30945 C 701.496 3.47817 6.12078 0
M  V30 30946 C 702.206 3.39414 4.77697 0
M  V30 30947 N 702.156 2.04199 4.15538 0
M  V30 30948 H 704.995 3.41248 7.98759 0
M  V30 30949 H 705.267 2.57728 6.42 0
M  V30 30950 H 704.399 5.02657 6.42673 0
M  V30 30951 H 701.744 4.11708 4.08956 0
M  V30 30952 H 701.464 2.49626 6.61679 0
M  V30 30953 H 700.473 3.8662 6.00862 0
M  V30 30954 H 702.307 4.29991 7.97006 0
M  V30 30955 P 700.436 6.144 6.45285 0
M  V30 30956 O 700.216 7.54673 6.86199 0
M  V30 30957 O 699.646 5.12391 7.179 0
M  V30 30958 O 700.186 5.99158 4.88404 0
M  V30 30959 C 701.126 6.60234 3.96415 0
M  V30 30960 C 700.396 7.08259 2.72856 0
M  V30 30961 O 700.186 5.9427 1.83651 0
M  V30 30962 C 698.996 7.64886 2.9555 0
M  V30 30963 O 698.606 8.53963 1.90717 0
M  V30 30964 C 698.116 6.4116 2.90739 0
M  V30 30965 C 698.826 5.55375 1.86963 0
M  V30 30966 N 698.776 4.09664 2.15742 0
M  V30 30967 H 701.615 7.45574 4.45629 0
M  V30 30968 H 701.887 5.86232 3.67314 0
M  V30 30969 H 701.019 7.84412 2.24479 0
M  V30 30970 P 697.056 8.7635 1.60911 0
M  V30 30971 O 696.836 10.1388 1.11561 0
M  V30 30972 O 696.266 8.36503 2.79617 0
M  V30 30973 O 696.806 7.71806 0.42951 0
M  V30 30974 C 697.746 7.67148 -0.673689 0
M  V30 30975 C 697.016 7.33374 -1.95559 0
M  V30 30976 O 696.806 5.88721 -2.00726 0
M  V30 30977 C 695.616 7.92526 -2.10483 0
M  V30 30978 O 695.226 8.02971 -3.47653 0
M  V30 30979 C 694.736 6.89602 -1.41652 0
M  V30 30980 C 695.446 5.59201 -1.75185 0
M  V30 30981 N 695.396 4.58235 -0.662552 0
M  V30 30982 H 698.235 8.65116 -0.777161 0
M  V30 30983 H 698.507 6.90173 -0.474152 0
M  V30 30984 H 697.639 7.66548 -2.79458 0
M  V30 30985 P 693.676 8.03563 -3.84925 0
M  V30 30986 O 693.456 8.85821 -5.0569 0
M  V30 30987 O 692.886 8.41101 -2.65469 0
M  V30 30988 O 693.426 6.4965 -4.18908 0
M  V30 30989 C 694.366 5.81037 -5.05421 0
M  V30 30990 C 693.636 4.78366 -5.89277 0
M  V30 30991 O 693.426 3.58302 -5.08433 0
M  V30 30992 C 692.236 5.17448 -6.36119 0
M  V30 30993 O 691.846 4.45271 -7.53232 0
M  V30 30994 C 691.356 4.74639 -5.19936 0
M  V30 30995 C 692.066 3.49432 -4.70418 0
M  V30 30996 N 692.016 3.31776 -3.22945 0
M  V30 30997 H 694.855 6.54213 -5.71376 0
M  V30 30998 H 695.127 5.30492 -4.44033 0
M  V30 30999 H 694.259 4.55889 -6.76652 0
M  V30 31000 P 690.296 4.23843 -7.83734 0
M  V30 31001 O 690.076 4.19407 -9.29784 0
M  V30 31002 O 689.506 5.24426 -7.09156 0
M  V30 31003 O 690.046 2.7935 -7.20758 0
M  V30 31004 C 690.986 1.7299 -7.50419 0
M  V30 31005 C 690.256 0.406376 -7.57911 0
M  V30 31006 O 690.046 -0.0897726 -6.21935 0
M  V30 31007 C 688.856 0.447224 -8.1878 0
M  V30 31008 O 688.466 -0.825065 -8.71101 0
M  V30 31009 C 687.976 0.783801 -6.99623 0
M  V30 31010 C 688.686 0.0619192 -5.85967 0
M  V30 31011 N 688.636 0.7859 -4.56281 0
M  V30 31012 H 691.475 1.93423 -8.4679 0
M  V30 31013 H 691.747 1.68181 -6.71046 0
M  V30 31014 H 690.879 -0.289041 -8.15388 0
M  V30 31015 P 686.916 -1.17771 -8.83182 0
M  V30 31016 O 686.696 -2.07206 -9.98732 0
M  V30 31017 O 686.126 0.0743816 -8.81969 0
M  V30 31018 O 686.666 -1.97652 -7.47304 0
M  V30 31019 C 687.606 -3.01133 -7.08783 0
M  V30 31020 C 686.876 -4.12613 -6.37049 0
M  V30 31021 O 686.666 -3.72827 -4.97879 0
M  V30 31022 C 685.476 -4.45085 -6.88694 0
M  V30 31023 O 685.086 -5.7877 -6.5624 0
M  V30 31024 C 684.596 -3.47817 -6.12078 0
M  V30 31025 C 685.306 -3.39414 -4.77697 0
M  V30 31026 N 685.256 -2.04615 -4.15333 0
M  V30 31027 H 688.095 -3.41248 -7.98759 0
M  V30 31028 H 688.367 -2.5837 -6.41742 0
M  V30 31029 H 687.499 -5.02657 -6.42673 0
M  V30 31030 P 683.536 -6.144 -6.45285 0
M  V30 31031 O 683.316 -7.54673 -6.86199 0
M  V30 31032 O 682.746 -5.12391 -7.179 0
M  V30 31033 O 683.286 -5.99158 -4.88404 0
M  V30 31034 C 684.226 -6.60234 -3.96415 0
M  V30 31035 C 683.496 -7.08259 -2.72856 0
M  V30 31036 O 683.286 -5.9427 -1.83651 0
M  V30 31037 C 682.096 -7.64886 -2.9555 0
M  V30 31038 O 681.706 -8.53963 -1.90717 0
M  V30 31039 C 681.216 -6.4116 -2.90739 0
M  V30 31040 C 681.926 -5.55375 -1.86963 0
M  V30 31041 N 681.876 -4.09664 -2.15742 0
M  V30 31042 H 684.715 -7.45574 -4.45629 0
M  V30 31043 H 684.987 -5.86232 -3.67314 0
M  V30 31044 H 684.119 -7.84412 -2.24479 0
M  V30 31045 P 680.156 -8.7635 -1.60911 0
M  V30 31046 O 679.936 -10.1388 -1.11561 0
M  V30 31047 O 679.366 -8.36503 -2.79617 0
M  V30 31048 O 679.906 -7.71806 -0.42951 0
M  V30 31049 C 680.846 -7.67148 0.673689 0
M  V30 31050 C 680.116 -7.33374 1.95559 0
M  V30 31051 O 679.906 -5.88721 2.00726 0
M  V30 31052 C 678.716 -7.92526 2.10483 0
M  V30 31053 O 678.326 -8.02971 3.47653 0
M  V30 31054 C 677.836 -6.89602 1.41652 0
M  V30 31055 C 678.546 -5.59201 1.75185 0
M  V30 31056 N 678.496 -4.58235 0.662552 0
M  V30 31057 C 678.576 -4.7683 -0.704049 0
M  V30 31058 N 678.496 -3.66233 -1.39775 0
M  V30 31059 C 678.356 -2.66526 -0.431739 0
M  V30 31060 C 678.226 -1.26394 -0.575992 0
M  V30 31061 N 678.106 -0.62859 0.67177 0
M  V30 31062 C 678.106 -1.27134 1.89385 0
M  V30 31063 N 677.976 -0.492035 2.96951 0
M  V30 31064 N 678.236 -2.58978 2.02907 0
M  V30 31065 C 678.356 -3.22433 0.832218 0
M  V30 31066 H 681.335 -8.65116 0.777161 0
M  V30 31067 H 681.607 -6.90173 0.474152 0
M  V30 31068 H 680.739 -7.66548 2.79458 0
M  V30 31069 P 676.776 -8.03563 3.84925 0
M  V30 31070 O 676.556 -8.85821 5.0569 0
M  V30 31071 O 675.986 -8.41101 2.65469 0
M  V30 31072 O 676.526 -6.4965 4.18908 0
M  V30 31073 C 677.466 -5.81037 5.05421 0
M  V30 31074 C 676.736 -4.78366 5.89277 0
M  V30 31075 O 676.526 -3.58302 5.08433 0
M  V30 31076 C 675.336 -5.17448 6.36119 0
M  V30 31077 O 674.946 -4.45271 7.53232 0
M  V30 31078 C 674.456 -4.74639 5.19936 0
M  V30 31079 C 675.166 -3.49432 4.70418 0
M  V30 31080 N 675.116 -3.31776 3.22945 0
M  V30 31081 H 677.955 -6.54213 5.71376 0
M  V30 31082 H 678.227 -5.30492 4.44033 0
M  V30 31083 H 677.359 -4.55889 6.76652 0
M  V30 31084 P 673.396 -4.23843 7.83734 0
M  V30 31085 O 673.176 -4.19407 9.29784 0
M  V30 31086 O 672.606 -5.24426 7.09156 0
M  V30 31087 O 673.146 -2.7935 7.20758 0
M  V30 31088 C 674.086 -1.7299 7.50419 0
M  V30 31089 C 673.356 -0.406376 7.57911 0
M  V30 31090 O 673.146 0.0897726 6.21935 0
M  V30 31091 C 671.956 -0.447224 8.1878 0
M  V30 31092 O 671.566 0.825065 8.71101 0
M  V30 31093 C 671.076 -0.783801 6.99623 0
M  V30 31094 C 671.786 -0.0619192 5.85967 0
M  V30 31095 N 671.736 -0.7859 4.56281 0
M  V30 31096 H 674.575 -1.93423 8.4679 0
M  V30 31097 H 674.847 -1.68181 6.71046 0
M  V30 31098 H 673.979 0.289041 8.15388 0
M  V30 31099 P 670.016 1.17771 8.83182 0
M  V30 31100 O 669.796 2.07206 9.98732 0
M  V30 31101 O 669.226 -0.0743816 8.81969 0
M  V30 31102 O 669.766 1.97652 7.47304 0
M  V30 31103 C 670.706 3.01133 7.08783 0
M  V30 31104 C 669.976 4.12613 6.37049 0
M  V30 31105 O 669.766 3.72827 4.97879 0
M  V30 31106 C 668.576 4.45085 6.88694 0
M  V30 31107 O 668.186 5.7877 6.5624 0
M  V30 31108 C 667.696 3.47817 6.12078 0
M  V30 31109 C 668.406 3.39414 4.77697 0
M  V30 31110 N 668.356 2.04615 4.15333 0
M  V30 31111 H 671.195 3.41248 7.98759 0
M  V30 31112 H 671.467 2.5837 6.41742 0
M  V30 31113 H 670.599 5.02657 6.42673 0
M  V30 31114 P 666.636 6.144 6.45285 0
M  V30 31115 O 666.416 7.54673 6.86199 0
M  V30 31116 O 665.846 5.12391 7.179 0
M  V30 31117 O 666.386 5.99158 4.88404 0
M  V30 31118 C 667.326 6.60234 3.96415 0
M  V30 31119 C 666.596 7.08259 2.72856 0
M  V30 31120 O 666.386 5.9427 1.83651 0
M  V30 31121 C 665.196 7.64886 2.9555 0
M  V30 31122 O 664.806 8.53963 1.90717 0
M  V30 31123 C 664.316 6.4116 2.90739 0
M  V30 31124 C 665.026 5.55375 1.86963 0
M  V30 31125 N 664.976 4.09664 2.15742 0
M  V30 31126 H 667.815 7.45574 4.45629 0
M  V30 31127 H 668.087 5.86232 3.67314 0
M  V30 31128 H 667.219 7.84412 2.24479 0
M  V30 31129 P 663.256 8.7635 1.60911 0
M  V30 31130 O 663.036 10.1388 1.11561 0
M  V30 31131 O 662.466 8.36503 2.79617 0
M  V30 31132 O 663.006 7.71806 0.42951 0
M  V30 31133 C 663.946 7.67148 -0.673689 0
M  V30 31134 C 663.216 7.33374 -1.95559 0
M  V30 31135 O 663.006 5.88721 -2.00726 0
M  V30 31136 C 661.816 7.92526 -2.10483 0
M  V30 31137 O 661.426 8.02971 -3.47653 0
M  V30 31138 C 660.936 6.89602 -1.41652 0
M  V30 31139 C 661.646 5.59201 -1.75185 0
M  V30 31140 N 661.596 4.58235 -0.662552 0
M  V30 31141 H 664.435 8.65116 -0.777161 0
M  V30 31142 H 664.707 6.90173 -0.474152 0
M  V30 31143 H 663.839 7.66548 -2.79458 0
M  V30 31144 P 659.876 8.03563 -3.84925 0
M  V30 31145 O 659.656 8.85821 -5.0569 0
M  V30 31146 O 659.086 8.41101 -2.65469 0
M  V30 31147 O 659.626 6.4965 -4.18908 0
M  V30 31148 C 660.566 5.81037 -5.05421 0
M  V30 31149 C 659.836 4.78366 -5.89277 0
M  V30 31150 O 659.626 3.58302 -5.08433 0
M  V30 31151 C 658.436 5.17448 -6.36119 0
M  V30 31152 O 658.046 4.45271 -7.53232 0
M  V30 31153 C 657.556 4.74639 -5.19936 0
M  V30 31154 C 658.266 3.49432 -4.70418 0
M  V30 31155 N 658.216 3.32099 -3.22613 0
M  V30 31156 H 661.055 6.54213 -5.71376 0
M  V30 31157 H 661.327 5.30936 -4.43503 0
M  V30 31158 H 660.459 4.55889 -6.76652 0
M  V30 31159 H 657.804 2.61715 -5.17932 0
M  V30 31160 H 657.524 5.52155 -4.41878 0
M  V30 31161 H 656.533 4.51981 -5.53374 0
M  V30 31162 H 658.367 6.25124 -6.55234 0
M  V30 31163 P 656.496 4.23843 -7.83734 0
M  V30 31164 O 656.276 4.19407 -9.29784 0
M  V30 31165 O 655.706 5.24426 -7.09156 0
M  V30 31166 O 656.246 2.7935 -7.20758 0
M  V30 31167 C 657.186 1.7299 -7.50419 0
M  V30 31168 C 656.456 0.406376 -7.57911 0
M  V30 31169 O 656.246 -0.0897726 -6.21935 0
M  V30 31170 C 655.056 0.447224 -8.1878 0
M  V30 31171 O 654.666 -0.825065 -8.71101 0
M  V30 31172 C 654.176 0.783801 -6.99623 0
M  V30 31173 C 654.886 0.0619192 -5.85967 0
M  V30 31174 N 654.836 0.7859 -4.56281 0
M  V30 31175 H 657.675 1.93423 -8.4679 0
M  V30 31176 H 657.947 1.68181 -6.71046 0
M  V30 31177 H 657.079 -0.289041 -8.15388 0
M  V30 31178 P 653.116 -1.17771 -8.83182 0
M  V30 31179 O 652.896 -2.07206 -9.98732 0
M  V30 31180 O 652.326 0.0743816 -8.81969 0
M  V30 31181 O 652.866 -1.97652 -7.47304 0
M  V30 31182 C 653.806 -3.01133 -7.08783 0
M  V30 31183 C 653.076 -4.12613 -6.37049 0
M  V30 31184 O 652.866 -3.72827 -4.97879 0
M  V30 31185 C 651.676 -4.45085 -6.88694 0
M  V30 31186 O 651.286 -5.7877 -6.5624 0
M  V30 31187 C 650.796 -3.47817 -6.12078 0
M  V30 31188 C 651.506 -3.39414 -4.77697 0
M  V30 31189 N 651.456 -2.04615 -4.15333 0
M  V30 31190 H 654.295 -3.41248 -7.98759 0
M  V30 31191 H 654.567 -2.5837 -6.41742 0
M  V30 31192 H 653.699 -5.02657 -6.42673 0
M  V30 31193 P 649.736 -6.144 -6.45285 0
M  V30 31194 O 649.516 -7.54673 -6.86199 0
M  V30 31195 O 648.946 -5.12391 -7.179 0
M  V30 31196 O 649.486 -5.99158 -4.88404 0
M  V30 31197 C 650.426 -6.60234 -3.96415 0
M  V30 31198 C 649.696 -7.08259 -2.72856 0
M  V30 31199 O 649.486 -5.9427 -1.83651 0
M  V30 31200 C 648.296 -7.64886 -2.9555 0
M  V30 31201 O 647.906 -8.53963 -1.90717 0
M  V30 31202 C 647.416 -6.4116 -2.90739 0
M  V30 31203 C 648.126 -5.55375 -1.86963 0
M  V30 31204 N 648.076 -4.09448 -2.16152 0
M  V30 31205 H 650.915 -7.45574 -4.45629 0
M  V30 31206 H 651.187 -5.85864 -3.679 0
M  V30 31207 H 650.319 -7.84412 -2.24479 0
M  V30 31208 H 647.664 -5.73457 -0.888562 0
M  V30 31209 H 647.384 -5.90877 -3.88583 0
M  V30 31210 H 646.393 -6.6596 -2.58858 0
M  V30 31211 H 648.227 -8.16339 -3.92049 0
M  V30 31212 P 646.356 -8.7635 -1.60911 0
M  V30 31213 O 646.136 -10.1388 -1.11561 0
M  V30 31214 O 645.566 -8.36503 -2.79617 0
M  V30 31215 O 646.106 -7.71806 -0.42951 0
M  V30 31216 C 647.046 -7.67148 0.673689 0
M  V30 31217 C 646.316 -7.33374 1.95559 0
M  V30 31218 O 646.106 -5.88721 2.00726 0
M  V30 31219 C 644.916 -7.92526 2.10483 0
M  V30 31220 O 644.526 -8.02971 3.47653 0
M  V30 31221 C 644.036 -6.89602 1.41652 0
M  V30 31222 C 644.746 -5.59201 1.75185 0
M  V30 31223 N 644.696 -4.58235 0.662552 0
M  V30 31224 H 647.535 -8.65116 0.777161 0
M  V30 31225 H 647.807 -6.90173 0.474152 0
M  V30 31226 H 646.939 -7.66548 2.79458 0
M  V30 31227 P 642.976 -8.03563 3.84925 0
M  V30 31228 O 642.756 -8.85821 5.0569 0
M  V30 31229 O 642.186 -8.41101 2.65469 0
M  V30 31230 O 642.726 -6.4965 4.18908 0
M  V30 31231 C 643.666 -5.81037 5.05421 0
M  V30 31232 C 642.936 -4.78366 5.89277 0
M  V30 31233 O 642.726 -3.58302 5.08433 0
M  V30 31234 C 641.536 -5.17448 6.36119 0
M  V30 31235 O 641.146 -4.45271 7.53232 0
M  V30 31236 C 640.656 -4.74639 5.19936 0
M  V30 31237 C 641.366 -3.49432 4.70418 0
M  V30 31238 N 641.316 -3.31776 3.22945 0
M  V30 31239 H 644.155 -6.54213 5.71376 0
M  V30 31240 H 644.427 -5.30492 4.44033 0
M  V30 31241 H 643.559 -4.55889 6.76652 0
M  V30 31242 P 639.596 -4.23843 7.83734 0
M  V30 31243 O 639.376 -4.19407 9.29784 0
M  V30 31244 O 638.806 -5.24426 7.09156 0
M  V30 31245 O 639.346 -2.7935 7.20758 0
M  V30 31246 C 640.286 -1.7299 7.50419 0
M  V30 31247 C 639.556 -0.406376 7.57911 0
M  V30 31248 O 639.346 0.0897726 6.21935 0
M  V30 31249 C 638.156 -0.447224 8.1878 0
M  V30 31250 O 637.766 0.825065 8.71101 0
M  V30 31251 C 637.276 -0.783801 6.99623 0
M  V30 31252 C 637.986 -0.0619192 5.85967 0
M  V30 31253 N 637.936 -0.7859 4.56281 0
M  V30 31254 H 640.775 -1.93423 8.4679 0
M  V30 31255 H 641.047 -1.68181 6.71046 0
M  V30 31256 H 640.179 0.289041 8.15388 0
M  V30 31257 P 636.216 1.17771 8.83182 0
M  V30 31258 O 635.996 2.07206 9.98732 0
M  V30 31259 O 635.426 -0.0743816 8.81969 0
M  V30 31260 O 635.966 1.97652 7.47304 0
M  V30 31261 C 636.906 3.01133 7.08783 0
M  V30 31262 C 636.176 4.12613 6.37049 0
M  V30 31263 O 635.966 3.72827 4.97879 0
M  V30 31264 C 634.776 4.45085 6.88694 0
M  V30 31265 O 634.386 5.7877 6.5624 0
M  V30 31266 C 633.896 3.47817 6.12078 0
M  V30 31267 C 634.606 3.39414 4.77697 0
M  V30 31268 N 634.556 2.04615 4.15333 0
M  V30 31269 C 634.636 0.803897 4.75249 0
M  V30 31270 N 634.556 -0.197615 3.91502 0
M  V30 31271 C 634.416 0.413002 2.66823 0
M  V30 31272 C 634.286 -0.157221 1.38007 0
M  V30 31273 N 634.166 0.833136 0.390236 0
M  V30 31274 C 634.166 2.19402 0.623885 0
M  V30 31275 N 634.036 2.97622 -0.449677 0
M  V30 31276 N 634.296 2.73005 1.83601 0
M  V30 31277 C 634.416 1.78786 2.80935 0
M  V30 31278 H 637.395 3.41248 7.98759 0
M  V30 31279 H 637.667 2.5837 6.41742 0
M  V30 31280 H 636.799 5.02657 6.42673 0
M  V30 31281 P 632.836 6.144 6.45285 0
M  V30 31282 O 632.616 7.54673 6.86199 0
M  V30 31283 O 632.046 5.12391 7.179 0
M  V30 31284 O 632.586 5.99158 4.88404 0
M  V30 31285 C 633.526 6.60234 3.96415 0
M  V30 31286 C 632.796 7.08259 2.72856 0
M  V30 31287 O 632.586 5.9427 1.83651 0
M  V30 31288 C 631.396 7.64886 2.9555 0
M  V30 31289 O 631.006 8.53963 1.90717 0
M  V30 31290 C 630.516 6.4116 2.90739 0
M  V30 31291 C 631.226 5.55375 1.86963 0
M  V30 31292 N 631.176 4.09664 2.15742 0
M  V30 31293 H 634.015 7.45574 4.45629 0
M  V30 31294 H 634.287 5.86232 3.67314 0
M  V30 31295 H 633.419 7.84412 2.24479 0
M  V30 31296 P 629.456 8.7635 1.60911 0
M  V30 31297 O 629.236 10.1388 1.11561 0
M  V30 31298 O 628.666 8.36503 2.79617 0
M  V30 31299 O 629.206 7.71806 0.42951 0
M  V30 31300 C 630.146 7.67148 -0.673689 0
M  V30 31301 C 629.416 7.33374 -1.95559 0
M  V30 31302 O 629.206 5.88721 -2.00726 0
M  V30 31303 C 628.016 7.92526 -2.10483 0
M  V30 31304 O 627.626 8.02971 -3.47653 0
M  V30 31305 C 627.136 6.89602 -1.41652 0
M  V30 31306 C 627.846 5.59201 -1.75185 0
M  V30 31307 N 627.796 4.58235 -0.662552 0
M  V30 31308 H 630.635 8.65116 -0.777161 0
M  V30 31309 H 630.907 6.90173 -0.474152 0
M  V30 31310 H 630.039 7.66548 -2.79458 0
M  V30 31311 P 626.076 8.03563 -3.84925 0
M  V30 31312 O 625.856 8.85821 -5.0569 0
M  V30 31313 O 625.286 8.41101 -2.65469 0
M  V30 31314 O 625.826 6.4965 -4.18908 0
M  V30 31315 C 626.766 5.81037 -5.05421 0
M  V30 31316 C 626.036 4.78366 -5.89277 0
M  V30 31317 O 625.826 3.58302 -5.08433 0
M  V30 31318 C 624.636 5.17448 -6.36119 0
M  V30 31319 O 624.246 4.45271 -7.53232 0
M  V30 31320 C 623.756 4.74639 -5.19936 0
M  V30 31321 C 624.466 3.49432 -4.70418 0
M  V30 31322 N 624.416 3.32099 -3.22613 0
M  V30 31323 H 627.255 6.54213 -5.71376 0
M  V30 31324 H 627.527 5.30936 -4.43503 0
M  V30 31325 H 626.659 4.55889 -6.76652 0
M  V30 31326 H 624.004 2.61715 -5.17932 0
M  V30 31327 H 623.724 5.52155 -4.41878 0
M  V30 31328 H 622.733 4.51981 -5.53374 0
M  V30 31329 H 624.567 6.25124 -6.55234 0
M  V30 31330 P 622.696 4.23843 -7.83734 0
M  V30 31331 O 622.476 4.19407 -9.29784 0
M  V30 31332 O 621.906 5.24426 -7.09156 0
M  V30 31333 O 622.446 2.7935 -7.20758 0
M  V30 31334 C 623.386 1.7299 -7.50419 0
M  V30 31335 C 622.656 0.406376 -7.57911 0
M  V30 31336 O 622.446 -0.0897726 -6.21935 0
M  V30 31337 C 621.256 0.447224 -8.1878 0
M  V30 31338 O 620.866 -0.825065 -8.71101 0
M  V30 31339 C 620.376 0.783801 -6.99623 0
M  V30 31340 C 621.086 0.0619192 -5.85967 0
M  V30 31341 N 621.036 0.790462 -4.56202 0
M  V30 31342 H 623.875 1.93423 -8.4679 0
M  V30 31343 H 624.147 1.68852 -6.70877 0
M  V30 31344 H 623.279 -0.289041 -8.15388 0
M  V30 31345 H 620.624 -0.927006 -5.72848 0
M  V30 31346 H 620.344 1.86973 -6.82036 0
M  V30 31347 H 619.353 0.403953 -7.13357 0
M  V30 31348 H 621.187 1.20599 -8.97534 0
M  V30 31349 P 619.316 -1.17771 -8.83182 0
M  V30 31350 O 619.096 -2.07206 -9.98732 0
M  V30 31351 O 618.526 0.0743816 -8.81969 0
M  V30 31352 O 619.066 -1.97652 -7.47304 0
M  V30 31353 C 620.006 -3.01133 -7.08783 0
M  V30 31354 C 619.276 -4.12613 -6.37049 0
M  V30 31355 O 619.066 -3.72827 -4.97879 0
M  V30 31356 C 617.876 -4.45085 -6.88694 0
M  V30 31357 O 617.486 -5.7877 -6.5624 0
M  V30 31358 C 616.996 -3.47817 -6.12078 0
M  V30 31359 C 617.706 -3.39414 -4.77697 0
M  V30 31360 N 617.656 -2.04615 -4.15333 0
M  V30 31361 H 620.495 -3.41248 -7.98759 0
M  V30 31362 H 620.767 -2.5837 -6.41742 0
M  V30 31363 H 619.899 -5.02657 -6.42673 0
M  V30 31364 P 615.936 -6.144 -6.45285 0
M  V30 31365 O 615.716 -7.54673 -6.86199 0
M  V30 31366 O 615.146 -5.12391 -7.179 0
M  V30 31367 O 615.686 -5.99158 -4.88404 0
M  V30 31368 C 616.626 -6.60234 -3.96415 0
M  V30 31369 C 615.896 -7.08259 -2.72856 0
M  V30 31370 O 615.686 -5.9427 -1.83651 0
M  V30 31371 C 614.496 -7.64886 -2.9555 0
M  V30 31372 O 614.106 -8.53963 -1.90717 0
M  V30 31373 C 613.616 -6.4116 -2.90739 0
M  V30 31374 C 614.326 -5.55375 -1.86963 0
M  V30 31375 N 614.276 -4.09664 -2.15742 0
M  V30 31376 H 617.115 -7.45574 -4.45629 0
M  V30 31377 H 617.387 -5.86232 -3.67314 0
M  V30 31378 H 616.519 -7.84412 -2.24479 0
M  V30 31379 P 612.556 -8.7635 -1.60911 0
M  V30 31380 O 612.336 -10.1388 -1.11561 0
M  V30 31381 O 611.766 -8.36503 -2.79617 0
M  V30 31382 O 612.306 -7.71806 -0.42951 0
M  V30 31383 C 613.246 -7.67148 0.673689 0
M  V30 31384 C 612.516 -7.33374 1.95559 0
M  V30 31385 O 612.306 -5.88721 2.00726 0
M  V30 31386 C 611.116 -7.92526 2.10483 0
M  V30 31387 O 610.726 -8.02971 3.47653 0
M  V30 31388 C 610.236 -6.89602 1.41652 0
M  V30 31389 C 610.946 -5.59201 1.75185 0
M  V30 31390 N 610.896 -4.58235 0.662552 0
M  V30 31391 H 613.735 -8.65116 0.777161 0
M  V30 31392 H 614.007 -6.90173 0.474152 0
M  V30 31393 H 613.139 -7.66548 2.79458 0
M  V30 31394 P 609.176 -8.03563 3.84925 0
M  V30 31395 O 608.956 -8.85821 5.0569 0
M  V30 31396 O 608.386 -8.41101 2.65469 0
M  V30 31397 O 608.926 -6.4965 4.18908 0
M  V30 31398 C 609.866 -5.81037 5.05421 0
M  V30 31399 C 609.136 -4.78366 5.89277 0
M  V30 31400 O 608.926 -3.58302 5.08433 0
M  V30 31401 C 607.736 -5.17448 6.36119 0
M  V30 31402 O 607.346 -4.45271 7.53232 0
M  V30 31403 C 606.856 -4.74639 5.19936 0
M  V30 31404 C 607.566 -3.49432 4.70418 0
M  V30 31405 N 607.516 -3.32099 3.22613 0
M  V30 31406 H 610.355 -6.54213 5.71376 0
M  V30 31407 H 610.627 -5.30936 4.43503 0
M  V30 31408 H 609.759 -4.55889 6.76652 0
M  V30 31409 H 607.104 -2.61715 5.17932 0
M  V30 31410 H 606.824 -5.52155 4.41878 0
M  V30 31411 H 605.833 -4.51981 5.53374 0
M  V30 31412 H 607.667 -6.25124 6.55234 0
M  V30 31413 P 605.796 -4.23843 7.83734 0
M  V30 31414 O 605.576 -4.19407 9.29784 0
M  V30 31415 O 605.006 -5.24426 7.09156 0
M  V30 31416 O 605.546 -2.7935 7.20758 0
M  V30 31417 C 606.486 -1.7299 7.50419 0
M  V30 31418 C 605.756 -0.406376 7.57911 0
M  V30 31419 O 605.546 0.0897726 6.21935 0
M  V30 31420 C 604.356 -0.447224 8.1878 0
M  V30 31421 O 603.966 0.825065 8.71101 0
M  V30 31422 C 603.476 -0.783801 6.99623 0
M  V30 31423 C 604.186 -0.0619192 5.85967 0
M  V30 31424 N 604.136 -0.7859 4.56281 0
M  V30 31425 H 606.975 -1.93423 8.4679 0
M  V30 31426 H 607.247 -1.68181 6.71046 0
M  V30 31427 H 606.379 0.289041 8.15388 0
M  V30 31428 P 602.416 1.17771 8.83182 0
M  V30 31429 O 602.196 2.07206 9.98732 0
M  V30 31430 O 601.626 -0.0743816 8.81969 0
M  V30 31431 O 602.166 1.97652 7.47304 0
M  V30 31432 C 603.106 3.01133 7.08783 0
M  V30 31433 C 602.376 4.12613 6.37049 0
M  V30 31434 O 602.166 3.72827 4.97879 0
M  V30 31435 C 600.976 4.45085 6.88694 0
M  V30 31436 O 600.586 5.7877 6.5624 0
M  V30 31437 C 600.096 3.47817 6.12078 0
M  V30 31438 C 600.806 3.39414 4.77697 0
M  V30 31439 N 600.756 2.04615 4.15333 0
M  V30 31440 H 603.595 3.41248 7.98759 0
M  V30 31441 H 603.867 2.5837 6.41742 0
M  V30 31442 H 602.999 5.02657 6.42673 0
M  V30 31443 P 599.036 6.144 6.45285 0
M  V30 31444 O 598.816 7.54673 6.86199 0
M  V30 31445 O 598.246 5.12391 7.179 0
M  V30 31446 O 598.786 5.99158 4.88404 0
M  V30 31447 C 599.726 6.60234 3.96415 0
M  V30 31448 C 598.996 7.08259 2.72856 0
M  V30 31449 O 598.786 5.9427 1.83651 0
M  V30 31450 C 597.596 7.64886 2.9555 0
M  V30 31451 O 597.206 8.53963 1.90717 0
M  V30 31452 C 596.716 6.4116 2.90739 0
M  V30 31453 C 597.426 5.55375 1.86963 0
M  V30 31454 N 597.376 4.09664 2.15742 0
M  V30 31455 H 600.215 7.45574 4.45629 0
M  V30 31456 H 600.487 5.86232 3.67314 0
M  V30 31457 H 599.619 7.84412 2.24479 0
M  V30 31458 P 595.656 8.7635 1.60911 0
M  V30 31459 O 595.437 10.1388 1.11561 0
M  V30 31460 O 594.866 8.36503 2.79617 0
M  V30 31461 O 595.406 7.71806 0.42951 0
M  V30 31462 C 596.346 7.67148 -0.673689 0
M  V30 31463 C 595.616 7.33374 -1.95559 0
M  V30 31464 O 595.406 5.88721 -2.00726 0
M  V30 31465 C 594.216 7.92526 -2.10483 0
M  V30 31466 O 593.827 8.02971 -3.47653 0
M  V30 31467 C 593.337 6.89602 -1.41652 0
M  V30 31468 C 594.046 5.59201 -1.75185 0
M  V30 31469 N 593.996 4.58301 -0.657969 0
M  V30 31470 H 596.836 8.65116 -0.777161 0
M  V30 31471 H 597.107 6.9022 -0.46725 0
M  V30 31472 H 596.24 7.66548 -2.79458 0
M  V30 31473 H 593.584 5.16165 -2.65183 0
M  V30 31474 H 593.304 7.06433 -0.329384 0
M  V30 31475 H 592.313 6.90926 -1.82021 0
M  V30 31476 H 594.147 8.90873 -1.62657 0
M  V30 31477 P 592.277 8.03563 -3.84925 0
M  V30 31478 O 592.057 8.85821 -5.0569 0
M  V30 31479 O 591.487 8.41101 -2.65469 0
M  V30 31480 O 592.027 6.49734 -4.18962 0
M  V30 31481 C 592.967 5.81037 -5.05421 0
M  V30 31482 C 592.237 4.79018 -5.88876 0
M  V30 31483 O 592.027 3.58359 -5.08515 0
M  V30 31484 C 590.837 5.17448 -6.36119 0
M  V30 31485 O 590.447 4.45322 -7.53318 0
M  V30 31486 C 589.957 4.74639 -5.19936 0
M  V30 31487 C 590.667 3.49432 -4.70418 0
M  V30 31488 N 590.617 3.31776 -3.22945 0
M  V30 31489 C 590.467 2.02742 -2.72939 0
M  V30 31490 O 590.377 1.08301 -3.52749 0
M  V30 31491 N 590.417 1.96117 -1.22063 0
M  V30 31492 C 590.517 2.8878 -0.551566 0
M  V30 31493 N 590.467 2.65609 0.750198 0
M  V30 31494 C 590.667 4.22457 -1.03707 0
M  V30 31495 C 590.717 4.37979 -2.39113 0
M  V30 31496 H 593.457 6.54138 -5.7131 0
M  V30 31497 H 593.727 5.30492 -4.44033 0
M  V30 31498 H 592.86 4.55945 -6.76735 0
M  V30 31499 H 590.205 2.6176 -5.18021 0
M  V30 31500 H 589.925 5.52233 -4.41941 0
M  V30 31501 H 588.934 4.52045 -5.53452 0
M  V30 31502 H 590.768 6.25124 -6.55234 0
M  V30 31503 H 590.84 5.37936 -2.80552 0
M  V30 31504 H 590.738 5.07528 -0.359553 0
M  V30 31505 H 590.35 1.69403 1.09847 0
M  V30 31506 H 590.546 3.43701 1.41792 0
M  V30 31507 P 588.897 4.23843 -7.83734 0
M  V30 31508 O 588.677 4.19407 -9.29784 0
M  V30 31509 O 588.107 5.24426 -7.09156 0
M  V30 31510 O 588.647 2.79386 -7.20852 0
M  V30 31511 C 589.587 1.7299 -7.50419 0
M  V30 31512 C 588.857 0.41401 -7.5797 0
M  V30 31513 O 588.647 -0.089787 -6.22035 0
M  V30 31514 C 587.457 0.447224 -8.1878 0
M  V30 31515 O 587.067 -0.825159 -8.71201 0
M  V30 31516 C 586.577 0.783801 -6.99623 0
M  V30 31517 C 587.287 0.0619192 -5.85967 0
M  V30 31518 N 587.237 0.7859 -4.56281 0
M  V30 31519 C 587.087 0.0359258 -3.39981 0
M  V30 31520 O 586.997 -1.19723 -3.49038 0
M  V30 31521 N 587.037 0.869151 -2.14025 0
M  V30 31522 C 587.137 2.01207 -2.14363 0
M  V30 31523 N 587.087 2.58978 -0.954287 0
M  V30 31524 C 587.287 2.80817 -3.32215 0
M  V30 31525 C 587.337 2.13785 -4.50884 0
M  V30 31526 H 590.077 1.93401 -8.46693 0
M  V30 31527 H 590.347 1.68181 -6.71046 0
M  V30 31528 H 589.48 -0.289076 -8.15488 0
M  V30 31529 H 586.825 -0.927166 -5.72947 0
M  V30 31530 H 586.545 1.87 -6.82132 0
M  V30 31531 H 585.554 0.404009 -7.13457 0
M  V30 31532 H 587.388 1.20599 -8.97534 0
M  V30 31533 H 587.46 2.70295 -5.43162 0
M  V30 31534 H 587.358 3.89465 -3.27406 0
M  V30 31535 H 586.97 2.01616 -0.107046 0
M  V30 31536 H 587.166 3.61403 -0.873101 0
M  V30 31537 P 585.517 -1.17771 -8.83182 0
M  V30 31538 O 585.297 -2.07206 -9.98732 0
M  V30 31539 O 584.727 0.0743816 -8.81969 0
M  V30 31540 O 585.267 -1.97652 -7.47304 0
M  V30 31541 C 586.207 -3.01133 -7.08783 0
M  V30 31542 C 585.477 -4.12613 -6.37049 0
M  V30 31543 O 585.267 -3.72827 -4.97879 0
M  V30 31544 C 584.077 -4.45085 -6.88694 0
M  V30 31545 O 583.687 -5.7877 -6.5624 0
M  V30 31546 C 583.197 -3.47817 -6.12078 0
M  V30 31547 C 583.907 -3.39414 -4.77697 0
M  V30 31548 N 583.857 -2.04615 -4.15333 0
M  V30 31549 H 586.696 -3.41248 -7.98759 0
M  V30 31550 H 586.968 -2.5837 -6.41742 0
M  V30 31551 H 586.1 -5.02657 -6.42673 0
M  V30 31552 P 582.137 -6.144 -6.45285 0
M  V30 31553 O 581.917 -7.54673 -6.86199 0
M  V30 31554 O 581.347 -5.12391 -7.179 0
M  V30 31555 O 581.887 -5.99158 -4.88404 0
M  V30 31556 C 582.827 -6.60234 -3.96415 0
M  V30 31557 C 582.097 -7.08259 -2.72856 0
M  V30 31558 O 581.887 -5.9427 -1.83651 0
M  V30 31559 C 580.697 -7.64886 -2.9555 0
M  V30 31560 O 580.307 -8.53963 -1.90717 0
M  V30 31561 C 579.817 -6.4116 -2.90739 0
M  V30 31562 C 580.527 -5.55375 -1.86963 0
M  V30 31563 N 580.477 -4.09664 -2.15742 0
M  V30 31564 H 583.316 -7.45574 -4.45629 0
M  V30 31565 H 583.588 -5.86232 -3.67314 0
M  V30 31566 H 582.72 -7.84412 -2.24479 0
M  V30 31567 P 578.757 -8.7635 -1.60911 0
M  V30 31568 O 578.537 -10.1388 -1.11561 0
M  V30 31569 O 577.967 -8.36503 -2.79617 0
M  V30 31570 O 578.507 -7.71806 -0.42951 0
M  V30 31571 C 579.447 -7.67148 0.673689 0
M  V30 31572 C 578.717 -7.33374 1.95559 0
M  V30 31573 O 578.507 -5.88721 2.00726 0
M  V30 31574 C 577.317 -7.92526 2.10483 0
M  V30 31575 O 576.927 -8.02971 3.47653 0
M  V30 31576 C 576.437 -6.89602 1.41652 0
M  V30 31577 C 577.147 -5.59201 1.75185 0
M  V30 31578 N 577.097 -4.58235 0.662552 0
M  V30 31579 H 579.936 -8.65116 0.777161 0
M  V30 31580 H 580.208 -6.90173 0.474152 0
M  V30 31581 H 579.34 -7.66548 2.79458 0
M  V30 31582 P 575.377 -8.03563 3.84925 0
M  V30 31583 O 575.157 -8.85821 5.0569 0
M  V30 31584 O 574.587 -8.41101 2.65469 0
M  V30 31585 O 575.127 -6.4965 4.18908 0
M  V30 31586 C 576.067 -5.81037 5.05421 0
M  V30 31587 C 575.337 -4.78366 5.89277 0
M  V30 31588 O 575.127 -3.58302 5.08433 0
M  V30 31589 C 573.937 -5.17448 6.36119 0
M  V30 31590 O 573.547 -4.45271 7.53232 0
M  V30 31591 C 573.057 -4.74639 5.19936 0
M  V30 31592 C 573.767 -3.49432 4.70418 0
M  V30 31593 N 573.717 -3.31776 3.22945 0
M  V30 31594 H 576.556 -6.54213 5.71376 0
M  V30 31595 H 576.828 -5.30492 4.44033 0
M  V30 31596 H 575.96 -4.55889 6.76652 0
M  V30 31597 P 571.997 -4.23843 7.83734 0
M  V30 31598 O 571.777 -4.19407 9.29784 0
M  V30 31599 O 571.207 -5.24426 7.09156 0
M  V30 31600 O 571.747 -2.7935 7.20758 0
M  V30 31601 C 572.687 -1.7299 7.50419 0
M  V30 31602 C 571.957 -0.406376 7.57911 0
M  V30 31603 O 571.747 0.0897726 6.21935 0
M  V30 31604 C 570.557 -0.447224 8.1878 0
M  V30 31605 O 570.167 0.825065 8.71101 0
M  V30 31606 C 569.677 -0.783801 6.99623 0
M  V30 31607 C 570.387 -0.0619192 5.85967 0
M  V30 31608 N 570.337 -0.790462 4.56202 0
M  V30 31609 H 573.176 -1.93423 8.4679 0
M  V30 31610 H 573.448 -1.68852 6.70877 0
M  V30 31611 H 572.58 0.289041 8.15388 0
M  V30 31612 H 569.925 0.927006 5.72848 0
M  V30 31613 H 569.645 -1.86973 6.82036 0
M  V30 31614 H 568.654 -0.403953 7.13357 0
M  V30 31615 H 570.488 -1.20599 8.97534 0
M  V30 31616 P 568.617 1.17771 8.83182 0
M  V30 31617 O 568.397 2.07206 9.98732 0
M  V30 31618 O 567.827 -0.0743816 8.81969 0
M  V30 31619 O 568.367 1.97652 7.47304 0
M  V30 31620 C 569.307 3.01055 7.08599 0
M  V30 31621 C 568.577 4.12613 6.37049 0
M  V30 31622 O 568.367 3.72827 4.97879 0
M  V30 31623 C 567.177 4.45719 6.88164 0
M  V30 31624 O 566.787 5.7877 6.5624 0
M  V30 31625 C 566.297 3.47768 6.11991 0
M  V30 31626 C 567.007 3.39356 4.77615 0
M  V30 31627 N 566.957 2.04571 4.15244 0
M  V30 31628 C 566.807 1.98587 2.78314 0
M  V30 31629 O 566.717 2.98134 2.08835 0
M  V30 31630 N 566.767 0.714467 2.24925 0
M  V30 31631 C 566.857 -0.470001 2.94169 0
M  V30 31632 O 566.807 -1.55587 2.35195 0
M  V30 31633 C 567.007 -0.312541 4.36783 0
M  V30 31634 C 567.117 -1.57711 5.16352 0
M  V30 31635 C 567.057 0.914512 4.92583 0
M  V30 31636 H 569.798 3.41169 7.98575 0
M  V30 31637 H 570.067 2.58295 6.41556 0
M  V30 31638 H 569.2 5.02657 6.42673 0
M  V30 31639 H 566.545 4.11637 4.08885 0
M  V30 31640 H 566.266 2.49626 6.61679 0
M  V30 31641 H 565.274 3.86566 6.00778 0
M  V30 31642 H 567.108 4.29943 7.96918 0
M  V30 31643 H 567.179 1.00937 6.00374 0
M  V30 31644 H 566.149 -1.80153 5.63503 0
M  V30 31645 H 567.886 -1.4566 5.94104 0
M  V30 31646 H 567.398 -2.40664 4.49645 0
M  V30 31647 H 566.662 0.647622 1.25697 0
M  V30 31648 P 565.237 6.144 6.45285 0
M  V30 31649 O 565.017 7.54673 6.86199 0
M  V30 31650 O 564.447 5.12391 7.179 0
M  V30 31651 O 564.987 5.99158 4.88404 0
M  V30 31652 C 565.927 6.60062 3.96313 0
M  V30 31653 C 565.197 7.08259 2.72856 0
M  V30 31654 O 564.987 5.9427 1.83651 0
M  V30 31655 C 563.797 7.65087 2.94749 0
M  V30 31656 O 563.407 8.53963 1.90717 0
M  V30 31657 C 562.917 6.41069 2.90698 0
M  V30 31658 C 563.627 5.5528 1.86931 0
M  V30 31659 N 563.577 4.09575 2.15696 0
M  V30 31660 C 563.427 3.24249 1.08435 0
M  V30 31661 O 563.337 3.63946 -0.0628747 0
M  V30 31662 N 563.387 1.90009 1.39973 0
M  V30 31663 C 563.477 1.34884 2.65614 0
M  V30 31664 O 563.427 0.123716 2.81728 0
M  V30 31665 C 563.627 2.3145 3.71736 0
M  V30 31666 C 563.737 1.75913 5.10438 0
M  V30 31667 C 563.677 3.63518 3.44754 0
M  V30 31668 H 566.418 7.45402 4.45526 0
M  V30 31669 H 566.687 5.86062 3.67208 0
M  V30 31670 H 565.82 7.84412 2.24479 0
M  V30 31671 H 563.165 5.73358 0.888409 0
M  V30 31672 H 562.886 5.90877 3.88583 0
M  V30 31673 H 561.894 6.65867 2.58821 0
M  V30 31674 H 563.728 8.16248 3.92006 0
M  V30 31675 H 563.799 4.34551 4.26383 0
M  V30 31676 H 562.769 1.85471 5.61775 0
M  V30 31677 H 564.506 2.31364 5.66257 0
M  V30 31678 H 564.018 0.695936 5.05229 0
M  V30 31679 H 563.282 1.26277 0.63625 0
M  V30 31680 P 561.857 8.7635 1.60911 0
M  V30 31681 O 561.637 10.1388 1.11561 0
M  V30 31682 O 561.067 8.36503 2.79617 0
M  V30 31683 O 561.607 7.71806 0.42951 0
M  V30 31684 C 562.547 7.67148 -0.673689 0
M  V30 31685 C 561.817 7.33374 -1.95559 0
M  V30 31686 O 561.607 5.88721 -2.00726 0
M  V30 31687 C 560.417 7.92526 -2.10483 0
M  V30 31688 O 560.027 8.02971 -3.47653 0
M  V30 31689 C 559.537 6.89602 -1.41652 0
M  V30 31690 C 560.247 5.59201 -1.75185 0
M  V30 31691 N 560.197 4.58235 -0.662552 0
M  V30 31692 H 563.036 8.65116 -0.777161 0
M  V30 31693 H 563.308 6.90173 -0.474152 0
M  V30 31694 H 562.44 7.66548 -2.79458 0
M  V30 31695 P 558.477 8.03563 -3.84925 0
M  V30 31696 O 558.257 8.85821 -5.0569 0
M  V30 31697 O 557.687 8.41101 -2.65469 0
M  V30 31698 O 558.227 6.4965 -4.18908 0
M  V30 31699 C 559.167 5.81037 -5.05421 0
M  V30 31700 C 558.437 4.78366 -5.89277 0
M  V30 31701 O 558.227 3.58302 -5.08433 0
M  V30 31702 C 557.037 5.17448 -6.36119 0
M  V30 31703 O 556.647 4.45271 -7.53232 0
M  V30 31704 C 556.157 4.74639 -5.19936 0
M  V30 31705 C 556.867 3.49432 -4.70418 0
M  V30 31706 N 556.817 3.31776 -3.22945 0
M  V30 31707 H 559.656 6.54213 -5.71376 0
M  V30 31708 H 559.928 5.30492 -4.44033 0
M  V30 31709 H 559.06 4.55889 -6.76652 0
M  V30 31710 P 555.097 4.23843 -7.83734 0
M  V30 31711 O 554.877 4.19407 -9.29784 0
M  V30 31712 O 554.307 5.24426 -7.09156 0
M  V30 31713 O 554.847 2.7935 -7.20758 0
M  V30 31714 C 555.787 1.7299 -7.50419 0
M  V30 31715 C 555.057 0.406376 -7.57911 0
M  V30 31716 O 554.847 -0.0897726 -6.21935 0
M  V30 31717 C 553.657 0.447224 -8.1878 0
M  V30 31718 O 553.267 -0.825065 -8.71101 0
M  V30 31719 C 552.777 0.783801 -6.99623 0
M  V30 31720 C 553.487 0.0619192 -5.85967 0
M  V30 31721 N 553.437 0.7859 -4.56281 0
M  V30 31722 H 556.276 1.93423 -8.4679 0
M  V30 31723 H 556.548 1.68181 -6.71046 0
M  V30 31724 H 555.68 -0.289041 -8.15388 0
M  V30 31725 P 551.717 -1.17771 -8.83182 0
M  V30 31726 O 551.497 -2.07206 -9.98732 0
M  V30 31727 O 550.927 0.0743816 -8.81969 0
M  V30 31728 O 551.467 -1.97652 -7.47304 0
M  V30 31729 C 552.407 -3.01133 -7.08783 0
M  V30 31730 C 551.677 -4.12613 -6.37049 0
M  V30 31731 O 551.467 -3.72827 -4.97879 0
M  V30 31732 C 550.277 -4.45085 -6.88694 0
M  V30 31733 O 549.887 -5.7877 -6.5624 0
M  V30 31734 C 549.397 -3.47817 -6.12078 0
M  V30 31735 C 550.107 -3.39414 -4.77697 0
M  V30 31736 N 550.057 -2.04199 -4.15538 0
M  V30 31737 H 552.896 -3.41248 -7.98759 0
M  V30 31738 H 553.168 -2.57728 -6.42 0
M  V30 31739 H 552.3 -5.02657 -6.42673 0
M  V30 31740 H 549.645 -4.11708 -4.08956 0
M  V30 31741 H 549.365 -2.49626 -6.61679 0
M  V30 31742 H 548.374 -3.8662 -6.00862 0
M  V30 31743 H 550.208 -4.29991 -7.97006 0
M  V30 31744 P 548.337 -6.144 -6.45285 0
M  V30 31745 O 548.117 -7.54673 -6.86199 0
M  V30 31746 O 547.547 -5.12391 -7.179 0
M  V30 31747 O 548.087 -5.99158 -4.88404 0
M  V30 31748 C 549.027 -6.60234 -3.96415 0
M  V30 31749 C 548.297 -7.08259 -2.72856 0
M  V30 31750 O 548.087 -5.9427 -1.83651 0
M  V30 31751 C 546.897 -7.64886 -2.9555 0
M  V30 31752 O 546.507 -8.53963 -1.90717 0
M  V30 31753 C 546.017 -6.4116 -2.90739 0
M  V30 31754 C 546.727 -5.55375 -1.86963 0
M  V30 31755 N 546.677 -4.09664 -2.15742 0
M  V30 31756 H 549.516 -7.45574 -4.45629 0
M  V30 31757 H 549.788 -5.86232 -3.67314 0
M  V30 31758 H 548.92 -7.84412 -2.24479 0
M  V30 31759 P 544.957 -8.7635 -1.60911 0
M  V30 31760 O 544.737 -10.1388 -1.11561 0
M  V30 31761 O 544.167 -8.36503 -2.79617 0
M  V30 31762 O 544.707 -7.71806 -0.42951 0
M  V30 31763 C 545.647 -7.67148 0.673689 0
M  V30 31764 C 544.917 -7.33374 1.95559 0
M  V30 31765 O 544.707 -5.88721 2.00726 0
M  V30 31766 C 543.517 -7.92526 2.10483 0
M  V30 31767 O 543.127 -8.02971 3.47653 0
M  V30 31768 C 542.637 -6.89602 1.41652 0
M  V30 31769 C 543.347 -5.59201 1.75185 0
M  V30 31770 N 543.297 -4.58235 0.662552 0
M  V30 31771 H 546.136 -8.65116 0.777161 0
M  V30 31772 H 546.408 -6.90173 0.474152 0
M  V30 31773 H 545.54 -7.66548 2.79458 0
M  V30 31774 P 541.577 -8.03563 3.84925 0
M  V30 31775 O 541.357 -8.85821 5.0569 0
M  V30 31776 O 540.787 -8.41101 2.65469 0
M  V30 31777 O 541.327 -6.4965 4.18908 0
M  V30 31778 C 542.267 -5.81037 5.05421 0
M  V30 31779 C 541.537 -4.78366 5.89277 0
M  V30 31780 O 541.327 -3.58302 5.08433 0
M  V30 31781 C 540.137 -5.17448 6.36119 0
M  V30 31782 O 539.747 -4.45271 7.53232 0
M  V30 31783 C 539.257 -4.74639 5.19936 0
M  V30 31784 C 539.967 -3.49432 4.70418 0
M  V30 31785 N 539.917 -3.31776 3.22945 0
M  V30 31786 H 542.756 -6.54213 5.71376 0
M  V30 31787 H 543.028 -5.30492 4.44033 0
M  V30 31788 H 542.16 -4.55889 6.76652 0
M  V30 31789 P 538.197 -4.23843 7.83734 0
M  V30 31790 O 537.977 -4.19407 9.29784 0
M  V30 31791 O 537.407 -5.24426 7.09156 0
M  V30 31792 O 537.947 -2.7935 7.20758 0
M  V30 31793 C 538.887 -1.7299 7.50419 0
M  V30 31794 C 538.157 -0.406376 7.57911 0
M  V30 31795 O 537.947 0.0897726 6.21935 0
M  V30 31796 C 536.757 -0.447224 8.1878 0
M  V30 31797 O 536.367 0.825065 8.71101 0
M  V30 31798 C 535.877 -0.783801 6.99623 0
M  V30 31799 C 536.587 -0.0619192 5.85967 0
M  V30 31800 N 536.537 -0.7859 4.56281 0
M  V30 31801 H 539.376 -1.93423 8.4679 0
M  V30 31802 H 539.648 -1.68181 6.71046 0
M  V30 31803 H 538.78 0.289041 8.15388 0
M  V30 31804 P 534.817 1.17771 8.83182 0
M  V30 31805 O 534.597 2.07206 9.98732 0
M  V30 31806 O 534.027 -0.0743816 8.81969 0
M  V30 31807 O 534.567 1.97652 7.47304 0
M  V30 31808 C 535.507 3.01133 7.08783 0
M  V30 31809 C 534.777 4.12613 6.37049 0
M  V30 31810 O 534.567 3.72827 4.97879 0
M  V30 31811 C 533.377 4.45085 6.88694 0
M  V30 31812 O 532.987 5.7877 6.5624 0
M  V30 31813 C 532.497 3.47817 6.12078 0
M  V30 31814 C 533.207 3.39414 4.77697 0
M  V30 31815 N 533.157 2.04615 4.15333 0
M  V30 31816 H 535.996 3.41248 7.98759 0
M  V30 31817 H 536.268 2.5837 6.41742 0
M  V30 31818 H 535.4 5.02657 6.42673 0
M  V30 31819 P 531.437 6.144 6.45285 0
M  V30 31820 O 531.217 7.54673 6.86199 0
M  V30 31821 O 530.647 5.12391 7.179 0
M  V30 31822 O 531.187 5.99236 4.88467 0
M  V30 31823 C 532.127 6.60234 3.96415 0
M  V30 31824 C 531.397 7.08079 2.736 0
M  V30 31825 O 531.187 5.94365 1.8368 0
M  V30 31826 C 529.997 7.64886 2.9555 0
M  V30 31827 O 529.607 8.5406 1.90739 0
M  V30 31828 C 529.117 6.4116 2.90739 0
M  V30 31829 C 529.827 5.55375 1.86963 0
M  V30 31830 N 529.777 4.09664 2.15742 0
M  V30 31831 C 529.627 3.22231 1.08477 0
M  V30 31832 O 529.537 3.68951 -0.0600489 0
M  V30 31833 N 529.577 1.76692 1.48799 0
M  V30 31834 C 529.677 1.41695 2.57602 0
M  V30 31835 N 529.627 0.107296 2.75791 0
M  V30 31836 C 529.827 2.29178 3.69733 0
M  V30 31837 C 529.877 3.62753 3.42653 0
M  V30 31838 H 532.617 7.45488 4.45578 0
M  V30 31839 H 532.887 5.86232 3.67314 0
M  V30 31840 H 532.02 7.84508 2.24507 0
M  V30 31841 H 529.365 5.73556 0.888715 0
M  V30 31842 H 529.085 5.9096 3.88638 0
M  V30 31843 H 528.094 6.66053 2.58894 0
M  V30 31844 H 529.928 8.16339 3.92049 0
M  V30 31845 H 530 4.33052 4.24913 0
M  V30 31846 H 529.898 1.9103 4.71577 0
M  V30 31847 H 529.51 -0.521221 1.95056 0
M  V30 31848 H 529.706 -0.286429 3.70695 0
M  V30 31849 P 528.057 8.7635 1.60911 0
M  V30 31850 O 527.837 10.1388 1.11561 0
M  V30 31851 O 527.267 8.36503 2.79617 0
M  V30 31852 O 527.807 7.71806 0.42951 0
M  V30 31853 C 528.747 7.67148 -0.673689 0
M  V30 31854 C 528.017 7.33374 -1.95559 0
M  V30 31855 O 527.807 5.88721 -2.00726 0
M  V30 31856 C 526.617 7.92526 -2.10483 0
M  V30 31857 O 526.227 8.02971 -3.47653 0
M  V30 31858 C 525.737 6.89602 -1.41652 0
M  V30 31859 C 526.447 5.59201 -1.75185 0
M  V30 31860 N 526.397 4.58235 -0.662552 0
M  V30 31861 C 526.477 4.7683 0.704049 0
M  V30 31862 N 526.397 3.66233 1.39775 0
M  V30 31863 C 526.257 2.66526 0.431739 0
M  V30 31864 C 526.127 1.26394 0.575992 0
M  V30 31865 N 526.007 0.62859 -0.67177 0
M  V30 31866 C 526.007 1.27134 -1.89385 0
M  V30 31867 N 525.877 0.492035 -2.96951 0
M  V30 31868 N 526.137 2.58978 -2.02907 0
M  V30 31869 C 526.257 3.22433 -0.832218 0
M  V30 31870 H 529.236 8.65116 -0.777161 0
M  V30 31871 H 529.508 6.90173 -0.474152 0
M  V30 31872 H 528.64 7.66548 -2.79458 0
M  V30 31873 P 524.677 8.03563 -3.84925 0
M  V30 31874 O 524.457 8.85821 -5.0569 0
M  V30 31875 O 523.887 8.41101 -2.65469 0
M  V30 31876 O 524.427 6.4965 -4.18908 0
M  V30 31877 C 525.367 5.81037 -5.05421 0
M  V30 31878 C 524.637 4.78366 -5.89277 0
M  V30 31879 O 524.427 3.58302 -5.08433 0
M  V30 31880 C 523.237 5.17448 -6.36119 0
M  V30 31881 O 522.847 4.45271 -7.53232 0
M  V30 31882 C 522.357 4.74639 -5.19936 0
M  V30 31883 C 523.067 3.49432 -4.70418 0
M  V30 31884 N 523.017 3.31776 -3.22945 0
M  V30 31885 H 525.856 6.54213 -5.71376 0
M  V30 31886 H 526.128 5.30492 -4.44033 0
M  V30 31887 H 525.26 4.55889 -6.76652 0
M  V30 31888 P 521.297 4.23843 -7.83734 0
M  V30 31889 O 521.077 4.19407 -9.29784 0
M  V30 31890 O 520.507 5.24426 -7.09156 0
M  V30 31891 O 521.047 2.7935 -7.20758 0
M  V30 31892 C 521.987 1.7299 -7.50419 0
M  V30 31893 C 521.257 0.406376 -7.57911 0
M  V30 31894 O 521.047 -0.0897726 -6.21935 0
M  V30 31895 C 519.857 0.447224 -8.1878 0
M  V30 31896 O 519.467 -0.825065 -8.71101 0
M  V30 31897 C 518.977 0.783801 -6.99623 0
M  V30 31898 C 519.687 0.0619192 -5.85967 0
M  V30 31899 N 519.637 0.790462 -4.56202 0
M  V30 31900 H 522.476 1.93423 -8.4679 0
M  V30 31901 H 522.748 1.68852 -6.70877 0
M  V30 31902 H 521.88 -0.289041 -8.15388 0
M  V30 31903 H 519.225 -0.927006 -5.72848 0
M  V30 31904 H 518.945 1.86973 -6.82036 0
M  V30 31905 H 517.954 0.403953 -7.13357 0
M  V30 31906 H 519.788 1.20599 -8.97534 0
M  V30 31907 P 517.917 -1.17771 -8.83182 0
M  V30 31908 O 517.697 -2.07206 -9.98732 0
M  V30 31909 O 517.127 0.0743816 -8.81969 0
M  V30 31910 O 517.667 -1.97652 -7.47304 0
M  V30 31911 C 518.607 -3.01133 -7.08783 0
M  V30 31912 C 517.877 -4.12613 -6.37049 0
M  V30 31913 O 517.667 -3.72827 -4.97879 0
M  V30 31914 C 516.477 -4.45085 -6.88694 0
M  V30 31915 O 516.087 -5.7877 -6.5624 0
M  V30 31916 C 515.597 -3.47817 -6.12078 0
M  V30 31917 C 516.307 -3.39414 -4.77697 0
M  V30 31918 N 516.257 -2.04615 -4.15333 0
M  V30 31919 H 519.096 -3.41248 -7.98759 0
M  V30 31920 H 519.368 -2.5837 -6.41742 0
M  V30 31921 H 518.5 -5.02657 -6.42673 0
M  V30 31922 P 514.537 -6.144 -6.45285 0
M  V30 31923 O 514.317 -7.54673 -6.86199 0
M  V30 31924 O 513.747 -5.12391 -7.179 0
M  V30 31925 O 514.287 -5.99158 -4.88404 0
M  V30 31926 C 515.227 -6.60234 -3.96415 0
M  V30 31927 C 514.497 -7.08259 -2.72856 0
M  V30 31928 O 514.287 -5.9427 -1.83651 0
M  V30 31929 C 513.097 -7.64886 -2.9555 0
M  V30 31930 O 512.707 -8.53963 -1.90717 0
M  V30 31931 C 512.217 -6.4116 -2.90739 0
M  V30 31932 C 512.927 -5.55375 -1.86963 0
M  V30 31933 N 512.877 -4.09664 -2.15742 0
M  V30 31934 H 515.716 -7.45574 -4.45629 0
M  V30 31935 H 515.988 -5.86232 -3.67314 0
M  V30 31936 H 515.12 -7.84412 -2.24479 0
M  V30 31937 P 511.157 -8.7635 -1.60911 0
M  V30 31938 O 510.937 -10.1388 -1.11561 0
M  V30 31939 O 510.367 -8.36503 -2.79617 0
M  V30 31940 O 510.907 -7.71806 -0.42951 0
M  V30 31941 C 511.847 -7.67148 0.673689 0
M  V30 31942 C 511.117 -7.33374 1.95559 0
M  V30 31943 O 510.907 -5.88721 2.00726 0
M  V30 31944 C 509.717 -7.92526 2.10483 0
M  V30 31945 O 509.327 -8.02971 3.47653 0
M  V30 31946 C 508.837 -6.89602 1.41652 0
M  V30 31947 C 509.547 -5.59201 1.75185 0
M  V30 31948 N 509.497 -4.58235 0.662552 0
M  V30 31949 H 512.336 -8.65116 0.777161 0
M  V30 31950 H 512.608 -6.90173 0.474152 0
M  V30 31951 H 511.74 -7.66548 2.79458 0
M  V30 31952 P 507.777 -8.03563 3.84925 0
M  V30 31953 O 507.557 -8.85821 5.0569 0
M  V30 31954 O 506.987 -8.41101 2.65469 0
M  V30 31955 O 507.527 -6.4965 4.18908 0
M  V30 31956 C 508.467 -5.81037 5.05421 0
M  V30 31957 C 507.737 -4.78366 5.89277 0
M  V30 31958 O 507.527 -3.58302 5.08433 0
M  V30 31959 C 506.337 -5.17448 6.36119 0
M  V30 31960 O 505.947 -4.45271 7.53232 0
M  V30 31961 C 505.457 -4.74639 5.19936 0
M  V30 31962 C 506.167 -3.49432 4.70418 0
M  V30 31963 N 506.117 -3.32099 3.22613 0
M  V30 31964 H 508.956 -6.54213 5.71376 0
M  V30 31965 H 509.228 -5.30936 4.43503 0
M  V30 31966 H 508.36 -4.55889 6.76652 0
M  V30 31967 H 505.705 -2.61715 5.17932 0
M  V30 31968 H 505.425 -5.52155 4.41878 0
M  V30 31969 H 504.434 -4.51981 5.53374 0
M  V30 31970 H 506.268 -6.25124 6.55234 0
M  V30 31971 P 504.397 -4.23843 7.83734 0
M  V30 31972 O 504.177 -4.19407 9.29784 0
M  V30 31973 O 503.607 -5.24426 7.09156 0
M  V30 31974 O 504.147 -2.7935 7.20758 0
M  V30 31975 C 505.087 -1.7299 7.50419 0
M  V30 31976 C 504.357 -0.406376 7.57911 0
M  V30 31977 O 504.147 0.0897726 6.21935 0
M  V30 31978 C 502.957 -0.447224 8.1878 0
M  V30 31979 O 502.567 0.825065 8.71101 0
M  V30 31980 C 502.077 -0.783801 6.99623 0
M  V30 31981 C 502.787 -0.0619192 5.85967 0
M  V30 31982 N 502.737 -0.7859 4.56281 0
M  V30 31983 H 505.576 -1.93423 8.4679 0
M  V30 31984 H 505.848 -1.68181 6.71046 0
M  V30 31985 H 504.98 0.289041 8.15388 0
M  V30 31986 P 501.017 1.17771 8.83182 0
M  V30 31987 O 500.797 2.07206 9.98732 0
M  V30 31988 O 500.227 -0.0743816 8.81969 0
M  V30 31989 O 500.767 1.97652 7.47304 0
M  V30 31990 C 501.707 3.01133 7.08783 0
M  V30 31991 C 500.977 4.12613 6.37049 0
M  V30 31992 O 500.767 3.72827 4.97879 0
M  V30 31993 C 499.577 4.45085 6.88694 0
M  V30 31994 O 499.187 5.7877 6.5624 0
M  V30 31995 C 498.697 3.47817 6.12078 0
M  V30 31996 C 499.407 3.39414 4.77697 0
M  V30 31997 N 499.357 2.04615 4.15333 0
M  V30 31998 H 502.196 3.41248 7.98759 0
M  V30 31999 H 502.468 2.5837 6.41742 0
M  V30 32000 H 501.6 5.02657 6.42673 0
M  V30 32001 P 497.637 6.144 6.45285 0
M  V30 32002 O 497.417 7.54673 6.86199 0
M  V30 32003 O 496.847 5.12391 7.179 0
M  V30 32004 O 497.387 5.99158 4.88404 0
M  V30 32005 C 498.327 6.60234 3.96415 0
M  V30 32006 C 497.597 7.08259 2.72856 0
M  V30 32007 O 497.387 5.9427 1.83651 0
M  V30 32008 C 496.197 7.64886 2.9555 0
M  V30 32009 O 495.807 8.53963 1.90717 0
M  V30 32010 C 495.317 6.4116 2.90739 0
M  V30 32011 C 496.027 5.55375 1.86963 0
M  V30 32012 N 495.977 4.09664 2.15742 0
M  V30 32013 C 496.057 3.44381 3.37233 0
M  V30 32014 N 495.977 2.14131 3.28347 0
M  V30 32015 C 495.837 1.90247 1.91588 0
M  V30 32016 C 495.707 0.683992 1.20892 0
M  V30 32017 N 495.587 0.903396 -0.173998 0
M  V30 32018 C 495.587 2.14171 -0.784879 0
M  V30 32019 N 495.457 2.1435 -2.11317 0
M  V30 32020 N 495.717 3.28784 -0.119316 0
M  V30 32021 C 495.837 3.0977 1.22194 0
M  V30 32022 H 498.816 7.45574 4.45629 0
M  V30 32023 H 499.088 5.86232 3.67314 0
M  V30 32024 H 498.22 7.84412 2.24479 0
M  V30 32025 P 494.257 8.7635 1.60911 0
M  V30 32026 O 494.037 10.1388 1.11561 0
M  V30 32027 O 493.467 8.36503 2.79617 0
M  V30 32028 O 494.007 7.71806 0.42951 0
M  V30 32029 C 494.947 7.67148 -0.673689 0
M  V30 32030 C 494.217 7.33374 -1.95559 0
M  V30 32031 O 494.007 5.88721 -2.00726 0
M  V30 32032 C 492.817 7.92526 -2.10483 0
M  V30 32033 O 492.427 8.02971 -3.47653 0
M  V30 32034 C 491.937 6.89602 -1.41652 0
M  V30 32035 C 492.647 5.59201 -1.75185 0
M  V30 32036 N 492.597 4.58235 -0.662552 0
M  V30 32037 H 495.436 8.65116 -0.777161 0
M  V30 32038 H 495.708 6.90173 -0.474152 0
M  V30 32039 H 494.84 7.66548 -2.79458 0
M  V30 32040 P 490.877 8.03563 -3.84925 0
M  V30 32041 O 490.657 8.85821 -5.0569 0
M  V30 32042 O 490.087 8.41101 -2.65469 0
M  V30 32043 O 490.627 6.4965 -4.18908 0
M  V30 32044 C 491.567 5.80886 -5.05289 0
M  V30 32045 C 490.837 4.78366 -5.89277 0
M  V30 32046 O 490.627 3.58302 -5.08433 0
M  V30 32047 C 489.437 5.16748 -6.36559 0
M  V30 32048 O 489.047 4.45271 -7.53232 0
M  V30 32049 C 488.557 4.74572 -5.19863 0
M  V30 32050 C 489.267 3.49373 -4.70338 0
M  V30 32051 N 489.217 3.31704 -3.22876 0
M  V30 32052 C 489.067 2.03326 -2.74871 0
M  V30 32053 O 488.977 1.06486 -3.48076 0
M  V30 32054 N 489.027 1.91838 -1.37456 0
M  V30 32055 C 489.117 2.94295 -0.462035 0
M  V30 32056 C 489.267 4.25064 -1.05249 0
M  V30 32057 C 489.317 4.40214 -2.39192 0
M  V30 32058 H 492.058 6.54063 -5.71245 0
M  V30 32059 H 492.327 5.30339 -4.43905 0
M  V30 32060 H 491.46 4.55889 -6.76652 0
M  V30 32061 H 488.805 2.6167 -5.17842 0
M  V30 32062 H 488.526 5.52155 -4.41878 0
M  V30 32063 H 487.534 4.51918 -5.53297 0
M  V30 32064 H 489.368 6.25055 -6.55162 0
M  V30 32065 H 489.439 5.39798 -2.81523 0
M  V30 32066 P 487.497 4.23843 -7.83734 0
M  V30 32067 O 487.277 4.19407 -9.29784 0
M  V30 32068 O 486.707 5.24426 -7.09156 0
M  V30 32069 O 487.247 2.7935 -7.20758 0
M  V30 32070 C 488.187 1.7299 -7.50419 0
M  V30 32071 C 487.457 0.406376 -7.57911 0
M  V30 32072 O 487.247 -0.0897726 -6.21935 0
M  V30 32073 C 486.057 0.447224 -8.1878 0
M  V30 32074 O 485.667 -0.825065 -8.71101 0
M  V30 32075 C 485.177 0.783801 -6.99623 0
M  V30 32076 C 485.887 0.0619192 -5.85967 0
M  V30 32077 N 485.837 0.790462 -4.56202 0
M  V30 32078 H 488.676 1.93423 -8.4679 0
M  V30 32079 H 488.948 1.68852 -6.70877 0
M  V30 32080 H 488.08 -0.289041 -8.15388 0
M  V30 32081 H 485.425 -0.927006 -5.72848 0
M  V30 32082 H 485.145 1.86973 -6.82036 0
M  V30 32083 H 484.154 0.403953 -7.13357 0
M  V30 32084 H 485.988 1.20599 -8.97534 0
M  V30 32085 P 484.117 -1.17771 -8.83182 0
M  V30 32086 O 483.897 -2.07206 -9.98732 0
M  V30 32087 O 483.327 0.0743816 -8.81969 0
M  V30 32088 O 483.867 -1.97652 -7.47304 0
M  V30 32089 C 484.807 -3.01133 -7.08783 0
M  V30 32090 C 484.077 -4.12613 -6.37049 0
M  V30 32091 O 483.867 -3.72827 -4.97879 0
M  V30 32092 C 482.677 -4.45085 -6.88694 0
M  V30 32093 O 482.287 -5.7877 -6.5624 0
M  V30 32094 C 481.797 -3.47817 -6.12078 0
M  V30 32095 C 482.507 -3.39414 -4.77697 0
M  V30 32096 N 482.457 -2.04199 -4.15538 0
M  V30 32097 H 485.296 -3.41248 -7.98759 0
M  V30 32098 H 485.568 -2.57728 -6.42 0
M  V30 32099 H 484.7 -5.02657 -6.42673 0
M  V30 32100 H 482.045 -4.11708 -4.08956 0
M  V30 32101 H 481.765 -2.49626 -6.61679 0
M  V30 32102 H 480.774 -3.8662 -6.00862 0
M  V30 32103 H 482.608 -4.29991 -7.97006 0
M  V30 32104 P 480.737 -6.144 -6.45285 0
M  V30 32105 O 480.517 -7.54673 -6.86199 0
M  V30 32106 O 479.947 -5.12391 -7.179 0
M  V30 32107 O 480.487 -5.99158 -4.88404 0
M  V30 32108 C 481.427 -6.60234 -3.96415 0
M  V30 32109 C 480.697 -7.08259 -2.72856 0
M  V30 32110 O 480.487 -5.9427 -1.83651 0
M  V30 32111 C 479.297 -7.64886 -2.9555 0
M  V30 32112 O 478.907 -8.53963 -1.90717 0
M  V30 32113 C 478.417 -6.4116 -2.90739 0
M  V30 32114 C 479.127 -5.55375 -1.86963 0
M  V30 32115 N 479.077 -4.09664 -2.15742 0
M  V30 32116 H 481.916 -7.45574 -4.45629 0
M  V30 32117 H 482.188 -5.86232 -3.67314 0
M  V30 32118 H 481.32 -7.84412 -2.24479 0
M  V30 32119 P 477.357 -8.7635 -1.60911 0
M  V30 32120 O 477.137 -10.1388 -1.11561 0
M  V30 32121 O 476.567 -8.36503 -2.79617 0
M  V30 32122 O 477.107 -7.71806 -0.42951 0
M  V30 32123 C 478.047 -7.67148 0.673689 0
M  V30 32124 C 477.317 -7.33374 1.95559 0
M  V30 32125 O 477.107 -5.88721 2.00726 0
M  V30 32126 C 475.917 -7.92526 2.10483 0
M  V30 32127 O 475.527 -8.02971 3.47653 0
M  V30 32128 C 475.037 -6.89602 1.41652 0
M  V30 32129 C 475.747 -5.59201 1.75185 0
M  V30 32130 N 475.697 -4.58301 0.657969 0
M  V30 32131 H 478.536 -8.65116 0.777161 0
M  V30 32132 H 478.808 -6.9022 0.46725 0
M  V30 32133 H 477.94 -7.66548 2.79458 0
M  V30 32134 H 475.285 -5.16165 2.65183 0
M  V30 32135 H 475.005 -7.06433 0.329384 0
M  V30 32136 H 474.014 -6.90926 1.82021 0
M  V30 32137 H 475.848 -8.90873 1.62657 0
M  V30 32138 P 473.977 -8.03563 3.84925 0
M  V30 32139 O 473.757 -8.85821 5.0569 0
M  V30 32140 O 473.187 -8.41101 2.65469 0
M  V30 32141 O 473.727 -6.4965 4.18908 0
M  V30 32142 C 474.667 -5.81037 5.05421 0
M  V30 32143 C 473.937 -4.78366 5.89277 0
M  V30 32144 O 473.727 -3.58302 5.08433 0
M  V30 32145 C 472.537 -5.17448 6.36119 0
M  V30 32146 O 472.147 -4.45271 7.53232 0
M  V30 32147 C 471.657 -4.74639 5.19936 0
M  V30 32148 C 472.367 -3.49432 4.70418 0
M  V30 32149 N 472.317 -3.32099 3.22613 0
M  V30 32150 H 475.156 -6.54213 5.71376 0
M  V30 32151 H 475.428 -5.30936 4.43503 0
M  V30 32152 H 474.56 -4.55889 6.76652 0
M  V30 32153 H 471.905 -2.61715 5.17932 0
M  V30 32154 H 471.625 -5.52155 4.41878 0
M  V30 32155 H 470.634 -4.51981 5.53374 0
M  V30 32156 H 472.468 -6.25124 6.55234 0
M  V30 32157 P 470.597 -4.23843 7.83734 0
M  V30 32158 O 470.377 -4.19407 9.29784 0
M  V30 32159 O 469.807 -5.24426 7.09156 0
M  V30 32160 O 470.347 -2.7935 7.20758 0
M  V30 32161 C 471.287 -1.7299 7.50419 0
M  V30 32162 C 470.557 -0.406376 7.57911 0
M  V30 32163 O 470.347 0.0897726 6.21935 0
M  V30 32164 C 469.157 -0.447224 8.1878 0
M  V30 32165 O 468.767 0.825065 8.71101 0
M  V30 32166 C 468.277 -0.783801 6.99623 0
M  V30 32167 C 468.987 -0.0619192 5.85967 0
M  V30 32168 N 468.937 -0.7859 4.56281 0
M  V30 32169 C 469.017 -2.14308 4.31736 0
M  V30 32170 N 468.937 -2.46106 3.05116 0
M  V30 32171 C 468.797 -1.23422 2.4014 0
M  V30 32172 C 468.667 -0.938381 1.02409 0
M  V30 32173 N 468.547 0.444647 0.805413 0
M  V30 32174 C 468.547 1.40829 1.79435 0
M  V30 32175 N 468.417 2.67213 1.38558 0
M  V30 32176 N 468.677 1.12947 3.09005 0
M  V30 32177 C 468.797 -0.204887 3.32369 0
M  V30 32178 H 471.776 -1.93423 8.4679 0
M  V30 32179 H 472.048 -1.68181 6.71046 0
M  V30 32180 H 471.18 0.289041 8.15388 0
M  V30 32181 P 467.217 1.17771 8.83182 0
M  V30 32182 O 466.997 2.07206 9.98732 0
M  V30 32183 O 466.427 -0.0743816 8.81969 0
M  V30 32184 O 466.967 1.97652 7.47304 0
M  V30 32185 C 467.907 3.01133 7.08783 0
M  V30 32186 C 467.177 4.12613 6.37049 0
M  V30 32187 O 466.967 3.72827 4.97879 0
M  V30 32188 C 465.777 4.45085 6.88694 0
M  V30 32189 O 465.387 5.7877 6.5624 0
M  V30 32190 C 464.897 3.47817 6.12078 0
M  V30 32191 C 465.607 3.39414 4.77697 0
M  V30 32192 N 465.557 2.04615 4.15333 0
M  V30 32193 H 468.396 3.41248 7.98759 0
M  V30 32194 H 468.668 2.5837 6.41742 0
M  V30 32195 H 467.8 5.02657 6.42673 0
M  V30 32196 P 463.837 6.144 6.45285 0
M  V30 32197 O 463.617 7.54673 6.86199 0
M  V30 32198 O 463.047 5.12391 7.179 0
M  V30 32199 O 463.587 5.99158 4.88404 0
M  V30 32200 C 464.527 6.60234 3.96415 0
M  V30 32201 C 463.797 7.08259 2.72856 0
M  V30 32202 O 463.587 5.9427 1.83651 0
M  V30 32203 C 462.397 7.64886 2.9555 0
M  V30 32204 O 462.007 8.53963 1.90717 0
M  V30 32205 C 461.517 6.4116 2.90739 0
M  V30 32206 C 462.227 5.55375 1.86963 0
M  V30 32207 N 462.177 4.09448 2.16152 0
M  V30 32208 C 462.257 3.46824 3.37593 0
M  V30 32209 N 462.187 2.17422 3.29777 0
M  V30 32210 C 462.037 1.93065 1.94427 0
M  V30 32211 C 461.907 0.738053 1.20141 0
M  V30 32212 N 461.897 -0.474256 1.74676 0
M  V30 32213 N 461.787 0.850049 -0.13045 0
M  V30 32214 C 461.797 2.06169 -0.676992 0
M  V30 32215 N 461.917 3.23842 -0.101312 0
M  V30 32216 C 462.037 3.09402 1.23122 0
M  V30 32217 H 465.016 7.45574 4.45629 0
M  V30 32218 H 465.288 5.85864 3.679 0
M  V30 32219 H 464.42 7.84412 2.24479 0
M  V30 32220 H 461.765 5.73457 0.888562 0
M  V30 32221 H 461.485 5.90877 3.88583 0
M  V30 32222 H 460.494 6.6596 2.58858 0
M  V30 32223 H 462.328 8.16339 3.92049 0
M  V30 32224 H 462.369 4.00505 4.3174 0
M  V30 32225 H 461.988 -0.581337 2.76658 0
M  V30 32226 H 461.799 -1.30811 1.14888 0
M  V30 32227 H 461.691 2.08295 -1.75542 0
M  V30 32228 P 460.457 8.7635 1.60911 0
M  V30 32229 O 460.237 10.1388 1.11561 0
M  V30 32230 O 459.667 8.36503 2.79617 0
M  V30 32231 O 460.207 7.71806 0.42951 0
M  V30 32232 C 461.147 7.67148 -0.673689 0
M  V30 32233 C 460.417 7.33374 -1.95559 0
M  V30 32234 O 460.207 5.88721 -2.00726 0
M  V30 32235 C 459.017 7.92526 -2.10483 0
M  V30 32236 O 458.627 8.02971 -3.47653 0
M  V30 32237 C 458.137 6.89602 -1.41652 0
M  V30 32238 C 458.847 5.59201 -1.75185 0
M  V30 32239 N 458.797 4.58235 -0.662552 0
M  V30 32240 H 461.636 8.65116 -0.777161 0
M  V30 32241 H 461.908 6.90173 -0.474152 0
M  V30 32242 H 461.04 7.66548 -2.79458 0
M  V30 32243 P 457.077 8.03563 -3.84925 0
M  V30 32244 O 456.857 8.85821 -5.0569 0
M  V30 32245 O 456.287 8.41101 -2.65469 0
M  V30 32246 O 456.827 6.4965 -4.18908 0
M  V30 32247 C 457.767 5.80886 -5.05289 0
M  V30 32248 C 457.037 4.78366 -5.89277 0
M  V30 32249 O 456.827 3.58302 -5.08433 0
M  V30 32250 C 455.637 5.16748 -6.36559 0
M  V30 32251 O 455.247 4.45271 -7.53232 0
M  V30 32252 C 454.757 4.74572 -5.19863 0
M  V30 32253 C 455.467 3.49373 -4.70338 0
M  V30 32254 N 455.417 3.31704 -3.22876 0
M  V30 32255 C 455.267 2.03326 -2.74871 0
M  V30 32256 O 455.177 1.06486 -3.48076 0
M  V30 32257 N 455.227 1.91838 -1.37456 0
M  V30 32258 C 455.317 2.94295 -0.462035 0
M  V30 32259 O 455.267 2.71763 0.752928 0
M  V30 32260 C 455.467 4.25064 -1.05249 0
M  V30 32261 C 455.577 5.39815 -0.095697 0
M  V30 32262 C 455.517 4.40214 -2.39192 0
M  V30 32263 H 458.258 6.54063 -5.71245 0
M  V30 32264 H 458.527 5.30339 -4.43905 0
M  V30 32265 H 457.66 4.55889 -6.76652 0
M  V30 32266 H 455.005 2.6167 -5.17842 0
M  V30 32267 H 454.726 5.52155 -4.41878 0
M  V30 32268 H 453.734 4.51918 -5.53297 0
M  V30 32269 H 455.568 6.25055 -6.55162 0
M  V30 32270 H 455.639 5.39798 -2.81523 0
M  V30 32271 H 454.609 5.91593 -0.0279582 0
M  V30 32272 H 456.346 6.10038 -0.450573 0
M  V30 32273 H 455.858 5.02007 0.89937 0
M  V30 32274 H 455.122 0.995326 -1.00435 0
M  V30 32275 P 453.697 4.23843 -7.83734 0
M  V30 32276 O 453.477 4.19407 -9.29784 0
M  V30 32277 O 452.907 5.24426 -7.09156 0
M  V30 32278 O 453.447 2.7935 -7.20758 0
M  V30 32279 C 454.387 1.7299 -7.50419 0
M  V30 32280 C 453.657 0.406376 -7.57911 0
M  V30 32281 O 453.447 -0.0897726 -6.21935 0
M  V30 32282 C 452.257 0.447224 -8.1878 0
M  V30 32283 O 451.867 -0.825065 -8.71101 0
M  V30 32284 C 451.377 0.783801 -6.99623 0
M  V30 32285 C 452.087 0.0619192 -5.85967 0
M  V30 32286 N 452.037 0.790462 -4.56202 0
M  V30 32287 H 454.876 1.93423 -8.4679 0
M  V30 32288 H 455.148 1.68852 -6.70877 0
M  V30 32289 H 454.28 -0.289041 -8.15388 0
M  V30 32290 H 451.625 -0.927006 -5.72848 0
M  V30 32291 H 451.345 1.86973 -6.82036 0
M  V30 32292 H 450.354 0.403953 -7.13357 0
M  V30 32293 H 452.188 1.20599 -8.97534 0
M  V30 32294 P 450.317 -1.17771 -8.83182 0
M  V30 32295 O 450.097 -2.07206 -9.98732 0
M  V30 32296 O 449.527 0.0743816 -8.81969 0
M  V30 32297 O 450.067 -1.97652 -7.47304 0
M  V30 32298 C 451.007 -3.01133 -7.08783 0
M  V30 32299 C 450.277 -4.12613 -6.37049 0
M  V30 32300 O 450.067 -3.72827 -4.97879 0
M  V30 32301 C 448.877 -4.45085 -6.88694 0
M  V30 32302 O 448.487 -5.7877 -6.5624 0
M  V30 32303 C 447.997 -3.47817 -6.12078 0
M  V30 32304 C 448.707 -3.39414 -4.77697 0
M  V30 32305 N 448.657 -2.04615 -4.15333 0
M  V30 32306 H 451.496 -3.41248 -7.98759 0
M  V30 32307 H 451.768 -2.5837 -6.41742 0
M  V30 32308 H 450.9 -5.02657 -6.42673 0
M  V30 32309 P 446.937 -6.144 -6.45285 0
M  V30 32310 O 446.717 -7.54673 -6.86199 0
M  V30 32311 O 446.147 -5.12391 -7.179 0
M  V30 32312 O 446.687 -5.99158 -4.88404 0
M  V30 32313 C 447.627 -6.60234 -3.96415 0
M  V30 32314 C 446.897 -7.08259 -2.72856 0
M  V30 32315 O 446.687 -5.9427 -1.83651 0
M  V30 32316 C 445.497 -7.64886 -2.9555 0
M  V30 32317 O 445.107 -8.53963 -1.90717 0
M  V30 32318 C 444.617 -6.4116 -2.90739 0
M  V30 32319 C 445.327 -5.55375 -1.86963 0
M  V30 32320 N 445.277 -4.09664 -2.15742 0
M  V30 32321 H 448.116 -7.45574 -4.45629 0
M  V30 32322 H 448.388 -5.86232 -3.67314 0
M  V30 32323 H 447.52 -7.84412 -2.24479 0
M  V30 32324 P 443.557 -8.7635 -1.60911 0
M  V30 32325 O 443.337 -10.1388 -1.11561 0
M  V30 32326 O 442.767 -8.36503 -2.79617 0
M  V30 32327 O 443.307 -7.71806 -0.42951 0
M  V30 32328 C 444.247 -7.67148 0.673689 0
M  V30 32329 C 443.517 -7.33374 1.95559 0
M  V30 32330 O 443.307 -5.88721 2.00726 0
M  V30 32331 C 442.117 -7.92526 2.10483 0
M  V30 32332 O 441.727 -8.02971 3.47653 0
M  V30 32333 C 441.237 -6.89602 1.41652 0
M  V30 32334 C 441.947 -5.59201 1.75185 0
M  V30 32335 N 441.897 -4.58235 0.662552 0
M  V30 32336 H 444.736 -8.65116 0.777161 0
M  V30 32337 H 445.008 -6.90173 0.474152 0
M  V30 32338 H 444.14 -7.66548 2.79458 0
M  V30 32339 P 440.177 -8.03563 3.84925 0
M  V30 32340 O 439.957 -8.85821 5.0569 0
M  V30 32341 O 439.387 -8.41101 2.65469 0
M  V30 32342 O 439.927 -6.4965 4.18908 0
M  V30 32343 C 440.867 -5.81037 5.05421 0
M  V30 32344 C 440.137 -4.78366 5.89277 0
M  V30 32345 O 439.927 -3.58302 5.08433 0
M  V30 32346 C 438.737 -5.17448 6.36119 0
M  V30 32347 O 438.347 -4.45271 7.53232 0
M  V30 32348 C 437.857 -4.74639 5.19936 0
M  V30 32349 C 438.567 -3.49432 4.70418 0
M  V30 32350 N 438.517 -3.32099 3.22613 0
M  V30 32351 H 441.356 -6.54213 5.71376 0
M  V30 32352 H 441.628 -5.30936 4.43503 0
M  V30 32353 H 440.76 -4.55889 6.76652 0
M  V30 32354 H 438.105 -2.61715 5.17932 0
M  V30 32355 H 437.825 -5.52155 4.41878 0
M  V30 32356 H 436.834 -4.51981 5.53374 0
M  V30 32357 H 438.668 -6.25124 6.55234 0
M  V30 32358 P 436.797 -4.23843 7.83734 0
M  V30 32359 O 436.577 -4.19407 9.29784 0
M  V30 32360 O 436.007 -5.24426 7.09156 0
M  V30 32361 O 436.547 -2.7935 7.20758 0
M  V30 32362 C 437.487 -1.72945 7.50224 0
M  V30 32363 C 436.757 -0.406376 7.57911 0
M  V30 32364 O 436.547 0.0897726 6.21935 0
M  V30 32365 C 435.357 -0.438983 8.18724 0
M  V30 32366 O 434.967 0.825065 8.71101 0
M  V30 32367 C 434.477 -0.783689 6.99524 0
M  V30 32368 C 435.187 -0.0619086 5.85867 0
M  V30 32369 N 435.137 -0.78573 4.56183 0
M  V30 32370 C 434.987 -0.0292889 3.41887 0
M  V30 32371 O 434.897 1.18445 3.4419 0
M  V30 32372 N 434.947 -0.744061 2.23964 0
M  V30 32373 C 435.037 -2.10932 2.10362 0
M  V30 32374 O 434.987 -2.64117 0.98825 0
M  V30 32375 C 435.187 -2.8202 3.34994 0
M  V30 32376 C 435.297 -4.31095 3.25037 0
M  V30 32377 C 435.237 -2.15547 4.52261 0
M  V30 32378 H 437.978 -1.93379 8.46595 0
M  V30 32379 H 438.247 -1.68132 6.70852 0
M  V30 32380 H 437.38 0.289041 8.15388 0
M  V30 32381 H 434.725 0.926847 5.72749 0
M  V30 32382 H 434.446 -1.86973 6.82036 0
M  V30 32383 H 433.454 -0.403896 7.13257 0
M  V30 32384 H 435.288 -1.20585 8.97435 0
M  V30 32385 H 435.359 -2.71231 5.45042 0
M  V30 32386 H 434.329 -4.76966 3.49992 0
M  V30 32387 H 436.066 -4.67047 3.95024 0
M  V30 32388 H 435.578 -4.58996 2.22312 0
M  V30 32389 H 434.842 -0.214893 1.39758 0
M  V30 32390 P 433.417 1.17771 8.83182 0
M  V30 32391 O 433.197 2.07206 9.98732 0
M  V30 32392 O 432.627 -0.0743816 8.81969 0
M  V30 32393 O 433.167 1.97652 7.47304 0
M  V30 32394 C 434.107 3.01133 7.08783 0
M  V30 32395 C 433.377 4.12613 6.37049 0
M  V30 32396 O 433.167 3.72827 4.97879 0
M  V30 32397 C 431.977 4.45085 6.88694 0
M  V30 32398 O 431.587 5.7877 6.5624 0
M  V30 32399 C 431.097 3.47817 6.12078 0
M  V30 32400 C 431.807 3.39414 4.77697 0
M  V30 32401 N 431.757 2.04615 4.15333 0
M  V30 32402 H 434.596 3.41248 7.98759 0
M  V30 32403 H 434.868 2.5837 6.41742 0
M  V30 32404 H 434 5.02657 6.42673 0
M  V30 32405 P 430.037 6.144 6.45285 0
M  V30 32406 O 429.817 7.54673 6.86199 0
M  V30 32407 O 429.247 5.12391 7.179 0
M  V30 32408 O 429.787 5.99158 4.88404 0
M  V30 32409 C 430.727 6.60234 3.96415 0
M  V30 32410 C 429.997 7.08259 2.72856 0
M  V30 32411 O 429.787 5.9427 1.83651 0
M  V30 32412 C 428.597 7.64886 2.9555 0
M  V30 32413 O 428.207 8.53963 1.90717 0
M  V30 32414 C 427.717 6.4116 2.90739 0
M  V30 32415 C 428.427 5.55375 1.86963 0
M  V30 32416 N 428.377 4.09448 2.16152 0
M  V30 32417 H 431.216 7.45574 4.45629 0
M  V30 32418 H 431.488 5.85864 3.679 0
M  V30 32419 H 430.62 7.84412 2.24479 0
M  V30 32420 H 427.965 5.73457 0.888562 0
M  V30 32421 H 427.685 5.90877 3.88583 0
M  V30 32422 H 426.694 6.6596 2.58858 0
M  V30 32423 H 428.528 8.16339 3.92049 0
M  V30 32424 P 426.657 8.7635 1.60911 0
M  V30 32425 O 426.437 10.1388 1.11561 0
M  V30 32426 O 425.867 8.36503 2.79617 0
M  V30 32427 O 426.407 7.71806 0.42951 0
M  V30 32428 C 427.347 7.67148 -0.673689 0
M  V30 32429 C 426.617 7.33374 -1.95559 0
M  V30 32430 O 426.407 5.88721 -2.00726 0
M  V30 32431 C 425.217 7.92526 -2.10483 0
M  V30 32432 O 424.827 8.02971 -3.47653 0
M  V30 32433 C 424.337 6.89602 -1.41652 0
M  V30 32434 C 425.047 5.59201 -1.75185 0
M  V30 32435 N 424.997 4.58235 -0.662552 0
M  V30 32436 H 427.836 8.65116 -0.777161 0
M  V30 32437 H 428.108 6.90173 -0.474152 0
M  V30 32438 H 427.24 7.66548 -2.79458 0
M  V30 32439 P 423.278 8.03563 -3.84925 0
M  V30 32440 O 423.058 8.85821 -5.0569 0
M  V30 32441 O 422.488 8.41101 -2.65469 0
M  V30 32442 O 423.028 6.4965 -4.18908 0
M  V30 32443 C 423.968 5.81037 -5.05421 0
M  V30 32444 C 423.238 4.78366 -5.89277 0
M  V30 32445 O 423.028 3.58302 -5.08433 0
M  V30 32446 C 421.838 5.17448 -6.36119 0
M  V30 32447 O 421.448 4.45271 -7.53232 0
M  V30 32448 C 420.958 4.74639 -5.19936 0
M  V30 32449 C 421.668 3.49432 -4.70418 0
M  V30 32450 N 421.618 3.31776 -3.22945 0
M  V30 32451 H 424.457 6.54213 -5.71376 0
M  V30 32452 H 424.729 5.30492 -4.44033 0
M  V30 32453 H 423.861 4.55889 -6.76652 0
M  V30 32454 P 419.898 4.23843 -7.83734 0
M  V30 32455 O 419.678 4.19407 -9.29784 0
M  V30 32456 O 419.108 5.24426 -7.09156 0
M  V30 32457 O 419.648 2.7935 -7.20758 0
M  V30 32458 C 420.588 1.7299 -7.50419 0
M  V30 32459 C 419.858 0.406376 -7.57911 0
M  V30 32460 O 419.648 -0.0897726 -6.21935 0
M  V30 32461 C 418.458 0.447224 -8.1878 0
M  V30 32462 O 418.068 -0.825065 -8.71101 0
M  V30 32463 C 417.578 0.783801 -6.99623 0
M  V30 32464 C 418.288 0.0619192 -5.85967 0
M  V30 32465 N 418.238 0.7859 -4.56281 0
M  V30 32466 H 421.077 1.93423 -8.4679 0
M  V30 32467 H 421.349 1.68181 -6.71046 0
M  V30 32468 H 420.481 -0.289041 -8.15388 0
M  V30 32469 P 416.518 -1.17771 -8.83182 0
M  V30 32470 O 416.298 -2.07206 -9.98732 0
M  V30 32471 O 415.728 0.0743816 -8.81969 0
M  V30 32472 O 416.268 -1.97652 -7.47304 0
M  V30 32473 C 417.208 -3.01133 -7.08783 0
M  V30 32474 C 416.478 -4.12613 -6.37049 0
M  V30 32475 O 416.268 -3.72827 -4.97879 0
M  V30 32476 C 415.078 -4.45085 -6.88694 0
M  V30 32477 O 414.688 -5.7877 -6.5624 0
M  V30 32478 C 414.198 -3.47817 -6.12078 0
M  V30 32479 C 414.908 -3.39414 -4.77697 0
M  V30 32480 N 414.858 -2.04615 -4.15333 0
M  V30 32481 H 417.697 -3.41248 -7.98759 0
M  V30 32482 H 417.969 -2.5837 -6.41742 0
M  V30 32483 H 417.101 -5.02657 -6.42673 0
M  V30 32484 P 413.138 -6.144 -6.45285 0
M  V30 32485 O 412.918 -7.54673 -6.86199 0
M  V30 32486 O 412.348 -5.12391 -7.179 0
M  V30 32487 O 412.888 -5.99236 -4.88467 0
M  V30 32488 C 413.828 -6.60234 -3.96415 0
M  V30 32489 C 413.098 -7.08079 -2.736 0
M  V30 32490 O 412.888 -5.94365 -1.8368 0
M  V30 32491 C 411.698 -7.64886 -2.9555 0
M  V30 32492 O 411.308 -8.5406 -1.90739 0
M  V30 32493 C 410.818 -6.4116 -2.90739 0
M  V30 32494 C 411.528 -5.55375 -1.86963 0
M  V30 32495 N 411.478 -4.09664 -2.15742 0
M  V30 32496 C 411.328 -3.22231 -1.08477 0
M  V30 32497 O 411.238 -3.68951 0.0600489 0
M  V30 32498 N 411.278 -1.76692 -1.48799 0
M  V30 32499 C 411.378 -1.41695 -2.57602 0
M  V30 32500 N 411.328 -0.107296 -2.75791 0
M  V30 32501 C 411.528 -2.29178 -3.69733 0
M  V30 32502 C 411.578 -3.62753 -3.42653 0
M  V30 32503 H 414.318 -7.45488 -4.45578 0
M  V30 32504 H 414.588 -5.86232 -3.67314 0
M  V30 32505 H 413.721 -7.84508 -2.24507 0
M  V30 32506 H 411.066 -5.73556 -0.888715 0
M  V30 32507 H 410.786 -5.9096 -3.88638 0
M  V30 32508 H 409.795 -6.66053 -2.58894 0
M  V30 32509 H 411.629 -8.16339 -3.92049 0
M  V30 32510 H 411.701 -4.33052 -4.24913 0
M  V30 32511 H 411.599 -1.9103 -4.71577 0
M  V30 32512 H 411.211 0.521221 -1.95056 0
M  V30 32513 H 411.407 0.286429 -3.70695 0
M  V30 32514 P 409.758 -8.7635 -1.60911 0
M  V30 32515 O 409.538 -10.1388 -1.11561 0
M  V30 32516 O 408.968 -8.36503 -2.79617 0
M  V30 32517 O 409.508 -7.71806 -0.42951 0
M  V30 32518 C 410.448 -7.67148 0.673689 0
M  V30 32519 C 409.718 -7.33374 1.95559 0
M  V30 32520 O 409.508 -5.88721 2.00726 0
M  V30 32521 C 408.318 -7.92526 2.10483 0
M  V30 32522 O 407.928 -8.02971 3.47653 0
M  V30 32523 C 407.438 -6.89602 1.41652 0
M  V30 32524 C 408.148 -5.59201 1.75185 0
M  V30 32525 N 408.098 -4.58301 0.657969 0
M  V30 32526 H 410.937 -8.65116 0.777161 0
M  V30 32527 H 411.209 -6.9022 0.46725 0
M  V30 32528 H 410.341 -7.66548 2.79458 0
M  V30 32529 H 407.686 -5.16165 2.65183 0
M  V30 32530 H 407.406 -7.06433 0.329384 0
M  V30 32531 H 406.415 -6.90926 1.82021 0
M  V30 32532 H 408.249 -8.90873 1.62657 0
M  V30 32533 P 406.378 -8.03563 3.84925 0
M  V30 32534 O 406.158 -8.85821 5.0569 0
M  V30 32535 O 405.588 -8.41101 2.65469 0
M  V30 32536 O 406.128 -6.4965 4.18908 0
M  V30 32537 C 407.068 -5.81037 5.05421 0
M  V30 32538 C 406.338 -4.78366 5.89277 0
M  V30 32539 O 406.128 -3.58302 5.08433 0
M  V30 32540 C 404.938 -5.17448 6.36119 0
M  V30 32541 O 404.548 -4.45271 7.53232 0
M  V30 32542 C 404.058 -4.74639 5.19936 0
M  V30 32543 C 404.768 -3.49432 4.70418 0
M  V30 32544 N 404.718 -3.31776 3.22945 0
M  V30 32545 H 407.557 -6.54213 5.71376 0
M  V30 32546 H 407.829 -5.30492 4.44033 0
M  V30 32547 H 406.961 -4.55889 6.76652 0
M  V30 32548 P 402.998 -4.23843 7.83734 0
M  V30 32549 O 402.778 -4.19407 9.29784 0
M  V30 32550 O 402.208 -5.24426 7.09156 0
M  V30 32551 O 402.748 -2.7935 7.20758 0
M  V30 32552 C 403.688 -1.7299 7.50419 0
M  V30 32553 C 402.958 -0.406376 7.57911 0
M  V30 32554 O 402.748 0.0897726 6.21935 0
M  V30 32555 C 401.558 -0.447224 8.1878 0
M  V30 32556 O 401.168 0.825065 8.71101 0
M  V30 32557 C 400.678 -0.783801 6.99623 0
M  V30 32558 C 401.388 -0.0619192 5.85967 0
M  V30 32559 N 401.338 -0.790462 4.56202 0
M  V30 32560 H 404.177 -1.93423 8.4679 0
M  V30 32561 H 404.449 -1.68852 6.70877 0
M  V30 32562 H 403.581 0.289041 8.15388 0
M  V30 32563 H 400.926 0.927006 5.72848 0
M  V30 32564 H 400.646 -1.86973 6.82036 0
M  V30 32565 H 399.655 -0.403953 7.13357 0
M  V30 32566 H 401.489 -1.20599 8.97534 0
M  V30 32567 P 399.618 1.17771 8.83182 0
M  V30 32568 O 399.398 2.07206 9.98732 0
M  V30 32569 O 398.828 -0.0743816 8.81969 0
M  V30 32570 O 399.368 1.97652 7.47304 0
M  V30 32571 C 400.308 3.01133 7.08783 0
M  V30 32572 C 399.578 4.12613 6.37049 0
M  V30 32573 O 399.368 3.72827 4.97879 0
M  V30 32574 C 398.178 4.45085 6.88694 0
M  V30 32575 O 397.788 5.7877 6.5624 0
M  V30 32576 C 397.298 3.47817 6.12078 0
M  V30 32577 C 398.008 3.39414 4.77697 0
M  V30 32578 N 397.958 2.04199 4.15538 0
M  V30 32579 C 398.038 0.821545 4.76977 0
M  V30 32580 N 397.968 -0.1794 3.94592 0
M  V30 32581 C 397.818 0.419121 2.70776 0
M  V30 32582 C 397.688 -0.109072 1.40577 0
M  V30 32583 N 397.678 -1.4104 1.1344 0
M  V30 32584 N 397.568 0.764381 0.39411 0
M  V30 32585 C 397.578 2.06587 0.664135 0
M  V30 32586 N 397.698 2.67948 1.82153 0
M  V30 32587 C 397.818 1.77942 2.8147 0
M  V30 32588 H 400.797 3.41248 7.98759 0
M  V30 32589 H 401.069 2.57728 6.42 0
M  V30 32590 H 400.201 5.02657 6.42673 0
M  V30 32591 H 397.546 4.11708 4.08956 0
M  V30 32592 H 397.266 2.49626 6.61679 0
M  V30 32593 H 396.275 3.8662 6.00862 0
M  V30 32594 H 398.109 4.29991 7.97006 0
M  V30 32595 H 398.15 0.702451 5.84696 0
M  V30 32596 H 397.769 -2.09647 1.89651 0
M  V30 32597 H 397.58 -1.73358 0.160575 0
M  V30 32598 H 397.472 2.71695 -0.195838 0
M  V30 32599 P 396.238 6.144 6.45285 0
M  V30 32600 O 396.018 7.54673 6.86199 0
M  V30 32601 O 395.448 5.12391 7.179 0
M  V30 32602 O 395.988 5.99158 4.88404 0
M  V30 32603 C 396.928 6.60234 3.96415 0
M  V30 32604 C 396.198 7.08259 2.72856 0
M  V30 32605 O 395.988 5.9427 1.83651 0
M  V30 32606 C 394.798 7.64886 2.9555 0
M  V30 32607 O 394.408 8.53963 1.90717 0
M  V30 32608 C 393.918 6.4116 2.90739 0
M  V30 32609 C 394.628 5.55375 1.86963 0
M  V30 32610 N 394.578 4.09664 2.15742 0
M  V30 32611 H 397.417 7.45574 4.45629 0
M  V30 32612 H 397.689 5.86232 3.67314 0
M  V30 32613 H 396.821 7.84412 2.24479 0
M  V30 32614 P 392.858 8.7635 1.60911 0
M  V30 32615 O 392.638 10.1388 1.11561 0
M  V30 32616 O 392.068 8.36503 2.79617 0
M  V30 32617 O 392.608 7.71806 0.42951 0
M  V30 32618 C 393.548 7.67148 -0.673689 0
M  V30 32619 C 392.818 7.33374 -1.95559 0
M  V30 32620 O 392.608 5.88721 -2.00726 0
M  V30 32621 C 391.418 7.92526 -2.10483 0
M  V30 32622 O 391.028 8.02971 -3.47653 0
M  V30 32623 C 390.538 6.89602 -1.41652 0
M  V30 32624 C 391.248 5.59201 -1.75185 0
M  V30 32625 N 391.198 4.58235 -0.662552 0
M  V30 32626 H 394.037 8.65116 -0.777161 0
M  V30 32627 H 394.309 6.90173 -0.474152 0
M  V30 32628 H 393.441 7.66548 -2.79458 0
M  V30 32629 P 389.478 8.03563 -3.84925 0
M  V30 32630 O 389.258 8.85821 -5.0569 0
M  V30 32631 O 388.688 8.41101 -2.65469 0
M  V30 32632 O 389.228 6.4965 -4.18908 0
M  V30 32633 C 390.168 5.81037 -5.05421 0
M  V30 32634 C 389.438 4.78366 -5.89277 0
M  V30 32635 O 389.228 3.58302 -5.08433 0
M  V30 32636 C 388.038 5.17448 -6.36119 0
M  V30 32637 O 387.648 4.45271 -7.53232 0
M  V30 32638 C 387.158 4.74639 -5.19936 0
M  V30 32639 C 387.868 3.49432 -4.70418 0
M  V30 32640 N 387.818 3.31776 -3.22945 0
M  V30 32641 H 390.657 6.54213 -5.71376 0
M  V30 32642 H 390.929 5.30492 -4.44033 0
M  V30 32643 H 390.061 4.55889 -6.76652 0
M  V30 32644 P 386.098 4.23843 -7.83734 0
M  V30 32645 O 385.878 4.19407 -9.29784 0
M  V30 32646 O 385.308 5.24426 -7.09156 0
M  V30 32647 O 385.848 2.7935 -7.20758 0
M  V30 32648 C 386.788 1.7299 -7.50419 0
M  V30 32649 C 386.058 0.406376 -7.57911 0
M  V30 32650 O 385.848 -0.0897726 -6.21935 0
M  V30 32651 C 384.658 0.447224 -8.1878 0
M  V30 32652 O 384.268 -0.825065 -8.71101 0
M  V30 32653 C 383.778 0.783801 -6.99623 0
M  V30 32654 C 384.488 0.0619192 -5.85967 0
M  V30 32655 N 384.438 0.790462 -4.56202 0
M  V30 32656 H 387.277 1.93423 -8.4679 0
M  V30 32657 H 387.549 1.68852 -6.70877 0
M  V30 32658 H 386.681 -0.289041 -8.15388 0
M  V30 32659 H 384.026 -0.927006 -5.72848 0
M  V30 32660 H 383.746 1.86973 -6.82036 0
M  V30 32661 H 382.755 0.403953 -7.13357 0
M  V30 32662 H 384.589 1.20599 -8.97534 0
M  V30 32663 P 382.718 -1.17771 -8.83182 0
M  V30 32664 O 382.498 -2.07206 -9.98732 0
M  V30 32665 O 381.928 0.0743816 -8.81969 0
M  V30 32666 O 382.468 -1.97652 -7.47304 0
M  V30 32667 C 383.408 -3.01133 -7.08783 0
M  V30 32668 C 382.678 -4.12613 -6.37049 0
M  V30 32669 O 382.468 -3.72827 -4.97879 0
M  V30 32670 C 381.278 -4.45085 -6.88694 0
M  V30 32671 O 380.888 -5.7877 -6.5624 0
M  V30 32672 C 380.398 -3.47817 -6.12078 0
M  V30 32673 C 381.108 -3.39414 -4.77697 0
M  V30 32674 N 381.058 -2.04615 -4.15333 0
M  V30 32675 H 383.897 -3.41248 -7.98759 0
M  V30 32676 H 384.169 -2.5837 -6.41742 0
M  V30 32677 H 383.301 -5.02657 -6.42673 0
M  V30 32678 P 379.338 -6.144 -6.45285 0
M  V30 32679 O 379.118 -7.54673 -6.86199 0
M  V30 32680 O 378.548 -5.12391 -7.179 0
M  V30 32681 O 379.088 -5.99158 -4.88404 0
M  V30 32682 C 380.028 -6.60234 -3.96415 0
M  V30 32683 C 379.298 -7.08259 -2.72856 0
M  V30 32684 O 379.088 -5.9427 -1.83651 0
M  V30 32685 C 377.898 -7.64886 -2.9555 0
M  V30 32686 O 377.508 -8.53963 -1.90717 0
M  V30 32687 C 377.018 -6.4116 -2.90739 0
M  V30 32688 C 377.728 -5.55375 -1.86963 0
M  V30 32689 N 377.678 -4.09664 -2.15742 0
M  V30 32690 H 380.517 -7.45574 -4.45629 0
M  V30 32691 H 380.789 -5.86232 -3.67314 0
M  V30 32692 H 379.921 -7.84412 -2.24479 0
M  V30 32693 P 375.958 -8.7635 -1.60911 0
M  V30 32694 O 375.738 -10.1388 -1.11561 0
M  V30 32695 O 375.168 -8.36503 -2.79617 0
M  V30 32696 O 375.708 -7.71806 -0.42951 0
M  V30 32697 C 376.648 -7.66948 0.673514 0
M  V30 32698 C 375.918 -7.33374 1.95559 0
M  V30 32699 O 375.708 -5.88721 2.00726 0
M  V30 32700 C 374.518 -7.92218 2.1125 0
M  V30 32701 O 374.128 -8.02971 3.47653 0
M  V30 32702 C 373.638 -6.89504 1.41631 0
M  V30 32703 C 374.348 -5.59106 1.75155 0
M  V30 32704 N 374.298 -4.58136 0.662409 0
M  V30 32705 C 374.148 -3.26059 1.02863 0
M  V30 32706 O 374.058 -2.90743 2.19009 0
M  V30 32707 N 374.108 -2.35995 -0.0155585 0
M  V30 32708 C 374.198 -2.65248 -1.35603 0
M  V30 32709 O 374.148 -1.75605 -2.20651 0
M  V30 32710 C 374.348 -4.05747 -1.64698 0
M  V30 32711 C 374.458 -4.42345 -3.09553 0
M  V30 32712 C 374.398 -4.96734 -0.652411 0
M  V30 32713 H 377.139 -8.64917 0.776982 0
M  V30 32714 H 377.408 -6.89974 0.474015 0
M  V30 32715 H 376.541 -7.66548 2.79458 0
M  V30 32716 H 373.886 -5.16076 2.65138 0
M  V30 32717 H 373.607 -7.06433 0.329384 0
M  V30 32718 H 372.615 -6.90829 1.81996 0
M  V30 32719 H 374.449 -8.90774 1.62639 0
M  V30 32720 H 374.52 -6.02181 -0.895285 0
M  V30 32721 H 373.49 -4.80252 -3.45468 0
M  V30 32722 H 375.227 -5.20015 -3.22119 0
M  V30 32723 H 374.739 -3.53269 -3.67833 0
M  V30 32724 H 374.003 -1.39558 0.227499 0
M  V30 32725 P 372.578 -8.03563 3.84925 0
M  V30 32726 O 372.358 -8.85821 5.0569 0
M  V30 32727 O 371.788 -8.41101 2.65469 0
M  V30 32728 O 372.328 -6.4965 4.18908 0
M  V30 32729 C 373.268 -5.81037 5.05421 0
M  V30 32730 C 372.538 -4.78366 5.89277 0
M  V30 32731 O 372.328 -3.58302 5.08433 0
M  V30 32732 C 371.138 -5.17448 6.36119 0
M  V30 32733 O 370.748 -4.45271 7.53232 0
M  V30 32734 C 370.258 -4.74639 5.19936 0
M  V30 32735 C 370.968 -3.49432 4.70418 0
M  V30 32736 N 370.918 -3.31776 3.22945 0
M  V30 32737 H 373.757 -6.54213 5.71376 0
M  V30 32738 H 374.029 -5.30492 4.44033 0
M  V30 32739 H 373.161 -4.55889 6.76652 0
M  V30 32740 P 369.198 -4.23843 7.83734 0
M  V30 32741 O 368.978 -4.19407 9.29784 0
M  V30 32742 O 368.408 -5.24426 7.09156 0
M  V30 32743 O 368.948 -2.7935 7.20758 0
M  V30 32744 C 369.888 -1.72945 7.50224 0
M  V30 32745 C 369.158 -0.406376 7.57911 0
M  V30 32746 O 368.948 0.0897726 6.21935 0
M  V30 32747 C 367.758 -0.438983 8.18724 0
M  V30 32748 O 367.368 0.825065 8.71101 0
M  V30 32749 C 366.878 -0.783689 6.99524 0
M  V30 32750 C 367.588 -0.0619086 5.85867 0
M  V30 32751 N 367.538 -0.78573 4.56183 0
M  V30 32752 C 367.388 -0.0292889 3.41887 0
M  V30 32753 O 367.298 1.18445 3.4419 0
M  V30 32754 N 367.348 -0.744061 2.23964 0
M  V30 32755 C 367.438 -2.10932 2.10362 0
M  V30 32756 C 367.588 -2.8202 3.34994 0
M  V30 32757 C 367.638 -2.15547 4.52261 0
M  V30 32758 H 370.379 -1.93379 8.46595 0
M  V30 32759 H 370.648 -1.68132 6.70852 0
M  V30 32760 H 369.781 0.289041 8.15388 0
M  V30 32761 H 367.126 0.926847 5.72749 0
M  V30 32762 H 366.847 -1.86973 6.82036 0
M  V30 32763 H 365.855 -0.403896 7.13257 0
M  V30 32764 H 367.689 -1.20585 8.97435 0
M  V30 32765 H 367.76 -2.71231 5.45042 0
M  V30 32766 P 365.818 1.17771 8.83182 0
M  V30 32767 O 365.598 2.07206 9.98732 0
M  V30 32768 O 365.028 -0.0743816 8.81969 0
M  V30 32769 O 365.568 1.97652 7.47304 0
M  V30 32770 C 366.508 3.01133 7.08783 0
M  V30 32771 C 365.778 4.12613 6.37049 0
M  V30 32772 O 365.568 3.72827 4.97879 0
M  V30 32773 C 364.378 4.45085 6.88694 0
M  V30 32774 O 363.988 5.7877 6.5624 0
M  V30 32775 C 363.498 3.47817 6.12078 0
M  V30 32776 C 364.208 3.39414 4.77697 0
M  V30 32777 N 364.158 2.04615 4.15333 0
M  V30 32778 H 366.997 3.41248 7.98759 0
M  V30 32779 H 367.269 2.5837 6.41742 0
M  V30 32780 H 366.401 5.02657 6.42673 0
M  V30 32781 P 362.438 6.144 6.45285 0
M  V30 32782 O 362.218 7.54673 6.86199 0
M  V30 32783 O 361.648 5.12391 7.179 0
M  V30 32784 O 362.188 5.99158 4.88404 0
M  V30 32785 C 363.128 6.60234 3.96415 0
M  V30 32786 C 362.398 7.08259 2.72856 0
M  V30 32787 O 362.188 5.9427 1.83651 0
M  V30 32788 C 360.998 7.64886 2.9555 0
M  V30 32789 O 360.608 8.53963 1.90717 0
M  V30 32790 C 360.118 6.4116 2.90739 0
M  V30 32791 C 360.828 5.55375 1.86963 0
M  V30 32792 N 360.778 4.09448 2.16152 0
M  V30 32793 H 363.617 7.45574 4.45629 0
M  V30 32794 H 363.889 5.85864 3.679 0
M  V30 32795 H 363.021 7.84412 2.24479 0
M  V30 32796 H 360.366 5.73457 0.888562 0
M  V30 32797 H 360.086 5.90877 3.88583 0
M  V30 32798 H 359.095 6.6596 2.58858 0
M  V30 32799 H 360.929 8.16339 3.92049 0
M  V30 32800 P 359.058 8.7635 1.60911 0
M  V30 32801 O 358.838 10.1388 1.11561 0
M  V30 32802 O 358.268 8.36503 2.79617 0
M  V30 32803 O 358.808 7.71806 0.42951 0
M  V30 32804 C 359.748 7.67148 -0.673689 0
M  V30 32805 C 359.018 7.33374 -1.95559 0
M  V30 32806 O 358.808 5.88721 -2.00726 0
M  V30 32807 C 357.618 7.92526 -2.10483 0
M  V30 32808 O 357.228 8.02971 -3.47653 0
M  V30 32809 C 356.738 6.89602 -1.41652 0
M  V30 32810 C 357.448 5.59201 -1.75185 0
M  V30 32811 N 357.398 4.58301 -0.657969 0
M  V30 32812 C 357.478 4.79019 0.692603 0
M  V30 32813 N 357.408 3.69736 1.38998 0
M  V30 32814 C 357.258 2.70474 0.438135 0
M  V30 32815 C 357.128 1.30327 0.538142 0
M  V30 32816 N 357.118 0.64304 1.69192 0
M  V30 32817 N 357.008 0.611027 -0.605183 0
M  V30 32818 C 357.018 1.27002 -1.75953 0
M  V30 32819 N 357.138 2.56038 -1.98546 0
M  V30 32820 C 357.258 3.22681 -0.822541 0
M  V30 32821 H 360.237 8.65116 -0.777161 0
M  V30 32822 H 360.509 6.9022 -0.46725 0
M  V30 32823 H 359.641 7.66548 -2.79458 0
M  V30 32824 H 356.986 5.16165 -2.65183 0
M  V30 32825 H 356.706 7.06433 -0.329384 0
M  V30 32826 H 355.715 6.90926 -1.82021 0
M  V30 32827 H 357.549 8.90873 -1.62657 0
M  V30 32828 H 357.59 5.77785 1.13874 0
M  V30 32829 H 357.209 1.15585 2.57991 0
M  V30 32830 H 357.02 -0.382989 1.69835 0
M  V30 32831 H 356.912 0.653331 -2.64449 0
M  V30 32832 P 355.678 8.03563 -3.84925 0
M  V30 32833 O 355.458 8.85821 -5.0569 0
M  V30 32834 O 354.888 8.41101 -2.65469 0
M  V30 32835 O 355.428 6.4965 -4.18908 0
M  V30 32836 C 356.368 5.81037 -5.05421 0
M  V30 32837 C 355.638 4.78366 -5.89277 0
M  V30 32838 O 355.428 3.58302 -5.08433 0
M  V30 32839 C 354.238 5.17448 -6.36119 0
M  V30 32840 O 353.848 4.45271 -7.53232 0
M  V30 32841 C 353.358 4.74639 -5.19936 0
M  V30 32842 C 354.068 3.49432 -4.70418 0
M  V30 32843 N 354.018 3.31776 -3.22945 0
M  V30 32844 H 356.857 6.54213 -5.71376 0
M  V30 32845 H 357.129 5.30492 -4.44033 0
M  V30 32846 H 356.261 4.55889 -6.76652 0
M  V30 32847 P 352.298 4.23843 -7.83734 0
M  V30 32848 O 352.078 4.19407 -9.29784 0
M  V30 32849 O 351.508 5.24426 -7.09156 0
M  V30 32850 O 352.048 2.7935 -7.20758 0
M  V30 32851 C 352.988 1.7299 -7.50419 0
M  V30 32852 C 352.258 0.406376 -7.57911 0
M  V30 32853 O 352.048 -0.0897726 -6.21935 0
M  V30 32854 C 350.858 0.447224 -8.1878 0
M  V30 32855 O 350.468 -0.825065 -8.71101 0
M  V30 32856 C 349.978 0.783801 -6.99623 0
M  V30 32857 C 350.688 0.0619192 -5.85967 0
M  V30 32858 N 350.638 0.790462 -4.56202 0
M  V30 32859 H 353.477 1.93423 -8.4679 0
M  V30 32860 H 353.749 1.68852 -6.70877 0
M  V30 32861 H 352.881 -0.289041 -8.15388 0
M  V30 32862 H 350.226 -0.927006 -5.72848 0
M  V30 32863 H 349.946 1.86973 -6.82036 0
M  V30 32864 H 348.955 0.403953 -7.13357 0
M  V30 32865 H 350.789 1.20599 -8.97534 0
M  V30 32866 P 348.918 -1.17771 -8.83182 0
M  V30 32867 O 348.698 -2.07206 -9.98732 0
M  V30 32868 O 348.128 0.0743816 -8.81969 0
M  V30 32869 O 348.668 -1.97652 -7.47304 0
M  V30 32870 C 349.608 -3.01133 -7.08783 0
M  V30 32871 C 348.878 -4.12613 -6.37049 0
M  V30 32872 O 348.668 -3.72827 -4.97879 0
M  V30 32873 C 347.478 -4.45085 -6.88694 0
M  V30 32874 O 347.088 -5.7877 -6.5624 0
M  V30 32875 C 346.598 -3.47817 -6.12078 0
M  V30 32876 C 347.308 -3.39414 -4.77697 0
M  V30 32877 N 347.258 -2.04615 -4.15333 0
M  V30 32878 C 347.338 -0.803897 -4.75249 0
M  V30 32879 N 347.258 0.197615 -3.91502 0
M  V30 32880 C 347.118 -0.413002 -2.66823 0
M  V30 32881 C 346.988 0.157221 -1.38007 0
M  V30 32882 N 346.868 -0.833136 -0.390236 0
M  V30 32883 C 346.868 -2.19402 -0.623885 0
M  V30 32884 N 346.738 -2.97622 0.449677 0
M  V30 32885 N 346.998 -2.73005 -1.83601 0
M  V30 32886 C 347.118 -1.78786 -2.80935 0
M  V30 32887 H 350.097 -3.41248 -7.98759 0
M  V30 32888 H 350.369 -2.5837 -6.41742 0
M  V30 32889 H 349.501 -5.02657 -6.42673 0
M  V30 32890 P 345.538 -6.144 -6.45285 0
M  V30 32891 O 345.318 -7.54673 -6.86199 0
M  V30 32892 O 344.748 -5.12391 -7.179 0
M  V30 32893 O 345.288 -5.99158 -4.88404 0
M  V30 32894 C 346.228 -6.60234 -3.96415 0
M  V30 32895 C 345.498 -7.08259 -2.72856 0
M  V30 32896 O 345.288 -5.9427 -1.83651 0
M  V30 32897 C 344.098 -7.64886 -2.9555 0
M  V30 32898 O 343.708 -8.53963 -1.90717 0
M  V30 32899 C 343.218 -6.4116 -2.90739 0
M  V30 32900 C 343.928 -5.55375 -1.86963 0
M  V30 32901 N 343.878 -4.09448 -2.16152 0
M  V30 32902 H 346.717 -7.45574 -4.45629 0
M  V30 32903 H 346.989 -5.85864 -3.679 0
M  V30 32904 H 346.121 -7.84412 -2.24479 0
M  V30 32905 H 343.466 -5.73457 -0.888562 0
M  V30 32906 H 343.186 -5.90877 -3.88583 0
M  V30 32907 H 342.195 -6.6596 -2.58858 0
M  V30 32908 H 344.029 -8.16339 -3.92049 0
M  V30 32909 P 342.158 -8.7635 -1.60911 0
M  V30 32910 O 341.938 -10.1388 -1.11561 0
M  V30 32911 O 341.368 -8.36503 -2.79617 0
M  V30 32912 O 341.908 -7.71806 -0.42951 0
M  V30 32913 C 342.848 -7.67148 0.673689 0
M  V30 32914 C 342.118 -7.33374 1.95559 0
M  V30 32915 O 341.908 -5.88721 2.00726 0
M  V30 32916 C 340.718 -7.92526 2.10483 0
M  V30 32917 O 340.328 -8.02971 3.47653 0
M  V30 32918 C 339.838 -6.89602 1.41652 0
M  V30 32919 C 340.548 -5.59201 1.75185 0
M  V30 32920 N 340.498 -4.58235 0.662552 0
M  V30 32921 H 343.337 -8.65116 0.777161 0
M  V30 32922 H 343.609 -6.90173 0.474152 0
M  V30 32923 H 342.741 -7.66548 2.79458 0
M  V30 32924 P 338.778 -8.03563 3.84925 0
M  V30 32925 O 338.558 -8.85821 5.0569 0
M  V30 32926 O 337.988 -8.41101 2.65469 0
M  V30 32927 O 338.528 -6.4965 4.18908 0
M  V30 32928 C 339.468 -5.81037 5.05421 0
M  V30 32929 C 338.738 -4.78366 5.89277 0
M  V30 32930 O 338.528 -3.58302 5.08433 0
M  V30 32931 C 337.338 -5.17448 6.36119 0
M  V30 32932 O 336.948 -4.45271 7.53232 0
M  V30 32933 C 336.458 -4.74639 5.19936 0
M  V30 32934 C 337.168 -3.49432 4.70418 0
M  V30 32935 N 337.118 -3.31776 3.22945 0
M  V30 32936 H 339.957 -6.54213 5.71376 0
M  V30 32937 H 340.229 -5.30492 4.44033 0
M  V30 32938 H 339.361 -4.55889 6.76652 0
M  V30 32939 P 335.398 -4.23843 7.83734 0
M  V30 32940 O 335.178 -4.19407 9.29784 0
M  V30 32941 O 334.608 -5.24426 7.09156 0
M  V30 32942 O 335.148 -2.7935 7.20758 0
M  V30 32943 C 336.088 -1.7299 7.50419 0
M  V30 32944 C 335.358 -0.406376 7.57911 0
M  V30 32945 O 335.148 0.0897726 6.21935 0
M  V30 32946 C 333.958 -0.447224 8.1878 0
M  V30 32947 O 333.568 0.825065 8.71101 0
M  V30 32948 C 333.078 -0.783801 6.99623 0
M  V30 32949 C 333.788 -0.0619192 5.85967 0
M  V30 32950 N 333.738 -0.7859 4.56281 0
M  V30 32951 C 333.818 -2.14308 4.31736 0
M  V30 32952 N 333.738 -2.46106 3.05116 0
M  V30 32953 C 333.598 -1.23422 2.4014 0
M  V30 32954 C 333.468 -0.938381 1.02409 0
M  V30 32955 N 333.348 0.444647 0.805413 0
M  V30 32956 C 333.348 1.40829 1.79435 0
M  V30 32957 N 333.218 2.67213 1.38558 0
M  V30 32958 N 333.478 1.12947 3.09005 0
M  V30 32959 C 333.598 -0.204887 3.32369 0
M  V30 32960 H 336.577 -1.93423 8.4679 0
M  V30 32961 H 336.849 -1.68181 6.71046 0
M  V30 32962 H 335.981 0.289041 8.15388 0
M  V30 32963 P 332.018 1.17771 8.83182 0
M  V30 32964 O 331.798 2.07206 9.98732 0
M  V30 32965 O 331.228 -0.0743816 8.81969 0
M  V30 32966 O 331.768 1.97652 7.47304 0
M  V30 32967 C 332.708 3.01133 7.08783 0
M  V30 32968 C 331.978 4.12613 6.37049 0
M  V30 32969 O 331.768 3.72827 4.97879 0
M  V30 32970 C 330.578 4.45085 6.88694 0
M  V30 32971 O 330.188 5.7877 6.5624 0
M  V30 32972 C 329.698 3.47817 6.12078 0
M  V30 32973 C 330.408 3.39414 4.77697 0
M  V30 32974 N 330.358 2.04615 4.15333 0
M  V30 32975 H 333.197 3.41248 7.98759 0
M  V30 32976 H 333.469 2.5837 6.41742 0
M  V30 32977 H 332.601 5.02657 6.42673 0
M  V30 32978 P 328.638 6.144 6.45285 0
M  V30 32979 O 328.418 7.54673 6.86199 0
M  V30 32980 O 327.848 5.12391 7.179 0
M  V30 32981 O 328.388 5.99158 4.88404 0
M  V30 32982 C 329.328 6.60234 3.96415 0
M  V30 32983 C 328.598 7.08259 2.72856 0
M  V30 32984 O 328.388 5.9427 1.83651 0
M  V30 32985 C 327.198 7.64886 2.9555 0
M  V30 32986 O 326.808 8.53963 1.90717 0
M  V30 32987 C 326.318 6.4116 2.90739 0
M  V30 32988 C 327.028 5.55375 1.86963 0
M  V30 32989 N 326.978 4.09664 2.15742 0
M  V30 32990 C 327.058 3.44381 3.37233 0
M  V30 32991 N 326.978 2.14131 3.28347 0
M  V30 32992 C 326.838 1.90247 1.91588 0
M  V30 32993 C 326.708 0.683992 1.20892 0
M  V30 32994 N 326.588 0.903396 -0.173998 0
M  V30 32995 C 326.588 2.14171 -0.784879 0
M  V30 32996 N 326.458 2.1435 -2.11317 0
M  V30 32997 N 326.718 3.28784 -0.119316 0
M  V30 32998 C 326.838 3.0977 1.22194 0
M  V30 32999 H 329.817 7.45574 4.45629 0
M  V30 33000 H 330.089 5.86232 3.67314 0
M  V30 33001 H 329.221 7.84412 2.24479 0
M  V30 33002 P 325.258 8.7635 1.60911 0
M  V30 33003 O 325.038 10.1388 1.11561 0
M  V30 33004 O 324.468 8.36503 2.79617 0
M  V30 33005 O 325.008 7.71806 0.42951 0
M  V30 33006 C 325.948 7.67148 -0.673689 0
M  V30 33007 C 325.218 7.33374 -1.95559 0
M  V30 33008 O 325.008 5.88721 -2.00726 0
M  V30 33009 C 323.818 7.92526 -2.10483 0
M  V30 33010 O 323.428 8.02971 -3.47653 0
M  V30 33011 C 322.938 6.89602 -1.41652 0
M  V30 33012 C 323.648 5.59201 -1.75185 0
M  V30 33013 N 323.598 4.58301 -0.657969 0
M  V30 33014 C 323.678 4.79019 0.692603 0
M  V30 33015 N 323.608 3.69736 1.38998 0
M  V30 33016 C 323.458 2.70474 0.438135 0
M  V30 33017 C 323.328 1.30327 0.538142 0
M  V30 33018 N 323.318 0.64304 1.69192 0
M  V30 33019 N 323.208 0.611027 -0.605183 0
M  V30 33020 C 323.218 1.27002 -1.75953 0
M  V30 33021 N 323.338 2.56038 -1.98546 0
M  V30 33022 C 323.458 3.22681 -0.822541 0
M  V30 33023 H 326.437 8.65116 -0.777161 0
M  V30 33024 H 326.709 6.9022 -0.46725 0
M  V30 33025 H 325.841 7.66548 -2.79458 0
M  V30 33026 H 323.186 5.16165 -2.65183 0
M  V30 33027 H 322.906 7.06433 -0.329384 0
M  V30 33028 H 321.915 6.90926 -1.82021 0
M  V30 33029 H 323.749 8.90873 -1.62657 0
M  V30 33030 H 323.79 5.77785 1.13874 0
M  V30 33031 H 323.409 1.15585 2.57991 0
M  V30 33032 H 323.22 -0.382989 1.69835 0
M  V30 33033 H 323.112 0.653331 -2.64449 0
M  V30 33034 P 321.878 8.03563 -3.84925 0
M  V30 33035 O 321.658 8.85821 -5.0569 0
M  V30 33036 O 321.088 8.41101 -2.65469 0
M  V30 33037 O 321.628 6.4965 -4.18908 0
M  V30 33038 C 322.568 5.81037 -5.05421 0
M  V30 33039 C 321.838 4.78366 -5.89277 0
M  V30 33040 O 321.628 3.58302 -5.08433 0
M  V30 33041 C 320.438 5.17448 -6.36119 0
M  V30 33042 O 320.048 4.45271 -7.53232 0
M  V30 33043 C 319.558 4.74639 -5.19936 0
M  V30 33044 C 320.268 3.49432 -4.70418 0
M  V30 33045 N 320.218 3.32099 -3.22613 0
M  V30 33046 H 323.057 6.54213 -5.71376 0
M  V30 33047 H 323.329 5.30936 -4.43503 0
M  V30 33048 H 322.461 4.55889 -6.76652 0
M  V30 33049 H 319.806 2.61715 -5.17932 0
M  V30 33050 H 319.526 5.52155 -4.41878 0
M  V30 33051 H 318.535 4.51981 -5.53374 0
M  V30 33052 H 320.369 6.25124 -6.55234 0
M  V30 33053 P 318.498 4.23843 -7.83734 0
M  V30 33054 O 318.278 4.19407 -9.29784 0
M  V30 33055 O 317.708 5.24426 -7.09156 0
M  V30 33056 O 318.248 2.7935 -7.20758 0
M  V30 33057 C 319.188 1.7299 -7.50419 0
M  V30 33058 C 318.458 0.406376 -7.57911 0
M  V30 33059 O 318.248 -0.0897726 -6.21935 0
M  V30 33060 C 317.058 0.447224 -8.1878 0
M  V30 33061 O 316.668 -0.825065 -8.71101 0
M  V30 33062 C 316.178 0.783801 -6.99623 0
M  V30 33063 C 316.888 0.0619192 -5.85967 0
M  V30 33064 N 316.838 0.790462 -4.56202 0
M  V30 33065 H 319.677 1.93423 -8.4679 0
M  V30 33066 H 319.949 1.68852 -6.70877 0
M  V30 33067 H 319.081 -0.289041 -8.15388 0
M  V30 33068 H 316.426 -0.927006 -5.72848 0
M  V30 33069 H 316.146 1.86973 -6.82036 0
M  V30 33070 H 315.155 0.403953 -7.13357 0
M  V30 33071 H 316.989 1.20599 -8.97534 0
M  V30 33072 P 315.118 -1.17771 -8.83182 0
M  V30 33073 O 314.898 -2.07206 -9.98732 0
M  V30 33074 O 314.328 0.0743816 -8.81969 0
M  V30 33075 O 314.868 -1.97652 -7.47304 0
M  V30 33076 C 315.808 -3.01133 -7.08783 0
M  V30 33077 C 315.078 -4.12613 -6.37049 0
M  V30 33078 O 314.868 -3.72827 -4.97879 0
M  V30 33079 C 313.678 -4.45085 -6.88694 0
M  V30 33080 O 313.288 -5.7877 -6.5624 0
M  V30 33081 C 312.798 -3.47817 -6.12078 0
M  V30 33082 C 313.508 -3.39414 -4.77697 0
M  V30 33083 N 313.458 -2.04615 -4.15333 0
M  V30 33084 H 316.297 -3.41248 -7.98759 0
M  V30 33085 H 316.569 -2.5837 -6.41742 0
M  V30 33086 H 315.701 -5.02657 -6.42673 0
M  V30 33087 P 311.738 -6.144 -6.45285 0
M  V30 33088 O 311.518 -7.54673 -6.86199 0
M  V30 33089 O 310.948 -5.12391 -7.179 0
M  V30 33090 O 311.488 -5.99158 -4.88404 0
M  V30 33091 C 312.428 -6.60234 -3.96415 0
M  V30 33092 C 311.698 -7.08259 -2.72856 0
M  V30 33093 O 311.488 -5.9427 -1.83651 0
M  V30 33094 C 310.298 -7.64886 -2.9555 0
M  V30 33095 O 309.908 -8.53963 -1.90717 0
M  V30 33096 C 309.418 -6.4116 -2.90739 0
M  V30 33097 C 310.128 -5.55375 -1.86963 0
M  V30 33098 N 310.078 -4.09664 -2.15742 0
M  V30 33099 C 310.158 -3.44381 -3.37233 0
M  V30 33100 N 310.078 -2.14131 -3.28347 0
M  V30 33101 C 309.938 -1.90247 -1.91588 0
M  V30 33102 C 309.808 -0.683992 -1.20892 0
M  V30 33103 N 309.688 -0.903396 0.173998 0
M  V30 33104 C 309.688 -2.14171 0.784879 0
M  V30 33105 N 309.558 -2.1435 2.11317 0
M  V30 33106 N 309.818 -3.28784 0.119316 0
M  V30 33107 C 309.938 -3.0977 -1.22194 0
M  V30 33108 H 312.917 -7.45574 -4.45629 0
M  V30 33109 H 313.189 -5.86232 -3.67314 0
M  V30 33110 H 312.321 -7.84412 -2.24479 0
M  V30 33111 P 308.358 -8.7635 -1.60911 0
M  V30 33112 O 308.138 -10.1388 -1.11561 0
M  V30 33113 O 307.568 -8.36503 -2.79617 0
M  V30 33114 O 308.108 -7.71806 -0.42951 0
M  V30 33115 C 309.048 -7.66948 0.673514 0
M  V30 33116 C 308.318 -7.33374 1.95559 0
M  V30 33117 O 308.108 -5.88721 2.00726 0
M  V30 33118 C 306.918 -7.92218 2.1125 0
M  V30 33119 O 306.528 -8.02971 3.47653 0
M  V30 33120 C 306.038 -6.89504 1.41631 0
M  V30 33121 C 306.748 -5.59106 1.75155 0
M  V30 33122 N 306.698 -4.58136 0.662409 0
M  V30 33123 C 306.548 -3.26059 1.02863 0
M  V30 33124 O 306.458 -2.90743 2.19009 0
M  V30 33125 N 306.508 -2.35995 -0.0155585 0
M  V30 33126 C 306.598 -2.65248 -1.35603 0
M  V30 33127 O 306.548 -1.75605 -2.20651 0
M  V30 33128 C 306.748 -4.05747 -1.64698 0
M  V30 33129 C 306.858 -4.42345 -3.09553 0
M  V30 33130 C 306.798 -4.96734 -0.652411 0
M  V30 33131 H 309.539 -8.64917 0.776982 0
M  V30 33132 H 309.808 -6.89974 0.474015 0
M  V30 33133 H 308.941 -7.66548 2.79458 0
M  V30 33134 H 306.286 -5.16076 2.65138 0
M  V30 33135 H 306.007 -7.06433 0.329384 0
M  V30 33136 H 305.015 -6.90829 1.81996 0
M  V30 33137 H 306.849 -8.90774 1.62639 0
M  V30 33138 H 306.92 -6.02181 -0.895285 0
M  V30 33139 H 305.89 -4.80252 -3.45468 0
M  V30 33140 H 307.627 -5.20015 -3.22119 0
M  V30 33141 H 307.139 -3.53269 -3.67833 0
M  V30 33142 H 306.403 -1.39558 0.227499 0
M  V30 33143 P 304.978 -8.03563 3.84925 0
M  V30 33144 O 304.758 -8.85821 5.0569 0
M  V30 33145 O 304.188 -8.41101 2.65469 0
M  V30 33146 O 304.728 -6.4965 4.18908 0
M  V30 33147 C 305.668 -5.81037 5.05421 0
M  V30 33148 C 304.938 -4.78366 5.89277 0
M  V30 33149 O 304.728 -3.58302 5.08433 0
M  V30 33150 C 303.538 -5.17448 6.36119 0
M  V30 33151 O 303.148 -4.45271 7.53232 0
M  V30 33152 C 302.658 -4.74639 5.19936 0
M  V30 33153 C 303.368 -3.49432 4.70418 0
M  V30 33154 N 303.318 -3.31776 3.22945 0
M  V30 33155 H 306.157 -6.54213 5.71376 0
M  V30 33156 H 306.429 -5.30492 4.44033 0
M  V30 33157 H 305.561 -4.55889 6.76652 0
M  V30 33158 P 301.598 -4.23843 7.83734 0
M  V30 33159 O 301.378 -4.19407 9.29784 0
M  V30 33160 O 300.808 -5.24426 7.09156 0
M  V30 33161 O 301.348 -2.7935 7.20758 0
M  V30 33162 C 302.288 -1.7299 7.50419 0
M  V30 33163 C 301.558 -0.406376 7.57911 0
M  V30 33164 O 301.348 0.0897726 6.21935 0
M  V30 33165 C 300.158 -0.447224 8.1878 0
M  V30 33166 O 299.768 0.825065 8.71101 0
M  V30 33167 C 299.278 -0.783801 6.99623 0
M  V30 33168 C 299.988 -0.0619192 5.85967 0
M  V30 33169 N 299.938 -0.790462 4.56202 0
M  V30 33170 H 302.777 -1.93423 8.4679 0
M  V30 33171 H 303.049 -1.68852 6.70877 0
M  V30 33172 H 302.181 0.289041 8.15388 0
M  V30 33173 H 299.526 0.927006 5.72848 0
M  V30 33174 H 299.246 -1.86973 6.82036 0
M  V30 33175 H 298.255 -0.403953 7.13357 0
M  V30 33176 H 300.089 -1.20599 8.97534 0
M  V30 33177 P 298.218 1.17771 8.83182 0
M  V30 33178 O 297.998 2.07206 9.98732 0
M  V30 33179 O 297.428 -0.0743816 8.81969 0
M  V30 33180 O 297.968 1.97652 7.47304 0
M  V30 33181 C 298.908 3.01133 7.08783 0
M  V30 33182 C 298.178 4.12613 6.37049 0
M  V30 33183 O 297.968 3.72827 4.97879 0
M  V30 33184 C 296.778 4.45085 6.88694 0
M  V30 33185 O 296.388 5.7877 6.5624 0
M  V30 33186 C 295.898 3.47817 6.12078 0
M  V30 33187 C 296.608 3.39414 4.77697 0
M  V30 33188 N 296.558 2.04615 4.15333 0
M  V30 33189 H 299.397 3.41248 7.98759 0
M  V30 33190 H 299.669 2.5837 6.41742 0
M  V30 33191 H 298.801 5.02657 6.42673 0
M  V30 33192 P 294.838 6.144 6.45285 0
M  V30 33193 O 294.618 7.54673 6.86199 0
M  V30 33194 O 294.048 5.12391 7.179 0
M  V30 33195 O 294.588 5.99158 4.88404 0
M  V30 33196 C 295.528 6.60234 3.96415 0
M  V30 33197 C 294.798 7.08259 2.72856 0
M  V30 33198 O 294.588 5.9427 1.83651 0
M  V30 33199 C 293.398 7.64886 2.9555 0
M  V30 33200 O 293.008 8.53963 1.90717 0
M  V30 33201 C 292.518 6.4116 2.90739 0
M  V30 33202 C 293.228 5.55375 1.86963 0
M  V30 33203 N 293.178 4.09448 2.16152 0
M  V30 33204 H 296.017 7.45574 4.45629 0
M  V30 33205 H 296.289 5.85864 3.679 0
M  V30 33206 H 295.421 7.84412 2.24479 0
M  V30 33207 H 292.766 5.73457 0.888562 0
M  V30 33208 H 292.486 5.90877 3.88583 0
M  V30 33209 H 291.495 6.6596 2.58858 0
M  V30 33210 H 293.329 8.16339 3.92049 0
M  V30 33211 P 291.458 8.7635 1.60911 0
M  V30 33212 O 291.238 10.1388 1.11561 0
M  V30 33213 O 290.668 8.36503 2.79617 0
M  V30 33214 O 291.208 7.71806 0.42951 0
M  V30 33215 C 292.148 7.67148 -0.673689 0
M  V30 33216 C 291.418 7.33374 -1.95559 0
M  V30 33217 O 291.208 5.88721 -2.00726 0
M  V30 33218 C 290.018 7.92526 -2.10483 0
M  V30 33219 O 289.628 8.02971 -3.47653 0
M  V30 33220 C 289.138 6.89602 -1.41652 0
M  V30 33221 C 289.848 5.59201 -1.75185 0
M  V30 33222 N 289.798 4.58301 -0.657969 0
M  V30 33223 H 292.637 8.65116 -0.777161 0
M  V30 33224 H 292.909 6.9022 -0.46725 0
M  V30 33225 H 292.041 7.66548 -2.79458 0
M  V30 33226 H 289.386 5.16165 -2.65183 0
M  V30 33227 H 289.106 7.06433 -0.329384 0
M  V30 33228 H 288.115 6.90926 -1.82021 0
M  V30 33229 H 289.949 8.90873 -1.62657 0
M  V30 33230 P 288.078 8.03563 -3.84925 0
M  V30 33231 O 287.858 8.85821 -5.0569 0
M  V30 33232 O 287.288 8.41101 -2.65469 0
M  V30 33233 O 287.828 6.4965 -4.18908 0
M  V30 33234 C 288.768 5.81037 -5.05421 0
M  V30 33235 C 288.038 4.78366 -5.89277 0
M  V30 33236 O 287.828 3.58302 -5.08433 0
M  V30 33237 C 286.638 5.17448 -6.36119 0
M  V30 33238 O 286.248 4.45271 -7.53232 0
M  V30 33239 C 285.758 4.74639 -5.19936 0
M  V30 33240 C 286.468 3.49432 -4.70418 0
M  V30 33241 N 286.418 3.31776 -3.22945 0
M  V30 33242 H 289.257 6.54213 -5.71376 0
M  V30 33243 H 289.529 5.30492 -4.44033 0
M  V30 33244 H 288.661 4.55889 -6.76652 0
M  V30 33245 P 284.698 4.23843 -7.83734 0
M  V30 33246 O 284.478 4.19407 -9.29784 0
M  V30 33247 O 283.908 5.24426 -7.09156 0
M  V30 33248 O 284.448 2.79386 -7.20852 0
M  V30 33249 C 285.388 1.7299 -7.50419 0
M  V30 33250 C 284.658 0.41401 -7.5797 0
M  V30 33251 O 284.448 -0.089787 -6.22035 0
M  V30 33252 C 283.258 0.447224 -8.1878 0
M  V30 33253 O 282.868 -0.825159 -8.71201 0
M  V30 33254 C 282.378 0.783801 -6.99623 0
M  V30 33255 C 283.088 0.0619192 -5.85967 0
M  V30 33256 N 283.038 0.7859 -4.56281 0
M  V30 33257 C 282.888 0.0359258 -3.39981 0
M  V30 33258 O 282.798 -1.19723 -3.49038 0
M  V30 33259 N 282.838 0.869151 -2.14025 0
M  V30 33260 C 282.938 2.01207 -2.14363 0
M  V30 33261 N 282.888 2.58978 -0.954287 0
M  V30 33262 C 283.088 2.80817 -3.32215 0
M  V30 33263 C 283.138 2.13785 -4.50884 0
M  V30 33264 H 285.878 1.93401 -8.46693 0
M  V30 33265 H 286.148 1.68181 -6.71046 0
M  V30 33266 H 285.281 -0.289076 -8.15488 0
M  V30 33267 H 282.626 -0.927166 -5.72947 0
M  V30 33268 H 282.346 1.87 -6.82132 0
M  V30 33269 H 281.355 0.404009 -7.13457 0
M  V30 33270 H 283.189 1.20599 -8.97534 0
M  V30 33271 H 283.261 2.70295 -5.43162 0
M  V30 33272 H 283.159 3.89465 -3.27406 0
M  V30 33273 H 282.771 2.01616 -0.107046 0
M  V30 33274 H 282.967 3.61403 -0.873101 0
M  V30 33275 P 281.318 -1.17771 -8.83182 0
M  V30 33276 O 281.098 -2.07206 -9.98732 0
M  V30 33277 O 280.528 0.0743816 -8.81969 0
M  V30 33278 O 281.068 -1.97652 -7.47304 0
M  V30 33279 C 282.008 -3.01133 -7.08783 0
M  V30 33280 C 281.278 -4.12613 -6.37049 0
M  V30 33281 O 281.068 -3.72827 -4.97879 0
M  V30 33282 C 279.878 -4.45085 -6.88694 0
M  V30 33283 O 279.488 -5.7877 -6.5624 0
M  V30 33284 C 278.998 -3.47817 -6.12078 0
M  V30 33285 C 279.708 -3.39414 -4.77697 0
M  V30 33286 N 279.658 -2.04615 -4.15333 0
M  V30 33287 H 282.497 -3.41248 -7.98759 0
M  V30 33288 H 282.769 -2.5837 -6.41742 0
M  V30 33289 H 281.901 -5.02657 -6.42673 0
M  V30 33290 P 277.938 -6.144 -6.45285 0
M  V30 33291 O 277.718 -7.54673 -6.86199 0
M  V30 33292 O 277.148 -5.12391 -7.179 0
M  V30 33293 O 277.688 -5.99158 -4.88404 0
M  V30 33294 C 278.628 -6.60062 -3.96313 0
M  V30 33295 C 277.898 -7.08259 -2.72856 0
M  V30 33296 O 277.688 -5.9427 -1.83651 0
M  V30 33297 C 276.498 -7.65087 -2.94749 0
M  V30 33298 O 276.108 -8.53963 -1.90717 0
M  V30 33299 C 275.618 -6.41069 -2.90698 0
M  V30 33300 C 276.328 -5.5528 -1.86931 0
M  V30 33301 N 276.278 -4.09575 -2.15696 0
M  V30 33302 C 276.128 -3.24249 -1.08435 0
M  V30 33303 O 276.038 -3.63946 0.0628747 0
M  V30 33304 N 276.088 -1.90009 -1.39973 0
M  V30 33305 C 276.178 -1.34884 -2.65614 0
M  V30 33306 O 276.128 -0.123716 -2.81728 0
M  V30 33307 C 276.328 -2.3145 -3.71736 0
M  V30 33308 C 276.438 -1.75913 -5.10438 0
M  V30 33309 C 276.378 -3.63518 -3.44754 0
M  V30 33310 H 279.119 -7.45402 -4.45526 0
M  V30 33311 H 279.388 -5.86062 -3.67208 0
M  V30 33312 H 278.521 -7.84412 -2.24479 0
M  V30 33313 H 275.866 -5.73358 -0.888409 0
M  V30 33314 H 275.587 -5.90877 -3.88583 0
M  V30 33315 H 274.595 -6.65867 -2.58821 0
M  V30 33316 H 276.429 -8.16248 -3.92006 0
M  V30 33317 H 276.5 -4.34551 -4.26383 0
M  V30 33318 H 275.47 -1.85471 -5.61775 0
M  V30 33319 H 277.207 -2.31364 -5.66257 0
M  V30 33320 H 276.719 -0.695936 -5.05229 0
M  V30 33321 H 275.983 -1.26277 -0.63625 0
M  V30 33322 P 274.558 -8.7635 -1.60911 0
M  V30 33323 O 274.338 -10.1388 -1.11561 0
M  V30 33324 O 273.768 -8.36503 -2.79617 0
M  V30 33325 O 274.308 -7.71806 -0.42951 0
M  V30 33326 C 275.248 -7.67148 0.673689 0
M  V30 33327 C 274.518 -7.33374 1.95559 0
M  V30 33328 O 274.308 -5.88721 2.00726 0
M  V30 33329 C 273.118 -7.92526 2.10483 0
M  V30 33330 O 272.728 -8.02971 3.47653 0
M  V30 33331 C 272.238 -6.89602 1.41652 0
M  V30 33332 C 272.948 -5.59201 1.75185 0
M  V30 33333 N 272.898 -4.58235 0.662552 0
M  V30 33334 H 275.737 -8.65116 0.777161 0
M  V30 33335 H 276.009 -6.90173 0.474152 0
M  V30 33336 H 275.141 -7.66548 2.79458 0
M  V30 33337 P 271.178 -8.03563 3.84925 0
M  V30 33338 O 270.958 -8.85821 5.0569 0
M  V30 33339 O 270.388 -8.41101 2.65469 0
M  V30 33340 O 270.928 -6.4965 4.18908 0
M  V30 33341 C 271.868 -5.81037 5.05421 0
M  V30 33342 C 271.138 -4.78366 5.89277 0
M  V30 33343 O 270.928 -3.58302 5.08433 0
M  V30 33344 C 269.738 -5.17448 6.36119 0
M  V30 33345 O 269.348 -4.45271 7.53232 0
M  V30 33346 C 268.858 -4.74639 5.19936 0
M  V30 33347 C 269.568 -3.49432 4.70418 0
M  V30 33348 N 269.518 -3.31776 3.22945 0
M  V30 33349 H 272.357 -6.54213 5.71376 0
M  V30 33350 H 272.629 -5.30492 4.44033 0
M  V30 33351 H 271.761 -4.55889 6.76652 0
M  V30 33352 P 267.798 -4.23843 7.83734 0
M  V30 33353 O 267.578 -4.19407 9.29784 0
M  V30 33354 O 267.008 -5.24426 7.09156 0
M  V30 33355 O 267.548 -2.79386 7.20852 0
M  V30 33356 C 268.488 -1.7299 7.50419 0
M  V30 33357 C 267.758 -0.41401 7.5797 0
M  V30 33358 O 267.548 0.089787 6.22035 0
M  V30 33359 C 266.358 -0.447224 8.1878 0
M  V30 33360 O 265.968 0.825159 8.71201 0
M  V30 33361 C 265.478 -0.783801 6.99623 0
M  V30 33362 C 266.188 -0.0619192 5.85967 0
M  V30 33363 N 266.138 -0.7859 4.56281 0
M  V30 33364 C 265.988 -0.0359258 3.39981 0
M  V30 33365 O 265.898 1.19723 3.49038 0
M  V30 33366 N 265.938 -0.869151 2.14025 0
M  V30 33367 C 266.038 -2.01207 2.14363 0
M  V30 33368 N 265.988 -2.58978 0.954287 0
M  V30 33369 C 266.188 -2.80817 3.32215 0
M  V30 33370 C 266.238 -2.13785 4.50884 0
M  V30 33371 H 268.978 -1.93401 8.46693 0
M  V30 33372 H 269.248 -1.68181 6.71046 0
M  V30 33373 H 268.381 0.289076 8.15488 0
M  V30 33374 H 265.726 0.927166 5.72947 0
M  V30 33375 H 265.446 -1.87 6.82132 0
M  V30 33376 H 264.455 -0.404009 7.13457 0
M  V30 33377 H 266.289 -1.20599 8.97534 0
M  V30 33378 H 266.361 -2.70295 5.43162 0
M  V30 33379 H 266.259 -3.89465 3.27406 0
M  V30 33380 H 265.871 -2.01616 0.107046 0
M  V30 33381 H 266.067 -3.61403 0.873101 0
M  V30 33382 P 264.418 1.17771 8.83182 0
M  V30 33383 O 264.198 2.07206 9.98732 0
M  V30 33384 O 263.628 -0.0743816 8.81969 0
M  V30 33385 O 264.168 1.97652 7.47304 0
M  V30 33386 C 265.108 3.01133 7.08783 0
M  V30 33387 C 264.378 4.12613 6.37049 0
M  V30 33388 O 264.168 3.72827 4.97879 0
M  V30 33389 C 262.978 4.45085 6.88694 0
M  V30 33390 O 262.588 5.7877 6.5624 0
M  V30 33391 C 262.098 3.47817 6.12078 0
M  V30 33392 C 262.808 3.39414 4.77697 0
M  V30 33393 N 262.758 2.04615 4.15333 0
M  V30 33394 H 265.597 3.41248 7.98759 0
M  V30 33395 H 265.869 2.5837 6.41742 0
M  V30 33396 H 265.001 5.02657 6.42673 0
M  V30 33397 P 261.038 6.144 6.45285 0
M  V30 33398 O 260.818 7.54673 6.86199 0
M  V30 33399 O 260.248 5.12391 7.179 0
M  V30 33400 O 260.788 5.99158 4.88404 0
M  V30 33401 C 261.728 6.60234 3.96415 0
M  V30 33402 C 260.998 7.08259 2.72856 0
M  V30 33403 O 260.788 5.9427 1.83651 0
M  V30 33404 C 259.598 7.64886 2.9555 0
M  V30 33405 O 259.208 8.53963 1.90717 0
M  V30 33406 C 258.718 6.4116 2.90739 0
M  V30 33407 C 259.428 5.55375 1.86963 0
M  V30 33408 N 259.378 4.09448 2.16152 0
M  V30 33409 H 262.217 7.45574 4.45629 0
M  V30 33410 H 262.489 5.85864 3.679 0
M  V30 33411 H 261.621 7.84412 2.24479 0
M  V30 33412 H 258.966 5.73457 0.888562 0
M  V30 33413 H 258.686 5.90877 3.88583 0
M  V30 33414 H 257.695 6.6596 2.58858 0
M  V30 33415 H 259.529 8.16339 3.92049 0
M  V30 33416 P 257.658 8.7635 1.60911 0
M  V30 33417 O 257.438 10.1388 1.11561 0
M  V30 33418 O 256.868 8.36503 2.79617 0
M  V30 33419 O 257.408 7.71806 0.42951 0
M  V30 33420 C 258.348 7.67148 -0.673689 0
M  V30 33421 C 257.618 7.33374 -1.95559 0
M  V30 33422 O 257.408 5.88721 -2.00726 0
M  V30 33423 C 256.218 7.92526 -2.10483 0
M  V30 33424 O 255.828 8.02971 -3.47653 0
M  V30 33425 C 255.338 6.89602 -1.41652 0
M  V30 33426 C 256.048 5.59201 -1.75185 0
M  V30 33427 N 255.998 4.58235 -0.662552 0
M  V30 33428 H 258.837 8.65116 -0.777161 0
M  V30 33429 H 259.109 6.90173 -0.474152 0
M  V30 33430 H 258.241 7.66548 -2.79458 0
M  V30 33431 P 254.279 8.03563 -3.84925 0
M  V30 33432 O 254.059 8.85821 -5.0569 0
M  V30 33433 O 253.489 8.41101 -2.65469 0
M  V30 33434 O 254.029 6.4965 -4.18908 0
M  V30 33435 C 254.969 5.81037 -5.05421 0
M  V30 33436 C 254.239 4.78366 -5.89277 0
M  V30 33437 O 254.029 3.58302 -5.08433 0
M  V30 33438 C 252.839 5.17448 -6.36119 0
M  V30 33439 O 252.449 4.45271 -7.53232 0
M  V30 33440 C 251.959 4.74639 -5.19936 0
M  V30 33441 C 252.669 3.49432 -4.70418 0
M  V30 33442 N 252.619 3.31776 -3.22945 0
M  V30 33443 H 255.458 6.54213 -5.71376 0
M  V30 33444 H 255.73 5.30492 -4.44033 0
M  V30 33445 H 254.862 4.55889 -6.76652 0
M  V30 33446 P 250.899 4.23843 -7.83734 0
M  V30 33447 O 250.679 4.19407 -9.29784 0
M  V30 33448 O 250.109 5.24426 -7.09156 0
M  V30 33449 O 250.649 2.7935 -7.20758 0
M  V30 33450 C 251.589 1.72945 -7.50224 0
M  V30 33451 C 250.859 0.406376 -7.57911 0
M  V30 33452 O 250.649 -0.0897726 -6.21935 0
M  V30 33453 C 249.459 0.438983 -8.18724 0
M  V30 33454 O 249.069 -0.825065 -8.71101 0
M  V30 33455 C 248.579 0.783689 -6.99524 0
M  V30 33456 C 249.289 0.0619086 -5.85867 0
M  V30 33457 N 249.239 0.78573 -4.56183 0
M  V30 33458 C 249.089 0.0292889 -3.41887 0
M  V30 33459 O 248.999 -1.18445 -3.4419 0
M  V30 33460 N 249.049 0.744061 -2.23964 0
M  V30 33461 C 249.139 2.10932 -2.10362 0
M  V30 33462 C 249.289 2.8202 -3.34994 0
M  V30 33463 C 249.339 2.15547 -4.52261 0
M  V30 33464 H 252.08 1.93379 -8.46595 0
M  V30 33465 H 252.349 1.68132 -6.70852 0
M  V30 33466 H 251.482 -0.289041 -8.15388 0
M  V30 33467 H 248.827 -0.926847 -5.72749 0
M  V30 33468 H 248.548 1.86973 -6.82036 0
M  V30 33469 H 247.556 0.403896 -7.13257 0
M  V30 33470 H 249.39 1.20585 -8.97435 0
M  V30 33471 H 249.461 2.71231 -5.45042 0
M  V30 33472 P 247.519 -1.17771 -8.83182 0
M  V30 33473 O 247.299 -2.07206 -9.98732 0
M  V30 33474 O 246.729 0.0743816 -8.81969 0
M  V30 33475 O 247.269 -1.97652 -7.47304 0
M  V30 33476 C 248.209 -3.01133 -7.08783 0
M  V30 33477 C 247.479 -4.12613 -6.37049 0
M  V30 33478 O 247.269 -3.72827 -4.97879 0
M  V30 33479 C 246.079 -4.45085 -6.88694 0
M  V30 33480 O 245.689 -5.7877 -6.5624 0
M  V30 33481 C 245.199 -3.47817 -6.12078 0
M  V30 33482 C 245.909 -3.39414 -4.77697 0
M  V30 33483 N 245.859 -2.04199 -4.15538 0
M  V30 33484 H 248.698 -3.41248 -7.98759 0
M  V30 33485 H 248.97 -2.57728 -6.42 0
M  V30 33486 H 248.102 -5.02657 -6.42673 0
M  V30 33487 H 245.447 -4.11708 -4.08956 0
M  V30 33488 H 245.167 -2.49626 -6.61679 0
M  V30 33489 H 244.176 -3.8662 -6.00862 0
M  V30 33490 H 246.01 -4.29991 -7.97006 0
M  V30 33491 P 244.139 -6.144 -6.45285 0
M  V30 33492 O 243.919 -7.54673 -6.86199 0
M  V30 33493 O 243.349 -5.12391 -7.179 0
M  V30 33494 O 243.889 -5.99158 -4.88404 0
M  V30 33495 C 244.829 -6.60234 -3.96415 0
M  V30 33496 C 244.099 -7.08259 -2.72856 0
M  V30 33497 O 243.889 -5.9427 -1.83651 0
M  V30 33498 C 242.699 -7.64886 -2.9555 0
M  V30 33499 O 242.309 -8.53963 -1.90717 0
M  V30 33500 C 241.819 -6.4116 -2.90739 0
M  V30 33501 C 242.529 -5.55375 -1.86963 0
M  V30 33502 N 242.479 -4.09664 -2.15742 0
M  V30 33503 H 245.318 -7.45574 -4.45629 0
M  V30 33504 H 245.59 -5.86232 -3.67314 0
M  V30 33505 H 244.722 -7.84412 -2.24479 0
M  V30 33506 P 240.759 -8.7635 -1.60911 0
M  V30 33507 O 240.539 -10.1388 -1.11561 0
M  V30 33508 O 239.969 -8.36503 -2.79617 0
M  V30 33509 O 240.509 -7.71806 -0.42951 0
M  V30 33510 C 241.449 -7.67148 0.673689 0
M  V30 33511 C 240.719 -7.33374 1.95559 0
M  V30 33512 O 240.509 -5.88721 2.00726 0
M  V30 33513 C 239.319 -7.92526 2.10483 0
M  V30 33514 O 238.929 -8.02971 3.47653 0
M  V30 33515 C 238.439 -6.89602 1.41652 0
M  V30 33516 C 239.149 -5.59201 1.75185 0
M  V30 33517 N 239.099 -4.58235 0.662552 0
M  V30 33518 H 241.938 -8.65116 0.777161 0
M  V30 33519 H 242.21 -6.90173 0.474152 0
M  V30 33520 H 241.342 -7.66548 2.79458 0
M  V30 33521 P 237.379 -8.03563 3.84925 0
M  V30 33522 O 237.159 -8.85821 5.0569 0
M  V30 33523 O 236.589 -8.41101 2.65469 0
M  V30 33524 O 237.129 -6.4965 4.18908 0
M  V30 33525 C 238.069 -5.81037 5.05421 0
M  V30 33526 C 237.339 -4.78366 5.89277 0
M  V30 33527 O 237.129 -3.58302 5.08433 0
M  V30 33528 C 235.939 -5.17448 6.36119 0
M  V30 33529 O 235.549 -4.45271 7.53232 0
M  V30 33530 C 235.059 -4.74639 5.19936 0
M  V30 33531 C 235.769 -3.49432 4.70418 0
M  V30 33532 N 235.719 -3.31776 3.22945 0
M  V30 33533 H 238.558 -6.54213 5.71376 0
M  V30 33534 H 238.83 -5.30492 4.44033 0
M  V30 33535 H 237.962 -4.55889 6.76652 0
M  V30 33536 P 233.999 -4.23843 7.83734 0
M  V30 33537 O 233.779 -4.19407 9.29784 0
M  V30 33538 O 233.209 -5.24426 7.09156 0
M  V30 33539 O 233.749 -2.7935 7.20758 0
M  V30 33540 C 234.689 -1.7299 7.50419 0
M  V30 33541 C 233.959 -0.406376 7.57911 0
M  V30 33542 O 233.749 0.0897726 6.21935 0
M  V30 33543 C 232.559 -0.447224 8.1878 0
M  V30 33544 O 232.169 0.825065 8.71101 0
M  V30 33545 C 231.679 -0.783801 6.99623 0
M  V30 33546 C 232.389 -0.0619192 5.85967 0
M  V30 33547 N 232.339 -0.790462 4.56202 0
M  V30 33548 H 235.178 -1.93423 8.4679 0
M  V30 33549 H 235.45 -1.68852 6.70877 0
M  V30 33550 H 234.582 0.289041 8.15388 0
M  V30 33551 H 231.927 0.927006 5.72848 0
M  V30 33552 H 231.647 -1.86973 6.82036 0
M  V30 33553 H 230.656 -0.403953 7.13357 0
M  V30 33554 H 232.49 -1.20599 8.97534 0
M  V30 33555 P 230.619 1.17771 8.83182 0
M  V30 33556 O 230.399 2.07206 9.98732 0
M  V30 33557 O 229.829 -0.0743816 8.81969 0
M  V30 33558 O 230.369 1.97652 7.47304 0
M  V30 33559 C 231.309 3.01055 7.08599 0
M  V30 33560 C 230.579 4.12613 6.37049 0
M  V30 33561 O 230.369 3.72827 4.97879 0
M  V30 33562 C 229.179 4.45719 6.88164 0
M  V30 33563 O 228.789 5.7877 6.5624 0
M  V30 33564 C 228.299 3.47768 6.11991 0
M  V30 33565 C 229.009 3.39356 4.77615 0
M  V30 33566 N 228.959 2.04571 4.15244 0
M  V30 33567 C 228.809 1.98587 2.78314 0
M  V30 33568 O 228.719 2.98134 2.08835 0
M  V30 33569 N 228.769 0.714467 2.24925 0
M  V30 33570 C 228.859 -0.470001 2.94169 0
M  V30 33571 O 228.809 -1.55587 2.35195 0
M  V30 33572 C 229.009 -0.312541 4.36783 0
M  V30 33573 C 229.119 -1.57711 5.16352 0
M  V30 33574 C 229.059 0.914512 4.92583 0
M  V30 33575 H 231.8 3.41169 7.98575 0
M  V30 33576 H 232.069 2.58295 6.41556 0
M  V30 33577 H 231.202 5.02657 6.42673 0
M  V30 33578 H 228.547 4.11637 4.08885 0
M  V30 33579 H 228.268 2.49626 6.61679 0
M  V30 33580 H 227.276 3.86566 6.00778 0
M  V30 33581 H 229.11 4.29943 7.96918 0
M  V30 33582 H 229.181 1.00937 6.00374 0
M  V30 33583 H 228.151 -1.80153 5.63503 0
M  V30 33584 H 229.888 -1.4566 5.94104 0
M  V30 33585 H 229.4 -2.40664 4.49645 0
M  V30 33586 H 228.664 0.647622 1.25697 0
M  V30 33587 P 227.239 6.144 6.45285 0
M  V30 33588 O 227.019 7.54673 6.86199 0
M  V30 33589 O 226.449 5.12391 7.179 0
M  V30 33590 O 226.989 5.99158 4.88404 0
M  V30 33591 C 227.929 6.60234 3.96415 0
M  V30 33592 C 227.199 7.08259 2.72856 0
M  V30 33593 O 226.989 5.9427 1.83651 0
M  V30 33594 C 225.799 7.64886 2.9555 0
M  V30 33595 O 225.409 8.53963 1.90717 0
M  V30 33596 C 224.919 6.4116 2.90739 0
M  V30 33597 C 225.629 5.55375 1.86963 0
M  V30 33598 N 225.579 4.09448 2.16152 0
M  V30 33599 H 228.418 7.45574 4.45629 0
M  V30 33600 H 228.69 5.85864 3.679 0
M  V30 33601 H 227.822 7.84412 2.24479 0
M  V30 33602 H 225.167 5.73457 0.888562 0
M  V30 33603 H 224.887 5.90877 3.88583 0
M  V30 33604 H 223.896 6.6596 2.58858 0
M  V30 33605 H 225.73 8.16339 3.92049 0
M  V30 33606 P 223.859 8.7635 1.60911 0
M  V30 33607 O 223.639 10.1388 1.11561 0
M  V30 33608 O 223.069 8.36503 2.79617 0
M  V30 33609 O 223.609 7.71806 0.42951 0
M  V30 33610 C 224.549 7.66948 -0.673514 0
M  V30 33611 C 223.819 7.33374 -1.95559 0
M  V30 33612 O 223.609 5.88721 -2.00726 0
M  V30 33613 C 222.419 7.92218 -2.1125 0
M  V30 33614 O 222.029 8.02971 -3.47653 0
M  V30 33615 C 221.539 6.89504 -1.41631 0
M  V30 33616 C 222.249 5.59106 -1.75155 0
M  V30 33617 N 222.199 4.58136 -0.662409 0
M  V30 33618 C 222.049 3.26059 -1.02863 0
M  V30 33619 O 221.959 2.90743 -2.19009 0
M  V30 33620 N 222.009 2.35995 0.0155585 0
M  V30 33621 C 222.099 2.65248 1.35603 0
M  V30 33622 C 222.249 4.05747 1.64698 0
M  V30 33623 C 222.299 4.96734 0.652411 0
M  V30 33624 H 225.04 8.64917 -0.776982 0
M  V30 33625 H 225.309 6.89974 -0.474015 0
M  V30 33626 H 224.442 7.66548 -2.79458 0
M  V30 33627 H 221.787 5.16076 -2.65138 0
M  V30 33628 H 221.508 7.06433 -0.329384 0
M  V30 33629 H 220.516 6.90829 -1.81996 0
M  V30 33630 H 222.35 8.90774 -1.62639 0
M  V30 33631 H 222.421 6.02181 0.895285 0
M  V30 33632 P 220.479 8.03563 -3.84925 0
M  V30 33633 O 220.259 8.85821 -5.0569 0
M  V30 33634 O 219.689 8.41101 -2.65469 0
M  V30 33635 O 220.229 6.4965 -4.18908 0
M  V30 33636 C 221.169 5.81037 -5.05421 0
M  V30 33637 C 220.439 4.78366 -5.89277 0
M  V30 33638 O 220.229 3.58302 -5.08433 0
M  V30 33639 C 219.039 5.17448 -6.36119 0
M  V30 33640 O 218.649 4.45271 -7.53232 0
M  V30 33641 C 218.159 4.74639 -5.19936 0
M  V30 33642 C 218.869 3.49432 -4.70418 0
M  V30 33643 N 218.819 3.31776 -3.22945 0
M  V30 33644 H 221.658 6.54213 -5.71376 0
M  V30 33645 H 221.93 5.30492 -4.44033 0
M  V30 33646 H 221.062 4.55889 -6.76652 0
M  V30 33647 P 217.099 4.23843 -7.83734 0
M  V30 33648 O 216.879 4.19407 -9.29784 0
M  V30 33649 O 216.309 5.24426 -7.09156 0
M  V30 33650 O 216.849 2.7935 -7.20758 0
M  V30 33651 C 217.789 1.7299 -7.50419 0
M  V30 33652 C 217.059 0.406376 -7.57911 0
M  V30 33653 O 216.849 -0.0897726 -6.21935 0
M  V30 33654 C 215.659 0.447224 -8.1878 0
M  V30 33655 O 215.269 -0.825065 -8.71101 0
M  V30 33656 C 214.779 0.783801 -6.99623 0
M  V30 33657 C 215.489 0.0619192 -5.85967 0
M  V30 33658 N 215.439 0.7859 -4.56281 0
M  V30 33659 H 218.278 1.93423 -8.4679 0
M  V30 33660 H 218.55 1.68181 -6.71046 0
M  V30 33661 H 217.682 -0.289041 -8.15388 0
M  V30 33662 P 213.719 -1.17771 -8.83182 0
M  V30 33663 O 213.499 -2.07206 -9.98732 0
M  V30 33664 O 212.929 0.0743816 -8.81969 0
M  V30 33665 O 213.469 -1.97652 -7.47304 0
M  V30 33666 C 214.409 -3.01055 -7.08599 0
M  V30 33667 C 213.679 -4.12613 -6.37049 0
M  V30 33668 O 213.469 -3.72827 -4.97879 0
M  V30 33669 C 212.279 -4.45719 -6.88164 0
M  V30 33670 O 211.889 -5.7877 -6.5624 0
M  V30 33671 C 211.399 -3.47768 -6.11991 0
M  V30 33672 C 212.109 -3.39356 -4.77615 0
M  V30 33673 N 212.059 -2.04571 -4.15244 0
M  V30 33674 C 211.909 -1.98587 -2.78314 0
M  V30 33675 O 211.819 -2.98134 -2.08835 0
M  V30 33676 N 211.869 -0.714467 -2.24925 0
M  V30 33677 C 211.959 0.470001 -2.94169 0
M  V30 33678 O 211.909 1.55587 -2.35195 0
M  V30 33679 C 212.109 0.312541 -4.36783 0
M  V30 33680 C 212.219 1.57711 -5.16352 0
M  V30 33681 C 212.159 -0.914512 -4.92583 0
M  V30 33682 H 214.9 -3.41169 -7.98575 0
M  V30 33683 H 215.169 -2.58295 -6.41556 0
M  V30 33684 H 214.302 -5.02657 -6.42673 0
M  V30 33685 H 211.647 -4.11637 -4.08885 0
M  V30 33686 H 211.368 -2.49626 -6.61679 0
M  V30 33687 H 210.376 -3.86566 -6.00778 0
M  V30 33688 H 212.21 -4.29943 -7.96918 0
M  V30 33689 H 212.281 -1.00937 -6.00374 0
M  V30 33690 H 211.251 1.80153 -5.63503 0
M  V30 33691 H 212.988 1.4566 -5.94104 0
M  V30 33692 H 212.5 2.40664 -4.49645 0
M  V30 33693 H 211.764 -0.647622 -1.25697 0
M  V30 33694 P 210.339 -6.144 -6.45285 0
M  V30 33695 O 210.119 -7.54673 -6.86199 0
M  V30 33696 O 209.549 -5.12391 -7.179 0
M  V30 33697 O 210.089 -5.99158 -4.88404 0
M  V30 33698 C 211.029 -6.60234 -3.96415 0
M  V30 33699 C 210.299 -7.08259 -2.72856 0
M  V30 33700 O 210.089 -5.9427 -1.83651 0
M  V30 33701 C 208.899 -7.64886 -2.9555 0
M  V30 33702 O 208.509 -8.53963 -1.90717 0
M  V30 33703 C 208.019 -6.4116 -2.90739 0
M  V30 33704 C 208.729 -5.55375 -1.86963 0
M  V30 33705 N 208.679 -4.09664 -2.15742 0
M  V30 33706 H 211.518 -7.45574 -4.45629 0
M  V30 33707 H 211.79 -5.86232 -3.67314 0
M  V30 33708 H 210.922 -7.84412 -2.24479 0
M  V30 33709 P 206.959 -8.7635 -1.60911 0
M  V30 33710 O 206.739 -10.1388 -1.11561 0
M  V30 33711 O 206.169 -8.36503 -2.79617 0
M  V30 33712 O 206.709 -7.71806 -0.42951 0
M  V30 33713 C 207.649 -7.67148 0.673689 0
M  V30 33714 C 206.919 -7.33374 1.95559 0
M  V30 33715 O 206.709 -5.88721 2.00726 0
M  V30 33716 C 205.519 -7.92526 2.10483 0
M  V30 33717 O 205.129 -8.02971 3.47653 0
M  V30 33718 C 204.639 -6.89602 1.41652 0
M  V30 33719 C 205.349 -5.59201 1.75185 0
M  V30 33720 N 205.299 -4.58235 0.662552 0
M  V30 33721 H 208.138 -8.65116 0.777161 0
M  V30 33722 H 208.41 -6.90173 0.474152 0
M  V30 33723 H 207.542 -7.66548 2.79458 0
M  V30 33724 P 203.579 -8.03563 3.84925 0
M  V30 33725 O 203.359 -8.85821 5.0569 0
M  V30 33726 O 202.789 -8.41101 2.65469 0
M  V30 33727 O 203.329 -6.4965 4.18908 0
M  V30 33728 C 204.269 -5.81037 5.05421 0
M  V30 33729 C 203.539 -4.78366 5.89277 0
M  V30 33730 O 203.329 -3.58302 5.08433 0
M  V30 33731 C 202.139 -5.17448 6.36119 0
M  V30 33732 O 201.749 -4.45271 7.53232 0
M  V30 33733 C 201.259 -4.74639 5.19936 0
M  V30 33734 C 201.969 -3.49432 4.70418 0
M  V30 33735 N 201.919 -3.32099 3.22613 0
M  V30 33736 H 204.758 -6.54213 5.71376 0
M  V30 33737 H 205.03 -5.30936 4.43503 0
M  V30 33738 H 204.162 -4.55889 6.76652 0
M  V30 33739 H 201.507 -2.61715 5.17932 0
M  V30 33740 H 201.227 -5.52155 4.41878 0
M  V30 33741 H 200.236 -4.51981 5.53374 0
M  V30 33742 H 202.07 -6.25124 6.55234 0
M  V30 33743 P 200.199 -4.23843 7.83734 0
M  V30 33744 O 199.979 -4.19407 9.29784 0
M  V30 33745 O 199.409 -5.24426 7.09156 0
M  V30 33746 O 199.949 -2.7935 7.20758 0
M  V30 33747 C 200.889 -1.72945 7.50224 0
M  V30 33748 C 200.159 -0.406376 7.57911 0
M  V30 33749 O 199.949 0.0897726 6.21935 0
M  V30 33750 C 198.759 -0.438983 8.18724 0
M  V30 33751 O 198.369 0.825065 8.71101 0
M  V30 33752 C 197.879 -0.783689 6.99524 0
M  V30 33753 C 198.589 -0.0619086 5.85867 0
M  V30 33754 N 198.539 -0.78573 4.56183 0
M  V30 33755 C 198.389 -0.0292889 3.41887 0
M  V30 33756 O 198.299 1.18445 3.4419 0
M  V30 33757 N 198.349 -0.744061 2.23964 0
M  V30 33758 C 198.439 -2.10932 2.10362 0
M  V30 33759 C 198.589 -2.8202 3.34994 0
M  V30 33760 C 198.639 -2.15547 4.52261 0
M  V30 33761 H 201.38 -1.93379 8.46595 0
M  V30 33762 H 201.649 -1.68132 6.70852 0
M  V30 33763 H 200.782 0.289041 8.15388 0
M  V30 33764 H 198.127 0.926847 5.72749 0
M  V30 33765 H 197.848 -1.86973 6.82036 0
M  V30 33766 H 196.856 -0.403896 7.13257 0
M  V30 33767 H 198.69 -1.20585 8.97435 0
M  V30 33768 H 198.761 -2.71231 5.45042 0
M  V30 33769 P 196.819 1.17771 8.83182 0
M  V30 33770 O 196.599 2.07206 9.98732 0
M  V30 33771 O 196.029 -0.0743816 8.81969 0
M  V30 33772 O 196.569 1.97652 7.47304 0
M  V30 33773 C 197.509 3.01133 7.08783 0
M  V30 33774 C 196.779 4.12613 6.37049 0
M  V30 33775 O 196.569 3.72827 4.97879 0
M  V30 33776 C 195.379 4.45085 6.88694 0
M  V30 33777 O 194.989 5.7877 6.5624 0
M  V30 33778 C 194.499 3.47817 6.12078 0
M  V30 33779 C 195.209 3.39414 4.77697 0
M  V30 33780 N 195.159 2.04199 4.15538 0
M  V30 33781 C 195.239 0.821545 4.76977 0
M  V30 33782 N 195.169 -0.1794 3.94592 0
M  V30 33783 C 195.019 0.419121 2.70776 0
M  V30 33784 C 194.889 -0.109072 1.40577 0
M  V30 33785 N 194.879 -1.4104 1.1344 0
M  V30 33786 N 194.769 0.764381 0.39411 0
M  V30 33787 C 194.779 2.06587 0.664135 0
M  V30 33788 N 194.899 2.67948 1.82153 0
M  V30 33789 C 195.019 1.77942 2.8147 0
M  V30 33790 H 197.998 3.41248 7.98759 0
M  V30 33791 H 198.27 2.57728 6.42 0
M  V30 33792 H 197.402 5.02657 6.42673 0
M  V30 33793 H 194.747 4.11708 4.08956 0
M  V30 33794 H 194.467 2.49626 6.61679 0
M  V30 33795 H 193.476 3.8662 6.00862 0
M  V30 33796 H 195.31 4.29991 7.97006 0
M  V30 33797 H 195.351 0.702451 5.84696 0
M  V30 33798 H 194.97 -2.09647 1.89651 0
M  V30 33799 H 194.781 -1.73358 0.160575 0
M  V30 33800 H 194.673 2.71695 -0.195838 0
M  V30 33801 P 193.439 6.144 6.45285 0
M  V30 33802 O 193.219 7.54673 6.86199 0
M  V30 33803 O 192.649 5.12391 7.179 0
M  V30 33804 O 193.189 5.99158 4.88404 0
M  V30 33805 C 194.129 6.60234 3.96415 0
M  V30 33806 C 193.399 7.08259 2.72856 0
M  V30 33807 O 193.189 5.9427 1.83651 0
M  V30 33808 C 191.999 7.64886 2.9555 0
M  V30 33809 O 191.609 8.53963 1.90717 0
M  V30 33810 C 191.119 6.4116 2.90739 0
M  V30 33811 C 191.829 5.55375 1.86963 0
M  V30 33812 N 191.779 4.09664 2.15742 0
M  V30 33813 C 191.859 3.44381 3.37233 0
M  V30 33814 N 191.779 2.14131 3.28347 0
M  V30 33815 C 191.639 1.90247 1.91588 0
M  V30 33816 C 191.509 0.683992 1.20892 0
M  V30 33817 O 191.489 -0.46618 1.64523 0
M  V30 33818 N 191.389 0.903396 -0.173998 0
M  V30 33819 C 191.389 2.14171 -0.784879 0
M  V30 33820 N 191.259 2.1435 -2.11317 0
M  V30 33821 N 191.519 3.28784 -0.119316 0
M  V30 33822 C 191.639 3.0977 1.22194 0
M  V30 33823 H 194.618 7.45574 4.45629 0
M  V30 33824 H 194.89 5.86232 3.67314 0
M  V30 33825 H 194.022 7.84412 2.24479 0
M  V30 33826 H 191.367 5.73556 0.888715 0
M  V30 33827 H 191.087 5.9096 3.88638 0
M  V30 33828 H 190.096 6.66053 2.58894 0
M  V30 33829 H 191.93 8.16429 3.92093 0
M  V30 33830 H 191.979 3.96785 4.32043 0
M  V30 33831 H 191.297 0.0999567 -0.761467 0
M  V30 33832 H 191.26 3.03436 -2.63076 0
M  V30 33833 H 191.159 1.25228 -2.62233 0
M  V30 33834 P 190.059 8.7635 1.60911 0
M  V30 33835 O 189.839 10.1388 1.11561 0
M  V30 33836 O 189.269 8.36503 2.79617 0
M  V30 33837 O 189.809 7.71806 0.42951 0
M  V30 33838 C 190.749 7.67148 -0.673689 0
M  V30 33839 C 190.019 7.33374 -1.95559 0
M  V30 33840 O 189.809 5.88721 -2.00726 0
M  V30 33841 C 188.619 7.92526 -2.10483 0
M  V30 33842 O 188.229 8.02971 -3.47653 0
M  V30 33843 C 187.739 6.89602 -1.41652 0
M  V30 33844 C 188.449 5.59201 -1.75185 0
M  V30 33845 N 188.399 4.58235 -0.662552 0
M  V30 33846 H 191.238 8.65116 -0.777161 0
M  V30 33847 H 191.51 6.90173 -0.474152 0
M  V30 33848 H 190.642 7.66548 -2.79458 0
M  V30 33849 P 186.679 8.03563 -3.84925 0
M  V30 33850 O 186.459 8.85821 -5.0569 0
M  V30 33851 O 185.889 8.41101 -2.65469 0
M  V30 33852 O 186.429 6.4965 -4.18908 0
M  V30 33853 C 187.369 5.81037 -5.05421 0
M  V30 33854 C 186.639 4.78366 -5.89277 0
M  V30 33855 O 186.429 3.58302 -5.08433 0
M  V30 33856 C 185.239 5.17448 -6.36119 0
M  V30 33857 O 184.849 4.45271 -7.53232 0
M  V30 33858 C 184.359 4.74639 -5.19936 0
M  V30 33859 C 185.069 3.49432 -4.70418 0
M  V30 33860 N 185.019 3.32099 -3.22613 0
M  V30 33861 H 187.858 6.54213 -5.71376 0
M  V30 33862 H 188.13 5.30936 -4.43503 0
M  V30 33863 H 187.262 4.55889 -6.76652 0
M  V30 33864 H 184.607 2.61715 -5.17932 0
M  V30 33865 H 184.327 5.52155 -4.41878 0
M  V30 33866 H 183.336 4.51981 -5.53374 0
M  V30 33867 H 185.17 6.25124 -6.55234 0
M  V30 33868 P 183.299 4.23843 -7.83734 0
M  V30 33869 O 183.079 4.19407 -9.29784 0
M  V30 33870 O 182.509 5.24426 -7.09156 0
M  V30 33871 O 183.049 2.79386 -7.20852 0
M  V30 33872 C 183.989 1.7299 -7.50419 0
M  V30 33873 C 183.259 0.41401 -7.5797 0
M  V30 33874 O 183.049 -0.089787 -6.22035 0
M  V30 33875 C 181.859 0.447224 -8.1878 0
M  V30 33876 O 181.469 -0.825159 -8.71201 0
M  V30 33877 C 180.979 0.783801 -6.99623 0
M  V30 33878 C 181.689 0.0619192 -5.85967 0
M  V30 33879 N 181.639 0.7859 -4.56281 0
M  V30 33880 C 181.489 0.0359258 -3.39981 0
M  V30 33881 O 181.399 -1.19723 -3.49038 0
M  V30 33882 N 181.439 0.869151 -2.14025 0
M  V30 33883 C 181.539 2.01207 -2.14363 0
M  V30 33884 N 181.489 2.58978 -0.954287 0
M  V30 33885 C 181.689 2.80817 -3.32215 0
M  V30 33886 C 181.739 2.13785 -4.50884 0
M  V30 33887 H 184.479 1.93401 -8.46693 0
M  V30 33888 H 184.749 1.68181 -6.71046 0
M  V30 33889 H 183.882 -0.289076 -8.15488 0
M  V30 33890 H 181.227 -0.927166 -5.72947 0
M  V30 33891 H 180.947 1.87 -6.82132 0
M  V30 33892 H 179.956 0.404009 -7.13457 0
M  V30 33893 H 181.79 1.20599 -8.97534 0
M  V30 33894 H 181.862 2.70295 -5.43162 0
M  V30 33895 H 181.76 3.89465 -3.27406 0
M  V30 33896 H 181.372 2.01616 -0.107046 0
M  V30 33897 H 181.568 3.61403 -0.873101 0
M  V30 33898 P 179.919 -1.17771 -8.83182 0
M  V30 33899 O 179.699 -2.07206 -9.98732 0
M  V30 33900 O 179.129 0.0743816 -8.81969 0
M  V30 33901 O 179.669 -1.97652 -7.47304 0
M  V30 33902 C 180.609 -3.01133 -7.08783 0
M  V30 33903 C 179.879 -4.12613 -6.37049 0
M  V30 33904 O 179.669 -3.72827 -4.97879 0
M  V30 33905 C 178.479 -4.45085 -6.88694 0
M  V30 33906 O 178.089 -5.7877 -6.5624 0
M  V30 33907 C 177.599 -3.47817 -6.12078 0
M  V30 33908 C 178.309 -3.39414 -4.77697 0
M  V30 33909 N 178.259 -2.04615 -4.15333 0
M  V30 33910 C 178.339 -0.803897 -4.75249 0
M  V30 33911 N 178.259 0.197615 -3.91502 0
M  V30 33912 C 178.119 -0.413002 -2.66823 0
M  V30 33913 C 177.989 0.157221 -1.38007 0
M  V30 33914 N 177.869 -0.833136 -0.390236 0
M  V30 33915 C 177.869 -2.19402 -0.623885 0
M  V30 33916 N 177.739 -2.97622 0.449677 0
M  V30 33917 N 177.999 -2.73005 -1.83601 0
M  V30 33918 C 178.119 -1.78786 -2.80935 0
M  V30 33919 H 181.098 -3.41248 -7.98759 0
M  V30 33920 H 181.37 -2.5837 -6.41742 0
M  V30 33921 H 180.502 -5.02657 -6.42673 0
M  V30 33922 P 176.539 -6.144 -6.45285 0
M  V30 33923 O 176.319 -7.54673 -6.86199 0
M  V30 33924 O 175.749 -5.12391 -7.179 0
M  V30 33925 O 176.289 -5.99158 -4.88404 0
M  V30 33926 C 177.229 -6.60234 -3.96415 0
M  V30 33927 C 176.499 -7.08259 -2.72856 0
M  V30 33928 O 176.289 -5.9427 -1.83651 0
M  V30 33929 C 175.099 -7.64886 -2.9555 0
M  V30 33930 O 174.709 -8.53963 -1.90717 0
M  V30 33931 C 174.219 -6.4116 -2.90739 0
M  V30 33932 C 174.929 -5.55375 -1.86963 0
M  V30 33933 N 174.879 -4.09664 -2.15742 0
M  V30 33934 H 177.718 -7.45574 -4.45629 0
M  V30 33935 H 177.99 -5.86232 -3.67314 0
M  V30 33936 H 177.122 -7.84412 -2.24479 0
M  V30 33937 P 173.159 -8.7635 -1.60911 0
M  V30 33938 O 172.939 -10.1388 -1.11561 0
M  V30 33939 O 172.369 -8.36503 -2.79617 0
M  V30 33940 O 172.909 -7.71806 -0.42951 0
M  V30 33941 C 173.849 -7.67148 0.673689 0
M  V30 33942 C 173.119 -7.33374 1.95559 0
M  V30 33943 O 172.909 -5.88721 2.00726 0
M  V30 33944 C 171.719 -7.92526 2.10483 0
M  V30 33945 O 171.329 -8.02971 3.47653 0
M  V30 33946 C 170.839 -6.89602 1.41652 0
M  V30 33947 C 171.549 -5.59201 1.75185 0
M  V30 33948 N 171.499 -4.58301 0.657969 0
M  V30 33949 H 174.338 -8.65116 0.777161 0
M  V30 33950 H 174.61 -6.9022 0.46725 0
M  V30 33951 H 173.742 -7.66548 2.79458 0
M  V30 33952 H 171.087 -5.16165 2.65183 0
M  V30 33953 H 170.807 -7.06433 0.329384 0
M  V30 33954 H 169.816 -6.90926 1.82021 0
M  V30 33955 H 171.65 -8.90873 1.62657 0
M  V30 33956 P 169.779 -8.03563 3.84925 0
M  V30 33957 O 169.559 -8.85821 5.0569 0
M  V30 33958 O 168.989 -8.41101 2.65469 0
M  V30 33959 O 169.529 -6.4965 4.18908 0
M  V30 33960 C 170.469 -5.81037 5.05421 0
M  V30 33961 C 169.739 -4.78366 5.89277 0
M  V30 33962 O 169.529 -3.58302 5.08433 0
M  V30 33963 C 168.339 -5.17448 6.36119 0
M  V30 33964 O 167.949 -4.45271 7.53232 0
M  V30 33965 C 167.459 -4.74639 5.19936 0
M  V30 33966 C 168.169 -3.49432 4.70418 0
M  V30 33967 N 168.119 -3.31776 3.22945 0
M  V30 33968 H 170.958 -6.54213 5.71376 0
M  V30 33969 H 171.23 -5.30492 4.44033 0
M  V30 33970 H 170.362 -4.55889 6.76652 0
M  V30 33971 P 166.399 -4.23843 7.83734 0
M  V30 33972 O 166.179 -4.19407 9.29784 0
M  V30 33973 O 165.609 -5.24426 7.09156 0
M  V30 33974 O 166.149 -2.7935 7.20758 0
M  V30 33975 C 167.089 -1.7299 7.50419 0
M  V30 33976 C 166.359 -0.406376 7.57911 0
M  V30 33977 O 166.149 0.0897726 6.21935 0
M  V30 33978 C 164.959 -0.447224 8.1878 0
M  V30 33979 O 164.569 0.825065 8.71101 0
M  V30 33980 C 164.079 -0.783801 6.99623 0
M  V30 33981 C 164.789 -0.0619192 5.85967 0
M  V30 33982 N 164.739 -0.7859 4.56281 0
M  V30 33983 C 164.819 -2.14308 4.31736 0
M  V30 33984 N 164.739 -2.46106 3.05116 0
M  V30 33985 C 164.599 -1.23422 2.4014 0
M  V30 33986 C 164.469 -0.938381 1.02409 0
M  V30 33987 N 164.349 0.444647 0.805413 0
M  V30 33988 C 164.349 1.40829 1.79435 0
M  V30 33989 N 164.219 2.67213 1.38558 0
M  V30 33990 N 164.479 1.12947 3.09005 0
M  V30 33991 C 164.599 -0.204887 3.32369 0
M  V30 33992 H 167.578 -1.93423 8.4679 0
M  V30 33993 H 167.85 -1.68181 6.71046 0
M  V30 33994 H 166.982 0.289041 8.15388 0
M  V30 33995 P 163.019 1.17771 8.83182 0
M  V30 33996 O 162.799 2.07206 9.98732 0
M  V30 33997 O 162.229 -0.0743816 8.81969 0
M  V30 33998 O 162.769 1.97652 7.47304 0
M  V30 33999 C 163.709 3.01133 7.08783 0
M  V30 34000 C 162.979 4.12613 6.37049 0
M  V30 34001 O 162.769 3.72827 4.97879 0
M  V30 34002 C 161.579 4.45085 6.88694 0
M  V30 34003 O 161.189 5.7877 6.5624 0
M  V30 34004 C 160.699 3.47817 6.12078 0
M  V30 34005 C 161.409 3.39414 4.77697 0
M  V30 34006 N 161.359 2.04199 4.15538 0
M  V30 34007 H 164.198 3.41248 7.98759 0
M  V30 34008 H 164.47 2.57728 6.42 0
M  V30 34009 H 163.602 5.02657 6.42673 0
M  V30 34010 H 160.947 4.11708 4.08956 0
M  V30 34011 H 160.667 2.49626 6.61679 0
M  V30 34012 H 159.676 3.8662 6.00862 0
M  V30 34013 H 161.51 4.29991 7.97006 0
M  V30 34014 P 159.639 6.144 6.45285 0
M  V30 34015 O 159.419 7.54673 6.86199 0
M  V30 34016 O 158.849 5.12391 7.179 0
M  V30 34017 O 159.389 5.99158 4.88404 0
M  V30 34018 C 160.329 6.60234 3.96415 0
M  V30 34019 C 159.599 7.08259 2.72856 0
M  V30 34020 O 159.389 5.9427 1.83651 0
M  V30 34021 C 158.199 7.64886 2.9555 0
M  V30 34022 O 157.809 8.53963 1.90717 0
M  V30 34023 C 157.319 6.4116 2.90739 0
M  V30 34024 C 158.029 5.55375 1.86963 0
M  V30 34025 N 157.979 4.09448 2.16152 0
M  V30 34026 C 158.059 3.46824 3.37593 0
M  V30 34027 N 157.989 2.17422 3.29777 0
M  V30 34028 C 157.839 1.93065 1.94427 0
M  V30 34029 C 157.709 0.738053 1.20141 0
M  V30 34030 N 157.699 -0.474256 1.74676 0
M  V30 34031 N 157.589 0.850049 -0.13045 0
M  V30 34032 C 157.599 2.06169 -0.676992 0
M  V30 34033 N 157.719 3.23842 -0.101312 0
M  V30 34034 C 157.839 3.09402 1.23122 0
M  V30 34035 H 160.818 7.45574 4.45629 0
M  V30 34036 H 161.09 5.85864 3.679 0
M  V30 34037 H 160.222 7.84412 2.24479 0
M  V30 34038 H 157.567 5.73457 0.888562 0
M  V30 34039 H 157.287 5.90877 3.88583 0
M  V30 34040 H 156.296 6.6596 2.58858 0
M  V30 34041 H 158.13 8.16339 3.92049 0
M  V30 34042 H 158.171 4.00505 4.3174 0
M  V30 34043 H 157.79 -0.581337 2.76658 0
M  V30 34044 H 157.601 -1.30811 1.14888 0
M  V30 34045 H 157.493 2.08295 -1.75542 0
M  V30 34046 P 156.259 8.7635 1.60911 0
M  V30 34047 O 156.039 10.1388 1.11561 0
M  V30 34048 O 155.469 8.36503 2.79617 0
M  V30 34049 O 156.009 7.71806 0.42951 0
M  V30 34050 C 156.949 7.66948 -0.673514 0
M  V30 34051 C 156.219 7.33374 -1.95559 0
M  V30 34052 O 156.009 5.88721 -2.00726 0
M  V30 34053 C 154.819 7.92218 -2.1125 0
M  V30 34054 O 154.429 8.02971 -3.47653 0
M  V30 34055 C 153.939 6.89504 -1.41631 0
M  V30 34056 C 154.649 5.59106 -1.75155 0
M  V30 34057 N 154.599 4.58136 -0.662409 0
M  V30 34058 C 154.449 3.26059 -1.02863 0
M  V30 34059 O 154.359 2.90743 -2.19009 0
M  V30 34060 N 154.409 2.35995 0.0155585 0
M  V30 34061 C 154.499 2.65248 1.35603 0
M  V30 34062 O 154.449 1.75605 2.20651 0
M  V30 34063 C 154.649 4.05747 1.64698 0
M  V30 34064 C 154.759 4.42345 3.09553 0
M  V30 34065 C 154.699 4.96734 0.652411 0
M  V30 34066 H 157.44 8.64917 -0.776982 0
M  V30 34067 H 157.709 6.89974 -0.474015 0
M  V30 34068 H 156.842 7.66548 -2.79458 0
M  V30 34069 H 154.187 5.16076 -2.65138 0
M  V30 34070 H 153.908 7.06433 -0.329384 0
M  V30 34071 H 152.916 6.90829 -1.81996 0
M  V30 34072 H 154.75 8.90774 -1.62639 0
M  V30 34073 H 154.821 6.02181 0.895285 0
M  V30 34074 H 153.791 4.80252 3.45468 0
M  V30 34075 H 155.528 5.20015 3.22119 0
M  V30 34076 H 155.04 3.53269 3.67833 0
M  V30 34077 H 154.304 1.39558 -0.227499 0
M  V30 34078 P 152.879 8.03563 -3.84925 0
M  V30 34079 O 152.659 8.85821 -5.0569 0
M  V30 34080 O 152.089 8.41101 -2.65469 0
M  V30 34081 O 152.629 6.4965 -4.18908 0
M  V30 34082 C 153.569 5.81037 -5.05421 0
M  V30 34083 C 152.839 4.78366 -5.89277 0
M  V30 34084 O 152.629 3.58302 -5.08433 0
M  V30 34085 C 151.439 5.17448 -6.36119 0
M  V30 34086 O 151.049 4.45271 -7.53232 0
M  V30 34087 C 150.559 4.74639 -5.19936 0
M  V30 34088 C 151.269 3.49432 -4.70418 0
M  V30 34089 N 151.219 3.31776 -3.22945 0
M  V30 34090 H 154.058 6.54213 -5.71376 0
M  V30 34091 H 154.33 5.30492 -4.44033 0
M  V30 34092 H 153.462 4.55889 -6.76652 0
M  V30 34093 P 149.499 4.23843 -7.83734 0
M  V30 34094 O 149.279 4.19407 -9.29784 0
M  V30 34095 O 148.709 5.24426 -7.09156 0
M  V30 34096 O 149.249 2.7935 -7.20758 0
M  V30 34097 C 150.189 1.7299 -7.50419 0
M  V30 34098 C 149.459 0.406376 -7.57911 0
M  V30 34099 O 149.249 -0.0897726 -6.21935 0
M  V30 34100 C 148.059 0.447224 -8.1878 0
M  V30 34101 O 147.669 -0.825065 -8.71101 0
M  V30 34102 C 147.179 0.783801 -6.99623 0
M  V30 34103 C 147.889 0.0619192 -5.85967 0
M  V30 34104 N 147.839 0.790462 -4.56202 0
M  V30 34105 H 150.678 1.93423 -8.4679 0
M  V30 34106 H 150.95 1.68852 -6.70877 0
M  V30 34107 H 150.082 -0.289041 -8.15388 0
M  V30 34108 H 147.427 -0.927006 -5.72848 0
M  V30 34109 H 147.147 1.86973 -6.82036 0
M  V30 34110 H 146.156 0.403953 -7.13357 0
M  V30 34111 H 147.99 1.20599 -8.97534 0
M  V30 34112 P 146.119 -1.17771 -8.83182 0
M  V30 34113 O 145.899 -2.07206 -9.98732 0
M  V30 34114 O 145.329 0.0743816 -8.81969 0
M  V30 34115 O 145.869 -1.97652 -7.47304 0
M  V30 34116 C 146.809 -3.01133 -7.08783 0
M  V30 34117 C 146.079 -4.12613 -6.37049 0
M  V30 34118 O 145.869 -3.72827 -4.97879 0
M  V30 34119 C 144.679 -4.45085 -6.88694 0
M  V30 34120 O 144.289 -5.7877 -6.5624 0
M  V30 34121 C 143.799 -3.47817 -6.12078 0
M  V30 34122 C 144.509 -3.39414 -4.77697 0
M  V30 34123 N 144.459 -2.04615 -4.15333 0
M  V30 34124 H 147.298 -3.41248 -7.98759 0
M  V30 34125 H 147.57 -2.5837 -6.41742 0
M  V30 34126 H 146.702 -5.02657 -6.42673 0
M  V30 34127 P 142.739 -6.144 -6.45285 0
M  V30 34128 O 142.519 -7.54673 -6.86199 0
M  V30 34129 O 141.949 -5.12391 -7.179 0
M  V30 34130 O 142.489 -5.99158 -4.88404 0
M  V30 34131 C 143.429 -6.60234 -3.96415 0
M  V30 34132 C 142.699 -7.08259 -2.72856 0
M  V30 34133 O 142.489 -5.9427 -1.83651 0
M  V30 34134 C 141.299 -7.64886 -2.9555 0
M  V30 34135 O 140.909 -8.53963 -1.90717 0
M  V30 34136 C 140.419 -6.4116 -2.90739 0
M  V30 34137 C 141.129 -5.55375 -1.86963 0
M  V30 34138 N 141.079 -4.09664 -2.15742 0
M  V30 34139 H 143.918 -7.45574 -4.45629 0
M  V30 34140 H 144.19 -5.86232 -3.67314 0
M  V30 34141 H 143.322 -7.84412 -2.24479 0
M  V30 34142 P 139.359 -8.7635 -1.60911 0
M  V30 34143 O 139.139 -10.1388 -1.11561 0
M  V30 34144 O 138.569 -8.36503 -2.79617 0
M  V30 34145 O 139.109 -7.71806 -0.42951 0
M  V30 34146 C 140.049 -7.67148 0.673689 0
M  V30 34147 C 139.319 -7.33374 1.95559 0
M  V30 34148 O 139.109 -5.88721 2.00726 0
M  V30 34149 C 137.919 -7.92526 2.10483 0
M  V30 34150 O 137.529 -8.02971 3.47653 0
M  V30 34151 C 137.039 -6.89602 1.41652 0
M  V30 34152 C 137.749 -5.59201 1.75185 0
M  V30 34153 N 137.699 -4.58235 0.662552 0
M  V30 34154 C 137.779 -4.7683 -0.704049 0
M  V30 34155 N 137.699 -3.66233 -1.39775 0
M  V30 34156 C 137.559 -2.66526 -0.431739 0
M  V30 34157 C 137.429 -1.26394 -0.575992 0
M  V30 34158 O 137.409 -0.589894 -1.60503 0
M  V30 34159 N 137.309 -0.62859 0.67177 0
M  V30 34160 C 137.309 -1.27134 1.89385 0
M  V30 34161 N 137.179 -0.492035 2.96951 0
M  V30 34162 N 137.439 -2.58978 2.02907 0
M  V30 34163 C 137.559 -3.22433 0.832218 0
M  V30 34164 H 140.538 -8.65116 0.777161 0
M  V30 34165 H 140.81 -6.90173 0.474152 0
M  V30 34166 H 139.942 -7.66548 2.79458 0
M  V30 34167 H 137.287 -5.16254 2.65229 0
M  V30 34168 H 137.007 -7.06532 0.329431 0
M  V30 34169 H 136.016 -6.91023 1.82047 0
M  V30 34170 H 137.85 -8.90971 1.62675 0
M  V30 34171 H 137.899 -5.74954 -1.16305 0
M  V30 34172 H 137.217 0.366713 0.674793 0
M  V30 34173 H 137.18 -0.908532 3.91188 0
M  V30 34174 H 137.079 0.528253 2.85758 0
M  V30 34175 P 135.979 -8.03563 3.84925 0
M  V30 34176 O 135.759 -8.85821 5.0569 0
M  V30 34177 O 135.189 -8.41101 2.65469 0
M  V30 34178 O 135.729 -6.4965 4.18908 0
M  V30 34179 C 136.669 -5.81037 5.05421 0
M  V30 34180 C 135.939 -4.78366 5.89277 0
M  V30 34181 O 135.729 -3.58302 5.08433 0
M  V30 34182 C 134.539 -5.17448 6.36119 0
M  V30 34183 O 134.149 -4.45271 7.53232 0
M  V30 34184 C 133.659 -4.74639 5.19936 0
M  V30 34185 C 134.369 -3.49432 4.70418 0
M  V30 34186 N 134.319 -3.31776 3.22945 0
M  V30 34187 H 137.158 -6.54213 5.71376 0
M  V30 34188 H 137.43 -5.30492 4.44033 0
M  V30 34189 H 136.562 -4.55889 6.76652 0
M  V30 34190 P 132.599 -4.23843 7.83734 0
M  V30 34191 O 132.379 -4.19407 9.29784 0
M  V30 34192 O 131.809 -5.24426 7.09156 0
M  V30 34193 O 132.349 -2.7935 7.20758 0
M  V30 34194 C 133.289 -1.72945 7.50224 0
M  V30 34195 C 132.559 -0.406376 7.57911 0
M  V30 34196 O 132.349 0.0897726 6.21935 0
M  V30 34197 C 131.159 -0.438983 8.18724 0
M  V30 34198 O 130.769 0.825065 8.71101 0
M  V30 34199 C 130.279 -0.783689 6.99524 0
M  V30 34200 C 130.989 -0.0619086 5.85867 0
M  V30 34201 N 130.939 -0.78573 4.56183 0
M  V30 34202 C 130.789 -0.0292889 3.41887 0
M  V30 34203 O 130.699 1.18445 3.4419 0
M  V30 34204 N 130.749 -0.744061 2.23964 0
M  V30 34205 C 130.839 -2.10932 2.10362 0
M  V30 34206 O 130.789 -2.64117 0.98825 0
M  V30 34207 C 130.989 -2.8202 3.34994 0
M  V30 34208 C 131.099 -4.31095 3.25037 0
M  V30 34209 C 131.039 -2.15547 4.52261 0
M  V30 34210 H 133.78 -1.93379 8.46595 0
M  V30 34211 H 134.049 -1.68132 6.70852 0
M  V30 34212 H 133.182 0.289041 8.15388 0
M  V30 34213 H 130.527 0.926847 5.72749 0
M  V30 34214 H 130.248 -1.86973 6.82036 0
M  V30 34215 H 129.256 -0.403896 7.13257 0
M  V30 34216 H 131.09 -1.20585 8.97435 0
M  V30 34217 H 131.161 -2.71231 5.45042 0
M  V30 34218 H 130.131 -4.76966 3.49992 0
M  V30 34219 H 131.868 -4.67047 3.95024 0
M  V30 34220 H 131.38 -4.58996 2.22312 0
M  V30 34221 H 130.644 -0.214893 1.39758 0
M  V30 34222 P 129.219 1.17771 8.83182 0
M  V30 34223 O 128.999 2.07206 9.98732 0
M  V30 34224 O 128.429 -0.0743816 8.81969 0
M  V30 34225 O 128.969 1.97652 7.47304 0
M  V30 34226 C 129.909 3.01133 7.08783 0
M  V30 34227 C 129.179 4.12613 6.37049 0
M  V30 34228 O 128.969 3.72827 4.97879 0
M  V30 34229 C 127.779 4.45085 6.88694 0
M  V30 34230 O 127.389 5.7877 6.5624 0
M  V30 34231 C 126.899 3.47817 6.12078 0
M  V30 34232 C 127.609 3.39414 4.77697 0
M  V30 34233 N 127.559 2.04615 4.15333 0
M  V30 34234 H 130.398 3.41248 7.98759 0
M  V30 34235 H 130.67 2.5837 6.41742 0
M  V30 34236 H 129.802 5.02657 6.42673 0
M  V30 34237 P 125.839 6.144 6.45285 0
M  V30 34238 O 125.619 7.54673 6.86199 0
M  V30 34239 O 125.049 5.12391 7.179 0
M  V30 34240 O 125.589 5.99158 4.88404 0
M  V30 34241 C 126.529 6.60234 3.96415 0
M  V30 34242 C 125.799 7.08259 2.72856 0
M  V30 34243 O 125.589 5.9427 1.83651 0
M  V30 34244 C 124.399 7.64886 2.9555 0
M  V30 34245 O 124.009 8.53963 1.90717 0
M  V30 34246 C 123.519 6.4116 2.90739 0
M  V30 34247 C 124.229 5.55375 1.86963 0
M  V30 34248 N 124.179 4.09664 2.15742 0
M  V30 34249 H 127.018 7.45574 4.45629 0
M  V30 34250 H 127.29 5.86232 3.67314 0
M  V30 34251 H 126.422 7.84412 2.24479 0
M  V30 34252 P 122.459 8.7635 1.60911 0
M  V30 34253 O 122.239 10.1388 1.11561 0
M  V30 34254 O 121.669 8.36503 2.79617 0
M  V30 34255 O 122.209 7.71806 0.42951 0
M  V30 34256 C 123.149 7.67148 -0.673689 0
M  V30 34257 C 122.419 7.33374 -1.95559 0
M  V30 34258 O 122.209 5.88721 -2.00726 0
M  V30 34259 C 121.019 7.92526 -2.10483 0
M  V30 34260 O 120.629 8.02971 -3.47653 0
M  V30 34261 C 120.139 6.89602 -1.41652 0
M  V30 34262 C 120.849 5.59201 -1.75185 0
M  V30 34263 N 120.799 4.58301 -0.657969 0
M  V30 34264 H 123.638 8.65116 -0.777161 0
M  V30 34265 H 123.91 6.9022 -0.46725 0
M  V30 34266 H 123.042 7.66548 -2.79458 0
M  V30 34267 H 120.387 5.16165 -2.65183 0
M  V30 34268 H 120.107 7.06433 -0.329384 0
M  V30 34269 H 119.116 6.90926 -1.82021 0
M  V30 34270 H 120.95 8.90873 -1.62657 0
M  V30 34271 P 119.079 8.03563 -3.84925 0
M  V30 34272 O 118.859 8.85821 -5.0569 0
M  V30 34273 O 118.289 8.41101 -2.65469 0
M  V30 34274 O 118.829 6.4965 -4.18908 0
M  V30 34275 C 119.769 5.81037 -5.05421 0
M  V30 34276 C 119.039 4.78366 -5.89277 0
M  V30 34277 O 118.829 3.58302 -5.08433 0
M  V30 34278 C 117.639 5.17448 -6.36119 0
M  V30 34279 O 117.249 4.45271 -7.53232 0
M  V30 34280 C 116.759 4.74639 -5.19936 0
M  V30 34281 C 117.469 3.49432 -4.70418 0
M  V30 34282 N 117.419 3.31776 -3.22945 0
M  V30 34283 H 120.258 6.54213 -5.71376 0
M  V30 34284 H 120.53 5.30492 -4.44033 0
M  V30 34285 H 119.662 4.55889 -6.76652 0
M  V30 34286 P 115.699 4.23843 -7.83734 0
M  V30 34287 O 115.479 4.19407 -9.29784 0
M  V30 34288 O 114.909 5.24426 -7.09156 0
M  V30 34289 O 115.449 2.7935 -7.20758 0
M  V30 34290 C 116.389 1.7299 -7.50419 0
M  V30 34291 C 115.659 0.406376 -7.57911 0
M  V30 34292 O 115.449 -0.0897726 -6.21935 0
M  V30 34293 C 114.259 0.447224 -8.1878 0
M  V30 34294 O 113.869 -0.825065 -8.71101 0
M  V30 34295 C 113.379 0.783801 -6.99623 0
M  V30 34296 C 114.089 0.0619192 -5.85967 0
M  V30 34297 N 114.039 0.790462 -4.56202 0
M  V30 34298 H 116.878 1.93423 -8.4679 0
M  V30 34299 H 117.15 1.68852 -6.70877 0
M  V30 34300 H 116.282 -0.289041 -8.15388 0
M  V30 34301 H 113.627 -0.927006 -5.72848 0
M  V30 34302 H 113.347 1.86973 -6.82036 0
M  V30 34303 H 112.356 0.403953 -7.13357 0
M  V30 34304 H 114.19 1.20599 -8.97534 0
M  V30 34305 P 112.319 -1.17771 -8.83182 0
M  V30 34306 O 112.099 -2.07206 -9.98732 0
M  V30 34307 O 111.529 0.0743816 -8.81969 0
M  V30 34308 O 112.069 -1.97652 -7.47304 0
M  V30 34309 C 113.009 -3.01133 -7.08783 0
M  V30 34310 C 112.279 -4.12613 -6.37049 0
M  V30 34311 O 112.069 -3.72827 -4.97879 0
M  V30 34312 C 110.879 -4.45085 -6.88694 0
M  V30 34313 O 110.489 -5.7877 -6.5624 0
M  V30 34314 C 109.999 -3.47817 -6.12078 0
M  V30 34315 C 110.709 -3.39414 -4.77697 0
M  V30 34316 N 110.659 -2.04615 -4.15333 0
M  V30 34317 C 110.739 -0.803897 -4.75249 0
M  V30 34318 N 110.659 0.197615 -3.91502 0
M  V30 34319 C 110.519 -0.413002 -2.66823 0
M  V30 34320 C 110.389 0.157221 -1.38007 0
M  V30 34321 N 110.269 -0.833136 -0.390236 0
M  V30 34322 C 110.269 -2.19402 -0.623885 0
M  V30 34323 N 110.139 -2.97622 0.449677 0
M  V30 34324 N 110.399 -2.73005 -1.83601 0
M  V30 34325 C 110.519 -1.78786 -2.80935 0
M  V30 34326 H 113.498 -3.41248 -7.98759 0
M  V30 34327 H 113.77 -2.5837 -6.41742 0
M  V30 34328 H 112.902 -5.02657 -6.42673 0
M  V30 34329 P 108.939 -6.144 -6.45285 0
M  V30 34330 O 108.719 -7.54673 -6.86199 0
M  V30 34331 O 108.149 -5.12391 -7.179 0
M  V30 34332 O 108.689 -5.99158 -4.88404 0
M  V30 34333 C 109.629 -6.60234 -3.96415 0
M  V30 34334 C 108.899 -7.08259 -2.72856 0
M  V30 34335 O 108.689 -5.9427 -1.83651 0
M  V30 34336 C 107.499 -7.64886 -2.9555 0
M  V30 34337 O 107.109 -8.53963 -1.90717 0
M  V30 34338 C 106.619 -6.4116 -2.90739 0
M  V30 34339 C 107.329 -5.55375 -1.86963 0
M  V30 34340 N 107.279 -4.09664 -2.15742 0
M  V30 34341 H 110.118 -7.45574 -4.45629 0
M  V30 34342 H 110.39 -5.86232 -3.67314 0
M  V30 34343 H 109.522 -7.84412 -2.24479 0
M  V30 34344 P 105.559 -8.7635 -1.60911 0
M  V30 34345 O 105.339 -10.1388 -1.11561 0
M  V30 34346 O 104.769 -8.36503 -2.79617 0
M  V30 34347 O 105.309 -7.71806 -0.42951 0
M  V30 34348 C 106.249 -7.67148 0.673689 0
M  V30 34349 C 105.519 -7.33374 1.95559 0
M  V30 34350 O 105.309 -5.88721 2.00726 0
M  V30 34351 C 104.119 -7.92526 2.10483 0
M  V30 34352 O 103.729 -8.02971 3.47653 0
M  V30 34353 C 103.239 -6.89602 1.41652 0
M  V30 34354 C 103.949 -5.59201 1.75185 0
M  V30 34355 N 103.899 -4.58235 0.662552 0
M  V30 34356 H 106.738 -8.65116 0.777161 0
M  V30 34357 H 107.01 -6.90173 0.474152 0
M  V30 34358 H 106.142 -7.66548 2.79458 0
M  V30 34359 P 102.179 -8.03563 3.84925 0
M  V30 34360 O 101.959 -8.85821 5.0569 0
M  V30 34361 O 101.389 -8.41101 2.65469 0
M  V30 34362 O 101.929 -6.4965 4.18908 0
M  V30 34363 C 102.869 -5.81037 5.05421 0
M  V30 34364 C 102.139 -4.78366 5.89277 0
M  V30 34365 O 101.929 -3.58302 5.08433 0
M  V30 34366 C 100.739 -5.17448 6.36119 0
M  V30 34367 O 100.349 -4.45271 7.53232 0
M  V30 34368 C 99.8594 -4.74639 5.19936 0
M  V30 34369 C 100.569 -3.49432 4.70418 0
M  V30 34370 N 100.519 -3.31776 3.22945 0
M  V30 34371 H 103.358 -6.54213 5.71376 0
M  V30 34372 H 103.63 -5.30492 4.44033 0
M  V30 34373 H 102.762 -4.55889 6.76652 0
M  V30 34374 P 98.7994 -4.23843 7.83734 0
M  V30 34375 O 98.5794 -4.19407 9.29784 0
M  V30 34376 O 98.0094 -5.24426 7.09156 0
M  V30 34377 O 98.5494 -2.7935 7.20758 0
M  V30 34378 C 99.4894 -1.72945 7.50224 0
M  V30 34379 C 98.7594 -0.406376 7.57911 0
M  V30 34380 O 98.5494 0.0897726 6.21935 0
M  V30 34381 C 97.3594 -0.438983 8.18724 0
M  V30 34382 O 96.9694 0.825065 8.71101 0
M  V30 34383 C 96.4794 -0.783689 6.99524 0
M  V30 34384 C 97.1894 -0.0619086 5.85867 0
M  V30 34385 N 97.1394 -0.78573 4.56183 0
M  V30 34386 C 96.9894 -0.0292889 3.41887 0
M  V30 34387 O 96.8994 1.18445 3.4419 0
M  V30 34388 N 96.9494 -0.744061 2.23964 0
M  V30 34389 C 97.0394 -2.10932 2.10362 0
M  V30 34390 C 97.1894 -2.8202 3.34994 0
M  V30 34391 C 97.2394 -2.15547 4.52261 0
M  V30 34392 H 99.9804 -1.93379 8.46595 0
M  V30 34393 H 100.249 -1.68132 6.70852 0
M  V30 34394 H 99.3824 0.289041 8.15388 0
M  V30 34395 H 96.7274 0.926847 5.72749 0
M  V30 34396 H 96.4484 -1.86973 6.82036 0
M  V30 34397 H 95.4564 -0.403896 7.13257 0
M  V30 34398 H 97.2904 -1.20585 8.97435 0
M  V30 34399 H 97.3614 -2.71231 5.45042 0
M  V30 34400 P 95.4195 1.17771 8.83182 0
M  V30 34401 O 95.1995 2.07206 9.98732 0
M  V30 34402 O 94.6295 -0.0743816 8.81969 0
M  V30 34403 O 95.1695 1.97652 7.47304 0
M  V30 34404 C 96.1095 3.01133 7.08783 0
M  V30 34405 C 95.3795 4.12613 6.37049 0
M  V30 34406 O 95.1695 3.72827 4.97879 0
M  V30 34407 C 93.9795 4.45085 6.88694 0
M  V30 34408 O 93.5895 5.7877 6.5624 0
M  V30 34409 C 93.0995 3.47817 6.12078 0
M  V30 34410 C 93.8095 3.39414 4.77697 0
M  V30 34411 N 93.7595 2.04199 4.15538 0
M  V30 34412 C 93.8395 0.821545 4.76977 0
M  V30 34413 N 93.7695 -0.1794 3.94592 0
M  V30 34414 C 93.6195 0.419121 2.70776 0
M  V30 34415 C 93.4895 -0.109072 1.40577 0
M  V30 34416 N 93.4795 -1.4104 1.1344 0
M  V30 34417 N 93.3695 0.764381 0.39411 0
M  V30 34418 C 93.3795 2.06587 0.664135 0
M  V30 34419 N 93.4995 2.67948 1.82153 0
M  V30 34420 C 93.6195 1.77942 2.8147 0
M  V30 34421 H 96.5985 3.41248 7.98759 0
M  V30 34422 H 96.8705 2.57728 6.42 0
M  V30 34423 H 96.0025 5.02657 6.42673 0
M  V30 34424 H 93.3475 4.11708 4.08956 0
M  V30 34425 H 93.0675 2.49626 6.61679 0
M  V30 34426 H 92.0765 3.8662 6.00862 0
M  V30 34427 H 93.9105 4.29991 7.97006 0
M  V30 34428 H 93.9515 0.702451 5.84696 0
M  V30 34429 H 93.5705 -2.09647 1.89651 0
M  V30 34430 H 93.3815 -1.73358 0.160575 0
M  V30 34431 H 93.2735 2.71695 -0.195838 0
M  V30 34432 P 92.0395 6.144 6.45285 0
M  V30 34433 O 91.8195 7.54673 6.86199 0
M  V30 34434 O 91.2495 5.12391 7.179 0
M  V30 34435 O 91.7895 5.99158 4.88404 0
M  V30 34436 C 92.7295 6.60062 3.96313 0
M  V30 34437 C 91.9995 7.08259 2.72856 0
M  V30 34438 O 91.7895 5.9427 1.83651 0
M  V30 34439 C 90.5995 7.65087 2.94749 0
M  V30 34440 O 90.2095 8.53963 1.90717 0
M  V30 34441 C 89.7195 6.41069 2.90698 0
M  V30 34442 C 90.4295 5.5528 1.86931 0
M  V30 34443 N 90.3795 4.09575 2.15696 0
M  V30 34444 C 90.2295 3.24249 1.08435 0
M  V30 34445 O 90.1395 3.63946 -0.0628747 0
M  V30 34446 N 90.1895 1.90009 1.39973 0
M  V30 34447 C 90.2795 1.34884 2.65614 0
M  V30 34448 C 90.4295 2.3145 3.71736 0
M  V30 34449 C 90.4795 3.63518 3.44754 0
M  V30 34450 H 93.2205 7.45402 4.45526 0
M  V30 34451 H 93.4895 5.86062 3.67208 0
M  V30 34452 H 92.6225 7.84412 2.24479 0
M  V30 34453 H 89.9675 5.73358 0.888409 0
M  V30 34454 H 89.6885 5.90877 3.88583 0
M  V30 34455 H 88.6965 6.65867 2.58821 0
M  V30 34456 H 90.5305 8.16248 3.92006 0
M  V30 34457 H 90.6015 4.34551 4.26383 0
M  V30 34458 P 88.6595 8.7635 1.60911 0
M  V30 34459 O 88.4395 10.1388 1.11561 0
M  V30 34460 O 87.8695 8.36503 2.79617 0
M  V30 34461 O 88.4095 7.71806 0.42951 0
M  V30 34462 C 89.3495 7.67148 -0.673689 0
M  V30 34463 C 88.6195 7.33374 -1.95559 0
M  V30 34464 O 88.4095 5.88721 -2.00726 0
M  V30 34465 C 87.2195 7.92526 -2.10483 0
M  V30 34466 O 86.8295 8.02971 -3.47653 0
M  V30 34467 C 86.3395 6.89602 -1.41652 0
M  V30 34468 C 87.0495 5.59201 -1.75185 0
M  V30 34469 N 86.9995 4.58235 -0.662552 0
M  V30 34470 H 89.8385 8.65116 -0.777161 0
M  V30 34471 H 90.1105 6.90173 -0.474152 0
M  V30 34472 H 89.2425 7.66548 -2.79458 0
M  V30 34473 P 85.2795 8.03563 -3.84925 0
M  V30 34474 O 85.0595 8.85821 -5.0569 0
M  V30 34475 O 84.4895 8.41101 -2.65469 0
M  V30 34476 O 85.0295 6.4965 -4.18908 0
M  V30 34477 C 85.9695 5.80886 -5.05289 0
M  V30 34478 C 85.2395 4.78366 -5.89277 0
M  V30 34479 O 85.0295 3.58302 -5.08433 0
M  V30 34480 C 83.8395 5.16748 -6.36559 0
M  V30 34481 O 83.4495 4.45271 -7.53232 0
M  V30 34482 C 82.9595 4.74572 -5.19863 0
M  V30 34483 C 83.6695 3.49373 -4.70338 0
M  V30 34484 N 83.6195 3.31704 -3.22876 0
M  V30 34485 C 83.4695 2.03326 -2.74871 0
M  V30 34486 O 83.3795 1.06486 -3.48076 0
M  V30 34487 N 83.4295 1.91838 -1.37456 0
M  V30 34488 C 83.5195 2.94295 -0.462035 0
M  V30 34489 C 83.6695 4.25064 -1.05249 0
M  V30 34490 C 83.7195 4.40214 -2.39192 0
M  V30 34491 H 86.4605 6.54063 -5.71245 0
M  V30 34492 H 86.7295 5.30339 -4.43905 0
M  V30 34493 H 85.8625 4.55889 -6.76652 0
M  V30 34494 H 83.2075 2.6167 -5.17842 0
M  V30 34495 H 82.9285 5.52155 -4.41878 0
M  V30 34496 H 81.9365 4.51918 -5.53297 0
M  V30 34497 H 83.7705 6.25055 -6.55162 0
M  V30 34498 H 83.8415 5.39798 -2.81523 0
M  V30 34499 P 81.8995 4.23843 -7.83734 0
M  V30 34500 O 81.6795 4.19407 -9.29784 0
M  V30 34501 O 81.1095 5.24426 -7.09156 0
M  V30 34502 O 81.6495 2.79386 -7.20852 0
M  V30 34503 C 82.5895 1.7299 -7.50419 0
M  V30 34504 C 81.8595 0.41401 -7.5797 0
M  V30 34505 O 81.6495 -0.089787 -6.22035 0
M  V30 34506 C 80.4595 0.447224 -8.1878 0
M  V30 34507 O 80.0695 -0.825159 -8.71201 0
M  V30 34508 C 79.5795 0.783801 -6.99623 0
M  V30 34509 C 80.2895 0.0619192 -5.85967 0
M  V30 34510 N 80.2395 0.7859 -4.56281 0
M  V30 34511 C 80.0895 0.0359258 -3.39981 0
M  V30 34512 O 79.9995 -1.19723 -3.49038 0
M  V30 34513 N 80.0395 0.869151 -2.14025 0
M  V30 34514 C 80.1395 2.01207 -2.14363 0
M  V30 34515 N 80.0895 2.58978 -0.954287 0
M  V30 34516 C 80.2895 2.80817 -3.32215 0
M  V30 34517 C 80.3395 2.13785 -4.50884 0
M  V30 34518 H 83.0795 1.93401 -8.46693 0
M  V30 34519 H 83.3495 1.68181 -6.71046 0
M  V30 34520 H 82.4825 -0.289076 -8.15488 0
M  V30 34521 H 79.8275 -0.927166 -5.72947 0
M  V30 34522 H 79.5475 1.87 -6.82132 0
M  V30 34523 H 78.5565 0.404009 -7.13457 0
M  V30 34524 H 80.3905 1.20599 -8.97534 0
M  V30 34525 H 80.4625 2.70295 -5.43162 0
M  V30 34526 H 80.3605 3.89465 -3.27406 0
M  V30 34527 H 79.9725 2.01616 -0.107046 0
M  V30 34528 H 80.1685 3.61403 -0.873101 0
M  V30 34529 P 78.5196 -1.17771 -8.83182 0
M  V30 34530 O 78.2996 -2.07206 -9.98732 0
M  V30 34531 O 77.7296 0.0743816 -8.81969 0
M  V30 34532 O 78.2696 -1.97652 -7.47304 0
M  V30 34533 C 79.2096 -3.01133 -7.08783 0
M  V30 34534 C 78.4796 -4.12613 -6.37049 0
M  V30 34535 O 78.2696 -3.72827 -4.97879 0
M  V30 34536 C 77.0796 -4.45085 -6.88694 0
M  V30 34537 O 76.6896 -5.7877 -6.5624 0
M  V30 34538 C 76.1996 -3.47817 -6.12078 0
M  V30 34539 C 76.9096 -3.39414 -4.77697 0
M  V30 34540 N 76.8596 -2.04615 -4.15333 0
M  V30 34541 H 79.6986 -3.41248 -7.98759 0
M  V30 34542 H 79.9706 -2.5837 -6.41742 0
M  V30 34543 H 79.1026 -5.02657 -6.42673 0
M  V30 34544 P 75.1396 -6.144 -6.45285 0
M  V30 34545 O 74.9196 -7.54673 -6.86199 0
M  V30 34546 O 74.3496 -5.12391 -7.179 0
M  V30 34547 O 74.8896 -5.99158 -4.88404 0
M  V30 34548 C 75.8296 -6.60234 -3.96415 0
M  V30 34549 C 75.0996 -7.08259 -2.72856 0
M  V30 34550 O 74.8896 -5.9427 -1.83651 0
M  V30 34551 C 73.6996 -7.64886 -2.9555 0
M  V30 34552 O 73.3096 -8.53963 -1.90717 0
M  V30 34553 C 72.8196 -6.4116 -2.90739 0
M  V30 34554 C 73.5296 -5.55375 -1.86963 0
M  V30 34555 N 73.4796 -4.09448 -2.16152 0
M  V30 34556 H 76.3186 -7.45574 -4.45629 0
M  V30 34557 H 76.5906 -5.85864 -3.679 0
M  V30 34558 H 75.7226 -7.84412 -2.24479 0
M  V30 34559 H 73.0676 -5.73457 -0.888562 0
M  V30 34560 H 72.7876 -5.90877 -3.88583 0
M  V30 34561 H 71.7966 -6.6596 -2.58858 0
M  V30 34562 H 73.6306 -8.16339 -3.92049 0
M  V30 34563 P 71.7596 -8.7635 -1.60911 0
M  V30 34564 O 71.5396 -10.1388 -1.11561 0
M  V30 34565 O 70.9696 -8.36503 -2.79617 0
M  V30 34566 O 71.5096 -7.71806 -0.42951 0
M  V30 34567 C 72.4496 -7.67148 0.673689 0
M  V30 34568 C 71.7196 -7.33374 1.95559 0
M  V30 34569 O 71.5096 -5.88721 2.00726 0
M  V30 34570 C 70.3196 -7.92526 2.10483 0
M  V30 34571 O 69.9296 -8.02971 3.47653 0
M  V30 34572 C 69.4396 -6.89602 1.41652 0
M  V30 34573 C 70.1496 -5.59201 1.75185 0
M  V30 34574 N 70.0996 -4.58301 0.657969 0
M  V30 34575 H 72.9386 -8.65116 0.777161 0
M  V30 34576 H 73.2106 -6.9022 0.46725 0
M  V30 34577 H 72.3426 -7.66548 2.79458 0
M  V30 34578 H 69.6876 -5.16165 2.65183 0
M  V30 34579 H 69.4076 -7.06433 0.329384 0
M  V30 34580 H 68.4166 -6.90926 1.82021 0
M  V30 34581 H 70.2506 -8.90873 1.62657 0
M  V30 34582 P 68.3796 -8.03563 3.84925 0
M  V30 34583 O 68.1596 -8.85821 5.0569 0
M  V30 34584 O 67.5896 -8.41101 2.65469 0
M  V30 34585 O 68.1296 -6.4965 4.18908 0
M  V30 34586 C 69.0696 -5.81037 5.05421 0
M  V30 34587 C 68.3396 -4.78366 5.89277 0
M  V30 34588 O 68.1296 -3.58302 5.08433 0
M  V30 34589 C 66.9396 -5.17448 6.36119 0
M  V30 34590 O 66.5496 -4.45271 7.53232 0
M  V30 34591 C 66.0596 -4.74639 5.19936 0
M  V30 34592 C 66.7696 -3.49432 4.70418 0
M  V30 34593 N 66.7196 -3.31776 3.22945 0
M  V30 34594 H 69.5586 -6.54213 5.71376 0
M  V30 34595 H 69.8306 -5.30492 4.44033 0
M  V30 34596 H 68.9626 -4.55889 6.76652 0
M  V30 34597 P 64.9996 -4.23843 7.83734 0
M  V30 34598 O 64.7796 -4.19407 9.29784 0
M  V30 34599 O 64.2096 -5.24426 7.09156 0
M  V30 34600 O 64.7496 -2.7935 7.20758 0
M  V30 34601 C 65.6896 -1.7299 7.50419 0
M  V30 34602 C 64.9596 -0.406376 7.57911 0
M  V30 34603 O 64.7496 0.0897726 6.21935 0
M  V30 34604 C 63.5596 -0.447224 8.1878 0
M  V30 34605 O 63.1696 0.825065 8.71101 0
M  V30 34606 C 62.6796 -0.783801 6.99623 0
M  V30 34607 C 63.3896 -0.0619192 5.85967 0
M  V30 34608 N 63.3396 -0.7859 4.56281 0
M  V30 34609 C 63.4196 -2.14308 4.31736 0
M  V30 34610 N 63.3396 -2.46106 3.05116 0
M  V30 34611 C 63.1996 -1.23422 2.4014 0
M  V30 34612 C 63.0696 -0.938381 1.02409 0
M  V30 34613 N 62.9496 0.444647 0.805413 0
M  V30 34614 C 62.9496 1.40829 1.79435 0
M  V30 34615 N 62.8196 2.67213 1.38558 0
M  V30 34616 N 63.0796 1.12947 3.09005 0
M  V30 34617 C 63.1996 -0.204887 3.32369 0
M  V30 34618 H 66.1786 -1.93423 8.4679 0
M  V30 34619 H 66.4506 -1.68181 6.71046 0
M  V30 34620 H 65.5826 0.289041 8.15388 0
M  V30 34621 P 61.6197 1.17771 8.83182 0
M  V30 34622 O 61.3997 2.07206 9.98732 0
M  V30 34623 O 60.8297 -0.0743816 8.81969 0
M  V30 34624 O 61.3697 1.97652 7.47304 0
M  V30 34625 C 62.3097 3.01055 7.08599 0
M  V30 34626 C 61.5797 4.12613 6.37049 0
M  V30 34627 O 61.3697 3.72827 4.97879 0
M  V30 34628 C 60.1797 4.45719 6.88164 0
M  V30 34629 O 59.7897 5.7877 6.5624 0
M  V30 34630 C 59.2997 3.47768 6.11991 0
M  V30 34631 C 60.0097 3.39356 4.77615 0
M  V30 34632 N 59.9597 2.04571 4.15244 0
M  V30 34633 C 59.8097 1.98587 2.78314 0
M  V30 34634 O 59.7197 2.98134 2.08835 0
M  V30 34635 N 59.7697 0.714467 2.24925 0
M  V30 34636 C 59.8597 -0.470001 2.94169 0
M  V30 34637 C 60.0097 -0.312541 4.36783 0
M  V30 34638 C 60.0597 0.914512 4.92583 0
M  V30 34639 H 62.8007 3.41169 7.98575 0
M  V30 34640 H 63.0697 2.58295 6.41556 0
M  V30 34641 H 62.2027 5.02657 6.42673 0
M  V30 34642 H 59.5477 4.11637 4.08885 0
M  V30 34643 H 59.2687 2.49626 6.61679 0
M  V30 34644 H 58.2767 3.86566 6.00778 0
M  V30 34645 H 60.1107 4.29943 7.96918 0
M  V30 34646 H 60.1817 1.00937 6.00374 0
M  V30 34647 P 58.2397 6.144 6.45285 0
M  V30 34648 O 58.0197 7.54673 6.86199 0
M  V30 34649 O 57.4497 5.12391 7.179 0
M  V30 34650 O 57.9897 5.99158 4.88404 0
M  V30 34651 C 58.9297 6.60234 3.96415 0
M  V30 34652 C 58.1997 7.08259 2.72856 0
M  V30 34653 O 57.9897 5.9427 1.83651 0
M  V30 34654 C 56.7997 7.64886 2.9555 0
M  V30 34655 O 56.4097 8.53963 1.90717 0
M  V30 34656 C 55.9197 6.4116 2.90739 0
M  V30 34657 C 56.6297 5.55375 1.86963 0
M  V30 34658 N 56.5797 4.09664 2.15742 0
M  V30 34659 H 59.4187 7.45574 4.45629 0
M  V30 34660 H 59.6907 5.86232 3.67314 0
M  V30 34661 H 58.8227 7.84412 2.24479 0
M  V30 34662 P 54.8597 8.7635 1.60911 0
M  V30 34663 O 54.6397 10.1388 1.11561 0
M  V30 34664 O 54.0697 8.36503 2.79617 0
M  V30 34665 O 54.6097 7.71806 0.42951 0
M  V30 34666 C 55.5497 7.67148 -0.673689 0
M  V30 34667 C 54.8197 7.33374 -1.95559 0
M  V30 34668 O 54.6097 5.88721 -2.00726 0
M  V30 34669 C 53.4197 7.92526 -2.10483 0
M  V30 34670 O 53.0297 8.02971 -3.47653 0
M  V30 34671 C 52.5397 6.89602 -1.41652 0
M  V30 34672 C 53.2497 5.59201 -1.75185 0
M  V30 34673 N 53.1997 4.58235 -0.662552 0
M  V30 34674 H 56.0387 8.65116 -0.777161 0
M  V30 34675 H 56.3107 6.90173 -0.474152 0
M  V30 34676 H 55.4427 7.66548 -2.79458 0
M  V30 34677 P 51.4797 8.03563 -3.84925 0
M  V30 34678 O 51.2597 8.85821 -5.0569 0
M  V30 34679 O 50.6897 8.41101 -2.65469 0
M  V30 34680 O 51.2297 6.4965 -4.18908 0
M  V30 34681 C 52.1697 5.81037 -5.05421 0
M  V30 34682 C 51.4397 4.78366 -5.89277 0
M  V30 34683 O 51.2297 3.58302 -5.08433 0
M  V30 34684 C 50.0397 5.17448 -6.36119 0
M  V30 34685 O 49.6497 4.45271 -7.53232 0
M  V30 34686 C 49.1597 4.74639 -5.19936 0
M  V30 34687 C 49.8697 3.49432 -4.70418 0
M  V30 34688 N 49.8197 3.31776 -3.22945 0
M  V30 34689 H 52.6587 6.54213 -5.71376 0
M  V30 34690 H 52.9307 5.30492 -4.44033 0
M  V30 34691 H 52.0627 4.55889 -6.76652 0
M  V30 34692 P 48.0997 4.23843 -7.83734 0
M  V30 34693 O 47.8797 4.19407 -9.29784 0
M  V30 34694 O 47.3097 5.24426 -7.09156 0
M  V30 34695 O 47.8497 2.7935 -7.20758 0
M  V30 34696 C 48.7897 1.7299 -7.50419 0
M  V30 34697 C 48.0597 0.406376 -7.57911 0
M  V30 34698 O 47.8497 -0.0897726 -6.21935 0
M  V30 34699 C 46.6597 0.447224 -8.1878 0
M  V30 34700 O 46.2697 -0.825065 -8.71101 0
M  V30 34701 C 45.7797 0.783801 -6.99623 0
M  V30 34702 C 46.4897 0.0619192 -5.85967 0
M  V30 34703 N 46.4397 0.790462 -4.56202 0
M  V30 34704 H 49.2787 1.93423 -8.4679 0
M  V30 34705 H 49.5507 1.68852 -6.70877 0
M  V30 34706 H 48.6827 -0.289041 -8.15388 0
M  V30 34707 H 46.0277 -0.927006 -5.72848 0
M  V30 34708 H 45.7477 1.86973 -6.82036 0
M  V30 34709 H 44.7567 0.403953 -7.13357 0
M  V30 34710 H 46.5907 1.20599 -8.97534 0
M  V30 34711 P 44.7198 -1.17771 -8.83182 0
M  V30 34712 O 44.4998 -2.07206 -9.98732 0
M  V30 34713 O 43.9298 0.0743816 -8.81969 0
M  V30 34714 O 44.4698 -1.97652 -7.47304 0
M  V30 34715 C 45.4098 -3.01133 -7.08783 0
M  V30 34716 C 44.6798 -4.12613 -6.37049 0
M  V30 34717 O 44.4698 -3.72827 -4.97879 0
M  V30 34718 C 43.2798 -4.45085 -6.88694 0
M  V30 34719 O 42.8898 -5.7877 -6.5624 0
M  V30 34720 C 42.3998 -3.47817 -6.12078 0
M  V30 34721 C 43.1098 -3.39414 -4.77697 0
M  V30 34722 N 43.0598 -2.04199 -4.15538 0
M  V30 34723 H 45.8988 -3.41248 -7.98759 0
M  V30 34724 H 46.1708 -2.57728 -6.42 0
M  V30 34725 H 45.3028 -5.02657 -6.42673 0
M  V30 34726 H 42.6478 -4.11708 -4.08956 0
M  V30 34727 H 42.3678 -2.49626 -6.61679 0
M  V30 34728 H 41.3768 -3.8662 -6.00862 0
M  V30 34729 H 43.2108 -4.29991 -7.97006 0
M  V30 34730 P 41.3398 -6.144 -6.45285 0
M  V30 34731 O 41.1198 -7.54673 -6.86199 0
M  V30 34732 O 40.5498 -5.12391 -7.179 0
M  V30 34733 O 41.0898 -5.99236 -4.88467 0
M  V30 34734 C 42.0298 -6.60234 -3.96415 0
M  V30 34735 C 41.2998 -7.08079 -2.736 0
M  V30 34736 O 41.0898 -5.94365 -1.8368 0
M  V30 34737 C 39.8998 -7.64886 -2.9555 0
M  V30 34738 O 39.5098 -8.5406 -1.90739 0
M  V30 34739 C 39.0198 -6.4116 -2.90739 0
M  V30 34740 C 39.7298 -5.55375 -1.86963 0
M  V30 34741 N 39.6798 -4.09664 -2.15742 0
M  V30 34742 C 39.5298 -3.22231 -1.08477 0
M  V30 34743 O 39.4398 -3.68951 0.0600489 0
M  V30 34744 N 39.4798 -1.76692 -1.48799 0
M  V30 34745 C 39.5798 -1.41695 -2.57602 0
M  V30 34746 N 39.5298 -0.107296 -2.75791 0
M  V30 34747 C 39.7298 -2.29178 -3.69733 0
M  V30 34748 C 39.7798 -3.62753 -3.42653 0
M  V30 34749 H 42.5198 -7.45488 -4.45578 0
M  V30 34750 H 42.7898 -5.86232 -3.67314 0
M  V30 34751 H 41.9228 -7.84508 -2.24507 0
M  V30 34752 H 39.2678 -5.73556 -0.888715 0
M  V30 34753 H 38.9878 -5.9096 -3.88638 0
M  V30 34754 H 37.9968 -6.66053 -2.58894 0
M  V30 34755 H 39.8308 -8.16339 -3.92049 0
M  V30 34756 H 39.9028 -4.33052 -4.24913 0
M  V30 34757 H 39.8008 -1.9103 -4.71577 0
M  V30 34758 H 39.4128 0.521221 -1.95056 0
M  V30 34759 H 39.6088 0.286429 -3.70695 0
M  V30 34760 P 37.9598 -8.7635 -1.60911 0
M  V30 34761 O 37.7398 -10.1388 -1.11561 0
M  V30 34762 O 37.1698 -8.36503 -2.79617 0
M  V30 34763 O 37.7098 -7.71806 -0.42951 0
M  V30 34764 C 38.6498 -7.67148 0.673689 0
M  V30 34765 C 37.9198 -7.33374 1.95559 0
M  V30 34766 O 37.7098 -5.88721 2.00726 0
M  V30 34767 C 36.5198 -7.92526 2.10483 0
M  V30 34768 O 36.1298 -8.02971 3.47653 0
M  V30 34769 C 35.6398 -6.89602 1.41652 0
M  V30 34770 C 36.3498 -5.59201 1.75185 0
M  V30 34771 N 36.2998 -4.58235 0.662552 0
M  V30 34772 H 39.1388 -8.65116 0.777161 0
M  V30 34773 H 39.4108 -6.90173 0.474152 0
M  V30 34774 H 38.5428 -7.66548 2.79458 0
M  V30 34775 P 34.5798 -8.03563 3.84925 0
M  V30 34776 O 34.3598 -8.85821 5.0569 0
M  V30 34777 O 33.7898 -8.41101 2.65469 0
M  V30 34778 O 34.3298 -6.4965 4.18908 0
M  V30 34779 C 35.2698 -5.81037 5.05421 0
M  V30 34780 C 34.5398 -4.78366 5.89277 0
M  V30 34781 O 34.3298 -3.58302 5.08433 0
M  V30 34782 C 33.1398 -5.17448 6.36119 0
M  V30 34783 O 32.7498 -4.45271 7.53232 0
M  V30 34784 C 32.2598 -4.74639 5.19936 0
M  V30 34785 C 32.9698 -3.49432 4.70418 0
M  V30 34786 N 32.9198 -3.31776 3.22945 0
M  V30 34787 H 35.7588 -6.54213 5.71376 0
M  V30 34788 H 36.0308 -5.30492 4.44033 0
M  V30 34789 H 35.1628 -4.55889 6.76652 0
M  V30 34790 P 31.1998 -4.23843 7.83734 0
M  V30 34791 O 30.9798 -4.19407 9.29784 0
M  V30 34792 O 30.4098 -5.24426 7.09156 0
M  V30 34793 O 30.9498 -2.7935 7.20758 0
M  V30 34794 C 31.8898 -1.7299 7.50419 0
M  V30 34795 C 31.1598 -0.406376 7.57911 0
M  V30 34796 O 30.9498 0.0897726 6.21935 0
M  V30 34797 C 29.7598 -0.447224 8.1878 0
M  V30 34798 O 29.3698 0.825065 8.71101 0
M  V30 34799 C 28.8798 -0.783801 6.99623 0
M  V30 34800 C 29.5898 -0.0619192 5.85967 0
M  V30 34801 N 29.5398 -0.7859 4.56281 0
M  V30 34802 H 32.3788 -1.93423 8.4679 0
M  V30 34803 H 32.6508 -1.68181 6.71046 0
M  V30 34804 H 31.7828 0.289041 8.15388 0
M  V30 34805 P 27.8199 1.17771 8.83182 0
M  V30 34806 O 27.5999 2.07206 9.98732 0
M  V30 34807 O 27.0299 -0.0743816 8.81969 0
M  V30 34808 O 27.5699 1.97652 7.47304 0
M  V30 34809 C 28.5099 3.01133 7.08783 0
M  V30 34810 C 27.7799 4.12613 6.37049 0
M  V30 34811 O 27.5699 3.72827 4.97879 0
M  V30 34812 C 26.3799 4.45085 6.88694 0
M  V30 34813 O 25.9899 5.7877 6.5624 0
M  V30 34814 C 25.4999 3.47817 6.12078 0
M  V30 34815 C 26.2099 3.39414 4.77697 0
M  V30 34816 N 26.1599 2.04615 4.15333 0
M  V30 34817 H 28.9989 3.41248 7.98759 0
M  V30 34818 H 29.2709 2.5837 6.41742 0
M  V30 34819 H 28.4029 5.02657 6.42673 0
M  V30 34820 P 24.4399 6.144 6.45285 0
M  V30 34821 O 24.2199 7.54673 6.86199 0
M  V30 34822 O 23.6499 5.12391 7.179 0
M  V30 34823 O 24.1899 5.99158 4.88404 0
M  V30 34824 C 25.1299 6.60234 3.96415 0
M  V30 34825 C 24.3999 7.08259 2.72856 0
M  V30 34826 O 24.1899 5.9427 1.83651 0
M  V30 34827 C 22.9999 7.64886 2.9555 0
M  V30 34828 O 22.6099 8.53963 1.90717 0
M  V30 34829 C 22.1199 6.4116 2.90739 0
M  V30 34830 C 22.8299 5.55375 1.86963 0
M  V30 34831 N 22.7799 4.09448 2.16152 0
M  V30 34832 C 22.8599 3.46824 3.37593 0
M  V30 34833 N 22.7899 2.17422 3.29777 0
M  V30 34834 C 22.6399 1.93065 1.94427 0
M  V30 34835 C 22.5099 0.738053 1.20141 0
M  V30 34836 N 22.4999 -0.474256 1.74676 0
M  V30 34837 N 22.3899 0.850049 -0.13045 0
M  V30 34838 C 22.3999 2.06169 -0.676992 0
M  V30 34839 N 22.5199 3.23842 -0.101312 0
M  V30 34840 C 22.6399 3.09402 1.23122 0
M  V30 34841 H 25.6189 7.45574 4.45629 0
M  V30 34842 H 25.8909 5.85864 3.679 0
M  V30 34843 H 25.0229 7.84412 2.24479 0
M  V30 34844 H 22.3679 5.73457 0.888562 0
M  V30 34845 H 22.0879 5.90877 3.88583 0
M  V30 34846 H 21.0969 6.6596 2.58858 0
M  V30 34847 H 22.9309 8.16339 3.92049 0
M  V30 34848 H 22.9719 4.00505 4.3174 0
M  V30 34849 H 22.5909 -0.581337 2.76658 0
M  V30 34850 H 22.4019 -1.30811 1.14888 0
M  V30 34851 H 22.2939 2.08295 -1.75542 0
M  V30 34852 P 21.0599 8.7635 1.60911 0
M  V30 34853 O 20.8399 10.1388 1.11561 0
M  V30 34854 O 20.2699 8.36503 2.79617 0
M  V30 34855 O 20.8099 7.71806 0.42951 0
M  V30 34856 C 21.7499 7.67148 -0.673689 0
M  V30 34857 C 21.0199 7.33374 -1.95559 0
M  V30 34858 O 20.8099 5.88721 -2.00726 0
M  V30 34859 C 19.6199 7.92526 -2.10483 0
M  V30 34860 O 19.2299 8.02971 -3.47653 0
M  V30 34861 C 18.7399 6.89602 -1.41652 0
M  V30 34862 C 19.4499 5.59201 -1.75185 0
M  V30 34863 N 19.3999 4.58235 -0.662552 0
M  V30 34864 H 22.2389 8.65116 -0.777161 0
M  V30 34865 H 22.5109 6.90173 -0.474152 0
M  V30 34866 H 21.6429 7.66548 -2.79458 0
M  V30 34867 P 17.6799 8.03563 -3.84925 0
M  V30 34868 O 17.4599 8.85821 -5.0569 0
M  V30 34869 O 16.8899 8.41101 -2.65469 0
M  V30 34870 O 17.4299 6.4965 -4.18908 0
M  V30 34871 C 18.3699 5.81037 -5.05421 0
M  V30 34872 C 17.6399 4.78366 -5.89277 0
M  V30 34873 O 17.4299 3.58302 -5.08433 0
M  V30 34874 C 16.2399 5.17448 -6.36119 0
M  V30 34875 O 15.8499 4.45271 -7.53232 0
M  V30 34876 C 15.3599 4.74639 -5.19936 0
M  V30 34877 C 16.0699 3.49432 -4.70418 0
M  V30 34878 N 16.0199 3.31776 -3.22945 0
M  V30 34879 C 16.0999 4.27147 -2.23315 0
M  V30 34880 N 16.0199 3.78447 -1.02186 0
M  V30 34881 C 15.8799 2.41001 -1.21732 0
M  V30 34882 C 15.7499 1.36111 -0.27694 0
M  V30 34883 N 15.6299 0.113683 -0.912949 0
M  V30 34884 C 15.6299 -0.0846396 -2.27943 0
M  V30 34885 N 15.4999 -1.34737 -2.6916 0
M  V30 34886 N 15.7599 0.902521 -3.16379 0
M  V30 34887 C 15.8799 2.11937 -2.56849 0
M  V30 34888 H 18.8589 6.54213 -5.71376 0
M  V30 34889 H 19.1309 5.30492 -4.44033 0
M  V30 34890 H 18.2629 4.55889 -6.76652 0
M  V30 34891 P 14.2999 4.23843 -7.83734 0
M  V30 34892 O 14.0799 4.19407 -9.29784 0
M  V30 34893 O 13.5099 5.24426 -7.09156 0
M  V30 34894 O 14.0499 2.7935 -7.20758 0
M  V30 34895 C 14.9899 1.7299 -7.50419 0
M  V30 34896 C 14.2599 0.406376 -7.57911 0
M  V30 34897 O 14.0499 -0.0897726 -6.21935 0
M  V30 34898 C 12.8599 0.447224 -8.1878 0
M  V30 34899 O 12.4699 -0.825065 -8.71101 0
M  V30 34900 C 11.9799 0.783801 -6.99623 0
M  V30 34901 C 12.6899 0.0619192 -5.85967 0
M  V30 34902 N 12.6399 0.7859 -4.56281 0
M  V30 34903 H 15.4789 1.93423 -8.4679 0
M  V30 34904 H 15.7509 1.68181 -6.71046 0
M  V30 34905 H 14.8829 -0.289041 -8.15388 0
M  V30 34906 P 10.92 -1.17771 -8.83182 0
M  V30 34907 O 10.7 -2.07206 -9.98732 0
M  V30 34908 O 10.13 0.0743816 -8.81969 0
M  V30 34909 O 10.67 -1.97652 -7.47304 0
M  V30 34910 C 11.61 -3.01133 -7.08783 0
M  V30 34911 C 10.88 -4.12613 -6.37049 0
M  V30 34912 O 10.67 -3.72827 -4.97879 0
M  V30 34913 C 9.47996 -4.45085 -6.88694 0
M  V30 34914 O 9.08996 -5.7877 -6.5624 0
M  V30 34915 C 8.59996 -3.47817 -6.12078 0
M  V30 34916 C 9.30996 -3.39414 -4.77697 0
M  V30 34917 N 9.25996 -2.04615 -4.15333 0
M  V30 34918 H 12.099 -3.41248 -7.98759 0
M  V30 34919 H 12.371 -2.5837 -6.41742 0
M  V30 34920 H 11.503 -5.02657 -6.42673 0
M  V30 34921 P 7.53998 -6.144 -6.45285 0
M  V30 34922 O 7.31998 -7.54673 -6.86199 0
M  V30 34923 O 6.74998 -5.12391 -7.179 0
M  V30 34924 O 7.28998 -5.99158 -4.88404 0
M  V30 34925 C 8.22998 -6.60234 -3.96415 0
M  V30 34926 C 7.49998 -7.08259 -2.72856 0
M  V30 34927 O 7.28998 -5.9427 -1.83651 0
M  V30 34928 C 6.09998 -7.64886 -2.9555 0
M  V30 34929 O 5.70998 -8.53963 -1.90717 0
M  V30 34930 C 5.21998 -6.4116 -2.90739 0
M  V30 34931 C 5.92998 -5.55375 -1.86963 0
M  V30 34932 N 5.87998 -4.09448 -2.16152 0
M  V30 34933 H 8.71898 -7.45574 -4.45629 0
M  V30 34934 H 8.99098 -5.85864 -3.679 0
M  V30 34935 H 8.12298 -7.84412 -2.24479 0
M  V30 34936 H 5.46798 -5.73457 -0.888562 0
M  V30 34937 H 5.18798 -5.90877 -3.88583 0
M  V30 34938 H 4.19698 -6.6596 -2.58858 0
M  V30 34939 H 6.03098 -8.16339 -3.92049 0
M  V30 34940 P 4.16 -8.7635 -1.60911 0
M  V30 34941 O 3.94 -10.1388 -1.11561 0
M  V30 34942 O 3.37 -8.36503 -2.79617 0
M  V30 34943 O 3.91 -7.71806 -0.42951 0
M  V30 34944 C 4.85 -7.67148 0.673689 0
M  V30 34945 C 4.12 -7.33374 1.95559 0
M  V30 34946 O 3.91 -5.88721 2.00726 0
M  V30 34947 C 2.72 -7.92526 2.10483 0
M  V30 34948 O 2.33 -8.02971 3.47653 0
M  V30 34949 C 1.84 -6.89602 1.41652 0
M  V30 34950 C 2.55 -5.59201 1.75185 0
M  V30 34951 N 2.5 -4.58235 0.662552 0
M  V30 34952 H 5.339 -8.65116 0.777161 0
M  V30 34953 H 5.611 -6.90173 0.474152 0
M  V30 34954 H 4.743 -7.66548 2.79458 0
M  V30 34955 H 1.613 -8.66322 3.55694 0
M  V30 END ATOM
M  V30 BEGIN BOND
M  V30 END BOND
M  V30 END CTAB
M  END
$$$$
