drugbank_target|Q16555 Dihydropyrimidinase-related protein 2 (DB11638)
 OpenBabel12092121033D

  0  0  0     0  0            999 V3000
M  V30 BEGIN CTAB
M  V30 COUNTS 8728 8818 0 0 0
M  V30 BEGIN ATOM
M  V30 1 H -0.908 1.98254 -0.117106 0
M  V30 2 N 0 1.576 0 0
M  V30 3 C 0.933 2.03868 1.02534 0
M  V30 4 C 1.911 0.928543 1.3348 0
M  V30 5 O 3.095 1.19667 1.45644 0
M  V30 6 C 0.222 2.43627 2.35294 0
M  V30 7 C -0.732 3.65373 2.2001 0
M  V30 8 S 0.101 5.13292 1.52614 0
M  V30 9 C 1.257 5.56322 2.86805 0
M  V30 10 H 1.49 2.90518 0.631377 0
M  V30 11 H -0.977 1.52953 0.210867 0
M  V30 12 H 0.981 2.67203 3.11629 0
M  V30 13 H -0.358 1.57376 2.7183 0
M  V30 14 H -1.165 3.90944 3.18086 0
M  V30 15 H -1.563 3.418 1.51819 0
M  V30 16 H 0.729 5.58782 3.83104 0
M  V30 17 H 1.672 6.56266 2.65933 0
M  V30 18 H 2.08 4.83886 2.90714 0
M  V30 19 N 1.4781 -0.272755 1.55222 0
M  V30 20 C 2.7031 -1.02683 1.80197 0
M  V30 21 C 3.1281 -1.79142 0.573551 0
M  V30 22 O 2.4861 -1.74917 -0.476849 0
M  V30 23 C 2.5341 -1.9609 3.02624 0
M  V30 24 O 1.6381 -3.04863 2.77727 0
M  V30 25 H 0.9791 -0.293557 0.595584 0
M  V30 26 H 3.5091 -0.30159 2.02365 0
M  V30 27 H 3.5191 -2.38039 3.31363 0
M  V30 28 H 2.1941 -1.39851 3.91682 0
M  V30 29 H 0.7711 -2.67228 2.60084 0
M  V30 30 N 2.9562 -1.48159 -0.537278 0
M  V30 31 C 4.1862 -1.59223 -1.3165 0
M  V30 32 C 4.5942 -0.248849 -1.87556 0
M  V30 33 O 3.9372 0.770949 -1.6674 0
M  V30 34 C 3.9992 -2.57365 -2.51005 0
M  V30 35 C 3.6632 -4.02603 -2.16239 0
M  V30 36 C 4.6602 -4.90503 -1.72344 0
M  V30 37 C 2.3452 -4.48088 -2.26986 0
M  V30 38 C 4.3392 -6.21913 -1.39651 0
M  V30 39 C 2.0262 -5.7952 -1.93906 0
M  V30 40 C 3.0242 -6.66255 -1.50309 0
M  V30 41 O 2.7122 -7.95243 -1.17659 0
M  V30 42 H 2.4442 -0.539831 -0.406889 0
M  V30 43 H 4.9982 -1.94655 -0.655641 0
M  V30 44 H 3.2282 -2.1704 -3.20048 0
M  V30 45 H 4.9172 -2.58342 -3.13072 0
M  V30 46 H 5.6832 -4.56604 -1.63517 0
M  V30 47 H 1.5622 -3.80769 -2.59877 0
M  V30 48 H 5.1062 -6.89569 -1.0555 0
M  V30 49 H 1.0032 -6.12957 -2.02371 0
M  V30 50 H 1.7712 -8.0793 -1.31119 0
M  V30 51 N 4.4343 0.785586 -1.36625 0
M  V30 52 C 5.3663 1.90711 -1.2713 0
M  V30 53 C 6.3793 1.61688 -0.189986 0
M  V30 54 O 7.5683 1.72864 -0.445014 0
M  V30 55 C 4.6683 3.25611 -0.939713 0
M  V30 56 C 3.8413 3.82385 -2.12369 0
M  V30 57 C 2.9003 4.95732 -1.76456 0
M  V30 58 O 1.9263 5.12047 -2.48589 0
M  V30 59 N 3.1283 5.76258 -0.700492 0
M  V30 60 H 5.8933 1.99376 -2.23762 0
M  V30 61 H 3.4543 0.964041 -1.30069 0
M  V30 62 H 5.4463 3.98937 -0.680554 0
M  V30 63 H 4.0163 3.12538 -0.0624074 0
M  V30 64 H 3.2363 3.01001 -2.54543 0
M  V30 65 H 4.5243 4.17047 -2.9146 0
M  V30 66 H 3.9223 5.65609 -0.101624 0
M  V30 67 H 2.4793 6.4987 -0.501165 0
M  V30 68 N 5.9124 1.20967 1.01018 0
M  V30 69 C 7.1604 1.02172 1.74371 0
M  V30 70 C 7.4814 -0.446414 1.89821 0
M  V30 71 O 6.7514 -1.32234 1.44537 0
M  V30 72 H 5.3314 0.375066 0.646014 0
M  V30 73 H 7.9934 1.52187 1.21758 0
M  V30 74 H 7.0894 1.48538 2.74487 0
M  V30 75 N 7.3905 -1.2043 1.01659 0
M  V30 76 C 8.3375 -2.23215 0.586822 0
M  V30 77 C 9.3075 -1.61382 -0.393085 0
M  V30 78 O 10.4925 -1.88544 -0.292525 0
M  V30 79 C 7.6325 -3.45032 -0.0687464 0
M  V30 80 C 6.7455 -4.21296 0.955724 0
M  V30 81 C 5.8805 -5.30507 0.271208 0
M  V30 82 C 4.9195 -5.98515 1.28244 0
M  V30 83 N 4.0565 -6.99316 0.62459 0
M  V30 84 H 8.8965 -2.59336 1.46796 0
M  V30 85 H 6.4335 -1.27431 0.734836 0
M  V30 86 H 8.3915 -4.1459 -0.465965 0
M  V30 87 H 7.0215 -3.09604 -0.913529 0
M  V30 88 H 6.0735 -3.50803 1.4711 0
M  V30 89 H 7.3855 -4.6803 1.72479 0
M  V30 90 H 6.5395 -6.06428 -0.18151 0
M  V30 91 H 5.2785 -4.8481 -0.530163 0
M  V30 92 H 4.2835 -5.21355 1.74554 0
M  V30 93 H 5.5085 -6.46298 2.08509 0
M  V30 94 H 3.4545 -6.55812 -0.156914 0
M  V30 95 H 3.3715 -7.44178 1.33172 0
M  V30 96 H 4.6395 -7.79255 0.195462 0
M  V30 97 N 8.8686 -0.792821 -1.36206 0
M  V30 98 C 9.8156 -0.191653 -2.30003 0
M  V30 99 C 10.7856 0.666453 -1.52143 0
M  V30 100 O 11.9706 0.61442 -1.80636 0
M  V30 101 C 9.1106 0.664848 -3.38635 0
M  V30 102 C 8.2236 -0.212175 -4.31479 0
M  V30 103 C 7.3586 0.651022 -5.27196 0
M  V30 104 C 6.3976 -0.227247 -6.11678 0
M  V30 105 N 5.5346 0.595127 -6.99573 0
M  V30 106 H 10.3746 -0.996978 -2.80828 0
M  V30 107 H 7.9116 -0.503206 -1.38225 0
M  V30 108 H 9.8696 1.17645 -4.00269 0
M  V30 109 H 8.4996 1.43557 -2.89122 0
M  V30 110 H 7.5516 -0.841777 -3.70969 0
M  V30 111 H 8.8636 -0.888751 -4.90818 0
M  V30 112 H 8.0176 1.2283 -5.94136 0
M  V30 113 H 6.7566 1.36121 -4.68319 0
M  V30 114 H 5.7616 -0.816904 -5.43697 0
M  V30 115 H 6.9866 -0.93509 -6.72631 0
M  V30 116 H 4.9326 1.28955 -6.432 0
M  V30 117 H 4.8496 -0.0236952 -7.55996 0
M  V30 118 H 6.1176 1.15613 -7.70879 0
M  V30 119 N 10.3467 1.47872 -0.545128 0
M  V30 120 C 11.2947 2.31533 0.222512 0
M  V30 121 C 12.2887 1.42177 0.920985 0
M  V30 122 O 13.4947 1.59005 0.843645 0
M  V30 123 H 9.8697 0.746519 0.0906278 0
M  V30 124 H 11.8407 2.94139 -0.50246 0
M  V30 125 C 10.5897 3.2457 1.24699 0
M  V30 126 H 9.9127 3.93283 0.718944 0
M  V30 127 H 11.3527 3.85963 1.75523 0
M  V30 128 C 9.8117 2.47237 2.28856 0
M  V30 129 O 10.3417 2.20808 3.35569 0
M  V30 130 N 8.5477 2.08461 2.02466 0
M  V30 131 H 8.0947 2.30155 1.157 0
M  V30 132 H 8.0527 1.57033 2.72375 0
M  V30 133 N 11.8248 0.280983 1.55075 0
M  V30 134 C 13.0738 -0.334784 1.98902 0
M  V30 135 C 13.3868 -1.56534 1.17288 0
M  V30 136 O 14.5928 -2.25443 1.51287 0
M  V30 137 C 13.0488 -0.646994 3.54037 0
M  V30 138 C 12.6568 0.564085 4.44435 0
M  V30 139 C 14.4008 -1.22506 4.06439 0
M  V30 140 C 12.3078 0.226137 5.90967 0
M  V30 141 H 11.2378 -0.128866 0.742906 0
M  V30 142 H 13.8888 0.386556 1.79382 0
M  V30 143 H 12.2708 -1.42739 3.6938 0
M  V30 144 H 13.4448 1.34082 4.40861 0
M  V30 145 H 11.7598 1.0594 4.02698 0
M  V30 146 H 14.3568 -1.49182 5.13468 0
M  V30 147 H 14.6998 -2.16085 3.55827 0
M  V30 148 H 15.2328 -0.50682 3.94558 0
M  V30 149 H 11.9718 1.12996 6.45687 0
M  V30 150 H 11.4918 -0.513717 5.97596 0
M  V30 151 H 13.1708 -0.179539 6.46751 0
M  V30 152 N 13.3029 -1.57598 0.00835791 0
M  V30 153 C 14.7139 -1.7892 -0.53333 0
M  V30 154 C 15.0649 -0.916609 -1.73473 0
M  V30 155 O 14.1899 -0.121336 -2.1606 0
M  V30 156 C 14.7849 -3.24488 -0.974313 0
M  V30 157 C 13.3439 -3.46878 -1.46125 0
M  V30 158 C 12.4909 -2.74157 -0.416302 0
M  V30 159 H 15.4419 -1.56958 0.234495 0
M  V30 160 H 15.4629 -3.3306 -1.83988 0
M  V30 161 H 14.9749 -3.87972 -0.099718 0
M  V30 162 H 13.0759 -2.8862 -2.35646 0
M  V30 163 H 13.1889 -4.55572 -1.48295 0
M  V30 164 H 11.5529 -2.39022 -0.87981 0
M  V30 165 H 12.3359 -3.40345 0.44947 0
M  V30 166 N 14.781 0.264519 -1.55364 0
M  V30 167 C 16.197 0.61215 -1.47394 0
M  V30 168 C 16.397 1.89134 -0.695018 0
M  V30 169 O 15.453 2.51563 -0.217275 0
M  V30 170 C 16.766 0.731235 -2.91674 0
M  V30 171 C 18.314 0.82473 -3.01939 0
M  V30 172 C 18.789 0.975522 -4.4749 0
M  V30 173 N 20.28 1.04083 -4.51354 0
M  V30 174 C 21.015 1.17646 -5.61201 0
M  V30 175 N 20.511 1.27874 -6.80896 0
M  V30 176 N 22.304 1.20823 -5.48961 0
M  V30 177 H 14.455 -0.575456 -2.04456 0
M  V30 178 H 16.718 -0.196099 -0.927496 0
M  V30 179 H 16.424 -0.138392 -3.51428 0
M  V30 180 H 16.298 1.60883 -3.41169 0
M  V30 181 H 18.685 1.68482 -2.42276 0
M  V30 182 H 18.766 -0.0776479 -2.55682 0
M  V30 183 H 18.41 0.120058 -5.07758 0
M  V30 184 H 18.34 1.89268 -4.91412 0
M  V30 185 H 20.831 0.973846 -3.65136 0
M  V30 186 H 21.144 1.38081 -7.60364 0
M  V30 187 H 19.489 1.24863 -6.83692 0
M  V30 188 H 22.68 1.12469 -4.54388 0
M  V30 189 H 22.853 1.31049 -6.3461 0
M  V30 190 N 16.2591 1.48442 0.529413 0
M  V30 191 C 17.5081 1.55742 1.28169 0
M  V30 192 C 17.8211 0.236511 1.94165 0
M  V30 193 O 19.0271 0.187761 2.7085 0
M  V30 194 C 17.4831 2.74667 2.32564 0
M  V30 195 C 17.0911 4.13402 1.72636 0
M  V30 196 C 18.8351 2.9128 3.08798 0
M  V30 197 C 16.7421 5.23587 2.74975 0
M  V30 198 H 15.6721 0.579796 0.48203 0
M  V30 199 H 18.3231 1.74776 0.559056 0
M  V30 200 H 16.7051 2.49067 3.07866 0
M  V30 201 H 17.8791 4.49022 1.03519 0
M  V30 202 H 16.1941 4.0191 1.08892 0
M  V30 203 H 18.7911 3.70767 3.85274 0
M  V30 204 H 19.1341 2.00757 3.64695 0
M  V30 205 H 19.6671 3.16782 2.40611 0
M  V30 206 H 16.4061 6.16076 2.23897 0
M  V30 207 H 15.9261 4.92454 3.42417 0
M  V30 208 H 17.6051 5.51724 3.37949 0
M  V30 209 N 17.7372 -0.778329 1.37039 0
M  V30 210 C 18.9652 -1.56734 1.35063 0
M  V30 211 C 19.3802 -1.88686 -0.0655597 0
M  V30 212 O 18.7372 -1.5096 -1.02554 0
M  V30 213 C 18.7882 -2.88163 2.18276 0
M  V30 214 O 18.5092 -2.57583 3.54376 0
M  V30 215 C 20.0102 -3.82422 2.24206 0
M  V30 216 H 17.2302 -0.485778 0.462883 0
M  V30 217 H 19.7742 -0.965185 1.8029 0
M  V30 218 H 17.9292 -3.44818 1.76576 0
M  V30 219 H 18.3432 -3.41699 3.97922 0
M  V30 220 H 19.8172 -4.71667 2.86765 0
M  V30 221 H 20.2942 -4.21078 1.24861 0
M  V30 222 H 20.9002 -3.31697 2.6619 0
M  V30 223 N 19.2153 -1.21501 -1.00376 0
M  V30 224 C 20.4403 -1.05977 -1.78279 0
M  V30 225 C 20.8653 0.385994 -1.84097 0
M  V30 226 O 20.2233 1.27849 -1.28547 0
M  V30 227 C 20.2713 -1.66302 -3.19963 0
M  V30 228 O 19.3753 -0.909333 -4.0225 0
M  V30 229 H 18.7163 -0.372906 -0.549397 0
M  V30 230 H 21.2463 -1.6107 -1.26165 0
M  V30 231 H 21.2563 -1.70574 -3.70632 0
M  V30 232 H 19.9313 -2.71515 -3.15043 0
M  V30 233 H 18.5083 -0.941795 -3.60811 0
M  V30 234 N 20.6934 1.19889 -1.02296 0
M  V30 235 C 21.9704 1.85148 -0.630832 0
M  V30 236 C 22.3504 1.91385 0.890782 0
M  V30 237 O 21.6984 1.42642 1.78509 0
M  V30 238 C 21.9084 3.24442 -1.28602 0
M  V30 239 C 23.2564 4.00663 -1.4055 0
M  V30 240 O 24.2804 3.33818 -1.24273 0
M  V30 241 O 23.1394 5.20387 -1.66913 0
M  V30 242 H 20.2334 0.797613 -0.218499 0
M  V30 243 H 22.7794 1.27427 -1.12074 0
M  V30 244 H 21.5514 3.14704 -2.32545 0
M  V30 245 H 21.1744 3.89802 -0.7836 0
M  V30 246 N 22.1715 0.800033 1.35784 0
M  V30 247 C 23.5875 0.482977 1.52117 0
M  V30 248 C 23.7875 -0.996948 1.75109 0
M  V30 249 O 22.8435 -1.78216 1.78872 0
M  V30 250 C 24.1565 1.32264 2.70049 0
M  V30 251 C 25.7045 1.31742 2.83924 0
M  V30 252 C 26.1795 2.14106 4.04874 0
M  V30 253 N 27.6705 2.11607 4.12039 0
M  V30 254 C 28.4055 2.72099 5.04727 0
M  V30 255 N 27.9015 3.41492 6.02789 0
M  V30 256 N 29.6945 2.61776 4.97423 0
M  V30 257 H 21.8455 1.75856 1.19115 0
M  V30 258 H 24.1085 0.748122 0.582252 0
M  V30 259 H 23.8145 2.37261 2.59616 0
M  V30 260 H 23.6885 0.971303 3.6448 0
M  V30 261 H 26.0755 0.275333 2.93813 0
M  V30 262 H 26.1565 1.70859 1.9037 0
M  V30 263 H 25.8005 3.18351 3.95746 0
M  V30 264 H 25.7305 1.72353 4.97596 0
M  V30 265 H 28.2215 1.61112 3.41835 0
M  V30 266 H 28.5345 3.84953 6.70098 0
M  V30 267 H 26.8795 3.45596 6.02983 0
M  V30 268 H 30.0705 2.07157 4.19766 0
M  V30 269 H 30.2435 3.0921 5.69468 0
M  V30 270 N 23.6496 -1.47581 0.552962 0
M  V30 271 C 24.5796 -2.32762 -0.185451 0
M  V30 272 C 25.5606 -1.43527 -0.912905 0
M  V30 273 O 26.7456 -1.72388 -0.894201 0
M  V30 274 C 23.8756 -3.25219 -1.21859 0
M  V30 275 C 22.8296 -4.23661 -0.607864 0
M  V30 276 C 22.1556 -5.05413 -1.74533 0
M  V30 277 C 23.4556 -5.20481 0.435582 0
M  V30 278 H 25.1496 -2.94749 0.525684 0
M  V30 279 H 22.6956 -1.41738 0.254251 0
M  V30 280 H 24.6486 -3.8365 -1.7433 0
M  V30 281 H 23.3726 -2.61279 -1.95961 0
M  V30 282 H 22.0316 -3.66451 -0.104489 0
M  V30 283 H 21.6796 -4.3788 -2.47529 0
M  V30 284 H 21.3796 -5.72059 -1.34249 0
M  V30 285 H 22.9036 -5.66701 -2.27338 0
M  V30 286 H 24.3176 -5.733 -0.00290157 0
M  V30 287 H 22.7146 -5.95305 0.757067 0
M  V30 288 H 23.7846 -4.66217 1.33303 0
M  V30 289 N 25.1277 -0.289203 -1.54924 0
M  V30 290 C 26.0577 0.58549 -2.2604 0
M  V30 291 C 27.0387 1.14753 -1.25562 0
M  V30 292 O 28.2237 1.17906 -1.54311 0
M  V30 293 C 25.3537 1.76305 -2.99222 0
M  V30 294 C 24.3077 1.33191 -4.06748 0
M  V30 295 C 23.6337 2.5937 -4.6758 0
M  V30 296 C 24.9337 0.471775 -5.20165 0
M  V30 297 H 26.6277 -0.00763532 -2.99399 0
M  V30 298 H 24.1737 -0.00511229 -1.43999 0
M  V30 299 H 26.1267 2.38097 -3.47689 0
M  V30 300 H 24.8507 2.38223 -2.23422 0
M  V30 301 H 23.5097 0.737121 -3.59113 0
M  V30 302 H 23.1577 3.19576 -3.88433 0
M  V30 303 H 22.8577 2.31228 -5.40192 0
M  V30 304 H 24.3817 3.21985 -5.18804 0
M  V30 305 H 25.7957 0.995056 -5.64599 0
M  V30 306 H 24.1927 0.284639 -5.99425 0
M  V30 307 H 25.2627 -0.506041 -4.82252 0
M  V30 308 N 26.6058 1.57591 -0.0167156 0
M  V30 309 C 27.8548 1.90461 0.663877 0
M  V30 310 C 28.1678 0.893515 1.73999 0
M  V30 311 O 29.3738 1.11302 2.47637 0
M  V30 312 C 27.8298 3.38155 1.23204 0
M  V30 313 C 27.4378 4.47597 0.189866 0
M  V30 314 C 29.1818 3.80111 1.88986 0
M  V30 315 C 27.0888 5.86379 0.768964 0
M  V30 316 H 26.0188 0.710738 0.251729 0
M  V30 317 H 28.6698 1.83326 -0.0799926 0
M  V30 318 H 27.0518 3.40182 2.02712 0
M  V30 319 H 28.2258 4.57112 -0.581846 0
M  V30 320 H 26.5408 4.14766 -0.368475 0
M  V30 321 H 29.1378 4.81145 2.33247 0
M  V30 322 H 29.4808 3.14511 2.72743 0
M  V30 323 H 30.0138 3.80454 1.16187 0
M  V30 324 H 26.7528 6.55493 -0.0301957 0
M  V30 325 H 26.2728 5.80496 1.50945 0
M  V30 326 H 27.9518 6.34563 1.26251 0
M  V30 327 N 28.0839 -0.256276 1.55502 0
M  V30 328 C 29.0309 -1.31714 1.89526 0
M  V30 329 C 30.0009 -1.4828 0.748479 0
M  V30 330 O 31.1859 -1.62416 1.00128 0
M  V30 331 C 28.3259 -2.66933 2.18725 0
M  V30 332 C 27.4389 -2.58452 3.4616 0
M  V30 333 C 26.5739 -3.85961 3.64976 0
M  V30 334 C 25.6129 -3.72059 4.86044 0
M  V30 335 N 24.7499 -4.9144 5.01429 0
M  V30 336 H 29.5899 -1.01998 2.80001 0
M  V30 337 H 27.1269 -0.492413 1.38613 0
M  V30 338 H 29.0849 -3.4563 2.33657 0
M  V30 339 H 27.7149 -2.94816 1.31466 0
M  V30 340 H 26.7669 -1.71374 3.3961 0
M  V30 341 H 28.0789 -2.44085 4.34999 0
M  V30 342 H 27.2329 -4.73101 3.79816 0
M  V30 343 H 25.9719 -4.03215 2.74353 0
M  V30 344 H 24.9769 -2.83302 4.7119 0
M  V30 345 H 26.2019 -3.56309 5.78118 0
M  V30 346 H 24.1479 -5.09072 4.13741 0
M  V30 347 H 24.0649 -4.79668 5.84341 0
M  V30 348 H 25.3329 -5.80104 5.20672 0
M  V30 349 N 29.562 -1.4872 -0.521534 0
M  V30 350 C 30.81 -1.56857 -1.27437 0
M  V30 351 C 31.131 -0.247982 -1.93417 0
M  V30 352 O 30.401 0.731151 -1.81744 0
M  V30 353 H 28.981 -0.577885 -0.473347 0
M  V30 354 H 31.643 -1.85233 -0.606205 0
M  V30 355 H 30.739 -2.35402 -2.0492 0
M  V30 356 N 31.0401 0.771051 -1.3745 0
M  V30 357 C 32.2881 1.52661 -1.32435 0
M  V30 358 C 32.6091 1.9479 0.0905024 0
M  V30 359 O 31.8791 1.66348 1.03466 0
M  V30 360 H 30.4591 0.566218 -0.487244 0
M  V30 361 H 33.1211 0.917636 -1.71946 0
M  V30 362 H 32.2171 2.42568 -1.96385 0
M  V30 363 N 32.5182 1.22032 0.997298 0
M  V30 364 C 33.4652 0.986467 2.08656 0
M  V30 365 C 34.4352 -0.0902671 1.65855 0
M  V30 366 O 35.6202 0.0584294 1.90711 0
M  V30 367 C 32.7602 0.565569 3.40434 0
M  V30 368 C 31.8732 1.71259 3.96604 0
M  V30 369 C 31.0082 1.24011 5.16522 0
M  V30 370 C 30.0472 2.35896 5.64818 0
M  V30 371 N 29.1842 1.89726 6.7598 0
M  V30 372 H 34.0242 1.91892 2.27994 0
M  V30 373 H 31.5612 0.956199 1.11782 0
M  V30 374 H 33.5192 0.302738 4.161 0
M  V30 375 H 32.1492 -0.329879 3.2111 0
M  V30 376 H 31.2012 2.08986 3.17851 0
M  V30 377 H 32.5132 2.55436 4.28432 0
M  V30 378 H 31.6672 0.934395 5.99461 0
M  V30 379 H 30.4062 0.368487 4.86306 0
M  V30 380 H 29.4112 2.67261 4.8047 0
M  V30 381 H 30.6362 3.23567 5.97061 0
M  V30 382 H 28.5822 1.0492 6.47555 0
M  V30 383 H 28.4992 2.67471 7.07103 0
M  V30 384 H 29.7672 1.62211 7.62435 0
M  V30 385 N 33.9963 -1.19345 1.0293 0
M  V30 386 C 35.2453 -1.88363 0.721256 0
M  V30 387 C 35.5583 -1.80514 -0.753254 0
M  V30 388 O 36.7643 -2.44788 -1.17436 0
M  V30 389 C 35.2203 -3.37872 1.23978 0
M  V30 390 C 34.8283 -3.54278 2.74211 0
M  V30 391 C 36.5723 -4.12365 1.00775 0
M  V30 392 C 34.4793 -4.97682 3.19479 0
M  V30 393 H 33.4093 -0.705484 0.266098 0
M  V30 394 H 36.0603 -1.34928 1.24365 0
M  V30 395 H 34.4423 -3.90707 0.6453 0
M  V30 396 H 35.6163 -3.11769 3.39318 0
M  V30 397 H 33.9313 -2.93174 2.95699 0
M  V30 398 H 36.5283 -5.18119 1.32123 0
M  V30 399 H 36.8713 -4.16263 -0.0554308 0
M  V30 400 H 37.4043 -3.65668 1.56625 0
M  V30 401 H 34.1433 -4.98945 4.25128 0
M  V30 402 H 33.6633 -5.4095 2.591 0
M  V30 403 H 35.3423 -5.66337 3.12845 0
M  V30 404 N 35.4744 -0.807222 -1.35358 0
M  V30 405 C 36.7204 -0.388463 -1.99045 0
M  V30 406 C 37.0534 1.04184 -1.63888 0
M  V30 407 O 36.3284 1.72292 -0.902535 0
M  V30 408 C 36.6114 -0.572783 -3.55515 0
M  V30 409 C 36.4644 -2.04807 -4.00468 0
M  V30 410 C 37.7834 0.00114064 -4.401 0
M  V30 411 H 34.9024 -0.142619 -0.723069 0
M  V30 412 H 37.5444 -1.01687 -1.60498 0
M  V30 413 H 35.6944 -0.0378425 -3.88482 0
M  V30 414 H 37.3664 -2.64544 -3.77908 0
M  V30 415 H 35.6094 -2.54427 -3.51353 0
M  V30 416 H 36.2804 -2.12792 -5.09337 0
M  V30 417 H 38.7564 -0.455716 -4.13597 0
M  V30 418 H 37.6324 -0.157737 -5.48673 0
M  V30 419 H 37.8934 1.09488 -4.28328 0
M  V30 420 N 36.9525 1.47285 -0.560781 0
M  V30 421 C 37.9005 2.31756 0.197942 0
M  V30 422 C 38.8945 1.43146 0.905854 0
M  V30 423 O 40.1005 1.59891 0.826733 0
M  V30 424 H 36.4755 0.747438 0.0827049 0
M  V30 425 H 38.4465 2.9359 -0.533629 0
M  V30 426 C 37.1955 3.25874 1.21249 0
M  V30 427 H 36.5185 3.94023 0.67719 0
M  V30 428 H 37.9585 3.87803 1.71419 0
M  V30 429 C 36.4175 2.49651 2.26221 0
M  V30 430 O 36.9475 2.24355 3.33208 0
M  V30 431 N 35.1535 2.10597 2.00243 0
M  V30 432 H 34.7005 2.31369 1.13252 0
M  V30 433 H 34.6585 1.59913 2.70694 0
M  V30 434 N 38.4306 0.297415 1.54768 0
M  V30 435 C 39.7076 -0.365847 1.92148 0
M  V30 436 C 40.0876 -1.71975 1.22424 0
M  V30 437 O 39.4356 -2.25666 0.358739 0
M  V30 438 C 39.6456 -0.484056 3.45627 0
M  V30 439 C 40.9936 -0.756594 4.17805 0
M  V30 440 O 42.0176 -0.568007 3.51642 0
M  V30 441 O 40.8766 -1.11863 5.34929 0
M  V30 442 H 37.9706 -0.203919 0.801465 0
M  V30 443 H 40.5166 0.34521 1.66152 0
M  V30 444 H 39.2886 0.467865 3.88493 0
M  V30 445 H 38.9116 -1.24372 3.77647 0
M  V30 446 N 39.9087 -1.5758 0.0250728 0
M  V30 447 C 41.1857 -1.82917 -0.692873 0
M  V30 448 C 41.5657 -0.908137 -1.90568 0
M  V30 449 O 40.9137 0.0372298 -2.2847 0
M  V30 450 C 41.1237 -3.32034 -1.07492 0
M  V30 451 C 42.4717 -3.98406 -1.46826 0
M  V30 452 O 43.4957 -3.36505 -1.16801 0
M  V30 453 O 42.3547 -5.07497 -2.02754 0
M  V30 454 H 39.4487 -0.754079 -0.33955 0
M  V30 455 H 41.9947 -1.69619 0.0524456 0
M  V30 456 H 40.7667 -3.90728 -0.211552 0
M  V30 457 H 40.3897 -3.50424 -1.87854 0
M  V30 458 N 41.3868 0.248026 -1.55636 0
M  V30 459 C 42.3188 1.32993 -1.8667 0
M  V30 460 C 43.3318 1.44345 -0.752877 0
M  V30 461 O 44.5208 1.45715 -1.03098 0
M  V30 462 C 41.6208 2.70863 -2.03682 0
M  V30 463 C 40.7938 2.81792 -3.34532 0
M  V30 464 C 39.8528 4.005 -3.41301 0
M  V30 465 O 38.8788 3.9008 -4.14519 0
M  V30 466 N 40.0808 5.13618 -2.70512 0
M  V30 467 H 42.8458 1.06707 -2.8006 0
M  V30 468 H 40.4068 0.438129 -1.55859 0
M  V30 469 H 42.3988 3.48612 -2.05553 0
M  V30 470 H 40.9688 2.89862 -1.17041 0
M  V30 471 H 40.1888 1.90729 -3.44987 0
M  V30 472 H 41.4768 2.86043 -4.20781 0
M  V30 473 H 40.8748 5.24975 -2.10755 0
M  V30 474 H 39.4318 5.89505 -2.78077 0
M  V30 475 N 42.8649 1.48995 0.513639 0
M  V30 476 C 44.0899 1.61792 1.29762 0
M  V30 477 C 44.5149 0.284475 1.85936 0
M  V30 478 O 43.8729 -0.746185 1.65232 0
M  V30 479 C 43.9209 2.67993 2.41272 0
M  V30 480 O 43.0249 2.26287 3.44772 0
M  V30 481 H 42.3659 0.541963 0.38363 0
M  V30 482 H 44.8959 1.95097 0.616307 0
M  V30 483 H 44.9059 2.89772 2.87221 0
M  V30 484 H 43.5809 3.64791 1.9975 0
M  V30 485 H 42.1579 2.14788 3.04829 0
M  V30 486 N 44.343 -0.763751 1.37857 0
M  V30 487 C 45.59 -1.52257 1.33506 0
M  V30 488 C 45.918 -1.94343 -0.078022 0
M  V30 489 O 45.173 -1.64958 -1.05297 0
M  V30 490 C 45.472 -2.79499 2.22745 0
M  V30 491 C 45.138 -2.56426 3.70886 0
M  V30 492 C 43.8 -2.49842 4.11257 0
M  V30 493 C 46.152 -2.36008 4.64704 0
M  V30 494 C 43.48 -2.20841 5.43549 0
M  V30 495 C 45.832 -2.0853 5.97242 0
M  V30 496 C 44.496 -2.00396 6.36709 0
M  V30 497 H 43.766 -0.557149 0.488534 0
M  V30 498 H 46.413 -0.879073 1.70131 0
M  V30 499 H 44.718 -3.48447 1.79142 0
M  V30 500 H 46.415 -3.37413 2.16688 0
M  V30 501 H 43.005 -2.62416 3.38874 0
M  V30 502 H 47.189 -2.40079 4.34368 0
M  V30 503 H 42.445 -2.13045 5.73081 0
M  V30 504 H 46.619 -1.91732 6.69486 0
M  V30 505 H 44.246 -1.77688 7.39142 0
M  V30 506 N 45.8211 -1.22559 -0.990812 0
M  V30 507 C 47.0511 -1.07623 -1.76355 0
M  V30 508 C 47.4591 0.37601 -1.85426 0
M  V30 509 O 46.8021 1.27228 -1.32509 0
M  V30 510 C 46.8641 -1.61507 -3.21179 0
M  V30 511 C 46.5281 -3.10146 -3.35646 0
M  V30 512 C 47.5251 -4.07553 -3.22796 0
M  V30 513 C 45.2101 -3.49644 -3.60631 0
M  V30 514 C 47.2041 -5.42442 -3.34716 0
M  V30 515 C 44.8911 -4.84682 -3.72192 0
M  V30 516 C 45.8891 -5.8089 -3.59243 0
M  V30 517 O 45.5771 -7.13476 -3.70415 0
M  V30 518 H 45.3091 -0.377745 -0.560611 0
M  V30 519 H 47.8631 -1.62658 -1.25425 0
M  V30 520 H 46.0931 -1.00881 -3.73309 0
M  V30 521 H 47.7821 -1.42202 -3.80175 0
M  V30 522 H 48.5481 -3.78381 -3.03403 0
M  V30 523 H 44.4271 -2.75282 -3.69785 0
M  V30 524 H 47.9711 -6.17518 -3.24526 0
M  V30 525 H 43.8681 -5.13534 -3.91092 0
M  V30 526 H 44.6361 -7.21083 -3.87275 0
M  V30 527 N 47.2992 1.18797 -1.03562 0
M  V30 528 C 48.2622 2.20464 -0.626769 0
M  V30 529 C 49.2622 1.57721 0.313173 0
M  V30 530 O 50.4522 1.73917 0.0992615 0
M  V30 531 C 47.5842 3.40802 0.0818498 0
M  V30 532 H 48.7772 2.58149 -1.5264 0
M  V30 533 H 46.3302 1.32593 -0.827578 0
M  V30 534 H 47.0652 3.08642 0.995518 0
M  V30 535 H 46.8502 3.8758 -0.593652 0
M  V30 536 H 48.3402 4.16092 0.354584 0
M  V30 537 N 48.7773 0.814389 1.34928 0
M  V30 538 C 50.0543 0.321363 1.92942 0
M  V30 539 C 50.4343 -1.19014 1.74353 0
M  V30 540 O 49.7823 -1.99328 1.11716 0
M  V30 541 C 49.9923 0.741323 3.41036 0
M  V30 542 C 51.3403 0.735266 4.18185 0
M  V30 543 O 52.3643 0.68336 3.49584 0
M  V30 544 O 51.2233 0.800703 5.40602 0
M  V30 545 H 48.3173 0.0858893 0.822528 0
M  V30 546 H 50.8633 0.898609 1.43955 0
M  V30 547 H 49.6353 1.78276 3.4833 0
M  V30 548 H 49.2583 0.139307 3.97356 0
M  V30 549 N 50.2554 -1.46986 0.568584 0
M  V30 550 C 51.5044 -2.01646 0.0465894 0
M  V30 551 C 51.8174 -1.44721 -1.31587 0
M  V30 552 O 53.0234 -1.91113 -1.92842 0
M  V30 553 C 51.4794 -3.59885 0.032752 0
M  V30 554 C 51.0874 -4.25804 1.39266 0
M  V30 555 C 52.8314 -4.22255 -0.436038 0
M  V30 556 C 50.7384 -5.76081 1.33732 0
M  V30 557 H 49.6684 -0.753876 0.013647 0
M  V30 558 H 52.3194 -1.68864 0.718131 0
M  V30 559 H 50.7014 -3.8968 -0.704669 0
M  V30 560 H 51.8754 -4.07637 2.1487 0
M  V30 561 H 50.1904 -3.7547 1.80032 0
M  V30 562 H 52.7874 -5.32394 -0.49602 0
M  V30 563 H 53.1304 -3.90212 -1.45053 0
M  V30 564 H 53.6634 -3.97033 0.246877 0
M  V30 565 H 50.4024 -6.12761 2.32817 0
M  V30 566 H 49.9224 -5.96553 0.623267 0
M  V30 567 H 51.6014 -6.38518 1.0442 0
M  V30 568 N 51.7335 -0.305618 -1.54608 0
M  V30 569 C 52.9635 0.304333 -2.04346 0
M  V30 570 C 53.3715 1.47715 -1.18224 0
M  V30 571 O 52.7145 1.82591 -0.201577 0
M  V30 572 C 52.7765 0.819031 -3.50046 0
M  V30 573 C 52.4405 -0.22912 -4.56425 0
M  V30 574 C 53.4375 -1.05914 -5.08997 0
M  V30 575 C 51.1225 -0.372148 -5.0092 0
M  V30 576 C 53.1165 -2.01809 -6.04609 0
M  V30 577 C 50.8035 -1.33454 -5.9635 0
M  V30 578 C 51.8015 -2.15599 -6.48079 0
M  V30 579 O 51.4895 -3.10205 -7.41639 0
M  V30 580 H 51.2215 0.0693996 -0.672428 0
M  V30 581 H 53.7755 -0.444548 -2.00532 0
M  V30 582 H 52.0055 1.61852 -3.51199 0
M  V30 583 H 53.6945 1.34537 -3.82955 0
M  V30 584 H 54.4605 -0.959538 -4.75413 0
M  V30 585 H 50.3395 0.257304 -4.60281 0
M  V30 586 H 53.8835 -2.65966 -6.44909 0
M  V30 587 H 49.7805 -1.43485 -6.29351 0
M  V30 588 H 50.5485 -3.05237 -7.59455 0
M  V30 589 N 53.2116 1.57565 -0.0334293 0
M  V30 590 C 54.1446 2.05997 0.981866 0
M  V30 591 C 55.1226 0.956647 1.3148 0
M  V30 592 O 56.3066 1.22729 1.43073 0
M  V30 593 C 53.4336 2.48564 2.30074 0
M  V30 594 C 52.4796 3.69958 2.12211 0
M  V30 595 S 53.3126 5.16414 1.41692 0
M  V30 596 C 54.4686 5.6228 2.7494 0
M  V30 597 H 54.7016 2.91792 0.569612 0
M  V30 598 H 52.2346 1.53366 0.178376 0
M  V30 599 H 54.1926 2.73753 3.05892 0
M  V30 600 H 52.8536 1.63106 2.68431 0
M  V30 601 H 52.0466 3.97603 3.09722 0
M  V30 602 H 51.6486 3.44943 1.44535 0
M  V30 603 H 53.9406 5.66783 3.71165 0
M  V30 604 H 54.8836 6.61759 2.51953 0
M  V30 605 H 55.2916 4.89944 2.80384 0
M  V30 606 N 54.6897 -0.239769 1.55765 0
M  V30 607 C 55.5997 -1.31831 1.94056 0
M  V30 608 C 56.6157 -1.52275 0.841925 0
M  V30 609 O 57.7917 -1.65759 1.14394 0
M  V30 610 C 54.8567 -2.65156 2.23368 0
M  V30 611 C 53.9177 -2.53173 3.46701 0
M  V30 612 C 53.1507 -3.8014 3.74606 0
M  V30 613 O 53.3737 -4.82343 3.04469 0
M  V30 614 O 52.3077 -3.78344 4.68123 0
M  V30 615 H 56.1337 -1.02347 2.85935 0
M  V30 616 H 53.7187 -0.441123 1.42739 0
M  V30 617 H 55.6007 -3.43929 2.43497 0
M  V30 618 H 54.2757 -2.94358 1.34666 0
M  V30 619 H 53.1827 -1.72662 3.31871 0
M  V30 620 H 54.5157 -2.28915 4.35728 0
M  V30 621 N 56.1678 -1.49265 -0.50573 0
M  V30 622 C 57.4448 -1.49012 -1.26707 0
M  V30 623 C 57.8248 -0.215205 -2.1 0
M  V30 624 O 57.1728 0.802547 -2.13943 0
M  V30 625 C 57.3828 -2.7663 -2.12783 0
M  V30 626 C 58.7308 -3.25932 -2.72127 0
M  V30 627 O 59.7548 -2.77715 -2.23054 0
M  V30 628 O 58.6138 -4.09897 -3.61451 0
M  V30 629 H 55.7078 -0.596197 -0.57313 0
M  V30 630 H 58.2538 -1.61524 -0.52039 0
M  V30 631 H 57.0258 -3.60916 -1.5118 0
M  V30 632 H 56.6488 -2.66956 -2.94653 0
M  V30 633 N 57.6459 0.756429 -1.3826 0
M  V30 634 C 58.8939 1.51248 -1.34047 0
M  V30 635 C 59.2149 1.94875 0.0698372 0
M  V30 636 O 58.4849 1.67436 1.01696 0
M  V30 637 H 57.0649 0.561018 -0.493222 0
M  V30 638 H 59.7269 0.899347 -1.7291 0
M  V30 639 H 58.8229 2.40472 -1.98947 0
M  V30 640 N 59.124 1.23083 0.984299 0
M  V30 641 C 60.054 1.03292 2.09411 0
M  V30 642 C 61.035 -0.048923 1.7003 0
M  V30 643 O 62.22 0.114967 1.93859 0
M  V30 644 C 59.35 0.619155 3.41736 0
M  V30 645 C 58.304 1.64791 3.95004 0
M  V30 646 C 57.63 1.0897 5.23478 0
M  V30 647 C 58.93 3.03999 4.24714 0
M  V30 648 H 60.624 1.96119 2.26225 0
M  V30 649 H 58.17 0.944344 1.08711 0
M  V30 650 H 60.123 0.467777 4.18796 0
M  V30 651 H 58.847 -0.344786 3.24775 0
M  V30 652 H 57.506 1.78721 3.20085 0
M  V30 653 H 57.154 0.11686 5.02864 0
M  V30 654 H 56.854 1.77704 5.60085 0
M  V30 655 H 58.378 0.950093 6.03163 0
M  V30 656 H 59.792 2.93393 4.92538 0
M  V30 657 H 58.189 3.69936 4.72512 0
M  V30 658 H 59.259 3.53285 3.32142 0
M  V30 659 N 60.6021 -1.18246 1.0419 0
M  V30 660 C 61.8511 -1.87588 0.741194 0
M  V30 661 C 62.1641 -1.81303 -0.734066 0
M  V30 662 O 63.3701 -2.46019 -1.14834 0
M  V30 663 C 61.8261 -3.36538 1.27555 0
M  V30 664 C 61.4341 -3.51349 2.77953 0
M  V30 665 C 63.1781 -4.11273 1.05143 0
M  V30 666 C 61.0851 -4.94265 3.2474 0
M  V30 667 H 60.0151 -0.702622 0.273565 0
M  V30 668 H 62.6661 -1.33601 1.25789 0
M  V30 669 H 61.0481 -3.9 0.686703 0
M  V30 670 H 62.2221 -3.08153 3.42605 0
M  V30 671 H 60.5371 -2.90022 2.98791 0
M  V30 672 H 63.1341 -5.16689 1.37611 0
M  V30 673 H 63.4771 -4.16298 -0.0112774 0
M  V30 674 H 64.0101 -3.63987 1.60495 0
M  V30 675 H 60.7491 -4.94408 4.30396 0
M  V30 676 H 60.2691 -5.38172 2.64823 0
M  V30 677 H 61.9481 -5.62987 3.18834 0
M  V30 678 N 62.0802 -0.821533 -1.34494 0
M  V30 679 C 63.0272 -0.240397 -2.29545 0
M  V30 680 C 63.9972 0.634031 -1.53523 0
M  V30 681 O 65.1822 0.575966 -1.81899 0
M  V30 682 C 62.3222 0.592869 -3.39969 0
M  V30 683 C 61.4352 -0.30365 -4.30932 0
M  V30 684 C 60.5702 0.539049 -5.28458 0
M  V30 685 C 59.6092 -0.356942 -6.11058 0
M  V30 686 N 58.7462 0.446603 -7.00678 0
M  V30 687 H 63.5862 -1.05632 -2.7865 0
M  V30 688 H 61.1232 -0.532413 -1.37127 0
M  V30 689 H 63.0812 1.09129 -4.02675 0
M  V30 690 H 61.7112 1.37392 -2.92102 0
M  V30 691 H 60.7632 -0.920276 -3.691 0
M  V30 692 H 62.0752 -0.992661 -4.88823 0
M  V30 693 H 61.2292 1.102 -5.96608 0
M  V30 694 H 59.9682 1.26157 -4.71101 0
M  V30 695 H 58.9732 -0.932047 -5.41842 0
M  V30 696 H 60.1982 -1.07755 -6.70497 0
M  V30 697 H 58.1442 1.15282 -6.45791 0
M  V30 698 H 58.0612 -0.184048 -7.55776 0
M  V30 699 H 59.3292 0.992352 -7.73158 0
M  V30 700 N 63.5583 1.46682 -0.576371 0
M  V30 701 C 64.4903 2.28341 0.198231 0
M  V30 702 C 65.5033 1.38141 0.861453 0
M  V30 703 O 66.6923 1.62797 0.732082 0
M  V30 704 C 63.7923 3.12986 1.29972 0
M  V30 705 C 62.9653 4.31271 0.729639 0
M  V30 706 C 62.0243 4.97363 1.71803 0
M  V30 707 O 61.0503 5.55156 1.25658 0
M  V30 708 N 62.2523 4.93796 3.05198 0
M  V30 709 H 65.0173 2.9546 -0.502324 0
M  V30 710 H 62.5783 1.56525 -0.413715 0
M  V30 711 H 64.5703 3.54066 1.96008 0
M  V30 712 H 63.1403 2.47984 1.90323 0
M  V30 713 H 62.3603 3.94052 -0.108012 0
M  V30 714 H 63.6483 5.07739 0.328438 0
M  V30 715 H 63.0463 4.48077 3.45317 0
M  V30 716 H 61.6033 5.38837 3.6674 0
M  V30 717 N 65.0364 0.313813 1.54444 0
M  V30 718 C 66.2854 -0.292519 1.99568 0
M  V30 719 C 66.5984 -1.54011 1.20582 0
M  V30 720 O 67.8044 -2.22183 1.56035 0
M  V30 721 C 66.2604 -0.571752 3.55329 0
M  V30 722 C 65.8684 0.658229 4.43138 0
M  V30 723 C 67.6124 -1.13857 4.08946 0
M  V30 724 C 65.5194 0.351439 5.90355 0
M  V30 725 H 64.4494 -0.113079 0.745472 0
M  V30 726 H 67.1004 0.424518 1.78522 0
M  V30 727 H 65.4824 -1.34872 3.72325 0
M  V30 728 H 66.6564 1.43403 4.37918 0
M  V30 729 H 64.9714 1.14458 4.0036 0
M  V30 730 H 67.5684 -1.38257 5.16516 0
M  V30 731 H 67.9114 -2.08489 3.6033 0
M  V30 732 H 68.4444 -0.423015 3.95544 0
M  V30 733 H 65.1834 1.26667 6.43145 0
M  V30 734 H 64.7034 -0.386842 5.98551 0
M  V30 735 H 66.3824 -0.0423134 6.46986 0
M  V30 736 N 66.5145 -1.57545 0.0417849 0
M  V30 737 C 67.7625 -1.91937 -0.632829 0
M  V30 738 C 68.0835 -0.919978 -1.71934 0
M  V30 739 O 67.3535 0.0366064 -1.95866 0
M  V30 740 H 65.9335 -0.708493 -0.236742 0
M  V30 741 H 68.5955 -1.9468 0.0925745 0
M  V30 742 H 67.6915 -2.92912 -1.07746 0
M  V30 743 N 67.9926 0.231505 -1.5589 0
M  V30 744 C 68.9026 1.308 -1.94752 0
M  V30 745 C 69.9186 1.51826 -0.849989 0
M  V30 746 O 71.0946 1.6515 -1.15271 0
M  V30 747 C 68.1596 2.63968 -2.24771 0
M  V30 748 C 67.2206 2.51331 -3.48039 0
M  V30 749 C 66.4536 3.78148 -3.76616 0
M  V30 750 O 66.6766 4.80722 -3.07022 0
M  V30 751 O 65.6106 3.75857 -4.70123 0
M  V30 752 H 69.4366 1.0083 -2.86474 0
M  V30 753 H 67.0216 0.433547 -1.42971 0
M  V30 754 H 68.9036 3.42633 -2.45318 0
M  V30 755 H 67.5786 2.9364 -1.36225 0
M  V30 756 H 66.4856 1.709 -3.32782 0
M  V30 757 H 67.8186 2.26601 -4.36936 0
M  V30 758 N 69.4707 1.49531 0.497807 0
M  V30 759 C 70.4187 1.66926 1.61983 0
M  V30 760 C 71.4127 0.535167 1.60724 0
M  V30 761 O 72.6187 0.714896 1.65195 0
M  V30 762 H 68.9937 0.526415 0.537021 0
M  V30 763 H 70.9647 2.61098 1.44465 0
M  V30 764 C 69.7137 1.75602 3.00099 0
M  V30 765 H 69.0367 2.62244 3.01775 0
M  V30 766 H 70.4767 1.91807 3.78135 0
M  V30 767 C 68.9357 0.501543 3.33146 0
M  V30 768 O 69.4657 -0.371342 3.9998 0
M  V30 769 N 67.6717 0.363531 2.88317 0
M  V30 770 H 67.2187 1.07485 2.34104 0
M  V30 771 H 67.1767 -0.474728 3.10795 0
M  V30 772 N 70.9488 -0.749086 1.3866 0
M  V30 773 C 71.8788 -1.8764 1.38973 0
M  V30 774 C 72.8598 -1.68178 0.255004 0
M  V30 775 O 74.0448 -1.88704 0.458754 0
M  V30 776 C 71.1748 -3.25222 1.21851 0
M  V30 777 C 70.1288 -3.59295 2.32575 0
M  V30 778 C 69.4548 -4.95663 2.00555 0
M  V30 779 C 70.7548 -3.63709 3.7485 0
M  V30 780 H 72.4488 -1.87635 2.3331 0
M  V30 781 H 69.9948 -0.901329 1.12303 0
M  V30 782 H 71.9478 -4.03746 1.20695 0
M  V30 783 H 70.6718 -3.25719 0.239775 0
M  V30 784 H 69.3308 -2.83093 2.32925 0
M  V30 785 H 68.9788 -4.92724 1.01154 0
M  V30 786 H 68.6788 -5.19429 2.74714 0
M  V30 787 H 70.2028 -5.7656 2.01024 0
M  V30 788 H 71.6168 -4.32338 3.76506 0
M  V30 789 H 70.0138 -3.98986 4.48252 0
M  V30 790 H 71.0838 -2.63834 4.06841 0
M  V30 791 N 72.4269 -1.23603 -0.977757 0
M  V30 792 C 73.6759 -1.06377 -1.71368 0
M  V30 793 C 73.9889 0.399062 -1.91486 0
M  V30 794 O 75.1949 0.691312 -2.62551 0
M  V30 795 C 73.6509 -1.85512 -3.08404 0
M  V30 796 C 73.2589 -3.36141 -2.96164 0
M  V30 797 C 75.0029 -1.76783 -3.85938 0
M  V30 798 C 72.9099 -4.07659 -4.28449 0
M  V30 799 H 71.8399 -0.394452 -0.642591 0
M  V30 800 H 74.4909 -1.47594 -1.09034 0
M  V30 801 H 72.8729 -1.37103 -3.71509 0
M  V30 802 H 74.0469 -3.92056 -2.42133 0
M  V30 803 H 72.3619 -3.45712 -2.32104 0
M  V30 804 H 74.9589 -2.27526 -4.83876 0
M  V30 805 H 75.3019 -0.731116 -4.0983 0
M  V30 806 H 75.8349 -2.22818 -3.2954 0
M  V30 807 H 72.5739 -5.11648 -4.09752 0
M  V30 808 H 72.0939 -3.5653 -4.82334 0
M  V30 809 H 73.7729 -4.141 -4.97122 0
M  V30 810 N 73.905 1.17692 -1.04816 0
M  V30 811 C 75.151 1.88137 -0.75711 0
M  V30 812 C 75.484 1.80604 0.713841 0
M  V30 813 O 74.759 1.21146 1.52164 0
M  V30 814 C 75.042 3.38318 -1.2334 0
M  V30 815 C 74.895 3.54622 -2.76701 0
M  V30 816 C 76.214 4.32214 -0.829415 0
M  V30 817 H 73.333 0.683163 -0.27651 0
M  V30 818 H 75.975 1.38424 -1.30149 0
M  V30 819 H 74.125 3.80787 -0.770286 0
M  V30 820 H 75.797 3.21194 -3.31107 0
M  V30 821 H 74.04 2.97026 -3.16161 0
M  V30 822 H 74.711 4.60028 -3.05088 0
M  V30 823 H 77.187 3.97565 -1.22805 0
M  V30 824 H 76.063 5.35838 -1.19033 0
M  V30 825 H 76.324 4.41294 0.266891 0
M  V30 826 N 75.3831 0.828654 1.34056 0
M  V30 827 C 76.7941 0.477534 1.8049 0
M  V30 828 C 77.1451 -1.00258 1.6865 0
M  V30 829 O 76.2701 -1.78057 1.22982 0
M  V30 830 C 76.8651 0.860018 3.27703 0
M  V30 831 C 75.4241 0.561185 3.72193 0
M  V30 832 C 74.5711 1.07385 2.55663 0
M  V30 833 H 77.5221 1.0183 1.21722 0
M  V30 834 H 77.5431 0.166038 3.80138 0
M  V30 835 H 77.0551 1.93731 3.36288 0
M  V30 836 H 75.1561 -0.506465 3.69142 0
M  V30 837 H 75.2691 1.10926 4.66082 0
M  V30 838 H 73.6331 0.495149 2.49841 0
M  V30 839 H 74.4161 2.15771 2.67016 0
M  V30 840 N 76.8612 -1.46375 0.584142 0
M  V30 841 C 78.1092 -2.01978 0.0701287 0
M  V30 842 C 78.4302 -1.4579 -1.295 0
M  V30 843 O 77.7002 -0.64314 -1.85042 0
M  V30 844 H 76.2802 -0.746648 0.0229345 0
M  V30 845 H 78.9422 -1.79461 0.760245 0
M  V30 846 H 78.0382 -3.121 0.0022064 0
M  V30 847 N 78.3393 -0.321999 -1.54275 0
M  V30 848 C 79.5873 0.280489 -2.00144 0
M  V30 849 C 79.9083 1.52777 -1.21178 0
M  V30 850 O 79.1783 1.9338 -0.313187 0
M  V30 851 H 77.7583 0.106632 -0.73935 0
M  V30 852 H 80.4203 -0.438184 -1.8991 0
M  V30 853 H 79.5163 0.537972 -3.07428 0
M  V30 854 N 79.8174 1.5752 -0.0501392 0
M  V30 855 C 81.0634 1.92936 0.624798 0
M  V30 856 C 81.3964 0.928685 1.70555 0
M  V30 857 O 80.6714 -0.0454779 1.94447 0
M  V30 858 C 80.9544 3.38737 1.22185 0
M  V30 859 C 80.8074 4.49552 0.149218 0
M  V30 860 C 82.1264 3.84913 2.13378 0
M  V30 861 H 79.2454 0.701604 0.225657 0
M  V30 862 H 81.8874 1.89671 -0.111693 0
M  V30 863 H 80.0374 3.4165 1.84953 0
M  V30 864 H 81.7094 4.58768 -0.482648 0
M  V30 865 H 79.9524 4.30638 -0.522841 0
M  V30 866 H 80.6234 5.48653 0.606966 0
M  V30 867 H 83.0994 3.8387 1.60572 0
M  V30 868 H 81.9754 4.87584 2.52097 0
M  V30 869 H 82.2364 3.21611 3.03346 0
M  V30 870 N 81.2955 -0.223234 1.56011 0
M  V30 871 C 82.2425 -1.27664 1.92277 0
M  V30 872 C 83.2125 -1.46659 0.779763 0
M  V30 873 O 84.3975 -1.60256 1.03551 0
M  V30 874 C 81.5375 -2.62234 2.24338 0
M  V30 875 C 80.6505 -2.51051 3.51564 0
M  V30 876 C 79.7855 -3.78133 3.7308 0
M  V30 877 C 78.8245 -3.61665 4.93827 0
M  V30 878 N 77.9615 -4.80693 5.11741 0
M  V30 879 H 82.8015 -0.960358 2.82101 0
M  V30 880 H 80.3385 -0.462901 1.39627 0
M  V30 881 H 82.2965 -3.40596 2.40936 0
M  V30 882 H 80.9265 -2.91961 1.3769 0
M  V30 883 H 79.9785 -1.64132 3.43169 0
M  V30 884 H 81.2905 -2.34803 4.40079 0
M  V30 885 H 80.4445 -4.64938 3.89766 0
M  V30 886 H 79.1835 -3.97304 2.82844 0
M  V30 887 H 78.1885 -2.73244 4.77093 0
M  V30 888 H 79.4135 -3.43966 5.85546 0
M  V30 889 H 77.3595 -5.00181 4.24446 0
M  V30 890 H 77.2765 -4.67165 5.94384 0
M  V30 891 H 78.5445 -5.6893 5.3286 0
M  V30 892 N 82.7736 -1.49793 -0.48987 0
M  V30 893 C 84.0016 -1.63568 -1.26701 0
M  V30 894 C 84.4166 -0.311465 -1.86213 0
M  V30 895 O 83.7736 0.704416 -1.68357 0
M  V30 896 C 83.8246 -2.71284 -2.38929 0
M  V30 897 O 83.5456 -3.9857 -1.81861 0
M  V30 898 C 85.0466 -2.95864 -3.3012 0
M  V30 899 H 82.2666 -0.550342 -0.383881 0
M  V30 900 H 84.8106 -1.95898 -0.586864 0
M  V30 901 H 82.9656 -2.417 -3.02753 0
M  V30 902 H 83.3796 -4.57993 -2.55622 0
M  V30 903 H 84.8536 -3.74941 -4.05121 0
M  V30 904 H 85.3306 -2.06206 -3.87783 0
M  V30 905 H 85.9366 -3.26907 -2.72051 0
M  V30 906 N 84.2517 0.741722 -1.39055 0
M  V30 907 C 85.5007 1.49656 -1.35225 0
M  V30 908 C 85.8137 1.95533 0.0512708 0
M  V30 909 O 87.0197 2.7067 0.212138 0
M  V30 910 C 85.4757 2.70389 -2.37525 0
M  V30 911 C 85.0837 2.31489 -3.83558 0
M  V30 912 C 86.8277 3.48236 -2.42759 0
M  V30 913 C 84.7347 3.48903 -4.77515 0
M  V30 914 H 83.6647 0.56197 -0.502699 0
M  V30 915 H 86.3157 0.809727 -1.64668 0
M  V30 916 H 84.6977 3.41113 -2.01142 0
M  V30 917 H 85.8717 1.68354 -4.28945 0
M  V30 918 H 84.1867 1.66749 -3.81554 0
M  V30 919 H 86.7837 4.35558 -3.1015 0
M  V30 920 H 87.1267 3.90229 -1.45008 0
M  V30 921 H 87.6597 2.84535 -2.78002 0
M  V30 922 H 84.3987 3.11966 -5.76504 0
M  V30 923 H 83.9187 4.11041 -4.36813 0
M  V30 924 H 85.5977 4.15328 -4.96096 0
M  V30 925 N 85.7298 1.2412 0.971189 0
M  V30 926 C 86.6398 1.04747 2.09917 0
M  V30 927 C 87.6558 -0.0107162 1.73997 0
M  V30 928 O 88.8318 0.186714 2.00533 0
M  V30 929 C 85.8968 0.650828 3.40537 0
M  V30 930 C 84.9578 1.7851 3.90426 0
M  V30 931 C 84.1908 1.40729 5.14812 0
M  V30 932 O 84.4138 0.29557 5.69634 0
M  V30 933 O 83.3478 2.23168 5.58999 0
M  V30 934 H 87.1738 1.99304 2.29154 0
M  V30 935 H 84.7588 1.02908 1.08307 0
M  V30 936 H 86.6408 0.440992 4.19086 0
M  V30 937 H 85.3158 -0.265649 3.22608 0
M  V30 938 H 84.2228 2.04966 3.12953 0
M  V30 939 H 85.5558 2.68023 4.12825 0
M  V30 940 N 87.2079 -1.17134 1.05439 0
M  V30 941 C 88.1709 -2.19439 0.661764 0
M  V30 942 C 89.1709 -1.58199 -0.288042 0
M  V30 943 O 90.3609 -1.74053 -0.0715803 0
M  V30 944 C 87.4929 -3.40889 -0.0276209 0
M  V30 945 H 88.6859 -2.55688 1.56728 0
M  V30 946 H 86.2389 -1.31259 0.848567 0
M  V30 947 H 86.9739 -3.10187 -0.94629 0
M  V30 948 H 86.7589 -3.86586 0.655238 0
M  V30 949 H 88.2489 -4.16603 -0.288342 0
M  V30 950 N 88.686 -0.835752 -1.33615 0
M  V30 951 C 89.636 -0.238856 -2.26745 0
M  V30 952 C 90.62 0.604343 -1.49119 0
M  V30 953 O 91.812 0.456822 -1.71003 0
M  V30 954 C 88.941 0.587725 -3.38232 0
M  V30 955 C 88.027 -0.266811 -4.2326 0
M  V30 956 N 88.418 -1.34403 -4.87616 0
M  V30 957 C 86.716 -0.0533131 -4.45968 0
M  V30 958 C 87.417 -1.86819 -5.50884 0
M  V30 959 N 86.393 -1.17013 -5.30857 0
M  V30 960 H 90.195 -1.06266 -2.74016 0
M  V30 961 H 87.709 -0.679881 -1.47483 0
M  V30 962 H 89.706 1.03161 -4.03935 0
M  V30 963 H 88.366 1.40954 -2.9251 0
M  V30 964 H 89.377 -1.7269 -4.88261 0
M  V30 965 H 86.054 0.735312 -4.10974 0
M  V30 966 H 87.444 -2.7701 -6.1214 0
M  V30 967 N 90.1641 1.46063 -0.591896 0
M  V30 968 C 91.3891 2.07226 -0.0850314 0
M  V30 969 C 91.8141 1.43625 1.21463 0
M  V30 970 O 91.1721 0.523305 1.73583 0
M  V30 971 C 91.2201 3.60554 0.0576567 0
M  V30 972 O 90.3241 3.97128 1.11188 0
M  V30 973 H 89.6651 0.660615 -0.0669568 0
M  V30 974 H 92.1951 1.8756 -0.81745 0
M  V30 975 H 92.2051 4.07165 0.2609 0
M  V30 976 H 90.8801 4.06235 -0.891416 0
M  V30 977 H 89.4571 3.62213 0.886356 0
M  V30 978 N 91.6422 0.330177 1.54103 0
M  V30 979 C 93.0582 -0.0222371 1.59585 0
M  V30 980 C 93.2582 -1.49902 1.34654 0
M  V30 981 O 92.3142 -2.25592 1.13421 0
M  V30 982 C 93.6272 0.401932 2.98002 0
M  V30 983 C 95.1752 0.353145 3.11001 0
M  V30 984 C 95.6502 0.752576 4.51775 0
M  V30 985 N 97.1412 0.706239 4.57784 0
M  V30 986 C 97.8762 0.987417 5.64834 0
M  V30 987 N 97.3722 1.33607 6.79795 0
M  V30 988 N 99.1652 0.91254 5.54643 0
M  V30 989 H 91.3162 1.29228 1.68564 0
M  V30 990 H 93.5792 0.525906 0.78875 0
M  V30 991 H 93.2852 1.4311 3.21267 0
M  V30 992 H 93.1592 -0.229699 3.765 0
M  V30 993 H 95.5462 -0.666822 2.87467 0
M  V30 994 H 95.6272 1.0198 2.34593 0
M  V30 995 H 95.2712 1.77049 4.76042 0
M  V30 996 H 95.2012 0.0635409 5.26562 0
M  V30 997 H 97.6922 0.44889 3.75224 0
M  V30 998 H 98.0052 1.53582 7.57385 0
M  V30 999 H 96.3502 1.37439 6.81275 0
M  V30 1000 H 99.5412 0.639601 4.6371 0
M  V30 1001 H 99.7142 1.13503 6.37982 0
M  V30 1002 N 93.1203 -1.57491 0.0584922 0
M  V30 1003 C 94.0533 -2.07533 -0.948969 0
M  V30 1004 C 95.0313 -0.977444 -1.29942 0
M  V30 1005 O 96.2153 -1.2499 -1.41102 0
M  V30 1006 C 93.3423 -2.52192 -2.2609 0
M  V30 1007 C 92.3883 -3.73287 -2.06298 0
M  V30 1008 S 93.2213 -5.18603 -1.33459 0
M  V30 1009 C 94.3773 -5.66583 -2.65959 0
M  V30 1010 H 94.6103 -2.92662 -0.523118 0
M  V30 1011 H 92.1433 -1.53631 -0.153954 0
M  V30 1012 H 94.1013 -2.78585 -3.01498 0
M  V30 1013 H 92.7623 -1.67356 -2.65802 0
M  V30 1014 H 91.9553 -4.0248 -3.03357 0
M  V30 1015 H 91.5573 -3.47199 -1.39029 0
M  V30 1016 H 93.8493 -5.72616 -3.62101 0
M  V30 1017 H 94.7923 -6.65684 -2.41393 0
M  V30 1018 H 95.2003 -4.94342 -2.72554 0
M  V30 1019 N 94.5984 0.214957 -1.56127 0
M  V30 1020 C 95.8444 0.939762 -1.79712 0
M  V30 1021 C 96.1774 1.83723 -0.629247 0
M  V30 1022 O 95.4524 1.90925 0.371197 0
M  V30 1023 C 95.7354 1.77306 -3.13424 0
M  V30 1024 C 95.5884 0.90164 -4.40671 0
M  V30 1025 C 96.9074 2.74956 -3.43638 0
M  V30 1026 H 94.0264 0.340214 -0.653776 0
M  V30 1027 H 96.6684 0.20824 -1.88855 0
M  V30 1028 H 94.8184 2.39673 -3.0576 0
M  V30 1029 H 96.4904 0.294206 -4.60361 0
M  V30 1030 H 94.7334 0.207368 -4.33304 0
M  V30 1031 H 95.4044 1.51923 -5.30682 0
M  V30 1032 H 97.8804 2.22724 -3.51473 0
M  V30 1033 H 96.7564 3.30358 -4.38355 0
M  V30 1034 H 97.0174 3.53023 -2.66134 0
M  V30 1035 N 96.0765 1.50051 0.48192 0
M  V30 1036 C 97.3255 1.59741 1.23149 0
M  V30 1037 C 97.6385 0.298163 1.93314 0
M  V30 1038 O 98.8445 0.273835 2.70116 0
M  V30 1039 C 97.3005 2.81926 2.23708 0
M  V30 1040 C 96.9085 4.18685 1.59396 0
M  V30 1041 C 98.6525 3.00956 2.99375 0
M  V30 1042 C 96.5595 5.3207 2.58178 0
M  V30 1043 H 95.4895 0.594838 0.46334 0
M  V30 1044 H 98.1405 1.76467 0.503169 0
M  V30 1045 H 96.5225 2.58736 2.99786 0
M  V30 1046 H 97.6965 4.52088 0.891811 0
M  V30 1047 H 96.0115 4.05171 0.960503 0
M  V30 1048 H 98.6085 3.82836 3.73283 0
M  V30 1049 H 98.9515 2.12258 3.58123 0
M  V30 1050 H 99.4845 3.24277 2.30411 0
M  V30 1051 H 96.2235 6.22888 2.04184 0
M  V30 1052 H 95.7435 5.03098 3.26577 0
M  V30 1053 H 97.4225 5.62196 3.20225 0
M  V30 1054 N 97.5546 -0.734337 1.39446 0
M  V30 1055 C 98.9656 -1.31264 1.32766 0
M  V30 1056 C 99.3166 -1.96198 -0.00767497 0
M  V30 1057 O 98.4416 -1.96346 -0.909796 0
M  V30 1058 C 99.0366 -2.38682 2.4045 0
M  V30 1059 C 97.5956 -2.92184 2.37288 0
M  V30 1060 C 96.7426 -1.6576 2.22304 0
M  V30 1061 H 99.6936 -0.531799 1.49525 0
M  V30 1062 H 99.7146 -3.19087 2.07276 0
M  V30 1063 H 99.2266 -1.91392 3.37625 0
M  V30 1064 H 97.3276 -3.43752 1.43754 0
M  V30 1065 H 97.4406 -3.45253 3.3217 0
M  V30 1066 H 95.8046 -1.9012 1.69489 0
M  V30 1067 H 96.5876 -1.20521 3.21449 0
M  V30 1068 N 99.0327 -1.24633 -0.964593 0
M  V30 1069 C 100.281 -1.08573 -1.70459 0
M  V30 1070 C 100.602 0.375655 -1.91347 0
M  V30 1071 O 99.8717 1.26779 -1.49345 0
M  V30 1072 H 98.4517 -0.398784 -0.631649 0
M  V30 1073 H 101.114 -1.56601 -1.16026 0
M  V30 1074 H 100.21 -1.58623 -2.68785 0
M  V30 1075 N 100.511 1.16574 -1.06058 0
M  V30 1076 C 101.759 1.86677 -0.77434 0
M  V30 1077 C 102.08 1.81959 0.701147 0
M  V30 1078 O 101.35 1.2515 1.50713 0
M  V30 1079 H 99.9298 0.691134 -0.283449 0
M  V30 1080 H 102.592 1.41378 -1.34158 0
M  V30 1081 H 101.688 2.92181 -1.09711 0
M  V30 1082 N 101.989 0.842826 1.3317 0
M  V30 1083 C 103.238 0.436738 1.96915 0
M  V30 1084 C 103.551 -1.01025 1.67491 0
M  V30 1085 O 104.757 -1.5212 2.24881 0
M  V30 1086 C 103.213 0.730021 3.52418 0
M  V30 1087 C 102.821 2.19195 3.90714 0
M  V30 1088 C 104.565 0.391076 4.22695 0
M  V30 1089 C 102.472 2.42907 5.39212 0
M  V30 1090 H 101.402 0.15958 0.736919 0
M  V30 1091 H 104.053 1.03196 1.51733 0
M  V30 1092 H 102.435 0.0643755 3.95948 0
M  V30 1093 H 103.609 2.8984 3.58231 0
M  V30 1094 H 101.924 2.49425 3.33431 0
M  V30 1095 H 104.521 0.545817 5.31907 0
M  V30 1096 H 104.864 -0.666294 4.10933 0
M  V30 1097 H 105.397 1.01212 3.84709 0
M  V30 1098 H 102.136 3.47224 5.55982 0
M  V30 1099 H 101.656 1.76827 5.73142 0
M  V30 1100 H 103.335 2.2626 6.06148 0
M  V30 1101 N 103.467 -1.45747 0.599634 0
M  V30 1102 C 104.744 -1.95585 0.0240846 0
M  V30 1103 C 105.124 -1.54217 -1.44154 0
M  V30 1104 O 104.472 -0.800903 -2.14004 0
M  V30 1105 C 104.682 -3.48344 0.21385 0
M  V30 1106 C 106.03 -4.24504 0.0904902 0
M  V30 1107 O 107.054 -3.55911 0.143558 0
M  V30 1108 O 105.913 -5.46491 -0.0310766 0
M  V30 1109 H 103.007 -0.82602 -0.0402478 0
M  V30 1110 H 105.553 -1.55951 0.669139 0
M  V30 1111 H 104.325 -3.71397 1.23206 0
M  V30 1112 H 103.948 -3.9485 -0.466842 0
M  V30 1113 N 104.945 -0.338344 -1.53925 0
M  V30 1114 C 106.191 0.260143 -2.01125 0
M  V30 1115 C 106.524 1.50617 -1.22589 0
M  V30 1116 O 105.799 1.91979 -0.312113 0
M  V30 1117 C 106.082 0.579499 -3.55407 0
M  V30 1118 C 105.935 -0.678264 -4.44657 0
M  V30 1119 C 107.254 1.39122 -4.17532 0
M  V30 1120 H 104.373 0.0930772 -0.731099 0
M  V30 1121 H 107.015 -0.457852 -1.84401 0
M  V30 1122 H 105.165 1.19118 -3.69788 0
M  V30 1123 H 106.837 -1.31631 -4.42121 0
M  V30 1124 H 105.08 -1.3042 -4.13731 0
M  V30 1125 H 105.751 -0.410143 -5.50474 0
M  V30 1126 H 108.227 0.874035 -4.06817 0
M  V30 1127 H 107.103 1.58342 -5.25565 0
M  V30 1128 H 107.364 2.39178 -3.71815 0
M  V30 1129 N 106.423 1.57458 -0.0668435 0
M  V30 1130 C 107.373 2.0896 0.912119 0
M  V30 1131 C 108.357 0.998186 1.26195 0
M  V30 1132 O 109.549 1.26133 1.24175 0
M  V30 1133 C 106.678 2.6508 2.18145 0
M  V30 1134 C 105.764 3.81218 1.85832 0
M  V30 1135 N 106.155 4.90378 1.23948 0
M  V30 1136 C 104.453 3.9042 2.15612 0
M  V30 1137 C 105.154 5.71279 1.09616 0
M  V30 1138 N 104.13 5.19389 1.60423 0
M  V30 1139 H 107.932 2.90749 0.42924 0
M  V30 1140 H 105.446 1.6182 0.137184 0
M  V30 1141 H 107.443 3.0029 2.89192 0
M  V30 1142 H 106.103 1.84736 2.67025 0
M  V30 1143 H 107.114 5.09847 0.909731 0
M  V30 1144 H 103.791 3.21043 2.66903 0
M  V30 1145 H 105.181 6.69085 0.614425 0
M  V30 1146 N 107.901 -0.206675 1.56239 0
M  V30 1147 C 109.129 -0.945345 1.8404 0
M  V30 1148 C 109.544 -1.77336 0.647885 0
M  V30 1149 O 108.901 -1.78425 -0.383511 0
M  V30 1150 C 108.952 -1.8509 3.10522 0
M  V30 1151 O 108.673 -1.05634 4.25174 0
M  V30 1152 C 110.174 -2.70222 3.51418 0
M  V30 1153 H 107.394 -0.276372 0.61144 0
M  V30 1154 H 109.938 -0.217417 2.03341 0
M  V30 1155 H 108.093 -2.53259 2.93153 0
M  V30 1156 H 108.507 -1.67238 4.97124 0
M  V30 1157 H 109.981 -3.29438 4.42916 0
M  V30 1158 H 110.458 -3.43358 2.73864 0
M  V30 1159 H 111.064 -2.07443 3.71278 0
M  V30 1160 N 109.379 -1.50304 -0.473955 0
M  V30 1161 C 110.795 -1.37667 -0.807466 0
M  V30 1162 C 110.995 -0.430555 -1.96846 0
M  V30 1163 O 110.051 0.127874 -2.52176 0
M  V30 1164 C 111.364 -2.78974 -1.12223 0
M  V30 1165 C 112.912 -2.87868 -1.22885 0
M  V30 1166 C 113.387 -4.30003 -1.57676 0
M  V30 1167 N 114.878 -4.3294 -1.64673 0
M  V30 1168 C 115.613 -5.3991 -1.93091 0
M  V30 1169 N 115.109 -6.57092 -2.1955 0
M  V30 1170 N 116.902 -5.27351 -1.94569 0
M  V30 1171 H 109.053 -2.10394 0.291212 0
M  V30 1172 H 111.316 -0.945575 0.0677609 0
M  V30 1173 H 111.022 -3.50031 -0.342229 0
M  V30 1174 H 110.896 -3.16038 -2.05913 0
M  V30 1175 H 113.283 -2.17032 -1.99953 0
M  V30 1176 H 113.364 -2.54352 -0.271814 0
M  V30 1177 H 113.008 -5.01375 -0.81149 0
M  V30 1178 H 112.938 -4.61004 -2.54525 0
M  V30 1179 H 115.429 -3.48441 -1.46277 0
M  V30 1180 H 115.742 -7.34425 -2.405 0
M  V30 1181 H 114.087 -6.60272 -2.16948 0
M  V30 1182 H 117.278 -4.34801 -1.73394 0
M  V30 1183 H 117.451 -6.10805 -2.16381 0
M  V30 1184 N 110.857 0.726932 -1.39834 0
M  V30 1185 C 112.104 1.48664 -1.37496 0
M  V30 1186 C 112.432 1.94482 0.0264678 0
M  V30 1187 O 111.687 1.67692 1.00886 0
M  V30 1188 C 111.986 2.73495 -2.30077 0
M  V30 1189 C 111.652 2.46502 -3.77555 0
M  V30 1190 C 110.314 2.3885 -4.17737 0
M  V30 1191 C 112.666 2.23604 -4.70798 0
M  V30 1192 C 109.994 2.06352 -5.49214 0
M  V30 1193 C 112.346 1.92622 -6.02561 0
M  V30 1194 C 111.01 1.83444 -6.41798 0
M  V30 1195 H 110.28 0.544001 -0.503135 0
M  V30 1196 H 112.927 0.833657 -1.72402 0
M  V30 1197 H 111.232 3.43575 -1.88317 0
M  V30 1198 H 112.929 3.31549 -2.25558 0
M  V30 1199 H 109.519 2.5334 -3.45712 0
M  V30 1200 H 113.703 2.28479 -4.40581 0
M  V30 1201 H 108.959 1.97776 -5.78528 0
M  V30 1202 H 113.133 1.73914 -6.74334 0
M  V30 1203 H 110.76 1.58029 -7.43593 0
M  V30 1204 N 112.336 1.25143 0.95797 0
M  V30 1205 C 113.268 1.01023 2.05735 0
M  V30 1206 C 114.281 -0.0236902 1.62783 0
M  V30 1207 O 115.47 0.21448 1.77207 0
M  V30 1208 C 112.57 0.504595 3.35122 0
M  V30 1209 C 111.743 1.6039 4.06932 0
M  V30 1210 C 110.802 1.09922 5.14591 0
M  V30 1211 O 109.828 1.79293 5.40225 0
M  V30 1212 N 111.03 -0.0612545 5.80468 0
M  V30 1213 H 113.795 1.95683 2.26998 0
M  V30 1214 H 111.356 1.16303 1.12629 0
M  V30 1215 H 113.348 0.151516 4.04416 0
M  V30 1216 H 111.918 -0.347989 3.10657 0
M  V30 1217 H 111.138 2.12872 3.31782 0
M  V30 1218 H 112.426 2.34252 4.51667 0
M  V30 1219 H 111.824 -0.640985 5.62057 0
M  V30 1220 H 110.381 -0.355395 6.5083 0
M  V30 1221 N 113.814 -1.1601 1.06675 0
M  V30 1222 C 114.747 -2.1947 0.625168 0
M  V30 1223 C 115.725 -1.58699 -0.354041 0
M  V30 1224 O 116.909 -1.86669 -0.262098 0
M  V30 1225 C 114.036 -3.38598 -0.0829593 0
M  V30 1226 C 113.082 -4.1787 0.853611 0
M  V30 1227 S 113.915 -4.81135 2.35094 0
M  V30 1228 C 115.071 -6.03639 1.65441 0
M  V30 1229 H 115.304 -2.56587 1.50168 0
M  V30 1230 H 112.837 -1.26862 0.880078 0
M  V30 1231 H 114.795 -4.07621 -0.485288 0
M  V30 1232 H 113.456 -2.99839 -0.935716 0
M  V30 1233 H 112.649 -5.03078 0.304755 0
M  V30 1234 H 112.251 -3.54361 1.196 0
M  V30 1235 H 114.543 -6.70632 0.962201 0
M  V30 1236 H 115.486 -6.63081 2.48454 0
M  V30 1237 H 115.894 -5.52965 1.13534 0
M  V30 1238 N 115.292 -0.849877 -1.32721 0
M  V30 1239 C 116.703 -0.506188 -1.79707 0
M  V30 1240 C 117.054 0.975627 -1.70223 0
M  V30 1241 O 116.179 1.76078 -1.25799 0
M  V30 1242 C 116.774 -0.912044 -3.26293 0
M  V30 1243 C 115.333 -0.620326 -3.71253 0
M  V30 1244 C 114.48 -1.11439 -2.53922 0
M  V30 1245 H 117.431 -1.03754 -1.20087 0
M  V30 1246 H 117.452 -0.226493 -3.79825 0
M  V30 1247 H 116.964 -1.99057 -3.33164 0
M  V30 1248 H 115.065 0.447674 -3.69901 0
M  V30 1249 H 115.178 -1.18327 -4.64258 0
M  V30 1250 H 113.542 -0.534834 -2.49021 0
M  V30 1251 H 114.325 -2.19992 -2.6355 0
M  V30 1252 N 116.77 1.45427 -0.607355 0
M  V30 1253 C 118.047 1.9557 -0.0344566 0
M  V30 1254 C 118.427 1.54979 1.43334 0
M  V30 1255 O 117.775 0.812241 2.13576 0
M  V30 1256 C 117.985 3.48226 -0.232321 0
M  V30 1257 C 119.333 4.2445 -0.113001 0
M  V30 1258 O 120.357 3.55829 -0.162431 0
M  V30 1259 O 119.216 5.465 0.00209442 0
M  V30 1260 H 116.31 0.826222 0.0358667 0
M  V30 1261 H 118.856 1.55594 -0.6774 0
M  V30 1262 H 117.628 3.70739 -1.25174 0
M  V30 1263 H 117.251 3.95092 0.445896 0
M  V30 1264 N 118.248 0.346503 1.53744 0
M  V30 1265 C 119.18 -0.543316 2.22667 0
M  V30 1266 C 120.193 -1.06159 1.23427 0
M  V30 1267 O 121.382 -0.971235 1.49764 0
M  V30 1268 C 118.482 -1.76076 2.89569 0
M  V30 1269 C 117.655 -1.37727 4.15151 0
M  V30 1270 C 116.714 -2.45471 4.65436 0
M  V30 1271 O 115.74 -2.08655 5.29577 0
M  V30 1272 N 116.942 -3.7677 4.41616 0
M  V30 1273 H 119.707 0.0469703 2.99663 0
M  V30 1274 H 117.268 0.170766 1.60997 0
M  V30 1275 H 119.26 -2.47593 3.20125 0
M  V30 1276 H 117.83 -2.25835 2.16142 0
M  V30 1277 H 117.05 -0.492746 3.91108 0
M  V30 1278 H 118.338 -1.09708 4.96832 0
M  V30 1279 H 117.736 -4.09467 3.90325 0
M  V30 1280 H 116.293 -4.44448 4.7677 0
M  V30 1281 N 119.726 -1.57421 0.075193 0
M  V30 1282 C 120.974 -1.93236 -0.591974 0
M  V30 1283 C 121.295 -0.956241 -1.69944 0
M  V30 1284 O 120.565 -0.00494792 -1.95899 0
M  V30 1285 H 119.145 -0.713355 -0.22166 0
M  V30 1286 H 121.807 -1.9444 0.133848 0
M  V30 1287 H 120.903 -2.95131 -1.01509 0
M  V30 1288 N 121.204 0.198386 -1.56346 0
M  V30 1289 C 122.137 1.27381 -1.89339 0
M  V30 1290 C 123.115 1.44106 -0.753134 0
M  V30 1291 O 124.299 1.59549 -1.00381 0
M  V30 1292 C 121.426 2.6409 -2.12071 0
M  V30 1293 C 120.472 2.64253 -3.34772 0
M  V30 1294 S 121.305 2.16013 -4.89999 0
M  V30 1295 C 122.461 3.54553 -5.15794 0
M  V30 1296 H 122.694 0.992058 -2.8026 0
M  V30 1297 H 120.227 0.401726 -1.49082 0
M  V30 1298 H 122.185 3.42786 -2.2585 0
M  V30 1299 H 120.846 2.89478 -1.21906 0
M  V30 1300 H 120.039 3.64768 -3.47794 0
M  V30 1301 H 119.641 1.93637 -3.1997 0
M  V30 1302 H 121.933 4.50396 -5.06112 0
M  V30 1303 H 122.876 3.46428 -6.1757 0
M  V30 1304 H 123.284 3.49313 -4.43442 0
M  V30 1305 N 122.682 1.50554 0.465978 0
M  V30 1306 C 123.91 1.65563 1.24083 0
M  V30 1307 C 124.325 0.341051 1.85694 0
M  V30 1308 O 123.682 -0.677543 1.69457 0
M  V30 1309 C 123.733 2.75051 2.34583 0
M  V30 1310 O 123.454 4.01413 1.75497 0
M  V30 1311 C 124.955 3.01078 3.25372 0
M  V30 1312 H 122.175 0.55638 0.375077 0
M  V30 1313 H 124.719 1.96807 0.555624 0
M  V30 1314 H 122.874 2.46486 2.9887 0
M  V30 1315 H 123.288 4.62002 2.48303 0
M  V30 1316 H 124.762 3.81339 3.99105 0
M  V30 1317 H 125.239 2.12349 3.84453 0
M  V30 1318 H 125.845 3.31194 2.66816 0
M  V30 1319 N 124.16 -0.719506 1.40217 0
M  V30 1320 C 125.385 -1.51371 1.4178 0
M  V30 1321 C 125.81 -1.88091 0.0182355 0
M  V30 1322 O 125.168 -1.52997 -0.972707 0
M  V30 1323 C 125.216 -2.768 2.31115 0
M  V30 1324 O 124.32 -3.73349 1.7517 0
M  V30 1325 H 123.661 -0.456529 0.482159 0
M  V30 1326 H 126.191 -0.88644 1.844 0
M  V30 1327 H 126.201 -3.25371 2.46167 0
M  V30 1328 H 124.876 -2.49407 3.3282 0
M  V30 1329 H 123.453 -3.32179 1.69444 0
M  V30 1330 N 125.638 -1.25649 -0.95132 0
M  V30 1331 C 126.601 -1.06399 -2.03007 0
M  V30 1332 C 127.601 -0.0156794 -1.60792 0
M  V30 1333 O 128.791 -0.25817 -1.72276 0
M  V30 1334 C 125.923 -0.616184 -3.35285 0
M  V30 1335 H 127.116 -2.02164 -2.21517 0
M  V30 1336 H 124.669 -1.08103 -1.12887 0
M  V30 1337 H 125.404 0.343917 -3.22471 0
M  V30 1338 H 125.189 -1.37301 -3.67275 0
M  V30 1339 H 126.679 -0.503032 -4.14559 0
M  V30 1340 N 127.117 1.15442 -1.07289 0
M  V30 1341 C 128.394 1.82306 -0.708792 0
M  V30 1342 C 128.774 1.94991 0.808807 0
M  V30 1343 O 128.122 1.50085 1.72298 0
M  V30 1344 C 128.332 3.18695 -1.42247 0
M  V30 1345 C 129.68 3.94341 -1.57417 0
M  V30 1346 O 130.704 3.28247 -1.38319 0
M  V30 1347 O 129.563 5.12839 -1.88834 0
M  V30 1348 H 126.657 0.787628 -0.252132 0
M  V30 1349 H 129.203 1.22559 -1.17377 0
M  V30 1350 H 127.975 3.04557 -2.45684 0
M  V30 1351 H 127.598 3.86128 -0.948223 0
M  V30 1352 N 128.595 0.856903 1.32268 0
M  V30 1353 C 129.872 0.382583 1.91822 0
M  V30 1354 C 130.252 -1.13407 1.78051 0
M  V30 1355 O 129.6 -1.95673 1.18001 0
M  V30 1356 C 129.81 0.849446 3.38505 0
M  V30 1357 C 131.158 0.867936 4.15634 0
M  V30 1358 O 132.182 0.794232 3.47232 0
M  V30 1359 O 131.041 0.972286 5.37781 0
M  V30 1360 H 128.135 0.112014 0.819379 0
M  V30 1361 H 130.681 0.943952 1.41024 0
M  V30 1362 H 129.453 1.89267 3.42482 0
M  V30 1363 H 129.076 0.265652 3.96712 0
M  V30 1364 N 130.073 -1.45103 0.615059 0
M  V30 1365 C 131.32 -2.02183 0.113179 0
M  V30 1366 C 131.648 -1.48249 -1.25906 0
M  V30 1367 O 130.903 -0.650265 -1.84581 0
M  V30 1368 C 131.202 -3.57386 0.0318797 0
M  V30 1369 C 130.868 -4.30505 1.34077 0
M  V30 1370 C 129.53 -4.50197 1.69929 0
M  V30 1371 C 131.882 -4.72238 2.20546 0
M  V30 1372 C 129.21 -5.08881 2.91988 0
M  V30 1373 C 131.562 -5.32272 3.41861 0
M  V30 1374 C 130.226 -5.50187 3.77956 0
M  V30 1375 H 129.496 -0.739842 0.0414151 0
M  V30 1376 H 132.143 -1.74073 0.798168 0
M  V30 1377 H 130.448 -3.84817 -0.736409 0
M  V30 1378 H 132.145 -3.99264 -0.372712 0
M  V30 1379 H 128.735 -4.15496 1.05173 0
M  V30 1380 H 132.919 -4.56751 1.94146 0
M  V30 1381 H 128.175 -5.20939 3.2005 0
M  V30 1382 H 132.349 -5.63563 4.09109 0
M  V30 1383 H 129.976 -5.95427 4.72622 0
M  V30 1384 N 131.551 -0.354651 -1.53558 0
M  V30 1385 C 132.798 0.238443 -2.01091 0
M  V30 1386 C 133.126 1.49663 -1.24222 0
M  V30 1387 O 132.381 1.93049 -0.321003 0
M  V30 1388 C 132.68 0.587121 -3.52545 0
M  V30 1389 C 132.346 -0.575472 -4.47213 0
M  V30 1390 C 131.008 -0.894497 -4.72813 0
M  V30 1391 C 133.36 -1.35489 -5.03281 0
M  V30 1392 C 130.688 -1.99511 -5.51736 0
M  V30 1393 C 133.04 -2.44583 -5.83405 0
M  V30 1394 C 131.704 -2.77033 -6.07296 0
M  V30 1395 H 130.974 0.0872526 -0.735845 0
M  V30 1396 H 133.621 -0.484859 -1.8526 0
M  V30 1397 H 131.926 1.39129 -3.66265 0
M  V30 1398 H 133.623 1.05809 -3.86789 0
M  V30 1399 H 130.213 -0.316774 -4.27428 0
M  V30 1400 H 134.397 -1.12167 -4.83459 0
M  V30 1401 H 129.653 -2.25063 -5.68469 0
M  V30 1402 H 133.827 -3.05401 -6.25862 0
M  V30 1403 H 131.454 -3.6244 -6.68237 0
M  V30 1404 N 133.029 1.57378 -0.0835403 0
M  V30 1405 C 133.961 2.10389 0.909338 0
M  V30 1406 C 134.974 1.03858 1.25369 0
M  V30 1407 O 136.163 1.31338 1.20882 0
M  V30 1408 C 133.263 2.55908 2.2218 0
M  V30 1409 C 132.436 3.86145 2.05453 0
M  V30 1410 C 131.495 4.17633 3.20108 0
M  V30 1411 O 130.521 4.87043 2.94581 0
M  V30 1412 N 131.723 3.72113 4.45547 0
M  V30 1413 H 134.488 2.962 0.456657 0
M  V30 1414 H 132.049 1.61579 0.101877 0
M  V30 1415 H 134.041 2.74027 2.97811 0
M  V30 1416 H 132.611 1.75171 2.58909 0
M  V30 1417 H 131.831 3.7729 1.1422 0
M  V30 1418 H 133.119 4.7137 1.91541 0
M  V30 1419 H 132.517 3.16062 4.69171 0
M  V30 1420 H 131.074 3.95409 5.18165 0
M  V30 1421 N 134.507 -0.190092 1.56449 0
M  V30 1422 C 135.755 -0.907908 1.80559 0
M  V30 1423 C 136.076 -1.83583 0.657438 0
M  V30 1424 O 135.346 -1.93203 -0.323924 0
M  V30 1425 H 133.926 -0.338247 0.666032 0
M  V30 1426 H 136.588 -0.194403 1.93928 0
M  V30 1427 H 135.684 -1.49604 2.73907 0
M  V30 1428 N 135.985 -1.50799 -0.457987 0
M  V30 1429 C 137.213 -1.66218 -1.23203 0
M  V30 1430 C 137.628 -0.350894 -1.85511 0
M  V30 1431 O 136.985 0.668546 -1.69814 0
M  V30 1432 C 137.036 -2.76291 -2.33121 0
M  V30 1433 O 136.757 -4.02338 -1.73366 0
M  V30 1434 C 138.258 -3.028 -3.2377 0
M  V30 1435 H 135.478 -0.558361 -0.372121 0
M  V30 1436 H 138.022 -1.97099 -0.545179 0
M  V30 1437 H 136.177 -2.48068 -2.97558 0
M  V30 1438 H 136.591 -4.63312 -2.4585 0
M  V30 1439 H 138.065 -3.8345 -3.97077 0
M  V30 1440 H 138.542 -2.14385 -3.83322 0
M  V30 1441 H 139.148 -3.32604 -2.65056 0
M  V30 1442 N 137.463 0.71206 -1.40597 0
M  V30 1443 C 138.41 1.82613 -1.41142 0
M  V30 1444 C 139.38 1.63925 -0.267903 0
M  V30 1445 O 140.565 1.85009 -0.466495 0
M  V30 1446 C 137.705 3.20354 -1.28324 0
M  V30 1447 C 136.818 3.50589 -2.52411 0
M  V30 1448 C 135.953 4.77855 -2.32009 0
M  V30 1449 C 134.992 5.01005 -3.51654 0
M  V30 1450 N 134.129 6.19487 -3.30425 0
M  V30 1451 H 138.969 1.81482 -2.36365 0
M  V30 1452 H 136.506 0.886475 -1.17388 0
M  V30 1453 H 138.464 3.99899 -1.18899 0
M  V30 1454 H 137.094 3.20705 -0.367189 0
M  V30 1455 H 136.146 2.65573 -2.72351 0
M  V30 1456 H 137.458 3.63604 -3.41458 0
M  V30 1457 H 136.612 5.65424 -2.19956 0
M  V30 1458 H 135.351 4.67056 -1.40392 0
M  V30 1459 H 134.356 4.1189 -3.64179 0
M  V30 1460 H 135.581 5.13674 -4.44202 0
M  V30 1461 H 133.527 6.09932 -2.41494 0
M  V30 1462 H 133.444 6.33194 -4.13039 0
M  V30 1463 H 134.712 7.09834 -3.22113 0
M  V30 1464 N 138.941 1.26152 0.944643 0
M  V30 1465 C 139.904 1.07474 2.0244 0
M  V30 1466 C 140.904 0.0242064 1.60782 0
M  V30 1467 O 142.094 0.267302 1.72137 0
M  V30 1468 C 139.226 0.633956 3.34953 0
M  V30 1469 H 140.419 2.03336 2.20442 0
M  V30 1470 H 137.972 1.087 1.12312 0
M  V30 1471 H 138.707 -0.326811 3.22649 0
M  V30 1472 H 138.492 1.39247 3.66542 0
M  V30 1473 H 139.982 0.52501 4.14287 0
M  V30 1474 N 140.419 -1.14872 1.07899 0
M  V30 1475 C 141.382 -2.17986 0.708161 0
M  V30 1476 C 142.382 -1.58775 -0.25442 0
M  V30 1477 O 143.572 -1.74166 -0.034645 0
M  V30 1478 C 140.704 -3.40871 0.0446929 0
M  V30 1479 H 141.897 -2.52306 1.62116 0
M  V30 1480 H 139.45 -1.2943 0.876218 0
M  V30 1481 H 140.185 -3.12124 -0.880281 0
M  V30 1482 H 139.97 -3.8511 0.737091 0
M  V30 1483 H 141.46 -4.17121 -0.19991 0
M  V30 1484 N 141.898 -0.863906 -1.31812 0
M  V30 1485 C 142.828 -0.330843 -2.31144 0
M  V30 1486 C 143.809 0.575005 -1.60087 0
M  V30 1487 O 144.994 0.493304 -1.8783 0
M  V30 1488 C 142.124 0.47374 -3.44054 0
M  V30 1489 C 141.078 -0.338481 -4.26659 0
M  V30 1490 C 140.404 0.591412 -5.31419 0
M  V30 1491 C 141.704 -1.56926 -4.98168 0
M  V30 1492 H 143.398 -1.16086 -2.75979 0
M  V30 1493 H 140.944 -0.559657 -1.32679 0
M  V30 1494 H 142.897 0.857143 -4.12591 0
M  V30 1495 H 141.621 1.33721 -2.9797 0
M  V30 1496 H 140.28 -0.703754 -3.59782 0
M  V30 1497 H 139.928 1.45199 -4.81587 0
M  V30 1498 H 139.628 0.0519022 -5.87577 0
M  V30 1499 H 141.152 0.97179 -6.02817 0
M  V30 1500 H 142.566 -1.25764 -5.59336 0
M  V30 1501 H 140.963 -2.04739 -5.64094 0
M  V30 1502 H 142.033 -2.32544 -4.25501 0
M  V30 1503 N 143.376 1.44774 -0.622745 0
M  V30 1504 C 144.339 2.29069 0.0774015 0
M  V30 1505 C 145.339 1.4059 0.780461 0
M  V30 1506 O 146.529 1.62551 0.626322 0
M  V30 1507 C 143.661 3.21974 1.12006 0
M  V30 1508 H 144.854 2.92459 -0.663901 0
M  V30 1509 H 142.407 1.51548 -0.382486 0
M  V30 1510 H 143.142 2.63417 1.89162 0
M  V30 1511 H 142.927 3.87168 0.619951 0
M  V30 1512 H 144.417 3.85318 1.60995 0
M  V30 1513 N 144.854 0.36279 1.53368 0
M  V30 1514 C 146.102 -0.227326 2.00817 0
M  V30 1515 C 146.423 -1.49511 1.25186 0
M  V30 1516 O 145.693 -1.92482 0.364348 0
M  V30 1517 H 144.273 -0.0869923 0.741917 0
M  V30 1518 H 146.935 0.488381 1.88682 0
M  V30 1519 H 146.031 -0.456273 3.08747 0
M  V30 1520 N 146.332 -1.57332 0.0918853 0
M  V30 1521 C 147.58 -1.93853 -0.571446 0
M  V30 1522 C 147.901 -0.974212 -1.6892 0
M  V30 1523 O 147.171 -0.0257254 -1.95883 0
M  V30 1524 H 145.751 -0.715666 -0.214082 0
M  V30 1525 H 148.413 -1.94287 0.154464 0
M  V30 1526 H 147.509 -2.96191 -0.983729 0
M  V30 1527 N 147.81 0.181792 -1.56548 0
M  V30 1528 C 149.038 0.915947 -1.85521 0
M  V30 1529 C 149.453 1.76282 -0.676016 0
M  V30 1530 O 148.81 1.79012 0.355077 0
M  V30 1531 C 148.861 1.80126 -3.13427 0
M  V30 1532 O 148.582 0.988562 -4.26801 0
M  V30 1533 C 150.083 2.64597 -3.55673 0
M  V30 1534 H 147.303 0.26661 -0.61576 0
M  V30 1535 H 149.847 0.185039 -2.03661 0
M  V30 1536 H 148.002 2.48563 -2.97145 0
M  V30 1537 H 148.416 1.59308 -4.99721 0
M  V30 1538 H 149.89 3.2235 -4.48101 0
M  V30 1539 H 150.367 3.38958 -2.79292 0
M  V30 1540 H 150.973 2.0151 -3.74532 0
M  V30 1541 N 149.288 1.51039 0.449983 0
M  V30 1542 C 150.516 1.66869 1.2232 0
M  V30 1543 C 150.931 0.360727 1.85322 0
M  V30 1544 O 150.288 -0.659531 1.70166 0
M  V30 1545 C 150.339 2.77524 2.31652 0
M  V30 1546 O 150.06 4.03252 1.7123 0
M  V30 1547 C 151.561 3.04512 3.2216 0
M  V30 1548 H 148.781 0.560326 0.369155 0
M  V30 1549 H 151.325 1.97385 0.534719 0
M  V30 1550 H 149.48 2.49642 2.96239 0
M  V30 1551 H 149.894 4.64609 2.43389 0
M  V30 1552 H 151.368 3.85551 3.95038 0
M  V30 1553 H 151.845 2.16415 3.8218 0
M  V30 1554 H 152.451 3.34005 2.63288 0
M  V30 1555 N 150.766 -0.704594 1.40972 0
M  V30 1556 C 151.699 -1.82861 1.36518 0
M  V30 1557 C 152.677 -1.6091 0.23382 0
M  V30 1558 O 153.861 -1.83778 0.419271 0
M  V30 1559 C 150.988 -3.1939 1.12729 0
M  V30 1560 C 150.034 -3.60148 2.28463 0
M  V30 1561 S 150.867 -3.65994 3.90907 0
M  V30 1562 C 152.023 -5.05264 3.69403 0
M  V30 1563 H 152.256 -1.86361 2.3164 0
M  V30 1564 H 149.789 -0.872439 1.27389 0
M  V30 1565 H 151.747 -3.98211 0.996893 0
M  V30 1566 H 150.408 -3.1351 0.192427 0
M  V30 1567 H 149.601 -4.59309 2.07489 0
M  V30 1568 H 149.203 -2.88612 2.37863 0
M  V30 1569 H 151.495 -5.92504 3.28551 0
M  V30 1570 H 152.438 -5.31278 4.68134 0
M  V30 1571 H 152.846 -4.76377 3.02862 0
M  V30 1572 N 152.244 -1.26651 -0.937939 0
M  V30 1573 C 153.493 -1.11775 -1.67897 0
M  V30 1574 C 153.806 0.33794 -1.92659 0
M  V30 1575 O 155.012 0.607434 -2.64618 0
M  V30 1576 C 153.468 -1.9523 -3.02346 0
M  V30 1577 C 153.076 -3.45393 -2.8532 0
M  V30 1578 C 154.82 -1.88972 -3.80118 0
M  V30 1579 C 152.727 -4.21083 -4.15263 0
M  V30 1580 H 151.657 -0.414696 -0.629717 0
M  V30 1581 H 154.308 -1.50988 -1.04283 0
M  V30 1582 H 152.69 -1.48853 -3.66959 0
M  V30 1583 H 153.864 -3.99561 -2.29537 0
M  V30 1584 H 152.179 -3.52921 -2.20988 0
M  V30 1585 H 154.776 -2.42805 -4.76392 0
M  V30 1586 H 155.119 -0.86113 -4.07296 0
M  V30 1587 H 155.652 -2.33189 -3.22285 0
M  V30 1588 H 152.391 -5.24425 -3.93267 0
M  V30 1589 H 151.911 -3.71695 -4.70747 0
M  V30 1590 H 153.59 -4.29706 -4.83696 0
M  V30 1591 N 153.722 1.14298 -1.08507 0
M  V30 1592 C 154.971 1.84708 -0.810305 0
M  V30 1593 C 155.284 1.83903 0.666271 0
M  V30 1594 O 156.49 2.50112 1.05624 0
M  V30 1595 C 154.946 3.31572 -1.39957 0
M  V30 1596 C 154.554 3.40791 -2.90801 0
M  V30 1597 C 156.298 4.07087 -1.20334 0
M  V30 1598 C 154.205 4.81872 -3.4286 0
M  V30 1599 H 153.135 0.691985 -0.299454 0
M  V30 1600 H 155.786 1.28841 -1.30661 0
M  V30 1601 H 154.168 3.87183 -0.830976 0
M  V30 1602 H 155.342 2.95225 -3.53806 0
M  V30 1603 H 153.657 2.78732 -3.0935 0
M  V30 1604 H 156.254 5.11225 -1.56693 0
M  V30 1605 H 156.597 4.16054 -0.143237 0
M  V30 1606 H 157.13 3.57779 -1.73893 0
M  V30 1607 H 153.869 4.78094 -4.48449 0
M  V30 1608 H 153.389 5.27972 -2.84615 0
M  V30 1609 H 155.068 5.50765 -3.39509 0
M  V30 1610 N 155.201 0.870884 1.31352 0
M  V30 1611 C 156.478 0.402907 1.91405 0
M  V30 1612 C 156.858 -1.11512 1.79244 0
M  V30 1613 O 156.206 -1.94411 1.2007 0
M  V30 1614 C 156.416 0.885301 3.37585 0
M  V30 1615 C 157.764 0.911971 4.14691 0
M  V30 1616 O 158.788 0.831016 3.46371 0
M  V30 1617 O 157.647 1.02927 5.3672 0
M  V30 1618 H 154.741 0.120698 0.818145 0
M  V30 1619 H 157.287 0.958857 1.40014 0
M  V30 1620 H 156.059 1.92889 3.40455 0
M  V30 1621 H 155.682 0.307714 3.96407 0
M  V30 1622 N 156.679 -1.44442 0.630414 0
M  V30 1623 C 157.629 -2.27794 -0.0968103 0
M  V30 1624 C 158.613 -1.38624 -0.816834 0
M  V30 1625 O 159.805 -1.62438 -0.70306 0
M  V30 1626 C 156.934 -3.25929 -1.07819 0
M  V30 1627 C 156.02 -4.22588 -0.357826 0
M  V30 1628 N 156.411 -5.0207 0.613169 0
M  V30 1629 C 154.709 -4.41914 -0.602365 0
M  V30 1630 C 155.41 -5.72351 1.03871 0
M  V30 1631 N 154.386 -5.42287 0.377642 0
M  V30 1632 H 158.188 -2.86653 0.648621 0
M  V30 1633 H 155.702 -1.55871 0.455862 0
M  V30 1634 H 157.699 -3.84399 -1.61378 0
M  V30 1635 H 156.359 -2.68631 -1.82393 0
M  V30 1636 H 157.37 -5.08331 0.990947 0
M  V30 1637 H 154.047 -3.95714 -1.33103 0
M  V30 1638 H 155.437 -6.4619 1.84086 0
M  V30 1639 N 158.157 -0.370918 -1.53173 0
M  V30 1640 C 159.403 0.217423 -2.01631 0
M  V30 1641 C 159.736 1.47983 -1.25756 0
M  V30 1642 O 159.011 1.91274 -0.352764 0
M  V30 1643 C 159.294 0.503982 -3.56556 0
M  V30 1644 C 159.147 -0.77243 -4.43118 0
M  V30 1645 C 160.466 1.30234 -4.20389 0
M  V30 1646 H 157.585 0.0775486 -0.732909 0
M  V30 1647 H 160.227 -0.496863 -1.83388 0
M  V30 1648 H 158.377 1.11248 -3.72231 0
M  V30 1649 H 160.049 -1.4098 -4.39229 0
M  V30 1650 H 158.292 -1.39167 -4.10871 0
M  V30 1651 H 158.963 -0.526815 -5.4948 0
M  V30 1652 H 161.439 0.787546 -4.08579 0
M  V30 1653 H 160.315 1.47158 -5.28806 0
M  V30 1654 H 160.576 2.31237 -3.76805 0
M  V30 1655 N 159.635 1.57281 -0.100228 0
M  V30 1656 C 160.881 1.94826 0.563101 0
M  V30 1657 C 161.214 0.982475 1.67514 0
M  V30 1658 O 160.489 0.0164069 1.94493 0
M  V30 1659 C 160.772 3.42453 1.11346 0
M  V30 1660 C 160.625 4.498 0.00612081 0
M  V30 1661 C 161.944 3.91506 2.01024 0
M  V30 1662 H 159.063 0.708428 0.203221 0
M  V30 1663 H 161.705 1.8922 -0.171979 0
M  V30 1664 H 159.855 3.47361 1.7399 0
M  V30 1665 H 161.527 4.57 -0.628357 0
M  V30 1666 H 159.77 4.28756 -0.659581 0
M  V30 1667 H 160.441 5.50306 0.432109 0
M  V30 1668 H 162.917 3.88784 1.48278 0
M  V30 1669 H 161.793 4.95358 2.36457 0
M  V30 1670 H 162.054 3.31099 2.92961 0
M  V30 1671 N 161.113 -0.173488 1.56642 0
M  V30 1672 C 162.524 -0.736155 1.71574 0
M  V30 1673 C 162.875 -1.82888 0.710389 0
M  V30 1674 O 162 -2.16017 -0.1287 0
M  V30 1675 C 162.595 -1.34211 3.11083 0
M  V30 1676 C 161.154 -1.85162 3.27707 0
M  V30 1677 C 160.301 -0.729765 2.67525 0
M  V30 1678 H 163.252 0.0518786 1.58615 0
M  V30 1679 H 163.273 -2.21178 3.09613 0
M  V30 1680 H 162.785 -0.546579 3.84232 0
M  V30 1681 H 160.886 -2.67366 2.59512 0
M  V30 1682 H 160.999 -1.99855 4.35425 0
M  V30 1683 H 159.363 -1.14965 2.27278 0
M  V30 1684 H 160.146 0.0538806 3.43258 0
M  V30 1685 N 162.591 -1.51276 -0.441967 0
M  V30 1686 C 163.501 -1.75092 -1.56141 0
M  V30 1687 C 164.517 -0.634963 -1.62001 0
M  V30 1688 O 165.693 -0.916686 -1.79329 0
M  V30 1689 C 162.758 -1.86666 -2.92158 0
M  V30 1690 C 161.819 -3.10506 -2.96453 0
M  V30 1691 C 161.052 -3.21519 -4.25982 0
M  V30 1692 O 161.275 -2.38586 -5.18105 0
M  V30 1693 O 160.209 -4.14465 -4.36466 0
M  V30 1694 H 164.035 -2.70044 -1.38961 0
M  V30 1695 H 161.62 -1.35722 -0.624499 0
M  V30 1696 H 163.502 -1.96292 -3.72891 0
M  V30 1697 H 162.177 -0.949014 -3.09476 0
M  V30 1698 H 161.084 -3.06363 -2.14692 0
M  V30 1699 H 162.417 -4.01945 -2.84079 0
M  V30 1700 N 164.069 0.697108 -1.41344 0
M  V30 1701 C 165.48 1.27697 -1.36199 0
M  V30 1702 C 165.831 1.9615 -0.0443463 0
M  V30 1703 O 164.956 1.98689 0.857419 0
M  V30 1704 C 165.551 2.32223 -2.46694 0
M  V30 1705 C 164.11 2.8579 -2.44952 0
M  V30 1706 C 163.257 1.59807 -2.26621 0
M  V30 1707 H 166.208 0.491968 -1.50882 0
M  V30 1708 H 166.229 3.1348 -2.15664 0
M  V30 1709 H 165.741 1.82373 -3.42581 0
M  V30 1710 H 163.842 3.3982 -1.52817 0
M  V30 1711 H 163.955 3.36325 -3.41207 0
M  V30 1712 H 162.319 1.8556 -1.7447 0
M  V30 1713 H 163.102 1.11956 -3.24532 0
M  V30 1714 N 165.547 1.27147 0.931209 0
M  V30 1715 C 166.795 1.13055 1.6752 0
M  V30 1716 C 167.116 -0.324791 1.92276 0
M  V30 1717 O 166.386 -1.22775 1.52654 0
M  V30 1718 H 164.966 0.415391 0.620854 0
M  V30 1719 H 167.628 1.59623 1.11833 0
M  V30 1720 H 166.724 1.65694 2.64485 0
M  V30 1721 N 167.025 -1.13721 1.09112 0
M  V30 1722 C 168.253 -1.88773 0.846899 0
M  V30 1723 C 168.668 -1.7896 -0.601572 0
M  V30 1724 O 168.025 -1.15394 -1.41388 0
M  V30 1725 C 168.076 -3.3849 1.26913 0
M  V30 1726 O 167.797 -3.48043 2.66079 0
M  V30 1727 C 169.298 -4.30518 1.05682 0
M  V30 1728 H 166.518 -0.59772 0.304914 0
M  V30 1729 H 169.062 -1.43977 1.45227 0
M  V30 1730 H 167.217 -3.80881 0.707723 0
M  V30 1731 H 167.631 -4.4109 2.83795 0
M  V30 1732 H 169.105 -5.3391 1.40156 0
M  V30 1733 H 169.582 -4.392 -0.00563416 0
M  V30 1734 H 170.188 -3.93893 1.60402 0
M  V30 1735 N 168.503 -0.877838 -1.30888 0
M  V30 1736 C 169.728 -0.506629 -2.01117 0
M  V30 1737 C 170.153 0.895564 -1.65412 0
M  V30 1738 O 169.511 1.5923 -0.866922 0
M  V30 1739 C 169.559 -0.680223 -3.54126 0
M  V30 1740 O 168.663 0.277033 -4.11468 0
M  V30 1741 H 168.004 -0.200518 -0.633 0
M  V30 1742 H 170.534 -1.18342 -1.66902 0
M  V30 1743 H 170.544 -0.5765 -4.03907 0
M  V30 1744 H 169.219 -1.70261 -3.79452 0
M  V30 1745 H 167.796 0.127606 -3.72682 0
M  V30 1746 N 169.982 1.44106 -0.638065 0
M  V30 1747 C 170.912 2.33448 0.0494287 0
M  V30 1748 C 171.893 1.48606 0.827672 0
M  V30 1749 O 173.078 1.77308 0.792173 0
M  V30 1750 C 170.208 3.31771 1.02691 0
M  V30 1751 C 169.162 4.26485 0.359823 0
M  V30 1752 C 168.488 5.14729 1.44769 0
M  V30 1753 C 169.788 5.17056 -0.738296 0
M  V30 1754 H 171.482 2.91183 -0.696636 0
M  V30 1755 H 169.028 1.40014 -0.336456 0
M  V30 1756 H 170.981 3.93161 1.51666 0
M  V30 1757 H 169.705 2.7226 1.80395 0
M  V30 1758 H 168.364 3.66437 -0.10934 0
M  V30 1759 H 168.012 4.51566 2.21578 0
M  V30 1760 H 167.712 5.78913 1.00668 0
M  V30 1761 H 169.236 5.78991 1.93911 0
M  V30 1762 H 170.65 5.72342 -0.331354 0
M  V30 1763 H 169.047 5.89879 -1.10286 0
M  V30 1764 H 170.117 4.57652 -1.60258 0
M  V30 1765 N 171.46 0.379036 1.52974 0
M  V30 1766 C 172.39 -0.452706 2.29069 0
M  V30 1767 C 173.371 -1.07237 1.32039 0
M  V30 1768 O 174.556 -1.08708 1.60923 0
M  V30 1769 C 171.686 -1.5856 3.08992 0
M  V30 1770 C 170.64 -1.0925 4.13822 0
M  V30 1771 C 169.966 -2.31668 4.81907 0
M  V30 1772 C 171.266 -0.167702 5.22031 0
M  V30 1773 H 172.96 0.182181 2.98845 0
M  V30 1774 H 170.506 0.0890592 1.43724 0
M  V30 1775 H 172.459 -2.1742 3.6098 0
M  V30 1776 H 171.183 -2.24792 2.36931 0
M  V30 1777 H 169.842 -0.526494 3.628 0
M  V30 1778 H 169.49 -2.96386 4.06404 0
M  V30 1779 H 169.19 -1.9934 5.52754 0
M  V30 1780 H 170.714 -2.91189 5.36695 0
M  V30 1781 H 172.128 -0.664186 5.6944 0
M  V30 1782 H 170.525 0.0653265 6.00064 0
M  V30 1783 H 171.595 0.786347 4.78482 0
M  V30 1784 N 172.938 -1.57226 0.108567 0
M  V30 1785 C 173.901 -2.13602 -0.831082 0
M  V30 1786 C 174.901 -1.06841 -1.20173 0
M  V30 1787 O 176.091 -1.32666 -1.12895 0
M  V30 1788 C 173.223 -2.66769 -2.12243 0
M  V30 1789 H 174.416 -2.97951 -0.341317 0
M  V30 1790 H 171.969 -1.55667 -0.14057 0
M  V30 1791 H 172.704 -1.85977 -2.65675 0
M  V30 1792 H 172.489 -3.44839 -1.86625 0
M  V30 1793 H 173.979 -3.10332 -2.79435 0
M  V30 1794 N 174.416 0.165178 -1.56732 0
M  V30 1795 C 175.379 1.18822 -1.95995 0
M  V30 1796 C 176.379 1.3685 -0.84431 0
M  V30 1797 O 177.569 1.34152 -1.11126 0
M  V30 1798 C 174.701 2.5521 -2.26011 0
M  V30 1799 H 175.894 0.851825 -2.87548 0
M  V30 1800 H 173.447 0.407857 -1.50885 0
M  V30 1801 H 174.182 2.93852 -1.37191 0
M  V30 1802 H 173.967 2.43489 -3.07336 0
M  V30 1803 H 175.457 3.28927 -2.57288 0
M  V30 1804 N 175.894 1.51508 0.433938 0
M  V30 1805 C 177.141 1.64345 1.18309 0
M  V30 1806 C 177.469 0.361315 1.91115 0
M  V30 1807 O 176.724 -0.654753 1.84422 0
M  V30 1808 C 177.023 2.79928 2.22205 0
M  V30 1809 C 176.689 4.19078 1.66387 0
M  V30 1810 C 175.351 4.56932 1.50887 0
M  V30 1811 C 177.703 5.05894 1.25381 0
M  V30 1812 C 175.031 5.79305 0.928608 0
M  V30 1813 C 177.383 6.2885 0.687823 0
M  V30 1814 C 176.047 6.65473 0.519755 0
M  V30 1815 H 175.317 0.601381 0.432923 0
M  V30 1816 H 177.964 1.85549 0.473676 0
M  V30 1817 H 176.269 2.52959 2.99197 0
M  V30 1818 H 177.966 2.87059 2.79997 0
M  V30 1819 H 174.556 3.89234 1.79428 0
M  V30 1820 H 178.74 4.77253 1.36175 0
M  V30 1821 H 173.996 6.06324 0.786186 0
M  V30 1822 H 178.17 6.95461 0.361581 0
M  V30 1823 H 175.797 7.6017 0.0679979 0
M  V30 1824 N 177.372 -0.689602 1.41712 0
M  V30 1825 C 178.649 -1.44457 1.31877 0
M  V30 1826 C 179.029 -2.11039 -0.0508537 0
M  V30 1827 O 178.377 -2.02138 -1.06547 0
M  V30 1828 C 178.587 -2.45913 2.47645 0
M  V30 1829 C 179.935 -3.10991 2.89084 0
M  V30 1830 O 180.959 -2.56238 2.47428 0
M  V30 1831 O 179.818 -4.10174 3.61137 0
M  V30 1832 H 176.912 -0.64362 0.519309 0
M  V30 1833 H 179.458 -0.719576 1.53689 0
M  V30 1834 H 178.23 -1.95409 3.39015 0
M  V30 1835 H 177.853 -3.25913 2.27742 0
M  V30 1836 N 178.85 -1.27639 -0.924453 0
M  V30 1837 C 179.782 -1.06442 -2.02985 0
M  V30 1838 C 180.795 -0.0194771 -1.62788 0
M  V30 1839 O 181.984 -0.261388 -1.76576 0
M  V30 1840 C 179.084 -0.59327 -3.33667 0
M  V30 1841 C 178.257 -1.71123 -4.02537 0
M  V30 1842 C 177.316 -1.23527 -5.11495 0
M  V30 1843 O 176.342 -1.93553 -5.35281 0
M  V30 1844 N 177.544 -0.0926678 -5.80426 0
M  V30 1845 H 180.309 -2.01633 -2.2173 0
M  V30 1846 H 177.87 -1.19248 -1.09505 0
M  V30 1847 H 179.862 -0.258686 -4.03872 0
M  V30 1848 H 178.432 0.265502 -3.1147 0
M  V30 1849 H 177.652 -2.21593 -3.26022 0
M  V30 1850 H 178.94 -2.46145 -4.45298 0
M  V30 1851 H 178.338 0.491741 -5.63559 0
M  V30 1852 H 176.895 0.182714 -6.51544 0
M  V30 1853 N 180.328 1.1314 -1.09713 0
M  V30 1854 C 181.574 1.84967 -0.846104 0
M  V30 1855 C 181.929 1.82082 0.621601 0
M  V30 1856 O 181.222 1.2501 1.452 0
M  V30 1857 C 181.416 3.32167 -1.3191 0
M  V30 1858 C 181.245 3.49386 -2.83125 0
M  V30 1859 C 180.015 3.63456 -3.51038 0
M  V30 1860 C 182.213 3.45179 -3.81256 0
M  V30 1861 N 180.195 3.68966 -4.9065 0
M  V30 1862 C 181.566 3.57094 -5.06837 0
M  V30 1863 C 183.621 3.28598 -3.74069 0
M  V30 1864 C 182.324 3.5414 -6.26081 0
M  V30 1865 C 184.35 3.26953 -4.92804 0
M  V30 1866 C 183.712 3.39422 -6.17229 0
M  V30 1867 H 179.811 0.692899 -0.362512 0
M  V30 1868 H 182.395 1.35506 -1.39808 0
M  V30 1869 H 180.566 3.80186 -0.794535 0
M  V30 1870 H 182.298 3.91815 -1.01308 0
M  V30 1871 H 179.053 3.65256 -3.01471 0
M  V30 1872 H 179.477 3.75404 -5.63383 0
M  V30 1873 H 184.119 3.17858 -2.78794 0
M  V30 1874 H 181.837 3.63653 -7.21653 0
M  V30 1875 H 185.423 3.15316 -4.88945 0
M  V30 1876 H 184.303 3.38114 -7.07565 0
M  V30 1877 N 181.806 0.884767 1.30421 0
M  V30 1878 C 183.222 0.57874 1.48737 0
M  V30 1879 C 183.422 -0.883567 1.81095 0
M  V30 1880 O 182.478 -1.6648 1.89844 0
M  V30 1881 C 183.791 1.49171 2.61091 0
M  V30 1882 C 185.339 1.49532 2.74971 0
M  V30 1883 C 185.814 2.39421 3.90438 0
M  V30 1884 N 187.305 2.37383 3.97748 0
M  V30 1885 C 188.04 3.03647 4.86401 0
M  V30 1886 N 187.536 3.79136 5.79852 0
M  V30 1887 N 189.329 2.9288 4.79768 0
M  V30 1888 H 181.48 1.83075 1.0769 0
M  V30 1889 H 183.743 0.783637 0.533495 0
M  V30 1890 H 183.449 2.53291 2.44001 0
M  V30 1891 H 183.323 1.20113 3.57565 0
M  V30 1892 H 185.71 0.46163 2.91467 0
M  V30 1893 H 185.791 1.8262 1.79119 0
M  V30 1894 H 185.435 3.42874 3.74699 0
M  V30 1895 H 185.365 2.03649 4.85628 0
M  V30 1896 H 187.856 1.82525 3.30897 0
M  V30 1897 H 188.169 4.26789 6.4426 0
M  V30 1898 H 186.514 3.83243 5.79784 0
M  V30 1899 H 189.705 2.33433 4.05742 0
M  V30 1900 H 189.878 3.448 5.4865 0
M  V30 1901 N 183.284 -1.43765 0.645699 0
M  V30 1902 C 184.194 -2.34544 -0.0512957 0
M  V30 1903 C 185.21 -1.53455 -0.82022 0
M  V30 1904 O 186.386 -1.86133 -0.769176 0
M  V30 1905 C 183.451 -3.31636 -1.01087 0
M  V30 1906 C 182.512 -4.2863 -0.239712 0
M  V30 1907 C 181.745 -5.21084 -1.15358 0
M  V30 1908 O 181.968 -5.1779 -2.39269 0
M  V30 1909 O 180.902 -5.98593 -0.630038 0
M  V30 1910 H 184.728 -2.95624 0.695718 0
M  V30 1911 H 182.313 -1.43781 0.405882 0
M  V30 1912 H 184.195 -3.9136 -1.56254 0
M  V30 1913 H 182.87 -2.73069 -1.73824 0
M  V30 1914 H 181.777 -3.72408 0.355356 0
M  V30 1915 H 183.11 -4.90157 0.447936 0
M  V30 1916 N 184.763 -0.387143 -1.52771 0
M  V30 1917 C 186.009 0.188506 -2.02525 0
M  V30 1918 C 186.364 1.44649 -1.26864 0
M  V30 1919 O 185.657 1.88189 -0.359945 0
M  V30 1920 C 185.851 0.512209 -3.53711 0
M  V30 1921 C 185.68 -0.712855 -4.44014 0
M  V30 1922 C 184.45 -1.23147 -4.90064 0
M  V30 1923 C 186.648 -1.58453 -4.89282 0
M  V30 1924 N 184.63 -2.41431 -5.64433 0
M  V30 1925 C 186.001 -2.61381 -5.6221 0
M  V30 1926 C 188.056 -1.60488 -4.71326 0
M  V30 1927 C 186.759 -3.66227 -6.19088 0
M  V30 1928 C 188.785 -2.6424 -5.29085 0
M  V30 1929 C 188.147 -3.6589 -6.01917 0
M  V30 1930 H 184.246 0.0311236 -0.78138 0
M  V30 1931 H 186.83 -0.536548 -1.87161 0
M  V30 1932 H 185.001 1.20632 -3.69192 0
M  V30 1933 H 186.733 1.07482 -3.90166 0
M  V30 1934 H 183.488 -0.792795 -4.66917 0
M  V30 1935 H 183.912 -3.01274 -6.0627 0
M  V30 1936 H 188.554 -0.83247 -4.14524 0
M  V30 1937 H 186.272 -4.44337 -6.74974 0
M  V30 1938 H 189.858 -2.66695 -5.17074 0
M  V30 1939 H 188.738 -4.44855 -6.45813 0
M  V30 1940 N 186.241 1.57166 -0.116904 0
M  V30 1941 C 187.204 2.14039 0.819742 0
M  V30 1942 C 188.204 1.07477 1.19605 0
M  V30 1943 O 189.394 1.33263 1.1219 0
M  V30 1944 C 186.526 2.67891 2.10826 0
M  V30 1945 H 187.719 2.98128 0.325511 0
M  V30 1946 H 185.272 1.55739 0.132312 0
M  V30 1947 H 186.007 1.87384 2.64685 0
M  V30 1948 H 185.792 3.45823 1.84793 0
M  V30 1949 H 187.282 3.11809 2.77785 0
M  V30 1950 N 187.719 -0.156864 1.56817 0
M  V30 1951 C 188.996 -0.899244 1.73704 0
M  V30 1952 C 189.376 -1.99771 0.682254 0
M  V30 1953 O 188.724 -2.26515 -0.300522 0
M  V30 1954 C 188.934 -1.45075 3.17418 0
M  V30 1955 C 190.282 -1.91802 3.7881 0
M  V30 1956 O 191.306 -1.54838 3.20786 0
M  V30 1957 O 190.165 -2.5994 4.80722 0
M  V30 1958 H 187.259 -0.424267 0.709878 0
M  V30 1959 H 189.805 -0.143561 1.69092 0
M  V30 1960 H 188.577 -0.660846 3.85679 0
M  V30 1961 H 188.2 -2.27021 3.26416 0
M  V30 1962 N 189.197 -1.51736 -0.425897 0
M  V30 1963 C 190.422 -1.69082 -1.20108 0
M  V30 1964 C 190.847 -0.392398 -1.83962 0
M  V30 1965 O 190.205 0.64858 -1.69302 0
M  V30 1966 C 190.253 -2.81604 -2.25237 0
M  V30 1967 O 189.357 -2.46004 -3.30992 0
M  V30 1968 H 188.698 -0.563408 -0.35138 0
M  V30 1969 H 191.228 -1.98358 -0.501512 0
M  V30 1970 H 191.238 -3.06025 -2.69838 0
M  V30 1971 H 189.913 -3.75817 -1.78142 0
M  V30 1972 H 188.49 -2.32195 -2.91787 0
M  V30 1973 N 190.675 0.682077 -1.42076 0
M  V30 1974 C 191.622 1.79578 -1.44984 0
M  V30 1975 C 192.592 1.6332 -0.302614 0
M  V30 1976 O 193.777 1.83978 -0.505633 0
M  V30 1977 C 190.917 3.1756 -1.35091 0
M  V30 1978 C 190.03 3.45156 -2.59791 0
M  V30 1979 C 189.165 4.72826 -2.42093 0
M  V30 1980 C 188.204 4.93433 -3.62202 0
M  V30 1981 N 187.341 6.12338 -3.43491 0
M  V30 1982 H 192.181 1.76427 -2.40161 0
M  V30 1983 H 189.718 0.861376 -1.19242 0
M  V30 1984 H 191.676 3.97287 -1.27354 0
M  V30 1985 H 190.306 3.19854 -0.435133 0
M  V30 1986 H 189.358 2.59736 -2.77923 0
M  V30 1987 H 190.67 3.5628 -3.49094 0
M  V30 1988 H 189.824 5.60631 -2.319 0
M  V30 1989 H 188.563 4.63973 -1.50268 0
M  V30 1990 H 187.568 4.04073 -3.72834 0
M  V30 1991 H 188.793 5.04136 -4.54998 0
M  V30 1992 H 186.739 6.04672 -2.54377 0
M  V30 1993 H 186.656 6.2429 -4.26377 0
M  V30 1994 H 187.924 7.02841 -3.37097 0
M  V30 1995 N 192.153 1.28127 0.917671 0
M  V30 1996 C 193.378 1.18007 1.70555 0
M  V30 1997 C 193.803 -0.258257 1.86319 0
M  V30 1998 O 193.161 -1.1869 1.37049 0
M  V30 1999 C 193.209 1.87948 3.07746 0
M  V30 2000 O 192.313 1.18427 3.9503 0
M  V30 2001 H 191.654 0.409867 0.522403 0
M  V30 2002 H 194.184 1.69379 1.1477 0
M  V30 2003 H 194.194 1.95701 3.58001 0
M  V30 2004 H 192.869 2.92573 2.95591 0
M  V30 2005 H 191.446 1.18811 3.53466 0
M  V30 2006 N 193.631 -1.12557 1.10312 0
M  V30 2007 C 194.871 -1.8568 0.854543 0
M  V30 2008 C 195.235 -1.82091 -0.608843 0
M  V30 2009 O 196.436 -2.50544 -0.973717 0
M  V30 2010 C 194.707 -3.2942 1.38626 0
M  V30 2011 S 196.266 -4.19931 1.27293 0
M  V30 2012 H 193.084 -0.640427 0.308827 0
M  V30 2013 H 195.686 -1.35599 1.40831 0
M  V30 2014 H 194.39 -3.2959 2.44537 0
M  V30 2015 H 193.921 -3.84566 0.82902 0
M  V30 2016 H 195.936 -4.95668 0.229776 0
M  V30 2017 N 195.109 -0.891671 -1.2995 0
M  V30 2018 C 196.349 -0.520296 -1.97667 0
M  V30 2019 C 196.713 0.914797 -1.68806 0
M  V30 2020 O 197.914 1.39263 -2.29911 0
M  V30 2021 C 196.185 -0.795222 -3.48441 0
M  V30 2022 S 197.744 -0.526953 -4.35624 0
M  V30 2023 H 194.562 -0.19333 -0.684211 0
M  V30 2024 H 197.164 -1.15238 -1.57926 0
M  V30 2025 H 195.868 -1.83805 -3.66938 0
M  V30 2026 H 195.399 -0.15095 -3.9311 0
M  V30 2027 H 197.414 0.631533 -4.92165 0
M  V30 2028 N 196.587 1.43421 -0.653314 0
M  V30 2029 C 197.864 1.95361 -0.0966581 0
M  V30 2030 C 198.244 1.59461 1.38331 0
M  V30 2031 O 197.592 0.879777 2.10884 0
M  V30 2032 C 197.802 3.47311 -0.342988 0
M  V30 2033 C 199.15 4.23875 -0.24798 0
M  V30 2034 O 200.174 3.55133 -0.275553 0
M  V30 2035 O 199.033 5.4623 -0.171771 0
M  V30 2036 H 196.127 0.826945 0.00956291 0
M  V30 2037 H 198.673 1.5336 -0.726558 0
M  V30 2038 H 197.445 3.66569 -1.36906 0
M  V30 2039 H 197.068 3.9631 0.319975 0
M  V30 2040 N 198.065 0.39524 1.52563 0
M  V30 2041 C 199.295 -0.184675 2.05773 0
M  V30 2042 C 199.703 -1.40571 1.26635 0
M  V30 2043 O 199.046 -1.81105 0.30769 0
M  V30 2044 C 199.108 -0.613551 3.54226 0
M  V30 2045 C 198.772 0.49484 4.54313 0
M  V30 2046 C 199.769 1.3541 5.01956 0
M  V30 2047 C 197.454 0.663565 4.97898 0
M  V30 2048 C 199.448 2.36716 5.91814 0
M  V30 2049 C 197.135 1.67996 5.87555 0
M  V30 2050 C 198.133 2.53017 6.34406 0
M  V30 2051 O 197.821 3.52917 7.22291 0
M  V30 2052 H 197.553 -0.030077 0.675331 0
M  V30 2053 H 200.107 0.560708 1.97599 0
M  V30 2054 H 198.337 -1.411 3.60038 0
M  V30 2055 H 200.026 -1.11981 3.90148 0
M  V30 2056 H 200.792 1.23509 4.6901 0
M  V30 2057 H 196.671 0.0114913 4.60999 0
M  V30 2058 H 200.215 3.03113 6.28306 0
M  V30 2059 H 196.112 1.79933 6.19915 0
M  V30 2060 H 196.88 3.48996 7.40367 0
M  V30 2061 N 199.544 -1.57102 0.125237 0
M  V30 2062 C 200.769 -2.0019 -0.542101 0
M  V30 2063 C 201.194 -1.00449 -1.59034 0
M  V30 2064 O 200.552 0.0229423 -1.81285 0
M  V30 2065 C 200.6 -3.42129 -1.13929 0
M  V30 2066 O 199.704 -3.45307 -2.2547 0
M  V30 2067 H 199.045 -0.650171 -0.134812 0
M  V30 2068 H 201.575 -2.03461 0.215553 0
M  V30 2069 H 201.585 -3.80471 -1.4733 0
M  V30 2070 H 200.26 -4.14237 -0.371531 0
M  V30 2071 H 198.837 -3.1879 -1.93462 0
M  V30 2072 N 201.022 0.148545 -1.56898 0
M  V30 2073 C 201.952 1.18524 -2.01182 0
M  V30 2074 C 202.933 1.4489 -0.891123 0
M  V30 2075 O 204.118 1.55836 -1.15882 0
M  V30 2076 C 201.248 2.51879 -2.39112 0
M  V30 2077 C 200.202 2.40038 -3.54353 0
M  V30 2078 C 199.528 3.78089 -3.78091 0
M  V30 2079 C 200.828 1.88577 -4.87069 0
M  V30 2080 H 202.522 0.817029 -2.88036 0
M  V30 2081 H 200.068 0.391575 -1.38574 0
M  V30 2082 H 202.021 3.24627 -2.68692 0
M  V30 2083 H 200.745 2.90532 -1.49193 0
M  V30 2084 H 199.404 1.69742 -3.24936 0
M  V30 2085 H 199.052 4.14175 -2.85426 0
M  V30 2086 H 198.752 3.71028 -4.55645 0
M  V30 2087 H 200.276 4.52387 -4.10095 0
M  V30 2088 H 201.69 2.51117 -5.15377 0
M  V30 2089 H 200.087 1.9241 -5.68417 0
M  V30 2090 H 201.157 0.84136 -4.77545 0
M  V30 2091 N 202.5 1.5196 0.417844 0
M  V30 2092 C 203.45 1.7106 1.5074 0
M  V30 2093 C 204.434 0.564487 1.50673 0
M  V30 2094 O 205.626 0.821206 1.56797 0
M  V30 2095 C 202.755 1.85677 2.88754 0
M  V30 2096 C 201.841 3.06133 2.93502 0
M  V30 2097 N 202.232 4.28987 2.67962 0
M  V30 2098 C 200.53 3.05787 3.24669 0
M  V30 2099 C 201.231 5.10395 2.79055 0
M  V30 2100 N 200.207 4.45455 3.11561 0
M  V30 2101 H 204.009 2.63696 1.29775 0
M  V30 2102 H 201.523 1.49873 0.625436 0
M  V30 2103 H 203.52 1.97475 3.67164 0
M  V30 2104 H 202.18 0.942348 3.10725 0
M  V30 2105 H 203.191 4.57607 2.4252 0
M  V30 2106 H 199.868 2.2405 3.52289 0
M  V30 2107 H 201.258 6.18247 2.63097 0
M  V30 2108 N 203.978 -0.674533 1.42435 0
M  V30 2109 C 205.224 -1.43671 1.43131 0
M  V30 2110 C 205.557 -1.94142 0.0476021 0
M  V30 2111 O 204.832 -1.70924 -0.928188 0
M  V30 2112 C 205.115 -2.63355 2.45594 0
M  V30 2113 C 204.968 -2.18514 3.93156 0
M  V30 2114 C 206.287 -3.65571 2.45043 0
M  V30 2115 H 203.406 -0.521077 0.521198 0
M  V30 2116 H 206.048 -0.766551 1.7385 0
M  V30 2117 H 204.198 -3.2053 2.19528 0
M  V30 2118 H 205.87 -1.66504 4.30202 0
M  V30 2119 H 204.113 -1.50086 4.07009 0
M  V30 2120 H 204.784 -3.04484 4.60428 0
M  V30 2121 H 207.26 -3.18113 2.68223 0
M  V30 2122 H 206.136 -4.46893 3.18713 0
M  V30 2123 H 206.397 -4.16716 1.47649 0
M  V30 2124 N 205.456 -1.28612 -0.910864 0
M  V30 2125 C 206.733 -1.06632 -1.63979 0
M  V30 2126 C 207.113 0.393351 -2.07403 0
M  V30 2127 O 206.461 1.37999 -1.82122 0
M  V30 2128 C 206.671 -2.0436 -2.8291 0
M  V30 2129 C 208.019 -2.34666 -3.5386 0
M  V30 2130 O 209.043 -2.02467 -2.93062 0
M  V30 2131 O 207.902 -2.89631 -4.63439 0
M  V30 2132 H 204.996 -0.407737 -0.7195 0
M  V30 2133 H 207.542 -1.39942 -0.959914 0
M  V30 2134 H 206.314 -3.02727 -2.47936 0
M  V30 2135 H 205.937 -1.71714 -3.58609 0
M  V30 2136 N 206.934 1.1197 -1.10907 0
M  V30 2137 C 208.183 1.82947 -0.849302 0
M  V30 2138 C 208.496 1.85275 0.627112 0
M  V30 2139 O 209.702 2.52296 1.00295 0
M  V30 2140 C 208.158 3.28529 -1.46959 0
M  V30 2141 C 207.766 3.34546 -2.97965 0
M  V30 2142 C 209.51 4.04443 -1.28942 0
M  V30 2143 C 207.417 4.74491 -3.53004 0
M  V30 2144 H 206.347 0.685477 -0.314065 0
M  V30 2145 H 208.998 1.2604 -1.33365 0
M  V30 2146 H 207.38 3.85333 -0.912917 0
M  V30 2147 H 208.554 2.87654 -3.59989 0
M  V30 2148 H 206.869 2.72108 -3.15192 0
M  V30 2149 H 209.466 5.07787 -1.67502 0
M  V30 2150 H 209.809 4.15656 -0.231456 0
M  V30 2151 H 210.342 3.5401 -1.81443 0
M  V30 2152 H 207.081 4.68474 -4.58489 0
M  V30 2153 H 206.601 5.21816 -2.9575 0
M  V30 2154 H 208.28 5.4344 -3.51115 0
M  V30 2155 N 208.412 0.89855 1.29475 0
M  V30 2156 C 209.637 0.538561 2.00285 0
M  V30 2157 C 210.062 -0.869135 1.66816 0
M  V30 2158 O 209.42 -1.57831 0.892145 0
M  V30 2159 C 209.468 0.736475 3.52999 0
M  V30 2160 O 208.572 -0.211537 4.11857 0
M  V30 2161 H 207.913 0.210563 0.62973 0
M  V30 2162 H 210.443 1.20982 1.64998 0
M  V30 2163 H 210.453 0.640685 4.02938 0
M  V30 2164 H 209.128 1.76276 3.76696 0
M  V30 2165 H 207.705 -0.0682991 3.72837 0
M  V30 2166 N 209.89 -1.43072 0.660911 0
M  V30 2167 C 210.8 -2.34585 -0.0264163 0
M  V30 2168 C 211.816 -1.54316 -0.803898 0
M  V30 2169 O 212.992 -1.86939 -0.749391 0
M  V30 2170 C 210.057 -3.32689 -0.975639 0
M  V30 2171 C 209.118 -4.2886 -0.194236 0
M  V30 2172 C 208.351 -5.22278 -1.09825 0
M  V30 2173 O 208.574 -5.20299 -2.33763 0
M  V30 2174 O 207.508 -5.99228 -0.566513 0
M  V30 2175 H 211.334 -2.94869 0.727034 0
M  V30 2176 H 208.919 -1.43342 0.42111 0
M  V30 2177 H 210.801 -3.92995 -1.52094 0
M  V30 2178 H 209.476 -2.74898 -1.70918 0
M  V30 2179 H 208.383 -3.72011 0.394835 0
M  V30 2180 H 209.716 -4.89655 0.499899 0
M  V30 2181 N 211.368 -0.403325 -1.52352 0
M  V30 2182 C 212.614 0.167015 -2.02713 0
M  V30 2183 C 212.969 1.43296 -1.28391 0
M  V30 2184 O 212.262 1.87796 -0.379885 0
M  V30 2185 C 212.456 0.474665 -3.54234 0
M  V30 2186 C 212.285 -0.759909 -4.43233 0
M  V30 2187 C 211.055 -1.28338 -4.88731 0
M  V30 2188 C 213.253 -1.63634 -4.87574 0
M  V30 2189 N 211.235 -2.47404 -5.6184 0
M  V30 2190 C 212.606 -2.67329 -5.59406 0
M  V30 2191 C 214.661 -1.65478 -4.69597 0
M  V30 2192 C 213.364 -3.72773 -6.15169 0
M  V30 2193 C 215.39 -2.69837 -5.26253 0
M  V30 2194 C 214.752 -3.72253 -5.98002 0
M  V30 2195 H 210.851 0.0228343 -0.781667 0
M  V30 2196 H 213.435 -0.556368 -1.86581 0
M  V30 2197 H 211.606 1.16709 -3.7045 0
M  V30 2198 H 213.338 1.03338 -3.91284 0
M  V30 2199 H 210.093 -0.842273 -4.6605 0
M  V30 2200 H 210.517 -3.07688 -6.0304 0
M  V30 2201 H 215.159 -0.876389 -4.13617 0
M  V30 2202 H 212.877 -4.51471 -6.70223 0
M  V30 2203 H 216.463 -2.72164 -5.14216 0
M  V30 2204 H 215.343 -4.51679 -6.41058 0
M  V30 2205 N 212.846 1.57033 -0.133567 0
M  V30 2206 C 213.796 2.12641 0.822671 0
M  V30 2207 C 214.78 1.05081 1.21847 0
M  V30 2208 O 215.972 1.31287 1.18713 0
M  V30 2209 C 213.101 2.74094 2.06706 0
M  V30 2210 C 212.187 3.88757 1.69497 0
M  V30 2211 N 212.578 4.95194 1.03037 0
M  V30 2212 C 210.876 3.99213 1.98859 0
M  V30 2213 C 211.577 5.75414 0.852873 0
M  V30 2214 N 210.553 5.25726 1.3825 0
M  V30 2215 H 214.355 2.92308 0.305537 0
M  V30 2216 H 211.869 1.62256 0.0684276 0
M  V30 2217 H 213.866 3.12285 2.76195 0
M  V30 2218 H 212.526 1.95896 2.5895 0
M  V30 2219 H 213.537 5.13247 0.692669 0
M  V30 2220 H 210.214 3.32075 2.53047 0
M  V30 2221 H 211.604 6.71089 0.330091 0
M  V30 2222 N 214.325 -0.140222 1.56975 0
M  V30 2223 C 215.272 -1.17292 1.98774 0
M  V30 2224 C 216.242 -1.4232 0.856408 0
M  V30 2225 O 217.427 -1.54541 1.119 0
M  V30 2226 C 214.567 -2.49973 2.37923 0
M  V30 2227 C 213.68 -2.32062 3.64378 0
M  V30 2228 C 212.815 -3.57825 3.926 0
M  V30 2229 C 211.854 -3.3498 5.12303 0
M  V30 2230 N 210.991 -4.52891 5.36502 0
M  V30 2231 H 215.831 -0.809472 2.86795 0
M  V30 2232 H 213.368 -0.388237 1.41884 0
M  V30 2233 H 215.326 -3.27346 2.58652 0
M  V30 2234 H 213.956 -2.84252 1.52972 0
M  V30 2235 H 213.008 -1.45711 3.51387 0
M  V30 2236 H 214.32 -2.11145 4.51906 0
M  V30 2237 H 213.474 -4.43624 4.13863 0
M  V30 2238 H 212.213 -3.81753 3.03506 0
M  V30 2239 H 211.218 -2.4757 4.90906 0
M  V30 2240 H 212.443 -3.12444 6.02956 0
M  V30 2241 H 210.389 -4.76979 4.50363 0
M  V30 2242 H 210.306 -4.35001 6.18312 0
M  V30 2243 H 211.574 -5.39884 5.62268 0
M  V30 2244 N 215.803 -1.52179 -0.40978 0
M  V30 2245 C 217.051 -1.65878 -1.15451 0
M  V30 2246 C 217.372 -0.390771 -1.91044 0
M  V30 2247 O 216.642 0.594323 -1.86667 0
M  V30 2248 H 215.222 -0.611405 -0.429177 0
M  V30 2249 H 217.884 -1.89219 -0.467134 0
M  V30 2250 H 216.98 -2.49954 -1.86894 0
M  V30 2251 N 217.281 0.66697 -1.42791 0
M  V30 2252 C 218.53 1.42278 -1.42968 0
M  V30 2253 C 218.843 1.9553 -0.0524489 0
M  V30 2254 O 220.049 2.71414 0.068363 0
M  V30 2255 C 218.505 2.57418 -2.51524 0
M  V30 2256 C 218.113 2.10832 -3.9529 0
M  V30 2257 C 219.857 3.34878 -2.60877 0
M  V30 2258 C 217.764 3.23101 -4.95338 0
M  V30 2259 H 216.694 0.534533 -0.531781 0
M  V30 2260 H 219.345 0.721302 -1.68729 0
M  V30 2261 H 217.727 3.29971 -2.18941 0
M  V30 2262 H 218.901 1.4538 -4.37266 0
M  V30 2263 H 217.216 1.46289 -3.89857 0
M  V30 2264 H 219.813 4.18505 -3.32802 0
M  V30 2265 H 220.156 3.81993 -1.6549 0
M  V30 2266 H 220.689 2.69398 -2.92693 0
M  V30 2267 H 217.428 2.80969 -5.9223 0
M  V30 2268 H 216.948 3.87309 -4.57987 0
M  V30 2269 H 218.627 3.88447 -5.17415 0
M  V30 2270 N 218.759 1.29093 0.90403 0
M  V30 2271 C 219.691 1.09658 2.01266 0
M  V30 2272 C 220.704 0.0453729 1.62737 0
M  V30 2273 O 221.893 0.289446 1.76138 0
M  V30 2274 C 218.993 0.646278 3.32681 0
M  V30 2275 C 218.166 1.77505 3.99763 0
M  V30 2276 C 217.225 1.31649 5.09465 0
M  V30 2277 O 216.251 2.02045 5.32134 0
M  V30 2278 N 217.453 0.184997 5.80205 0
M  V30 2279 H 220.218 2.05135 2.18494 0
M  V30 2280 H 217.779 1.20975 1.07594 0
M  V30 2281 H 219.771 0.322906 4.0341 0
M  V30 2282 H 218.341 -0.215916 3.11853 0
M  V30 2283 H 217.561 2.26752 3.22455 0
M  V30 2284 H 218.849 2.53198 4.41325 0
M  V30 2285 H 218.247 -0.402021 5.6427 0
M  V30 2286 H 216.804 -0.0790358 6.51752 0
M  V30 2287 N 220.237 -1.11381 1.11499 0
M  V30 2288 C 221.147 -2.21019 0.786628 0
M  V30 2289 C 222.163 -1.72597 -0.220507 0
M  V30 2290 O 223.339 -2.01321 -0.0565251 0
M  V30 2291 C 220.404 -3.459 0.235333 0
M  V30 2292 C 219.465 -4.09107 1.30115 0
M  V30 2293 C 218.698 -5.28027 0.776068 0
M  V30 2294 O 218.921 -5.6904 -0.393661 0
M  V30 2295 O 217.855 -5.81835 1.54114 0
M  V30 2296 H 221.681 -2.51521 1.70209 0
M  V30 2297 H 219.266 -1.19928 0.890928 0
M  V30 2298 H 221.148 -4.21346 -0.067715 0
M  V30 2299 H 219.823 -3.17049 -0.652828 0
M  V30 2300 H 218.73 -3.35391 1.65722 0
M  V30 2301 H 220.063 -4.42139 2.16273 0
M  V30 2302 N 221.715 -0.905404 -1.28997 0
M  V30 2303 C 222.625 -0.392246 -2.31298 0
M  V30 2304 C 223.641 0.515889 -1.66176 0
M  V30 2305 O 224.817 0.404093 -1.97304 0
M  V30 2306 C 221.882 0.36686 -3.44754 0
M  V30 2307 C 220.943 -0.573485 -4.25452 0
M  V30 2308 C 220.176 0.149488 -5.33491 0
M  V30 2309 O 220.399 1.37255 -5.5364 0
M  V30 2310 O 219.333 -0.510919 -5.99728 0
M  V30 2311 H 223.159 -1.2411 -2.77183 0
M  V30 2312 H 220.744 -0.669926 -1.33538 0
M  V30 2313 H 222.626 0.795907 -4.13816 0
M  V30 2314 H 221.301 1.19169 -3.00966 0
M  V30 2315 H 220.208 -1.05176 -3.59011 0
M  V30 2316 H 221.541 -1.36489 -4.72897 0
M  V30 2317 N 223.193 1.4272 -0.668489 0
M  V30 2318 C 224.126 2.28111 0.0637898 0
M  V30 2319 C 225.104 1.40705 0.814912 0
M  V30 2320 O 226.288 1.70146 0.81134 0
M  V30 2321 C 223.415 3.20429 1.0974 0
M  V30 2322 C 222.461 4.24197 0.442579 0
M  V30 2323 S 223.294 5.29563 -0.795173 0
M  V30 2324 C 224.45 6.25449 0.237516 0
M  V30 2325 H 224.683 2.8987 -0.660521 0
M  V30 2326 H 222.216 1.47456 -0.457821 0
M  V30 2327 H 224.174 3.74158 1.68868 0
M  V30 2328 H 222.835 2.57818 1.79411 0
M  V30 2329 H 222.028 4.88954 1.22227 0
M  V30 2330 H 221.63 3.73925 -0.0749554 0
M  V30 2331 H 223.922 6.68524 1.09915 0
M  V30 2332 H 224.865 7.07104 -0.375421 0
M  V30 2333 H 225.273 5.61511 0.580167 0
M  V30 2334 N 224.671 0.411399 1.52136 0
M  V30 2335 C 225.581 -0.419774 2.30814 0
M  V30 2336 C 226.597 -1.0515 1.38634 0
M  V30 2337 O 227.773 -1.05252 1.71709 0
M  V30 2338 C 224.838 -1.52019 3.11594 0
M  V30 2339 C 223.899 -0.91129 4.19516 0
M  V30 2340 C 223.132 -1.95927 4.96436 0
M  V30 2341 O 223.355 -3.17775 4.73683 0
M  V30 2342 O 222.289 -1.56423 5.81219 0
M  V30 2343 H 226.115 0.221805 3.02889 0
M  V30 2344 H 223.7 0.174547 1.48377 0
M  V30 2345 H 225.582 -2.15898 3.61892 0
M  V30 2346 H 224.257 -2.14633 2.42311 0
M  V30 2347 H 223.164 -0.235157 3.7336 0
M  V30 2348 H 224.497 -0.32904 4.91099 0
M  V30 2349 N 226.149 -1.5696 0.141893 0
M  V30 2350 C 227.112 -2.15316 -0.785587 0
M  V30 2351 C 228.112 -1.09366 -1.1788 0
M  V30 2352 O 229.302 -1.35031 -1.10056 0
M  V30 2353 C 226.434 -2.71211 -2.06537 0
M  V30 2354 H 227.627 -2.98608 -0.278041 0
M  V30 2355 H 225.18 -1.5593 -0.107519 0
M  V30 2356 H 225.915 -1.91571 -2.6167 0
M  V30 2357 H 225.7 -3.4872 -1.79268 0
M  V30 2358 H 227.19 -3.16189 -2.72789 0
M  V30 2359 N 227.627 0.131896 -1.57047 0
M  V30 2360 C 228.557 1.16384 -2.02428 0
M  V30 2361 C 229.538 1.43936 -0.90644 0
M  V30 2362 O 230.723 1.54599 -1.17528 0
M  V30 2363 C 227.853 2.49328 -2.4177 0
M  V30 2364 C 226.807 2.36266 -3.56879 0
M  V30 2365 C 226.133 3.74057 -3.8208 0
M  V30 2366 C 227.433 1.834 -4.89042 0
M  V30 2367 H 229.127 0.786433 -2.88887 0
M  V30 2368 H 226.673 0.376855 -1.38981 0
M  V30 2369 H 228.626 3.21759 -2.7212 0
M  V30 2370 H 227.35 2.88934 -1.52266 0
M  V30 2371 H 226.009 1.66286 -3.26718 0
M  V30 2372 H 225.657 4.11125 -2.89803 0
M  V30 2373 H 225.357 3.66174 -4.59554 0
M  V30 2374 H 226.881 4.48012 -4.1487 0
M  V30 2375 H 228.295 2.45636 -5.18011 0
M  V30 2376 H 226.692 1.8637 -5.70426 0
M  V30 2377 H 227.762 0.790662 -4.7841 0
M  V30 2378 N 229.106 1.52395 0.401703 0
M  V30 2379 C 230.352 1.67065 1.14966 0
M  V30 2380 C 230.685 0.403052 1.89971 0
M  V30 2381 O 229.96 -0.598774 1.85054 0
M  V30 2382 C 230.243 2.8975 2.13815 0
M  V30 2383 C 230.096 4.26578 1.42658 0
M  V30 2384 C 231.415 3.07965 3.14397 0
M  V30 2385 H 228.534 0.607968 0.416587 0
M  V30 2386 H 231.176 1.84965 0.434511 0
M  V30 2387 H 229.326 2.74619 2.74803 0
M  V30 2388 H 230.998 4.53451 0.847329 0
M  V30 2389 H 229.241 4.27639 0.72849 0
M  V30 2390 H 229.912 5.08483 2.14823 0
M  V30 2391 H 232.388 3.22043 2.63491 0
M  V30 2392 H 231.264 3.95308 3.80819 0
M  V30 2393 H 231.525 2.21611 3.82545 0
M  V30 2394 N 230.584 -0.659388 1.43143 0
M  V30 2395 C 231.531 -1.77249 1.47822 0
M  V30 2396 C 232.501 -1.62818 0.328558 0
M  V30 2397 O 233.686 -1.83151 0.534838 0
M  V30 2398 C 230.826 -3.15371 1.40126 0
M  V30 2399 C 229.939 -3.4098 2.65249 0
M  V30 2400 C 229.074 -4.68915 2.49584 0
M  V30 2401 C 228.113 -4.87608 3.70006 0
M  V30 2402 N 227.25 -6.06796 3.53189 0
M  V30 2403 H 232.09 -1.72584 2.42938 0
M  V30 2404 H 229.627 -0.842297 1.20598 0
M  V30 2405 H 231.585 -3.9521 1.33659 0
M  V30 2406 H 230.215 -3.19121 0.485964 0
M  V30 2407 H 229.267 -2.55282 2.8202 0
M  V30 2408 H 230.579 -3.50681 3.54717 0
M  V30 2409 H 229.733 -5.56871 2.4079 0
M  V30 2410 H 228.472 -4.61524 1.5763 0
M  V30 2411 H 227.477 -3.9809 3.79215 0
M  V30 2412 H 228.702 -4.96834 4.62961 0
M  V30 2413 H 226.648 -6.00549 2.63965 0
M  V30 2414 H 226.565 -6.17428 4.36255 0
M  V30 2415 H 227.833 -6.9739 3.48236 0
M  V30 2416 N 232.062 -1.29571 -0.897171 0
M  V30 2417 C 233.339 -1.08365 -1.62839 0
M  V30 2418 C 233.719 0.371331 -2.07808 0
M  V30 2419 O 233.067 1.3606 -1.83576 0
M  V30 2420 C 233.277 -2.0735 -2.80726 0
M  V30 2421 C 234.625 -2.38406 -3.51351 0
M  V30 2422 O 235.649 -2.05564 -2.90898 0
M  V30 2423 O 234.508 -2.9453 -4.60341 0
M  V30 2424 H 231.602 -0.415345 -0.715134 0
M  V30 2425 H 234.148 -1.40952 -0.945018 0
M  V30 2426 H 232.92 -3.05339 -2.44711 0
M  V30 2427 H 232.543 -1.75507 -3.56767 0
M  V30 2428 N 233.54 1.10788 -1.12088 0
M  V30 2429 C 234.49 2.15158 -0.754401 0
M  V30 2430 C 235.474 1.59026 0.244846 0
M  V30 2431 O 236.666 1.76927 0.0509097 0
M  V30 2432 C 233.795 3.42677 -0.206657 0
M  V30 2433 C 232.881 4.05751 -1.23398 0
M  V30 2434 N 233.272 4.43582 -2.43041 0
M  V30 2435 C 231.57 4.32764 -1.07848 0
M  V30 2436 C 232.271 4.93085 -3.08613 0
M  V30 2437 N 231.247 4.89664 -2.36072 0
M  V30 2438 H 235.049 2.42195 -1.6649 0
M  V30 2439 H 232.563 1.27872 -1.00112 0
M  V30 2440 H 234.56 4.16834 0.0740646 0
M  V30 2441 H 233.22 3.17101 0.698342 0
M  V30 2442 H 234.231 4.35395 -2.80449 0
M  V30 2443 H 230.908 4.16863 -0.230483 0
M  V30 2444 H 232.298 5.31933 -4.10483 0
M  V30 2445 N 235.018 0.912232 1.28515 0
M  V30 2446 C 236.266 0.543523 1.94654 0
M  V30 2447 C 236.587 -0.9155 1.72173 0
M  V30 2448 O 235.857 -1.64708 1.06058 0
M  V30 2449 H 234.437 0.198017 0.720277 0
M  V30 2450 H 237.099 1.16126 1.56527 0
M  V30 2451 H 236.195 0.736684 3.03281 0
M  V30 2452 N 236.496 -1.42363 0.676048 0
M  V30 2453 C 237.742 -2.0182 0.199125 0
M  V30 2454 C 238.075 -1.53339 -1.19168 0
M  V30 2455 O 237.35 -0.736124 -1.80032 0
M  V30 2456 C 237.633 -3.59331 0.235144 0
M  V30 2457 C 237.486 -4.17989 1.66149 0
M  V30 2458 C 238.805 -4.3813 -0.41595 0
M  V30 2459 H 235.924 -0.733293 0.0738311 0
M  V30 2460 H 238.566 -1.69368 0.86107 0
M  V30 2461 H 236.716 -3.87109 -0.328487 0
M  V30 2462 H 238.388 -4.0116 2.27747 0
M  V30 2463 H 236.631 -3.7377 2.20178 0
M  V30 2464 H 237.302 -5.27126 1.63837 0
M  V30 2465 H 239.778 -4.16051 0.0638529 0
M  V30 2466 H 238.654 -5.47717 -0.360115 0
M  V30 2467 H 238.915 -4.16101 -1.49373 0
M  V30 2468 N 237.974 -0.419461 -1.51915 0
M  V30 2469 C 238.922 0.415502 -2.28859 0
M  V30 2470 C 239.916 1.03674 -1.3397 0
M  V30 2471 O 241.122 0.973757 -1.51387 0
M  V30 2472 H 237.497 0.152786 -0.736315 0
M  V30 2473 H 239.468 -0.254531 -2.97312 0
M  V30 2474 C 238.217 1.51425 -3.12995 0
M  V30 2475 H 237.54 1.04556 -3.85886 0
M  V30 2476 H 238.98 2.07208 -3.6992 0
M  V30 2477 C 237.439 2.48745 -2.27217 0
M  V30 2478 O 237.969 3.52871 -1.9195 0
M  V30 2479 N 236.175 2.19202 -1.90785 0
M  V30 2480 H 235.722 1.34556 -2.19664 0
M  V30 2481 H 235.68 2.84561 -1.33687 0
M  V30 2482 N 239.452 1.56882 -0.150215 0
M  V30 2483 C 240.677 2.01027 0.510184 0
M  V30 2484 C 241.102 1.02966 1.57415 0
M  V30 2485 O 240.46 0.00590158 1.81299 0
M  V30 2486 C 240.508 3.43899 1.08472 0
M  V30 2487 O 239.612 3.4885 2.19948 0
M  V30 2488 H 238.953 0.652233 0.124451 0
M  V30 2489 H 241.483 2.03093 -0.247894 0
M  V30 2490 H 241.493 3.82766 1.41259 0
M  V30 2491 H 240.168 4.14776 0.305582 0
M  V30 2492 H 238.745 3.21827 1.88366 0
M  V30 2493 N 240.93 -0.123565 1.57115 0
M  V30 2494 C 242.177 -0.832153 1.84612 0
M  V30 2495 C 242.505 -1.80093 0.734627 0
M  V30 2496 O 241.76 -1.93766 -0.27442 0
M  V30 2497 C 242.059 -1.62016 3.18568 0
M  V30 2498 C 241.725 -0.796084 4.43817 0
M  V30 2499 C 240.387 -0.568816 4.77826 0
M  V30 2500 C 242.739 -0.221364 5.2073 0
M  V30 2501 C 240.067 0.243499 5.86194 0
M  V30 2502 C 242.419 0.578117 6.29953 0
M  V30 2503 C 241.083 0.815744 6.62497 0
M  V30 2504 H 240.353 -0.304507 0.675542 0
M  V30 2505 H 243 -0.0947248 1.91266 0
M  V30 2506 H 241.305 -2.42837 3.0747 0
M  V30 2507 H 243.002 -2.17231 3.37064 0
M  V30 2508 H 239.592 -0.983307 4.17168 0
M  V30 2509 H 243.776 -0.384173 4.94811 0
M  V30 2510 H 239.032 0.436871 6.09837 0
M  V30 2511 H 243.206 1.03046 6.88734 0
M  V30 2512 H 240.833 1.44701 7.46301 0
M  V30 2513 N 242.408 -1.52605 -0.393616 0
M  V30 2514 C 243.338 -1.80022 -1.48709 0
M  V30 2515 C 244.319 -0.651995 -1.57108 0
M  V30 2516 O 245.504 -0.89913 -1.72132 0
M  V30 2517 C 242.634 -1.96492 -2.86371 0
M  V30 2518 C 241.588 -3.12161 -2.92813 0
M  V30 2519 C 240.914 -3.13877 -4.3288 0
M  V30 2520 C 242.214 -4.51322 -2.6288 0
M  V30 2521 H 243.908 -2.71589 -1.26015 0
M  V30 2522 H 241.454 -1.30684 -0.604778 0
M  V30 2523 H 243.407 -2.14255 -3.62867 0
M  V30 2524 H 242.131 -1.01611 -3.10391 0
M  V30 2525 H 240.79 -2.94173 -2.18764 0
M  V30 2526 H 240.438 -2.16687 -4.53933 0
M  V30 2527 H 240.138 -3.91576 -4.38112 0
M  V30 2528 H 241.662 -3.33789 -5.1129 0
M  V30 2529 H 243.076 -4.69435 -3.29096 0
M  V30 2530 H 241.473 -5.31053 -2.79468 0
M  V30 2531 H 242.543 -4.58353 -1.58242 0
M  V30 2532 N 243.887 0.651787 -1.4349 0
M  V30 2533 C 245.133 1.41376 -1.45398 0
M  V30 2534 C 245.466 1.94041 -0.0784823 0
M  V30 2535 O 244.741 1.72379 0.900878 0
M  V30 2536 C 245.024 2.59414 -2.49752 0
M  V30 2537 C 244.877 2.12232 -3.96582 0
M  V30 2538 C 246.196 3.61626 -2.50827 0
M  V30 2539 H 243.315 0.512719 -0.529422 0
M  V30 2540 H 245.957 0.738796 -1.75048 0
M  V30 2541 H 244.107 3.16997 -2.246 0
M  V30 2542 H 245.779 1.59639 -4.32797 0
M  V30 2543 H 244.022 1.43592 -4.09346 0
M  V30 2544 H 244.693 2.9712 -4.65214 0
M  V30 2545 H 247.169 3.13805 -2.7325 0
M  V30 2546 H 246.045 4.41766 -3.25783 0
M  V30 2547 H 246.306 4.14314 -1.5426 0
M  V30 2548 N 245.365 1.30045 0.890287 0
M  V30 2549 C 246.595 1.21296 1.67245 0
M  V30 2550 C 247.003 -0.227471 1.87828 0
M  V30 2551 O 246.346 -1.16296 1.422 0
M  V30 2552 C 246.408 1.86519 3.07329 0
M  V30 2553 C 246.072 3.35837 3.09939 0
M  V30 2554 C 247.069 4.31915 2.89389 0
M  V30 2555 C 244.754 3.77196 3.31706 0
M  V30 2556 C 246.748 5.67325 2.90552 0
M  V30 2557 C 244.435 5.12725 3.32499 0
M  V30 2558 C 245.433 6.076 3.11947 0
M  V30 2559 O 245.121 7.40655 3.12547 0
M  V30 2560 H 244.853 0.4211 0.528821 0
M  V30 2561 H 247.407 1.72111 1.12103 0
M  V30 2562 H 245.637 1.30228 3.64112 0
M  V30 2563 H 247.326 1.71963 3.67673 0
M  V30 2564 H 248.092 4.01294 2.72375 0
M  V30 2565 H 243.971 3.03796 3.4674 0
M  V30 2566 H 247.515 6.41354 2.74429 0
M  V30 2567 H 243.412 5.42988 3.49047 0
M  V30 2568 H 244.18 7.49577 3.28749 0
M  V30 2569 N 246.843 -1.10192 1.12674 0
M  V30 2570 C 247.776 -2.15847 0.740625 0
M  V30 2571 C 248.754 -1.60352 -0.269421 0
M  V30 2572 O 249.938 -1.87796 -0.16278 0
M  V30 2573 C 247.065 -3.38562 0.096641 0
M  V30 2574 C 246.111 -4.12758 1.07391 0
M  V30 2575 S 246.944 -4.67997 2.60267 0
M  V30 2576 C 248.1 -5.94021 1.97206 0
M  V30 2577 H 248.333 -2.48266 1.63558 0
M  V30 2578 H 245.866 -1.22019 0.946087 0
M  V30 2579 H 247.824 -4.09621 -0.268535 0
M  V30 2580 H 246.485 -3.04377 -0.775462 0
M  V30 2581 H 245.678 -5.00755 0.570997 0
M  V30 2582 H 245.28 -3.47523 1.38216 0
M  V30 2583 H 247.572 -6.64589 1.31634 0
M  V30 2584 H 248.515 -6.48979 2.83253 0
M  V30 2585 H 248.923 -5.46169 1.42686 0
M  V30 2586 N 248.321 -0.919034 -1.28029 0
M  V30 2587 C 249.284 -0.416182 -2.2539 0
M  V30 2588 C 250.284 0.460438 -1.54067 0
M  V30 2589 O 251.474 0.262744 -1.72207 0
M  V30 2590 C 248.606 0.402707 -3.38513 0
M  V30 2591 H 249.799 -1.27629 -2.71387 0
M  V30 2592 H 247.352 -0.698919 -1.39803 0
M  V30 2593 H 248.087 1.282 -2.97885 0
M  V30 2594 H 247.872 -0.225698 -3.9145 0
M  V30 2595 H 249.362 0.745191 -4.10897 0
M  V30 2596 N 249.799 1.42003 -0.683588 0
M  V30 2597 C 251.046 2.01413 -0.209514 0
M  V30 2598 C 251.374 1.54088 1.1869 0
M  V30 2599 O 250.629 0.737591 1.81268 0
M  V30 2600 C 250.928 3.56827 -0.202357 0
M  V30 2601 C 250.594 4.23617 -1.54464 0
M  V30 2602 C 249.256 4.41577 -1.91215 0
M  V30 2603 C 251.608 4.61178 -2.42826 0
M  V30 2604 C 248.936 4.9437 -3.15935 0
M  V30 2605 C 251.288 5.15355 -3.66867 0
M  V30 2606 C 249.952 5.31528 -4.03776 0
M  V30 2607 H 249.222 0.737023 -0.0766668 0
M  V30 2608 H 251.869 1.70067 -0.880312 0
M  V30 2609 H 250.174 3.87892 0.551969 0
M  V30 2610 H 251.871 4.00588 0.181793 0
M  V30 2611 H 248.461 4.10004 -1.24877 0
M  V30 2612 H 252.645 4.46968 -2.15717 0
M  V30 2613 H 247.901 5.05076 -3.44541 0
M  V30 2614 H 252.075 5.43402 -4.35531 0
M  V30 2615 H 249.702 5.72199 -5.00492 0
M  V30 2616 N 251.277 0.427512 1.51691 0
M  V30 2617 C 252.224 -0.388867 2.275 0
M  V30 2618 C 253.194 -1.02532 1.30677 0
M  V30 2619 O 254.379 -1.0461 1.59566 0
M  V30 2620 C 251.519 -1.48954 3.11298 0
M  V30 2621 C 250.632 -0.872194 4.23104 0
M  V30 2622 C 249.767 -1.94709 4.94228 0
M  V30 2623 C 248.806 -1.30766 5.97969 0
M  V30 2624 N 247.943 -2.32349 6.62539 0
M  V30 2625 H 252.783 0.263997 2.96828 0
M  V30 2626 H 250.32 0.142033 1.46413 0
M  V30 2627 H 252.278 -2.13887 3.58201 0
M  V30 2628 H 250.908 -2.11217 2.44105 0
M  V30 2629 H 249.96 -0.111419 3.80237 0
M  V30 2630 H 251.272 -0.365264 4.97461 0
M  V30 2631 H 250.426 -2.67327 5.44629 0
M  V30 2632 H 249.165 -2.48773 4.1948 0
M  V30 2633 H 248.17 -0.566902 5.4687 0
M  V30 2634 H 249.395 -0.774483 6.74669 0
M  V30 2635 H 247.341 -2.85511 5.90609 0
M  V30 2636 H 247.258 -1.8652 7.3263 0
M  V30 2637 H 248.526 -3.04481 7.17574 0
M  V30 2638 N 252.755 -1.56801 0.158532 0
M  V30 2639 C 254.032 -1.88131 -0.535357 0
M  V30 2640 C 254.412 -1.06638 -1.82186 0
M  V30 2641 O 253.76 -0.156533 -2.27963 0
M  V30 2642 C 253.97 -3.39949 -0.789653 0
M  V30 2643 C 255.318 -4.09416 -1.12533 0
M  V30 2644 O 256.342 -3.45194 -0.878622 0
M  V30 2645 O 255.201 -5.22855 -1.59014 0
M  V30 2646 H 252.295 -0.780143 -0.27442 0
M  V30 2647 H 254.841 -1.68564 0.19601 0
M  V30 2648 H 253.613 -3.91115 0.120353 0
M  V30 2649 H 253.236 -3.65084 -1.57479 0
M  V30 2650 N 254.233 0.115231 -1.57178 0
M  V30 2651 C 255.649 0.468877 -1.52557 0
M  V30 2652 C 255.849 1.81649 -0.872125 0
M  V30 2653 O 254.905 2.48347 -0.45606 0
M  V30 2654 C 256.218 0.4499 -2.97315 0
M  V30 2655 C 257.766 0.533185 -3.08425 0
M  V30 2656 C 258.241 0.54456 -4.54751 0
M  V30 2657 N 259.732 0.605892 -4.5922 0
M  V30 2658 C 260.467 0.636203 -5.6986 0
M  V30 2659 N 259.963 0.623931 -6.89985 0
M  V30 2660 N 261.756 0.679496 -5.57978 0
M  V30 2661 H 253.907 -0.767712 -1.9804 0
M  V30 2662 H 256.17 -0.283609 -0.904583 0
M  V30 2663 H 255.876 -0.472721 -3.48509 0
M  V30 2664 H 255.75 1.27632 -3.5495 0
M  V30 2665 H 258.137 1.44623 -2.57232 0
M  V30 2666 H 258.218 -0.320995 -2.53778 0
M  V30 2667 H 257.862 -0.364452 -5.06591 0
M  V30 2668 H 257.792 1.41568 -5.07214 0
M  V30 2669 H 260.283 0.621386 -3.72756 0
M  V30 2670 H 260.596 0.649787 -7.70063 0
M  V30 2671 H 258.941 0.591296 -6.9248 0
M  V30 2672 H 262.132 0.686472 -4.63039 0
M  V30 2673 H 262.305 0.69965 -6.44212 0
M  V30 2674 N 255.711 1.52812 0.385517 0
M  V30 2675 C 256.958 1.68026 1.1302 0
M  V30 2676 C 257.286 0.421934 1.89868 0
M  V30 2677 O 256.541 -0.595749 1.86412 0
M  V30 2678 C 256.84 2.86856 2.13187 0
M  V30 2679 C 256.506 4.24159 1.5297 0
M  V30 2680 C 255.168 4.61501 1.36274 0
M  V30 2681 C 257.52 5.09627 1.09223 0
M  V30 2682 C 254.848 5.81966 0.743837 0
M  V30 2683 C 257.2 6.30719 0.487411 0
M  V30 2684 C 255.864 6.6679 0.307777 0
M  V30 2685 H 255.134 0.614849 0.413571 0
M  V30 2686 H 257.781 1.86962 0.414405 0
M  V30 2687 H 256.086 2.6235 2.90998 0
M  V30 2688 H 257.783 2.95821 2.70722 0
M  V30 2689 H 254.373 3.94746 1.66954 0
M  V30 2690 H 258.557 4.81343 1.20922 0
M  V30 2691 H 253.813 6.08519 0.592891 0
M  V30 2692 H 257.987 6.96259 0.140143 0
M  V30 2693 H 255.614 7.60001 -0.173879 0
M  V30 2694 N 257.189 -0.644168 1.43834 0
M  V30 2695 C 258.121 -1.76955 1.45669 0
M  V30 2696 C 259.134 -1.58956 0.351666 0
M  V30 2697 O 260.323 -1.6751 0.616644 0
M  V30 2698 C 257.423 -3.14507 1.26248 0
M  V30 2699 C 256.596 -3.59083 2.49757 0
M  V30 2700 C 255.655 -4.75467 2.25427 0
M  V30 2701 O 254.681 -4.84444 2.98836 0
M  V30 2702 N 255.883 -5.66289 1.27661 0
M  V30 2703 H 258.648 -1.75856 2.42682 0
M  V30 2704 H 256.209 -0.828312 1.39106 0
M  V30 2705 H 258.201 -3.90067 1.0784 0
M  V30 2706 H 256.771 -3.10325 0.376478 0
M  V30 2707 H 255.991 -2.7387 2.8353 0
M  V30 2708 H 257.279 -3.85613 3.31934 0
M  V30 2709 H 256.677 -5.61718 0.670064 0
M  V30 2710 H 255.234 -6.41533 1.15234 0
M  V30 2711 N 258.668 -1.30515 -0.883378 0
M  V30 2712 C 259.598 -1.19607 -2.00541 0
M  V30 2713 C 260.579 -0.086346 -1.69881 0
M  V30 2714 O 261.764 -0.268654 -1.92333 0
M  V30 2715 C 258.894 -0.888758 -3.35736 0
M  V30 2716 C 257.848 -1.95659 -3.8066 0
M  V30 2717 C 257.174 -1.50224 -5.13164 0
M  V30 2718 C 258.474 -3.36788 -3.99213 0
M  V30 2719 H 260.168 -2.13476 -2.09925 0
M  V30 2720 H 257.714 -1.02775 -1.00863 0
M  V30 2721 H 259.667 -0.799094 -4.13754 0
M  V30 2722 H 258.391 0.0856125 -3.26488 0
M  V30 2723 H 257.05 -2.03591 -3.04871 0
M  V30 2724 H 256.698 -0.516092 -5.00345 0
M  V30 2725 H 256.398 -2.2165 -5.44192 0
M  V30 2726 H 257.922 -1.42639 -5.93706 0
M  V30 2727 H 259.336 -3.31605 -4.67665 0
M  V30 2728 H 257.733 -4.06314 -4.41621 0
M  V30 2729 H 258.803 -3.78561 -3.03017 0
M  V30 2730 N 260.146 1.09593 -1.13257 0
M  V30 2731 C 261.374 1.855 -0.916378 0
M  V30 2732 C 261.789 1.81069 0.534738 0
M  V30 2733 O 261.146 1.20562 1.37007 0
M  V30 2734 C 261.197 3.33546 -1.39388 0
M  V30 2735 O 260.918 3.37927 -2.78813 0
M  V30 2736 C 262.419 4.26299 -1.21588 0
M  V30 2737 H 259.639 0.585991 -0.326887 0
M  V30 2738 H 262.183 1.38488 -1.5047 0
M  V30 2739 H 260.338 3.77992 -0.848597 0
M  V30 2740 H 260.752 4.30254 -2.9997 0
M  V30 2741 H 262.226 5.28341 -1.59876 0
M  V30 2742 H 262.703 4.38918 -0.157376 0
M  V30 2743 H 263.309 3.87668 -1.7491 0
M  V30 2744 N 261.624 0.925811 1.2754 0
M  V30 2745 C 262.901 0.483726 1.89524 0
M  V30 2746 C 263.281 -1.03809 1.83812 0
M  V30 2747 O 262.629 -1.89143 1.28207 0
M  V30 2748 C 262.839 1.02769 3.33526 0
M  V30 2749 C 264.187 1.08703 4.10449 0
M  V30 2750 O 265.211 0.977175 3.42534 0
M  V30 2751 O 264.07 1.25599 5.31871 0
M  V30 2752 H 261.164 0.15529 0.812289 0
M  V30 2753 H 263.71 1.01738 1.35822 0
M  V30 2754 H 262.482 2.07155 3.31967 0
M  V30 2755 H 262.105 0.475567 3.94746 0
M  V30 2756 N 263.102 -1.41638 0.69111 0
M  V30 2757 C 264.342 -2.03166 0.224291 0
M  V30 2758 C 264.706 -1.53537 -1.15284 0
M  V30 2759 O 265.907 -2.0696 -1.71525 0
M  V30 2760 C 264.178 -3.56342 0.274758 0
M  V30 2761 S 265.737 -4.3864 -0.118669 0
M  V30 2762 H 262.555 -0.705188 0.0907263 0
M  V30 2763 H 265.157 -1.7314 0.907895 0
M  V30 2764 H 263.861 -3.89958 1.2791 0
M  V30 2765 H 263.392 -3.91063 -0.428142 0
M  V30 2766 H 265.407 -4.77549 -1.34764 0
M  V30 2767 N 264.58 -0.43555 -1.51462 0
M  V30 2768 C 265.512 0.41257 -2.25456 0
M  V30 2769 C 266.525 0.987822 -1.29406 0
M  V30 2770 O 267.714 0.882266 -1.55172 0
M  V30 2771 C 264.814 1.58894 -2.99342 0
M  V30 2772 C 263.987 1.13288 -4.22474 0
M  V30 2773 C 263.046 2.17917 -4.78956 0
M  V30 2774 O 262.072 1.77425 -5.40841 0
M  V30 2775 N 263.274 3.50382 -4.62832 0
M  V30 2776 H 266.039 -0.221603 -2.9888 0
M  V30 2777 H 263.6 -0.264342 -1.59727 0
M  V30 2778 H 265.592 2.28508 -3.34015 0
M  V30 2779 H 264.162 2.12849 -2.28941 0
M  V30 2780 H 263.382 0.263881 -3.93316 0
M  V30 2781 H 264.67 0.805542 -5.02383 0
M  V30 2782 H 264.068 3.86013 -4.13534 0
M  V30 2783 H 262.625 4.15895 -5.01871 0
M  V30 2784 N 266.058 1.56714 -0.166846 0
M  V30 2785 C 267.307 1.95922 0.479318 0
M  V30 2786 C 267.62 1.05529 1.6469 0
M  V30 2787 O 268.826 1.34399 2.35901 0
M  V30 2788 C 267.282 3.48359 0.90412 0
M  V30 2789 C 266.89 4.47369 -0.237621 0
M  V30 2790 C 268.634 3.96394 1.51896 0
M  V30 2791 C 266.541 5.91039 0.206561 0
M  V30 2792 H 265.471 0.731495 0.18284 0
M  V30 2793 H 268.122 1.81728 -0.254363 0
M  V30 2794 H 266.504 3.57955 1.69365 0
M  V30 2795 H 267.678 4.49485 -1.01489 0
M  V30 2796 H 265.993 4.09366 -0.762128 0
M  V30 2797 H 268.59 5.01186 1.86325 0
M  V30 2798 H 268.933 3.39075 2.41524 0
M  V30 2799 H 269.466 3.89796 0.79395 0
M  V30 2800 H 266.205 6.52221 -0.654834 0
M  V30 2801 H 265.725 5.9224 0.949282 0
M  V30 2802 H 267.404 6.43707 0.651939 0
M  V30 2803 N 267.536 -0.106894 1.57237 0
M  V30 2804 C 268.766 -0.825191 1.89405 0
M  V30 2805 C 269.174 -1.73374 0.757496 0
M  V30 2806 O 268.517 -1.81552 -0.280115 0
M  V30 2807 C 268.579 -1.70102 3.1671 0
M  V30 2808 C 268.243 -0.965523 4.46684 0
M  V30 2809 C 269.24 -0.300741 5.19029 0
M  V30 2810 C 266.925 -0.943105 4.93367 0
M  V30 2811 C 268.919 0.376622 6.36286 0
M  V30 2812 C 266.606 -0.261949 6.10538 0
M  V30 2813 C 267.604 0.396748 6.81847 0
M  V30 2814 O 267.292 1.06701 7.96787 0
M  V30 2815 H 267.024 -0.241852 0.631255 0
M  V30 2816 H 269.578 -0.0921491 2.05193 0
M  V30 2817 H 267.808 -2.47601 2.97036 0
M  V30 2818 H 269.497 -2.29483 3.34802 0
M  V30 2819 H 270.263 -0.309599 4.84011 0
M  V30 2820 H 266.142 -1.44524 4.3776 0
M  V30 2821 H 269.686 0.891334 6.91882 0
M  V30 2822 H 265.583 -0.250896 6.45012 0
M  V30 2823 H 266.351 0.972707 8.127 0
M  V30 2824 N 269.014 -1.53014 -0.377408 0
M  V30 2825 C 269.924 -1.81557 -1.48574 0
M  V30 2826 C 270.94 -0.703102 -1.59162 0
M  V30 2827 O 272.116 -0.99192 -1.75279 0
M  V30 2828 C 269.181 -1.9889 -2.83978 0
M  V30 2829 C 268.242 -3.22801 -2.83016 0
M  V30 2830 C 267.475 -3.39298 -4.11962 0
M  V30 2831 O 267.698 -2.60345 -5.0752 0
M  V30 2832 O 266.632 -4.32604 -4.18494 0
M  V30 2833 H 270.458 -2.75695 -1.27382 0
M  V30 2834 H 268.043 -1.38248 -0.566373 0
M  V30 2835 H 269.925 -2.11931 -3.6423 0
M  V30 2836 H 268.6 -1.07942 -3.05172 0
M  V30 2837 H 267.507 -3.15193 -2.01505 0
M  V30 2838 H 268.84 -4.13632 -2.66775 0
M  V30 2839 N 270.492 0.636531 -1.44174 0
M  V30 2840 C 271.738 1.39826 -1.4689 0
M  V30 2841 C 272.071 1.93947 -0.0990585 0
M  V30 2842 O 271.346 1.73325 0.882544 0
M  V30 2843 C 271.629 2.56751 -2.5249 0
M  V30 2844 C 271.482 2.08014 -3.98811 0
M  V30 2845 C 272.801 3.58946 -2.54649 0
M  V30 2846 H 269.92 0.507075 -0.53483 0
M  V30 2847 H 272.562 0.720188 -1.75822 0
M  V30 2848 H 270.712 3.14597 -2.2795 0
M  V30 2849 H 272.384 1.5504 -4.34466 0
M  V30 2850 H 270.627 1.39242 -4.10846 0
M  V30 2851 H 271.298 2.92169 -4.68339 0
M  V30 2852 H 273.774 3.1089 -2.76563 0
M  V30 2853 H 272.65 4.38286 -3.3045 0
M  V30 2854 H 272.911 4.12655 -1.58646 0
M  V30 2855 N 271.97 1.30982 0.876444 0
M  V30 2856 C 272.9 1.20668 1.99903 0
M  V30 2857 C 273.881 0.095354 1.69833 0
M  V30 2858 O 275.066 0.27885 1.92188 0
M  V30 2859 C 272.196 0.90655 3.3526 0
M  V30 2860 C 271.15 1.97675 3.79617 0
M  V30 2861 C 270.476 1.52943 5.1236 0
M  V30 2862 C 271.776 3.389 3.97422 0
M  V30 2863 H 273.47 2.14586 2.0879 0
M  V30 2864 H 271.016 1.03308 1.00317 0
M  V30 2865 H 272.969 0.821025 4.13324 0
M  V30 2866 H 271.693 -0.0682969 3.26529 0
M  V30 2867 H 270.352 2.05205 3.03787 0
M  V30 2868 H 270 0.54262 5.00065 0
M  V30 2869 H 269.7 2.24532 5.43009 0
M  V30 2870 H 271.224 1.45786 5.92941 0
M  V30 2871 H 272.638 3.34081 4.659 0
M  V30 2872 H 271.035 4.0865 4.3946 0
M  V30 2873 H 272.105 3.80163 3.01006 0
M  V30 2874 N 273.449 -1.08991 1.13837 0
M  V30 2875 C 274.674 -1.85551 0.926585 0
M  V30 2876 C 275.099 -1.80782 -0.519566 0
M  V30 2877 O 274.457 -1.18855 -1.36906 0
M  V30 2878 C 274.505 -3.31266 1.42462 0
M  V30 2879 O 273.609 -4.07822 0.612789 0
M  V30 2880 H 272.95 -0.575192 0.331738 0
M  V30 2881 H 275.48 -1.37604 1.51414 0
M  V30 2882 H 275.49 -3.82112 1.43019 0
M  V30 2883 H 274.165 -3.34052 2.47754 0
M  V30 2884 H 272.742 -3.66731 0.675463 0
M  V30 2885 N 274.927 -0.932562 -1.27047 0
M  V30 2886 C 276.173 -0.576412 -1.94436 0
M  V30 2887 C 276.506 0.880891 -1.73072 0
M  V30 2888 O 275.781 1.62905 -1.06264 0
M  V30 2889 C 276.064 -0.909031 -3.48437 0
M  V30 2890 C 275.917 -2.42044 -3.79123 0
M  V30 2891 C 277.236 -0.418341 -4.38107 0
M  V30 2892 H 274.355 -0.210888 -0.706184 0
M  V30 2893 H 276.997 -1.16522 -1.50075 0
M  V30 2894 H 275.147 -0.407947 -3.86352 0
M  V30 2895 H 276.819 -2.99359 -3.50973 0
M  V30 2896 H 275.062 -2.86758 -3.25503 0
M  V30 2897 H 275.733 -2.6037 -4.86736 0
M  V30 2898 H 278.209 -0.847856 -4.0737 0
M  V30 2899 H 277.085 -0.679981 -5.44672 0
M  V30 2900 H 277.346 0.681642 -4.36814 0
M  V30 2901 N 276.405 1.4127 -0.698611 0
M  V30 2902 C 277.654 2.00408 -0.227949 0
M  V30 2903 C 277.967 1.55981 1.18023 0
M  V30 2904 O 279.173 2.07699 1.74852 0
M  V30 2905 C 277.629 3.58129 -0.356636 0
M  V30 2906 C 277.237 4.11536 -1.77037 0
M  V30 2907 C 278.981 4.24466 0.0540969 0
M  V30 2908 C 276.888 5.61701 -1.85055 0
M  V30 2909 H 275.818 0.749586 -0.0814657 0
M  V30 2910 H 278.469 1.61713 -0.867249 0
M  V30 2911 H 276.851 3.94442 0.350965 0
M  V30 2912 H 278.025 3.86636 -2.50698 0
M  V30 2913 H 276.34 3.57736 -2.13105 0
M  V30 2914 H 278.937 5.34698 0.0146723 0
M  V30 2915 H 279.28 4.01687 1.09332 0
M  V30 2916 H 279.813 3.93198 -0.603337 0
M  V30 2917 H 276.552 5.89312 -2.8704 0
M  V30 2918 H 276.072 5.88519 -1.15783 0
M  V30 2919 H 277.751 6.26524 -1.61484 0
M  V30 2920 N 277.883 0.443576 1.51229 0
M  V30 2921 C 279.299 0.0962001 1.5931 0
M  V30 2922 C 279.499 -1.39501 1.45402 0
M  V30 2923 O 278.555 -2.16557 1.29843 0
M  V30 2924 C 279.868 0.621875 2.94199 0
M  V30 2925 C 281.416 0.582865 3.07525 0
M  V30 2926 C 281.891 1.08562 4.44948 0
M  V30 2927 N 283.382 1.04387 4.51284 0
M  V30 2928 C 284.117 1.40368 5.55954 0
M  V30 2929 N 283.613 1.83664 6.68011 0
M  V30 2930 N 285.406 1.32145 5.46346 0
M  V30 2931 H 277.557 1.41376 1.58514 0
M  V30 2932 H 279.82 0.582965 0.747567 0
M  V30 2933 H 279.526 1.66546 3.09767 0
M  V30 2934 H 279.4 0.0502125 3.77167 0
M  V30 2935 H 281.787 -0.451749 2.91622 0
M  V30 2936 H 281.868 1.191 2.26382 0
M  V30 2937 H 281.512 2.11873 4.61598 0
M  V30 2938 H 281.442 0.453956 5.2464 0
M  V30 2939 H 283.933 0.725986 3.70861 0
M  V30 2940 H 284.246 2.0934 7.43906 0
M  V30 2941 H 282.591 1.87596 6.69203 0
M  V30 2942 H 285.782 0.981808 4.57688 0
M  V30 2943 H 285.955 1.60514 6.27805 0
M  V30 2944 N 279.361 -1.56624 0.175154 0
M  V30 2945 C 280.638 -1.88688 -0.515373 0
M  V30 2946 C 281.018 -1.08564 -1.81044 0
M  V30 2947 O 280.366 -0.180703 -2.27784 0
M  V30 2948 C 280.576 -3.40768 -0.753552 0
M  V30 2949 C 281.924 -4.10587 -1.08184 0
M  V30 2950 O 282.948 -3.46106 -0.841961 0
M  V30 2951 O 281.807 -5.24512 -1.53459 0
M  V30 2952 H 278.901 -0.78301 -0.26613 0
M  V30 2953 H 281.447 -1.68347 0.213877 0
M  V30 2954 H 280.219 -3.90965 0.161829 0
M  V30 2955 H 279.842 -3.66733 -1.53598 0
M  V30 2956 N 280.839 0.0985539 -1.57292 0
M  V30 2957 C 282.088 0.801358 -1.85098 0
M  V30 2958 C 282.401 1.80066 -0.763902 0
M  V30 2959 O 283.607 2.55112 -0.928981 0
M  V30 2960 C 282.063 1.47599 -3.28242 0
M  V30 2961 C 281.671 0.516624 -4.45011 0
M  V30 2962 C 283.415 2.16272 -3.65276 0
M  V30 2963 C 281.322 1.19564 -5.79188 0
M  V30 2964 H 280.252 0.303022 -0.69043 0
M  V30 2965 H 282.903 0.0542623 -1.8342 0
M  V30 2966 H 281.285 2.27042 -3.2445 0
M  V30 2967 H 282.459 -0.246065 -4.60143 0
M  V30 2968 H 280.774 -0.064227 -4.1635 0
M  V30 2969 H 283.371 2.67802 -4.62803 0
M  V30 2970 H 283.714 2.95009 -2.93727 0
M  V30 2971 H 284.247 1.43693 -3.70941 0
M  V30 2972 H 280.986 0.449157 -6.53959 0
M  V30 2973 H 280.506 1.92984 -5.67906 0
M  V30 2974 H 282.185 1.7231 -6.23633 0
M  V30 2975 N 282.317 1.53212 0.369288 0
M  V30 2976 C 283.565 1.68881 1.11012 0
M  V30 2977 C 283.886 0.441285 1.89941 0
M  V30 2978 O 283.156 -0.544623 1.88177 0
M  V30 2979 H 281.736 0.622569 0.412816 0
M  V30 2980 H 284.398 1.90391 0.416802 0
M  V30 2981 H 283.494 2.54822 1.80201 0
M  V30 2982 N 283.795 -0.628877 1.44509 0
M  V30 2983 C 284.758 -1.72263 1.51188 0
M  V30 2984 C 285.758 -1.55907 0.39367 0
M  V30 2985 O 286.948 -1.61361 0.656377 0
M  V30 2986 C 284.08 -3.11365 1.38798 0
M  V30 2987 H 285.273 -1.67714 2.4862 0
M  V30 2988 H 282.826 -0.842737 1.31634 0
M  V30 2989 H 283.561 -3.21507 0.424693 0
M  V30 2990 H 283.346 -3.24644 2.19884 0
M  V30 2991 H 284.836 -3.91075 1.46458 0
M  V30 2992 N 285.273 -1.31445 -0.869486 0
M  V30 2993 C 286.522 -1.20517 -1.61736 0
M  V30 2994 C 286.835 0.235341 -1.94179 0
M  V30 2995 O 288.041 0.466312 -2.67465 0
M  V30 2996 C 286.497 -2.10982 -2.91573 0
M  V30 2997 C 286.105 -3.60032 -2.66611 0
M  V30 2998 C 287.849 -2.08856 -3.69567 0
M  V30 2999 C 285.756 -4.42503 -3.92358 0
M  V30 3000 H 284.686 -0.447493 -0.606849 0
M  V30 3001 H 287.337 -1.56303 -0.96133 0
M  V30 3002 H 285.719 -1.68095 -3.58553 0
M  V30 3003 H 286.893 -4.11167 -2.08035 0
M  V30 3004 H 285.208 -3.64139 -2.0197 0
M  V30 3005 H 287.805 -2.67716 -4.62852 0
M  V30 3006 H 288.148 -1.07582 -4.02159 0
M  V30 3007 H 288.681 -2.49945 -3.09471 0
M  V30 3008 H 285.42 -5.44533 -3.64916 0
M  V30 3009 H 284.94 -3.96125 -4.50383 0
M  V30 3010 H 286.619 -4.54741 -4.60238 0
M  V30 3011 N 286.751 1.08385 -1.14413 0
M  V30 3012 C 287.714 2.13486 -0.834048 0
M  V30 3013 C 288.714 1.59988 0.161418 0
M  V30 3014 O 289.904 1.74071 -0.0669575 0
M  V30 3015 C 287.036 3.4003 -0.243354 0
M  V30 3016 H 288.229 2.42425 -1.7655 0
M  V30 3017 H 285.782 1.24101 -0.950189 0
M  V30 3018 H 286.517 3.16726 0.696807 0
M  V30 3019 H 286.302 3.80157 -0.960367 0
M  V30 3020 H 287.792 4.17577 -0.0436242 0
M  V30 3021 N 288.23 0.939286 1.26551 0
M  V30 3022 C 289.162 0.404704 2.25599 0
M  V30 3023 C 290.175 -0.470983 1.55838 0
M  V30 3024 O 291.364 -0.281734 1.76263 0
M  V30 3025 C 288.464 -0.43764 3.36062 0
M  V30 3026 C 287.637 0.421449 4.35365 0
M  V30 3027 C 286.696 -0.36015 5.24966 0
M  V30 3028 O 285.722 0.236167 5.6871 0
M  V30 3029 N 286.924 -1.65715 5.56344 0
M  V30 3030 H 289.689 1.25618 2.72103 0
M  V30 3031 H 287.25 0.807963 1.40298 0
M  V30 3032 H 289.242 -0.967866 3.92956 0
M  V30 3033 H 287.812 -1.18991 2.89067 0
M  V30 3034 H 287.032 1.1329 3.7757 0
M  V30 3035 H 288.32 1.00835 4.98708 0
M  V30 3036 H 287.718 -2.16378 5.22682 0
M  V30 3037 H 286.275 -2.13366 6.15888 0
M  V30 3038 N 289.708 -1.40897 0.706093 0
M  V30 3039 C 290.954 -2.01352 0.241889 0
M  V30 3040 C 291.287 -1.55832 -1.15888 0
M  V30 3041 O 290.562 -0.774145 -1.7843 0
M  V30 3042 C 290.845 -3.58752 0.311311 0
M  V30 3043 C 290.698 -4.1437 1.74978 0
M  V30 3044 C 292.017 -4.38914 -0.322922 0
M  V30 3045 H 289.136 -0.731562 0.0893687 0
M  V30 3046 H 291.778 -1.67504 0.896802 0
M  V30 3047 H 289.928 -3.87718 -0.246302 0
M  V30 3048 H 291.6 -3.96239 2.36205 0
M  V30 3049 H 289.843 -3.69016 2.28057 0
M  V30 3050 H 290.514 -5.23532 1.74981 0
M  V30 3051 H 292.99 -4.15822 0.152089 0
M  V30 3052 H 291.866 -5.48358 -0.243855 0
M  V30 3053 H 292.127 -4.19176 -1.40513 0
M  V30 3054 N 291.186 -0.45159 -1.50991 0
M  V30 3055 C 292.136 0.370861 -2.24964 0
M  V30 3056 C 293.12 0.978074 -1.2776 0
M  V30 3057 O 294.312 0.893854 -1.52772 0
M  V30 3058 C 291.441 1.46344 -3.10545 0
M  V30 3059 C 290.527 0.864924 -4.15187 0
M  V30 3060 N 290.918 -0.00311354 -5.058 0
M  V30 3061 C 289.216 1.13099 -4.31422 0
M  V30 3062 C 289.917 -0.340772 -5.80701 0
M  V30 3063 N 288.893 0.279203 -5.42883 0
M  V30 3064 H 292.695 -0.298134 -2.92384 0
M  V30 3065 H 290.209 -0.264528 -1.60231 0
M  V30 3066 H 292.206 2.06565 -3.62128 0
M  V30 3067 H 290.866 2.13463 -2.4467 0
M  V30 3068 H 291.877 -0.37058 -5.16572 0
M  V30 3069 H 288.554 1.79861 -3.76771 0
M  V30 3070 H 289.944 -1.048 -6.63677 0
M  V30 3071 N 292.664 1.56529 -0.183458 0
M  V30 3072 C 293.627 2.17324 0.728223 0
M  V30 3073 C 294.627 1.12453 1.14939 0
M  V30 3074 O 295.817 1.37902 1.06437 0
M  V30 3075 C 292.949 2.76591 1.99274 0
M  V30 3076 H 294.142 2.99241 0.198772 0
M  V30 3077 H 291.695 1.5616 0.0661391 0
M  V30 3078 H 292.43 1.98441 2.56499 0
M  V30 3079 H 292.215 3.5335 1.69959 0
M  V30 3080 H 293.705 3.23311 2.6431 0
M  V30 3081 N 294.142 -0.090211 1.57342 0
M  V30 3082 C 295.052 -1.12735 2.05738 0
M  V30 3083 C 296.068 -1.43557 0.983231 0
M  V30 3084 O 297.244 -1.54101 1.29672 0
M  V30 3085 C 294.309 -2.42659 2.47624 0
M  V30 3086 C 293.37 -2.18975 3.69254 0
M  V30 3087 C 292.603 -3.42704 4.09133 0
M  V30 3088 O 292.826 -4.51127 3.49057 0
M  V30 3089 O 291.76 -3.32003 5.02053 0
M  V30 3090 H 295.586 -0.746279 2.94388 0
M  V30 3091 H 293.171 -0.303064 1.46294 0
M  V30 3092 H 295.053 -3.19155 2.7517 0
M  V30 3093 H 293.728 -2.80182 1.62109 0
M  V30 3094 H 292.635 -1.40244 3.46818 0
M  V30 3095 H 293.968 -1.86342 4.55563 0
M  V30 3096 N 295.62 -1.53406 -0.361157 0
M  V30 3097 C 296.568 -1.80832 -1.46296 0
M  V30 3098 C 297.562 -0.677699 -1.55253 0
M  V30 3099 O 298.768 -0.860723 -1.58087 0
M  V30 3100 H 295.143 -0.572627 -0.487445 0
M  V30 3101 H 297.114 -2.73045 -1.20371 0
M  V30 3102 C 295.863 -2.01907 -2.8307 0
M  V30 3103 H 295.186 -2.88349 -2.76938 0
M  V30 3104 H 296.626 -2.25072 -3.59331 0
M  V30 3105 C 295.085 -0.799449 -3.27277 0
M  V30 3106 O 295.615 0.00971761 -4.01699 0
M  V30 3107 N 293.821 -0.621637 -2.83873 0
M  V30 3108 H 293.368 -1.28126 -2.23476 0
M  V30 3109 H 293.326 0.19298 -3.13807 0
M  V30 3110 N 297.098 0.621204 -1.44841 0
M  V30 3111 C 298.346 1.37783 -1.47852 0
M  V30 3112 C 298.667 1.94653 -0.116224 0
M  V30 3113 O 297.937 1.76367 0.852737 0
M  V30 3114 H 296.517 0.511453 -0.544449 0
M  V30 3115 H 299.179 0.730446 -1.80694 0
M  V30 3116 H 298.275 2.20414 -2.20961 0
M  V30 3117 N 298.576 1.31904 0.862503 0
M  V30 3118 C 299.853 1.12644 1.59908 0
M  V30 3119 C 300.233 -0.316104 2.0872 0
M  V30 3120 O 299.581 -1.31145 1.87118 0
M  V30 3121 C 299.791 2.1472 2.7513 0
M  V30 3122 C 301.139 2.47637 3.44907 0
M  V30 3123 O 302.163 2.13205 2.85346 0
M  V30 3124 O 301.022 3.06632 4.52371 0
M  V30 3125 H 298.116 0.43416 0.703871 0
M  V30 3126 H 300.662 1.43408 0.907314 0
M  V30 3127 H 299.434 3.1172 2.3653 0
M  V30 3128 H 299.057 1.84905 3.51989 0
M  V30 3129 N 300.054 -1.07777 1.14986 0
M  V30 3130 C 301.303 -1.79669 0.916617 0
M  V30 3131 C 301.616 -1.87474 -0.557917 0
M  V30 3132 O 302.822 -2.55845 -0.908617 0
M  V30 3133 C 301.278 -3.22848 1.59051 0
M  V30 3134 C 300.886 -3.23257 3.10176 0
M  V30 3135 C 302.63 -3.99379 1.43864 0
M  V30 3136 C 300.537 -4.61063 3.70372 0
M  V30 3137 H 299.467 -0.673349 0.33929 0
M  V30 3138 H 302.118 -1.21003 1.37951 0
M  V30 3139 H 300.5 -3.8168 1.0553 0
M  V30 3140 H 301.674 -2.74095 3.70417 0
M  V30 3141 H 299.989 -2.60222 3.25074 0
M  V30 3142 H 302.586 -5.0122 1.86232 0
M  V30 3143 H 302.929 -4.14511 0.385564 0
M  V30 3144 H 303.462 -3.47032 1.94457 0
M  V30 3145 H 300.201 -4.51135 4.7556 0
M  V30 3146 H 299.721 -5.1048 3.14913 0
M  V30 3147 H 301.4 -5.30034 3.71043 0
M  V30 3148 N 301.532 -0.945985 -1.26051 0
M  V30 3149 C 302.781 -0.591836 -1.92822 0
M  V30 3150 C 303.094 0.873956 -1.7499 0
M  V30 3151 O 304.3 1.33769 -2.36259 0
M  V30 3152 C 302.756 -1.00776 -3.45503 0
M  V30 3153 C 302.364 -2.4955 -3.7206 0
M  V30 3154 C 304.108 -0.725735 -4.1825 0
M  V30 3155 C 302.015 -2.84988 -5.18205 0
M  V30 3156 H 300.945 -0.217635 -0.721908 0
M  V30 3157 H 303.596 -1.14927 -1.43052 0
M  V30 3158 H 301.978 -0.378812 -3.94184 0
M  V30 3159 H 303.152 -3.1739 -3.34066 0
M  V30 3160 H 301.467 -2.75133 -3.12555 0
M  V30 3161 H 304.064 -0.966771 -5.25887 0
M  V30 3162 H 304.407 0.337639 -4.14929 0
M  V30 3163 H 304.94 -1.31463 -3.7545 0
M  V30 3164 H 301.679 -3.90307 -5.26631 0
M  V30 3165 H 301.199 -2.21813 -5.57278 0
M  V30 3166 H 302.878 -2.73712 -5.86252 0
M  V30 3167 N 303.011 1.40521 -0.713556 0
M  V30 3168 C 303.974 2.29098 -0.0684347 0
M  V30 3169 C 304.974 1.45268 0.689472 0
M  V30 3170 O 306.164 1.66205 0.521677 0
M  V30 3171 C 303.296 3.28446 0.913024 0
M  V30 3172 H 304.489 2.87645 -0.84855 0
M  V30 3173 H 302.042 1.48809 -0.47809 0
M  V30 3174 H 302.777 2.74913 1.72027 0
M  V30 3175 H 302.562 3.90327 0.372472 0
M  V30 3176 H 304.052 3.94777 1.36165 0
M  V30 3177 N 304.489 0.459591 1.5075 0
M  V30 3178 C 305.399 -0.34613 2.32033 0
M  V30 3179 C 306.415 -1.00686 1.41909 0
M  V30 3180 O 307.591 -0.997361 1.7497 0
M  V30 3181 C 304.656 -1.42029 3.16273 0
M  V30 3182 C 303.717 -0.777362 4.22203 0
M  V30 3183 C 302.95 -1.80034 5.02418 0
M  V30 3184 O 303.173 -3.02544 4.83553 0
M  V30 3185 O 302.107 -1.37853 5.85901 0
M  V30 3186 H 305.933 0.318054 3.0203 0
M  V30 3187 H 303.518 0.221663 1.47746 0
M  V30 3188 H 305.4 -2.04275 3.68578 0
M  V30 3189 H 304.075 -2.06815 2.49016 0
M  V30 3190 H 302.982 -0.116256 3.73919 0
M  V30 3191 H 304.315 -0.172634 4.91897 0
M  V30 3192 N 305.967 -1.56429 0.191757 0
M  V30 3193 C 306.877 -2.22541 -0.742481 0
M  V30 3194 C 307.893 -1.22342 -1.23727 0
M  V30 3195 O 309.069 -1.55069 -1.28513 0
M  V30 3196 C 306.134 -2.8692 -1.94623 0
M  V30 3197 C 305.195 -4.02378 -1.49633 0
M  V30 3198 C 304.428 -4.63678 -2.6427 0
M  V30 3199 O 304.651 -4.23895 -3.81666 0
M  V30 3200 O 303.585 -5.53202 -2.37174 0
M  V30 3201 H 307.411 -3.02977 -0.209462 0
M  V30 3202 H 304.996 -1.49353 -0.0373832 0
M  V30 3203 H 306.878 -3.27663 -2.64982 0
M  V30 3204 H 305.553 -2.09466 -2.46791 0
M  V30 3205 H 304.46 -3.66265 -0.761636 0
M  V30 3206 H 305.793 -4.81487 -1.02134 0
M  V30 3207 N 307.445 0.0818655 -1.57387 0
M  V30 3208 C 308.377 1.12484 -1.997 0
M  V30 3209 C 309.39 1.35564 -0.90146 0
M  V30 3210 O 310.579 1.33982 -1.17945 0
M  V30 3211 C 307.679 2.47778 -2.31213 0
M  V30 3212 C 306.852 2.44793 -3.62485 0
M  V30 3213 C 305.911 3.62117 -3.81782 0
M  V30 3214 O 304.937 3.44005 -4.53486 0
M  V30 3215 N 306.139 4.82094 -3.23367 0
M  V30 3216 H 308.904 0.764585 -2.89783 0
M  V30 3217 H 306.465 0.270664 -1.59621 0
M  V30 3218 H 308.457 3.24891 -2.41304 0
M  V30 3219 H 307.027 2.75843 -1.4707 0
M  V30 3220 H 306.247 1.53134 -3.6324 0
M  V30 3221 H 307.535 2.39889 -4.48699 0
M  V30 3222 H 306.933 4.99713 -2.65148 0
M  V30 3223 H 305.49 5.56753 -3.38923 0
M  V30 3224 N 308.923 1.53595 0.353017 0
M  V30 3225 C 309.855 1.77219 1.45348 0
M  V30 3226 C 310.868 0.65324 1.49119 0
M  V30 3227 O 312.057 0.929775 1.52373 0
M  V30 3228 C 309.157 1.84841 2.84055 0
M  V30 3229 C 308.33 3.14649 3.03833 0
M  V30 3230 C 307.389 3.13351 4.22727 0
M  V30 3231 O 306.415 3.87107 4.17297 0
M  V30 3232 N 307.617 2.35052 5.30783 0
M  V30 3233 H 310.382 2.72178 1.25457 0
M  V30 3234 H 307.943 1.52528 0.542833 0
M  V30 3235 H 309.935 1.81435 3.61751 0
M  V30 3236 H 308.505 0.971114 2.97133 0
M  V30 3237 H 307.725 3.31256 2.13689 0
M  V30 3238 H 309.013 4.00411 3.13925 0
M  V30 3239 H 308.411 1.74663 5.38061 0
M  V30 3240 H 306.968 2.37453 6.07009 0
M  V30 3241 N 310.401 -0.613514 1.45168 0
M  V30 3242 C 311.817 -0.933629 1.29443 0
M  V30 3243 C 312.017 -2.00028 0.243101 0
M  V30 3244 O 311.073 -2.49848 -0.364992 0
M  V30 3245 C 312.386 -1.38018 2.67155 0
M  V30 3246 C 313.934 -1.49471 2.75004 0
M  V30 3247 C 314.409 -1.97503 4.13227 0
M  V30 3248 N 315.9 -2.04746 4.15491 0
M  V30 3249 C 316.635 -2.43121 5.19307 0
M  V30 3250 N 316.131 -2.80506 6.33473 0
M  V30 3251 N 317.924 -2.43408 5.06664 0
M  V30 3252 H 310.075 0.0916097 2.12202 0
M  V30 3253 H 312.338 -0.0216655 0.947752 0
M  V30 3254 H 312.044 -0.670625 3.45247 0
M  V30 3255 H 311.918 -2.34784 2.95222 0
M  V30 3256 H 314.305 -2.19519 1.9722 0
M  V30 3257 H 314.386 -0.510342 2.50657 0
M  V30 3258 H 314.03 -1.28045 4.91495 0
M  V30 3259 H 313.96 -2.96843 4.34962 0
M  V30 3260 H 316.451 -1.78468 3.33103 0
M  V30 3261 H 316.764 -3.08652 7.08487 0
M  V30 3262 H 315.109 -2.78216 6.36884 0
M  V30 3263 H 318.3 -2.13604 4.16523 0
M  V30 3264 H 318.473 -2.72989 5.87691 0
M  V30 3265 N 311.879 -1.3236 -0.855495 0
M  V30 3266 C 313.128 -1.22226 -1.60448 0
M  V30 3267 C 313.441 0.214733 -1.94418 0
M  V30 3268 O 314.647 0.437917 -2.67945 0
M  V30 3269 C 313.103 -2.14063 -2.89318 0
M  V30 3270 C 312.711 -3.62839 -2.62777 0
M  V30 3271 C 314.455 -2.12764 -3.67331 0
M  V30 3272 C 312.362 -4.4664 -3.87643 0
M  V30 3273 H 311.292 -0.453904 -0.602069 0
M  V30 3274 H 313.943 -1.57314 -0.944698 0
M  V30 3275 H 312.325 -1.71889 -3.5675 0
M  V30 3276 H 313.499 -4.1335 -2.03662 0
M  V30 3277 H 311.814 -3.66261 -1.98096 0
M  V30 3278 H 314.411 -2.72611 -4.59987 0
M  V30 3279 H 314.754 -1.11841 -4.00995 0
M  V30 3280 H 315.287 -2.53214 -3.06802 0
M  V30 3281 H 312.026 -5.48373 -3.5912 0
M  V30 3282 H 311.546 -4.0088 -4.46156 0
M  V30 3283 H 313.225 -4.59597 -4.55389 0
M  V30 3284 N 313.357 1.07166 -1.15556 0
M  V30 3285 C 314.287 2.16403 -0.877046 0
M  V30 3286 C 315.268 1.69217 0.173111 0
M  V30 3287 O 316.453 1.94181 0.027084 0
M  V30 3288 C 313.583 3.45349 -0.367632 0
M  V30 3289 C 312.537 4.05995 -1.35468 0
M  V30 3290 C 311.863 5.30045 -0.704038 0
M  V30 3291 C 313.163 4.45804 -2.72132 0
M  V30 3292 H 314.857 2.39959 -1.79053 0
M  V30 3293 H 312.403 1.15325 -0.862331 0
M  V30 3294 H 314.356 4.21095 -0.160317 0
M  V30 3295 H 313.08 3.21385 0.581326 0
M  V30 3296 H 311.739 3.32296 -1.54839 0
M  V30 3297 H 311.387 5.02373 0.251128 0
M  V30 3298 H 311.087 5.71579 -1.36277 0
M  V30 3299 H 312.611 6.08495 -0.50654 0
M  V30 3300 H 314.025 5.12671 -2.56595 0
M  V30 3301 H 312.422 4.98296 -3.34397 0
M  V30 3302 H 313.492 3.57083 -3.28054 0
M  V30 3303 N 314.835 0.952656 1.25548 0
M  V30 3304 C 316.112 0.523818 1.88456 0
M  V30 3305 C 316.492 -0.998871 1.85973 0
M  V30 3306 O 315.84 -1.86381 1.3219 0
M  V30 3307 C 316.05 1.0982 3.31271 0
M  V30 3308 C 317.398 1.17385 4.08051 0
M  V30 3309 O 318.422 1.04961 3.40384 0
M  V30 3310 O 317.281 1.36852 5.29088 0
M  V30 3311 H 314.375 0.172485 0.808813 0
M  V30 3312 H 316.921 1.04596 1.33633 0
M  V30 3313 H 315.693 2.1415 3.27499 0
M  V30 3314 H 315.316 0.559191 3.93648 0
M  V30 3315 N 316.313 -1.40141 0.720998 0
M  V30 3316 C 317.243 -2.33339 0.0867621 0
M  V30 3317 C 318.224 -1.53178 -0.739622 0
M  V30 3318 O 319.409 -1.81625 -0.687449 0
M  V30 3319 C 316.539 -3.37194 -0.831728 0
M  V30 3320 C 315.493 -4.27857 -0.110558 0
M  V30 3321 C 314.819 -5.22294 -1.14513 0
M  V30 3322 C 316.119 -5.11872 1.0385 0
M  V30 3323 H 317.813 -2.86626 0.865219 0
M  V30 3324 H 315.359 -1.37814 0.417516 0
M  V30 3325 H 317.312 -4.01335 -1.28485 0
M  V30 3326 H 316.036 -2.82314 -1.64214 0
M  V30 3327 H 314.695 -3.65176 0.322797 0
M  V30 3328 H 314.343 -4.63717 -1.94874 0
M  V30 3329 H 314.043 -5.83797 -0.667446 0
M  V30 3330 H 315.567 -5.89312 -1.59824 0
M  V30 3331 H 316.981 -5.69436 0.664482 0
M  V30 3332 H 315.378 -5.82445 1.4449 0
M  V30 3333 H 316.448 -4.4753 1.86668 0
M  V30 3334 N 317.792 -0.46758 -1.50504 0
M  V30 3335 C 319.04 0.0884469 -2.01906 0
M  V30 3336 C 319.361 1.40532 -1.35188 0
M  V30 3337 O 318.631 1.89515 -0.496079 0
M  V30 3338 H 317.211 0.0356765 -0.746148 0
M  V30 3339 H 319.873 -0.6172 -1.84869 0
M  V30 3340 H 318.969 0.2425 -3.11156 0
M  V30 3341 N 319.27 1.56325 -0.20005 0
M  V30 3342 C 320.519 1.96895 0.437652 0
M  V30 3343 C 320.832 1.08999 1.62415 0
M  V30 3344 O 322.038 1.39372 2.32997 0
M  V30 3345 C 320.494 3.50198 0.830025 0
M  V30 3346 C 320.102 4.46765 -0.332461 0
M  V30 3347 C 321.846 3.99526 1.43453 0
M  V30 3348 C 319.753 5.91344 0.0811468 0
M  V30 3349 H 318.683 0.735209 0.167282 0
M  V30 3350 H 321.334 1.81148 -0.292853 0
M  V30 3351 H 319.716 3.61467 1.61734 0
M  V30 3352 H 320.89 4.47231 -1.11 0
M  V30 3353 H 319.205 4.07657 -0.848789 0
M  V30 3354 H 321.802 5.05025 1.75652 0
M  V30 3355 H 322.145 3.44122 2.34277 0
M  V30 3356 H 322.678 3.91393 0.71109 0
M  V30 3357 H 319.417 6.50685 -0.793033 0
M  V30 3358 H 318.937 5.94121 0.823445 0
M  V30 3359 H 320.616 6.44945 0.515252 0
M  V30 3360 N 320.748 -0.0735177 1.57428 0
M  V30 3361 C 321.976 -0.785969 1.9139 0
M  V30 3362 C 322.391 -1.71207 0.795847 0
M  V30 3363 O 321.748 -1.81033 -0.230915 0
M  V30 3364 C 321.799 -1.58107 3.25091 0
M  V30 3365 O 321.52 -0.6922 4.32597 0
M  V30 3366 C 323.021 -2.39467 3.73055 0
M  V30 3367 H 320.241 -0.223558 0.632663 0
M  V30 3368 H 322.785 -0.044302 2.04452 0
M  V30 3369 H 320.94 -2.27503 3.13562 0
M  V30 3370 H 321.354 -1.24504 5.09508 0
M  V30 3371 H 322.828 -2.90716 4.69242 0
M  V30 3372 H 323.305 -3.18913 3.01979 0
M  V30 3373 H 323.911 -1.7523 3.87523 0
M  V30 3374 N 322.226 -1.5378 -0.344866 0
M  V30 3375 C 323.474 -1.70625 -1.08311 0
M  V30 3376 C 323.795 -0.471447 -1.89215 0
M  V30 3377 O 323.065 0.514616 -1.8902 0
M  V30 3378 H 321.645 -0.629058 -0.402859 0
M  V30 3379 H 324.307 -1.9103 -0.386459 0
M  V30 3380 H 323.403 -2.57656 -1.76124 0
M  V30 3381 N 323.704 0.605807 -1.45491 0
M  V30 3382 C 325.115 1.18777 -1.44045 0
M  V30 3383 C 325.466 1.95471 -0.169001 0
M  V30 3384 O 324.591 2.0374 0.729324 0
M  V30 3385 C 325.186 2.16064 -2.60963 0
M  V30 3386 C 323.745 2.69633 -2.62631 0
M  V30 3387 C 322.892 1.45072 -2.36325 0
M  V30 3388 H 325.843 0.395017 -1.53705 0
M  V30 3389 H 325.864 2.9913 -2.35163 0
M  V30 3390 H 325.376 1.60217 -3.53486 0
M  V30 3391 H 323.477 3.29414 -1.74119 0
M  V30 3392 H 323.59 3.13944 -3.61906 0
M  V30 3393 H 321.954 1.74089 -1.85917 0
M  V30 3394 H 322.737 0.910899 -3.30995 0
M  V30 3395 N 325.182 1.32811 0.848464 0
M  V30 3396 C 326.092 1.24278 1.98978 0
M  V30 3397 C 327.108 0.155176 1.73307 0
M  V30 3398 O 328.284 0.376999 1.9784 0
M  V30 3399 C 325.349 0.972444 3.32783 0
M  V30 3400 C 324.41 2.14911 3.71634 0
M  V30 3401 C 323.643 1.89157 4.99054 0
M  V30 3402 O 323.866 0.837165 5.64223 0
M  V30 3403 O 322.8 2.75433 5.35183 0
M  V30 3404 H 326.626 2.20238 2.09115 0
M  V30 3405 H 324.211 1.12762 0.980052 0
M  V30 3406 H 326.093 0.838432 4.12975 0
M  V30 3407 H 324.768 0.043051 3.23671 0
M  V30 3408 H 323.675 2.33862 2.91992 0
M  V30 3409 H 325.008 3.06151 3.85399 0
M  V30 3410 N 326.66 -1.06551 1.16123 0
M  V30 3411 C 327.908 -1.78947 0.939267 0
M  V30 3412 C 328.229 -1.87532 -0.534476 0
M  V30 3413 O 327.499 -1.38211 -1.38833 0
M  V30 3414 H 326.079 -0.662807 0.344523 0
M  V30 3415 H 328.741 -1.28725 1.46342 0
M  V30 3416 H 327.837 -2.81117 1.35572 0
M  V30 3417 N 328.138 -0.959301 -1.25041 0
M  V30 3418 C 329.088 -0.453888 -2.23436 0
M  V30 3419 C 330.072 0.459461 -1.542 0
M  V30 3420 O 331.264 0.291752 -1.74579 0
M  V30 3421 C 328.393 0.262667 -3.42294 0
M  V30 3422 C 327.479 -0.669022 -4.1879 0
M  V30 3423 N 327.87 -1.80267 -4.72586 0
M  V30 3424 C 326.168 -0.47814 -4.4343 0
M  V30 3425 C 326.869 -2.38475 -5.3057 0
M  V30 3426 N 325.845 -1.67078 -5.17287 0
M  V30 3427 H 329.647 -1.319 -2.6264 0
M  V30 3428 H 327.161 -0.817358 -1.40332 0
M  V30 3429 H 329.158 0.641911 -4.11929 0
M  V30 3430 H 327.818 1.12432 -3.04613 0
M  V30 3431 H 328.829 -2.18442 -4.69578 0
M  V30 3432 H 325.506 0.340249 -4.16111 0
M  V30 3433 H 326.896 -3.34094 -5.8295 0
M  V30 3434 N 329.616 1.39756 -0.72842 0
M  V30 3435 C 330.862 2.00942 -0.273892 0
M  V30 3436 C 331.195 1.57656 1.13394 0
M  V30 3437 O 330.47 0.802434 1.77176 0
M  V30 3438 C 330.753 3.58211 -0.368346 0
M  V30 3439 C 330.606 4.11534 -1.81548 0
M  V30 3440 C 331.925 4.39372 0.253054 0
M  V30 3441 H 329.044 0.730047 -0.100996 0
M  V30 3442 H 331.686 1.66056 -0.923337 0
M  V30 3443 H 329.836 3.88061 0.184588 0
M  V30 3444 H 331.508 3.92431 -2.42478 0
M  V30 3445 H 329.751 3.65341 -2.33898 0
M  V30 3446 H 330.422 5.20682 -1.83288 0
M  V30 3447 H 332.898 4.15527 -0.218224 0
M  V30 3448 H 331.774 5.48677 0.156585 0
M  V30 3449 H 332.035 4.21358 1.33826 0
M  V30 3450 N 331.094 0.475555 1.50254 0
M  V30 3451 C 332.024 -0.30611 2.31485 0
M  V30 3452 C 333.005 -0.986228 1.38591 0
M  V30 3453 O 334.19 -0.982541 1.67511 0
M  V30 3454 C 331.32 -1.38588 3.1845 0
M  V30 3455 C 330.274 -0.827115 4.19932 0
M  V30 3456 C 329.6 -2.00551 4.95665 0
M  V30 3457 C 330.9 0.16463 5.2204 0
M  V30 3458 H 332.594 0.371866 2.97082 0
M  V30 3459 H 330.14 0.180282 1.42867 0
M  V30 3460 H 332.093 -1.94023 3.74076 0
M  V30 3461 H 330.817 -2.09269 2.50747 0
M  V30 3462 H 329.476 -0.294702 3.65414 0
M  V30 3463 H 329.124 -2.6994 4.2443 0
M  V30 3464 H 328.824 -1.63784 5.64313 0
M  V30 3465 H 330.348 -2.56468 5.54127 0
M  V30 3466 H 331.762 -0.300699 5.72511 0
M  V30 3467 H 330.159 0.446813 5.98434 0
M  V30 3468 H 331.229 1.08905 4.72512 0
M  V30 3469 N 332.573 -1.56217 0.208337 0
M  V30 3470 C 333.798 -2.02782 -0.435222 0
M  V30 3471 C 334.223 -1.08738 -1.53485 0
M  V30 3472 O 333.581 -0.0731855 -1.81152 0
M  V30 3473 C 333.629 -3.47687 -0.956335 0
M  V30 3474 O 332.733 -3.56773 -2.06849 0
M  V30 3475 H 332.074 -0.656403 -0.100158 0
M  V30 3476 H 334.604 -2.02033 0.3231 0
M  V30 3477 H 334.614 -3.87745 -1.26955 0
M  V30 3478 H 333.289 -4.15624 -0.15143 0
M  V30 3479 H 331.866 -3.28597 -1.76292 0
M  V30 3480 N 334.051 0.0651679 -1.57465 0
M  V30 3481 C 335.467 0.420105 -1.53972 0
M  V30 3482 C 335.667 1.78782 -0.929474 0
M  V30 3483 O 334.723 2.46771 -0.534839 0
M  V30 3484 C 336.036 0.355084 -2.98596 0
M  V30 3485 C 337.584 0.434792 -3.09965 0
M  V30 3486 C 338.059 0.399609 -4.56253 0
M  V30 3487 N 339.55 0.459488 -4.60915 0
M  V30 3488 C 340.285 0.454584 -5.71595 0
M  V30 3489 N 339.781 0.404102 -6.9162 0
M  V30 3490 N 341.574 0.501635 -5.59857 0
M  V30 3491 H 333.725 -0.830328 -1.95498 0
M  V30 3492 H 335.988 -0.312244 -0.895102 0
M  V30 3493 H 335.694 -0.583357 -3.46828 0
M  V30 3494 H 335.568 1.16275 -3.58831 0
M  V30 3495 H 337.955 1.36366 -2.61703 0
M  V30 3496 H 338.036 -0.40157 -2.52628 0
M  V30 3497 H 337.68 -0.525436 -5.05175 0
M  V30 3498 H 337.61 1.25359 -5.11461 0
M  V30 3499 H 340.101 0.502482 -3.74544 0
M  V30 3500 H 340.414 0.404468 -7.71741 0
M  V30 3501 H 338.759 0.37069 -6.94011 0
M  V30 3502 H 341.95 0.538812 -4.64989 0
M  V30 3503 H 342.123 0.494345 -6.46112 0
M  V30 3504 N 335.529 1.53961 0.336706 0
M  V30 3505 C 336.94 1.62914 0.911925 0
M  V30 3506 C 337.291 0.514795 1.89326 0
M  V30 3507 O 336.416 -0.354395 2.13478 0
M  V30 3508 C 337.011 2.95304 1.66076 0
M  V30 3509 C 335.57 3.06496 2.18489 0
M  V30 3510 C 334.717 2.58403 1.00613 0
M  V30 3511 H 337.668 1.58285 0.114649 0
M  V30 3512 H 337.689 2.84727 2.5241 0
M  V30 3513 H 337.201 3.76387 0.946276 0
M  V30 3514 H 335.302 2.3006 2.93092 0
M  V30 3515 H 335.415 4.1208 2.44391 0
M  V30 3516 H 333.779 2.13977 1.38152 0
M  V30 3517 H 334.562 3.41932 0.306179 0
M  V30 3518 N 337.007 -0.598083 1.45811 0
M  V30 3519 C 337.917 -1.73632 1.57763 0
M  V30 3520 C 338.933 -1.67763 0.461676 0
M  V30 3521 O 340.109 -1.87949 0.723685 0
M  V30 3522 C 337.174 -3.10114 1.55018 0
M  V30 3523 C 336.235 -3.27364 2.77726 0
M  V30 3524 C 335.468 -4.57334 2.75102 0
M  V30 3525 O 335.691 -5.40258 1.8297 0
M  V30 3526 O 334.625 -4.77502 3.66437 0
M  V30 3527 H 338.451 -1.66498 2.53992 0
M  V30 3528 H 336.036 -0.763308 1.28429 0
M  V30 3529 H 337.918 -3.9141 1.56129 0
M  V30 3530 H 336.593 -3.17718 0.619431 0
M  V30 3531 H 335.5 -2.45619 2.82174 0
M  V30 3532 H 336.833 -3.24641 3.69958 0
M  V30 3533 N 338.485 -1.33259 -0.841409 0
M  V30 3534 C 339.395 -1.25332 -1.98316 0
M  V30 3535 C 340.411 -0.164364 -1.73222 0
M  V30 3536 O 341.587 -0.387486 -1.97637 0
M  V30 3537 C 338.652 -0.990078 -3.32262 0
M  V30 3538 C 337.713 -2.16879 -3.70489 0
M  V30 3539 C 336.946 -1.91801 -4.98044 0
M  V30 3540 O 337.169 -0.867075 -5.63771 0
M  V30 3541 O 336.103 -2.78267 -5.33714 0
M  V30 3542 H 339.929 -2.21344 -2.07944 0
M  V30 3543 H 337.514 -1.1328 -0.974058 0
M  V30 3544 H 339.396 -0.860321 -4.12524 0
M  V30 3545 H 338.071 -0.0602155 -3.23644 0
M  V30 3546 H 336.978 -2.35407 -2.90748 0
M  V30 3547 H 338.311 -3.0819 -3.8377 0
M  V30 3548 N 339.963 1.05934 -1.16686 0
M  V30 3549 C 341.209 1.79065 -0.95203 0
M  V30 3550 C 341.542 1.87147 0.518629 0
M  V30 3551 O 340.817 1.36574 1.38484 0
M  V30 3552 C 341.1 3.23359 -1.58464 0
M  V30 3553 C 340.953 3.23336 -3.12689 0
M  V30 3554 C 342.272 4.21004 -1.28232 0
M  V30 3555 H 339.391 0.65005 -0.34728 0
M  V30 3556 H 342.033 1.23868 -1.44072 0
M  V30 3557 H 340.183 3.70493 -1.16908 0
M  V30 3558 H 341.855 2.84336 -3.6325 0
M  V30 3559 H 340.098 2.61886 -3.4583 0
M  V30 3560 H 340.769 4.25144 -3.52075 0
M  V30 3561 H 343.245 3.8233 -1.64203 0
M  V30 3562 H 342.121 5.20225 -1.75092 0
M  V30 3563 H 342.382 4.41639 -0.201791 0
M  V30 3564 N 341.441 0.965919 1.2453 0
M  V30 3565 C 342.351 0.502154 2.29163 0
M  V30 3566 C 343.367 -0.436017 1.68448 0
M  V30 3567 O 344.543 -0.309497 1.99008 0
M  V30 3568 C 341.608 -0.201956 3.46111 0
M  V30 3569 C 340.669 0.775821 4.22232 0
M  V30 3570 C 339.902 0.105217 5.33596 0
M  V30 3571 O 340.125 -1.10683 5.59558 0
M  V30 3572 O 339.059 0.796475 5.96607 0
M  V30 3573 H 342.885 1.37194 2.70946 0
M  V30 3574 H 340.47 0.732875 1.30189 0
M  V30 3575 H 342.352 -0.597564 4.17142 0
M  V30 3576 H 341.027 -1.04673 3.06309 0
M  V30 3577 H 339.934 1.22185 3.53584 0
M  V30 3578 H 341.267 1.58896 4.65846 0
M  V30 3579 N 342.919 -1.39368 0.735821 0
M  V30 3580 C 343.882 -2.2896 0.104874 0
M  V30 3581 C 344.882 -1.46347 -0.666274 0
M  V30 3582 O 346.072 -1.67014 -0.49517 0
M  V30 3583 C 343.204 -3.29857 -0.860656 0
M  V30 3584 H 344.397 -2.86259 0.894205 0
M  V30 3585 H 341.95 -1.48029 0.501704 0
M  V30 3586 H 342.685 -2.77615 -1.67631 0
M  V30 3587 H 342.47 -3.9087 -0.310327 0
M  V30 3588 H 343.96 -3.96893 -1.29867 0
M  V30 3589 N 344.397 -0.483516 -1.5 0
M  V30 3590 C 345.307 0.309172 -2.32554 0
M  V30 3591 C 346.323 0.984159 -1.43493 0
M  V30 3592 O 347.499 0.969399 -1.76535 0
M  V30 3593 C 344.564 1.36979 -3.18493 0
M  V30 3594 C 343.625 0.710095 -4.23387 0
M  V30 3595 C 342.858 1.72018 -5.05218 0
M  V30 3596 O 343.081 2.94813 -4.88305 0
M  V30 3597 O 342.015 1.28515 -5.8802 0
M  V30 3598 H 345.841 -0.366064 -3.01486 0
M  V30 3599 H 343.426 -0.24514 -1.47375 0
M  V30 3600 H 345.308 1.98385 -3.71781 0
M  V30 3601 H 343.983 2.02828 -2.52275 0
M  V30 3602 H 342.89 0.0567539 -3.74057 0
M  V30 3603 H 344.223 0.0943557 -4.9211 0
M  V30 3604 N 345.875 1.56104 -0.216619 0
M  V30 3605 C 346.838 2.18819 0.681962 0
M  V30 3606 C 347.838 1.14866 1.12528 0
M  V30 3607 O 349.028 1.40128 1.03488 0
M  V30 3608 C 346.16 2.80756 1.93362 0
M  V30 3609 H 347.353 2.99595 0.135254 0
M  V30 3610 H 344.906 1.56265 0.0330003 0
M  V30 3611 H 345.641 2.03837 2.52232 0
M  V30 3612 H 345.426 3.56876 1.62426 0
M  V30 3613 H 346.916 3.28844 2.57393 0
M  V30 3614 N 347.353 -0.0568162 1.57498 0
M  V30 3615 C 348.599 -0.75422 1.88253 0
M  V30 3616 C 348.932 -1.76461 0.810865 0
M  V30 3617 O 348.207 -1.93691 -0.177259 0
M  V30 3618 C 348.49 -1.44878 3.2967 0
M  V30 3619 C 348.343 -0.453789 4.47505 0
M  V30 3620 C 349.662 -2.38994 3.69554 0
M  V30 3621 H 346.781 -0.272724 0.684683 0
M  V30 3622 H 349.423 -0.0172113 1.89992 0
M  V30 3623 H 347.573 -2.077 3.28318 0
M  V30 3624 H 349.245 0.170371 4.60985 0
M  V30 3625 H 347.488 0.229552 4.33192 0
M  V30 3626 H 348.159 -0.977699 5.43273 0
M  V30 3627 H 350.635 -1.86239 3.72095 0
M  V30 3628 H 349.511 -2.84587 4.69363 0
M  V30 3629 H 349.772 -3.24461 3.00296 0
M  V30 3630 N 348.832 -1.54138 -0.328536 0
M  V30 3631 C 349.78 -1.83894 -1.42428 0
M  V30 3632 C 350.774 -0.710478 -1.53781 0
M  V30 3633 O 351.98 -0.894062 -1.56226 0
M  V30 3634 H 348.355 -0.582837 -0.475189 0
M  V30 3635 H 350.326 -2.75537 -1.14552 0
M  V30 3636 C 349.075 -2.07866 -2.78724 0
M  V30 3637 H 348.398 -2.94158 -2.7076 0
M  V30 3638 H 349.838 -2.32644 -3.54476 0
M  V30 3639 C 348.297 -0.868689 -3.25508 0
M  V30 3640 O 348.827 -0.0754908 -4.01629 0
M  V30 3641 N 347.033 -0.681711 -2.82491 0
M  V30 3642 H 346.58 -1.32838 -2.20708 0
M  V30 3643 H 346.538 0.126374 -3.14146 0
M  V30 3644 N 350.31 0.590341 -1.46126 0
M  V30 3645 C 351.726 0.912917 -1.30912 0
M  V30 3646 C 351.926 1.99616 -0.274893 0
M  V30 3647 O 350.982 2.50397 0.325197 0
M  V30 3648 C 352.295 1.3375 -2.69317 0
M  V30 3649 C 353.843 1.45077 -2.77348 0
M  V30 3650 C 354.318 1.90904 -4.16317 0
M  V30 3651 N 355.809 1.9811 -4.18696 0
M  V30 3652 C 356.544 2.34828 -5.23109 0
M  V30 3653 N 356.04 2.70393 -6.37856 0
M  V30 3654 N 357.833 2.35317 -5.10473 0
M  V30 3655 H 349.984 -0.125358 -2.1203 0
M  V30 3656 H 352.247 0.00658481 -0.947977 0
M  V30 3657 H 351.953 0.615614 -3.4627 0
M  V30 3658 H 351.827 2.30058 -2.9892 0
M  V30 3659 H 354.214 2.16353 -2.00687 0
M  V30 3660 H 354.295 0.4704 -2.51438 0
M  V30 3661 H 353.939 1.20209 -4.9347 0
M  V30 3662 H 353.869 2.89886 -4.39629 0
M  V30 3663 H 356.36 1.73146 -3.359 0
M  V30 3664 H 356.673 2.97341 -7.13308 0
M  V30 3665 H 355.018 2.68048 -6.41229 0
M  V30 3666 H 358.209 2.0695 -4.19868 0
M  V30 3667 H 358.382 2.63605 -5.9196 0
M  V30 3668 N 351.788 1.33704 0.83433 0
M  V30 3669 C 352.751 1.24244 1.92603 0
M  V30 3670 C 353.751 0.160383 1.59998 0
M  V30 3671 O 354.941 0.412228 1.69252 0
M  V30 3672 C 352.073 0.91555 3.28376 0
M  V30 3673 H 353.266 2.21287 2.02416 0
M  V30 3674 H 350.819 1.17827 1.02696 0
M  V30 3675 H 351.554 -0.0521886 3.24258 0
M  V30 3676 H 351.339 1.69811 3.53422 0
M  V30 3677 H 352.829 0.874231 4.08347 0
M  V30 3678 N 353.266 -1.05314 1.17247 0
M  V30 3679 C 354.515 -1.77685 0.954521 0
M  V30 3680 C 354.828 -1.88616 -0.518025 0
M  V30 3681 O 356.034 -2.57714 -0.854144 0
M  V30 3682 C 354.49 -3.19402 1.65863 0
M  V30 3683 C 354.098 -3.16605 3.16963 0
M  V30 3684 C 355.842 -3.96237 1.52303 0
M  V30 3685 C 353.749 -4.53103 3.80068 0
M  V30 3686 H 352.679 -0.666 0.353496 0
M  V30 3687 H 355.33 -1.1805 1.40486 0
M  V30 3688 H 353.712 -3.79355 1.13602 0
M  V30 3689 H 354.886 -2.66176 3.76148 0
M  V30 3690 H 353.201 -2.53268 3.30521 0
M  V30 3691 H 355.798 -4.97157 1.96822 0
M  V30 3692 H 356.141 -4.136 0.473401 0
M  V30 3693 H 356.674 -3.42829 2.01775 0
M  V30 3694 H 353.413 -4.40946 4.85023 0
M  V30 3695 H 352.933 -5.03686 3.2567 0
M  V30 3696 H 354.612 -5.22045 3.82202 0
M  V30 3697 N 354.744 -0.972509 -1.24016 0
M  V30 3698 C 355.972 -0.654803 -1.96265 0
M  V30 3699 C 356.387 0.776708 -1.72083 0
M  V30 3700 O 355.744 1.52171 -1.00748 0
M  V30 3701 C 355.795 -0.92592 -3.49441 0
M  V30 3702 O 355.516 -2.30116 -3.72798 0
M  V30 3703 C 357.017 -0.623068 -4.38899 0
M  V30 3704 H 354.237 -0.243907 -0.6251 0
M  V30 3705 H 356.781 -1.30175 -1.57717 0
M  V30 3706 H 354.936 -0.325108 -3.86033 0
M  V30 3707 H 355.35 -2.38483 -4.67147 0
M  V30 3708 H 356.824 -0.863189 -5.45209 0
M  V30 3709 H 357.301 0.442754 -4.36963 0
M  V30 3710 H 357.907 -1.204 -4.07902 0
M  V30 3711 N 356.222 1.38976 -0.743202 0
M  V30 3712 C 357.471 1.99581 -0.291592 0
M  V30 3713 C 357.784 1.59656 1.13001 0
M  V30 3714 O 358.99 2.13157 1.68156 0
M  V30 3715 C 357.446 3.56813 -0.470391 0
M  V30 3716 C 357.054 4.05695 -1.90041 0
M  V30 3717 C 358.798 4.24423 -0.0809709 0
M  V30 3718 C 356.705 5.5553 -2.02832 0
M  V30 3719 H 355.635 0.746615 -0.105272 0
M  V30 3720 H 358.286 1.58872 -0.918258 0
M  V30 3721 H 356.668 3.95359 0.225299 0
M  V30 3722 H 357.842 3.78464 -2.62872 0
M  V30 3723 H 356.157 3.50775 -2.24379 0
M  V30 3724 H 358.754 5.34474 -0.155445 0
M  V30 3725 H 359.097 4.04962 0.96497 0
M  V30 3726 H 359.63 3.9108 -0.728124 0
M  V30 3727 H 356.369 5.79881 -3.05643 0
M  V30 3728 H 355.889 5.84537 -1.34448 0
M  V30 3729 H 357.568 6.21069 -1.81335 0
M  V30 3730 N 357.7 0.491464 1.49741 0
M  V30 3731 C 358.663 -0.280906 2.27472 0
M  V30 3732 C 359.663 -0.902454 1.33088 0
M  V30 3733 O 360.853 -0.768465 1.56334 0
M  V30 3734 C 357.985 -1.40209 3.10732 0
M  V30 3735 H 359.178 0.401056 2.97206 0
M  V30 3736 H 356.731 0.246131 1.5435 0
M  V30 3737 H 357.466 -2.11849 2.45541 0
M  V30 3738 H 357.251 -0.961969 3.80117 0
M  V30 3739 H 358.741 -1.9464 3.69466 0
M  V30 3740 N 359.178 -1.55987 0.224894 0
M  V30 3741 C 360.126 -2.21808 -0.700283 0
M  V30 3742 C 361.12 -1.19854 -1.19714 0
M  V30 3743 O 362.326 -1.37925 -1.15658 0
M  V30 3744 H 358.701 -0.711226 -0.244258 0
M  V30 3745 H 360.672 -2.98152 -0.121749 0
M  V30 3746 C 359.421 -2.91444 -1.8962 0
M  V30 3747 H 358.744 -3.69655 -1.52299 0
M  V30 3748 H 360.184 -3.40894 -2.52125 0
M  V30 3749 C 358.643 -1.94098 -2.75368 0
M  V30 3750 O 359.173 -1.46004 -3.74227 0
M  V30 3751 N 357.379 -1.61675 -2.41474 0
M  V30 3752 H 356.926 -2.00979 -1.61137 0
M  V30 3753 H 356.884 -0.968036 -2.99126 0
M  V30 3754 N 360.656 0.0484629 -1.57525 0
M  V30 3755 C 361.588 1.08222 -2.02041 0
M  V30 3756 C 362.601 1.33621 -0.930012 0
M  V30 3757 O 363.79 1.3145 -1.20761 0
M  V30 3758 C 360.89 2.42818 -2.36416 0
M  V30 3759 C 360.063 2.37049 -3.67596 0
M  V30 3760 C 359.122 3.53937 -3.89378 0
M  V30 3761 O 358.148 3.34308 -4.60681 0
M  V30 3762 N 359.35 4.75126 -3.3352 0
M  V30 3763 H 362.115 0.702946 -2.9134 0
M  V30 3764 H 359.676 0.236745 -1.6016 0
M  V30 3765 H 361.668 3.197 -2.48141 0
M  V30 3766 H 360.238 2.72661 -1.52888 0
M  V30 3767 H 359.458 1.45395 -3.66407 0
M  V30 3768 H 360.746 2.30318 -4.53686 0
M  V30 3769 H 360.144 4.93976 -2.75688 0
M  V30 3770 H 358.701 5.49439 -3.50656 0
M  V30 3771 N 362.134 1.5431 0.320358 0
M  V30 3772 C 363.362 1.76636 1.07738 0
M  V30 3773 C 363.777 0.51649 1.81598 0
M  V30 3774 O 363.134 -0.512942 1.75143 0
M  V30 3775 C 363.185 2.96158 2.07299 0
M  V30 3776 O 362.906 4.16313 1.36438 0
M  V30 3777 C 364.407 3.3072 2.95193 0
M  V30 3778 H 361.627 0.589597 0.320339 0
M  V30 3779 H 364.171 2.01207 0.36551 0
M  V30 3780 H 362.326 2.73851 2.74016 0
M  V30 3781 H 362.74 4.83565 2.03138 0
M  V30 3782 H 364.214 4.17643 3.60941 0
M  V30 3783 H 364.691 2.48026 3.62463 0
M  V30 3784 H 365.297 3.55117 2.34034 0
M  V30 3785 N 363.613 -0.582584 1.46437 0
M  V30 3786 C 364.561 -1.71272 1.5738 0
M  V30 3787 C 365.555 -1.63524 0.44229 0
M  V30 3788 O 366.761 -1.69016 0.619166 0
M  V30 3789 H 363.136 -0.566273 0.494813 0
M  V30 3790 H 365.107 -1.59174 2.52401 0
M  V30 3791 C 363.856 -3.09658 1.58136 0
M  V30 3792 H 363.179 -3.16291 2.44541 0
M  V30 3793 H 364.619 -3.88494 1.69847 0
M  V30 3794 C 363.078 -3.3547 0.310026 0
M  V30 3795 O 363.608 -3.97199 -0.599683 0
M  V30 3796 N 361.814 -2.89925 0.197901 0
M  V30 3797 H 361.361 -2.39873 0.93909 0
M  V30 3798 H 361.319 -3.07568 -0.65185 0
M  V30 3799 N 365.091 -1.34144 -0.827227 0
M  V30 3800 C 366.331 -1.27603 -1.59677 0
M  V30 3801 C 366.695 0.153035 -1.91389 0
M  V30 3802 O 367.896 0.342566 -2.66608 0
M  V30 3803 C 366.167 -2.13784 -2.86411 0
M  V30 3804 S 367.726 -2.24552 -3.76991 0
M  V30 3805 H 364.544 -0.453789 -0.547354 0
M  V30 3806 H 367.146 -1.69309 -0.977479 0
M  V30 3807 H 365.85 -3.16627 -2.61104 0
M  V30 3808 H 365.381 -1.72959 -3.5334 0
M  V30 3809 H 367.396 -1.41514 -4.75593 0
M  V30 3810 N 366.569 1.04691 -1.17803 0
M  V30 3811 C 367.98 1.59238 -0.974689 0
M  V30 3812 C 368.331 1.90306 0.477292 0
M  V30 3813 O 367.456 1.68846 1.35352 0
M  V30 3814 C 368.051 2.89318 -1.76296 0
M  V30 3815 C 366.61 3.40506 -1.60414 0
M  V30 3816 C 365.757 2.14172 -1.76141 0
M  V30 3817 H 368.708 0.874395 -1.32439 0
M  V30 3818 H 368.729 3.5944 -1.24833 0
M  V30 3819 H 368.241 2.66675 -2.81968 0
M  V30 3820 H 366.342 3.68175 -0.572519 0
M  V30 3821 H 366.455 4.14753 -2.39827 0
M  V30 3822 H 364.819 2.25176 -1.19028 0
M  V30 3823 H 365.602 1.93992 -2.83235 0
M  V30 3824 N 368.047 0.979072 1.23499 0
M  V30 3825 C 368.977 0.537606 2.27227 0
M  V30 3826 C 369.958 -0.428539 1.64613 0
M  V30 3827 O 371.143 -0.322191 1.91509 0
M  V30 3828 C 368.273 -0.162052 3.46922 0
M  V30 3829 C 367.227 0.721242 4.21879 0
M  V30 3830 C 366.553 -0.110555 5.34586 0
M  V30 3831 C 367.853 2.01141 4.82016 0
M  V30 3832 H 369.547 1.40462 2.64406 0
M  V30 3833 H 367.093 0.67684 1.27102 0
M  V30 3834 H 369.046 -0.482192 4.18632 0
M  V30 3835 H 367.77 -1.06351 3.08799 0
M  V30 3836 H 366.429 1.02482 3.51984 0
M  V30 3837 H 366.077 -1.0125 4.92704 0
M  V30 3838 H 365.777 0.477325 5.85658 0
M  V30 3839 H 367.301 -0.425107 6.09118 0
M  V30 3840 H 368.715 1.75612 5.45741 0
M  V30 3841 H 367.112 2.54695 5.43369 0
M  V30 3842 H 368.182 2.69909 4.02836 0
M  V30 3843 N 369.525 -1.3858 0.750561 0
M  V30 3844 C 370.755 -2.04175 0.31564 0
M  V30 3845 C 371.163 -1.56726 -1.05989 0
M  V30 3846 O 370.506 -0.734225 -1.68389 0
M  V30 3847 C 370.568 -3.58585 0.256389 0
M  V30 3848 C 370.232 -4.29077 1.57296 0
M  V30 3849 C 371.229 -4.54656 2.52159 0
M  V30 3850 C 368.914 -4.67324 1.84156 0
M  V30 3851 C 370.908 -5.17512 3.72103 0
M  V30 3852 C 368.595 -5.29905 3.04374 0
M  V30 3853 C 369.593 -5.54933 3.98168 0
M  V30 3854 O 369.281 -6.16212 5.16273 0
M  V30 3855 H 369.013 -0.662742 0.133226 0
M  V30 3856 H 371.567 -1.78313 1.01948 0
M  V30 3857 H 369.797 -3.83406 -0.503677 0
M  V30 3858 H 371.486 -4.05628 -0.148612 0
M  V30 3859 H 372.252 -4.25539 2.32683 0
M  V30 3860 H 368.131 -4.47191 1.11988 0
M  V30 3861 H 371.675 -5.36963 4.45327 0
M  V30 3862 H 367.572 -5.58444 3.23745 0
M  V30 3863 H 368.34 -6.34701 5.16815 0
M  V30 3864 N 371.003 -0.499398 -1.49478 0
M  V30 3865 C 372.252 0.0475259 -2.01644 0
M  V30 3866 C 372.565 1.38195 -1.38425 0
M  V30 3867 O 373.771 2.01547 -1.8191 0
M  V30 3868 C 372.227 0.135164 -3.59646 0
M  V30 3869 C 371.835 -1.19252 -4.31837 0
M  V30 3870 C 373.579 0.632538 -4.19761 0
M  V30 3871 C 371.486 -1.06713 -5.81693 0
M  V30 3872 H 370.416 0.0215349 -0.753692 0
M  V30 3873 H 373.067 -0.638577 -1.7203 0
M  V30 3874 H 371.449 0.885681 -3.85969 0
M  V30 3875 H 372.623 -1.9562 -4.17216 0
M  V30 3876 H 370.938 -1.62321 -3.83459 0
M  V30 3877 H 373.535 0.743833 -5.29501 0
M  V30 3878 H 373.878 1.63098 -3.83021 0
M  V30 3879 H 374.411 -0.0613987 -3.97753 0
M  V30 3880 H 371.15 -2.03979 -6.22955 0
M  V30 3881 H 370.67 -0.344307 -5.98811 0
M  V30 3882 H 372.349 -0.745208 -6.42694 0
M  V30 3883 N 372.481 1.55866 -0.233164 0
M  V30 3884 C 373.709 2.02998 0.399905 0
M  V30 3885 C 374.124 1.11274 1.52524 0
M  V30 3886 O 373.481 0.124528 1.82075 0
M  V30 3887 C 373.532 3.4958 0.920639 0
M  V30 3888 O 373.253 4.37808 -0.159834 0
M  V30 3889 C 374.754 4.12411 1.62578 0
M  V30 3890 H 371.974 0.664006 0.0966281 0
M  V30 3891 H 374.518 2.0143 -0.353013 0
M  V30 3892 H 372.673 3.51727 1.62379 0
M  V30 3893 H 373.087 5.23981 0.23337 0
M  V30 3894 H 374.561 5.16711 1.94201 0
M  V30 3895 H 375.038 3.5809 2.54299 0
M  V30 3896 H 375.644 4.14148 0.967553 0
M  V30 3897 N 373.959 -0.0401083 1.57549 0
M  V30 3898 C 374.906 -1.04413 2.05831 0
M  V30 3899 C 375.876 -1.36585 0.945184 0
M  V30 3900 O 377.061 -1.47112 1.21502 0
M  V30 3901 C 374.201 -2.34336 2.53339 0
M  V30 3902 C 373.314 -2.08419 3.78398 0
M  V30 3903 C 372.449 -3.32133 4.14561 0
M  V30 3904 C 371.488 -3.01721 5.3257 0
M  V30 3905 N 370.625 -4.17855 5.64218 0
M  V30 3906 H 375.465 -0.625442 2.91363 0
M  V30 3907 H 373.002 -0.297218 1.44066 0
M  V30 3908 H 374.96 -3.10234 2.78946 0
M  V30 3909 H 373.59 -2.73948 1.7074 0
M  V30 3910 H 372.642 -1.23069 3.59942 0
M  V30 3911 H 373.954 -1.81978 4.64419 0
M  V30 3912 H 373.108 -4.16406 4.41238 0
M  V30 3913 H 371.847 -3.61678 3.2717 0
M  V30 3914 H 370.852 -2.15849 5.05657 0
M  V30 3915 H 372.077 -2.73466 6.21605 0
M  V30 3916 H 370.023 -4.47372 4.79786 0
M  V30 3917 H 369.94 -3.94798 6.44725 0
M  V30 3918 H 371.208 -5.03033 5.95465 0
M  V30 3919 N 375.437 -1.54477 -0.31217 0
M  V30 3920 C 376.683 -1.73483 -1.0503 0
M  V30 3921 C 377.016 -0.513125 -1.87298 0
M  V30 3922 O 376.291 0.489864 -1.8823 0
M  V30 3923 C 376.574 -3.01723 -1.96558 0
M  V30 3924 C 376.427 -4.3417 -1.17545 0
M  V30 3925 C 377.746 -3.25772 -2.95907 0
M  V30 3926 H 374.865 -0.631222 -0.380432 0
M  V30 3927 H 377.507 -1.87184 -0.325932 0
M  V30 3928 H 375.657 -2.90174 -2.58324 0
M  V30 3929 H 377.329 -4.5762 -0.581513 0
M  V30 3930 H 375.572 -4.31159 -0.477925 0
M  V30 3931 H 376.243 -5.20143 -1.84811 0
M  V30 3932 H 378.719 -3.36857 -2.44267 0
M  V30 3933 H 377.595 -4.16838 -3.57123 0
M  V30 3934 H 377.856 -2.43537 -3.68974 0
M  V30 3935 N 376.915 0.57481 -1.46744 0
M  V30 3936 C 377.848 1.69827 -1.52427 0
M  V30 3937 C 378.826 1.58151 -0.377744 0
M  V30 3938 O 380.01 1.79257 -0.58303 0
M  V30 3939 C 377.137 3.07943 -1.41027 0
M  V30 3940 C 376.183 3.38116 -2.59961 0
M  V30 3941 S 377.016 3.29313 -4.22272 0
M  V30 3942 C 378.172 4.69953 -4.13394 0
M  V30 3943 H 378.405 1.64748 -2.47478 0
M  V30 3944 H 375.938 0.754203 -1.34726 0
M  V30 3945 H 377.896 3.87619 -1.35137 0
M  V30 3946 H 376.557 3.10504 -0.473909 0
M  V30 3947 H 375.75 4.38762 -2.47999 0
M  V30 3948 H 375.352 2.66024 -2.62882 0
M  V30 3949 H 377.644 5.60517 -3.80562 0
M  V30 3950 H 378.587 4.86972 -5.14066 0
M  V30 3951 H 378.995 4.47174 -3.44522 0
M  V30 3952 N 378.394 1.34581 0.820102 0
M  V30 3953 C 379.619 1.30333 1.61332 0
M  V30 3954 C 380.044 -0.119339 1.87721 0
M  V30 3955 O 379.402 -1.08197 1.45475 0
M  V30 3956 C 379.45 2.10258 2.92957 0
M  V30 3957 O 378.554 1.47404 3.85157 0
M  V30 3958 H 377.895 0.447488 0.490561 0
M  V30 3959 H 380.425 1.77425 1.01889 0
M  V30 3960 H 380.435 2.21718 3.42498 0
M  V30 3961 H 379.11 3.13693 2.73074 0
M  V30 3962 H 377.687 1.44703 3.43679 0
M  V30 3963 N 379.872 -1.04064 1.18357 0
M  V30 3964 C 380.819 -2.12077 0.910603 0
M  V30 3965 C 381.789 -1.65421 -0.15 0
M  V30 3966 O 382.974 -1.90797 -0.0103614 0
M  V30 3967 C 380.114 -3.42252 0.442472 0
M  V30 3968 C 379.227 -4.0252 1.5685 0
M  V30 3969 C 378.362 -5.20657 1.05309 0
M  V30 3970 C 377.401 -5.72955 2.1538 0
M  V30 3971 N 376.538 -6.8238 1.65233 0
M  V30 3972 H 381.378 -2.34764 1.83548 0
M  V30 3973 H 378.915 -1.15157 0.915279 0
M  V30 3974 H 380.873 -4.16921 0.152534 0
M  V30 3975 H 379.503 -3.19712 -0.445428 0
M  V30 3976 H 378.555 -3.25178 1.97391 0
M  V30 3977 H 379.867 -4.37362 2.39824 0
M  V30 3978 H 379.021 -6.0244 0.717677 0
M  V30 3979 H 377.76 -4.87318 0.19293 0
M  V30 3980 H 376.765 -4.89793 2.49766 0
M  V30 3981 H 377.99 -6.08337 3.01832 0
M  V30 3982 H 375.936 -6.50917 0.815064 0
M  V30 3983 H 375.853 -7.16286 2.41805 0
M  V30 3984 H 377.121 -7.67788 1.34619 0
M  V30 3985 N 381.35 -0.985608 -1.22978 0
M  V30 3986 C 382.575 -0.675254 -1.961 0
M  V30 3987 C 383 0.752154 -1.72407 0
M  V30 3988 O 382.358 1.5131 -0.998751 0
M  V30 3989 C 382.406 -0.977899 -3.47087 0
M  V30 3990 O 381.51 -0.072685 -4.12336 0
M  V30 3991 H 380.851 -0.253443 -0.613728 0
M  V30 3992 H 383.381 -1.32061 -1.56272 0
M  V30 3993 H 383.391 -0.916739 -3.97567 0
M  V30 3994 H 382.066 -2.01807 -3.63657 0
M  V30 3995 H 380.643 -0.188703 -3.72422 0
M  V30 3996 N 382.828 1.3818 -0.7579 0
M  V30 3997 C 384.053 2.04827 -0.325679 0
M  V30 3998 C 384.478 1.56788 1.03919 0
M  V30 3999 O 383.836 0.721811 1.66312 0
M  V30 4000 C 383.884 3.58774 -0.362447 0
M  V30 4001 O 382.988 4.07372 0.642033 0
M  V30 4002 H 382.329 0.64833 -0.143402 0
M  V30 4003 H 384.859 1.7677 -1.03023 0
M  V30 4004 H 384.869 4.07434 -0.214844 0
M  V30 4005 H 383.544 3.93096 -1.35824 0
M  V30 4006 H 382.121 3.70068 0.458688 0
M  V30 4007 N 384.306 0.507319 1.49211 0
M  V30 4008 C 385.269 -0.256763 2.27757 0
M  V30 4009 C 386.269 -0.888287 1.34038 0
M  V30 4010 O 387.459 -0.751841 1.5714 0
M  V30 4011 C 384.591 -1.36905 3.12202 0
M  V30 4012 H 385.784 0.432557 2.96764 0
M  V30 4013 H 383.337 0.262488 1.5408 0
M  V30 4014 H 384.072 -2.09233 2.47775 0
M  V30 4015 H 383.857 -0.921599 3.81115 0
M  V30 4016 H 385.347 -1.9071 3.7151 0
M  V30 4017 N 385.784 -1.5574 0.241426 0
M  V30 4018 C 386.694 -2.2479 -0.671305 0
M  V30 4019 C 387.71 -1.26217 -1.19772 0
M  V30 4020 O 388.886 -1.59079 -1.23514 0
M  V30 4021 C 385.951 -2.92966 -1.85396 0
M  V30 4022 C 385.012 -4.06935 -1.36756 0
M  V30 4023 C 384.245 -4.71851 -2.49384 0
M  V30 4024 O 384.468 -4.35823 -3.67987 0
M  V30 4025 O 383.402 -5.60467 -2.19454 0
M  V30 4026 H 387.228 -3.0349 -0.112966 0
M  V30 4027 H 384.813 -1.49397 0.0101513 0
M  V30 4028 H 386.695 -3.35927 -2.54423 0
M  V30 4029 H 385.37 -2.17211 -2.40002 0
M  V30 4030 H 384.277 -3.68503 -0.644726 0
M  V30 4031 H 385.61 -4.84492 -0.867647 0
M  V30 4032 N 387.262 0.0317525 -1.57568 0
M  V30 4033 C 388.508 0.724175 -1.8943 0
M  V30 4034 C 388.841 1.75149 -0.838836 0
M  V30 4035 O 388.116 1.93948 0.146422 0
M  V30 4036 C 388.399 1.39615 -3.31933 0
M  V30 4037 C 388.252 0.382537 -4.4817 0
M  V30 4038 C 389.571 2.33084 -3.73309 0
M  V30 4039 H 386.69 0.261797 -0.688935 0
M  V30 4040 H 389.332 -0.013017 -1.89996 0
M  V30 4041 H 387.482 2.02451 -3.31581 0
M  V30 4042 H 389.154 -0.243689 -4.60656 0
M  V30 4043 H 387.397 -0.29844 -4.32772 0
M  V30 4044 H 388.068 0.891145 -5.44759 0
M  V30 4045 H 390.544 1.80295 -3.7501 0
M  V30 4046 H 389.42 2.77084 -4.73831 0
M  V30 4047 H 389.681 3.19643 -3.05419 0
M  V30 4048 N 388.74 1.54641 0.303973 0
M  V30 4049 C 389.989 1.7299 1.03717 0
M  V30 4050 C 390.302 0.521168 1.88529 0
M  V30 4051 O 391.508 0.586408 2.65092 0
M  V30 4052 C 389.964 3.06051 1.89369 0
M  V30 4053 C 389.572 4.34393 1.09574 0
M  V30 4054 C 391.316 3.3376 2.62306 0
M  V30 4055 C 389.223 5.58506 1.94486 0
M  V30 4056 H 388.153 0.64473 0.390947 0
M  V30 4057 H 390.804 1.81124 0.294328 0
M  V30 4058 H 389.186 2.91874 2.67629 0
M  V30 4059 H 390.36 4.59396 0.359485 0
M  V30 4060 H 388.675 4.13597 0.482324 0
M  V30 4061 H 391.272 4.23687 3.26181 0
M  V30 4062 H 391.615 2.52503 3.3098 0
M  V30 4063 H 392.148 3.48894 1.91097 0
M  V30 4064 H 388.887 6.42422 1.30287 0
M  V30 4065 H 388.407 5.37694 2.65792 0
M  V30 4066 H 390.086 5.95651 2.52605 0
M  V30 4067 N 390.218 -0.567019 1.47046 0
M  V30 4068 C 391.181 -1.65696 1.58359 0
M  V30 4069 C 392.181 -1.54097 0.459441 0
M  V30 4070 O 393.371 -1.58432 0.724225 0
M  V30 4071 C 390.503 -3.05197 1.51879 0
M  V30 4072 H 391.696 -1.57019 2.5551 0
M  V30 4073 H 389.249 -0.786148 1.3509 0
M  V30 4074 H 389.984 -3.19417 0.560673 0
M  V30 4075 H 389.769 -3.15025 2.33455 0
M  V30 4076 H 391.259 -3.84511 1.62913 0
M  V30 4077 N 391.696 -1.35014 -0.812953 0
M  V30 4078 C 392.628 -1.23262 -1.93233 0
M  V30 4079 C 393.641 -0.157371 -1.62038 0
M  V30 4080 O 394.83 -0.410096 -1.73725 0
M  V30 4081 C 391.93 -0.87392 -3.27438 0
M  V30 4082 C 391.103 -2.04622 -3.86586 0
M  V30 4083 C 390.162 -1.66432 -4.99186 0
M  V30 4084 O 389.188 -2.38222 -5.16951 0
M  V30 4085 N 390.39 -0.584248 -5.77552 0
M  V30 4086 H 393.155 -2.19699 -2.03844 0
M  V30 4087 H 390.716 -1.281 -0.99005 0
M  V30 4088 H 392.708 -0.600039 -4.00227 0
M  V30 4089 H 391.278 0.00057392 -3.126 0
M  V30 4090 H 390.498 -2.48427 -3.06068 0
M  V30 4091 H 391.786 -2.82999 -4.22835 0
M  V30 4092 H 391.184 0.0123526 -5.65699 0
M  V30 4093 H 389.741 -0.37013 -6.50748 0
M  V30 4094 N 393.175 1.03435 -1.18907 0
M  V30 4095 C 394.138 2.09756 -0.923844 0
M  V30 4096 C 395.138 1.60528 0.093416 0
M  V30 4097 O 396.328 1.73631 -0.140727 0
M  V30 4098 C 393.46 3.38692 -0.387354 0
M  V30 4099 H 394.653 2.34719 -1.86674 0
M  V30 4100 H 392.206 1.19959 -1.00197 0
M  V30 4101 H 392.941 3.19396 0.561845 0
M  V30 4102 H 392.726 3.75742 -1.12074 0
M  V30 4103 H 394.216 4.17016 -0.220694 0
M  V30 4104 N 394.653 0.992116 1.22453 0
M  V30 4105 C 396.069 0.702713 1.43297 0
M  V30 4106 C 396.269 -0.726909 1.87932 0
M  V30 4107 O 395.325 -1.49792 2.0327 0
M  V30 4108 C 396.638 1.70762 2.47509 0
M  V30 4109 C 398.186 1.72298 2.61309 0
M  V30 4110 C 398.661 2.71649 3.68742 0
M  V30 4111 N 400.152 2.70239 3.76199 0
M  V30 4112 C 400.887 3.43778 4.58917 0
M  V30 4113 N 400.383 4.26914 5.45633 0
M  V30 4114 N 402.176 3.32487 4.5322 0
M  V30 4115 H 394.327 1.91543 0.917871 0
M  V30 4116 H 396.59 0.826031 0.465162 0
M  V30 4117 H 396.296 2.73059 2.21657 0
M  V30 4118 H 396.17 1.49985 3.46099 0
M  V30 4119 H 398.557 0.706989 2.86506 0
M  V30 4120 H 398.638 1.97143 1.62997 0
M  V30 4121 H 398.282 3.73397 3.44292 0
M  V30 4122 H 398.212 2.44074 4.66622 0
M  V30 4123 H 400.703 2.09912 3.14237 0
M  V30 4124 H 401.016 4.79855 6.05771 0
M  V30 4125 H 399.361 4.31002 5.45218 0
M  V30 4126 H 402.552 2.6698 3.84499 0
M  V30 4127 H 402.725 3.90058 5.17454 0
M  V30 4128 N 396.131 -1.37776 0.765217 0
M  V30 4129 C 397.078 -2.30342 0.145274 0
M  V30 4130 C 398.048 -1.5077 -0.696971 0
M  V30 4131 O 399.233 -1.79362 -0.650689 0
M  V30 4132 C 396.373 -3.37227 -0.732939 0
M  V30 4133 C 395.486 -4.31819 0.125199 0
M  V30 4134 C 394.621 -5.25777 -0.757107 0
M  V30 4135 C 393.66 -6.12012 0.103963 0
M  V30 4136 N 392.797 -6.98232 -0.735953 0
M  V30 4137 H 397.637 -2.8278 0.940195 0
M  V30 4138 H 395.174 -1.39211 0.475255 0
M  V30 4139 H 397.132 -3.97818 -1.25686 0
M  V30 4140 H 395.762 -2.86171 -1.49353 0
M  V30 4141 H 394.814 -3.7259 0.766865 0
M  V30 4142 H 396.126 -4.92509 0.789683 0
M  V30 4143 H 395.28 -5.91541 -1.34776 0
M  V30 4144 H 394.019 -4.65481 -1.45529 0
M  V30 4145 H 393.024 -5.45233 0.707197 0
M  V30 4146 H 394.249 -6.74379 0.799381 0
M  V30 4147 H 392.195 -6.40472 -1.41887 0
M  V30 4148 H 392.112 -7.55891 -0.128624 0
M  V30 4149 H 393.38 -7.68393 -1.31121 0
M  V30 4150 N 397.609 -0.515225 -1.4894 0
M  V30 4151 C 398.556 0.255567 -2.29381 0
M  V30 4152 C 399.526 0.947387 -1.36432 0
M  V30 4153 O 400.711 0.951288 -1.65394 0
M  V30 4154 C 397.851 1.30551 -3.19453 0
M  V30 4155 C 396.964 0.624029 -4.27469 0
M  V30 4156 C 396.099 1.65563 -5.0474 0
M  V30 4157 C 395.138 0.956802 -6.04576 0
M  V30 4158 N 394.275 1.93326 -6.74959 0
M  V30 4159 H 399.115 -0.436607 -2.94784 0
M  V30 4160 H 396.652 -0.227154 -1.45336 0
M  V30 4161 H 398.61 1.92639 -3.70062 0
M  V30 4162 H 397.24 1.96626 -2.56004 0
M  V30 4163 H 396.292 -0.110459 -3.8024 0
M  V30 4164 H 397.604 0.0746092 -4.98744 0
M  V30 4165 H 396.758 2.35119 -5.59289 0
M  V30 4166 H 395.497 2.23893 -4.3327 0
M  V30 4167 H 394.502 0.247097 -5.49244 0
M  V30 4168 H 395.727 0.379814 -6.78037 0
M  V30 4169 H 393.673 2.50591 -6.06251 0
M  V30 4170 H 393.59 1.43489 -7.42258 0
M  V30 4171 H 394.858 2.62126 -7.34105 0
M  V30 4172 N 399.087 1.5561 -0.249682 0
M  V30 4173 C 400.335 1.98618 0.373548 0
M  V30 4174 C 400.656 1.13919 1.58264 0
M  V30 4175 O 399.926 0.222637 1.94631 0
M  V30 4176 H 398.506 0.733571 0.141006 0
M  V30 4177 H 401.168 1.91748 -0.349117 0
M  V30 4178 H 400.264 3.04584 0.680796 0
M  V30 4179 N 400.565 -0.0233959 1.57583 0
M  V30 4180 C 401.793 -0.724682 1.93794 0
M  V30 4181 C 402.208 -1.68588 0.849912 0
M  V30 4182 O 401.565 -1.81676 -0.173204 0
M  V30 4183 C 401.616 -1.47684 3.29957 0
M  V30 4184 O 401.337 -0.554222 4.3458 0
M  V30 4185 C 402.838 -2.27477 3.80485 0
M  V30 4186 H 400.058 -0.203317 0.639455 0
M  V30 4187 H 402.602 0.0207653 2.04489 0
M  V30 4188 H 400.757 -2.17412 3.20641 0
M  V30 4189 H 401.171 -1.08232 5.13212 0
M  V30 4190 H 402.645 -2.7564 4.78254 0
M  V30 4191 H 403.122 -3.09144 3.11972 0
M  V30 4192 H 403.728 -1.62813 3.92902 0
M  V30 4193 N 402.043 -1.548 -0.295768 0
M  V30 4194 C 403.289 -1.74588 -1.03184 0
M  V30 4195 C 403.622 -0.532962 -1.86744 0
M  V30 4196 O 402.897 0.469872 -1.88739 0
M  V30 4197 C 403.18 -3.03791 -1.93347 0
M  V30 4198 C 403.033 -4.35392 -1.12933 0
M  V30 4199 C 404.352 -3.28892 -2.92435 0
M  V30 4200 H 401.471 -0.635221 -0.373715 0
M  V30 4201 H 404.113 -1.87519 -0.30606 0
M  V30 4202 H 402.263 -2.92898 -2.55232 0
M  V30 4203 H 403.935 -4.58211 -0.532943 0
M  V30 4204 H 402.178 -4.31642 -0.432168 0
M  V30 4205 H 402.849 -5.22074 -1.79284 0
M  V30 4206 H 405.325 -3.39429 -2.4068 0
M  V30 4207 H 404.201 -4.20603 -3.52682 0
M  V30 4208 H 404.462 -2.47437 -3.6637 0
M  V30 4209 N 403.521 0.559213 -1.47345 0
M  V30 4210 C 404.767 1.31843 -1.54095 0
M  V30 4211 C 405.1 1.93149 -0.201726 0
M  V30 4212 O 404.375 1.77759 0.789428 0
M  V30 4213 C 404.658 2.43006 -2.65744 0
M  V30 4214 C 404.511 1.86581 -4.09277 0
M  V30 4215 C 405.83 3.44943 -2.73318 0
M  V30 4216 H 402.949 0.478012 -0.560957 0
M  V30 4217 H 405.591 0.625977 -1.79392 0
M  V30 4218 H 403.741 3.02072 -2.44305 0
M  V30 4219 H 405.413 1.31792 -4.42073 0
M  V30 4220 H 403.656 1.17268 -4.17649 0
M  V30 4221 H 404.327 2.66933 -4.83168 0
M  V30 4222 H 406.803 2.95793 -2.92653 0
M  V30 4223 H 405.679 4.20153 -3.53218 0
M  V30 4224 H 405.94 4.03665 -1.80296 0
M  V30 4225 N 404.999 1.35443 0.805782 0
M  V30 4226 C 406.229 1.31687 1.59192 0
M  V30 4227 C 406.637 -0.10756 1.88894 0
M  V30 4228 O 405.98 -1.07017 1.49309 0
M  V30 4229 C 406.042 2.05686 2.94845 0
M  V30 4230 C 405.706 3.54868 2.87954 0
M  V30 4231 C 406.703 4.49444 2.61335 0
M  V30 4232 C 404.388 3.97528 3.07046 0
M  V30 4233 C 406.382 5.84655 2.53885 0
M  V30 4234 C 404.069 5.32833 2.99219 0
M  V30 4235 C 405.067 6.26209 2.72674 0
M  V30 4236 O 404.755 7.59032 2.64811 0
M  V30 4237 H 404.487 0.453878 0.50097 0
M  V30 4238 H 407.041 1.78892 1.0093 0
M  V30 4239 H 405.271 1.5312 3.55093 0
M  V30 4240 H 406.96 1.94998 3.55993 0
M  V30 4241 H 407.726 4.17804 2.46303 0
M  V30 4242 H 403.605 3.25233 3.26718 0
M  V30 4243 H 407.149 6.57508 2.33086 0
M  V30 4244 H 403.046 5.64087 3.13809 0
M  V30 4245 H 403.814 7.68967 2.80413 0
M  V30 4246 N 406.477 -1.02803 1.19454 0
M  V30 4247 C 407.725 -1.75869 0.995722 0
M  V30 4248 C 408.046 -1.89138 -0.474543 0
M  V30 4249 O 407.316 -1.42558 -1.34366 0
M  V30 4250 H 405.896 -0.651511 0.365435 0
M  V30 4251 H 408.558 -1.24004 1.50363 0
M  V30 4252 H 407.654 -2.76661 1.44447 0
M  V30 4253 N 407.956 -0.998596 -1.21925 0
M  V30 4254 C 408.866 -0.562736 -2.27751 0
M  V30 4255 C 409.882 0.391203 -1.69545 0
M  V30 4256 O 411.058 0.256625 -1.99758 0
M  V30 4257 C 408.123 0.11012 -3.46525 0
M  V30 4258 C 407.184 -0.887495 -4.20026 0
M  V30 4259 C 406.417 -0.246654 -5.3313 0
M  V30 4260 O 406.64 0.958088 -5.62296 0
M  V30 4261 O 405.574 -0.954374 -5.94286 0
M  V30 4262 H 409.4 -1.44329 -2.67213 0
M  V30 4263 H 406.985 -0.767135 -1.28201 0
M  V30 4264 H 408.867 0.486756 -4.18579 0
M  V30 4265 H 407.542 0.965154 -3.08976 0
M  V30 4266 H 406.449 -1.31517 -3.5022 0
M  V30 4267 H 407.782 -1.71191 -4.6147 0
M  V30 4268 N 409.434 1.37368 -0.772513 0
M  V30 4269 C 410.845 1.8231 -0.402493 0
M  V30 4270 C 411.196 1.6436 1.07146 0
M  V30 4271 O 410.321 1.15514 1.82991 0
M  V30 4272 C 410.916 3.30979 -0.723776 0
M  V30 4273 C 409.475 3.74195 -0.406802 0
M  V30 4274 C 408.622 2.59885 -0.967218 0
M  V30 4275 H 411.573 1.25829 -0.967099 0
M  V30 4276 H 411.594 3.80499 -0.00870832 0
M  V30 4277 H 411.106 3.44011 -1.7966 0
M  V30 4278 H 409.207 3.66732 0.658673 0
M  V30 4279 H 409.32 4.7027 -0.915588 0
M  V30 4280 H 407.684 2.51674 -0.391416 0
M  V30 4281 H 408.467 2.7571 -2.04546 0
M  V30 4282 N 410.912 0.523116 1.48665 0
M  V30 4283 C 412.161 -0.01544 2.01694 0
M  V30 4284 C 412.474 -1.35975 1.40606 0
M  V30 4285 O 413.68 -1.98627 1.85093 0
M  V30 4286 C 412.136 -0.0779303 3.59816 0
M  V30 4287 C 411.744 1.26107 4.29885 0
M  V30 4288 C 413.488 -0.565678 4.20714 0
M  V30 4289 C 411.395 1.15954 5.79921 0
M  V30 4290 H 410.325 -0.00954163 0.75394 0
M  V30 4291 H 412.976 0.665865 1.70993 0
M  V30 4292 H 411.358 -0.824165 3.87329 0
M  V30 4293 H 412.532 2.02233 4.14051 0
M  V30 4294 H 410.847 1.68401 3.80828 0
M  V30 4295 H 413.444 -0.6595 5.30617 0
M  V30 4296 H 413.787 -1.56984 3.85567 0
M  V30 4297 H 414.32 0.12467 3.97605 0
M  V30 4298 H 411.059 2.13864 6.19631 0
M  V30 4299 H 410.579 0.439529 5.98187 0
M  V30 4300 H 412.258 0.847361 6.41427 0
M  V30 4301 N 412.39 -1.55475 0.257931 0
M  V30 4302 C 413.618 -2.03609 -0.367559 0
M  V30 4303 C 414.033 -1.13687 -1.50734 0
M  V30 4304 O 413.39 -0.153479 -1.81853 0
M  V30 4305 C 413.441 -3.51001 -0.864908 0
M  V30 4306 O 413.162 -4.37499 0.229465 0
M  V30 4307 C 414.663 -4.14946 -1.55997 0
M  V30 4308 H 411.883 -0.665459 -0.0860521 0
M  V30 4309 H 414.427 -2.00843 0.385014 0
M  V30 4310 H 412.582 -3.54266 -1.56762 0
M  V30 4311 H 412.996 -5.24286 -0.14998 0
M  V30 4312 H 414.47 -5.19735 -1.85956 0
M  V30 4313 H 414.947 -3.6209 -2.4857 0
M  V30 4314 H 415.553 -4.15635 -0.901543 0
M  V30 4315 N 413.868 0.0150385 -1.57593 0
M  V30 4316 C 414.831 0.995996 -2.06428 0
M  V30 4317 C 415.831 1.2818 -0.970903 0
M  V30 4318 O 417.021 1.22949 -1.23406 0
M  V30 4319 C 414.153 2.32506 -2.49307 0
M  V30 4320 H 415.346 0.573873 -2.94358 0
M  V30 4321 H 412.899 0.262186 -1.54085 0
M  V30 4322 H 413.634 2.79438 -1.64575 0
M  V30 4323 H 413.419 2.13087 -3.29145 0
M  V30 4324 H 414.909 3.02906 -2.87468 0
M  V30 4325 N 415.346 1.54954 0.287554 0
M  V30 4326 C 416.571 1.79209 1.04397 0
M  V30 4327 C 416.996 0.556431 1.79682 0
M  V30 4328 O 416.354 -0.493518 1.74454 0
M  V30 4329 C 416.402 3.00739 1.98969 0
M  V30 4330 O 415.506 2.74805 3.075 0
M  V30 4331 H 414.847 0.592755 0.299227 0
M  V30 4332 H 417.377 2.02068 0.320886 0
M  V30 4333 H 417.387 3.29077 2.4119 0
M  V30 4334 H 416.062 3.90329 1.43582 0
M  V30 4335 H 414.639 2.57523 2.69697 0
M  V30 4336 N 416.824 -0.551391 1.4764 0
M  V30 4337 C 417.754 -1.66757 1.63445 0
M  V30 4338 C 418.735 -1.63077 0.483742 0
M  V30 4339 O 419.92 -1.80607 0.71377 0
M  V30 4340 C 417.05 -3.05387 1.65396 0
M  V30 4341 C 416.004 -3.23918 2.79752 0
M  V30 4342 C 415.33 -4.63393 2.66779 0
M  V30 4343 C 416.63 -3.08735 4.21284 0
M  V30 4344 H 418.324 -1.53786 2.56886 0
M  V30 4345 H 415.87 -0.738415 1.23626 0
M  V30 4346 H 417.823 -3.83325 1.75043 0
M  V30 4347 H 416.547 -3.19332 0.685195 0
M  V30 4348 H 415.206 -2.48391 2.69625 0
M  V30 4349 H 414.854 -4.74144 1.67918 0
M  V30 4350 H 414.554 -4.7674 3.43501 0
M  V30 4351 H 416.078 -5.43458 2.78364 0
M  V30 4352 H 417.492 -3.76484 4.32357 0
M  V30 4353 H 415.889 -3.33588 4.98838 0
M  V30 4354 H 416.959 -2.0541 4.39243 0
M  V30 4355 N 418.302 -1.35869 -0.798587 0
M  V30 4356 C 419.55 -1.29332 -1.55298 0
M  V30 4357 C 419.871 0.129729 -1.94568 0
M  V30 4358 O 419.141 1.06796 -1.6423 0
M  V30 4359 H 417.721 -0.475737 -0.57592 0
M  V30 4360 H 420.383 -1.70062 -0.952093 0
M  V30 4361 H 419.479 -1.91458 -2.46476 0
M  V30 4362 N 419.78 1.02168 -1.19998 0
M  V30 4363 C 421.008 1.79296 -1.03249 0
M  V30 4364 C 421.423 1.84103 0.418502 0
M  V30 4365 O 420.78 1.29031 1.29063 0
M  V30 4366 C 420.831 3.24007 -1.60319 0
M  V30 4367 O 420.552 3.19512 -2.99739 0
M  V30 4368 C 422.053 4.17704 -1.48453 0
M  V30 4369 H 419.273 0.564016 -0.363493 0
M  V30 4370 H 421.817 1.28639 -1.58973 0
M  V30 4371 H 419.972 3.7183 -1.08727 0
M  V30 4372 H 420.386 4.10306 -3.26725 0
M  V30 4373 H 421.86 5.17104 -1.93153 0
M  V30 4374 H 422.337 4.37029 -0.436193 0
M  V30 4375 H 422.943 3.7576 -1.99211 0
M  V30 4376 N 421.258 1.00505 1.21394 0
M  V30 4377 C 422.535 0.603277 1.86064 0
M  V30 4378 C 422.915 -0.919095 1.90042 0
M  V30 4379 O 422.263 -1.80607 1.39977 0
M  V30 4380 C 422.473 1.23772 3.26315 0
M  V30 4381 C 423.821 1.34586 4.02705 0
M  V30 4382 O 424.845 1.19304 3.35626 0
M  V30 4383 O 423.704 1.59169 5.22807 0
M  V30 4384 H 420.798 0.206634 0.800769 0
M  V30 4385 H 423.344 1.1017 1.29076 0
M  V30 4386 H 422.116 2.27848 3.18121 0
M  V30 4387 H 421.739 0.725648 3.90922 0
M  V30 4388 N 422.737 -1.36956 0.779787 0
M  V30 4389 C 423.985 -1.99097 0.347079 0
M  V30 4390 C 424.306 -1.62206 -1.08232 0
M  V30 4391 O 423.576 -0.891373 -1.74446 0
M  V30 4392 H 422.156 -0.736409 0.125342 0
M  V30 4393 H 424.818 -1.67308 0.999696 0
M  V30 4394 H 423.914 -3.09107 0.431162 0
M  V30 4395 N 424.215 -0.530993 -1.48385 0
M  V30 4396 C 425.44 0.000729535 -2.074 0
M  V30 4397 C 425.865 1.27298 -1.3848 0
M  V30 4398 O 425.223 1.75599 -0.451081 0
M  V30 4399 C 425.271 0.206697 -3.60007 0
M  V30 4400 O 424.375 1.27514 -3.92191 0
M  V30 4401 H 423.716 -0.039583 -0.662819 0
M  V30 4402 H 426.246 -0.739194 -1.9078 0
M  V30 4403 H 426.256 0.42904 -4.05738 0
M  V30 4404 H 424.931 -0.722675 -4.09573 0
M  V30 4405 H 423.508 1.03537 -3.58238 0
M  V30 4406 N 425.693 1.55336 -0.266172 0
M  V30 4407 C 426.643 2.18848 0.639497 0
M  V30 4408 C 427.627 1.1503 1.12503 0
M  V30 4409 O 428.819 1.40875 1.0716 0
M  V30 4410 C 425.948 2.90626 1.82733 0
M  V30 4411 C 425.034 4.01723 1.35939 0
M  V30 4412 N 425.425 5.02145 0.606988 0
M  V30 4413 C 423.723 4.1463 1.6431 0
M  V30 4414 C 424.424 5.80572 0.362138 0
M  V30 4415 N 423.4 5.35551 0.931971 0
M  V30 4416 H 427.202 2.93845 0.0567057 0
M  V30 4417 H 424.716 1.62252 -0.0693312 0
M  V30 4418 H 426.713 3.34569 2.48735 0
M  V30 4419 H 425.373 2.17137 2.41416 0
M  V30 4420 H 426.384 5.17271 0.255198 0
M  V30 4421 H 423.061 3.52326 2.23993 0
M  V30 4422 H 424.451 6.71472 -0.239848 0
M  V30 4423 N 427.171 -0.0066808 1.57599 0
M  V30 4424 C 428.401 -0.703066 1.94269 0
M  V30 4425 C 428.809 -1.68206 0.866222 0
M  V30 4426 O 428.152 -1.82966 -0.164087 0
M  V30 4427 C 428.214 -1.49616 3.26887 0
M  V30 4428 C 427.878 -0.679494 4.5192 0
M  V30 4429 C 428.875 0.0299508 5.19891 0
M  V30 4430 C 426.56 -0.627433 4.98366 0
M  V30 4431 C 428.554 0.780514 6.32603 0
M  V30 4432 C 426.241 0.126861 6.10968 0
M  V30 4433 C 427.239 0.829574 6.77943 0
M  V30 4434 O 426.927 1.57157 7.88389 0
M  V30 4435 H 426.659 -0.201217 0.645359 0
M  V30 4436 H 429.213 0.0385326 2.05364 0
M  V30 4437 H 427.443 -2.28209 3.12182 0
M  V30 4438 H 429.132 -2.07726 3.48719 0
M  V30 4439 H 429.898 -0.00115963 4.85 0
M  V30 4440 H 425.777 -1.16392 4.46065 0
M  V30 4441 H 429.321 1.32954 6.84813 0
M  V30 4442 H 425.218 0.159815 6.45302 0
M  V30 4443 H 425.986 1.48758 8.04868 0
M  V30 4444 N 428.649 -1.55105 -0.279332 0
M  V30 4445 C 429.895 -1.76597 -1.00921 0
M  V30 4446 C 430.25 -0.556831 -1.84166 0
M  V30 4447 O 429.543 0.450573 -1.86227 0
M  V30 4448 C 429.737 -3.0086 -1.92919 0
M  V30 4449 C 429.566 -4.33744 -1.18728 0
M  V30 4450 C 428.336 -4.9712 -0.905545 0
M  V30 4451 C 430.534 -5.11009 -0.580857 0
M  V30 4452 N 428.516 -6.13749 -0.136169 0
M  V30 4453 C 429.887 -6.19976 0.0546661 0
M  V30 4454 C 431.942 -4.95502 -0.488067 0
M  V30 4455 C 430.645 -7.15123 0.774028 0
M  V30 4456 C 432.671 -5.90999 0.217688 0
M  V30 4457 C 432.033 -6.9935 0.841975 0
M  V30 4458 H 428.132 -0.698553 -0.351493 0
M  V30 4459 H 430.716 -1.92595 -0.285531 0
M  V30 4460 H 428.887 -2.86249 -2.62519 0
M  V30 4461 H 430.619 -3.10784 -2.59221 0
M  V30 4462 H 427.374 -4.57903 -1.20921 0
M  V30 4463 H 427.798 -6.7659 0.235665 0
M  V30 4464 H 432.44 -4.11841 -0.956406 0
M  V30 4465 H 430.158 -7.9831 1.25407 0
M  V30 4466 H 433.744 -5.81078 0.289717 0
M  V30 4467 H 432.624 -7.71973 1.37939 0
M  V30 4468 N 430.127 0.543554 -1.4793 0
M  V30 4469 C 431.352 1.32995 -1.59145 0
M  V30 4470 C 431.777 1.86472 -0.246956 0
M  V30 4471 O 431.135 1.63696 0.779324 0
M  V30 4472 C 431.183 2.46623 -2.63077 0
M  V30 4473 O 430.287 3.49261 -2.19295 0
M  V30 4474 H 429.628 0.394472 -0.534124 0
M  V30 4475 H 432.158 0.655489 -1.93816 0
M  V30 4476 H 432.168 2.93001 -2.83926 0
M  V30 4477 H 430.843 2.07059 -3.60693 0
M  V30 4478 H 429.42 3.09094 -2.08603 0
M  V30 4479 N 431.605 1.3629 0.791371 0
M  V30 4480 C 432.552 1.30458 1.90393 0
M  V30 4481 C 433.522 0.173632 1.6519 0
M  V30 4482 O 434.707 0.35983 1.87376 0
M  V30 4483 C 431.847 1.09777 3.27174 0
M  V30 4484 C 430.96 2.31929 3.64462 0
M  V30 4485 C 430.095 2.04276 4.90352 0
M  V30 4486 C 429.134 3.224 5.20312 0
M  V30 4487 N 428.271 2.94424 6.37385 0
M  V30 4488 H 433.111 2.25589 1.94714 0
M  V30 4489 H 430.648 1.12122 0.952216 0
M  V30 4490 H 432.606 0.958133 4.06049 0
M  V30 4491 H 431.236 0.183014 3.22281 0
M  V30 4492 H 430.288 2.56703 2.80727 0
M  V30 4493 H 431.6 3.20085 3.82553 0
M  V30 4494 H 430.754 1.87231 5.77087 0
M  V30 4495 H 429.493 1.13428 4.74326 0
M  V30 4496 H 428.498 3.40005 4.32061 0
M  V30 4497 H 429.723 4.14071 5.38258 0
M  V30 4498 H 427.669 2.06185 6.22755 0
M  V30 4499 H 427.586 3.76118 6.55798 0
M  V30 4500 H 428.854 2.80953 7.27108 0
M  V30 4501 N 433.083 -1.0153 1.20538 0
M  V30 4502 C 434.031 -2.12215 0.952235 0
M  V30 4503 C 435.025 -1.69123 -0.0968735 0
M  V30 4504 O 436.231 -1.7992 0.0536006 0
M  V30 4505 H 432.606 -0.693576 0.290613 0
M  V30 4506 H 434.577 -2.3075 1.89201 0
M  V30 4507 C 433.326 -3.43755 0.522287 0
M  V30 4508 H 432.649 -3.7734 1.32115 0
M  V30 4509 H 434.089 -4.22254 0.384389 0
M  V30 4510 C 432.548 -3.28088 -0.765489 0
M  V30 4511 O 433.078 -3.57921 -1.8236 0
M  V30 4512 N 431.284 -2.81333 -0.728011 0
M  V30 4513 H 430.831 -2.57255 0.133332 0
M  V30 4514 H 430.789 -2.71232 -1.58999 0
M  V30 4515 N 434.561 -1.01147 -1.20859 0
M  V30 4516 C 435.807 -0.708598 -1.90658 0
M  V30 4517 C 436.162 0.753069 -1.7705 0
M  V30 4518 O 435.455 1.53952 -1.14059 0
M  V30 4519 C 435.649 -1.0727 -3.40922 0
M  V30 4520 C 435.478 -2.56821 -3.69152 0
M  V30 4521 C 434.248 -3.23524 -3.8815 0
M  V30 4522 C 436.446 -3.54997 -3.72131 0
M  V30 4523 N 434.428 -4.62359 -4.03853 0
M  V30 4524 C 435.799 -4.79371 -3.93196 0
M  V30 4525 C 437.854 -3.49042 -3.55069 0
M  V30 4526 C 436.557 -5.98512 -3.98969 0
M  V30 4527 C 438.583 -4.67579 -3.6211 0
M  V30 4528 C 437.945 -5.9076 -3.83643 0
M  V30 4529 H 434.044 -0.31088 -0.71755 0
M  V30 4530 H 436.628 -1.29526 -1.45366 0
M  V30 4531 H 434.799 -0.51443 -3.84978 0
M  V30 4532 H 436.531 -0.723891 -3.98173 0
M  V30 4533 H 433.286 -2.73958 -3.86321 0
M  V30 4534 H 433.71 -5.34427 -4.15592 0
M  V30 4535 H 438.352 -2.54808 -3.37391 0
M  V30 4536 H 436.07 -6.93132 -4.15444 0
M  V30 4537 H 439.656 -4.64581 -3.50222 0
M  V30 4538 H 438.536 -6.8095 -3.88944 0
M  V30 4539 N 436.039 1.36541 -0.78704 0
M  V30 4540 C 437.002 2.28413 -0.189778 0
M  V30 4541 C 438.002 1.48719 0.611499 0
M  V30 4542 O 439.192 1.68737 0.432842 0
M  V30 4543 C 436.324 3.32824 0.737638 0
M  V30 4544 H 437.517 2.82743 -0.999831 0
M  V30 4545 H 435.07 1.46065 -0.556298 0
M  V30 4546 H 435.805 2.83646 1.57212 0
M  V30 4547 H 435.59 3.91752 0.165044 0
M  V30 4548 H 437.08 4.0144 1.15047 0
M  V30 4549 N 437.518 0.538854 1.48102 0
M  V30 4550 C 438.465 -0.219042 2.29758 0
M  V30 4551 C 439.435 -0.925562 1.37922 0
M  V30 4552 O 440.62 -0.924855 1.66886 0
M  V30 4553 C 437.76 -1.25452 3.2149 0
M  V30 4554 C 436.873 -0.555943 4.28408 0
M  V30 4555 C 436.008 -1.57512 5.0731 0
M  V30 4556 C 435.047 -0.860498 6.06021 0
M  V30 4557 N 434.184 -1.82564 6.77949 0
M  V30 4558 H 439.024 0.483449 2.94052 0
M  V30 4559 H 436.561 0.250247 1.44956 0
M  V30 4560 H 438.519 -1.86727 3.7308 0
M  V30 4561 H 437.149 -1.92528 2.591 0
M  V30 4562 H 436.201 0.170938 3.80016 0
M  V30 4563 H 437.513 0.00474616 4.988 0
M  V30 4564 H 436.667 -2.26191 5.62959 0
M  V30 4565 H 435.406 -2.16972 4.36778 0
M  V30 4566 H 434.411 -0.159686 5.49568 0
M  V30 4567 H 435.636 -0.271897 6.78555 0
M  V30 4568 H 433.582 -2.40915 6.10161 0
M  V30 4569 H 433.499 -1.31662 7.44447 0
M  V30 4570 H 434.767 -2.50414 7.38182 0
M  V30 4571 N 438.996 -1.55193 0.274407 0
M  V30 4572 C 439.959 -2.212 -0.600279 0
M  V30 4573 C 440.959 -1.18963 -1.08187 0
M  V30 4574 O 442.149 -1.43873 -0.982158 0
M  V30 4575 C 439.281 -2.87739 -1.82809 0
M  V30 4576 H 440.474 -2.9989 -0.0239682 0
M  V30 4577 H 438.027 -1.5628 0.0250192 0
M  V30 4578 H 438.762 -2.13058 -2.44493 0
M  V30 4579 H 438.547 -3.62658 -1.49069 0
M  V30 4580 H 440.037 -3.38171 -2.45011 0
M  V30 4581 N 440.474 -0.00167713 -1.576 0
M  V30 4582 C 441.437 0.974046 -2.07473 0
M  V30 4583 C 442.437 1.27143 -0.984444 0
M  V30 4584 O 443.627 1.21633 -1.24703 0
M  V30 4585 C 440.759 2.29849 -2.51759 0
M  V30 4586 H 441.952 0.54262 -2.9495 0
M  V30 4587 H 439.505 0.245829 -1.54355 0
M  V30 4588 H 440.24 2.77677 -1.67529 0
M  V30 4589 H 440.025 2.09584 -3.31386 0
M  V30 4590 H 441.515 2.9984 -2.90664 0
M  V30 4591 N 441.952 1.55251 0.271103 0
M  V30 4592 C 442.915 1.87484 1.31842 0
M  V30 4593 C 443.915 0.749545 1.42262 0
M  V30 4594 O 445.105 1.01771 1.4138 0
M  V30 4595 C 442.237 2.0818 2.69951 0
M  V30 4596 H 443.43 2.81108 1.0449 0
M  V30 4597 H 440.983 1.47771 0.509258 0
M  V30 4598 H 441.718 1.16944 3.02481 0
M  V30 4599 H 441.503 2.90114 2.63774 0
M  V30 4600 H 442.993 2.34385 3.4562 0
M  V30 4601 N 443.43 -0.535701 1.48216 0
M  V30 4602 C 444.677 -1.29183 1.55942 0
M  V30 4603 C 445.005 -1.93125 0.230857 0
M  V30 4604 O 444.26 -1.79556 -0.778331 0
M  V30 4605 C 444.559 -2.4068 2.64212 0
M  V30 4606 C 444.225 -1.94428 4.06827 0
M  V30 4607 C 442.887 -1.81532 4.45645 0
M  V30 4608 C 445.239 -1.59405 4.96225 0
M  V30 4609 C 442.567 -1.31939 5.71672 0
M  V30 4610 C 444.919 -1.11276 6.22736 0
M  V30 4611 C 443.583 -0.969924 6.60416 0
M  V30 4612 H 442.853 -0.472715 0.570632 0
M  V30 4613 H 445.5 -0.598437 1.81909 0
M  V30 4614 H 443.805 -3.15666 2.32083 0
M  V30 4615 H 445.502 -2.98822 2.67407 0
M  V30 4616 H 442.092 -2.05415 3.76168 0
M  V30 4617 H 446.276 -1.68231 4.66917 0
M  V30 4618 H 441.532 -1.19562 5.99596 0
M  V30 4619 H 445.706 -0.832453 6.91407 0
M  V30 4620 H 443.333 -0.583436 7.57958 0
M  V30 4621 N 444.908 -1.36708 -0.784132 0
M  V30 4622 C 446.154 -1.31426 -1.54451 0
M  V30 4623 C 446.487 0.10476 -1.93917 0
M  V30 4624 O 445.762 1.05934 -1.6312 0
M  V30 4625 C 446.045 -2.24189 -2.818 0
M  V30 4626 C 445.898 -3.74813 -2.48667 0
M  V30 4627 C 447.217 -2.15626 -3.83658 0
M  V30 4628 H 444.336 -0.478739 -0.560337 0
M  V30 4629 H 446.978 -1.67305 -0.900498 0
M  V30 4630 H 445.128 -1.93722 -3.36755 0
M  V30 4631 H 446.8 -4.15823 -1.99722 0
M  V30 4632 H 445.043 -3.93989 -1.81535 0
M  V30 4633 H 445.714 -4.35138 -3.39646 0
M  V30 4634 H 448.19 -2.42456 -3.38163 0
M  V30 4635 H 447.066 -2.82694 -4.70506 0
M  V30 4636 H 447.327 -1.14522 -4.27009 0
M  V30 4637 N 446.386 1.0089 -1.21074 0
M  V30 4638 C 447.614 1.78191 -1.05145 0
M  V30 4639 C 448.029 1.84537 0.398952 0
M  V30 4640 O 447.386 1.30393 1.27687 0
M  V30 4641 C 447.437 3.22288 -1.63746 0
M  V30 4642 O 447.158 3.16315 -3.03111 0
M  V30 4643 C 448.659 4.16106 -1.52875 0
M  V30 4644 H 445.879 0.560129 -0.369454 0
M  V30 4645 H 448.423 1.26945 -1.60328 0
M  V30 4646 H 446.578 3.70655 -1.12664 0
M  V30 4647 H 446.992 4.06817 -3.31059 0
M  V30 4648 H 448.466 5.15026 -1.98626 0
M  V30 4649 H 448.943 4.36541 -0.482521 0
M  V30 4650 H 449.549 3.73625 -2.03185 0
M  V30 4651 N 447.864 1.01787 1.20321 0
M  V30 4652 C 449.089 0.727009 1.9424 0
M  V30 4653 C 449.514 -0.706179 1.74341 0
M  V30 4654 O 448.872 -1.48609 1.03852 0
M  V30 4655 C 448.92 1.06958 3.44372 0
M  V30 4656 O 448.024 0.181983 4.11998 0
M  V30 4657 H 447.365 0.269626 0.606793 0
M  V30 4658 H 449.895 1.36158 1.52716 0
M  V30 4659 H 449.905 1.02182 3.94997 0
M  V30 4660 H 448.58 2.11378 3.58179 0
M  V30 4661 H 447.157 0.287378 3.71791 0
M  V30 4662 N 449.342 -1.36122 0.79427 0
M  V30 4663 C 450.753 -1.81646 0.431446 0
M  V30 4664 C 451.104 -1.66043 -1.04518 0
M  V30 4665 O 450.229 -1.1841 -1.8113 0
M  V30 4666 C 450.824 -3.29785 0.776341 0
M  V30 4667 C 449.383 -3.73501 0.466282 0
M  V30 4668 C 448.53 -2.58313 1.00844 0
M  V30 4669 H 451.481 -1.24274 0.986995 0
M  V30 4670 H 451.502 -3.80437 0.0692413 0
M  V30 4671 H 451.014 -3.4111 1.8511 0
M  V30 4672 H 449.115 -3.67733 -0.600245 0
M  V30 4673 H 449.228 -4.68754 0.990288 0
M  V30 4674 H 447.592 -2.5102 0.431406 0
M  V30 4675 H 448.375 -2.72421 2.08906 0
M  V30 4676 N 450.82 -0.546701 -1.47814 0
M  V30 4677 C 452.231 -0.110564 -1.86372 0
M  V30 4678 C 452.582 1.31678 -1.45449 0
M  V30 4679 O 451.707 1.98889 -0.852758 0
M  V30 4680 C 452.302 -0.193873 -3.38245 0
M  V30 4681 C 450.861 0.187164 -3.75934 0
M  V30 4682 C 450.008 -0.546166 -2.71868 0
M  V30 4683 H 452.959 -0.757022 -1.39481 0
M  V30 4684 H 452.98 0.590218 -3.75895 0
M  V30 4685 H 452.492 -1.23282 -3.67999 0
M  V30 4686 H 450.593 1.22762 -3.51796 0
M  V30 4687 H 450.706 -0.164083 -4.78819 0
M  V30 4688 H 449.07 0.00953904 -2.54698 0
M  V30 4689 H 449.853 -1.58606 -3.04465 0
M  V30 4690 N 452.299 1.55045 -0.282633 0
M  V30 4691 C 453.229 2.2579 0.595066 0
M  V30 4692 C 454.21 1.25074 1.15284 0
M  V30 4693 O 455.395 1.5381 1.18559 0
M  V30 4694 C 452.525 2.98472 1.77572 0
M  V30 4695 C 451.479 4.0618 1.34914 0
M  V30 4696 C 450.805 4.66477 2.6135 0
M  V30 4697 C 452.105 5.1996 0.493821 0
M  V30 4698 H 453.799 2.994 0.00505653 0
M  V30 4699 H 451.345 1.44 0.000992001 0
M  V30 4700 H 453.298 3.46677 2.39568 0
M  V30 4701 H 452.022 2.2241 2.39168 0
M  V30 4702 H 450.681 3.58797 0.752338 0
M  V30 4703 H 450.329 3.87074 3.2122 0
M  V30 4704 H 450.029 5.39207 2.33516 0
M  V30 4705 H 451.553 5.17435 3.24181 0
M  V30 4706 H 452.967 5.64172 1.01898 0
M  V30 4707 H 451.364 5.99299 0.310047 0
M  V30 4708 H 452.434 4.82462 -0.485593 0
M  V30 4709 N 453.777 0.010035 1.57597 0
M  V30 4710 C 455.002 -0.687021 1.95691 0
M  V30 4711 C 455.427 -1.65952 0.885519 0
M  V30 4712 O 454.785 -1.80633 -0.15543 0
M  V30 4713 C 454.833 -1.3864 3.32884 0
M  V30 4714 O 453.937 -2.50115 3.27897 0
M  V30 4715 H 453.278 -0.181989 0.638573 0
M  V30 4716 H 455.808 0.0662122 2.04493 0
M  V30 4717 H 455.818 -1.74754 3.6868 0
M  V30 4718 H 454.493 -0.673411 4.10412 0
M  V30 4719 H 453.07 -2.16253 3.03791 0
M  V30 4720 N 455.255 -1.55392 -0.262866 0
M  V30 4721 C 456.666 -1.67079 -0.833158 0
M  V30 4722 C 457.017 -0.604539 -1.86654 0
M  V30 4723 O 456.142 0.252138 -2.14926 0
M  V30 4724 C 456.737 -3.02891 -1.51797 0
M  V30 4725 C 455.296 -3.16571 -2.03617 0
M  V30 4726 C 454.443 -2.62909 -0.881701 0
M  V30 4727 H 457.394 -1.58652 -0.0389986 0
M  V30 4728 H 457.415 -2.96445 -2.38538 0
M  V30 4729 H 456.927 -3.80473 -0.765619 0
M  V30 4730 H 455.028 -2.43782 -2.81782 0
M  V30 4731 H 455.141 -4.23271 -2.24452 0
M  V30 4732 H 453.505 -2.20324 -1.27786 0
M  V30 4733 H 454.288 -3.43003 -0.14269 0
M  V30 4734 N 456.733 0.527833 -1.48498 0
M  V30 4735 C 458.01 1.28905 -1.47115 0
M  V30 4736 C 458.39 2.10297 -0.184007 0
M  V30 4737 O 457.738 2.12728 0.834218 0
M  V30 4738 C 457.948 2.16866 -2.73441 0
M  V30 4739 C 459.296 2.76936 -3.21857 0
M  V30 4740 O 460.32 2.27152 -2.74373 0
M  V30 4741 O 459.179 3.67496 -4.04486 0
M  V30 4742 H 456.273 0.581918 -0.587623 0
M  V30 4743 H 458.819 0.544311 -1.60734 0
M  V30 4744 H 457.591 1.56521 -3.58632 0
M  V30 4745 H 457.214 2.98583 -2.62553 0
M  V30 4746 N 458.211 1.37122 0.776871 0
M  V30 4747 C 459.622 1.28667 1.35284 0
M  V30 4748 C 459.973 -0.0680035 1.96082 0
M  V30 4749 O 459.098 -0.969743 1.93455 0
M  V30 4750 C 459.693 2.32997 2.45963 0
M  V30 4751 C 458.252 2.28191 2.99342 0
M  V30 4752 C 457.399 2.17101 1.72517 0
M  V30 4753 H 460.35 1.47819 0.577527 0
M  V30 4754 H 460.371 1.97366 3.2531 0
M  V30 4755 H 459.883 3.3158 2.01684 0
M  V30 4756 H 457.984 1.33115 3.4801 0
M  V30 4757 H 458.097 3.21397 3.55304 0
M  V30 4758 H 456.461 1.63562 1.95242 0
M  V30 4759 H 457.244 3.17591 1.30348 0
M  V30 4760 N 459.689 -1.00246 1.21608 0
M  V30 4761 C 460.917 -1.77631 1.06089 0
M  V30 4762 C 461.332 -1.84746 -0.38916 0
M  V30 4763 O 460.689 -1.31068 -1.26994 0
M  V30 4764 C 460.74 -3.21415 1.65453 0
M  V30 4765 O 460.461 -3.14703 3.04785 0
M  V30 4766 C 461.962 -4.15289 1.55079 0
M  V30 4767 H 459.182 -0.558162 0.37242 0
M  V30 4768 H 461.726 -1.26093 1.60999 0
M  V30 4769 H 459.881 -3.70053 1.14629 0
M  V30 4770 H 460.295 -4.05056 3.33212 0
M  V30 4771 H 461.769 -5.13965 2.01355 0
M  V30 4772 H 462.246 -4.36279 0.505665 0
M  V30 4773 H 462.852 -3.72543 2.05163 0
M  V30 4774 N 461.167 -1.02423 -1.1978 0
M  V30 4775 C 462.395 -0.737456 -1.93311 0
M  V30 4776 C 462.81 0.703023 -1.75223 0
M  V30 4777 O 462.167 1.47761 -1.07112 0
M  V30 4778 C 462.218 -1.0733 -3.45199 0
M  V30 4779 O 461.939 -2.4572 -3.62702 0
M  V30 4780 C 463.44 -0.80866 -4.35862 0
M  V30 4781 H 460.66 -0.2702 -0.614193 0
M  V30 4782 H 463.204 -1.36747 -1.52054 0
M  V30 4783 H 461.359 -0.488545 -3.84307 0
M  V30 4784 H 461.773 -2.58081 -4.56612 0
M  V30 4785 H 463.247 -1.09365 -5.41057 0
M  V30 4786 H 463.724 0.257025 -4.38447 0
M  V30 4787 H 464.33 -1.37592 -4.02428 0
M  V30 4788 N 462.645 1.35699 -0.801477 0
M  V30 4789 C 464.056 1.81415 -0.441073 0
M  V30 4790 C 464.407 1.66595 1.03636 0
M  V30 4791 O 463.532 1.19369 1.80499 0
M  V30 4792 C 464.127 3.29369 -0.793819 0
M  V30 4793 C 462.686 3.73248 -0.486083 0
M  V30 4794 C 461.833 2.57775 -1.02213 0
M  V30 4795 H 464.784 1.23749 -0.993572 0
M  V30 4796 H 464.805 3.80395 -0.0894158 0
M  V30 4797 H 464.317 3.40123 -1.86917 0
M  V30 4798 H 462.418 3.68046 0.580735 0
M  V30 4799 H 462.531 4.68222 -1.01513 0
M  V30 4800 H 460.895 2.50788 -0.444712 0
M  V30 4801 H 461.678 2.71309 -2.10348 0
M  V30 4802 N 464.123 0.554532 1.47522 0
M  V30 4803 C 465.4 -0.0360704 1.95567 0
M  V30 4804 C 465.78 -1.48828 1.49711 0
M  V30 4805 O 465.128 -2.16366 0.734717 0
M  V30 4806 C 465.338 0.106631 3.48837 0
M  V30 4807 C 466.686 -0.0400899 4.24581 0
M  V30 4808 O 467.71 0.0340453 3.56184 0
M  V30 4809 O 466.569 -0.199111 5.46137 0
M  V30 4810 H 463.663 -0.0656294 0.824392 0
M  V30 4811 H 466.209 0.620867 1.57935 0
M  V30 4812 H 464.981 1.11727 3.7501 0
M  V30 4813 H 464.604 -0.58804 3.93227 0
M  V30 4814 N 465.601 -1.54893 0.290851 0
M  V30 4815 C 466.848 -1.99933 -0.321391 0
M  V30 4816 C 467.176 -1.17927 -1.54672 0
M  V30 4817 O 466.431 -0.240902 -1.94212 0
M  V30 4818 C 466.73 -3.49815 -0.732397 0
M  V30 4819 C 466.396 -4.4921 0.390056 0
M  V30 4820 C 465.058 -4.76107 0.698223 0
M  V30 4821 C 467.41 -5.08453 1.14562 0
M  V30 4822 C 464.738 -5.59514 1.76526 0
M  V30 4823 C 467.09 -5.9302 2.2025 0
M  V30 4824 C 465.754 -6.18232 2.51684 0
M  V30 4825 H 465.024 -0.731608 -0.117605 0
M  V30 4826 H 467.671 -1.87107 0.407839 0
M  V30 4827 H 465.976 -3.60199 -1.54155 0
M  V30 4828 H 467.673 -3.82083 -1.21712 0
M  V30 4829 H 464.263 -4.28372 0.13976 0
M  V30 4830 H 468.447 -4.87683 0.920801 0
M  V30 4831 H 463.703 -5.77289 2.01364 0
M  V30 4832 H 467.877 -6.37955 2.7926 0
M  V30 4833 H 465.504 -6.82653 3.34499 0
M  V30 4834 N 467.08 -0.0183926 -1.57589 0
M  V30 4835 C 468.01 0.965596 -2.12599 0
M  V30 4836 C 468.991 1.34641 -1.0395 0
M  V30 4837 O 470.176 1.42693 -1.31729 0
M  V30 4838 C 467.306 2.25149 -2.64434 0
M  V30 4839 C 466.26 2.01175 -3.77773 0
M  V30 4840 C 465.586 3.35937 -4.15994 0
M  V30 4841 C 466.886 1.35953 -5.04296 0
M  V30 4842 H 468.58 0.507504 -2.95067 0
M  V30 4843 H 466.126 0.242671 -1.41941 0
M  V30 4844 H 468.079 2.94357 -3.01549 0
M  V30 4845 H 466.803 2.73105 -1.79112 0
M  V30 4846 H 465.462 1.34388 -3.4108 0
M  V30 4847 H 465.11 3.81631 -3.27669 0
M  V30 4848 H 464.81 3.20705 -4.92364 0
M  V30 4849 H 466.334 4.0643 -4.55683 0
M  V30 4850 H 467.748 1.95144 -5.39065 0
M  V30 4851 H 466.145 1.31152 -5.85593 0
M  V30 4852 H 467.215 0.331071 -4.83768 0
M  V30 4853 N 468.558 1.5553 0.254621 0
M  V30 4854 C 469.506 1.9048 1.33492 0
M  V30 4855 C 470.5 0.78304 1.50216 0
M  V30 4856 O 471.706 0.967582 1.51782 0
M  V30 4857 H 468.081 0.604846 0.44684 0
M  V30 4858 H 470.052 2.80688 1.01275 0
M  V30 4859 C 468.801 2.20928 2.68489 0
M  V30 4860 H 468.124 3.06742 2.56417 0
M  V30 4861 H 469.564 2.49291 3.42972 0
M  V30 4862 C 468.023 1.023 3.20993 0
M  V30 4863 O 468.553 0.267027 4.00811 0
M  V30 4864 N 466.759 0.815714 2.78917 0
M  V30 4865 H 466.306 1.43217 2.14119 0
M  V30 4866 H 466.264 0.0236532 3.14391 0
M  V30 4867 N 470.036 -0.519951 1.48776 0
M  V30 4868 C 471.261 -1.30447 1.6124 0
M  V30 4869 C 471.686 -1.86055 0.276591 0
M  V30 4870 O 471.044 -1.64915 -0.753183 0
M  V30 4871 C 471.092 -2.42406 2.66967 0
M  V30 4872 O 470.196 -3.45728 2.24824 0
M  V30 4873 H 469.537 -0.385924 0.540332 0
M  V30 4874 H 472.067 -0.624572 1.94834 0
M  V30 4875 H 472.077 -2.88447 2.88552 0
M  V30 4876 H 470.752 -2.01294 3.63941 0
M  V30 4877 H 469.329 -3.05737 2.13494 0
M  V30 4878 N 471.514 -1.37532 -0.769588 0
M  V30 4879 C 472.444 -1.36172 -1.89682 0
M  V30 4880 C 473.425 -0.23001 -1.68538 0
M  V30 4881 O 474.61 -0.43069 -1.89364 0
M  V30 4882 C 471.74 -1.1701 -3.26995 0
M  V30 4883 C 470.694 -2.27216 -3.62708 0
M  V30 4884 C 470.02 -1.93174 -4.98586 0
M  V30 4885 C 471.32 -3.6941 -3.69234 0
M  V30 4886 H 473.014 -2.30499 -1.91078 0
M  V30 4887 H 470.56 -1.10953 -0.917902 0
M  V30 4888 H 472.513 -1.14688 -4.05493 0
M  V30 4889 H 471.237 -0.191395 -3.26039 0
M  V30 4890 H 469.896 -2.28697 -2.86519 0
M  V30 4891 H 469.544 -0.938281 -4.94171 0
M  V30 4892 H 469.244 -2.66973 -5.23449 0
M  V30 4893 H 470.768 -1.92443 -5.79481 0
M  V30 4894 H 472.182 -3.70047 -4.37879 0
M  V30 4895 H 470.579 -4.4228 -4.05597 0
M  V30 4896 H 471.649 -4.0288 -2.69844 0
M  V30 4897 N 472.992 0.995999 -1.22138 0
M  V30 4898 C 473.922 2.10387 -1.01289 0
M  V30 4899 C 474.903 1.69975 0.0651454 0
M  V30 4900 O 476.088 1.9396 -0.0964628 0
M  V30 4901 C 473.218 3.42312 -0.586517 0
M  V30 4902 C 472.172 3.96558 -1.61014 0
M  V30 4903 C 471.498 5.24494 -1.0397 0
M  V30 4904 C 472.798 4.27595 -2.99933 0
M  V30 4905 H 474.492 2.28086 -1.93951 0
M  V30 4906 H 472.038 1.09607 -0.933928 0
M  V30 4907 H 473.991 4.19223 -0.427793 0
M  V30 4908 H 472.715 3.24431 0.375761 0
M  V30 4909 H 471.374 3.21776 -1.75658 0
M  V30 4910 H 471.022 5.02953 -0.0688703 0
M  V30 4911 H 470.722 5.61755 -1.72352 0
M  V30 4912 H 472.246 6.04042 -0.892494 0
M  V30 4913 H 473.66 4.95315 -2.8868 0
M  V30 4914 H 472.057 4.76021 -3.6541 0
M  V30 4915 H 473.127 3.35498 -3.50099 0
M  V30 4916 N 474.47 1.03057 1.19235 0
M  V30 4917 C 475.695 0.74757 1.93458 0
M  V30 4918 C 476.12 -0.687648 1.7508 0
M  V30 4919 O 475.478 -1.47499 1.05422 0
M  V30 4920 C 475.526 1.10604 3.43219 0
M  V30 4921 O 474.63 0.225671 4.11782 0
M  V30 4922 H 473.971 0.276047 0.603899 0
M  V30 4923 H 476.501 1.3777 1.51263 0
M  V30 4924 H 476.511 1.06366 3.93891 0
M  V30 4925 H 475.186 2.15165 3.55917 0
M  V30 4926 H 473.763 0.326795 3.71465 0
M  V30 4927 N 475.948 -1.35272 0.808662 0
M  V30 4928 C 477.188 -2.00534 0.395668 0
M  V30 4929 C 477.552 -1.62755 -1.01857 0
M  V30 4930 O 478.753 -2.20752 -1.53368 0
M  V30 4931 C 477.024 -3.52732 0.575771 0
M  V30 4932 S 478.583 -4.38067 0.253507 0
M  V30 4933 H 475.401 -0.694962 0.150165 0
M  V30 4934 H 478.003 -1.64823 1.05137 0
M  V30 4935 H 476.707 -3.77714 1.60499 0
M  V30 4936 H 476.238 -3.93285 -0.0951739 0
M  V30 4937 H 478.253 -4.87252 -0.938068 0
M  V30 4938 N 477.426 -0.562348 -1.47226 0
M  V30 4939 C 478.674 -0.0401371 -2.0206 0
M  V30 4940 C 478.995 1.3165 -1.43852 0
M  V30 4941 O 478.265 1.85976 -0.615599 0
M  V30 4942 H 476.845 -0.0118479 -0.746906 0
M  V30 4943 H 479.507 -0.73352 -1.8057 0
M  V30 4944 H 478.603 0.0441254 -3.12069 0
M  V30 4945 N 478.904 1.54736 -0.299062 0
M  V30 4946 C 480.181 1.92187 0.363802 0
M  V30 4947 C 480.561 1.22607 1.71845 0
M  V30 4948 O 479.909 0.361141 2.25628 0
M  V30 4949 C 480.119 3.45678 0.480377 0
M  V30 4950 C 481.467 4.17885 0.752147 0
M  V30 4951 O 482.491 3.51702 0.564264 0
M  V30 4952 O 481.35 5.35048 1.11294 0
M  V30 4953 H 478.444 0.801681 0.203066 0
M  V30 4954 H 480.99 1.66115 -0.346978 0
M  V30 4955 H 479.762 3.88443 -0.471999 0
M  V30 4956 H 479.385 3.77779 1.2397 0
M  V30 4957 N 480.382 0.0267497 1.57577 0
M  V30 4958 C 481.312 -0.954308 2.13108 0
M  V30 4959 C 482.293 -1.34088 1.04663 0
M  V30 4960 O 483.478 -1.41992 1.32484 0
M  V30 4961 C 480.608 -2.23744 2.65624 0
M  V30 4962 C 479.562 -1.99168 3.78835 0
M  V30 4963 C 478.888 -3.33726 4.17769 0
M  V30 4964 C 480.188 -1.33277 5.0501 0
M  V30 4965 H 481.882 -0.491848 2.95332 0
M  V30 4966 H 479.428 -0.23514 1.42067 0
M  V30 4967 H 481.381 -2.92754 3.03106 0
M  V30 4968 H 480.105 -2.72151 1.80558 0
M  V30 4969 H 478.764 -1.32577 3.41788 0
M  V30 4970 H 478.412 -3.79888 3.29688 0
M  V30 4971 H 478.112 -3.18089 4.94058 0
M  V30 4972 H 479.636 -4.04008 4.57832 0
M  V30 4973 H 481.05 -1.92283 5.40093 0
M  V30 4974 H 479.447 -1.28045 5.8628 0
M  V30 4975 H 480.517 -0.305411 4.83937 0
M  V30 4976 N 481.861 -1.55662 -0.24637 0
M  V30 4977 C 482.793 -1.86811 -1.32794 0
M  V30 4978 C 483.806 -0.754413 -1.44265 0
M  V30 4979 O 484.995 -1.03253 -1.45606 0
M  V30 4980 C 482.095 -2.0397 -2.70646 0
M  V30 4981 C 481.268 -3.34832 -2.81436 0
M  V30 4982 C 480.327 -3.41727 -4.00136 0
M  V30 4983 O 479.353 -4.14934 -3.89639 0
M  V30 4984 N 480.555 -2.71058 -5.1333 0
M  V30 4985 H 483.32 -2.80174 -1.06409 0
M  V30 4986 H 480.881 -1.55906 -0.43647 0
M  V30 4987 H 482.873 -2.05924 -3.48393 0
M  V30 4988 H 481.443 -1.1735 -2.89738 0
M  V30 4989 H 480.663 -3.4519 -1.90361 0
M  V30 4990 H 481.951 -4.21085 -2.85595 0
M  V30 4991 H 481.349 -2.11314 -5.2475 0
M  V30 4992 H 479.906 -2.78704 -5.89209 0
M  V30 4993 N 483.339 0.512053 -1.4905 0
M  V30 4994 C 484.585 1.26874 -1.58212 0
M  V30 4995 C 484.918 1.9241 -0.263073 0
M  V30 4996 O 484.193 1.80181 0.732476 0
M  V30 4997 C 484.476 2.34428 -2.73341 0
M  V30 4998 C 484.329 1.73466 -4.15006 0
M  V30 4999 C 485.648 3.36073 -2.84154 0
M  V30 5000 H 482.767 0.459924 -0.575881 0
M  V30 5001 H 485.409 0.568587 -1.81293 0
M  V30 5002 H 483.559 2.94146 -2.53792 0
M  V30 5003 H 485.231 1.17661 -4.46042 0
M  V30 5004 H 483.474 1.03921 -4.21168 0
M  V30 5005 H 484.145 2.51426 -4.91415 0
M  V30 5006 H 486.621 2.86332 -3.01916 0
M  V30 5007 H 485.497 4.08703 -3.66406 0
M  V30 5008 H 485.758 3.97725 -1.93048 0
M  V30 5009 N 484.817 1.37938 0.762283 0
M  V30 5010 C 486.045 1.36883 1.55147 0
M  V30 5011 C 486.46 -0.0435348 1.8875 0
M  V30 5012 O 485.817 -1.00786 1.52146 0
M  V30 5013 C 485.868 2.21624 2.85596 0
M  V30 5014 O 485.589 3.57358 2.5343 0
M  V30 5015 C 487.09 2.28653 3.7978 0
M  V30 5016 H 484.31 0.468521 0.480343 0
M  V30 5017 H 486.854 1.81404 0.944079 0
M  V30 5018 H 485.009 1.80588 3.42734 0
M  V30 5019 H 485.423 4.01883 3.37032 0
M  V30 5020 H 486.897 2.9225 4.68288 0
M  V30 5021 H 487.374 1.29767 4.19592 0
M  V30 5022 H 487.98 2.70043 3.28568 0
M  V30 5023 N 486.295 -0.989507 1.22664 0
M  V30 5024 C 487.543 -1.72612 1.05117 0
M  V30 5025 C 487.864 -1.90552 -0.414131 0
M  V30 5026 O 487.134 -1.4676 -1.29762 0
M  V30 5027 H 485.714 -0.639555 0.385977 0
M  V30 5028 H 488.376 -1.19158 1.54232 0
M  V30 5029 H 487.472 -2.71926 1.53175 0
M  V30 5030 N 487.773 -1.03688 -1.18687 0
M  V30 5031 C 488.998 -0.757819 -1.93059 0
M  V30 5032 C 489.423 0.678353 -1.75442 0
M  V30 5033 O 488.781 1.46938 -1.06203 0
M  V30 5034 C 488.829 -1.12423 -3.42627 0
M  V30 5035 O 487.933 -0.247505 -4.11657 0
M  V30 5036 H 487.274 -0.279245 -0.602427 0
M  V30 5037 H 489.804 -1.3857 -1.5053 0
M  V30 5038 H 489.814 -1.08454 -3.93322 0
M  V30 5039 H 488.489 -2.17049 -3.54771 0
M  V30 5040 H 487.066 -0.34649 -3.71287 0
M  V30 5041 N 489.251 1.34841 -0.815825 0
M  V30 5042 C 490.214 2.27959 -0.238185 0
M  V30 5043 C 491.214 1.49983 0.579816 0
M  V30 5044 O 492.404 1.69617 0.396953 0
M  V30 5045 C 489.536 3.34314 0.666876 0
M  V30 5046 H 490.729 2.80558 -1.05958 0
M  V30 5047 H 488.282 1.44852 -0.587156 0
M  V30 5048 H 489.017 2.86916 1.5116 0
M  V30 5049 H 488.802 3.92014 0.0819106 0
M  V30 5050 H 490.292 4.0379 1.06506 0
M  V30 5051 N 490.729 0.570148 1.46925 0
M  V30 5052 C 491.679 -0.190921 2.27199 0
M  V30 5053 C 492.663 -0.873457 1.35128 0
M  V30 5054 O 493.855 -0.769627 1.59392 0
M  V30 5055 C 490.984 -1.21204 3.21192 0
M  V30 5056 C 490.07 -0.532261 4.20747 0
M  V30 5057 N 490.461 0.405038 5.04176 0
M  V30 5058 C 488.759 -0.784582 4.39045 0
M  V30 5059 C 489.46 0.801149 5.76157 0
M  V30 5060 N 488.436 0.153082 5.43384 0
M  V30 5061 H 492.238 0.529535 2.8909 0
M  V30 5062 H 489.752 0.391019 1.57622 0
M  V30 5063 H 491.749 -1.77135 3.77398 0
M  V30 5064 H 490.409 -1.93345 2.6086 0
M  V30 5065 H 491.42 0.779903 5.11994 0
M  V30 5066 H 488.097 -1.49352 3.89872 0
M  V30 5067 H 489.487 1.57208 6.5325 0
M  V30 5068 N 492.207 -1.54576 0.307264 0
M  V30 5069 C 493.447 -2.02172 -0.300962 0
M  V30 5070 C 493.811 -1.19081 -1.50611 0
M  V30 5071 O 495.012 -1.56405 -2.18612 0
M  V30 5072 C 493.283 -3.51576 -0.642591 0
M  V30 5073 S 494.842 -4.21127 -1.23279 0
M  V30 5074 H 491.66 -0.705021 -0.0920141 0
M  V30 5075 H 494.262 -1.90563 0.436594 0
M  V30 5076 H 492.966 -4.09681 0.242901 0
M  V30 5077 H 492.497 -3.67234 -1.41077 0
M  V30 5078 H 494.512 -4.27426 -2.52034 0
M  V30 5079 N 493.685 -0.035106 -1.57561 0
M  V30 5080 C 494.913 0.652258 -1.9635 0
M  V30 5081 C 495.328 1.65317 -0.911897 0
M  V30 5082 O 494.685 1.82194 0.105657 0
M  V30 5083 C 494.736 1.35337 -3.35211 0
M  V30 5084 O 494.457 0.392548 -4.36338 0
M  V30 5085 C 495.958 2.13199 -3.88666 0
M  V30 5086 H 493.178 0.179444 -0.646561 0
M  V30 5087 H 495.722 -0.0966459 -2.04271 0
M  V30 5088 H 493.877 2.05362 -3.28489 0
M  V30 5089 H 494.291 0.891097 -5.16875 0
M  V30 5090 H 495.765 2.577 -4.88154 0
M  V30 5091 H 496.242 2.97353 -3.23231 0
M  V30 5092 H 496.848 1.48118 -3.98674 0
M  V30 5093 N 495.163 1.55791 0.238111 0
M  V30 5094 C 496.41 1.78033 0.964907 0
M  V30 5095 C 496.738 0.600984 1.84982 0
M  V30 5096 O 495.993 -0.41536 1.91241 0
M  V30 5097 C 496.292 3.05869 1.84875 0
M  V30 5098 C 495.958 4.36808 1.11846 0
M  V30 5099 C 494.62 4.72388 0.916662 0
M  V30 5100 C 496.972 5.17717 0.60151 0
M  V30 5101 C 494.3 5.86406 0.185756 0
M  V30 5102 C 496.652 6.32494 -0.115972 0
M  V30 5103 C 495.316 6.66688 -0.329168 0
M  V30 5104 H 494.586 0.651469 0.353085 0
M  V30 5105 H 497.233 1.90061 0.234318 0
M  V30 5106 H 495.538 2.88891 2.64668 0
M  V30 5107 H 497.235 3.20278 2.41294 0
M  V30 5108 H 493.825 4.08862 1.28569 0
M  V30 5109 H 498.009 4.90678 0.744932 0
M  V30 5110 H 493.265 6.11399 0.0101886 0
M  V30 5111 H 497.439 6.94425 -0.524127 0
M  V30 5112 H 495.066 7.54884 -0.897474 0
M  V30 5113 N 496.642 -0.504142 1.49319 0
M  V30 5114 C 497.59 -1.62689 1.66238 0
M  V30 5115 C 498.584 -1.6095 0.528349 0
M  V30 5116 O 499.79 -1.65496 0.707887 0
M  V30 5117 H 496.165 -0.539247 0.524134 0
M  V30 5118 H 498.136 -1.45571 2.60484 0
M  V30 5119 C 496.885 -3.00841 1.74328 0
M  V30 5120 H 496.208 -3.02884 2.60963 0
M  V30 5121 H 497.648 -3.78945 1.90202 0
M  V30 5122 C 496.107 -3.33355 0.487416 0
M  V30 5123 O 496.637 -3.99819 -0.388294 0
M  V30 5124 N 494.843 -2.88469 0.351306 0
M  V30 5125 H 494.39 -2.34557 1.06492 0
M  V30 5126 H 494.348 -3.10591 -0.487899 0
M  V30 5127 N 498.12 -1.38341 -0.754957 0
M  V30 5128 C 499.348 -1.37704 -1.54419 0
M  V30 5129 C 499.763 0.0335243 -1.8877 0
M  V30 5130 O 499.12 0.999773 -1.52679 0
M  V30 5131 C 499.171 -2.23136 -2.84416 0
M  V30 5132 O 498.892 -3.58697 -2.51531 0
M  V30 5133 C 500.393 -2.30664 -3.78562 0
M  V30 5134 H 497.613 -0.471061 -0.477852 0
M  V30 5135 H 500.157 -1.81902 -0.934446 0
M  V30 5136 H 498.312 -1.82403 -3.41772 0
M  V30 5137 H 498.726 -4.03665 -3.34896 0
M  V30 5138 H 500.2 -2.9473 -4.66732 0
M  V30 5139 H 500.677 -1.3199 -4.18898 0
M  V30 5140 H 501.283 -2.71781 -3.27131 0
M  V30 5141 N 499.598 0.982988 -1.23187 0
M  V30 5142 C 500.561 2.05649 -1.01198 0
M  V30 5143 C 501.561 1.6078 0.0252464 0
M  V30 5144 O 502.751 1.72878 -0.214243 0
M  V30 5145 C 499.883 3.36744 -0.530656 0
M  V30 5146 H 501.076 2.2659 -1.96461 0
M  V30 5147 H 498.629 1.15602 -1.05195 0
M  V30 5148 H 499.364 3.21492 0.425873 0
M  V30 5149 H 499.149 3.7065 -1.2791 0
M  V30 5150 H 500.639 4.15705 -0.397366 0
M  V30 5151 N 501.076 1.04316 1.18135 0
M  V30 5152 C 502.008 0.594444 2.21357 0
M  V30 5153 C 503.021 -0.337215 1.59269 0
M  V30 5154 O 504.21 -0.131337 1.78016 0
M  V30 5155 C 501.31 -0.151251 3.38562 0
M  V30 5156 C 500.483 0.788907 4.30227 0
M  V30 5157 C 499.542 0.0860572 5.2613 0
M  V30 5158 O 498.568 0.717302 5.64662 0
M  V30 5159 N 499.77 -1.17969 5.68387 0
M  V30 5160 H 502.535 1.48227 2.60478 0
M  V30 5161 H 500.096 0.92396 1.32946 0
M  V30 5162 H 502.088 -0.631352 3.99745 0
M  V30 5163 H 500.658 -0.940639 2.98112 0
M  V30 5164 H 499.878 1.44882 3.6661 0
M  V30 5165 H 501.166 1.42738 4.88368 0
M  V30 5166 H 500.564 -1.71302 5.3914 0
M  V30 5167 H 499.121 -1.60402 6.31755 0
M  V30 5168 N 502.554 -1.34406 0.822964 0
M  V30 5169 C 503.501 -2.29519 0.24284 0
M  V30 5170 C 504.471 -1.5359 -0.632397 0
M  V30 5171 O 505.656 -1.8196 -0.57403 0
M  V30 5172 C 502.796 -3.40032 -0.58925 0
M  V30 5173 C 501.909 -4.30899 0.308236 0
M  V30 5174 C 501.044 -5.28515 -0.533425 0
M  V30 5175 C 500.083 -6.1102 0.363444 0
M  V30 5176 N 499.22 -7.00725 -0.439147 0
M  V30 5177 H 504.06 -2.78537 1.05929 0
M  V30 5178 H 501.597 -1.3707 0.533872 0
M  V30 5179 H 503.555 -4.0279 -1.087 0
M  V30 5180 H 502.185 -2.92248 -1.37081 0
M  V30 5181 H 501.237 -3.69002 0.924203 0
M  V30 5182 H 502.549 -4.88717 0.997862 0
M  V30 5183 H 501.703 -5.96725 -1.09565 0
M  V30 5184 H 500.442 -4.71235 -1.25656 0
M  V30 5185 H 499.447 -5.41743 0.937812 0
M  V30 5186 H 500.672 -6.70381 1.08469 0
M  V30 5187 H 498.618 -6.45913 -1.14595 0
M  V30 5188 H 498.535 -7.55756 0.19209 0
M  V30 5189 H 499.803 -7.73263 -0.984124 0
M  V30 5190 N 504.032 -0.577932 -1.46621 0
M  V30 5191 C 504.995 0.147805 -2.28723 0
M  V30 5192 C 505.995 0.823325 -1.38123 0
M  V30 5193 O 507.185 0.676011 -1.60548 0
M  V30 5194 C 504.317 1.21853 -3.18378 0
M  V30 5195 H 505.51 -0.573654 -2.94362 0
M  V30 5196 H 503.063 -0.335703 -1.52652 0
M  V30 5197 H 503.798 1.97173 -2.57475 0
M  V30 5198 H 503.583 0.738714 -3.85078 0
M  V30 5199 H 505.073 1.72768 -3.80186 0
M  V30 5200 N 505.51 1.54411 -0.315457 0
M  V30 5201 C 506.756 2.00716 0.289972 0
M  V30 5202 C 507.089 1.2034 1.5242 0
M  V30 5203 O 506.364 0.283579 1.92422 0
M  V30 5204 C 506.647 3.54507 0.632196 0
M  V30 5205 C 506.5 4.45615 -0.61218 0
M  V30 5206 C 507.819 4.15421 1.45305 0
M  V30 5207 H 504.938 0.729637 0.10392 0
M  V30 5208 H 507.58 1.8506 -0.430427 0
M  V30 5209 H 505.73 3.67979 1.24595 0
M  V30 5210 H 507.402 4.44026 -1.25053 0
M  V30 5211 H 505.645 4.15621 -1.24264 0
M  V30 5212 H 506.316 5.51022 -0.328379 0
M  V30 5213 H 508.792 4.05474 0.934331 0
M  V30 5214 H 507.668 5.23157 1.66127 0
M  V30 5215 H 507.929 3.68223 2.44671 0
M  V30 5216 N 506.988 0.0434614 1.5754 0
M  V30 5217 C 508.236 -0.630786 1.92004 0
M  V30 5218 C 508.557 -1.71836 0.921807 0
M  V30 5219 O 507.827 -1.9587 -0.034522 0
M  V30 5220 H 506.407 -0.235988 0.708745 0
M  V30 5221 H 509.069 0.0946462 1.9467 0
M  V30 5222 H 508.165 -1.07434 2.93026 0
M  V30 5223 N 508.466 -1.55915 -0.229846 0
M  V30 5224 C 509.413 -1.91734 -1.28478 0
M  V30 5225 C 510.383 -0.773539 -1.46988 0
M  V30 5226 O 511.568 -1.02871 -1.60693 0
M  V30 5227 C 508.708 -2.23224 -2.63182 0
M  V30 5228 C 507.821 -3.50497 -2.52539 0
M  V30 5229 C 506.956 -3.71474 -3.79711 0
M  V30 5230 C 505.995 -4.92289 -3.63755 0
M  V30 5231 N 505.132 -5.09698 -4.82858 0
M  V30 5232 H 509.972 -2.81692 -0.972308 0
M  V30 5233 H 507.509 -1.39429 -0.468815 0
M  V30 5234 H 509.467 -2.3949 -3.41614 0
M  V30 5235 H 508.097 -1.36451 -2.92542 0
M  V30 5236 H 507.149 -3.4247 -1.65585 0
M  V30 5237 H 508.461 -4.39079 -2.36666 0
M  V30 5238 H 507.615 -3.87791 -4.66586 0
M  V30 5239 H 506.354 -2.81157 -3.985 0
M  V30 5240 H 505.359 -4.7593 -2.75264 0
M  V30 5241 H 506.584 -5.84083 -3.46445 0
M  V30 5242 H 504.53 -4.22322 -5.01976 0
M  V30 5243 H 504.447 -5.92399 -4.69681 0
M  V30 5244 H 505.715 -5.30443 -5.71183 0
M  V30 5245 N 509.944 0.496216 -1.49584 0
M  V30 5246 C 511.221 1.25755 -1.49816 0
M  V30 5247 C 511.601 2.09859 -0.228572 0
M  V30 5248 O 510.949 2.14449 0.788908 0
M  V30 5249 C 511.159 2.11017 -2.7798 0
M  V30 5250 C 512.507 2.70047 -3.27658 0
M  V30 5251 O 513.531 2.21281 -2.79129 0
M  V30 5252 O 512.39 3.58834 -4.1219 0
M  V30 5253 H 509.484 0.569322 -0.599834 0
M  V30 5254 H 512.03 0.510094 -1.61852 0
M  V30 5255 H 510.802 1.48879 -3.61871 0
M  V30 5256 H 510.425 2.92947 -2.68827 0
M  V30 5257 N 511.423 1.38739 0.74761 0
M  V30 5258 C 512.371 1.36573 1.88283 0
M  V30 5259 C 513.365 0.250712 1.67534 0
M  V30 5260 O 514.571 0.420073 1.7503 0
M  V30 5261 H 510.946 0.42619 0.619569 0
M  V30 5262 H 512.917 2.32356 1.87226 0
M  V30 5263 C 511.666 1.21361 3.25832 0
M  V30 5264 H 510.989 2.06424 3.42388 0
M  V30 5265 H 512.429 1.23901 4.05493 0
M  V30 5266 C 510.888 -0.0790099 3.36807 0
M  V30 5267 O 511.418 -1.05385 3.8763 0
M  V30 5268 N 509.624 -0.13785 2.90273 0
M  V30 5269 H 509.171 0.656128 2.49104 0
M  V30 5270 H 509.129 -1.00228 2.97996 0
M  V30 5271 N 512.901 -0.976442 1.23707 0
M  V30 5272 C 514.148 -1.71827 1.07153 0
M  V30 5273 C 514.476 -1.9053 -0.390982 0
M  V30 5274 O 513.731 -1.45779 -1.30564 0
M  V30 5275 C 514.03 -3.11814 1.74662 0
M  V30 5276 C 513.696 -3.12978 3.24585 0
M  V30 5277 C 512.358 -3.13003 3.6549 0
M  V30 5278 C 514.71 -3.07986 4.20469 0
M  V30 5279 C 512.038 -3.05757 5.00729 0
M  V30 5280 C 514.39 -3.02282 5.55705 0
M  V30 5281 C 513.054 -3.00631 5.95968 0
M  V30 5282 H 512.324 -0.628758 0.392102 0
M  V30 5283 H 514.971 -1.14239 1.53693 0
M  V30 5284 H 513.276 -3.72812 1.20492 0
M  V30 5285 H 514.973 -3.67989 1.59328 0
M  V30 5286 H 511.563 -3.13718 2.92026 0
M  V30 5287 H 515.747 -3.07103 3.89874 0
M  V30 5288 H 511.003 -3.02834 5.31132 0
M  V30 5289 H 515.177 -2.97376 6.29714 0
M  V30 5290 H 512.804 -2.94771 7.00724 0
M  V30 5291 N 514.379 -1.04941 -1.1758 0
M  V30 5292 C 515.607 -0.778294 -1.91703 0
M  V30 5293 C 516.022 0.665697 -1.76675 0
M  V30 5294 O 515.379 1.45456 -1.10222 0
M  V30 5295 C 515.43 -1.14628 -3.42845 0
M  V30 5296 O 515.151 -2.53359 -3.57409 0
M  V30 5297 C 516.652 -0.900931 -4.34049 0
M  V30 5298 H 513.872 -0.283167 -0.608323 0
M  V30 5299 H 516.416 -1.39942 -1.49119 0
M  V30 5300 H 514.571 -0.569953 -3.83184 0
M  V30 5301 H 514.985 -2.67709 -4.51035 0
M  V30 5302 H 516.459 -1.20817 -5.38616 0
M  V30 5303 H 516.936 0.163966 -4.38894 0
M  V30 5304 H 517.542 -1.46097 -3.99419 0
M  V30 5305 N 515.857 1.33968 -0.830081 0
M  V30 5306 C 516.787 2.31911 -0.271911 0
M  V30 5307 C 517.768 1.58571 0.61556 0
M  V30 5308 O 518.953 1.86514 0.540946 0
M  V30 5309 C 516.083 3.42737 0.561146 0
M  V30 5310 C 515.037 4.27383 -0.229789 0
M  V30 5311 C 514.363 5.29742 0.726463 0
M  V30 5312 C 515.663 5.02 -1.44197 0
M  V30 5313 H 517.357 2.78844 -1.09025 0
M  V30 5314 H 514.903 1.34061 -0.52571 0
M  V30 5315 H 516.856 4.10276 0.961867 0
M  V30 5316 H 515.58 2.94471 1.41261 0
M  V30 5317 H 514.239 3.61456 -0.611964 0
M  V30 5318 H 513.887 4.77736 1.57408 0
M  V30 5319 H 513.587 5.87255 0.20142 0
M  V30 5320 H 515.111 6.00149 1.12489 0
M  V30 5321 H 516.525 5.62355 -1.11488 0
M  V30 5322 H 514.922 5.69122 -1.90317 0
M  V30 5323 H 515.992 4.31281 -2.2164 0
M  V30 5324 N 517.335 0.585699 1.46312 0
M  V30 5325 C 518.584 0.0701192 2.01578 0
M  V30 5326 C 518.897 -1.29889 1.46247 0
M  V30 5327 O 520.103 -1.90598 1.93351 0
M  V30 5328 C 518.559 0.0747499 3.59822 0
M  V30 5329 C 518.167 1.44226 4.24149 0
M  V30 5330 C 519.911 -0.38673 4.22735 0
M  V30 5331 C 517.818 1.40446 5.74481 0
M  V30 5332 H 516.748 0.0224441 0.753666 0
M  V30 5333 H 519.399 0.737789 1.68015 0
M  V30 5334 H 517.781 -0.659144 3.90476 0
M  V30 5335 H 518.955 2.19612 4.05101 0
M  V30 5336 H 517.27 1.84401 3.73343 0
M  V30 5337 H 519.867 -0.433853 5.32937 0
M  V30 5338 H 520.21 -1.40489 3.91878 0
M  V30 5339 H 520.743 0.293195 3.96718 0
M  V30 5340 H 517.482 2.39952 6.10003 0
M  V30 5341 H 517.002 0.692845 5.95785 0
M  V30 5342 H 518.681 1.11865 6.37256 0
M  V30 5343 N 518.813 -1.54241 0.323641 0
M  V30 5344 C 520.224 -1.85975 -0.164405 0
M  V30 5345 C 520.575 -1.24529 -1.51615 0
M  V30 5346 O 519.7 -0.551351 -2.09258 0
M  V30 5347 C 520.295 -3.37424 -0.305091 0
M  V30 5348 C 518.854 -3.69107 -0.737358 0
M  V30 5349 C 518.001 -2.76942 0.140884 0
M  V30 5350 H 520.952 -1.49088 0.543922 0
M  V30 5351 H 520.973 -3.63147 -1.13598 0
M  V30 5352 H 520.485 -3.82116 0.678876 0
M  V30 5353 H 518.586 -3.29947 -1.73107 0
M  V30 5354 H 518.699 -4.76035 -0.541053 0
M  V30 5355 H 517.063 -2.51795 -0.383572 0
M  V30 5356 H 517.846 -3.24461 1.12162 0
M  V30 5357 N 520.291 -0.0518155 -1.57515 0
M  V30 5358 C 521.201 0.937539 -2.15052 0
M  V30 5359 C 522.217 1.34121 -1.10849 0
M  V30 5360 O 523.393 1.418 -1.4302 0
M  V30 5361 C 520.458 2.19379 -2.68466 0
M  V30 5362 C 519.519 1.84841 -3.87469 0
M  V30 5363 C 518.752 3.04477 -4.38326 0
M  V30 5364 O 518.975 4.17868 -3.88256 0
M  V30 5365 O 517.909 2.85453 -5.29906 0
M  V30 5366 H 521.735 0.478201 -2.99912 0
M  V30 5367 H 519.32 0.17012 -1.48428 0
M  V30 5368 H 521.202 2.93084 -3.02787 0
M  V30 5369 H 519.877 2.64449 -1.86677 0
M  V30 5370 H 518.784 1.08449 -3.58036 0
M  V30 5371 H 520.117 1.44569 -4.7049 0
M  V30 5372 N 521.769 1.56035 0.221574 0
M  V30 5373 C 523.017 1.78693 0.944102 0
M  V30 5374 C 523.338 0.620317 1.8487 0
M  V30 5375 O 522.608 -0.362784 1.92512 0
M  V30 5376 H 521.188 0.659082 0.351597 0
M  V30 5377 H 523.85 1.93497 0.233435 0
M  V30 5378 H 522.946 2.70837 1.55093 0
M  V30 5379 N 523.247 -0.488276 1.49845 0
M  V30 5380 C 524.475 -1.26527 1.63702 0
M  V30 5381 C 524.89 -1.8618 0.313447 0
M  V30 5382 O 524.247 -1.68432 -0.702624 0
M  V30 5383 C 524.298 -2.3864 2.71538 0
M  V30 5384 O 524.019 -1.81437 3.98763 0
M  V30 5385 C 525.52 -3.29805 2.96215 0
M  V30 5386 H 522.74 -0.383295 0.55075 0
M  V30 5387 H 525.284 -0.584779 1.95961 0
M  V30 5388 H 523.439 -3.02496 2.42023 0
M  V30 5389 H 523.853 -2.55135 4.58265 0
M  V30 5390 H 525.327 -4.04722 3.75372 0
M  V30 5391 H 525.804 -3.87563 2.06619 0
M  V30 5392 H 526.41 -2.71703 3.27196 0
M  V30 5393 N 524.725 -1.39134 -0.740242 0
M  V30 5394 C 525.673 -1.3757 -1.87556 0
M  V30 5395 C 526.667 -0.259593 -1.67399 0
M  V30 5396 O 527.873 -0.429349 -1.74804 0
M  V30 5397 H 524.248 -0.42947 -0.6173 0
M  V30 5398 H 526.219 -2.33345 -1.85991 0
M  V30 5399 C 524.968 -1.23087 -3.25184 0
M  V30 5400 H 524.291 -2.08237 -3.41288 0
M  V30 5401 H 525.731 -1.26049 -4.0483 0
M  V30 5402 C 524.19 0.0611471 -3.36845 0
M  V30 5403 O 524.72 1.03328 -3.88183 0
M  V30 5404 N 522.926 0.122454 -2.90342 0
M  V30 5405 H 522.473 -0.669329 -2.48752 0
M  V30 5406 H 522.431 0.986463 -2.98523 0
M  V30 5407 N 526.204 0.969867 -1.24223 0
M  V30 5408 C 527.452 1.70918 -1.0785 0
M  V30 5409 C 527.773 1.91186 0.383763 0
M  V30 5410 O 527.043 1.48806 1.27411 0
M  V30 5411 H 525.623 0.633334 -0.396103 0
M  V30 5412 H 528.285 1.16689 -1.56108 0
M  V30 5413 H 527.381 2.69455 -1.57482 0
M  V30 5414 N 527.682 1.05563 1.17022 0
M  V30 5415 C 528.91 0.78845 1.91288 0
M  V30 5416 C 529.325 -0.656318 1.77025 0
M  V30 5417 O 528.682 -1.44869 1.10992 0
M  V30 5418 C 528.733 1.16444 3.42232 0
M  V30 5419 O 528.454 2.5525 3.5606 0
M  V30 5420 C 529.955 0.923937 4.33565 0
M  V30 5421 H 527.175 0.286389 0.606813 0
M  V30 5422 H 529.719 1.4073 1.48375 0
M  V30 5423 H 527.874 0.590266 3.82877 0
M  V30 5424 H 528.288 2.70097 4.49609 0
M  V30 5425 H 529.762 1.23672 5.37968 0
M  V30 5426 H 530.239 -0.140688 4.38975 0
M  V30 5427 H 530.845 1.48214 3.98639 0
M  V30 5428 N 529.16 -1.33526 0.837174 0
M  V30 5429 C 530.07 -2.33023 0.271568 0
M  V30 5430 C 531.086 -1.63272 -0.601514 0
M  V30 5431 O 532.262 -1.94939 -0.506038 0
M  V30 5432 C 529.327 -3.42382 -0.545448 0
M  V30 5433 C 528.388 -4.27857 0.351709 0
M  V30 5434 C 527.621 -5.31994 -0.426409 0
M  V30 5435 O 527.844 -5.45763 -1.65828 0
M  V30 5436 O 526.778 -6.01572 0.1987 0
M  V30 5437 H 530.604 -2.83256 1.09545 0
M  V30 5438 H 528.189 -1.36837 0.599655 0
M  V30 5439 H 530.071 -4.09122 -1.00979 0
M  V30 5440 H 528.746 -2.94369 -1.34641 0
M  V30 5441 H 527.653 -3.6399 0.863853 0
M  V30 5442 H 528.986 -4.79349 1.1174 0
M  V30 5443 N 530.638 -0.59345 -1.46 0
M  V30 5444 C 531.548 0.135817 -2.34207 0
M  V30 5445 C 532.564 0.875008 -1.50398 0
M  V30 5446 O 533.74 0.835778 -1.83239 0
M  V30 5447 C 530.805 1.12977 -3.27776 0
M  V30 5448 C 529.866 0.394081 -4.27487 0
M  V30 5449 C 529.099 1.34068 -5.16586 0
M  V30 5450 O 529.322 2.5778 -5.08828 0
M  V30 5451 O 528.256 0.845426 -5.95933 0
M  V30 5452 H 532.082 -0.588691 -2.9794 0
M  V30 5453 H 529.667 -0.353784 -1.45151 0
M  V30 5454 H 531.549 1.70261 -3.85473 0
M  V30 5455 H 530.224 1.83556 -2.66625 0
M  V30 5456 H 529.131 -0.220869 -3.73447 0
M  V30 5457 H 530.464 -0.270939 -4.91454 0
M  V30 5458 N 532.116 1.54067 -0.331816 0
M  V30 5459 C 533.532 1.59587 0.0205388 0
M  V30 5460 C 533.732 1.34813 1.49759 0
M  V30 5461 O 532.788 1.13661 2.25471 0
M  V30 5462 C 534.101 2.97959 -0.405103 0
M  V30 5463 C 535.649 3.10964 -0.356454 0
M  V30 5464 C 536.124 4.51694 -0.757384 0
M  V30 5465 N 537.615 4.57709 -0.71111 0
M  V30 5466 C 538.35 5.64729 -0.993427 0
M  V30 5467 N 537.846 6.79652 -1.3433 0
M  V30 5468 N 539.639 5.54546 -0.918442 0
M  V30 5469 H 531.79 1.68426 -1.29407 0
M  V30 5470 H 534.053 0.78819 -0.526745 0
M  V30 5471 H 533.759 3.21115 -1.43451 0
M  V30 5472 H 533.633 3.76524 0.225692 0
M  V30 5473 H 536.02 2.87538 0.663763 0
M  V30 5474 H 536.101 2.34484 -1.02229 0
M  V30 5475 H 535.745 4.75853 -1.77555 0
M  V30 5476 H 535.675 5.26555 -0.0691444 0
M  V30 5477 H 538.166 3.75176 -0.452883 0
M  V30 5478 H 538.479 7.57221 -1.54388 0
M  V30 5479 H 536.824 6.81128 -1.38164 0
M  V30 5480 H 540.015 4.63641 -0.644536 0
M  V30 5481 H 540.188 6.37861 -1.14181 0
M  V30 5482 N 533.594 0.0601682 1.57485 0
M  V30 5483 C 534.527 -0.94676 2.07634 0
M  V30 5484 C 535.505 -1.29837 0.978826 0
M  V30 5485 O 536.689 -1.40969 1.2514 0
M  V30 5486 C 533.816 -2.25822 2.52433 0
M  V30 5487 C 532.862 -2.05901 3.73507 0
M  V30 5488 S 533.695 -1.32907 5.18745 0
M  V30 5489 C 534.851 -2.65356 5.66866 0
M  V30 5490 H 535.084 -0.520003 2.92717 0
M  V30 5491 H 532.617 -0.152319 1.53647 0
M  V30 5492 H 534.575 -3.01201 2.78905 0
M  V30 5493 H 533.236 -2.65624 1.67639 0
M  V30 5494 H 532.429 -3.02929 4.02803 0
M  V30 5495 H 532.031 -1.38659 3.47347 0
M  V30 5496 H 534.323 -3.61492 5.73001 0
M  V30 5497 H 535.266 -2.40685 6.6594 0
M  V30 5498 H 535.674 -2.72028 4.94632 0
M  V30 5499 N 535.072 -1.5615 -0.213296 0
M  V30 5500 C 536.297 -1.83986 -0.957282 0
M  V30 5501 C 536.722 -0.641526 -1.76822 0
M  V30 5502 O 536.08 0.409722 -1.7661 0
M  V30 5503 C 536.128 -3.09889 -1.84393 0
M  V30 5504 O 535.232 -2.89163 -2.94038 0
M  V30 5505 H 534.573 -0.606357 -0.270605 0
M  V30 5506 H 537.103 -2.03369 -0.224111 0
M  V30 5507 H 537.113 -3.40209 -2.25215 0
M  V30 5508 H 535.788 -3.96735 -1.24795 0
M  V30 5509 H 534.365 -2.70097 -2.57103 0
M  V30 5510 N 536.55 0.480323 -1.50102 0
M  V30 5511 C 537.796 1.23489 -1.60867 0
M  V30 5512 C 538.129 1.91809 -0.303827 0
M  V30 5513 O 537.404 1.81694 0.694092 0
M  V30 5514 C 537.687 2.28578 -2.78252 0
M  V30 5515 C 537.54 1.64624 -4.18592 0
M  V30 5516 C 538.859 3.2997 -2.91218 0
M  V30 5517 H 535.978 0.447605 -0.585507 0
M  V30 5518 H 538.62 0.530005 -1.82458 0
M  V30 5519 H 536.77 2.88697 -2.59974 0
M  V30 5520 H 538.442 1.08173 -4.48438 0
M  V30 5521 H 536.685 0.949645 -4.23278 0
M  V30 5522 H 537.356 2.40946 -4.96638 0
M  V30 5523 H 539.832 2.79864 -3.07921 0
M  V30 5524 H 538.708 4.00839 -3.74993 0
M  V30 5525 H 538.969 3.93541 -2.0144 0
M  V30 5526 N 538.028 1.39524 0.732853 0
M  V30 5527 C 539.277 1.36175 1.48792 0
M  V30 5528 C 539.59 -0.0388195 1.95561 0
M  V30 5529 O 540.796 -0.194899 2.708 0
M  V30 5530 C 539.252 2.39242 2.68871 0
M  V30 5531 C 538.86 3.85024 2.29042 0
M  V30 5532 C 540.604 2.44972 3.46683 0
M  V30 5533 C 538.511 4.79727 3.45856 0
M  V30 5534 H 537.441 0.506267 0.558757 0
M  V30 5535 H 540.092 1.65181 0.799226 0
M  V30 5536 H 538.474 2.0331 3.39825 0
M  V30 5537 H 539.648 4.30008 1.6562 0
M  V30 5538 H 537.963 3.82609 1.64316 0
M  V30 5539 H 540.56 3.12918 4.33574 0
M  V30 5540 H 540.903 1.4749 3.89297 0
M  V30 5541 H 541.436 2.79808 2.82759 0
M  V30 5542 H 538.175 5.78479 3.08289 0
M  V30 5543 H 537.695 4.39421 4.08251 0
M  V30 5544 H 539.374 4.98731 4.12161 0
M  V30 5545 N 539.506 -0.963266 1.24736 0
M  V30 5546 C 540.752 -1.71 1.10139 0
M  V30 5547 C 541.107 -1.89089 -0.35541 0
M  V30 5548 O 540.4 -1.44451 -1.25875 0
M  V30 5549 C 540.594 -3.09944 1.7796 0
M  V30 5550 C 540.423 -3.05408 3.30085 0
M  V30 5551 C 539.193 -3.09643 3.99311 0
M  V30 5552 C 541.391 -2.87241 4.26611 0
M  V30 5553 N 539.373 -2.95174 5.3828 0
M  V30 5554 C 540.744 -2.81114 5.52607 0
M  V30 5555 C 542.799 -2.71856 4.17132 0
M  V30 5556 C 541.502 -2.61174 6.70209 0
M  V30 5557 C 543.528 -2.53284 5.34417 0
M  V30 5558 C 542.89 -2.4787 6.59348 0
M  V30 5559 H 538.989 -0.634078 0.457678 0
M  V30 5560 H 541.573 -1.14169 1.57713 0
M  V30 5561 H 539.744 -3.64958 1.32893 0
M  V30 5562 H 541.476 -3.73348 1.56183 0
M  V30 5563 H 538.231 -3.18498 3.50508 0
M  V30 5564 H 538.655 -2.91168 6.11188 0
M  V30 5565 H 543.297 -2.74821 3.21299 0
M  V30 5566 H 541.015 -2.56952 7.6616 0
M  V30 5567 H 544.601 -2.42317 5.28936 0
M  V30 5568 H 543.481 -2.33685 7.48573 0
M  V30 5569 N 540.985 -1.06182 -1.16461 0
M  V30 5570 C 542.262 -0.691364 -1.82974 0
M  V30 5571 C 542.642 0.827377 -1.9421 0
M  V30 5572 O 541.99 1.73723 -1.48434 0
M  V30 5573 C 542.2 -1.39199 -3.20038 0
M  V30 5574 C 543.548 -1.53647 -3.95825 0
M  V30 5575 O 544.572 -1.35181 -3.29552 0
M  V30 5576 O 543.431 -1.83932 -5.14618 0
M  V30 5577 H 540.525 -0.244605 -0.789998 0
M  V30 5578 H 543.071 -1.16203 -1.23673 0
M  V30 5579 H 541.843 -2.42766 -3.06888 0
M  V30 5580 H 541.466 -0.911335 -3.87015 0
M  V30 5581 N 542.463 1.3308 -0.844243 0
M  V30 5582 C 543.41 2.29104 -0.279323 0
M  V30 5583 C 544.38 1.54577 0.607882 0
M  V30 5584 O 545.565 1.8285 0.545009 0
M  V30 5585 C 542.705 3.40927 0.53508 0
M  V30 5586 C 541.818 4.30354 -0.376749 0
M  V30 5587 C 540.953 5.29297 0.449276 0
M  V30 5588 C 539.992 6.10365 -0.460606 0
M  V30 5589 N 539.129 7.01335 0.327612 0
M  V30 5590 H 543.969 2.76817 -1.10346 0
M  V30 5591 H 541.506 1.36203 -0.555611 0
M  V30 5592 H 543.464 4.04469 1.02278 0
M  V30 5593 H 542.094 2.94391 1.32414 0
M  V30 5594 H 541.146 3.67485 -0.982791 0
M  V30 5595 H 542.458 4.87067 -1.07549 0
M  V30 5596 H 541.612 5.98392 1.00058 0
M  V30 5597 H 540.351 4.73174 1.18143 0
M  V30 5598 H 539.356 5.40182 -1.02388 0
M  V30 5599 H 540.581 6.68571 -1.1912 0
M  V30 5600 H 538.527 6.47655 1.04305 0
M  V30 5601 H 538.444 7.55355 -0.3123 0
M  V30 5602 H 539.712 7.74731 0.86098 0
M  V30 5603 N 543.941 0.601185 1.45683 0
M  V30 5604 C 544.904 -0.111398 2.28929 0
M  V30 5605 C 545.904 -0.801246 1.39416 0
M  V30 5606 O 547.094 -0.650383 1.61603 0
M  V30 5607 C 544.226 -1.16773 3.20276 0
M  V30 5608 H 545.419 0.620412 2.93413 0
M  V30 5609 H 542.972 0.359946 1.52099 0
M  V30 5610 H 543.707 -1.93051 2.60579 0
M  V30 5611 H 543.492 -0.677358 3.86205 0
M  V30 5612 H 544.982 -1.66698 3.82886 0
M  V30 5613 N 545.419 -1.53889 0.339982 0
M  V30 5614 C 546.665 -2.01152 -0.258003 0
M  V30 5615 C 546.998 -1.22749 -1.50487 0
M  V30 5616 O 546.273 -0.314156 -1.91946 0
M  V30 5617 C 546.556 -3.55468 -0.575717 0
M  V30 5618 C 546.409 -4.44584 0.682996 0
M  V30 5619 C 547.728 -4.1768 -1.38677 0
M  V30 5620 H 544.847 -0.731198 -0.0922992 0
M  V30 5621 H 547.489 -1.84352 0.459814 0
M  V30 5622 H 545.639 -3.69914 -1.18725 0
M  V30 5623 H 547.311 -4.41981 1.32102 0
M  V30 5624 H 545.554 -4.13592 1.3086 0
M  V30 5625 H 546.225 -5.5043 0.416001 0
M  V30 5626 H 548.701 -4.0691 -0.869705 0
M  V30 5627 H 547.577 -5.25734 -1.57783 0
M  V30 5628 H 547.838 -3.72069 -2.38782 0
M  V30 5629 N 546.897 -0.0685191 -1.57451 0
M  V30 5630 C 548.143 0.602239 -1.93652 0
M  V30 5631 C 548.476 1.6946 -0.948526 0
M  V30 5632 O 547.751 1.94487 0.022782 0
M  V30 5633 C 548.034 1.18223 -3.4014 0
M  V30 5634 C 547.887 0.0967431 -4.49696 0
M  V30 5635 C 549.206 2.08872 -3.87377 0
M  V30 5636 H 546.325 0.217453 -0.70419 0
M  V30 5637 H 548.967 -0.133821 -1.89528 0
M  V30 5638 H 547.117 1.80953 -3.43785 0
M  V30 5639 H 548.789 -0.536155 -4.58174 0
M  V30 5640 H 547.032 -0.573063 -4.29998 0
M  V30 5641 H 547.703 0.542894 -5.49324 0
M  V30 5642 H 550.179 1.56081 -3.85717 0
M  V30 5643 H 549.055 2.46389 -4.90493 0
M  V30 5644 H 549.316 2.99572 -3.25129 0
M  V30 5645 N 548.375 1.56261 0.205012 0
M  V30 5646 C 549.603 1.84141 0.943386 0
M  V30 5647 C 550.018 0.649772 1.77266 0
M  V30 5648 O 549.375 -0.381612 1.78466 0
M  V30 5649 C 549.426 3.10719 1.84759 0
M  V30 5650 O 549.147 4.25286 1.05181 0
M  V30 5651 C 550.648 3.51706 2.69848 0
M  V30 5652 H 547.868 0.611734 0.275721 0
M  V30 5653 H 550.412 2.03364 0.215253 0
M  V30 5654 H 548.567 2.93422 2.52947 0
M  V30 5655 H 548.981 4.97301 1.66709 0
M  V30 5656 H 550.455 4.43266 3.28967 0
M  V30 5657 H 550.932 2.7423 3.43067 0
M  V30 5658 H 551.538 3.71499 2.07047 0
M  V30 5659 N 549.853 -0.472356 1.50355 0
M  V30 5660 C 551.101 -1.22211 1.60962 0
M  V30 5661 C 551.422 -1.92497 0.311439 0
M  V30 5662 O 550.692 -1.8405 -0.671002 0
M  V30 5663 H 549.272 -0.454092 0.593135 0
M  V30 5664 H 551.934 -0.544977 1.87126 0
M  V30 5665 H 551.03 -1.9707 2.42012 0
M  V30 5666 N 551.331 -1.39911 -0.725443 0
M  V30 5667 C 552.278 -1.39393 -1.83952 0
M  V30 5668 C 553.248 -0.252249 -1.64173 0
M  V30 5669 O 554.433 -0.44882 -1.85446 0
M  V30 5670 C 551.573 -1.25262 -3.21564 0
M  V30 5671 C 550.686 -2.49054 -3.52982 0
M  V30 5672 C 549.821 -2.27439 -4.80047 0
M  V30 5673 C 548.86 -3.46857 -5.04338 0
M  V30 5674 N 547.997 -3.24499 -6.22611 0
M  V30 5675 H 552.837 -2.34622 -1.83729 0
M  V30 5676 H 550.374 -1.16537 -0.897636 0
M  V30 5677 H 552.332 -1.15077 -4.01015 0
M  V30 5678 H 550.962 -0.33657 -3.21041 0
M  V30 5679 H 550.014 -2.69805 -2.6816 0
M  V30 5680 H 551.326 -3.37973 -3.66846 0
M  V30 5681 H 550.48 -2.14551 -5.67497 0
M  V30 5682 H 549.219 -1.35929 -4.68374 0
M  V30 5683 H 548.224 -3.60232 -4.15346 0
M  V30 5684 H 549.449 -4.3928 -5.17889 0
M  V30 5685 H 547.395 -2.35663 -6.12208 0
M  V30 5686 H 547.312 -4.06978 -6.37106 0
M  V30 5687 H 548.58 -3.15325 -7.12875 0
M  V30 5688 N 552.809 0.956637 -1.25245 0
M  V30 5689 C 553.742 2.05232 -0.99775 0
M  V30 5690 C 554.72 1.62439 0.0723137 0
M  V30 5691 O 555.904 1.88381 -0.066926 0
M  V30 5692 C 553.031 3.34871 -0.507861 0
M  V30 5693 C 552.077 3.96625 -1.56815 0
M  V30 5694 S 552.91 4.32853 -3.15276 0
M  V30 5695 C 554.066 5.65613 -2.68017 0
M  V30 5696 H 554.299 2.26521 -1.9255 0
M  V30 5697 H 551.832 1.09601 -1.08752 0
M  V30 5698 H 553.79 4.09845 -0.231858 0
M  V30 5699 H 552.451 3.11551 0.399356 0
M  V30 5700 H 551.644 4.90087 -1.17604 0
M  V30 5701 H 551.246 3.28124 -1.79473 0
M  V30 5702 H 553.538 6.43635 -2.11518 0
M  V30 5703 H 554.481 6.09693 -3.60112 0
M  V30 5704 H 554.889 5.24751 -2.0808 0
M  V30 5705 N 554.287 1.06798 1.15896 0
M  V30 5706 C 555.564 0.701057 1.82605 0
M  V30 5707 C 555.944 -0.817066 1.94646 0
M  V30 5708 O 555.292 -1.72933 1.49353 0
M  V30 5709 C 555.502 1.40895 3.19296 0
M  V30 5710 C 556.85 1.55744 3.95005 0
M  V30 5711 O 557.874 1.36927 3.28831 0
M  V30 5712 O 556.733 1.86658 5.13635 0
M  V30 5713 H 553.827 0.248791 0.78869 0
M  V30 5714 H 556.373 1.16857 1.23055 0
M  V30 5715 H 555.145 2.4439 3.05596 0
M  V30 5716 H 554.768 0.931847 3.86526 0
M  V30 5717 N 555.766 -1.3263 0.851289 0
M  V30 5718 C 556.676 -2.32722 0.296268 0
M  V30 5719 C 557.692 -1.63901 -0.584162 0
M  V30 5720 O 558.868 -1.95465 -0.485334 0
M  V30 5721 C 555.933 -3.42942 -0.509103 0
M  V30 5722 C 554.994 -4.2746 0.397069 0
M  V30 5723 C 554.227 -5.32416 -0.36996 0
M  V30 5724 O 554.45 -5.47491 -1.6003 0
M  V30 5725 O 553.384 -6.01327 0.262493 0
M  V30 5726 H 557.21 -2.82078 1.12543 0
M  V30 5727 H 554.795 -1.36194 0.614135 0
M  V30 5728 H 556.677 -4.1017 -0.96634 0
M  V30 5729 H 555.352 -2.95781 -1.31512 0
M  V30 5730 H 554.259 -3.63053 0.902411 0
M  V30 5731 H 555.592 -4.78136 1.16818 0
M  V30 5732 N 557.244 -0.608902 -1.45362 0
M  V30 5733 C 558.192 0.121639 -2.32282 0
M  V30 5734 C 559.186 0.858301 -1.46046 0
M  V30 5735 O 560.392 0.773718 -1.62523 0
M  V30 5736 H 556.767 0.058086 -0.749753 0
M  V30 5737 H 558.738 -0.629866 -2.91677 0
M  V30 5738 C 557.487 1.1047 -3.29684 0
M  V30 5739 H 556.81 0.547278 -3.96036 0
M  V30 5740 H 558.25 1.58576 -3.9323 0
M  V30 5741 C 556.709 2.17891 -2.56954 0
M  V30 5742 O 557.239 3.25652 -2.35189 0
M  V30 5743 N 555.445 1.93211 -2.17066 0
M  V30 5744 H 554.992 1.05584 -2.34967 0
M  V30 5745 H 554.95 2.6529 -1.68727 0
M  V30 5746 N 558.722 1.53707 -0.348139 0
M  V30 5747 C 559.654 2.22725 0.540946 0
M  V30 5748 C 560.667 1.2354 1.06027 0
M  V30 5749 O 561.856 1.49867 0.96964 0
M  V30 5750 C 558.956 2.89756 1.75768 0
M  V30 5751 C 558.129 4.15297 1.37285 0
M  V30 5752 C 557.188 4.65697 2.44976 0
M  V30 5753 O 556.214 5.29798 2.08092 0
M  V30 5754 N 557.416 4.42017 3.763 0
M  V30 5755 H 560.181 2.99658 -0.0501592 0
M  V30 5756 H 557.742 1.60979 -0.17248 0
M  V30 5757 H 559.734 3.20388 2.47252 0
M  V30 5758 H 558.304 2.16382 2.25605 0
M  V30 5759 H 557.524 3.9116 0.488584 0
M  V30 5760 H 558.812 4.96948 1.09179 0
M  V30 5761 H 558.21 3.9076 4.09051 0
M  V30 5762 H 556.767 4.77242 4.4394 0
M  V30 5763 N 560.2 0.0768682 1.57412 0
M  V30 5764 C 561.447 -0.591085 1.93681 0
M  V30 5765 C 561.775 -1.69311 0.957286 0
M  V30 5766 O 561.03 -1.95682 -0.0262428 0
M  V30 5767 C 561.329 -1.20268 3.36557 0
M  V30 5768 C 560.995 -0.226286 4.50332 0
M  V30 5769 C 559.657 0.0423142 4.81181 0
M  V30 5770 C 562.009 0.441415 5.19327 0
M  V30 5771 C 559.337 0.985616 5.78362 0
M  V30 5772 C 561.689 1.37307 6.17519 0
M  V30 5773 C 560.353 1.65009 6.46783 0
M  V30 5774 H 559.623 -0.216293 0.70873 0
M  V30 5775 H 562.27 0.148824 1.90921 0
M  V30 5776 H 560.575 -2.01844 3.35807 0
M  V30 5777 H 562.272 -1.72688 3.61911 0
M  V30 5778 H 558.862 -0.445821 4.26275 0
M  V30 5779 H 563.046 0.247023 4.95685 0
M  V30 5780 H 558.302 1.20743 5.99359 0
M  V30 5781 H 562.476 1.89637 6.70083 0
M  V30 5782 H 560.103 2.38263 7.21897 0
M  V30 5783 N 561.678 -1.56367 -0.196722 0
M  V30 5784 C 562.924 -1.80796 -0.918725 0
M  V30 5785 C 563.257 -0.650645 -1.82976 0
M  V30 5786 O 562.532 0.348889 -1.91345 0
M  V30 5787 C 562.815 -3.15472 -1.73636 0
M  V30 5788 C 562.668 -4.41693 -0.85015 0
M  V30 5789 C 563.987 -3.46824 -2.70927 0
M  V30 5790 H 561.106 -0.657702 -0.332561 0
M  V30 5791 H 563.748 -1.89086 -0.186186 0
M  V30 5792 H 561.898 -3.08536 -2.36088 0
M  V30 5793 H 563.57 -4.60673 -0.240459 0
M  V30 5794 H 561.813 -4.33517 -0.156785 0
M  V30 5795 H 562.484 -5.32419 -1.45719 0
M  V30 5796 H 564.96 -3.54049 -2.18607 0
M  V30 5797 H 563.836 -4.4218 -3.25219 0
M  V30 5798 H 564.097 -2.70236 -3.49893 0
M  V30 5799 N 563.156 0.464375 -1.50603 0
M  V30 5800 C 564.119 1.54393 -1.69397 0
M  V30 5801 C 565.119 1.50566 -0.564504 0
M  V30 5802 O 566.309 1.53066 -0.831645 0
M  V30 5803 C 563.441 2.9401 -1.72543 0
M  V30 5804 H 564.634 1.39044 -2.65719 0
M  V30 5805 H 562.187 0.69122 -1.40185 0
M  V30 5806 H 562.922 3.14795 -0.77938 0
M  V30 5807 H 562.707 2.98195 -2.54602 0
M  V30 5808 H 564.197 3.72375 -1.89015 0
M  V30 5809 N 564.634 1.40294 0.718013 0
M  V30 5810 C 565.88 1.38645 1.48005 0
M  V30 5811 C 566.213 -0.0121202 1.94196 0
M  V30 5812 O 565.488 -0.980309 1.67989 0
M  V30 5813 C 565.771 2.37379 2.70782 0
M  V30 5814 C 565.624 3.8625 2.30501 0
M  V30 5815 C 566.943 2.33685 3.72933 0
M  V30 5816 H 564.062 0.504928 0.536858 0
M  V30 5817 H 566.704 1.71411 0.819649 0
M  V30 5818 H 564.854 2.09568 3.27129 0
M  V30 5819 H 566.526 4.24879 1.79655 0
M  V30 5820 H 564.769 4.02202 1.6253 0
M  V30 5821 H 565.44 4.50847 3.18498 0
M  V30 5822 H 567.916 2.58314 3.2621 0
M  V30 5823 H 566.792 3.0482 4.56482 0
M  V30 5824 H 567.053 1.34765 4.21059 0
M  V30 5825 N 566.112 -0.949982 1.2575 0
M  V30 5826 C 567.34 -1.72972 1.13527 0
M  V30 5827 C 567.755 -1.8623 -0.310453 0
M  V30 5828 O 567.112 -1.36336 -1.2132 0
M  V30 5829 C 567.163 -3.14108 1.78936 0
M  V30 5830 O 566.884 -3.01493 3.17858 0
M  V30 5831 C 568.385 -4.08338 1.72554 0
M  V30 5832 H 565.605 -0.541864 0.395758 0
M  V30 5833 H 568.149 -1.19151 1.66202 0
M  V30 5834 H 566.304 -3.64858 1.30221 0
M  V30 5835 H 566.718 -3.90559 3.50092 0
M  V30 5836 H 568.192 -5.04963 2.22973 0
M  V30 5837 H 568.669 -4.33742 0.690251 0
M  V30 5838 H 569.275 -3.63506 2.2078 0
M  V30 5839 N 567.59 -1.07411 -1.15328 0
M  V30 5840 C 568.815 -0.818856 -1.90551 0
M  V30 5841 C 569.24 0.622194 -1.77512 0
M  V30 5842 O 568.598 1.43484 -1.10824 0
M  V30 5843 C 568.646 -1.23267 -3.38877 0
M  V30 5844 O 567.75 -0.378345 -4.10661 0
M  V30 5845 H 567.091 -0.29827 -0.593238 0
M  V30 5846 H 569.621 -1.43289 -1.46046 0
M  V30 5847 H 569.631 -1.20912 -3.89672 0
M  V30 5848 H 568.306 -2.28226 -3.47686 0
M  V30 5849 H 566.883 -0.464437 -3.69996 0
M  V30 5850 N 569.068 1.32177 -0.85831 0
M  V30 5851 C 570.296 2.01313 -0.477582 0
M  V30 5852 C 570.711 1.6449 0.926736 0
M  V30 5853 O 570.068 0.868096 1.60531 0
M  V30 5854 C 570.119 3.56293 -0.611337 0
M  V30 5855 O 569.84 3.91794 -1.96034 0
M  V30 5856 C 571.341 4.42702 -0.230093 0
M  V30 5857 H 568.561 0.644323 -0.187322 0
M  V30 5858 H 571.105 1.68674 -1.15626 0
M  V30 5859 H 569.26 3.87395 0.0196494 0
M  V30 5860 H 569.674 4.86513 -1.95973 0
M  V30 5861 H 571.148 5.50727 -0.374674 0
M  V30 5862 H 571.625 4.3129 0.829779 0
M  V30 5863 H 572.231 4.16997 -0.836302 0
M  V30 5864 N 570.547 0.616602 1.45037 0
M  V30 5865 C 571.495 -0.109318 2.32343 0
M  V30 5866 C 572.489 -0.850543 1.465 0
M  V30 5867 O 573.695 -0.765088 1.62931 0
M  V30 5868 H 570.07 -0.0541091 0.750051 0
M  V30 5869 H 572.041 0.645326 2.91338 0
M  V30 5870 C 570.79 -1.0872 3.30266 0
M  V30 5871 H 570.113 -0.526267 3.96321 0
M  V30 5872 H 571.553 -1.56489 3.94065 0
M  V30 5873 C 570.012 -2.16525 2.58105 0
M  V30 5874 O 570.542 -3.244 2.36913 0
M  V30 5875 N 568.748 -1.92057 2.18088 0
M  V30 5876 H 568.295 -1.04337 2.35524 0
M  V30 5877 H 568.253 -2.64391 1.70131 0
M  V30 5878 N 572.025 -1.5352 0.356285 0
M  V30 5879 C 572.988 -2.24071 -0.482182 0
M  V30 5880 C 573.988 -1.24531 -1.01729 0
M  V30 5881 O 575.178 -1.48876 -0.904513 0
M  V30 5882 C 572.31 -2.97025 -1.67299 0
M  V30 5883 H 573.503 -2.99596 0.135031 0
M  V30 5884 H 571.056 -1.55928 0.107825 0
M  V30 5885 H 571.791 -2.25719 -2.32855 0
M  V30 5886 H 571.576 -3.7005 -1.29636 0
M  V30 5887 H 573.066 -3.50683 -2.26741 0
M  V30 5888 N 573.503 -0.0852151 -1.57369 0
M  V30 5889 C 574.466 0.8627 -2.12344 0
M  V30 5890 C 575.466 1.21746 -1.05046 0
M  V30 5891 O 576.656 1.14852 -1.30976 0
M  V30 5892 C 573.788 2.1618 -2.63589 0
M  V30 5893 H 574.981 0.385511 -2.97412 0
M  V30 5894 H 572.534 0.163663 -1.55441 0
M  V30 5895 H 573.269 2.68406 -1.82013 0
M  V30 5896 H 573.054 1.91723 -3.4203 0
M  V30 5897 H 574.544 2.84011 -3.06149 0
M  V30 5898 N 574.981 1.5647 0.188427 0
M  V30 5899 C 575.928 1.95073 1.23349 0
M  V30 5900 C 576.898 0.812238 1.44886 0
M  V30 5901 O 578.083 1.07095 1.57909 0
M  V30 5902 C 575.223 2.30124 2.57171 0
M  V30 5903 C 574.336 3.57069 2.43157 0
M  V30 5904 C 573.471 3.81411 3.69729 0
M  V30 5905 C 572.51 5.0176 3.50575 0
M  V30 5906 N 571.647 5.22321 4.69175 0
M  V30 5907 H 576.487 2.84171 0.89728 0
M  V30 5908 H 574.024 1.40623 0.431683 0
M  V30 5909 H 575.982 2.48463 3.35145 0
M  V30 5910 H 574.612 1.44159 2.88822 0
M  V30 5911 H 573.664 3.4674 1.56447 0
M  V30 5912 H 574.976 4.452 2.24942 0
M  V30 5913 H 574.13 4.00026 4.56141 0
M  V30 5914 H 572.869 2.91624 3.90905 0
M  V30 5915 H 571.874 4.83061 2.62549 0
M  V30 5916 H 573.099 5.93063 3.30837 0
M  V30 5917 H 571.045 4.35483 4.90602 0
M  V30 5918 H 570.962 6.04643 4.53809 0
M  V30 5919 H 572.23 5.45401 5.56919 0
M  V30 5920 N 576.459 -0.456382 1.50847 0
M  V30 5921 C 577.705 -1.20914 1.62811 0
M  V30 5922 C 578.038 -1.91301 0.334304 0
M  V30 5923 O 577.313 -1.82775 -0.665098 0
M  V30 5924 C 577.596 -2.24122 2.81853 0
M  V30 5925 C 577.449 -1.57944 4.21158 0
M  V30 5926 C 578.768 -3.25295 2.96431 0
M  V30 5927 H 575.887 -0.438233 0.592554 0
M  V30 5928 H 578.529 -0.50091 1.83278 0
M  V30 5929 H 576.679 -2.84524 2.64534 0
M  V30 5930 H 578.351 -1.01025 4.50102 0
M  V30 5931 H 576.594 -0.882185 4.24735 0
M  V30 5932 H 577.265 -2.33014 5.00408 0
M  V30 5933 H 579.741 -2.7493 3.12335 0
M  V30 5934 H 578.617 -3.94822 3.81322 0
M  V30 5935 H 578.878 -3.90286 2.07676 0
M  V30 5936 N 577.937 -1.40673 -0.710563 0
M  V30 5937 C 579.184 -1.39222 -1.47049 0
M  V30 5938 C 579.512 0.0037691 -1.945 0
M  V30 5939 O 578.767 0.989224 -1.68857 0
M  V30 5940 C 579.066 -2.33253 -2.70791 0
M  V30 5941 C 578.732 -3.80406 -2.42079 0
M  V30 5942 C 577.394 -4.20496 -2.33959 0
M  V30 5943 C 579.746 -4.73375 -2.18094 0
M  V30 5944 C 577.074 -5.51584 -1.99929 0
M  V30 5945 C 579.426 -6.04768 -1.85576 0
M  V30 5946 C 578.09 -6.43895 -1.75941 0
M  V30 5947 H 577.36 -0.509449 -0.538092 0
M  V30 5948 H 580.007 -1.73363 -0.81348 0
M  V30 5949 H 578.312 -1.92314 -3.41354 0
M  V30 5950 H 580.009 -2.29412 -3.28894 0
M  V30 5951 H 576.599 -3.48645 -2.49288 0
M  V30 5952 H 580.783 -4.43217 -2.23321 0
M  V30 5953 H 576.039 -5.80797 -1.91011 0
M  V30 5954 H 580.213 -6.76318 -1.66033 0
M  V30 5955 H 577.84 -7.45387 -1.4934 0
M  V30 5956 N 579.415 0.9433 -1.26252 0
M  V30 5957 C 580.363 2.06302 -1.07434 0
M  V30 5958 C 581.357 1.694 -0.00189471 0
M  V30 5959 O 582.563 1.79302 -0.158408 0
M  V30 5960 H 578.938 0.675453 -0.330556 0
M  V30 5961 H 580.909 2.19326 -2.02333 0
M  V30 5962 C 579.658 3.40125 -0.721817 0
M  V30 5963 H 578.981 3.68996 -1.5389 0
M  V30 5964 H 580.421 4.19295 -0.629922 0
M  V30 5965 C 578.88 3.31993 0.572902 0
M  V30 5966 O 579.41 3.67945 1.61182 0
M  V30 5967 N 577.616 2.85099 0.562748 0
M  V30 5968 H 577.163 2.5604 -0.283092 0
M  V30 5969 H 577.121 2.80041 1.42915 0
M  V30 5970 N 580.893 1.08022 1.14757 0
M  V30 5971 C 581.823 0.728248 2.21853 0
M  V30 5972 C 582.804 -0.287486 1.67653 0
M  V30 5973 O 583.989 -0.158727 1.9355 0
M  V30 5974 C 581.119 0.132549 3.47047 0
M  V30 5975 C 580.073 1.07619 4.14249 0
M  V30 5976 C 579.399 0.342907 5.33599 0
M  V30 5977 C 580.699 2.41268 4.63235 0
M  V30 5978 H 582.393 1.62365 2.51551 0
M  V30 5979 H 579.939 0.782125 1.20908 0
M  V30 5980 H 581.892 -0.125665 4.21213 0
M  V30 5981 H 580.616 -0.797971 3.16702 0
M  V30 5982 H 579.275 1.31944 3.42033 0
M  V30 5983 H 578.923 -0.59129 4.99513 0
M  V30 5984 H 578.623 0.971955 5.79506 0
M  V30 5985 H 580.147 0.0926538 6.1053 0
M  V30 5986 H 581.561 2.21232 5.28894 0
M  V30 5987 H 579.958 2.9983 5.19829 0
M  V30 5988 H 581.028 3.03079 3.78512 0
M  V30 5989 N 582.371 -1.3172 0.865308 0
M  V30 5990 C 583.601 -2.00765 0.487543 0
M  V30 5991 C 584.009 -1.65145 -0.92325 0
M  V30 5992 O 583.352 -0.874294 -1.61561 0
M  V30 5993 C 583.414 -3.55122 0.559369 0
M  V30 5994 C 583.078 -4.14202 1.93095 0
M  V30 5995 C 584.075 -4.3165 2.89784 0
M  V30 5996 C 581.76 -4.50036 2.23099 0
M  V30 5997 C 583.754 -4.84114 4.14623 0
M  V30 5998 C 581.441 -5.02203 3.48189 0
M  V30 5999 C 582.439 -5.19192 4.43767 0
M  V30 6000 O 582.127 -5.70241 5.6664 0
M  V30 6001 H 581.859 -0.649066 0.188915 0
M  V30 6002 H 584.413 -1.69032 1.16694 0
M  V30 6003 H 582.643 -3.86295 -0.176926 0
M  V30 6004 H 584.332 -4.05428 0.195694 0
M  V30 6005 H 585.098 -4.04288 2.6791 0
M  V30 6006 H 580.977 -4.36091 1.49485 0
M  V30 6007 H 584.521 -4.9729 4.89233 0
M  V30 6008 H 580.418 -5.28997 3.69908 0
M  V30 6009 H 581.186 -5.88617 5.68746 0
M  V30 6010 N 583.85 -0.624285 -1.44708 0
M  V30 6011 C 585.26 -0.2092 -1.85524 0
M  V30 6012 C 585.611 1.23783 -1.52225 0
M  V30 6013 O 584.736 1.94089 -0.956986 0
M  V30 6014 C 585.332 -0.372897 -3.36742 0
M  V30 6015 C 583.891 -0.012374 -3.76398 0
M  V30 6016 C 583.038 -0.68951 -2.68591 0
M  V30 6017 H 585.989 -0.829894 -1.35272 0
M  V30 6018 H 586.01 0.390134 -3.78495 0
M  V30 6019 H 585.522 -1.42615 -3.60947 0
M  V30 6020 H 583.623 1.03941 -3.57809 0
M  V30 6021 H 583.736 -0.417663 -4.77276 0
M  V30 6022 H 582.1 -0.125484 -2.54391 0
M  V30 6023 H 582.883 -1.74522 -2.9563 0
M  V30 6024 N 585.328 1.53329 -0.364422 0
M  V30 6025 C 586.744 1.59594 -0.0133165 0
M  V30 6026 C 586.944 1.37959 1.46865 0
M  V30 6027 O 586 1.18418 2.2301 0
M  V30 6028 C 587.313 2.97032 -0.468213 0
M  V30 6029 C 588.861 3.10138 -0.422334 0
M  V30 6030 C 589.336 4.49986 -0.853024 0
M  V30 6031 N 590.827 4.56098 -0.808037 0
M  V30 6032 C 591.562 5.62495 -1.11299 0
M  V30 6033 N 591.058 6.7665 -1.48717 0
M  V30 6034 N 592.851 5.52473 -1.03586 0
M  V30 6035 H 585.002 1.65644 -1.32951 0
M  V30 6036 H 587.265 0.77684 -0.543345 0
M  V30 6037 H 586.971 3.18 -1.5023 0
M  V30 6038 H 586.845 3.76918 0.145775 0
M  V30 6039 H 589.232 2.88881 0.602622 0
M  V30 6040 H 589.313 2.32263 -1.0718 0
M  V30 6041 H 588.957 4.7198 -1.87609 0
M  V30 6042 H 588.887 5.26289 -0.180819 0
M  V30 6043 H 591.378 3.74131 -0.532361 0
M  V30 6044 H 591.691 7.53776 -1.70415 0
M  V30 6045 H 590.036 6.78044 -1.52581 0
M  V30 6046 H 593.227 4.6217 -0.742736 0
M  V30 6047 H 593.4 6.35295 -1.27686 0
M  V30 6048 N 586.806 0.0935595 1.57322 0
M  V30 6049 C 587.753 -0.865935 2.1394 0
M  V30 6050 C 588.723 -1.28083 1.05754 0
M  V30 6051 O 589.908 -1.36285 1.33533 0
M  V30 6052 C 587.048 -2.12023 2.72287 0
M  V30 6053 C 586.161 -1.756 3.94701 0
M  V30 6054 C 585.296 -2.95804 4.41218 0
M  V30 6055 C 584.335 -2.555 5.56225 0
M  V30 6056 N 583.472 -3.68534 5.97601 0
M  V30 6057 H 588.312 -0.376261 2.95615 0
M  V30 6058 H 585.849 -0.174052 1.46067 0
M  V30 6059 H 587.807 -2.85477 3.04235 0
M  V30 6060 H 586.437 -2.58492 1.93343 0
M  V30 6061 H 585.489 -0.921208 3.69077 0
M  V30 6062 H 586.801 -1.41964 4.78171 0
M  V30 6063 H 585.955 -3.77513 4.74941 0
M  V30 6064 H 584.694 -3.32649 3.56645 0
M  V30 6065 H 583.699 -1.72218 5.22131 0
M  V30 6066 H 584.924 -2.19801 6.42545 0
M  V30 6067 H 582.87 -4.051 5.15974 0
M  V30 6068 H 582.787 -3.38737 6.75865 0
M  V30 6069 H 584.055 -4.50757 6.35955 0
M  V30 6070 N 588.284 -1.56567 -0.180126 0
M  V30 6071 C 589.532 -1.81133 -0.896392 0
M  V30 6072 C 589.853 -0.669114 -1.83161 0
M  V30 6073 O 589.123 0.311616 -1.93406 0
M  V30 6074 H 587.703 -0.668172 -0.333999 0
M  V30 6075 H 590.365 -1.94048 -0.182051 0
M  V30 6076 H 589.461 -2.74854 -1.47857 0
M  V30 6077 N 589.762 0.448376 -1.51087 0
M  V30 6078 C 591.178 0.783984 -1.39017 0
M  V30 6079 C 591.378 1.96087 -0.463904 0
M  V30 6080 O 590.434 2.52357 0.0850534 0
M  V30 6081 C 591.747 1.07471 -2.80839 0
M  V30 6082 C 593.295 1.17981 -2.89913 0
M  V30 6083 C 593.77 1.50354 -4.32617 0
M  V30 6084 N 595.261 1.57301 -4.35673 0
M  V30 6085 C 595.996 1.839 -5.4311 0
M  V30 6086 N 595.492 2.08365 -6.60724 0
M  V30 6087 N 597.285 1.8559 -5.30578 0
M  V30 6088 H 589.436 -0.326881 -2.0987 0
M  V30 6089 H 591.699 -0.0838006 -0.944289 0
M  V30 6090 H 591.405 0.282768 -3.50561 0
M  V30 6091 H 591.279 2.00519 -3.19487 0
M  V30 6092 H 593.666 1.9624 -2.20395 0
M  V30 6093 H 593.747 0.228603 -2.54776 0
M  V30 6094 H 593.391 0.726273 -5.0268 0
M  V30 6095 H 593.321 2.46663 -4.65258 0
M  V30 6096 H 595.812 1.40342 -3.50874 0
M  V30 6097 H 596.125 2.27999 -7.38401 0
M  V30 6098 H 594.47 2.0571 -6.63859 0
M  V30 6099 H 597.661 1.65989 -4.37682 0
M  V30 6100 H 597.834 2.05983 -6.1439 0
M  V30 6101 N 591.24 1.41047 0.703093 0
M  V30 6102 C 592.489 1.39301 1.4587 0
M  V30 6103 C 592.802 0.00267077 1.956 0
M  V30 6104 O 594.008 -0.137414 2.71152 0
M  V30 6105 C 592.464 2.44891 2.63735 0
M  V30 6106 C 592.072 3.89796 2.20824 0
M  V30 6107 C 593.816 2.5227 3.41409 0
M  V30 6108 C 591.723 4.86955 3.35602 0
M  V30 6109 H 590.653 0.518005 0.547893 0
M  V30 6110 H 593.304 1.66839 0.764009 0
M  V30 6111 H 591.686 2.10472 3.35436 0
M  V30 6112 H 592.86 4.33424 1.56461 0
M  V30 6113 H 591.175 3.86008 1.56163 0
M  V30 6114 H 593.772 3.22044 4.26839 0
M  V30 6115 H 594.115 1.55714 3.86081 0
M  V30 6116 H 594.648 2.85742 2.7676 0
M  V30 6117 H 591.387 5.84888 2.9595 0
M  V30 6118 H 590.907 4.47982 3.98839 0
M  V30 6119 H 592.586 5.07361 4.01489 0
M  V30 6120 N 592.718 -0.936591 1.26751 0
M  V30 6121 C 593.681 -2.01752 1.08761 0
M  V30 6122 C 594.681 -1.60763 0.0344435 0
M  V30 6123 O 595.871 -1.71963 0.278258 0
M  V30 6124 C 593.003 -3.34543 0.655271 0
M  V30 6125 H 594.196 -2.19143 2.04735 0
M  V30 6126 H 591.749 -1.11618 1.09413 0
M  V30 6127 H 592.484 -3.22851 -0.30626 0
M  V30 6128 H 592.269 -3.65647 1.41578 0
M  V30 6129 H 593.759 -4.13944 0.551378 0
M  V30 6130 N 594.196 -1.08629 -1.14182 0
M  V30 6131 C 595.442 -0.818556 -1.85546 0
M  V30 6132 C 595.775 0.654076 -1.82854 0
M  V30 6133 O 595.05 1.48099 -1.26083 0
M  V30 6134 C 595.333 -1.34397 -3.3408 0
M  V30 6135 C 595.186 -2.8821 -3.45333 0
M  V30 6136 C 596.505 -0.971069 -4.29253 0
M  V30 6137 H 593.624 -0.298821 -0.673702 0
M  V30 6138 H 596.266 -1.34629 -1.34071 0
M  V30 6139 H 594.416 -0.895064 -3.78049 0
M  V30 6140 H 596.088 -3.41488 -3.10134 0
M  V30 6141 H 594.331 -3.25756 -2.86471 0
M  V30 6142 H 595.002 -3.20047 -4.49749 0
M  V30 6143 H 597.478 -1.35809 -3.93313 0
M  V30 6144 H 596.354 -1.36586 -5.31635 0
M  V30 6145 H 596.615 0.121659 -4.41933 0
M  V30 6146 N 595.674 1.31259 -0.872281 0
M  V30 6147 C 596.922 1.96233 -0.483409 0
M  V30 6148 C 597.243 1.69276 0.968012 0
M  V30 6149 O 596.513 1.00943 1.67891 0
M  V30 6150 H 595.093 0.726025 -0.175774 0
M  V30 6151 H 597.755 1.60024 -1.11258 0
M  V30 6152 H 596.851 3.05403 -0.643075 0
M  V30 6153 N 597.152 0.631951 1.44375 0
M  V30 6154 C 598.377 0.142146 2.06912 0
M  V30 6155 C 598.802 -1.17456 1.4692 0
M  V30 6156 O 598.16 -1.72074 0.570975 0
M  V30 6157 C 598.208 0.0417952 3.60576 0
M  V30 6158 O 597.312 -1.00194 4.00044 0
M  V30 6159 H 596.653 0.0851491 0.658518 0
M  V30 6160 H 599.183 0.868863 1.85235 0
M  V30 6161 H 599.193 -0.148517 4.0773 0
M  V30 6162 H 597.868 1.0031 4.03622 0
M  V30 6163 H 596.445 -0.786131 3.64519 0
M  V30 6164 N 598.631 -1.53133 0.372548 0
M  V30 6165 C 599.908 -1.93704 -0.271693 0
M  V30 6166 C 600.288 -1.30667 -1.65799 0
M  V30 6167 O 599.636 -0.46838 -2.23648 0
M  V30 6168 C 599.846 -3.47576 -0.314903 0
M  V30 6169 C 601.194 -4.20998 -0.551912 0
M  V30 6170 O 602.218 -3.53994 -0.39582 0
M  V30 6171 O 601.077 -5.39748 -0.85639 0
M  V30 6172 H 598.171 -0.810457 -0.164586 0
M  V30 6173 H 600.717 -1.6427 0.425838 0
M  V30 6174 H 599.489 -3.85749 0.656792 0
M  V30 6175 H 599.112 -3.83264 -1.05804 0
M  V30 6176 N 600.109 -0.101901 -1.5727 0
M  V30 6177 C 601.072 0.840129 -2.13247 0
M  V30 6178 C 602.072 1.20625 -1.06331 0
M  V30 6179 O 603.262 1.13456 -1.32186 0
M  V30 6180 C 600.394 2.13372 -2.65867 0
M  V30 6181 H 601.587 0.353945 -2.97804 0
M  V30 6182 H 599.14 0.147167 -1.55606 0
M  V30 6183 H 599.875 2.66461 -1.84849 0
M  V30 6184 H 599.66 1.88085 -3.44044 0
M  V30 6185 H 601.15 2.80748 -3.09145 0
M  V30 6186 N 601.587 1.56661 0.17182 0
M  V30 6187 C 602.864 1.72838 0.915778 0
M  V30 6188 C 603.244 0.66316 2.00413 0
M  V30 6189 O 602.592 -0.322123 2.26218 0
M  V30 6190 C 602.802 3.16019 1.48097 0
M  V30 6191 C 604.15 3.76962 1.95408 0
M  V30 6192 O 605.174 3.19294 1.57892 0
M  V30 6193 O 604.033 4.78219 2.64516 0
M  V30 6194 H 601.127 0.705797 0.431021 0
M  V30 6195 H 603.673 1.68947 0.159689 0
M  V30 6196 H 602.445 3.85031 0.697618 0
M  V30 6197 H 602.068 3.24234 2.30126 0
M  V30 6198 N 603.065 -0.440357 1.51323 0
M  V30 6199 C 603.995 -1.54174 1.75364 0
M  V30 6200 C 604.976 -1.59039 0.603375 0
M  V30 6201 O 606.161 -1.74815 0.845774 0
M  V30 6202 C 603.291 -2.92277 1.87593 0
M  V30 6203 C 602.245 -3.02274 3.03009 0
M  V30 6204 C 601.571 -4.42327 3.00418 0
M  V30 6205 C 602.871 -2.76634 4.43024 0
M  V30 6206 H 604.565 -1.34307 2.67585 0
M  V30 6207 H 602.111 -0.644678 1.28763 0
M  V30 6208 H 604.064 -3.69284 2.02995 0
M  V30 6209 H 602.788 -3.13369 0.920179 0
M  V30 6210 H 601.447 -2.27706 2.87307 0
M  V30 6211 H 601.095 -4.60382 2.02626 0
M  V30 6212 H 600.795 -4.49946 3.77918 0
M  V30 6213 H 602.319 -5.21312 3.17909 0
M  V30 6214 H 603.733 -3.43376 4.59093 0
M  V30 6215 H 602.13 -2.95666 5.22208 0
M  V30 6216 H 603.2 -1.72262 4.5327 0
M  V30 6217 N 604.543 -1.41418 -0.695603 0
M  V30 6218 C 605.789 -1.40982 -1.4578 0
M  V30 6219 C 606.122 -0.0187763 -1.94191 0
M  V30 6220 O 605.397 0.95346 -1.69527 0
M  V30 6221 C 605.68 -2.41657 -2.66972 0
M  V30 6222 C 605.533 -3.89869 -2.24327 0
M  V30 6223 C 606.852 -2.39589 -3.69168 0
M  V30 6224 H 603.971 -0.513405 -0.528757 0
M  V30 6225 H 606.613 -1.72693 -0.792275 0
M  V30 6226 H 604.763 -2.14746 -3.23754 0
M  V30 6227 H 606.435 -4.27683 -1.72872 0
M  V30 6228 H 604.678 -4.04737 -1.56111 0
M  V30 6229 H 605.349 -4.55857 -3.11285 0
M  V30 6230 H 607.825 -2.63471 -3.2206 0
M  V30 6231 H 606.701 -3.12044 -4.51575 0
M  V30 6232 H 606.962 -1.41447 -4.18862 0
M  V30 6233 N 606.021 0.929856 -1.27246 0
M  V30 6234 C 607.27 1.67182 -1.12842 0
M  V30 6235 C 607.583 1.9287 0.325666 0
M  V30 6236 O 608.789 2.64999 0.590572 0
M  V30 6237 C 607.245 3.01097 -1.97151 0
M  V30 6238 C 606.853 2.83115 -3.47203 0
M  V30 6239 C 608.597 3.78907 -1.91389 0
M  V30 6240 C 606.504 4.12573 -4.23719 0
M  V30 6241 H 605.434 0.627064 -0.418697 0
M  V30 6242 H 608.085 1.0332 -1.51649 0
M  V30 6243 H 606.467 3.66004 -1.51186 0
M  V30 6244 H 607.641 2.26989 -4.01015 0
M  V30 6245 H 605.956 2.18736 -3.54321 0
M  V30 6246 H 608.553 4.74837 -2.45834 0
M  V30 6247 H 608.896 4.0674 -0.887047 0
M  V30 6248 H 609.429 3.20794 -2.35237 0
M  V30 6249 H 606.168 3.8992 -5.26918 0
M  V30 6250 H 605.688 4.68371 -3.74685 0
M  V30 6251 H 607.367 4.8095 -4.32777 0
M  V30 6252 N 607.499 1.09233 1.13605 0
M  V30 6253 C 608.745 0.838255 1.85324 0
M  V30 6254 C 609.1 -0.629314 1.81817 0
M  V30 6255 O 608.393 -1.45729 1.24393 0
M  V30 6256 C 608.587 1.305 3.32723 0
M  V30 6257 C 608.416 2.81641 3.50583 0
M  V30 6258 C 607.186 3.49494 3.64941 0
M  V30 6259 C 609.384 3.79789 3.46792 0
M  V30 6260 N 607.366 4.89082 3.71042 0
M  V30 6261 C 608.737 5.05319 3.59239 0
M  V30 6262 C 610.792 3.72673 3.30181 0
M  V30 6263 C 609.495 6.24574 3.56791 0
M  V30 6264 C 611.521 4.91413 3.29039 0
M  V30 6265 C 610.883 6.15785 3.42035 0
M  V30 6266 H 606.982 0.359572 0.69443 0
M  V30 6267 H 609.566 1.39232 1.36098 0
M  V30 6268 H 607.737 0.778411 3.8052 0
M  V30 6269 H 609.469 0.996465 3.92241 0
M  V30 6270 H 606.224 2.9992 3.66531 0
M  V30 6271 H 606.648 5.61787 3.77789 0
M  V30 6272 H 611.29 2.77444 3.19037 0
M  V30 6273 H 609.008 7.20105 3.66708 0
M  V30 6274 H 612.594 4.87604 3.17386 0
M  V30 6275 H 611.474 7.06126 3.41111 0
M  V30 6276 N 608.977 -1.30795 0.87923 0
M  V30 6277 C 610.254 -1.91145 0.415086 0
M  V30 6278 C 610.634 -1.7995 -1.10368 0
M  V30 6279 O 609.982 -1.21305 -1.93642 0
M  V30 6280 C 610.192 -3.37014 0.906778 0
M  V30 6281 C 611.54 -4.14101 0.938358 0
M  V30 6282 O 612.564 -3.45834 0.853053 0
M  V30 6283 O 611.423 -5.36054 1.06342 0
M  V30 6284 H 608.517 -0.81736 0.125905 0
M  V30 6285 H 611.063 -1.39401 0.967753 0
M  V30 6286 H 609.835 -3.3922 1.95053 0
M  V30 6287 H 609.458 -3.96204 0.332948 0
M  V30 6288 N 610.455 -0.639598 -1.44038 0
M  V30 6289 C 611.866 -0.228866 -1.85292 0
M  V30 6290 C 612.217 1.22161 -1.53529 0
M  V30 6291 O 611.342 1.93064 -0.977518 0
M  V30 6292 C 611.937 -0.408592 -3.36327 0
M  V30 6293 C 610.496 -0.0522953 -3.76364 0
M  V30 6294 C 609.643 -0.717959 -2.67844 0
M  V30 6295 H 612.594 -0.844194 -1.34384 0
M  V30 6296 H 612.615 0.349968 -3.78887 0
M  V30 6297 H 612.127 -1.46435 -3.59414 0
M  V30 6298 H 610.228 1.0014 -3.58891 0
M  V30 6299 H 610.341 -0.468261 -4.76806 0
M  V30 6300 H 608.705 -0.152459 -2.54243 0
M  V30 6301 H 609.488 -1.77648 -2.93762 0
M  V30 6302 N 611.933 1.52934 -0.380664 0
M  V30 6303 C 613.21 1.93845 0.261417 0
M  V30 6304 C 613.59 1.31544 1.65104 0
M  V30 6305 O 612.938 0.480234 2.23397 0
M  V30 6306 C 613.148 3.47739 0.296466 0
M  V30 6307 C 614.496 4.21284 0.529578 0
M  V30 6308 O 615.52 3.54199 0.377041 0
M  V30 6309 O 614.379 5.40195 0.827753 0
M  V30 6310 H 611.473 0.811318 0.160285 0
M  V30 6311 H 614.019 1.64042 -0.434544 0
M  V30 6312 H 612.791 3.85395 -0.67724 0
M  V30 6313 H 612.414 3.8382 1.0377 0
M  V30 6314 N 613.412 0.11024 1.57214 0
M  V30 6315 C 614.637 -0.561179 1.99664 0
M  V30 6316 C 615.062 -1.59985 0.989266 0
M  V30 6317 O 614.42 -1.81255 -0.0402399 0
M  V30 6318 C 614.468 -1.17189 3.41027 0
M  V30 6319 O 613.572 -2.28755 3.4314 0
M  V30 6320 H 612.913 -0.14101 0.648855 0
M  V30 6321 H 615.443 0.196128 2.03658 0
M  V30 6322 H 615.453 -1.50954 3.79047 0
M  V30 6323 H 614.128 -0.411041 4.13864 0
M  V30 6324 H 612.705 -1.96495 3.16929 0
M  V30 6325 N 614.89 -1.56749 -0.16351 0
M  V30 6326 C 616.136 -1.82704 -0.880168 0
M  V30 6327 C 616.469 -0.689311 -1.81555 0
M  V30 6328 O 615.744 0.308224 -1.92042 0
M  V30 6329 C 616.027 -3.19084 -1.66905 0
M  V30 6330 C 615.88 -4.43397 -0.756269 0
M  V30 6331 C 617.199 -3.52493 -2.63509 0
M  V30 6332 H 614.318 -0.664608 -0.318535 0
M  V30 6333 H 616.96 -1.89438 -0.146036 0
M  V30 6334 H 615.11 -3.13475 -2.2949 0
M  V30 6335 H 616.782 -4.61079 -0.14269 0
M  V30 6336 H 615.025 -4.33752 -0.0647944 0
M  V30 6337 H 615.696 -5.3539 -1.34393 0
M  V30 6338 H 618.172 -3.58606 -2.11047 0
M  V30 6339 H 617.048 -4.48979 -3.15767 0
M  V30 6340 H 617.309 -2.77597 -3.44082 0
M  V30 6341 N 616.368 0.432326 -1.51554 0
M  V30 6342 C 617.315 1.52512 -1.7323 0
M  V30 6343 C 618.285 1.55863 -0.5741 0
M  V30 6344 O 619.47 1.72796 -0.809093 0
M  V30 6345 C 616.61 2.90183 -1.86783 0
M  V30 6346 C 615.723 2.96322 -3.14352 0
M  V30 6347 C 614.858 4.25147 -3.18471 0
M  V30 6348 C 613.897 4.25172 -4.40335 0
M  V30 6349 N 613.034 5.45529 -4.41975 0
M  V30 6350 H 617.874 1.33332 -2.66508 0
M  V30 6351 H 615.411 0.647613 -1.32077 0
M  V30 6352 H 617.369 3.70071 -1.92623 0
M  V30 6353 H 615.999 3.0791 -0.969087 0
M  V30 6354 H 615.051 2.09066 -3.17798 0
M  V30 6355 H 616.363 2.92203 -4.04251 0
M  V30 6356 H 615.517 5.13411 -3.23255 0
M  V30 6357 H 614.256 4.31929 -2.2647 0
M  V30 6358 H 613.261 3.353 -4.35723 0
M  V30 6359 H 614.486 4.20049 -5.33606 0
M  V30 6360 H 612.432 5.53024 -3.52847 0
M  V30 6361 H 612.349 5.43311 -5.25689 0
M  V30 6362 H 613.617 6.35812 -4.50958 0
M  V30 6363 N 617.846 1.41785 0.688094 0
M  V30 6364 C 619.074 1.44915 1.47673 0
M  V30 6365 C 619.489 0.0565786 1.88715 0
M  V30 6366 O 618.846 -0.92579 1.57275 0
M  V30 6367 C 618.897 2.36452 2.73446 0
M  V30 6368 O 618.618 3.7029 2.34131 0
M  V30 6369 C 620.119 2.48463 3.67125 0
M  V30 6370 H 617.339 0.493324 0.454832 0
M  V30 6371 H 619.883 1.86153 0.846594 0
M  V30 6372 H 618.038 1.98502 3.3268 0
M  V30 6373 H 618.452 4.19183 3.15255 0
M  V30 6374 H 619.926 3.16662 4.52138 0
M  V30 6375 H 620.403 1.51826 4.12123 0
M  V30 6376 H 621.009 2.8708 3.13792 0
M  V30 6377 N 619.324 -0.923095 1.27737 0
M  V30 6378 C 620.573 -1.66581 1.13727 0
M  V30 6379 C 620.886 -1.9304 -0.315433 0
M  V30 6380 O 622.092 -2.65309 -0.57651 0
M  V30 6381 C 620.548 -3.00047 1.98745 0
M  V30 6382 C 620.156 -2.8127 3.48699 0
M  V30 6383 C 621.9 -3.77887 1.93395 0
M  V30 6384 C 619.807 -4.1032 4.25901 0
M  V30 6385 H 618.737 -0.624834 0.422017 0
M  V30 6386 H 621.388 -1.02514 1.52194 0
M  V30 6387 H 619.77 -3.65197 1.53125 0
M  V30 6388 H 620.944 -2.24859 4.02213 0
M  V30 6389 H 619.259 -2.16854 3.55476 0
M  V30 6390 H 621.856 -4.73526 2.48348 0
M  V30 6391 H 622.199 -4.06264 0.908605 0
M  V30 6392 H 622.732 -3.19541 2.36935 0
M  V30 6393 H 619.471 -3.8712 5.28978 0
M  V30 6394 H 618.991 -4.66377 3.77163 0
M  V30 6395 H 620.67 -4.78648 4.35321 0
M  V30 6396 N 620.802 -1.09834 -1.13024 0
M  V30 6397 C 622.027 -0.85909 -1.88771 0
M  V30 6398 C 622.452 0.584402 -1.78791 0
M  V30 6399 O 621.81 1.41101 -1.13842 0
M  V30 6400 C 621.858 -1.30427 -3.36186 0
M  V30 6401 O 620.962 -0.465368 -4.09766 0
M  V30 6402 H 620.303 -0.310786 -0.586778 0
M  V30 6403 H 622.833 -1.46355 -1.42973 0
M  V30 6404 H 622.843 -1.2915 -3.8702 0
M  V30 6405 H 621.518 -2.3555 -3.42767 0
M  V30 6406 H 620.095 -0.542814 -3.68928 0
M  V30 6407 N 622.28 1.30327 -0.886154 0
M  V30 6408 C 623.243 2.26376 -0.358687 0
M  V30 6409 C 624.243 1.52845 0.499498 0
M  V30 6410 O 625.433 1.71483 0.306485 0
M  V30 6411 C 622.565 3.37379 0.488726 0
M  V30 6412 H 623.758 2.74547 -1.20681 0
M  V30 6413 H 621.311 1.41536 -0.663113 0
M  V30 6414 H 622.046 2.94526 1.35739 0
M  V30 6415 H 621.831 3.91897 -0.126003 0
M  V30 6416 H 623.321 4.08868 0.84952 0
M  V30 6417 N 623.758 0.647228 1.43697 0
M  V30 6418 C 624.705 -0.0480092 2.3075 0
M  V30 6419 C 625.675 -0.820705 1.44408 0
M  V30 6420 O 626.86 -0.798515 1.73287 0
M  V30 6421 C 624 -1.01259 3.2991 0
M  V30 6422 C 623.113 -0.236629 4.31351 0
M  V30 6423 C 622.248 -1.19447 5.17596 0
M  V30 6424 C 621.287 -0.408595 6.10735 0
M  V30 6425 N 620.424 -1.31772 6.89623 0
M  V30 6426 H 625.264 0.700238 2.89656 0
M  V30 6427 H 622.801 0.357082 1.427 0
M  V30 6428 H 624.759 -1.58538 3.85903 0
M  V30 6429 H 623.389 -1.72778 2.72667 0
M  V30 6430 H 622.441 0.452353 3.77701 0
M  V30 6431 H 623.753 0.374731 4.9739 0
M  V30 6432 H 622.907 -1.83809 5.78186 0
M  V30 6433 H 621.646 -1.83975 4.51669 0
M  V30 6434 H 620.651 0.24841 5.49239 0
M  V30 6435 H 621.876 0.232188 6.78703 0
M  V30 6436 H 619.822 -1.94991 6.2635 0
M  V30 6437 H 619.739 -0.760779 7.52162 0
M  V30 6438 H 621.007 -1.94967 7.54724 0
M  V30 6439 N 625.236 -1.5273 0.388769 0
M  V30 6440 C 626.464 -2.05992 -0.193677 0
M  V30 6441 C 626.879 -1.26053 -1.40557 0
M  V30 6442 O 626.236 -0.307049 -1.79898 0
M  V30 6443 C 626.287 -3.57068 -0.564321 0
M  V30 6444 O 626.008 -4.3398 0.599422 0
M  V30 6445 C 627.509 -4.26674 -1.20269 0
M  V30 6446 H 624.729 -0.670358 -0.0293445 0
M  V30 6447 H 627.273 -1.96857 0.553844 0
M  V30 6448 H 625.428 -3.66277 -1.26174 0
M  V30 6449 H 625.842 -5.2367 0.294895 0
M  V30 6450 H 627.316 -5.33625 -1.4124 0
M  V30 6451 H 627.793 -3.81854 -2.16989 0
M  V30 6452 H 628.399 -4.2178 -0.546047 0
M  V30 6453 N 626.714 -0.118576 -1.57153 0
M  V30 6454 C 627.664 0.842924 -2.11846 0
M  V30 6455 C 628.648 1.22845 -1.03914 0
M  V30 6456 O 629.84 1.19961 -1.30148 0
M  V30 6457 C 626.969 2.09312 -2.72109 0
M  V30 6458 C 626.055 1.73198 -3.87122 0
M  V30 6459 N 626.446 1.07758 -4.94188 0
M  V30 6460 C 624.744 2.02659 -3.97298 0
M  V30 6461 C 625.445 0.907741 -5.74574 0
M  V30 6462 N 624.421 1.4326 -5.24383 0
M  V30 6463 H 628.223 0.333416 -2.92003 0
M  V30 6464 H 625.737 0.0839073 -1.62183 0
M  V30 6465 H 627.734 2.79162 -3.09635 0
M  V30 6466 H 626.394 2.60807 -1.93416 0
M  V30 6467 H 627.405 0.741613 -5.12563 0
M  V30 6468 H 624.082 2.56204 -3.29645 0
M  V30 6469 H 625.472 0.394112 -6.70743 0
M  V30 6470 N 628.193 1.56834 0.155195 0
M  V30 6471 C 629.141 1.98584 1.21107 0
M  V30 6472 C 630.135 0.876987 1.44932 0
M  V30 6473 O 631.341 1.06215 1.45322 0
M  V30 6474 H 627.716 0.632039 0.407469 0
M  V30 6475 H 629.687 2.86561 0.832195 0
M  V30 6476 C 628.436 2.37555 2.53895 0
M  V30 6477 H 627.759 3.22428 2.3639 0
M  V30 6478 H 629.199 2.70598 3.26424 0
M  V30 6479 C 627.658 1.22507 3.13837 0
M  V30 6480 O 628.188 0.521388 3.98302 0
M  V30 6481 N 626.394 0.991444 2.73164 0
M  V30 6482 H 625.941 1.56544 2.04577 0
M  V30 6483 H 625.899 0.223546 3.13604 0
M  V30 6484 N 629.671 -0.424282 1.51781 0
M  V30 6485 C 630.896 -1.19928 1.6921 0
M  V30 6486 C 631.321 -1.8392 0.394355 0
M  V30 6487 O 630.679 -1.69371 -0.646778 0
M  V30 6488 C 630.727 -2.24937 2.81843 0
M  V30 6489 O 629.831 -3.3073 2.46356 0
M  V30 6490 H 629.172 -0.35078 0.563781 0
M  V30 6491 H 631.702 -0.499401 1.98412 0
M  V30 6492 H 631.712 -2.69512 3.06312 0
M  V30 6493 H 630.387 -1.77742 3.76006 0
M  V30 6494 H 628.964 -2.9154 2.32505 0
M  V30 6495 N 631.149 -1.42148 -0.680565 0
M  V30 6496 C 632.374 -1.45901 -1.47403 0
M  V30 6497 C 632.799 -0.0700985 -1.87969 0
M  V30 6498 O 632.157 0.930145 -1.55621 0
M  V30 6499 C 632.205 -2.38661 -2.70321 0
M  V30 6500 O 631.309 -1.85399 -3.68376 0
M  V30 6501 H 630.65 -0.494565 -0.443059 0
M  V30 6502 H 633.18 -1.86774 -0.835251 0
M  V30 6503 H 633.19 -2.55046 -3.18458 0
M  V30 6504 H 631.865 -3.39571 -2.40134 0
M  V30 6505 H 630.442 -1.78541 -3.2738 0
M  V30 6506 N 632.627 0.916307 -1.28225 0
M  V30 6507 C 633.557 2.0352 -1.14464 0
M  V30 6508 C 634.538 1.70045 -0.0430844 0
M  V30 6509 O 635.723 1.92954 -0.219619 0
M  V30 6510 C 632.853 3.37889 -0.803027 0
M  V30 6511 C 631.807 3.85516 -1.85908 0
M  V30 6512 C 631.133 5.1682 -1.37116 0
M  V30 6513 C 632.433 4.07655 -3.26519 0
M  V30 6514 H 634.127 2.1529 -2.08064 0
M  V30 6515 H 631.673 1.03446 -1.00174 0
M  V30 6516 H 633.626 4.15654 -0.693537 0
M  V30 6517 H 632.35 3.26164 0.168674 0
M  V30 6518 H 631.009 3.09953 -1.95767 0
M  V30 6519 H 630.657 5.01497 -0.38859 0
M  V30 6520 H 630.357 5.49657 -2.07728 0
M  V30 6521 H 631.881 5.97143 -1.27484 0
M  V30 6522 H 633.295 4.75953 -3.19596 0
M  V30 6523 H 631.692 4.51818 -3.94943 0
M  V30 6524 H 632.762 3.12553 -3.70727 0
M  V30 6525 N 634.105 1.10431 1.1244 0
M  V30 6526 C 635.015 0.765502 2.21759 0
M  V30 6527 C 636.031 -0.236966 1.72379 0
M  V30 6528 O 637.207 -0.0757329 2.01258 0
M  V30 6529 C 634.272 0.202316 3.46109 0
M  V30 6530 C 633.333 1.26205 4.1033 0
M  V30 6531 C 632.566 0.725648 5.28744 0
M  V30 6532 O 632.789 -0.447942 5.68638 0
M  V30 6533 O 631.723 1.48555 5.83279 0
M  V30 6534 H 635.549 1.67801 2.53133 0
M  V30 6535 H 633.134 0.879443 1.20773 0
M  V30 6536 H 635.016 -0.107918 4.21262 0
M  V30 6537 H 633.691 -0.683052 3.16411 0
M  V30 6538 H 632.598 1.62514 3.36957 0
M  V30 6539 H 633.931 2.12044 4.44183 0
M  V30 6540 N 635.583 -1.29855 0.893053 0
M  V30 6541 C 636.813 -1.99686 0.530019 0
M  V30 6542 C 637.221 -1.67066 -0.888012 0
M  V30 6543 O 636.564 -0.908366 -1.5967 0
M  V30 6544 C 636.626 -3.53855 0.63457 0
M  V30 6545 C 636.29 -4.10013 2.01837 0
M  V30 6546 C 637.287 -4.25406 2.98874 0
M  V30 6547 C 634.972 -4.45202 2.32595 0
M  V30 6548 C 636.966 -4.7521 4.24799 0
M  V30 6549 C 634.653 -4.94704 3.58763 0
M  V30 6550 C 635.651 -5.09662 4.5468 0
M  V30 6551 O 635.339 -5.58093 5.78608 0
M  V30 6552 H 635.071 -0.644913 0.20264 0
M  V30 6553 H 637.625 -1.66518 1.20253 0
M  V30 6554 H 635.855 -3.86583 -0.0949477 0
M  V30 6555 H 637.544 -4.04922 0.281648 0
M  V30 6556 H 638.31 -3.98515 2.76425 0
M  V30 6557 H 634.189 -4.32822 1.58701 0
M  V30 6558 H 637.733 -4.86801 4.99671 0
M  V30 6559 H 633.63 -5.21032 3.81046 0
M  V30 6560 H 634.398 -5.7642 5.81104 0
M  V30 6561 N 637.061 -0.65484 -1.43351 0
M  V30 6562 C 638.009 0.0476784 -2.32551 0
M  V30 6563 C 639.003 0.811403 -1.48703 0
M  V30 6564 O 640.209 0.721621 -1.64902 0
M  V30 6565 H 636.584 0.0342038 -0.751222 0
M  V30 6566 H 638.555 -0.722342 -2.89525 0
M  V30 6567 C 637.304 0.999251 -3.33032 0
M  V30 6568 H 636.627 0.421005 -3.97577 0
M  V30 6569 H 638.067 1.45986 -3.98076 0
M  V30 6570 C 636.526 2.09606 -2.63756 0
M  V30 6571 O 637.056 3.18004 -2.4543 0
M  V30 6572 N 635.262 1.86207 -2.23103 0
M  V30 6573 H 634.809 0.980555 -2.38208 0
M  V30 6574 H 634.767 2.59787 -1.77081 0
M  V30 6575 N 638.539 1.52521 -0.396863 0
M  V30 6576 C 639.788 2.00857 0.184184 0
M  V30 6577 C 640.101 1.28733 1.47265 0
M  V30 6578 O 641.307 1.67821 2.13421 0
M  V30 6579 C 639.763 3.57901 0.378787 0
M  V30 6580 C 639.371 4.38931 -0.896873 0
M  V30 6581 C 641.115 4.14504 0.915789 0
M  V30 6582 C 639.022 5.87591 -0.670133 0
M  V30 6583 H 637.952 0.750496 0.0726055 0
M  V30 6584 H 640.603 1.75965 -0.520425 0
M  V30 6585 H 638.985 3.79072 1.14543 0
M  V30 6586 H 640.159 4.29524 -1.66872 0
M  V30 6587 H 638.474 3.93586 -1.35938 0
M  V30 6588 H 641.071 5.23236 1.10126 0
M  V30 6589 H 641.414 3.71076 1.88701 0
M  V30 6590 H 641.947 3.97253 0.208523 0
M  V30 6591 H 638.686 6.35355 -1.61257 0
M  V30 6592 H 638.206 5.99767 0.0626368 0
M  V30 6593 H 639.885 6.46268 -0.307577 0
M  V30 6594 N 640.017 0.126909 1.57088 0
M  V30 6595 C 641.264 -0.529168 1.95464 0
M  V30 6596 C 641.592 -1.6618 1.01067 0
M  V30 6597 O 640.847 -1.95667 0.0360254 0
M  V30 6598 C 641.146 -1.095 3.40212 0
M  V30 6599 C 640.812 -0.0829015 4.50824 0
M  V30 6600 C 639.474 0.195377 4.80803 0
M  V30 6601 C 641.826 0.606411 5.1766 0
M  V30 6602 C 639.154 1.16912 5.74933 0
M  V30 6603 C 641.506 1.56884 6.12838 0
M  V30 6604 C 640.17 1.85502 6.41206 0
M  V30 6605 H 639.44 -0.193636 0.715252 0
M  V30 6606 H 642.087 0.209489 1.90351 0
M  V30 6607 H 640.392 -1.91058 3.42059 0
M  V30 6608 H 642.089 -1.61087 3.67222 0
M  V30 6609 H 638.679 -0.309979 4.27478 0
M  V30 6610 H 642.863 0.404597 4.94648 0
M  V30 6611 H 638.119 1.3975 5.95214 0
M  V30 6612 H 642.293 2.10859 6.6371 0
M  V30 6613 H 639.92 2.61109 7.13951 0
M  V30 6614 N 641.495 -1.56914 -0.146875 0
M  V30 6615 C 642.405 -2.0154 -1.20079 0
M  V30 6616 C 643.421 -0.930838 -1.47008 0
M  V30 6617 O 644.597 -1.24032 -1.58676 0
M  V30 6618 C 641.662 -2.38715 -2.51428 0
M  V30 6619 C 640.723 -3.6112 -2.32145 0
M  V30 6620 C 639.956 -3.96512 -3.57231 0
M  V30 6621 O 640.179 -3.32566 -4.63418 0
M  V30 6622 O 639.113 -4.89758 -3.49887 0
M  V30 6623 H 642.939 -2.91506 -0.851924 0
M  V30 6624 H 640.524 -1.45106 -0.355607 0
M  V30 6625 H 642.406 -2.63485 -3.28867 0
M  V30 6626 H 641.081 -1.51903 -2.85845 0
M  V30 6627 H 639.988 -3.41536 -1.52656 0
M  V30 6628 H 641.321 -4.48549 -2.02644 0
M  V30 6629 N 642.974 0.416227 -1.52004 0
M  V30 6630 C 644.222 1.16153 -1.65387 0
M  V30 6631 C 644.543 1.91208 -0.382669 0
M  V30 6632 O 643.813 1.86413 0.602231 0
M  V30 6633 H 642.393 0.431765 -0.60958 0
M  V30 6634 H 645.055 0.475151 -1.89019 0
M  V30 6635 H 644.151 1.87952 -2.4916 0
M  V30 6636 N 644.452 1.42507 0.673017 0
M  V30 6637 C 645.385 1.40557 1.79774 0
M  V30 6638 C 646.363 0.269606 1.60349 0
M  V30 6639 O 647.547 0.460105 1.82798 0
M  V30 6640 C 644.674 1.19815 3.168 0
M  V30 6641 C 643.72 2.36429 3.5497 0
M  V30 6642 S 644.553 3.98963 3.57196 0
M  V30 6643 C 645.709 3.80567 4.9691 0
M  V30 6644 H 645.942 2.35734 1.81154 0
M  V30 6645 H 643.475 1.293 0.843846 0
M  V30 6646 H 645.433 1.08535 3.95892 0
M  V30 6647 H 644.094 0.262215 3.13004 0
M  V30 6648 H 643.287 2.17669 4.54573 0
M  V30 6649 H 642.889 2.44233 2.83242 0
M  V30 6650 H 645.181 3.41668 5.85038 0
M  V30 6651 H 646.124 4.79852 5.20718 0
M  V30 6652 H 646.532 3.13399 4.69512 0
M  V30 6653 N 645.93 -0.909495 1.28709 0
M  V30 6654 C 646.84 -2.04558 1.14861 0
M  V30 6655 C 647.856 -1.73842 0.0741621 0
M  V30 6656 O 649.032 -1.99383 0.2843 0
M  V30 6657 C 646.097 -3.36957 0.816148 0
M  V30 6658 C 645.158 -3.81255 1.97341 0
M  V30 6659 C 644.391 -5.07335 1.65671 0
M  V30 6660 O 644.614 -5.67514 0.573053 0
M  V30 6661 O 643.548 -5.47449 2.50167 0
M  V30 6662 H 647.374 -2.19161 2.10243 0
M  V30 6663 H 644.959 -1.03159 1.08068 0
M  V30 6664 H 646.841 -4.16436 0.644873 0
M  V30 6665 H 645.516 -3.2352 -0.107983 0
M  V30 6666 H 644.423 -3.02584 2.19986 0
M  V30 6667 H 645.756 -3.99261 2.87839 0
M  V30 6668 N 647.408 -1.11026 -1.11852 0
M  V30 6669 C 648.648 -0.866348 -1.85132 0
M  V30 6670 C 649.012 0.597236 -1.82475 0
M  V30 6671 O 650.213 0.957744 -2.51159 0
M  V30 6672 C 648.484 -1.40721 -3.28531 0
M  V30 6673 S 650.043 -1.29964 -4.19112 0
M  V30 6674 H 646.861 -0.312899 -0.638447 0
M  V30 6675 H 649.463 -1.41691 -1.34699 0
M  V30 6676 H 648.167 -2.46631 -3.28027 0
M  V30 6677 H 647.698 -0.85349 -3.8403 0
M  V30 6678 H 649.713 -0.261333 -4.95511 0
M  V30 6679 N 648.886 1.2938 -0.899927 0
M  V30 6680 C 650.302 1.48052 -0.596059 0
M  V30 6681 C 650.502 1.82114 0.862372 0
M  V30 6682 O 649.558 1.91774 1.64253 0
M  V30 6683 C 650.871 2.59332 -1.52208 0
M  V30 6684 C 652.419 2.73208 -1.5273 0
M  V30 6685 C 652.894 3.87617 -2.43961 0
M  V30 6686 N 654.385 3.9495 -2.42009 0
M  V30 6687 C 655.12 4.82824 -3.09303 0
M  V30 6688 N 654.616 5.75387 -3.85877 0
M  V30 6689 N 656.409 4.76317 -2.98459 0
M  V30 6690 H 648.56 1.05546 -1.8432 0
M  V30 6691 H 650.823 0.524314 -0.78981 0
M  V30 6692 H 650.529 2.41029 -2.56121 0
M  V30 6693 H 650.403 3.56139 -1.24278 0
M  V30 6694 H 652.79 2.90908 -0.495614 0
M  V30 6695 H 652.871 1.76975 -1.84698 0
M  V30 6696 H 652.515 3.70672 -3.47224 0
M  V30 6697 H 652.445 4.83218 -2.09303 0
M  V30 6698 H 654.936 3.28744 -1.86375 0
M  V30 6699 H 655.249 6.39235 -4.34279 0
M  V30 6700 H 653.594 5.75272 -3.89984 0
M  V30 6701 H 656.785 4.0299 -2.38152 0
M  V30 6702 H 656.958 5.44589 -3.51179 0
M  V30 6703 N 650.364 0.662433 1.43002 0
M  V30 6704 C 651.612 0.179237 2.01304 0
M  V30 6705 C 651.933 -1.21428 1.52579 0
M  V30 6706 O 651.203 -1.81294 0.742252 0
M  V30 6707 H 649.783 0.0632725 0.744316 0
M  V30 6708 H 652.445 0.856169 1.75088 0
M  V30 6709 H 651.541 0.170957 3.11631 0
M  V30 6710 N 651.842 -1.52309 0.404946 0
M  V30 6711 C 653.067 -2.06666 -0.1743 0
M  V30 6712 C 653.492 -1.27341 -1.38441 0
M  V30 6713 O 652.85 -0.302539 -1.78758 0
M  V30 6714 C 652.898 -3.57014 -0.507262 0
M  V30 6715 O 652.002 -3.80144 -1.59889 0
M  V30 6716 H 651.343 -0.663807 -0.0160273 0
M  V30 6717 H 653.873 -1.96297 0.576937 0
M  V30 6718 H 653.883 -4.00724 -0.767098 0
M  V30 6719 H 652.558 -4.14184 0.377368 0
M  V30 6720 H 651.135 -3.48316 -1.33155 0
M  V30 6721 N 653.32 -0.135238 -1.57019 0
M  V30 6722 C 654.731 0.387521 -1.82634 0
M  V30 6723 C 655.082 1.65528 -1.05332 0
M  V30 6724 O 654.207 2.14381 -0.294926 0
M  V30 6725 C 654.802 0.709852 -3.3128 0
M  V30 6726 C 653.361 1.17718 -3.57518 0
M  V30 6727 C 652.508 0.194183 -2.76619 0
M  V30 6728 H 655.459 -0.360126 -1.5456 0
M  V30 6729 H 655.48 1.5657 -3.46794 0
M  V30 6730 H 654.992 -0.213024 -3.87515 0
M  V30 6731 H 653.093 2.1164 -3.06658 0
M  V30 6732 H 653.206 1.11128 -4.66034 0
M  V30 6733 H 651.57 0.684478 -2.4533 0
M  V30 6734 H 652.353 -0.722076 -3.3562 0
M  V30 6735 N 654.798 1.5699 0.138552 0
M  V30 6736 C 655.728 2.01933 1.17241 0
M  V30 6737 C 656.709 0.90033 1.44319 0
M  V30 6738 O 657.894 1.16872 1.55095 0
M  V30 6739 C 655.024 2.40711 2.50351 0
M  V30 6740 C 653.978 3.55874 2.37776 0
M  V30 6741 C 653.304 3.80491 3.75674 0
M  V30 6742 C 654.604 4.8826 1.85472 0
M  V30 6743 H 656.298 2.88551 0.798672 0
M  V30 6744 H 653.844 1.3882 0.382743 0
M  V30 6745 H 655.797 2.70754 3.22909 0
M  V30 6746 H 654.521 1.5104 2.89576 0
M  V30 6747 H 653.18 3.2601 1.67669 0
M  V30 6748 H 652.828 2.88057 4.12349 0
M  V30 6749 H 652.528 4.57998 3.68119 0
M  V30 6750 H 654.052 4.12967 4.49767 0
M  V30 6751 H 655.466 5.16965 2.4783 0
M  V30 6752 H 653.863 5.69631 1.88787 0
M  V30 6753 H 654.933 4.78071 0.810935 0
M  V30 6754 N 656.276 -0.40816 1.52223 0
M  V30 6755 C 657.522 -1.15673 1.66576 0
M  V30 6756 C 657.855 -1.90141 0.394996 0
M  V30 6757 O 657.13 -1.84798 -0.606613 0
M  V30 6758 C 657.413 -2.15042 2.88841 0
M  V30 6759 C 657.266 -1.44465 4.25969 0
M  V30 6760 C 658.585 -3.15699 3.0663 0
M  V30 6761 H 655.704 -0.41916 0.606196 0
M  V30 6762 H 658.346 -0.442348 1.84779 0
M  V30 6763 H 656.496 -2.75964 2.73452 0
M  V30 6764 H 658.168 -0.866544 4.53088 0
M  V30 6765 H 656.411 -0.746612 4.27327 0
M  V30 6766 H 657.082 -2.16976 5.07568 0
M  V30 6767 H 659.558 -2.64854 3.20923 0
M  V30 6768 H 658.434 -3.82491 3.9369 0
M  V30 6769 H 658.695 -3.83481 2.19987 0
M  V30 6770 N 657.755 -1.42862 -0.66545 0
M  V30 6771 C 659.001 -1.44043 -1.42757 0
M  V30 6772 C 659.334 -0.0599629 -1.94107 0
M  V30 6773 O 658.609 0.917286 -1.71511 0
M  V30 6774 C 658.892 -2.47266 -2.61786 0
M  V30 6775 C 658.745 -3.94539 -2.16007 0
M  V30 6776 C 660.064 -2.47365 -3.64003 0
M  V30 6777 H 657.183 -0.524506 -0.517748 0
M  V30 6778 H 659.825 -1.74335 -0.755466 0
M  V30 6779 H 657.975 -2.21565 -3.19126 0
M  V30 6780 H 659.647 -4.31254 -1.63762 0
M  V30 6781 H 657.89 -4.07957 -1.47491 0
M  V30 6782 H 658.561 -4.62357 -3.01546 0
M  V30 6783 H 661.037 -2.70243 -3.16399 0
M  V30 6784 H 659.913 -3.21552 -4.44854 0
M  V30 6785 H 660.174 -1.50299 -4.15767 0
M  V30 6786 N 659.233 0.902656 -1.29189 0
M  V30 6787 C 660.482 1.6475 -1.16362 0
M  V30 6788 C 660.795 1.93517 0.284682 0
M  V30 6789 O 662.001 2.66192 0.534229 0
M  V30 6790 C 660.457 2.96848 -2.03493 0
M  V30 6791 C 660.065 2.75687 -3.5313 0
M  V30 6792 C 661.809 3.74762 -1.99383 0
M  V30 6793 C 659.716 4.03492 -4.32375 0
M  V30 6794 H 658.646 0.618041 -0.431904 0
M  V30 6795 H 661.297 1.0008 -1.53806 0
M  V30 6796 H 659.679 3.62715 -1.58916 0
M  V30 6797 H 660.853 2.18431 -4.05739 0
M  V30 6798 H 659.168 2.11171 -3.58881 0
M  V30 6799 H 661.765 4.69515 -2.5585 0
M  V30 6800 H 662.108 4.04767 -0.973123 0
M  V30 6801 H 662.641 3.15732 -2.41988 0
M  V30 6802 H 659.38 3.78656 -5.3507 0
M  V30 6803 H 658.9 4.60318 -3.84535 0
M  V30 6804 H 660.579 4.71662 -4.42881 0
M  V30 6805 N 660.711 1.11618 1.11262 0
M  V30 6806 C 661.936 0.889013 1.8738 0
M  V30 6807 C 662.361 -0.555884 1.79698 0
M  V30 6808 O 661.719 -1.39272 1.16073 0
M  V30 6809 C 661.767 1.35759 3.34069 0
M  V30 6810 O 660.871 0.530499 4.08974 0
M  V30 6811 H 660.212 0.320082 0.581759 0
M  V30 6812 H 662.742 1.48611 1.40627 0
M  V30 6813 H 662.752 1.35291 3.84916 0
M  V30 6814 H 661.427 2.40973 3.38976 0
M  V30 6815 H 660.004 0.601439 3.68018 0
M  V30 6816 N 662.189 -1.289 0.906776 0
M  V30 6817 C 663.121 -2.26556 0.347159 0
M  V30 6818 C 664.134 -1.54589 -0.51049 0
M  V30 6819 O 665.323 -1.75489 -0.326501 0
M  V30 6820 C 662.423 -3.3484 -0.523024 0
M  V30 6821 C 661.596 -4.36296 0.310515 0
M  V30 6822 C 660.655 -5.23879 -0.493634 0
M  V30 6823 O 659.681 -5.69127 0.0913569 0
M  V30 6824 N 660.883 -5.51946 -1.7982 0
M  V30 6825 H 663.648 -2.75212 1.18652 0
M  V30 6826 H 661.209 -1.42309 0.771996 0
M  V30 6827 H 663.201 -3.90366 -1.06756 0
M  V30 6828 H 661.771 -2.85946 -1.26309 0
M  V30 6829 H 660.991 -3.80331 1.03644 0
M  V30 6830 H 662.279 -5.01113 0.881106 0
M  V30 6831 H 661.677 -5.17006 -2.2961 0
M  V30 6832 H 660.234 -6.10258 -2.28971 0
M  V30 6833 N 663.667 -0.670007 -1.42649 0
M  V30 6834 C 664.915 -0.18991 -2.01206 0
M  V30 6835 C 665.236 1.20617 -1.53221 0
M  V30 6836 O 664.506 1.80898 -0.751856 0
M  V30 6837 H 663.086 -0.0672189 -0.743969 0
M  V30 6838 H 665.748 -0.865442 -1.74631 0
M  V30 6839 H 664.844 -0.187481 -3.11536 0
M  V30 6840 N 665.145 1.52092 -0.413018 0
M  V30 6841 C 666.092 2.27119 0.410558 0
M  V30 6842 C 667.062 1.29692 1.03774 0
M  V30 6843 O 668.247 1.58561 1.06128 0
M  V30 6844 C 665.387 3.09863 1.51918 0
M  V30 6845 C 664.5 4.22252 0.912528 0
M  V30 6846 C 663.635 4.92348 1.99417 0
M  V30 6847 C 662.674 5.96694 1.36466 0
M  V30 6848 N 661.811 6.60292 2.38661 0
M  V30 6849 H 666.651 2.97067 -0.235661 0
M  V30 6850 H 664.188 1.46542 -0.128055 0
M  V30 6851 H 666.146 3.56144 2.17295 0
M  V30 6852 H 664.776 2.42078 2.13537 0
M  V30 6853 H 663.828 3.80113 0.147697 0
M  V30 6854 H 665.14 4.9709 0.412717 0
M  V30 6855 H 664.294 5.42054 2.72512 0
M  V30 6856 H 663.033 4.17087 2.52764 0
M  V30 6857 H 662.038 5.46304 0.61906 0
M  V30 6858 H 663.263 6.73899 0.838827 0
M  V30 6859 H 661.209 5.87858 2.91134 0
M  V30 6860 H 661.126 7.30816 1.93503 0
M  V30 6861 H 662.394 7.14635 3.11314 0
M  V30 6862 N 666.623 0.143563 1.56945 0
M  V30 6863 C 667.872 -0.50835 1.95189 0
M  V30 6864 C 668.185 -1.66239 1.03073 0
M  V30 6865 O 669.391 -2.3787 1.30882 0
M  V30 6866 C 667.847 -0.955735 3.46978 0
M  V30 6867 C 667.455 0.171183 4.47673 0
M  V30 6868 C 669.199 -1.57763 3.94095 0
M  V30 6869 C 667.106 -0.294279 5.90667 0
M  V30 6870 H 666.036 -0.193679 0.728701 0
M  V30 6871 H 668.687 0.227357 1.82086 0
M  V30 6872 H 667.069 -1.7466 3.55401 0
M  V30 6873 H 668.243 0.948049 4.50942 0
M  V30 6874 H 666.558 0.701273 4.10452 0
M  V30 6875 H 669.155 -1.93745 4.98364 0
M  V30 6876 H 669.498 -2.46531 3.35452 0
M  V30 6877 H 670.031 -0.851728 3.88575 0
M  V30 6878 H 666.77 0.557939 6.53121 0
M  V30 6879 H 666.29 -1.0371 5.90766 0
M  V30 6880 H 667.969 -0.747426 6.42668 0
M  V30 6881 N 668.101 -1.57061 -0.130224 0
M  V30 6882 C 669.347 -1.8453 -0.841216 0
M  V30 6883 C 669.68 -0.727666 -1.80052 0
M  V30 6884 O 668.955 0.267419 -1.92653 0
M  V30 6885 C 669.238 -3.22553 -1.60099 0
M  V30 6886 C 669.091 -4.44901 -0.662048 0
M  V30 6887 C 670.41 -3.58003 -2.55973 0
M  V30 6888 H 667.529 -0.671215 -0.304366 0
M  V30 6889 H 670.171 -1.89705 -0.105821 0
M  V30 6890 H 668.321 -3.18272 -2.22789 0
M  V30 6891 H 669.993 -4.61278 -0.0448559 0
M  V30 6892 H 668.236 -4.33791 0.0272253 0
M  V30 6893 H 668.907 -5.3812 -1.23006 0
M  V30 6894 H 671.383 -3.63002 -2.03393 0
M  V30 6895 H 670.259 -4.55576 -3.06172 0
M  V30 6896 H 670.52 -2.84833 -3.38116 0
M  V30 6897 N 669.579 0.400081 -1.52437 0
M  V30 6898 C 670.509 1.4947 -1.7939 0
M  V30 6899 C 671.49 1.57383 -0.645329 0
M  V30 6900 O 672.675 1.72511 -0.891826 0
M  V30 6901 C 669.805 2.87201 -1.95276 0
M  V30 6902 C 668.759 2.94134 -3.10917 0
M  V30 6903 C 668.085 4.34207 -3.1204 0
M  V30 6904 C 669.385 2.64791 -4.50203 0
M  V30 6905 H 671.079 1.27165 -2.71052 0
M  V30 6906 H 668.625 0.610312 -1.30427 0
M  V30 6907 H 670.578 3.63772 -2.12715 0
M  V30 6908 H 669.302 3.10819 -1.00294 0
M  V30 6909 H 667.961 2.20009 -2.93243 0
M  V30 6910 H 667.609 4.54848 -2.14761 0
M  V30 6911 H 667.309 4.39768 -3.89715 0
M  V30 6912 H 668.833 5.127 -3.31619 0
M  V30 6913 H 670.247 3.31083 -4.68035 0
M  V30 6914 H 668.644 2.81717 -5.29864 0
M  V30 6915 H 669.714 1.60184 -4.57678 0
M  V30 6916 N 671.057 1.43213 0.657864 0
M  V30 6917 C 671.967 1.50448 1.80007 0
M  V30 6918 C 672.983 0.39191 1.69529 0
M  V30 6919 O 674.159 0.645349 1.90781 0
M  V30 6920 C 671.224 1.42062 3.16258 0
M  V30 6921 C 670.285 2.63951 3.38568 0
M  V30 6922 C 669.518 2.55956 4.68318 0
M  V30 6923 O 669.741 1.60473 5.47361 0
M  V30 6924 O 668.675 3.46378 4.92245 0
M  V30 6925 H 672.501 2.4689 1.76858 0
M  V30 6926 H 670.086 1.25163 0.81576 0
M  V30 6927 H 671.968 1.3981 3.97531 0
M  V30 6928 H 670.643 0.487524 3.20008 0
M  V30 6929 H 669.55 2.71776 2.57077 0
M  V30 6930 H 670.883 3.56217 3.39662 0
M  V30 6931 N 672.536 -0.895792 1.29666 0
M  V30 6932 C 673.813 -1.62723 1.08538 0
M  V30 6933 C 674.193 -2.07848 -0.369119 0
M  V30 6934 O 673.541 -1.8372 -1.35864 0
M  V30 6935 C 673.751 -2.80505 2.07648 0
M  V30 6936 C 675.099 -3.51098 2.3878 0
M  V30 6937 O 676.123 -2.90679 2.05874 0
M  V30 6938 O 674.982 -4.60028 2.9502 0
M  V30 6939 H 672.076 -0.714692 0.416106 0
M  V30 6940 H 674.622 -0.943517 1.41053 0
M  V30 6941 H 673.394 -2.44386 3.05599 0
M  V30 6942 H 673.017 -3.5658 1.75887 0
M  V30 6943 N 674.014 -1.12206 -1.10668 0
M  V30 6944 C 675.262 -0.874144 -1.82217 0
M  V30 6945 C 675.583 0.601736 -1.85484 0
M  V30 6946 O 674.853 1.43725 -1.33116 0
M  V30 6947 H 673.433 -0.320404 -0.674797 0
M  V30 6948 H 676.095 -1.41606 -1.33917 0
M  V30 6949 H 675.191 -1.25349 -2.85822 0
M  V30 6950 N 675.492 1.28418 -0.913599 0
M  V30 6951 C 676.72 1.99106 -0.562536 0
M  V30 6952 C 677.135 1.68273 0.856137 0
M  V30 6953 O 676.492 0.935401 1.56705 0
M  V30 6954 C 676.543 3.5338 -0.761903 0
M  V30 6955 O 676.264 3.83127 -2.12475 0
M  V30 6956 C 677.765 4.41328 -0.417651 0
M  V30 6957 H 674.985 0.635798 -0.214481 0
M  V30 6958 H 677.529 1.63618 -1.22676 0
M  V30 6959 H 675.684 3.8713 -0.144676 0
M  V30 6960 H 676.098 4.77763 -2.16431 0
M  V30 6961 H 677.572 5.48642 -0.607919 0
M  V30 6962 H 678.049 4.34422 0.646108 0
M  V30 6963 H 678.655 4.13074 -1.01241 0
M  V30 6964 N 676.97 0.677563 1.42291 0
M  V30 6965 C 677.9 0.014968 2.33495 0
M  V30 6966 C 678.881 -0.786376 1.50831 0
M  V30 6967 O 680.066 -0.742975 1.79426 0
M  V30 6968 C 677.196 -0.935023 3.34477 0
M  V30 6969 C 676.15 -0.242074 4.27315 0
M  V30 6970 C 675.476 -1.30519 5.18526 0
M  V30 6971 C 676.776 0.880604 5.14823 0
M  V30 6972 H 678.47 0.776671 2.89151 0
M  V30 6973 H 676.016 0.37494 1.39033 0
M  V30 6974 H 677.969 -1.40766 3.97194 0
M  V30 6975 H 676.693 -1.72818 2.77131 0
M  V30 6976 H 675.352 0.210351 3.65996 0
M  V30 6977 H 675 -2.09041 4.57505 0
M  V30 6978 H 674.7 -0.846652 5.81468 0
M  V30 6979 H 676.224 -1.7787 5.84119 0
M  V30 6980 H 677.638 0.489062 5.7121 0
M  V30 6981 H 676.035 1.26511 5.86613 0
M  V30 6982 H 677.105 1.72818 4.53059 0
M  V30 6983 N 678.448 -1.51871 0.421078 0
M  V30 6984 C 679.398 -2.24171 -0.416111 0
M  V30 6985 C 680.382 -1.25763 -1.00362 0
M  V30 6986 O 681.574 -1.5094 -0.924452 0
M  V30 6987 C 678.703 -3.07533 -1.52571 0
M  V30 6988 C 677.789 -4.1336 -0.948399 0
M  V30 6989 N 678.18 -5.05704 -0.0987933 0
M  V30 6990 C 676.478 -4.29055 -1.21768 0
M  V30 6991 C 677.179 -5.8127 0.223705 0
M  V30 6992 N 676.155 -5.4221 -0.388524 0
M  V30 6993 H 679.957 -2.92925 0.239166 0
M  V30 6994 H 677.471 -1.60732 0.232191 0
M  V30 6995 H 679.468 -3.57893 -2.13819 0
M  V30 6996 H 678.128 -2.4032 -2.18349 0
M  V30 6997 H 679.139 -5.17214 0.266428 0
M  V30 6998 H 675.816 -3.73071 -1.87416 0
M  V30 6999 H 677.206 -6.65653 0.914076 0
M  V30 7000 N 679.926 -0.151884 -1.56866 0
M  V30 7001 C 681.172 0.498742 -1.96572 0
M  V30 7002 C 681.505 1.64194 -1.03702 0
M  V30 7003 O 680.78 1.94334 -0.0803432 0
M  V30 7004 C 681.063 1.00027 -3.45929 0
M  V30 7005 C 680.916 -0.141767 -4.49577 0
M  V30 7006 C 682.235 1.88044 -3.97904 0
M  V30 7007 H 679.354 0.17982 -0.714726 0
M  V30 7008 H 681.996 -0.234097 -1.88552 0
M  V30 7009 H 680.146 1.62476 -3.52894 0
M  V30 7010 H 681.818 -0.778269 -4.54687 0
M  V30 7011 H 680.061 -0.80019 -4.26356 0
M  V30 7012 H 680.732 0.250947 -5.51429 0
M  V30 7013 H 683.208 1.35416 -3.93449 0
M  V30 7014 H 682.084 2.20043 -5.02864 0
M  V30 7015 H 682.345 2.81916 -3.40552 0
M  V30 7016 N 681.404 1.57128 0.121893 0
M  V30 7017 C 682.632 1.88883 0.844451 0
M  V30 7018 C 683.047 0.742824 1.73573 0
M  V30 7019 O 682.404 -0.286475 1.80238 0
M  V30 7020 C 682.455 3.20076 1.68029 0
M  V30 7021 O 682.176 4.30264 0.824898 0
M  V30 7022 C 683.677 3.65515 2.50826 0
M  V30 7023 H 680.897 0.62549 0.242907 0
M  V30 7024 H 683.441 2.04219 0.107151 0
M  V30 7025 H 681.596 3.06418 2.37038 0
M  V30 7026 H 682.01 5.05439 1.40113 0
M  V30 7027 H 683.484 4.60081 3.05008 0
M  V30 7028 H 683.961 2.92029 3.28048 0
M  V30 7029 H 684.567 3.81952 1.87064 0
M  V30 7030 N 682.882 -0.391992 1.52647 0
M  V30 7031 C 683.792 -1.503 1.80131 0
M  V30 7032 C 684.808 -1.59825 0.687882 0
M  V30 7033 O 685.984 -1.76218 0.975149 0
M  V30 7034 C 683.049 -2.85863 1.96171 0
M  V30 7035 C 682.11 -2.86084 3.20085 0
M  V30 7036 C 681.343 -4.15181 3.35351 0
M  V30 7037 O 681.566 -5.09981 2.55491 0
M  V30 7038 O 680.5 -4.22603 4.28591 0
M  V30 7039 H 684.326 -1.30007 2.74466 0
M  V30 7040 H 681.911 -0.579539 1.37701 0
M  V30 7041 H 683.793 -3.66236 2.08445 0
M  V30 7042 H 682.468 -3.06189 1.05025 0
M  V30 7043 H 681.375 -2.04504 3.13256 0
M  V30 7044 H 682.708 -2.7071 4.11068 0
M  V30 7045 N 684.36 -1.4356 -0.65026 0
M  V30 7046 C 685.608 -1.45046 -1.40734 0
M  V30 7047 C 685.929 -0.0769822 -1.94848 0
M  V30 7048 O 685.199 0.888098 -1.74613 0
M  V30 7049 H 683.779 -0.534034 -0.522318 0
M  V30 7050 H 686.441 -1.79186 -0.766703 0
M  V30 7051 H 685.537 -2.16476 -2.24822 0
M  V30 7052 N 685.838 0.888903 -1.30139 0
M  V30 7053 C 687.063 1.67884 -1.21777 0
M  V30 7054 C 687.488 1.86848 0.216689 0
M  V30 7055 O 686.846 1.39659 1.15608 0
M  V30 7056 C 686.894 3.03483 -1.94757 0
M  V30 7057 O 685.998 3.92294 -1.27198 0
M  V30 7058 H 685.339 0.513144 -0.421402 0
M  V30 7059 H 687.869 1.10968 -1.71893 0
M  V30 7060 H 687.879 3.53553 -2.03627 0
M  V30 7061 H 686.554 2.89 -2.99085 0
M  V30 7062 H 685.131 3.50732 -1.26655 0
M  V30 7063 N 687.317 1.12792 1.10072 0
M  V30 7064 C 688.565 0.883796 1.81751 0
M  V30 7065 C 688.886 -0.591891 1.858 0
M  V30 7066 O 688.156 -1.43017 1.33876 0
M  V30 7067 H 686.736 0.323978 0.673088 0
M  V30 7068 H 689.398 1.42314 1.33164 0
M  V30 7069 H 688.494 1.26863 2.85153 0
M  V30 7070 N 688.795 -1.27931 0.920396 0
M  V30 7071 C 690.211 -1.47085 0.619537 0
M  V30 7072 C 690.411 -1.83463 -0.833291 0
M  V30 7073 O 689.467 -1.94363 -1.61181 0
M  V30 7074 C 690.78 -2.56878 1.56314 0
M  V30 7075 C 692.328 -2.70743 1.57058 0
M  V30 7076 C 692.803 -3.83687 2.50097 0
M  V30 7077 N 694.294 -3.9105 2.48262 0
M  V30 7078 C 695.029 -4.77842 3.16945 0
M  V30 7079 N 694.525 -5.69176 3.94982 0
M  V30 7080 N 696.318 -4.71509 3.06 0
M  V30 7081 H 688.469 -1.02601 1.85975 0
M  V30 7082 H 690.732 -0.511682 0.798051 0
M  V30 7083 H 690.438 -2.36923 2.59923 0
M  V30 7084 H 690.312 -3.54117 1.29928 0
M  V30 7085 H 692.699 -2.90083 0.541832 0
M  V30 7086 H 692.78 -1.74015 1.8749 0
M  V30 7087 H 692.424 -3.65101 3.53077 0
M  V30 7088 H 692.354 -4.79827 2.16964 0
M  V30 7089 H 694.845 -3.25738 1.91581 0
M  V30 7090 H 695.158 -6.32245 4.44394 0
M  V30 7091 H 693.503 -5.68995 3.99086 0
M  V30 7092 H 696.694 -3.99151 2.44533 0
M  V30 7093 H 696.867 -5.38933 3.59799 0
M  V30 7094 N 690.273 -0.685099 -1.4193 0
M  V30 7095 C 691.503 -0.220052 -2.05425 0
M  V30 7096 C 691.911 1.13185 -1.51611 0
M  V30 7097 O 691.254 1.71631 -0.654875 0
M  V30 7098 C 691.316 -0.0888364 -3.5939 0
M  V30 7099 C 690.98 -1.37109 -4.35947 0
M  V30 7100 C 691.977 -2.30675 -4.65924 0
M  V30 7101 C 689.662 -1.62155 -4.75406 0
M  V30 7102 C 691.656 -3.47556 -5.34306 0
M  V30 7103 C 689.343 -2.79324 -5.43527 0
M  V30 7104 C 690.341 -3.71848 -5.72903 0
M  V30 7105 O 690.029 -4.86966 -6.39624 0
M  V30 7106 H 689.761 -0.102165 -0.668235 0
M  V30 7107 H 692.315 -0.935194 -1.82875 0
M  V30 7108 H 690.545 0.681981 -3.80639 0
M  V30 7109 H 692.234 0.337669 -4.04493 0
M  V30 7110 H 693 -2.12579 -4.3593 0
M  V30 7111 H 688.879 -0.910053 -4.51928 0
M  V30 7112 H 692.423 -4.19794 -5.57153 0
M  V30 7113 H 688.32 -2.97342 -5.72938 0
M  V30 7114 H 689.088 -4.86644 -6.58118 0
M  V30 7115 N 691.751 1.51645 -0.429126 0
M  V30 7116 C 693 2.01203 0.141538 0
M  V30 7117 C 693.313 1.31828 1.44502 0
M  V30 7118 O 694.519 1.7231 2.09813 0
M  V30 7119 C 692.975 3.58624 0.302786 0
M  V30 7120 C 692.583 4.3693 -0.989775 0
M  V30 7121 C 694.327 4.16353 0.827661 0
M  V30 7122 C 692.234 5.86037 -0.794619 0
M  V30 7123 H 691.164 0.751867 0.05667 0
M  V30 7124 H 693.815 1.74822 -0.557633 0
M  V30 7125 H 692.197 3.81417 1.06476 0
M  V30 7126 H 693.371 4.25887 -1.75945 0
M  V30 7127 H 691.686 3.90614 -1.44256 0
M  V30 7128 H 694.283 5.25455 0.990026 0
M  V30 7129 H 694.626 3.74995 1.80787 0
M  V30 7130 H 695.159 3.97606 0.124213 0
M  V30 7131 H 691.898 6.31792 -1.74697 0
M  V30 7132 H 691.418 5.99765 -0.0645968 0
M  V30 7133 H 693.097 6.45471 -0.444591 0
M  V30 7134 N 693.229 0.160201 1.56784 0
M  V30 7135 C 694.64 -0.358417 1.83227 0
M  V30 7136 C 694.991 -1.63831 1.07952 0
M  V30 7137 O 694.116 -2.13885 0.328995 0
M  V30 7138 C 694.711 -0.657058 3.32368 0
M  V30 7139 C 693.27 -1.12015 3.59346 0
M  V30 7140 C 692.417 -0.15015 2.76893 0
M  V30 7141 H 695.368 0.384669 1.53967 0
M  V30 7142 H 695.389 -1.51033 3.49241 0
M  V30 7143 H 694.901 0.274647 3.87127 0
M  V30 7144 H 693.002 -2.06734 3.09987 0
M  V30 7145 H 693.115 -1.037 4.67743 0
M  V30 7146 H 691.479 -0.645361 2.46388 0
M  V30 7147 H 692.262 0.775379 3.34429 0
M  V30 7148 N 694.707 -1.5719 -0.113559 0
M  V30 7149 C 696.123 -1.52607 -0.467253 0
M  V30 7150 C 696.323 -0.874058 -1.81556 0
M  V30 7151 O 695.379 -0.458703 -2.48299 0
M  V30 7152 C 696.692 -2.97363 -0.446736 0
M  V30 7153 C 698.24 -3.08482 -0.529903 0
M  V30 7154 C 698.715 -4.54809 -0.539721 0
M  V30 7155 N 700.206 -4.59284 -0.601005 0
M  V30 7156 C 700.941 -5.69927 -0.630138 0
M  V30 7157 N 700.437 -6.90051 -0.616589 0
M  V30 7158 N 702.23 -5.5805 -0.673558 0
M  V30 7159 H 694.381 -1.97958 0.769819 0
M  V30 7160 H 696.644 -0.90428 0.284572 0
M  V30 7161 H 696.35 -3.48458 0.47643 0
M  V30 7162 H 696.224 -3.55086 -1.27254 0
M  V30 7163 H 698.611 -2.57386 -1.44349 0
M  V30 7164 H 698.692 -2.53744 0.323695 0
M  V30 7165 H 698.336 -5.06552 0.369843 0
M  V30 7166 H 698.266 -5.07364 -1.41028 0
M  V30 7167 H 700.757 -3.72822 -0.617419 0
M  V30 7168 H 701.07 -7.70132 -0.641592 0
M  V30 7169 H 699.415 -6.92543 -0.583927 0
M  V30 7170 H 702.606 -4.63112 -0.681544 0
M  V30 7171 H 702.779 -6.44286 -0.692794 0
M  V30 7172 N 696.185 0.383891 -1.52853 0
M  V30 7173 C 697.132 1.46924 -1.77995 0
M  V30 7174 C 698.102 1.53958 -0.623396 0
M  V30 7175 O 699.287 1.70134 -0.863657 0
M  V30 7176 C 696.427 2.84093 -1.95921 0
M  V30 7177 C 695.54 2.86171 -3.23621 0
M  V30 7178 C 694.675 4.14799 -3.31836 0
M  V30 7179 C 693.714 4.10948 -4.53639 0
M  V30 7180 N 692.851 5.31192 -4.59107 0
M  V30 7181 H 697.691 1.24786 -2.70615 0
M  V30 7182 H 695.228 0.605265 -1.34071 0
M  V30 7183 H 697.186 3.63755 -2.04299 0
M  V30 7184 H 695.816 3.04671 -1.06656 0
M  V30 7185 H 694.868 1.9885 -3.24288 0
M  V30 7186 H 696.18 2.79194 -4.13343 0
M  V30 7187 H 695.334 5.02867 -3.39425 0
M  V30 7188 H 694.073 4.24505 -2.40097 0
M  V30 7189 H 693.078 3.21268 -4.46169 0
M  V30 7190 H 694.303 4.0286 -5.467 0
M  V30 7191 H 692.249 5.41518 -3.70262 0
M  V30 7192 H 692.166 5.26311 -5.42708 0
M  V30 7193 H 693.434 6.21143 -4.70958 0
M  V30 7194 N 697.663 1.43903 0.642637 0
M  V30 7195 C 699.074 1.40975 1.22404 0
M  V30 7196 C 699.425 0.1192 1.95838 0
M  V30 7197 O 698.55 -0.780939 2.01818 0
M  V30 7198 C 699.145 2.5538 2.22636 0
M  V30 7199 C 697.704 2.55684 2.76229 0
M  V30 7200 C 696.851 2.32556 1.51039 0
M  V30 7201 H 699.802 1.5265 0.434006 0
M  V30 7202 H 699.823 2.27474 3.05017 0
M  V30 7203 H 699.335 3.49294 1.69161 0
M  V30 7204 H 697.436 1.65679 3.33738 0
M  V30 7205 H 697.549 3.53799 3.23053 0
M  V30 7206 H 695.913 1.81427 1.78764 0
M  V30 7207 H 696.696 3.28569 0.99484 0
M  V30 7208 N 699.141 -0.881989 1.30609 0
M  V30 7209 C 700.388 -1.63405 1.19604 0
M  V30 7210 C 700.716 -1.92905 -0.248574 0
M  V30 7211 O 699.971 -1.55062 -1.19391 0
M  V30 7212 C 700.27 -2.97999 1.97311 0
M  V30 7213 C 699.936 -2.88039 3.46907 0
M  V30 7214 C 698.598 -2.85029 3.877 0
M  V30 7215 C 700.95 -2.75948 4.42156 0
M  V30 7216 C 698.278 -2.67772 5.2203 0
M  V30 7217 C 700.63 -2.60228 5.76597 0
M  V30 7218 C 699.294 -2.55595 6.16626 0
M  V30 7219 H 698.564 -0.597941 0.437662 0
M  V30 7220 H 701.211 -1.02524 1.61744 0
M  V30 7221 H 699.516 -3.62847 1.47815 0
M  V30 7222 H 701.213 -3.55156 1.86186 0
M  V30 7223 H 697.803 -2.91192 3.14492 0
M  V30 7224 H 701.987 -2.77337 4.1158 0
M  V30 7225 H 697.243 -2.62601 5.52133 0
M  V30 7226 H 701.417 -2.49847 6.50038 0
M  V30 7227 H 699.044 -2.41981 7.20659 0
M  V30 7228 N 700.619 -1.13374 -1.09472 0
M  V30 7229 C 702.03 -0.90801 -1.63132 0
M  V30 7230 C 702.381 0.555576 -1.8817 0
M  V30 7231 O 701.506 1.42218 -1.63104 0
M  V30 7232 C 702.101 -1.64182 -2.96361 0
M  V30 7233 C 700.66 -1.46197 -3.46848 0
M  V30 7234 C 699.807 -1.67134 -2.21273 0
M  V30 7235 H 702.758 -1.2871 -0.928411 0
M  V30 7236 H 702.779 -1.09863 -3.64294 0
M  V30 7237 H 702.291 -2.707 -2.78106 0
M  V30 7238 H 700.392 -0.419788 -3.70228 0
M  V30 7239 H 700.505 -2.22472 -4.24315 0
M  V30 7240 H 698.869 -1.09616 -2.29905 0
M  V30 7241 H 699.652 -2.74971 -2.05538 0
M  V30 7242 N 702.098 1.27442 -0.927168 0
M  V30 7243 C 703.375 1.89473 -0.485742 0
M  V30 7244 C 703.755 1.83922 1.03614 0
M  V30 7245 O 703.103 1.28409 1.89007 0
M  V30 7246 C 703.313 3.33417 -1.03123 0
M  V30 7247 C 704.661 4.10333 -1.0914 0
M  V30 7248 O 705.685 3.4243 -0.98082 0
M  V30 7249 O 704.544 5.31737 -1.26165 0
M  V30 7250 H 701.638 0.812124 -0.156154 0
M  V30 7251 H 704.184 1.35713 -1.01882 0
M  V30 7252 H 702.956 3.31747 -2.07508 0
M  V30 7253 H 702.579 3.94695 -0.479767 0
M  V30 7254 N 703.576 0.692616 1.41565 0
M  V30 7255 C 704.823 0.222335 2.01276 0
M  V30 7256 C 705.151 -1.17706 1.5484 0
M  V30 7257 O 704.406 -1.80795 0.749118 0
M  V30 7258 C 704.705 0.225073 3.56691 0
M  V30 7259 C 704.371 1.57158 4.22625 0
M  V30 7260 C 703.033 1.94022 4.40351 0
M  V30 7261 C 705.385 2.45758 4.59622 0
M  V30 7262 C 702.713 3.19076 4.92349 0
M  V30 7263 C 705.065 3.70141 5.13009 0
M  V30 7264 C 703.729 4.07152 5.28946 0
M  V30 7265 H 702.999 0.0813581 0.73652 0
M  V30 7266 H 705.646 0.891123 1.69503 0
M  V30 7267 H 703.951 -0.527259 3.88236 0
M  V30 7268 H 705.648 -0.156283 4.00695 0
M  V30 7269 H 702.238 1.27486 4.09201 0
M  V30 7270 H 706.422 2.18558 4.45585 0
M  V30 7271 H 701.678 3.4775 5.02872 0
M  V30 7272 H 705.852 4.38983 5.40617 0
M  V30 7273 H 703.479 5.04125 5.69001 0
M  V30 7274 N 705.054 -1.51416 0.437162 0
M  V30 7275 C 706.3 -2.02386 -0.129555 0
M  V30 7276 C 706.633 -1.32071 -1.42376 0
M  V30 7277 O 705.908 -0.43559 -1.8956 0
M  V30 7278 C 706.191 -3.5841 -0.348487 0
M  V30 7279 C 706.044 -4.39341 0.964352 0
M  V30 7280 C 707.363 -4.25654 -1.11834 0
M  V30 7281 H 704.482 -0.735587 -0.0456109 0
M  V30 7282 H 707.124 -1.81055 0.576124 0
M  V30 7283 H 705.274 -3.76716 -0.949592 0
M  V30 7284 H 706.946 -4.32685 1.59942 0
M  V30 7285 H 705.189 -4.04432 1.56898 0
M  V30 7286 H 705.86 -5.4667 0.765212 0
M  V30 7287 H 708.336 -4.11617 -0.609165 0
M  V30 7288 H 707.212 -5.34704 -1.24029 0
M  V30 7289 H 707.473 -3.86502 -2.14636 0
M  V30 7290 N 706.532 -0.168513 -1.56696 0
M  V30 7291 C 707.762 0.482802 -2.0088 0
M  V30 7292 C 708.17 1.57537 -1.0478 0
M  V30 7293 O 707.513 1.83656 -0.0402746 0
M  V30 7294 C 707.575 1.1236 -3.4149 0
M  V30 7295 C 707.239 0.173027 -4.56672 0
M  V30 7296 C 708.236 -0.607565 -5.16338 0
M  V30 7297 C 705.921 0.0696691 -5.02252 0
M  V30 7298 C 707.915 -1.47874 -6.2001 0
M  V30 7299 C 705.602 -0.805096 -6.05773 0
M  V30 7300 C 706.6 -1.57789 -6.64524 0
M  V30 7301 O 706.288 -2.43804 -7.66038 0
M  V30 7302 H 706.02 0.128246 -0.663723 0
M  V30 7303 H 708.574 -0.266532 -2.03663 0
M  V30 7304 H 706.804 1.921 -3.35611 0
M  V30 7305 H 708.493 1.67683 -3.69645 0
M  V30 7306 H 709.259 -0.53787 -4.82008 0
M  V30 7307 H 705.138 0.660957 -4.56237 0
M  V30 7308 H 708.682 -2.0824 -6.65794 0
M  V30 7309 H 704.579 -0.876005 -6.39528 0
M  V30 7310 H 705.347 -2.37289 -7.83349 0
M  V30 7311 N 708.01 1.57248 0.105221 0
M  V30 7312 C 708.957 2.01338 1.12835 0
M  V30 7313 C 709.927 0.887897 1.40377 0
M  V30 7314 O 711.112 1.15315 1.5201 0
M  V30 7315 C 708.252 2.43432 2.44611 0
M  V30 7316 C 707.365 3.69457 2.23888 0
M  V30 7317 C 706.5 4.00473 3.48991 0
M  V30 7318 C 705.539 5.19638 3.23485 0
M  V30 7319 N 704.676 5.46457 4.40828 0
M  V30 7320 H 709.516 2.88527 0.745386 0
M  V30 7321 H 707.053 1.42714 0.356535 0
M  V30 7322 H 709.011 2.65879 3.21503 0
M  V30 7323 H 707.641 1.59266 2.80774 0
M  V30 7324 H 706.693 3.54545 1.37847 0
M  V30 7325 H 708.005 4.56497 2.01026 0
M  V30 7326 H 707.159 4.23642 4.34295 0
M  V30 7327 H 705.898 3.11935 3.74897 0
M  V30 7328 H 704.903 4.96299 2.36574 0
M  V30 7329 H 706.128 6.09766 2.98935 0
M  V30 7330 H 704.074 4.60876 4.66829 0
M  V30 7331 H 703.991 6.27849 4.2112 0
M  V30 7332 H 705.259 5.74155 5.27225 0
M  V30 7333 N 709.488 -0.375779 1.53054 0
M  V30 7334 C 710.904 -0.716764 1.426 0
M  V30 7335 C 711.104 -1.93651 0.556931 0
M  V30 7336 O 710.16 -2.52475 0.0354461 0
M  V30 7337 C 711.473 -0.939499 2.85646 0
M  V30 7338 C 713.021 -1.04015 2.95212 0
M  V30 7339 C 713.496 -1.29543 4.39298 0
M  V30 7340 N 714.987 -1.36335 4.42682 0
M  V30 7341 C 715.722 -1.57778 5.51266 0
M  V30 7342 N 715.218 -1.76604 6.69913 0
M  V30 7343 N 717.011 -1.60065 5.38828 0
M  V30 7344 H 709.162 0.42664 2.08071 0
M  V30 7345 H 711.425 0.128758 0.939215 0
M  V30 7346 H 711.131 -0.115189 3.51511 0
M  V30 7347 H 711.005 -1.85048 3.2869 0
M  V30 7348 H 713.392 -1.85501 2.29507 0
M  V30 7349 H 713.473 -0.106785 2.55577 0
M  V30 7350 H 713.117 -0.485611 5.05573 0
M  V30 7351 H 713.047 -2.24184 4.76497 0
M  V30 7352 H 715.538 -1.23441 3.5717 0
M  V30 7353 H 715.851 -1.9251 7.48438 0
M  V30 7354 H 714.196 -1.73802 6.72917 0
M  V30 7355 H 717.387 -1.44917 4.45103 0
M  V30 7356 H 717.56 -1.76435 6.23518 0
M  V30 7357 N 710.966 -1.44241 -0.634997 0
M  V30 7358 C 712.215 -1.46102 -1.39058 0
M  V30 7359 C 712.528 -0.0959909 -1.95364 0
M  V30 7360 O 713.734 0.00788751 -2.71499 0
M  V30 7361 C 712.19 -2.57195 -2.51751 0
M  V30 7362 C 711.798 -3.99888 -2.01974 0
M  V30 7363 C 713.542 -2.68272 -3.28984 0
M  V30 7364 C 711.449 -5.02412 -3.11987 0
M  V30 7365 H 710.379 -0.543556 -0.522554 0
M  V30 7366 H 713.03 -1.70294 -0.683538 0
M  V30 7367 H 711.412 -2.26237 -3.25012 0
M  V30 7368 H 712.586 -4.40396 -1.35604 0
M  V30 7369 H 710.901 -3.93019 -1.37568 0
M  V30 7370 H 713.498 -3.42042 -4.10988 0
M  V30 7371 H 713.841 -1.73957 -3.78212 0
M  V30 7372 H 714.374 -2.98622 -2.62812 0
M  V30 7373 H 711.113 -5.98342 -2.67707 0
M  V30 7374 H 710.633 -4.66501 -3.77011 0
M  V30 7375 H 712.312 -5.25939 -3.76825 0
M  V30 7376 N 712.444 0.87505 -1.31075 0
M  V30 7377 C 713.391 1.98178 -1.18296 0
M  V30 7378 C 714.361 1.65952 -0.0699923 0
M  V30 7379 O 715.546 1.8926 -0.241951 0
M  V30 7380 C 712.686 3.33399 -0.891024 0
M  V30 7381 C 711.799 3.78253 -2.08684 0
M  V30 7382 C 710.934 5.02166 -1.73212 0
M  V30 7383 C 709.973 5.39455 -2.89231 0
M  V30 7384 N 709.11 6.54549 -2.53989 0
M  V30 7385 H 713.95 2.0844 -2.12971 0
M  V30 7386 H 711.487 1.02047 -1.05948 0
M  V30 7387 H 713.445 4.11246 -0.702338 0
M  V30 7388 H 712.075 3.22794 0.0188799 0
M  V30 7389 H 711.127 2.9623 -2.38646 0
M  V30 7390 H 712.439 4.01821 -2.95536 0
M  V30 7391 H 711.593 5.87666 -1.50777 0
M  V30 7392 H 710.332 4.80491 -0.83544 0
M  V30 7393 H 709.337 4.52477 -3.12321 0
M  V30 7394 H 710.562 5.63098 -3.79601 0
M  V30 7395 H 708.508 6.3443 -1.66838 0
M  V30 7396 H 708.425 6.78035 -3.34372 0
M  V30 7397 H 709.693 7.43254 -2.34934 0
M  V30 7398 N 713.922 1.13953 1.08869 0
M  V30 7399 C 714.885 0.824991 2.13838 0
M  V30 7400 C 715.885 -0.168198 1.59918 0
M  V30 7401 O 717.075 0.0595778 1.74098 0
M  V30 7402 C 714.207 0.228938 3.4013 0
M  V30 7403 H 715.4 1.75521 2.43171 0
M  V30 7404 H 712.953 0.94492 1.24503 0
M  V30 7405 H 713.688 -0.710227 3.16427 0
M  V30 7406 H 713.473 0.944243 3.80561 0
M  V30 7407 H 714.963 0.0259223 4.17592 0
M  V30 7408 N 715.4 -1.26948 0.933913 0
M  V30 7409 C 716.816 -1.46419 0.635103 0
M  V30 7410 C 717.016 -1.84336 -0.813785 0
M  V30 7411 O 716.072 -1.96061 -1.59111 0
M  V30 7412 C 717.385 -2.55206 1.5903 0
M  V30 7413 C 718.933 -2.69062 1.5992 0
M  V30 7414 C 719.408 -3.81013 2.54152 0
M  V30 7415 N 720.899 -3.88395 2.52395 0
M  V30 7416 C 721.634 -4.74454 3.21996 0
M  V30 7417 N 721.13 -5.64954 4.00997 0
M  V30 7418 N 722.923 -4.68237 3.10983 0
M  V30 7419 H 715.074 -1.00622 1.87053 0
M  V30 7420 H 717.337 -0.503189 0.803433 0
M  V30 7421 H 717.043 -2.34153 2.62422 0
M  V30 7422 H 716.917 -3.52719 1.33677 0
M  V30 7423 H 719.304 -2.89492 0.572569 0
M  V30 7424 H 719.385 -1.72016 1.89325 0
M  V30 7425 H 719.029 -3.61336 3.5693 0
M  V30 7426 H 718.959 -4.77499 2.22041 0
M  V30 7427 H 721.45 -3.23687 1.95025 0
M  V30 7428 H 721.763 -6.27496 4.51074 0
M  V30 7429 H 720.108 -5.6473 4.05099 0
M  V30 7430 H 723.299 -3.96535 2.48753 0
M  V30 7431 H 723.472 -5.35087 3.65494 0
M  V30 7432 N 716.879 -0.700114 -1.41195 0
M  V30 7433 C 718.104 -0.240704 -2.05998 0
M  V30 7434 C 718.529 1.10313 -1.52357 0
M  V30 7435 O 717.887 1.69154 -0.652424 0
M  V30 7436 C 717.935 -0.213783 -3.59966 0
M  V30 7437 O 717.039 0.809933 -4.04368 0
M  V30 7438 H 716.38 -0.116471 -0.653705 0
M  V30 7439 H 718.91 -0.956251 -1.80878 0
M  V30 7440 H 718.92 -0.0461852 -4.07974 0
M  V30 7441 H 717.595 -1.19454 -3.98376 0
M  V30 7442 H 716.172 0.611319 -3.67855 0
M  V30 7443 N 718.357 1.51182 -0.445186 0
M  V30 7444 C 719.773 1.59299 -0.0978954 0
M  V30 7445 C 719.973 1.4555 1.39346 0
M  V30 7446 O 719.029 1.30073 2.16419 0
M  V30 7447 C 720.342 2.94133 -0.625005 0
M  V30 7448 C 721.89 3.07463 -0.586137 0
M  V30 7449 C 722.365 4.44832 -1.09035 0
M  V30 7450 N 723.856 4.51173 -1.04867 0
M  V30 7451 C 724.591 5.55804 -1.40959 0
M  V30 7452 N 724.087 6.67816 -1.84375 0
M  V30 7453 N 725.88 5.46205 -1.32726 0
M  V30 7454 H 718.031 1.58363 -1.41544 0
M  V30 7455 H 720.294 0.746946 -0.58376 0
M  V30 7456 H 720 3.09589 -1.66876 0
M  V30 7457 H 719.874 3.77161 -0.0542262 0
M  V30 7458 H 722.261 2.9167 0.448646 0
M  V30 7459 H 722.342 2.26255 -1.19341 0
M  V30 7460 H 721.986 4.61372 -2.12364 0
M  V30 7461 H 721.916 5.24591 -0.459539 0
M  V30 7462 H 724.407 3.70783 -0.729932 0
M  V30 7463 H 724.72 7.43683 -2.10131 0
M  V30 7464 H 723.065 6.69003 -1.88308 0
M  V30 7465 H 726.256 4.57583 -0.986678 0
M  V30 7466 H 726.429 6.27634 -1.61182 0
M  V30 7467 N 719.835 0.176821 1.56605 0
M  V30 7468 C 720.765 -0.746841 2.21234 0
M  V30 7469 C 721.746 -1.23502 1.16967 0
M  V30 7470 O 722.931 -1.28718 1.45414 0
M  V30 7471 C 720.061 -1.97407 2.8574 0
M  V30 7472 C 719.015 -1.62153 3.96094 0
M  V30 7473 C 718.341 -2.92387 4.47676 0
M  V30 7474 C 719.641 -0.845353 5.15413 0
M  V30 7475 H 721.335 -0.208116 2.98676 0
M  V30 7476 H 718.881 -0.0986594 1.43662 0
M  V30 7477 H 720.834 -2.62531 3.2963 0
M  V30 7478 H 719.558 -2.53703 2.05676 0
M  V30 7479 H 718.217 -0.993964 3.52868 0
M  V30 7480 H 717.865 -3.46734 3.64396 0
M  V30 7481 H 717.565 -2.69551 5.22127 0
M  V30 7482 H 719.089 -3.5853 4.94255 0
M  V30 7483 H 720.503 -1.39929 5.55961 0
M  V30 7484 H 718.9 -0.715814 5.95815 0
M  V30 7485 H 719.97 0.157239 4.84645 0
M  V30 7486 N 721.313 -1.57302 -0.09688 0
M  V30 7487 C 722.276 -2.00976 -1.10188 0
M  V30 7488 C 723.276 -0.903009 -1.3305 0
M  V30 7489 O 724.466 -1.16853 -1.29194 0
M  V30 7490 C 721.598 -2.36893 -2.45142 0
M  V30 7491 H 722.791 -2.9098 -0.726003 0
M  V30 7492 H 720.344 -1.52515 -0.341872 0
M  V30 7493 H 721.079 -1.49837 -2.8761 0
M  V30 7494 H 720.864 -3.17632 -2.29897 0
M  V30 7495 H 722.354 -2.71345 -3.1743 0
M  V30 7496 N 722.791 0.367657 -1.53252 0
M  V30 7497 C 723.701 1.47415 -1.82499 0
M  V30 7498 C 724.717 1.58711 -0.713222 0
M  V30 7499 O 725.893 1.74644 -1.00306 0
M  V30 7500 C 722.958 2.82706 -2.00694 0
M  V30 7501 C 722.019 2.80955 -3.24596 0
M  V30 7502 C 721.252 4.09793 -3.41914 0
M  V30 7503 O 721.475 5.05852 -2.63572 0
M  V30 7504 O 720.409 4.15731 -4.3526 0
M  V30 7505 H 724.235 1.25624 -2.765 0
M  V30 7506 H 721.82 0.557559 -1.38606 0
M  V30 7507 H 723.702 3.62873 -2.14246 0
M  V30 7508 H 722.377 3.04479 -1.09883 0
M  V30 7509 H 721.284 1.99494 -3.16469 0
M  V30 7510 H 722.617 2.64136 -4.15323 0
M  V30 7511 N 724.269 1.44576 0.627338 0
M  V30 7512 C 725.199 1.54562 1.75022 0
M  V30 7513 C 726.18 0.398378 1.65369 0
M  V30 7514 O 727.365 0.61899 1.84071 0
M  V30 7515 C 724.495 1.49309 3.13567 0
M  V30 7516 C 723.449 2.62549 3.38012 0
M  V30 7517 C 722.775 2.42348 4.76625 0
M  V30 7518 C 724.075 4.04678 3.30202 0
M  V30 7519 H 725.769 2.4855 1.66922 0
M  V30 7520 H 723.315 1.19624 0.801636 0
M  V30 7521 H 725.268 1.54895 3.919 0
M  V30 7522 H 723.992 0.518392 3.2246 0
M  V30 7523 H 722.651 2.56358 2.62061 0
M  V30 7524 H 722.299 1.43062 4.82226 0
M  V30 7525 H 721.999 3.18273 4.93939 0
M  V30 7526 H 723.523 2.49758 5.57183 0
M  V30 7527 H 724.937 4.12217 3.98435 0
M  V30 7528 H 723.334 4.80836 3.5905 0
M  V30 7529 H 724.404 4.2798 2.27949 0
M  V30 7530 N 725.747 -0.868086 1.31537 0
M  V30 7531 C 727.163 -1.15414 1.10235 0
M  V30 7532 C 727.363 -2.01106 -0.125947 0
M  V30 7533 O 726.419 -2.38994 -0.814734 0
M  V30 7534 C 727.732 -1.84445 2.37488 0
M  V30 7535 C 729.28 -1.97139 2.43116 0
M  V30 7536 C 729.755 -2.69585 3.70254 0
M  V30 7537 N 731.246 -2.77119 3.71159 0
M  V30 7538 C 731.981 -3.33791 4.6623 0
M  V30 7539 N 731.477 -3.9138 5.71659 0
M  V30 7540 N 733.27 -3.31767 4.53747 0
M  V30 7541 H 725.421 -0.297109 2.10312 0
M  V30 7542 H 727.684 -0.194227 0.92789 0
M  V30 7543 H 727.39 -1.2893 3.27215 0
M  V30 7544 H 727.264 -2.84709 2.47428 0
M  V30 7545 H 729.651 -2.51818 1.53856 0
M  V30 7546 H 729.732 -0.95912 2.37138 0
M  V30 7547 H 729.376 -2.15572 4.59881 0
M  V30 7548 H 729.306 -3.71223 3.73499 0
M  V30 7549 H 731.797 -2.3625 2.94948 0
M  V30 7550 H 732.11 -4.3274 6.40278 0
M  V30 7551 H 730.455 -3.8975 5.7543 0
M  V30 7552 H 733.646 -2.86016 3.70557 0
M  V30 7553 H 733.819 -3.75636 5.28017 0
M  V30 7554 N 727.225 -1.14528 -1.08264 0
M  V30 7555 C 728.473 -0.912599 -1.80322 0
M  V30 7556 C 728.794 0.562256 -1.86718 0
M  V30 7557 O 728.064 1.40869 -1.36135 0
M  V30 7558 H 726.644 -0.334645 -0.667849 0
M  V30 7559 H 729.306 -1.44415 -1.30883 0
M  V30 7560 H 728.402 -1.31384 -2.83098 0
M  V30 7561 N 728.703 1.26451 -0.940633 0
M  V30 7562 C 729.949 1.94065 -0.58878 0
M  V30 7563 C 730.282 1.7363 0.869853 0
M  V30 7564 O 729.557 1.073 1.62225 0
M  V30 7565 C 729.84 3.47852 -0.931199 0
M  V30 7566 C 729.693 3.77575 -2.44453 0
M  V30 7567 C 731.012 4.37832 -0.446229 0
M  V30 7568 H 728.131 0.704827 -0.21538 0
M  V30 7569 H 730.773 1.4933 -1.17475 0
M  V30 7570 H 728.923 3.86085 -0.432539 0
M  V30 7571 H 730.595 3.49059 -3.01588 0
M  V30 7572 H 728.838 3.23671 -2.88825 0
M  V30 7573 H 729.509 4.85068 -2.63464 0
M  V30 7574 H 731.985 4.06822 -0.873778 0
M  V30 7575 H 730.861 5.44228 -0.714648 0
M  V30 7576 H 731.122 4.37239 0.653815 0
M  V30 7577 N 730.181 0.707592 1.40822 0
M  V30 7578 C 731.592 0.317011 1.83989 0
M  V30 7579 C 731.943 -1.14697 1.59182 0
M  V30 7580 O 731.068 -1.8818 1.06852 0
M  V30 7581 C 731.663 0.568593 3.33995 0
M  V30 7582 C 730.222 0.231804 3.75686 0
M  V30 7583 C 729.369 0.844933 2.64114 0
M  V30 7584 H 732.32 0.907349 1.30203 0
M  V30 7585 H 732.341 -0.168798 3.80125 0
M  V30 7586 H 731.853 1.63417 3.52018 0
M  V30 7587 H 729.954 -0.82903 3.6326 0
M  V30 7588 H 730.067 0.695219 4.74029 0
M  V30 7589 H 728.431 0.273588 2.53226 0
M  V30 7590 H 729.214 1.91462 2.84951 0
M  V30 7591 N 731.66 -1.50943 0.453197 0
M  V30 7592 C 733.076 -1.59245 0.106342 0
M  V30 7593 C 733.276 -1.46287 -1.38572 0
M  V30 7594 O 732.332 -1.31219 -2.15726 0
M  V30 7595 C 733.645 -2.93797 0.640595 0
M  V30 7596 C 735.193 -3.07148 0.602435 0
M  V30 7597 C 735.668 -4.44247 1.11393 0
M  V30 7598 N 737.159 -4.50611 1.07258 0
M  V30 7599 C 737.894 -5.55049 1.43905 0
M  V30 7600 N 737.39 -6.66828 1.87914 0
M  V30 7601 N 739.183 -5.45494 1.35621 0
M  V30 7602 H 731.334 -1.5761 1.42382 0
M  V30 7603 H 733.597 -0.74384 0.587713 0
M  V30 7604 H 733.303 -3.087 1.68515 0
M  V30 7605 H 733.177 -3.77127 0.0742272 0
M  V30 7606 H 735.564 -2.91903 -0.433171 0
M  V30 7607 H 735.645 -2.25619 1.20539 0
M  V30 7608 H 735.289 -4.60239 2.14808 0
M  V30 7609 H 735.219 -5.2434 0.487353 0
M  V30 7610 H 737.71 -3.70391 0.749585 0
M  V30 7611 H 738.023 -7.42558 2.14072 0
M  V30 7612 H 736.368 -6.67995 1.91853 0
M  V30 7613 H 739.559 -4.57053 1.01093 0
M  V30 7614 H 739.732 -6.2677 1.64508 0
M  V30 7615 N 733.138 -0.185124 -1.56509 0
M  V30 7616 C 734.386 0.455357 -1.96903 0
M  V30 7617 C 734.707 1.62839 -1.07277 0
M  V30 7618 O 733.977 1.95385 -0.141966 0
M  V30 7619 H 732.557 0.171218 -0.727113 0
M  V30 7620 H 735.219 -0.26953 -1.93027 0
M  V30 7621 H 734.315 0.80616 -3.01509 0
M  V30 7622 N 734.616 1.57351 0.0885366 0
M  V30 7623 C 735.546 2.05561 1.10757 0
M  V30 7624 C 736.527 0.945789 1.41382 0
M  V30 7625 O 737.712 1.21747 1.51299 0
M  V30 7626 C 734.842 2.48554 2.42566 0
M  V30 7627 C 733.796 3.63259 2.26334 0
M  V30 7628 C 733.122 3.9225 3.63378 0
M  V30 7629 C 734.422 4.93913 1.69844 0
M  V30 7630 H 736.116 2.90946 0.706468 0
M  V30 7631 H 733.662 1.39968 0.338385 0
M  V30 7632 H 735.615 2.8089 3.14132 0
M  V30 7633 H 734.339 1.60176 2.84625 0
M  V30 7634 H 732.998 3.31179 1.57213 0
M  V30 7635 H 732.646 3.0103 4.02976 0
M  V30 7636 H 732.346 4.69478 3.53362 0
M  V30 7637 H 733.87 4.27067 4.36401 0
M  V30 7638 H 735.284 5.24588 2.31258 0
M  V30 7639 H 733.681 5.75349 1.70569 0
M  V30 7640 H 734.751 4.80409 0.65843 0
M  V30 7641 N 736.094 -0.359525 1.53444 0
M  V30 7642 C 737.324 -1.12036 1.73585 0
M  V30 7643 C 737.732 -1.83335 0.467438 0
M  V30 7644 O 737.075 -1.74641 -0.569753 0
M  V30 7645 C 737.137 -2.19036 2.85068 0
M  V30 7646 C 736.801 -1.67451 4.25217 0
M  V30 7647 C 737.798 -1.13534 5.07352 0
M  V30 7648 C 735.483 -1.72781 4.71648 0
M  V30 7649 C 737.477 -0.656321 6.34012 0
M  V30 7650 C 735.164 -1.2449 5.98285 0
M  V30 7651 C 736.162 -0.710068 6.79299 0
M  V30 7652 O 735.85 -0.234314 8.03558 0
M  V30 7653 H 735.582 -0.340662 0.583888 0
M  V30 7654 H 738.136 -0.422452 2.01009 0
M  V30 7655 H 736.366 -2.92338 2.53131 0
M  V30 7656 H 738.055 -2.80559 2.93328 0
M  V30 7657 H 738.821 -1.08751 4.7265 0
M  V30 7658 H 734.7 -2.13351 4.08659 0
M  V30 7659 H 738.244 -0.238193 6.97193 0
M  V30 7660 H 734.141 -1.28969 6.32485 0
M  V30 7661 H 734.909 -0.353084 8.17738 0
M  V30 7662 N 737.572 -1.44907 -0.619662 0
M  V30 7663 C 738.849 -1.38766 -1.37852 0
M  V30 7664 C 739.229 -0.0521393 -2.11036 0
M  V30 7665 O 738.577 0.965613 -2.07095 0
M  V30 7666 C 738.787 -2.59344 -2.33541 0
M  V30 7667 C 740.135 -3.03909 -2.96521 0
M  V30 7668 O 741.159 -2.59631 -2.43865 0
M  V30 7669 O 740.018 -3.80713 -3.92071 0
M  V30 7670 H 737.112 -0.550083 -0.617525 0
M  V30 7671 H 739.658 -1.57015 -0.643759 0
M  V30 7672 H 738.43 -3.48142 -1.78642 0
M  V30 7673 H 738.053 -2.43367 -3.14417 0
M  V30 7674 N 739.05 0.861098 -1.31996 0
M  V30 7675 C 740.298 1.61162 -1.21947 0
M  V30 7676 C 740.619 1.93751 0.220351 0
M  V30 7677 O 739.889 1.59069 1.14341 0
M  V30 7678 H 738.469 0.597485 -0.448353 0
M  V30 7679 H 741.131 1.03039 -1.65436 0
M  V30 7680 H 740.227 2.55138 -1.79752 0
M  V30 7681 N 740.528 1.15101 1.07655 0
M  V30 7682 C 741.939 0.933848 1.61667 0
M  V30 7683 C 742.29 -0.525569 1.8903 0
M  V30 7684 O 741.415 -1.39605 1.65346 0
M  V30 7685 C 742.01 1.68876 2.93711 0
M  V30 7686 C 740.569 1.51697 3.44478 0
M  V30 7687 C 739.716 1.70633 2.18586 0
M  V30 7688 H 742.667 1.30171 0.907816 0
M  V30 7689 H 742.688 1.15645 3.625 0
M  V30 7690 H 742.2 2.7509 2.73764 0
M  V30 7691 H 740.301 0.478635 3.69513 0
M  V30 7692 H 740.414 2.29194 4.20722 0
M  V30 7693 H 738.778 1.13259 2.28132 0
M  V30 7694 H 739.561 2.78206 2.01137 0
M  V30 7695 N 742.006 -1.2595 0.947325 0
M  V30 7696 C 743.252 -1.9375 0.599064 0
M  V30 7697 C 743.585 -1.74088 -0.860632 0
M  V30 7698 O 742.86 -1.08158 -1.61654 0
M  V30 7699 C 743.143 -3.47353 0.949634 0
M  V30 7700 C 742.996 -3.76273 2.46452 0
M  V30 7701 C 744.315 -4.37589 0.469442 0
M  V30 7702 H 741.434 -0.703674 0.219115 0
M  V30 7703 H 744.076 -1.48705 1.18266 0
M  V30 7704 H 742.226 -3.8585 0.453008 0
M  V30 7705 H 743.898 -3.47455 3.03435 0
M  V30 7706 H 742.141 -3.22135 2.90537 0
M  V30 7707 H 742.812 -4.83664 2.66032 0
M  V30 7708 H 745.288 -4.06353 0.89534 0
M  V30 7709 H 744.164 -5.43841 0.7435 0
M  V30 7710 H 744.425 -4.37579 -0.630618 0
M  V30 7711 N 743.484 -0.715051 -1.40445 0
M  V30 7712 C 744.724 -0.258742 -2.02756 0
M  V30 7713 C 745.088 1.12661 -1.55472 0
M  V30 7714 O 746.289 1.67988 -2.09842 0
M  V30 7715 C 744.56 -0.335201 -3.55825 0
M  V30 7716 S 746.119 0.044201 -4.38778 0
M  V30 7717 H 742.937 -0.102683 -0.703546 0
M  V30 7718 H 745.539 -0.937151 -1.71574 0
M  V30 7719 H 744.243 -1.34511 -3.87731 0
M  V30 7720 H 743.774 0.361705 -3.91734 0
M  V30 7721 H 745.789 1.26639 -4.79768 0
M  V30 7722 N 744.962 1.50701 -0.461195 0
M  V30 7723 C 745.872 2.32069 0.343661 0
M  V30 7724 C 746.888 1.42016 1.00535 0
M  V30 7725 O 748.064 1.75077 0.995498 0
M  V30 7726 C 745.129 3.16424 1.41692 0
M  V30 7727 C 744.19 4.22286 0.772869 0
M  V30 7728 C 743.423 5.02609 1.79499 0
M  V30 7729 O 743.646 4.83874 3.0203 0
M  V30 7730 O 742.58 5.86047 1.3723 0
M  V30 7731 H 746.406 3.01996 -0.321268 0
M  V30 7732 H 743.991 1.47723 -0.223235 0
M  V30 7733 H 745.873 3.68795 2.03883 0
M  V30 7734 H 744.548 2.49236 2.0655 0
M  V30 7735 H 743.455 3.73931 0.112277 0
M  V30 7736 H 744.788 4.91915 0.167399 0
M  V30 7737 N 746.441 0.193421 1.56409 0
M  V30 7738 C 747.687 -0.446449 1.97825 0
M  V30 7739 C 748.02 -1.61386 1.08019 0
M  V30 7740 O 747.295 -1.94053 0.131839 0
M  V30 7741 C 747.578 -0.908199 3.48459 0
M  V30 7742 C 747.431 0.260914 4.49043 0
M  V30 7743 C 748.75 -1.77428 4.0275 0
M  V30 7744 H 745.869 -0.160807 0.719243 0
M  V30 7745 H 748.511 0.284006 1.87865 0
M  V30 7746 H 746.661 -1.53062 3.57077 0
M  V30 7747 H 748.333 0.898548 4.52464 0
M  V30 7748 H 746.576 0.912949 4.24085 0
M  V30 7749 H 747.247 -0.104657 5.51901 0
M  V30 7750 H 749.723 -1.24936 3.96901 0
M  V30 7751 H 748.599 -2.06633 5.08521 0
M  V30 7752 H 748.86 -2.72788 3.47907 0
M  V30 7753 N 747.919 -1.57396 -0.0801906 0
M  V30 7754 C 749.144 -1.91437 -0.797909 0
M  V30 7755 C 749.569 -0.789075 -1.70749 0
M  V30 7756 O 748.927 0.25857 -1.79447 0
M  V30 7757 C 748.975 -3.24402 -1.57467 0
M  V30 7758 O 748.079 -3.13043 -2.68473 0
M  V30 7759 H 747.42 -0.627109 -0.218243 0
M  V30 7760 H 749.95 -2.04537 -0.050949 0
M  V30 7761 H 749.96 -3.58072 -1.95571 0
M  V30 7762 H 748.635 -4.05884 -0.907229 0
M  V30 7763 H 747.212 -2.90915 -2.33287 0
M  V30 7764 N 749.397 0.351382 -1.53633 0
M  V30 7765 C 750.643 1.09411 -1.70754 0
M  V30 7766 C 750.976 1.88544 -0.465293 0
M  V30 7767 O 750.251 1.86923 0.537608 0
M  V30 7768 C 750.534 2.04173 -2.96623 0
M  V30 7769 C 750.387 1.28556 -4.31038 0
M  V30 7770 C 751.706 3.04102 -3.18136 0
M  V30 7771 H 748.825 0.396373 -0.621335 0
M  V30 7772 H 751.467 0.373464 -1.86293 0
M  V30 7773 H 749.617 2.65625 -2.83506 0
M  V30 7774 H 751.289 0.697786 -4.55992 0
M  V30 7775 H 749.532 0.587498 -4.29803 0
M  V30 7776 H 750.203 1.97989 -5.15271 0
M  V30 7777 H 752.679 2.5276 -3.30532 0
M  V30 7778 H 751.555 3.67616 -4.07615 0
M  V30 7779 H 751.816 3.75053 -2.34068 0
M  V30 7780 N 750.875 1.45233 0.611969 0
M  V30 7781 C 752.103 1.52539 1.39784 0
M  V30 7782 C 752.518 0.156533 1.8815 0
M  V30 7783 O 751.875 -0.84112 1.61961 0
M  V30 7784 C 751.926 2.50614 2.60528 0
M  V30 7785 O 751.647 3.8218 2.14173 0
M  V30 7786 C 753.148 2.67574 3.53439 0
M  V30 7787 H 750.368 0.51674 0.428043 0
M  V30 7788 H 752.912 1.90379 0.746727 0
M  V30 7789 H 751.067 2.15858 3.2169 0
M  V30 7790 H 751.481 4.35305 2.92592 0
M  V30 7791 H 752.955 3.40184 4.34717 0
M  V30 7792 H 753.432 1.73458 4.03496 0
M  V30 7793 H 754.038 3.0331 2.98133 0
M  V30 7794 N 752.353 -0.854086 1.3245 0
M  V30 7795 C 753.764 -1.42427 1.20712 0
M  V30 7796 C 754.115 -1.95371 -0.18013 0
M  V30 7797 O 753.24 -1.87587 -1.07889 0
M  V30 7798 C 753.835 -2.58897 2.18536 0
M  V30 7799 C 752.394 -3.11913 2.10683 0
M  V30 7800 C 751.541 -1.84661 2.06871 0
M  V30 7801 H 754.492 -0.661192 1.4427 0
M  V30 7802 H 754.513 -3.36074 1.78422 0
M  V30 7803 H 754.025 -2.20333 3.19492 0
M  V30 7804 H 752.126 -3.55059 1.12977 0
M  V30 7805 H 752.239 -3.73119 3.00532 0
M  V30 7806 H 750.603 -2.04285 1.52118 0
M  V30 7807 H 751.386 -1.48314 3.09609 0
M  V30 7808 N 753.831 -1.1567 -1.07043 0
M  V30 7809 C 754.778 -0.856336 -2.14326 0
M  V30 7810 C 755.748 0.192051 -1.64986 0
M  V30 7811 O 756.933 0.0589148 -1.90709 0
M  V30 7812 C 754.073 -0.355227 -3.43267 0
M  V30 7813 C 753.186 -1.46555 -4.06381 0
M  V30 7814 C 752.321 -0.920245 -5.23168 0
M  V30 7815 C 751.36 -2.00729 -5.78251 0
M  V30 7816 N 750.497 -1.47813 -6.86364 0
M  V30 7817 H 755.337 -1.77514 -2.39359 0
M  V30 7818 H 752.874 -0.885676 -1.17449 0
M  V30 7819 H 754.832 -0.0463804 -4.17174 0
M  V30 7820 H 753.462 0.526649 -3.18475 0
M  V30 7821 H 752.514 -1.89052 -3.30096 0
M  V30 7822 H 753.826 -2.28616 -4.43324 0
M  V30 7823 H 752.98 -0.564127 -6.04072 0
M  V30 7824 H 751.719 -0.0688477 -4.87651 0
M  V30 7825 H 750.724 -2.3722 -4.95991 0
M  V30 7826 H 751.949 -2.86252 -6.15822 0
M  V30 7827 H 749.895 -0.649145 -6.5278 0
M  V30 7828 H 749.812 -2.23498 -7.22208 0
M  V30 7829 H 751.08 -1.15036 -7.70965 0
M  V30 7830 N 755.309 1.25446 -0.953992 0
M  V30 7831 C 756.537 1.97215 -0.625595 0
M  V30 7832 C 756.952 1.70911 0.802168 0
M  V30 7833 O 756.309 0.984782 1.5365 0
M  V30 7834 C 756.36 3.50777 -0.873943 0
M  V30 7835 O 756.081 3.76173 -2.24556 0
M  V30 7836 C 757.582 4.39776 -0.557845 0
M  V30 7837 H 754.802 0.628652 -0.2346 0
M  V30 7838 H 757.346 1.59632 -1.27819 0
M  V30 7839 H 755.501 3.86474 -0.267765 0
M  V30 7840 H 755.915 4.70636 -2.31522 0
M  V30 7841 H 757.389 5.46431 -0.782157 0
M  V30 7842 H 757.866 4.36257 0.507573 0
M  V30 7843 H 758.472 4.09644 -1.14332 0
M  V30 7844 N 756.787 0.722489 1.40064 0
M  V30 7845 C 758.033 0.265371 2.01056 0
M  V30 7846 C 758.366 -1.14062 1.57174 0
M  V30 7847 O 757.641 -1.77514 0.794916 0
M  V30 7848 C 757.924 0.353157 3.58364 0
M  V30 7849 C 757.777 1.79802 4.123 0
M  V30 7850 C 759.096 -0.271677 4.39261 0
M  V30 7851 H 756.215 0.0979002 0.730469 0
M  V30 7852 H 758.857 0.916289 1.66446 0
M  V30 7853 H 757.007 -0.201037 3.87979 0
M  V30 7854 H 758.679 2.40813 3.93455 0
M  V30 7855 H 756.922 2.32348 3.66329 0
M  V30 7856 H 757.593 1.81079 5.21454 0
M  V30 7857 H 760.069 0.200607 4.15616 0
M  V30 7858 H 758.945 -0.179843 5.48605 0
M  V30 7859 H 759.206 -1.35611 4.20787 0
M  V30 7860 N 758.265 -1.50454 0.469181 0
M  V30 7861 C 759.493 -2.06729 -0.0842134 0
M  V30 7862 C 759.908 -1.33326 -1.33677 0
M  V30 7863 O 759.265 -0.401977 -1.78018 0
M  V30 7864 C 759.316 -3.59557 -0.374253 0
M  V30 7865 O 759.037 -4.30192 0.828622 0
M  V30 7866 C 760.538 -4.32449 -0.974824 0
M  V30 7867 H 757.758 -0.670971 0.006231 0
M  V30 7868 H 760.302 -1.93645 0.657415 0
M  V30 7869 H 758.457 -3.7245 -1.06581 0
M  V30 7870 H 758.871 -5.21371 0.572066 0
M  V30 7871 H 760.345 -5.40361 -1.12755 0
M  V30 7872 H 760.822 -3.92819 -1.96442 0
M  V30 7873 H 761.428 -4.24082 -0.321703 0
M  V30 7874 N 759.743 -0.201713 -1.56304 0
M  V30 7875 C 761.154 0.309711 -1.84113 0
M  V30 7876 C 761.505 1.60912 -1.12258 0
M  V30 7877 O 760.63 2.12937 -0.385587 0
M  V30 7878 C 761.225 0.568706 -3.33993 0
M  V30 7879 C 759.784 1.02448 -3.6219 0
M  V30 7880 C 758.931 0.0766842 -2.77194 0
M  V30 7881 H 761.882 -0.425356 -1.52893 0
M  V30 7882 H 761.903 1.41721 -3.53122 0
M  V30 7883 H 761.415 -0.37719 -3.86263 0
M  V30 7884 H 759.516 1.98443 -3.15359 0
M  V30 7885 H 759.629 0.912619 -4.70328 0
M  V30 7886 H 757.993 0.579809 -2.48013 0
M  V30 7887 H 758.776 -0.863774 -3.32256 0
M  V30 7888 N 761.222 1.57436 0.0718424 0
M  V30 7889 C 762.185 2.02703 1.06977 0
M  V30 7890 C 763.185 0.924062 1.31597 0
M  V30 7891 O 764.375 1.18894 1.27318 0
M  V30 7892 C 761.507 2.40763 2.41342 0
M  V30 7893 H 762.7 2.92098 0.679619 0
M  V30 7894 H 760.253 1.5304 0.317565 0
M  V30 7895 H 760.988 1.54394 2.8519 0
M  V30 7896 H 760.773 3.21249 2.24814 0
M  V30 7897 H 762.263 2.76361 3.13073 0
M  V30 7898 N 762.7 -0.34323 1.53817 0
M  V30 7899 C 763.925 -1.1079 1.75329 0
M  V30 7900 C 764.35 -1.81571 0.491293 0
M  V30 7901 O 763.708 -1.72561 -0.556089 0
M  V30 7902 C 763.756 -2.09681 2.9337 0
M  V30 7903 O 762.86 -3.17207 2.63541 0
M  V30 7904 H 762.201 -0.320402 0.581583 0
M  V30 7905 H 764.731 -0.393525 2.0078 0
M  V30 7906 H 764.741 -2.52897 3.20168 0
M  V30 7907 H 763.416 -1.5756 3.84899 0
M  V30 7908 H 761.993 -2.78806 2.47632 0
M  V30 7909 N 764.178 -1.45556 -0.604258 0
M  V30 7910 C 765.403 -1.53509 -1.39462 0
M  V30 7911 C 765.828 -0.169638 -1.87333 0
M  V30 7912 O 765.186 0.846346 -1.60333 0
M  V30 7913 C 765.234 -2.52654 -2.5729 0
M  V30 7914 O 764.338 -2.04666 -3.5803 0
M  V30 7915 H 763.679 -0.517355 -0.416221 0
M  V30 7916 H 766.209 -1.90939 -0.735072 0
M  V30 7917 H 766.219 -2.71568 -3.04491 0
M  V30 7918 H 764.894 -3.51823 -2.21797 0
M  V30 7919 H 763.471 -1.95643 -3.17456 0
M  V30 7920 N 765.656 0.84705 -1.32902 0
M  V30 7921 C 766.619 1.9378 -1.224 0
M  V30 7922 C 767.619 1.60144 -0.145108 0
M  V30 7923 O 768.809 1.69638 -0.396058 0
M  V30 7924 C 765.941 3.29234 -0.884174 0
M  V30 7925 H 767.134 2.04518 -2.19345 0
M  V30 7926 H 764.687 1.03816 -1.16842 0
M  V30 7927 H 765.422 3.24193 0.0831277 0
M  V30 7928 H 765.207 3.55026 -1.6643 0
M  V30 7929 H 766.697 4.09162 -0.835226 0
M  V30 7930 N 767.134 1.16236 1.06428 0
M  V30 7931 C 768.081 0.86769 2.13869 0
M  V30 7932 C 769.051 -0.183298 1.65086 0
M  V30 7933 O 770.236 -0.0488002 1.90738 0
M  V30 7934 C 767.376 0.373427 3.43074 0
M  V30 7935 C 766.489 1.48708 4.05598 0
M  V30 7936 C 765.624 0.947977 5.22673 0
M  V30 7937 C 764.663 2.03793 5.77178 0
M  V30 7938 N 763.8 1.51451 6.85571 0
M  V30 7939 H 768.64 1.78781 2.38414 0
M  V30 7940 H 766.177 0.891892 1.16977 0
M  V30 7941 H 768.135 0.0685035 4.17144 0
M  V30 7942 H 766.765 -0.509752 3.1875 0
M  V30 7943 H 765.817 1.908 3.29089 0
M  V30 7944 H 767.129 2.30964 4.42105 0
M  V30 7945 H 766.283 0.596154 6.03764 0
M  V30 7946 H 765.022 0.0947081 4.87608 0
M  V30 7947 H 764.027 2.39847 4.94726 0
M  V30 7948 H 765.252 2.89514 6.14295 0
M  V30 7949 H 763.198 0.683755 6.52427 0
M  V30 7950 H 763.115 2.27325 7.21013 0
M  V30 7951 H 764.383 1.19123 7.70344 0
M  V30 7952 N 768.612 -1.24939 0.960631 0
M  V30 7953 C 769.84 -1.96881 0.636045 0
M  V30 7954 C 770.255 -1.71334 -0.793093 0
M  V30 7955 O 769.612 -0.992917 -1.53125 0
M  V30 7956 C 769.663 -3.50309 0.892533 0
M  V30 7957 O 769.384 -3.74977 2.26548 0
M  V30 7958 C 770.885 -4.39474 0.581159 0
M  V30 7959 H 768.105 -0.627399 0.237931 0
M  V30 7960 H 770.649 -1.58952 1.28664 0
M  V30 7961 H 768.804 -3.86326 0.288257 0
M  V30 7962 H 769.218 -4.69401 2.34014 0
M  V30 7963 H 770.692 -5.46008 0.811125 0
M  V30 7964 H 771.169 -4.3652 -0.48443 0
M  V30 7965 H 771.775 -4.09032 1.16502 0
M  V30 7966 N 770.09 -0.729906 -1.39679 0
M  V30 7967 C 771.315 -0.284345 -2.05442 0
M  V30 7968 C 771.74 1.07056 -1.54663 0
M  V30 7969 O 771.098 1.67732 -0.688157 0
M  V30 7970 C 771.146 -0.290089 -3.59431 0
M  V30 7971 O 770.25 0.723978 -4.05995 0
M  V30 7972 H 769.591 -0.130311 -0.651088 0
M  V30 7973 H 772.121 -0.994403 -1.78809 0
M  V30 7974 H 772.131 -0.132712 -4.07784 0
M  V30 7975 H 770.806 -1.27877 -3.95753 0
M  V30 7976 H 769.383 0.533154 -3.69069 0
M  V30 7977 N 771.568 1.50203 -0.477153 0
M  V30 7978 C 772.979 1.86685 -0.0235041 0
M  V30 7979 C 773.33 1.39148 1.38319 0
M  V30 7980 O 772.455 0.759051 2.02651 0
M  V30 7981 C 773.05 3.38781 -0.0358767 0
M  V30 7982 C 771.609 3.74652 0.362327 0
M  V30 7983 C 770.756 2.7412 -0.41875 0
M  V30 7984 H 773.707 1.4286 -0.691133 0
M  V30 7985 H 773.728 3.72732 0.764924 0
M  V30 7986 H 773.24 3.73349 -1.05981 0
M  V30 7987 H 771.341 3.45686 1.39039 0
M  V30 7988 H 771.454 4.79063 0.059457 0
M  V30 7989 H 769.818 2.54376 0.128341 0
M  V30 7990 H 770.601 3.11532 -1.44231 0
M  V30 7991 N 773.046 0.209999 1.56195 0
M  V30 7992 C 774.009 -0.691232 2.18528 0
M  V30 7993 C 775.009 -1.13013 1.14388 0
M  V30 7994 O 776.199 -1.04081 1.39688 0
M  V30 7995 C 773.331 -1.94551 2.79934 0
M  V30 7996 H 774.524 -0.147953 2.99535 0
M  V30 7997 H 772.077 -0.0396243 1.5625 0
M  V30 7998 H 772.812 -2.53094 2.02766 0
M  V30 7999 H 772.597 -1.63938 3.56184 0
M  V30 8000 H 774.087 -2.58785 3.2775 0
M  V30 8001 N 774.524 -1.57472 -0.0634922 0
M  V30 8002 C 775.471 -2.04258 -1.07457 0
M  V30 8003 C 776.441 -0.924804 -1.37973 0
M  V30 8004 O 777.626 -1.19305 -1.48899 0
M  V30 8005 C 774.766 -2.49832 -2.38071 0
M  V30 8006 C 773.879 -3.75263 -2.14014 0
M  V30 8007 C 773.014 -4.09585 -3.38251 0
M  V30 8008 C 772.053 -5.28032 -3.09594 0
M  V30 8009 N 771.19 -5.57953 -4.26185 0
M  V30 8010 H 776.03 -2.90402 -0.668626 0
M  V30 8011 H 773.567 -1.43609 -0.318572 0
M  V30 8012 H 775.525 -2.7431 -3.14341 0
M  V30 8013 H 774.155 -1.66654 -2.76453 0
M  V30 8014 H 773.207 -3.58075 -1.28399 0
M  V30 8015 H 774.519 -4.61667 -1.88852 0
M  V30 8016 H 773.673 -4.35008 -4.2291 0
M  V30 8017 H 772.412 -3.21765 -3.66495 0
M  V30 8018 H 771.417 -5.02397 -2.23332 0
M  V30 8019 H 772.642 -6.17477 -2.82663 0
M  V30 8020 H 770.588 -4.73092 -4.54445 0
M  V30 8021 H 770.505 -6.38793 -4.04326 0
M  V30 8022 H 771.773 -5.87931 -5.11817 0
M  V30 8023 N 776.003 0.335068 -1.53997 0
M  V30 8024 C 776.935 1.4327 -1.78903 0
M  V30 8025 C 777.948 1.48347 -0.670598 0
M  V30 8026 O 779.137 1.51277 -0.947494 0
M  V30 8027 C 776.237 2.81878 -1.88144 0
M  V30 8028 C 775.41 3.00141 -3.18174 0
M  V30 8029 C 774.469 4.19041 -3.18263 0
M  V30 8030 O 773.495 4.12751 -3.9195 0
M  V30 8031 N 774.697 5.28004 -2.41231 0
M  V30 8032 H 777.462 1.22272 -2.73623 0
M  V30 8033 H 775.023 0.524996 -1.53152 0
M  V30 8034 H 777.015 3.59609 -1.85644 0
M  V30 8035 H 775.585 2.9598 -1.00572 0
M  V30 8036 H 774.805 2.09808 -3.33728 0
M  V30 8037 H 776.093 3.0923 -4.04047 0
M  V30 8038 H 775.491 5.35986 -1.8093 0
M  V30 8039 H 774.048 6.04196 -2.44521 0
M  V30 8040 N 777.481 1.45874 0.596531 0
M  V30 8041 C 778.413 1.51408 1.7207 0
M  V30 8042 C 779.426 0.403738 1.57714 0
M  V30 8043 O 780.615 0.671384 1.65393 0
M  V30 8044 C 777.715 1.3652 3.10186 0
M  V30 8045 C 776.888 2.61428 3.50677 0
M  V30 8046 C 775.947 2.40937 4.67799 0
M  V30 8047 O 774.973 3.14602 4.74357 0
M  V30 8048 N 776.175 1.4621 5.61785 0
M  V30 8049 H 778.94 2.48333 1.67782 0
M  V30 8050 H 776.501 1.41755 0.782129 0
M  V30 8051 H 778.493 1.20606 3.86311 0
M  V30 8052 H 777.063 0.478302 3.08919 0
M  V30 8053 H 776.283 2.92381 2.644 0
M  V30 8054 H 777.571 3.44432 3.74491 0
M  V30 8055 H 776.969 0.854382 5.59211 0
M  V30 8056 H 775.526 1.36264 6.37397 0
M  V30 8057 N 778.959 -0.83999 1.33349 0
M  V30 8058 C 779.922 -1.93128 1.23426 0
M  V30 8059 C 780.922 -1.60065 0.153599 0
M  V30 8060 O 782.112 -1.69425 0.405049 0
M  V30 8061 C 779.244 -3.28761 0.901622 0
M  V30 8062 H 780.437 -2.03352 2.20427 0
M  V30 8063 H 777.99 -1.03194 1.17391 0
M  V30 8064 H 778.725 -3.24233 -0.0659337 0
M  V30 8065 H 778.51 -3.54138 1.68311 0
M  V30 8066 H 780 -4.08714 0.856913 0
M  V30 8067 N 780.437 -1.16799 -1.0581 0
M  V30 8068 C 781.848 -0.95945 -1.60161 0
M  V30 8069 C 782.199 0.49543 -1.89842 0
M  V30 8070 O 781.324 1.36957 -1.67546 0
M  V30 8071 C 781.919 -1.73527 -2.90987 0
M  V30 8072 C 780.478 -1.57158 -3.42021 0
M  V30 8073 C 779.625 -1.74089 -2.15843 0
M  V30 8074 H 782.576 -1.31598 -0.886992 0
M  V30 8075 H 782.597 -1.21397 -3.60615 0
M  V30 8076 H 782.109 -2.79411 -2.69353 0
M  V30 8077 H 780.21 -0.537361 -3.68705 0
M  V30 8078 H 780.323 -2.35858 -4.17022 0
M  V30 8079 H 778.687 -1.16874 -2.26302 0
M  V30 8080 H 779.47 -2.81371 -1.96686 0
M  V30 8081 N 781.915 1.24427 -0.967243 0
M  V30 8082 C 783.326 1.74349 -0.667785 0
M  V30 8083 C 783.677 1.78403 0.816509 0
M  V30 8084 O 782.802 1.41315 1.63887 0
M  V30 8085 C 783.397 3.16628 -1.20548 0
M  V30 8086 C 781.956 3.64059 -0.955934 0
M  V30 8087 C 781.103 2.42715 -1.34106 0
M  V30 8088 H 784.054 1.10136 -1.14262 0
M  V30 8089 H 784.075 3.76183 -0.571547 0
M  V30 8090 H 783.587 3.13646 -2.28578 0
M  V30 8091 H 781.688 3.72441 0.108858 0
M  V30 8092 H 781.801 4.51549 -1.60126 0
M  V30 8093 H 780.165 2.43114 -0.759452 0
M  V30 8094 H 780.948 2.42414 -2.43085 0
M  V30 8095 N 783.393 0.737304 1.3929 0
M  V30 8096 C 784.639 0.286681 2.00763 0
M  V30 8097 C 784.972 -1.12388 1.58375 0
M  V30 8098 O 784.247 -1.76661 0.813699 0
M  V30 8099 C 784.53 0.391147 3.57969 0
M  V30 8100 C 784.383 1.84165 4.1037 0
M  V30 8101 C 785.702 -0.225072 4.39524 0
M  V30 8102 H 782.821 0.105642 0.729389 0
M  V30 8103 H 785.463 0.933892 1.65464 0
M  V30 8104 H 783.613 -0.159875 3.88171 0
M  V30 8105 H 785.285 2.44972 3.90879 0
M  V30 8106 H 783.528 2.3622 3.63844 0
M  V30 8107 H 784.199 1.866 5.19504 0
M  V30 8108 H 786.675 0.244677 4.1538 0
M  V30 8109 H 785.551 -0.121646 5.48765 0
M  V30 8110 H 785.812 -1.31141 4.22202 0
M  V30 8111 N 784.871 -1.49948 0.485112 0
M  V30 8112 C 786.287 -1.58984 0.140096 0
M  V30 8113 C 786.487 -1.49194 -1.35438 0
M  V30 8114 O 785.543 -1.35765 -2.12894 0
M  V30 8115 C 786.856 -2.92372 0.702769 0
M  V30 8116 C 788.404 -3.05801 0.66745 0
M  V30 8117 C 788.879 -4.41785 1.20791 0
M  V30 8118 N 790.37 -4.48234 1.16792 0
M  V30 8119 C 791.105 -5.51871 1.55646 0
M  V30 8120 N 790.601 -6.62692 2.02016 0
M  V30 8121 N 792.394 -5.42494 1.47161 0
M  V30 8122 H 784.545 -1.54555 1.45693 0
M  V30 8123 H 786.808 -0.731206 0.603359 0
M  V30 8124 H 786.514 -3.05056 1.75025 0
M  V30 8125 H 786.388 -3.76885 0.154205 0
M  V30 8126 H 788.775 -2.92757 -0.371157 0
M  V30 8127 H 788.856 -2.23011 1.25298 0
M  V30 8128 H 788.5 -4.55579 2.24522 0
M  V30 8129 H 788.43 -5.23188 0.598464 0
M  V30 8130 H 790.921 -3.68718 0.827982 0
M  V30 8131 H 791.234 -7.3785 2.29775 0
M  V30 8132 H 789.579 -6.63775 2.05979 0
M  V30 8133 H 792.77 -4.54806 1.10765 0
M  V30 8134 H 792.943 -6.2314 1.77766 0
M  V30 8135 N 786.349 -0.21828 -1.56081 0
M  V30 8136 C 787.297 0.709679 -2.21509 0
M  V30 8137 C 788.291 1.20221 -1.19346 0
M  V30 8138 O 789.497 1.16241 -1.37433 0
M  V30 8139 H 785.872 0.247271 -0.710184 0
M  V30 8140 H 787.843 0.134386 -2.98097 0
M  V30 8141 C 786.592 1.90853 -2.90638 0
M  V30 8142 H 785.915 1.53865 -3.69006 0
M  V30 8143 H 787.355 2.53568 -3.39822 0
M  V30 8144 C 785.814 2.76189 -1.92929 0
M  V30 8145 O 786.344 3.74842 -1.44416 0
M  V30 8146 N 784.55 2.42157 -1.6065 0
M  V30 8147 H 784.097 1.61987 -2.00294 0
M  V30 8148 H 784.055 2.99534 -0.955347 0
M  V30 8149 N 787.827 1.57504 0.0551401 0
M  V30 8150 C 788.757 2.07864 1.06372 0
M  V30 8151 C 789.738 0.975565 1.39344 0
M  V30 8152 O 790.923 1.24929 1.48682 0
M  V30 8153 C 788.053 2.53643 2.3724 0
M  V30 8154 C 787.007 3.67978 2.18578 0
M  V30 8155 C 786.333 3.9987 3.54976 0
M  V30 8156 C 787.633 4.97405 1.59329 0
M  V30 8157 H 789.327 2.92379 0.644595 0
M  V30 8158 H 786.873 1.40654 0.308619 0
M  V30 8159 H 788.826 2.8749 3.08103 0
M  V30 8160 H 787.55 1.66177 2.81163 0
M  V30 8161 H 786.209 3.3444 1.50152 0
M  V30 8162 H 785.857 3.0951 3.965 0
M  V30 8163 H 785.557 4.76867 3.43324 0
M  V30 8164 H 787.081 4.36228 4.27244 0
M  V30 8165 H 788.495 5.29375 2.20078 0
M  V30 8166 H 786.892 5.78837 1.58327 0
M  V30 8167 H 787.962 4.81697 0.55638 0
M  V30 8168 N 789.305 -0.326896 1.54172 0
M  V30 8169 C 790.255 -1.40319 1.79707 0
M  V30 8170 C 791.239 -1.47056 0.652938 0
M  V30 8171 O 792.431 -1.51645 0.91284 0
M  V30 8172 C 789.56 -2.77222 2.02491 0
M  V30 8173 C 788.646 -2.74811 3.23016 0
M  V30 8174 N 789.037 -2.42022 4.44138 0
M  V30 8175 C 787.335 -3.05943 3.24522 0
M  V30 8176 C 788.036 -2.48263 5.26061 0
M  V30 8177 N 787.012 -2.84567 4.63166 0
M  V30 8178 H 790.814 -1.13892 2.70935 0
M  V30 8179 H 788.328 -0.53536 1.53322 0
M  V30 8180 H 790.325 -3.54793 2.18923 0
M  V30 8181 H 788.985 -3.04582 1.12515 0
M  V30 8182 H 789.996 -2.14926 4.71197 0
M  V30 8183 H 786.673 -3.38367 2.44569 0
M  V30 8184 H 788.063 -2.2593 6.32776 0
M  V30 8185 N 790.784 -1.46188 -0.588786 0
M  V30 8186 C 791.716 -1.52319 -1.71265 0
M  V30 8187 C 792.729 -0.412096 -1.57498 0
M  V30 8188 O 793.918 -0.680146 -1.65034 0
M  V30 8189 C 791.018 -1.38164 -3.09458 0
M  V30 8190 C 790.191 -2.63284 -3.49286 0
M  V30 8191 C 789.25 -2.43415 -4.66514 0
M  V30 8192 O 788.276 -3.17113 -4.72682 0
M  V30 8193 N 789.478 -1.49187 -5.61002 0
M  V30 8194 H 792.243 -2.49219 -1.66463 0
M  V30 8195 H 789.804 -1.42167 -0.774601 0
M  V30 8196 H 791.796 -1.22653 -3.85666 0
M  V30 8197 H 790.366 -0.494678 -3.08661 0
M  V30 8198 H 789.586 -2.93779 -2.62845 0
M  V30 8199 H 790.874 -3.46413 -3.7266 0
M  V30 8200 H 790.272 -0.884027 -5.5875 0
M  V30 8201 H 788.829 -1.39642 -6.36666 0
M  V30 8202 N 792.262 0.832906 -1.33792 0
M  V30 8203 C 793.487 1.62568 -1.28788 0
M  V30 8204 C 793.912 1.87599 0.137246 0
M  V30 8205 O 793.27 1.44436 1.0958 0
M  V30 8206 C 793.318 2.9495 -2.07453 0
M  V30 8207 O 792.422 3.86546 -1.43722 0
M  V30 8208 H 791.763 0.494809 -0.442787 0
M  V30 8209 H 794.293 1.03578 -1.76445 0
M  V30 8210 H 794.303 3.44599 -2.1844 0
M  V30 8211 H 792.978 2.76055 -3.11073 0
M  V30 8212 H 791.555 3.45044 -1.41417 0
M  V30 8213 N 793.74 1.17359 1.05189 0
M  V30 8214 C 794.988 0.960087 1.77839 0
M  V30 8215 C 795.309 -0.512554 1.88143 0
M  V30 8216 O 794.579 -1.3721 1.39822 0
M  V30 8217 H 793.159 0.352234 0.658741 0
M  V30 8218 H 795.821 1.47834 1.27008 0
M  V30 8219 H 794.917 1.38843 2.79516 0
M  V30 8220 N 795.218 -1.23913 0.973828 0
M  V30 8221 C 796.465 -1.92151 0.639079 0
M  V30 8222 C 796.793 -1.76064 -0.826545 0
M  V30 8223 O 796.048 -1.11126 -1.61088 0
M  V30 8224 C 796.347 -3.4406 0.967356 0
M  V30 8225 C 796.013 -3.80321 2.42212 0
M  V30 8226 C 794.675 -3.8993 2.81971 0
M  V30 8227 C 797.027 -3.97935 3.36596 0
M  V30 8228 C 794.355 -4.14575 4.15144 0
M  V30 8229 C 796.707 -4.24079 4.69404 0
M  V30 8230 C 795.371 -4.31908 5.08932 0
M  V30 8231 H 794.641 -0.70313 0.233856 0
M  V30 8232 H 797.288 -1.47072 1.22646 0
M  V30 8233 H 795.593 -3.90667 0.297807 0
M  V30 8234 H 797.29 -3.95077 0.686654 0
M  V30 8235 H 793.88 -3.73411 2.10385 0
M  V30 8236 H 798.064 -3.89908 3.07059 0
M  V30 8237 H 793.32 -4.18858 4.45385 0
M  V30 8238 H 797.494 -4.36652 5.42502 0
M  V30 8239 H 795.121 -4.50758 6.12145 0
M  V30 8240 N 796.696 -0.74468 -1.38897 0
M  V30 8241 C 797.921 -0.306119 -2.05128 0
M  V30 8242 C 798.346 1.0541 -1.55789 0
M  V30 8243 O 797.704 1.66993 -0.705909 0
M  V30 8244 C 797.752 -0.328195 -3.59103 0
M  V30 8245 O 796.856 0.680876 -4.06741 0
M  V30 8246 H 796.197 -0.137209 -0.649669 0
M  V30 8247 H 798.727 -1.01331 -1.77745 0
M  V30 8248 H 798.737 -0.175956 -4.0762 0
M  V30 8249 H 797.412 -1.32067 -3.94374 0
M  V30 8250 H 795.989 0.49398 -3.69614 0
M  V30 8251 N 798.174 1.49689 -0.493057 0
M  V30 8252 C 799.104 2.31826 0.279073 0
M  V30 8253 C 800.085 1.39733 0.969987 0
M  V30 8254 O 801.27 1.68646 0.962925 0
M  V30 8255 C 798.4 3.20046 1.34862 0
M  V30 8256 C 797.354 4.20869 0.77805 0
M  V30 8257 C 796.68 4.97971 1.94753 0
M  V30 8258 C 797.98 5.21813 -0.225543 0
M  V30 8259 H 799.674 2.96627 -0.406512 0
M  V30 8260 H 797.22 1.42647 -0.196943 0
M  V30 8261 H 799.173 3.76315 1.89645 0
M  V30 8262 H 797.897 2.53172 2.06328 0
M  V30 8263 H 796.556 3.65733 0.252036 0
M  V30 8264 H 796.204 4.27552 2.64969 0
M  V30 8265 H 795.904 5.66186 1.57187 0
M  V30 8266 H 797.428 5.57082 2.49984 0
M  V30 8267 H 798.842 5.72823 0.233864 0
M  V30 8268 H 797.239 5.97872 -0.516622 0
M  V30 8269 H 798.309 4.71209 -1.14412 0
M  V30 8270 N 799.652 0.226554 1.55963 0
M  V30 8271 C 800.877 -0.411527 2.03276 0
M  V30 8272 C 801.302 -1.52206 1.10521 0
M  V30 8273 O 800.66 -1.81054 0.0943217 0
M  V30 8274 C 800.708 -0.915694 3.4878 0
M  V30 8275 O 799.812 -2.02672 3.59163 0
M  V30 8276 H 799.153 -0.0924907 0.657527 0
M  V30 8277 H 801.683 0.346656 2.01642 0
M  V30 8278 H 801.693 -1.22421 3.892 0
M  V30 8279 H 800.368 -0.102915 4.15773 0
M  V30 8280 H 798.945 -1.72445 3.30632 0
M  V30 8281 N 801.13 -1.57531 -0.0467866 0
M  V30 8282 C 802.378 -1.88078 -0.739656 0
M  V30 8283 C 802.699 -0.821936 -1.76831 0
M  V30 8284 O 801.969 0.146582 -1.95351 0
M  V30 8285 H 800.549 -0.694075 -0.276169 0
M  V30 8286 H 803.211 -1.94893 -0.0169391 0
M  V30 8287 H 802.307 -2.86396 -1.24031 0
M  V30 8288 N 802.608 0.318715 -1.54344 0
M  V30 8289 C 803.571 1.37545 -1.83342 0
M  V30 8290 C 804.571 1.445 -0.705444 0
M  V30 8291 O 805.761 1.44443 -0.973752 0
M  V30 8292 C 802.893 2.76225 -1.99781 0
M  V30 8293 H 804.086 1.13084 -2.77762 0
M  V30 8294 H 801.639 0.554457 -1.46135 0
M  V30 8295 H 802.374 3.05934 -1.07588 0
M  V30 8296 H 802.159 2.7257 -2.81865 0
M  V30 8297 H 803.649 3.52664 -2.23647 0
M  V30 8298 N 804.086 1.46499 0.581025 0
M  V30 8299 C 805.018 1.53225 1.70455 0
M  V30 8300 C 806.031 0.420443 1.57277 0
M  V30 8301 O 807.22 0.688888 1.64671 0
M  V30 8302 C 804.32 1.39803 3.08721 0
M  V30 8303 C 803.493 2.65132 3.47884 0
M  V30 8304 C 802.552 2.45886 4.65217 0
M  V30 8305 O 801.578 3.19615 4.70993 0
M  V30 8306 N 802.78 1.5216 5.60203 0
M  V30 8307 H 805.545 2.50098 1.65139 0
M  V30 8308 H 803.106 1.42576 0.76705 0
M  V30 8309 H 805.098 1.24697 3.8501 0
M  V30 8310 H 803.668 0.51104 3.08394 0
M  V30 8311 H 802.888 2.95169 2.61284 0
M  V30 8312 H 804.176 3.48385 3.70817 0
M  V30 8313 H 803.574 0.913646 5.58273 0
M  V30 8314 H 802.131 1.43017 6.35916 0
M  V30 8315 N 805.565 -0.825799 1.34232 0
M  V30 8316 C 806.814 -1.57686 1.2577 0
M  V30 8317 C 807.127 -1.94848 -0.171372 0
M  V30 8318 O 808.333 -2.68854 -0.378123 0
M  V30 8319 C 806.789 -2.84478 2.20454 0
M  V30 8320 C 806.397 -2.54629 3.68603 0
M  V30 8321 C 808.141 -3.625 2.20893 0
M  V30 8322 C 806.048 -3.77597 4.55164 0
M  V30 8323 H 804.978 -0.591809 0.467203 0
M  V30 8324 H 807.629 -0.909421 1.59379 0
M  V30 8325 H 806.011 -3.52832 1.79793 0
M  V30 8326 H 807.185 -1.94404 4.17784 0
M  V30 8327 H 805.5 -1.89888 3.70582 0
M  V30 8328 H 808.097 -4.538 2.82789 0
M  V30 8329 H 808.44 -3.98404 1.20746 0
M  V30 8330 H 808.973 -3.01086 2.59985 0
M  V30 8331 H 805.712 -3.46815 5.56237 0
M  V30 8332 H 805.232 -4.37116 4.10719 0
M  V30 8333 H 806.911 -4.45039 4.69627 0
M  V30 8334 N 807.043 -1.17915 -1.04565 0
M  V30 8335 C 808.32 -0.881187 -1.74627 0
M  V30 8336 C 808.7 0.617123 -2.01878 0
M  V30 8337 O 808.048 1.57032 -1.65991 0
M  V30 8338 C 808.258 -1.72299 -3.03503 0
M  V30 8339 C 809.606 -1.94688 -3.77335 0
M  V30 8340 O 810.63 -1.6931 -3.13389 0
M  V30 8341 O 809.489 -2.37379 -4.92253 0
M  V30 8342 H 806.583 -0.326864 -0.759664 0
M  V30 8343 H 809.129 -1.28642 -1.10676 0
M  V30 8344 H 807.901 -2.73891 -2.79462 0
M  V30 8345 H 807.524 -1.31593 -3.75192 0
M  V30 8346 N 808.521 1.23394 -0.980386 0
M  V30 8347 C 809.798 1.87242 -0.565667 0
M  V30 8348 C 810.178 1.88151 0.957197 0
M  V30 8349 O 809.526 1.36309 1.8339 0
M  V30 8350 C 809.736 3.28743 -1.17172 0
M  V30 8351 C 811.084 4.05335 -1.26446 0
M  V30 8352 O 812.108 3.37962 -1.12517 0
M  V30 8353 O 810.967 5.25908 -1.48604 0
M  V30 8354 H 808.061 0.80477 -0.190459 0
M  V30 8355 H 810.607 1.3127 -1.07547 0
M  V30 8356 H 809.379 3.22647 -2.21392 0
M  V30 8357 H 809.002 3.92305 -0.646739 0
M  V30 8358 N 809.999 0.752036 1.385 0
M  V30 8359 C 810.947 0.112634 2.32327 0
M  V30 8360 C 811.941 -0.707037 1.53939 0
M  V30 8361 O 813.147 -0.606309 1.69481 0
M  V30 8362 H 809.522 0.0176275 0.751793 0
M  V30 8363 H 811.493 0.920074 2.83861 0
M  V30 8364 C 810.242 -0.767458 3.39124 0
M  V30 8365 H 809.565 -0.146122 3.99533 0
M  V30 8366 H 811.005 -1.18216 4.07187 0
M  V30 8367 C 809.464 -1.90938 2.77568 0
M  V30 8368 O 809.994 -3.00342 2.66754 0
M  V30 8369 N 808.2 -1.70396 2.35401 0
M  V30 8370 H 807.747 -0.81413 2.44397 0
M  V30 8371 H 807.705 -2.46972 1.94557 0
M  V30 8372 N 811.477 -1.49425 0.500989 0
M  V30 8373 C 812.726 -2.01649 -0.04538 0
M  V30 8374 C 813.039 -1.38572 -1.38047 0
M  V30 8375 O 814.245 -1.82124 -2.01353 0
M  V30 8376 C 812.701 -3.5966 -0.131337 0
M  V30 8377 C 812.309 -4.3171 1.19711 0
M  V30 8378 C 814.053 -4.19828 -0.628071 0
M  V30 8379 C 811.96 -5.81579 1.07332 0
M  V30 8380 H 810.89 -0.753715 -0.0207329 0
M  V30 8381 H 813.541 -1.71962 0.640407 0
M  V30 8382 H 811.923 -3.86063 -0.881574 0
M  V30 8383 H 813.097 -4.17008 1.96064 0
M  V30 8384 H 811.412 -3.83286 1.62729 0
M  V30 8385 H 814.009 -5.2958 -0.738198 0
M  V30 8386 H 814.352 -3.83194 -1.6269 0
M  V30 8387 H 814.885 -3.97746 0.0656314 0
M  V30 8388 H 811.624 -6.22738 2.04642 0
M  V30 8389 H 811.144 -5.98774 0.350679 0
M  V30 8390 H 812.823 -6.42614 0.752047 0
M  V30 8391 N 812.955 -0.234822 -1.55841 0
M  V30 8392 C 814.366 0.270588 -1.84729 0
M  V30 8393 C 814.717 1.58494 -1.15646 0
M  V30 8394 O 813.842 2.12071 -0.430667 0
M  V30 8395 C 814.437 0.497733 -3.35124 0
M  V30 8396 C 812.996 0.947428 -3.64281 0
M  V30 8397 C 812.143 0.01787 -2.77294 0
M  V30 8398 H 815.094 -0.457691 -1.51957 0
M  V30 8399 H 815.115 1.34199 -3.56049 0
M  V30 8400 H 814.627 -0.459037 -3.85376 0
M  V30 8401 H 812.728 1.91709 -3.19497 0
M  V30 8402 H 812.841 0.812651 -4.72158 0
M  V30 8403 H 811.205 0.527071 -2.49187 0
M  V30 8404 H 811.988 -0.934056 -3.30349 0
M  V30 8405 N 814.433 1.57553 0.0384317 0
M  V30 8406 C 815.849 1.54663 0.39391 0
M  V30 8407 C 816.049 0.959685 1.77179 0
M  V30 8408 O 815.105 0.576647 2.45827 0
M  V30 8409 C 816.418 2.99156 0.304352 0
M  V30 8410 C 817.966 3.10659 0.382119 0
M  V30 8411 C 818.441 4.56866 0.322111 0
M  V30 8412 N 819.932 4.61629 0.38119 0
M  V30 8413 C 820.667 5.72284 0.357501 0
M  V30 8414 N 820.163 6.92207 0.286654 0
M  V30 8415 N 821.956 5.60628 0.406538 0
M  V30 8416 H 814.107 1.9406 -0.86339 0
M  V30 8417 H 816.37 0.889673 -0.327392 0
M  V30 8418 H 816.076 3.45788 -0.642141 0
M  V30 8419 H 815.95 3.60753 1.10168 0
M  V30 8420 H 818.337 2.6398 1.31904 0
M  V30 8421 H 818.418 2.5191 -0.444391 0
M  V30 8422 H 818.062 5.0421 -0.611104 0
M  V30 8423 H 817.992 5.13515 1.1666 0
M  V30 8424 H 820.483 3.75343 0.438838 0
M  V30 8425 H 820.796 7.72316 0.273421 0
M  V30 8426 H 819.141 6.9454 0.252841 0
M  V30 8427 H 822.332 4.65836 0.459812 0
M  V30 8428 H 822.505 6.46858 0.384608 0
M  V30 8429 N 815.911 -0.310526 1.54511 0
M  V30 8430 C 817.327 -0.655637 1.45511 0
M  V30 8431 C 817.527 -1.91114 0.638564 0
M  V30 8432 O 816.583 -2.52098 0.142497 0
M  V30 8433 C 817.896 -0.817501 2.89374 0
M  V30 8434 C 819.444 -0.914003 2.99358 0
M  V30 8435 C 819.919 -1.10794 4.44397 0
M  V30 8436 N 821.41 -1.17437 4.48066 0
M  V30 8437 C 822.145 -1.34255 5.57461 0
M  V30 8438 N 821.641 -1.48032 6.768 0
M  V30 8439 N 823.434 -1.37067 5.45132 0
M  V30 8440 H 815.585 0.514506 2.06074 0
M  V30 8441 H 817.848 0.168478 0.932909 0
M  V30 8442 H 817.554 0.034003 3.51684 0
M  V30 8443 H 817.428 -1.7094 3.36243 0
M  V30 8444 H 819.815 -1.756 2.37168 0
M  V30 8445 H 819.896 0.00170958 2.558 0
M  V30 8446 H 819.54 -0.270743 5.07178 0
M  V30 8447 H 819.47 -2.03773 4.85576 0
M  V30 8448 H 821.961 -1.08181 3.62084 0
M  V30 8449 H 822.274 -1.60593 7.5593 0
M  V30 8450 H 820.619 -1.45105 6.79683 0
M  V30 8451 H 823.81 -1.25909 4.50849 0
M  V30 8452 H 823.983 -1.49831 6.3044 0
M  V30 8453 N 817.389 -1.46805 -0.573248 0
M  V30 8454 C 818.617 -1.56191 -1.3569 0
M  V30 8455 C 819.032 -0.206362 -1.87669 0
M  V30 8456 O 818.389 0.797883 -1.64134 0
M  V30 8457 C 818.44 -2.57433 -2.53792 0
M  V30 8458 O 818.161 -3.87724 -2.03965 0
M  V30 8459 C 819.662 -2.76851 -3.4622 0
M  V30 8460 H 816.882 -0.527907 -0.414192 0
M  V30 8461 H 819.426 -1.92292 -0.695989 0
M  V30 8462 H 817.581 -2.24311 -3.15854 0
M  V30 8463 H 817.995 -4.42909 -2.80948 0
M  V30 8464 H 819.469 -3.5159 -4.25545 0
M  V30 8465 H 819.946 -1.84095 -3.98755 0
M  V30 8466 H 820.552 -3.11107 -2.89987 0
M  V30 8467 N 818.867 0.818669 -1.34668 0
M  V30 8468 C 820.095 1.60674 -1.30351 0
M  V30 8469 C 820.51 1.88408 0.121546 0
M  V30 8470 O 819.867 1.47849 1.06991 0
M  V30 8471 C 819.918 2.94516 -2.09625 0
M  V30 8472 O 819.639 2.6799 -3.46573 0
M  V30 8473 C 821.14 3.8891 -2.12754 0
M  V30 8474 H 818.36 0.499306 -0.448258 0
M  V30 8475 H 820.904 1.01828 -1.77345 0
M  V30 8476 H 819.059 3.49908 -1.66262 0
M  V30 8477 H 819.473 3.53361 -3.87603 0
M  V30 8478 H 820.947 4.79972 -2.72637 0
M  V30 8479 H 821.424 4.24599 -1.12306 0
M  V30 8480 H 822.03 3.39453 -2.56225 0
M  V30 8481 N 820.346 1.18468 1.03938 0
M  V30 8482 C 821.278 0.870615 2.12021 0
M  V30 8483 C 822.291 -0.132318 1.62261 0
M  V30 8484 O 823.48 0.0956901 1.78243 0
M  V30 8485 C 820.58 0.279727 3.37744 0
M  V30 8486 C 819.753 1.32863 4.16733 0
M  V30 8487 C 818.812 0.753204 5.20781 0
M  V30 8488 O 817.838 1.42825 5.5099 0
M  V30 8489 N 819.04 -0.448664 5.78764 0
M  V30 8490 H 821.805 1.80091 2.39556 0
M  V30 8491 H 819.366 1.08524 1.20142 0
M  V30 8492 H 821.358 -0.118829 4.04526 0
M  V30 8493 H 819.928 -0.554621 3.07641 0
M  V30 8494 H 819.148 1.90245 3.45254 0
M  V30 8495 H 820.436 2.03574 4.66299 0
M  V30 8496 H 819.834 -1.01481 5.56523 0
M  V30 8497 H 818.391 -0.789125 6.47005 0
M  V30 8498 N 821.824 -1.22873 0.986916 0
M  V30 8499 C 823.24 -1.43594 0.696633 0
M  V30 8500 C 823.44 -1.87622 -0.734869 0
M  V30 8501 O 822.496 -2.02633 -1.50652 0
M  V30 8502 C 823.809 -2.48231 1.69711 0
M  V30 8503 C 825.357 -2.62037 1.71188 0
M  V30 8504 C 825.832 -3.6989 2.70084 0
M  V30 8505 N 827.323 -3.77341 2.68641 0
M  V30 8506 C 828.058 -4.6037 3.41829 0
M  V30 8507 N 827.554 -5.47438 4.24598 0
M  V30 8508 N 829.347 -4.54626 3.30563 0
M  V30 8509 H 821.498 -0.925982 1.91153 0
M  V30 8510 H 823.761 -0.46866 0.824052 0
M  V30 8511 H 823.467 -2.22812 2.72117 0
M  V30 8512 H 823.341 -3.46731 1.48516 0
M  V30 8513 H 825.728 -2.86803 0.694837 0
M  V30 8514 H 825.809 -1.63831 1.96451 0
M  V30 8515 H 825.453 -3.45872 3.71934 0
M  V30 8516 H 825.383 -4.67652 2.42093 0
M  V30 8517 H 827.874 -3.15124 2.08578 0
M  V30 8518 H 828.187 -6.078 4.77283 0
M  V30 8519 H 826.532 -5.4704 4.28687 0
M  V30 8520 H 829.723 -3.85627 2.65347 0
M  V30 8521 H 829.896 -5.19103 3.8786 0
M  V30 8522 N 823.302 -0.75937 -1.38099 0
M  V30 8523 C 824.551 -0.314864 -1.99227 0
M  V30 8524 C 824.864 1.1113 -1.60964 0
M  V30 8525 O 826.07 1.65657 -2.15105 0
M  V30 8526 C 824.526 -0.512001 -3.56239 0
M  V30 8527 C 824.134 -1.94762 -4.0345 0
M  V30 8528 C 825.878 -0.130497 -4.24299 0
M  V30 8529 C 823.785 -2.09301 -5.53125 0
M  V30 8530 H 822.715 -0.113978 -0.745335 0
M  V30 8531 H 825.366 -0.936736 -1.57789 0
M  V30 8532 H 823.748 0.179144 -3.95595 0
M  V30 8533 H 824.922 -2.67271 -3.75371 0
M  V30 8534 H 823.237 -2.28457 -3.48133 0
M  V30 8535 H 825.834 -0.21781 -5.34256 0
M  V30 8536 H 826.177 0.917644 -4.0606 0
M  V30 8537 H 826.71 -0.773716 -3.90203 0
M  V30 8538 H 823.449 -3.1239 -5.76275 0
M  V30 8539 H 822.969 -1.41261 -5.82928 0
M  V30 8540 H 824.648 -1.88571 -6.1891 0
M  V30 8541 N 824.78 1.49157 -0.508906 0
M  V30 8542 C 826.026 2.02773 0.0328469 0
M  V30 8543 C 826.359 1.38714 1.35912 0
M  V30 8544 O 825.634 0.525536 1.87266 0
M  V30 8545 C 825.917 3.59664 0.177088 0
M  V30 8546 C 825.77 4.34239 -1.17287 0
M  V30 8547 C 827.089 4.30505 0.913977 0
M  V30 8548 H 824.208 0.736926 0.0104631 0
M  V30 8549 H 826.85 1.781 -0.661851 0
M  V30 8550 H 825 3.80818 0.768774 0
M  V30 8551 H 826.672 4.24561 -1.80404 0
M  V30 8552 H 824.915 3.96486 -1.76016 0
M  V30 8553 H 825.586 5.42397 -1.02516 0
M  V30 8554 H 828.062 4.14054 0.412084 0
M  V30 8555 H 826.938 5.40012 0.983759 0
M  V30 8556 H 827.199 3.96302 1.95951 0
M  V30 8557 N 826.258 0.243083 1.55714 0
M  V30 8558 C 827.221 -0.644723 2.19945 0
M  V30 8559 C 828.221 -1.10562 1.16759 0
M  V30 8560 O 829.411 -1.01095 1.41865 0
M  V30 8561 C 826.543 -1.88569 2.83997 0
M  V30 8562 H 827.736 -0.0843839 2.99781 0
M  V30 8563 H 825.289 -0.00647246 1.56299 0
M  V30 8564 H 826.024 -2.48736 2.08089 0
M  V30 8565 H 825.809 -1.56345 3.59581 0
M  V30 8566 H 827.299 -2.51774 3.33166 0
M  V30 8567 N 827.736 -1.57571 -0.0300757 0
M  V30 8568 C 829.147 -1.77567 -0.576802 0
M  V30 8569 C 829.498 -0.874034 -1.75656 0
M  V30 8570 O 828.623 -0.0686124 -2.16291 0
M  V30 8571 C 829.218 -3.22016 -1.05315 0
M  V30 8572 C 827.777 -3.43212 -1.5454 0
M  V30 8573 C 826.924 -2.73061 -0.483033 0
M  V30 8574 H 829.875 -1.57483 0.196151 0
M  V30 8575 H 829.896 -3.28474 -1.92055 0
M  V30 8576 H 829.408 -3.87613 -0.194298 0
M  V30 8577 H 827.509 -2.82788 -2.42615 0
M  V30 8578 H 827.622 -4.5182 -1.5936 0
M  V30 8579 H 825.986 -2.36805 -0.937835 0
M  V30 8580 H 826.769 -3.4134 0.366341 0
M  V30 8581 N 829.214 0.302327 -1.54673 0
M  V30 8582 C 830.625 0.875409 -1.64904 0
M  V30 8583 C 830.976 1.88132 -0.55684 0
M  V30 8584 O 830.101 2.14215 0.306754 0
M  V30 8585 C 830.696 1.59457 -2.9893 0
M  V30 8586 C 829.255 2.11607 -3.11287 0
M  V30 8587 C 828.402 0.948324 -2.6058 0
M  V30 8588 H 831.353 0.079362 -1.58501 0
M  V30 8589 H 831.374 2.46005 -2.90279 0
M  V30 8590 H 830.886 0.8622 -3.78402 0
M  V30 8591 H 828.987 2.87895 -2.36532 0
M  V30 8592 H 829.1 2.35151 -4.17422 0
M  V30 8593 H 827.464 1.33352 -2.17001 0
M  V30 8594 H 828.247 0.229936 -3.42529 0
M  V30 8595 N 830.692 1.47107 0.565454 0
M  V30 8596 C 831.94 1.53005 1.32038 0
M  V30 8597 C 832.261 0.190453 1.94068 0
M  V30 8598 O 831.531 -0.784783 1.79494 0
M  V30 8599 H 830.111 0.563578 0.490294 0
M  V30 8600 H 832.773 1.83351 0.660928 0
M  V30 8601 H 831.869 2.29215 2.11818 0
M  V30 8602 N 832.17 -0.811516 1.35101 0
M  V30 8603 C 833.418 -1.56525 1.27845 0
M  V30 8604 C 833.739 -1.94435 -0.14829 0
M  V30 8605 O 833.009 -1.63203 -1.08359 0
M  V30 8606 H 831.589 -0.580433 0.47022 0
M  V30 8607 H 834.251 -0.968277 1.69146 0
M  V30 8608 H 833.347 -2.48291 1.89097 0
M  V30 8609 N 833.648 -1.19017 -1.03309 0
M  V30 8610 C 835.064 -0.941483 -1.28873 0
M  V30 8611 C 835.264 0.388587 -1.97718 0
M  V30 8612 O 834.32 1.12111 -2.26246 0
M  V30 8613 C 835.633 -2.11249 -2.13996 0
M  V30 8614 C 837.181 -2.15164 -2.27318 0
M  V30 8615 C 837.656 -3.31704 -3.15811 0
M  V30 8616 N 839.147 -3.31613 -3.23399 0
M  V30 8617 C 839.882 -4.18431 -3.9205 0
M  V30 8618 N 839.378 -5.15397 -4.62966 0
M  V30 8619 N 841.171 -4.06321 -3.88406 0
M  V30 8620 H 833.322 -2.04599 -0.570343 0
M  V30 8621 H 835.585 -0.894406 -0.314232 0
M  V30 8622 H 835.291 -3.07482 -1.70727 0
M  V30 8623 H 835.165 -2.07955 -3.14697 0
M  V30 8624 H 837.552 -1.19504 -2.6982 0
M  V30 8625 H 837.633 -2.22513 -1.26182 0
M  V30 8626 H 837.277 -4.2764 -2.74019 0
M  V30 8627 H 837.207 -3.21592 -4.16997 0
M  V30 8628 H 839.698 -2.6142 -2.72888 0
M  V30 8629 H 840.011 -5.78 -5.12968 0
M  V30 8630 H 838.356 -5.19349 -4.61846 0
M  V30 8631 H 841.547 -3.29849 -3.3214 0
M  V30 8632 H 841.72 -4.74196 -4.41635 0
M  V30 8633 N 835.127 1.22348 -0.993418 0
M  V30 8634 C 836.09 2.22522 -0.549251 0
M  V30 8635 C 837.09 1.56529 0.368164 0
M  V30 8636 O 838.28 1.73463 0.16005 0
M  V30 8637 C 835.412 3.40307 0.201037 0
M  V30 8638 H 836.605 2.63332 -1.43515 0
M  V30 8639 H 834.158 1.35407 -0.78068 0
M  V30 8640 H 834.893 3.0497 1.10289 0
M  V30 8641 H 834.678 3.8942 -0.457685 0
M  V30 8642 H 836.168 4.14597 0.499946 0
M  V30 8643 N 836.605 0.766683 1.37694 0
M  V30 8644 C 837.553 0.137269 2.32195 0
M  V30 8645 C 838.547 -0.69067 1.54681 0
M  V30 8646 O 839.753 -0.588299 1.70115 0
M  V30 8647 H 836.128 0.0256003 0.751564 0
M  V30 8648 H 838.099 0.950129 2.82869 0
M  V30 8649 C 836.848 -0.731446 3.39919 0
M  V30 8650 H 836.171 -0.103738 3.99665 0
M  V30 8651 H 837.611 -1.13891 4.08417 0
M  V30 8652 C 836.07 -1.87984 2.79578 0
M  V30 8653 O 836.6 -2.97496 2.69924 0
M  V30 8654 N 834.806 -1.6789 2.37195 0
M  V30 8655 H 834.353 -0.788162 2.45246 0
M  V30 8656 H 834.311 -2.44894 1.97165 0
M  V30 8657 N 838.083 -1.48885 0.516809 0
M  V30 8658 C 839.332 -2.01686 -0.0239899 0
M  V30 8659 C 839.645 -1.40029 -1.3657 0
M  V30 8660 O 840.851 -1.84249 -1.9941 0
M  V30 8661 C 839.307 -3.59779 -0.0931825 0
M  V30 8662 C 838.915 -4.30416 1.24283 0
M  V30 8663 C 840.659 -4.20471 -0.583507 0
M  V30 8664 C 838.566 -5.80408 1.13494 0
M  V30 8665 H 837.496 -0.753892 -0.0127376 0
M  V30 8666 H 840.147 -1.71273 0.65861 0
M  V30 8667 H 838.529 -3.86976 -0.840577 0
M  V30 8668 H 839.703 -4.14905 2.00476 0
M  V30 8669 H 838.018 -3.81539 1.66785 0
M  V30 8670 H 840.615 -5.30333 -0.681987 0
M  V30 8671 H 840.958 -3.84898 -1.58617 0
M  V30 8672 H 841.491 -3.97654 0.107814 0
M  V30 8673 H 838.23 -6.20532 2.11235 0
M  V30 8674 H 837.75 -5.98368 0.414167 0
M  V30 8675 H 839.429 -6.41781 0.820162 0
M  V30 8676 N 839.561 -0.251338 -1.55583 0
M  V30 8677 C 840.789 0.376187 -2.03451 0
M  V30 8678 C 841.204 1.51215 -1.13047 0
M  V30 8679 O 840.561 1.81917 -0.145769 0
M  V30 8680 C 840.612 0.879779 -3.50631 0
M  V30 8681 O 840.333 -0.210917 -4.37592 0
M  V30 8682 C 841.834 1.57754 -4.14281 0
M  V30 8683 H 839.054 0.0888722 -0.665089 0
M  V30 8684 H 841.598 -0.376497 -2.01004 0
M  V30 8685 H 839.753 1.58263 -3.53598 0
M  V30 8686 H 840.167 0.172203 -5.24217 0
M  V30 8687 H 841.641 1.88158 -5.18942 0
M  V30 8688 H 842.118 2.50103 -3.61034 0
M  V30 8689 H 842.724 0.919154 -4.15249 0
M  V30 8690 N 841.039 1.57585 0.0217189 0
M  V30 8691 C 842.264 1.94267 0.726309 0
M  V30 8692 C 842.689 0.851904 1.67703 0
M  V30 8693 O 842.047 -0.191792 1.80283 0
M  V30 8694 C 842.095 3.30023 1.45318 0
M  V30 8695 O 841.199 3.22791 2.5667 0
M  V30 8696 H 840.54 0.634777 0.194818 0
M  V30 8697 H 843.07 2.04585 -0.0249985 0
M  V30 8698 H 843.08 3.65084 1.82147 0
M  V30 8699 H 841.755 4.08972 0.755962 0
M  V30 8700 H 840.332 2.99373 2.2233 0
M  V30 8701 N 842.517 -0.29412 1.54831 0
M  V30 8702 C 843.447 -1.36757 1.89261 0
M  V30 8703 C 844.428 -1.52564 0.752214 0
M  V30 8704 O 845.613 -1.65958 1.00855 0
M  V30 8705 C 842.743 -2.73066 2.14597 0
M  V30 8706 C 841.697 -2.72017 3.3044 0
M  V30 8707 C 841.023 -4.11679 3.4121 0
M  V30 8708 C 842.323 -2.33149 4.67375 0
M  V30 8709 H 844.017 -1.08191 2.79169 0
M  V30 8710 H 841.563 -0.519014 1.34321 0
M  V30 8711 H 843.516 -3.48255 2.37269 0
M  V30 8712 H 842.24 -3.03172 1.21467 0
M  V30 8713 H 840.899 -1.99285 3.07703 0
M  V30 8714 H 840.547 -4.38973 2.45584 0
M  V30 8715 H 840.247 -4.11877 4.19084 0
M  V30 8716 H 841.771 -4.88637 3.6615 0
M  V30 8717 H 843.185 -2.98054 4.89731 0
M  V30 8718 H 841.582 -2.44546 5.48012 0
M  V30 8719 H 842.652 -1.28275 4.67626 0
M  V30 8720 N 843.995 -1.47404 -0.557645 0
M  V30 8721 C 845.243 -1.53703 -1.31224 0
M  V30 8722 C 845.564 -0.200742 -1.93964 0
M  V30 8723 O 844.834 0.775253 -1.79907 0
M  V30 8724 H 843.414 -0.566171 -0.487299 0
M  V30 8725 H 846.076 -1.83699 -0.651195 0
M  V30 8726 H 845.172 -2.30335 -2.10599 0
M  V30 8727 O 845.512 0.702284 -1.45431 0
M  V30 8728 H 846.203 1.35379 -1.38536 0
M  V30 END ATOM
M  V30 BEGIN BOND
M  V30 END BOND
M  V30 END CTAB
M  END
$$$$
