drugbank_target|P31101 Hydroxylamine reductase (DB02761)
 OpenBabel12092120253D

  0  0  0     0  0            999 V3000
M  V30 BEGIN CTAB
M  V30 COUNTS 8461 8541 0 0 0
M  V30 BEGIN ATOM
M  V30 1 H -0.908 1.98254 -0.117106 0
M  V30 2 N 0 1.576 0 0
M  V30 3 C 0.933 2.03868 1.02534 0
M  V30 4 C 1.911 0.928543 1.3348 0
M  V30 5 O 3.095 1.19667 1.45644 0
M  V30 6 C 0.222 2.43627 2.35294 0
M  V30 7 C -0.732 3.65373 2.2001 0
M  V30 8 S 0.101 5.13292 1.52614 0
M  V30 9 C 1.257 5.56322 2.86805 0
M  V30 10 H 1.49 2.90518 0.631377 0
M  V30 11 H -0.977 1.52953 0.210867 0
M  V30 12 H 0.981 2.67203 3.11629 0
M  V30 13 H -0.358 1.57376 2.7183 0
M  V30 14 H -1.165 3.90944 3.18086 0
M  V30 15 H -1.563 3.418 1.51819 0
M  V30 16 H 0.729 5.58782 3.83104 0
M  V30 17 H 1.672 6.56266 2.65933 0
M  V30 18 H 2.08 4.83886 2.90714 0
M  V30 19 N 1.4781 -0.272755 1.55222 0
M  V30 20 C 2.7251 -1.00433 1.7584 0
M  V30 21 C 3.0531 -1.86275 0.559629 0
M  V30 22 O 2.3081 -1.90269 -0.457857 0
M  V30 23 C 2.6071 -1.91642 3.01675 0
M  V30 24 C 2.2731 -1.21548 4.34208 0
M  V30 25 C 0.9351 -1.02166 4.70229 0
M  V30 26 C 3.2871 -0.716684 5.16249 0
M  V30 27 C 0.6151 -0.316334 5.85847 0
M  V30 28 C 2.9671 -0.0249476 6.32595 0
M  V30 29 C 1.6311 0.180579 6.67256 0
M  V30 30 H 0.9011 -0.367509 0.643443 0
M  V30 31 H 3.5481 -0.276596 1.89492 0
M  V30 32 H 1.8531 -2.71037 2.82924 0
M  V30 33 H 3.5501 -2.48369 3.14824 0
M  V30 34 H 0.1401 -1.37645 4.05896 0
M  V30 35 H 4.3241 -0.854047 4.88896 0
M  V30 36 H -0.4199 -0.146378 6.11225 0
M  V30 37 H 3.7541 0.369311 6.9542 0
M  V30 38 H 1.3811 0.729098 7.56696 0
M  V30 39 N 2.9562 -1.48159 -0.537278 0
M  V30 40 C 4.1962 -1.57397 -1.30405 0
M  V30 41 C 4.5602 -0.239202 -1.90504 0
M  V30 42 O 5.7612 -0.206528 -2.68005 0
M  V30 43 C 4.0322 -2.6754 -2.36974 0
M  V30 44 S 5.5912 -2.96496 -3.23475 0
M  V30 45 H 2.4092 -0.555577 -0.443684 0
M  V30 46 H 5.0112 -1.85644 -0.612912 0
M  V30 47 H 3.7152 -3.63092 -1.91291 0
M  V30 48 H 3.2462 -2.41172 -3.10805 0
M  V30 49 H 5.2612 -2.35234 -4.36897 0
M  V30 50 N 4.4343 0.785586 -1.36625 0
M  V30 51 C 5.6813 1.54362 -1.31067 0
M  V30 52 C 6.0093 1.94195 0.10893 0
M  V30 53 O 5.2643 1.63262 1.07908 0
M  V30 54 C 5.5633 2.83007 -2.1827 0
M  V30 55 C 5.2293 2.62294 -3.6676 0
M  V30 56 C 3.8913 2.56353 -4.0723 0
M  V30 57 C 6.2433 2.43371 -4.6089 0
M  V30 58 C 3.5713 2.29461 -5.39967 0
M  V30 59 C 5.9233 2.18005 -5.93849 0
M  V30 60 C 4.5873 2.105 -6.3344 0
M  V30 61 H 3.8573 0.564851 -0.479609 0
M  V30 62 H 6.5043 0.906028 -1.68711 0
M  V30 63 H 4.8093 3.51253 -1.73576 0
M  V30 64 H 6.5063 3.40817 -2.11292 0
M  V30 65 H 3.0963 2.67774 -3.34656 0
M  V30 66 H 7.2803 2.46959 -4.30494 0
M  V30 67 H 2.5363 2.22135 -5.69619 0
M  V30 68 H 6.7103 2.02359 -6.66351 0
M  V30 69 H 4.3373 1.89425 -7.36222 0
M  V30 70 N 5.9124 1.20967 1.01018 0
M  V30 71 C 6.8444 0.922059 2.09835 0
M  V30 72 C 7.8574 -0.0927106 1.62536 0
M  V30 73 O 9.0464 0.139127 1.77957 0
M  V30 74 C 6.1464 0.362004 3.36961 0
M  V30 75 C 5.3194 1.42986 4.13369 0
M  V30 76 C 4.3784 0.879976 5.1879 0
M  V30 77 O 3.4044 1.56219 5.47343 0
M  V30 78 N 4.6064 -0.307396 5.79686 0
M  V30 79 H 7.3714 1.8588 2.35093 0
M  V30 80 H 4.9324 1.11422 1.1746 0
M  V30 81 H 6.9244 -0.0201474 4.04695 0
M  V30 82 H 5.4944 -0.479437 3.08902 0
M  V30 83 H 4.7144 1.98608 3.40512 0
M  V30 84 H 6.0024 2.14885 4.61196 0
M  V30 85 H 5.4004 -0.878796 5.58832 0
M  V30 86 H 3.9574 -0.631115 6.48737 0
M  V30 87 N 7.3905 -1.2043 1.01659 0
M  V30 88 C 8.6305 -1.91507 0.714456 0
M  V30 89 C 8.9945 -1.77073 -0.742237 0
M  V30 90 O 10.1955 -2.42631 -1.15688 0
M  V30 91 C 8.4665 -3.38795 1.13809 0
M  V30 92 S 10.0255 -4.28216 0.957925 0
M  V30 93 H 6.8435 -0.661571 0.260471 0
M  V30 94 H 9.4455 -1.45671 1.30384 0
M  V30 95 H 8.1495 -3.46822 2.19415 0
M  V30 96 H 7.6805 -3.89656 0.541474 0
M  V30 97 H 9.6955 -4.96007 -0.138531 0
M  V30 98 N 8.8686 -0.792821 -1.36206 0
M  V30 99 C 9.8006 -0.151469 -2.28699 0
M  V30 100 C 10.8136 0.641262 -1.49638 0
M  V30 101 O 12.0026 0.475885 -1.72039 0
M  V30 102 C 9.1026 0.808424 -3.29117 0
M  V30 103 C 8.2756 0.0650202 -4.37352 0
M  V30 104 C 7.3346 0.941358 -5.17711 0
M  V30 105 O 6.3606 0.397352 -5.67811 0
M  V30 106 N 7.5626 2.2652 -5.3448 0
M  V30 107 H 10.3276 -0.945982 -2.84379 0
M  V30 108 H 7.8886 -0.647032 -1.48409 0
M  V30 109 H 9.8806 1.3986 -3.79765 0
M  V30 110 H 8.4506 1.5038 -2.74052 0
M  V30 111 H 7.6706 -0.706255 -3.87822 0
M  V30 112 H 8.9586 -0.447847 -5.06825 0
M  V30 113 H 8.3566 2.73128 -4.95396 0
M  V30 114 H 6.9136 2.80493 -5.88359 0
M  V30 115 N 10.3467 1.47872 -0.545128 0
M  V30 116 C 11.2567 2.33633 0.212746 0
M  V30 117 C 12.2727 1.4744 0.923983 0
M  V30 118 O 13.4487 1.80393 0.895572 0
M  V30 119 C 10.5137 3.23884 1.23693 0
M  V30 120 C 9.5747 4.25961 0.534417 0
M  V30 121 C 8.8077 5.11899 1.5098 0
M  V30 122 O 9.0307 5.00077 2.7437 0
M  V30 123 O 7.9647 5.92831 1.0409 0
M  V30 124 H 11.7907 2.99714 -0.490416 0
M  V30 125 H 9.3757 1.46235 -0.305871 0
M  V30 126 H 11.2577 3.79666 1.82843 0
M  V30 127 H 9.9327 2.60446 1.92222 0
M  V30 128 H 8.8397 3.73972 -0.0979679 0
M  V30 129 H 10.1727 4.92079 -0.109213 0
M  V30 130 N 11.8248 0.280983 1.55075 0
M  V30 131 C 13.0528 -0.337293 2.04132 0
M  V30 132 C 13.4678 -1.4903 1.15912 0
M  V30 133 O 12.8248 -1.81606 0.180459 0
M  V30 134 C 12.8758 -0.812706 3.52246 0
M  V30 135 O 12.5968 0.294387 4.3711 0
M  V30 136 C 14.0978 -1.4982 4.17216 0
M  V30 137 H 11.3178 -0.0761638 0.666663 0
M  V30 138 H 13.8618 0.414787 2.00249 0
M  V30 139 H 12.0168 -1.51486 3.56554 0
M  V30 140 H 12.4308 -0.0721325 5.2445 0
M  V30 141 H 13.9048 -1.7822 5.22438 0
M  V30 142 H 14.3818 -2.43168 3.65741 0
M  V30 143 H 14.9878 -0.839742 4.16927 0
M  V30 144 N 13.3029 -1.57598 0.00835791 0
M  V30 145 C 14.2659 -2.07884 -0.965242 0
M  V30 146 C 15.2659 -0.989825 -1.26725 0
M  V30 147 O 16.4559 -1.25218 -1.21104 0
M  V30 148 C 13.5879 -2.52731 -2.28779 0
M  V30 149 H 14.7809 -2.95178 -0.530112 0
M  V30 150 H 12.3339 -1.54458 -0.239283 0
M  V30 151 H 13.0689 -1.68705 -2.76964 0
M  V30 152 H 12.8539 -3.32272 -2.08177 0
M  V30 153 H 14.3439 -2.91933 -2.98605 0
M  V30 154 N 14.781 0.264519 -1.55364 0
M  V30 155 C 15.728 1.32717 -1.88825 0
M  V30 156 C 16.698 1.48675 -0.740605 0
M  V30 157 O 17.883 1.62945 -0.992657 0
M  V30 158 C 15.023 2.68089 -2.17307 0
M  V30 159 C 14.136 2.60284 -3.44785 0
M  V30 160 C 13.271 3.87892 -3.62924 0
M  V30 161 C 12.31 3.74631 -4.84064 0
M  V30 162 N 11.447 4.94092 -4.98816 0
M  V30 163 H 16.287 1.03481 -2.79456 0
M  V30 164 H 13.824 0.499757 -1.3835 0
M  V30 165 H 15.782 3.46864 -2.31821 0
M  V30 166 H 14.412 2.95509 -1.299 0
M  V30 167 H 13.464 1.73173 -3.38697 0
M  V30 168 H 14.776 2.46388 -4.33698 0
M  V30 169 H 13.93 4.75109 -3.77302 0
M  V30 170 H 12.669 4.04664 -2.7221 0
M  V30 171 H 11.674 2.85797 -4.69681 0
M  V30 172 H 12.899 3.5937 -5.76221 0
M  V30 173 H 10.845 5.11259 -4.11036 0
M  V30 174 H 10.762 4.8276 -5.81789 0
M  V30 175 H 12.03 5.82857 -5.17588 0
M  V30 176 N 16.2591 1.48442 0.529413 0
M  V30 177 C 17.2071 1.63452 1.65487 0
M  V30 178 C 18.2011 0.500955 1.61823 0
M  V30 179 O 19.4071 0.679695 1.66674 0
M  V30 180 H 15.7821 0.514905 0.548066 0
M  V30 181 H 17.7531 2.57975 1.49971 0
M  V30 182 C 16.5021 1.69196 3.03756 0
M  V30 183 H 15.8251 2.55784 3.07269 0
M  V30 184 H 17.2651 1.83743 3.82119 0
M  V30 185 C 15.7241 0.430765 3.34135 0
M  V30 186 O 16.2541 -0.4561 3.99102 0
M  V30 187 N 14.4601 0.302293 2.89023 0
M  V30 188 H 14.0071 1.02496 2.36331 0
M  V30 189 H 13.9651 -0.540546 3.09718 0
M  V30 190 N 17.7372 -0.778329 1.37039 0
M  V30 191 C 18.9652 -1.56734 1.35063 0
M  V30 192 C 19.3802 -1.88686 -0.0655597 0
M  V30 193 O 18.7372 -1.5096 -1.02554 0
M  V30 194 C 18.7882 -2.88163 2.18276 0
M  V30 195 O 18.5092 -2.57583 3.54376 0
M  V30 196 C 20.0102 -3.82422 2.24206 0
M  V30 197 H 17.2302 -0.485778 0.462883 0
M  V30 198 H 19.7742 -0.965185 1.8029 0
M  V30 199 H 17.9292 -3.44818 1.76576 0
M  V30 200 H 18.3432 -3.41699 3.97922 0
M  V30 201 H 19.8172 -4.71667 2.86765 0
M  V30 202 H 20.2942 -4.21078 1.24861 0
M  V30 203 H 20.9002 -3.31697 2.6619 0
M  V30 204 N 19.2153 -1.21501 -1.00376 0
M  V30 205 C 20.4633 -1.03095 -1.73827 0
M  V30 206 C 20.7843 0.436341 -1.90055 0
M  V30 207 O 20.0543 1.31466 -1.45236 0
M  V30 208 H 18.6343 -0.378487 -0.644016 0
M  V30 209 H 21.2963 -1.52831 -1.20949 0
M  V30 210 H 20.3923 -1.49991 -2.73695 0
M  V30 211 N 20.6934 1.19889 -1.02296 0
M  V30 212 C 21.9334 1.91125 -0.724602 0
M  V30 213 C 22.2974 1.77464 0.732835 0
M  V30 214 O 23.4984 2.43241 1.144 0
M  V30 215 C 21.7694 3.38187 -1.15604 0
M  V30 216 S 23.3284 4.27702 -0.980621 0
M  V30 217 H 20.1464 0.66018 -0.263976 0
M  V30 218 H 22.7484 1.44978 -1.31155 0
M  V30 219 H 21.4524 3.45653 -2.21251 0
M  V30 220 H 20.9834 3.89363 -0.562131 0
M  V30 221 H 22.9984 4.96073 0.112225 0
M  V30 222 N 22.1715 0.800033 1.35784 0
M  V30 223 C 23.3995 0.389606 2.03199 0
M  V30 224 C 23.8145 -0.997375 1.60306 0
M  V30 225 O 23.1715 -1.64154 0.797481 0
M  V30 226 C 23.2225 0.455855 3.58614 0
M  V30 227 O 22.9435 1.78815 3.99946 0
M  V30 228 C 24.4445 0.0374032 4.43284 0
M  V30 229 H 21.6645 0.159132 0.651857 0
M  V30 230 H 24.2085 1.08183 1.73541 0
M  V30 231 H 22.3635 -0.188057 3.86943 0
M  V30 232 H 22.7775 1.74636 4.94573 0
M  V30 233 H 24.2515 0.134882 5.51835 0
M  V30 234 H 24.7285 -1.01651 4.27275 0
M  V30 235 H 25.3345 0.654215 4.20238 0
M  V30 236 N 23.6496 -1.47581 0.552962 0
M  V30 237 C 24.8956 -2.02782 0.0273648 0
M  V30 238 C 25.2286 -1.42687 -1.31734 0
M  V30 239 O 24.5036 -0.580897 -1.85623 0
M  V30 240 C 24.7866 -3.60031 -0.0702371 0
M  V30 241 C 24.6396 -4.30566 1.30126 0
M  V30 242 C 25.9586 -4.33028 -0.785771 0
M  V30 243 H 23.0776 -0.736912 0.0114185 0
M  V30 244 H 25.7196 -1.76056 0.714432 0
M  V30 245 H 23.8696 -3.82932 -0.655382 0
M  V30 246 H 25.5416 -4.19018 1.92929 0
M  V30 247 H 23.7846 -3.91086 1.87709 0
M  V30 248 H 24.4556 -5.39114 1.18573 0
M  V30 249 H 26.9316 -4.15095 -0.288982 0
M  V30 250 H 25.8076 -5.42695 -0.823013 0
M  V30 251 H 26.0686 -4.01945 -1.841 0
M  V30 252 N 25.1277 -0.289203 -1.54924 0
M  V30 253 C 26.0747 0.592115 -2.23075 0
M  V30 254 C 27.0447 1.13881 -1.20915 0
M  V30 255 O 28.2297 1.18551 -1.495 0
M  V30 256 C 25.3697 1.76376 -2.96623 0
M  V30 257 C 24.4827 1.24959 -4.13533 0
M  V30 258 C 23.6177 2.38416 -4.74691 0
M  V30 259 C 22.6567 1.84072 -5.83767 0
M  V30 260 N 21.7937 2.91057 -6.38929 0
M  V30 261 H 26.6337 0.00432038 -2.98 0
M  V30 262 H 24.1707 -0.00963529 -1.47097 0
M  V30 263 H 26.1287 2.45268 -3.3749 0
M  V30 264 H 24.7587 2.32337 -2.24097 0
M  V30 265 H 23.8107 0.453307 -3.77689 0
M  V30 266 H 25.1227 0.811662 -4.92152 0
M  V30 267 H 24.2767 3.15276 -5.18349 0
M  V30 268 H 23.0157 2.8553 -3.95378 0
M  V30 269 H 22.0207 1.05697 -5.39545 0
M  V30 270 H 23.2457 1.37877 -6.64956 0
M  V30 271 H 21.1917 3.37526 -5.62505 0
M  V30 272 H 21.1087 2.51724 -7.12861 0
M  V30 273 H 22.3767 3.6785 -6.87246 0
M  V30 274 N 26.6058 1.57591 -0.0167156 0
M  V30 275 C 27.8538 1.90906 0.663285 0
M  V30 276 C 28.1748 0.892509 1.73376 0
M  V30 277 O 27.4448 -0.0677623 1.95783 0
M  V30 278 H 26.0248 0.704637 0.247983 0
M  V30 279 H 28.6868 1.94803 -0.0615909 0
M  V30 280 H 27.7828 2.9116 1.12393 0
M  V30 281 N 28.0839 -0.256276 1.55502 0
M  V30 282 C 29.0169 -1.34321 1.84481 0
M  V30 283 C 29.9949 -1.46802 0.699131 0
M  V30 284 O 31.1789 -1.63165 0.943904 0
M  V30 285 C 28.3059 -2.71779 2.02123 0
M  V30 286 C 27.3519 -2.76496 3.24734 0
M  V30 287 S 28.1849 -2.3405 4.81644 0
M  V30 288 C 29.3409 -3.73452 5.02279 0
M  V30 289 H 29.5739 -1.09539 2.76385 0
M  V30 290 H 27.1069 -0.45678 1.47489 0
M  V30 291 H 29.0649 -3.50932 2.12972 0
M  V30 292 H 27.7259 -2.93803 1.11078 0
M  V30 293 H 26.9189 -3.77424 3.34016 0
M  V30 294 H 26.5209 -2.05379 3.12563 0
M  V30 295 H 28.8129 -4.6887 4.89047 0
M  V30 296 H 29.7559 -3.6911 6.04287 0
M  V30 297 H 30.1639 -3.6553 4.30172 0
M  V30 298 N 29.562 -1.4872 -0.521534 0
M  V30 299 C 30.802 -1.58771 -1.28729 0
M  V30 300 C 31.166 -0.259394 -1.9024 0
M  V30 301 O 32.367 -0.234942 -2.67771 0
M  V30 302 C 30.638 -2.70039 -2.34124 0
M  V30 303 S 32.197 -2.9991 -3.20312 0
M  V30 304 H 29.015 -0.560251 -0.437767 0
M  V30 305 H 31.617 -1.86283 -0.593188 0
M  V30 306 H 30.321 -3.65101 -1.87429 0
M  V30 307 H 29.852 -2.44455 -3.08229 0
M  V30 308 H 31.867 -2.39855 -4.34378 0
M  V30 309 N 31.0401 0.771051 -1.3745 0
M  V30 310 C 32.2881 1.52661 -1.32435 0
M  V30 311 C 32.6091 1.9479 0.0905024 0
M  V30 312 O 31.8791 1.66348 1.03466 0
M  V30 313 H 30.4591 0.566218 -0.487244 0
M  V30 314 H 33.1211 0.917636 -1.71946 0
M  V30 315 H 32.2171 2.42568 -1.96385 0
M  V30 316 N 32.5182 1.22032 0.997298 0
M  V30 317 C 33.4652 0.986467 2.08656 0
M  V30 318 C 34.4352 -0.0902671 1.65855 0
M  V30 319 O 35.6202 0.0584294 1.90711 0
M  V30 320 C 32.7602 0.565569 3.40434 0
M  V30 321 C 31.8732 1.71259 3.96604 0
M  V30 322 C 31.0082 1.24011 5.16522 0
M  V30 323 C 30.0472 2.35896 5.64818 0
M  V30 324 N 29.1842 1.89726 6.7598 0
M  V30 325 H 34.0242 1.91892 2.27994 0
M  V30 326 H 31.5612 0.956199 1.11782 0
M  V30 327 H 33.5192 0.302738 4.161 0
M  V30 328 H 32.1492 -0.329879 3.2111 0
M  V30 329 H 31.2012 2.08986 3.17851 0
M  V30 330 H 32.5132 2.55436 4.28432 0
M  V30 331 H 31.6672 0.934395 5.99461 0
M  V30 332 H 30.4062 0.368487 4.86306 0
M  V30 333 H 29.4112 2.67261 4.8047 0
M  V30 334 H 30.6362 3.23567 5.97061 0
M  V30 335 H 28.5822 1.0492 6.47555 0
M  V30 336 H 28.4992 2.67471 7.07103 0
M  V30 337 H 29.7672 1.62211 7.62435 0
M  V30 338 N 33.9963 -1.19345 1.0293 0
M  V30 339 C 35.4073 -1.70725 0.755633 0
M  V30 340 C 35.7583 -1.82326 -0.724676 0
M  V30 341 O 34.8833 -1.49471 -1.56484 0
M  V30 342 C 35.4783 -3.10084 1.36503 0
M  V30 343 C 34.0373 -3.58723 1.13994 0
M  V30 344 C 33.1843 -2.35577 1.46283 0
M  V30 345 H 36.1353 -1.0418 1.19718 0
M  V30 346 H 36.1563 -3.72787 0.762217 0
M  V30 347 H 35.6683 -3.01609 2.44241 0
M  V30 348 H 33.7693 -3.72512 0.0807901 0
M  V30 349 H 33.8823 -4.42816 1.82894 0
M  V30 350 H 32.2463 -2.38935 0.88217 0
M  V30 351 H 33.0293 -2.29731 2.55105 0
M  V30 352 N 35.4744 -0.807222 -1.35358 0
M  V30 353 C 36.3844 -0.219594 -2.3357 0
M  V30 354 C 37.4004 0.637734 -1.61892 0
M  V30 355 O 38.5764 0.549336 -1.93763 0
M  V30 356 C 35.6414 0.62158 -3.41083 0
M  V30 357 C 34.7024 -0.256315 -4.28534 0
M  V30 358 C 33.9354 0.544807 -5.30912 0
M  V30 359 O 34.1584 1.77944 -5.41934 0
M  V30 360 O 33.0924 -0.0646478 -6.01865 0
M  V30 361 H 36.9184 -1.03208 -2.85625 0
M  V30 362 H 34.5034 -0.569025 -1.38139 0
M  V30 363 H 36.3854 1.10067 -4.06772 0
M  V30 364 H 35.0604 1.41165 -2.91297 0
M  V30 365 H 33.9674 -0.782559 -3.65823 0
M  V30 366 H 35.3004 -1.01034 -4.81719 0
M  V30 367 N 36.9525 1.47285 -0.560781 0
M  V30 368 C 37.8625 2.33846 0.187954 0
M  V30 369 C 38.8785 1.48412 0.908293 0
M  V30 370 O 40.0545 1.81332 0.876388 0
M  V30 371 C 37.1195 3.25178 1.2025 0
M  V30 372 C 36.1805 4.26504 0.489208 0
M  V30 373 C 35.4135 5.13472 1.45542 0
M  V30 374 O 35.6365 5.02959 2.6905 0
M  V30 375 O 34.5705 5.93902 0.977963 0
M  V30 376 H 38.3965 2.99177 -0.522177 0
M  V30 377 H 35.9815 1.45903 -0.321364 0
M  V30 378 H 37.8635 3.81584 1.78805 0
M  V30 379 H 36.5385 2.6247 1.89449 0
M  V30 380 H 35.4455 3.73847 -0.137627 0
M  V30 381 H 36.7785 4.91935 -0.161399 0
M  V30 382 N 38.4306 0.297415 1.54768 0
M  V30 383 C 39.6586 -0.315623 2.04478 0
M  V30 384 C 40.0736 -1.47792 1.17486 0
M  V30 385 O 39.4306 -1.81404 0.19971 0
M  V30 386 C 39.4816 -0.7753 3.53088 0
M  V30 387 O 39.2026 0.340732 4.36773 0
M  V30 388 C 40.7036 -1.45386 4.18781 0
M  V30 389 H 37.9236 -0.0690887 0.667434 0
M  V30 390 H 40.4676 0.436003 1.99798 0
M  V30 391 H 38.6226 -1.47696 3.58141 0
M  V30 392 H 39.0366 -0.0165035 5.24497 0
M  V30 393 H 40.5106 -1.72669 5.24299 0
M  V30 394 H 40.9876 -2.39275 3.68299 0
M  V30 395 H 41.5936 -0.795475 4.17795 0
M  V30 396 N 39.9087 -1.5758 0.0250728 0
M  V30 397 C 40.8717 -2.08896 -0.943139 0
M  V30 398 C 41.8717 -1.00321 -1.25668 0
M  V30 399 O 43.0617 -1.26495 -1.19769 0
M  V30 400 C 40.1937 -2.55143 -2.26086 0
M  V30 401 H 41.3867 -2.95723 -0.498775 0
M  V30 402 H 38.9397 -1.54703 -0.222888 0
M  V30 403 H 39.6747 -1.71633 -2.75159 0
M  V30 404 H 39.4597 -3.34461 -2.04641 0
M  V30 405 H 40.9497 -2.95083 -2.95492 0
M  V30 406 N 41.3868 0.248026 -1.55636 0
M  V30 407 C 42.3348 1.32683 -1.91045 0
M  V30 408 C 43.3288 1.49883 -0.789401 0
M  V30 409 O 44.5348 1.51371 -0.974007 0
M  V30 410 H 40.9098 0.444272 -0.606734 0
M  V30 411 H 42.8808 1.00085 -2.81115 0
M  V30 412 C 41.6298 2.6755 -2.22064 0
M  V30 413 H 40.9528 2.55114 -3.07826 0
M  V30 414 H 42.3928 3.41912 -2.50743 0
M  V30 415 C 40.8518 3.20556 -1.0366 0
M  V30 416 O 41.3818 4.00695 -0.284016 0
M  V30 417 N 39.5878 2.78568 -0.82753 0
M  V30 418 H 39.1348 2.1351 -1.44123 0
M  V30 419 H 39.0928 3.14378 -0.0369803 0
M  V30 420 N 42.8649 1.48995 0.513639 0
M  V30 421 C 43.7949 1.67636 1.62544 0
M  V30 422 C 44.7759 0.525087 1.61793 0
M  V30 423 O 45.9609 0.759502 1.78732 0
M  V30 424 C 43.0909 1.73114 3.01079 0
M  V30 425 C 42.0449 2.87905 3.16693 0
M  V30 426 C 41.3709 2.78486 4.56453 0
M  V30 427 C 42.6709 4.29005 2.97913 0
M  V30 428 H 44.3649 2.60716 1.47198 0
M  V30 429 H 41.9109 1.25465 0.706714 0
M  V30 430 H 43.8639 1.84742 3.78746 0
M  V30 431 H 42.5879 0.766241 3.17484 0
M  V30 432 H 41.2469 2.75859 2.41448 0
M  V30 433 H 40.8949 1.7993 4.69717 0
M  V30 434 H 40.5949 3.55523 4.67843 0
M  V30 435 H 42.1189 2.92104 5.36197 0
M  V30 436 H 43.5329 4.41798 3.65359 0
M  V30 437 H 41.9299 5.07166 3.20785 0
M  V30 438 H 42.9999 4.44329 1.94165 0
M  V30 439 N 44.343 -0.763751 1.37857 0
M  V30 440 C 45.275 -1.88664 1.30148 0
M  V30 441 C 46.288 -1.61365 0.215685 0
M  V30 442 O 47.477 -1.72134 0.472459 0
M  V30 443 C 44.577 -3.24075 0.991396 0
M  V30 444 C 43.75 -3.78958 2.18426 0
M  V30 445 C 42.809 -4.92862 1.8432 0
M  V30 446 O 41.835 -5.08027 2.56704 0
M  V30 447 N 43.037 -5.75071 0.792081 0
M  V30 448 H 45.802 -1.95791 2.26905 0
M  V30 449 H 43.363 -0.943226 1.31586 0
M  V30 450 H 45.355 -3.97804 0.743935 0
M  V30 451 H 43.925 -3.12399 0.112122 0
M  V30 452 H 43.145 -2.96913 2.59299 0
M  V30 453 H 44.433 -4.12357 2.98058 0
M  V30 454 H 43.831 -5.65375 0.191595 0
M  V30 455 H 42.388 -6.48991 0.60449 0
M  V30 456 N 45.8211 -1.22559 -0.990812 0
M  V30 457 C 47.0981 -0.959875 -1.70428 0
M  V30 458 C 47.4781 0.524455 -2.04481 0
M  V30 459 O 46.8261 1.49302 -1.72977 0
M  V30 460 C 47.0361 -1.85955 -2.95333 0
M  V30 461 C 48.3841 -2.11687 -3.68068 0
M  V30 462 O 49.4081 -1.8342 -3.05345 0
M  V30 463 O 48.2671 -2.59572 -4.80921 0
M  V30 464 H 45.3611 -0.361154 -0.743974 0
M  V30 465 H 47.9071 -1.33554 -1.04697 0
M  V30 466 H 46.6791 -2.86346 -2.66687 0
M  V30 467 H 46.3021 -1.4856 -3.68803 0
M  V30 468 N 47.2992 1.18797 -1.03562 0
M  V30 469 C 48.2292 2.24472 -0.643019 0
M  V30 470 C 49.2102 1.66433 0.351283 0
M  V30 471 O 50.3952 1.92803 0.232505 0
M  V30 472 C 47.5252 3.473 4.24935e-05 0
M  V30 473 C 46.4792 4.18055 -0.917257 0
M  V30 474 C 45.8052 5.34519 -0.138941 0
M  V30 475 C 47.1052 4.72109 -2.23407 0
M  V30 476 H 48.7992 2.57566 -1.52643 0
M  V30 477 H 46.3452 1.23806 -0.735394 0
M  V30 478 H 48.2982 4.20426 0.286383 0
M  V30 479 H 47.0222 3.13424 0.918299 0
M  V30 480 H 45.6812 3.46821 -1.1879 0
M  V30 481 H 45.3292 4.96891 0.781562 0
M  V30 482 H 45.0292 5.82794 -0.750005 0
M  V30 483 H 46.5532 6.10438 0.1405 0
M  V30 484 H 47.9672 5.36955 -2.00879 0
M  V30 485 H 46.3642 5.30897 -2.79765 0
M  V30 486 H 47.4342 3.89807 -2.88407 0
M  V30 487 N 48.7773 0.814389 1.34928 0
M  V30 488 C 49.7073 0.244827 2.32213 0
M  V30 489 C 50.6883 -0.634024 1.57842 0
M  V30 490 O 51.8733 -0.562676 1.8587 0
M  V30 491 C 49.0033 -0.601106 3.42058 0
M  V30 492 C 47.9573 0.179896 4.27622 0
M  V30 493 C 47.2833 -0.788237 5.28858 0
M  V30 494 C 48.5833 1.38329 5.03649 0
M  V30 495 H 50.2773 1.05763 2.80097 0
M  V30 496 H 47.8233 0.510029 1.34665 0
M  V30 497 H 49.7763 -1.00968 4.09125 0
M  V30 498 H 48.5003 -1.44688 2.92802 0
M  V30 499 H 47.1593 0.569739 3.62146 0
M  V30 500 H 46.8073 -1.62973 4.75866 0
M  V30 501 H 46.5073 -0.269942 5.8698 0
M  V30 502 H 48.0313 -1.19485 5.98795 0
M  V30 503 H 49.4453 1.04918 5.63618 0
M  V30 504 H 47.8423 1.83662 5.71304 0
M  V30 505 H 48.9123 2.16592 4.33839 0
M  V30 506 N 50.2554 -1.46986 0.568584 0
M  V30 507 C 51.5044 -2.01646 0.0465894 0
M  V30 508 C 51.8174 -1.44721 -1.31587 0
M  V30 509 O 53.0234 -1.91113 -1.92842 0
M  V30 510 C 51.4794 -3.59885 0.032752 0
M  V30 511 C 51.0874 -4.25804 1.39266 0
M  V30 512 C 52.8314 -4.22255 -0.436038 0
M  V30 513 C 50.7384 -5.76081 1.33732 0
M  V30 514 H 49.6684 -0.753876 0.013647 0
M  V30 515 H 52.3194 -1.68864 0.718131 0
M  V30 516 H 50.7014 -3.8968 -0.704669 0
M  V30 517 H 51.8754 -4.07637 2.1487 0
M  V30 518 H 50.1904 -3.7547 1.80032 0
M  V30 519 H 52.7874 -5.32394 -0.49602 0
M  V30 520 H 53.1304 -3.90212 -1.45053 0
M  V30 521 H 53.6634 -3.97033 0.246877 0
M  V30 522 H 50.4024 -6.12761 2.32817 0
M  V30 523 H 49.9224 -5.96553 0.623267 0
M  V30 524 H 51.6014 -6.38518 1.0442 0
M  V30 525 N 51.7335 -0.305618 -1.54608 0
M  V30 526 C 52.9805 0.302298 -2.00231 0
M  V30 527 C 53.3085 1.5354 -1.19398 0
M  V30 528 O 52.5635 1.93973 -0.259423 0
M  V30 529 C 52.8625 0.698983 -3.50498 0
M  V30 530 C 52.5285 -0.432903 -4.48817 0
M  V30 531 C 51.1905 -0.743622 -4.75419 0
M  V30 532 C 53.5425 -1.19409 -5.07337 0
M  V30 533 C 50.8705 -1.81857 -5.57804 0
M  V30 534 C 53.2225 -2.25899 -5.90891 0
M  V30 535 C 51.8865 -2.57572 -6.15803 0
M  V30 536 H 51.1565 0.110619 -0.732697 0
M  V30 537 H 53.8035 -0.425674 -1.86709 0
M  V30 538 H 52.1085 1.50711 -3.61654 0
M  V30 539 H 53.8055 1.1806 -3.83227 0
M  V30 540 H 50.3955 -0.18063 -4.28219 0
M  V30 541 H 54.5795 -0.967295 -4.86782 0
M  V30 542 H 49.8355 -2.06864 -5.75341 0
M  V30 543 H 54.0095 -2.85335 -6.35261 0
M  V30 544 H 51.6365 -3.40998 -6.7943 0
M  V30 545 N 53.2116 1.57565 -0.0334293 0
M  V30 546 C 54.4576 1.92262 0.645226 0
M  V30 547 C 54.7906 0.910543 1.71531 0
M  V30 548 O 54.0656 -0.066099 1.94388 0
M  V30 549 C 54.3486 3.37422 1.2577 0
M  V30 550 C 54.2016 4.49369 0.196891 0
M  V30 551 C 55.5206 3.82628 2.17449 0
M  V30 552 H 52.6396 0.699171 0.233085 0
M  V30 553 H 55.2816 1.89779 -0.0915694 0
M  V30 554 H 53.4316 3.39669 1.88566 0
M  V30 555 H 55.1036 4.59254 -0.433962 0
M  V30 556 H 53.3466 4.31168 -0.477137 0
M  V30 557 H 54.0176 5.47978 0.665124 0
M  V30 558 H 56.4936 3.82145 1.64634 0
M  V30 559 H 55.3696 4.84883 2.57254 0
M  V30 560 H 55.6306 3.18376 3.0674 0
M  V30 561 N 54.6897 -0.239769 1.55765 0
M  V30 562 C 55.6197 -1.30052 1.9393 0
M  V30 563 C 56.6007 -1.49839 0.805132 0
M  V30 564 O 57.7857 -1.62328 1.06599 0
M  V30 565 C 54.9157 -2.65391 2.2402 0
M  V30 566 C 53.8697 -2.60289 3.39755 0
M  V30 567 C 53.1957 -3.99489 3.55405 0
M  V30 568 C 54.4957 -2.16654 4.75246 0
M  V30 569 H 56.1897 -0.983573 2.82783 0
M  V30 570 H 53.7357 -0.471701 1.36055 0
M  V30 571 H 55.6887 -3.3974 2.49308 0
M  V30 572 H 54.4127 -2.98736 1.32 0
M  V30 573 H 53.0717 -1.88398 3.14487 0
M  V30 574 H 52.7197 -4.30112 2.60793 0
M  V30 575 H 52.4197 -3.96962 4.33238 0
M  V30 576 H 53.9437 -4.75528 3.83022 0
M  V30 577 H 55.3577 -2.80737 4.99859 0
M  V30 578 H 53.7547 -2.25223 5.56232 0
M  V30 579 H 54.8247 -1.11835 4.71827 0
M  V30 580 N 56.1678 -1.49265 -0.50573 0
M  V30 581 C 57.5838 -1.35923 -0.836486 0
M  V30 582 C 57.7838 -0.388704 -1.97715 0
M  V30 583 O 56.8398 0.181336 -2.51848 0
M  V30 584 C 58.1528 -2.76531 -1.18115 0
M  V30 585 C 59.7008 -2.85197 -1.28964 0
M  V30 586 C 60.1758 -4.26561 -1.66761 0
M  V30 587 N 61.6668 -4.2935 -1.73819 0
M  V30 588 C 62.4018 -5.35693 -2.045 0
M  V30 589 N 61.8978 -6.52287 -2.33438 0
M  V30 590 N 63.6908 -5.23105 -2.05711 0
M  V30 591 H 55.8418 -2.10965 0.246519 0
M  V30 592 H 58.1048 -0.9468 0.0476887 0
M  V30 593 H 57.8108 -3.49226 -0.416398 0
M  V30 594 H 57.6848 -3.11599 -2.1257 0
M  V30 595 H 60.0718 -2.12742 -2.04511 0
M  V30 596 H 60.1528 -2.53718 -0.325704 0
M  V30 597 H 59.7968 -4.99541 -0.917656 0
M  V30 598 H 59.7268 -4.55502 -2.64246 0
M  V30 599 H 62.2178 -3.4526 -1.53635 0
M  V30 600 H 62.5308 -7.29158 -2.56024 0
M  V30 601 H 60.8758 -6.55521 -2.30905 0
M  V30 602 H 64.0668 -4.31026 -1.82577 0
M  V30 603 H 64.2398 -6.06078 -2.29289 0
M  V30 604 N 57.6459 0.756429 -1.3826 0
M  V30 605 C 58.8939 1.51248 -1.34047 0
M  V30 606 C 59.2149 1.94875 0.0698372 0
M  V30 607 O 58.4849 1.67436 1.01696 0
M  V30 608 H 57.0649 0.561018 -0.493222 0
M  V30 609 H 59.7269 0.899347 -1.7291 0
M  V30 610 H 58.8229 2.40472 -1.98947 0
M  V30 611 N 59.124 1.23083 0.984299 0
M  V30 612 C 60.373 1.05466 1.71929 0
M  V30 613 C 60.686 -0.409211 1.91272 0
M  V30 614 O 61.892 -0.705226 2.62181 0
M  V30 615 C 60.348 1.83874 3.09384 0
M  V30 616 C 59.956 3.34566 2.97943 0
M  V30 617 C 61.7 1.74734 3.8687 0
M  V30 618 C 59.607 4.05381 4.30605 0
M  V30 619 H 58.537 0.391039 0.644674 0
M  V30 620 H 61.188 1.47013 1.09815 0
M  V30 621 H 59.57 1.35131 3.72231 0
M  V30 622 H 60.744 3.90767 2.44209 0
M  V30 623 H 59.059 3.44476 2.33934 0
M  V30 624 H 61.656 2.24957 4.85076 0
M  V30 625 H 61.999 0.709372 4.10212 0
M  V30 626 H 62.532 2.21067 3.30717 0
M  V30 627 H 59.271 5.09467 4.1246 0
M  V30 628 H 58.791 3.53967 4.84218 0
M  V30 629 H 60.47 4.11458 4.99311 0
M  V30 630 N 60.6021 -1.18246 1.0419 0
M  V30 631 C 61.5651 -2.20128 0.638452 0
M  V30 632 C 62.5651 -1.57885 -0.304805 0
M  V30 633 O 63.7551 -1.73967 -0.0900369 0
M  V30 634 C 60.8871 -3.4084 -0.0637751 0
M  V30 635 H 62.0801 -2.57336 1.54007 0
M  V30 636 H 59.6331 -1.32152 0.834598 0
M  V30 637 H 60.3681 -3.09166 -0.979136 0
M  V30 638 H 60.1531 -3.8726 0.614198 0
M  V30 639 H 61.6431 -4.16274 -0.332512 0
M  V30 640 N 62.0802 -0.821533 -1.34494 0
M  V30 641 C 63.3292 -0.405355 -1.97585 0
M  V30 642 C 63.6422 1.03677 -1.65863 0
M  V30 643 O 64.8482 1.55679 -2.22433 0
M  V30 644 C 63.3042 -0.673861 -3.53535 0
M  V30 645 C 62.9122 -2.12951 -3.94152 0
M  V30 646 C 64.6562 -0.32378 -4.23263 0
M  V30 647 C 62.5632 -2.34298 -5.43009 0
M  V30 648 H 61.4932 -0.147836 -0.739365 0
M  V30 649 H 64.1442 -1.00769 -1.53355 0
M  V30 650 H 62.5262 -0.00137554 -3.96 0
M  V30 651 H 63.7002 -2.84104 -3.62797 0
M  V30 652 H 62.0152 -2.44089 -3.37356 0
M  V30 653 H 64.6122 -0.461126 -5.32708 0
M  V30 654 H 64.9552 0.731586 -4.09821 0
M  V30 655 H 65.4882 -0.950786 -3.8627 0
M  V30 656 H 62.2272 -3.38335 -5.61435 0
M  V30 657 H 61.7472 -1.67687 -5.75883 0
M  V30 658 H 63.4262 -2.16588 -6.09671 0
M  V30 659 N 63.5583 1.46682 -0.576371 0
M  V30 660 C 64.7883 2.06498 -0.0648694 0
M  V30 661 C 65.1963 1.42665 1.24271 0
M  V30 662 O 64.5393 0.523886 1.76071 0
M  V30 663 C 64.6013 3.5904 0.181816 0
M  V30 664 C 64.2653 4.45028 -1.0392 0
M  V30 665 C 65.2623 4.81959 -1.94966 0
M  V30 666 C 62.9473 4.86259 -1.25927 0
M  V30 667 C 64.9413 5.58942 -3.06371 0
M  V30 668 C 62.6283 5.63002 -2.37638 0
M  V30 669 C 63.6263 5.99257 -3.2769 0
M  V30 670 O 63.3143 6.7445 -4.37461 0
M  V30 671 H 63.0463 0.674028 -0.0515987 0
M  V30 672 H 65.6003 1.89393 -0.794951 0
M  V30 673 H 63.8303 3.74429 0.966436 0
M  V30 674 H 65.5193 4.00806 0.641047 0
M  V30 675 H 66.2853 4.50689 -1.79177 0
M  V30 676 H 62.1643 4.57494 -0.567448 0
M  V30 677 H 65.7083 5.87158 -3.76684 0
M  V30 678 H 61.6053 5.93686 -2.53392 0
M  V30 679 H 62.3733 6.92867 -4.35749 0
M  V30 680 N 65.0364 0.313813 1.54444 0
M  V30 681 C 66.2844 -0.291099 1.99993 0
M  V30 682 C 66.6054 -1.53418 1.20366 0
M  V30 683 O 65.8754 -1.93544 0.302927 0
M  V30 684 H 64.4554 -0.110552 0.738774 0
M  V30 685 H 67.1174 0.428106 1.9014 0
M  V30 686 H 66.2134 -0.554268 3.07139 0
M  V30 687 N 66.5145 -1.57545 0.0417849 0
M  V30 688 C 67.4245 -2.14451 -0.951213 0
M  V30 689 C 68.4405 -1.09992 -1.34825 0
M  V30 690 O 69.6165 -1.42114 -1.42708 0
M  V30 691 C 66.6815 -2.67063 -2.21084 0
M  V30 692 C 65.7425 -3.86284 -1.87304 0
M  V30 693 C 64.9755 -4.36378 -3.07261 0
M  V30 694 O 65.1985 -3.85587 -4.20332 0
M  V30 695 O 64.1325 -5.28077 -2.88822 0
M  V30 696 H 67.9585 -2.99601 -0.497287 0
M  V30 697 H 65.5435 -1.48317 -0.179567 0
M  V30 698 H 67.4255 -3.00914 -2.95006 0
M  V30 699 H 66.1005 -1.84989 -2.65633 0
M  V30 700 H 65.0075 -3.57338 -1.10727 0
M  V30 701 H 66.3405 -4.6956 -1.47562 0
M  V30 702 N 67.9926 0.231505 -1.5589 0
M  V30 703 C 68.9396 1.28682 -1.91598 0
M  V30 704 C 69.9096 1.47071 -0.771974 0
M  V30 705 O 71.0946 1.60802 -1.027 0
M  V30 706 C 68.2346 2.6342 -2.22944 0
M  V30 707 C 67.3476 2.52912 -3.50228 0
M  V30 708 C 66.4826 3.80106 -3.7107 0
M  V30 709 C 65.5216 3.64279 -4.91902 0
M  V30 710 N 64.6586 4.834 -5.09184 0
M  V30 711 H 69.4986 0.975305 -2.81588 0
M  V30 712 H 67.0356 0.470299 -1.39379 0
M  V30 713 H 68.9936 3.41869 -2.39126 0
M  V30 714 H 67.6236 2.92687 -1.36139 0
M  V30 715 H 66.6756 1.6595 -3.42294 0
M  V30 716 H 67.9876 2.37133 -4.38827 0
M  V30 717 H 67.1416 4.66999 -3.87295 0
M  V30 718 H 65.8806 3.98799 -2.80733 0
M  V30 719 H 64.8856 2.7577 -4.75637 0
M  V30 720 H 66.1106 3.47067 -5.83714 0
M  V30 721 H 64.0566 5.02425 -4.21788 0
M  V30 722 H 63.9736 4.70311 -5.91898 0
M  V30 723 H 65.2416 5.71747 -5.29835 0
M  V30 724 N 69.4707 1.49531 0.497807 0
M  V30 725 C 70.4007 1.6935 1.60757 0
M  V30 726 C 71.3817 0.542218 1.61227 0
M  V30 727 O 72.5667 0.778417 1.77917 0
M  V30 728 C 69.6967 1.76298 2.99226 0
M  V30 729 C 68.6507 2.91248 3.13622 0
M  V30 730 C 67.9767 2.83312 4.53474 0
M  V30 731 C 69.2767 4.3214 2.93346 0
M  V30 732 H 70.9707 2.62263 1.44425 0
M  V30 733 H 68.5167 1.26208 0.693367 0
M  V30 734 H 70.4697 1.88749 3.76765 0
M  V30 735 H 69.1937 0.799871 3.16654 0
M  V30 736 H 67.8527 2.78404 2.38509 0
M  V30 737 H 67.5007 1.84902 4.67782 0
M  V30 738 H 67.2007 3.60465 4.64046 0
M  V30 739 H 68.7247 2.97775 5.33069 0
M  V30 740 H 70.1387 4.45649 3.60652 0
M  V30 741 H 68.5357 5.1054 3.15387 0
M  V30 742 H 69.6057 4.46363 1.89441 0
M  V30 743 N 70.9488 -0.749086 1.3866 0
M  V30 744 C 71.8958 -1.86291 1.36251 0
M  V30 745 C 72.8658 -1.64578 0.224347 0
M  V30 746 O 74.0508 -1.86181 0.417279 0
M  V30 747 C 71.1908 -3.23644 1.19786 0
M  V30 748 C 70.3038 -3.57158 2.43027 0
M  V30 749 C 69.4388 -4.83838 2.19258 0
M  V30 750 C 68.4778 -5.10152 3.38247 0
M  V30 751 N 67.6148 -6.28029 3.13884 0
M  V30 752 H 72.4548 -1.87685 2.3147 0
M  V30 753 H 69.9918 -0.917287 1.14997 0
M  V30 754 H 71.9498 -4.0291 1.08254 0
M  V30 755 H 70.5798 -3.21566 0.282031 0
M  V30 756 H 69.6318 -2.72701 2.65214 0
M  V30 757 H 70.9438 -3.7253 3.31697 0
M  V30 758 H 70.0978 -5.71057 2.04888 0
M  V30 759 H 68.8368 -4.70614 1.2796 0
M  V30 760 H 67.8418 -4.21401 3.53131 0
M  V30 761 H 69.0668 -5.25271 4.30427 0
M  V30 762 H 67.0128 -6.1612 2.25238 0
M  V30 763 H 66.9298 -6.43922 3.96106 0
M  V30 764 H 68.1978 -7.18124 3.03179 0
M  V30 765 N 72.4269 -1.23603 -0.977757 0
M  V30 766 C 73.3369 -1.03632 -2.1047 0
M  V30 767 C 74.3529 0.0199435 -1.73989 0
M  V30 768 O 75.5289 -0.176076 -2.00629 0
M  V30 769 C 72.5939 -0.63276 -3.40877 0
M  V30 770 C 71.6549 -1.76437 -3.91367 0
M  V30 771 C 70.8879 -1.37997 -5.15551 0
M  V30 772 O 71.1109 -0.265357 -5.69782 0
M  V30 773 O 70.0449 -2.20201 -5.60174 0
M  V30 774 H 73.8709 -1.98086 -2.30208 0
M  V30 775 H 71.4559 -1.02332 -1.08851 0
M  V30 776 H 73.3379 -0.418761 -4.19314 0
M  V30 777 H 72.0129 0.282754 -3.22463 0
M  V30 778 H 70.9199 -2.03304 -3.14036 0
M  V30 779 H 72.2529 -2.6583 -4.14241 0
M  V30 780 N 73.905 1.17692 -1.04816 0
M  V30 781 C 74.835 2.23777 -0.666791 0
M  V30 782 C 75.816 1.66796 0.33361 0
M  V30 783 O 77.001 1.93039 0.212042 0
M  V30 784 C 74.131 3.47281 -0.0367933 0
M  V30 785 C 73.085 4.17059 -0.961546 0
M  V30 786 C 72.411 5.34342 -0.195626 0
M  V30 787 C 73.711 4.69713 -2.28402 0
M  V30 788 H 75.405 2.55933 -1.55367 0
M  V30 789 H 72.951 1.23019 -0.748484 0
M  V30 790 H 74.904 4.20706 0.241775 0
M  V30 791 H 73.628 3.14381 0.885004 0
M  V30 792 H 72.287 3.45541 -1.22462 0
M  V30 793 H 71.935 4.97692 0.728816 0
M  V30 794 H 71.635 5.81966 -0.811775 0
M  V30 795 H 73.159 6.10553 0.0757473 0
M  V30 796 H 74.573 5.34794 -2.06563 0
M  V30 797 H 72.97 5.279 -2.8538 0
M  V30 798 H 74.04 3.86726 -2.92525 0
M  V30 799 N 75.3831 0.828654 1.34056 0
M  V30 800 C 76.6311 0.41863 1.97717 0
M  V30 801 C 76.9521 -1.02314 1.66002 0
M  V30 802 O 76.2221 -1.71119 0.953683 0
M  V30 803 H 74.8021 0.151809 0.731412 0
M  V30 804 H 77.4641 1.05936 1.63596 0
M  V30 805 H 76.5601 0.542318 3.07352 0
M  V30 806 N 76.8612 -1.46375 0.584142 0
M  V30 807 C 77.7932 -2.28443 -0.186119 0
M  V30 808 C 78.8062 -1.38596 -0.854115 0
M  V30 809 O 79.9952 -1.63183 -0.723438 0
M  V30 810 C 77.0952 -3.13671 -1.28311 0
M  V30 811 C 76.2682 -4.31652 -0.706758 0
M  V30 812 C 75.3272 -4.98267 -1.69163 0
M  V30 813 O 74.3532 -5.55815 -1.22712 0
M  V30 814 N 75.5552 -4.95408 -3.02575 0
M  V30 815 H 78.3202 -2.9519 0.517986 0
M  V30 816 H 75.8812 -1.56303 0.42201 0
M  V30 817 H 77.8732 -3.55101 -1.94128 0
M  V30 818 H 76.4432 -2.48989 -1.89005 0
M  V30 819 H 75.6632 -3.93989 0.128908 0
M  V30 820 H 76.9512 -5.07906 -0.301506 0
M  V30 821 H 76.3492 -4.49902 -3.42936 0
M  V30 822 H 74.9062 -5.40774 -3.63877 0
M  V30 823 N 78.3393 -0.321999 -1.54275 0
M  V30 824 C 79.7503 0.166384 -1.85957 0
M  V30 825 C 80.1013 1.51747 -1.24367 0
M  V30 826 O 79.2263 2.09317 -0.549124 0
M  V30 827 C 79.8213 0.308681 -3.37391 0
M  V30 828 C 78.3803 0.741286 -3.69028 0
M  V30 829 C 77.5273 -0.137937 -2.76957 0
M  V30 830 H 80.4783 -0.542335 -1.49146 0
M  V30 831 H 80.4993 1.13984 -3.63026 0
M  V30 832 H 80.0113 -0.674809 -3.82188 0
M  V30 833 H 78.1123 1.73458 -3.29762 0
M  V30 834 H 78.2253 0.546118 -4.75977 0
M  V30 835 H 76.5893 0.386251 -2.51754 0
M  V30 836 H 77.3723 -1.11816 -3.2458 0
M  V30 837 N 79.8174 1.5752 -0.0501392 0
M  V30 838 C 81.0944 1.83996 0.663685 0
M  V30 839 C 81.4744 0.938339 1.89099 0
M  V30 840 O 80.8224 -0.00087759 2.285 0
M  V30 841 C 81.0324 3.33702 1.02196 0
M  V30 842 C 82.3804 4.00691 1.40469 0
M  V30 843 O 83.4044 3.38321 1.11433 0
M  V30 844 O 82.2634 5.10658 1.94654 0
M  V30 845 H 79.3574 0.759385 0.32751 0
M  V30 846 H 81.9034 1.69514 -0.0794238 0
M  V30 847 H 80.6754 3.91015 0.149364 0
M  V30 848 H 80.2984 3.53368 1.82255 0
M  V30 849 N 81.2955 -0.223234 1.56011 0
M  V30 850 C 82.7115 -0.572856 1.48965 0
M  V30 851 C 82.9115 -1.87225 0.74492 0
M  V30 852 O 81.9675 -2.50899 0.283896 0
M  V30 853 C 83.2805 -0.653646 2.9351 0
M  V30 854 C 84.8285 -0.744386 3.0402 0
M  V30 855 C 85.3035 -0.856535 4.49919 0
M  V30 856 N 86.7945 -0.9208 4.53955 0
M  V30 857 C 87.5295 -1.02726 5.64123 0
M  V30 858 N 87.0255 -1.09777 6.84047 0
M  V30 859 N 88.8185 -1.06226 5.51971 0
M  V30 860 H 80.9695 0.629462 2.02858 0
M  V30 861 H 83.2325 0.220621 0.921971 0
M  V30 862 H 82.9385 0.231518 3.50937 0
M  V30 863 H 82.8125 -1.51781 3.45315 0
M  V30 864 H 85.1995 -1.61999 2.46658 0
M  V30 865 H 85.2805 0.14541 2.55386 0
M  V30 866 H 84.9245 0.0146069 5.07898 0
M  V30 867 H 84.8545 -1.76172 4.96257 0
M  V30 868 H 87.3455 -0.876694 3.6759 0
M  V30 869 H 87.6585 -1.17872 7.63758 0
M  V30 870 H 86.0035 -1.06693 6.86762 0
M  V30 871 H 89.1945 -1.00382 4.5721 0
M  V30 872 H 89.3675 -1.14177 6.37862 0
M  V30 873 N 82.7736 -1.49793 -0.48987 0
M  V30 874 C 83.9986 -1.63836 -1.27172 0
M  V30 875 C 84.4236 -0.31402 -1.8546 0
M  V30 876 O 83.7816 0.719803 -1.66399 0
M  V30 877 C 83.8296 -2.71797 -2.36978 0
M  V30 878 O 82.9336 -2.31744 -3.41128 0
M  V30 879 H 82.2746 -0.547997 -0.37496 0
M  V30 880 H 84.8046 -1.96053 -0.585191 0
M  V30 881 H 84.8146 -2.94305 -2.82575 0
M  V30 882 H 83.4896 -3.67923 -1.93921 0
M  V30 883 H 82.0666 -2.1961 -3.01373 0
M  V30 884 N 84.2517 0.741722 -1.39055 0
M  V30 885 C 85.1997 1.87702 -1.3737 0
M  V30 886 C 86.1937 1.67427 -0.257812 0
M  V30 887 O 87.3997 1.7485 -0.427489 0
M  V30 888 H 83.7747 0.617757 -0.428812 0
M  V30 889 H 85.7457 1.86239 -2.33147 0
M  V30 890 C 84.4947 3.25315 -1.22741 0
M  V30 891 H 83.8177 3.41509 -2.07873 0
M  V30 892 H 85.2577 4.04964 -1.25618 0
M  V30 893 C 83.7167 3.36838 0.0647316 0
M  V30 894 O 84.2467 3.88073 1.03741 0
M  V30 895 N 82.4527 2.90329 0.125544 0
M  V30 896 H 81.9997 2.48823 -0.666682 0
M  V30 897 H 81.9577 2.98418 0.989639 0
M  V30 898 N 85.7298 1.2412 0.971189 0
M  V30 899 C 87.0068 0.986867 1.6888 0
M  V30 900 C 87.3868 -0.491857 2.0529 0
M  V30 901 O 86.7348 -1.46531 1.75331 0
M  V30 902 C 86.9448 1.9063 2.92338 0
M  V30 903 C 88.2928 2.17515 3.64654 0
M  V30 904 O 89.3168 1.88254 3.02388 0
M  V30 905 O 88.1758 2.6719 4.7673 0
M  V30 906 H 85.2698 0.372944 0.738134 0
M  V30 907 H 87.8158 1.35203 1.02559 0
M  V30 908 H 86.5878 2.90552 2.62097 0
M  V30 909 H 86.2108 1.54408 3.66393 0
M  V30 910 N 87.2079 -1.17134 1.05439 0
M  V30 911 C 88.4849 -1.83411 0.679699 0
M  V30 912 C 88.8649 -1.9368 -0.839726 0
M  V30 913 O 88.2129 -1.47325 -1.74664 0
M  V30 914 C 88.4229 -3.20918 1.37159 0
M  V30 915 C 89.7709 -3.96796 1.51123 0
M  V30 916 O 90.7949 -3.30406 1.3308 0
M  V30 917 O 89.6539 -5.15778 1.80651 0
M  V30 918 H 86.7479 -0.79154 0.239569 0
M  V30 919 H 89.2939 -1.24411 1.15413 0
M  V30 920 H 88.0659 -3.08428 2.40807 0
M  V30 921 H 87.6889 -3.87587 0.886674 0
M  V30 922 N 88.686 -0.835752 -1.33615 0
M  V30 923 C 89.933 -0.429959 -1.97883 0
M  V30 924 C 90.261 1.01006 -1.66217 0
M  V30 925 O 89.516 1.72047 -0.93265 0
M  V30 926 C 89.815 -0.593925 -3.52431 0
M  V30 927 C 89.481 -2.00158 -4.04039 0
M  V30 928 C 88.143 -2.38662 -4.17844 0
M  V30 929 C 90.495 -2.92117 -4.31644 0
M  V30 930 C 87.823 -3.68435 -4.56588 0
M  V30 931 C 90.175 -4.21368 -4.71838 0
M  V30 932 C 88.839 -4.59833 -4.83849 0
M  V30 933 H 88.109 -0.157333 -0.724104 0
M  V30 934 H 90.756 -1.06217 -1.59343 0
M  V30 935 H 89.061 0.121619 -3.91611 0
M  V30 936 H 90.758 -0.260282 -4.00154 0
M  V30 937 H 87.348 -1.69252 -3.93766 0
M  V30 938 H 91.532 -2.63608 -4.20505 0
M  V30 939 H 86.788 -3.98046 -4.64079 0
M  V30 940 H 90.962 -4.92703 -4.92155 0
M  V30 941 H 88.589 -5.60438 -5.13627 0
M  V30 942 N 90.1641 1.46063 -0.591896 0
M  V30 943 C 91.4101 2.02638 -0.0811191 0
M  V30 944 C 91.7431 1.4613 1.27905 0
M  V30 945 O 91.0181 0.629908 1.84017 0
M  V30 946 C 91.3011 3.60091 -0.0252436 0
M  V30 947 C 91.1541 4.26965 -1.41496 0
M  V30 948 C 92.4731 4.3496 0.670685 0
M  V30 949 H 89.5921 0.73635 -0.0309524 0
M  V30 950 H 92.2341 1.741 -0.760859 0
M  V30 951 H 90.3841 3.84535 0.553624 0
M  V30 952 H 92.0561 4.13756 -2.0397 0
M  V30 953 H 90.2991 3.85971 -1.98011 0
M  V30 954 H 90.9701 5.35781 -1.32825 0
M  V30 955 H 93.4461 4.15716 0.178825 0
M  V30 956 H 92.3221 5.44686 0.678837 0
M  V30 957 H 92.5831 4.06685 1.73379 0
M  V30 958 N 91.6422 0.330177 1.54103 0
M  V30 959 C 92.5722 -0.525353 2.27513 0
M  V30 960 C 93.5532 -1.11383 1.2856 0
M  V30 961 O 94.7382 -1.13773 1.57383 0
M  V30 962 C 91.8682 -1.6831 3.03791 0
M  V30 963 C 90.8222 -1.2236 4.10137 0
M  V30 964 C 90.1482 -2.46882 4.74293 0
M  V30 965 C 91.4482 -0.333697 5.21233 0
M  V30 966 H 93.1422 0.087013 2.99274 0
M  V30 967 H 90.6882 0.0432893 1.43935 0
M  V30 968 H 92.6412 -2.28795 3.5388 0
M  V30 969 H 91.3652 -2.32216 2.29659 0
M  V30 970 H 90.0242 -0.64165 3.60941 0
M  V30 971 H 89.6722 -3.09165 3.96769 0
M  V30 972 H 89.3722 -2.16825 5.46133 0
M  V30 973 H 90.8962 -3.08117 5.27159 0
M  V30 974 H 92.3102 -0.845013 5.67038 0
M  V30 975 H 90.7072 -0.125612 5.99969 0
M  V30 976 H 91.7772 0.633724 4.80741 0
M  V30 977 N 93.1203 -1.57491 0.0584922 0
M  V30 978 C 94.0523 -2.08916 -0.942694 0
M  V30 979 C 95.0653 -1.0185 -1.27006 0
M  V30 980 O 96.2543 -1.29398 -1.22957 0
M  V30 981 C 93.3543 -2.52341 -2.26224 0
M  V30 982 C 92.5273 -3.82827 -2.1157 0
M  V30 983 C 91.5863 -4.12487 -3.26712 0
M  V30 984 O 90.6123 -4.82295 -3.02292 0
M  V30 985 N 91.8143 -3.64978 -4.5141 0
M  V30 986 H 94.5793 -2.95437 -0.503722 0
M  V30 987 H 92.1403 -1.61397 -0.12757 0
M  V30 988 H 94.1323 -2.69254 -3.02133 0
M  V30 989 H 92.7023 -1.7103 -2.61663 0
M  V30 990 H 91.9223 -3.75425 -1.20208 0
M  V30 991 H 93.2103 -4.68263 -1.99015 0
M  V30 992 H 92.6083 -3.08558 -4.7414 0
M  V30 993 H 91.1653 -3.87115 -5.2439 0
M  V30 994 N 94.5984 0.214957 -1.56127 0
M  V30 995 C 95.8464 0.936518 -1.79091 0
M  V30 996 C 96.1674 1.84606 -0.628148 0
M  V30 997 O 95.4374 1.92664 0.35462 0
M  V30 998 H 94.0174 0.3488 -0.660566 0
M  V30 999 H 96.6794 0.22523 -1.93594 0
M  V30 1000 H 95.7754 1.53943 -2.71492 0
M  V30 1001 N 96.0765 1.50051 0.48192 0
M  V30 1002 C 97.0065 1.71046 1.58951 0
M  V30 1003 C 97.9875 0.559288 1.60642 0
M  V30 1004 O 99.1725 0.797243 1.77081 0
M  V30 1005 C 96.3025 1.79462 2.97339 0
M  V30 1006 C 95.2565 2.94558 3.10515 0
M  V30 1007 C 94.5825 2.88105 4.50444 0
M  V30 1008 C 95.8825 4.35227 2.88747 0
M  V30 1009 H 97.5765 2.6378 1.41635 0
M  V30 1010 H 95.1225 1.26936 0.679942 0
M  V30 1011 H 97.0755 1.92734 3.74742 0
M  V30 1012 H 95.7995 0.833412 3.15788 0
M  V30 1013 H 94.4585 2.80918 2.35543 0
M  V30 1014 H 94.1065 1.89853 4.65795 0
M  V30 1015 H 93.8065 3.65366 4.60197 0
M  V30 1016 H 95.3305 3.03412 5.29881 0
M  V30 1017 H 96.7445 4.49449 3.55905 0
M  V30 1018 H 95.1415 5.13856 3.09955 0
M  V30 1019 H 96.2115 4.48347 1.84696 0
M  V30 1020 N 97.5546 -0.734337 1.39446 0
M  V30 1021 C 98.8016 -1.49391 1.36706 0
M  V30 1022 C 99.1296 -1.94465 -0.0367813 0
M  V30 1023 O 98.3846 -1.67154 -1.01774 0
M  V30 1024 C 98.6836 -2.74711 2.28623 0
M  V30 1025 C 98.3496 -2.48501 3.76242 0
M  V30 1026 C 97.0116 -2.41062 4.16464 0
M  V30 1027 C 99.3636 -2.26098 4.69606 0
M  V30 1028 C 96.6916 -2.09262 5.48112 0
M  V30 1029 C 99.0436 -1.95814 6.01531 0
M  V30 1030 C 97.7076 -1.86845 6.40816 0
M  V30 1031 H 96.9776 -0.546661 0.500243 0
M  V30 1032 H 99.6246 -0.842788 1.71957 0
M  V30 1033 H 97.9296 -3.44569 1.86492 0
M  V30 1034 H 99.6266 -3.32741 2.23796 0
M  V30 1035 H 96.2166 -2.55169 3.44364 0
M  V30 1036 H 100.401 -2.30812 4.39363 0
M  V30 1037 H 95.6566 -2.00841 5.77471 0
M  V30 1038 H 99.8306 -1.77488 6.73403 0
M  V30 1039 H 97.4576 -1.6197 7.42745 0
M  V30 1040 N 99.0327 -1.24633 -0.964593 0
M  V30 1041 C 99.9957 -1.0424 -2.04124 0
M  V30 1042 C 100.996 0.00137563 -1.608 0
M  V30 1043 O 102.186 -0.239883 -1.7254 0
M  V30 1044 C 99.3177 -0.580588 -3.3592 0
M  V30 1045 H 100.511 -1.99803 -2.23649 0
M  V30 1046 H 98.0637 -1.06899 -1.14027 0
M  V30 1047 H 98.7987 0.3781 -3.22088 0
M  V30 1048 H 98.5837 -1.33398 -3.6871 0
M  V30 1049 H 100.074 -0.459034 -4.15069 0
M  V30 1050 N 100.511 1.16574 -1.06058 0
M  V30 1051 C 101.739 1.90952 -0.796552 0
M  V30 1052 C 102.154 1.77302 0.648808 0
M  V30 1053 O 101.511 1.11605 1.44397 0
M  V30 1054 C 101.562 3.41736 -1.17894 0
M  V30 1055 O 101.283 3.54975 -2.56758 0
M  V30 1056 C 102.784 4.33169 -0.942308 0
M  V30 1057 H 100.004 0.605594 -0.288959 0
M  V30 1058 H 102.548 1.47777 -1.41358 0
M  V30 1059 H 100.703 3.82623 -0.606491 0
M  V30 1060 H 101.117 4.4846 -2.72 0
M  V30 1061 H 102.591 5.37439 -1.25952 0
M  V30 1062 H 103.068 4.3903 0.122078 0
M  V30 1063 H 103.674 3.98007 -1.49902 0
M  V30 1064 N 101.989 0.842826 1.3317 0
M  V30 1065 C 103.238 0.436738 1.96915 0
M  V30 1066 C 103.551 -1.01025 1.67491 0
M  V30 1067 O 104.757 -1.5212 2.24881 0
M  V30 1068 C 103.213 0.730021 3.52418 0
M  V30 1069 C 102.821 2.19195 3.90714 0
M  V30 1070 C 104.565 0.391076 4.22695 0
M  V30 1071 C 102.472 2.42907 5.39212 0
M  V30 1072 H 101.402 0.15958 0.736919 0
M  V30 1073 H 104.053 1.03196 1.51733 0
M  V30 1074 H 102.435 0.0643755 3.95948 0
M  V30 1075 H 103.609 2.8984 3.58231 0
M  V30 1076 H 101.924 2.49425 3.33431 0
M  V30 1077 H 104.521 0.545817 5.31907 0
M  V30 1078 H 104.864 -0.666294 4.10933 0
M  V30 1079 H 105.397 1.01212 3.84709 0
M  V30 1080 H 102.136 3.47224 5.55982 0
M  V30 1081 H 101.656 1.76827 5.73142 0
M  V30 1082 H 103.335 2.2626 6.06148 0
M  V30 1083 N 103.467 -1.45747 0.599634 0
M  V30 1084 C 104.695 -2.06668 0.0978551 0
M  V30 1085 C 105.11 -1.44562 -1.21439 0
M  V30 1086 O 104.467 -0.556923 -1.73795 0
M  V30 1087 C 104.518 -3.61456 -0.0567044 0
M  V30 1088 O 104.239 -4.21242 1.20361 0
M  V30 1089 C 105.74 -4.39345 -0.590869 0
M  V30 1090 H 102.96 -0.667825 0.0651943 0
M  V30 1091 H 105.504 -1.87115 0.82511 0
M  V30 1092 H 103.659 -3.80378 -0.734251 0
M  V30 1093 H 104.073 -5.14323 1.02821 0
M  V30 1094 H 105.547 -5.48182 -0.648131 0
M  V30 1095 H 106.024 -4.08568 -1.61147 0
M  V30 1096 H 106.63 -4.25268 0.0523679 0
M  V30 1097 N 104.945 -0.338344 -1.53925 0
M  V30 1098 C 105.893 0.536231 -2.26335 0
M  V30 1099 C 106.887 1.1063 -1.28286 0
M  V30 1100 O 108.093 1.05264 -1.46012 0
M  V30 1101 H 104.468 0.191602 -0.727181 0
M  V30 1102 H 106.439 -0.0965747 -2.98244 0
M  V30 1103 C 105.188 1.67803 -3.04528 0
M  V30 1104 H 104.511 1.24864 -3.79801 0
M  V30 1105 H 105.951 2.26526 -3.58416 0
M  V30 1106 C 104.41 2.60439 -2.13712 0
M  V30 1107 O 104.94 3.6255 -1.72975 0
M  V30 1108 N 103.146 2.29006 -1.78898 0
M  V30 1109 H 102.693 1.46011 -2.12223 0
M  V30 1110 H 102.651 2.91248 -1.18416 0
M  V30 1111 N 106.423 1.57458 -0.0668435 0
M  V30 1112 C 107.386 2.11323 0.887422 0
M  V30 1113 C 108.386 1.03618 1.22964 0
M  V30 1114 O 109.576 1.29626 1.16373 0
M  V30 1115 C 106.708 2.61048 2.19242 0
M  V30 1116 H 107.901 2.96942 0.420194 0
M  V30 1117 H 105.454 1.55239 0.181793 0
M  V30 1118 H 106.189 1.78868 2.70512 0
M  V30 1119 H 105.974 3.39769 1.95702 0
M  V30 1120 H 107.464 3.02814 2.87565 0
M  V30 1121 N 107.901 -0.206675 1.56239 0
M  V30 1122 C 108.849 -1.27571 1.94495 0
M  V30 1123 C 109.843 -1.47737 0.828862 0
M  V30 1124 O 111.049 -1.48735 1.0138 0
M  V30 1125 H 107.424 -0.428029 0.6183 0
M  V30 1126 H 109.395 -0.925961 2.8367 0
M  V30 1127 C 108.144 -2.61568 2.29079 0
M  V30 1128 H 107.467 -2.46863 3.14482 0
M  V30 1129 H 108.907 -3.35144 2.5972 0
M  V30 1130 C 107.366 -3.17695 1.12123 0
M  V30 1131 O 107.896 -3.99801 0.390153 0
M  V30 1132 N 106.102 -2.76276 0.901097 0
M  V30 1133 H 105.649 -2.09613 1.49733 0
M  V30 1134 H 105.607 -3.1417 0.120319 0
M  V30 1135 N 109.379 -1.50304 -0.473955 0
M  V30 1136 C 110.625 -1.62358 -1.22521 0
M  V30 1137 C 110.98 -0.318555 -1.89745 0
M  V30 1138 O 110.273 0.683315 -1.79001 0
M  V30 1139 C 110.467 -2.73938 -2.29549 0
M  V30 1140 C 110.296 -4.15165 -1.72825 0
M  V30 1141 C 109.066 -4.81604 -1.52924 0
M  V30 1142 C 111.264 -4.99503 -1.22481 0
M  V30 1143 N 109.246 -6.07056 -0.91413 0
M  V30 1144 C 110.617 -6.15655 -0.732743 0
M  V30 1145 C 112.672 -4.85299 -1.11308 0
M  V30 1146 C 111.375 -7.19164 -0.139976 0
M  V30 1147 C 113.401 -5.88982 -0.534258 0
M  V30 1148 C 112.763 -7.0438 -0.0525562 0
M  V30 1149 H 108.862 -0.648286 -0.437321 0
M  V30 1150 H 111.446 -1.87413 -0.527692 0
M  V30 1151 H 109.617 -2.50611 -2.9673 0
M  V30 1152 H 111.349 -2.75366 -2.96573 0
M  V30 1153 H 108.104 -4.3885 -1.78067 0
M  V30 1154 H 108.528 -6.74108 -0.625071 0
M  V30 1155 H 113.17 -3.96369 -1.47144 0
M  V30 1156 H 110.888 -8.07771 0.230591 0
M  V30 1157 H 114.474 -5.80055 -0.450219 0
M  V30 1158 H 113.354 -7.83238 0.388324 0
M  V30 1159 N 110.857 0.726932 -1.39834 0
M  V30 1160 C 112.134 1.47902 -1.28001 0
M  V30 1161 C 112.514 2.1083 0.106789 0
M  V30 1162 O 111.862 1.99242 1.11869 0
M  V30 1163 C 112.072 2.52392 -2.41038 0
M  V30 1164 C 113.42 3.18546 -2.80737 0
M  V30 1165 O 114.444 2.62708 -2.40547 0
M  V30 1166 O 113.303 4.19604 -3.50135 0
M  V30 1167 H 110.397 0.657163 -0.502062 0
M  V30 1168 H 112.943 0.760071 -1.51727 0
M  V30 1169 H 111.715 2.04329 -3.33715 0
M  V30 1170 H 111.338 3.31837 -2.19021 0
M  V30 1171 N 112.336 1.25143 0.95797 0
M  V30 1172 C 113.613 1.00472 1.67823 0
M  V30 1173 C 113.993 -0.470056 2.058 0
M  V30 1174 O 113.341 -1.44663 1.76875 0
M  V30 1175 C 113.551 1.9372 2.90299 0
M  V30 1176 C 114.899 2.21371 3.62326 0
M  V30 1177 O 115.923 1.91451 3.00375 0
M  V30 1178 O 114.782 2.72231 4.7387 0
M  V30 1179 H 111.876 0.380752 0.734137 0
M  V30 1180 H 114.422 1.36283 1.01119 0
M  V30 1181 H 113.194 2.93316 2.59001 0
M  V30 1182 H 112.817 1.58286 3.64735 0
M  V30 1183 N 113.814 -1.1601 1.06675 0
M  V30 1184 C 114.777 -2.18724 0.685001 0
M  V30 1185 C 115.777 -1.58496 -0.271246 0
M  V30 1186 O 116.967 -1.74119 -0.0531156 0
M  V30 1187 C 114.099 -3.40899 0.00853648 0
M  V30 1188 H 115.292 -2.54011 1.59431 0
M  V30 1189 H 112.845 -1.30352 0.862441 0
M  V30 1190 H 113.58 -3.11173 -0.913337 0
M  V30 1191 H 113.365 -3.8587 0.696204 0
M  V30 1192 H 114.855 -4.16886 -0.24414 0
M  V30 1193 N 115.292 -0.849877 -1.32721 0
M  V30 1194 C 116.708 -0.539102 -1.50219 0
M  V30 1195 C 116.908 0.931271 -1.78689 0
M  V30 1196 O 115.964 1.71455 -1.85363 0
M  V30 1197 C 117.277 -1.42196 -2.64954 0
M  V30 1198 C 118.825 -1.42189 -2.78839 0
M  V30 1199 C 119.3 -2.28985 -3.96648 0
M  V30 1200 N 120.791 -2.26754 -4.03902 0
M  V30 1201 C 121.526 -2.90644 -4.94281 0
M  V30 1202 N 121.022 -3.63629 -5.897 0
M  V30 1203 N 122.815 -2.80057 -4.87365 0
M  V30 1204 H 114.966 -1.80156 -1.12506 0
M  V30 1205 H 117.229 -0.769217 -0.554085 0
M  V30 1206 H 116.935 -2.46733 -2.50631 0
M  V30 1207 H 116.809 -1.10591 -3.60624 0
M  V30 1208 H 119.196 -0.38419 -2.92588 0
M  V30 1209 H 119.277 -1.77807 -1.83898 0
M  V30 1210 H 118.921 -3.32819 -3.83658 0
M  V30 1211 H 118.851 -1.90702 -4.90857 0
M  V30 1212 H 121.342 -1.73688 -3.3562 0
M  V30 1213 H 121.655 -4.09558 -6.55349 0
M  V30 1214 H 120 -3.67737 -5.89741 0
M  V30 1215 H 123.191 -2.22593 -4.11789 0
M  V30 1216 H 123.364 -3.30132 -5.57599 0
M  V30 1217 N 116.77 1.45427 -0.607355 0
M  V30 1218 C 118.017 2.02241 -0.102455 0
M  V30 1219 C 118.345 1.4758 1.26691 0
M  V30 1220 O 117.6 0.640468 1.84923 0
M  V30 1221 C 117.899 3.57398 -0.0129263 0
M  V30 1222 C 117.565 4.3121 -1.31792 0
M  V30 1223 C 116.227 4.51092 -1.67539 0
M  V30 1224 C 118.579 4.73401 -2.18039 0
M  V30 1225 C 115.907 5.10422 -2.89285 0
M  V30 1226 C 118.259 5.34078 -3.39034 0
M  V30 1227 C 116.923 5.52184 -3.75033 0
M  V30 1228 H 116.193 0.740051 -0.037491 0
M  V30 1229 H 118.84 1.74494 -0.788926 0
M  V30 1230 H 117.145 3.84421 0.756806 0
M  V30 1231 H 118.842 3.99061 0.393881 0
M  V30 1232 H 115.432 4.16047 -1.02968 0
M  V30 1233 H 119.616 4.57774 -1.91721 0
M  V30 1234 H 114.872 5.22629 -3.17283 0
M  V30 1235 H 119.046 5.65724 -4.06115 0
M  V30 1236 H 116.673 5.97925 -4.69457 0
M  V30 1237 N 118.248 0.346503 1.53744 0
M  V30 1238 C 119.158 -0.517293 2.28826 0
M  V30 1239 C 120.174 -1.10935 1.3405 0
M  V30 1240 O 121.35 -1.1244 1.6709 0
M  V30 1241 C 118.415 -1.65098 3.04866 0
M  V30 1242 C 117.476 -1.0884 4.15274 0
M  V30 1243 C 116.709 -2.16806 4.87679 0
M  V30 1244 O 116.932 -3.3758 4.59778 0
M  V30 1245 O 115.866 -1.80934 5.74061 0
M  V30 1246 H 119.692 0.0931396 3.03557 0
M  V30 1247 H 117.277 0.111458 1.48984 0
M  V30 1248 H 119.159 -2.31053 3.5241 0
M  V30 1249 H 117.834 -2.24717 2.32989 0
M  V30 1250 H 116.741 -0.3933 3.72027 0
M  V30 1251 H 118.074 -0.537036 4.89261 0
M  V30 1252 N 119.726 -1.57421 0.075193 0
M  V30 1253 C 120.689 -2.11791 -0.876203 0
M  V30 1254 C 121.689 -1.04268 -1.22412 0
M  V30 1255 O 122.879 -1.30242 -1.15684 0
M  V30 1256 C 120.011 -2.62207 -2.17854 0
M  V30 1257 H 121.204 -2.9716 -0.40444 0
M  V30 1258 H 118.757 -1.55333 -0.173557 0
M  V30 1259 H 119.492 -1.803 -2.6956 0
M  V30 1260 H 119.277 -3.40802 -1.93897 0
M  V30 1261 H 120.767 -3.04335 -2.85955 0
M  V30 1262 N 121.204 0.198386 -1.56346 0
M  V30 1263 C 122.137 1.27381 -1.89339 0
M  V30 1264 C 123.115 1.44106 -0.753134 0
M  V30 1265 O 124.299 1.59549 -1.00381 0
M  V30 1266 C 121.426 2.6409 -2.12071 0
M  V30 1267 C 120.472 2.64253 -3.34772 0
M  V30 1268 S 121.305 2.16013 -4.89999 0
M  V30 1269 C 122.461 3.54553 -5.15794 0
M  V30 1270 H 122.694 0.992058 -2.8026 0
M  V30 1271 H 120.227 0.401726 -1.49082 0
M  V30 1272 H 122.185 3.42786 -2.2585 0
M  V30 1273 H 120.846 2.89478 -1.21906 0
M  V30 1274 H 120.039 3.64768 -3.47794 0
M  V30 1275 H 119.641 1.93637 -3.1997 0
M  V30 1276 H 121.933 4.50396 -5.06112 0
M  V30 1277 H 122.876 3.46428 -6.1757 0
M  V30 1278 H 123.284 3.49313 -4.43442 0
M  V30 1279 N 122.682 1.50554 0.465978 0
M  V30 1280 C 123.931 1.61038 1.21448 0
M  V30 1281 C 124.244 0.31865 1.92987 0
M  V30 1282 O 125.45 0.302469 2.6981 0
M  V30 1283 C 123.906 2.84283 2.20706 0
M  V30 1284 C 123.514 4.20352 1.54946 0
M  V30 1285 C 125.258 3.04115 2.96166 0
M  V30 1286 C 123.165 5.34778 2.5252 0
M  V30 1287 H 122.095 0.599718 0.457005 0
M  V30 1288 H 124.746 1.7699 0.484424 0
M  V30 1289 H 123.128 2.61901 2.97025 0
M  V30 1290 H 124.302 4.53008 0.843811 0
M  V30 1291 H 122.617 4.06167 0.917475 0
M  V30 1292 H 125.214 3.86774 3.69202 0
M  V30 1293 H 125.557 2.16045 3.55852 0
M  V30 1294 H 126.09 3.26702 2.26959 0
M  V30 1295 H 122.829 6.25018 1.97566 0
M  V30 1296 H 122.349 5.06534 3.21222 0
M  V30 1297 H 124.028 5.65561 3.14245 0
M  V30 1298 N 124.16 -0.719506 1.40217 0
M  V30 1299 C 125.385 -1.51371 1.4178 0
M  V30 1300 C 125.81 -1.88091 0.0182355 0
M  V30 1301 O 125.168 -1.52997 -0.972707 0
M  V30 1302 C 125.216 -2.768 2.31115 0
M  V30 1303 O 124.32 -3.73349 1.7517 0
M  V30 1304 H 123.661 -0.456529 0.482159 0
M  V30 1305 H 126.191 -0.88644 1.844 0
M  V30 1306 H 126.201 -3.25371 2.46167 0
M  V30 1307 H 124.876 -2.49407 3.3282 0
M  V30 1308 H 123.453 -3.32179 1.69444 0
M  V30 1309 N 125.638 -1.25649 -0.95132 0
M  V30 1310 C 126.548 -1.08073 -2.08224 0
M  V30 1311 C 127.564 -0.0169666 -1.73992 0
M  V30 1312 O 128.74 -0.218593 -2.0021 0
M  V30 1313 C 125.805 -0.704922 -3.39458 0
M  V30 1314 C 124.866 -1.84699 -3.87537 0
M  V30 1315 C 124.099 -1.48902 -5.12508 0
M  V30 1316 O 124.322 -0.386156 -5.69091 0
M  V30 1317 O 123.256 -2.32033 -5.55378 0
M  V30 1318 H 127.082 -2.02924 -2.25954 0
M  V30 1319 H 124.667 -1.04618 -1.06656 0
M  V30 1320 H 126.549 -0.507609 -4.18332 0
M  V30 1321 H 125.224 0.214291 -3.2299 0
M  V30 1322 H 124.131 -2.09919 -3.09653 0
M  V30 1323 H 125.464 -2.74557 -4.08509 0
M  V30 1324 N 127.117 1.15442 -1.07289 0
M  V30 1325 C 128.365 1.85845 -0.794096 0
M  V30 1326 C 128.686 1.82692 0.681809 0
M  V30 1327 O 127.956 1.26741 1.49377 0
M  V30 1328 H 126.536 0.688089 -0.290763 0
M  V30 1329 H 129.198 1.39947 -1.3565 0
M  V30 1330 H 128.294 2.91001 -1.12804 0
M  V30 1331 N 128.595 0.856903 1.32268 0
M  V30 1332 C 129.525 0.31858 2.31316 0
M  V30 1333 C 130.506 -0.583487 1.59779 0
M  V30 1334 O 131.691 -0.503259 1.87566 0
M  V30 1335 C 128.821 -0.491979 3.43798 0
M  V30 1336 C 127.775 0.315849 4.26833 0
M  V30 1337 C 127.101 -0.619586 5.31098 0
M  V30 1338 C 128.401 1.54282 4.98993 0
M  V30 1339 H 130.095 1.14621 2.76591 0
M  V30 1340 H 127.641 0.552613 1.32974 0
M  V30 1341 H 129.594 -0.879012 4.1213 0
M  V30 1342 H 128.318 -1.35299 2.97257 0
M  V30 1343 H 126.977 0.684664 3.6015 0
M  V30 1344 H 126.625 -1.47751 4.8081 0
M  V30 1345 H 126.325 -0.0830621 5.87541 0
M  V30 1346 H 127.849 -1.00375 6.02293 0
M  V30 1347 H 129.263 1.22796 5.59995 0
M  V30 1348 H 127.66 2.01745 5.65172 0
M  V30 1349 H 128.73 2.30285 4.26728 0
M  V30 1350 N 130.073 -1.45103 0.615059 0
M  V30 1351 C 131.036 -2.29025 -0.0895485 0
M  V30 1352 C 132.036 -1.40174 -0.787906 0
M  V30 1353 O 133.226 -1.62217 -0.634933 0
M  V30 1354 C 130.358 -3.21376 -1.13711 0
M  V30 1355 H 131.551 -2.92807 0.648382 0
M  V30 1356 H 129.104 -1.51749 0.374444 0
M  V30 1357 H 129.839 -2.6241 -1.90556 0
M  V30 1358 H 129.624 -3.86834 -0.640475 0
M  V30 1359 H 131.114 -3.84459 -1.63036 0
M  V30 1360 N 131.551 -0.354651 -1.53558 0
M  V30 1361 C 132.967 -0.00315426 -1.596 0
M  V30 1362 C 133.167 1.47741 -1.37021 0
M  V30 1363 O 132.223 2.23759 -1.16996 0
M  V30 1364 C 133.536 -0.44929 -2.97325 0
M  V30 1365 C 135.084 -0.402578 -3.104 0
M  V30 1366 C 135.559 -0.824355 -4.5052 0
M  V30 1367 N 137.05 -0.778979 -4.56603 0
M  V30 1368 C 137.785 -1.07715 -5.63192 0
M  V30 1369 N 137.281 -1.44405 -6.77583 0
M  V30 1370 N 139.074 -1.00066 -5.53121 0
M  V30 1371 H 131.225 -1.31893 -1.66487 0
M  V30 1372 H 133.488 -0.538388 -0.780284 0
M  V30 1373 H 133.194 -1.48202 -3.1895 0
M  V30 1374 H 133.068 0.169772 -3.76818 0
M  V30 1375 H 135.455 0.621004 -2.88492 0
M  V30 1376 H 135.536 -1.05699 -2.32941 0
M  V30 1377 H 135.18 -1.846 -4.73165 0
M  V30 1378 H 135.11 -0.147304 -5.26394 0
M  V30 1379 H 137.601 -0.508528 -3.74463 0
M  V30 1380 H 137.914 -1.65612 -7.54846 0
M  V30 1381 H 136.259 -1.4826 -6.79002 0
M  V30 1382 H 139.45 -0.713293 -4.62633 0
M  V30 1383 H 139.623 -1.23638 -6.36096 0
M  V30 1384 N 133.029 1.57378 -0.0835403 0
M  V30 1385 C 134.445 1.57246 0.273109 0
M  V30 1386 C 134.645 1.09385 1.69225 0
M  V30 1387 O 133.701 0.765051 2.40631 0
M  V30 1388 C 135.014 3.00614 0.0720628 0
M  V30 1389 C 136.562 3.12684 0.1407 0
M  V30 1390 C 137.037 4.57989 -0.0322094 0
M  V30 1391 N 138.528 4.63194 0.0230085 0
M  V30 1392 C 139.263 5.73335 -0.0861941 0
M  V30 1393 N 138.759 6.9235 -0.24958 0
M  V30 1394 N 140.552 5.62093 -0.0282886 0
M  V30 1395 H 132.703 1.86801 -1.0109 0
M  V30 1396 H 134.966 0.861687 -0.395222 0
M  V30 1397 H 134.672 3.39786 -0.907662 0
M  V30 1398 H 134.546 3.68193 0.81936 0
M  V30 1399 H 136.933 2.73391 1.11092 0
M  V30 1400 H 137.014 2.47719 -0.637896 0
M  V30 1401 H 136.658 4.97973 -0.999247 0
M  V30 1402 H 136.588 5.21 0.765937 0
M  V30 1403 H 139.079 3.77613 0.14722 0
M  V30 1404 H 139.392 7.72117 -0.324733 0
M  V30 1405 H 137.737 6.94415 -0.285097 0
M  V30 1406 H 140.928 4.67997 0.0981408 0
M  V30 1407 H 141.101 6.47895 -0.116845 0
M  V30 1408 N 134.507 -0.190092 1.56449 0
M  V30 1409 C 135.784 -0.935886 1.71757 0
M  V30 1410 C 136.164 -2.01173 0.639726 0
M  V30 1411 O 135.512 -2.25827 -0.348502 0
M  V30 1412 C 135.722 -1.51775 3.1427 0
M  V30 1413 C 137.07 -1.99794 3.74656 0
M  V30 1414 O 138.094 -1.61607 3.1743 0
M  V30 1415 O 136.953 -2.70079 4.751 0
M  V30 1416 H 134.047 -0.439229 0.700719 0
M  V30 1417 H 136.593 -0.179395 1.68749 0
M  V30 1418 H 135.365 -0.742505 3.84191 0
M  V30 1419 H 134.988 -2.33894 3.21527 0
M  V30 1420 N 135.985 -1.50799 -0.457987 0
M  V30 1421 C 136.932 -1.70617 -1.5543 0
M  V30 1422 C 137.902 -0.547562 -1.56815 0
M  V30 1423 O 139.087 -0.779647 -1.74144 0
M  V30 1424 C 136.227 -1.81831 -2.93311 0
M  V30 1425 C 135.34 -3.09278 -3.01615 0
M  V30 1426 C 134.475 -3.11209 -4.30491 0
M  V30 1427 C 133.514 -4.33055 -4.32585 0
M  V30 1428 N 132.651 -4.32652 -5.52952 0
M  V30 1429 H 137.491 -2.64207 -1.37836 0
M  V30 1430 H 135.028 -1.30959 -0.669937 0
M  V30 1431 H 136.986 -1.86314 -3.73287 0
M  V30 1432 H 135.616 -0.916685 -3.0951 0
M  V30 1433 H 134.668 -3.14203 -2.1443 0
M  V30 1434 H 135.98 -3.99233 -2.99022 0
M  V30 1435 H 135.134 -3.14494 -5.18824 0
M  V30 1436 H 133.873 -2.19106 -4.35711 0
M  V30 1437 H 132.878 -4.29969 -3.42647 0
M  V30 1438 H 134.103 -5.264 -4.29046 0
M  V30 1439 H 132.049 -3.43409 -5.58933 0
M  V30 1440 H 131.966 -5.16392 -5.52155 0
M  V30 1441 H 133.234 -4.40101 -6.43375 0
M  V30 1442 N 137.463 0.71206 -1.40597 0
M  V30 1443 C 138.393 1.83889 -1.43899 0
M  V30 1444 C 139.374 1.67442 -0.299504 0
M  V30 1445 O 140.559 1.87421 -0.508624 0
M  V30 1446 C 137.689 3.21877 -1.30431 0
M  V30 1447 C 136.643 3.53002 -2.42019 0
M  V30 1448 C 135.969 4.90172 -2.13626 0
M  V30 1449 C 137.269 3.53643 -3.84362 0
M  V30 1450 H 138.963 1.81383 -2.38203 0
M  V30 1451 H 136.509 0.871237 -1.14654 0
M  V30 1452 H 138.462 4.00404 -1.31357 0
M  V30 1453 H 137.186 3.24968 -0.326049 0
M  V30 1454 H 135.845 2.76818 -2.40349 0
M  V30 1455 H 135.493 4.89869 -1.14182 0
M  V30 1456 H 135.193 5.11962 -2.88389 0
M  V30 1457 H 136.717 5.71028 -2.1624 0
M  V30 1458 H 138.131 4.22203 -3.87837 0
M  V30 1459 H 136.528 3.86961 -4.58673 0
M  V30 1460 H 137.598 2.52954 -4.13693 0
M  V30 1461 N 138.941 1.26152 0.944643 0
M  V30 1462 C 140.357 1.03189 1.21754 0
M  V30 1463 C 140.557 -0.245112 2.00004 0
M  V30 1464 O 139.613 -0.955176 2.33736 0
M  V30 1465 C 140.926 2.26119 1.98219 0
M  V30 1466 C 142.474 2.30984 2.11224 0
M  V30 1467 C 142.949 3.53597 2.91089 0
M  V30 1468 N 144.44 3.54053 2.98664 0
M  V30 1469 C 145.175 4.45593 3.60881 0
M  V30 1470 N 144.671 5.47416 4.24626 0
M  V30 1471 N 146.464 4.33252 3.58119 0
M  V30 1472 H 138.615 2.08177 0.421437 0
M  V30 1473 H 140.878 0.914723 0.248969 0
M  V30 1474 H 140.584 3.18984 1.48128 0
M  V30 1475 H 140.458 2.3009 2.98895 0
M  V30 1476 H 142.845 1.38635 2.60508 0
M  V30 1477 H 142.926 2.31026 1.09821 0
M  V30 1478 H 142.57 4.46273 2.42493 0
M  V30 1479 H 142.5 3.50802 3.92741 0
M  V30 1480 H 144.991 2.80403 2.53343 0
M  V30 1481 H 145.304 6.13459 4.69987 0
M  V30 1482 H 143.649 5.51278 4.23223 0
M  V30 1483 H 146.84 3.52924 3.0751 0
M  V30 1484 H 147.013 5.04786 4.06319 0
M  V30 1485 N 140.419 -1.14872 1.07899 0
M  V30 1486 C 141.367 -2.21857 0.698727 0
M  V30 1487 C 142.361 -1.66845 -0.293086 0
M  V30 1488 O 143.567 -1.79321 -0.156204 0
M  V30 1489 H 139.942 -0.722691 0.207899 0
M  V30 1490 H 141.913 -2.51205 1.61054 0
M  V30 1491 C 140.662 -3.47498 0.11858 0
M  V30 1492 H 139.985 -3.90154 0.872914 0
M  V30 1493 H 141.425 -4.23858 -0.109759 0
M  V30 1494 C 139.884 -3.16947 -1.1422 0
M  V30 1495 O 140.414 -3.3426 -2.22785 0
M  V30 1496 N 138.62 -2.70946 -1.05055 0
M  V30 1497 H 138.167 -2.57058 -0.167038 0
M  V30 1498 H 138.125 -2.50879 -1.89491 0
M  V30 1499 N 141.898 -0.863906 -1.31812 0
M  V30 1500 C 142.861 -0.320212 -2.26952 0
M  V30 1501 C 143.861 0.525369 -1.51975 0
M  V30 1502 O 145.051 0.335547 -1.70938 0
M  V30 1503 C 142.183 0.545919 -3.365 0
M  V30 1504 H 143.376 -1.16004 -2.76556 0
M  V30 1505 H 140.929 -0.638995 -1.42641 0
M  V30 1506 H 141.664 1.40718 -2.92179 0
M  V30 1507 H 141.449 -0.0594674 -3.92055 0
M  V30 1508 H 142.939 0.918796 -4.07367 0
M  V30 1509 N 143.376 1.44774 -0.622745 0
M  V30 1510 C 144.623 2.02121 -0.1239 0
M  V30 1511 C 144.951 1.48915 1.25118 0
M  V30 1512 O 144.206 0.660045 1.84233 0
M  V30 1513 C 144.505 3.57364 -0.0508323 0
M  V30 1514 C 144.171 4.29787 -1.36358 0
M  V30 1515 C 142.833 4.4929 -1.72314 0
M  V30 1516 C 145.185 4.71062 -2.23048 0
M  V30 1517 C 142.513 5.07325 -2.94682 0
M  V30 1518 C 144.865 5.30452 -3.44679 0
M  V30 1519 C 143.529 5.48175 -3.80868 0
M  V30 1520 H 142.799 0.739612 -0.0453381 0
M  V30 1521 H 145.446 1.73648 -0.807389 0
M  V30 1522 H 143.751 3.85202 0.715991 0
M  V30 1523 H 145.448 3.99456 0.351533 0
M  V30 1524 H 142.038 4.14932 -1.07375 0
M  V30 1525 H 146.222 4.55715 -1.96565 0
M  V30 1526 H 141.478 5.19235 -3.22809 0
M  V30 1527 H 145.652 5.61385 -4.12092 0
M  V30 1528 H 143.279 5.92912 -4.75773 0
M  V30 1529 N 144.854 0.36279 1.53368 0
M  V30 1530 C 145.784 -0.476976 2.28576 0
M  V30 1531 C 146.765 -1.08631 1.30894 0
M  V30 1532 O 147.95 -1.10409 1.59761 0
M  V30 1533 C 145.08 -1.61828 3.07293 0
M  V30 1534 C 144.034 -1.13633 4.1264 0
M  V30 1535 C 143.36 -2.36766 4.79423 0
M  V30 1536 C 144.66 -0.223061 5.21823 0
M  V30 1537 H 146.354 0.150474 2.99022 0
M  V30 1538 H 143.9 0.0738103 1.43811 0
M  V30 1539 H 145.853 -2.21237 3.58653 0
M  V30 1540 H 144.577 -2.27292 2.34533 0
M  V30 1541 H 143.236 -0.564945 3.62221 0
M  V30 1542 H 142.884 -3.0068 4.03238 0
M  V30 1543 H 142.584 -2.05192 5.50609 0
M  V30 1544 H 144.108 -2.96865 5.33576 0
M  V30 1545 H 145.522 -0.724545 5.68703 0
M  V30 1546 H 143.919 0.001678 6.001 0
M  V30 1547 H 144.989 0.735553 4.79289 0
M  V30 1548 N 146.332 -1.57332 0.0918853 0
M  V30 1549 C 147.295 -2.12708 -0.85369 0
M  V30 1550 C 148.295 -1.05561 -1.213 0
M  V30 1551 O 149.485 -1.31461 -1.14296 0
M  V30 1552 C 146.617 -2.64503 -2.15061 0
M  V30 1553 H 147.81 -2.97573 -0.3729 0
M  V30 1554 H 145.363 -1.55509 -0.157072 0
M  V30 1555 H 146.098 -1.83149 -2.67632 0
M  V30 1556 H 145.883 -3.4284 -1.90272 0
M  V30 1557 H 147.373 -3.07351 -2.82711 0
M  V30 1558 N 147.81 0.181792 -1.56548 0
M  V30 1559 C 149.056 0.901431 -1.81665 0
M  V30 1560 C 149.389 1.82347 -0.668075 0
M  V30 1561 O 148.664 1.91669 0.330615 0
M  V30 1562 C 148.947 1.70618 -3.17115 0
M  V30 1563 C 148.8 0.807964 -4.42484 0
M  V30 1564 C 150.119 2.67605 -3.49393 0
M  V30 1565 H 147.238 0.32627 -0.660846 0
M  V30 1566 H 149.88 0.168134 -1.89255 0
M  V30 1567 H 148.03 2.33133 -3.10775 0
M  V30 1568 H 149.702 0.19649 -4.60881 0
M  V30 1569 H 147.945 0.115411 -4.33646 0
M  V30 1570 H 148.616 1.40632 -5.33785 0
M  V30 1571 H 151.092 2.15218 -3.56118 0
M  V30 1572 H 149.968 3.20985 -4.45264 0
M  V30 1573 H 150.229 3.47298 -2.73563 0
M  V30 1574 N 149.288 1.51039 0.449983 0
M  V30 1575 C 150.518 1.66627 1.22143 0
M  V30 1576 C 150.926 0.357776 1.85786 0
M  V30 1577 O 150.269 -0.672424 1.70951 0
M  V30 1578 C 150.331 2.71562 2.35573 0
M  V30 1579 C 149.995 4.14526 1.92399 0
M  V30 1580 C 150.992 4.99717 1.43453 0
M  V30 1581 C 148.677 4.60559 2.00475 0
M  V30 1582 C 150.671 6.28998 1.03155 0
M  V30 1583 C 148.358 5.8984 1.59788 0
M  V30 1584 C 149.356 6.73886 1.11208 0
M  V30 1585 O 149.044 8.0075 0.710935 0
M  V30 1586 H 148.776 0.562635 0.374724 0
M  V30 1587 H 151.33 1.98146 0.541036 0
M  V30 1588 H 149.56 2.3533 3.06849 0
M  V30 1589 H 151.249 2.76156 2.97478 0
M  V30 1590 H 152.015 4.65361 1.36618 0
M  V30 1591 H 147.894 3.95273 2.37235 0
M  V30 1592 H 151.438 6.9455 0.651663 0
M  V30 1593 H 147.335 6.23713 1.66289 0
M  V30 1594 H 148.103 8.142 0.837913 0
M  V30 1595 N 150.766 -0.704594 1.40972 0
M  V30 1596 C 151.713 -1.81862 1.42109 0
M  V30 1597 C 152.683 -1.63781 0.276593 0
M  V30 1598 O 153.868 -1.84759 0.4763 0
M  V30 1599 C 151.008 -3.19669 1.30022 0
M  V30 1600 C 150.121 -3.49246 2.54267 0
M  V30 1601 C 149.256 -4.76618 2.3454 0
M  V30 1602 C 148.295 -4.99133 3.54306 0
M  V30 1603 N 147.432 -6.17726 3.33706 0
M  V30 1604 H 152.272 -1.80226 2.37324 0
M  V30 1605 H 149.809 -0.880238 1.17857 0
M  V30 1606 H 151.767 -3.99263 1.21018 0
M  V30 1607 H 150.397 -3.20506 0.384192 0
M  V30 1608 H 149.449 -2.64125 2.73756 0
M  V30 1609 H 150.761 -3.61788 3.43381 0
M  V30 1610 H 149.915 -5.64249 2.22952 0
M  V30 1611 H 148.654 -4.66305 1.42867 0
M  V30 1612 H 147.659 -4.09953 3.66359 0
M  V30 1613 H 148.884 -5.11311 4.4692 0
M  V30 1614 H 146.83 -6.08642 2.44725 0
M  V30 1615 H 146.747 -6.30995 4.16391 0
M  V30 1616 H 148.015 -7.08115 3.25873 0
M  V30 1617 N 152.244 -1.26651 -0.937939 0
M  V30 1618 C 153.207 -1.08546 -2.01867 0
M  V30 1619 C 154.207 -0.0327327 -1.60767 0
M  V30 1620 O 155.397 -0.276427 -1.71993 0
M  V30 1621 C 152.529 -0.651711 -3.34613 0
M  V30 1622 H 153.722 -2.04502 -2.1936 0
M  V30 1623 H 151.275 -1.09294 -1.11734 0
M  V30 1624 H 152.01 0.309696 -3.22818 0
M  V30 1625 H 151.795 -1.41189 -3.65798 0
M  V30 1626 H 153.285 -0.546973 -4.14002 0
M  V30 1627 N 153.722 1.14298 -1.08507 0
M  V30 1628 C 154.669 2.19414 -0.715965 0
M  V30 1629 C 155.639 1.63399 0.298326 0
M  V30 1630 O 156.824 1.89929 0.182101 0
M  V30 1631 C 153.964 3.44845 -0.132534 0
M  V30 1632 C 153.077 4.15007 -1.19973 0
M  V30 1633 C 152.212 5.28024 -0.580048 0
M  V30 1634 C 151.251 5.9002 -1.62921 0
M  V30 1635 N 150.388 6.94485 -1.03125 0
M  V30 1636 H 155.228 2.50336 -1.61666 0
M  V30 1637 H 152.765 1.2293 -0.807882 0
M  V30 1638 H 154.723 4.16601 0.223454 0
M  V30 1639 H 153.353 3.14403 0.731467 0
M  V30 1640 H 152.405 3.41629 -1.67313 0
M  V30 1641 H 153.717 4.57178 -1.99473 0
M  V30 1642 H 152.871 6.06455 -0.172364 0
M  V30 1643 H 151.61 4.87076 0.246603 0
M  V30 1644 H 150.615 5.10291 -2.04654 0
M  V30 1645 H 151.84 6.33042 -2.45835 0
M  V30 1646 H 149.786 6.55612 -0.225711 0
M  V30 1647 H 149.703 7.35148 -1.76334 0
M  V30 1648 H 150.971 7.7679 -0.649458 0
M  V30 1649 N 155.201 0.870884 1.31352 0
M  V30 1650 C 156.149 0.316445 2.30437 0
M  V30 1651 C 157.143 -0.568965 1.59559 0
M  V30 1652 O 158.349 -0.454964 1.74155 0
M  V30 1653 H 154.724 0.0836521 0.747333 0
M  V30 1654 H 156.695 1.16606 2.74673 0
M  V30 1655 C 155.444 -0.46635 3.44558 0
M  V30 1656 H 154.767 0.205687 3.99271 0
M  V30 1657 H 156.207 -0.819614 4.16003 0
M  V30 1658 C 154.666 -1.65797 2.9328 0
M  V30 1659 O 155.196 -2.75728 2.92125 0
M  V30 1660 N 153.402 -1.49041 2.4947 0
M  V30 1661 H 152.949 -0.59612 2.50608 0
M  V30 1662 H 152.907 -2.28911 2.15516 0
M  V30 1663 N 156.679 -1.44442 0.630414 0
M  V30 1664 C 157.927 -2.01653 0.134351 0
M  V30 1665 C 158.248 -1.49836 -1.24796 0
M  V30 1666 O 157.518 -0.701684 -1.82902 0
M  V30 1667 H 156.098 -0.74554 0.0466769 0
M  V30 1668 H 158.76 -1.76952 0.816955 0
M  V30 1669 H 157.856 -3.11935 0.101498 0
M  V30 1670 N 158.157 -0.370918 -1.53173 0
M  V30 1671 C 159.104 0.473035 -2.259 0
M  V30 1672 C 160.074 1.07311 -1.26781 0
M  V30 1673 O 161.259 1.1046 -1.55574 0
M  V30 1674 C 158.399 1.60405 -3.05556 0
M  V30 1675 C 157.512 1.02863 -4.19575 0
M  V30 1676 C 156.647 2.12918 -4.86661 0
M  V30 1677 C 155.686 1.52869 -5.92704 0
M  V30 1678 N 154.823 2.56779 -6.53459 0
M  V30 1679 H 159.663 -0.153649 -2.97604 0
M  V30 1680 H 157.2 -0.0875946 -1.46839 0
M  V30 1681 H 159.158 2.27034 -3.50016 0
M  V30 1682 H 157.788 2.20131 -2.36097 0
M  V30 1683 H 156.84 0.252465 -3.79561 0
M  V30 1684 H 158.152 0.549642 -4.95762 0
M  V30 1685 H 157.306 2.87356 -5.34333 0
M  V30 1686 H 156.045 2.6417 -4.09958 0
M  V30 1687 H 155.05 0.769479 -5.44389 0
M  V30 1688 H 156.275 1.02435 -6.7133 0
M  V30 1689 H 154.221 3.07235 -5.79606 0
M  V30 1690 H 154.138 2.13583 -7.25202 0
M  V30 1691 H 155.406 3.30903 -7.05779 0
M  V30 1692 N 159.635 1.57281 -0.100228 0
M  V30 1693 C 160.912 1.86014 0.604812 0
M  V30 1694 C 161.292 0.998025 1.86018 0
M  V30 1695 O 160.64 0.0718184 2.28387 0
M  V30 1696 C 160.85 3.36784 0.915278 0
M  V30 1697 C 162.198 4.04957 1.27651 0
M  V30 1698 O 163.222 3.41695 1.00613 0
M  V30 1699 O 162.081 5.16593 1.7831 0
M  V30 1700 H 159.175 0.76942 0.303185 0
M  V30 1701 H 161.721 1.69176 -0.133313 0
M  V30 1702 H 160.493 3.91292 0.0248896 0
M  V30 1703 H 160.116 3.58987 1.70921 0
M  V30 1704 N 161.113 -0.173488 1.56642 0
M  V30 1705 C 162.36 -0.890465 1.81871 0
M  V30 1706 C 162.688 -1.82339 0.67696 0
M  V30 1707 O 161.943 -1.92795 -0.335926 0
M  V30 1708 C 162.242 -1.72069 3.13252 0
M  V30 1709 C 161.908 -0.936878 4.41059 0
M  V30 1710 C 160.57 -0.720545 4.75775 0
M  V30 1711 C 162.922 -0.386919 5.19762 0
M  V30 1712 C 160.25 0.0568829 5.86672 0
M  V30 1713 C 162.602 0.37741 6.31473 0
M  V30 1714 C 161.266 0.604563 6.64757 0
M  V30 1715 H 160.536 -0.325844 0.665512 0
M  V30 1716 H 163.183 -0.155527 1.90867 0
M  V30 1717 H 161.488 -2.52496 2.99588 0
M  V30 1718 H 163.185 -2.27844 3.29982 0
M  V30 1719 H 159.775 -1.11553 4.13828 0
M  V30 1720 H 163.959 -0.541398 4.93338 0
M  V30 1721 H 159.215 0.242635 6.10918 0
M  V30 1722 H 163.389 0.810825 6.91664 0
M  V30 1723 H 161.016 1.20885 7.50527 0
M  V30 1724 N 162.591 -1.51276 -0.441967 0
M  V30 1725 C 163.816 -1.67799 -1.21895 0
M  V30 1726 C 164.241 -0.372864 -1.84367 0
M  V30 1727 O 163.599 0.666501 -1.68604 0
M  V30 1728 C 163.647 -2.79199 -2.28211 0
M  V30 1729 O 162.751 -2.42479 -3.33583 0
M  V30 1730 H 162.092 -0.559649 -0.357336 0
M  V30 1731 H 164.622 -1.97815 -0.522522 0
M  V30 1732 H 164.632 -3.03146 -2.73069 0
M  V30 1733 H 163.307 -3.73906 -1.82118 0
M  V30 1734 H 161.884 -2.29087 -2.94234 0
M  V30 1735 N 164.069 0.697108 -1.41344 0
M  V30 1736 C 164.979 1.84088 -1.45427 0
M  V30 1737 C 165.995 1.70545 -0.34501 0
M  V30 1738 O 167.171 1.92488 -0.592492 0
M  V30 1739 C 164.236 3.20056 -1.33286 0
M  V30 1740 C 163.297 3.45718 -2.54514 0
M  V30 1741 C 162.53 4.75199 -2.42944 0
M  V30 1742 O 162.753 5.51579 -1.45318 0
M  V30 1743 O 161.687 5.0161 -3.32672 0
M  V30 1744 H 165.513 1.836 -2.41919 0
M  V30 1745 H 163.098 0.849966 -1.22866 0
M  V30 1746 H 164.98 4.01236 -1.28794 0
M  V30 1747 H 163.655 3.2123 -0.39909 0
M  V30 1748 H 162.562 2.64474 -2.64583 0
M  V30 1749 H 163.895 3.49356 -3.46715 0
M  V30 1750 N 165.547 1.27147 0.931209 0
M  V30 1751 C 166.958 1.12044 1.49342 0
M  V30 1752 C 167.309 -0.295795 1.93957 0
M  V30 1753 O 166.434 -1.18835 1.80852 0
M  V30 1754 C 167.029 2.02781 2.71414 0
M  V30 1755 C 165.588 1.91794 3.2387 0
M  V30 1756 C 164.735 1.95543 1.96617 0
M  V30 1757 H 167.686 1.40091 0.745672 0
M  V30 1758 H 167.707 1.58156 3.46074 0
M  V30 1759 H 167.219 3.05848 2.38911 0
M  V30 1760 H 165.32 0.916992 3.6114 0
M  V30 1761 H 165.433 2.77852 3.90302 0
M  V30 1762 H 163.797 1.39722 2.12955 0
M  V30 1763 H 164.58 3.00259 1.66432 0
M  V30 1764 N 167.025 -1.13721 1.09112 0
M  V30 1765 C 167.955 -2.21148 0.749385 0
M  V30 1766 C 168.936 -1.6792 -0.271475 0
M  V30 1767 O 170.121 -1.93693 -0.140251 0
M  V30 1768 C 167.251 -3.46905 0.165659 0
M  V30 1769 C 166.205 -4.13203 1.11567 0
M  V30 1770 C 165.531 -5.33248 0.393809 0
M  V30 1771 C 166.831 -4.60912 2.45678 0
M  V30 1772 H 168.525 -2.4999 1.64758 0
M  V30 1773 H 166.071 -1.20156 0.793626 0
M  V30 1774 H 168.024 -4.21313 -0.085466 0
M  V30 1775 H 166.748 -3.17449 -0.767714 0
M  V30 1776 H 165.407 -3.40758 1.35202 0
M  V30 1777 H 165.055 -5.00054 -0.543599 0
M  V30 1778 H 164.755 -5.78552 1.02721 0
M  V30 1779 H 166.279 -6.10413 0.150908 0
M  V30 1780 H 167.693 -5.26759 2.26269 0
M  V30 1781 H 166.09 -5.16944 3.04776 0
M  V30 1782 H 167.16 -3.75603 3.06677 0
M  V30 1783 N 168.503 -0.877838 -1.30888 0
M  V30 1784 C 169.914 -0.544193 -1.78593 0
M  V30 1785 C 170.265 0.939301 -1.72254 0
M  V30 1786 O 169.39 1.7337 -1.29505 0
M  V30 1787 C 169.985 -0.98105 -3.24285 0
M  V30 1788 C 168.544 -0.698935 -3.69854 0
M  V30 1789 C 167.691 -1.168 -2.51502 0
M  V30 1790 H 170.642 -1.06278 -1.17859 0
M  V30 1791 H 170.663 -0.307009 -3.79259 0
M  V30 1792 H 170.175 -2.06079 -3.28866 0
M  V30 1793 H 168.276 0.369112 -3.70767 0
M  V30 1794 H 168.389 -1.28148 -4.61644 0
M  V30 1795 H 166.753 -0.587535 -2.47831 0
M  V30 1796 H 167.536 -2.25533 -2.58824 0
M  V30 1797 N 169.982 1.44106 -0.638065 0
M  V30 1798 C 170.892 2.34513 0.0637334 0
M  V30 1799 C 171.908 1.53018 0.828346 0
M  V30 1800 O 173.084 1.85723 0.779036 0
M  V30 1801 C 170.149 3.31095 1.02844 0
M  V30 1802 C 169.21 4.28497 0.26244 0
M  V30 1803 C 168.443 5.20465 1.1812 0
M  V30 1804 O 168.666 5.16514 2.42011 0
M  V30 1805 O 167.6 5.98251 0.661774 0
M  V30 1806 H 171.426 2.95989 -0.68003 0
M  V30 1807 H 169.011 1.43994 -0.398252 0
M  V30 1808 H 170.893 3.90526 1.58327 0
M  V30 1809 H 169.568 2.72144 1.7527 0
M  V30 1810 H 168.475 3.72592 -0.335602 0
M  V30 1811 H 169.808 4.90388 -0.421936 0
M  V30 1812 N 171.46 0.379036 1.52974 0
M  V30 1813 C 172.423 -0.448865 2.24762 0
M  V30 1814 C 173.423 -0.998689 1.26027 0
M  V30 1815 O 174.613 -0.882313 1.50203 0
M  V30 1816 C 171.745 -1.62872 2.99476 0
M  V30 1817 H 172.938 0.179491 2.99362 0
M  V30 1818 H 170.491 0.13096 1.5575 0
M  V30 1819 H 171.226 -2.29479 2.29151 0
M  V30 1820 H 171.011 -1.24128 3.71934 0
M  V30 1821 H 172.501 -2.2151 3.5401 0
M  V30 1822 N 172.938 -1.57226 0.108567 0
M  V30 1823 C 173.901 -2.13602 -0.831082 0
M  V30 1824 C 174.901 -1.06841 -1.20173 0
M  V30 1825 O 176.091 -1.32666 -1.12895 0
M  V30 1826 C 173.223 -2.66769 -2.12243 0
M  V30 1827 H 174.416 -2.97951 -0.341317 0
M  V30 1828 H 171.969 -1.55667 -0.14057 0
M  V30 1829 H 172.704 -1.85977 -2.65675 0
M  V30 1830 H 172.489 -3.44839 -1.86625 0
M  V30 1831 H 173.979 -3.10332 -2.79435 0
M  V30 1832 N 174.416 0.165178 -1.56732 0
M  V30 1833 C 175.644 0.896218 -1.86482 0
M  V30 1834 C 176.059 1.75555 -0.694675 0
M  V30 1835 O 175.416 1.79379 0.33607 0
M  V30 1836 C 175.467 1.76792 -3.1532 0
M  V30 1837 O 175.188 0.943239 -4.27825 0
M  V30 1838 C 176.689 2.6081 -3.58459 0
M  V30 1839 H 173.909 0.260064 -0.618553 0
M  V30 1840 H 176.453 0.163428 -2.03846 0
M  V30 1841 H 174.608 2.45398 -2.99764 0
M  V30 1842 H 175.022 1.53998 -5.01383 0
M  V30 1843 H 176.496 3.17579 -4.51495 0
M  V30 1844 H 176.973 3.35977 -2.82872 0
M  V30 1845 H 177.579 1.97526 -3.76648 0
M  V30 1846 N 175.894 1.51508 0.433938 0
M  V30 1847 C 177.14 1.65549 1.18173 0
M  V30 1848 C 177.495 0.368751 1.88833 0
M  V30 1849 O 176.788 -0.635616 1.8075 0
M  V30 1850 C 176.982 2.79928 2.22205 0
M  V30 1851 C 176.811 4.19601 1.61756 0
M  V30 1852 C 175.581 4.85489 1.40101 0
M  V30 1853 C 177.779 5.02574 1.09194 0
M  V30 1854 N 175.761 6.09266 0.752859 0
M  V30 1855 C 177.132 6.17381 0.569255 0
M  V30 1856 C 179.187 4.88079 0.984025 0
M  V30 1857 C 177.89 7.19282 -0.0507472 0
M  V30 1858 C 179.916 5.90191 0.377912 0
M  V30 1859 C 179.278 7.04272 -0.134216 0
M  V30 1860 H 175.377 0.659653 0.419979 0
M  V30 1861 H 177.961 1.88746 0.477818 0
M  V30 1862 H 176.132 2.5839 2.89982 0
M  V30 1863 H 177.864 2.83132 2.89168 0
M  V30 1864 H 174.619 4.43417 1.66369 0
M  V30 1865 H 175.043 6.75528 0.446123 0
M  V30 1866 H 179.685 4.00131 1.36583 0
M  V30 1867 H 177.403 8.06876 -0.444676 0
M  V30 1868 H 180.989 5.81045 0.296269 0
M  V30 1869 H 179.869 7.81933 -0.59585 0
M  V30 1870 N 177.372 -0.689602 1.41712 0
M  V30 1871 C 178.6 -1.47827 1.44758 0
M  V30 1872 C 179.015 -1.88721 0.0545703 0
M  V30 1873 O 178.372 -1.57176 -0.927463 0
M  V30 1874 C 178.423 -2.73698 2.3616 0
M  V30 1875 O 178.144 -2.34524 3.7004 0
M  V30 1876 C 179.645 -3.67389 2.48072 0
M  V30 1877 H 176.865 -0.455357 0.49284 0
M  V30 1878 H 179.409 -0.848574 1.86063 0
M  V30 1879 H 177.564 -3.32891 1.98148 0
M  V30 1880 H 177.978 -3.15701 4.18847 0
M  V30 1881 H 179.452 -4.52475 3.16181 0
M  V30 1882 H 179.929 -4.12284 1.51388 0
M  V30 1883 H 180.535 -3.14097 2.86746 0
M  V30 1884 N 178.85 -1.27639 -0.924453 0
M  V30 1885 C 180.098 -1.13941 -1.66918 0
M  V30 1886 C 180.419 0.314589 -1.92446 0
M  V30 1887 O 179.689 1.21964 -1.53303 0
M  V30 1888 H 178.269 -0.418678 -0.618642 0
M  V30 1889 H 180.931 -1.60213 -1.10985 0
M  V30 1890 H 180.027 -1.67094 -2.63602 0
M  V30 1891 N 180.328 1.1314 -1.09713 0
M  V30 1892 C 181.605 1.80762 -0.747302 0
M  V30 1893 C 181.985 1.96663 0.767265 0
M  V30 1894 O 181.333 1.53706 1.69076 0
M  V30 1895 C 181.543 3.15606 -1.48975 0
M  V30 1896 C 182.891 3.90914 -1.65746 0
M  V30 1897 O 183.915 3.25239 -1.45251 0
M  V30 1898 O 182.774 5.08718 -1.9967 0
M  V30 1899 H 179.868 0.782103 -0.268782 0
M  V30 1900 H 182.414 1.20041 -1.19951 0
M  V30 1901 H 181.186 2.99278 -2.52088 0
M  V30 1902 H 180.809 3.84029 -1.02991 0
M  V30 1903 N 181.806 0.884767 1.30421 0
M  V30 1904 C 183.031 0.517288 2.00845 0
M  V30 1905 C 183.456 -0.886779 1.65885 0
M  V30 1906 O 182.814 -1.58768 0.875354 0
M  V30 1907 C 182.862 0.698994 3.5376 0
M  V30 1908 O 181.966 -0.255208 4.1161 0
M  V30 1909 H 181.307 0.203872 0.631927 0
M  V30 1910 H 183.837 1.19225 1.66272 0
M  V30 1911 H 183.847 0.597912 4.03595 0
M  V30 1912 H 182.522 1.72271 3.78544 0
M  V30 1913 H 181.099 -0.10784 3.72744 0
M  V30 1914 N 183.284 -1.43765 0.645699 0
M  V30 1915 C 184.512 -2.06253 0.163556 0
M  V30 1916 C 184.927 -1.48352 -1.16778 0
M  V30 1917 O 184.284 -0.611932 -1.71935 0
M  V30 1918 C 184.335 -3.61453 0.0583186 0
M  V30 1919 O 184.056 -4.172 1.33702 0
M  V30 1920 C 185.557 -4.41002 -0.450795 0
M  V30 1921 H 182.777 -0.665413 0.0864077 0
M  V30 1922 H 185.321 -1.84396 0.884222 0
M  V30 1923 H 183.476 -3.82522 -0.612865 0
M  V30 1924 H 183.89 -5.10791 1.19131 0
M  V30 1925 H 185.364 -5.49966 -0.473403 0
M  V30 1926 H 185.841 -4.13488 -1.48068 0
M  V30 1927 H 186.447 -4.24886 0.187637 0
M  V30 1928 N 184.763 -0.387143 -1.52771 0
M  V30 1929 C 185.726 0.436939 -2.24997 0
M  V30 1930 C 186.726 0.991991 -1.26555 0
M  V30 1931 O 187.916 0.874335 -1.50669 0
M  V30 1932 C 185.048 1.61281 -3.00335 0
M  V30 1933 H 186.241 -0.195365 -2.99263 0
M  V30 1934 H 183.794 -0.139218 -1.55679 0
M  V30 1935 H 184.529 2.2826 -2.30364 0
M  V30 1936 H 184.314 1.22154 -3.72587 0
M  V30 1937 H 185.804 2.19629 -3.5518 0
M  V30 1938 N 186.241 1.57166 -0.116904 0
M  V30 1939 C 187.488 1.95123 0.541603 0
M  V30 1940 C 187.816 1.00006 1.6682 0
M  V30 1941 O 187.071 0.0235658 1.95686 0
M  V30 1942 C 187.37 3.39508 1.11664 0
M  V30 1943 C 187.036 4.50762 0.111606 0
M  V30 1944 C 185.698 4.80918 -0.164758 0
M  V30 1945 C 188.05 5.18036 -0.573438 0
M  V30 1946 C 185.378 5.75666 -1.13249 0
M  V30 1947 C 187.73 6.13824 -1.52978 0
M  V30 1948 C 186.394 6.42374 -1.81415 0
M  V30 1949 H 185.664 0.714005 0.198187 0
M  V30 1950 H 188.311 1.9048 -0.197365 0
M  V30 1951 H 186.616 3.40835 1.93232 0
M  V30 1952 H 188.313 3.66189 1.63422 0
M  V30 1953 H 184.903 4.27272 0.337192 0
M  V30 1954 H 189.087 4.94896 -0.373092 0
M  V30 1955 H 184.343 5.96092 -1.35958 0
M  V30 1956 H 188.517 6.65039 -2.06629 0
M  V30 1957 H 186.144 7.15599 -2.56557 0
M  V30 1958 N 187.719 -0.156864 1.56817 0
M  V30 1959 C 188.682 -1.17781 1.96622 0
M  V30 1960 C 189.682 -1.36401 0.851555 0
M  V30 1961 O 190.872 -1.33561 1.11836 0
M  V30 1962 C 188.004 -2.54008 2.27361 0
M  V30 1963 H 189.197 -0.836564 2.87996 0
M  V30 1964 H 186.75 -0.39985 1.51099 0
M  V30 1965 H 187.485 -2.9312 1.38748 0
M  V30 1966 H 187.27 -2.41856 3.08623 0
M  V30 1967 H 188.76 -3.27558 2.59029 0
M  V30 1968 N 189.197 -1.51736 -0.425897 0
M  V30 1969 C 190.107 -1.76738 -1.54275 0
M  V30 1970 C 191.123 -0.65211 -1.61318 0
M  V30 1971 O 192.299 -0.935654 -1.78346 0
M  V30 1972 C 189.364 -1.89755 -2.90162 0
M  V30 1973 C 188.425 -3.13633 -2.93143 0
M  V30 1974 C 187.658 -3.2602 -4.22548 0
M  V30 1975 O 187.881 -2.44067 -5.15546 0
M  V30 1976 O 186.815 -4.19071 -4.32046 0
M  V30 1977 H 190.641 -2.71502 -1.36089 0
M  V30 1978 H 188.226 -1.36376 -0.610069 0
M  V30 1979 H 190.108 -2.00236 -3.70788 0
M  V30 1980 H 188.783 -0.981785 -3.08452 0
M  V30 1981 H 187.69 -3.08622 -2.11431 0
M  V30 1982 H 189.023 -4.04936 -2.798 0
M  V30 1983 N 190.675 0.682077 -1.42076 0
M  V30 1984 C 191.622 1.79578 -1.44984 0
M  V30 1985 C 192.592 1.6332 -0.302614 0
M  V30 1986 O 193.777 1.83978 -0.505633 0
M  V30 1987 C 190.917 3.1756 -1.35091 0
M  V30 1988 C 190.03 3.45156 -2.59791 0
M  V30 1989 C 189.165 4.72826 -2.42093 0
M  V30 1990 C 188.204 4.93433 -3.62202 0
M  V30 1991 N 187.341 6.12338 -3.43491 0
M  V30 1992 H 192.181 1.76427 -2.40161 0
M  V30 1993 H 189.718 0.861376 -1.19242 0
M  V30 1994 H 191.676 3.97287 -1.27354 0
M  V30 1995 H 190.306 3.19854 -0.435133 0
M  V30 1996 H 189.358 2.59736 -2.77923 0
M  V30 1997 H 190.67 3.5628 -3.49094 0
M  V30 1998 H 189.824 5.60631 -2.319 0
M  V30 1999 H 188.563 4.63973 -1.50268 0
M  V30 2000 H 187.568 4.04073 -3.72834 0
M  V30 2001 H 188.793 5.04136 -4.54998 0
M  V30 2002 H 186.739 6.04672 -2.54377 0
M  V30 2003 H 186.656 6.2429 -4.26377 0
M  V30 2004 H 187.924 7.02841 -3.37097 0
M  V30 2005 N 192.153 1.28127 0.917671 0
M  V30 2006 C 193.116 1.11744 2.00115 0
M  V30 2007 C 194.116 0.0583052 1.60694 0
M  V30 2008 O 195.306 0.303755 1.71531 0
M  V30 2009 C 192.438 0.704862 3.33533 0
M  V30 2010 H 193.631 2.07966 2.16079 0
M  V30 2011 H 191.184 1.11058 1.09981 0
M  V30 2012 H 191.919 -0.258299 3.2327 0
M  V30 2013 H 191.704 1.4699 3.63505 0
M  V30 2014 H 193.194 0.612768 4.1308 0
M  V30 2015 N 193.631 -1.12557 1.10312 0
M  V30 2016 C 194.578 -2.18247 0.750781 0
M  V30 2017 C 195.548 -1.63853 -0.272293 0
M  V30 2018 O 196.733 -1.90195 -0.151862 0
M  V30 2019 C 193.873 -3.44591 0.187379 0
M  V30 2020 C 192.986 -4.13046 1.2656 0
M  V30 2021 C 192.121 -5.27034 0.663978 0
M  V30 2022 C 191.16 -5.87353 1.72287 0
M  V30 2023 N 190.297 -6.92757 1.1416 0
M  V30 2024 H 195.137 -2.47732 1.65628 0
M  V30 2025 H 192.674 -1.21629 0.827337 0
M  V30 2026 H 194.632 -4.16904 -0.157148 0
M  V30 2027 H 193.262 -3.15527 -0.681355 0
M  V30 2028 H 192.314 -3.38924 1.72727 0
M  V30 2029 H 193.626 -4.53947 2.06721 0
M  V30 2030 H 192.78 -6.06104 0.268824 0
M  V30 2031 H 191.519 -4.87407 -0.169082 0
M  V30 2032 H 190.524 -5.06971 2.12746 0
M  V30 2033 H 191.749 -6.29051 2.55875 0
M  V30 2034 H 189.695 -6.5517 0.329984 0
M  V30 2035 H 189.612 -7.3225 1.88007 0
M  V30 2036 H 190.88 -7.75658 0.772956 0
M  V30 2037 N 195.109 -0.891671 -1.2995 0
M  V30 2038 C 196.334 -0.527932 -2.00568 0
M  V30 2039 C 196.759 0.877969 -1.66353 0
M  V30 2040 O 196.117 1.58301 -0.883762 0
M  V30 2041 C 196.165 -0.717745 -3.53385 0
M  V30 2042 O 195.269 0.233376 -4.11739 0
M  V30 2043 H 194.61 -0.20722 -0.630837 0
M  V30 2044 H 197.14 -1.20105 -1.65638 0
M  V30 2045 H 197.15 -0.619307 -4.03272 0
M  V30 2046 H 195.825 -1.74276 -3.77625 0
M  V30 2047 H 194.402 0.0880706 -3.72796 0
M  V30 2048 N 196.587 1.43421 -0.653314 0
M  V30 2049 C 197.833 2.02111 -0.166992 0
M  V30 2050 C 198.166 1.51423 1.21592 0
M  V30 2051 O 197.441 0.707389 1.8118 0
M  V30 2052 C 197.724 3.5966 -0.177948 0
M  V30 2053 C 197.577 4.20579 -1.59478 0
M  V30 2054 C 198.896 4.37413 0.4856 0
M  V30 2055 H 196.015 0.734374 -0.0621557 0
M  V30 2056 H 198.657 1.70717 -0.834016 0
M  V30 2057 H 196.807 3.86537 0.390032 0
M  V30 2058 H 198.479 4.04732 -2.21336 0
M  V30 2059 H 196.722 3.77226 -2.14204 0
M  V30 2060 H 197.393 5.29665 -1.5543 0
M  V30 2061 H 199.869 4.161 0.00234528 0
M  V30 2062 H 198.745 5.47075 0.447207 0
M  V30 2063 H 199.006 4.13672 1.55974 0
M  V30 2064 N 198.065 0.39524 1.52563 0
M  V30 2065 C 199.313 -0.184678 2.01254 0
M  V30 2066 C 199.634 -1.46822 1.28329 0
M  V30 2067 O 198.904 -1.91666 0.405094 0
M  V30 2068 H 197.484 -0.0712355 0.743596 0
M  V30 2069 H 200.146 0.528293 1.87603 0
M  V30 2070 H 199.242 -0.390681 3.09645 0
M  V30 2071 N 199.544 -1.57102 0.125237 0
M  V30 2072 C 200.793 -1.94582 -0.531095 0
M  V30 2073 C 201.106 -1.01126 -1.6743 0
M  V30 2074 O 202.312 -1.28097 -2.39381 0
M  V30 2075 C 200.768 -3.45839 -0.996164 0
M  V30 2076 C 200.376 -4.47842 0.118926 0
M  V30 2077 C 202.12 -3.92227 -1.62352 0
M  V30 2078 C 200.027 -5.90284 -0.363192 0
M  V30 2079 H 198.957 -0.726391 -0.20217 0
M  V30 2080 H 201.608 -1.82339 0.206092 0
M  V30 2081 H 199.99 -3.53338 -1.78796 0
M  V30 2082 H 201.164 -4.52018 0.895358 0
M  V30 2083 H 199.479 -4.11243 0.653324 0
M  V30 2084 H 202.076 -4.96069 -1.99548 0
M  V30 2085 H 202.419 -3.32552 -2.50429 0
M  V30 2086 H 202.952 -3.87554 -0.897019 0
M  V30 2087 H 199.691 -6.53728 0.481679 0
M  V30 2088 H 199.211 -5.89515 -1.10597 0
M  V30 2089 H 200.89 -6.41752 -0.822377 0
M  V30 2090 N 201.022 0.148545 -1.56898 0
M  V30 2091 C 201.952 1.18524 -2.01182 0
M  V30 2092 C 202.933 1.4489 -0.891123 0
M  V30 2093 O 204.118 1.55836 -1.15882 0
M  V30 2094 C 201.248 2.51879 -2.39112 0
M  V30 2095 C 200.202 2.40038 -3.54353 0
M  V30 2096 C 199.528 3.78089 -3.78091 0
M  V30 2097 C 200.828 1.88577 -4.87069 0
M  V30 2098 H 202.522 0.817029 -2.88036 0
M  V30 2099 H 200.068 0.391575 -1.38574 0
M  V30 2100 H 202.021 3.24627 -2.68692 0
M  V30 2101 H 200.745 2.90532 -1.49193 0
M  V30 2102 H 199.404 1.69742 -3.24936 0
M  V30 2103 H 199.052 4.14175 -2.85426 0
M  V30 2104 H 198.752 3.71028 -4.55645 0
M  V30 2105 H 200.276 4.52387 -4.10095 0
M  V30 2106 H 201.69 2.51117 -5.15377 0
M  V30 2107 H 200.087 1.9241 -5.68417 0
M  V30 2108 H 201.157 0.84136 -4.77545 0
M  V30 2109 N 202.5 1.5196 0.417844 0
M  V30 2110 C 203.463 1.74065 1.49111 0
M  V30 2111 C 204.463 0.610537 1.48758 0
M  V30 2112 O 205.653 0.87832 1.50437 0
M  V30 2113 C 202.785 1.81502 2.88565 0
M  V30 2114 H 203.978 2.69869 1.30807 0
M  V30 2115 H 201.531 1.42244 0.647785 0
M  V30 2116 H 202.266 0.875813 3.1225 0
M  V30 2117 H 202.051 2.63651 2.90225 0
M  V30 2118 H 203.541 2.00376 3.66387 0
M  V30 2119 N 203.978 -0.674533 1.42435 0
M  V30 2120 C 205.206 -1.46283 1.46317 0
M  V30 2121 C 205.621 -1.88653 0.0745836 0
M  V30 2122 O 204.978 -1.58151 -0.91074 0
M  V30 2123 C 205.029 -2.71178 2.3905 0
M  V30 2124 O 204.75 -2.30586 3.72507 0
M  V30 2125 C 206.251 -3.64738 2.51955 0
M  V30 2126 H 203.471 -0.450104 0.497642 0
M  V30 2127 H 206.015 -0.828792 1.86953 0
M  V30 2128 H 204.17 -3.3077 2.01667 0
M  V30 2129 H 204.584 -3.11241 4.22172 0
M  V30 2130 H 206.058 -4.49096 3.20962 0
M  V30 2131 H 206.535 -4.10656 1.55752 0
M  V30 2132 H 207.141 -3.11038 2.90061 0
M  V30 2133 N 205.456 -1.28612 -0.910864 0
M  V30 2134 C 206.366 -1.14643 -2.0468 0
M  V30 2135 C 207.382 -0.0723121 -1.7385 0
M  V30 2136 O 208.558 -0.282178 -1.99413 0
M  V30 2137 C 205.623 -0.812561 -3.37044 0
M  V30 2138 C 204.684 -1.96935 -3.81465 0
M  V30 2139 C 203.917 -1.65131 -5.07511 0
M  V30 2140 O 204.14 -0.567013 -5.67575 0
M  V30 2141 O 203.074 -2.49585 -5.47714 0
M  V30 2142 H 206.9 -2.1001 -2.19384 0
M  V30 2143 H 204.485 -1.07958 -1.03274 0
M  V30 2144 H 206.367 -0.640441 -4.16505 0
M  V30 2145 H 205.042 0.111426 -3.23508 0
M  V30 2146 H 203.949 -2.19664 -3.02818 0
M  V30 2147 H 205.282 -2.87414 -3.99567 0
M  V30 2148 N 206.934 1.1197 -1.10907 0
M  V30 2149 C 207.882 2.19927 -0.757303 0
M  V30 2150 C 208.876 1.67564 0.248747 0
M  V30 2151 O 210.082 1.79672 0.108605 0
M  V30 2152 H 206.457 0.716925 -0.226987 0
M  V30 2153 H 208.428 2.46847 -1.67658 0
M  V30 2154 C 207.177 3.47061 -0.210671 0
M  V30 2155 H 206.5 3.87703 -0.976049 0
M  V30 2156 H 207.94 4.24 -0.0026584 0
M  V30 2157 C 206.399 3.19864 1.05777 0
M  V30 2158 O 206.929 3.40049 2.13845 0
M  V30 2159 N 205.135 2.73636 0.978349 0
M  V30 2160 H 204.682 2.5741 0.0988246 0
M  V30 2161 H 204.64 2.55815 1.82773 0
M  V30 2162 N 208.412 0.89855 1.29475 0
M  V30 2163 C 209.322 0.379974 2.31502 0
M  V30 2164 C 210.338 -0.524695 1.659 0
M  V30 2165 O 211.514 -0.414551 1.97087 0
M  V30 2166 C 208.579 -0.385138 3.44554 0
M  V30 2167 C 207.64 0.550914 4.2575 0
M  V30 2168 C 206.873 -0.177778 5.33404 0
M  V30 2169 O 207.096 -1.40189 5.52904 0
M  V30 2170 O 206.03 0.479106 5.9999 0
M  V30 2171 H 209.856 1.22639 2.77837 0
M  V30 2172 H 207.441 0.662834 1.33891 0
M  V30 2173 H 209.323 -0.817841 4.13388 0
M  V30 2174 H 207.998 -1.20763 3.0033 0
M  V30 2175 H 206.905 1.03271 3.59564 0
M  V30 2176 H 208.238 1.33979 4.73614 0
M  V30 2177 N 209.89 -1.43072 0.660911 0
M  V30 2178 C 211.167 -1.95307 0.107017 0
M  V30 2179 C 211.547 -1.60192 -1.37484 0
M  V30 2180 O 210.895 -0.890949 -2.10415 0
M  V30 2181 C 211.105 -3.47124 0.361402 0
M  V30 2182 C 212.453 -4.23738 0.270455 0
M  V30 2183 O 213.477 -3.54981 0.294382 0
M  V30 2184 O 212.336 -5.46131 0.200737 0
M  V30 2185 H 209.43 -0.826984 -0.00517729 0
M  V30 2186 H 211.976 -1.52972 0.734681 0
M  V30 2187 H 210.748 -3.65837 1.38848 0
M  V30 2188 H 210.371 -3.96475 -0.298953 0
M  V30 2189 N 211.368 -0.403325 -1.52352 0
M  V30 2190 C 212.614 0.174605 -2.02047 0
M  V30 2191 C 212.947 1.45282 -1.28867 0
M  V30 2192 O 212.222 1.90483 -0.393257 0
M  V30 2193 C 212.505 0.428238 -3.57545 0
M  V30 2194 C 212.358 -0.866248 -4.4138 0
M  V30 2195 C 213.677 1.21287 -4.23057 0
M  V30 2196 H 210.796 0.0619851 -0.734389 0
M  V30 2197 H 213.438 -0.53565 -1.82293 0
M  V30 2198 H 211.588 1.03327 -3.74507 0
M  V30 2199 H 213.26 -1.50265 -4.3614 0
M  V30 2200 H 211.503 -1.47851 -4.07827 0
M  V30 2201 H 212.174 -0.643249 -5.48239 0
M  V30 2202 H 214.65 0.700703 -4.10158 0
M  V30 2203 H 213.526 1.35909 -5.31808 0
M  V30 2204 H 213.787 2.23193 -3.81625 0
M  V30 2205 N 212.846 1.57033 -0.133567 0
M  V30 2206 C 214.262 1.58035 0.222944 0
M  V30 2207 C 214.462 1.14713 1.6566 0
M  V30 2208 O 213.518 0.841218 2.38075 0
M  V30 2209 C 214.831 3.00691 -0.0236116 0
M  V30 2210 C 216.379 3.12973 0.0411512 0
M  V30 2211 C 216.854 4.57654 -0.177899 0
M  V30 2212 N 218.345 4.63033 -0.124365 0
M  V30 2213 C 219.08 5.72771 -0.268553 0
M  V30 2214 N 218.576 6.91206 -0.46972 0
M  V30 2215 N 220.369 5.61718 -0.2071 0
M  V30 2216 H 212.52 1.8349 -1.06981 0
M  V30 2217 H 214.783 0.848677 -0.422436 0
M  V30 2218 H 214.489 3.36726 -1.0153 0
M  V30 2219 H 214.363 3.70614 0.701808 0
M  V30 2220 H 216.75 2.76787 1.02338 0
M  V30 2221 H 216.831 2.45564 -0.716383 0
M  V30 2222 H 216.475 4.94542 -1.15717 0
M  V30 2223 H 216.405 5.23173 0.599797 0
M  V30 2224 H 218.896 3.7789 0.027011 0
M  V30 2225 H 219.209 7.70693 -0.570212 0
M  V30 2226 H 217.554 6.93156 -0.505876 0
M  V30 2227 H 220.745 4.68072 -0.0507986 0
M  V30 2228 H 220.918 6.47195 -0.322909 0
M  V30 2229 N 214.325 -0.140222 1.56975 0
M  V30 2230 C 215.55 -0.870414 1.88251 0
M  V30 2231 C 215.975 -1.73637 0.723312 0
M  V30 2232 O 215.333 -1.78329 -0.32689 0
M  V30 2233 C 215.381 -1.69737 3.18154 0
M  V30 2234 O 214.485 -2.80229 3.02565 0
M  V30 2235 H 213.826 -0.242025 0.61832 0
M  V30 2236 H 216.356 -0.128999 2.04193 0
M  V30 2237 H 216.366 -2.09099 3.50345 0
M  V30 2238 H 215.041 -1.06152 4.02125 0
M  V30 2239 H 213.618 -2.44224 2.81796 0
M  V30 2240 N 215.803 -1.52179 -0.40978 0
M  V30 2241 C 216.733 -1.78435 -1.5061 0
M  V30 2242 C 217.714 -0.635295 -1.57791 0
M  V30 2243 O 218.899 -0.880823 -1.73076 0
M  V30 2244 C 216.029 -1.93444 -2.88439 0
M  V30 2245 C 214.983 -3.09038 -2.96108 0
M  V30 2246 C 214.309 -3.09268 -4.36185 0
M  V30 2247 C 215.609 -4.48508 -2.67652 0
M  V30 2248 H 217.303 -2.70237 -1.28889 0
M  V30 2249 H 214.849 -1.30036 -0.618605 0
M  V30 2250 H 216.802 -2.10394 -3.65119 0
M  V30 2251 H 215.526 -0.983129 -3.11452 0
M  V30 2252 H 214.185 -2.91837 -2.21872 0
M  V30 2253 H 213.833 -2.11861 -4.56206 0
M  V30 2254 H 213.533 -3.86907 -4.42241 0
M  V30 2255 H 215.057 -3.28348 -5.14801 0
M  V30 2256 H 216.471 -4.65918 -3.34056 0
M  V30 2257 H 214.868 -5.28059 -2.85085 0
M  V30 2258 H 215.938 -4.56649 -1.63095 0
M  V30 2259 N 217.281 0.66697 -1.42791 0
M  V30 2260 C 218.697 0.981027 -1.25889 0
M  V30 2261 C 218.897 2.00793 -0.168695 0
M  V30 2262 O 217.953 2.48321 0.45747 0
M  V30 2263 C 219.266 1.47838 -2.61848 0
M  V30 2264 C 220.814 1.59575 -2.69267 0
M  V30 2265 C 221.289 2.12704 -4.05612 0
M  V30 2266 N 222.78 2.20026 -4.07606 0
M  V30 2267 C 223.515 2.62227 -5.09926 0
M  V30 2268 N 223.011 3.03824 -6.22626 0
M  V30 2269 N 224.804 2.62045 -4.97281 0
M  V30 2270 H 216.955 -0.0127891 -2.12396 0
M  V30 2271 H 219.218 0.0568258 -0.946295 0
M  V30 2272 H 218.924 0.798299 -3.4252 0
M  V30 2273 H 218.798 2.45579 -2.86305 0
M  V30 2274 H 221.185 2.26687 -1.88936 0
M  V30 2275 H 221.266 0.60302 -2.48591 0
M  V30 2276 H 220.91 1.46198 -4.86404 0
M  V30 2277 H 220.84 3.12782 -4.23645 0
M  V30 2278 H 223.331 1.90708 -3.2625 0
M  V30 2279 H 223.644 3.34734 -6.96544 0
M  V30 2280 H 221.989 3.01662 -6.26119 0
M  V30 2281 H 225.18 2.28916 -4.08308 0
M  V30 2282 H 225.353 2.94613 -5.77154 0
M  V30 2283 N 218.759 1.29093 0.90403 0
M  V30 2284 C 219.669 1.15727 2.0407 0
M  V30 2285 C 220.685 0.0815308 1.73809 0
M  V30 2286 O 221.861 0.292749 1.99261 0
M  V30 2287 C 218.926 0.830424 3.36608 0
M  V30 2288 C 217.987 1.98955 3.80415 0
M  V30 2289 C 217.22 1.6782 5.06628 0
M  V30 2290 O 217.443 0.597105 5.67266 0
M  V30 2291 O 216.377 2.52486 5.46383 0
M  V30 2292 H 220.203 2.11171 2.18267 0
M  V30 2293 H 217.788 1.08504 1.027 0
M  V30 2294 H 219.67 0.662521 4.16159 0
M  V30 2295 H 218.345 -0.0942678 3.23563 0
M  V30 2296 H 217.252 2.21267 3.01648 0
M  V30 2297 H 218.585 2.89529 3.98037 0
M  V30 2298 N 220.237 -1.11381 1.11499 0
M  V30 2299 C 221.167 -2.19509 0.796125 0
M  V30 2300 C 222.148 -1.68458 -0.235796 0
M  V30 2301 O 223.333 -1.93947 -0.0991344 0
M  V30 2302 C 220.463 -3.46475 0.239205 0
M  V30 2303 C 219.417 -4.10744 1.20307 0
M  V30 2304 C 218.743 -5.32293 0.50683 0
M  V30 2305 C 220.043 -4.55597 2.55399 0
M  V30 2306 H 221.737 -2.46439 1.70024 0
M  V30 2307 H 219.283 -1.18446 0.818935 0
M  V30 2308 H 221.236 -4.214 0.00392006 0
M  V30 2309 H 219.96 -3.19006 -0.700206 0
M  V30 2310 H 218.619 -3.37813 1.42399 0
M  V30 2311 H 218.267 -5.01095 -0.437408 0
M  V30 2312 H 217.967 -5.76243 1.1497 0
M  V30 2313 H 219.491 -6.09956 0.280351 0
M  V30 2314 H 220.905 -5.21841 2.37391 0
M  V30 2315 H 219.302 -5.10363 3.15673 0
M  V30 2316 H 220.372 -3.69013 3.14575 0
M  V30 2317 N 221.715 -0.905404 -1.28997 0
M  V30 2318 C 222.645 -0.404212 -2.29975 0
M  V30 2319 C 223.626 0.523784 -1.61835 0
M  V30 2320 O 224.811 0.433298 -1.89304 0
M  V30 2321 C 221.941 0.364042 -3.45387 0
M  V30 2322 C 220.895 -0.474048 -4.25367 0
M  V30 2323 C 220.221 0.422045 -5.33032 0
M  V30 2324 C 221.521 -1.72696 -4.92923 0
M  V30 2325 H 223.215 -1.24807 -2.72146 0
M  V30 2326 H 220.761 -0.601585 -1.30832 0
M  V30 2327 H 222.714 0.725447 -4.15109 0
M  V30 2328 H 221.438 1.24174 -3.02074 0
M  V30 2329 H 220.097 -0.81786 -3.57361 0
M  V30 2330 H 219.745 1.29804 -4.85963 0
M  V30 2331 H 219.445 -0.135057 -5.87445 0
M  V30 2332 H 220.969 0.779517 -6.05604 0
M  V30 2333 H 222.383 -1.43495 -5.55051 0
M  V30 2334 H 220.78 -2.22582 -5.57295 0
M  V30 2335 H 221.85 -2.45964 -4.17887 0
M  V30 2336 N 223.193 1.4272 -0.668489 0
M  V30 2337 C 224.442 2.00846 -0.185389 0
M  V30 2338 C 224.755 1.53442 1.21305 0
M  V30 2339 O 225.961 2.03944 1.79218 0
M  V30 2340 C 224.417 3.58805 -0.280591 0
M  V30 2341 C 224.025 4.15198 -1.68268 0
M  V30 2342 C 225.769 4.24255 0.14412 0
M  V30 2343 C 223.676 5.655 -1.73099 0
M  V30 2344 H 222.606 0.751145 -0.0655475 0
M  V30 2345 H 225.257 1.63516 -0.832752 0
M  V30 2346 H 223.639 3.93608 0.434553 0
M  V30 2347 H 224.813 3.91866 -2.42441 0
M  V30 2348 H 223.128 3.62176 -2.05469 0
M  V30 2349 H 225.725 5.34547 0.128086 0
M  V30 2350 H 226.068 3.99277 1.17827 0
M  V30 2351 H 226.601 3.94389 -0.519798 0
M  V30 2352 H 223.34 5.95268 -2.74475 0
M  V30 2353 H 222.86 5.90842 -1.03274 0
M  V30 2354 H 224.539 6.29808 -1.48158 0
M  V30 2355 N 224.671 0.411399 1.52136 0
M  V30 2356 C 225.92 -0.165009 2.01024 0
M  V30 2357 C 226.233 -1.4603 1.30133 0
M  V30 2358 O 227.439 -2.1181 1.69849 0
M  V30 2359 C 225.895 -0.344618 3.58246 0
M  V30 2360 C 225.503 0.938716 4.38055 0
M  V30 2361 C 227.247 -0.876195 4.15359 0
M  V30 2362 C 225.154 0.726172 5.86925 0
M  V30 2363 H 224.084 -0.0654407 0.751155 0
M  V30 2364 H 226.735 0.537192 1.75461 0
M  V30 2365 H 225.117 -1.10921 3.80148 0
M  V30 2366 H 226.291 1.70963 4.27912 0
M  V30 2367 H 224.606 1.39688 3.92271 0
M  V30 2368 H 227.203 -1.05128 5.24263 0
M  V30 2369 H 227.546 -1.85152 3.7286 0
M  V30 2370 H 228.079 -0.170607 3.97434 0
M  V30 2371 H 224.818 1.67312 6.33788 0
M  V30 2372 H 224.338 -0.00540283 5.998 0
M  V30 2373 H 226.017 0.369231 6.45946 0
M  V30 2374 N 226.149 -1.5696 0.141893 0
M  V30 2375 C 227.397 -1.95573 -0.509484 0
M  V30 2376 C 227.718 -1.02746 -1.65736 0
M  V30 2377 O 226.988 -0.0880311 -1.95702 0
M  V30 2378 H 225.568 -0.722115 -0.191205 0
M  V30 2379 H 228.23 -1.93697 0.216196 0
M  V30 2380 H 227.326 -2.99171 -0.889 0
M  V30 2381 N 227.627 0.131896 -1.57047 0
M  V30 2382 C 228.557 1.16384 -2.02428 0
M  V30 2383 C 229.538 1.43936 -0.90644 0
M  V30 2384 O 230.723 1.54599 -1.17528 0
M  V30 2385 C 227.853 2.49328 -2.4177 0
M  V30 2386 C 226.807 2.36266 -3.56879 0
M  V30 2387 C 226.133 3.74057 -3.8208 0
M  V30 2388 C 227.433 1.834 -4.89042 0
M  V30 2389 H 229.127 0.786433 -2.88887 0
M  V30 2390 H 226.673 0.376855 -1.38981 0
M  V30 2391 H 228.626 3.21759 -2.7212 0
M  V30 2392 H 227.35 2.88934 -1.52266 0
M  V30 2393 H 226.009 1.66286 -3.26718 0
M  V30 2394 H 225.657 4.11125 -2.89803 0
M  V30 2395 H 225.357 3.66174 -4.59554 0
M  V30 2396 H 226.881 4.48012 -4.1487 0
M  V30 2397 H 228.295 2.45636 -5.18011 0
M  V30 2398 H 226.692 1.8637 -5.70426 0
M  V30 2399 H 227.762 0.790662 -4.7841 0
M  V30 2400 N 229.106 1.52395 0.401703 0
M  V30 2401 C 230.053 1.76268 1.48991 0
M  V30 2402 C 231.023 0.605386 1.54675 0
M  V30 2403 O 232.208 0.843742 1.7113 0
M  V30 2404 C 229.348 1.92592 2.86361 0
M  V30 2405 C 228.461 3.20259 2.89928 0
M  V30 2406 C 227.596 3.26972 4.18644 0
M  V30 2407 C 226.635 4.48812 4.16214 0
M  V30 2408 N 225.772 4.52877 5.36514 0
M  V30 2409 H 230.612 2.6914 1.27935 0
M  V30 2410 H 228.149 1.33355 0.620871 0
M  V30 2411 H 230.107 2.0004 3.66115 0
M  V30 2412 H 228.737 1.03093 3.05895 0
M  V30 2413 H 227.789 3.21945 2.02621 0
M  V30 2414 H 229.101 4.10056 2.83999 0
M  V30 2415 H 228.255 3.33533 5.06794 0
M  V30 2416 H 226.994 2.35126 4.27278 0
M  V30 2417 H 225.999 4.4239 3.26453 0
M  V30 2418 H 227.224 5.41961 4.09213 0
M  V30 2419 H 225.17 3.63917 5.45802 0
M  V30 2420 H 225.087 5.36529 5.32609 0
M  V30 2421 H 226.355 4.63676 6.26597 0
M  V30 2422 N 230.584 -0.659388 1.43143 0
M  V30 2423 C 231.832 -1.41654 1.44147 0
M  V30 2424 C 232.153 -1.94893 0.0645739 0
M  V30 2425 O 231.423 -1.74044 -0.899198 0
M  V30 2426 H 230.003 -0.525708 0.530697 0
M  V30 2427 H 232.665 -0.778097 1.78694 0
M  V30 2428 H 231.761 -2.26195 2.1504 0
M  V30 2429 N 232.062 -1.29571 -0.897171 0
M  V30 2430 C 233.308 -1.17863 -1.65034 0
M  V30 2431 C 233.641 0.268729 -1.92332 0
M  V30 2432 O 232.916 1.19378 -1.53555 0
M  V30 2433 C 233.199 -1.995 -2.99786 0
M  V30 2434 C 233.052 -3.5239 -2.79538 0
M  V30 2435 C 234.371 -1.82335 -4.00552 0
M  V30 2436 H 231.49 -0.429528 -0.598895 0
M  V30 2437 H 234.132 -1.59072 -1.03905 0
M  V30 2438 H 232.282 -1.64485 -3.51962 0
M  V30 2439 H 233.954 -3.97401 -2.34244 0
M  V30 2440 H 232.197 -3.77187 -2.14273 0
M  V30 2441 H 232.868 -4.04787 -3.75302 0
M  V30 2442 H 235.344 -2.12924 -3.57495 0
M  V30 2443 H 234.22 -2.41801 -4.92771 0
M  V30 2444 H 234.481 -0.779209 -4.35179 0
M  V30 2445 N 233.54 1.10788 -1.12088 0
M  V30 2446 C 234.503 2.15207 -0.788577 0
M  V30 2447 C 235.503 1.59609 0.195317 0
M  V30 2448 O 236.693 1.74174 -0.0300193 0
M  V30 2449 C 233.825 3.4047 -0.171174 0
M  V30 2450 H 235.018 2.46116 -1.71368 0
M  V30 2451 H 232.571 1.26089 -0.923652 0
M  V30 2452 H 233.306 3.15176 0.763832 0
M  V30 2453 H 233.091 3.82109 -0.879514 0
M  V30 2454 H 234.581 4.17576 0.04496 0
M  V30 2455 N 235.018 0.912232 1.28515 0
M  V30 2456 C 235.981 0.404223 2.25607 0
M  V30 2457 C 236.981 -0.468602 1.53821 0
M  V30 2458 O 238.171 -0.271873 1.72065 0
M  V30 2459 C 235.303 -0.420653 3.38295 0
M  V30 2460 H 236.496 1.26188 2.7206 0
M  V30 2461 H 234.049 0.691495 1.40171 0
M  V30 2462 H 234.784 -1.29777 2.97201 0
M  V30 2463 H 234.569 0.204935 3.91564 0
M  V30 2464 H 236.059 -0.766971 4.10496 0
M  V30 2465 N 236.496 -1.42363 0.676048 0
M  V30 2466 C 237.726 -2.05561 0.206967 0
M  V30 2467 C 238.134 -1.50887 -1.14148 0
M  V30 2468 O 237.477 -0.643933 -1.72044 0
M  V30 2469 C 237.539 -3.5944 0.0659508 0
M  V30 2470 C 237.203 -4.36812 1.34331 0
M  V30 2471 C 238.2 -4.67383 2.27704 0
M  V30 2472 C 235.885 -4.76429 1.59125 0
M  V30 2473 C 237.879 -5.36509 3.44147 0
M  V30 2474 C 235.566 -5.45294 2.75857 0
M  V30 2475 C 236.564 -5.75259 3.68193 0
M  V30 2476 O 236.252 -6.42712 4.82883 0
M  V30 2477 H 235.984 -0.668872 0.0979084 0
M  V30 2478 H 238.538 -1.83467 0.923531 0
M  V30 2479 H 236.768 -3.80197 -0.706204 0
M  V30 2480 H 238.457 -4.0427 -0.363418 0
M  V30 2481 H 239.223 -4.37275 2.09799 0
M  V30 2482 H 235.102 -4.52498 0.881258 0
M  V30 2483 H 238.646 -5.59814 4.16238 0
M  V30 2484 H 234.543 -5.7482 2.93688 0
M  V30 2485 H 235.311 -6.61204 4.82444 0
M  V30 2486 N 237.974 -0.419461 -1.51915 0
M  V30 2487 C 238.937 0.389116 -2.25873 0
M  V30 2488 C 239.937 0.964924 -1.28631 0
M  V30 2489 O 241.127 0.842179 -1.52489 0
M  V30 2490 C 238.259 1.54874 -3.03689 0
M  V30 2491 H 239.452 -0.258799 -2.98781 0
M  V30 2492 H 237.005 -0.172209 -1.55348 0
M  V30 2493 H 237.74 2.23323 -2.35154 0
M  V30 2494 H 237.525 1.14223 -3.75094 0
M  V30 2495 H 239.015 2.12046 -3.59759 0
M  V30 2496 N 239.452 1.56882 -0.150215 0
M  V30 2497 C 240.362 2.20494 0.801222 0
M  V30 2498 C 241.378 1.19019 1.26927 0
M  V30 2499 O 242.554 1.51607 1.32579 0
M  V30 2500 C 239.619 2.81659 2.02161 0
M  V30 2501 C 238.68 3.9827 1.60249 0
M  V30 2502 C 237.913 4.56508 2.7647 0
M  V30 2503 O 238.136 4.13627 3.92771 0
M  V30 2504 O 237.07 5.46719 2.51757 0
M  V30 2505 H 240.896 3.02315 0.289717 0
M  V30 2506 H 238.481 1.49202 0.0769684 0
M  V30 2507 H 240.363 3.20522 2.73576 0
M  V30 2508 H 239.038 2.02849 2.52258 0
M  V30 2509 H 237.945 3.64117 0.858477 0
M  V30 2510 H 239.278 4.78609 1.14864 0
M  V30 2511 N 240.93 -0.123565 1.57115 0
M  V30 2512 C 241.88 -1.1575 1.96433 0
M  V30 2513 C 242.864 -1.37313 0.838686 0
M  V30 2514 O 244.056 -1.38482 1.10235 0
M  V30 2515 C 241.185 -2.48526 2.36833 0
M  V30 2516 C 240.271 -2.30457 3.5602 0
M  V30 2517 N 240.662 -1.8219 4.71848 0
M  V30 2518 C 238.96 -2.61129 3.61563 0
M  V30 2519 C 239.661 -1.77721 5.53886 0
M  V30 2520 N 238.637 -2.21899 4.96248 0
M  V30 2521 H 242.439 -0.776797 2.83449 0
M  V30 2522 H 239.953 -0.331364 1.58983 0
M  V30 2523 H 241.95 -3.233 2.63216 0
M  V30 2524 H 240.61 -2.87358 1.5118 0
M  V30 2525 H 241.621 -1.51805 4.95152 0
M  V30 2526 H 238.298 -3.03678 2.86507 0
M  V30 2527 H 239.688 -1.41697 6.56789 0
M  V30 2528 N 242.408 -1.52605 -0.393616 0
M  V30 2529 C 243.371 -1.76415 -1.46323 0
M  V30 2530 C 244.371 -0.634126 -1.47768 0
M  V30 2531 O 245.561 -0.902142 -1.4902 0
M  V30 2532 C 242.693 -1.8607 -2.85641 0
M  V30 2533 H 243.886 -2.71916 -1.26498 0
M  V30 2534 H 241.439 -1.43257 -0.625073 0
M  V30 2535 H 242.174 -0.925378 -3.10817 0
M  V30 2536 H 241.959 -2.68235 -2.85993 0
M  V30 2537 H 243.449 -2.06179 -3.63153 0
M  V30 2538 N 243.887 0.651787 -1.4349 0
M  V30 2539 C 244.85 1.74647 -1.48429 0
M  V30 2540 C 245.85 1.56513 -0.368817 0
M  V30 2541 O 247.04 1.62385 -0.630623 0
M  V30 2542 C 244.172 3.13533 -1.33827 0
M  V30 2543 H 245.365 1.71649 -2.4592 0
M  V30 2544 H 242.918 0.863573 -1.30277 0
M  V30 2545 H 243.653 3.22142 -0.37349 0
M  V30 2546 H 243.438 3.28101 -2.14691 0
M  V30 2547 H 244.928 3.93356 -1.40218 0
M  V30 2548 N 245.365 1.30045 0.890287 0
M  V30 2549 C 246.611 1.18737 1.64406 0
M  V30 2550 C 246.944 -0.258525 1.92472 0
M  V30 2551 O 246.219 -1.18562 1.54186 0
M  V30 2552 C 246.502 2.01087 2.98724 0
M  V30 2553 C 246.355 3.53867 2.77665 0
M  V30 2554 C 247.674 1.84457 3.9958 0
M  V30 2555 H 244.793 0.432698 0.596608 0
M  V30 2556 H 247.435 1.5962 1.0306 0
M  V30 2557 H 245.585 1.66349 3.51084 0
M  V30 2558 H 247.257 3.98637 2.32133 0
M  V30 2559 H 245.5 3.78318 2.12269 0
M  V30 2560 H 246.171 4.06772 3.7315 0
M  V30 2561 H 248.647 2.14817 3.56361 0
M  V30 2562 H 247.523 2.44411 4.91482 0
M  V30 2563 H 247.784 0.802276 4.3476 0
M  V30 2564 N 246.843 -1.10192 1.12674 0
M  V30 2565 C 247.773 -2.18652 0.819362 0
M  V30 2566 C 248.754 -1.68698 -0.217915 0
M  V30 2567 O 249.939 -1.94041 -0.0785581 0
M  V30 2568 C 247.069 -3.46202 0.27594 0
M  V30 2569 C 246.023 -4.09444 1.24656 0
M  V30 2570 C 245.349 -5.31725 0.563258 0
M  V30 2571 C 246.649 -4.52863 2.60217 0
M  V30 2572 H 248.343 -2.44622 1.72628 0
M  V30 2573 H 245.889 -1.17571 0.831451 0
M  V30 2574 H 247.842 -4.21372 0.0486149 0
M  V30 2575 H 246.566 -3.1973 -0.666331 0
M  V30 2576 H 245.225 -3.36284 1.45974 0
M  V30 2577 H 244.873 -5.0153 -0.384235 0
M  V30 2578 H 244.573 -5.74991 1.21075 0
M  V30 2579 H 246.097 -6.09624 0.34503 0
M  V30 2580 H 247.511 -5.19294 2.42913 0
M  V30 2581 H 245.908 -5.06986 3.21068 0
M  V30 2582 H 246.978 -3.65656 3.18471 0
M  V30 2583 N 248.321 -0.919034 -1.28029 0
M  V30 2584 C 249.569 -0.553838 -1.94363 0
M  V30 2585 C 249.89 0.906357 -1.72656 0
M  V30 2586 O 249.16 1.64143 -1.0693 0
M  V30 2587 H 247.74 -0.201834 -0.719216 0
M  V30 2588 H 250.402 -1.16954 -1.55909 0
M  V30 2589 H 249.498 -0.752758 -3.02886 0
M  V30 2590 N 249.799 1.42003 -0.683588 0
M  V30 2591 C 251.046 2.01413 -0.209514 0
M  V30 2592 C 251.374 1.54088 1.1869 0
M  V30 2593 O 250.629 0.737591 1.81268 0
M  V30 2594 C 250.928 3.56827 -0.202357 0
M  V30 2595 C 250.594 4.23617 -1.54464 0
M  V30 2596 C 249.256 4.41577 -1.91215 0
M  V30 2597 C 251.608 4.61178 -2.42826 0
M  V30 2598 C 248.936 4.9437 -3.15935 0
M  V30 2599 C 251.288 5.15355 -3.66867 0
M  V30 2600 C 249.952 5.31528 -4.03776 0
M  V30 2601 H 249.222 0.737023 -0.0766668 0
M  V30 2602 H 251.869 1.70067 -0.880312 0
M  V30 2603 H 250.174 3.87892 0.551969 0
M  V30 2604 H 251.871 4.00588 0.181793 0
M  V30 2605 H 248.461 4.10004 -1.24877 0
M  V30 2606 H 252.645 4.46968 -2.15717 0
M  V30 2607 H 247.901 5.05076 -3.44541 0
M  V30 2608 H 252.075 5.43402 -4.35531 0
M  V30 2609 H 249.702 5.72199 -5.00492 0
M  V30 2610 N 251.277 0.427512 1.51691 0
M  V30 2611 C 252.693 0.0792977 1.59403 0
M  V30 2612 C 252.893 -1.41035 1.43914 0
M  V30 2613 O 251.949 -2.17922 1.27539 0
M  V30 2614 C 253.262 0.590636 2.94842 0
M  V30 2615 C 254.81 0.550215 3.08126 0
M  V30 2616 C 255.285 1.03836 4.46074 0
M  V30 2617 N 256.776 0.995943 4.52366 0
M  V30 2618 C 257.511 1.34463 5.57411 0
M  V30 2619 N 257.007 1.76569 6.69922 0
M  V30 2620 N 258.8 1.26343 5.47717 0
M  V30 2621 H 250.951 1.39687 1.60004 0
M  V30 2622 H 253.214 0.575003 0.753708 0
M  V30 2623 H 252.92 1.63251 3.11516 0
M  V30 2624 H 252.794 0.0102061 3.77199 0
M  V30 2625 H 255.181 -0.482654 2.91126 0
M  V30 2626 H 255.262 1.16693 2.27632 0
M  V30 2627 H 254.906 2.06965 4.63819 0
M  V30 2628 H 254.836 0.398286 5.25092 0
M  V30 2629 H 257.327 0.68661 3.7161 0
M  V30 2630 H 257.64 2.01438 7.46085 0
M  V30 2631 H 255.985 1.80488 6.71155 0
M  V30 2632 H 259.176 0.933209 4.58703 0
M  V30 2633 H 259.349 1.53846 6.29472 0
M  V30 2634 N 252.755 -1.56801 0.158532 0
M  V30 2635 C 253.702 -2.17337 -0.776729 0
M  V30 2636 C 254.672 -1.1096 -1.23601 0
M  V30 2637 O 255.857 -1.39054 -1.30647 0
M  V30 2638 C 252.997 -2.80822 -2.00582 0
M  V30 2639 C 252.11 -4.01624 -1.59129 0
M  V30 2640 C 251.245 -4.53072 -2.77306 0
M  V30 2641 C 250.284 -5.66314 -2.32282 0
M  V30 2642 N 249.421 -6.12329 -3.43508 0
M  V30 2643 H 254.261 -2.96918 -0.253701 0
M  V30 2644 H 251.798 -1.46661 -0.113504 0
M  V30 2645 H 253.756 -3.15779 -2.72652 0
M  V30 2646 H 252.386 -2.03866 -2.50277 0
M  V30 2647 H 251.438 -3.72571 -0.767806 0
M  V30 2648 H 252.75 -4.83633 -1.2207 0
M  V30 2649 H 251.904 -4.90145 -3.57551 0
M  V30 2650 H 250.643 -3.70095 -3.17617 0
M  V30 2651 H 249.648 -5.28806 -1.5048 0
M  V30 2652 H 250.873 -6.51085 -1.93043 0
M  V30 2653 H 248.819 -5.32284 -3.83418 0
M  V30 2654 H 248.736 -6.89293 -3.105 0
M  V30 2655 H 250.004 -6.5405 -4.24075 0
M  V30 2656 N 254.233 0.115231 -1.57178 0
M  V30 2657 C 255.461 0.836437 -1.89239 0
M  V30 2658 C 255.876 1.73256 -0.750175 0
M  V30 2659 O 255.233 1.80357 0.278832 0
M  V30 2660 C 255.284 1.66671 -3.20785 0
M  V30 2661 O 255.005 0.806652 -4.3061 0
M  V30 2662 C 256.506 2.49274 -3.66575 0
M  V30 2663 H 253.726 0.240253 -0.626514 0
M  V30 2664 H 256.27 0.0984932 -2.04263 0
M  V30 2665 H 254.425 2.35737 -3.0742 0
M  V30 2666 H 254.839 1.37969 -5.06028 0
M  V30 2667 H 256.313 3.03055 -4.6137 0
M  V30 2668 H 256.79 3.26807 -2.93417 0
M  V30 2669 H 257.396 1.85443 -3.82741 0
M  V30 2670 N 255.711 1.52812 0.385517 0
M  V30 2671 C 256.621 1.80766 1.49535 0
M  V30 2672 C 257.637 0.694651 1.59532 0
M  V30 2673 O 258.813 0.982611 1.75803 0
M  V30 2674 C 255.878 1.97381 2.85029 0
M  V30 2675 C 254.939 3.21295 2.84724 0
M  V30 2676 C 254.172 3.37108 4.13756 0
M  V30 2677 O 254.395 2.5765 5.08893 0
M  V30 2678 O 253.329 4.30378 4.20783 0
M  V30 2679 H 257.155 2.75015 1.28842 0
M  V30 2680 H 254.74 1.37946 0.573697 0
M  V30 2681 H 256.622 2.09996 3.65349 0
M  V30 2682 H 255.297 1.06322 3.05741 0
M  V30 2683 H 254.204 3.1412 2.03174 0
M  V30 2684 H 255.537 4.12212 2.68965 0
M  V30 2685 N 257.189 -0.644168 1.43834 0
M  V30 2686 C 258.438 -1.39985 1.45214 0
M  V30 2687 C 258.751 -1.95421 0.0835494 0
M  V30 2688 O 259.957 -2.71488 -0.0251748 0
M  V30 2689 C 258.413 -2.53384 2.55587 0
M  V30 2690 C 258.021 -2.04517 3.98594 0
M  V30 2691 C 259.765 -3.30685 2.66172 0
M  V30 2692 C 257.672 -3.1518 5.00416 0
M  V30 2693 H 256.602 -0.526005 0.540218 0
M  V30 2694 H 259.253 -0.694367 1.69855 0
M  V30 2695 H 257.635 -3.26446 2.24163 0
M  V30 2696 H 258.809 -1.38405 4.39523 0
M  V30 2697 H 257.124 -1.40068 3.92135 0
M  V30 2698 H 259.721 -4.13158 3.39418 0
M  V30 2699 H 260.064 -3.79312 1.71546 0
M  V30 2700 H 260.597 -2.64708 2.96942 0
M  V30 2701 H 257.336 -2.71511 5.96625 0
M  V30 2702 H 256.856 -3.79974 4.64091 0
M  V30 2703 H 258.535 -3.80166 5.23529 0
M  V30 2704 N 258.668 -1.30515 -0.883378 0
M  V30 2705 C 259.945 -1.10086 -1.6168 0
M  V30 2706 C 260.325 0.349269 -2.08191 0
M  V30 2707 O 259.673 1.34105 -1.85008 0
M  V30 2708 C 259.883 -2.10315 -2.78511 0
M  V30 2709 C 261.231 -2.42119 -3.48803 0
M  V30 2710 O 262.255 -2.08638 -2.88702 0
M  V30 2711 O 261.114 -2.99396 -4.57192 0
M  V30 2712 H 258.208 -0.422907 -0.710689 0
M  V30 2713 H 260.754 -1.41947 -0.930015 0
M  V30 2714 H 259.526 -3.07917 -2.41459 0
M  V30 2715 H 259.149 -1.79282 -3.54886 0
M  V30 2716 N 260.146 1.09593 -1.13257 0
M  V30 2717 C 261.056 2.19739 -0.821691 0
M  V30 2718 C 262.072 1.72926 0.19302 0
M  V30 2719 O 263.248 2.01385 0.0244895 0
M  V30 2720 C 260.313 3.45482 -0.290333 0
M  V30 2721 C 259.374 4.06985 -1.36607 0
M  V30 2722 C 258.607 5.26726 -0.859975 0
M  V30 2723 O 258.83 5.69594 0.303082 0
M  V30 2724 O 257.764 5.7931 -1.63351 0
M  V30 2725 H 261.59 2.48781 -1.74189 0
M  V30 2726 H 259.175 1.18496 -0.909894 0
M  V30 2727 H 261.057 4.214 0.000674022 0
M  V30 2728 H 259.732 3.18047 0.602306 0
M  V30 2729 H 258.639 3.32712 -1.71037 0
M  V30 2730 H 259.972 4.38643 -2.23279 0
M  V30 2731 N 261.624 0.925811 1.2754 0
M  V30 2732 C 262.871 0.565255 1.94451 0
M  V30 2733 C 263.199 -0.89316 1.7278 0
M  V30 2734 O 262.454 -1.65213 1.04895 0
M  V30 2735 C 262.753 0.835296 3.47502 0
M  V30 2736 C 262.419 2.27515 3.89291 0
M  V30 2737 C 261.081 2.66879 4.00411 0
M  V30 2738 C 263.433 3.21158 4.10496 0
M  V30 2739 C 260.761 3.99014 4.30122 0
M  V30 2740 C 263.113 4.52871 4.4169 0
M  V30 2741 C 261.777 4.92072 4.51023 0
M  V30 2742 H 261.047 0.206841 0.711546 0
M  V30 2743 H 263.694 1.16942 1.51647 0
M  V30 2744 H 261.999 0.148442 3.91519 0
M  V30 2745 H 263.696 0.535322 3.97411 0
M  V30 2746 H 260.286 1.95976 3.81171 0
M  V30 2747 H 264.47 2.9195 4.01346 0
M  V30 2748 H 259.726 4.2907 4.35556 0
M  V30 2749 H 263.9 5.25436 4.57045 0
M  V30 2750 H 261.527 5.9449 4.738 0
M  V30 2751 N 263.102 -1.41638 0.69111 0
M  V30 2752 C 264.035 -2.28183 -0.0274913 0
M  V30 2753 C 265.013 -1.41984 -0.792424 0
M  V30 2754 O 266.197 -1.71415 -0.784169 0
M  V30 2755 C 263.324 -3.22135 -1.04628 0
M  V30 2756 C 262.37 -4.24848 -0.375037 0
M  V30 2757 S 263.203 -5.28231 0.879321 0
M  V30 2758 C 264.359 -6.25748 -0.137983 0
M  V30 2759 H 264.592 -2.88782 0.706553 0
M  V30 2760 H 262.125 -1.46709 0.481222 0
M  V30 2761 H 264.083 -3.76797 -1.62894 0
M  V30 2762 H 262.744 -2.6064 -1.75287 0
M  V30 2763 H 261.937 -4.90837 -1.14433 0
M  V30 2764 H 261.539 -3.73758 0.134434 0
M  V30 2765 H 263.831 -6.70188 -0.992659 0
M  V30 2766 H 264.774 -7.06417 0.487867 0
M  V30 2767 H 265.182 -5.62363 -0.490762 0
M  V30 2768 N 264.58 -0.43555 -1.51462 0
M  V30 2769 C 265.51 0.367376 -2.30592 0
M  V30 2770 C 266.491 1.02263 -1.35928 0
M  V30 2771 O 267.676 1.02661 -1.64847 0
M  V30 2772 C 264.806 1.46983 -3.14664 0
M  V30 2773 C 263.76 0.938161 -4.17591 0
M  V30 2774 C 263.086 2.13622 -4.90173 0
M  V30 2775 C 264.386 -0.0261621 -5.22293 0
M  V30 2776 H 266.08 -0.292969 -2.97963 0
M  V30 2777 H 263.626 -0.14234 -1.43295 0
M  V30 2778 H 265.579 2.03873 -3.688 0
M  V30 2779 H 264.303 2.15843 -2.4511 0
M  V30 2780 H 262.962 0.391481 -3.64504 0
M  V30 2781 H 262.61 2.81098 -4.17124 0
M  V30 2782 H 262.31 1.78688 -5.59772 0
M  V30 2783 H 263.834 2.7107 -5.47132 0
M  V30 2784 H 265.248 0.452384 -5.71512 0
M  V30 2785 H 263.645 -0.287992 -5.99409 0
M  V30 2786 H 264.715 -0.963391 -4.75233 0
M  V30 2787 N 266.058 1.56714 -0.166846 0
M  V30 2788 C 266.968 2.21331 0.777791 0
M  V30 2789 C 267.984 1.20358 1.25658 0
M  V30 2790 O 269.16 1.53005 1.30964 0
M  V30 2791 C 266.225 2.83787 1.99163 0
M  V30 2792 C 265.286 3.99947 1.56016 0
M  V30 2793 C 264.519 4.59415 2.71613 0
M  V30 2794 O 264.742 4.17769 3.88362 0
M  V30 2795 O 263.676 5.49359 2.45945 0
M  V30 2796 H 267.502 3.02605 0.257636 0
M  V30 2797 H 265.087 1.49275 0.0611393 0
M  V30 2798 H 266.969 3.23405 2.70161 0
M  V30 2799 H 265.644 2.05513 2.50092 0
M  V30 2800 H 264.551 3.65007 0.819809 0
M  V30 2801 H 265.884 4.79801 1.09782 0
M  V30 2802 N 267.536 -0.106894 1.57237 0
M  V30 2803 C 268.499 -1.11466 2.0027 0
M  V30 2804 C 269.499 -1.33623 0.894519 0
M  V30 2805 O 270.689 -1.29935 1.16028 0
M  V30 2806 C 267.821 -2.46646 2.35327 0
M  V30 2807 H 269.014 -0.744516 2.90512 0
M  V30 2808 H 266.567 -0.351576 1.52295 0
M  V30 2809 H 267.302 -2.88558 1.48003 0
M  V30 2810 H 267.087 -2.31915 3.16161 0
M  V30 2811 H 268.577 -3.19151 2.69318 0
M  V30 2812 N 269.014 -1.53014 -0.377408 0
M  V30 2813 C 269.944 -1.81589 -1.46791 0
M  V30 2814 C 270.925 -0.668622 -1.56408 0
M  V30 2815 O 272.11 -0.917337 -1.71168 0
M  V30 2816 C 269.24 -1.99519 -2.8427 0
M  V30 2817 C 268.194 -3.15249 -2.89486 0
M  V30 2818 C 267.52 -3.18451 -4.29527 0
M  V30 2819 C 268.82 -4.54084 -2.58079 0
M  V30 2820 H 270.514 -2.7291 -1.23127 0
M  V30 2821 H 268.06 -1.31319 -0.590883 0
M  V30 2822 H 270.013 -2.18092 -3.60575 0
M  V30 2823 H 268.737 -1.04897 -3.09296 0
M  V30 2824 H 267.396 -2.96477 -2.15631 0
M  V30 2825 H 267.044 -2.2149 -4.5161 0
M  V30 2826 H 266.744 -3.962 -4.33934 0
M  V30 2827 H 268.268 -3.39193 -5.07721 0
M  V30 2828 H 269.682 -4.72899 -3.24098 0
M  V30 2829 H 268.079 -5.33987 -2.7382 0
M  V30 2830 H 269.149 -4.60006 -1.53372 0
M  V30 2831 N 270.492 0.636531 -1.44174 0
M  V30 2832 C 271.455 1.73063 -1.50273 0
M  V30 2833 C 272.455 1.56113 -0.385397 0
M  V30 2834 O 273.645 1.61707 -0.64781 0
M  V30 2835 C 270.777 3.12096 -1.37145 0
M  V30 2836 H 271.97 1.69031 -2.47727 0
M  V30 2837 H 269.523 0.849706 -1.31186 0
M  V30 2838 H 270.258 3.21728 -0.407636 0
M  V30 2839 H 270.043 3.25805 -2.18159 0
M  V30 2840 H 271.533 3.91846 -1.44382 0
M  V30 2841 N 271.97 1.30982 0.876444 0
M  V30 2842 C 273.195 1.23373 1.66715 0
M  V30 2843 C 273.62 -0.19885 1.87046 0
M  V30 2844 O 272.978 -1.1427 1.40756 0
M  V30 2845 C 273.026 1.97644 3.01611 0
M  V30 2846 O 272.13 1.30935 3.91062 0
M  V30 2847 H 271.471 0.426279 0.509099 0
M  V30 2848 H 274.001 1.72944 1.09323 0
M  V30 2849 H 274.011 2.06992 3.51594 0
M  V30 2850 H 272.686 3.01829 2.86133 0
M  V30 2851 H 271.263 1.29996 3.49507 0
M  V30 2852 N 273.449 -1.08991 1.13837 0
M  V30 2853 C 274.677 -1.85011 0.926202 0
M  V30 2854 C 275.092 -1.8135 -0.525127 0
M  V30 2855 O 274.449 -1.21287 -1.36366 0
M  V30 2856 C 274.5 -3.32802 1.41155 0
M  V30 2857 O 274.221 -3.36444 2.80601 0
M  V30 2858 C 275.722 -4.25649 1.23847 0
M  V30 2859 H 272.942 -0.584249 0.32999 0
M  V30 2860 H 275.486 -1.37688 1.51202 0
M  V30 2861 H 273.641 -3.77536 0.868631 0
M  V30 2862 H 274.055 -4.28657 3.02248 0
M  V30 2863 H 275.529 -5.27485 1.62675 0
M  V30 2864 H 276.006 -4.38828 0.18065 0
M  V30 2865 H 276.612 -3.86735 1.76964 0
M  V30 2866 N 274.927 -0.932562 -1.27047 0
M  V30 2867 C 276.155 -0.592031 -1.98249 0
M  V30 2868 C 276.57 0.831062 -1.69525 0
M  V30 2869 O 275.927 1.55299 -0.958561 0
M  V30 2870 C 275.978 -0.814279 -3.5221 0
M  V30 2871 O 275.699 -2.18139 -3.7993 0
M  V30 2872 C 277.2 -0.483121 -4.4066 0
M  V30 2873 H 274.42 -0.223896 -0.632544 0
M  V30 2874 H 276.964 -1.25091 -1.61779 0
M  V30 2875 H 275.119 -0.20213 -3.86872 0
M  V30 2876 H 275.533 -2.235 -4.74498 0
M  V30 2877 H 277.007 -0.689298 -5.47679 0
M  V30 2878 H 277.484 0.581546 -4.35333 0
M  V30 2879 H 278.09 -1.07362 -4.11526 0
M  V30 2880 N 276.405 1.4127 -0.698611 0
M  V30 2881 C 277.352 2.30773 -0.0352094 0
M  V30 2882 C 278.322 1.47273 0.768111 0
M  V30 2883 O 279.507 1.76053 0.735524 0
M  V30 2884 C 276.647 3.33346 0.893 0
M  V30 2885 C 275.76 4.31924 0.0809695 0
M  V30 2886 C 274.895 5.21566 1.0071 0
M  V30 2887 C 273.934 6.11811 0.188155 0
M  V30 2888 N 273.071 6.93926 1.06825 0
M  V30 2889 H 277.911 2.86943 -0.804207 0
M  V30 2890 H 275.448 1.4132 -0.408294 0
M  V30 2891 H 277.406 3.91368 1.44523 0
M  V30 2892 H 276.036 2.78719 1.62836 0
M  V30 2893 H 275.088 3.75825 -0.588224 0
M  V30 2894 H 276.4 4.95716 -0.553801 0
M  V30 2895 H 275.554 5.84437 1.62845 0
M  V30 2896 H 274.293 4.58008 1.67572 0
M  V30 2897 H 273.298 5.47986 -0.446254 0
M  V30 2898 H 274.523 6.77425 -0.476716 0
M  V30 2899 H 272.469 6.32973 1.72283 0
M  V30 2900 H 272.386 7.54416 0.489123 0
M  V30 2901 H 273.654 7.61262 1.67632 0
M  V30 2902 N 277.883 0.443576 1.51229 0
M  V30 2903 C 279.16 -0.181038 1.9476 0
M  V30 2904 C 279.54 -1.59523 1.38259 0
M  V30 2905 O 278.888 -2.2122 0.572198 0
M  V30 2906 C 279.098 -0.152422 3.48667 0
M  V30 2907 C 280.446 -0.354923 4.23114 0
M  V30 2908 O 281.47 -0.230257 3.55455 0
M  V30 2909 O 280.329 -0.603674 5.43156 0
M  V30 2910 H 277.423 -0.1266 0.817252 0
M  V30 2911 H 279.969 0.502004 1.62105 0
M  V30 2912 H 278.741 0.836022 3.82265 0
M  V30 2913 H 278.364 -0.878107 3.87782 0
M  V30 2914 N 279.361 -1.56624 0.175154 0
M  V30 2915 C 280.291 -2.21155 -0.749195 0
M  V30 2916 C 281.272 -1.16836 -1.23626 0
M  V30 2917 O 282.457 -1.45277 -1.28873 0
M  V30 2918 C 279.587 -2.8553 -1.97711 0
M  V30 2919 C 278.541 -3.95921 -1.62575 0
M  V30 2920 C 277.867 -4.47365 -2.92864 0
M  V30 2921 C 279.167 -5.15323 -0.850838 0
M  V30 2922 H 280.861 -2.98653 -0.211295 0
M  V30 2923 H 278.407 -1.43651 -0.100188 0
M  V30 2924 H 280.36 -3.2935 -2.62881 0
M  V30 2925 H 279.084 -2.05406 -2.53921 0
M  V30 2926 H 277.743 -3.52762 -0.997719 0
M  V30 2927 H 277.391 -3.64027 -3.47122 0
M  V30 2928 H 277.091 -5.21839 -2.70106 0
M  V30 2929 H 278.615 -4.93873 -3.59056 0
M  V30 2930 H 280.029 -5.55812 -1.40521 0
M  V30 2931 H 278.426 -5.95739 -0.722154 0
M  V30 2932 H 279.496 -4.84661 0.152082 0
M  V30 2933 N 280.839 0.0985539 -1.57292 0
M  V30 2934 C 282.064 0.820196 -1.90493 0
M  V30 2935 C 282.489 1.71658 -0.769094 0
M  V30 2936 O 281.847 1.79133 0.279495 0
M  V30 2937 C 281.895 1.61242 -3.22542 0
M  V30 2938 O 280.999 2.72108 -3.09888 0
M  V30 2939 H 280.34 0.225547 -0.62452 0
M  V30 2940 H 282.87 0.0748159 -2.04463 0
M  V30 2941 H 282.88 1.99737 -3.55766 0
M  V30 2942 H 281.555 0.954535 -4.04798 0
M  V30 2943 H 280.132 2.36667 -2.88172 0
M  V30 2944 N 282.317 1.53212 0.369288 0
M  V30 2945 C 283.563 1.69466 1.11397 0
M  V30 2946 C 283.896 0.443257 1.89074 0
M  V30 2947 O 283.171 -0.559386 1.86282 0
M  V30 2948 C 283.454 2.9422 2.07621 0
M  V30 2949 C 283.307 4.29508 1.33577 0
M  V30 2950 C 284.626 3.14565 3.07794 0
M  V30 2951 H 281.745 0.616667 0.403597 0
M  V30 2952 H 284.387 1.85845 0.395179 0
M  V30 2953 H 282.537 2.80387 2.68916 0
M  V30 2954 H 284.209 4.55147 0.750955 0
M  V30 2955 H 282.452 4.29088 0.637618 0
M  V30 2956 H 283.123 5.12926 2.03989 0
M  V30 2957 H 285.599 3.2756 2.56601 0
M  V30 2958 H 284.475 4.03297 3.72348 0
M  V30 2959 H 284.736 2.29675 3.77759 0
M  V30 2960 N 283.795 -0.628877 1.44509 0
M  V30 2961 C 285.072 -1.38733 1.37886 0
M  V30 2962 C 285.452 -2.11065 0.0387008 0
M  V30 2963 O 284.8 -2.06476 -0.97878 0
M  V30 2964 C 285.01 -2.35188 2.57852 0
M  V30 2965 C 286.358 -2.9845 3.02014 0
M  V30 2966 O 287.382 -2.45513 2.58073 0
M  V30 2967 O 286.241 -3.94487 3.78209 0
M  V30 2968 H 283.335 -0.621015 0.54614 0
M  V30 2969 H 285.881 -0.653744 1.56602 0
M  V30 2970 H 284.653 -1.80855 3.46998 0
M  V30 2971 H 284.276 -3.1596 2.4136 0
M  V30 2972 N 285.273 -1.31445 -0.869486 0
M  V30 2973 C 286.183 -1.21097 -2.0093 0
M  V30 2974 C 287.199 -0.127584 -1.73532 0
M  V30 2975 O 288.375 -0.345477 -1.98415 0
M  V30 2976 C 285.44 -0.919378 -3.34288 0
M  V30 2977 C 284.501 -2.08971 -3.75006 0
M  V30 2978 C 283.734 -1.81194 -5.02001 0
M  V30 2979 O 283.957 -0.747296 -5.65484 0
M  V30 2980 O 282.891 -2.66883 -5.39497 0
M  V30 2981 H 286.717 -2.16883 -2.12592 0
M  V30 2982 H 284.302 -1.11189 -0.997868 0
M  V30 2983 H 286.184 -0.772625 -4.14257 0
M  V30 2984 H 284.859 0.00844772 -3.23699 0
M  V30 2985 H 283.766 -2.29187 -2.95676 0
M  V30 2986 H 285.099 -2.9998 -3.90221 0
M  V30 2987 N 286.751 1.08385 -1.14413 0
M  V30 2988 C 287.684 2.14642 -0.774871 0
M  V30 2989 C 288.662 1.60761 0.243876 0
M  V30 2990 O 289.846 1.88031 0.132883 0
M  V30 2991 C 286.973 3.38366 -0.150491 0
M  V30 2992 C 286.019 4.10997 -1.13945 0
M  V30 2993 S 286.852 4.63797 -2.67679 0
M  V30 2994 C 288.008 5.90808 -2.06631 0
M  V30 2995 H 288.241 2.45633 -1.67487 0
M  V30 2996 H 285.774 1.20498 -0.96538 0
M  V30 2997 H 287.732 4.09996 0.203334 0
M  V30 2998 H 286.393 3.05572 0.72694 0
M  V30 2999 H 285.586 4.99783 -0.65059 0
M  V30 3000 H 285.188 3.4528 -1.43727 0
M  V30 3001 H 287.48 6.62411 -1.4219 0
M  V30 3002 H 288.423 6.4439 -2.93542 0
M  V30 3003 H 288.831 5.4383 -1.51357 0
M  V30 3004 N 288.23 0.939286 1.26551 0
M  V30 3005 C 289.476 0.586715 1.94128 0
M  V30 3006 C 289.809 -0.8717 1.73537 0
M  V30 3007 O 289.084 -1.62339 1.07127 0
M  V30 3008 C 289.367 0.927497 3.4795 0
M  V30 3009 C 289.22 2.44052 3.77834 0
M  V30 3010 C 290.539 0.441569 4.37879 0
M  V30 3011 H 287.658 0.21463 0.705055 0
M  V30 3012 H 290.3 1.17316 1.49455 0
M  V30 3013 H 288.45 0.428431 3.8613 0
M  V30 3014 H 290.122 3.01216 3.4938 0
M  V30 3015 H 288.365 2.8848 3.23978 0
M  V30 3016 H 289.036 2.62947 4.85348 0
M  V30 3017 H 291.512 0.869448 4.06915 0
M  V30 3018 H 290.388 0.708856 5.44304 0
M  V30 3019 H 290.649 -0.658467 4.37169 0
M  V30 3020 N 289.708 -1.40897 0.706093 0
M  V30 3021 C 290.671 -2.29131 0.0562841 0
M  V30 3022 C 291.671 -1.44901 -0.697166 0
M  V30 3023 O 292.861 -1.65926 -0.530484 0
M  V30 3024 C 289.993 -3.27957 -0.93043 0
M  V30 3025 H 291.186 -2.88091 0.833284 0
M  V30 3026 H 288.739 -1.4906 0.470192 0
M  V30 3027 H 289.474 -2.73997 -1.73482 0
M  V30 3028 H 289.259 -3.90124 -0.393166 0
M  V30 3029 H 290.749 -3.94049 -1.38256 0
M  V30 3030 N 291.186 -0.45159 -1.50991 0
M  V30 3031 C 292.116 0.342898 -2.30969 0
M  V30 3032 C 293.097 1.00815 -1.37005 0
M  V30 3033 O 294.282 1.00907 -1.65926 0
M  V30 3034 C 291.412 1.43637 -3.16205 0
M  V30 3035 C 290.366 0.893818 -4.18563 0
M  V30 3036 C 289.692 2.08411 -4.92411 0
M  V30 3037 C 290.992 -0.0815568 -5.22236 0
M  V30 3038 H 292.686 -0.324556 -2.97636 0
M  V30 3039 H 290.232 -0.157531 -1.43136 0
M  V30 3040 H 292.185 1.9995 -3.70942 0
M  V30 3041 H 290.909 2.13232 -2.47386 0
M  V30 3042 H 289.568 0.352798 -3.64898 0
M  V30 3043 H 289.216 2.76658 -4.20082 0
M  V30 3044 H 288.916 1.72741 -5.61636 0
M  V30 3045 H 290.44 2.65251 -5.49976 0
M  V30 3046 H 291.854 0.391742 -5.7196 0
M  V30 3047 H 290.251 -0.351551 -5.99069 0
M  V30 3048 H 291.321 -1.01374 -4.74185 0
M  V30 3049 N 292.664 1.56529 -0.183458 0
M  V30 3050 C 293.91 1.97537 0.459036 0
M  V30 3051 C 294.243 1.06989 1.62071 0
M  V30 3052 O 293.518 0.11948 1.94133 0
M  V30 3053 C 293.801 3.47874 0.930368 0
M  V30 3054 C 293.654 4.492 -0.232317 0
M  V30 3055 C 294.973 4.01612 1.79989 0
M  V30 3056 H 292.092 0.718204 0.165383 0
M  V30 3057 H 294.734 1.88042 -0.272038 0
M  V30 3058 H 292.884 3.56095 1.55333 0
M  V30 3059 H 294.556 4.53027 -0.86972 0
M  V30 3060 H 292.799 4.24657 -0.885928 0
M  V30 3061 H 293.47 5.51823 0.139796 0
M  V30 3062 H 295.946 3.96097 1.27461 0
M  V30 3063 H 294.822 5.07195 2.09867 0
M  V30 3064 H 295.083 3.46163 2.74998 0
M  V30 3065 N 294.142 -0.090211 1.57342 0
M  V30 3066 C 295.075 -1.14035 1.97664 0
M  V30 3067 C 296.053 -1.38576 0.850616 0
M  V30 3068 O 297.237 -1.52255 1.11134 0
M  V30 3069 C 294.364 -2.48854 2.2976 0
M  V30 3070 C 293.41 -2.40564 3.52181 0
M  V30 3071 S 294.243 -1.81745 5.03715 0
M  V30 3072 C 295.399 -3.18178 5.38993 0
M  V30 3073 H 295.632 -0.796636 2.86428 0
M  V30 3074 H 293.165 -0.298072 1.51496 0
M  V30 3075 H 295.123 -3.26413 2.48927 0
M  V30 3076 H 293.784 -2.80393 1.41558 0
M  V30 3077 H 292.977 -3.39942 3.72096 0
M  V30 3078 H 292.579 -1.71135 3.32549 0
M  V30 3079 H 294.871 -4.14461 5.35937 0
M  V30 3080 H 295.814 -3.03062 6.39968 0
M  V30 3081 H 296.222 -3.17935 4.66452 0
M  V30 3082 N 295.62 -1.53406 -0.361157 0
M  V30 3083 C 296.567 -1.80156 -1.44265 0
M  V30 3084 C 297.537 -0.646183 -1.53015 0
M  V30 3085 O 298.722 -0.888818 -1.68833 0
M  V30 3086 C 295.862 -2.00116 -2.81154 0
M  V30 3087 C 294.975 -3.27833 -2.81335 0
M  V30 3088 C 294.11 -3.37957 -4.09828 0
M  V30 3089 C 293.149 -4.59689 -4.04168 0
M  V30 3090 N 292.286 -4.66942 -5.24318 0
M  V30 3091 H 297.126 -2.72438 -1.20754 0
M  V30 3092 H 294.663 -1.34954 -0.585296 0
M  V30 3093 H 296.621 -2.09677 -3.60682 0
M  V30 3094 H 295.251 -1.11167 -3.03054 0
M  V30 3095 H 294.303 -3.27204 -1.94014 0
M  V30 3096 H 295.615 -4.17442 -2.73027 0
M  V30 3097 H 294.769 -3.46853 -4.97773 0
M  V30 3098 H 293.508 -2.46372 -4.20894 0
M  V30 3099 H 292.513 -4.50889 -3.14609 0
M  V30 3100 H 293.738 -5.5262 -3.947 0
M  V30 3101 H 291.684 -3.7826 -5.35962 0
M  V30 3102 H 291.601 -5.50462 -5.18197 0
M  V30 3103 H 292.869 -4.80127 -6.14084 0
M  V30 3104 N 297.098 0.621204 -1.44841 0
M  V30 3105 C 298.061 1.71459 -1.521 0
M  V30 3106 C 299.061 1.55696 -0.401933 0
M  V30 3107 O 300.251 1.61011 -0.664925 0
M  V30 3108 C 297.383 3.10624 -1.40447 0
M  V30 3109 H 298.576 1.66394 -2.49506 0
M  V30 3110 H 296.129 0.835745 -1.3208 0
M  V30 3111 H 296.864 3.21277 -0.441737 0
M  V30 3112 H 296.649 3.23473 -2.21602 0
M  V30 3113 H 298.139 3.90293 -1.4853 0
M  V30 3114 N 298.576 1.31904 0.862503 0
M  V30 3115 C 299.824 1.21776 1.61292 0
M  V30 3116 C 300.145 -0.222413 1.93727 0
M  V30 3117 O 299.415 -1.1451 1.58947 0
M  V30 3118 H 297.995 0.447717 0.597962 0
M  V30 3119 H 300.657 1.65326 1.03215 0
M  V30 3120 H 299.753 1.7948 2.5533 0
M  V30 3121 N 300.054 -1.07777 1.14986 0
M  V30 3122 C 301.302 -1.79934 0.920235 0
M  V30 3123 C 301.623 -1.86955 -0.554336 0
M  V30 3124 O 300.893 -1.36731 -1.40291 0
M  V30 3125 H 299.473 -0.666424 0.337473 0
M  V30 3126 H 302.135 -1.3027 1.44968 0
M  V30 3127 H 301.231 -2.82539 1.32583 0
M  V30 3128 N 301.532 -0.945985 -1.26051 0
M  V30 3129 C 302.465 -0.403619 -2.24602 0
M  V30 3130 C 303.443 0.510241 -1.54387 0
M  V30 3131 O 304.627 0.446593 -1.83133 0
M  V30 3132 C 301.754 0.419564 -3.36091 0
M  V30 3133 C 300.8 -0.433454 -4.24292 0
M  V30 3134 S 301.633 -1.86037 -5.02146 0
M  V30 3135 C 302.789 -1.04538 -6.17108 0
M  V30 3136 H 303.022 -1.23883 -2.7026 0
M  V30 3137 H 300.555 -0.749438 -1.34992 0
M  V30 3138 H 302.513 0.888595 -4.00767 0
M  V30 3139 H 301.174 1.22951 -2.89036 0
M  V30 3140 H 300.367 0.197486 -5.03613 0
M  V30 3141 H 299.969 -0.837357 -3.64506 0
M  V30 3142 H 302.261 -0.289923 -6.76879 0
M  V30 3143 H 303.204 -1.81222 -6.84518 0
M  V30 3144 H 303.612 -0.579319 -5.61519 0
M  V30 3145 N 303.011 1.40521 -0.713556 0
M  V30 3146 C 303.974 2.29098 -0.0684347 0
M  V30 3147 C 304.974 1.45268 0.689472 0
M  V30 3148 O 306.164 1.66205 0.521677 0
M  V30 3149 C 303.296 3.28446 0.913024 0
M  V30 3150 H 304.489 2.87645 -0.84855 0
M  V30 3151 H 302.042 1.48809 -0.47809 0
M  V30 3152 H 302.777 2.74913 1.72027 0
M  V30 3153 H 302.562 3.90327 0.372472 0
M  V30 3154 H 304.052 3.94777 1.36165 0
M  V30 3155 N 304.489 0.459591 1.5075 0
M  V30 3156 C 305.735 -0.0994966 2.02556 0
M  V30 3157 C 306.068 -1.40399 1.3417 0
M  V30 3158 O 305.343 -1.88892 0.463683 0
M  V30 3159 C 305.626 -0.295242 3.58888 0
M  V30 3160 C 305.479 1.02947 4.37861 0
M  V30 3161 C 306.798 -1.05502 4.27267 0
M  V30 3162 H 303.917 -0.034686 0.736183 0
M  V30 3163 H 306.559 0.602938 1.8018 0
M  V30 3164 H 304.709 -0.893563 3.78084 0
M  V30 3165 H 306.381 1.66348 4.30263 0
M  V30 3166 H 304.624 1.62885 4.02058 0
M  V30 3167 H 305.295 0.846281 5.45474 0
M  V30 3168 H 307.771 -0.547993 4.12476 0
M  V30 3169 H 306.647 -1.16077 5.36486 0
M  V30 3170 H 306.908 -2.08875 3.89645 0
M  V30 3171 N 305.967 -1.56429 0.191757 0
M  V30 3172 C 307.195 -2.01867 -0.453586 0
M  V30 3173 C 307.61 -1.07191 -1.5542 0
M  V30 3174 O 306.967 -0.0762108 -1.82341 0
M  V30 3175 C 307.018 -3.47017 -1.013 0
M  V30 3176 O 306.739 -4.38078 0.0437005 0
M  V30 3177 C 308.24 -4.07956 -1.73456 0
M  V30 3178 H 305.46 -0.661211 -0.114199 0
M  V30 3179 H 308.004 -2.02295 0.299483 0
M  V30 3180 H 306.159 -3.47298 -1.71647 0
M  V30 3181 H 306.573 -5.23178 -0.372212 0
M  V30 3182 H 308.047 -5.1138 -2.07833 0
M  V30 3183 H 308.524 -3.51222 -2.63704 0
M  V30 3184 H 309.13 -4.11437 -1.07702 0
M  V30 3185 N 307.445 0.0818655 -1.57387 0
M  V30 3186 C 308.673 0.796108 -1.9097 0
M  V30 3187 C 309.088 1.71626 -0.786757 0
M  V30 3188 O 308.445 1.80908 0.240513 0
M  V30 3189 C 308.496 1.59829 -3.24248 0
M  V30 3190 O 308.217 0.715131 -4.32224 0
M  V30 3191 C 309.718 2.41442 -3.7178 0
M  V30 3192 H 306.938 0.22691 -0.631469 0
M  V30 3193 H 309.482 0.0551439 -2.04426 0
M  V30 3194 H 307.637 2.29163 -3.12351 0
M  V30 3195 H 308.051 1.27205 -5.08841 0
M  V30 3196 H 309.525 2.932 -4.67694 0
M  V30 3197 H 310.002 3.2051 -3.00283 0
M  V30 3198 H 310.608 1.77283 -3.86589 0
M  V30 3199 N 308.923 1.53595 0.353017 0
M  V30 3200 C 309.856 1.7572 1.45594 0
M  V30 3201 C 310.834 0.605961 1.50887 0
M  V30 3202 O 312.018 0.840023 1.68748 0
M  V30 3203 C 309.145 1.84732 2.83887 0
M  V30 3204 C 308.191 3.06808 2.96262 0
M  V30 3205 S 309.024 4.66065 2.63711 0
M  V30 3206 C 310.18 4.77943 4.04131 0
M  V30 3207 H 310.413 2.68994 1.26608 0
M  V30 3208 H 307.946 1.44343 0.548117 0
M  V30 3209 H 309.904 1.9061 3.63563 0
M  V30 3210 H 308.565 0.92488 3.00175 0
M  V30 3211 H 307.758 3.09761 3.97573 0
M  V30 3212 H 307.36 2.99108 2.24523 0
M  V30 3213 H 309.652 4.5877 4.98534 0
M  V30 3214 H 310.595 5.80022 4.06177 0
M  V30 3215 H 311.003 4.06472 3.91715 0
M  V30 3216 N 310.401 -0.613514 1.45168 0
M  V30 3217 C 311.364 -1.7065 1.53007 0
M  V30 3218 C 312.364 -1.5548 0.410184 0
M  V30 3219 O 313.554 -1.60656 0.673455 0
M  V30 3220 C 310.686 -3.09875 1.42093 0
M  V30 3221 H 311.879 -1.65068 2.50385 0
M  V30 3222 H 309.432 -0.828728 1.32521 0
M  V30 3223 H 310.167 -3.21039 0.458769 0
M  V30 3224 H 309.952 -3.22293 2.23315 0
M  V30 3225 H 311.442 -3.895 1.50598 0
M  V30 3226 N 311.879 -1.3236 -0.855495 0
M  V30 3227 C 312.809 -1.23833 -1.97958 0
M  V30 3228 C 313.79 -0.122361 -1.69659 0
M  V30 3229 O 314.975 -0.30939 -1.9172 0
M  V30 3230 C 312.105 -0.959772 -3.33775 0
M  V30 3231 C 311.059 -2.03689 -3.76424 0
M  V30 3232 C 310.385 -1.61075 -5.09862 0
M  V30 3233 C 311.685 -3.4518 -3.9198 0
M  V30 3234 H 313.379 -2.1788 -2.0535 0
M  V30 3235 H 310.925 -1.04891 -0.986605 0
M  V30 3236 H 312.878 -0.886678 -4.11966 0
M  V30 3237 H 311.602 0.0163404 -3.26596 0
M  V30 3238 H 310.261 -2.10012 -3.00484 0
M  V30 3239 H 309.909 -0.622107 -4.99138 0
M  V30 3240 H 309.609 -2.33143 -5.39368 0
M  V30 3241 H 311.133 -1.55201 -5.90546 0
M  V30 3242 H 312.547 -3.4145 -4.60526 0
M  V30 3243 H 310.944 -4.1559 -4.32903 0
M  V30 3244 H 312.014 -3.84903 -2.94919 0
M  V30 3245 N 313.357 1.07166 -1.15556 0
M  V30 3246 C 314.287 2.16403 -0.877046 0
M  V30 3247 C 315.268 1.69217 0.173111 0
M  V30 3248 O 316.453 1.94181 0.027084 0
M  V30 3249 C 313.583 3.45349 -0.367632 0
M  V30 3250 C 312.537 4.05995 -1.35468 0
M  V30 3251 C 311.863 5.30045 -0.704038 0
M  V30 3252 C 313.163 4.45804 -2.72132 0
M  V30 3253 H 314.857 2.39959 -1.79053 0
M  V30 3254 H 312.403 1.15325 -0.862331 0
M  V30 3255 H 314.356 4.21095 -0.160317 0
M  V30 3256 H 313.08 3.21385 0.581326 0
M  V30 3257 H 311.739 3.32296 -1.54839 0
M  V30 3258 H 311.387 5.02373 0.251128 0
M  V30 3259 H 311.087 5.71579 -1.36277 0
M  V30 3260 H 312.611 6.08495 -0.50654 0
M  V30 3261 H 314.025 5.12671 -2.56595 0
M  V30 3262 H 312.422 4.98296 -3.34397 0
M  V30 3263 H 313.492 3.57083 -3.28054 0
M  V30 3264 N 314.835 0.952656 1.25548 0
M  V30 3265 C 316.112 0.523818 1.88456 0
M  V30 3266 C 316.492 -0.998871 1.85973 0
M  V30 3267 O 315.84 -1.86381 1.3219 0
M  V30 3268 C 316.05 1.0982 3.31271 0
M  V30 3269 C 317.398 1.17385 4.08051 0
M  V30 3270 O 318.422 1.04961 3.40384 0
M  V30 3271 O 317.281 1.36852 5.29088 0
M  V30 3272 H 314.375 0.172485 0.808813 0
M  V30 3273 H 316.921 1.04596 1.33633 0
M  V30 3274 H 315.693 2.1415 3.27499 0
M  V30 3275 H 315.316 0.559191 3.93648 0
M  V30 3276 N 316.313 -1.40141 0.720998 0
M  V30 3277 C 317.223 -2.34486 0.0731031 0
M  V30 3278 C 318.239 -1.57587 -0.737723 0
M  V30 3279 O 319.415 -1.89949 -0.669429 0
M  V30 3280 C 316.48 -3.36528 -0.833656 0
M  V30 3281 C 315.541 -4.29298 -0.0121673 0
M  V30 3282 C 314.774 -5.26466 -0.875742 0
M  V30 3283 O 314.997 -5.29745 -2.11485 0
M  V30 3284 O 313.931 -6.01092 -0.31185 0
M  V30 3285 H 317.757 -2.9152 0.851444 0
M  V30 3286 H 315.342 -1.41427 0.481527 0
M  V30 3287 H 317.224 -3.99093 -1.35289 0
M  V30 3288 H 315.899 -2.81899 -1.59105 0
M  V30 3289 H 314.806 -3.70001 0.552262 0
M  V30 3290 H 316.139 -4.87094 0.707129 0
M  V30 3291 N 317.792 -0.46758 -1.50504 0
M  V30 3292 C 318.755 0.317059 -2.26996 0
M  V30 3293 C 319.755 0.923513 -1.31635 0
M  V30 3294 O 320.945 0.793239 -1.55091 0
M  V30 3295 C 318.077 1.45134 -3.08462 0
M  V30 3296 H 319.27 -0.353723 -2.97807 0
M  V30 3297 H 316.823 -0.221545 -1.54722 0
M  V30 3298 H 317.558 2.15728 -2.4214 0
M  V30 3299 H 317.343 1.02232 -3.78538 0
M  V30 3300 H 318.833 2.00493 -3.66323 0
M  V30 3301 N 319.27 1.56325 -0.20005 0
M  V30 3302 C 320.218 2.20666 0.735482 0
M  V30 3303 C 321.212 1.17934 1.21605 0
M  V30 3304 O 322.418 1.36068 1.17837 0
M  V30 3305 H 318.793 0.70725 0.255542 0
M  V30 3306 H 320.764 2.9792 0.169166 0
M  V30 3307 C 319.513 2.88391 1.94232 0
M  V30 3308 H 318.836 3.67185 1.58161 0
M  V30 3309 H 320.276 3.3684 2.57517 0
M  V30 3310 C 318.735 1.89692 2.78421 0
M  V30 3311 O 319.265 1.40032 3.76502 0
M  V30 3312 N 317.471 1.57813 2.44015 0
M  V30 3313 H 317.018 1.9839 1.64314 0
M  V30 3314 H 316.976 0.920325 3.00628 0
M  V30 3315 N 320.748 -0.0735177 1.57428 0
M  V30 3316 C 321.976 -0.785969 1.9139 0
M  V30 3317 C 322.391 -1.71207 0.795847 0
M  V30 3318 O 321.748 -1.81033 -0.230915 0
M  V30 3319 C 321.799 -1.58107 3.25091 0
M  V30 3320 O 321.52 -0.6922 4.32597 0
M  V30 3321 C 323.021 -2.39467 3.73055 0
M  V30 3322 H 320.241 -0.223558 0.632663 0
M  V30 3323 H 322.785 -0.044302 2.04452 0
M  V30 3324 H 320.94 -2.27503 3.13562 0
M  V30 3325 H 321.354 -1.24504 5.09508 0
M  V30 3326 H 322.828 -2.90716 4.69242 0
M  V30 3327 H 323.305 -3.18913 3.01979 0
M  V30 3328 H 323.911 -1.7523 3.87523 0
M  V30 3329 N 322.226 -1.5378 -0.344866 0
M  V30 3330 C 323.454 -1.74899 -1.10534 0
M  V30 3331 C 323.869 -0.487534 -1.82397 0
M  V30 3332 O 323.226 0.540741 -1.74305 0
M  V30 3333 C 323.277 -2.92822 -2.11984 0
M  V30 3334 O 322.998 -4.14089 -1.43044 0
M  V30 3335 C 324.499 -3.25982 -3.00417 0
M  V30 3336 H 321.719 -0.584426 -0.329678 0
M  V30 3337 H 324.263 -2.006 -0.397474 0
M  V30 3338 H 322.418 -2.69457 -2.78338 0
M  V30 3339 H 322.832 -4.80272 -2.10805 0
M  V30 3340 H 324.306 -4.11848 -3.67539 0
M  V30 3341 H 324.783 -2.42228 -3.66363 0
M  V30 3342 H 325.389 -3.51349 -2.39654 0
M  V30 3343 N 323.704 0.605807 -1.45491 0
M  V30 3344 C 324.932 1.39136 -1.5313 0
M  V30 3345 C 325.347 1.88082 -0.164507 0
M  V30 3346 O 324.704 1.62316 0.834247 0
M  V30 3347 C 324.755 2.59463 -2.51716 0
M  V30 3348 O 324.476 2.12551 -3.83084 0
M  V30 3349 C 325.977 3.52301 -2.6907 0
M  V30 3350 H 323.197 0.425849 -0.51855 0
M  V30 3351 H 325.741 0.73865 -1.90694 0
M  V30 3352 H 323.896 3.20772 -2.17219 0
M  V30 3353 H 324.31 2.90744 -4.36541 0
M  V30 3354 H 325.784 4.33271 -3.42024 0
M  V30 3355 H 326.261 4.02757 -1.75167 0
M  V30 3356 H 326.867 2.96845 -3.04571 0
M  V30 3357 N 325.182 1.32811 0.848464 0
M  V30 3358 C 326.412 1.26556 1.63301 0
M  V30 3359 C 326.82 -0.1676 1.88456 0
M  V30 3360 O 326.163 -1.11713 1.45828 0
M  V30 3361 C 326.225 1.96202 3.01239 0
M  V30 3362 C 325.889 3.45528 2.99098 0
M  V30 3363 C 326.886 4.40903 2.75501 0
M  V30 3364 C 324.571 3.87558 3.19537 0
M  V30 3365 C 326.565 5.76282 2.72356 0
M  V30 3366 C 324.252 5.23044 3.16019 0
M  V30 3367 C 325.25 6.17217 2.92458 0
M  V30 3368 O 324.938 7.50223 2.88825 0
M  V30 3369 H 324.67 0.43771 0.515156 0
M  V30 3370 H 327.224 1.7559 1.0657 0
M  V30 3371 H 325.454 1.41746 3.59785 0
M  V30 3372 H 327.143 1.83573 3.62016 0
M  V30 3373 H 327.909 4.09756 2.5947 0
M  V30 3374 H 323.788 3.14674 3.369 0
M  V30 3375 H 327.332 6.4976 2.53886 0
M  V30 3376 H 323.229 5.53818 3.31596 0
M  V30 3377 H 323.997 7.59657 3.04735 0
M  V30 3378 N 326.66 -1.06551 1.16123 0
M  V30 3379 C 327.908 -1.78947 0.939267 0
M  V30 3380 C 328.229 -1.87532 -0.534476 0
M  V30 3381 O 327.499 -1.38211 -1.38833 0
M  V30 3382 H 326.079 -0.662807 0.344523 0
M  V30 3383 H 328.741 -1.28725 1.46342 0
M  V30 3384 H 327.837 -2.81117 1.35572 0
M  V30 3385 N 328.138 -0.959301 -1.25041 0
M  V30 3386 C 329.086 -0.474437 -2.2771 0
M  V30 3387 C 330.08 0.457697 -1.631 0
M  V30 3388 O 331.286 0.333912 -1.76876 0
M  V30 3389 H 327.661 -0.134936 -0.739795 0
M  V30 3390 H 329.632 -1.35251 -2.65988 0
M  V30 3391 C 328.381 0.227884 -3.46952 0
M  V30 3392 H 327.704 -0.480248 -3.96905 0
M  V30 3393 H 329.144 0.531091 -4.20661 0
M  V30 3394 C 327.603 1.452 -3.04004 0
M  V30 3395 O 328.133 2.54949 -3.10426 0
M  V30 3396 N 326.339 1.31502 -2.59144 0
M  V30 3397 H 325.886 0.422065 -2.54119 0
M  V30 3398 H 325.844 2.13521 -2.30773 0
M  V30 3399 N 329.616 1.39756 -0.72842 0
M  V30 3400 C 331.027 1.83498 -0.344289 0
M  V30 3401 C 331.378 1.60868 1.12321 0
M  V30 3402 O 330.503 1.09634 1.86573 0
M  V30 3403 C 331.098 3.33114 -0.618112 0
M  V30 3404 C 329.657 3.753 -0.287549 0
M  V30 3405 C 328.804 2.62831 -0.884048 0
M  V30 3406 H 331.755 1.28842 -0.926578 0
M  V30 3407 H 331.776 3.80334 0.112349 0
M  V30 3408 H 331.288 3.49553 -1.68625 0
M  V30 3409 H 329.389 3.64451 0.775012 0
M  V30 3410 H 329.502 4.72945 -0.765512 0
M  V30 3411 H 327.866 2.52792 -0.311149 0
M  V30 3412 H 328.649 2.82078 -1.95671 0
M  V30 3413 N 331.094 0.475555 1.50254 0
M  V30 3414 C 332.004 -0.321501 2.32387 0
M  V30 3415 C 333.02 -0.991755 1.42969 0
M  V30 3416 O 334.196 -0.978747 1.76018 0
M  V30 3417 C 331.261 -1.38667 3.17762 0
M  V30 3418 C 330.322 -0.732538 4.23004 0
M  V30 3419 C 329.555 -1.74695 5.04299 0
M  V30 3420 O 329.778 -2.97399 4.86734 0
M  V30 3421 O 328.712 -1.31631 5.8733 0
M  V30 3422 H 332.538 0.350071 3.01676 0
M  V30 3423 H 330.123 0.237321 1.47503 0
M  V30 3424 H 332.005 -2.00354 3.70724 0
M  V30 3425 H 330.68 -2.04163 2.51196 0
M  V30 3426 H 329.587 -0.0765902 3.74022 0
M  V30 3427 H 330.92 -0.120452 4.92053 0
M  V30 3428 N 332.573 -1.56217 0.208337 0
M  V30 3429 C 333.822 -1.97124 -0.427204 0
M  V30 3430 C 334.135 -1.09859 -1.61835 0
M  V30 3431 O 335.341 -1.40606 -2.32255 0
M  V30 3432 C 333.797 -3.50633 -0.811442 0
M  V30 3433 C 333.405 -4.46582 0.35615 0
M  V30 3434 C 335.149 -4.00282 -1.41332 0
M  V30 3435 C 333.056 -5.91379 -0.0497852 0
M  V30 3436 H 331.986 -0.736086 -0.163381 0
M  V30 3437 H 334.637 -1.8099 0.302456 0
M  V30 3438 H 333.019 -3.62319 -1.59815 0
M  V30 3439 H 334.193 -4.46636 1.1337 0
M  V30 3440 H 332.508 -4.07202 0.870396 0
M  V30 3441 H 335.105 -5.0595 -1.72972 0
M  V30 3442 H 335.448 -3.45359 -2.32449 0
M  V30 3443 H 335.981 -3.91764 -0.690323 0
M  V30 3444 H 332.72 -6.50255 0.827529 0
M  V30 3445 H 332.24 -5.94549 -0.791926 0
M  V30 3446 H 333.919 -6.45209 -0.481042 0
M  V30 3447 N 334.051 0.0651679 -1.57465 0
M  V30 3448 C 335.279 0.775808 -1.91804 0
M  V30 3449 C 335.694 1.70782 -0.804916 0
M  V30 3450 O 335.051 1.81153 0.221311 0
M  V30 3451 C 335.102 1.56381 -3.25925 0
M  V30 3452 O 334.823 0.669248 -4.32958 0
M  V30 3453 C 336.324 2.37485 -3.7432 0
M  V30 3454 H 333.544 0.2202 -0.63384 0
M  V30 3455 H 336.088 0.0334587 -2.04473 0
M  V30 3456 H 334.243 2.25837 -3.14764 0
M  V30 3457 H 334.657 1.21801 -5.10162 0
M  V30 3458 H 336.131 2.88223 -4.70778 0
M  V30 3459 H 336.608 3.17307 -3.03666 0
M  V30 3460 H 337.214 1.73173 -3.88447 0
M  V30 3461 N 335.529 1.53961 0.336706 0
M  V30 3462 C 336.461 1.78751 1.4346 0
M  V30 3463 C 337.474 0.669019 1.48418 0
M  V30 3464 O 338.663 0.945884 1.51378 0
M  V30 3465 C 335.763 1.87844 2.82078 0
M  V30 3466 C 334.936 3.17854 3.00479 0
M  V30 3467 C 333.995 3.17816 4.19379 0
M  V30 3468 O 333.021 3.91511 4.13168 0
M  V30 3469 N 334.223 2.40669 5.2826 0
M  V30 3470 H 336.988 2.73493 1.22563 0
M  V30 3471 H 334.549 1.53096 0.526625 0
M  V30 3472 H 336.541 1.85261 3.59806 0
M  V30 3473 H 335.111 1.00257 2.96086 0
M  V30 3474 H 334.331 3.33504 2.10163 0
M  V30 3475 H 335.619 4.03718 3.0966 0
M  V30 3476 H 335.017 1.8036 5.36178 0
M  V30 3477 H 333.574 2.43877 6.04456 0
M  V30 3478 N 337.007 -0.598083 1.45811 0
M  V30 3479 C 338.253 -1.35882 1.50545 0
M  V30 3480 C 338.586 -1.93616 0.150445 0
M  V30 3481 O 337.861 -1.75604 -0.83628 0
M  V30 3482 C 338.144 -2.49966 2.59208 0
M  V30 3483 C 337.997 -1.97367 4.04186 0
M  V30 3484 C 339.316 -3.52068 2.64076 0
M  V30 3485 H 336.435 -0.492717 0.548087 0
M  V30 3486 H 339.077 -0.673319 1.77669 0
M  V30 3487 H 337.227 -3.08443 2.3621 0
M  V30 3488 H 338.899 -1.43466 4.38423 0
M  V30 3489 H 337.142 -1.283 4.14393 0
M  V30 3490 H 337.813 -2.79649 4.75921 0
M  V30 3491 H 340.289 -3.03448 2.84708 0
M  V30 3492 H 339.165 -4.2937 3.41954 0
M  V30 3493 H 339.426 -4.08304 1.69531 0
M  V30 3494 N 338.485 -1.33259 -0.841409 0
M  V30 3495 C 339.433 -1.23279 -1.97244 0
M  V30 3496 C 340.427 -0.134706 -1.68864 0
M  V30 3497 O 341.633 -0.298501 -1.77508 0
M  V30 3498 H 338.008 -0.382497 -0.647457 0
M  V30 3499 H 339.979 -2.18906 -2.02787 0
M  V30 3500 C 338.728 -0.986268 -3.33419 0
M  V30 3501 H 338.051 -1.82347 -3.55794 0
M  V30 3502 H 339.491 -0.956728 -4.13065 0
M  V30 3503 C 337.95 0.310842 -3.35463 0
M  V30 3504 O 338.48 1.31838 -3.79449 0
M  V30 3505 N 336.686 0.337485 -2.88634 0
M  V30 3506 H 336.233 -0.482967 -2.53032 0
M  V30 3507 H 336.191 1.20518 -2.90384 0
M  V30 3508 N 339.963 1.05934 -1.16686 0
M  V30 3509 C 341.212 1.78188 -0.945085 0
M  V30 3510 C 341.525 1.88338 0.528021 0
M  V30 3511 O 342.731 2.57258 0.867799 0
M  V30 3512 C 341.187 3.20277 -1.64167 0
M  V30 3513 C 340.795 3.18281 -3.15279 0
M  V30 3514 C 342.539 3.97039 -1.502 0
M  V30 3515 C 340.446 4.55112 -3.7766 0
M  V30 3516 H 339.376 0.667866 -0.349959 0
M  V30 3517 H 342.027 1.18794 -1.39858 0
M  V30 3518 H 340.409 3.79952 -1.11589 0
M  V30 3519 H 341.583 2.68167 -3.74731 0
M  V30 3520 H 339.898 2.55018 -3.29173 0
M  V30 3521 H 342.495 4.98194 -1.94183 0
M  V30 3522 H 342.838 4.13845 -0.451461 0
M  V30 3523 H 343.371 3.43894 -1.99954 0
M  V30 3524 H 340.11 4.43512 -4.82677 0
M  V30 3525 H 339.63 5.05406 -3.22994 0
M  V30 3526 H 341.309 5.24064 -3.79428 0
M  V30 3527 N 341.441 0.965919 1.2453 0
M  V30 3528 C 342.689 0.625593 1.92174 0
M  V30 3529 C 343.01 -0.841652 1.75901 0
M  V30 3530 O 342.28 -1.60061 1.12948 0
M  V30 3531 H 340.86 0.228388 0.71123 0
M  V30 3532 H 343.522 1.2266 1.51461 0
M  V30 3533 H 342.618 0.864653 2.99884 0
M  V30 3534 N 342.919 -1.39368 0.735821 0
M  V30 3535 C 344.165 -2.00794 0.284544 0
M  V30 3536 C 344.498 -1.58255 -1.12557 0
M  V30 3537 O 343.773 -0.811819 -1.76748 0
M  V30 3538 C 344.056 -3.58011 0.387337 0
M  V30 3539 C 343.909 -4.10566 1.83728 0
M  V30 3540 C 345.228 -4.395 -0.22975 0
M  V30 3541 H 342.347 -0.729501 0.104866 0
M  V30 3542 H 344.989 -1.65564 0.93213 0
M  V30 3543 H 343.139 -3.88154 -0.164006 0
M  V30 3544 H 344.811 -3.91139 2.44556 0
M  V30 3545 H 343.054 -3.64095 2.35833 0
M  V30 3546 H 343.725 -5.19702 1.86047 0
M  V30 3547 H 346.201 -4.15406 0.240257 0
M  V30 3548 H 345.077 -5.48752 -0.127485 0
M  V30 3549 H 345.338 -4.22062 -1.3159 0
M  V30 3550 N 344.397 -0.483516 -1.5 0
M  V30 3551 C 345.645 0.067027 -2.01989 0
M  V30 3552 C 345.966 1.3909 -1.36671 0
M  V30 3553 O 345.236 1.88978 -0.516152 0
M  V30 3554 H 343.816 0.0277606 -0.746484 0
M  V30 3555 H 346.478 -0.636773 -1.84204 0
M  V30 3556 H 345.574 0.209484 -3.11396 0
M  V30 3557 N 345.875 1.56104 -0.216619 0
M  V30 3558 C 346.822 2.2007 0.695531 0
M  V30 3559 C 347.792 1.15471 1.19397 0
M  V30 3560 O 348.977 1.43807 1.25396 0
M  V30 3561 C 346.117 2.88073 1.90021 0
M  V30 3562 C 345.23 4.07253 1.44113 0
M  V30 3563 C 344.365 4.63052 2.603 0
M  V30 3564 C 343.404 5.74545 2.11103 0
M  V30 3565 N 342.541 6.24656 3.20545 0
M  V30 3566 H 347.381 2.97655 0.143327 0
M  V30 3567 H 344.918 1.46982 0.0589934 0
M  V30 3568 H 346.876 3.25681 2.60745 0
M  V30 3569 H 345.506 2.13015 2.42538 0
M  V30 3570 H 344.558 3.75164 0.628999 0
M  V30 3571 H 345.87 4.8783 1.04036 0
M  V30 3572 H 345.024 5.03078 3.39113 0
M  V30 3573 H 343.763 3.81628 3.03663 0
M  V30 3574 H 342.768 5.34027 1.3075 0
M  V30 3575 H 343.993 6.57801 1.68746 0
M  V30 3576 H 341.939 5.46148 3.63399 0
M  V30 3577 H 341.856 7.00343 2.84704 0
M  V30 3578 H 343.124 6.69338 3.99508 0
M  V30 3579 N 347.353 -0.0568162 1.57498 0
M  V30 3580 C 348.301 -1.08452 2.05769 0
M  V30 3581 C 349.295 -1.39164 0.965903 0
M  V30 3582 O 350.501 -1.38395 1.15095 0
M  V30 3583 H 346.876 -0.367148 0.656282 0
M  V30 3584 H 348.847 -0.651368 2.91204 0
M  V30 3585 C 347.596 -2.38543 2.52968 0
M  V30 3586 H 346.919 -2.15765 3.36579 0
M  V30 3587 H 348.359 -3.08863 2.90481 0
M  V30 3588 C 346.818 -3.05562 1.41893 0
M  V30 3589 O 347.348 -3.94262 0.769442 0
M  V30 3590 N 345.554 -2.6643 1.16032 0
M  V30 3591 H 345.101 -1.94387 1.6903 0
M  V30 3592 H 345.059 -3.11593 0.419219 0
M  V30 3593 N 348.832 -1.54138 -0.328536 0
M  V30 3594 C 350.243 -1.63395 -0.903272 0
M  V30 3595 C 350.594 -0.524828 -1.8905 0
M  V30 3596 O 349.719 0.343068 -2.13663 0
M  V30 3597 C 350.314 -2.9618 -1.64507 0
M  V30 3598 C 348.873 -3.0765 -2.1686 0
M  V30 3599 C 348.02 -2.58933 -0.992416 0
M  V30 3600 H 350.971 -1.58344 -0.106253 0
M  V30 3601 H 350.992 -2.86061 -2.50897 0
M  V30 3602 H 350.504 -3.76884 -0.926302 0
M  V30 3603 H 348.605 -2.31611 -2.91868 0
M  V30 3604 H 348.718 -4.1337 -2.42202 0
M  V30 3605 H 347.082 -2.14706 -1.37016 0
M  V30 3606 H 347.865 -3.42089 -0.288041 0
M  V30 3607 N 350.31 0.590341 -1.46126 0
M  V30 3608 C 351.558 1.34616 -1.50742 0
M  V30 3609 C 351.879 1.94363 -0.157486 0
M  V30 3610 O 351.149 1.78136 0.815136 0
M  V30 3611 H 349.729 0.499789 -0.555175 0
M  V30 3612 H 352.391 0.691953 -1.82203 0
M  V30 3613 H 351.487 2.15678 -2.25587 0
M  V30 3614 N 351.788 1.33704 0.83433 0
M  V30 3615 C 353.037 1.24763 1.58484 0
M  V30 3616 C 353.35 -0.183775 1.94735 0
M  V30 3617 O 354.556 -0.395234 2.68608 0
M  V30 3618 C 353.012 2.18638 2.85876 0
M  V30 3619 C 352.62 3.66974 2.56971 0
M  V30 3620 C 354.364 2.18581 3.63899 0
M  V30 3621 C 352.271 4.5275 3.80488 0
M  V30 3622 H 351.201 0.463425 0.594772 0
M  V30 3623 H 353.852 1.58797 0.919551 0
M  V30 3624 H 352.234 1.77542 3.5397 0
M  V30 3625 H 353.408 4.16538 1.9706 0
M  V30 3626 H 351.723 3.69366 1.92244 0
M  V30 3627 H 354.32 2.79894 4.55591 0
M  V30 3628 H 354.663 1.18207 3.99165 0
M  V30 3629 H 355.196 2.58062 3.02735 0
M  V30 3630 H 351.935 5.54017 3.5035 0
M  V30 3631 H 351.455 4.07927 4.39722 0
M  V30 3632 H 353.134 4.66784 4.4802 0
M  V30 3633 N 353.266 -1.05314 1.17247 0
M  V30 3634 C 354.196 -2.1498 0.911362 0
M  V30 3635 C 355.177 -1.69471 -0.146169 0
M  V30 3636 O 356.362 -1.942 0.003812 0
M  V30 3637 C 353.492 -3.4472 0.422528 0
M  V30 3638 C 352.446 -4.03789 1.4191 0
M  V30 3639 C 351.772 -5.28858 0.788274 0
M  V30 3640 C 353.072 -4.41418 2.7919 0
M  V30 3641 H 354.766 -2.3708 1.82848 0
M  V30 3642 H 352.312 -1.13938 0.880569 0
M  V30 3643 H 354.265 -4.20787 0.227289 0
M  V30 3644 H 352.989 -3.22269 -0.530123 0
M  V30 3645 H 351.648 -3.2979 1.60106 0
M  V30 3646 H 351.296 -5.02709 -0.171173 0
M  V30 3647 H 350.996 -5.69338 1.45353 0
M  V30 3648 H 352.52 -6.07612 0.603282 0
M  V30 3649 H 353.934 -5.08524 2.64719 0
M  V30 3650 H 352.331 -4.92913 3.42282 0
M  V30 3651 H 353.401 -3.51819 3.33693 0
M  V30 3652 N 354.744 -0.972509 -1.24016 0
M  V30 3653 C 355.993 -0.632603 -1.91523 0
M  V30 3654 C 356.306 0.836641 -1.76804 0
M  V30 3655 O 357.512 1.28728 -2.39043 0
M  V30 3656 C 355.968 -1.08082 -3.43287 0
M  V30 3657 C 355.576 -2.57386 -3.66683 0
M  V30 3658 C 357.32 -0.814288 -4.16617 0
M  V30 3659 C 355.227 -2.95915 -5.12043 0
M  V30 3660 H 354.157 -0.232898 -0.717129 0
M  V30 3661 H 356.808 -1.17936 -1.40582 0
M  V30 3662 H 355.19 -0.462339 -3.93292 0
M  V30 3663 H 356.364 -3.24405 -3.27258 0
M  V30 3664 H 354.679 -2.81701 -3.06649 0
M  V30 3665 H 357.276 -1.0781 -5.23718 0
M  V30 3666 H 357.619 0.24955 -4.15551 0
M  V30 3667 H 358.152 -1.39397 -3.72577 0
M  V30 3668 H 354.891 -4.0139 -5.18234 0
M  V30 3669 H 354.411 -2.33584 -5.52448 0
M  V30 3670 H 356.09 -2.86086 -5.80314 0
M  V30 3671 N 356.222 1.38976 -0.743202 0
M  V30 3672 C 357.447 2.05161 -0.303936 0
M  V30 3673 C 357.872 1.55677 1.05576 0
M  V30 3674 O 357.23 0.704131 1.67068 0
M  V30 3675 C 357.278 3.59138 -0.324373 0
M  V30 3676 O 356.382 4.06668 0.685204 0
M  V30 3677 H 355.723 0.649815 -0.136518 0
M  V30 3678 H 358.253 1.77852 -1.01142 0
M  V30 3679 H 358.263 4.07639 -0.171618 0
M  V30 3680 H 356.938 3.94515 -1.31647 0
M  V30 3681 H 355.515 3.69561 0.497913 0
M  V30 3682 N 357.7 0.491464 1.49741 0
M  V30 3683 C 358.948 -0.0563141 2.02022 0
M  V30 3684 C 359.269 -1.38363 1.37407 0
M  V30 3685 O 358.539 -1.88702 0.526166 0
M  V30 3686 H 357.119 -0.0238014 0.746621 0
M  V30 3687 H 359.781 0.646533 1.83864 0
M  V30 3688 H 358.877 -0.192967 3.11503 0
M  V30 3689 N 359.178 -1.55987 0.224894 0
M  V30 3690 C 360.128 -2.17076 -0.697296 0
M  V30 3691 C 361.112 -1.12006 -1.15514 0
M  V30 3692 O 362.304 -1.37985 -1.10857 0
M  V30 3693 C 359.433 -2.85679 -1.90374 0
M  V30 3694 C 358.519 -3.97977 -1.46543 0
M  V30 3695 N 358.91 -5.00359 -0.739909 0
M  V30 3696 C 357.208 -4.10128 -1.75245 0
M  V30 3697 C 357.909 -5.79407 -0.515939 0
M  V30 3698 N 356.885 -5.32892 -1.07364 0
M  V30 3699 H 360.687 -2.93592 -0.134594 0
M  V30 3700 H 358.201 -1.62379 0.0262885 0
M  V30 3701 H 360.198 -3.27857 -2.57518 0
M  V30 3702 H 358.858 -2.1066 -2.47088 0
M  V30 3703 H 359.869 -5.16412 -0.392253 0
M  V30 3704 H 356.546 -3.46263 -2.33255 0
M  V30 3705 H 357.936 -6.71872 0.0617349 0
M  V30 3706 N 360.656 0.0484629 -1.57525 0
M  V30 3707 C 361.933 0.777447 -1.79486 0
M  V30 3708 C 362.313 1.94597 -0.818251 0
M  V30 3709 O 361.661 2.28047 0.143767 0
M  V30 3710 C 361.871 1.22864 -3.26658 0
M  V30 3711 C 363.219 1.65251 -3.91123 0
M  V30 3712 O 364.243 1.32372 -3.3069 0
M  V30 3713 O 363.102 2.26207 -4.97486 0
M  V30 3714 H 360.196 0.374357 -0.737419 0
M  V30 3715 H 362.742 0.0267359 -1.69679 0
M  V30 3716 H 361.514 0.393589 -3.89316 0
M  V30 3717 H 361.137 2.03996 -3.41279 0
M  V30 3718 N 362.134 1.5431 0.320358 0
M  V30 3719 C 363.064 1.86912 1.3995 0
M  V30 3720 C 364.045 0.726211 1.53819 0
M  V30 3721 O 365.23 0.980233 1.67646 0
M  V30 3722 C 362.36 2.09932 2.7667 0
M  V30 3723 C 361.314 3.25776 2.77586 0
M  V30 3724 C 360.64 3.34173 4.17412 0
M  V30 3725 C 361.94 4.6335 2.41048 0
M  V30 3726 H 363.634 2.77292 1.12914 0
M  V30 3727 H 361.18 1.33421 0.541738 0
M  V30 3728 H 363.133 2.31324 3.52232 0
M  V30 3729 H 361.857 1.16304 3.0519 0
M  V30 3730 H 360.516 3.04276 2.04479 0
M  V30 3731 H 360.164 2.38098 4.43078 0
M  V30 3732 H 359.864 4.12033 4.18931 0
M  V30 3733 H 361.388 3.57803 4.94782 0
M  V30 3734 H 362.802 4.84602 3.06324 0
M  V30 3735 H 361.199 5.43782 2.53813 0
M  V30 3736 H 362.269 4.65381 1.36193 0
M  V30 3737 N 363.613 -0.582584 1.46437 0
M  V30 3738 C 364.56 -1.69164 1.5701 0
M  V30 3739 C 365.53 -1.60847 0.414403 0
M  V30 3740 O 366.715 -1.80058 0.631171 0
M  V30 3741 C 363.855 -3.075 1.56646 0
M  V30 3742 C 362.968 -3.2644 2.82951 0
M  V30 3743 C 362.103 -4.55026 2.7409 0
M  V30 3744 C 361.142 -4.6731 3.95333 0
M  V30 3745 N 360.279 -5.87221 3.84858 0
M  V30 3746 H 365.119 -1.59464 2.51744 0
M  V30 3747 H 362.656 -0.777186 1.24893 0
M  V30 3748 H 364.614 -3.8757 1.5442 0
M  V30 3749 H 363.244 -3.16096 0.654439 0
M  V30 3750 H 362.296 -2.39974 2.95155 0
M  V30 3751 H 363.608 -3.31385 3.72808 0
M  V30 3752 H 362.762 -5.43324 2.6997 0
M  V30 3753 H 361.501 -4.52519 1.81873 0
M  V30 3754 H 360.506 -3.77429 3.99784 0
M  V30 3755 H 361.731 -4.71595 4.88646 0
M  V30 3756 H 359.677 -5.85712 2.95427 0
M  V30 3757 H 359.594 -5.93435 4.6837 0
M  V30 3758 H 360.862 -6.7795 3.84713 0
M  V30 3759 N 365.091 -1.34144 -0.827227 0
M  V30 3760 C 366.368 -1.16844 -1.56865 0
M  V30 3761 C 366.748 0.260654 -2.09485 0
M  V30 3762 O 366.096 1.26138 -1.9053 0
M  V30 3763 C 366.306 -2.21939 -2.6934 0
M  V30 3764 C 367.654 -2.56695 -3.3822 0
M  V30 3765 O 368.678 -2.20695 -2.79593 0
M  V30 3766 O 367.537 -3.18518 -4.44082 0
M  V30 3767 H 364.631 -0.452669 -0.692112 0
M  V30 3768 H 367.177 -1.45763 -0.868973 0
M  V30 3769 H 365.949 -3.17882 -2.28182 0
M  V30 3770 H 365.572 -1.94172 -3.46962 0
M  V30 3771 N 366.569 1.04691 -1.17803 0
M  V30 3772 C 367.502 2.12068 -0.842765 0
M  V30 3773 C 368.48 1.61455 0.192608 0
M  V30 3774 O 369.664 1.88359 0.072995 0
M  V30 3775 C 366.791 3.37715 -0.258063 0
M  V30 3776 C 365.837 4.07164 -1.26962 0
M  V30 3777 S 366.67 4.55047 -2.82299 0
M  V30 3778 C 367.826 5.83935 -2.25323 0
M  V30 3779 H 368.059 2.4018 -1.75217 0
M  V30 3780 H 365.592 1.17366 -1.00323 0
M  V30 3781 H 367.55 4.10435 0.0727935 0
M  V30 3782 H 366.211 3.0773 0.629357 0
M  V30 3783 H 365.404 4.9746 -0.809263 0
M  V30 3784 H 365.006 3.40533 -1.54639 0
M  V30 3785 H 367.298 6.57552 -1.63192 0
M  V30 3786 H 368.241 6.34725 -3.13894 0
M  V30 3787 H 368.649 5.3874 -1.68582 0
M  V30 3788 N 368.047 0.979072 1.23499 0
M  V30 3789 C 369.01 0.523244 2.23147 0
M  V30 3790 C 370.01 -0.386406 1.56088 0
M  V30 3791 O 371.2 -0.180283 1.73265 0
M  V30 3792 C 368.332 -0.240739 3.40049 0
M  V30 3793 H 369.525 1.40432 2.64989 0
M  V30 3794 H 367.078 0.764824 1.36309 0
M  V30 3795 H 367.813 -1.13841 3.03662 0
M  V30 3796 H 367.598 0.412207 3.89927 0
M  V30 3797 H 369.088 -0.548297 4.13985 0
M  V30 3798 N 369.525 -1.3858 0.750561 0
M  V30 3799 C 370.435 -2.34278 0.122825 0
M  V30 3800 C 371.451 -1.59116 -0.704131 0
M  V30 3801 O 372.627 -1.91326 -0.628987 0
M  V30 3802 C 369.692 -3.38221 -0.762086 0
M  V30 3803 C 368.753 -4.29227 0.078896 0
M  V30 3804 C 367.986 -5.28205 -0.763874 0
M  V30 3805 O 368.209 -5.34112 -2.00201 0
M  V30 3806 O 367.143 -6.01618 -0.18428 0
M  V30 3807 H 370.969 -2.89649 0.913088 0
M  V30 3808 H 368.554 -1.40374 0.511417 0
M  V30 3809 H 370.436 -4.01872 -1.26793 0
M  V30 3810 H 369.111 -2.85211 -1.5309 0
M  V30 3811 H 368.018 -3.68747 0.630621 0
M  V30 3812 H 369.351 -4.85484 0.810289 0
M  V30 3813 N 371.003 -0.499398 -1.49478 0
M  V30 3814 C 371.933 0.269244 -2.31943 0
M  V30 3815 C 372.914 0.964054 -1.40143 0
M  V30 3816 O 374.099 0.955767 -1.69052 0
M  V30 3817 C 371.229 1.33504 -3.20615 0
M  V30 3818 C 370.183 0.760202 -4.21195 0
M  V30 3819 C 369.509 1.9264 -4.98792 0
M  V30 3820 C 370.809 -0.247661 -5.21712 0
M  V30 3821 H 372.503 -0.419082 -2.96452 0
M  V30 3822 H 370.049 -0.202988 -1.42562 0
M  V30 3823 H 372.002 1.88048 -3.77115 0
M  V30 3824 H 370.726 2.05253 -2.54045 0
M  V30 3825 H 369.385 0.23653 -3.65836 0
M  V30 3826 H 369.033 2.63154 -4.28671 0
M  V30 3827 H 368.733 1.54785 -5.66847 0
M  V30 3828 H 370.257 2.4762 -5.58137 0
M  V30 3829 H 371.671 0.209579 -5.72917 0
M  V30 3830 H 370.068 -0.541962 -5.97648 0
M  V30 3831 H 371.138 -1.16409 -4.7072 0
M  V30 3832 N 372.481 1.55866 -0.233164 0
M  V30 3833 C 373.411 2.23783 0.666599 0
M  V30 3834 C 374.392 1.21343 1.19205 0
M  V30 3835 O 375.577 1.4996 1.23392 0
M  V30 3836 C 372.707 2.92671 1.86978 0
M  V30 3837 C 371.661 4.01682 1.47768 0
M  V30 3838 C 370.987 4.57926 2.76058 0
M  V30 3839 C 372.287 5.18126 0.658993 0
M  V30 3840 H 373.981 2.99232 0.100306 0
M  V30 3841 H 371.527 1.43924 0.046804 0
M  V30 3842 H 373.48 3.3888 2.50476 0
M  V30 3843 H 372.204 2.14688 2.46123 0
M  V30 3844 H 370.863 3.56222 0.866106 0
M  V30 3845 H 370.511 3.76659 3.33372 0
M  V30 3846 H 370.211 5.31505 2.50552 0
M  V30 3847 H 371.735 5.06859 3.40479 0
M  V30 3848 H 373.149 5.60644 1.19795 0
M  V30 3849 H 371.546 5.98009 0.500552 0
M  V30 3850 H 372.616 4.83763 -0.331856 0
M  V30 3851 N 373.959 -0.0401083 1.57549 0
M  V30 3852 C 374.906 -1.04413 2.05831 0
M  V30 3853 C 375.876 -1.36585 0.945184 0
M  V30 3854 O 377.061 -1.47112 1.21502 0
M  V30 3855 C 374.201 -2.34336 2.53339 0
M  V30 3856 C 373.314 -2.08419 3.78398 0
M  V30 3857 C 372.449 -3.32133 4.14561 0
M  V30 3858 C 371.488 -3.01721 5.3257 0
M  V30 3859 N 370.625 -4.17855 5.64218 0
M  V30 3860 H 375.465 -0.625442 2.91363 0
M  V30 3861 H 373.002 -0.297218 1.44066 0
M  V30 3862 H 374.96 -3.10234 2.78946 0
M  V30 3863 H 373.59 -2.73948 1.7074 0
M  V30 3864 H 372.642 -1.23069 3.59942 0
M  V30 3865 H 373.954 -1.81978 4.64419 0
M  V30 3866 H 373.108 -4.16406 4.41238 0
M  V30 3867 H 371.847 -3.61678 3.2717 0
M  V30 3868 H 370.852 -2.15849 5.05657 0
M  V30 3869 H 372.077 -2.73466 6.21605 0
M  V30 3870 H 370.023 -4.47372 4.79786 0
M  V30 3871 H 369.94 -3.94798 6.44725 0
M  V30 3872 H 371.208 -5.03033 5.95465 0
M  V30 3873 N 375.437 -1.54477 -0.31217 0
M  V30 3874 C 376.369 -1.81011 -1.40598 0
M  V30 3875 C 377.382 -0.692546 -1.47335 0
M  V30 3876 O 378.571 -0.969847 -1.49854 0
M  V30 3877 C 375.671 -1.92307 -2.79054 0
M  V30 3878 C 374.844 -3.22594 -2.95384 0
M  V30 3879 C 373.903 -3.24448 -4.1427 0
M  V30 3880 O 372.929 -3.98035 -4.06887 0
M  V30 3881 N 374.131 -2.49042 -5.24365 0
M  V30 3882 H 376.896 -2.75408 -1.18196 0
M  V30 3883 H 374.457 -1.53914 -0.502202 0
M  V30 3884 H 376.449 -1.90962 -3.56813 0
M  V30 3885 H 375.019 -1.04955 -2.94454 0
M  V30 3886 H 374.239 -3.36806 -2.04831 0
M  V30 3887 H 375.527 -4.08593 -3.03198 0
M  V30 3888 H 374.925 -1.88867 -5.33241 0
M  V30 3889 H 373.482 -2.53463 -6.005 0
M  V30 3890 N 376.915 0.57481 -1.46744 0
M  V30 3891 C 378.143 1.35856 -1.56047 0
M  V30 3892 C 378.558 1.87691 -0.204365 0
M  V30 3893 O 377.915 1.64049 0.79963 0
M  V30 3894 C 377.966 2.54066 -2.57163 0
M  V30 3895 O 377.687 2.04377 -3.87507 0
M  V30 3896 C 379.188 3.46514 -2.76483 0
M  V30 3897 H 376.408 0.414754 -0.527466 0
M  V30 3898 H 378.952 0.698035 -1.92218 0
M  V30 3899 H 377.107 3.16092 -2.23974 0
M  V30 3900 H 377.521 2.81419 -4.4261 0
M  V30 3901 H 378.995 4.25919 -3.51137 0
M  V30 3902 H 379.472 3.98951 -1.83671 0
M  V30 3903 H 380.078 2.90318 -3.10799 0
M  V30 3904 N 378.394 1.34581 0.820102 0
M  V30 3905 C 379.304 1.28471 1.96297 0
M  V30 3906 C 380.32 0.191902 1.72939 0
M  V30 3907 O 381.496 0.418879 1.96996 0
M  V30 3908 C 378.561 1.04281 3.30645 0
M  V30 3909 C 377.622 2.22745 3.66992 0
M  V30 3910 C 376.855 1.997 4.9493 0
M  V30 3911 O 377.078 0.956656 5.6232 0
M  V30 3912 O 376.012 2.86723 5.2922 0
M  V30 3913 H 379.838 2.24624 2.04396 0
M  V30 3914 H 377.423 1.14816 0.955913 0
M  V30 3915 H 379.305 0.925841 4.11104 0
M  V30 3916 H 377.98 0.111697 3.23507 0
M  V30 3917 H 376.887 2.40003 2.86966 0
M  V30 3918 H 378.22 3.14257 3.78819 0
M  V30 3919 N 379.872 -1.04064 1.18357 0
M  V30 3920 C 381.12 -1.76915 0.977013 0
M  V30 3921 C 381.441 -1.88624 -0.494577 0
M  V30 3922 O 380.711 -1.41125 -1.3587 0
M  V30 3923 H 379.291 -0.65535 0.358504 0
M  V30 3924 H 381.953 -1.25592 1.49039 0
M  V30 3925 H 381.049 -2.78178 1.41504 0
M  V30 3926 N 381.35 -0.985608 -1.22978 0
M  V30 3927 C 382.578 -0.675582 -1.95559 0
M  V30 3928 C 382.993 0.758413 -1.72897 0
M  V30 3929 O 382.35 1.51094 -1.02357 0
M  V30 3930 C 382.401 -0.96293 -3.48439 0
M  V30 3931 O 382.122 -2.34057 -3.70336 0
M  V30 3932 C 383.623 -0.669585 -4.38214 0
M  V30 3933 H 380.843 -0.250523 -0.622478 0
M  V30 3934 H 383.387 -1.3184 -1.56328 0
M  V30 3935 H 381.542 -0.366033 -3.85667 0
M  V30 3936 H 381.956 -2.43424 -4.64591 0
M  V30 3937 H 383.43 -0.920967 -5.44263 0
M  V30 3938 H 383.907 0.396383 -4.37408 0
M  V30 3939 H 384.513 -1.2472 -4.06602 0
M  V30 3940 N 382.828 1.3818 -0.7579 0
M  V30 3941 C 384.076 1.99624 -0.315361 0
M  V30 3942 C 384.397 1.60464 1.10799 0
M  V30 3943 O 383.667 0.863507 1.75842 0
M  V30 3944 H 382.247 0.73831 -0.113611 0
M  V30 3945 H 384.909 1.68878 -0.972952 0
M  V30 3946 H 384.005 3.09754 -0.381931 0
M  V30 3947 N 384.306 0.507319 1.49211 0
M  V30 3948 C 385.552 -0.0350047 2.0277 0
M  V30 3949 C 385.885 -1.3606 1.38569 0
M  V30 3950 O 385.16 -1.87321 0.523542 0
M  V30 3951 C 385.443 -0.180916 3.59645 0
M  V30 3952 C 385.296 1.16825 4.34364 0
M  V30 3953 C 386.615 -0.918558 4.30407 0
M  V30 3954 H 383.734 -0.0112473 0.736914 0
M  V30 3955 H 386.376 0.659956 1.7817 0
M  V30 3956 H 384.526 -0.772826 3.80736 0
M  V30 3957 H 386.198 1.79952 4.24753 0
M  V30 3958 H 384.441 1.75594 3.96673 0
M  V30 3959 H 385.112 1.01939 5.42506 0
M  V30 3960 H 387.588 -0.41649 4.1401 0
M  V30 3961 H 386.464 -0.989505 5.39907 0
M  V30 3962 H 386.725 -1.96373 3.96093 0
M  V30 3963 N 385.784 -1.5574 0.241426 0
M  V30 3964 C 387.061 -1.90704 -0.434881 0
M  V30 3965 C 387.441 -1.16145 -1.76277 0
M  V30 3966 O 386.789 -0.277152 -2.26813 0
M  V30 3967 C 386.999 -3.43657 -0.608343 0
M  V30 3968 C 388.347 -4.14806 -0.906725 0
M  V30 3969 O 389.371 -3.49366 -0.694408 0
M  V30 3970 O 388.23 -5.30548 -1.31075 0
M  V30 3971 H 385.324 -0.793592 -0.23268 0
M  V30 3972 H 387.87 -1.67288 0.285086 0
M  V30 3973 H 386.642 -3.89927 0.327505 0
M  V30 3974 H 386.265 -3.72918 -1.37906 0
M  V30 3975 N 387.262 0.0317525 -1.57568 0
M  V30 3976 C 388.508 0.724175 -1.8943 0
M  V30 3977 C 388.841 1.75149 -0.838836 0
M  V30 3978 O 388.116 1.93948 0.146422 0
M  V30 3979 C 388.399 1.39615 -3.31933 0
M  V30 3980 C 388.252 0.382537 -4.4817 0
M  V30 3981 C 389.571 2.33084 -3.73309 0
M  V30 3982 H 386.69 0.261797 -0.688935 0
M  V30 3983 H 389.332 -0.013017 -1.89996 0
M  V30 3984 H 387.482 2.02451 -3.31581 0
M  V30 3985 H 389.154 -0.243689 -4.60656 0
M  V30 3986 H 387.397 -0.29844 -4.32772 0
M  V30 3987 H 388.068 0.891145 -5.44759 0
M  V30 3988 H 390.544 1.80295 -3.7501 0
M  V30 3989 H 389.42 2.77084 -4.73831 0
M  V30 3990 H 389.681 3.19643 -3.05419 0
M  V30 3991 N 388.74 1.54641 0.303973 0
M  V30 3992 C 389.97 1.77511 1.05705 0
M  V30 3993 C 390.378 0.533228 1.81531 0
M  V30 3994 O 389.721 -0.506423 1.76582 0
M  V30 3995 C 389.783 2.92779 2.08617 0
M  V30 3996 C 389.447 4.30977 1.52013 0
M  V30 3997 C 390.444 5.11115 0.9517 0
M  V30 3998 C 388.129 4.77571 1.55665 0
M  V30 3999 C 390.123 6.35966 0.427327 0
M  V30 4000 C 387.81 6.02384 1.02841 0
M  V30 4001 C 388.808 6.81417 0.464713 0
M  V30 4002 O 388.496 8.03881 -0.0555283 0
M  V30 4003 H 388.228 0.59579 0.319391 0
M  V30 4004 H 390.782 2.02401 0.349712 0
M  V30 4005 H 389.012 2.63506 2.83022 0
M  V30 4006 H 390.701 3.03252 2.69802 0
M  V30 4007 H 391.467 4.76264 0.916407 0
M  V30 4008 H 387.346 4.16085 1.9848 0
M  V30 4009 H 390.89 6.97599 -0.0133062 0
M  V30 4010 H 386.787 6.36723 1.06084 0
M  V30 4011 H 387.555 8.18479 0.0580522 0
M  V30 4012 N 390.218 -0.567019 1.47046 0
M  V30 4013 C 391.446 -1.35027 1.56765 0
M  V30 4014 C 391.861 -1.8758 0.214316 0
M  V30 4015 O 391.218 -1.64471 -0.790919 0
M  V30 4016 C 391.269 -2.52698 2.58507 0
M  V30 4017 O 390.99 -2.0232 3.88585 0
M  V30 4018 C 392.491 -3.45043 2.78316 0
M  V30 4019 H 389.711 -0.41195 0.529658 0
M  V30 4020 H 392.255 -0.687832 1.92585 0
M  V30 4021 H 390.41 -3.149 2.25648 0
M  V30 4022 H 390.824 -2.79068 4.44096 0
M  V30 4023 H 392.298 -4.2405 3.53391 0
M  V30 4024 H 392.775 -3.97971 1.85784 0
M  V30 4025 H 393.381 -2.88665 3.12334 0
M  V30 4026 N 391.696 -1.35014 -0.812953 0
M  V30 4027 C 392.646 -1.23959 -1.91359 0
M  V30 4028 C 393.63 -0.136306 -1.60322 0
M  V30 4029 O 394.822 -0.366925 -1.73155 0
M  V30 4030 C 391.951 -1.00736 -3.28188 0
M  V30 4031 C 391.037 -2.15426 -3.65311 0
M  V30 4032 N 391.428 -3.40612 -3.73921 0
M  V30 4033 C 389.726 -2.06672 -3.95225 0
M  V30 4034 C 390.427 -4.15994 -4.06601 0
M  V30 4035 N 389.403 -3.44685 -4.20349 0
M  V30 4036 H 393.205 -2.18815 -1.96208 0
M  V30 4037 H 390.719 -1.27395 -1.00718 0
M  V30 4038 H 392.716 -0.909052 -4.06868 0
M  V30 4039 H 391.376 -0.067586 -3.2463 0
M  V30 4040 H 392.387 -3.75043 -3.5716 0
M  V30 4041 H 389.064 -1.20511 -3.99729 0
M  V30 4042 H 390.454 -5.24145 -4.20382 0
M  V30 4043 N 393.175 1.03435 -1.18907 0
M  V30 4044 C 394.423 1.76394 -0.986382 0
M  V30 4045 C 394.744 1.88883 0.484567 0
M  V30 4046 O 394.014 1.41843 1.3512 0
M  V30 4047 H 392.594 0.65344 -0.361975 0
M  V30 4048 H 395.256 1.248 -1.49703 0
M  V30 4049 H 394.352 2.77424 -1.42978 0
M  V30 4050 N 394.653 0.992116 1.22453 0
M  V30 4051 C 395.563 0.55065 2.28046 0
M  V30 4052 C 396.579 -0.400189 1.69335 0
M  V30 4053 O 397.755 -0.267215 1.99619 0
M  V30 4054 C 394.82 -0.128496 3.46462 0
M  V30 4055 C 393.881 0.865208 4.20491 0
M  V30 4056 C 393.114 0.218377 5.33253 0
M  V30 4057 O 393.337 -0.987894 5.6178 0
M  V30 4058 O 392.271 0.922845 5.94783 0
M  V30 4059 H 396.097 1.4291 2.67975 0
M  V30 4060 H 393.682 0.760326 1.28606 0
M  V30 4061 H 395.564 -0.508947 4.18315 0
M  V30 4062 H 394.239 -0.981526 3.0846 0
M  V30 4063 H 393.146 1.29658 3.50913 0
M  V30 4064 H 394.479 1.68741 4.62371 0
M  V30 4065 N 396.131 -1.37776 0.765217 0
M  V30 4066 C 397.064 -2.28008 0.0935025 0
M  V30 4067 C 398.042 -1.45985 -0.716047 0
M  V30 4068 O 399.226 -1.75331 -0.692203 0
M  V30 4069 C 396.353 -3.27228 -0.874052 0
M  V30 4070 C 395.399 -4.26239 -0.149307 0
M  V30 4071 S 396.232 -5.22827 1.15809 0
M  V30 4072 C 397.388 -6.256 0.193906 0
M  V30 4073 H 397.621 -2.84631 0.858637 0
M  V30 4074 H 395.154 -1.43952 0.558313 0
M  V30 4075 H 397.112 -3.84902 -1.42691 0
M  V30 4076 H 395.773 -2.69565 -1.61225 0
M  V30 4077 H 394.966 -4.96213 -0.88254 0
M  V30 4078 H 394.568 -3.7252 0.332366 0
M  V30 4079 H 396.86 -6.74508 -0.636011 0
M  V30 4080 H 397.803 -7.02838 0.861638 0
M  V30 4081 H 398.211 -5.64173 -0.191975 0
M  V30 4082 N 397.609 -0.515225 -1.4894 0
M  V30 4083 C 398.539 0.244628 -2.32215 0
M  V30 4084 C 399.52 0.949136 -1.41157 0
M  V30 4085 O 400.705 0.937783 -1.70057 0
M  V30 4086 C 397.835 1.30096 -3.22013 0
M  V30 4087 C 396.789 0.715486 -4.21977 0
M  V30 4088 C 396.115 1.87339 -5.00808 0
M  V30 4089 C 397.415 -0.302982 -5.2142 0
M  V30 4090 H 399.109 -0.450501 -2.95991 0
M  V30 4091 H 396.655 -0.218098 -1.42339 0
M  V30 4092 H 398.608 1.84037 -3.79089 0
M  V30 4093 H 397.332 2.02547 -2.56207 0
M  V30 4094 H 395.991 0.197715 -3.66066 0
M  V30 4095 H 395.639 2.58592 -4.31438 0
M  V30 4096 H 395.339 1.48764 -5.68457 0
M  V30 4097 H 396.863 2.41686 -5.60732 0
M  V30 4098 H 398.277 0.148802 -5.73107 0
M  V30 4099 H 396.674 -0.60532 -5.97039 0
M  V30 4100 H 397.744 -1.21395 -4.69459 0
M  V30 4101 N 399.087 1.5561 -0.249682 0
M  V30 4102 C 400.498 1.84979 0.252949 0
M  V30 4103 C 400.849 1.17153 1.57384 0
M  V30 4104 O 399.974 0.450884 2.11651 0
M  V30 4105 C 400.569 3.35584 0.465732 0
M  V30 4106 C 399.128 3.65169 0.912624 0
M  V30 4107 C 398.275 2.77299 -0.00859085 0
M  V30 4108 H 401.226 1.51513 -0.47217 0
M  V30 4109 H 401.247 3.57313 1.30795 0
M  V30 4110 H 400.759 3.8492 -0.49579 0
M  V30 4111 H 398.86 3.21312 1.88652 0
M  V30 4112 H 398.973 4.72912 0.767559 0
M  V30 4113 H 397.337 2.49678 0.50327 0
M  V30 4114 H 398.12 3.29442 -0.965537 0
M  V30 4115 N 400.565 -0.0233959 1.57583 0
M  V30 4116 C 401.528 -1.00693 2.05897 0
M  V30 4117 C 402.528 -1.28693 0.964092 0
M  V30 4118 O 403.718 -1.23602 1.22753 0
M  V30 4119 C 400.85 -2.33825 2.4807 0
M  V30 4120 H 402.043 -0.589476 2.9405 0
M  V30 4121 H 399.596 -0.270354 1.53944 0
M  V30 4122 H 400.331 -2.80307 1.6309 0
M  V30 4123 H 400.116 -2.1483 3.2801 0
M  V30 4124 H 401.606 -3.04426 2.85857 0
M  V30 4125 N 402.043 -1.548 -0.295768 0
M  V30 4126 C 402.991 -1.86874 -1.38495 0
M  V30 4127 C 403.985 -0.742938 -1.52239 0
M  V30 4128 O 405.191 -0.926999 -1.54294 0
M  V30 4129 H 401.566 -0.592786 -0.462719 0
M  V30 4130 H 403.537 -2.77904 -1.08682 0
M  V30 4131 C 402.286 -2.13732 -2.74252 0
M  V30 4132 H 401.609 -2.99835 -2.64459 0
M  V30 4133 H 403.049 -2.4011 -3.49461 0
M  V30 4134 C 401.508 -0.937539 -3.23592 0
M  V30 4135 O 402.038 -0.160665 -4.01379 0
M  V30 4136 N 400.244 -0.741478 -2.80981 0
M  V30 4137 H 399.791 -1.37489 -2.1784 0
M  V30 4138 H 399.749 0.0597103 -3.14343 0
M  V30 4139 N 403.521 0.559213 -1.47345 0
M  V30 4140 C 404.751 1.33999 -1.57251 0
M  V30 4141 C 405.159 1.87905 -0.220978 0
M  V30 4142 O 404.502 1.65577 0.795617 0
M  V30 4143 C 404.564 2.54798 -2.53611 0
M  V30 4144 C 404.228 2.22192 -3.99349 0
M  V30 4145 C 405.225 1.79607 -4.87891 0
M  V30 4146 C 402.91 2.33613 -4.44669 0
M  V30 4147 C 404.904 1.48868 -6.19772 0
M  V30 4148 C 402.591 2.02487 -5.76578 0
M  V30 4149 C 403.589 1.60183 -6.63951 0
M  V30 4150 O 403.277 1.29451 -7.93409 0
M  V30 4151 H 403.009 0.414858 -0.533731 0
M  V30 4152 H 405.563 0.684465 -1.9366 0
M  V30 4153 H 403.793 3.23235 -2.12265 0
M  V30 4154 H 405.482 3.16873 -2.53666 0
M  V30 4155 H 406.248 1.70278 -4.54126 0
M  V30 4156 H 402.127 2.65501 -3.76869 0
M  V30 4157 H 405.671 1.15775 -6.87926 0
M  V30 4158 H 401.568 2.11448 -6.09885 0
M  V30 4159 H 402.336 1.43098 -8.05894 0
M  V30 4160 N 404.999 1.35443 0.805782 0
M  V30 4161 C 406.229 1.31687 1.59192 0
M  V30 4162 C 406.637 -0.10756 1.88894 0
M  V30 4163 O 405.98 -1.07017 1.49309 0
M  V30 4164 C 406.042 2.05686 2.94845 0
M  V30 4165 C 405.706 3.54868 2.87954 0
M  V30 4166 C 406.703 4.49444 2.61335 0
M  V30 4167 C 404.388 3.97528 3.07046 0
M  V30 4168 C 406.382 5.84655 2.53885 0
M  V30 4169 C 404.069 5.32833 2.99219 0
M  V30 4170 C 405.067 6.26209 2.72674 0
M  V30 4171 O 404.755 7.59032 2.64811 0
M  V30 4172 H 404.487 0.453878 0.50097 0
M  V30 4173 H 407.041 1.78892 1.0093 0
M  V30 4174 H 405.271 1.5312 3.55093 0
M  V30 4175 H 406.96 1.94998 3.55993 0
M  V30 4176 H 407.726 4.17804 2.46303 0
M  V30 4177 H 403.605 3.25233 3.26718 0
M  V30 4178 H 407.149 6.57508 2.33086 0
M  V30 4179 H 403.046 5.64087 3.13809 0
M  V30 4180 H 403.814 7.68967 2.80413 0
M  V30 4181 N 406.477 -1.02803 1.19454 0
M  V30 4182 C 407.888 -1.57667 0.999899 0
M  V30 4183 C 408.239 -1.91041 -0.446956 0
M  V30 4184 O 407.364 -1.70978 -1.32648 0
M  V30 4185 C 407.959 -2.86477 1.80877 0
M  V30 4186 C 406.518 -3.37911 1.65811 0
M  V30 4187 C 405.665 -2.11343 1.79526 0
M  V30 4188 H 408.616 -0.853214 1.33813 0
M  V30 4189 H 408.637 -3.57408 1.30536 0
M  V30 4190 H 408.149 -2.62155 2.86175 0
M  V30 4191 H 406.25 -3.67218 0.63102 0
M  V30 4192 H 406.363 -4.10885 2.46395 0
M  V30 4193 H 404.727 -2.23254 1.22596 0
M  V30 4194 H 405.51 -1.89461 2.86285 0
M  V30 4195 N 407.956 -0.998596 -1.21925 0
M  V30 4196 C 408.919 -0.558679 -2.22287 0
M  V30 4197 C 409.919 0.361525 -1.56683 0
M  V30 4198 O 411.109 0.152695 -1.73529 0
M  V30 4199 C 408.241 0.18661 -3.40389 0
M  V30 4200 H 409.434 -1.4463 -2.62721 0
M  V30 4201 H 406.987 -0.786413 -1.35075 0
M  V30 4202 H 407.722 1.08996 -3.05435 0
M  V30 4203 H 407.507 -0.474188 -3.89222 0
M  V30 4204 H 408.997 0.482367 -4.14805 0
M  V30 4205 N 409.434 1.37368 -0.772513 0
M  V30 4206 C 410.681 1.99673 -0.337182 0
M  V30 4207 C 411.009 1.61324 1.0865 0
M  V30 4208 O 410.264 0.851377 1.7621 0
M  V30 4209 C 410.563 3.54817 -0.428876 0
M  V30 4210 C 410.229 4.12936 -1.81092 0
M  V30 4211 C 408.891 4.28523 -2.1891 0
M  V30 4212 C 411.243 4.44801 -2.71664 0
M  V30 4213 C 408.571 4.73277 -3.46735 0
M  V30 4214 C 410.923 4.90981 -3.98899 0
M  V30 4215 C 409.587 5.04773 -4.36761 0
M  V30 4216 H 408.857 0.730656 -0.123384 0
M  V30 4217 H 411.504 1.64124 -0.986686 0
M  V30 4218 H 409.809 3.90618 0.304167 0
M  V30 4219 H 411.506 4.00933 -0.0733334 0
M  V30 4220 H 408.096 4.01233 -1.50699 0
M  V30 4221 H 412.28 4.32344 -2.43706 0
M  V30 4222 H 407.536 4.82142 -3.75964 0
M  V30 4223 H 411.71 5.14603 -4.69208 0
M  V30 4224 H 409.337 5.39211 -5.35868 0
M  V30 4225 N 410.912 0.523116 1.48665 0
M  V30 4226 C 411.859 -0.243398 2.29513 0
M  V30 4227 C 412.829 -0.940139 1.36933 0
M  V30 4228 O 414.014 -0.942503 1.65896 0
M  V30 4229 C 411.154 -1.28855 3.20141 0
M  V30 4230 C 410.267 -0.60135 4.27794 0
M  V30 4231 C 409.402 -1.62884 5.05611 0
M  V30 4232 C 408.441 -0.924726 6.05075 0
M  V30 4233 N 407.578 -1.89744 6.75975 0
M  V30 4234 H 412.418 0.452234 2.94549 0
M  V30 4235 H 409.955 0.234858 1.45213 0
M  V30 4236 H 411.913 -1.90674 3.71079 0
M  V30 4237 H 410.543 -1.95266 2.57043 0
M  V30 4238 H 409.595 0.130623 3.80176 0
M  V30 4239 H 410.907 -0.0481585 4.98777 0
M  V30 4240 H 410.061 -2.32149 5.60528 0
M  V30 4241 H 408.8 -2.21592 4.34452 0
M  V30 4242 H 407.805 -0.217966 5.49368 0
M  V30 4243 H 409.03 -0.343851 6.78229 0
M  V30 4244 H 406.976 -2.47373 6.07571 0
M  V30 4245 H 406.893 -1.3955 7.43009 0
M  V30 4246 H 408.161 -2.58229 7.35485 0
M  V30 4247 N 412.39 -1.55475 0.257931 0
M  V30 4248 C 413.337 -2.21837 -0.636939 0
M  V30 4249 C 414.307 -1.18596 -1.16294 0
M  V30 4250 O 415.492 -1.47081 -1.21539 0
M  V30 4251 C 412.632 -2.9301 -1.82317 0
M  V30 4252 C 411.745 -4.10931 -1.33265 0
M  V30 4253 C 410.88 -4.69791 -2.47931 0
M  V30 4254 C 409.919 -5.7994 -1.95796 0
M  V30 4255 N 409.056 -6.32935 -3.0387 0
M  V30 4256 H 413.896 -2.9793 -0.0643591 0
M  V30 4257 H 411.433 -1.47086 -0.0200031 0
M  V30 4258 H 413.391 -3.3248 -2.52018 0
M  V30 4259 H 412.021 -2.1937 -2.36805 0
M  V30 4260 H 411.073 -3.76699 -0.52931 0
M  V30 4261 H 412.385 -4.90417 -0.910654 0
M  V30 4262 H 411.539 -5.11892 -3.25656 0
M  V30 4263 H 410.278 -3.89545 -2.93438 0
M  V30 4264 H 409.283 -5.37305 -1.16546 0
M  V30 4265 H 410.508 -6.62043 -1.51246 0
M  V30 4266 H 408.454 -5.55591 -3.48791 0
M  V30 4267 H 408.371 -7.07645 -2.66035 0
M  V30 4268 H 409.639 -6.79695 -3.81621 0
M  V30 4269 N 413.868 0.0150385 -1.57593 0
M  V30 4270 C 415.098 0.713359 -1.93894 0
M  V30 4271 C 415.506 1.68663 -0.857289 0
M  V30 4272 O 414.849 1.82876 0.173788 0
M  V30 4273 C 414.911 1.51348 -3.26089 0
M  V30 4274 C 414.575 0.703451 -4.51554 0
M  V30 4275 C 415.572 -0.00237924 -5.199 0
M  V30 4276 C 413.257 0.653854 -4.98026 0
M  V30 4277 C 415.251 -0.746955 -6.33008 0
M  V30 4278 C 412.938 -0.0944578 -6.11027 0
M  V30 4279 C 413.936 -0.793609 -6.78374 0
M  V30 4280 O 413.624 -1.52974 -7.89211 0
M  V30 4281 H 413.356 0.204637 -0.644282 0
M  V30 4282 H 415.91 -0.0276411 -2.05381 0
M  V30 4283 H 414.14 2.29862 -3.10967 0
M  V30 4284 H 415.829 2.09572 -3.47612 0
M  V30 4285 H 416.595 0.0268803 -4.84993 0
M  V30 4286 H 412.474 1.18756 -4.45441 0
M  V30 4287 H 416.018 -1.2932 -6.85509 0
M  V30 4288 H 411.915 -0.125591 -6.45378 0
M  V30 4289 H 412.683 -1.44488 -8.05646 0
M  V30 4290 N 415.346 1.54954 0.287554 0
M  V30 4291 C 416.757 1.65732 0.859634 0
M  V30 4292 C 417.108 0.574767 1.87592 0
M  V30 4293 O 416.233 -0.286299 2.14498 0
M  V30 4294 C 416.828 3.00438 1.56597 0
M  V30 4295 C 415.387 3.13292 2.08627 0
M  V30 4296 C 414.534 2.61473 0.923416 0
M  V30 4297 H 417.485 1.5857 0.0642338 0
M  V30 4298 H 417.506 2.92613 2.43224 0
M  V30 4299 H 417.018 3.79207 0.826053 0
M  V30 4300 H 415.119 2.39268 2.85625 0
M  V30 4301 H 415.232 4.19647 2.31157 0
M  V30 4302 H 413.596 2.18264 1.31275 0
M  V30 4303 H 414.379 3.42733 0.197241 0
M  V30 4304 N 416.824 -0.551391 1.4764 0
M  V30 4305 C 417.774 -1.65362 1.56969 0
M  V30 4306 C 418.758 -1.55098 0.428189 0
M  V30 4307 O 419.95 -1.63481 0.678441 0
M  V30 4308 C 417.079 -3.04129 1.59249 0
M  V30 4309 C 416.165 -3.19576 2.78804 0
M  V30 4310 N 416.556 -3.05067 4.03445 0
M  V30 4311 C 414.854 -3.50588 2.75688 0
M  V30 4312 C 415.555 -3.2336 4.83543 0
M  V30 4313 N 414.531 -3.4996 4.15968 0
M  V30 4314 H 418.333 -1.52722 2.51104 0
M  V30 4315 H 415.847 -0.756303 1.43714 0
M  V30 4316 H 417.844 -3.83278 1.64024 0
M  V30 4317 H 416.504 -3.17877 0.662148 0
M  V30 4318 H 417.515 -2.82273 4.34215 0
M  V30 4319 H 414.192 -3.70827 1.91817 0
M  V30 4320 H 415.582 -3.17061 5.92387 0
M  V30 4321 N 418.302 -1.35869 -0.798587 0
M  V30 4322 C 419.549 -1.29588 -1.55606 0
M  V30 4323 C 419.877 0.127456 -1.94082 0
M  V30 4324 O 419.132 1.09461 -1.62225 0
M  V30 4325 C 419.431 -2.1556 -2.85077 0
M  V30 4326 C 419.097 -3.6424 -2.65781 0
M  V30 4327 C 417.759 -4.04766 -2.60227 0
M  V30 4328 C 420.111 -4.58547 -2.47758 0
M  V30 4329 C 417.439 -5.37753 -2.34603 0
M  V30 4330 C 419.791 -5.91742 -2.23662 0
M  V30 4331 C 418.455 -6.31402 -2.16534 0
M  V30 4332 H 417.725 -0.474197 -0.569402 0
M  V30 4333 H 420.372 -1.67839 -0.922086 0
M  V30 4334 H 418.677 -1.70216 -3.52893 0
M  V30 4335 H 420.374 -2.08031 -3.42818 0
M  V30 4336 H 416.964 -3.32086 -2.70956 0
M  V30 4337 H 421.148 -4.28117 -2.51056 0
M  V30 4338 H 416.404 -5.67474 -2.2756 0
M  V30 4339 H 420.578 -6.6439 -2.08708 0
M  V30 4340 H 418.205 -7.34381 -1.96441 0
M  V30 4341 N 419.78 1.02168 -1.19998 0
M  V30 4342 C 421.026 1.75945 -1.00852 0
M  V30 4343 C 421.359 1.88702 0.458828 0
M  V30 4344 O 420.634 1.40911 1.34069 0
M  V30 4345 C 420.917 3.18154 -1.68671 0
M  V30 4346 C 420.77 3.13224 -3.22817 0
M  V30 4347 C 422.089 4.16711 -1.41561 0
M  V30 4348 H 419.208 0.638673 -0.367785 0
M  V30 4349 H 421.85 1.19222 -1.4794 0
M  V30 4350 H 420 3.66586 -1.28636 0
M  V30 4351 H 421.672 2.72635 -3.72112 0
M  V30 4352 H 419.915 2.50751 -3.53986 0
M  V30 4353 H 420.586 4.13728 -3.65422 0
M  V30 4354 H 423.062 3.76913 -1.76284 0
M  V30 4355 H 421.938 5.14391 -1.91553 0
M  V30 4356 H 422.199 4.40774 -0.342193 0
M  V30 4357 N 421.258 1.00505 1.21394 0
M  V30 4358 C 422.506 0.686415 1.90086 0
M  V30 4359 C 422.827 -0.785264 1.7849 0
M  V30 4360 O 422.097 -1.56387 1.17983 0
M  V30 4361 H 420.677 0.2509 0.703604 0
M  V30 4362 H 423.339 1.27417 1.47482 0
M  V30 4363 H 422.435 0.959621 2.96981 0
M  V30 4364 N 422.737 -1.36956 0.779787 0
M  V30 4365 C 423.685 -2.32053 0.15942 0
M  V30 4366 C 424.679 -1.55333 -0.675878 0
M  V30 4367 O 425.885 -1.70668 -0.57204 0
M  V30 4368 H 422.26 -0.751286 0.0327707 0
M  V30 4369 H 424.231 -2.8195 0.977078 0
M  V30 4370 C 422.98 -3.40602 -0.698977 0
M  V30 4371 H 422.303 -3.99746 -0.0655966 0
M  V30 4372 H 423.743 -4.09486 -1.09989 0
M  V30 4373 C 422.202 -2.81359 -1.85307 0
M  V30 4374 O 422.732 -2.72751 -2.94906 0
M  V30 4375 N 420.938 -2.38786 -1.65619 0
M  V30 4376 H 420.485 -2.45987 -0.764725 0
M  V30 4377 H 420.443 -1.99493 -2.43002 0
M  V30 4378 N 424.215 -0.530993 -1.48385 0
M  V30 4379 C 425.445 -0.00133928 -2.066 0
M  V30 4380 C 425.853 1.28599 -1.38777 0
M  V30 4381 O 425.196 1.77599 -0.469495 0
M  V30 4382 C 425.258 0.292137 -3.58311 0
M  V30 4383 C 424.922 -0.901864 -4.48013 0
M  V30 4384 C 425.919 -1.80053 -4.87726 0
M  V30 4385 C 423.604 -1.10915 -4.89901 0
M  V30 4386 C 425.598 -2.89038 -5.68098 0
M  V30 4387 C 423.285 -2.20213 -5.70043 0
M  V30 4388 C 424.283 -3.09107 -6.0905 0
M  V30 4389 O 423.971 -4.16514 -6.87583 0
M  V30 4390 H 423.703 -0.0308475 -0.675296 0
M  V30 4391 H 426.257 -0.736335 -1.91748 0
M  V30 4392 H 424.487 1.08112 -3.7128 0
M  V30 4393 H 426.176 0.763994 -3.98645 0
M  V30 4394 H 426.942 -1.65234 -4.55986 0
M  V30 4395 H 422.821 -0.426498 -4.59023 0
M  V30 4396 H 426.365 -3.58451 -5.98464 0
M  V30 4397 H 422.262 -2.35016 -6.01197 0
M  V30 4398 H 423.03 -4.14237 -7.05939 0
M  V30 4399 N 425.693 1.55336 -0.266172 0
M  V30 4400 C 426.941 1.99003 0.35246 0
M  V30 4401 C 427.262 1.15591 1.57047 0
M  V30 4402 O 426.532 0.243268 1.94384 0
M  V30 4403 H 425.112 0.735025 0.133217 0
M  V30 4404 H 427.774 1.91367 -0.369434 0
M  V30 4405 H 426.87 3.05289 0.648453 0
M  V30 4406 N 427.171 -0.0066808 1.57599 0
M  V30 4407 C 428.419 -0.691552 1.899 0
M  V30 4408 C 428.74 -1.74682 0.866672 0
M  V30 4409 O 428.01 -1.95661 -0.0968189 0
M  V30 4410 H 426.59 -0.258416 0.700878 0
M  V30 4411 H 429.252 0.0326655 1.94873 0
M  V30 4412 H 428.348 -1.16702 2.8946 0
M  V30 4413 N 428.649 -1.55105 -0.279332 0
M  V30 4414 C 429.874 -1.7976 -1.03446 0
M  V30 4415 C 430.299 -0.565952 -1.79384 0
M  V30 4416 O 429.657 0.484259 -1.74713 0
M  V30 4417 C 429.705 -3.0179 -1.97371 0
M  V30 4418 O 428.809 -2.76432 -3.06038 0
M  V30 4419 H 428.15 -0.594334 -0.29608 0
M  V30 4420 H 430.68 -2.02235 -0.310165 0
M  V30 4421 H 430.69 -3.30351 -2.39441 0
M  V30 4422 H 429.365 -3.91085 -1.4151 0
M  V30 4423 H 427.942 -2.58949 -2.68328 0
M  V30 4424 N 430.127 0.543554 -1.4793 0
M  V30 4425 C 431.373 1.29961 -1.56466 0
M  V30 4426 C 431.728 1.91024 -0.229696 0
M  V30 4427 O 431.021 1.75619 0.766072 0
M  V30 4428 C 431.215 2.42078 -2.62932 0
M  V30 4429 C 431.044 1.92003 -4.06651 0
M  V30 4430 C 429.814 1.75223 -4.73946 0
M  V30 4431 C 432.012 1.45648 -4.93245 0
M  V30 4432 N 429.994 1.19632 -6.02131 0
M  V30 4433 C 431.365 1.01914 -6.11566 0
M  V30 4434 C 433.42 1.33826 -4.79578 0
M  V30 4435 C 432.123 0.475301 -7.17728 0
M  V30 4436 C 434.149 0.808427 -5.85848 0
M  V30 4437 C 433.511 0.381081 -7.03368 0
M  V30 4438 H 429.61 0.467086 -0.62718 0
M  V30 4439 H 432.194 0.614543 -1.84747 0
M  V30 4440 H 430.365 3.08098 -2.36496 0
M  V30 4441 H 432.097 3.09096 -2.61231 0
M  V30 4442 H 428.852 1.98345 -4.30065 0
M  V30 4443 H 429.276 0.93885 -6.70458 0
M  V30 4444 H 433.918 1.65474 -3.89074 0
M  V30 4445 H 431.636 0.146472 -8.07967 0
M  V30 4446 H 435.222 0.720315 -5.77324 0
M  V30 4447 H 434.102 -0.0225344 -7.84197 0
M  V30 4448 N 431.605 1.3629 0.791371 0
M  V30 4449 C 432.851 1.31613 1.5508 0
M  V30 4450 C 433.206 -0.104372 1.92117 0
M  V30 4451 O 432.499 -1.05845 1.5971 0
M  V30 4452 C 432.693 2.17068 2.8393 0
M  V30 4453 C 432.522 3.67285 2.59484 0
M  V30 4454 C 431.292 4.36469 2.54604 0
M  V30 4455 C 433.49 4.60595 2.28816 0
M  V30 4456 N 431.472 5.7234 2.22036 0
M  V30 4457 C 432.843 5.847 2.06218 0
M  V30 4458 C 434.898 4.4918 2.14806 0
M  V30 4459 C 433.601 6.98671 1.71028 0
M  V30 4460 C 435.627 5.63017 1.81014 0
M  V30 4461 C 434.989 6.86159 1.59263 0
M  V30 4462 H 431.088 0.536878 0.568582 0
M  V30 4463 H 433.672 1.71323 0.925007 0
M  V30 4464 H 431.843 1.79605 3.44378 0
M  V30 4465 H 433.575 2.03795 3.49642 0
M  V30 4466 H 430.33 3.89249 2.69782 0
M  V30 4467 H 430.754 6.44093 2.08503 0
M  V30 4468 H 435.396 3.54564 2.30313 0
M  V30 4469 H 433.114 7.9324 1.54259 0
M  V30 4470 H 436.7 5.56146 1.70861 0
M  V30 4471 H 435.58 7.72753 1.335 0
M  V30 4472 N 433.083 -1.0153 1.20538 0
M  V30 4473 C 434.015 -2.10224 0.913155 0
M  V30 4474 C 435.028 -1.62495 -0.0995998 0
M  V30 4475 O 436.217 -1.78014 0.131582 0
M  V30 4476 C 433.317 -3.37111 0.347717 0
M  V30 4477 C 432.49 -4.13971 1.41233 0
M  V30 4478 C 431.549 -5.19158 0.857976 0
M  V30 4479 O 430.575 -5.48 1.53897 0
M  V30 4480 N 431.777 -5.7955 -0.331966 0
M  V30 4481 H 434.542 -2.35879 1.84881 0
M  V30 4482 H 432.103 -1.17931 1.10923 0
M  V30 4483 H 434.095 -4.04683 -0.0373026 0
M  V30 4484 H 432.665 -3.08696 -0.492527 0
M  V30 4485 H 431.885 -3.41351 1.97163 0
M  V30 4486 H 433.173 -4.62103 2.12928 0
M  V30 4487 H 432.571 -5.58455 -0.902478 0
M  V30 4488 H 431.128 -6.48464 -0.65861 0
M  V30 4489 N 434.561 -1.01147 -1.20859 0
M  V30 4490 C 435.493 -0.535546 -2.22855 0
M  V30 4491 C 436.506 0.379323 -1.58319 0
M  V30 4492 O 437.695 0.178489 -1.77605 0
M  V30 4493 C 434.795 0.240962 -3.38042 0
M  V30 4494 C 433.968 -0.674562 -4.32167 0
M  V30 4495 C 433.027 0.053467 -5.26173 0
M  V30 4496 O 432.053 -0.567339 -5.66366 0
M  V30 4497 N 433.255 1.32997 -5.65059 0
M  V30 4498 H 436.02 -1.41268 -2.64317 0
M  V30 4499 H 433.581 -0.888386 -1.35349 0
M  V30 4500 H 435.573 0.737115 -3.97931 0
M  V30 4501 H 434.143 1.01935 -2.95513 0
M  V30 4502 H 433.363 -1.35111 -3.70322 0
M  V30 4503 H 434.651 -1.2974 -4.91981 0
M  V30 4504 H 434.049 1.85536 -5.34409 0
M  V30 4505 H 432.606 1.77095 -6.2728 0
M  V30 4506 N 436.039 1.36541 -0.78704 0
M  V30 4507 C 436.987 2.31965 -0.171724 0
M  V30 4508 C 437.981 1.55689 0.667631 0
M  V30 4509 O 439.187 1.70969 0.562981 0
M  V30 4510 H 435.562 0.751101 -0.0367545 0
M  V30 4511 H 437.533 2.81428 -0.992017 0
M  V30 4512 C 436.282 3.40968 0.680904 0
M  V30 4513 H 435.605 3.99775 0.0443961 0
M  V30 4514 H 437.045 4.10063 1.07815 0
M  V30 4515 C 435.504 2.82338 1.83813 0
M  V30 4516 O 436.034 2.74311 2.93456 0
M  V30 4517 N 434.24 2.39661 1.6435 0
M  V30 4518 H 433.787 2.46389 0.751668 0
M  V30 4519 H 433.745 2.00779 2.4194 0
M  V30 4520 N 437.518 0.538854 1.48102 0
M  V30 4521 C 438.929 0.100679 1.86428 0
M  V30 4522 C 439.28 -1.32447 1.44749 0
M  V30 4523 O 438.405 -1.99339 0.842199 0
M  V30 4524 C 439 0.175933 3.38343 0
M  V30 4525 C 437.559 -0.207098 3.7583 0
M  V30 4526 C 436.706 0.531741 2.72154 0
M  V30 4527 H 439.657 0.749614 1.3988 0
M  V30 4528 H 439.678 -0.610144 3.75576 0
M  V30 4529 H 439.19 1.21328 3.68648 0
M  V30 4530 H 437.291 -1.24626 3.5114 0
M  V30 4531 H 437.404 0.138687 4.78899 0
M  V30 4532 H 435.768 -0.0230462 2.5469 0
M  V30 4533 H 436.551 1.56989 3.05302 0
M  V30 4534 N 438.996 -1.55193 0.274407 0
M  V30 4535 C 439.906 -2.26164 -0.623473 0
M  V30 4536 C 440.922 -1.28729 -1.17068 0
M  V30 4537 O 442.098 -1.61663 -1.20112 0
M  V30 4538 C 439.163 -2.96833 -1.7914 0
M  V30 4539 C 438.224 -4.09745 -1.28093 0
M  V30 4540 C 437.457 -4.77034 -2.3932 0
M  V30 4541 O 437.68 -4.4353 -3.5866 0
M  V30 4542 O 436.614 -5.64996 -2.07516 0
M  V30 4543 H 440.44 -3.03661 -0.0485661 0
M  V30 4544 H 438.025 -1.49341 0.0418382 0
M  V30 4545 H 439.907 -3.41248 -2.4724 0
M  V30 4546 H 438.582 -2.22253 -2.35341 0
M  V30 4547 H 437.489 -3.69787 -0.566416 0
M  V30 4548 H 438.822 -4.86224 -0.764683 0
M  V30 4549 N 440.474 -0.00167713 -1.576 0
M  V30 4550 C 441.721 0.68282 -1.90641 0
M  V30 4551 C 442.049 1.73686 -0.875415 0
M  V30 4552 O 441.304 1.95334 0.119575 0
M  V30 4553 C 441.603 1.36189 -3.30435 0
M  V30 4554 C 441.269 0.440887 -4.48739 0
M  V30 4555 C 439.931 0.187312 -4.80835 0
M  V30 4556 C 442.283 -0.193134 -5.20842 0
M  V30 4557 C 439.611 -0.70855 -5.82406 0
M  V30 4558 C 441.963 -1.07688 -6.23367 0
M  V30 4559 C 440.627 -1.33962 -6.53919 0
M  V30 4560 H 439.897 0.249862 -0.697603 0
M  V30 4561 H 442.544 -0.0575642 -1.91413 0
M  V30 4562 H 440.849 2.17636 -3.25794 0
M  V30 4563 H 442.546 1.89759 -3.5326 0
M  V30 4564 H 439.136 0.648694 -4.23663 0
M  V30 4565 H 443.32 -0.0102445 -4.96299 0
M  V30 4566 H 438.576 -0.920097 -6.04437 0
M  V30 4567 H 442.75 -1.57451 -6.78367 0
M  V30 4568 H 440.377 -2.03549 -7.32442 0
M  V30 4569 N 441.952 1.55251 0.271103 0
M  V30 4570 C 442.862 1.9136 1.35714 0
M  V30 4571 C 443.878 0.811075 1.5394 0
M  V30 4572 O 445.054 1.11031 1.6803 0
M  V30 4573 C 442.119 2.1798 2.69603 0
M  V30 4574 C 441.18 3.4153 2.60107 0
M  V30 4575 C 440.413 3.66871 3.8761 0
M  V30 4576 O 440.636 2.94689 4.8838 0
M  V30 4577 O 439.57 4.60405 3.87699 0
M  V30 4578 H 443.396 2.83815 1.08088 0
M  V30 4579 H 440.981 1.41821 0.469792 0
M  V30 4580 H 442.863 2.36518 3.48765 0
M  V30 4581 H 441.538 1.28708 2.97012 0
M  V30 4582 H 440.445 3.28325 1.79314 0
M  V30 4583 H 441.778 4.31027 2.37647 0
M  V30 4584 N 443.43 -0.535701 1.48216 0
M  V30 4585 C 444.655 -1.32149 1.59848 0
M  V30 4586 C 445.08 -1.86338 0.256842 0
M  V30 4587 O 444.438 -1.64107 -0.770632 0
M  V30 4588 C 444.486 -2.45224 2.64381 0
M  V30 4589 O 443.59 -3.48093 2.21144 0
M  V30 4590 H 442.931 -0.391634 0.536208 0
M  V30 4591 H 445.461 -0.645202 1.94161 0
M  V30 4592 H 445.471 -2.91491 2.85476 0
M  V30 4593 H 444.146 -2.05143 3.61786 0
M  V30 4594 H 442.723 -3.07984 2.10239 0
M  V30 4595 N 444.908 -1.36708 -0.784132 0
M  V30 4596 C 446.155 -1.31231 -1.54222 0
M  V30 4597 C 446.483 0.106864 -1.94206 0
M  V30 4598 O 445.738 1.07734 -1.63376 0
M  V30 4599 C 446.037 -2.18571 -2.82774 0
M  V30 4600 C 445.703 -3.67039 -2.61903 0
M  V30 4601 C 444.365 -4.07503 -2.55919 0
M  V30 4602 C 446.717 -4.61149 -2.4288 0
M  V30 4603 C 444.045 -5.40211 -2.28886 0
M  V30 4604 C 446.397 -5.94081 -2.17373 0
M  V30 4605 C 445.061 -6.33664 -2.09825 0
M  V30 4606 H 444.331 -0.48021 -0.56434 0
M  V30 4607 H 446.978 -1.68807 -0.904233 0
M  V30 4608 H 445.283 -1.73949 -3.51068 0
M  V30 4609 H 446.98 -2.11655 -3.40592 0
M  V30 4610 H 443.57 -3.34941 -2.67418 0
M  V30 4611 H 447.754 -4.30756 -2.46501 0
M  V30 4612 H 443.01 -5.69855 -2.21529 0
M  V30 4613 H 447.184 -6.66566 -2.01649 0
M  V30 4614 H 444.811 -7.36423 -1.88641 0
M  V30 4615 N 446.386 1.0089 -1.21074 0
M  V30 4616 C 447.334 2.11707 -0.963476 0
M  V30 4617 C 448.328 1.69172 0.0879032 0
M  V30 4618 O 449.534 1.79889 -0.0631415 0
M  V30 4619 H 445.909 0.692026 -0.294287 0
M  V30 4620 H 447.88 2.29743 -1.90422 0
M  V30 4621 C 446.629 3.43473 -0.540509 0
M  V30 4622 H 445.952 3.76634 -1.34114 0
M  V30 4623 H 447.392 4.22044 -0.406777 0
M  V30 4624 C 445.851 3.2849 0.748079 0
M  V30 4625 O 446.381 3.58883 1.8046 0
M  V30 4626 N 444.587 2.81715 0.713081 0
M  V30 4627 H 444.134 2.5718 -0.146973 0
M  V30 4628 H 444.092 2.72071 1.57558 0
M  V30 4629 N 447.864 1.01787 1.20321 0
M  V30 4630 C 449.112 0.706538 1.89347 0
M  V30 4631 C 449.433 -0.766289 1.79313 0
M  V30 4632 O 448.703 -1.55126 1.19635 0
M  V30 4633 H 447.283 0.258348 0.700903 0
M  V30 4634 H 449.945 1.28974 1.46122 0
M  V30 4635 H 449.041 0.991066 2.95946 0
M  V30 4636 N 449.342 -1.36122 0.79427 0
M  V30 4637 C 450.753 -1.81646 0.431446 0
M  V30 4638 C 451.104 -1.66043 -1.04518 0
M  V30 4639 O 450.229 -1.1841 -1.8113 0
M  V30 4640 C 450.824 -3.29785 0.776341 0
M  V30 4641 C 449.383 -3.73501 0.466282 0
M  V30 4642 C 448.53 -2.58313 1.00844 0
M  V30 4643 H 451.481 -1.24274 0.986995 0
M  V30 4644 H 451.502 -3.80437 0.0692413 0
M  V30 4645 H 451.014 -3.4111 1.8511 0
M  V30 4646 H 449.115 -3.67733 -0.600245 0
M  V30 4647 H 449.228 -4.68754 0.990288 0
M  V30 4648 H 447.592 -2.5102 0.431406 0
M  V30 4649 H 448.375 -2.72421 2.08906 0
M  V30 4650 N 450.82 -0.546701 -1.47814 0
M  V30 4651 C 452.069 -0.0166497 -2.01693 0
M  V30 4652 C 452.382 1.33721 -1.42752 0
M  V30 4653 O 453.588 1.95658 -1.8823 0
M  V30 4654 C 452.044 0.0206769 -3.59894 0
M  V30 4655 C 451.652 -1.3293 -4.27824 0
M  V30 4656 C 453.396 0.498674 -4.21561 0
M  V30 4657 C 451.303 -1.25165 -5.78003 0
M  V30 4658 H 450.233 -0.0024541 -0.753996 0
M  V30 4659 H 452.884 -0.692984 -1.69912 0
M  V30 4660 H 451.266 0.76244 -3.88591 0
M  V30 4661 H 452.44 -2.08795 -4.10781 0
M  V30 4662 H 450.755 -1.74438 -3.78101 0
M  V30 4663 H 453.352 0.575 -5.31599 0
M  V30 4664 H 453.695 1.5083 -3.88016 0
M  V30 4665 H 454.228 -0.18791 -3.97356 0
M  V30 4666 H 450.967 -2.23695 -6.1615 0
M  V30 4667 H 450.487 -0.53464 -5.97412 0
M  V30 4668 H 452.166 -0.949299 -6.39998 0
M  V30 4669 N 452.299 1.55045 -0.282633 0
M  V30 4670 C 453.229 2.2579 0.595066 0
M  V30 4671 C 454.21 1.25074 1.15284 0
M  V30 4672 O 455.395 1.5381 1.18559 0
M  V30 4673 C 452.525 2.98472 1.77572 0
M  V30 4674 C 451.479 4.0618 1.34914 0
M  V30 4675 C 450.805 4.66477 2.6135 0
M  V30 4676 C 452.105 5.1996 0.493821 0
M  V30 4677 H 453.799 2.994 0.00505653 0
M  V30 4678 H 451.345 1.44 0.000992001 0
M  V30 4679 H 453.298 3.46677 2.39568 0
M  V30 4680 H 452.022 2.2241 2.39168 0
M  V30 4681 H 450.681 3.58797 0.752338 0
M  V30 4682 H 450.329 3.87074 3.2122 0
M  V30 4683 H 450.029 5.39207 2.33516 0
M  V30 4684 H 451.553 5.17435 3.24181 0
M  V30 4685 H 452.967 5.64172 1.01898 0
M  V30 4686 H 451.364 5.99299 0.310047 0
M  V30 4687 H 452.434 4.82462 -0.485593 0
M  V30 4688 N 453.777 0.010035 1.57597 0
M  V30 4689 C 454.707 -0.976857 2.12084 0
M  V30 4690 C 455.688 -1.35191 1.03235 0
M  V30 4691 O 456.873 -1.43389 1.3097 0
M  V30 4692 C 454.003 -2.26548 2.63236 0
M  V30 4693 C 452.957 -2.03175 3.76701 0
M  V30 4694 C 452.283 -3.38138 4.14206 0
M  V30 4695 C 453.583 -1.38625 5.03568 0
M  V30 4696 H 455.277 -0.523145 2.94794 0
M  V30 4697 H 452.823 -0.250195 1.4181 0
M  V30 4698 H 454.776 -2.95952 2.99984 0
M  V30 4699 H 453.5 -2.74051 1.77661 0
M  V30 4700 H 452.159 -1.36195 3.40362 0
M  V30 4701 H 451.807 -3.83363 3.25641 0
M  V30 4702 H 451.507 -3.23312 4.90656 0
M  V30 4703 H 453.031 -4.08841 4.53521 0
M  V30 4704 H 454.445 -1.98 5.38023 0
M  V30 4705 H 452.842 -1.34256 5.84889 0
M  V30 4706 H 453.912 -0.356722 4.83586 0
M  V30 4707 N 455.255 -1.55392 -0.262866 0
M  V30 4708 C 456.483 -1.80513 -1.01108 0
M  V30 4709 C 456.898 -0.583533 -1.79556 0
M  V30 4710 O 456.255 0.447585 -1.76926 0
M  V30 4711 C 456.306 -3.03648 -1.96164 0
M  V30 4712 O 456.027 -4.2109 -1.20893 0
M  V30 4713 C 457.528 -3.41448 -2.82715 0
M  V30 4714 H 454.748 -0.601079 -0.298236 0
M  V30 4715 H 457.292 -2.02425 -0.290582 0
M  V30 4716 H 455.447 -2.83832 -2.63663 0
M  V30 4717 H 455.861 -4.90771 -1.85051 0
M  V30 4718 H 457.335 -4.30751 -3.45192 0
M  V30 4719 H 457.812 -2.61308 -3.53008 0
M  V30 4720 H 458.418 -3.63559 -2.20693 0
M  V30 4721 N 456.733 0.527833 -1.48498 0
M  V30 4722 C 457.961 1.30823 -1.6029 0
M  V30 4723 C 458.376 1.86945 -0.263974 0
M  V30 4724 O 457.733 1.6651 0.747034 0
M  V30 4725 C 457.784 2.45756 -2.65116 0
M  V30 4726 O 457.505 1.91946 -3.93813 0
M  V30 4727 C 459.006 3.37543 -2.87367 0
M  V30 4728 H 456.226 0.397763 -0.540394 0
M  V30 4729 H 458.77 0.636529 -1.94341 0
M  V30 4730 H 456.925 3.08806 -2.33917 0
M  V30 4731 H 457.339 2.67195 -4.51339 0
M  V30 4732 H 458.813 4.14532 -3.6451 0
M  V30 4733 H 459.29 3.92905 -1.9627 0
M  V30 4734 H 459.896 2.80283 -3.19878 0
M  V30 4735 N 458.211 1.37122 0.776871 0
M  V30 4736 C 459.159 1.32549 1.91138 0
M  V30 4737 C 460.153 0.215119 1.68029 0
M  V30 4738 O 461.359 0.382852 1.75881 0
M  V30 4739 H 457.734 0.412952 0.62847 0
M  V30 4740 H 459.705 2.28332 1.92112 0
M  V30 4741 C 458.454 1.14422 3.28333 0
M  V30 4742 H 457.777 1.99115 3.46689 0
M  V30 4743 H 459.217 1.15272 4.0803 0
M  V30 4744 C 457.676 -0.150434 3.36564 0
M  V30 4745 O 458.206 -1.13584 3.85307 0
M  V30 4746 N 456.412 -0.19939 2.89915 0
M  V30 4747 H 455.959 0.603142 2.5044 0
M  V30 4748 H 455.917 -1.06526 2.95803 0
M  V30 4749 N 459.689 -1.00246 1.21608 0
M  V30 4750 C 460.929 -1.75589 1.04631 0
M  V30 4751 C 461.293 -1.87513 -0.412648 0
M  V30 4752 O 462.494 -2.59444 -0.703003 0
M  V30 4753 C 460.765 -3.12893 1.72722 0
M  V30 4754 S 462.324 -4.04095 1.71034 0
M  V30 4755 H 459.142 -0.604133 0.374892 0
M  V30 4756 H 461.744 -1.19927 1.54395 0
M  V30 4757 H 460.448 -3.0185 2.78055 0
M  V30 4758 H 459.979 -3.73628 1.23149 0
M  V30 4759 H 461.994 -4.9045 0.753231 0
M  V30 4760 N 461.167 -1.02423 -1.1978 0
M  V30 4761 C 462.097 -0.62157 -2.25075 0
M  V30 4762 C 463.078 0.367148 -1.6609 0
M  V30 4763 O 464.263 0.250892 -1.92573 0
M  V30 4764 C 461.393 0.0331826 -3.47284 0
M  V30 4765 C 460.347 -0.877323 -4.18912 0
M  V30 4766 C 459.673 -0.0879296 -5.34628 0
M  V30 4767 C 460.973 -2.18892 -4.74219 0
M  V30 4768 H 462.667 -1.50179 -2.59011 0
M  V30 4769 H 460.213 -0.723547 -1.24502 0
M  V30 4770 H 462.166 0.326488 -4.20133 0
M  V30 4771 H 460.89 0.948164 -3.12534 0
M  V30 4772 H 459.549 -1.15475 -3.47938 0
M  V30 4773 H 459.197 0.828941 -4.96123 0
M  V30 4774 H 458.897 -0.694359 -5.83483 0
M  V30 4775 H 460.421 0.198743 -6.10276 0
M  V30 4776 H 461.835 -1.95746 -5.38847 0
M  V30 4777 H 460.232 -2.74686 -5.33542 0
M  V30 4778 H 461.302 -2.84674 -3.92541 0
M  V30 4779 N 462.645 1.35699 -0.801477 0
M  V30 4780 C 463.891 1.99208 -0.380022 0
M  V30 4781 C 464.224 1.63445 1.04878 0
M  V30 4782 O 463.499 0.895223 1.72673 0
M  V30 4783 C 463.782 3.55755 -0.557708 0
M  V30 4784 C 463.635 4.01332 -2.03107 0
M  V30 4785 C 464.954 4.40096 0.0197968 0
M  V30 4786 H 462.073 0.723667 -0.139552 0
M  V30 4787 H 464.715 1.60928 -1.01006 0
M  V30 4788 H 462.865 3.88494 -0.0213741 0
M  V30 4789 H 464.537 3.79026 -2.62939 0
M  V30 4790 H 462.78 3.52429 -2.52936 0
M  V30 4791 H 463.451 5.10234 -2.1063 0
M  V30 4792 H 465.927 4.13786 -0.438179 0
M  V30 4793 H 464.803 5.48735 -0.134477 0
M  V30 4794 H 465.064 4.2786 1.11303 0
M  V30 4795 N 464.123 0.554532 1.47522 0
M  V30 4796 C 465.534 0.120446 1.86311 0
M  V30 4797 C 465.885 -1.30904 1.46145 0
M  V30 4798 O 465.01 -1.98434 0.863294 0
M  V30 4799 C 465.605 0.211808 3.38137 0
M  V30 4800 C 464.164 -0.167224 3.76028 0
M  V30 4801 C 463.311 0.560576 2.71575 0
M  V30 4802 H 466.262 0.764408 1.39077 0
M  V30 4803 H 466.283 -0.570275 3.76202 0
M  V30 4804 H 465.795 1.25232 3.6734 0
M  V30 4805 H 463.896 -1.20894 3.52442 0
M  V30 4806 H 464.009 0.189473 4.78725 0
M  V30 4807 H 462.373 0.00396836 2.547 0
M  V30 4808 H 463.156 1.60219 3.0362 0
M  V30 4809 N 465.601 -1.54893 0.290851 0
M  V30 4810 C 466.531 -2.26103 -0.583084 0
M  V30 4811 C 467.512 -1.25684 -1.14619 0
M  V30 4812 O 468.697 -1.54436 -1.17741 0
M  V30 4813 C 465.827 -2.99409 -1.75987 0
M  V30 4814 C 464.781 -4.0689 -1.32758 0
M  V30 4815 C 464.107 -4.67856 -2.58872 0
M  V30 4816 C 465.407 -5.20215 -0.46624 0
M  V30 4817 H 467.101 -2.99398 0.0108214 0
M  V30 4818 H 464.647 -1.43998 0.00664468 0
M  V30 4819 H 466.6 -3.47943 -2.37727 0
M  V30 4820 H 465.324 -2.23675 -2.37985 0
M  V30 4821 H 463.983 -3.59191 -0.733299 0
M  V30 4822 H 463.631 -3.88772 -3.19163 0
M  V30 4823 H 463.331 -5.40438 -2.30653 0
M  V30 4824 H 464.855 -5.19147 -3.21433 0
M  V30 4825 H 466.269 -5.64704 -0.989047 0
M  V30 4826 H 464.666 -5.99455 -0.27826 0
M  V30 4827 H 465.736 -4.82198 0.511173 0
M  V30 4828 N 467.08 -0.0183926 -1.57589 0
M  V30 4829 C 468.027 0.967022 -2.09565 0
M  V30 4830 C 468.997 1.32983 -0.995225 0
M  V30 4831 O 470.182 1.42501 -1.26878 0
M  V30 4832 C 467.322 2.24772 -2.61861 0
M  V30 4833 C 466.435 1.94232 -3.85873 0
M  V30 4834 C 465.57 3.16518 -4.26603 0
M  V30 4835 C 464.609 2.81748 -5.43401 0
M  V30 4836 N 463.746 3.96626 -5.79338 0
M  V30 4837 H 468.586 0.516874 -2.93483 0
M  V30 4838 H 466.123 0.243544 -1.4507 0
M  V30 4839 H 468.081 2.99667 -2.90268 0
M  V30 4840 H 466.711 2.67423 -1.8079 0
M  V30 4841 H 465.763 1.09625 -3.64262 0
M  V30 4842 H 467.075 1.64616 -4.70853 0
M  V30 4843 H 466.229 3.99743 -4.56389 0
M  V30 4844 H 464.968 3.49286 -3.40368 0
M  V30 4845 H 463.973 1.96933 -5.1332 0
M  V30 4846 H 465.198 2.50207 -6.31327 0
M  V30 4847 H 463.144 4.29257 -4.96059 0
M  V30 4848 H 463.061 3.70598 -6.58933 0
M  V30 4849 H 464.329 4.80586 -6.13724 0
M  V30 4850 N 468.558 1.5553 0.254621 0
M  V30 4851 C 469.505 1.89666 1.31512 0
M  V30 4852 C 470.475 0.750057 1.482 0
M  V30 4853 O 471.66 1.00301 1.62309 0
M  V30 4854 C 468.8 2.19009 2.667 0
M  V30 4855 C 467.913 3.46435 2.58083 0
M  V30 4856 C 467.048 3.65386 3.85573 0
M  V30 4857 C 466.087 4.8644 3.71541 0
M  V30 4858 N 465.224 5.01952 4.90906 0
M  V30 4859 H 470.064 2.80109 1.017 0
M  V30 4860 H 467.601 1.38666 0.490938 0
M  V30 4861 H 469.559 2.34025 3.45381 0
M  V30 4862 H 468.189 1.31779 2.94676 0
M  V30 4863 H 467.241 3.39792 1.71013 0
M  V30 4864 H 468.553 4.35258 2.43622 0
M  V30 4865 H 467.707 3.80319 4.72697 0
M  V30 4866 H 466.446 2.74781 4.02922 0
M  V30 4867 H 465.451 4.71491 2.82801 0
M  V30 4868 H 466.676 5.78497 3.55694 0
M  V30 4869 H 464.622 4.14283 5.08631 0
M  V30 4870 H 464.539 5.84851 4.79046 0
M  V30 4871 H 465.807 5.21289 5.7955 0
M  V30 4872 N 470.036 -0.519951 1.48776 0
M  V30 4873 C 470.946 -1.65025 1.66745 0
M  V30 4874 C 471.962 -1.6508 0.549954 0
M  V30 4875 O 473.138 -1.83848 0.822295 0
M  V30 4876 C 470.203 -3.0146 1.71238 0
M  V30 4877 C 469.264 -3.12182 2.94688 0
M  V30 4878 C 468.497 -4.42109 2.98958 0
M  V30 4879 O 468.72 -5.29799 2.1135 0
M  V30 4880 O 467.654 -4.57406 3.91233 0
M  V30 4881 H 471.48 -1.52801 2.62461 0
M  V30 4882 H 469.065 -0.694157 1.32294 0
M  V30 4883 H 470.947 -3.82584 1.76657 0
M  V30 4884 H 469.622 -3.13988 0.786975 0
M  V30 4885 H 468.529 -2.30316 2.94797 0
M  V30 4886 H 469.862 -3.04574 3.86646 0
M  V30 4887 N 471.514 -1.37532 -0.769588 0
M  V30 4888 C 472.462 -1.33561 -1.90432 0
M  V30 4889 C 473.456 -0.224027 -1.67912 0
M  V30 4890 O 474.662 -0.392174 -1.75676 0
M  V30 4891 H 471.037 -0.416279 -0.626271 0
M  V30 4892 H 473.008 -2.29348 -1.90899 0
M  V30 4893 C 471.757 -1.16162 -3.27722 0
M  V30 4894 H 471.08 -2.00951 -3.45628 0
M  V30 4895 H 472.52 -1.17434 -4.07413 0
M  V30 4896 C 470.979 0.132583 -3.36639 0
M  V30 4897 O 471.509 1.11539 -3.85904 0
M  V30 4898 N 469.715 0.184013 -2.90017 0
M  V30 4899 H 469.262 -0.616415 -2.50116 0
M  V30 4900 H 469.22 1.04956 -2.96364 0
M  V30 4901 N 472.992 0.995999 -1.22138 0
M  V30 4902 C 474.22 1.77066 -1.07029 0
M  V30 4903 C 474.635 1.8495 0.379357 0
M  V30 4904 O 473.992 1.3174 1.26297 0
M  V30 4905 C 474.043 3.20533 -1.67155 0
M  V30 4906 O 473.764 3.13082 -3.06449 0
M  V30 4907 C 475.265 4.14461 -1.5728 0
M  V30 4908 H 472.485 0.556179 -0.375374 0
M  V30 4909 H 475.029 1.25238 -1.61666 0
M  V30 4910 H 473.184 3.6944 -1.16589 0
M  V30 4911 H 473.598 4.03283 -3.35355 0
M  V30 4912 H 475.072 5.1289 -2.04078 0
M  V30 4913 H 475.549 4.36005 -0.528795 0
M  V30 4914 H 476.155 3.71449 -2.07136 0
M  V30 4915 N 474.47 1.03057 1.19235 0
M  V30 4916 C 475.7 0.746613 1.92638 0
M  V30 4917 C 476.108 -0.698708 1.75826 0
M  V30 4918 O 475.451 -1.487 1.07861 0
M  V30 4919 C 475.513 1.02024 3.44719 0
M  V30 4920 C 475.177 2.45745 3.85303 0
M  V30 4921 C 476.174 3.43887 3.8992 0
M  V30 4922 C 473.859 2.8019 4.16892 0
M  V30 4923 C 475.853 4.74529 4.2556 0
M  V30 4924 C 473.54 4.1104 4.52205 0
M  V30 4925 C 474.538 5.0802 4.56513 0
M  V30 4926 O 474.226 6.36527 4.91008 0
M  V30 4927 H 473.958 0.272401 0.618687 0
M  V30 4928 H 476.512 1.37853 1.52269 0
M  V30 4929 H 474.742 0.331184 3.85279 0
M  V30 4930 H 476.431 0.725677 3.9936 0
M  V30 4931 H 477.197 3.18614 3.65664 0
M  V30 4932 H 473.076 2.05382 4.12722 0
M  V30 4933 H 476.62 5.50222 4.28838 0
M  V30 4934 H 472.517 4.36086 4.7592 0
M  V30 4935 H 473.285 6.41025 5.08949 0
M  V30 4936 N 475.948 -1.35272 0.808662 0
M  V30 4937 C 476.878 -2.32315 0.234981 0
M  V30 4938 C 477.859 -1.57572 -0.64071 0
M  V30 4939 O 479.044 -1.8563 -0.570551 0
M  V30 4940 C 476.174 -3.41801 -0.615601 0
M  V30 4941 C 475.128 -4.27694 0.161767 0
M  V30 4942 C 474.454 -5.28519 -0.810649 0
M  V30 4943 C 475.754 -5.04231 1.36193 0
M  V30 4944 H 477.448 -2.80543 1.04575 0
M  V30 4945 H 474.994 -1.3488 0.504315 0
M  V30 4946 H 476.947 -4.08693 -1.02702 0
M  V30 4947 H 475.671 -2.92186 -1.45928 0
M  V30 4948 H 474.33 -3.62384 0.554382 0
M  V30 4949 H 473.978 -4.75171 -1.64988 0
M  V30 4950 H 473.678 -5.8686 -0.294822 0
M  V30 4951 H 475.202 -5.98283 -1.22023 0
M  V30 4952 H 476.616 -5.64058 1.02528 0
M  V30 4953 H 475.013 -5.72077 1.81239 0
M  V30 4954 H 476.083 -4.34753 2.14751 0
M  V30 4955 N 477.426 -0.562348 -1.47226 0
M  V30 4956 C 478.703 0.0256985 -1.95583 0
M  V30 4957 C 479.083 1.48032 -1.50498 0
M  V30 4958 O 478.431 2.15973 -0.746181 0
M  V30 4959 C 478.641 -0.125129 -3.48776 0
M  V30 4960 C 479.989 0.0175728 -4.24596 0
M  V30 4961 O 481.013 -0.0529341 -3.56161 0
M  V30 4962 O 479.872 0.170145 -5.46235 0
M  V30 4963 H 476.966 0.0612565 -0.824728 0
M  V30 4964 H 479.512 -0.629233 -1.57603 0
M  V30 4965 H 478.284 -1.13715 -3.74412 0
M  V30 4966 H 477.907 0.567178 -3.93534 0
M  V30 4967 N 478.904 1.54736 -0.299062 0
M  V30 4968 C 480.32 1.59507 0.0543849 0
M  V30 4969 C 480.52 1.31606 1.52585 0
M  V30 4970 O 479.576 1.08853 2.27832 0
M  V30 4971 C 480.889 2.98751 -0.34181 0
M  V30 4972 C 482.437 3.1165 -0.290414 0
M  V30 4973 C 482.912 4.53199 -0.661402 0
M  V30 4974 N 484.403 4.59114 -0.613863 0
M  V30 4975 C 485.138 5.66709 -0.873417 0
M  V30 4976 N 484.634 6.82349 -1.19884 0
M  V30 4977 N 486.427 5.56369 -0.800608 0
M  V30 4978 H 478.578 1.71133 -1.25806 0
M  V30 4979 H 480.841 0.799186 -0.509908 0
M  V30 4980 H 480.547 3.24085 -1.36608 0
M  V30 4981 H 480.421 3.75961 0.305508 0
M  V30 4982 H 482.808 2.86066 0.724605 0
M  V30 4983 H 482.889 2.366 -0.972327 0
M  V30 4984 H 482.533 4.79513 -1.67422 0
M  V30 4985 H 482.463 5.26583 0.0425612 0
M  V30 4986 H 484.954 3.76053 -0.3732 0
M  V30 4987 H 485.267 7.60326 -1.38291 0
M  V30 4988 H 483.612 6.83906 -1.23685 0
M  V30 4989 H 486.803 4.64904 -0.546045 0
M  V30 4990 H 486.976 6.40139 -1.00626 0
M  V30 4991 N 480.382 0.0267497 1.57577 0
M  V30 4992 C 481.312 -0.954308 2.13108 0
M  V30 4993 C 482.293 -1.34088 1.04663 0
M  V30 4994 O 483.478 -1.41992 1.32484 0
M  V30 4995 C 480.608 -2.23744 2.65624 0
M  V30 4996 C 479.562 -1.99168 3.78835 0
M  V30 4997 C 478.888 -3.33726 4.17769 0
M  V30 4998 C 480.188 -1.33277 5.0501 0
M  V30 4999 H 481.882 -0.491848 2.95332 0
M  V30 5000 H 479.428 -0.23514 1.42067 0
M  V30 5001 H 481.381 -2.92754 3.03106 0
M  V30 5002 H 480.105 -2.72151 1.80558 0
M  V30 5003 H 478.764 -1.32577 3.41788 0
M  V30 5004 H 478.412 -3.79888 3.29688 0
M  V30 5005 H 478.112 -3.18089 4.94058 0
M  V30 5006 H 479.636 -4.04008 4.57832 0
M  V30 5007 H 481.05 -1.92283 5.40093 0
M  V30 5008 H 479.447 -1.28045 5.8628 0
M  V30 5009 H 480.517 -0.305411 4.83937 0
M  V30 5010 N 481.861 -1.55662 -0.24637 0
M  V30 5011 C 483.091 -1.81312 -0.990438 0
M  V30 5012 C 483.499 -0.600234 -1.79426 0
M  V30 5013 O 482.842 0.440537 -1.78339 0
M  V30 5014 C 482.904 -3.0032 -1.97607 0
M  V30 5015 C 482.568 -4.36322 -1.35912 0
M  V30 5016 C 483.565 -5.14295 -0.761348 0
M  V30 5017 C 481.25 -4.83019 -1.37833 0
M  V30 5018 C 483.244 -6.37114 -0.190998 0
M  V30 5019 C 480.931 -6.05786 -0.804128 0
M  V30 5020 C 481.929 -6.82672 -0.211489 0
M  V30 5021 O 481.617 -8.03121 0.353845 0
M  V30 5022 H 481.349 -0.607233 -0.297058 0
M  V30 5023 H 483.903 -2.0356 -0.274351 0
M  V30 5024 H 482.133 -2.73829 -2.73047 0
M  V30 5025 H 483.822 -3.13057 -2.58361 0
M  V30 5026 H 484.588 -4.79337 -0.739013 0
M  V30 5027 H 480.467 -4.23165 -1.829 0
M  V30 5028 H 484.011 -6.97069 0.272206 0
M  V30 5029 H 479.908 -6.40222 -0.823792 0
M  V30 5030 H 480.676 -8.18131 0.245761 0
M  V30 5031 N 483.339 0.512053 -1.4905 0
M  V30 5032 C 484.567 1.29116 -1.61669 0
M  V30 5033 C 484.982 1.86655 -0.283787 0
M  V30 5034 O 484.339 1.67293 0.729331 0
M  V30 5035 C 484.39 2.4293 -2.67707 0
M  V30 5036 O 484.111 1.87758 -3.95826 0
M  V30 5037 C 485.612 3.34476 -2.90931 0
M  V30 5038 H 482.832 0.392009 -0.544583 0
M  V30 5039 H 485.376 0.615881 -1.95006 0
M  V30 5040 H 483.531 3.06308 -2.37179 0
M  V30 5041 H 483.945 2.62393 -4.54148 0
M  V30 5042 H 485.419 4.10642 -3.68886 0
M  V30 5043 H 485.896 3.90801 -2.00427 0
M  V30 5044 H 486.502 2.76874 -3.22832 0
M  V30 5045 N 484.817 1.37938 0.762283 0
M  V30 5046 C 486.045 1.36883 1.55147 0
M  V30 5047 C 486.46 -0.0435348 1.8875 0
M  V30 5048 O 485.817 -1.00786 1.52146 0
M  V30 5049 C 485.868 2.21624 2.85596 0
M  V30 5050 O 485.589 3.57358 2.5343 0
M  V30 5051 C 487.09 2.28653 3.7978 0
M  V30 5052 H 484.31 0.468521 0.480343 0
M  V30 5053 H 486.854 1.81404 0.944079 0
M  V30 5054 H 485.009 1.80588 3.42734 0
M  V30 5055 H 485.423 4.01883 3.37032 0
M  V30 5056 H 486.897 2.9225 4.68288 0
M  V30 5057 H 487.374 1.29767 4.19592 0
M  V30 5058 H 487.98 2.70043 3.28568 0
M  V30 5059 N 486.295 -0.989507 1.22664 0
M  V30 5060 C 487.543 -1.72612 1.05117 0
M  V30 5061 C 487.864 -1.90552 -0.414131 0
M  V30 5062 O 487.134 -1.4676 -1.29762 0
M  V30 5063 H 485.714 -0.639555 0.385977 0
M  V30 5064 H 488.376 -1.19158 1.54232 0
M  V30 5065 H 487.472 -2.71926 1.53175 0
M  V30 5066 N 487.773 -1.03688 -1.18687 0
M  V30 5067 C 489.019 -0.739123 -1.88851 0
M  V30 5068 C 489.352 0.731042 -1.79915 0
M  V30 5069 O 488.627 1.53313 -1.19688 0
M  V30 5070 C 488.91 -1.20106 -3.3948 0
M  V30 5071 C 488.763 -2.73304 -3.57246 0
M  V30 5072 C 490.082 -0.788134 -4.32986 0
M  V30 5073 H 487.201 -0.269978 -0.68577 0
M  V30 5074 H 489.843 -1.28822 -1.3966 0
M  V30 5075 H 487.993 -0.733915 -3.81505 0
M  V30 5076 H 489.665 -3.28027 -3.24339 0
M  V30 5077 H 487.908 -3.13313 -3.00029 0
M  V30 5078 H 488.579 -3.00684 -4.62918 0
M  V30 5079 H 491.055 -1.19005 -3.98719 0
M  V30 5080 H 489.931 -1.13915 -5.36949 0
M  V30 5081 H 490.192 0.308988 -4.41019 0
M  V30 5082 N 489.251 1.34841 -0.815825 0
M  V30 5083 C 490.497 1.98793 -0.401129 0
M  V30 5084 C 490.83 1.64548 1.03139 0
M  V30 5085 O 490.105 0.913487 1.71714 0
M  V30 5086 C 490.388 3.55143 -0.595409 0
M  V30 5087 C 490.241 3.99155 -2.07352 0
M  V30 5088 C 491.56 4.40092 -0.0268823 0
M  V30 5089 H 488.679 0.722146 -0.14722 0
M  V30 5090 H 491.321 1.59847 -1.02707 0
M  V30 5091 H 489.471 3.8845 -0.0625779 0
M  V30 5092 H 491.143 3.76216 -2.66945 0
M  V30 5093 H 489.386 3.49726 -2.56659 0
M  V30 5094 H 490.057 5.07971 -2.1603 0
M  V30 5095 H 492.533 4.13298 -0.482042 0
M  V30 5096 H 491.409 5.48562 -0.19267 0
M  V30 5097 H 491.67 4.29016 1.06759 0
M  V30 5098 N 490.729 0.570148 1.46925 0
M  V30 5099 C 491.977 0.0508523 2.02036 0
M  V30 5100 C 492.298 -1.30885 1.44548 0
M  V30 5101 O 491.568 -1.85647 0.625453 0
M  V30 5102 H 490.148 0.0158088 0.746833 0
M  V30 5103 H 492.81 0.743086 1.80178 0
M  V30 5104 H 491.906 -0.027575 3.12088 0
M  V30 5105 N 492.207 -1.54576 0.307264 0
M  V30 5106 C 493.437 -2.04378 -0.302158 0
M  V30 5107 C 493.845 -1.18381 -1.47589 0
M  V30 5108 O 493.188 -0.20352 -1.82569 0
M  V30 5109 C 493.25 -3.50133 -0.815305 0
M  V30 5110 C 492.914 -4.56401 0.233977 0
M  V30 5111 C 493.911 -5.08884 1.06456 0
M  V30 5112 C 491.596 -5.0088 0.377478 0
M  V30 5113 C 493.59 -6.04394 2.02452 0
M  V30 5114 C 491.277 -5.96208 1.34088 0
M  V30 5115 C 492.275 -6.47849 2.16288 0
M  V30 5116 O 491.963 -7.41308 3.10994 0
M  V30 5117 H 491.695 -0.672502 -0.0686839 0
M  V30 5118 H 494.249 -2.00484 0.446682 0
M  V30 5119 H 492.479 -3.51371 -1.61478 0
M  V30 5120 H 494.168 -3.83098 -1.34129 0
M  V30 5121 H 494.934 -4.75311 0.964596 0
M  V30 5122 H 490.813 -4.60309 -0.252405 0
M  V30 5123 H 494.357 -6.44626 2.66652 0
M  V30 5124 H 490.254 -6.29198 1.44154 0
M  V30 5125 H 491.022 -7.5913 3.06045 0
M  V30 5126 N 493.685 -0.035106 -1.57561 0
M  V30 5127 C 494.595 0.960295 -2.14046 0
M  V30 5128 C 495.611 1.3529 -1.0942 0
M  V30 5129 O 496.787 1.43309 -1.41508 0
M  V30 5130 C 493.852 2.22214 -2.66124 0
M  V30 5131 C 492.913 1.8894 -3.85487 0
M  V30 5132 C 492.146 3.09109 -4.35072 0
M  V30 5133 O 492.369 4.21963 -3.83802 0
M  V30 5134 O 491.303 2.91058 -5.26848 0
M  V30 5135 H 495.129 0.509983 -2.99387 0
M  V30 5136 H 492.714 0.185853 -1.48239 0
M  V30 5137 H 494.596 2.96279 -2.99661 0
M  V30 5138 H 493.271 2.66414 -1.83862 0
M  V30 5139 H 492.178 1.12241 -3.56865 0
M  V30 5140 H 493.511 1.49551 -4.6893 0
M  V30 5141 N 495.163 1.55791 0.238111 0
M  V30 5142 C 496.411 1.77681 0.963001 0
M  V30 5143 C 496.732 0.600674 1.85518 0
M  V30 5144 O 496.002 -0.383182 1.92116 0
M  V30 5145 H 494.582 0.655315 0.358568 0
M  V30 5146 H 497.244 1.93239 0.253945 0
M  V30 5147 H 496.34 2.69177 1.57956 0
M  V30 5148 N 496.642 -0.504142 1.49319 0
M  V30 5149 C 497.605 -1.5883 1.65244 0
M  V30 5150 C 498.605 -1.52009 0.524386 0
M  V30 5151 O 499.795 -1.55218 0.79077 0
M  V30 5152 C 496.927 -2.98481 1.64687 0
M  V30 5153 H 498.12 -1.4604 2.61939 0
M  V30 5154 H 495.673 -0.728144 1.38303 0
M  V30 5155 H 496.408 -3.16751 0.695644 0
M  V30 5156 H 496.193 -3.0484 2.46607 0
M  V30 5157 H 497.683 -3.77256 1.79075 0
M  V30 5158 N 498.12 -1.38341 -0.754957 0
M  V30 5159 C 499.067 -1.3546 -1.86867 0
M  V30 5160 C 500.037 -0.217369 -1.64672 0
M  V30 5161 O 501.222 -0.409383 -1.86356 0
M  V30 5162 C 498.362 -1.18413 -3.24149 0
M  V30 5163 C 497.475 -2.41511 -3.58185 0
M  V30 5164 C 496.61 -2.17205 -4.84763 0
M  V30 5165 C 495.649 -3.36081 -5.11582 0
M  V30 5166 N 494.786 -3.11219 -6.29354 0
M  V30 5167 H 499.626 -2.30672 -1.88664 0
M  V30 5168 H 497.163 -1.14607 -0.922154 0
M  V30 5169 H 499.121 -1.06545 -4.03366 0
M  V30 5170 H 497.751 -0.268397 -3.21682 0
M  V30 5171 H 496.803 -2.64056 -2.73822 0
M  V30 5172 H 498.115 -3.30115 -3.73932 0
M  V30 5173 H 497.269 -2.02465 -5.7192 0
M  V30 5174 H 496.008 -1.25964 -4.71152 0
M  V30 5175 H 495.013 -3.51341 -4.22894 0
M  V30 5176 H 496.238 -4.28196 -5.27091 0
M  V30 5177 H 494.184 -2.22624 -6.17069 0
M  V30 5178 H 494.101 -3.93373 -6.45596 0
M  V30 5179 H 495.369 -3.00132 -7.19403 0
M  V30 5180 N 499.598 0.982988 -1.23187 0
M  V30 5181 C 500.548 2.05962 -0.977942 0
M  V30 5182 C 501.532 1.60725 0.0751148 0
M  V30 5183 O 502.724 1.76471 -0.136683 0
M  V30 5184 C 499.853 3.38564 -0.568276 0
M  V30 5185 C 498.939 3.90407 -1.6566 0
M  V30 5186 N 499.33 4.15359 -2.88635 0
M  V30 5187 C 497.628 4.18915 -1.53058 0
M  V30 5188 C 498.329 4.57642 -3.5908 0
M  V30 5189 N 497.305 4.6192 -2.86584 0
M  V30 5190 H 501.107 2.23208 -1.91195 0
M  V30 5191 H 498.621 1.16555 -1.13087 0
M  V30 5192 H 500.618 4.15276 -0.36764 0
M  V30 5193 H 499.278 3.22712 0.358713 0
M  V30 5194 H 500.289 4.03258 -3.24966 0
M  V30 5195 H 496.966 4.12081 -0.670506 0
M  V30 5196 H 498.356 4.85488 -4.6449 0
M  V30 5197 N 501.076 1.04316 1.18135 0
M  V30 5198 C 502.325 0.74319 1.87509 0
M  V30 5199 C 502.638 -0.732136 1.81381 0
M  V30 5200 O 503.844 -1.14572 2.46141 0
M  V30 5201 C 502.3 1.27913 3.36402 0
M  V30 5202 C 501.908 2.78326 3.51053 0
M  V30 5203 C 503.652 1.0558 4.11161 0
M  V30 5204 C 501.559 3.25266 4.93919 0
M  V30 5205 H 500.489 0.274313 0.702331 0
M  V30 5206 H 503.14 1.25931 1.33467 0
M  V30 5207 H 501.522 0.690853 3.89927 0
M  V30 5208 H 502.696 3.42933 3.07788 0
M  V30 5209 H 501.011 2.991 2.89704 0
M  V30 5210 H 503.608 1.38161 5.16542 0
M  V30 5211 H 503.951 -0.00684729 4.16299 0
M  V30 5212 H 504.484 1.60882 3.63816 0
M  V30 5213 H 501.223 4.30922 4.9395 0
M  V30 5214 H 500.743 2.65396 5.3789 0
M  V30 5215 H 502.422 3.19433 5.62647 0
M  V30 5216 N 502.554 -1.34406 0.822964 0
M  V30 5217 C 503.517 -2.2783 0.250271 0
M  V30 5218 C 504.517 -1.50288 -0.571854 0
M  V30 5219 O 505.707 -1.69825 -0.387952 0
M  V30 5220 C 502.839 -3.34663 -0.649137 0
M  V30 5221 H 504.032 -2.79992 1.07444 0
M  V30 5222 H 501.585 -1.44539 0.594829 0
M  V30 5223 H 502.32 -2.87714 -1.49637 0
M  V30 5224 H 502.105 -3.92052 -0.0611199 0
M  V30 5225 H 503.595 -4.04349 -1.04363 0
M  V30 5226 N 504.032 -0.577932 -1.46621 0
M  V30 5227 C 505.309 0.00495287 -1.95599 0
M  V30 5228 C 505.689 1.46428 -1.5206 0
M  V30 5229 O 505.037 2.1517 -0.769046 0
M  V30 5230 C 505.247 -0.162114 -3.48623 0
M  V30 5231 C 506.595 -0.0274623 -4.24591 0
M  V30 5232 O 507.619 -0.0907067 -3.56084 0
M  V30 5233 O 506.478 0.1122 -5.46385 0
M  V30 5234 H 503.572 0.0525057 -0.825332 0
M  V30 5235 H 506.118 -0.645914 -1.56927 0
M  V30 5236 H 504.89 -1.17679 -3.73185 0
M  V30 5237 H 504.513 0.525407 -3.94113 0
M  V30 5238 N 505.51 1.54411 -0.315457 0
M  V30 5239 C 506.926 1.59556 0.037464 0
M  V30 5240 C 507.126 1.33217 1.5118 0
M  V30 5241 O 506.182 1.11264 2.26664 0
M  V30 5242 C 507.495 2.98372 -0.373477 0
M  V30 5243 C 509.043 3.11324 -0.323452 0
M  V30 5244 C 509.518 4.52472 -0.709433 0
M  V30 5245 N 511.009 4.58437 -0.662524 0
M  V30 5246 C 511.744 5.65751 -0.933474 0
M  V30 5247 N 511.24 6.81039 -1.27114 0
M  V30 5248 N 513.033 5.55489 -0.859573 0
M  V30 5249 H 505.184 1.6979 -1.27614 0
M  V30 5250 H 507.447 0.793732 -0.518356 0
M  V30 5251 H 507.153 3.22618 -1.40037 0
M  V30 5252 H 507.027 3.76264 0.265615 0
M  V30 5253 H 509.414 2.86818 0.694223 0
M  V30 5254 H 509.495 2.35555 -0.997367 0
M  V30 5255 H 509.139 4.7771 -1.72498 0
M  V30 5256 H 509.069 5.26598 -0.0132923 0
M  V30 5257 H 511.56 3.75636 -0.413065 0
M  V30 5258 H 511.873 7.58816 -1.46348 0
M  V30 5259 H 510.218 6.82555 -1.30932 0
M  V30 5260 H 513.409 4.64299 -0.595324 0
M  V30 5261 H 513.582 6.39036 -1.0741 0
M  V30 5262 N 506.988 0.0434614 1.5754 0
M  V30 5263 C 508.399 -0.493343 1.80064 0
M  V30 5264 C 508.75 -1.71388 0.955023 0
M  V30 5265 O 507.875 -2.15736 0.169434 0
M  V30 5266 C 508.47 -0.90179 3.26578 0
M  V30 5267 C 507.029 -1.38362 3.50047 0
M  V30 5268 C 506.176 -0.355129 2.75017 0
M  V30 5269 H 509.127 0.2694 1.56397 0
M  V30 5270 H 509.148 -1.76523 3.37075 0
M  V30 5271 H 508.66 -0.013271 3.88098 0
M  V30 5272 H 506.761 -2.29159 2.93798 0
M  V30 5273 H 506.874 -1.3811 4.58762 0
M  V30 5274 H 505.238 -0.826348 2.40922 0
M  V30 5275 H 506.021 0.525172 3.39259 0
M  V30 5276 N 508.466 -1.55915 -0.229846 0
M  V30 5277 C 509.429 -1.90914 -1.26824 0
M  V30 5278 C 510.429 -0.786999 -1.40225 0
M  V30 5279 O 511.619 -1.05484 -1.38632 0
M  V30 5280 C 508.751 -2.15264 -2.64337 0
M  V30 5281 H 509.944 -2.8378 -0.969998 0
M  V30 5282 H 507.497 -1.49069 -0.4699 0
M  V30 5283 H 508.232 -1.24923 -2.99274 0
M  V30 5284 H 508.017 -2.97005 -2.55989 0
M  V30 5285 H 509.507 -2.43467 -3.39284 0
M  V30 5286 N 509.944 0.496216 -1.49584 0
M  V30 5287 C 511.192 1.24756 -1.58998 0
M  V30 5288 C 511.513 1.92968 -0.280775 0
M  V30 5289 O 510.783 1.82959 0.700198 0
M  V30 5290 H 509.363 0.463471 -0.585836 0
M  V30 5291 H 512.025 0.574678 -1.86235 0
M  V30 5292 H 511.121 2.00895 -2.38847 0
M  V30 5293 N 511.423 1.38739 0.74761 0
M  V30 5294 C 512.671 1.35007 1.50391 0
M  V30 5295 C 512.992 -0.0574274 1.94915 0
M  V30 5296 O 512.262 -1.00628 1.6808 0
M  V30 5297 H 510.842 0.496784 0.557866 0
M  V30 5298 H 513.504 1.73479 0.888319 0
M  V30 5299 H 512.6 2.00474 2.392 0
M  V30 5300 N 512.901 -0.976442 1.23707 0
M  V30 5301 C 513.864 -2.0511 1.02287 0
M  V30 5302 C 514.864 -1.60791 -0.0167195 0
M  V30 5303 O 516.054 -1.72761 0.223408 0
M  V30 5304 C 513.186 -3.36458 0.548507 0
M  V30 5305 H 514.379 -2.25545 1.9766 0
M  V30 5306 H 511.932 -1.15042 1.05806 0
M  V30 5307 H 512.667 -3.21713 -0.408818 0
M  V30 5308 H 512.452 -3.69967 1.29874 0
M  V30 5309 H 513.942 -4.15489 0.419406 0
M  V30 5310 N 514.379 -1.04941 -1.1758 0
M  V30 5311 C 515.326 -0.648155 -2.21512 0
M  V30 5312 C 516.296 0.348431 -1.62404 0
M  V30 5313 O 517.481 0.240419 -1.89279 0
M  V30 5314 C 514.621 -0.0264291 -3.4509 0
M  V30 5315 C 513.734 -1.07154 -4.185 0
M  V30 5316 C 512.869 -0.417403 -5.29558 0
M  V30 5317 C 511.908 -1.447 -5.94751 0
M  V30 5318 N 511.045 -0.817203 -6.97328 0
M  V30 5319 H 515.885 -1.53891 -2.55189 0
M  V30 5320 H 513.422 -0.769699 -1.25356 0
M  V30 5321 H 515.38 0.351456 -4.15717 0
M  V30 5322 H 514.01 0.827802 -3.12005 0
M  V30 5323 H 513.062 -1.56728 -3.46613 0
M  V30 5324 H 514.374 -1.8532 -4.63096 0
M  V30 5325 H 513.528 0.0142061 -6.06698 0
M  V30 5326 H 512.267 0.396265 -4.86087 0
M  V30 5327 H 511.272 -1.88865 -5.16343 0
M  V30 5328 H 512.497 -2.26252 -6.40302 0
M  V30 5329 H 510.443 -0.0239995 -6.55996 0
M  V30 5330 H 510.36 -1.53644 -7.40223 0
M  V30 5331 H 511.628 -0.410283 -7.7842 0
M  V30 5332 N 515.857 1.33968 -0.830081 0
M  V30 5333 C 517.134 1.92554 -0.343858 0
M  V30 5334 C 517.514 1.7573 1.16971 0
M  V30 5335 O 516.862 1.14035 1.98011 0
M  V30 5336 C 517.072 3.40147 -0.781073 0
M  V30 5337 C 518.42 4.17299 -0.78402 0
M  V30 5338 O 519.444 3.48762 -0.724112 0
M  V30 5339 O 518.303 5.39631 -0.863739 0
M  V30 5340 H 515.397 0.821469 -0.0954827 0
M  V30 5341 H 517.943 1.42897 -0.915348 0
M  V30 5342 H 516.715 3.46225 -1.82329 0
M  V30 5343 H 516.338 3.97166 -0.18567 0
M  V30 5344 N 517.335 0.585699 1.46312 0
M  V30 5345 C 518.582 0.0724211 2.0237 0
M  V30 5346 C 518.91 -1.28868 1.45683 0
M  V30 5347 O 518.165 -1.85853 0.612945 0
M  V30 5348 C 518.464 -0.0401312 3.57377 0
M  V30 5349 C 518.13 1.25376 4.33119 0
M  V30 5350 C 516.792 1.60824 4.5353 0
M  V30 5351 C 519.144 2.10987 4.76586 0
M  V30 5352 C 516.472 2.81676 5.14661 0
M  V30 5353 C 518.824 3.31068 5.39052 0
M  V30 5354 C 517.488 3.66794 5.5769 0
M  V30 5355 H 516.758 0.0265007 0.740526 0
M  V30 5356 H 519.405 0.762935 1.75646 0
M  V30 5357 H 517.71 -0.813791 3.83255 0
M  V30 5358 H 519.407 -0.453078 3.98432 0
M  V30 5359 H 515.997 0.967808 4.1753 0
M  V30 5360 H 520.181 1.84904 4.60569 0
M  V30 5361 H 515.437 3.0949 5.27282 0
M  V30 5362 H 519.611 3.97672 5.71691 0
M  V30 5363 H 517.238 4.60529 6.04828 0
M  V30 5364 N 518.813 -1.54241 0.323641 0
M  V30 5365 C 520.038 -2.05452 -0.283605 0
M  V30 5366 C 520.463 -1.19823 -1.44997 0
M  V30 5367 O 519.821 -0.207358 -1.8011 0
M  V30 5368 C 519.869 -3.53823 -0.695795 0
M  V30 5369 O 518.973 -3.71134 -1.79815 0
M  V30 5370 H 518.314 -0.662024 -0.0511917 0
M  V30 5371 H 520.844 -1.99079 0.472073 0
M  V30 5372 H 520.854 -3.96094 -0.978434 0
M  V30 5373 H 519.529 -4.15602 0.157287 0
M  V30 5374 H 518.106 -3.40768 -1.51431 0
M  V30 5375 N 520.291 -0.0518155 -1.57515 0
M  V30 5376 C 521.254 0.907547 -2.10467 0
M  V30 5377 C 522.254 1.23947 -1.02439 0
M  V30 5378 O 523.444 1.17604 -1.2851 0
M  V30 5379 C 520.576 2.21723 -2.58944 0
M  V30 5380 H 521.769 0.44851 -2.96527 0
M  V30 5381 H 519.322 0.196598 -1.55059 0
M  V30 5382 H 520.057 2.72206 -1.76279 0
M  V30 5383 H 519.842 1.98935 -3.37886 0
M  V30 5384 H 521.332 2.90441 -3.00056 0
M  V30 5385 N 521.769 1.56035 0.221574 0
M  V30 5386 C 522.699 1.95434 1.2778 0
M  V30 5387 C 523.68 0.822564 1.48889 0
M  V30 5388 O 524.865 1.08486 1.61072 0
M  V30 5389 C 521.995 2.27102 2.62759 0
M  V30 5390 C 520.949 3.4277 2.56306 0
M  V30 5391 C 520.275 3.60043 3.95314 0
M  V30 5392 C 521.575 4.77742 2.11093 0
M  V30 5393 H 523.269 2.83912 0.950504 0
M  V30 5394 H 520.815 1.36596 0.455791 0
M  V30 5395 H 522.768 2.53256 3.36807 0
M  V30 5396 H 521.492 1.35478 2.97176 0
M  V30 5397 H 520.151 3.16664 1.84715 0
M  V30 5398 H 519.799 2.65794 4.27039 0
M  V30 5399 H 519.499 4.37841 3.91879 0
M  V30 5400 H 521.023 3.88545 4.71025 0
M  V30 5401 H 522.437 5.03102 2.74885 0
M  V30 5402 H 520.834 5.58823 2.18716 0
M  V30 5403 H 521.904 4.731 1.06321 0
M  V30 5404 N 523.247 -0.488276 1.49845 0
M  V30 5405 C 524.496 -1.23826 1.59217 0
M  V30 5406 C 524.809 -1.93439 0.289966 0
M  V30 5407 O 526.015 -2.70229 0.262382 0
M  V30 5408 C 524.471 -2.24902 2.80976 0
M  V30 5409 C 524.079 -1.6117 4.18005 0
M  V30 5410 C 525.823 -3.00648 2.99685 0
M  V30 5411 C 523.73 -2.60431 5.3097 0
M  V30 5412 H 522.66 -0.465858 0.592868 0
M  V30 5413 H 525.311 -0.510645 1.76252 0
M  V30 5414 H 523.693 -3.0088 2.57463 0
M  V30 5415 H 524.867 -0.910968 4.51706 0
M  V30 5416 H 523.182 -0.97767 4.0476 0
M  V30 5417 H 525.779 -3.74903 3.81251 0
M  V30 5418 H 526.122 -3.5902 2.10738 0
M  V30 5419 H 526.655 -2.31784 3.23297 0
M  V30 5420 H 523.394 -2.06823 6.22017 0
M  V30 5421 H 522.914 -3.28707 5.01709 0
M  V30 5422 H 524.593 -3.22606 5.60834 0
M  V30 5423 N 524.725 -1.39134 -0.740242 0
M  V30 5424 C 525.688 -1.37217 -1.83587 0
M  V30 5425 C 526.688 -0.270221 -1.58513 0
M  V30 5426 O 527.878 -0.527843 -1.6601 0
M  V30 5427 C 525.01 -1.13959 -3.21288 0
M  V30 5428 H 526.203 -2.34705 -1.86691 0
M  V30 5429 H 523.756 -1.24622 -0.94335 0
M  V30 5430 H 524.491 -0.17131 -3.23847 0
M  V30 5431 H 524.276 -1.93754 -3.40884 0
M  V30 5432 H 525.766 -1.15346 -4.01354 0
M  V30 5433 N 526.204 0.969867 -1.24223 0
M  V30 5434 C 527.136 2.0669 -0.99055 0
M  V30 5435 C 528.149 1.62753 0.0392222 0
M  V30 5436 O 529.338 1.77403 -0.197561 0
M  V30 5437 C 526.438 3.35589 -0.472594 0
M  V30 5438 C 525.611 4.08444 -1.56499 0
M  V30 5439 C 524.67 5.15616 -1.05007 0
M  V30 5440 O 523.696 5.41911 -1.7413 0
M  V30 5441 N 524.898 5.80383 0.116641 0
M  V30 5442 H 527.663 2.28855 -1.93508 0
M  V30 5443 H 525.224 1.13733 -1.15223 0
M  V30 5444 H 527.216 4.04542 -0.112919 0
M  V30 5445 H 525.786 3.10311 0.377617 0
M  V30 5446 H 525.006 3.33798 -2.09696 0
M  V30 5447 H 526.294 4.53882 -2.29932 0
M  V30 5448 H 525.692 5.6142 0.694589 0
M  V30 5449 H 524.249 6.50462 0.417483 0
M  V30 5450 N 527.682 1.05563 1.17022 0
M  V30 5451 C 528.645 0.664098 2.19368 0
M  V30 5452 C 529.645 -0.286358 1.5823 0
M  V30 5453 O 530.835 -0.069728 1.7406 0
M  V30 5454 C 527.967 -0.0239932 3.40892 0
M  V30 5455 H 529.16 1.57 2.55521 0
M  V30 5456 H 526.713 0.849964 1.31169 0
M  V30 5457 H 527.448 -0.942988 3.10287 0
M  V30 5458 H 527.233 0.659351 3.86516 0
M  V30 5459 H 528.723 -0.283909 4.16634 0
M  V30 5460 N 529.16 -1.33526 0.837174 0
M  V30 5461 C 530.107 -2.29248 0.267169 0
M  V30 5462 C 531.077 -1.54252 -0.616071 0
M  V30 5463 O 532.262 -1.82559 -0.554699 0
M  V30 5464 C 529.402 -3.40638 -0.553152 0
M  V30 5465 C 528.515 -4.30548 0.353921 0
M  V30 5466 C 527.65 -5.29051 -0.477339 0
M  V30 5467 C 526.689 -6.106 0.42823 0
M  V30 5468 N 525.826 -7.01152 -0.364801 0
M  V30 5469 H 530.666 -2.77398 1.08877 0
M  V30 5470 H 528.203 -1.36496 0.54838 0
M  V30 5471 H 530.161 -4.03921 -1.04422 0
M  V30 5472 H 528.791 -2.93685 -1.33973 0
M  V30 5473 H 527.843 -3.68001 0.963289 0
M  V30 5474 H 529.155 -4.87631 1.04964 0
M  V30 5475 H 528.309 -5.97853 -1.0323 0
M  V30 5476 H 527.048 -4.72541 -1.2065 0
M  V30 5477 H 526.053 -5.40718 0.995219 0
M  V30 5478 H 527.278 -6.69193 1.15573 0
M  V30 5479 H 525.224 -6.47092 -1.07738 0
M  V30 5480 H 525.141 -7.5551 0.272238 0
M  V30 5481 H 526.409 -7.74263 -0.902054 0
M  V30 5482 N 530.638 -0.59345 -1.46 0
M  V30 5483 C 531.585 0.133618 -2.30413 0
M  V30 5484 C 532.555 0.873736 -1.41262 0
M  V30 5485 O 533.74 0.862279 -1.70204 0
M  V30 5486 C 530.88 1.13434 -3.25924 0
M  V30 5487 C 529.993 0.39656 -4.30176 0
M  V30 5488 C 529.128 1.38575 -5.12806 0
M  V30 5489 C 528.167 0.634984 -6.08797 0
M  V30 5490 N 527.304 1.57276 -6.84258 0
M  V30 5491 H 532.144 -0.592252 -2.92055 0
M  V30 5492 H 529.681 -0.303874 -1.43927 0
M  V30 5493 H 531.639 1.72752 -3.79753 0
M  V30 5494 H 530.269 1.82779 -2.66067 0
M  V30 5495 H 529.321 -0.311861 -3.79119 0
M  V30 5496 H 530.633 -0.189869 -4.98438 0
M  V30 5497 H 529.787 2.05141 -5.70966 0
M  V30 5498 H 528.526 2.00611 -4.44529 0
M  V30 5499 H 527.531 -0.0443925 -5.49782 0
M  V30 5500 H 528.756 0.0198678 -6.79097 0
M  V30 5501 H 526.702 2.18103 -6.18682 0
M  V30 5502 H 526.619 1.03941 -7.48821 0
M  V30 5503 H 527.887 2.22844 -7.46968 0
M  V30 5504 N 532.116 1.54067 -0.331816 0
M  V30 5505 C 533.356 2.02625 0.26876 0
M  V30 5506 C 533.72 1.21462 1.48697 0
M  V30 5507 O 534.921 1.59863 2.16096 0
M  V30 5508 C 533.192 3.52554 0.586577 0
M  V30 5509 S 534.751 4.23035 1.16563 0
M  V30 5510 H 531.569 0.706395 0.0807862 0
M  V30 5511 H 534.171 1.89844 -0.466856 0
M  V30 5512 H 532.875 4.09242 -0.308046 0
M  V30 5513 H 532.406 3.69432 1.35217 0
M  V30 5514 H 534.421 4.31382 2.45203 0
M  V30 5515 N 533.594 0.0601682 1.57485 0
M  V30 5516 C 535.005 -0.474217 1.80577 0
M  V30 5517 C 535.356 -1.70365 0.973147 0
M  V30 5518 O 534.481 -2.15544 0.192306 0
M  V30 5519 C 535.076 -0.867102 3.27516 0
M  V30 5520 C 533.635 -1.34642 3.51495 0
M  V30 5521 C 532.782 -0.32594 2.75378 0
M  V30 5522 H 535.733 0.285973 1.56102 0
M  V30 5523 H 535.754 -1.72938 3.38929 0
M  V30 5524 H 535.266 0.0278927 3.8809 0
M  V30 5525 H 533.367 -2.2603 2.96212 0
M  V30 5526 H 533.48 -1.33237 4.60201 0
M  V30 5527 H 531.844 -0.800749 2.41785 0
M  V30 5528 H 532.627 0.561125 3.38683 0
M  V30 5529 N 535.072 -1.5615 -0.213296 0
M  V30 5530 C 536.483 -1.69645 -0.779582 0
M  V30 5531 C 536.834 -0.663615 -1.84636 0
M  V30 5532 O 535.959 0.183633 -2.15619 0
M  V30 5533 C 536.554 -3.07567 -1.42084 0
M  V30 5534 C 535.113 -3.22889 -1.93442 0
M  V30 5535 C 534.26 -2.65581 -0.797612 0
M  V30 5536 H 537.211 -1.58696 0.0114951 0
M  V30 5537 H 537.232 -3.03884 -2.28986 0
M  V30 5538 H 536.744 -3.82716 -0.644187 0
M  V30 5539 H 534.845 -2.52623 -2.73884 0
M  V30 5540 H 534.958 -4.30197 -2.10872 0
M  V30 5541 H 533.322 -2.24278 -1.20712 0
M  V30 5542 H 534.105 -3.43284 -0.033494 0
M  V30 5543 N 536.55 0.480323 -1.50102 0
M  V30 5544 C 537.961 1.06142 -1.53593 0
M  V30 5545 C 538.312 1.93335 -0.334055 0
M  V30 5546 O 537.437 2.09188 0.55403 0
M  V30 5547 C 538.032 1.9317 -2.78336 0
M  V30 5548 C 536.591 2.46405 -2.84538 0
M  V30 5549 C 535.738 1.24521 -2.4777 0
M  V30 5550 H 538.689 0.26333 -1.565 0
M  V30 5551 H 538.71 2.78123 -2.59669 0
M  V30 5552 H 538.222 1.29683 -3.65792 0
M  V30 5553 H 536.323 3.13472 -2.01411 0
M  V30 5554 H 536.436 2.82143 -3.87211 0
M  V30 5555 H 534.8 1.57706 -2.00003 0
M  V30 5556 H 535.583 0.627102 -3.37524 0
M  V30 5557 N 538.028 1.39524 0.732853 0
M  V30 5558 C 539.274 1.37068 1.49467 0
M  V30 5559 C 539.607 -0.0327166 1.94172 0
M  V30 5560 O 538.882 -0.998071 1.66939 0
M  V30 5561 C 539.165 2.34494 2.73285 0
M  V30 5562 C 539.018 3.83784 2.34585 0
M  V30 5563 C 540.337 2.29717 3.75391 0
M  V30 5564 H 537.456 0.499206 0.542183 0
M  V30 5565 H 540.098 1.70532 0.837783 0
M  V30 5566 H 538.248 2.06087 3.29333 0
M  V30 5567 H 539.92 4.22949 1.84151 0
M  V30 5568 H 538.163 4.00455 1.66787 0
M  V30 5569 H 538.834 4.47444 3.23262 0
M  V30 5570 H 541.31 2.54839 3.28932 0
M  V30 5571 H 540.186 2.99962 4.59689 0
M  V30 5572 H 540.447 1.30291 4.22465 0
M  V30 5573 N 539.506 -0.963266 1.24736 0
M  V30 5574 C 540.416 -2.09246 1.06082 0
M  V30 5575 C 541.432 -1.74 0.000363101 0
M  V30 5576 O 542.608 -2.0041 0.199479 0
M  V30 5577 C 539.673 -3.40115 0.672498 0
M  V30 5578 C 538.734 -3.89282 1.80993 0
M  V30 5579 C 537.967 -5.13905 1.44004 0
M  V30 5580 O 538.19 -5.69434 0.331835 0
M  V30 5581 O 537.124 -5.57566 2.26723 0
M  V30 5582 H 540.95 -2.27881 2.00759 0
M  V30 5583 H 538.535 -1.07649 1.03595 0
M  V30 5584 H 540.417 -4.18797 0.467668 0
M  V30 5585 H 539.092 -3.22771 -0.245102 0
M  V30 5586 H 537.999 -3.11642 2.06955 0
M  V30 5587 H 539.332 -4.1111 2.70646 0
M  V30 5588 N 540.985 -1.06182 -1.16461 0
M  V30 5589 C 542.234 -0.772927 -1.86303 0
M  V30 5590 C 542.547 0.703187 -1.82523 0
M  V30 5591 O 543.753 1.10641 -2.47933 0
M  V30 5592 C 542.209 -1.33249 -3.34324 0
M  V30 5593 C 541.817 -2.83876 -3.46581 0
M  V30 5594 C 543.561 -1.12108 -4.09429 0
M  V30 5595 C 541.468 -3.33082 -4.88682 0
M  V30 5596 H 540.398 -0.285452 -0.697878 0
M  V30 5597 H 543.049 -1.28039 -1.31447 0
M  V30 5598 H 541.431 -0.7528 -3.88779 0
M  V30 5599 H 542.605 -3.47786 -3.02293 0
M  V30 5600 H 540.92 -3.03671 -2.84909 0
M  V30 5601 H 543.517 -1.46361 -5.14279 0
M  V30 5602 H 543.86 -0.0593832 -4.16258 0
M  V30 5603 H 544.393 -1.6665 -3.6121 0
M  V30 5604 H 541.132 -4.38726 -4.87032 0
M  V30 5605 H 540.652 -2.73919 -5.33599 0
M  V30 5606 H 542.331 -3.28344 -5.57494 0
M  V30 5607 N 542.463 1.3308 -0.844243 0
M  V30 5608 C 543.373 2.32876 -0.283922 0
M  V30 5609 C 544.389 1.63589 0.592846 0
M  V30 5610 O 545.565 1.95205 0.495693 0
M  V30 5611 C 542.63 3.42667 0.527283 0
M  V30 5612 C 541.691 4.27664 -0.374394 0
M  V30 5613 C 540.924 5.32212 0.39819 0
M  V30 5614 O 541.147 5.46635 1.62932 0
M  V30 5615 O 540.081 6.01458 -0.2306 0
M  V30 5616 H 543.907 2.82671 -1.11045 0
M  V30 5617 H 541.492 1.36518 -0.606903 0
M  V30 5618 H 543.374 4.09652 0.988078 0
M  V30 5619 H 542.049 2.95079 1.33078 0
M  V30 5620 H 540.956 3.63526 -0.883144 0
M  V30 5621 H 542.289 4.78749 -1.1428 0
M  V30 5622 N 543.941 0.601185 1.45683 0
M  V30 5623 C 545.169 0.100054 2.06658 0
M  V30 5624 C 545.584 -1.21285 1.44691 0
M  V30 5625 O 544.941 -1.73735 0.558772 0
M  V30 5626 C 544.992 -0.0528579 3.61461 0
M  V30 5627 O 544.713 1.20809 4.21114 0
M  V30 5628 C 546.214 -0.586193 4.39407 0
M  V30 5629 H 543.434 0.065905 0.667756 0
M  V30 5630 H 545.978 0.827101 1.87028 0
M  V30 5631 H 544.133 -0.730203 3.80456 0
M  V30 5632 H 544.547 1.03368 5.14213 0
M  V30 5633 H 546.021 -0.642297 5.4825 0
M  V30 5634 H 546.498 -1.60713 4.0874 0
M  V30 5635 H 547.104 0.0568935 4.25262 0
M  V30 5636 N 545.419 -1.53889 0.339982 0
M  V30 5637 C 546.667 -2.00458 -0.257112 0
M  V30 5638 C 546.988 -1.22953 -1.51353 0
M  V30 5639 O 546.258 -0.335734 -1.93002 0
M  V30 5640 H 544.838 -0.740544 -0.0979965 0
M  V30 5641 H 547.5 -1.89386 0.460317 0
M  V30 5642 H 546.596 -3.08035 -0.502057 0
M  V30 5643 N 546.897 -0.0685191 -1.57451 0
M  V30 5644 C 548.122 0.613919 -1.98106 0
M  V30 5645 C 548.547 1.62551 -0.946501 0
M  V30 5646 O 547.905 1.81085 0.0882824 0
M  V30 5647 C 547.953 1.26189 -3.378 0
M  V30 5648 O 547.057 2.37773 -3.36954 0
M  V30 5649 H 546.398 0.158163 -0.644888 0
M  V30 5650 H 548.928 -0.142063 -2.04106 0
M  V30 5651 H 548.938 1.60951 -3.74912 0
M  V30 5652 H 547.613 0.520625 -4.12629 0
M  V30 5653 H 546.19 2.04829 -3.11608 0
M  V30 5654 N 548.375 1.56261 0.205012 0
M  V30 5655 C 549.624 1.79236 0.925058 0
M  V30 5656 C 549.937 0.640011 1.84833 0
M  V30 5657 O 551.143 0.753809 2.60826 0
M  V30 5658 C 549.599 3.17475 1.69522 0
M  V30 5659 C 549.207 4.40482 0.817269 0
M  V30 5660 C 550.951 3.49766 2.4055 0
M  V30 5661 C 548.858 5.69744 1.58573 0
M  V30 5662 H 547.788 0.668287 0.349153 0
M  V30 5663 H 550.439 1.82629 0.178544 0
M  V30 5664 H 548.821 3.08304 2.48526 0
M  V30 5665 H 549.995 4.60752 0.0665988 0
M  V30 5666 H 548.31 4.15827 0.218316 0
M  V30 5667 H 550.907 4.43573 2.98575 0
M  V30 5668 H 551.25 2.73041 3.14252 0
M  V30 5669 H 551.783 3.60341 1.68522 0
M  V30 5670 H 548.522 6.49407 0.891679 0
M  V30 5671 H 548.042 5.53509 2.31059 0
M  V30 5672 H 549.721 6.1051 2.14212 0
M  V30 5673 N 549.853 -0.472356 1.50355 0
M  V30 5674 C 551.099 -1.22634 1.6152 0
M  V30 5675 C 551.432 -1.91645 0.313995 0
M  V30 5676 O 550.707 -1.82059 -0.684446 0
M  V30 5677 C 550.99 -2.27099 2.7946 0
M  V30 5678 C 550.843 -1.62402 4.19459 0
M  V30 5679 C 552.162 -3.28421 2.92964 0
M  V30 5680 H 549.281 -0.444494 0.587873 0
M  V30 5681 H 551.923 -0.520321 1.82737 0
M  V30 5682 H 550.073 -2.87314 2.61501 0
M  V30 5683 H 551.745 -1.05793 4.49005 0
M  V30 5684 H 549.988 -0.927184 4.23776 0
M  V30 5685 H 550.659 -2.38309 4.97909 0
M  V30 5686 H 553.135 -2.78227 3.09401 0
M  V30 5687 H 552.011 -3.98845 3.77113 0
M  V30 5688 H 552.272 -3.92467 2.03525 0
M  V30 5689 N 551.331 -1.39911 -0.725443 0
M  V30 5690 C 552.579 -1.37382 -1.48224 0
M  V30 5691 C 552.9 0.0264107 -1.94982 0
M  V30 5692 O 552.17 0.979408 -1.6966 0
M  V30 5693 H 550.75 -0.505596 -0.549892 0
M  V30 5694 H 553.412 -1.7487 -0.860608 0
M  V30 5695 H 552.508 -2.04254 -2.3598 0
M  V30 5696 N 552.809 0.956637 -1.25245 0
M  V30 5697 C 554.057 1.69764 -1.09657 0
M  V30 5698 C 554.378 1.91583 0.363464 0
M  V30 5699 O 553.648 1.50149 1.25825 0
M  V30 5700 H 552.228 0.629097 -0.402798 0
M  V30 5701 H 554.89 1.15026 -1.57337 0
M  V30 5702 H 553.986 2.67769 -1.60331 0
M  V30 5703 N 554.287 1.06798 1.15896 0
M  V30 5704 C 555.534 0.787767 1.86549 0
M  V30 5705 C 555.862 -0.685959 1.82002 0
M  V30 5706 O 555.117 -1.5188 1.23414 0
M  V30 5707 C 555.416 1.23414 3.35416 0
M  V30 5708 C 555.082 2.71285 3.6016 0
M  V30 5709 C 553.744 3.11676 3.66622 0
M  V30 5710 C 556.096 3.6676 3.7032 0
M  V30 5711 C 553.424 4.4637 3.8075 0
M  V30 5712 C 555.776 5.01209 3.8597 0
M  V30 5713 C 554.44 5.41229 3.90676 0
M  V30 5714 H 553.71 0.288264 0.682631 0
M  V30 5715 H 556.357 1.338 1.37003 0
M  V30 5716 H 554.662 0.60319 3.87129 0
M  V30 5717 H 556.359 0.994298 3.88477 0
M  V30 5718 H 552.949 2.39015 3.55767 0
M  V30 5719 H 557.133 3.36685 3.64633 0
M  V30 5720 H 552.389 4.76855 3.82648 0
M  V30 5721 H 556.563 5.75067 3.92773 0
M  V30 5722 H 554.19 6.45602 4.01375 0
M  V30 5723 N 555.766 -1.3263 0.851289 0
M  V30 5724 C 556.729 -2.27247 0.298541 0
M  V30 5725 C 557.729 -1.51467 -0.539847 0
M  V30 5726 O 558.919 -1.7061 -0.351843 0
M  V30 5727 C 556.051 -3.35964 -0.578004 0
M  V30 5728 H 557.244 -2.7765 1.13359 0
M  V30 5729 H 554.797 -1.43245 0.625354 0
M  V30 5730 H 555.532 -2.90823 -1.435 0
M  V30 5731 H 555.317 -3.92094 0.0220539 0
M  V30 5732 H 556.807 -4.06472 -0.957626 0
M  V30 5733 N 557.244 -0.608902 -1.45362 0
M  V30 5734 C 558.194 0.130616 -2.27626 0
M  V30 5735 C 559.178 0.837323 -1.37396 0
M  V30 5736 O 560.37 0.727096 -1.61376 0
M  V30 5737 C 557.499 1.12646 -3.24293 0
M  V30 5738 C 556.585 0.42052 -4.2201 0
M  V30 5739 N 556.976 -0.538569 -5.02925 0
M  V30 5740 C 555.274 0.667901 -4.40971 0
M  V30 5741 C 555.975 -0.953625 -5.7383 0
M  V30 5742 N 554.951 -0.297097 -5.42788 0
M  V30 5743 H 558.753 -0.605996 -2.87585 0
M  V30 5744 H 556.267 -0.432672 -1.5653 0
M  V30 5745 H 558.264 1.67066 -3.81961 0
M  V30 5746 H 556.924 1.86361 -2.65894 0
M  V30 5747 H 557.935 -0.915375 -5.09746 0
M  V30 5748 H 554.612 1.38963 -3.93695 0
M  V30 5749 H 556.002 -1.74473 -6.48852 0
M  V30 5750 N 558.722 1.53707 -0.348139 0
M  V30 5751 C 559.672 2.2193 0.522592 0
M  V30 5752 C 560.656 1.20831 1.06248 0
M  V30 5753 O 561.848 1.46357 0.995415 0
M  V30 5754 C 558.977 2.99904 1.6707 0
M  V30 5755 C 558.063 4.08364 1.14454 0
M  V30 5756 N 558.454 5.04656 0.339958 0
M  V30 5757 C 556.752 4.22757 1.421 0
M  V30 5758 C 557.453 5.81675 0.0538806 0
M  V30 5759 N 556.429 5.39739 0.646776 0
M  V30 5760 H 560.231 2.93733 -0.099135 0
M  V30 5761 H 557.745 1.61656 -0.15524 0
M  V30 5762 H 559.742 3.47284 2.30651 0
M  V30 5763 H 558.402 2.29629 2.29566 0
M  V30 5764 H 559.413 5.17896 -0.0193552 0
M  V30 5765 H 556.09 3.63704 2.05002 0
M  V30 5766 H 557.48 6.69256 -0.595443 0
M  V30 5767 N 560.2 0.0768682 1.57412 0
M  V30 5768 C 561.132 -0.918248 2.10002 0
M  V30 5769 C 562.145 -1.25808 1.03325 0
M  V30 5770 O 563.334 -1.21438 1.30824 0
M  V30 5771 C 560.434 -2.23263 2.54964 0
M  V30 5772 C 559.607 -2.07088 3.8527 0
M  V30 5773 C 558.666 -3.21876 4.16272 0
M  V30 5774 O 557.692 -2.96643 4.8579 0
M  V30 5775 N 558.894 -4.4712 3.70221 0
M  V30 5776 H 561.659 -0.469209 2.96004 0
M  V30 5777 H 559.22 -0.108725 1.61535 0
M  V30 5778 H 561.212 -2.9897 2.72762 0
M  V30 5779 H 559.782 -2.59649 1.74072 0
M  V30 5780 H 559.002 -1.15818 3.76802 0
M  V30 5781 H 560.29 -1.93537 4.70554 0
M  V30 5782 H 559.688 -4.70506 3.1407 0
M  V30 5783 H 558.245 -5.19837 3.93209 0
M  V30 5784 N 561.678 -1.56367 -0.196722 0
M  V30 5785 C 562.924 -1.80796 -0.918725 0
M  V30 5786 C 563.257 -0.650645 -1.82976 0
M  V30 5787 O 562.532 0.348889 -1.91345 0
M  V30 5788 C 562.815 -3.15472 -1.73636 0
M  V30 5789 C 562.668 -4.41693 -0.85015 0
M  V30 5790 C 563.987 -3.46824 -2.70927 0
M  V30 5791 H 561.106 -0.657702 -0.332561 0
M  V30 5792 H 563.748 -1.89086 -0.186186 0
M  V30 5793 H 561.898 -3.08536 -2.36088 0
M  V30 5794 H 563.57 -4.60673 -0.240459 0
M  V30 5795 H 561.813 -4.33517 -0.156785 0
M  V30 5796 H 562.484 -5.32419 -1.45719 0
M  V30 5797 H 564.96 -3.54049 -2.18607 0
M  V30 5798 H 563.836 -4.4218 -3.25219 0
M  V30 5799 H 564.097 -2.70236 -3.49893 0
M  V30 5800 N 563.156 0.464375 -1.50603 0
M  V30 5801 C 564.086 1.56944 -1.72889 0
M  V30 5802 C 565.067 1.59979 -0.577997 0
M  V30 5803 O 566.252 1.76138 -0.817855 0
M  V30 5804 C 563.382 2.95225 -1.8292 0
M  V30 5805 C 562.336 3.07056 -2.98162 0
M  V30 5806 C 561.662 4.47051 -2.93343 0
M  V30 5807 C 562.962 2.83648 -4.38567 0
M  V30 5808 H 564.656 1.38547 -2.65415 0
M  V30 5809 H 562.202 0.665082 -1.27721 0
M  V30 5810 H 564.155 3.72467 -1.97095 0
M  V30 5811 H 562.879 3.14793 -0.870209 0
M  V30 5812 H 561.538 2.32248 -2.83648 0
M  V30 5813 H 561.186 4.63547 -1.95276 0
M  V30 5814 H 560.886 4.55902 -3.70712 0
M  V30 5815 H 562.41 5.26304 -3.09575 0
M  V30 5816 H 563.824 3.50636 -4.53572 0
M  V30 5817 H 562.221 3.03937 -5.17438 0
M  V30 5818 H 563.291 1.79451 -4.50472 0
M  V30 5819 N 564.634 1.40294 0.718013 0
M  V30 5820 C 565.597 1.4012 1.81381 0
M  V30 5821 C 566.597 0.295405 1.58063 0
M  V30 5822 O 567.787 0.554187 1.6515 0
M  V30 5823 C 564.919 1.19056 3.19435 0
M  V30 5824 H 566.112 2.37645 1.82933 0
M  V30 5825 H 563.665 1.26107 0.923405 0
M  V30 5826 H 564.4 0.222809 3.23534 0
M  V30 5827 H 564.185 1.99152 3.37758 0
M  V30 5828 H 565.675 1.21716 3.99468 0
M  V30 5829 N 566.112 -0.949982 1.2575 0
M  V30 5830 C 567.042 -2.06483 1.09028 0
M  V30 5831 C 568.023 -1.701 -0.00201532 0
M  V30 5832 O 569.208 -1.93469 0.168383 0
M  V30 5833 C 566.338 -3.39899 0.71316 0
M  V30 5834 C 565.292 -3.90309 1.75621 0
M  V30 5835 C 564.618 -5.20274 1.23365 0
M  V30 5836 C 565.918 -4.16169 3.15596 0
M  V30 5837 H 567.612 -2.20731 2.02283 0
M  V30 5838 H 565.158 -1.06066 0.973964 0
M  V30 5839 H 567.111 -4.17346 0.58309 0
M  V30 5840 H 565.835 -3.25602 -0.255091 0
M  V30 5841 H 564.494 -3.15035 1.8748 0
M  V30 5842 H 564.142 -5.02351 0.255491 0
M  V30 5843 H 563.842 -5.54971 1.93082 0
M  V30 5844 H 565.366 -6.00314 1.11607 0
M  V30 5845 H 566.78 -4.84259 3.06864 0
M  V30 5846 H 565.177 -4.62131 3.82825 0
M  V30 5847 H 566.247 -3.22273 3.6231 0
M  V30 5848 N 567.59 -1.07411 -1.15328 0
M  V30 5849 C 568.553 -0.698914 -2.18284 0
M  V30 5850 C 569.553 0.261149 -1.58665 0
M  V30 5851 O 570.743 0.0420277 -1.74149 0
M  V30 5852 C 567.875 -0.0302427 -3.40887 0
M  V30 5853 H 569.068 -1.61045 -2.52991 0
M  V30 5854 H 566.621 -0.870724 -1.298 0
M  V30 5855 H 567.356 0.893505 -3.11748 0
M  V30 5856 H 567.141 -0.720759 -3.85419 0
M  V30 5857 H 568.631 0.21759 -4.17033 0
M  V30 5858 N 569.068 1.32177 -0.85831 0
M  V30 5859 C 570.345 1.91781 -0.384624 0
M  V30 5860 C 570.725 1.78171 1.13217 0
M  V30 5861 O 570.073 1.18209 1.95548 0
M  V30 5862 C 570.283 3.38414 -0.853047 0
M  V30 5863 C 571.631 4.15542 -0.872359 0
M  V30 5864 O 572.655 3.47148 -0.797926 0
M  V30 5865 O 571.514 5.37678 -0.978009 0
M  V30 5866 H 568.608 0.819259 -0.112886 0
M  V30 5867 H 571.154 1.40923 -0.945453 0
M  V30 5868 H 569.926 3.4228 -1.89632 0
M  V30 5869 H 569.549 3.96683 -0.269874 0
M  V30 5870 N 570.547 0.616602 1.45037 0
M  V30 5871 C 571.494 -0.0969439 2.30596 0
M  V30 5872 C 572.464 -0.851151 1.42635 0
M  V30 5873 O 573.649 -0.835092 1.71554 0
M  V30 5874 C 570.789 -1.08234 3.27688 0
M  V30 5875 C 569.902 -0.328072 4.30752 0
M  V30 5876 C 569.037 -1.30399 5.14946 0
M  V30 5877 C 568.076 -0.538049 6.09731 0
M  V30 5878 N 567.213 -1.46371 6.86673 0
M  V30 5879 H 572.053 0.63864 2.91076 0
M  V30 5880 H 569.59 0.326733 1.43425 0
M  V30 5881 H 571.548 -1.66688 3.82454 0
M  V30 5882 H 570.178 -1.78523 2.68941 0
M  V30 5883 H 569.23 0.372136 3.78575 0
M  V30 5884 H 570.542 0.269142 4.98073 0
M  V30 5885 H 569.696 -1.96032 5.74157 0
M  V30 5886 H 568.435 -1.93514 4.47665 0
M  V30 5887 H 567.44 0.131852 5.49642 0
M  V30 5888 H 568.665 0.0881732 6.79043 0
M  V30 5889 H 566.611 -2.08233 6.22073 0
M  V30 5890 H 566.528 -0.920152 7.50379 0
M  V30 5891 H 567.796 -2.10932 7.50418 0
M  V30 5892 N 572.025 -1.5352 0.356285 0
M  V30 5893 C 573.271 -2.01414 -0.236653 0
M  V30 5894 C 573.604 -1.24339 -1.49176 0
M  V30 5895 O 572.879 -0.334496 -1.91602 0
M  V30 5896 C 573.162 -3.56059 -0.537982 0
M  V30 5897 C 573.015 -4.43835 0.730112 0
M  V30 5898 C 574.334 -4.19127 -1.34239 0
M  V30 5899 H 571.453 -0.732135 -0.0845386 0
M  V30 5900 H 574.095 -1.83854 0.479341 0
M  V30 5901 H 572.245 -3.71153 -1.14795 0
M  V30 5902 H 573.917 -4.40555 1.36782 0
M  V30 5903 H 572.16 -4.1218 1.3524 0
M  V30 5904 H 572.831 -5.49958 0.474358 0
M  V30 5905 H 575.307 -4.07809 -0.826498 0
M  V30 5906 H 574.183 -5.27378 -1.52198 0
M  V30 5907 H 574.444 -3.74581 -2.34822 0
M  V30 5908 N 573.503 -0.0852151 -1.57369 0
M  V30 5909 C 574.749 0.581666 -1.94279 0
M  V30 5910 C 575.082 1.68444 -0.966446 0
M  V30 5911 O 574.357 1.945 0.00215277 0
M  V30 5912 C 574.64 1.14609 -3.41375 0
M  V30 5913 C 574.493 0.0490414 -4.49773 0
M  V30 5914 C 575.812 2.04751 -3.8957 0
M  V30 5915 H 572.931 0.209972 -0.706456 0
M  V30 5916 H 575.573 -0.153915 -1.89376 0
M  V30 5917 H 573.723 1.77297 -3.45685 0
M  V30 5918 H 575.395 -0.584721 -4.57579 0
M  V30 5919 H 573.638 -0.618638 -4.29366 0
M  V30 5920 H 574.309 0.484601 -5.49869 0
M  V30 5921 H 576.785 1.51981 -3.87351 0
M  V30 5922 H 575.661 2.41173 -4.93079 0
M  V30 5923 H 575.922 2.96107 -3.28288 0
M  V30 5924 N 574.981 1.5647 0.188427 0
M  V30 5925 C 575.891 1.98285 1.2538 0
M  V30 5926 C 576.907 0.891535 1.49424 0
M  V30 5927 O 578.083 1.19782 1.61908 0
M  V30 5928 C 575.148 2.31965 2.57669 0
M  V30 5929 C 574.209 3.54838 2.41638 0
M  V30 5930 C 573.442 3.86901 3.67618 0
M  V30 5931 O 573.665 3.20163 4.72072 0
M  V30 5932 O 572.599 4.80309 3.62749 0
M  V30 5933 H 576.425 2.89145 0.928912 0
M  V30 5934 H 574.01 1.44112 0.393955 0
M  V30 5935 H 575.892 2.54673 3.35737 0
M  V30 5936 H 574.567 1.44271 2.89771 0
M  V30 5937 H 573.474 3.37369 1.61658 0
M  V30 5938 H 574.807 4.43019 2.14465 0
M  V30 5939 N 576.459 -0.456382 1.50847 0
M  V30 5940 C 577.422 -1.53493 1.70213 0
M  V30 5941 C 578.422 -1.50264 0.572481 0
M  V30 5942 O 579.612 -1.52623 0.839751 0
M  V30 5943 C 576.744 -2.93091 1.741 0
M  V30 5944 H 577.937 -1.37633 2.66453 0
M  V30 5945 H 575.49 -0.683776 1.4055 0
M  V30 5946 H 576.225 -3.14378 0.796063 0
M  V30 5947 H 576.01 -2.9684 2.5618 0
M  V30 5948 H 577.5 -3.71368 1.90987 0
M  V30 5949 N 577.937 -1.40673 -0.710563 0
M  V30 5950 C 579.183 -1.39428 -1.47267 0
M  V30 5951 C 579.516 0.00182129 -1.942 0
M  V30 5952 O 578.791 0.971387 -1.68506 0
M  V30 5953 C 579.074 -2.38812 -2.6952 0
M  V30 5954 C 578.927 -3.87467 -2.28449 0
M  V30 5955 C 580.246 -2.3566 -3.71689 0
M  V30 5956 H 577.365 -0.507768 -0.534173 0
M  V30 5957 H 580.007 -1.71843 -0.810547 0
M  V30 5958 H 578.157 -2.113 -3.26013 0
M  V30 5959 H 579.829 -4.25825 -1.77399 0
M  V30 5960 H 578.072 -4.03058 -1.60395 0
M  V30 5961 H 578.743 -4.5253 -3.16103 0
M  V30 5962 H 581.219 -2.6004 -3.24836 0
M  V30 5963 H 580.095 -3.07237 -4.54859 0
M  V30 5964 H 580.356 -1.36996 -4.20339 0
M  V30 5965 N 579.415 0.9433 -1.26252 0
M  V30 5966 C 580.362 2.0417 -1.07625 0
M  V30 5967 C 581.332 1.6609 0.0180738 0
M  V30 5968 O 582.517 1.90276 -0.141289 0
M  V30 5969 C 579.657 3.37653 -0.713043 0
M  V30 5970 C 578.77 3.88783 -1.8834 0
M  V30 5971 C 577.905 5.10642 -1.4635 0
M  V30 5972 C 576.944 5.54028 -2.60229 0
M  V30 5973 N 576.081 6.67092 -2.18936 0
M  V30 5974 H 580.921 2.19436 -2.01623 0
M  V30 5975 H 578.458 1.07519 -1.00389 0
M  V30 5976 H 580.416 4.14391 -0.483358 0
M  V30 5977 H 579.046 3.22241 0.18996 0
M  V30 5978 H 578.098 3.08464 -2.22608 0
M  V30 5979 H 579.41 4.16922 -2.73821 0
M  V30 5980 H 578.564 5.94832 -1.19414 0
M  V30 5981 H 577.303 4.84244 -0.579568 0
M  V30 5982 H 576.308 4.68396 -2.87898 0
M  V30 5983 H 577.533 5.82429 -3.49219 0
M  V30 5984 H 575.479 6.42381 -1.32974 0
M  V30 5985 H 575.396 6.94806 -2.97961 0
M  V30 5986 H 576.664 7.54662 -1.95206 0
M  V30 5987 N 580.893 1.08022 1.14757 0
M  V30 5988 C 582.118 0.82895 1.90114 0
M  V30 5989 C 582.543 -0.612772 1.77839 0
M  V30 5990 O 581.901 -1.42895 1.11583 0
M  V30 5991 C 581.949 1.25062 3.38219 0
M  V30 5992 O 581.053 0.400119 4.10454 0
M  V30 5993 H 580.394 0.301412 0.591648 0
M  V30 5994 H 582.924 1.44062 1.45284 0
M  V30 5995 H 582.934 1.22977 3.89025 0
M  V30 5996 H 581.609 2.30067 3.46471 0
M  V30 5997 H 580.186 0.484052 3.69745 0
M  V30 5998 N 582.371 -1.3172 0.865308 0
M  V30 5999 C 583.619 -1.96487 0.472995 0
M  V30 6000 C 583.94 -1.68761 -0.976975 0
M  V30 6001 O 583.21 -1.00051 -1.68424 0
M  V30 6002 H 581.79 -0.726947 0.171922 0
M  V30 6003 H 584.452 -1.60612 1.10407 0
M  V30 6004 H 583.548 -3.0574 0.62687 0
M  V30 6005 N 583.85 -0.624285 -1.44708 0
M  V30 6006 C 584.812 0.0749638 -2.29077 0
M  V30 6007 C 585.812 0.778965 -1.40673 0
M  V30 6008 O 587.003 0.624591 -1.62618 0
M  V30 6009 C 584.135 1.11663 -3.22094 0
M  V30 6010 H 585.327 -0.667013 -2.92388 0
M  V30 6011 H 582.88 -0.384098 -1.51507 0
M  V30 6012 H 583.615 1.88881 -2.63618 0
M  V30 6013 H 583.401 0.61583 -3.87234 0
M  V30 6014 H 584.891 1.60585 -3.8549 0
M  V30 6015 N 585.328 1.53329 -0.364422 0
M  V30 6016 C 586.577 2.00421 0.226747 0
M  V30 6017 C 586.89 1.25581 1.49963 0
M  V30 6018 O 588.096 1.63256 2.16933 0
M  V30 6019 C 586.552 3.57017 0.454618 0
M  V30 6020 C 586.16 4.40734 -0.803568 0
M  V30 6021 C 587.904 4.12468 1.00351 0
M  V30 6022 C 585.811 5.8888 -0.545345 0
M  V30 6023 H 584.741 0.748787 0.0885082 0
M  V30 6024 H 587.392 1.7703 -0.482983 0
M  V30 6025 H 585.774 3.76558 1.22558 0
M  V30 6026 H 586.948 4.32967 -1.57723 0
M  V30 6027 H 585.263 3.96381 -1.27559 0
M  V30 6028 H 587.86 5.20783 1.212 0
M  V30 6029 H 588.203 3.6699 1.9653 0
M  V30 6030 H 588.736 3.96721 0.29274 0
M  V30 6031 H 585.475 6.38633 -1.47743 0
M  V30 6032 H 584.995 5.99499 0.189842 0
M  V30 6033 H 586.674 6.46776 -0.170425 0
M  V30 6034 N 586.806 0.0935595 1.57322 0
M  V30 6035 C 587.753 -0.865935 2.1394 0
M  V30 6036 C 588.723 -1.28083 1.05754 0
M  V30 6037 O 589.908 -1.36285 1.33533 0
M  V30 6038 C 587.048 -2.12023 2.72287 0
M  V30 6039 C 586.161 -1.756 3.94701 0
M  V30 6040 C 585.296 -2.95804 4.41218 0
M  V30 6041 C 584.335 -2.555 5.56225 0
M  V30 6042 N 583.472 -3.68534 5.97601 0
M  V30 6043 H 588.312 -0.376261 2.95615 0
M  V30 6044 H 585.849 -0.174052 1.46067 0
M  V30 6045 H 587.807 -2.85477 3.04235 0
M  V30 6046 H 586.437 -2.58492 1.93343 0
M  V30 6047 H 585.489 -0.921208 3.69077 0
M  V30 6048 H 586.801 -1.41964 4.78171 0
M  V30 6049 H 585.955 -3.77513 4.74941 0
M  V30 6050 H 584.694 -3.32649 3.56645 0
M  V30 6051 H 583.699 -1.72218 5.22131 0
M  V30 6052 H 584.924 -2.19801 6.42545 0
M  V30 6053 H 582.87 -4.051 5.15974 0
M  V30 6054 H 582.787 -3.38737 6.75865 0
M  V30 6055 H 584.055 -4.50757 6.35955 0
M  V30 6056 N 588.284 -1.56567 -0.180126 0
M  V30 6057 C 589.7 -1.50488 -0.531559 0
M  V30 6058 C 589.9 -0.796267 -1.851 0
M  V30 6059 O 588.956 -0.352978 -2.50021 0
M  V30 6060 C 590.269 -2.95201 -0.572456 0
M  V30 6061 C 591.817 -3.05957 -0.660264 0
M  V30 6062 C 592.292 -4.5211 -0.732135 0
M  V30 6063 N 593.783 -4.56322 -0.795262 0
M  V30 6064 C 594.518 -5.66742 -0.871296 0
M  V30 6065 N 594.014 -6.86815 -0.908708 0
M  V30 6066 N 595.807 -5.54691 -0.909639 0
M  V30 6067 H 587.958 -2.01045 0.685165 0
M  V30 6068 H 590.221 -0.915536 0.245962 0
M  V30 6069 H 589.927 -3.50165 0.328208 0
M  V30 6070 H 589.801 -3.49369 -1.422 0
M  V30 6071 H 592.188 -2.51032 -1.55136 0
M  V30 6072 H 592.269 -2.54888 0.215783 0
M  V30 6073 H 591.913 -5.07664 0.154664 0
M  V30 6074 H 591.843 -5.00926 -1.6242 0
M  V30 6075 H 594.334 -3.69868 -0.77499 0
M  V30 6076 H 594.647 -7.66718 -0.967654 0
M  V30 6077 H 592.992 -6.89443 -0.877132 0
M  V30 6078 H 596.183 -4.59804 -0.877353 0
M  V30 6079 H 596.356 -6.40768 -0.965434 0
M  V30 6080 N 589.762 0.448376 -1.51087 0
M  V30 6081 C 591.009 1.19872 -1.63209 0
M  V30 6082 C 591.337 1.91451 -0.343062 0
M  V30 6083 O 590.592 1.83789 0.672321 0
M  V30 6084 C 590.891 2.24866 -2.77795 0
M  V30 6085 C 590.557 1.70378 -4.17471 0
M  V30 6086 C 589.219 1.55241 -4.55471 0
M  V30 6087 C 591.571 1.30203 -5.04675 0
M  V30 6088 C 588.899 0.983844 -5.78392 0
M  V30 6089 C 591.251 0.747798 -6.28165 0
M  V30 6090 C 589.915 0.583233 -6.64947 0
M  V30 6091 H 589.185 0.438642 -0.597222 0
M  V30 6092 H 591.832 0.49136 -1.85089 0
M  V30 6093 H 590.137 3.01598 -2.50092 0
M  V30 6094 H 591.834 2.82723 -2.84374 0
M  V30 6095 H 588.424 1.83134 -3.87505 0
M  V30 6096 H 592.608 1.40723 -4.75932 0
M  V30 6097 H 587.864 0.844007 -6.05546 0
M  V30 6098 H 592.038 0.427927 -6.95084 0
M  V30 6099 H 589.665 0.140532 -7.6007 0
M  V30 6100 N 591.24 1.41047 0.703093 0
M  V30 6101 C 592.486 1.40207 1.46526 0
M  V30 6102 C 592.819 0.00847763 1.94198 0
M  V30 6103 O 592.094 -0.962437 1.69019 0
M  V30 6104 C 592.377 2.40238 2.6825 0
M  V30 6105 C 592.23 3.88674 2.26391 0
M  V30 6106 C 593.549 2.37627 3.70434 0
M  V30 6107 H 590.668 0.510594 0.531472 0
M  V30 6108 H 593.31 1.72271 0.801422 0
M  V30 6109 H 591.46 2.13026 3.24888 0
M  V30 6110 H 593.132 4.2676 1.75138 0
M  V30 6111 H 591.375 4.03903 1.58255 0
M  V30 6112 H 592.046 4.542 3.13698 0
M  V30 6113 H 594.522 2.61759 3.23452 0
M  V30 6114 H 593.398 3.09645 4.53223 0
M  V30 6115 H 593.659 1.39223 4.19606 0
M  V30 6116 N 592.718 -0.936591 1.26751 0
M  V30 6117 C 593.964 -1.6858 1.12733 0
M  V30 6118 C 594.297 -1.91414 -0.327745 0
M  V30 6119 O 593.572 -1.49812 -1.24043 0
M  V30 6120 C 593.855 -3.05779 1.90187 0
M  V30 6121 C 593.708 -2.90242 3.43627 0
M  V30 6122 C 595.027 -4.0597 1.69931 0
M  V30 6123 H 592.146 -0.61182 0.410908 0
M  V30 6124 H 594.788 -1.08747 1.55801 0
M  V30 6125 H 592.938 -3.56853 1.53584 0
M  V30 6126 H 594.61 -2.46354 3.9001 0
M  V30 6127 H 592.853 -2.2577 3.70419 0
M  V30 6128 H 593.524 -3.87572 3.93055 0
M  V30 6129 H 596 -3.63874 2.0183 0
M  V30 6130 H 594.876 -4.99974 2.26534 0
M  V30 6131 H 595.137 -4.37369 0.64502 0
M  V30 6132 N 594.196 -1.08629 -1.14182 0
M  V30 6133 C 595.129 -0.662329 -2.18377 0
M  V30 6134 C 596.107 0.327054 -1.59277 0
M  V30 6135 O 597.291 0.230376 -1.87087 0
M  V30 6136 C 594.418 0.0254765 -3.3869 0
M  V30 6137 C 593.464 -0.924414 -4.16361 0
M  V30 6138 S 594.297 -2.43226 -4.77076 0
M  V30 6139 C 595.453 -1.75663 -6.00744 0
M  V30 6140 H 595.686 -1.54501 -2.54001 0
M  V30 6141 H 593.219 -0.901484 -1.2535 0
M  V30 6142 H 595.177 0.416032 -4.08386 0
M  V30 6143 H 593.838 0.884689 -3.01384 0
M  V30 6144 H 593.031 -0.390099 -5.02488 0
M  V30 6145 H 592.633 -1.25598 -3.5228 0
M  V30 6146 H 594.925 -1.07589 -6.68903 0
M  V30 6147 H 595.868 -2.59673 -6.58768 0
M  V30 6148 H 596.276 -1.22903 -5.50958 0
M  V30 6149 N 595.674 1.31259 -0.872281 0
M  V30 6150 C 596.637 2.26744 -0.334656 0
M  V30 6151 C 597.637 1.52307 0.515681 0
M  V30 6152 O 598.827 1.71148 0.324656 0
M  V30 6153 C 595.959 3.36841 0.524482 0
M  V30 6154 H 597.152 2.75812 -1.17762 0
M  V30 6155 H 594.705 1.42232 -0.648064 0
M  V30 6156 H 595.44 2.93069 1.38855 0
M  V30 6157 H 595.225 3.92009 -0.0844299 0
M  V30 6158 H 596.715 4.07944 0.892838 0
M  V30 6159 N 597.152 0.631951 1.44375 0
M  V30 6160 C 598.4 0.136497 2.01639 0
M  V30 6161 C 598.721 -1.24637 1.49969 0
M  V30 6162 O 597.991 -1.82827 0.70363 0
M  V30 6163 H 596.571 0.0474703 0.74549 0
M  V30 6164 H 599.233 0.818837 1.76865 0
M  V30 6165 H 598.329 0.104817 3.11924 0
M  V30 6166 N 598.631 -1.53133 0.372548 0
M  V30 6167 C 599.871 -2.03267 -0.214943 0
M  V30 6168 C 600.235 -1.25362 -1.45425 0
M  V30 6169 O 601.436 -1.65536 -2.11781 0
M  V30 6170 C 599.707 -3.53985 -0.492897 0
M  V30 6171 S 601.266 -4.25977 -1.05307 0
M  V30 6172 H 598.084 -0.708289 -0.062029 0
M  V30 6173 H 600.686 -1.88539 0.517025 0
M  V30 6174 H 599.39 -4.08282 0.416442 0
M  V30 6175 H 598.921 -3.72887 -1.25375 0
M  V30 6176 H 600.936 -4.37731 -2.33679 0
M  V30 6177 N 600.109 -0.101901 -1.5727 0
M  V30 6178 C 601.386 0.602832 -1.86079 0
M  V30 6179 C 601.766 1.85912 -1 0
M  V30 6180 O 601.114 2.28379 -0.0742488 0
M  V30 6181 C 601.324 0.911694 -3.36881 0
M  V30 6182 C 602.672 1.2722 -4.05093 0
M  V30 6183 O 603.696 1.0025 -3.41802 0
M  V30 6184 O 602.555 1.7776 -5.16782 0
M  V30 6185 H 599.649 0.302366 -0.769743 0
M  V30 6186 H 602.195 -0.135113 -1.69161 0
M  V30 6187 H 600.967 0.0207256 -3.91295 0
M  V30 6188 H 600.59 1.70538 -3.59169 0
M  V30 6189 N 601.587 1.56661 0.17182 0
M  V30 6190 C 602.835 1.81606 0.886774 0
M  V30 6191 C 603.156 0.678818 1.82803 0
M  V30 6192 O 602.426 -0.301354 1.93568 0
M  V30 6193 H 601.006 0.669934 0.330451 0
M  V30 6194 H 603.668 1.94142 0.171757 0
M  V30 6195 H 602.764 2.75634 1.46398 0
M  V30 6196 N 603.065 -0.440357 1.51323 0
M  V30 6197 C 604.481 -0.7766 1.39431 0
M  V30 6198 C 604.681 -1.95838 0.474296 0
M  V30 6199 O 603.737 -2.52398 -0.0716692 0
M  V30 6200 C 605.05 -1.05981 2.81405 0
M  V30 6201 C 606.598 -1.16442 2.90534 0
M  V30 6202 C 607.073 -1.48058 4.33408 0
M  V30 6203 N 608.564 -1.54988 4.36501 0
M  V30 6204 C 609.299 -1.81017 5.44078 0
M  V30 6205 N 608.795 -2.04858 6.61819 0
M  V30 6206 N 610.588 -1.82774 5.31554 0
M  V30 6207 H 602.739 0.338006 2.09693 0
M  V30 6208 H 605.002 0.0888072 0.943831 0
M  V30 6209 H 604.708 -0.264173 3.50706 0
M  V30 6210 H 604.582 -1.98822 3.20546 0
M  V30 6211 H 606.969 -1.95068 2.21432 0
M  V30 6212 H 607.05 -0.215088 2.54894 0
M  V30 6213 H 606.694 -0.699605 5.03059 0
M  V30 6214 H 606.624 -2.44192 4.66559 0
M  V30 6215 H 609.115 -1.38479 3.51613 0
M  V30 6216 H 609.428 -2.2408 7.396 0
M  V30 6217 H 607.773 -2.02187 6.6494 0
M  V30 6218 H 610.964 -1.63665 4.38556 0
M  V30 6219 H 611.137 -2.02722 6.15474 0
M  V30 6220 N 604.543 -1.41418 -0.695603 0
M  V30 6221 C 605.475 -1.39195 -1.82092 0
M  V30 6222 C 606.488 -0.294132 -1.60121 0
M  V30 6223 O 607.677 -0.555854 -1.69625 0
M  V30 6224 C 604.777 -1.14828 -3.18854 0
M  V30 6225 C 603.95 -2.36649 -3.67853 0
M  V30 6226 C 603.009 -2.08139 -4.83285 0
M  V30 6227 O 602.035 -2.81177 -4.94902 0
M  V30 6228 N 603.237 -1.07162 -5.70523 0
M  V30 6229 H 606.002 -2.36185 -1.84491 0
M  V30 6230 H 603.563 -1.3603 -0.877923 0
M  V30 6231 H 605.555 -0.937075 -3.93702 0
M  V30 6232 H 604.125 -0.264358 -3.1148 0
M  V30 6233 H 603.345 -2.73472 -2.83913 0
M  V30 6234 H 604.633 -3.17816 -3.97329 0
M  V30 6235 H 604.031 -0.467124 -5.63768 0
M  V30 6236 H 602.588 -0.920311 -6.4527 0
M  V30 6237 N 606.021 0.929856 -1.27246 0
M  V30 6238 C 606.968 2.03017 -1.09785 0
M  V30 6239 C 607.938 1.661 0.000456744 0
M  V30 6240 O 609.123 1.90116 -0.161462 0
M  V30 6241 C 606.263 3.36878 -0.748816 0
M  V30 6242 C 605.376 3.86763 -1.92453 0
M  V30 6243 C 604.511 5.09061 -1.51758 0
M  V30 6244 C 603.55 5.51237 -2.66091 0
M  V30 6245 N 602.687 6.64732 -2.25999 0
M  V30 6246 H 607.527 2.17285 -2.03939 0
M  V30 6247 H 605.064 1.06448 -1.01524 0
M  V30 6248 H 607.022 4.13855 -0.527283 0
M  V30 6249 H 605.652 3.22424 0.155771 0
M  V30 6250 H 604.704 3.06086 -2.25867 0
M  V30 6251 H 606.016 4.13994 -2.78227 0
M  V30 6252 H 605.17 5.93532 -1.25716 0
M  V30 6253 H 603.909 4.83602 -0.630896 0
M  V30 6254 H 602.914 4.65316 -2.92849 0
M  V30 6255 H 604.139 5.78692 -3.55377 0
M  V30 6256 H 602.085 6.40935 -1.3978 0
M  V30 6257 H 602.002 6.91607 -3.05313 0
M  V30 6258 H 603.27 7.52549 -2.03199 0
M  V30 6259 N 607.499 1.09233 1.13605 0
M  V30 6260 C 608.724 0.849067 1.89224 0
M  V30 6261 C 609.149 -0.593875 1.78479 0
M  V30 6262 O 608.507 -1.41703 1.13092 0
M  V30 6263 C 608.555 1.28642 3.36873 0
M  V30 6264 O 607.659 0.44363 4.10007 0
M  V30 6265 H 607 0.30767 0.588417 0
M  V30 6266 H 609.53 1.45595 1.43748 0
M  V30 6267 H 609.54 1.27096 3.87699 0
M  V30 6268 H 608.215 2.33729 3.44011 0
M  V30 6269 H 606.792 0.523241 3.69211 0
M  V30 6270 N 608.977 -1.30795 0.87923 0
M  V30 6271 C 610.393 -1.48981 0.57243 0
M  V30 6272 C 610.593 -1.80719 -0.891236 0
M  V30 6273 O 609.649 -1.89136 -1.67283 0
M  V30 6274 C 610.962 -2.61721 1.48063 0
M  V30 6275 C 612.51 -2.75603 1.48365 0
M  V30 6276 C 612.985 -3.91449 2.37763 0
M  V30 6277 N 614.476 -3.98751 2.35695 0
M  V30 6278 C 615.211 -4.87684 3.01583 0
M  V30 6279 N 614.707 -5.81454 3.76674 0
M  V30 6280 N 616.5 -4.81005 2.90844 0
M  V30 6281 H 608.651 -1.08465 1.82617 0
M  V30 6282 H 610.914 -0.536813 0.781368 0
M  V30 6283 H 610.62 -2.45073 2.52254 0
M  V30 6284 H 610.494 -3.58071 1.18596 0
M  V30 6285 H 612.881 -2.9166 0.44927 0
M  V30 6286 H 612.962 -1.79891 1.81859 0
M  V30 6287 H 612.606 -3.76149 3.41283 0
M  V30 6288 H 612.536 -4.86487 2.01589 0
M  V30 6289 H 615.027 -3.31668 1.81121 0
M  V30 6290 H 615.34 -6.46063 4.24054 0
M  V30 6291 H 613.685 -5.81403 3.80782 0
M  V30 6292 H 616.876 -4.06728 2.31711 0
M  V30 6293 H 617.049 -5.50107 3.42471 0
M  V30 6294 N 610.455 -0.639598 -1.44038 0
M  V30 6295 C 611.68 -0.153117 -2.06834 0
M  V30 6296 C 612.105 1.16676 -1.47541 0
M  V30 6297 O 611.463 1.71769 -0.580093 0
M  V30 6298 C 611.511 -0.0609169 -3.60549 0
M  V30 6299 O 610.615 0.98071 -4.00569 0
M  V30 6300 H 609.956 -0.0886402 -0.658057 0
M  V30 6301 H 612.486 -0.878674 -1.84771 0
M  V30 6302 H 612.496 0.126892 -4.07803 0
M  V30 6303 H 611.171 -1.0245 -4.03084 0
M  V30 6304 H 609.748 0.766789 -3.64931 0
M  V30 6305 N 611.933 1.52934 -0.380664 0
M  V30 6306 C 613.163 2.05587 0.204302 0
M  V30 6307 C 613.571 1.25288 1.41773 0
M  V30 6308 O 612.914 0.290394 1.8139 0
M  V30 6309 C 612.976 3.53624 0.647324 0
M  V30 6310 C 612.64 4.54765 -0.451465 0
M  V30 6311 C 613.637 5.03226 -1.30614 0
M  V30 6312 C 611.322 4.98508 -0.616025 0
M  V30 6313 C 613.316 5.94046 -2.31058 0
M  V30 6314 C 611.003 5.89131 -1.62381 0
M  V30 6315 C 612.001 6.36792 -2.46952 0
M  V30 6316 O 611.689 7.25626 -3.46009 0
M  V30 6317 H 611.421 0.675013 0.0365198 0
M  V30 6318 H 613.975 1.98125 -0.541827 0
M  V30 6319 H 612.205 3.58676 1.44529 0
M  V30 6320 H 613.894 3.89061 1.15698 0
M  V30 6321 H 614.66 4.70167 -1.19027 0
M  V30 6322 H 610.539 4.60989 0.0324987 0
M  V30 6323 H 614.083 6.3117 -2.97104 0
M  V30 6324 H 609.98 6.21603 -1.7401 0
M  V30 6325 H 610.748 7.43664 -3.41916 0
M  V30 6326 N 613.412 0.11024 1.57214 0
M  V30 6327 C 614.642 -0.557025 1.98949 0
M  V30 6328 C 615.05 -1.61317 0.988606 0
M  V30 6329 O 614.393 -1.83679 -0.0279159 0
M  V30 6330 C 614.455 -1.24956 3.37085 0
M  V30 6331 C 614.119 -0.342398 4.55716 0
M  V30 6332 C 615.116 0.415511 5.18237 0
M  V30 6333 C 612.801 -0.256029 5.01647 0
M  V30 6334 C 614.795 1.24761 6.25071 0
M  V30 6335 C 612.482 0.579713 6.08344 0
M  V30 6336 C 613.48 1.33017 6.69922 0
M  V30 6337 O 613.168 2.15205 7.74559 0
M  V30 6338 H 612.9 -0.152792 0.658506 0
M  V30 6339 H 615.454 0.19076 2.04512 0
M  V30 6340 H 613.684 -2.04424 3.2825 0
M  V30 6341 H 615.373 -1.81286 3.63167 0
M  V30 6342 H 616.139 0.358605 4.83672 0
M  V30 6343 H 612.018 -0.829831 4.5347 0
M  V30 6344 H 615.562 1.83386 6.73064 0
M  V30 6345 H 611.459 0.638044 6.42339 0
M  V30 6346 H 612.227 2.08052 7.91617 0
M  V30 6347 N 614.89 -1.56749 -0.16351 0
M  V30 6348 C 616.118 -1.86577 -0.894233 0
M  V30 6349 C 616.533 -0.696543 -1.75481 0
M  V30 6350 O 615.89 0.334161 -1.79415 0
M  V30 6351 C 615.941 -3.15508 -1.76456 0
M  V30 6352 O 615.662 -4.27926 -0.938685 0
M  V30 6353 C 617.163 -3.58737 -2.60428 0
M  V30 6354 H 614.383 -0.618829 -0.259405 0
M  V30 6355 H 616.927 -2.03863 -0.161259 0
M  V30 6356 H 615.082 -3.00025 -2.45079 0
M  V30 6357 H 615.496 -5.01546 -1.53465 0
M  V30 6358 H 616.97 -4.51832 -3.17099 0
M  V30 6359 H 617.447 -2.83229 -3.35675 0
M  V30 6360 H 618.053 -3.76858 -1.97125 0
M  V30 6361 N 616.368 0.432326 -1.51554 0
M  V30 6362 C 617.278 1.55023 -1.76082 0
M  V30 6363 C 618.294 1.61593 -0.645265 0
M  V30 6364 O 619.47 1.78742 -0.928086 0
M  V30 6365 C 616.535 2.90964 -1.88523 0
M  V30 6366 C 615.596 2.9447 -3.12388 0
M  V30 6367 C 614.829 4.23926 -3.24225 0
M  V30 6368 O 615.052 5.16576 -2.4188 0
M  V30 6369 O 613.986 4.33818 -4.17235 0
M  V30 6370 H 617.812 1.37238 -2.70923 0
M  V30 6371 H 615.397 0.615845 -1.36117 0
M  V30 6372 H 617.279 3.71633 -1.98662 0
M  V30 6373 H 615.954 3.08865 -0.9687 0
M  V30 6374 H 614.861 2.12737 -3.07723 0
M  V30 6375 H 616.194 2.81514 -4.03746 0
M  V30 6376 N 617.846 1.41785 0.688094 0
M  V30 6377 C 619.092 1.41753 1.4503 0
M  V30 6378 C 619.425 0.0290745 1.94178 0
M  V30 6379 O 618.7 -0.944456 1.7003 0
M  V30 6380 C 618.983 2.43069 2.65686 0
M  V30 6381 C 618.836 3.91053 2.22256 0
M  V30 6382 C 620.155 2.41543 3.67893 0
M  V30 6383 H 617.274 0.516202 0.526027 0
M  V30 6384 H 619.916 1.73111 0.783105 0
M  V30 6385 H 618.066 2.1646 3.2261 0
M  V30 6386 H 619.738 4.28594 1.70602 0
M  V30 6387 H 617.981 4.05559 1.53963 0
M  V30 6388 H 618.652 4.57501 3.08863 0
M  V30 6389 H 621.128 2.65175 3.20658 0
M  V30 6390 H 620.004 3.14434 4.49914 0
M  V30 6391 H 620.265 1.43666 4.18106 0
M  V30 6392 N 619.324 -0.923095 1.27737 0
M  V30 6393 C 620.287 -2.00587 1.10894 0
M  V30 6394 C 621.287 -1.60718 0.0514927 0
M  V30 6395 O 622.477 -1.71658 0.296481 0
M  V30 6396 C 619.609 -3.33829 0.690717 0
M  V30 6397 H 620.802 -2.16959 2.07048 0
M  V30 6398 H 618.355 -1.10451 1.1059 0
M  V30 6399 H 619.09 -3.23157 -0.272 0
M  V30 6400 H 618.875 -3.64125 1.45448 0
M  V30 6401 H 620.365 -4.13336 0.595252 0
M  V30 6402 N 620.802 -1.09834 -1.13024 0
M  V30 6403 C 621.712 -0.753731 -2.22162 0
M  V30 6404 C 622.728 0.246105 -1.72251 0
M  V30 6405 O 623.904 0.0864051 -2.01215 0
M  V30 6406 C 620.969 -0.183958 -3.46212 0
M  V30 6407 C 620.03 -1.24028 -4.10993 0
M  V30 6408 C 619.263 -0.697597 -5.29121 0
M  V30 6409 O 619.486 0.478092 -5.68393 0
M  V30 6410 O 618.42 -1.4546 -5.84059 0
M  V30 6411 H 622.246 -1.66456 -2.5402 0
M  V30 6412 H 619.831 -0.873026 -1.21238 0
M  V30 6413 H 621.713 0.130257 -4.21199 0
M  V30 6414 H 620.388 0.699823 -3.16045 0
M  V30 6415 H 619.295 -1.60725 -3.37814 0
M  V30 6416 H 620.628 -2.09685 -4.45301 0
M  V30 6417 N 622.28 1.30327 -0.886154 0
M  V30 6418 C 623.228 2.30052 -0.343317 0
M  V30 6419 C 624.222 1.60212 0.550305 0
M  V30 6420 O 625.428 1.74674 0.434609 0
M  V30 6421 H 621.803 0.746306 -0.0923681 0
M  V30 6422 H 623.774 2.73294 -1.19804 0
M  V30 6423 C 622.523 3.45079 0.426107 0
M  V30 6424 H 621.846 3.99003 -0.25227 0
M  V30 6425 H 623.286 4.16931 0.771009 0
M  V30 6426 C 621.745 2.95195 1.62363 0
M  V30 6427 O 622.275 2.95323 2.723 0
M  V30 6428 N 620.481 2.51192 1.4612 0
M  V30 6429 H 620.028 2.51286 0.566832 0
M  V30 6430 H 619.986 2.18173 2.2638 0
M  V30 6431 N 623.758 0.647228 1.43697 0
M  V30 6432 C 624.688 -0.0345631 2.33474 0
M  V30 6433 C 625.669 -0.818193 1.4913 0
M  V30 6434 O 626.854 -0.780867 1.77809 0
M  V30 6435 C 623.984 -1.00576 3.32418 0
M  V30 6436 C 622.938 -0.33266 4.26705 0
M  V30 6437 C 622.264 -1.41489 5.1564 0
M  V30 6438 C 623.564 0.771204 5.16575 0
M  V30 6439 H 625.258 0.715163 2.90733 0
M  V30 6440 H 622.804 0.345364 1.39797 0
M  V30 6441 H 624.757 -1.49159 3.94119 0
M  V30 6442 H 623.481 -1.78657 2.73403 0
M  V30 6443 H 622.14 0.13267 3.6636 0
M  V30 6444 H 621.788 -2.18698 4.52968 0
M  V30 6445 H 621.488 -0.969799 5.79542 0
M  V30 6446 H 623.012 -1.9022 5.80214 0
M  V30 6447 H 624.426 0.36779 5.72119 0
M  V30 6448 H 622.823 1.1404 5.89165 0
M  V30 6449 H 623.893 1.63169 4.56622 0
M  V30 6450 N 625.236 -1.5273 0.388769 0
M  V30 6451 C 626.647 -1.86505 -0.0853788 0
M  V30 6452 C 626.998 -1.30847 -1.46197 0
M  V30 6453 O 626.123 -0.639609 -2.06732 0
M  V30 6454 C 626.718 -3.38414 -0.161703 0
M  V30 6455 C 625.277 -3.71902 -0.580144 0
M  V30 6456 C 624.424 -2.76095 0.258218 0
M  V30 6457 H 627.375 -1.46647 0.606665 0
M  V30 6458 H 627.396 -3.67638 -0.980936 0
M  V30 6459 H 626.908 -3.78893 0.840333 0
M  V30 6460 H 625.009 -3.36992 -1.58957 0
M  V30 6461 H 625.122 -4.77902 -0.338663 0
M  V30 6462 H 623.486 -2.53195 -0.276432 0
M  V30 6463 H 624.269 -3.19411 1.25822 0
M  V30 6464 N 626.714 -0.118576 -1.57153 0
M  V30 6465 C 627.661 0.831789 -2.1529 0
M  V30 6466 C 628.631 1.26385 -1.07778 0
M  V30 6467 O 629.816 1.34144 -1.35684 0
M  V30 6468 C 626.956 2.07664 -2.75626 0
M  V30 6469 C 626.069 1.69298 -3.97444 0
M  V30 6470 C 625.204 2.88747 -4.45868 0
M  V30 6471 C 624.243 2.46619 -5.60219 0
M  V30 6472 N 623.38 3.5898 -6.03389 0
M  V30 6473 H 628.22 0.329183 -2.96176 0
M  V30 6474 H 625.757 0.150792 -1.46325 0
M  V30 6475 H 627.715 2.80601 -3.08738 0
M  V30 6476 H 626.345 2.55384 -1.97431 0
M  V30 6477 H 625.397 0.862374 -3.70496 0
M  V30 6478 H 626.709 1.34338 -4.80369 0
M  V30 6479 H 625.863 3.69909 -4.80887 0
M  V30 6480 H 624.602 3.26933 -3.61892 0
M  V30 6481 H 623.607 1.63889 -5.24805 0
M  V30 6482 H 624.832 2.0955 -6.45961 0
M  V30 6483 H 622.778 3.9684 -5.22354 0
M  V30 6484 H 622.695 3.27942 -6.81168 0
M  V30 6485 H 623.963 4.40583 -6.43045 0
M  V30 6486 N 628.193 1.56834 0.155195 0
M  V30 6487 C 629.47 1.73799 0.897395 0
M  V30 6488 C 629.85 0.684379 1.99698 0
M  V30 6489 O 629.198 -0.298111 2.26547 0
M  V30 6490 C 629.408 3.17572 1.44737 0
M  V30 6491 C 630.756 3.79014 1.91399 0
M  V30 6492 O 631.78 3.20951 1.54496 0
M  V30 6493 O 630.639 4.80998 2.59429 0
M  V30 6494 H 627.733 0.710329 0.423511 0
M  V30 6495 H 630.279 1.69107 0.141761 0
M  V30 6496 H 629.051 3.85749 0.656741 0
M  V30 6497 H 628.674 3.26657 2.26674 0
M  V30 6498 N 629.671 -0.424282 1.51781 0
M  V30 6499 C 630.899 -1.1947 1.68921 0
M  V30 6500 C 631.314 -1.84683 0.39213 0
M  V30 6501 O 630.671 -1.71261 -0.630554 0
M  V30 6502 C 630.722 -2.26909 2.81416 0
M  V30 6503 O 630.443 -1.64361 4.061 0
M  V30 6504 C 631.944 -3.16945 3.09937 0
M  V30 6505 H 629.164 -0.359591 0.566511 0
M  V30 6506 H 631.708 -0.501139 1.98265 0
M  V30 6507 H 629.863 -2.91959 2.54635 0
M  V30 6508 H 630.277 -2.35468 4.68674 0
M  V30 6509 H 631.751 -3.88437 3.922 0
M  V30 6510 H 632.228 -3.78451 2.22871 0
M  V30 6511 H 632.834 -2.57581 3.38426 0
M  V30 6512 N 631.149 -1.42148 -0.680565 0
M  V30 6513 C 632.395 -1.42521 -1.44277 0
M  V30 6514 C 632.728 -0.0393718 -1.9416 0
M  V30 6515 O 632.003 0.935425 -1.70529 0
M  V30 6516 C 632.286 -2.44475 -2.64394 0
M  V30 6517 C 632.139 -3.92226 -2.20179 0
M  V30 6518 C 633.458 -2.43491 -3.66606 0
M  V30 6519 H 630.577 -0.518985 -0.523282 0
M  V30 6520 H 633.219 -1.73524 -0.773914 0
M  V30 6521 H 631.369 -2.18168 -3.21458 0
M  V30 6522 H 633.041 -4.29493 -1.68327 0
M  V30 6523 H 631.284 -4.0637 -1.5181 0
M  V30 6524 H 631.955 -4.59133 -3.06433 0
M  V30 6525 H 634.431 -2.66872 -3.19247 0
M  V30 6526 H 633.307 -3.16816 -4.4824 0
M  V30 6527 H 633.568 -1.45881 -4.17338 0
M  V30 6528 N 632.627 0.916307 -1.28225 0
M  V30 6529 C 633.876 1.65975 -1.14608 0
M  V30 6530 C 634.189 1.93204 0.305191 0
M  V30 6531 O 635.395 2.65611 0.562432 0
M  V30 6532 C 633.851 2.98989 -2.00333 0
M  V30 6533 C 633.459 2.79417 -3.50186 0
M  V30 6534 C 635.203 3.76856 -1.95397 0
M  V30 6535 C 633.11 4.08056 -4.28071 0
M  V30 6536 H 632.04 0.622587 -0.425324 0
M  V30 6537 H 634.691 1.01705 -1.52736 0
M  V30 6538 H 633.073 3.6438 -1.5506 0
M  V30 6539 H 634.247 2.22723 -4.034 0
M  V30 6540 H 632.562 2.14966 -3.56621 0
M  V30 6541 H 635.159 4.72203 -2.50856 0
M  V30 6542 H 635.502 4.05776 -0.930137 0
M  V30 6543 H 636.035 3.1828 -2.38626 0
M  V30 6544 H 632.774 3.8431 -5.31024 0
M  V30 6545 H 632.294 4.64371 -3.79631 0
M  V30 6546 H 633.973 4.76333 -4.37854 0
M  V30 6547 N 634.105 1.10431 1.1244 0
M  V30 6548 C 635.035 0.775143 2.20258 0
M  V30 6549 C 636.016 -0.25186 1.68225 0
M  V30 6550 O 637.201 -0.117637 1.93843 0
M  V30 6551 C 634.331 0.206133 3.46688 0
M  V30 6552 C 633.285 1.16382 4.11873 0
M  V30 6553 C 632.611 0.456014 5.32752 0
M  V30 6554 C 633.911 2.5104 4.58013 0
M  V30 6555 H 635.605 1.67665 2.4805 0
M  V30 6556 H 633.151 0.807595 1.19222 0
M  V30 6557 H 635.104 -0.036291 4.21384 0
M  V30 6558 H 633.828 -0.730614 3.18323 0
M  V30 6559 H 632.487 1.39169 3.39157 0
M  V30 6560 H 632.135 -0.485203 5.00654 0
M  V30 6561 H 631.835 1.09466 5.77314 0
M  V30 6562 H 633.359 0.222135 6.10196 0
M  V30 6563 H 634.773 2.32401 5.24083 0
M  V30 6564 H 633.17 3.10789 5.13352 0
M  V30 6565 H 634.24 3.11039 3.71998 0
M  V30 6566 N 635.583 -1.29855 0.893053 0
M  V30 6567 C 636.811 -1.99976 0.530788 0
M  V30 6568 C 637.226 -1.66889 -0.882799 0
M  V30 6569 O 636.583 -0.910352 -1.58173 0
M  V30 6570 C 636.634 -3.54547 0.705587 0
M  V30 6571 O 636.355 -3.86458 2.06353 0
M  V30 6572 C 637.856 -4.41937 0.347387 0
M  V30 6573 H 635.076 -0.639129 0.204339 0
M  V30 6574 H 637.62 -1.65549 1.20057 0
M  V30 6575 H 635.775 -3.87311 0.0830685 0
M  V30 6576 H 636.189 -4.81146 2.08803 0
M  V30 6577 H 637.663 -5.4954 0.520557 0
M  V30 6578 H 638.14 -4.33339 -0.715139 0
M  V30 6579 H 638.746 -4.14633 0.946567 0
M  V30 6580 N 637.061 -0.65484 -1.43351 0
M  V30 6581 C 638.024 0.0263562 -2.29185 0
M  V30 6582 C 639.024 0.748951 -1.42293 0
M  V30 6583 O 640.214 0.589957 -1.63906 0
M  V30 6584 C 637.346 1.04806 -3.2439 0
M  V30 6585 H 638.539 -0.728883 -2.90908 0
M  V30 6586 H 636.092 -0.416149 -1.50658 0
M  V30 6587 H 636.827 1.83247 -2.67565 0
M  V30 6588 H 636.612 0.533554 -3.88453 0
M  V30 6589 H 638.102 1.52372 -3.88809 0
M  V30 6590 N 638.539 1.52521 -0.396863 0
M  V30 6591 C 639.787 2.01274 0.182536 0
M  V30 6592 C 640.108 1.28485 1.46685 0
M  V30 6593 O 639.378 0.407134 1.91623 0
M  V30 6594 H 637.958 0.743671 0.0704442 0
M  V30 6595 H 640.62 1.87547 -0.530289 0
M  V30 6596 H 639.716 3.09687 0.387385 0
M  V30 6597 N 640.017 0.126909 1.57088 0
M  V30 6598 C 641.257 -0.53216 1.97351 0
M  V30 6599 C 641.621 -1.63342 1.00913 0
M  V30 6600 O 642.822 -2.35194 1.30144 0
M  V30 6601 C 641.093 -1.04385 3.41817 0
M  V30 6602 S 642.652 -1.71033 4.04095 0
M  V30 6603 H 639.47 -0.172724 0.689701 0
M  V30 6604 H 642.072 0.213865 1.94327 0
M  V30 6605 H 640.776 -0.231289 4.09748 0
M  V30 6606 H 640.307 -1.82496 3.48509 0
M  V30 6607 H 642.322 -2.99656 3.95501 0
M  V30 6608 N 641.495 -1.56914 -0.146875 0
M  V30 6609 C 642.458 -1.97368 -1.16526 0
M  V30 6610 C 643.458 -0.860223 -1.35856 0
M  V30 6611 O 644.648 -1.12684 -1.32846 0
M  V30 6612 C 641.78 -2.28974 -2.52555 0
M  V30 6613 H 642.973 -2.88523 -0.818209 0
M  V30 6614 H 640.526 -1.5135 -0.390221 0
M  V30 6615 H 641.261 -1.40611 -2.92231 0
M  V30 6616 H 641.046 -3.10157 -2.39886 0
M  V30 6617 H 642.536 -2.61109 -3.25902 0
M  V30 6618 N 642.974 0.416227 -1.52004 0
M  V30 6619 C 643.921 1.50666 -1.74838 0
M  V30 6620 C 644.891 1.55245 -0.590599 0
M  V30 6621 O 646.076 1.71928 -0.827374 0
M  V30 6622 C 643.216 2.88185 -1.89851 0
M  V30 6623 C 642.329 2.92971 -3.17478 0
M  V30 6624 C 641.464 4.21745 -3.22962 0
M  V30 6625 C 640.503 4.20478 -4.4482 0
M  V30 6626 N 639.64 5.40811 -4.47736 0
M  V30 6627 H 644.48 1.30498 -2.67907 0
M  V30 6628 H 642.017 0.633568 -1.32757 0
M  V30 6629 H 643.975 3.68007 -1.96537 0
M  V30 6630 H 642.605 3.06865 -1.00169 0
M  V30 6631 H 641.657 2.05684 -3.19997 0
M  V30 6632 H 642.969 2.87899 -4.07328 0
M  V30 6633 H 642.123 5.09954 -3.28682 0
M  V30 6634 H 640.862 4.29503 -2.31038 0
M  V30 6635 H 639.867 3.30659 -4.39254 0
M  V30 6636 H 641.092 4.14366 -5.38031 0
M  V30 6637 H 639.038 5.4925 -3.58692 0
M  V30 6638 H 638.955 5.37705 -5.31422 0
M  V30 6639 H 640.223 6.30993 -4.57676 0
M  V30 6640 N 644.452 1.42507 0.673017 0
M  V30 6641 C 645.682 1.46261 1.45916 0
M  V30 6642 C 646.09 0.0729724 1.89059 0
M  V30 6643 O 645.433 -0.922987 1.58829 0
M  V30 6644 C 645.495 2.32853 2.73898 0
M  V30 6645 C 645.159 3.80699 2.52819 0
M  V30 6646 C 646.156 4.72307 2.17306 0
M  V30 6647 C 643.841 4.24983 2.67758 0
M  V30 6648 C 645.835 6.06192 1.97003 0
M  V30 6649 C 643.522 5.58927 2.4707 0
M  V30 6650 C 644.52 6.49348 2.11746 0
M  V30 6651 O 644.208 7.80817 1.91259 0
M  V30 6652 H 643.94 0.499561 0.455428 0
M  V30 6653 H 646.494 1.87697 0.834196 0
M  V30 6654 H 644.724 1.86268 3.38882 0
M  V30 6655 H 646.413 2.28041 3.35786 0
M  V30 6656 H 647.179 4.39378 2.05359 0
M  V30 6657 H 643.058 3.54893 2.94231 0
M  V30 6658 H 646.602 6.76731 1.69355 0
M  V30 6659 H 642.499 5.91429 2.58615 0
M  V30 6660 H 643.267 7.92194 2.05843 0
M  V30 6661 N 645.93 -0.909495 1.28709 0
M  V30 6662 C 647.346 -1.18862 1.06508 0
M  V30 6663 C 647.546 -2.00604 -0.189864 0
M  V30 6664 O 646.602 -2.36281 -0.890355 0
M  V30 6665 C 647.915 -1.91908 2.31499 0
M  V30 6666 C 649.463 -2.04773 2.36721 0
M  V30 6667 C 649.938 -2.81228 3.6149 0
M  V30 6668 N 651.429 -2.88787 3.62155 0
M  V30 6669 C 652.164 -3.48455 4.55375 0
M  V30 6670 N 651.66 -4.09369 5.58918 0
M  V30 6671 N 653.453 -3.46035 4.42963 0
M  V30 6672 H 645.604 -0.363867 2.0926 0
M  V30 6673 H 647.867 -0.223649 0.921241 0
M  V30 6674 H 647.573 -1.39275 3.22948 0
M  V30 6675 H 647.447 -2.92436 2.38245 0
M  V30 6676 H 649.834 -2.56585 1.45767 0
M  V30 6677 H 649.915 -1.03408 2.33967 0
M  V30 6678 H 649.559 -2.30094 4.5279 0
M  V30 6679 H 649.489 -3.82917 3.61499 0
M  V30 6680 H 651.98 -2.45514 2.87283 0
M  V30 6681 H 652.293 -4.52891 6.26187 0
M  V30 6682 H 650.638 -4.0786 5.62739 0
M  V30 6683 H 653.829 -2.9766 3.6127 0
M  V30 6684 H 654.002 -3.92244 5.15799 0
M  V30 6685 N 647.408 -1.11026 -1.11852 0
M  V30 6686 C 648.638 -0.877544 -1.87037 0
M  V30 6687 C 649.046 0.575925 -1.80221 0
M  V30 6688 O 648.389 1.40916 -1.17849 0
M  V30 6689 C 648.451 -1.25529 -3.36872 0
M  V30 6690 C 648.115 -2.71704 -3.67459 0
M  V30 6691 C 649.112 -3.69931 -3.65304 0
M  V30 6692 C 646.797 -3.08243 -3.966 0
M  V30 6693 C 648.791 -5.02717 -3.9186 0
M  V30 6694 C 646.478 -4.41215 -4.22815 0
M  V30 6695 C 647.476 -5.38262 -4.20432 0
M  V30 6696 O 647.164 -6.68839 -4.45992 0
M  V30 6697 H 646.896 -0.314374 -0.598452 0
M  V30 6698 H 649.45 -1.48015 -1.42411 0
M  V30 6699 H 647.68 -0.595808 -3.82082 0
M  V30 6700 H 649.369 -0.999064 -3.93413 0
M  V30 6701 H 650.135 -3.43047 -3.42846 0
M  V30 6702 H 646.014 -2.33326 -3.97593 0
M  V30 6703 H 649.558 -5.78456 -3.89916 0
M  V30 6704 H 645.455 -4.67835 -4.44748 0
M  V30 6705 H 646.223 -6.74563 -4.63581 0
M  V30 6706 N 648.886 1.2938 -0.899927 0
M  V30 6707 C 649.834 2.29675 -0.367698 0
M  V30 6708 C 650.828 1.60787 0.533282 0
M  V30 6709 O 652.034 1.75126 0.416058 0
M  V30 6710 H 648.409 0.745284 -0.100279 0
M  V30 6711 H 650.38 2.72008 -1.22696 0
M  V30 6712 C 649.129 3.45512 0.389483 0
M  V30 6713 H 648.452 3.98713 -0.294575 0
M  V30 6714 H 649.892 4.17725 0.726744 0
M  V30 6715 C 648.351 2.969 1.59223 0
M  V30 6716 O 648.881 2.98195 2.69152 0
M  V30 6717 N 647.087 2.52728 1.43447 0
M  V30 6718 H 646.634 2.51873 0.540148 0
M  V30 6719 H 646.592 2.20561 2.24054 0
M  V30 6720 N 650.364 0.662433 1.43002 0
M  V30 6721 C 651.311 -0.0235324 2.30788 0
M  V30 6722 C 652.281 -0.805342 1.4527 0
M  V30 6723 O 653.466 -0.78009 1.74124 0
M  V30 6724 C 650.606 -0.977545 3.30965 0
M  V30 6725 C 649.719 -0.190865 4.31578 0
M  V30 6726 C 648.854 -1.13951 5.18834 0
M  V30 6727 C 647.893 -0.343796 6.11134 0
M  V30 6728 N 647.03 -1.2445 6.90982 0
M  V30 6729 H 651.87 0.730921 2.88897 0
M  V30 6730 H 649.407 0.372197 1.42313 0
M  V30 6731 H 651.365 -1.54437 3.87563 0
M  V30 6732 H 649.995 -1.69877 2.74484 0
M  V30 6733 H 649.047 0.492388 3.772 0
M  V30 6734 H 650.359 0.427464 4.96965 0
M  V30 6735 H 649.513 -1.77666 5.80103 0
M  V30 6736 H 648.252 -1.79174 4.53595 0
M  V30 6737 H 647.257 0.30665 5.48944 0
M  V30 6738 H 648.482 0.304161 6.78419 0
M  V30 6739 H 646.428 -1.88336 6.28383 0
M  V30 6740 H 646.345 -0.680959 7.52927 0
M  V30 6741 H 647.613 -1.86952 7.56749 0
M  V30 6742 N 651.842 -1.52309 0.404946 0
M  V30 6743 C 652.772 -2.29805 -0.41376 0
M  V30 6744 C 653.753 -1.3384 -1.0498 0
M  V30 6745 O 654.938 -1.62745 -1.05961 0
M  V30 6746 C 652.068 -3.11639 -1.53292 0
M  V30 6747 C 651.022 -4.15616 -1.02211 0
M  V30 6748 C 650.348 -4.8577 -2.23455 0
M  V30 6749 C 651.648 -5.2224 -0.0790725 0
M  V30 6750 H 653.342 -2.98493 0.232878 0
M  V30 6751 H 650.888 -1.43552 0.113441 0
M  V30 6752 H 652.841 -3.64618 -2.11262 0
M  V30 6753 H 651.565 -2.40712 -2.20738 0
M  V30 6754 H 650.224 -3.63641 -0.46484 0
M  V30 6755 H 649.872 -4.11376 -2.89445 0
M  V30 6756 H 649.572 -5.56058 -1.89929 0
M  V30 6757 H 651.096 -5.4156 -2.82038 0
M  V30 6758 H 652.51 -5.70485 -0.567438 0
M  V30 6759 H 650.907 -5.99867 0.167167 0
M  V30 6760 H 651.977 -4.77078 0.867447 0
M  V30 6761 N 653.32 -0.135238 -1.57019 0
M  V30 6762 C 654.268 0.826099 -2.17436 0
M  V30 6763 C 655.262 1.26378 -1.12805 0
M  V30 6764 O 656.468 1.23363 -1.31079 0
M  V30 6765 H 652.843 0.284568 -0.696078 0
M  V30 6766 H 654.814 0.292212 -2.96966 0
M  V30 6767 C 653.563 2.05991 -2.80112 0
M  V30 6768 H 652.886 1.73209 -3.60331 0
M  V30 6769 H 654.326 2.71225 -3.25903 0
M  V30 6770 C 652.785 2.86027 -1.78017 0
M  V30 6771 O 653.315 3.81971 -1.24344 0
M  V30 6772 N 651.521 2.50332 -1.47588 0
M  V30 6773 H 651.068 1.72377 -1.91426 0
M  V30 6774 H 651.026 3.04177 -0.795228 0
M  V30 6775 N 654.798 1.5699 0.138552 0
M  V30 6776 C 655.728 2.01933 1.17241 0
M  V30 6777 C 656.709 0.90033 1.44319 0
M  V30 6778 O 657.894 1.16872 1.55095 0
M  V30 6779 C 655.024 2.40711 2.50351 0
M  V30 6780 C 653.978 3.55874 2.37776 0
M  V30 6781 C 653.304 3.80491 3.75674 0
M  V30 6782 C 654.604 4.8826 1.85472 0
M  V30 6783 H 656.298 2.88551 0.798672 0
M  V30 6784 H 653.844 1.3882 0.382743 0
M  V30 6785 H 655.797 2.70754 3.22909 0
M  V30 6786 H 654.521 1.5104 2.89576 0
M  V30 6787 H 653.18 3.2601 1.67669 0
M  V30 6788 H 652.828 2.88057 4.12349 0
M  V30 6789 H 652.528 4.57998 3.68119 0
M  V30 6790 H 654.052 4.12967 4.49767 0
M  V30 6791 H 655.466 5.16965 2.4783 0
M  V30 6792 H 653.863 5.69631 1.88787 0
M  V30 6793 H 654.933 4.78071 0.810935 0
M  V30 6794 N 656.276 -0.40816 1.52223 0
M  V30 6795 C 657.524 -1.15274 1.66001 0
M  V30 6796 C 657.845 -1.91003 0.392803 0
M  V30 6797 O 657.115 -1.8673 -0.592336 0
M  V30 6798 H 655.695 -0.428526 0.611861 0
M  V30 6799 H 658.357 -0.46512 1.89269 0
M  V30 6800 H 657.453 -1.86628 2.50153 0
M  V30 6801 N 657.755 -1.42862 -0.66545 0
M  V30 6802 C 659.032 -1.3431 -1.42197 0
M  V30 6803 C 659.412 0.0150265 -2.11095 0
M  V30 6804 O 658.76 1.03101 -2.03918 0
M  V30 6805 C 658.97 -2.51783 -2.41674 0
M  V30 6806 C 660.318 -2.94321 -3.0604 0
M  V30 6807 O 661.342 -2.51741 -2.52001 0
M  V30 6808 O 660.201 -3.68047 -4.03985 0
M  V30 6809 H 657.295 -0.530159 -0.634713 0
M  V30 6810 H 659.841 -1.54888 -0.693386 0
M  V30 6811 H 658.613 -3.42282 -1.89627 0
M  V30 6812 H 658.236 -2.33241 -3.22001 0
M  V30 6813 N 659.233 0.902656 -1.29189 0
M  V30 6814 C 660.482 1.6475 -1.16362 0
M  V30 6815 C 660.795 1.93517 0.284682 0
M  V30 6816 O 662.001 2.66192 0.534229 0
M  V30 6817 C 660.457 2.96848 -2.03493 0
M  V30 6818 C 660.065 2.75687 -3.5313 0
M  V30 6819 C 661.809 3.74762 -1.99383 0
M  V30 6820 C 659.716 4.03492 -4.32375 0
M  V30 6821 H 658.646 0.618041 -0.431904 0
M  V30 6822 H 661.297 1.0008 -1.53806 0
M  V30 6823 H 659.679 3.62715 -1.58916 0
M  V30 6824 H 660.853 2.18431 -4.05739 0
M  V30 6825 H 659.168 2.11171 -3.58881 0
M  V30 6826 H 661.765 4.69515 -2.5585 0
M  V30 6827 H 662.108 4.04767 -0.973123 0
M  V30 6828 H 662.641 3.15732 -2.41988 0
M  V30 6829 H 659.38 3.78656 -5.3507 0
M  V30 6830 H 658.9 4.60318 -3.84535 0
M  V30 6831 H 660.579 4.71662 -4.42881 0
M  V30 6832 N 660.711 1.11618 1.11262 0
M  V30 6833 C 661.959 0.864469 1.82678 0
M  V30 6834 C 662.28 -0.611564 1.85162 0
M  V30 6835 O 661.55 -1.44429 1.32352 0
M  V30 6836 H 660.13 0.316821 0.676486 0
M  V30 6837 H 662.792 1.40894 1.34666 0
M  V30 6838 H 661.888 1.23832 2.86482 0
M  V30 6839 N 662.189 -1.289 0.906776 0
M  V30 6840 C 663.437 -1.94883 0.535266 0
M  V30 6841 C 663.758 -1.71784 -0.922791 0
M  V30 6842 O 663.028 -1.05359 -1.65156 0
M  V30 6843 H 661.608 -0.721109 0.194962 0
M  V30 6844 H 664.27 -1.57018 1.15461 0
M  V30 6845 H 663.366 -3.03591 0.723821 0
M  V30 6846 N 663.667 -0.670007 -1.42649 0
M  V30 6847 C 664.916 -0.187526 -2.00826 0
M  V30 6848 C 665.229 1.21142 -1.53571 0
M  V30 6849 O 666.435 1.79001 -2.04134 0
M  V30 6850 C 664.891 -0.284409 -3.58774 0
M  V30 6851 C 664.499 -1.6871 -4.15019 0
M  V30 6852 C 666.243 0.139605 -4.2427 0
M  V30 6853 C 664.15 -1.73701 -5.65316 0
M  V30 6854 H 663.08 -0.0663468 -0.751075 0
M  V30 6855 H 665.731 -0.834492 -1.63427 0
M  V30 6856 H 664.113 0.430364 -3.93655 0
M  V30 6857 H 665.287 -2.42857 -3.91608 0
M  V30 6858 H 663.602 -2.05855 -3.61957 0
M  V30 6859 H 666.199 0.122398 -5.3456 0
M  V30 6860 H 666.542 1.17403 -3.99402 0
M  V30 6861 H 667.075 -0.523995 -3.94334 0
M  V30 6862 H 663.814 -2.75109 -5.94975 0
M  V30 6863 H 663.334 -1.03903 -5.90732 0
M  V30 6864 H 665.013 -1.48829 -6.2965 0
M  V30 6865 N 665.145 1.52092 -0.413018 0
M  V30 6866 C 666.556 1.86617 0.0556967 0
M  V30 6867 C 666.907 1.33156 1.44097 0
M  V30 6868 O 666.032 0.672417 2.05688 0
M  V30 6869 C 666.627 3.38628 0.107844 0
M  V30 6870 C 665.186 3.72778 0.520904 0
M  V30 6871 C 664.333 2.75649 -0.302109 0
M  V30 6872 H 667.284 1.45663 -0.629919 0
M  V30 6873 H 667.305 3.69152 0.922324 0
M  V30 6874 H 666.817 3.77508 -0.900506 0
M  V30 6875 H 664.918 3.39478 1.53575 0
M  V30 6876 H 665.031 4.7838 0.262591 0
M  V30 6877 H 663.395 2.53603 0.236115 0
M  V30 6878 H 664.178 3.17369 -1.30888 0
M  V30 6879 N 666.623 0.143563 1.56945 0
M  V30 6880 C 668.039 -0.212877 1.58174 0
M  V30 6881 C 668.239 -1.64926 1.15766 0
M  V30 6882 O 667.295 -2.37535 0.856361 0
M  V30 6883 C 668.608 0.0427573 3.0067 0
M  V30 6884 C 670.156 -0.0212221 3.12993 0
M  V30 6885 C 670.631 0.207036 4.57532 0
M  V30 6886 N 672.122 0.153845 4.62944 0
M  V30 6887 C 672.857 0.305018 5.72588 0
M  V30 6888 N 672.353 0.513722 6.90893 0
M  V30 6889 N 674.146 0.242862 5.61575 0
M  V30 6890 H 666.297 1.08148 1.82805 0
M  V30 6891 H 668.56 0.427831 0.84597 0
M  V30 6892 H 668.266 1.03672 3.36073 0
M  V30 6893 H 668.14 -0.678195 3.71053 0
M  V30 6894 H 670.527 -1.00574 2.77433 0
M  V30 6895 H 670.608 0.732004 2.45103 0
M  V30 6896 H 670.252 1.18863 4.93795 0
M  V30 6897 H 670.182 -0.566473 5.23544 0
M  V30 6898 H 672.673 -0.00294866 3.779 0
M  V30 6899 H 672.986 0.619273 7.70315 0
M  V30 6900 H 671.331 0.550001 6.9282 0
M  V30 6901 H 674.522 0.0806015 4.68031 0
M  V30 6902 H 674.695 0.364112 6.46976 0
M  V30 6903 N 668.101 -1.57061 -0.130224 0
M  V30 6904 C 669.347 -1.8453 -0.841216 0
M  V30 6905 C 669.68 -0.727666 -1.80052 0
M  V30 6906 O 668.955 0.267419 -1.92653 0
M  V30 6907 C 669.238 -3.22553 -1.60099 0
M  V30 6908 C 669.091 -4.44901 -0.662048 0
M  V30 6909 C 670.41 -3.58003 -2.55973 0
M  V30 6910 H 667.529 -0.671215 -0.304366 0
M  V30 6911 H 670.171 -1.89705 -0.105821 0
M  V30 6912 H 668.321 -3.18272 -2.22789 0
M  V30 6913 H 669.993 -4.61278 -0.0448559 0
M  V30 6914 H 668.236 -4.33791 0.0272253 0
M  V30 6915 H 668.907 -5.3812 -1.23006 0
M  V30 6916 H 671.383 -3.63002 -2.03393 0
M  V30 6917 H 670.259 -4.55576 -3.06172 0
M  V30 6918 H 670.52 -2.84833 -3.38116 0
M  V30 6919 N 669.579 0.400081 -1.52437 0
M  V30 6920 C 670.509 1.4947 -1.7939 0
M  V30 6921 C 671.49 1.57383 -0.645329 0
M  V30 6922 O 672.675 1.72511 -0.891826 0
M  V30 6923 C 669.805 2.87201 -1.95276 0
M  V30 6924 C 668.759 2.94134 -3.10917 0
M  V30 6925 C 668.085 4.34207 -3.1204 0
M  V30 6926 C 669.385 2.64791 -4.50203 0
M  V30 6927 H 671.079 1.27165 -2.71052 0
M  V30 6928 H 668.625 0.610312 -1.30427 0
M  V30 6929 H 670.578 3.63772 -2.12715 0
M  V30 6930 H 669.302 3.10819 -1.00294 0
M  V30 6931 H 667.961 2.20009 -2.93243 0
M  V30 6932 H 667.609 4.54848 -2.14761 0
M  V30 6933 H 667.309 4.39768 -3.89715 0
M  V30 6934 H 668.833 5.127 -3.31619 0
M  V30 6935 H 670.247 3.31083 -4.68035 0
M  V30 6936 H 668.644 2.81717 -5.29864 0
M  V30 6937 H 669.714 1.60184 -4.57678 0
M  V30 6938 N 671.057 1.43213 0.657864 0
M  V30 6939 C 672.334 1.35063 1.41483 0
M  V30 6940 C 672.714 -0.0038314 2.111 0
M  V30 6941 O 672.062 -1.02018 2.04462 0
M  V30 6942 C 672.272 2.53061 2.40335 0
M  V30 6943 C 673.62 2.9594 3.04474 0
M  V30 6944 O 674.644 2.53074 2.50663 0
M  V30 6945 O 673.503 3.70184 4.02027 0
M  V30 6946 H 670.597 0.533517 0.631893 0
M  V30 6947 H 673.143 1.55253 0.685162 0
M  V30 6948 H 671.915 3.43283 1.87809 0
M  V30 6949 H 671.538 2.34945 3.20759 0
M  V30 6950 N 672.536 -0.895792 1.29666 0
M  V30 6951 C 673.499 -1.98189 1.15124 0
M  V30 6952 C 674.499 -1.60572 0.0855717 0
M  V30 6953 O 675.689 -1.70991 0.332826 0
M  V30 6954 C 672.821 -3.32289 0.761372 0
M  V30 6955 H 674.014 -2.12518 2.11603 0
M  V30 6956 H 671.567 -1.0808 1.12908 0
M  V30 6957 H 672.302 -3.23662 -0.203393 0
M  V30 6958 H 672.087 -3.60958 1.53139 0
M  V30 6959 H 673.577 -4.1198 0.682792 0
M  V30 6960 N 674.014 -1.12206 -1.10668 0
M  V30 6961 C 675.262 -0.874144 -1.82217 0
M  V30 6962 C 675.583 0.601736 -1.85484 0
M  V30 6963 O 674.853 1.43725 -1.33116 0
M  V30 6964 H 673.433 -0.320404 -0.674797 0
M  V30 6965 H 676.095 -1.41606 -1.33917 0
M  V30 6966 H 675.191 -1.25349 -2.85822 0
M  V30 6967 N 675.492 1.28418 -0.913599 0
M  V30 6968 C 676.424 2.26368 -0.359169 0
M  V30 6969 C 677.437 1.54858 0.502285 0
M  V30 6970 O 678.626 1.75659 0.31719 0
M  V30 6971 C 675.726 3.35112 0.50526 0
M  V30 6972 C 674.899 4.36126 -0.333648 0
M  V30 6973 C 673.958 5.24134 0.465845 0
M  V30 6974 O 672.984 5.6907 -0.121538 0
M  V30 6975 N 674.186 5.52892 1.76891 0
M  V30 6976 H 676.951 2.74579 -1.2011 0
M  V30 6977 H 674.512 1.41898 -0.779532 0
M  V30 6978 H 676.504 3.90926 1.04684 0
M  V30 6979 H 675.074 2.86611 1.2479 0
M  V30 6980 H 674.294 3.79776 -1.0566 0
M  V30 6981 H 675.582 5.00638 -0.907669 0
M  V30 6982 H 674.98 5.18217 2.26865 0
M  V30 6983 H 673.537 6.11464 2.25732 0
M  V30 6984 N 676.97 0.677563 1.42291 0
M  V30 6985 C 678.21 0.204894 2.0337 0
M  V30 6986 C 678.574 -1.16744 1.5243 0
M  V30 6987 O 679.775 -1.73492 2.05314 0
M  V30 6988 C 678.046 0.240742 3.56588 0
M  V30 6989 S 679.605 -0.16052 4.38506 0
M  V30 6990 H 676.423 0.0839932 0.706021 0
M  V30 6991 H 679.025 0.891332 1.73999 0
M  V30 6992 H 677.729 1.24184 3.91161 0
M  V30 6993 H 677.26 -0.465439 3.90637 0
M  V30 6994 H 679.275 -1.39315 4.76241 0
M  V30 6995 N 678.448 -1.51871 0.421078 0
M  V30 6996 C 679.396 -2.28903 -0.413066 0
M  V30 6997 C 680.39 -1.3408 -1.03532 0
M  V30 6998 O 681.596 -1.5149 -0.972146 0
M  V30 6999 H 677.971 -0.736478 -0.152003 0
M  V30 7000 H 679.942 -2.97285 0.257695 0
M  V30 7001 C 678.691 -3.13156 -1.51091 0
M  V30 7002 H 678.014 -3.85997 -1.04145 0
M  V30 7003 H 679.454 -3.7014 -2.06814 0
M  V30 7004 C 677.913 -2.27482 -2.48503 0
M  V30 7005 O 678.443 -1.92325 -3.52667 0
M  V30 7006 N 676.649 -1.91019 -2.18998 0
M  V30 7007 H 676.196 -2.19808 -1.34322 0
M  V30 7008 H 676.154 -1.3399 -2.84419 0
M  V30 7009 N 679.926 -0.151884 -1.56866 0
M  V30 7010 C 681.203 0.543328 -1.87902 0
M  V30 7011 C 681.583 1.82636 -1.05864 0
M  V30 7012 O 680.931 2.28028 -0.146868 0
M  V30 7013 C 681.141 0.804056 -3.39611 0
M  V30 7014 C 682.489 1.14267 -4.08935 0
M  V30 7015 O 683.513 0.893248 -3.44818 0
M  V30 7016 O 682.372 1.61229 -5.22176 0
M  V30 7017 H 679.466 0.277724 -0.778973 0
M  V30 7018 H 682.012 -0.188862 -1.68646 0
M  V30 7019 H 680.784 -0.103772 -3.91162 0
M  V30 7020 H 680.407 1.59025 -3.64413 0
M  V30 7021 N 681.404 1.57128 0.121893 0
M  V30 7022 C 682.629 1.89254 0.848385 0
M  V30 7023 C 683.054 0.743527 1.72781 0
M  V30 7024 O 682.412 -0.306056 1.78698 0
M  V30 7025 C 682.46 3.20113 1.66012 0
M  V30 7026 O 681.564 3.05815 2.76679 0
M  V30 7027 H 680.905 0.621103 0.234793 0
M  V30 7028 H 683.435 2.0433 0.10516 0
M  V30 7029 H 683.445 3.52761 2.04996 0
M  V30 7030 H 682.12 4.03336 1.01452 0
M  V30 7031 H 680.697 2.84627 2.40918 0
M  V30 7032 N 682.882 -0.391992 1.52647 0
M  V30 7033 C 684.112 -1.15692 1.71169 0
M  V30 7034 C 684.52 -1.84285 0.428444 0
M  V30 7035 O 683.863 -1.73393 -0.606669 0
M  V30 7036 C 683.925 -2.25033 2.80357 0
M  V30 7037 C 683.589 -1.76433 4.21569 0
M  V30 7038 C 684.586 -1.2427 5.0483 0
M  V30 7039 C 682.271 -1.82746 4.67877 0
M  V30 7040 C 684.265 -0.790657 6.32477 0
M  V30 7041 C 681.952 -1.37153 5.9551 0
M  V30 7042 C 682.95 -0.853997 6.7764 0
M  V30 7043 O 682.638 -0.404708 8.02881 0
M  V30 7044 H 682.37 -0.35297 0.576531 0
M  V30 7045 H 684.924 -0.464994 2.00067 0
M  V30 7046 H 683.154 -2.97641 2.46874 0
M  V30 7047 H 684.843 -2.86718 2.87311 0
M  V30 7048 H 685.609 -1.18752 4.70237 0
M  V30 7049 H 681.488 -2.21971 4.04042 0
M  V30 7050 H 685.032 -0.386024 6.96531 0
M  V30 7051 H 680.929 -1.42356 6.29607 0
M  V30 7052 H 681.697 -0.526459 8.16805 0
M  V30 7053 N 684.36 -1.4356 -0.65026 0
M  V30 7054 C 685.585 -1.48995 -1.44275 0
M  V30 7055 C 686.01 -0.109954 -1.87778 0
M  V30 7056 O 685.368 0.896926 -1.57559 0
M  V30 7057 C 685.416 -2.44341 -2.65198 0
M  V30 7058 O 684.52 -1.93172 -3.6436 0
M  V30 7059 H 683.861 -0.503852 -0.432469 0
M  V30 7060 H 686.391 -1.88504 -0.795446 0
M  V30 7061 H 686.401 -2.61743 -3.12977 0
M  V30 7062 H 685.076 -3.44588 -2.32877 0
M  V30 7063 H 683.653 -1.85445 -3.23519 0
M  V30 7064 N 685.838 0.888903 -1.30139 0
M  V30 7065 C 686.768 2.01046 -1.18755 0
M  V30 7066 C 687.749 1.69916 -0.0791438 0
M  V30 7067 O 688.934 1.92445 -0.260498 0
M  V30 7068 C 686.064 3.36109 -0.874518 0
M  V30 7069 C 685.018 3.81486 -1.94043 0
M  V30 7070 C 684.344 5.13796 -1.48047 0
M  V30 7071 C 685.644 4.00637 -3.35093 0
M  V30 7072 H 687.338 2.10828 -2.12584 0
M  V30 7073 H 684.884 1.01298 -1.02346 0
M  V30 7074 H 686.837 4.14089 -0.781548 0
M  V30 7075 H 685.561 3.26449 0.0994519 0
M  V30 7076 H 684.22 3.05731 -2.02297 0
M  V30 7077 H 683.868 5.0056 -0.494878 0
M  V30 7078 H 683.568 5.45127 -2.19341 0
M  V30 7079 H 685.092 5.94305 -1.40121 0
M  V30 7080 H 686.506 4.69067 -3.2962 0
M  V30 7081 H 684.903 4.43339 -4.04438 0
M  V30 7082 H 685.973 3.0462 -3.77273 0
M  V30 7083 N 687.317 1.12792 1.10072 0
M  V30 7084 C 688.28 0.802264 2.14701 0
M  V30 7085 C 689.28 -0.18515 1.59731 0
M  V30 7086 O 690.47 0.041109 1.74151 0
M  V30 7087 C 687.602 0.19285 3.40354 0
M  V30 7088 H 688.795 1.72932 2.45019 0
M  V30 7089 H 686.348 0.931662 1.25498 0
M  V30 7090 H 687.083 -0.743748 3.15656 0
M  V30 7091 H 686.868 0.903827 3.81541 0
M  V30 7092 H 688.358 -0.0183704 4.17596 0
M  V30 7093 N 688.795 -1.27931 0.920396 0
M  V30 7094 C 690.041 -1.94977 0.557832 0
M  V30 7095 C 690.374 -1.72224 -0.897365 0
M  V30 7096 O 689.649 -1.04705 -1.63912 0
M  V30 7097 C 689.932 -3.49289 0.875741 0
M  V30 7098 C 689.785 -3.81416 2.38416 0
M  V30 7099 C 691.104 -4.38486 0.376517 0
M  V30 7100 H 688.223 -0.708164 0.20414 0
M  V30 7101 H 690.865 -1.5118 1.15085 0
M  V30 7102 H 689.015 -3.86724 0.371062 0
M  V30 7103 H 690.687 -3.53813 2.95997 0
M  V30 7104 H 688.93 -3.28225 2.83639 0
M  V30 7105 H 689.601 -4.89198 2.55713 0
M  V30 7106 H 692.077 -4.08161 0.808945 0
M  V30 7107 H 690.953 -5.45296 0.627976 0
M  V30 7108 H 691.214 -4.36143 -0.723293 0
M  V30 7109 N 690.273 -0.685099 -1.4193 0
M  V30 7110 C 691.522 -0.208816 -2.00616 0
M  V30 7111 C 691.835 1.19506 -1.54847 0
M  V30 7112 O 693.041 1.76826 -2.06021 0
M  V30 7113 C 691.497 -0.322446 -3.58453 0
M  V30 7114 C 691.105 -1.73102 -4.13206 0
M  V30 7115 C 692.849 0.0945979 -4.24395 0
M  V30 7116 C 690.756 -1.79687 -5.63442 0
M  V30 7117 H 689.686 -0.0743092 -0.750329 0
M  V30 7118 H 692.337 -0.851778 -1.62533 0
M  V30 7119 H 690.719 0.388588 -3.94089 0
M  V30 7120 H 691.893 -2.46997 -3.8901 0
M  V30 7121 H 690.208 -2.09682 -3.59753 0
M  V30 7122 H 692.805 0.0656937 -5.3466 0
M  V30 7123 H 693.148 1.1316 -4.00625 0
M  V30 7124 H 693.681 -0.56579 -3.93756 0
M  V30 7125 H 690.42 -2.81404 -5.92024 0
M  V30 7126 H 689.94 -1.10162 -5.89597 0
M  V30 7127 H 691.619 -1.55498 -6.28036 0
M  V30 7128 N 691.751 1.51645 -0.429126 0
M  V30 7129 C 692.714 2.26116 0.374726 0
M  V30 7130 C 693.714 1.29242 0.956714 0
M  V30 7131 O 694.904 1.53022 0.832452 0
M  V30 7132 C 692.036 3.04669 1.52937 0
M  V30 7133 H 693.229 2.9861 -0.277818 0
M  V30 7134 H 690.782 1.55236 -0.182097 0
M  V30 7135 H 691.517 2.36571 2.21821 0
M  V30 7136 H 691.302 3.75814 1.11833 0
M  V30 7137 H 692.792 3.61102 2.09751 0
M  V30 7138 N 693.229 0.160201 1.56784 0
M  V30 7139 C 694.159 -0.770264 2.2043 0
M  V30 7140 C 695.14 -1.24736 1.15651 0
M  V30 7141 O 696.325 -1.30253 1.44041 0
M  V30 7142 C 693.455 -2.00427 2.83631 0
M  V30 7143 C 692.409 -1.66345 3.94352 0
M  V30 7144 C 691.735 -2.97119 4.4455 0
M  V30 7145 C 693.035 -0.899972 5.14488 0
M  V30 7146 H 694.729 -0.239783 2.98438 0
M  V30 7147 H 692.275 -0.113891 1.43549 0
M  V30 7148 H 694.228 -2.66012 3.26827 0
M  V30 7149 H 692.952 -2.5587 2.02973 0
M  V30 7150 H 691.611 -1.03133 3.51794 0
M  V30 7151 H 691.259 -3.5058 3.60698 0
M  V30 7152 H 690.959 -2.75073 5.19238 0
M  V30 7153 H 692.483 -3.63753 4.90425 0
M  V30 7154 H 693.897 -1.45818 5.54446 0
M  V30 7155 H 692.294 -0.778968 5.95023 0
M  V30 7156 H 693.364 0.105827 4.84785 0
M  V30 7157 N 694.707 -1.5719 -0.113559 0
M  V30 7158 C 695.654 -2.00736 -1.13901 0
M  V30 7159 C 696.624 -0.88044 -1.40846 0
M  V30 7160 O 697.809 -1.14507 -1.5262 0
M  V30 7161 C 694.949 -2.42132 -2.45899 0
M  V30 7162 C 694.062 -3.68264 -2.25844 0
M  V30 7163 C 693.197 -3.98617 -3.5111 0
M  V30 7164 C 692.236 -5.17915 -3.26236 0
M  V30 7165 N 691.373 -5.44111 -4.4372 0
M  V30 7166 H 696.213 -2.88128 -0.760677 0
M  V30 7167 H 693.75 -1.42523 -0.364099 0
M  V30 7168 H 695.708 -2.6417 -3.22908 0
M  V30 7169 H 694.338 -1.57775 -2.81615 0
M  V30 7170 H 693.39 -3.53809 -1.39726 0
M  V30 7171 H 694.702 -4.55425 -2.03444 0
M  V30 7172 H 693.856 -4.21333 -4.36536 0
M  V30 7173 H 692.595 -3.09942 -3.76546 0
M  V30 7174 H 691.6 -4.95038 -2.39202 0
M  V30 7175 H 692.825 -6.08172 -3.02165 0
M  V30 7176 H 690.771 -4.58394 -4.69266 0
M  V30 7177 H 690.688 -6.25606 -4.24444 0
M  V30 7178 H 691.956 -5.71351 -5.30263 0
M  V30 7179 N 696.185 0.383891 -1.52853 0
M  V30 7180 C 697.115 1.47559 -1.80965 0
M  V30 7181 C 698.096 1.5669 -0.661986 0
M  V30 7182 O 699.281 1.71556 -0.910072 0
M  V30 7183 C 696.411 2.85114 -1.98312 0
M  V30 7184 C 695.365 2.9082 -3.14019 0
M  V30 7185 C 694.691 4.30873 -3.16627 0
M  V30 7186 C 695.991 2.60001 -4.52986 0
M  V30 7187 H 697.685 1.24283 -2.72386 0
M  V30 7188 H 695.231 0.596445 -1.31067 0
M  V30 7189 H 697.184 3.61496 -2.16561 0
M  V30 7190 H 695.908 3.09738 -1.03585 0
M  V30 7191 H 694.567 2.16886 -2.9556 0
M  V30 7192 H 694.215 4.52545 -2.19573 0
M  V30 7193 H 693.915 4.3561 -3.94357 0
M  V30 7194 H 695.439 5.09154 -3.37038 0
M  V30 7195 H 696.853 3.261 -4.71521 0
M  V30 7196 H 695.25 2.76081 -5.32822 0
M  V30 7197 H 696.32 1.5532 -4.59351 0
M  V30 7198 N 697.663 1.43903 0.642637 0
M  V30 7199 C 698.61 1.49881 1.75512 0
M  V30 7200 C 699.58 0.347538 1.62423 0
M  V30 7201 O 700.765 0.556177 1.82514 0
M  V30 7202 C 697.905 1.43797 3.13714 0
M  V30 7203 C 697.018 2.6921 3.37861 0
M  V30 7204 C 696.153 2.5504 4.6597 0
M  V30 7205 C 695.192 3.75671 4.83257 0
M  V30 7206 N 694.329 3.60247 6.02633 0
M  V30 7207 H 699.169 2.44935 1.69737 0
M  V30 7208 H 696.706 1.21572 0.828165 0
M  V30 7209 H 698.664 1.38262 3.93624 0
M  V30 7210 H 697.294 0.523173 3.18532 0
M  V30 7211 H 696.346 2.8498 2.51973 0
M  V30 7212 H 697.658 3.58786 3.46517 0
M  V30 7213 H 696.812 2.47273 5.54023 0
M  V30 7214 H 695.551 1.63006 4.59653 0
M  V30 7215 H 694.556 3.83836 3.93637 0
M  V30 7216 H 695.781 4.68728 4.91397 0
M  V30 7217 H 693.727 2.70955 5.97427 0
M  V30 7218 H 693.644 4.43431 6.12295 0
M  V30 7219 H 694.912 3.56351 6.93278 0
M  V30 7220 N 699.141 -0.881989 1.30609 0
M  V30 7221 C 700.051 -2.02076 1.19174 0
M  V30 7222 C 701.067 -1.73645 0.11102 0
M  V30 7223 O 702.243 -1.98735 0.326528 0
M  V30 7224 C 699.308 -3.3515 0.887438 0
M  V30 7225 C 698.369 -3.76983 2.05383 0
M  V30 7226 C 697.602 -5.03707 1.76395 0
M  V30 7227 O 697.825 -5.66171 0.693302 0
M  V30 7228 O 696.759 -5.42019 2.61723 0
M  V30 7229 H 700.585 -2.14652 2.14845 0
M  V30 7230 H 698.17 -1.00843 1.10232 0
M  V30 7231 H 700.052 -4.14975 0.73306 0
M  V30 7232 H 698.727 -3.23676 -0.0393354 0
M  V30 7233 H 697.634 -2.97849 2.26355 0
M  V30 7234 H 698.967 -3.93066 2.96243 0
M  V30 7235 N 700.619 -1.13374 -1.09472 0
M  V30 7236 C 701.865 -0.896516 -1.81908 0
M  V30 7237 C 702.198 0.575933 -1.85463 0
M  V30 7238 O 701.473 1.42618 -1.32251 0
M  V30 7239 C 701.756 -1.48445 -3.28079 0
M  V30 7240 C 701.609 -3.02598 -3.32798 0
M  V30 7241 C 702.928 -1.15226 -4.24748 0
M  V30 7242 H 700.047 -0.327127 -0.660422 0
M  V30 7243 H 702.689 -1.40195 -1.2824 0
M  V30 7244 H 700.839 -1.0546 -3.73912 0
M  V30 7245 H 702.511 -3.54335 -2.95372 0
M  V30 7246 H 700.754 -3.37613 -2.72397 0
M  V30 7247 H 701.425 -3.38835 -4.3577 0
M  V30 7248 H 703.901 -1.52369 -3.87199 0
M  V30 7249 H 702.777 -1.59012 -5.25363 0
M  V30 7250 H 703.038 -0.0658891 -4.42051 0
M  V30 7251 N 702.098 1.27442 -0.927168 0
M  V30 7252 C 703.345 1.94391 -0.567324 0
M  V30 7253 C 703.673 1.72875 0.891321 0
M  V30 7254 O 702.928 1.05071 1.65102 0
M  V30 7255 C 703.227 3.47413 -0.838994 0
M  V30 7256 C 702.893 3.89049 -2.2793 0
M  V30 7257 C 701.555 4.00127 -2.67305 0
M  V30 7258 C 703.907 4.10154 -3.21595 0
M  V30 7259 C 701.235 4.29697 -3.99471 0
M  V30 7260 C 703.587 4.41208 -4.53341 0
M  V30 7261 C 702.251 4.50499 -4.92551 0
M  V30 7262 H 701.521 0.711325 -0.207598 0
M  V30 7263 H 704.168 1.51523 -1.17103 0
M  V30 7264 H 702.473 3.91503 -0.152609 0
M  V30 7265 H 704.17 3.97354 -0.53955 0
M  V30 7266 H 700.76 3.80962 -1.96381 0
M  V30 7267 H 704.944 4.01036 -2.92377 0
M  V30 7268 H 700.2 4.35099 -4.29533 0
M  V30 7269 H 704.374 4.56486 -5.25922 0
M  V30 7270 H 702.001 4.73167 -5.94994 0
M  V30 7271 N 703.576 0.692616 1.41565 0
M  V30 7272 C 704.824 0.221896 2.00878 0
M  V30 7273 C 705.145 -1.18164 1.5512 0
M  V30 7274 O 704.415 -1.79679 0.78054 0
M  V30 7275 H 702.995 0.0790463 0.742806 0
M  V30 7276 H 705.657 0.893115 1.73232 0
M  V30 7277 H 704.753 0.23702 3.11199 0
M  V30 7278 N 705.054 -1.51416 0.437162 0
M  V30 7279 C 705.984 -2.30631 -0.364922 0
M  V30 7280 C 706.965 -1.36037 -1.02118 0
M  V30 7281 O 708.15 -1.64956 -1.02485 0
M  V30 7282 C 705.28 -3.1482 -1.46648 0
M  V30 7283 C 704.234 -4.17691 -0.933717 0
M  V30 7284 C 703.56 -4.904 -2.13101 0
M  V30 7285 C 704.86 -5.2229 0.0317201 0
M  V30 7286 H 706.554 -2.97932 0.29614 0
M  V30 7287 H 704.1 -1.4328 0.143865 0
M  V30 7288 H 706.053 -3.69017 -2.03481 0
M  V30 7289 H 704.777 -2.4534 -2.15583 0
M  V30 7290 H 703.436 -3.64545 -0.387602 0
M  V30 7291 H 703.084 -4.17423 -2.80654 0
M  V30 7292 H 702.784 -5.59962 -1.78092 0
M  V30 7293 H 704.308 -5.4742 -2.70487 0
M  V30 7294 H 705.722 -5.7156 -0.446302 0
M  V30 7295 H 704.119 -5.99378 0.29437 0
M  V30 7296 H 705.189 -4.75131 0.968447 0
M  V30 7297 N 706.532 -0.168513 -1.56696 0
M  V30 7298 C 707.809 0.523367 -1.88468 0
M  V30 7299 C 708.189 1.81503 -1.07796 0
M  V30 7300 O 707.537 2.27859 -0.171045 0
M  V30 7301 C 707.747 0.767991 -3.40445 0
M  V30 7302 C 709.095 1.09924 -4.10124 0
M  V30 7303 O 710.119 0.856625 -3.45746 0
M  V30 7304 O 708.978 1.55681 -5.23856 0
M  V30 7305 H 706.072 0.269447 -0.781874 0
M  V30 7306 H 708.618 -0.206739 -1.68436 0
M  V30 7307 H 707.39 -0.145254 -3.9103 0
M  V30 7308 H 707.013 1.55151 -3.66079 0
M  V30 7309 N 708.01 1.57248 0.105221 0
M  V30 7310 C 709.287 1.76566 0.841647 0
M  V30 7311 C 709.667 0.747566 1.9742 0
M  V30 7312 O 709.015 -0.225886 2.27381 0
M  V30 7313 C 709.225 3.22016 1.3456 0
M  V30 7314 C 710.573 3.84911 1.79244 0
M  V30 7315 O 711.597 3.25703 1.44207 0
M  V30 7316 O 710.456 4.89008 2.43995 0
M  V30 7317 H 707.55 0.723443 0.400698 0
M  V30 7318 H 710.096 1.69472 0.0878893 0
M  V30 7319 H 708.868 3.87644 0.533685 0
M  V30 7320 H 708.491 3.33703 2.16167 0
M  V30 7321 N 709.488 -0.375779 1.53054 0
M  V30 7322 C 710.737 -1.11674 1.67964 0
M  V30 7323 C 711.05 -1.90755 0.432655 0
M  V30 7324 O 712.256 -2.67538 0.462109 0
M  V30 7325 C 710.712 -2.0344 2.96884 0
M  V30 7326 C 710.32 -1.29719 4.28809 0
M  V30 7327 C 712.064 -2.7759 3.2116 0
M  V30 7328 C 709.971 -2.20327 5.48826 0
M  V30 7329 H 708.901 -0.420597 0.625791 0
M  V30 7330 H 711.552 -0.378499 1.79554 0
M  V30 7331 H 709.934 -2.80953 2.79072 0
M  V30 7332 H 711.108 -0.573394 4.57219 0
M  V30 7333 H 709.423 -0.674735 4.10897 0
M  V30 7334 H 712.02 -3.4559 4.0801 0
M  V30 7335 H 712.363 -3.42399 2.36789 0
M  V30 7336 H 712.896 -2.07164 3.396 0
M  V30 7337 H 709.635 -1.60113 6.35645 0
M  V30 7338 H 709.155 -2.90585 5.2471 0
M  V30 7339 H 710.834 -2.80116 5.83219 0
M  V30 7340 N 710.966 -1.44241 -0.634997 0
M  V30 7341 C 711.914 -1.51103 -1.76835 0
M  V30 7342 C 712.908 -0.383051 -1.65012 0
M  V30 7343 O 714.114 -0.557832 -1.71138 0
M  V30 7344 H 710.489 -0.474076 -0.583743 0
M  V30 7345 H 712.46 -2.46499 -1.68169 0
M  V30 7346 C 711.209 -1.4687 -3.15158 0
M  V30 7347 H 710.532 -2.32979 -3.24901 0
M  V30 7348 H 711.972 -1.55731 -3.94365 0
M  V30 7349 C 710.431 -0.188884 -3.3637 0
M  V30 7350 O 710.961 0.742487 -3.94778 0
M  V30 7351 N 709.167 -0.0932516 -2.9045 0
M  V30 7352 H 708.714 -0.852004 -2.43102 0
M  V30 7353 H 708.672 0.762308 -3.05018 0
M  V30 7354 N 712.444 0.87505 -1.31075 0
M  V30 7355 C 713.721 1.60976 -1.11113 0
M  V30 7356 C 714.101 2.08409 0.336006 0
M  V30 7357 O 713.449 1.85858 1.32924 0
M  V30 7358 C 713.659 2.77166 -2.12085 0
M  V30 7359 C 715.007 3.47254 -2.44335 0
M  V30 7360 O 716.031 2.87367 -2.10472 0
M  V30 7361 O 714.89 4.55276 -3.02301 0
M  V30 7362 H 711.984 0.707982 -0.427424 0
M  V30 7363 H 714.53 0.920957 -1.42536 0
M  V30 7364 H 713.302 2.39494 -3.09449 0
M  V30 7365 H 712.925 3.53737 -1.81538 0
M  V30 7366 N 713.922 1.13953 1.08869 0
M  V30 7367 C 714.852 0.844824 2.17681 0
M  V30 7368 C 715.833 -0.198213 1.68941 0
M  V30 7369 O 717.018 -0.0559073 1.9412 0
M  V30 7370 C 714.148 0.316325 3.45856 0
M  V30 7371 C 713.102 1.29426 4.07962 0
M  V30 7372 C 712.428 0.625275 5.31031 0
M  V30 7373 C 713.728 2.65484 4.49795 0
M  V30 7374 H 715.422 1.75471 2.42591 0
M  V30 7375 H 712.968 0.845116 1.16592 0
M  V30 7376 H 714.921 0.0977876 4.21287 0
M  V30 7377 H 713.645 -0.628972 3.20486 0
M  V30 7378 H 712.304 1.49889 3.34558 0
M  V30 7379 H 711.952 -0.325678 5.01945 0
M  V30 7380 H 711.652 1.27777 5.73539 0
M  V30 7381 H 713.176 0.416152 6.0918 0
M  V30 7382 H 714.59 2.48957 5.16424 0
M  V30 7383 H 712.987 3.26963 5.03205 0
M  V30 7384 H 714.057 3.22717 3.61914 0
M  V30 7385 N 715.4 -1.26948 0.933913 0
M  V30 7386 C 716.811 -1.76058 0.621324 0
M  V30 7387 C 717.162 -1.76175 -0.863522 0
M  V30 7388 O 716.287 -1.36921 -1.67576 0
M  V30 7389 C 716.882 -3.19713 1.12111 0
M  V30 7390 C 715.441 -3.66465 0.859074 0
M  V30 7391 C 714.588 -2.46186 1.27624 0
M  V30 7392 H 717.539 -1.13127 1.11301 0
M  V30 7393 H 717.56 -3.77566 0.471608 0
M  V30 7394 H 717.072 -3.19596 2.20182 0
M  V30 7395 H 715.173 -3.72021 -0.207566 0
M  V30 7396 H 715.286 -4.55636 1.48098 0
M  V30 7397 H 713.65 -2.45042 0.694727 0
M  V30 7398 H 714.433 -2.48774 2.36572 0
M  V30 7399 N 716.879 -0.700114 -1.41195 0
M  V30 7400 C 718.125 -0.233351 -2.01453 0
M  V30 7401 C 718.458 1.16548 -1.55339 0
M  V30 7402 O 717.733 1.78756 -0.766575 0
M  V30 7403 C 718.016 -0.2961 -3.58881 0
M  V30 7404 C 717.869 -1.7322 -4.15108 0
M  V30 7405 C 719.188 0.341525 -4.38773 0
M  V30 7406 H 716.307 -0.0862667 -0.731934 0
M  V30 7407 H 718.949 -0.889693 -1.67882 0
M  V30 7408 H 717.099 0.262736 -3.87611 0
M  V30 7409 H 718.771 -2.34523 -3.97236 0
M  V30 7410 H 717.014 -2.2649 -3.69979 0
M  V30 7411 H 717.685 -1.7276 -5.24269 0
M  V30 7412 H 720.161 -0.134461 -4.15883 0
M  V30 7413 H 719.037 0.267098 -5.4825 0
M  V30 7414 H 719.298 1.42289 -4.18577 0
M  V30 7415 N 718.357 1.51182 -0.445186 0
M  V30 7416 C 719.582 2.07056 0.119445 0
M  V30 7417 C 720.007 1.30966 1.35016 0
M  V30 7418 O 719.365 0.349827 1.77893 0
M  V30 7419 C 719.413 3.58234 0.412428 0
M  V30 7420 O 718.517 3.84249 1.49754 0
M  V30 7421 H 717.858 0.663998 -0.00157797 0
M  V30 7422 H 720.388 1.94699 -0.628779 0
M  V30 7423 H 720.398 4.02617 0.660583 0
M  V30 7424 H 719.073 4.13038 -0.487049 0
M  V30 7425 H 717.65 3.51724 1.23873 0
M  V30 7426 N 719.835 0.176821 1.56605 0
M  V30 7427 C 721.065 -0.472142 2.01133 0
M  V30 7428 C 721.473 -1.56979 1.05614 0
M  V30 7429 O 720.816 -1.83632 0.0500137 0
M  V30 7430 C 720.878 -1.10547 3.42081 0
M  V30 7431 C 720.542 -0.148806 4.56758 0
M  V30 7432 C 721.539 0.634939 5.16008 0
M  V30 7433 C 719.224 -0.0430325 5.02282 0
M  V30 7434 C 721.218 1.5116 6.19217 0
M  V30 7435 C 718.905 0.83721 6.05338 0
M  V30 7436 C 719.903 1.61311 6.63677 0
M  V30 7437 O 719.591 2.47863 7.64735 0
M  V30 7438 H 719.323 -0.124725 0.664394 0
M  V30 7439 H 721.877 0.277329 2.03519 0
M  V30 7440 H 720.107 -1.90318 3.36625 0
M  V30 7441 H 721.796 -1.6572 3.70529 0
M  V30 7442 H 722.562 0.563424 4.81716 0
M  V30 7443 H 718.441 -0.636753 4.56581 0
M  V30 7444 H 721.985 2.11767 6.64681 0
M  V30 7445 H 717.882 0.909908 6.39055 0
M  V30 7446 H 718.65 2.4144 7.8208 0
M  V30 7447 N 721.313 -1.57302 -0.09688 0
M  V30 7448 C 722.59 -1.7701 -0.832272 0
M  V30 7449 C 722.97 -0.758025 -1.97021 0
M  V30 7450 O 722.318 0.213824 -2.27497 0
M  V30 7451 C 722.528 -3.22725 -1.32851 0
M  V30 7452 C 723.876 -3.85856 -1.772 0
M  V30 7453 O 724.9 -3.26464 -1.42478 0
M  V30 7454 O 723.759 -4.90295 -2.41398 0
M  V30 7455 H 720.853 -0.725558 -0.396856 0
M  V30 7456 H 723.399 -1.69516 -0.0789005 0
M  V30 7457 H 722.171 -3.87921 -0.51312 0
M  V30 7458 H 721.794 -3.34845 -2.14394 0
M  V30 7459 N 722.791 0.367657 -1.53252 0
M  V30 7460 C 724.04 1.10782 -1.68554 0
M  V30 7461 C 724.353 1.90523 -0.442765 0
M  V30 7462 O 725.559 2.6729 -0.47629 0
M  V30 7463 C 724.015 2.01863 -2.97959 0
M  V30 7464 C 723.623 1.27443 -4.29491 0
M  V30 7465 C 725.367 2.75883 -3.22628 0
M  V30 7466 C 723.274 2.17414 -5.49987 0
M  V30 7467 H 722.204 0.417272 -0.628013 0
M  V30 7468 H 724.855 0.368971 -1.79752 0
M  V30 7469 H 723.237 2.7947 -2.80558 0
M  V30 7470 H 724.411 0.549138 -4.57516 0
M  V30 7471 H 722.726 0.652935 -4.11249 0
M  V30 7472 H 725.323 3.43421 -4.09837 0
M  V30 7473 H 725.666 3.41138 -2.38601 0
M  V30 7474 H 726.199 2.0536 -3.40693 0
M  V30 7475 H 722.938 1.5674 -6.36485 0
M  V30 7476 H 722.458 2.87799 -5.26243 0
M  V30 7477 H 724.137 2.77019 -5.84696 0
M  V30 7478 N 724.269 1.44576 0.627338 0
M  V30 7479 C 725.232 1.51372 1.72102 0
M  V30 7480 C 726.232 0.395329 1.55865 0
M  V30 7481 O 727.422 0.658094 1.61291 0
M  V30 7482 C 724.554 1.39129 3.11217 0
M  V30 7483 H 725.747 2.48798 1.6745 0
M  V30 7484 H 723.3 1.31724 0.841336 0
M  V30 7485 H 724.035 0.428114 3.21462 0
M  V30 7486 H 723.82 2.20229 3.24409 0
M  V30 7487 H 725.31 1.46874 3.90919 0
M  V30 7488 N 725.747 -0.868086 1.31537 0
M  V30 7489 C 726.993 -1.62359 1.2252 0
M  V30 7490 C 727.348 -1.91204 -0.214169 0
M  V30 7491 O 726.641 -1.5339 -1.14813 0
M  V30 7492 C 726.835 -2.95889 2.0046 0
M  V30 7493 C 726.664 -2.80082 3.5183 0
M  V30 7494 C 725.434 -2.7917 4.21179 0
M  V30 7495 C 727.632 -2.54805 4.46743 0
M  V30 7496 N 725.614 -2.54433 5.58692 0
M  V30 7497 C 726.985 -2.39349 5.71937 0
M  V30 7498 C 729.04 -2.40165 4.36148 0
M  V30 7499 C 727.743 -2.1074 6.87736 0
M  V30 7500 C 729.769 -2.12945 5.51732 0
M  V30 7501 C 729.131 -1.98278 6.75918 0
M  V30 7502 H 725.23 -0.598381 0.503452 0
M  V30 7503 H 727.814 -1.02156 1.65748 0
M  V30 7504 H 725.985 -3.54095 1.59598 0
M  V30 7505 H 727.717 -3.60734 1.83447 0
M  V30 7506 H 724.472 -2.91621 3.73168 0
M  V30 7507 H 724.896 -2.45029 6.31102 0
M  V30 7508 H 729.538 -2.50231 3.408 0
M  V30 7509 H 727.256 -1.99412 7.8311 0
M  V30 7510 H 730.842 -2.02415 5.45454 0
M  V30 7511 H 729.722 -1.77514 7.63845 0
M  V30 7512 N 727.225 -1.14528 -1.08264 0
M  V30 7513 C 728.455 -0.936604 -1.8415 0
M  V30 7514 C 728.863 0.518298 -1.81962 0
M  V30 7515 O 728.206 1.37096 -1.22272 0
M  V30 7516 C 728.268 -1.36182 -3.32708 0
M  V30 7517 C 727.932 -2.83257 -3.58629 0
M  V30 7518 C 728.929 -3.81366 -3.5335 0
M  V30 7519 C 726.614 -3.20704 -3.86593 0
M  V30 7520 C 728.608 -5.14929 -3.75668 0
M  V30 7521 C 726.295 -4.54443 -4.08564 0
M  V30 7522 C 727.293 -5.51365 -4.03095 0
M  V30 7523 O 726.981 -6.8269 -4.24488 0
M  V30 7524 H 726.713 -0.333254 -0.588148 0
M  V30 7525 H 729.267 -1.5247 -1.3763 0
M  V30 7526 H 727.497 -0.717063 -3.79994 0
M  V30 7527 H 729.186 -1.12372 -3.90035 0
M  V30 7528 H 729.952 -3.53781 -3.31759 0
M  V30 7529 H 725.831 -2.45857 -3.89969 0
M  V30 7530 H 729.375 -5.90568 -3.71315 0
M  V30 7531 H 725.272 -4.81747 -4.29639 0
M  V30 7532 H 726.04 -6.8897 -4.41886 0
M  V30 7533 N 728.703 1.26451 -0.940633 0
M  V30 7534 C 729.613 2.30128 -0.455881 0
M  V30 7535 C 730.629 1.67536 0.469867 0
M  V30 7536 O 731.805 1.98344 0.349529 0
M  V30 7537 C 728.87 3.45634 0.271648 0
M  V30 7538 C 727.931 4.23709 -0.690594 0
M  V30 7539 C 727.164 5.337 0.00231047 0
M  V30 7540 O 727.387 5.57215 1.21935 0
M  V30 7541 O 726.321 5.98091 -0.676111 0
M  V30 7542 H 730.147 2.73655 -1.31707 0
M  V30 7543 H 727.732 1.3164 -0.706497 0
M  V30 7544 H 729.614 4.15853 0.681486 0
M  V30 7545 H 728.289 3.04138 1.10824 0
M  V30 7546 H 727.196 3.55974 -1.15037 0
M  V30 7547 H 728.529 4.68953 -1.49478 0
M  V30 7548 N 730.181 0.707592 1.40822 0
M  V30 7549 C 731.113 0.0105968 2.29198 0
M  V30 7550 C 732.126 -0.732035 1.45414 0
M  V30 7551 O 733.315 -0.580741 1.68789 0
M  V30 7552 C 730.415 -1.00921 3.23525 0
M  V30 7553 C 729.588 -0.333747 4.36125 0
M  V30 7554 C 728.647 -1.25783 5.10945 0
M  V30 7555 O 727.673 -0.745646 5.64295 0
M  V30 7556 N 728.875 -2.58947 5.19545 0
M  V30 7557 H 731.64 0.76938 2.89656 0
M  V30 7558 H 729.201 0.554579 1.52105 0
M  V30 7559 H 731.193 -1.6294 3.70449 0
M  V30 7560 H 729.763 -1.66942 2.6429 0
M  V30 7561 H 728.983 0.466518 3.9143 0
M  V30 7562 H 730.271 0.135444 5.0862 0
M  V30 7563 H 729.669 -3.03065 4.7767 0
M  V30 7564 H 728.226 -3.16131 5.70004 0
M  V30 7565 N 731.66 -1.50943 0.453197 0
M  V30 7566 C 732.607 -2.28128 -0.350197 0
M  V30 7567 C 733.577 -1.32398 -1.00299 0
M  V30 7568 O 734.762 -1.61319 -1.01887 0
M  V30 7569 C 731.902 -3.13782 -1.43649 0
M  V30 7570 C 731.015 -4.24523 -0.800255 0
M  V30 7571 C 730.15 -4.97462 -1.86293 0
M  V30 7572 C 729.189 -6.00102 -1.20598 0
M  V30 7573 N 728.326 -6.66387 -2.21071 0
M  V30 7574 H 733.166 -2.96337 0.31434 0
M  V30 7575 H 730.703 -1.46151 0.166863 0
M  V30 7576 H 732.661 -3.6178 -2.07776 0
M  V30 7577 H 731.291 -2.47655 -2.07044 0
M  V30 7578 H 730.343 -3.80371 -0.0468651 0
M  V30 7579 H 731.655 -4.98009 -0.280777 0
M  V30 7580 H 730.809 -5.49088 -2.58044 0
M  V30 7581 H 729.548 -4.23642 -2.41617 0
M  V30 7582 H 728.553 -5.47753 -0.474 0
M  V30 7583 H 729.778 -6.75887 -0.659859 0
M  V30 7584 H 727.724 -5.9537 -2.75446 0
M  V30 7585 H 727.641 -7.3569 -1.74058 0
M  V30 7586 H 728.909 -7.22638 -2.92257 0
M  V30 7587 N 733.138 -0.185124 -1.56509 0
M  V30 7588 C 734.101 0.72591 -2.17401 0
M  V30 7589 C 735.101 1.14819 -1.12575 0
M  V30 7590 O 736.291 1.0629 -1.38015 0
M  V30 7591 C 733.423 1.98979 -2.76803 0
M  V30 7592 H 734.616 0.195588 -2.99262 0
M  V30 7593 H 732.169 0.0644772 -1.56167 0
M  V30 7594 H 732.904 2.56287 -1.98714 0
M  V30 7595 H 732.689 1.69583 -3.53531 0
M  V30 7596 H 734.179 2.63966 -3.23592 0
M  V30 7597 N 734.616 1.57351 0.0885366 0
M  V30 7598 C 735.862 1.86696 0.791996 0
M  V30 7599 C 736.195 0.775148 1.78059 0
M  V30 7600 O 735.47 -0.216247 1.93294 0
M  V30 7601 C 735.753 3.26684 1.51491 0
M  V30 7602 C 735.606 4.465 0.543858 0
M  V30 7603 C 736.925 3.64664 2.46391 0
M  V30 7604 H 734.044 0.679049 0.286463 0
M  V30 7605 H 736.686 1.89919 0.0554866 0
M  V30 7606 H 734.836 3.24067 2.14273 0
M  V30 7607 H 736.508 4.61235 -0.0774597 0
M  V30 7608 H 734.751 4.33567 -0.142228 0
M  V30 7609 H 735.422 5.41192 1.08696 0
M  V30 7610 H 737.898 3.68267 1.93698 0
M  V30 7611 H 736.774 4.63534 2.93986 0
M  V30 7612 H 737.035 2.93698 3.30445 0
M  V30 7613 N 736.094 -0.359525 1.53444 0
M  V30 7614 C 737.057 -1.42357 1.7963 0
M  V30 7615 C 738.057 -1.46319 0.666884 0
M  V30 7616 O 739.247 -1.46974 0.935113 0
M  V30 7617 C 736.379 -2.81425 1.92387 0
M  V30 7618 H 737.572 -1.20409 2.74666 0
M  V30 7619 H 735.125 -0.593007 1.44614 0
M  V30 7620 H 735.86 -3.08679 0.994384 0
M  V30 7621 H 735.645 -2.79947 2.74539 0
M  V30 7622 H 737.135 -3.5847 2.14218 0
M  V30 7623 N 737.572 -1.44907 -0.619662 0
M  V30 7624 C 738.818 -1.48512 -1.38102 0
M  V30 7625 C 739.151 -0.121686 -1.93818 0
M  V30 7626 O 738.426 0.862256 -1.74343 0
M  V30 7627 C 738.709 -2.55469 -2.53787 0
M  V30 7628 C 738.562 -4.01212 -2.03345 0
M  V30 7629 C 739.881 -2.58821 -3.55949 0
M  V30 7630 H 737 -0.540712 -0.500799 0
M  V30 7631 H 739.642 -1.7665 -0.69962 0
M  V30 7632 H 737.792 -2.31606 -3.11915 0
M  V30 7633 H 739.464 -4.36245 -1.49959 0
M  V30 7634 H 737.707 -4.12443 -1.34438 0
M  V30 7635 H 738.378 -4.71717 -2.86683 0
M  V30 7636 H 740.854 -2.80172 -3.07641 0
M  V30 7637 H 739.73 -3.35542 -4.34399 0
M  V30 7638 H 739.991 -1.63451 -4.10775 0
M  V30 7639 N 739.05 0.861098 -1.31996 0
M  V30 7640 C 739.98 1.98482 -1.22993 0
M  V30 7641 C 740.961 1.6971 -0.115168 0
M  V30 7642 O 742.146 1.91849 -0.30126 0
M  V30 7643 C 739.276 3.34179 -0.945615 0
M  V30 7644 C 738.23 3.77284 -2.02091 0
M  V30 7645 C 737.556 5.1054 -1.58912 0
M  V30 7646 C 738.856 3.93439 -3.43515 0
M  V30 7647 H 740.55 2.06271 -2.17008 0
M  V30 7648 H 738.096 0.991043 -1.04472 0
M  V30 7649 H 740.049 4.12338 -0.869206 0
M  V30 7650 H 738.773 3.26586 0.0301849 0
M  V30 7651 H 737.432 3.01371 -2.08737 0
M  V30 7652 H 737.08 4.99397 -0.600942 0
M  V30 7653 H 736.78 5.40352 -2.30854 0
M  V30 7654 H 738.304 5.91199 -1.52696 0
M  V30 7655 H 739.718 4.6197 -3.39495 0
M  V30 7656 H 738.115 4.34661 -4.13751 0
M  V30 7657 H 739.185 2.96548 -3.8365 0
M  V30 7658 N 740.528 1.15101 1.07655 0
M  V30 7659 C 741.458 0.867864 2.16773 0
M  V30 7660 C 742.439 -0.180283 1.69142 0
M  V30 7661 O 743.624 -0.0353152 1.94168 0
M  V30 7662 C 740.754 0.35299 3.45501 0
M  V30 7663 C 739.708 1.33746 4.06566 0
M  V30 7664 C 739.034 0.681562 5.30338 0
M  V30 7665 C 740.334 2.7024 4.46954 0
M  V30 7666 H 742.028 1.78034 2.40716 0
M  V30 7667 H 739.574 0.857435 1.15689 0
M  V30 7668 H 741.527 0.142465 4.21159 0
M  V30 7669 H 740.251 -0.594945 3.21135 0
M  V30 7670 H 738.91 1.53429 3.32949 0
M  V30 7671 H 738.558 -0.272422 5.02262 0
M  V30 7672 H 738.258 1.33853 5.72151 0
M  V30 7673 H 739.782 0.48074 6.08705 0
M  V30 7674 H 741.196 2.5442 5.13754 0
M  V30 7675 H 739.593 3.32282 4.99709 0
M  V30 7676 H 740.663 3.26537 3.58471 0
M  V30 7677 N 742.006 -1.2595 0.947325 0
M  V30 7678 C 742.969 -2.24407 0.466285 0
M  V30 7679 C 743.969 -1.55054 -0.426005 0
M  V30 7680 O 745.159 -1.7275 -0.224319 0
M  V30 7681 C 742.291 -3.39326 -0.327201 0
M  V30 7682 H 743.484 -2.68477 1.33642 0
M  V30 7683 H 741.037 -1.38211 0.729887 0
M  V30 7684 H 741.772 -3.00667 -1.21532 0
M  V30 7685 H 741.557 -3.9085 0.312839 0
M  V30 7686 H 743.047 -4.12455 -0.653477 0
M  V30 7687 N 743.484 -0.715051 -1.40445 0
M  V30 7688 C 744.414 -0.0768699 -2.33373 0
M  V30 7689 C 745.395 0.746109 -1.52863 0
M  V30 7690 O 746.58 0.695142 -1.81332 0
M  V30 7691 C 743.71 0.846014 -3.36838 0
M  V30 7692 C 742.664 0.128694 -4.27806 0
M  V30 7693 C 741.99 1.16726 -5.21804 0
M  V30 7694 C 743.29 -1.01679 -5.12307 0
M  V30 7695 H 744.984 -0.853061 -2.8699 0
M  V30 7696 H 742.53 -0.41167 -1.3799 0
M  V30 7697 H 744.483 1.30185 -4.00786 0
M  V30 7698 H 743.207 1.6541 -2.81615 0
M  V30 7699 H 741.866 -0.307314 -3.6531 0
M  V30 7700 H 741.514 1.96838 -4.62887 0
M  V30 7701 H 741.214 0.692188 -5.83509 0
M  V30 7702 H 742.738 1.62321 -5.88629 0
M  V30 7703 H 744.152 -0.640337 -5.69713 0
M  V30 7704 H 742.549 -1.4202 -5.83053 0
M  V30 7705 H 743.619 -1.84769 -4.48317 0
M  V30 7706 N 744.962 1.50701 -0.461195 0
M  V30 7707 C 745.892 2.31182 0.328184 0
M  V30 7708 C 746.873 1.37644 0.999408 0
M  V30 7709 O 748.058 1.66565 0.99848 0
M  V30 7710 C 745.188 3.17113 1.41621 0
M  V30 7711 C 744.142 4.19124 0.867148 0
M  V30 7712 C 743.468 4.93728 2.05272 0
M  V30 7713 C 744.768 5.22174 -0.114808 0
M  V30 7714 H 746.462 2.97423 -0.343501 0
M  V30 7715 H 744.008 1.43033 -0.166641 0
M  V30 7716 H 745.961 3.72208 1.97584 0
M  V30 7717 H 744.685 2.48739 2.11652 0
M  V30 7718 H 743.344 3.65116 0.329557 0
M  V30 7719 H 742.992 4.21835 2.73978 0
M  V30 7720 H 742.692 5.62724 1.69161 0
M  V30 7721 H 744.216 5.51654 2.61744 0
M  V30 7722 H 745.63 5.72198 0.355316 0
M  V30 7723 H 744.027 5.98833 -0.389689 0
M  V30 7724 H 745.097 4.7353 -1.04391 0
M  V30 7725 N 746.441 0.193421 1.56409 0
M  V30 7726 C 747.688 -0.445789 1.97532 0
M  V30 7727 C 748.016 -1.61744 1.08024 0
M  V30 7728 O 747.271 -1.95338 0.118982 0
M  V30 7729 C 747.57 -0.949718 3.44551 0
M  V30 7730 C 747.236 0.108383 4.5077 0
M  V30 7731 C 745.898 0.399126 4.79542 0
M  V30 7732 C 748.25 0.825423 5.14622 0
M  V30 7733 C 745.578 1.41192 5.69457 0
M  V30 7734 C 747.93 1.82735 6.05632 0
M  V30 7735 C 746.594 2.12531 6.32761 0
M  V30 7736 H 745.864 -0.163126 0.722822 0
M  V30 7737 H 748.511 0.290035 1.89291 0
M  V30 7738 H 746.816 -1.76378 3.49854 0
M  V30 7739 H 748.513 -1.45367 3.73724 0
M  V30 7740 H 745.103 -0.128392 4.28408 0
M  V30 7741 H 749.287 0.61403 4.92487 0
M  V30 7742 H 744.543 1.6487 5.88751 0
M  V30 7743 H 748.717 2.3882 6.5417 0
M  V30 7744 H 746.344 2.91155 7.02234 0
M  V30 7745 N 747.919 -1.57396 -0.0801906 0
M  V30 7746 C 748.849 -2.06145 -1.09665 0
M  V30 7747 C 749.83 -0.953273 -1.40878 0
M  V30 7748 O 751.015 -1.22548 -1.50651 0
M  V30 7749 C 748.145 -2.49836 -2.41245 0
M  V30 7750 C 747.099 -3.64454 -2.24405 0
M  V30 7751 C 746.425 -3.94172 -3.61293 0
M  V30 7752 C 747.725 -4.94807 -1.67223 0
M  V30 7753 H 749.419 -2.91316 -0.691028 0
M  V30 7754 H 746.965 -1.40145 -0.330957 0
M  V30 7755 H 748.918 -2.82552 -3.12638 0
M  V30 7756 H 747.642 -1.61683 -2.83771 0
M  V30 7757 H 746.301 -3.32008 -1.55454 0
M  V30 7758 H 745.949 -3.03163 -4.01374 0
M  V30 7759 H 745.649 -4.71345 -3.50867 0
M  V30 7760 H 747.173 -4.29376 -4.3413 0
M  V30 7761 H 748.587 -5.25807 -2.28472 0
M  V30 7762 H 746.984 -5.76245 -1.67515 0
M  V30 7763 H 748.054 -4.80751 -0.632944 0
M  V30 7764 N 749.397 0.351382 -1.53633 0
M  V30 7765 C 750.645 1.09034 -1.70165 0
M  V30 7766 C 750.966 1.89413 -0.463422 0
M  V30 7767 O 750.236 1.888 0.522624 0
M  V30 7768 H 748.816 0.405522 -0.627344 0
M  V30 7769 H 751.478 0.394554 -1.90865 0
M  V30 7770 H 750.574 1.77215 -2.56907 0
M  V30 7771 N 750.875 1.45233 0.611969 0
M  V30 7772 C 752.121 1.49242 1.37312 0
M  V30 7773 C 752.454 0.131963 1.93751 0
M  V30 7774 O 751.729 -0.852999 1.74798 0
M  V30 7775 C 752.012 2.56811 2.52428 0
M  V30 7776 C 751.865 4.02284 2.01215 0
M  V30 7777 C 753.184 2.60705 3.54572 0
M  V30 7778 H 750.303 0.54336 0.497925 0
M  V30 7779 H 752.945 1.77019 0.690242 0
M  V30 7780 H 751.095 2.33256 3.10683 0
M  V30 7781 H 752.767 4.37035 1.47643 0
M  V30 7782 H 751.01 4.1315 1.32248 0
M  V30 7783 H 751.681 4.7323 2.84178 0
M  V30 7784 H 754.157 2.81799 3.06151 0
M  V30 7785 H 753.033 3.37841 4.32614 0
M  V30 7786 H 753.294 1.65627 4.09903 0
M  V30 7787 N 752.353 -0.854086 1.3245 0
M  V30 7788 C 753.3 -1.96271 1.21434 0
M  V30 7789 C 754.27 -1.6582 0.0963851 0
M  V30 7790 O 755.455 -1.88851 0.27203 0
M  V30 7791 C 752.595 -3.31939 0.943952 0
M  V30 7792 C 751.708 -3.74885 2.14675 0
M  V30 7793 C 750.843 -4.99347 1.81179 0
M  V30 7794 C 749.882 -5.34785 2.97777 0
M  V30 7795 N 749.019 -6.50425 2.6437 0
M  V30 7796 H 753.859 -2.05025 2.16261 0
M  V30 7797 H 751.396 -1.00348 1.07558 0
M  V30 7798 H 753.354 -4.10076 0.767675 0
M  V30 7799 H 751.984 -3.22784 0.0324763 0
M  V30 7800 H 751.036 -2.92396 2.43328 0
M  V30 7801 H 752.348 -3.97068 3.01891 0
M  V30 7802 H 751.502 -5.85193 1.60107 0
M  V30 7803 H 750.241 -4.79101 0.911777 0
M  V30 7804 H 749.246 -4.47451 3.1948 0
M  V30 7805 H 750.471 -5.56988 3.88511 0
M  V30 7806 H 748.417 -6.31695 1.7691 0
M  V30 7807 H 748.334 -6.7263 3.45116 0
M  V30 7808 H 749.602 -7.39422 2.46729 0
M  V30 7809 N 753.831 -1.1567 -1.07043 0
M  V30 7810 C 755.079 -0.931673 -1.79344 0
M  V30 7811 C 755.4 0.542421 -1.87304 0
M  V30 7812 O 754.67 1.39418 -1.37621 0
M  V30 7813 H 753.25 -0.34171 -0.664262 0
M  V30 7814 H 755.912 -1.45795 -1.29344 0
M  V30 7815 H 755.008 -1.34379 -2.81689 0
M  V30 7816 N 755.309 1.25446 -0.953992 0
M  V30 7817 C 756.558 1.92441 -0.604101 0
M  V30 7818 C 756.871 1.75543 0.862796 0
M  V30 7819 O 758.077 2.37106 1.32262 0
M  V30 7820 C 756.533 3.44854 -1.02974 0
M  V30 7821 C 756.141 3.70464 -2.51914 0
M  V30 7822 C 757.885 4.1778 -0.752352 0
M  V30 7823 C 755.792 5.1638 -2.88281 0
M  V30 7824 H 754.722 0.720508 -0.222227 0
M  V30 7825 H 757.373 1.42318 -1.15836 0
M  V30 7826 H 755.755 3.93935 -0.403904 0
M  V30 7827 H 756.929 3.32038 -3.19511 0
M  V30 7828 H 755.244 3.10797 -2.77117 0
M  V30 7829 H 757.841 5.25261 -1.00024 0
M  V30 7830 H 758.184 4.15135 0.311212 0
M  V30 7831 H 758.717 3.74605 -1.33851 0
M  V30 7832 H 755.456 5.24135 -3.93653 0
M  V30 7833 H 754.976 5.55855 -2.25357 0
M  V30 7834 H 756.655 5.84497 -2.77439 0
M  V30 7835 N 756.787 0.722489 1.40064 0
M  V30 7836 C 758.203 0.396758 1.5459 0
M  V30 7837 C 758.403 -1.09375 1.69232 0
M  V30 7838 O 757.459 -1.87984 1.68578 0
M  V30 7839 C 758.772 1.16885 2.77053 0
M  V30 7840 C 760.32 1.15583 2.90877 0
M  V30 7841 C 760.795 1.91023 4.16262 0
M  V30 7842 N 762.286 1.88126 4.23276 0
M  V30 7843 C 763.021 2.43315 5.19216 0
M  V30 7844 N 762.517 3.07089 6.21022 0
M  V30 7845 N 764.31 2.33418 5.11344 0
M  V30 7846 H 756.461 1.68887 1.28806 0
M  V30 7847 H 758.724 0.714231 0.62336 0
M  V30 7848 H 758.43 2.22301 2.72534 0
M  V30 7849 H 758.304 0.765011 3.69361 0
M  V30 7850 H 760.691 0.10984 2.94896 0
M  V30 7851 H 760.772 1.59895 1.99668 0
M  V30 7852 H 760.416 2.95616 4.13006 0
M  V30 7853 H 760.346 1.44126 5.06493 0
M  V30 7854 H 762.837 1.41654 3.50346 0
M  V30 7855 H 763.15 3.467 6.90666 0
M  V30 7856 H 761.495 3.11175 6.21446 0
M  V30 7857 H 764.686 1.83248 4.30741 0
M  V30 7858 H 764.859 2.7673 5.85939 0
M  V30 7859 N 758.265 -1.50454 0.469181 0
M  V30 7860 C 759.195 -2.31353 -0.31592 0
M  V30 7861 C 760.176 -1.38172 -0.992094 0
M  V30 7862 O 761.361 -1.67093 -0.989633 0
M  V30 7863 C 758.491 -3.1786 -1.39937 0
M  V30 7864 C 757.445 -4.19578 -0.844909 0
M  V30 7865 C 756.771 -4.9481 -2.0265 0
M  V30 7866 C 758.071 -5.22106 0.142499 0
M  V30 7867 H 759.765 -2.97237 0.359269 0
M  V30 7868 H 757.311 -1.42942 0.174224 0
M  V30 7869 H 759.264 -3.7325 -1.95607 0
M  V30 7870 H 757.988 -2.49858 -2.1033 0
M  V30 7871 H 756.647 -3.65285 -0.310189 0
M  V30 7872 H 756.295 -4.23282 -2.71737 0
M  V30 7873 H 755.995 -5.63613 -1.66174 0
M  V30 7874 H 757.519 -5.53035 -2.58815 0
M  V30 7875 H 758.933 -5.72378 -0.324966 0
M  V30 7876 H 757.33 -5.98618 0.421441 0
M  V30 7877 H 758.4 -4.7297 1.06901 0
M  V30 7878 N 759.743 -0.201713 -1.56304 0
M  V30 7879 C 760.991 0.434447 -1.97375 0
M  V30 7880 C 761.312 1.61692 -1.08998 0
M  V30 7881 O 760.582 1.95223 -0.162682 0
M  V30 7882 H 759.162 0.163497 -0.728888 0
M  V30 7883 H 761.824 -0.289988 -1.92731 0
M  V30 7884 H 760.92 0.774136 -3.02347 0
M  V30 7885 N 761.222 1.57436 0.0718424 0
M  V30 7886 C 762.633 1.75975 0.623678 0
M  V30 7887 C 762.984 0.827155 1.77912 0
M  V30 7888 O 762.109 0.0112425 2.16397 0
M  V30 7889 C 762.704 3.1911 1.13816 0
M  V30 7890 C 761.263 3.38994 1.63586 0
M  V30 7891 C 760.41 2.71684 0.555261 0
M  V30 7892 H 763.361 1.57948 -0.154328 0
M  V30 7893 H 763.382 3.23267 2.00696 0
M  V30 7894 H 762.894 3.86962 0.296998 0
M  V30 7895 H 760.995 2.76256 2.50027 0
M  V30 7896 H 761.108 4.47436 1.71283 0
M  V30 7897 H 759.472 2.34236 1.00029 0
M  V30 7898 H 760.255 3.42191 -0.275712 0
M  V30 7899 N 762.7 -0.34323 1.53817 0
M  V30 7900 C 763.928 -1.10348 1.75017 0
M  V30 7901 C 764.343 -1.82345 0.489475 0
M  V30 7902 O 763.7 -1.74362 -0.538886 0
M  V30 7903 C 763.751 -2.11672 2.93048 0
M  V30 7904 O 763.472 -1.42603 4.14241 0
M  V30 7905 C 764.973 -3.0007 3.26301 0
M  V30 7906 H 762.193 -0.329056 0.584776 0
M  V30 7907 H 764.737 -0.395339 2.00642 0
M  V30 7908 H 762.892 -2.78051 2.69753 0
M  V30 7909 H 763.306 -2.10294 4.80496 0
M  V30 7910 H 764.78 -3.67101 4.12239 0
M  V30 7911 H 765.257 -3.66105 2.42618 0
M  V30 7912 H 765.863 -2.3928 3.51604 0
M  V30 7913 N 764.178 -1.45556 -0.604258 0
M  V30 7914 C 765.108 -1.57327 -1.72541 0
M  V30 7915 C 766.089 -0.424637 -1.64714 0
M  V30 7916 O 767.274 -0.648196 -1.83063 0
M  V30 7917 C 764.404 -1.54279 -3.11152 0
M  V30 7918 C 763.358 -2.67893 -3.33792 0
M  V30 7919 C 762.684 -2.499 -4.72709 0
M  V30 7920 C 763.984 -4.0988 -3.23722 0
M  V30 7921 H 765.678 -2.51175 -1.62947 0
M  V30 7922 H 763.224 -1.20884 -0.782504 0
M  V30 7923 H 765.177 -1.6111 -3.89386 0
M  V30 7924 H 763.901 -0.569627 -3.21594 0
M  V30 7925 H 762.56 -2.60495 -2.57949 0
M  V30 7926 H 762.208 -1.50715 -4.79889 0
M  V30 7927 H 761.908 -3.26091 -4.88813 0
M  V30 7928 H 763.432 -2.5859 -5.5314 0
M  V30 7929 H 764.846 -4.18503 -3.91826 0
M  V30 7930 H 763.243 -4.86487 -3.51355 0
M  V30 7931 H 764.313 -4.31553 -2.21111 0
M  V30 7932 N 765.656 0.84705 -1.32902 0
M  V30 7933 C 767.067 1.41785 -1.21466 0
M  V30 7934 C 767.418 1.95464 0.169767 0
M  V30 7935 O 766.543 1.88157 1.06892 0
M  V30 7936 C 767.138 2.57734 -2.19906 0
M  V30 7937 C 765.697 3.10791 -2.12334 0
M  V30 7938 C 764.844 1.83562 -2.07847 0
M  V30 7939 H 767.795 0.653532 -1.44619 0
M  V30 7940 H 767.816 3.35123 -1.80202 0
M  V30 7941 H 767.328 2.18635 -3.20656 0
M  V30 7942 H 765.429 3.54455 -1.14858 0
M  V30 7943 H 765.542 3.71519 -3.02506 0
M  V30 7944 H 763.906 2.03475 -1.53199 0
M  V30 7945 H 764.689 1.4667 -3.10392 0
M  V30 7946 N 767.134 1.16236 1.06428 0
M  V30 7947 C 768.097 0.870163 2.1204 0
M  V30 7948 C 769.097 -0.134239 1.60239 0
M  V30 7949 O 770.287 0.0964932 1.73933 0
M  V30 7950 C 767.419 0.301033 3.39568 0
M  V30 7951 H 768.612 1.8064 2.39394 0
M  V30 7952 H 766.165 0.971116 1.2247 0
M  V30 7953 H 766.9 -0.642948 3.17863 0
M  V30 7954 H 766.685 1.02475 3.78472 0
M  V30 7955 H 768.175 0.114494 4.17443 0
M  V30 7956 N 768.612 -1.24939 0.960631 0
M  V30 7957 C 769.859 -1.92818 0.618663 0
M  V30 7958 C 770.187 -1.75177 -0.845173 0
M  V30 7959 O 769.442 -1.09412 -1.62258 0
M  V30 7960 C 769.741 -3.45066 0.930809 0
M  V30 7961 C 769.407 -3.82869 2.38164 0
M  V30 7962 C 768.069 -3.92899 2.7782 0
M  V30 7963 C 770.421 -4.01483 3.32356 0
M  V30 7964 C 767.749 -4.18955 4.10723 0
M  V30 7965 C 770.101 -4.29033 4.6488 0
M  V30 7966 C 768.765 -4.37282 5.04322 0
M  V30 7967 H 768.035 -0.705571 0.226385 0
M  V30 7968 H 770.682 -1.48365 1.21079 0
M  V30 7969 H 768.987 -3.9096 0.256355 0
M  V30 7970 H 770.684 -3.95783 0.644712 0
M  V30 7971 H 767.274 -3.75622 2.06413 0
M  V30 7972 H 771.458 -3.93143 3.02907 0
M  V30 7973 H 766.714 -4.23558 4.40918 0
M  V30 7974 H 770.888 -4.42381 5.3784 0
M  V30 7975 H 768.515 -4.57225 6.0733 0
M  V30 7976 N 770.09 -0.729906 -1.39679 0
M  V30 7977 C 771.02 -0.101618 -2.33279 0
M  V30 7978 C 772.001 0.729854 -1.53646 0
M  V30 7979 O 773.186 0.67587 -1.82059 0
M  V30 7980 C 770.316 0.81024 -3.37716 0
M  V30 7981 C 769.27 0.0833126 -4.27919 0
M  V30 7982 C 768.596 1.11185 -5.23012 0
M  V30 7983 C 769.896 -1.07107 -5.112 0
M  V30 7984 H 771.59 -0.883452 -2.86069 0
M  V30 7985 H 769.136 -0.426283 -1.37546 0
M  V30 7986 H 771.089 1.25927 -4.02145 0
M  V30 7987 H 769.813 1.62413 -2.83354 0
M  V30 7988 H 768.472 -0.346043 -3.64963 0
M  V30 7989 H 768.12 1.91917 -4.64948 0
M  V30 7990 H 767.82 0.63026 -5.8421 0
M  V30 7991 H 769.344 1.56068 -5.90318 0
M  V30 7992 H 770.758 -0.700726 -5.69002 0
M  V30 7993 H 769.155 -1.48196 -5.81514 0
M  V30 7994 H 770.225 -1.89513 -4.46332 0
M  V30 7995 N 771.568 1.50203 -0.477153 0
M  V30 7996 C 772.793 2.07263 0.0754986 0
M  V30 7997 C 773.218 1.33801 1.32208 0
M  V30 7998 O 772.576 0.387482 1.77111 0
M  V30 7999 C 772.624 3.59028 0.336348 0
M  V30 8000 O 771.728 3.87339 1.4157 0
M  V30 8001 H 771.069 0.663815 -0.015662 0
M  V30 8002 H 773.599 1.93321 -0.669936 0
M  V30 8003 H 773.609 4.03927 0.575034 0
M  V30 8004 H 772.284 4.11912 -0.574551 0
M  V30 8005 H 770.861 3.54272 1.16385 0
M  V30 8006 N 773.046 0.209999 1.56195 0
M  V30 8007 C 774.457 -0.299943 1.84275 0
M  V30 8008 C 774.808 -1.60314 1.1311 0
M  V30 8009 O 773.933 -2.1273 0.396874 0
M  V30 8010 C 774.528 -0.550986 3.3429 0
M  V30 8011 C 773.087 -1.00526 3.62728 0
M  V30 8012 C 772.234 -0.0619828 2.77231 0
M  V30 8013 H 775.185 0.433458 1.52666 0
M  V30 8014 H 775.206 -1.39846 3.53869 0
M  V30 8015 H 774.718 0.397669 3.86057 0
M  V30 8016 H 772.819 -1.96768 3.16407 0
M  V30 8017 H 772.932 -0.887664 4.70805 0
M  V30 8018 H 771.296 -0.566648 2.48317 0
M  V30 8019 H 772.079 0.881383 3.31793 0
M  V30 8020 N 774.524 -1.57472 -0.0634922 0
M  V30 8021 C 775.472 -2.05307 -1.09323 0
M  V30 8022 C 776.466 -0.959995 -1.39572 0
M  V30 8023 O 777.672 -1.14507 -1.38882 0
M  V30 8024 H 774.047 -0.65472 -0.369927 0
M  V30 8025 H 776.018 -2.90925 -0.663707 0
M  V30 8026 C 774.767 -2.51954 -2.39613 0
M  V30 8027 H 774.09 -3.35662 -2.1719 0
M  V30 8028 H 775.53 -2.89169 -3.10092 0
M  V30 8029 C 773.989 -1.40596 -3.06161 0
M  V30 8030 O 774.519 -0.752722 -3.94585 0
M  V30 8031 N 772.725 -1.14902 -2.66919 0
M  V30 8032 H 772.272 -1.68205 -1.95102 0
M  V30 8033 H 772.23 -0.406006 -3.11767 0
M  V30 8034 N 776.003 0.335068 -1.53997 0
M  V30 8035 C 777.249 1.07594 -1.71905 0
M  V30 8036 C 777.582 1.88039 -0.485264 0
M  V30 8037 O 776.857 1.87482 0.517752 0
M  V30 8038 C 777.14 2.01016 -2.98772 0
M  V30 8039 C 776.993 1.23977 -4.32377 0
M  V30 8040 C 778.312 3.0071 -3.21343 0
M  V30 8041 H 775.431 0.38976 -0.625505 0
M  V30 8042 H 778.073 0.353684 -1.86679 0
M  V30 8043 H 776.223 2.62603 -2.86307 0
M  V30 8044 H 777.895 0.649383 -4.56706 0
M  V30 8045 H 776.138 0.541878 -4.30402 0
M  V30 8046 H 776.809 1.92512 -5.17342 0
M  V30 8047 H 779.285 2.4924 -3.33194 0
M  V30 8048 H 778.161 3.63272 -4.11491 0
M  V30 8049 H 778.422 3.72549 -2.38033 0
M  V30 8050 N 777.481 1.45874 0.596531 0
M  V30 8051 C 778.444 1.54988 1.68853 0
M  V30 8052 C 779.444 0.428302 1.54991 0
M  V30 8053 O 780.634 0.692158 1.59859 0
M  V30 8054 C 777.766 1.457 3.08195 0
M  V30 8055 H 778.959 2.52294 1.62135 0
M  V30 8056 H 776.512 1.33479 0.813206 0
M  V30 8057 H 777.247 0.496204 3.20481 0
M  V30 8058 H 777.032 2.27061 3.19665 0
M  V30 8059 H 778.522 1.55133 3.87716 0
M  V30 8060 N 778.959 -0.83999 1.33349 0
M  V30 8061 C 779.906 -1.94972 1.23509 0
M  V30 8062 C 780.876 -1.65709 0.113967 0
M  V30 8063 O 782.061 -1.88552 0.292045 0
M  V30 8064 C 779.201 -3.30919 0.979105 0
M  V30 8065 C 778.314 -3.72587 2.18639 0
M  V30 8066 C 777.449 -4.97397 1.86465 0
M  V30 8067 C 776.488 -5.31597 3.03432 0
M  V30 8068 N 775.625 -6.47584 2.71254 0
M  V30 8069 H 780.465 -2.0272 2.18423 0
M  V30 8070 H 778.002 -0.992017 1.08616 0
M  V30 8071 H 779.96 -4.09239 0.811126 0
M  V30 8072 H 778.59 -3.22731 0.0667099 0
M  V30 8073 H 777.642 -2.89799 2.46416 0
M  V30 8074 H 778.954 -3.93844 3.06086 0
M  V30 8075 H 778.108 -5.83462 1.66305 0
M  V30 8076 H 776.847 -4.78107 0.96254 0
M  V30 8077 H 775.852 -4.44037 3.24208 0
M  V30 8078 H 777.077 -5.52836 3.94397 0
M  V30 8079 H 775.023 -6.29783 1.836 0
M  V30 8080 H 774.94 -6.68931 3.52231 0
M  V30 8081 H 776.208 -7.36764 2.54558 0
M  V30 8082 N 780.437 -1.16799 -1.0581 0
M  V30 8083 C 781.683 -0.953935 -1.78963 0
M  V30 8084 C 782.016 0.516638 -1.87202 0
M  V30 8085 O 781.291 1.38338 -1.36721 0
M  V30 8086 C 781.574 -1.58808 -3.23191 0
M  V30 8087 C 781.427 -3.13032 -3.23003 0
M  V30 8088 C 782.746 -1.2868 -4.20867 0
M  V30 8089 H 779.865 -0.347972 -0.64968 0
M  V30 8090 H 782.507 -1.44204 -1.23715 0
M  V30 8091 H 780.657 -1.17303 -3.70368 0
M  V30 8092 H 782.329 -3.63553 -2.83949 0
M  V30 8093 H 780.572 -3.46108 -2.61518 0
M  V30 8094 H 781.243 -3.52527 -4.24769 0
M  V30 8095 H 783.719 -1.6461 -3.82155 0
M  V30 8096 H 782.595 -1.75645 -5.20038 0
M  V30 8097 H 782.856 -0.206491 -4.41618 0
M  V30 8098 N 781.915 1.24427 -0.967243 0
M  V30 8099 C 782.845 2.2773 -0.515899 0
M  V30 8100 C 783.826 1.64197 0.444227 0
M  V30 8101 O 785.011 1.91193 0.340451 0
M  V30 8102 C 782.141 3.46751 0.195149 0
M  V30 8103 C 781.095 4.22548 -0.680953 0
M  V30 8104 C 780.421 5.34456 0.161561 0
M  V30 8105 C 781.721 4.83914 -1.96532 0
M  V30 8106 H 783.415 2.65735 -1.37933 0
M  V30 8107 H 780.961 1.27742 -0.664681 0
M  V30 8108 H 782.914 4.18153 0.522117 0
M  V30 8109 H 781.638 3.07771 1.09292 0
M  V30 8110 H 780.297 3.52946 -0.991186 0
M  V30 8111 H 779.945 4.91716 1.05947 0
M  V30 8112 H 779.645 5.86087 -0.421418 0
M  V30 8113 H 781.169 6.08685 0.483211 0
M  V30 8114 H 782.583 5.47392 -1.70396 0
M  V30 8115 H 780.98 5.45775 -2.49499 0
M  V30 8116 H 782.05 4.05393 -2.66053 0
M  V30 8117 N 783.393 0.737304 1.3929 0
M  V30 8118 C 784.639 0.286681 2.00763 0
M  V30 8119 C 784.972 -1.12388 1.58375 0
M  V30 8120 O 784.247 -1.76661 0.813699 0
M  V30 8121 C 784.53 0.391147 3.57969 0
M  V30 8122 C 784.383 1.84165 4.1037 0
M  V30 8123 C 785.702 -0.225072 4.39524 0
M  V30 8124 H 782.821 0.105642 0.729389 0
M  V30 8125 H 785.463 0.933892 1.65464 0
M  V30 8126 H 783.613 -0.159875 3.88171 0
M  V30 8127 H 785.285 2.44972 3.90879 0
M  V30 8128 H 783.528 2.3622 3.63844 0
M  V30 8129 H 784.199 1.866 5.19504 0
M  V30 8130 H 786.675 0.244677 4.1538 0
M  V30 8131 H 785.551 -0.121646 5.48765 0
M  V30 8132 H 785.812 -1.31141 4.22202 0
M  V30 8133 N 784.871 -1.49948 0.485112 0
M  V30 8134 C 785.781 -2.32587 -0.306697 0
M  V30 8135 C 786.797 -1.43598 -0.982632 0
M  V30 8136 O 787.973 -1.76638 -0.967519 0
M  V30 8137 C 785.038 -3.18638 -1.3664 0
M  V30 8138 C 784.099 -4.23462 -0.705589 0
M  V30 8139 C 783.332 -5.05401 -1.7148 0
M  V30 8140 O 783.555 -4.88618 -2.94293 0
M  V30 8141 O 782.489 -5.88157 -1.27889 0
M  V30 8142 H 786.315 -3.01447 0.369272 0
M  V30 8143 H 783.9 -1.47349 0.246709 0
M  V30 8144 H 785.782 -3.71992 -1.9799 0
M  V30 8145 H 784.457 -2.52491 -2.02559 0
M  V30 8146 H 783.364 -3.74063 -0.0527733 0
M  V30 8147 H 784.697 -4.92119 -0.0891187 0
M  V30 8148 N 786.349 -0.21828 -1.56081 0
M  V30 8149 C 787.297 0.709679 -2.21509 0
M  V30 8150 C 788.291 1.20221 -1.19346 0
M  V30 8151 O 789.497 1.16241 -1.37433 0
M  V30 8152 H 785.872 0.247271 -0.710184 0
M  V30 8153 H 787.843 0.134386 -2.98097 0
M  V30 8154 C 786.592 1.90853 -2.90638 0
M  V30 8155 H 785.915 1.53865 -3.69006 0
M  V30 8156 H 787.355 2.53568 -3.39822 0
M  V30 8157 C 785.814 2.76189 -1.92929 0
M  V30 8158 O 786.344 3.74842 -1.44416 0
M  V30 8159 N 784.55 2.42157 -1.6065 0
M  V30 8160 H 784.097 1.61987 -2.00294 0
M  V30 8161 H 784.055 2.99534 -0.955347 0
M  V30 8162 N 787.827 1.57504 0.0551401 0
M  V30 8163 C 789.074 1.88055 0.751104 0
M  V30 8164 C 789.402 0.812231 1.76729 0
M  V30 8165 O 788.657 -0.189918 1.94776 0
M  V30 8166 C 788.956 3.25311 1.48013 0
M  V30 8167 C 788.622 4.46858 0.602375 0
M  V30 8168 C 787.284 4.79847 0.360536 0
M  V30 8169 C 789.636 5.212 -0.00524047 0
M  V30 8170 C 786.964 5.84582 -0.498127 0
M  V30 8171 C 789.316 6.26844 -0.851453 0
M  V30 8172 C 787.98 6.58324 -1.103 0
M  V30 8173 H 787.25 0.688142 0.274848 0
M  V30 8174 H 789.897 1.91497 0.0114795 0
M  V30 8175 H 788.202 3.17737 2.29239 0
M  V30 8176 H 789.899 3.46189 2.02371 0
M  V30 8177 H 786.489 4.21049 0.801007 0
M  V30 8178 H 790.673 4.96013 0.168682 0
M  V30 8179 H 785.929 6.07361 -0.701594 0
M  V30 8180 H 790.103 6.83603 -1.32893 0
M  V30 8181 H 787.73 7.39304 -1.77011 0
M  V30 8182 N 789.305 -0.326896 1.54172 0
M  V30 8183 C 790.253 -1.42232 1.84046 0
M  V30 8184 C 791.247 -1.53705 0.712115 0
M  V30 8185 O 792.453 -1.56131 0.895724 0
M  V30 8186 H 788.828 -0.474568 0.583343 0
M  V30 8187 H 790.799 -1.14259 2.75658 0
M  V30 8188 C 789.548 -2.78502 2.08163 0
M  V30 8189 H 788.871 -2.70447 2.94446 0
M  V30 8190 H 790.311 -3.54228 2.33021 0
M  V30 8191 C 788.77 -3.25415 0.872152 0
M  V30 8192 O 789.3 -4.01621 0.0797648 0
M  V30 8193 N 787.506 -2.82418 0.684716 0
M  V30 8194 H 787.053 -2.20566 1.33072 0
M  V30 8195 H 787.011 -3.14159 -0.123031 0
M  V30 8196 N 790.784 -1.46188 -0.588786 0
M  V30 8197 C 792.033 -1.50452 -1.34339 0
M  V30 8198 C 792.346 -0.158096 -1.9496 0
M  V30 8199 O 793.552 -0.0784918 -2.71387 0
M  V30 8200 C 792.008 -2.65074 -2.43441 0
M  V30 8201 C 791.616 -4.06111 -1.8915 0
M  V30 8202 C 793.36 -2.78603 -3.20282 0
M  V30 8203 C 791.267 -5.12084 -2.95845 0
M  V30 8204 H 790.197 -0.559905 -0.504997 0
M  V30 8205 H 792.848 -1.72382 -0.629014 0
M  V30 8206 H 791.23 -2.36462 -3.1765 0
M  V30 8207 H 792.404 -4.44487 -1.21524 0
M  V30 8208 H 790.719 -3.97197 -1.24995 0
M  V30 8209 H 793.316 -3.54944 -3.99898 0
M  V30 8210 H 793.659 -1.85902 -3.72486 0
M  V30 8211 H 794.192 -3.06832 -2.53178 0
M  V30 8212 H 790.931 -6.06556 -2.48535 0
M  V30 8213 H 790.451 -4.78259 -3.61979 0
M  V30 8214 H 792.13 -5.37661 -3.59902 0
M  V30 8215 N 792.262 0.832906 -1.33792 0
M  V30 8216 C 793.209 1.94314 -1.24541 0
M  V30 8217 C 794.179 1.65646 -0.122753 0
M  V30 8218 O 795.364 1.88394 -0.30204 0
M  V30 8219 C 792.504 3.30395 -0.996641 0
M  V30 8220 C 791.617 3.71422 -2.20612 0
M  V30 8221 C 790.752 4.96401 -1.89101 0
M  V30 8222 C 789.791 5.2998 -3.06247 0
M  V30 8223 N 788.928 6.46137 -2.74685 0
M  V30 8224 H 793.768 2.01559 -2.19495 0
M  V30 8225 H 791.305 0.986243 -1.09141 0
M  V30 8226 H 793.263 4.08803 -0.832817 0
M  V30 8227 H 791.893 3.22691 -0.0838242 0
M  V30 8228 H 790.945 2.88488 -2.47949 0
M  V30 8229 H 792.257 3.92215 -3.0817 0
M  V30 8230 H 791.411 5.82572 -1.69396 0
M  V30 8231 H 790.15 4.7759 -0.987882 0
M  V30 8232 H 789.155 4.42312 -3.26559 0
M  V30 8233 H 790.38 5.50737 -3.97323 0
M  V30 8234 H 788.326 6.28801 -1.86938 0
M  V30 8235 H 788.243 6.67054 -3.55774 0
M  V30 8236 H 789.511 7.35403 -2.58461 0
M  V30 8237 N 793.74 1.17359 1.05189 0
M  V30 8238 C 795.151 0.96793 1.5965 0
M  V30 8239 C 795.502 -0.485355 1.90102 0
M  V30 8240 O 794.627 -1.36066 1.6827 0
M  V30 8241 C 795.222 1.75068 2.90063 0
M  V30 8242 C 793.781 1.58969 3.41183 0
M  V30 8243 C 792.928 1.75231 2.14917 0
M  V30 8244 H 795.879 1.32067 0.880001 0
M  V30 8245 H 795.9 1.23308 3.59966 0
M  V30 8246 H 795.412 2.80835 2.67868 0
M  V30 8247 H 793.513 0.556906 3.68415 0
M  V30 8248 H 793.626 2.38067 4.15766 0
M  V30 8249 H 791.99 1.18073 2.25679 0
M  V30 8250 H 792.773 2.8241 1.95191 0
M  V30 8251 N 795.218 -1.23913 0.973828 0
M  V30 8252 C 796.467 -1.91455 0.63464 0
M  V30 8253 C 796.78 -1.76893 -0.834759 0
M  V30 8254 O 797.986 -2.3918 -1.28473 0
M  V30 8255 C 796.442 -3.43172 1.08447 0
M  V30 8256 C 796.05 -3.66409 2.57776 0
M  V30 8257 C 797.794 -4.1653 0.818721 0
M  V30 8258 C 795.701 -5.11728 2.9646 0
M  V30 8259 H 794.631 -0.716881 0.233661 0
M  V30 8260 H 797.282 -1.40457 1.18085 0
M  V30 8261 H 795.664 -3.93242 0.466524 0
M  V30 8262 H 796.838 -3.26913 3.24753 0
M  V30 8263 H 795.153 -3.06349 2.82027 0
M  V30 8264 H 797.75 -5.23603 1.08367 0
M  V30 8265 H 798.093 -4.15578 -0.245128 0
M  V30 8266 H 798.626 -3.72428 1.39793 0
M  V30 8267 H 795.365 -5.17806 4.01941 0
M  V30 8268 H 794.885 -5.52199 2.34172 0
M  V30 8269 H 796.564 -5.80009 2.86703 0
M  V30 8270 N 796.696 -0.74468 -1.38897 0
M  V30 8271 C 797.944 -0.296298 -1.99916 0
M  V30 8272 C 798.265 1.12325 -1.59399 0
M  V30 8273 O 797.535 1.76658 -0.846689 0
M  V30 8274 H 796.115 -0.106561 -0.73936 0
M  V30 8275 H 798.777 -0.956793 -1.69798 0
M  V30 8276 H 797.873 -0.352356 -3.10105 0
M  V30 8277 N 798.174 1.49689 -0.493057 0
M  V30 8278 C 799.402 2.06836 0.0513141 0
M  V30 8279 C 799.817 1.35436 1.31539 0
M  V30 8280 O 799.174 0.430248 1.77356 0
M  V30 8281 C 799.225 3.60107 0.317003 0
M  V30 8282 O 798.946 4.2882 -0.896957 0
M  V30 8283 C 800.447 4.33945 0.905902 0
M  V30 8284 H 797.667 0.670787 -0.0169048 0
M  V30 8285 H 800.211 1.92574 -0.688139 0
M  V30 8286 H 798.366 3.74099 1.00642 0
M  V30 8287 H 798.78 5.20395 -0.654939 0
M  V30 8288 H 800.254 5.42087 1.04144 0
M  V30 8289 H 800.731 3.95895 1.90168 0
M  V30 8290 H 801.337 4.2454 0.254195 0
M  V30 8291 N 799.652 0.226554 1.55963 0
M  V30 8292 C 800.898 -0.404387 1.98727 0
M  V30 8293 C 801.231 -1.59059 1.11418 0
M  V30 8294 O 800.506 -1.93729 0.172971 0
M  V30 8295 C 800.789 -0.834081 3.50307 0
M  V30 8296 C 800.642 0.356104 4.48388 0
M  V30 8297 C 801.961 -1.68845 4.06423 0
M  V30 8298 H 799.08 -0.145515 0.722492 0
M  V30 8299 H 801.722 0.323791 1.87221 0
M  V30 8300 H 799.872 -1.45454 3.60244 0
M  V30 8301 H 801.544 0.99432 4.50456 0
M  V30 8302 H 799.787 1.0027 4.22053 0
M  V30 8303 H 800.458 0.0124333 5.51999 0
M  V30 8304 H 802.934 -1.16489 3.99461 0
M  V30 8305 H 801.81 -1.958 5.1279 0
M  V30 8306 H 802.071 -2.65347 3.53615 0
M  V30 8307 N 801.13 -1.57531 -0.0467866 0
M  V30 8308 C 802.062 -2.02156 -1.08007 0
M  V30 8309 C 803.075 -0.931434 -1.33522 0
M  V30 8310 O 804.264 -1.209 -1.31321 0
M  V30 8311 C 801.364 -2.36675 -2.42566 0
M  V30 8312 C 800.537 -3.67848 -2.36658 0
M  V30 8313 C 799.596 -3.89754 -3.53523 0
M  V30 8314 O 798.622 -4.61036 -3.33818 0
M  V30 8315 N 799.824 -3.34025 -4.74771 0
M  V30 8316 H 802.589 -2.91414 -0.699845 0
M  V30 8317 H 800.15 -1.60185 -0.235041 0
M  V30 8318 H 802.142 -2.48482 -3.19435 0
M  V30 8319 H 800.712 -1.53178 -2.72498 0
M  V30 8320 H 799.932 -3.66561 -1.45005 0
M  V30 8321 H 801.22 -4.53931 -2.29835 0
M  V30 8322 H 800.618 -2.76214 -4.93683 0
M  V30 8323 H 799.175 -3.51241 -5.49066 0
M  V30 8324 N 802.608 0.318715 -1.54344 0
M  V30 8325 C 803.885 1.07461 -1.63437 0
M  V30 8326 C 804.265 2.05771 -0.47131 0
M  V30 8327 O 803.613 2.22175 0.53391 0
M  V30 8328 C 803.823 1.77224 -3.00654 0
M  V30 8329 C 805.171 2.30069 -3.56866 0
M  V30 8330 O 806.195 1.87284 -3.0299 0
M  V30 8331 O 805.054 3.08412 -4.51159 0
M  V30 8332 H 802.148 0.495627 -0.66203 0
M  V30 8333 H 804.694 0.318218 -1.6669 0
M  V30 8334 H 803.466 1.05742 -3.76742 0
M  V30 8335 H 803.089 2.59662 -3.01101 0
M  V30 8336 N 804.086 1.46499 0.581025 0
M  V30 8337 C 805.363 1.42372 1.34125 0
M  V30 8338 C 805.743 0.108073 2.10823 0
M  V30 8339 O 805.091 -0.910366 2.09582 0
M  V30 8340 C 805.301 2.65445 2.26583 0
M  V30 8341 C 806.649 3.11664 2.88359 0
M  V30 8342 O 807.673 2.66006 2.36896 0
M  V30 8343 O 806.532 3.90974 3.81839 0
M  V30 8344 H 803.626 0.566262 0.602724 0
M  V30 8345 H 806.172 1.58667 0.601903 0
M  V30 8346 H 804.944 3.52756 1.69348 0
M  V30 8347 H 804.567 2.51618 3.07854 0
M  V30 8348 N 805.565 -0.825799 1.34232 0
M  V30 8349 C 806.814 -1.57686 1.2577 0
M  V30 8350 C 807.127 -1.94848 -0.171372 0
M  V30 8351 O 808.333 -2.68854 -0.378123 0
M  V30 8352 C 806.789 -2.84478 2.20454 0
M  V30 8353 C 806.397 -2.54629 3.68603 0
M  V30 8354 C 808.141 -3.625 2.20893 0
M  V30 8355 C 806.048 -3.77597 4.55164 0
M  V30 8356 H 804.978 -0.591809 0.467203 0
M  V30 8357 H 807.629 -0.909421 1.59379 0
M  V30 8358 H 806.011 -3.52832 1.79793 0
M  V30 8359 H 807.185 -1.94404 4.17784 0
M  V30 8360 H 805.5 -1.89888 3.70582 0
M  V30 8361 H 808.097 -4.538 2.82789 0
M  V30 8362 H 808.44 -3.98404 1.20746 0
M  V30 8363 H 808.973 -3.01086 2.59985 0
M  V30 8364 H 805.712 -3.46815 5.56237 0
M  V30 8365 H 805.232 -4.37116 4.10719 0
M  V30 8366 H 806.911 -4.45039 4.69627 0
M  V30 8367 N 807.043 -1.17915 -1.04565 0
M  V30 8368 C 808.006 -0.903787 -2.10628 0
M  V30 8369 C 809.006 0.10873 -1.60432 0
M  V30 8370 O 810.196 -0.124152 -1.73757 0
M  V30 8371 C 807.328 -0.355017 -3.39046 0
M  V30 8372 H 808.521 -1.84425 -2.3649 0
M  V30 8373 H 806.074 -0.990477 -1.2091 0
M  V30 8374 H 806.809 0.592297 -3.18845 0
M  V30 8375 H 806.594 -1.08484 -3.76794 0
M  V30 8376 H 808.084 -0.180891 -4.17208 0
M  V30 8377 N 808.521 1.23394 -0.980386 0
M  V30 8378 C 809.484 2.23092 -0.525619 0
M  V30 8379 C 810.484 1.56129 0.384745 0
M  V30 8380 O 811.674 1.73284 0.178439 0
M  V30 8381 C 808.806 3.40074 0.23712 0
M  V30 8382 H 809.999 2.64839 -1.40714 0
M  V30 8383 H 807.552 1.36227 -0.766275 0
M  V30 8384 H 808.287 3.03783 1.13518 0
M  V30 8385 H 808.072 3.89883 -0.416356 0
M  V30 8386 H 809.562 4.14043 0.543892 0
M  V30 8387 N 809.999 0.752036 1.385 0
M  V30 8388 C 810.932 0.0717411 2.28087 0
M  V30 8389 C 811.91 -0.729945 1.45295 0
M  V30 8390 O 813.094 -0.708902 1.74662 0
M  V30 8391 C 810.221 -0.905237 3.26379 0
M  V30 8392 C 809.267 -0.189973 4.26077 0
M  V30 8393 S 810.1 1.10815 5.23909 0
M  V30 8394 C 811.256 0.134202 6.25756 0
M  V30 8395 H 811.489 0.831438 2.85437 0
M  V30 8396 H 809.022 0.544552 1.44478 0
M  V30 8397 H 810.98 -1.46358 3.83523 0
M  V30 8398 H 809.641 -1.63789 2.68015 0
M  V30 8399 H 808.834 -0.92985 4.95348 0
M  V30 8400 H 808.436 0.296804 3.7282 0
M  V30 8401 H 810.728 -0.700345 6.7387 0
M  V30 8402 H 811.671 0.794532 7.03628 0
M  V30 8403 H 812.079 -0.245801 5.63965 0
M  V30 8404 N 811.477 -1.49425 0.500989 0
M  V30 8405 C 812.41 -2.25887 -0.324087 0
M  V30 8406 C 813.388 -1.30469 -0.970388 0
M  V30 8407 O 814.572 -1.59758 -1.00049 0
M  V30 8408 C 811.699 -3.05787 -1.45643 0
M  V30 8409 C 810.745 -4.16359 -0.924508 0
M  V30 8410 S 811.578 -5.35181 0.184707 0
M  V30 8411 C 812.734 -6.18636 -0.950806 0
M  V30 8412 H 812.967 -2.95519 0.324891 0
M  V30 8413 H 810.5 -1.51723 0.286289 0
M  V30 8414 H 812.458 -3.52405 -2.10525 0
M  V30 8415 H 811.119 -2.35624 -2.07703 0
M  V30 8416 H 810.312 -4.71781 -1.77311 0
M  V30 8417 H 809.914 -3.72331 -0.352907 0
M  V30 8418 H 812.206 -6.51581 -1.85603 0
M  V30 8419 H 813.149 -7.06761 -0.435212 0
M  V30 8420 H 813.557 -5.512 -1.21813 0
M  V30 8421 N 812.955 -0.234822 -1.55841 0
M  V30 8422 C 813.918 0.656378 -2.196 0
M  V30 8423 C 814.918 1.11179 -1.16171 0
M  V30 8424 O 816.108 1.01845 -1.41326 0
M  V30 8425 C 813.24 1.90072 -2.82993 0
M  V30 8426 H 814.433 0.100281 -2.99732 0
M  V30 8427 H 811.986 0.0147613 -1.56293 0
M  V30 8428 H 812.721 2.49836 -2.06767 0
M  V30 8429 H 812.506 1.5825 -3.58747 0
M  V30 8430 H 813.996 2.53538 -3.31826 0
M  V30 8431 N 814.433 1.57553 0.0384317 0
M  V30 8432 C 815.681 1.88468 0.729672 0
M  V30 8433 C 816.002 0.831302 1.76393 0
M  V30 8434 O 815.272 -0.13622 1.95426 0
M  V30 8435 H 813.852 0.695529 0.272485 0
M  V30 8436 H 816.514 1.94899 0.0066032 0
M  V30 8437 H 815.61 2.8705 1.22511 0
M  V30 8438 N 815.911 -0.310526 1.54511 0
M  V30 8439 C 816.858 -1.38264 1.84802 0
M  V30 8440 C 817.828 -1.50808 0.696141 0
M  V30 8441 O 819.013 -1.6582 0.943846 0
M  V30 8442 C 816.153 -2.74422 2.09252 0
M  V30 8443 C 815.266 -2.70405 3.36906 0
M  V30 8444 C 814.401 -3.98495 3.51248 0
M  V30 8445 C 813.44 -3.88836 4.72729 0
M  V30 8446 N 812.577 -5.08683 4.83928 0
M  V30 8447 H 817.417 -1.11732 2.76261 0
M  V30 8448 H 814.954 -0.540609 1.36806 0
M  V30 8449 H 816.912 -3.53593 2.21422 0
M  V30 8450 H 815.542 -2.99235 1.2107 0
M  V30 8451 H 814.594 -1.83151 3.33406 0
M  V30 8452 H 815.906 -2.59155 4.26193 0
M  V30 8453 H 815.06 -4.861 3.63031 0
M  V30 8454 H 813.799 -4.12567 2.60077 0
M  V30 8455 H 812.804 -2.99615 4.60989 0
M  V30 8456 H 814.029 -3.76318 5.65298 0
M  V30 8457 H 811.975 -5.23236 3.95677 0
M  V30 8458 H 811.892 -4.99819 5.67201 0
M  V30 8459 H 813.16 -5.97966 5.00057 0
M  V30 8460 O 817.428 -1.54915 -0.456448 0
M  V30 8461 H 818.119 -1.58706 -1.11049 0
M  V30 END ATOM
M  V30 BEGIN BOND
M  V30 END BOND
M  V30 END CTAB
M  END
$$$$
