drugbank_target|P01584 Interleukin-1 beta (DB00843; DB01017; DB05133; DB05260; DB05412; DB05442; DB05470; DB05507; DB05767; DB06168; DB06372; DB10772; DB11967; DB12119; DB12140)
 OpenBabel12092119473D

  0  0  0     0  0            999 V3000
M  V30 BEGIN CTAB
M  V30 COUNTS 4246 4296 0 0 0
M  V30 BEGIN ATOM
M  V30 1 H -0.908 1.98254 -0.117106 0
M  V30 2 N 0 1.576 0 0
M  V30 3 C 0.933 2.03868 1.02534 0
M  V30 4 C 1.911 0.928543 1.3348 0
M  V30 5 O 3.095 1.19667 1.45644 0
M  V30 6 C 0.222 2.43627 2.35294 0
M  V30 7 C -0.732 3.65373 2.2001 0
M  V30 8 S 0.101 5.13292 1.52614 0
M  V30 9 C 1.257 5.56322 2.86805 0
M  V30 10 H 1.49 2.90518 0.631377 0
M  V30 11 H -0.977 1.52953 0.210867 0
M  V30 12 H 0.981 2.67203 3.11629 0
M  V30 13 H -0.358 1.57376 2.7183 0
M  V30 14 H -1.165 3.90944 3.18086 0
M  V30 15 H -1.563 3.418 1.51819 0
M  V30 16 H 0.729 5.58782 3.83104 0
M  V30 17 H 1.672 6.56266 2.65933 0
M  V30 18 H 2.08 4.83886 2.90714 0
M  V30 19 N 1.4781 -0.272755 1.55222 0
M  V30 20 C 2.4411 -1.32041 1.87344 0
M  V30 21 C 3.4411 -1.42342 0.74803 0
M  V30 22 O 4.6311 -1.41488 1.0162 0
M  V30 23 C 1.7631 -2.70173 2.07893 0
M  V30 24 H 2.9561 -1.04789 2.80997 0
M  V30 25 H 0.5091 -0.51083 1.47717 0
M  V30 26 H 1.2441 -3.02605 1.16622 0
M  V30 27 H 1.0291 -2.64082 2.89833 0
M  V30 28 H 2.5191 -3.45869 2.34017 0
M  V30 29 N 2.9562 -1.48159 -0.537278 0
M  V30 30 C 3.8662 -1.64807 -1.6696 0
M  V30 31 C 4.8822 -0.530651 -1.65711 0
M  V30 32 O 6.0582 -0.800784 -1.84796 0
M  V30 33 C 3.1232 -1.67708 -3.03438 0
M  V30 34 C 2.1842 -2.91025 -3.156 0
M  V30 35 C 1.4172 -2.93778 -4.45567 0
M  V30 36 O 1.6402 -2.05153 -5.3223 0
M  V30 37 O 0.5742 -3.85868 -4.61941 0
M  V30 38 H 4.4002 -2.6066 -1.55853 0
M  V30 39 H 1.9852 -1.31475 -0.709549 0
M  V30 40 H 3.8672 -1.7218 -3.84619 0
M  V30 41 H 2.5422 -0.750278 -3.14885 0
M  V30 42 H 1.4492 -2.92089 -2.33741 0
M  V30 43 H 2.7822 -3.83065 -3.09066 0
M  V30 44 N 4.4343 0.785586 -1.36625 0
M  V30 45 C 5.6803 1.54591 -1.31261 0
M  V30 46 C 6.0133 1.93906 0.106823 0
M  V30 47 O 5.2883 1.63007 1.06108 0
M  V30 48 C 5.5713 2.82038 -2.23889 0
M  V30 49 C 5.4243 2.49066 -3.74548 0
M  V30 50 C 6.7433 3.83887 -2.15217 0
M  V30 51 H 3.8623 0.560846 -0.478143 0
M  V30 52 H 6.5043 0.902278 -1.67209 0
M  V30 53 H 4.6543 3.36961 -1.93363 0
M  V30 54 H 6.3263 2.00164 -4.15611 0
M  V30 55 H 4.5693 1.81954 -3.93796 0
M  V30 56 H 5.2403 3.40109 -4.34776 0
M  V30 57 H 7.7163 3.38421 -2.42096 0
M  V30 58 H 6.5923 4.70806 -2.82193 0
M  V30 59 H 6.8533 4.27131 -1.14068 0
M  V30 60 N 5.9124 1.20967 1.01018 0
M  V30 61 C 7.3234 1.02319 1.56165 0
M  V30 62 C 7.6744 -0.418546 1.91684 0
M  V30 63 O 6.7994 -1.30096 1.72928 0
M  V30 64 C 7.3944 1.85109 2.8376 0
M  V30 65 C 5.9534 1.70809 3.35412 0
M  V30 66 C 5.1004 1.82643 2.08655 0
M  V30 67 H 8.0514 1.35065 0.833255 0
M  V30 68 H 8.0724 1.35827 3.55431 0
M  V30 69 H 7.5844 2.90035 2.57878 0
M  V30 70 H 5.6854 0.685464 3.66241 0
M  V30 71 H 5.7984 2.52467 4.07182 0
M  V30 72 H 4.1624 1.25896 2.21409 0
M  V30 73 H 4.9454 2.89066 1.85191 0
M  V30 74 N 7.3905 -1.2043 1.01659 0
M  V30 75 C 8.3005 -2.2689 0.596484 0
M  V30 76 C 9.3165 -1.70107 -0.36599 0
M  V30 77 O 10.4925 -2.00117 -0.226942 0
M  V30 78 C 7.5575 -3.4665 -0.0586659 0
M  V30 79 C 6.6185 -4.18662 0.949751 0
M  V30 80 C 5.8515 -5.32705 0.32577 0
M  V30 81 O 6.0745 -5.63656 -0.874509 0
M  V30 82 O 5.0085 -5.92803 1.04249 0
M  V30 83 H 8.8345 -2.65041 1.4828 0
M  V30 84 H 6.4195 -1.27048 0.786082 0
M  V30 85 H 8.3015 -4.19256 -0.424564 0
M  V30 86 H 6.9765 -3.10375 -0.91918 0
M  V30 87 H 5.8835 -3.48229 1.36702 0
M  V30 88 H 7.2165 -4.58878 1.78023 0
M  V30 89 N 8.8686 -0.792821 -1.36206 0
M  V30 90 C 9.7986 -0.207853 -2.32573 0
M  V30 91 C 10.7796 0.659055 -1.56813 0
M  V30 92 O 11.9646 0.592176 -1.84951 0
M  V30 93 C 9.0946 0.655449 -3.41059 0
M  V30 94 C 8.0486 -0.111842 -4.27854 0
M  V30 95 C 7.3746 0.872274 -5.27537 0
M  V30 96 C 8.6746 -1.30299 -5.05786 0
M  V30 97 H 10.3686 -1.01294 -2.81744 0
M  V30 98 H 7.9146 -0.48854 -1.3546 0
M  V30 99 H 9.8676 1.07464 -4.07467 0
M  V30 100 H 8.5916 1.49328 -2.90463 0
M  V30 101 H 7.2506 -0.512053 -3.63006 0
M  V30 102 H 6.8986 1.70523 -4.73214 0
M  V30 103 H 6.5986 0.363291 -5.86476 0
M  V30 104 H 8.1226 1.28996 -5.96818 0
M  V30 105 H 9.5366 -0.959379 -5.65216 0
M  V30 106 H 7.9336 -1.7455 -5.74154 0
M  V30 107 H 9.0036 -2.09663 -4.37229 0
M  V30 108 N 10.3467 1.47872 -0.545128 0
M  V30 109 C 11.3097 2.28337 0.198717 0
M  V30 110 C 12.3097 1.36255 0.853888 0
M  V30 111 O 13.4997 1.59003 0.711606 0
M  V30 112 C 10.6317 3.15585 1.28915 0
M  V30 113 H 11.8247 2.95567 -0.507941 0
M  V30 114 H 9.3777 1.53362 -0.301616 0
M  V30 115 H 10.1127 2.53019 2.02859 0
M  V30 116 H 9.8977 3.83337 0.824309 0
M  V30 117 H 11.3877 3.76243 1.81194 0
M  V30 118 N 11.8248 0.280983 1.55075 0
M  V30 119 C 13.0498 -0.340154 2.04592 0
M  V30 120 C 13.4748 -1.48246 1.15779 0
M  V30 121 O 12.8328 -1.80614 0.15761 0
M  V30 122 C 12.8808 -0.793104 3.5177 0
M  V30 123 O 11.9848 -1.89981 3.66034 0
M  V30 124 H 11.3258 -0.0694289 0.66036 0
M  V30 125 H 13.8558 0.416993 2.00306 0
M  V30 126 H 13.8658 -1.08729 3.93245 0
M  V30 127 H 12.5408 0.0426163 4.15878 0
M  V30 128 H 11.1178 -1.60771 3.36463 0
M  V30 129 N 13.3029 -1.57598 0.00835791 0
M  V30 130 C 14.2129 -2.12385 -0.996487 0
M  V30 131 C 15.2289 -1.07108 -1.37127 0
M  V30 132 O 16.4049 -1.39055 -1.4569 0
M  V30 133 C 13.4699 -2.62314 -2.26699 0
M  V30 134 C 12.5309 -3.82225 -1.95456 0
M  V30 135 C 11.7639 -4.29763 -3.16449 0
M  V30 136 O 11.9869 -3.76584 -4.28416 0
M  V30 137 O 10.9209 -5.21832 -2.99958 0
M  V30 138 H 14.7469 -2.98479 -0.560725 0
M  V30 139 H 12.3319 -1.47903 -0.210987 0
M  V30 140 H 14.2139 -2.94589 -3.01322 0
M  V30 141 H 12.8889 -1.79313 -2.69497 0
M  V30 142 H 11.7959 -3.54909 -1.18282 0
M  V30 143 H 13.1289 -4.66324 -1.57489 0
M  V30 144 N 14.781 0.264519 -1.55364 0
M  V30 145 C 15.714 1.35297 -1.83766 0
M  V30 146 C 16.692 1.47171 -0.691336 0
M  V30 147 O 17.876 1.63663 -0.935238 0
M  V30 148 C 15.003 2.72847 -2.00679 0
M  V30 149 C 14.049 2.78214 -3.23263 0
M  V30 150 S 14.882 2.36601 -4.80396 0
M  V30 151 C 16.038 3.7611 -5.00292 0
M  V30 152 H 16.271 1.11003 -2.758 0
M  V30 153 H 13.804 0.464596 -1.47244 0
M  V30 154 H 15.762 3.52057 -2.11108 0
M  V30 155 H 14.423 2.94388 -1.09518 0
M  V30 156 H 13.616 3.7919 -3.3201 0
M  V30 157 H 13.218 2.07034 -3.11469 0
M  V30 158 H 15.51 4.71457 -4.86554 0
M  V30 159 H 16.453 3.7231 -6.02321 0
M  V30 160 H 16.861 3.67806 -4.28228 0
M  V30 161 N 16.2591 1.48442 0.529413 0
M  V30 162 C 17.1921 1.57577 1.65059 0
M  V30 163 C 18.1701 0.426198 1.56915 0
M  V30 164 O 19.3541 0.637877 1.77379 0
M  V30 165 C 16.4811 1.5043 3.03461 0
M  V30 166 C 15.5271 2.70235 3.29962 0
M  V30 167 S 16.3601 4.32198 3.16172 0
M  V30 168 C 17.5161 4.2765 4.57019 0
M  V30 169 H 17.7491 2.52427 1.5706 0
M  V30 170 H 15.2821 1.36982 0.712417 0
M  V30 171 H 17.2401 1.46992 3.8328 0
M  V30 172 H 15.9011 0.569167 3.089 0
M  V30 173 H 15.0941 2.61374 4.30929 0
M  V30 174 H 14.6961 2.70938 2.57815 0
M  V30 175 H 16.9881 3.97618 5.48549 0
M  V30 176 H 17.9311 5.28797 4.70934 0
M  V30 177 H 18.3391 3.5811 4.36368 0
M  V30 178 N 17.7372 -0.778329 1.37039 0
M  V30 179 C 18.7002 -1.87301 1.32102 0
M  V30 180 C 19.7002 -1.59198 0.226405 0
M  V30 181 O 20.8902 -1.67403 0.481861 0
M  V30 182 C 18.0222 -3.24309 1.05055 0
M  V30 183 H 19.2152 -1.93093 2.29467 0
M  V30 184 H 16.7682 -0.977358 1.21973 0
M  V30 185 H 17.5032 -3.24196 0.0819373 0
M  V30 186 H 17.2882 -3.46098 1.84279 0
M  V30 187 H 18.7782 -4.04382 1.04234 0
M  V30 188 N 19.2153 -1.21501 -1.00376 0
M  V30 189 C 20.4453 -1.05746 -1.77486 0
M  V30 190 C 20.8533 0.395655 -1.85017 0
M  V30 191 O 20.1963 1.28626 -1.31152 0
M  V30 192 C 20.2583 -1.58092 -3.22873 0
M  V30 193 C 19.9223 -3.06568 -3.38917 0
M  V30 194 C 20.9193 -4.04106 -3.271 0
M  V30 195 C 18.6043 -3.45799 -3.64319 0
M  V30 196 C 20.5983 -5.38862 -3.40451 0
M  V30 197 C 18.2853 -4.80707 -3.77311 0
M  V30 198 C 19.2833 -5.77047 -3.65384 0
M  V30 199 O 18.9713 -7.09507 -3.77961 0
M  V30 200 H 18.7033 -0.371778 -0.564586 0
M  V30 201 H 21.2573 -1.61319 -1.27143 0
M  V30 202 H 19.4873 -0.969163 -3.74358 0
M  V30 203 H 21.1763 -1.38162 -3.81662 0
M  V30 204 H 21.9423 -3.75141 -3.07399 0
M  V30 205 H 17.8213 -2.71344 -3.72684 0
M  V30 206 H 21.3653 -6.14041 -3.31058 0
M  V30 207 H 17.2623 -5.09357 -3.96517 0
M  V30 208 H 18.0303 -7.16935 -3.94901 0
M  V30 209 N 20.6934 1.19889 -1.02296 0
M  V30 210 C 21.9234 1.93109 -0.734332 0
M  V30 211 C 22.3314 1.75377 0.709889 0
M  V30 212 O 21.6744 1.06912 1.49384 0
M  V30 213 C 21.7364 3.45362 -0.99827 0
M  V30 214 C 21.4004 3.8686 -2.43287 0
M  V30 215 C 22.3974 3.92102 -3.41397 0
M  V30 216 C 20.0824 4.18668 -2.77529 0
M  V30 217 C 22.0764 4.28573 -4.71809 0
M  V30 218 C 19.7634 4.54813 -4.08153 0
M  V30 219 C 20.7614 4.59739 -5.05103 0
M  V30 220 O 20.4494 4.95051 -6.33388 0
M  V30 221 H 20.1814 0.620409 -0.268456 0
M  V30 222 H 22.7354 1.53144 -1.3688 0
M  V30 223 H 20.9654 3.85482 -0.306645 0
M  V30 224 H 22.6544 3.99814 -0.700234 0
M  V30 225 H 23.4204 3.67685 -3.1628 0
M  V30 226 H 19.2994 4.14021 -2.0275 0
M  V30 227 H 22.8434 4.32333 -5.4748 0
M  V30 228 H 18.7404 4.78687 -4.33047 0
M  V30 229 H 19.5084 5.1302 -6.37772 0
M  V30 230 N 22.1715 0.800033 1.35784 0
M  V30 231 C 23.3965 0.388511 2.03729 0
M  V30 232 C 23.8215 -0.990481 1.5991 0
M  V30 233 O 23.1795 -1.64013 0.772612 0
M  V30 234 C 23.2275 0.4726 3.5749 0
M  V30 235 O 22.3315 -0.51646 4.09153 0
M  V30 236 H 21.6725 0.163271 0.643614 0
M  V30 237 H 24.2025 1.0841 1.73518 0
M  V30 238 H 24.2125 0.34003 4.06581 0
M  V30 239 H 22.8875 1.47848 3.88734 0
M  V30 240 H 21.4645 -0.344673 3.71304 0
M  V30 241 N 23.6496 -1.47581 0.552962 0
M  V30 242 C 24.8976 -2.02082 0.0272703 0
M  V30 243 C 25.2186 -1.4301 -1.32563 0
M  V30 244 O 24.4886 -0.603745 -1.86365 0
M  V30 245 H 23.0686 -0.746966 0.00709182 0
M  V30 246 H 25.7306 -1.81033 0.722008 0
M  V30 247 H 24.8266 -3.12034 -0.0639951 0
M  V30 248 N 25.1277 -0.289203 -1.54924 0
M  V30 249 C 26.0757 0.607966 -2.24514 0
M  V30 250 C 27.0697 1.14655 -1.24702 0
M  V30 251 O 28.2757 1.09856 -1.4259 0
M  V30 252 H 24.6507 0.21464 -0.720718 0
M  V30 253 H 26.6217 -0.00164182 -2.984 0
M  V30 254 C 25.3707 1.77406 -2.99036 0
M  V30 255 H 24.6937 1.36884 -3.75637 0
M  V30 256 H 26.1337 2.37814 -3.51028 0
M  V30 257 C 24.5927 2.67107 -2.05318 0
M  V30 258 O 25.1227 3.6787 -1.61353 0
M  V30 259 N 23.3287 2.34582 -1.71521 0
M  V30 260 H 22.8757 1.52688 -2.07471 0
M  V30 261 H 22.8337 2.94867 -1.0909 0
M  V30 262 N 26.6058 1.57591 -0.0167156 0
M  V30 263 C 27.5158 2.1291 0.98521 0
M  V30 264 C 28.5318 1.07834 1.36557 0
M  V30 265 O 29.7078 1.39826 1.44951 0
M  V30 266 C 26.7728 2.63512 2.25305 0
M  V30 267 C 25.8338 3.83256 1.93426 0
M  V30 268 C 25.0668 4.31435 3.14165 0
M  V30 269 O 25.2898 3.78851 4.26413 0
M  V30 270 O 24.2238 5.23416 2.97186 0
M  V30 271 H 28.0498 2.98772 0.544888 0
M  V30 272 H 25.6348 1.48012 0.203141 0
M  V30 273 H 27.5168 2.96183 2.99756 0
M  V30 274 H 26.1918 1.8074 2.68542 0
M  V30 275 H 25.0988 3.55531 1.16398 0
M  V30 276 H 26.4318 4.67153 1.55013 0
M  V30 277 N 28.0839 -0.256276 1.55502 0
M  V30 278 C 29.3609 -1.00789 1.67633 0
M  V30 279 C 29.7409 -2.03706 0.553826 0
M  V30 280 O 29.0889 -2.24145 -0.443969 0
M  V30 281 C 29.2989 -1.64968 3.07549 0
M  V30 282 C 30.6469 -2.15505 3.65845 0
M  V30 283 O 31.6709 -1.74925 3.1029 0
M  V30 284 O 30.5299 -2.89986 4.63217 0
M  V30 285 H 27.6239 -0.468553 0.681459 0
M  V30 286 H 30.1699 -0.250806 1.67836 0
M  V30 287 H 28.9419 -0.904785 3.80696 0
M  V30 288 H 28.5649 -2.47321 3.11317 0
M  V30 289 N 29.562 -1.4872 -0.521534 0
M  V30 290 C 30.839 -1.4766 -1.2828 0
M  V30 291 C 31.219 -0.19292 -2.10217 0
M  V30 292 O 30.567 0.825193 -2.13079 0
M  V30 293 C 30.777 -2.74358 -2.15705 0
M  V30 294 C 32.125 -3.23028 -2.75569 0
M  V30 295 O 33.149 -2.75333 -2.25987 0
M  V30 296 O 32.008 -4.0604 -3.65778 0
M  V30 297 H 29.102 -0.590085 -0.579421 0
M  V30 298 H 31.648 -1.60963 -0.537492 0
M  V30 299 H 30.42 -3.59292 -1.54999 0
M  V30 300 H 30.043 -2.63816 -2.97467 0
M  V30 301 N 31.0401 0.771051 -1.3745 0
M  V30 302 C 31.9701 1.89827 -1.3597 0
M  V30 303 C 32.9511 1.68562 -0.228216 0
M  V30 304 O 34.1361 1.8941 -0.428675 0
M  V30 305 C 31.2661 3.2712 -1.16662 0
M  V30 306 C 30.2201 3.6295 -2.2683 0
M  V30 307 C 29.5461 4.98791 -1.92644 0
M  V30 308 C 30.8461 3.69627 -3.69017 0
M  V30 309 H 32.5401 1.91323 -2.30295 0
M  V30 310 H 30.0861 0.919082 -1.10855 0
M  V30 311 H 32.0391 4.05615 -1.14256 0
M  V30 312 H 30.7631 3.26059 -0.187926 0
M  V30 313 H 29.4221 2.86763 -2.28392 0
M  V30 314 H 29.0701 4.94271 -0.933021 0
M  V30 315 H 28.7701 5.23733 -2.66416 0
M  V30 316 H 30.2941 5.79685 -1.91826 0
M  V30 317 H 31.7081 4.38273 -3.69581 0
M  V30 318 H 30.1051 4.06067 -4.41848 0
M  V30 319 H 31.1751 2.70273 -4.02592 0
M  V30 320 N 32.5182 1.22032 0.997298 0
M  V30 321 C 33.7652 1.04222 1.73621 0
M  V30 322 C 34.0932 -0.423264 1.89839 0
M  V30 323 O 33.3482 -1.3302 1.43542 0
M  V30 324 C 33.6472 1.69345 3.14733 0
M  V30 325 C 33.3132 3.19226 3.18442 0
M  V30 326 C 31.9752 3.60124 3.19161 0
M  V30 327 C 34.3272 4.15181 3.15078 0
M  V30 328 C 31.6552 4.95467 3.14212 0
M  V30 329 C 34.0072 5.50495 3.1167 0
M  V30 330 C 32.6712 5.90779 3.10703 0
M  V30 331 H 31.9412 0.381374 0.635323 0
M  V30 332 H 34.5882 1.51732 1.16831 0
M  V30 333 H 32.8932 1.14147 3.74803 0
M  V30 334 H 34.5902 1.53059 3.7064 0
M  V30 335 H 31.1802 2.86659 3.18629 0
M  V30 336 H 35.3642 3.84605 3.13676 0
M  V30 337 H 30.6202 5.25916 3.11805 0
M  V30 338 H 34.7942 6.24576 3.08022 0
M  V30 339 H 32.4212 6.9562 3.06622 0
M  V30 340 N 33.9963 -1.19345 1.0293 0
M  V30 341 C 35.2433 -1.89038 0.726008 0
M  V30 342 C 35.5713 -1.79649 -0.745427 0
M  V30 343 O 34.8263 -1.18354 -1.55855 0
M  V30 344 C 35.1253 -3.39292 1.12319 0
M  V30 345 C 34.7913 -3.68885 2.59297 0
M  V30 346 C 33.4533 -3.76671 2.99453 0
M  V30 347 C 35.8053 -3.82178 3.54386 0
M  V30 348 C 33.1333 -3.9522 4.33611 0
M  V30 349 C 35.4853 -4.0224 4.88248 0
M  V30 350 C 34.1493 -4.08259 5.28092 0
M  V30 351 H 33.4193 -0.691739 0.265665 0
M  V30 352 H 36.0663 -1.41328 1.29223 0
M  V30 353 H 34.3713 -3.88903 0.475584 0
M  V30 354 H 36.0683 -3.91536 0.866037 0
M  V30 355 H 32.6583 -3.63433 2.27189 0
M  V30 356 H 36.8423 -3.75505 3.24514 0
M  V30 357 H 32.0983 -3.98119 4.64016 0
M  V30 358 H 36.2723 -4.11468 5.61843 0
M  V30 359 H 33.8993 -4.22384 6.32057 0
M  V30 360 N 35.4744 -0.807222 -1.35358 0
M  V30 361 C 36.3844 -0.219594 -2.3357 0
M  V30 362 C 37.4004 0.637734 -1.61892 0
M  V30 363 O 38.5764 0.549336 -1.93763 0
M  V30 364 C 35.6414 0.62158 -3.41083 0
M  V30 365 C 34.7024 -0.256315 -4.28534 0
M  V30 366 C 33.9354 0.544807 -5.30912 0
M  V30 367 O 34.1584 1.77944 -5.41934 0
M  V30 368 O 33.0924 -0.0646478 -6.01865 0
M  V30 369 H 36.9184 -1.03208 -2.85625 0
M  V30 370 H 34.5034 -0.569025 -1.38139 0
M  V30 371 H 36.3854 1.10067 -4.06772 0
M  V30 372 H 35.0604 1.41165 -2.91297 0
M  V30 373 H 33.9674 -0.782559 -3.65823 0
M  V30 374 H 35.3004 -1.01034 -4.81719 0
M  V30 375 N 36.9525 1.47285 -0.560781 0
M  V30 376 C 37.9155 2.28535 0.174488 0
M  V30 377 C 38.9155 1.37153 0.839388 0
M  V30 378 O 40.1055 1.59748 0.694702 0
M  V30 379 C 37.2375 3.16934 1.25561 0
M  V30 380 H 38.4305 2.95012 -0.539262 0
M  V30 381 H 35.9835 1.53034 -0.317865 0
M  V30 382 H 36.7185 2.55157 2.00164 0
M  V30 383 H 36.5035 3.8419 0.783604 0
M  V30 384 H 37.9935 3.78143 1.77193 0
M  V30 385 N 38.4306 0.297415 1.54768 0
M  V30 386 C 39.7076 -0.365847 1.92148 0
M  V30 387 C 40.0876 -1.71975 1.22424 0
M  V30 388 O 39.4356 -2.25666 0.358739 0
M  V30 389 C 39.6456 -0.484056 3.45627 0
M  V30 390 C 40.9936 -0.756594 4.17805 0
M  V30 391 O 42.0176 -0.568007 3.51642 0
M  V30 392 O 40.8766 -1.11863 5.34929 0
M  V30 393 H 37.9706 -0.203919 0.801465 0
M  V30 394 H 40.5166 0.34521 1.66152 0
M  V30 395 H 39.2886 0.467865 3.88493 0
M  V30 396 H 38.9116 -1.24372 3.77647 0
M  V30 397 N 39.9087 -1.5758 0.0250728 0
M  V30 398 C 41.1567 -1.91255 -0.653151 0
M  V30 399 C 41.4777 -0.901691 -1.729 0
M  V30 400 O 40.7477 0.0573785 -1.95816 0
M  V30 401 H 39.3277 -0.705942 -0.244243 0
M  V30 402 H 41.9897 -1.94767 0.0719209 0
M  V30 403 H 41.0857 -2.91752 -1.10847 0
M  V30 404 N 41.3868 0.248026 -1.55636 0
M  V30 405 C 42.7978 0.817177 -1.67866 0
M  V30 406 C 43.1488 1.86069 -0.622322 0
M  V30 407 O 42.2738 2.15157 0.231618 0
M  V30 408 C 42.8688 1.489 -3.04326 0
M  V30 409 C 41.4278 2.00587 -3.185 0
M  V30 410 C 40.5748 0.856573 -2.63739 0
M  V30 411 H 43.5258 0.0238579 -1.58682 0
M  V30 412 H 43.5468 2.35698 -2.98708 0
M  V30 413 H 43.0588 0.729279 -3.81186 0
M  V30 414 H 41.1598 2.79443 -2.4646 0
M  V30 415 H 41.2728 2.20402 -4.25393 0
M  V30 416 H 39.6368 1.25678 -2.21534 0
M  V30 417 H 40.4198 0.109953 -3.43124 0
M  V30 418 N 42.8649 1.48995 0.513639 0
M  V30 419 C 43.8119 1.6473 1.61656 0
M  V30 420 C 44.7819 0.488984 1.58739 0
M  V30 421 O 45.9669 0.714478 1.76918 0
M  V30 422 C 43.1069 1.7082 2.99858 0
M  V30 423 C 42.2199 2.9787 3.12885 0
M  V30 424 C 41.3549 2.95017 4.41744 0
M  V30 425 C 40.3939 4.16702 4.48359 0
M  V30 426 N 39.5309 4.11832 5.68629 0
M  V30 427 H 44.3709 2.58909 1.47547 0
M  V30 428 H 41.9079 1.28382 0.71808 0
M  V30 429 H 43.8659 1.72331 3.79944 0
M  V30 430 H 42.4959 0.801181 3.12699 0
M  V30 431 H 41.5479 3.06029 2.25944 0
M  V30 432 H 42.8599 3.8786 3.13633 0
M  V30 433 H 42.0139 2.95021 5.30139 0
M  V30 434 H 40.7529 2.02784 4.43542 0
M  V30 435 H 39.7579 4.16955 3.58369 0
M  V30 436 H 40.9829 5.10113 4.48287 0
M  V30 437 H 38.9289 3.22428 5.71293 0
M  V30 438 H 38.8459 4.95543 5.7094 0
M  V30 439 H 40.1139 4.1592 6.59266 0
M  V30 440 N 44.343 -0.763751 1.37857 0
M  V30 441 C 45.275 -1.88664 1.30148 0
M  V30 442 C 46.288 -1.61365 0.215685 0
M  V30 443 O 47.477 -1.72134 0.472459 0
M  V30 444 C 44.577 -3.24075 0.991396 0
M  V30 445 C 43.75 -3.78958 2.18426 0
M  V30 446 C 42.809 -4.92862 1.8432 0
M  V30 447 O 41.835 -5.08027 2.56704 0
M  V30 448 N 43.037 -5.75071 0.792081 0
M  V30 449 H 45.802 -1.95791 2.26905 0
M  V30 450 H 43.363 -0.943226 1.31586 0
M  V30 451 H 45.355 -3.97804 0.743935 0
M  V30 452 H 43.925 -3.12399 0.112122 0
M  V30 453 H 43.145 -2.96913 2.59299 0
M  V30 454 H 44.433 -4.12357 2.98058 0
M  V30 455 H 43.831 -5.65375 0.191595 0
M  V30 456 H 42.388 -6.48991 0.60449 0
M  V30 457 N 45.8211 -1.22559 -0.990812 0
M  V30 458 C 46.7541 -0.940773 -2.07905 0
M  V30 459 C 47.7321 0.117082 -1.62178 0
M  V30 460 O 48.9161 -0.0149506 -1.88494 0
M  V30 461 C 46.0431 -0.415321 -3.36144 0
M  V30 462 C 45.0891 -1.45818 -4.00799 0
M  V30 463 S 45.9221 -3.03219 -4.41382 0
M  V30 464 C 47.0781 -2.52317 -5.72789 0
M  V30 465 H 47.3111 -1.8623 -2.31745 0
M  V30 466 H 44.8441 -1.05688 -1.12558 0
M  V30 467 H 46.8021 -0.118747 -4.10328 0
M  V30 468 H 45.4631 0.485121 -3.10331 0
M  V30 469 H 44.6561 -1.04044 -4.93144 0
M  V30 470 H 44.2581 -1.70356 -3.32949 0
M  V30 471 H 46.5501 -1.93688 -6.49224 0
M  V30 472 H 47.4931 -3.43161 -6.19392 0
M  V30 473 H 47.9011 -1.93529 -5.30289 0
M  V30 474 N 47.2992 1.18797 -1.03562 0
M  V30 475 C 48.2462 2.22253 -0.622259 0
M  V30 476 C 49.2162 1.61987 0.36736 0
M  V30 477 O 50.4012 1.88986 0.262492 0
M  V30 478 C 47.5412 3.45097 0.0138462 0
M  V30 479 C 46.6542 4.19722 -1.02263 0
M  V30 480 C 45.7892 5.30009 -0.355573 0
M  V30 481 C 44.8282 5.96399 -1.37749 0
M  V30 482 N 43.9652 6.98234 -0.735766 0
M  V30 483 H 48.8052 2.56968 -1.50903 0
M  V30 484 H 46.3422 1.26245 -0.755017 0
M  V30 485 H 48.3002 4.15279 0.399948 0
M  V30 486 H 46.9302 3.11018 0.864158 0
M  V30 487 H 45.9822 3.48418 -1.52673 0
M  V30 488 H 47.2942 4.65227 -1.79903 0
M  V30 489 H 46.4482 6.0664 0.0850095 0
M  V30 490 H 45.1872 4.85592 0.452967 0
M  V30 491 H 44.1922 5.18512 -1.82826 0
M  V30 492 H 45.4172 6.42899 -2.18764 0
M  V30 493 H 43.3632 6.55979 0.0525597 0
M  V30 494 H 43.2802 7.41965 -1.44995 0
M  V30 495 H 44.5482 7.78845 -0.31941 0
M  V30 496 N 48.7773 0.814389 1.34928 0
M  V30 497 C 50.0173 0.404165 2.00364 0
M  V30 498 C 50.3813 -1.01166 1.63185 0
M  V30 499 O 51.5823 -1.52431 2.21401 0
M  V30 500 C 49.8533 0.590718 3.52484 0
M  V30 501 S 51.4123 0.272075 4.37956 0
M  V30 502 H 48.2303 0.15311 0.694319 0
M  V30 503 H 50.8323 1.05834 1.64376 0
M  V30 504 H 49.5363 1.62099 3.77031 0
M  V30 505 H 49.0673 -0.0785013 3.93322 0
M  V30 506 H 51.0823 -0.917405 4.87645 0
M  V30 507 N 50.2554 -1.46986 0.568584 0
M  V30 508 C 51.4804 -2.07335 0.0520528 0
M  V30 509 C 51.9054 -1.41675 -1.23733 0
M  V30 510 O 51.2634 -0.495623 -1.74394 0
M  V30 511 C 51.3114 -3.60417 -0.11501 0
M  V30 512 O 50.4154 -3.95309 -1.17492 0
M  V30 513 H 49.7564 -0.661597 0.0564385 0
M  V30 514 H 52.2864 -1.88837 0.787507 0
M  V30 515 H 52.2964 -4.06698 -0.325644 0
M  V30 516 H 50.9714 -4.07601 0.826675 0
M  V30 517 H 49.5484 -3.60757 -0.943869 0
M  V30 518 N 51.7335 -0.305618 -1.54608 0
M  V30 519 C 52.9805 0.302298 -2.00231 0
M  V30 520 C 53.3085 1.5354 -1.19398 0
M  V30 521 O 52.5635 1.93973 -0.259423 0
M  V30 522 C 52.8625 0.698983 -3.50498 0
M  V30 523 C 52.5285 -0.432903 -4.48817 0
M  V30 524 C 51.1905 -0.743622 -4.75419 0
M  V30 525 C 53.5425 -1.19409 -5.07337 0
M  V30 526 C 50.8705 -1.81857 -5.57804 0
M  V30 527 C 53.2225 -2.25899 -5.90891 0
M  V30 528 C 51.8865 -2.57572 -6.15803 0
M  V30 529 H 51.1565 0.110619 -0.732697 0
M  V30 530 H 53.8035 -0.425674 -1.86709 0
M  V30 531 H 52.1085 1.50711 -3.61654 0
M  V30 532 H 53.8055 1.1806 -3.83227 0
M  V30 533 H 50.3955 -0.18063 -4.28219 0
M  V30 534 H 54.5795 -0.967295 -4.86782 0
M  V30 535 H 49.8355 -2.06864 -5.75341 0
M  V30 536 H 54.0095 -2.85335 -6.35261 0
M  V30 537 H 51.6365 -3.40998 -6.7943 0
M  V30 538 N 53.2116 1.57565 -0.0334293 0
M  V30 539 C 54.1436 2.0739 0.975811 0
M  V30 540 C 55.1566 0.998166 1.2861 0
M  V30 541 O 56.3456 1.27426 1.25 0
M  V30 542 C 53.4456 2.4871 2.30209 0
M  V30 543 C 52.6186 3.79413 2.17634 0
M  V30 544 C 51.6776 4.07237 3.33233 0
M  V30 545 O 50.7036 4.77425 3.09927 0
M  V30 546 N 51.9056 3.5775 4.5716 0
M  V30 547 H 54.6706 2.94598 0.55066 0
M  V30 548 H 52.2316 1.61173 0.15323 0
M  V30 549 H 54.2236 2.64413 3.06378 0
M  V30 550 H 52.7936 1.66845 2.64351 0
M  V30 551 H 52.0136 3.73465 1.26165 0
M  V30 552 H 53.3016 4.65038 2.0644 0
M  V30 553 H 52.6996 3.00976 4.78989 0
M  V30 554 H 51.2566 3.78724 5.30482 0
M  V30 555 N 54.6897 -0.239769 1.55765 0
M  V30 556 C 55.9667 -0.990056 1.68693 0
M  V30 557 C 56.3467 -2.03107 0.5754 0
M  V30 558 O 55.6947 -2.24604 -0.42017 0
M  V30 559 C 55.9047 -1.61696 3.09282 0
M  V30 560 C 57.2527 -2.11613 3.6811 0
M  V30 561 O 58.2767 -1.71624 3.12127 0
M  V30 562 O 57.1357 -2.85057 4.66267 0
M  V30 563 H 54.2297 -0.461299 0.686391 0
M  V30 564 H 56.7757 -0.232991 1.68093 0
M  V30 565 H 55.5477 -0.864357 3.81634 0
M  V30 566 H 55.1707 -2.44005 3.13923 0
M  V30 567 N 56.1678 -1.49265 -0.50573 0
M  V30 568 C 57.0978 -1.68495 -1.61653 0
M  V30 569 C 58.0788 -0.53366 -1.61512 0
M  V30 570 O 59.2638 -0.76897 -1.78327 0
M  V30 571 C 56.3938 -1.74709 -3.00157 0
M  V30 572 C 55.3478 -2.89581 -3.15162 0
M  V30 573 C 54.6738 -2.80903 -4.5497 0
M  V30 574 C 55.9738 -4.30578 -2.95634 0
M  V30 575 H 57.6678 -2.61493 -1.45814 0
M  V30 576 H 55.2138 -1.25838 -0.70005 0
M  V30 577 H 57.1668 -1.86748 -3.77761 0
M  V30 578 H 55.8908 -0.783067 -3.17074 0
M  V30 579 H 54.5498 -2.77136 -2.39982 0
M  V30 580 H 54.1978 -1.82419 -4.68756 0
M  V30 581 H 53.8978 -3.57999 -4.65951 0
M  V30 582 H 55.4218 -2.94944 -5.34641 0
M  V30 583 H 56.8358 -4.4373 -3.63011 0
M  V30 584 H 55.2328 -5.0886 -3.18091 0
M  V30 585 H 56.3028 -4.45352 -1.91806 0
M  V30 586 N 57.6459 0.756429 -1.3826 0
M  V30 587 C 58.9229 1.50584 -1.24835 0
M  V30 588 C 59.3029 2.10556 0.151485 0
M  V30 589 O 58.6509 1.96825 1.1607 0
M  V30 590 C 58.8609 2.57448 -2.3563 0
M  V30 591 C 60.2089 3.24429 -2.73917 0
M  V30 592 O 61.2329 2.67751 -2.34921 0
M  V30 593 O 60.0919 4.26937 -3.41156 0
M  V30 594 H 57.1859 0.667664 -0.48801 0
M  V30 595 H 59.7319 0.792083 -1.5008 0
M  V30 596 H 58.5039 2.11362 -3.29305 0
M  V30 597 H 58.1269 3.36408 -2.11933 0
M  V30 598 N 59.124 1.23083 0.984299 0
M  V30 599 C 60.054 1.03292 2.09411 0
M  V30 600 C 61.035 -0.048923 1.7003 0
M  V30 601 O 62.22 0.114967 1.93859 0
M  V30 602 C 59.35 0.619155 3.41736 0
M  V30 603 C 58.304 1.64791 3.95004 0
M  V30 604 C 57.63 1.0897 5.23478 0
M  V30 605 C 58.93 3.03999 4.24714 0
M  V30 606 H 60.624 1.96119 2.26225 0
M  V30 607 H 58.17 0.944344 1.08711 0
M  V30 608 H 60.123 0.467777 4.18796 0
M  V30 609 H 58.847 -0.344786 3.24775 0
M  V30 610 H 57.506 1.78721 3.20085 0
M  V30 611 H 57.154 0.11686 5.02864 0
M  V30 612 H 56.854 1.77704 5.60085 0
M  V30 613 H 58.378 0.950093 6.03163 0
M  V30 614 H 59.792 2.93393 4.92538 0
M  V30 615 H 58.189 3.69936 4.72512 0
M  V30 616 H 59.259 3.53285 3.32142 0
M  V30 617 N 60.6021 -1.18246 1.0419 0
M  V30 618 C 61.8421 -1.89948 0.754916 0
M  V30 619 C 62.2061 -1.78608 -0.70451 0
M  V30 620 O 63.4071 -2.4503 -1.10516 0
M  V30 621 C 61.6781 -3.36305 1.20969 0
M  V30 622 S 63.2371 -4.26088 1.04854 0
M  V30 623 H 60.0551 -0.655897 0.274446 0
M  V30 624 H 62.6571 -1.42873 1.33445 0
M  V30 625 H 61.3611 -3.42089 2.26722 0
M  V30 626 H 60.8921 -3.8842 0.624004 0
M  V30 627 H 62.9071 -4.96189 -0.0332896 0
M  V30 628 N 62.0802 -0.821533 -1.34494 0
M  V30 629 C 63.4912 -0.467956 -1.8074 0
M  V30 630 C 63.8422 1.01151 -1.68116 0
M  V30 631 O 62.9672 1.78707 -1.22036 0
M  V30 632 C 63.5622 -0.842627 -3.28154 0
M  V30 633 C 62.1212 -0.541439 -3.72485 0
M  V30 634 C 61.2682 -1.06028 -2.56229 0
M  V30 635 H 64.2192 -1.01183 -1.22261 0
M  V30 636 H 64.2402 -0.145876 -3.8022 0
M  V30 637 H 63.7522 -1.91945 -3.37311 0
M  V30 638 H 61.8532 0.526034 -3.68868 0
M  V30 639 H 61.9662 -1.08453 -4.66663 0
M  V30 640 H 60.3302 -0.481892 -2.501 0
M  V30 641 H 61.1132 -2.14352 -2.68157 0
M  V30 642 N 63.5583 1.46682 -0.576371 0
M  V30 643 C 64.4883 2.33028 0.148397 0
M  V30 644 C 65.4693 1.44961 0.889956 0
M  V30 645 O 66.6543 1.73789 0.866662 0
M  V30 646 C 63.7843 3.27117 1.1667 0
M  V30 647 C 62.7383 4.24575 0.540386 0
M  V30 648 C 62.0643 5.08126 1.6647 0
M  V30 649 C 63.3643 5.19722 -0.518331 0
M  V30 650 H 65.0583 2.93875 -0.572509 0
M  V30 651 H 62.6043 1.41315 -0.276768 0
M  V30 652 H 64.5573 3.86374 1.68204 0
M  V30 653 H 63.2813 2.64364 1.9178 0
M  V30 654 H 61.9403 3.66571 0.0461769 0
M  V30 655 H 61.5883 4.41762 2.40531 0
M  V30 656 H 61.2883 5.74122 1.25131 0
M  V30 657 H 62.8123 5.70246 2.18293 0
M  V30 658 H 64.2263 5.73232 -0.0883058 0
M  V30 659 H 62.6233 5.94026 -0.851679 0
M  V30 660 H 63.6933 4.64037 -1.40703 0
M  V30 661 N 65.0364 0.313813 1.54444 0
M  V30 662 C 66.3134 -0.345447 1.92525 0
M  V30 663 C 66.6934 -1.70667 1.24242 0
M  V30 664 O 66.0414 -2.25273 0.382654 0
M  V30 665 C 66.2514 -0.44737 3.46121 0
M  V30 666 C 67.5994 -0.712238 4.18584 0
M  V30 667 O 68.6234 -0.530678 3.52225 0
M  V30 668 O 67.4824 -1.06183 5.36085 0
M  V30 669 H 64.5764 -0.195407 0.803583 0
M  V30 670 H 67.1224 0.362813 1.65776 0
M  V30 671 H 65.8944 0.509043 3.87975 0
M  V30 672 H 65.5174 -1.20359 3.78945 0
M  V30 673 N 66.5145 -1.57545 0.0417849 0
M  V30 674 C 67.7625 -1.91937 -0.632829 0
M  V30 675 C 68.0835 -0.919978 -1.71934 0
M  V30 676 O 67.3535 0.0366064 -1.95866 0
M  V30 677 H 65.9335 -0.708493 -0.236742 0
M  V30 678 H 68.5955 -1.9468 0.0925745 0
M  V30 679 H 67.6915 -2.92912 -1.07746 0
M  V30 680 N 67.9926 0.231505 -1.5589 0
M  V30 681 C 69.2406 0.955461 -1.78088 0
M  V30 682 C 69.5616 1.85262 -0.608533 0
M  V30 683 O 68.8316 1.92277 0.375035 0
M  V30 684 H 67.4116 0.355787 -0.656829 0
M  V30 685 H 70.0736 0.245751 -1.93344 0
M  V30 686 H 69.1696 1.56814 -2.69844 0
M  V30 687 N 69.4707 1.49531 0.497807 0
M  V30 688 C 70.7197 1.58426 1.24837 0
M  V30 689 C 71.0327 0.277643 1.93619 0
M  V30 690 O 72.2387 0.24517 2.70391 0
M  V30 691 C 70.6947 2.79538 2.26686 0
M  V30 692 C 70.3027 4.16971 1.63828 0
M  V30 693 C 72.0467 2.97764 3.0255 0
M  V30 694 C 69.9537 5.29301 2.63807 0
M  V30 695 H 68.8837 0.58989 0.469623 0
M  V30 696 H 71.5347 1.75923 0.521857 0
M  V30 697 H 69.9167 2.55542 3.02514 0
M  V30 698 H 71.0907 4.51116 0.939711 0
M  V30 699 H 69.4057 4.04129 1.00342 0
M  V30 700 H 72.0027 3.78856 3.77323 0
M  V30 701 H 72.3457 2.08448 3.60354 0
M  V30 702 H 72.8787 3.21815 2.33838 0
M  V30 703 H 69.6177 6.20687 2.10779 0
M  V30 704 H 69.1377 4.99606 3.31894 0
M  V30 705 H 70.8167 5.58768 3.2617 0
M  V30 706 N 70.9488 -0.749086 1.3866 0
M  V30 707 C 71.8808 -1.87273 1.32142 0
M  V30 708 C 72.8938 -1.61127 0.232787 0
M  V30 709 O 74.0828 -1.71623 0.49069 0
M  V30 710 C 71.1828 -3.23005 1.02571 0
M  V30 711 C 70.3558 -3.7662 2.22433 0
M  V30 712 C 69.4148 -4.90879 1.89537 0
M  V30 713 O 68.4408 -5.05276 2.62078 0
M  V30 714 N 69.6428 -5.74198 0.853031 0
M  V30 715 H 72.4078 -1.93373 2.28969 0
M  V30 716 H 69.9688 -0.929216 1.32579 0
M  V30 717 H 71.9608 -3.96992 0.786085 0
M  V30 718 H 70.5308 -3.12262 0.145249 0
M  V30 719 H 69.7508 -2.94147 2.62434 0
M  V30 720 H 71.0388 -4.09173 3.02415 0
M  V30 721 H 70.4368 -5.6514 0.25155 0
M  V30 722 H 68.9938 -6.48313 0.67329 0
M  V30 723 N 72.4269 -1.23603 -0.977757 0
M  V30 724 C 73.3569 -1.04401 -2.0886 0
M  V30 725 C 74.3379 0.0399052 -1.70053 0
M  V30 726 O 75.5229 -0.125246 -1.93796 0
M  V30 727 C 72.6529 -0.637269 -3.41403 0
M  V30 728 C 71.6069 -1.66883 -3.94124 0
M  V30 729 C 70.9329 -1.11745 -5.22893 0
M  V30 730 C 72.2329 -3.06247 -4.23096 0
M  V30 731 H 73.9269 -1.97316 -2.25182 0
M  V30 732 H 71.4729 -0.950096 -1.08209 0
M  V30 733 H 73.4259 -0.48998 -4.18542 0
M  V30 734 H 72.1499 0.327557 -3.24953 0
M  V30 735 H 70.8089 -1.80416 -3.19133 0
M  V30 736 H 70.4569 -0.143527 -5.02795 0
M  V30 737 H 70.1569 -1.80672 -5.59134 0
M  V30 738 H 71.6809 -0.982067 -6.02651 0
M  V30 739 H 73.0949 -2.96001 -4.90975 0
M  V30 740 H 71.4919 -3.72436 -4.70544 0
M  V30 741 H 72.5619 -3.55041 -3.30263 0
M  V30 742 N 73.905 1.17692 -1.04816 0
M  V30 743 C 75.321 1.39863 -0.768794 0
M  V30 744 C 75.521 1.91118 0.638451 0
M  V30 745 O 74.577 2.10036 1.40146 0
M  V30 746 C 75.89 2.39274 -1.82122 0
M  V30 747 C 77.438 2.52987 -1.843 0
M  V30 748 C 77.913 3.55669 -2.88555 0
M  V30 749 N 79.404 3.63183 -2.87493 0
M  V30 750 C 80.139 4.42381 -3.64811 0
M  V30 751 N 79.635 5.25125 -4.51903 0
M  V30 752 N 81.428 4.37217 -3.53267 0
M  V30 753 H 73.579 0.82752 -1.95617 0
M  V30 754 H 75.842 0.426123 -0.846831 0
M  V30 755 H 75.548 2.08678 -2.83102 0
M  V30 756 H 75.422 3.38725 -1.65967 0
M  V30 757 H 77.809 2.82896 -0.839869 0
M  V30 758 H 77.89 1.53623 -2.04532 0
M  V30 759 H 77.534 3.26499 -3.89051 0
M  V30 760 H 77.464 4.54728 -2.65575 0
M  V30 761 H 79.955 3.04103 -2.24343 0
M  V30 762 H 80.268 5.82728 -5.07591 0
M  V30 763 H 78.613 5.24519 -4.55966 0
M  V30 764 H 81.804 3.71626 -2.84625 0
M  V30 765 H 81.977 4.98696 -4.13771 0
M  V30 766 N 75.3831 0.828654 1.34056 0
M  V30 767 C 76.6321 0.415828 1.97367 0
M  V30 768 C 76.9451 -1.02796 1.6641 0
M  V30 769 O 78.1511 -1.54497 2.23255 0
M  V30 770 C 76.6071 0.692601 3.53173 0
M  V30 771 C 76.2151 2.15038 3.93017 0
M  V30 772 C 77.9591 0.346222 4.23086 0
M  V30 773 C 75.8661 2.37174 5.41758 0
M  V30 774 H 74.7961 0.151755 0.738571 0
M  V30 775 H 77.4471 1.01581 1.52819 0
M  V30 776 H 75.8291 0.0223764 3.95994 0
M  V30 777 H 77.0031 2.86024 3.61285 0
M  V30 778 H 75.3181 2.45875 3.36057 0
M  V30 779 H 77.9151 0.48937 5.32456 0
M  V30 780 H 78.2581 -0.709842 4.10204 0
M  V30 781 H 78.7911 0.971258 3.85761 0
M  V30 782 H 75.5301 3.41308 5.59633 0
M  V30 783 H 75.0501 1.70738 5.74986 0
M  V30 784 H 76.7291 2.19818 6.08514 0
M  V30 785 N 76.8612 -1.46375 0.584142 0
M  V30 786 C 78.0862 -2.07268 0.0740405 0
M  V30 787 C 78.5112 -1.42979 -1.22223 0
M  V30 788 O 77.8692 -0.514092 -1.73859 0
M  V30 789 C 77.9172 -3.60518 -0.0767769 0
M  V30 790 O 77.0212 -3.96533 -1.13292 0
M  V30 791 H 76.3622 -0.660961 0.0634524 0
M  V30 792 H 78.8922 -1.87991 0.807492 0
M  V30 793 H 78.9022 -4.07021 -0.282489 0
M  V30 794 H 77.5772 -4.06702 0.86986 0
M  V30 795 H 76.1542 -3.61738 -0.905553 0
M  V30 796 N 78.3393 -0.321999 -1.54275 0
M  V30 797 C 79.6163 0.335232 -1.92706 0
M  V30 798 C 79.9963 1.70006 -1.25145 0
M  V30 799 O 79.3443 2.25067 -0.394596 0
M  V30 800 C 79.5543 0.429008 -3.46353 0
M  V30 801 C 80.9023 0.690029 -4.18956 0
M  V30 802 O 81.9263 0.511992 -3.52501 0
M  V30 803 O 80.7853 1.03338 -5.36641 0
M  V30 804 H 77.8793 0.191143 -0.804608 0
M  V30 805 H 80.4253 -0.3716 -1.65581 0
M  V30 806 H 79.1973 -0.529611 -3.87699 0
M  V30 807 H 78.8203 1.18348 -3.79578 0
M  V30 808 N 79.8174 1.5752 -0.0501392 0
M  V30 809 C 80.7674 2.07981 0.934231 0
M  V30 810 C 81.7514 0.984745 1.27246 0
M  V30 811 O 82.9434 1.24809 1.25506 0
M  V30 812 C 80.0724 2.62751 2.20945 0
M  V30 813 C 79.1584 3.79225 1.89865 0
M  V30 814 N 79.5494 4.89036 1.29142 0
M  V30 815 C 77.8474 3.88111 2.19741 0
M  V30 816 C 78.5484 5.70084 1.15669 0
M  V30 817 N 77.5244 5.17659 1.65923 0
M  V30 818 H 81.3264 2.90277 0.460053 0
M  V30 819 H 78.8404 1.61665 0.15434 0
M  V30 820 H 80.8374 2.97205 2.9236 0
M  V30 821 H 79.4974 1.81894 2.6897 0
M  V30 822 H 80.5084 5.08854 0.963756 0
M  V30 823 H 77.1854 3.18194 2.70293 0
M  V30 824 H 78.5754 6.68395 0.685356 0
M  V30 825 N 81.2955 -0.223234 1.56011 0
M  V30 826 C 82.2455 -1.28008 1.88674 0
M  V30 827 C 83.2295 -1.42369 0.749663 0
M  V30 828 O 84.4215 -1.45212 1.01205 0
M  V30 829 C 81.5505 -2.63084 2.20548 0
M  V30 830 C 80.6365 -2.52632 3.40643 0
M  V30 831 N 81.0275 -2.11829 4.59306 0
M  V30 832 C 79.3255 -2.83594 3.44224 0
M  V30 833 C 80.0265 -2.12587 5.41463 0
M  V30 834 N 79.0025 -2.5301 4.81131 0
M  V30 835 H 82.8045 -0.955487 2.77935 0
M  V30 836 H 80.3185 -0.431801 1.56554 0
M  V30 837 H 82.3155 -3.39385 2.42122 0
M  V30 838 H 80.9755 -2.96391 1.32599 0
M  V30 839 H 81.9865 -1.82988 4.84496 0
M  V30 840 H 78.6635 -3.21284 2.66614 0
M  V30 841 H 80.0535 -1.83179 6.46448 0
M  V30 842 N 82.7736 -1.49793 -0.48987 0
M  V30 843 C 84.0036 -1.6333 -1.26518 0
M  V30 844 C 84.4116 -0.308392 -1.8667 0
M  V30 845 O 83.7546 0.717512 -1.69108 0
M  V30 846 C 83.8166 -2.6522 -2.4269 0
M  V30 847 C 83.4806 -4.09279 -2.03321 0
M  V30 848 C 84.4776 -4.95738 -1.56652 0
M  V30 849 C 82.1626 -4.55082 -2.12616 0
M  V30 850 C 84.1566 -6.26041 -1.19795 0
M  V30 851 C 81.8436 -5.85396 -1.75371 0
M  V30 852 C 82.8416 -6.707 -1.29036 0
M  V30 853 O 82.5296 -7.98584 -0.92299 0
M  V30 854 H 82.2616 -0.552502 -0.389509 0
M  V30 855 H 84.8156 -1.96642 -0.593381 0
M  V30 856 H 83.0456 -2.27112 -3.12981 0
M  V30 857 H 84.7346 -2.68171 -3.04695 0
M  V30 858 H 85.5006 -4.61575 -1.48908 0
M  V30 859 H 81.3796 -3.88844 -2.47631 0
M  V30 860 H 84.9236 -6.92578 -0.835582 0
M  V30 861 H 80.8206 -6.19085 -1.82768 0
M  V30 862 H 81.5886 -8.11692 -1.05349 0
M  V30 863 N 84.2517 0.741722 -1.39055 0
M  V30 864 C 85.4767 1.53607 -1.39354 0
M  V30 865 C 85.9017 1.88096 0.0116905 0
M  V30 866 O 85.2597 1.5143 0.996924 0
M  V30 867 C 85.3077 2.80441 -2.26682 0
M  V30 868 O 84.4117 3.76088 -1.69208 0
M  V30 869 H 83.7527 0.464142 -0.474835 0
M  V30 870 H 86.2827 0.915665 -1.82967 0
M  V30 871 H 86.2927 3.29246 -2.40959 0
M  V30 872 H 84.9677 2.5467 -3.2881 0
M  V30 873 H 83.5447 3.34833 -1.64138 0
M  V30 874 N 85.7298 1.2412 0.971189 0
M  V30 875 C 86.6768 1.0305 2.06517 0
M  V30 876 C 87.6468 -0.0550666 1.66009 0
M  V30 877 O 88.8318 0.0988688 1.90544 0
M  V30 878 C 85.9718 0.637653 3.39158 0
M  V30 879 C 85.0848 1.79633 3.92882 0
M  V30 880 C 84.2198 1.34939 5.13775 0
M  V30 881 C 83.2588 2.47823 5.59687 0
M  V30 882 N 82.3958 2.04022 6.71803 0
M  V30 883 H 87.2358 1.96685 2.23873 0
M  V30 884 H 84.7728 0.979694 1.09729 0
M  V30 885 H 86.7308 0.390931 4.15364 0
M  V30 886 H 85.3608 -0.261693 3.21737 0
M  V30 887 H 84.4128 2.15681 3.13346 0
M  V30 888 H 85.7248 2.64466 4.22918 0
M  V30 889 H 84.8788 1.06134 5.97345 0
M  V30 890 H 83.6178 0.471557 4.85415 0
M  V30 891 H 82.6228 2.77392 4.74693 0
M  V30 892 H 83.8478 3.36158 5.90063 0
M  V30 893 H 81.7938 1.18632 6.45184 0
M  V30 894 H 81.7108 2.82409 7.01271 0
M  V30 895 H 82.9788 1.78347 7.58823 0
M  V30 896 N 87.2079 -1.17134 1.05439 0
M  V30 897 C 88.4559 -1.87085 0.764429 0
M  V30 898 C 88.7769 -1.81584 -0.710787 0
M  V30 899 O 88.0469 -1.24349 -1.51374 0
M  V30 900 H 86.6269 -0.692627 0.279779 0
M  V30 901 H 89.2889 -1.42087 1.33406 0
M  V30 902 H 88.3849 -2.92759 1.0816 0
M  V30 903 N 88.686 -0.835752 -1.33615 0
M  V30 904 C 89.933 -0.429959 -1.97883 0
M  V30 905 C 90.261 1.01006 -1.66217 0
M  V30 906 O 89.516 1.72047 -0.93265 0
M  V30 907 C 89.815 -0.593925 -3.52431 0
M  V30 908 C 89.481 -2.00158 -4.04039 0
M  V30 909 C 88.143 -2.38662 -4.17844 0
M  V30 910 C 90.495 -2.92117 -4.31644 0
M  V30 911 C 87.823 -3.68435 -4.56588 0
M  V30 912 C 90.175 -4.21368 -4.71838 0
M  V30 913 C 88.839 -4.59833 -4.83849 0
M  V30 914 H 88.109 -0.157333 -0.724104 0
M  V30 915 H 90.756 -1.06217 -1.59343 0
M  V30 916 H 89.061 0.121619 -3.91611 0
M  V30 917 H 90.758 -0.260282 -4.00154 0
M  V30 918 H 87.348 -1.69252 -3.93766 0
M  V30 919 H 91.532 -2.63608 -4.20505 0
M  V30 920 H 86.788 -3.98046 -4.64079 0
M  V30 921 H 90.962 -4.92703 -4.92155 0
M  V30 922 H 88.589 -5.60438 -5.13627 0
M  V30 923 N 90.1641 1.46063 -0.591896 0
M  V30 924 C 91.5801 1.57561 -0.254288 0
M  V30 925 C 91.7801 1.58565 1.24336 0
M  V30 926 O 90.8361 1.50753 2.02558 0
M  V30 927 C 92.1491 2.86549 -0.911611 0
M  V30 928 C 93.6971 3.00197 -0.886059 0
M  V30 929 C 94.1721 4.31933 -1.5231 0
M  V30 930 N 95.6631 4.38654 -1.48786 0
M  V30 931 C 96.3981 5.39222 -1.95006 0
M  V30 932 N 95.8941 6.46414 -2.49241 0
M  V30 933 N 97.6871 5.3048 -1.85868 0
M  V30 934 H 89.8381 1.43655 -1.56451 0
M  V30 935 H 92.1011 0.68583 -0.654478 0
M  V30 936 H 91.8071 2.91651 -1.96551 0
M  V30 937 H 91.6811 3.74794 -0.425368 0
M  V30 938 H 94.0681 2.9467 0.159246 0
M  V30 939 H 94.1491 2.13403 -1.41041 0
M  V30 940 H 93.7931 4.38217 -2.56765 0
M  V30 941 H 93.7231 5.17516 -0.973891 0
M  V30 942 H 96.2141 3.61793 -1.09151 0
M  V30 943 H 96.5271 7.19376 -2.82344 0
M  V30 944 H 94.8721 6.47208 -2.53272 0
M  V30 945 H 98.0631 4.45643 -1.43248 0
M  V30 946 H 98.2361 6.08711 -2.22204 0
M  V30 947 N 91.6422 0.330177 1.54103 0
M  V30 948 C 92.5742 -0.566902 2.22079 0
M  V30 949 C 93.5872 -1.07462 1.22294 0
M  V30 950 O 94.7762 -0.987065 1.48726 0
M  V30 951 C 91.8762 -1.79138 2.87685 0
M  V30 952 C 91.0492 -1.42123 4.13666 0
M  V30 953 C 90.1082 -2.50394 4.62806 0
M  V30 954 O 89.1342 -2.14261 5.27334 0
M  V30 955 N 90.3362 -3.81433 4.37595 0
M  V30 956 H 93.1012 0.0151844 2.99696 0
M  V30 957 H 90.6622 0.153681 1.61169 0
M  V30 958 H 92.6542 -2.50975 3.1748 0
M  V30 959 H 91.2242 -2.28115 2.13734 0
M  V30 960 H 90.4442 -0.534201 3.90564 0
M  V30 961 H 91.7322 -1.14971 4.9564 0
M  V30 962 H 91.1302 -4.13584 3.8596 0
M  V30 963 H 89.6872 -4.4948 4.72029 0
M  V30 964 N 93.1203 -1.57491 0.0584922 0
M  V30 965 C 94.0833 -2.1085 -0.898617 0
M  V30 966 C 95.0833 -1.02964 -1.23511 0
M  V30 967 O 96.2733 -1.29007 -1.17059 0
M  V30 968 C 93.4053 -2.59881 -2.20623 0
M  V30 969 H 94.5983 -2.96715 -0.435936 0
M  V30 970 H 92.1513 -1.55141 -0.190023 0
M  V30 971 H 92.8863 -1.77431 -2.71457 0
M  V30 972 H 92.6713 -3.38727 -1.97501 0
M  V30 973 H 94.1613 -3.01285 -2.89166 0
M  V30 974 N 94.5984 0.214957 -1.56127 0
M  V30 975 C 95.5614 1.24997 -1.92116 0
M  V30 976 C 96.5614 1.39467 -0.800344 0
M  V30 977 O 97.7514 1.37619 -1.06802 0
M  V30 978 C 94.8834 2.62271 -2.17777 0
M  V30 979 H 96.0764 0.942875 -2.84693 0
M  V30 980 H 93.6294 0.455654 -1.49511 0
M  V30 981 H 94.3644 2.98068 -1.27773 0
M  V30 982 H 94.1494 2.53143 -2.99434 0
M  V30 983 H 95.6394 3.36946 -2.46693 0
M  V30 984 N 96.0765 1.50051 0.48192 0
M  V30 985 C 97.3015 1.64508 1.26301 0
M  V30 986 C 97.7265 0.323851 1.85291 0
M  V30 987 O 97.0845 -0.710969 1.66778 0
M  V30 988 C 97.1325 2.7305 2.35533 0
M  V30 989 O 96.2365 2.3355 3.39895 0
M  V30 990 H 95.5775 0.549978 0.372048 0
M  V30 991 H 98.1075 1.9636 0.574786 0
M  V30 992 H 98.1175 2.95799 2.8101 0
M  V30 993 H 96.7925 3.68946 1.91967 0
M  V30 994 H 95.3695 2.21205 3.00204 0
M  V30 995 N 97.5546 -0.734337 1.39446 0
M  V30 996 C 98.8006 -1.49613 1.36908 0
M  V30 997 C 99.1336 -1.94169 -0.0347829 0
M  V30 998 O 98.4086 -1.66833 -0.999847 0
M  V30 999 C 98.6916 -2.73534 2.34203 0
M  V30 1000 C 98.5446 -2.34993 3.83534 0
M  V30 1001 C 99.8636 -3.75635 2.29317 0
M  V30 1002 H 96.9826 -0.542714 0.498629 0
M  V30 1003 H 99.6246 -0.839597 1.70443 0
M  V30 1004 H 97.7746 -3.29553 2.05736 0
M  V30 1005 H 99.4466 -1.84601 4.22753 0
M  V30 1006 H 97.6896 -1.67213 4.00278 0
M  V30 1007 H 98.3606 -3.23738 4.47099 0
M  V30 1008 H 100.837 -3.29203 2.54489 0
M  V30 1009 H 99.7126 -4.60008 2.99472 0
M  V30 1010 H 99.9736 -4.22603 1.29842 0
M  V30 1011 N 99.0327 -1.24633 -0.964593 0
M  V30 1012 C 100.279 -1.08949 -1.71049 0
M  V30 1013 C 100.612 0.370302 -1.90637 0
M  V30 1014 O 99.8867 1.27349 -1.47011 0
M  V30 1015 C 100.17 -1.83329 -3.0994 0
M  V30 1016 C 100.023 -3.37077 -2.97824 0
M  V30 1017 C 101.342 -1.60846 -4.09654 0
M  V30 1018 H 98.4607 -0.397178 -0.620821 0
M  V30 1019 H 101.103 -1.5334 -1.12191 0
M  V30 1020 H 99.2527 -1.45597 -3.60186 0
M  V30 1021 H 100.925 -3.84425 -2.5498 0
M  V30 1022 H 99.1677 -3.65298 -2.33965 0
M  V30 1023 H 99.8387 -3.84324 -3.96231 0
M  V30 1024 H 102.315 -1.93674 -3.68279 0
M  V30 1025 H 101.191 -2.1534 -5.04896 0
M  V30 1026 H 101.452 -0.547434 -4.38698 0
M  V30 1027 N 100.511 1.16574 -1.06058 0
M  V30 1028 C 101.757 1.87324 -0.777022 0
M  V30 1029 C 102.09 1.81351 0.694645 0
M  V30 1030 O 101.365 1.22753 1.50871 0
M  V30 1031 C 101.648 3.36991 -1.26922 0
M  V30 1032 C 101.501 3.51667 -2.80447 0
M  V30 1033 C 102.82 4.3131 -0.87521 0
M  V30 1034 H 99.9388 0.680191 -0.28374 0
M  V30 1035 H 102.581 1.37036 -1.3161 0
M  V30 1036 H 100.731 3.79949 -0.81063 0
M  V30 1037 H 102.403 3.17664 -3.34495 0
M  V30 1038 H 100.646 2.93656 -3.19294 0
M  V30 1039 H 101.317 4.56766 -3.0995 0
M  V30 1040 H 103.793 3.9624 -1.27014 0
M  V30 1041 H 102.669 5.34545 -1.2471 0
M  V30 1042 H 102.93 4.41552 0.220071 0
M  V30 1043 N 101.989 0.842826 1.3317 0
M  V30 1044 C 102.952 0.284065 2.27433 0
M  V30 1045 C 103.952 -0.54948 1.5112 0
M  V30 1046 O 105.142 -0.362699 1.70382 0
M  V30 1047 C 102.274 -0.599384 3.35589 0
M  V30 1048 H 103.467 1.11589 2.78366 0
M  V30 1049 H 101.02 0.616221 1.4364 0
M  V30 1050 H 101.755 -1.45349 2.89904 0
M  V30 1051 H 101.54 -0.00291266 3.921 0
M  V30 1052 H 103.03 -0.983488 4.05854 0
M  V30 1053 N 103.467 -1.45747 0.599634 0
M  V30 1054 C 104.4 -2.27547 -0.172552 0
M  V30 1055 C 105.378 -1.36657 -0.881116 0
M  V30 1056 O 106.562 -1.66081 -0.891595 0
M  V30 1057 C 103.689 -3.14829 -1.24903 0
M  V30 1058 C 102.735 -4.21603 -0.644465 0
M  V30 1059 S 103.568 -5.32754 0.541606 0
M  V30 1060 C 104.724 -6.23604 -0.535656 0
M  V30 1061 H 104.957 -2.92691 0.521468 0
M  V30 1062 H 102.49 -1.49473 0.386947 0
M  V30 1063 H 104.448 -3.65675 -1.86527 0
M  V30 1064 H 103.109 -2.48965 -1.91508 0
M  V30 1065 H 102.302 -4.82566 -1.45417 0
M  V30 1066 H 101.904 -3.73857 -0.103534 0
M  V30 1067 H 104.196 -6.62519 -1.41686 0
M  V30 1068 H 105.139 -7.0809 0.0376246 0
M  V30 1069 H 105.547 -5.58103 -0.84741 0
M  V30 1070 N 104.945 -0.338344 -1.53925 0
M  V30 1071 C 106.222 0.314774 -1.93051 0
M  V30 1072 C 106.602 1.68669 -1.26941 0
M  V30 1073 O 105.95 2.24636 -0.418445 0
M  V30 1074 C 106.16 0.392249 -3.46789 0
M  V30 1075 C 107.508 0.645554 -4.19664 0
M  V30 1076 O 108.532 0.474575 -3.53024 0
M  V30 1077 O 107.391 0.976408 -5.37707 0
M  V30 1078 H 104.485 0.182598 -0.80659 0
M  V30 1079 H 107.031 -0.389141 -1.65178 0
M  V30 1080 H 105.803 -0.570702 -3.87116 0
M  V30 1081 H 105.426 1.14316 -3.80812 0
M  V30 1082 N 106.423 1.57458 -0.0668435 0
M  V30 1083 C 107.37 2.12439 0.902122 0
M  V30 1084 C 108.34 1.03565 1.2986 0
M  V30 1085 O 109.525 1.312 1.38532 0
M  V30 1086 C 106.665 2.6865 2.16614 0
M  V30 1087 C 105.778 3.91663 1.82274 0
M  V30 1088 C 104.913 4.36134 3.0325 0
M  V30 1089 C 103.952 5.51808 2.64904 0
M  V30 1090 N 103.089 5.9126 3.78624 0
M  V30 1091 H 107.929 2.94934 0.426382 0
M  V30 1092 H 105.466 1.4575 0.198819 0
M  V30 1093 H 107.424 2.99346 2.90599 0
M  V30 1094 H 106.054 1.88928 2.61737 0
M  V30 1095 H 105.106 3.6746 0.983719 0
M  V30 1096 H 106.418 4.75693 1.50059 0
M  V30 1097 H 105.572 4.68465 3.85519 0
M  V30 1098 H 104.311 3.50948 3.38655 0
M  V30 1099 H 103.316 5.19133 1.81055 0
M  V30 1100 H 104.541 6.38722 2.30675 0
M  V30 1101 H 102.487 5.09024 4.138 0
M  V30 1102 H 102.404 6.70018 3.5016 0
M  V30 1103 H 103.672 6.28212 4.61486 0
M  V30 1104 N 107.901 -0.206675 1.56239 0
M  V30 1105 C 108.831 -1.25909 1.96645 0
M  V30 1106 C 109.812 -1.48097 0.836734 0
M  V30 1107 O 110.997 -1.6003 1.10019 0
M  V30 1108 C 108.127 -2.6058 2.29599 0
M  V30 1109 C 107.081 -2.53024 3.452 0
M  V30 1110 C 106.407 -3.91861 3.63798 0
M  V30 1111 C 107.707 -2.06524 4.79734 0
M  V30 1112 H 109.401 -0.923369 2.84806 0
M  V30 1113 H 106.947 -0.442735 1.37025 0
M  V30 1114 H 108.9 -3.34375 2.56459 0
M  V30 1115 H 107.624 -2.95869 1.38307 0
M  V30 1116 H 106.283 -1.81684 3.18412 0
M  V30 1117 H 105.931 -4.24483 2.69857 0
M  V30 1118 H 105.631 -3.87683 4.4156 0
M  V30 1119 H 107.155 -4.67296 3.93022 0
M  V30 1120 H 108.569 -2.70072 5.05702 0
M  V30 1121 H 106.966 -2.13374 5.60885 0
M  V30 1122 H 108.036 -1.01802 4.74093 0
M  V30 1123 N 109.379 -1.50304 -0.473955 0
M  V30 1124 C 110.795 -1.37667 -0.807466 0
M  V30 1125 C 110.995 -0.430555 -1.96846 0
M  V30 1126 O 110.051 0.127874 -2.52176 0
M  V30 1127 C 111.364 -2.78974 -1.12223 0
M  V30 1128 C 112.912 -2.87868 -1.22885 0
M  V30 1129 C 113.387 -4.30003 -1.57676 0
M  V30 1130 N 114.878 -4.3294 -1.64673 0
M  V30 1131 C 115.613 -5.3991 -1.93091 0
M  V30 1132 N 115.109 -6.57092 -2.1955 0
M  V30 1133 N 116.902 -5.27351 -1.94569 0
M  V30 1134 H 109.053 -2.10394 0.291212 0
M  V30 1135 H 111.316 -0.945575 0.0677609 0
M  V30 1136 H 111.022 -3.50031 -0.342229 0
M  V30 1137 H 110.896 -3.16038 -2.05913 0
M  V30 1138 H 113.283 -2.17032 -1.99953 0
M  V30 1139 H 113.364 -2.54352 -0.271814 0
M  V30 1140 H 113.008 -5.01375 -0.81149 0
M  V30 1141 H 112.938 -4.61004 -2.54525 0
M  V30 1142 H 115.429 -3.48441 -1.46277 0
M  V30 1143 H 115.742 -7.34425 -2.405 0
M  V30 1144 H 114.087 -6.60272 -2.16948 0
M  V30 1145 H 117.278 -4.34801 -1.73394 0
M  V30 1146 H 117.451 -6.10805 -2.16381 0
M  V30 1147 N 110.857 0.726932 -1.39834 0
M  V30 1148 C 111.804 1.841 -1.39197 0
M  V30 1149 C 112.774 1.642 -0.250502 0
M  V30 1150 O 113.959 1.85494 -0.446846 0
M  V30 1151 C 111.099 3.21697 -1.24919 0
M  V30 1152 C 110.212 3.53247 -2.48678 0
M  V30 1153 C 109.347 4.80289 -2.26928 0
M  V30 1154 C 108.386 5.04707 -3.4632 0
M  V30 1155 N 107.523 6.22956 -3.23836 0
M  V30 1156 H 112.363 1.83979 -2.34427 0
M  V30 1157 H 109.9 0.898876 -1.16442 0
M  V30 1158 H 111.858 4.01137 -1.1465 0
M  V30 1159 H 110.488 3.21076 -0.333153 0
M  V30 1160 H 109.54 2.68447 -2.69519 0
M  V30 1161 H 110.852 3.67205 -3.37582 0
M  V30 1162 H 110.006 5.67725 -2.13947 0
M  V30 1163 H 108.745 4.68519 -1.35431 0
M  V30 1164 H 107.75 4.1573 -3.5979 0
M  V30 1165 H 108.975 5.18357 -4.38729 0
M  V30 1166 H 106.921 6.12459 -2.35011 0
M  V30 1167 H 106.838 6.37539 -4.063 0
M  V30 1168 H 108.106 7.1321 -3.14566 0
M  V30 1169 N 112.336 1.25143 0.95797 0
M  V30 1170 C 113.269 0.995565 2.05338 0
M  V30 1171 C 114.247 -0.0740423 1.62431 0
M  V30 1172 O 115.431 0.0649212 1.88388 0
M  V30 1173 C 112.558 0.504298 3.34925 0
M  V30 1174 C 111.604 1.56393 3.96792 0
M  V30 1175 S 112.437 3.14815 4.33188 0
M  V30 1176 C 113.593 2.67415 5.65898 0
M  V30 1177 H 113.826 1.92309 2.26726 0
M  V30 1178 H 111.359 1.08635 1.09716 0
M  V30 1179 H 113.317 0.227497 4.09869 0
M  V30 1180 H 111.978 -0.402671 3.11508 0
M  V30 1181 H 111.171 1.17082 4.90212 0
M  V30 1182 H 110.773 1.79124 3.28315 0
M  V30 1183 H 113.065 2.10833 6.4386 0
M  V30 1184 H 114.008 3.59463 6.10076 0
M  V30 1185 H 114.416 2.07521 5.24972 0
M  V30 1186 N 113.814 -1.1601 1.06675 0
M  V30 1187 C 114.744 -2.22688 0.702307 0
M  V30 1188 C 115.725 -1.67306 -0.307032 0
M  V30 1189 O 116.91 -1.93352 -0.181305 0
M  V30 1190 C 114.04 -3.47178 0.092038 0
M  V30 1191 C 112.994 -4.15477 1.02777 0
M  V30 1192 C 112.32 -5.33963 0.28061 0
M  V30 1193 C 113.62 -4.66019 2.35846 0
M  V30 1194 H 115.314 -2.53429 1.59419 0
M  V30 1195 H 112.86 -1.21813 0.767961 0
M  V30 1196 H 114.813 -4.21037 -0.174814 0
M  V30 1197 H 113.537 -3.15749 -0.834877 0
M  V30 1198 H 112.196 -3.43549 1.27944 0
M  V30 1199 H 111.844 -4.98788 -0.649545 0
M  V30 1200 H 111.544 -5.806 0.904258 0
M  V30 1201 H 113.068 -6.10596 0.021396 0
M  V30 1202 H 114.482 -5.3144 2.15045 0
M  V30 1203 H 112.879 -5.23293 2.93743 0
M  V30 1204 H 113.949 -3.82023 2.98641 0
M  V30 1205 N 115.292 -0.849877 -1.32721 0
M  V30 1206 C 116.538 -0.451591 -1.97708 0
M  V30 1207 C 116.871 0.989175 -1.6712 0
M  V30 1208 O 116.146 1.69334 -0.956891 0
M  V30 1209 C 116.429 -0.685598 -3.53513 0
M  V30 1210 C 116.282 -2.17444 -3.93749 0
M  V30 1211 C 117.601 -0.138874 -4.39881 0
M  V30 1212 H 114.72 -0.16555 -0.718166 0
M  V30 1213 H 117.362 -1.06742 -1.57182 0
M  V30 1214 H 115.512 -0.161416 -3.88165 0
M  V30 1215 H 117.184 -2.76433 -3.693 0
M  V30 1216 H 115.427 -2.65476 -3.43081 0
M  V30 1217 H 116.098 -2.28888 -5.02309 0
M  V30 1218 H 118.574 -0.587068 -4.11938 0
M  V30 1219 H 117.45 -0.332213 -5.47894 0
M  V30 1220 H 117.711 0.95806 -4.31594 0
M  V30 1221 N 116.77 1.45427 -0.607355 0
M  V30 1222 C 118.181 1.85756 -0.187535 0
M  V30 1223 C 118.532 1.5077 1.25551 0
M  V30 1224 O 117.657 0.93427 1.95193 0
M  V30 1225 C 118.252 3.37154 -0.333572 0
M  V30 1226 C 116.811 3.76387 0.0315542 0
M  V30 1227 C 115.958 2.69377 -0.658117 0
M  V30 1228 H 118.909 1.36231 -0.81405 0
M  V30 1229 H 118.93 3.78014 0.43428 0
M  V30 1230 H 118.442 3.62586 -1.38393 0
M  V30 1231 H 116.543 3.56571 1.0811 0
M  V30 1232 H 116.656 4.77731 -0.361935 0
M  V30 1233 H 115.02 2.5452 -0.0957873 0
M  V30 1234 H 115.803 2.97646 -1.7106 0
M  V30 1235 N 118.248 0.346503 1.53744 0
M  V30 1236 C 119.488 -0.249413 2.02873 0
M  V30 1237 C 119.852 -1.47532 1.22876 0
M  V30 1238 O 121.053 -2.1456 1.61918 0
M  V30 1239 C 119.324 -0.552909 3.53097 0
M  V30 1240 S 120.883 -1.12521 4.24128 0
M  V30 1241 H 117.701 -0.074042 0.707134 0
M  V30 1242 H 120.303 0.48495 1.8939 0
M  V30 1243 H 119.007 0.347083 4.0893 0
M  V30 1244 H 118.538 -1.31686 3.70705 0
M  V30 1245 H 120.553 -2.41075 4.33702 0
M  V30 1246 N 119.726 -1.57421 0.075193 0
M  V30 1247 C 121.137 -1.81021 -0.456964 0
M  V30 1248 C 121.488 -0.98936 -1.69429 0
M  V30 1249 O 120.613 -0.212865 -2.15351 0
M  V30 1250 C 121.208 -3.28329 -0.83581 0
M  V30 1251 C 119.767 -3.52764 -1.31281 0
M  V30 1252 C 118.914 -2.75676 -0.299648 0
M  V30 1253 H 121.865 -1.55822 0.300856 0
M  V30 1254 H 121.886 -3.40564 -1.69696 0
M  V30 1255 H 121.398 -3.88046 0.0649238 0
M  V30 1256 H 119.499 -2.98355 -2.23193 0
M  V30 1257 H 119.612 -4.61451 -1.28839 0
M  V30 1258 H 117.976 -2.42538 -0.777641 0
M  V30 1259 H 118.759 -3.38132 0.593417 0
M  V30 1260 N 121.204 0.198386 -1.56346 0
M  V30 1261 C 122.136 1.26987 -1.90806 0
M  V30 1262 C 123.149 1.41877 -0.798419 0
M  V30 1263 O 124.338 1.42362 -1.07682 0
M  V30 1264 C 121.438 2.64246 -2.12196 0
M  V30 1265 C 120.611 2.71007 -3.43328 0
M  V30 1266 C 119.67 3.89439 -3.5387 0
M  V30 1267 O 118.696 3.76695 -4.26719 0
M  V30 1268 N 119.898 5.04752 -2.86715 0
M  V30 1269 H 122.663 0.977433 -2.83313 0
M  V30 1270 H 120.224 0.388322 -1.57174 0
M  V30 1271 H 122.216 3.41896 -2.1654 0
M  V30 1272 H 120.786 2.85992 -1.26204 0
M  V30 1273 H 120.006 1.79657 -3.50881 0
M  V30 1274 H 121.294 2.72512 -4.29668 0
M  V30 1275 H 120.692 5.18004 -2.2735 0
M  V30 1276 H 119.249 5.8036 -2.96691 0
M  V30 1277 N 122.682 1.50554 0.465978 0
M  V30 1278 C 123.91 1.65563 1.24083 0
M  V30 1279 C 124.325 0.341051 1.85694 0
M  V30 1280 O 123.682 -0.677543 1.69457 0
M  V30 1281 C 123.733 2.75051 2.34583 0
M  V30 1282 O 123.454 4.01413 1.75497 0
M  V30 1283 C 124.955 3.01078 3.25372 0
M  V30 1284 H 122.175 0.55638 0.375077 0
M  V30 1285 H 124.719 1.96807 0.555624 0
M  V30 1286 H 122.874 2.46486 2.9887 0
M  V30 1287 H 123.288 4.62002 2.48303 0
M  V30 1288 H 124.762 3.81339 3.99105 0
M  V30 1289 H 125.239 2.12349 3.84453 0
M  V30 1290 H 125.845 3.31194 2.66816 0
M  V30 1291 N 124.16 -0.719506 1.40217 0
M  V30 1292 C 125.407 -1.47933 1.38283 0
M  V30 1293 C 125.735 -1.94493 -0.0161536 0
M  V30 1294 O 124.99 -1.68224 -0.999956 0
M  V30 1295 C 125.289 -2.72271 2.31524 0
M  V30 1296 C 124.955 -2.44496 3.78857 0
M  V30 1297 C 123.617 -2.36631 4.18998 0
M  V30 1298 C 125.969 -2.21104 4.71977 0
M  V30 1299 C 123.297 -2.03437 5.503 0
M  V30 1300 C 125.649 -1.89423 6.03574 0
M  V30 1301 C 124.313 -1.80038 6.42762 0
M  V30 1302 H 123.583 -0.541325 0.506012 0
M  V30 1303 H 126.23 -0.824502 1.72842 0
M  V30 1304 H 124.535 -3.42572 1.90137 0
M  V30 1305 H 126.232 -3.30348 2.27313 0
M  V30 1306 H 122.822 -2.51503 3.47051 0
M  V30 1307 H 127.006 -2.26139 4.41786 0
M  V30 1308 H 122.262 -1.94705 5.79569 0
M  V30 1309 H 126.436 -1.70336 6.75247 0
M  V30 1310 H 124.063 -1.54083 7.44421 0
M  V30 1311 N 125.638 -1.25649 -0.95132 0
M  V30 1312 C 126.57 -1.02112 -2.05197 0
M  V30 1313 C 127.583 0.0150571 -1.62793 0
M  V30 1314 O 128.772 -0.223874 -1.77091 0
M  V30 1315 C 125.872 -0.522361 -3.3485 0
M  V30 1316 C 125.045 -1.62546 -4.06076 0
M  V30 1317 C 124.104 -1.12649 -5.14001 0
M  V30 1318 O 123.13 -1.82156 -5.39266 0
M  V30 1319 N 124.332 0.03047 -5.80492 0
M  V30 1320 H 127.097 -1.96885 -2.25957 0
M  V30 1321 H 124.658 -1.16899 -1.1201 0
M  V30 1322 H 126.65 -0.172961 -4.0433 0
M  V30 1323 H 125.22 0.33151 -3.10837 0
M  V30 1324 H 124.44 -2.14628 -3.30649 0
M  V30 1325 H 125.728 -2.36644 -4.50419 0
M  V30 1326 H 125.126 0.611169 -5.62389 0
M  V30 1327 H 123.683 0.320875 -6.5101 0
M  V30 1328 N 127.117 1.15442 -1.07289 0
M  V30 1329 C 128.027 2.23786 -0.704057 0
M  V30 1330 C 129.043 1.7166 0.284413 0
M  V30 1331 O 130.219 2.00972 0.131205 0
M  V30 1332 C 127.284 3.46535 -0.106792 0
M  V30 1333 C 126.345 4.13654 -1.14842 0
M  V30 1334 C 125.578 5.30544 -0.57956 0
M  V30 1335 O 125.801 5.67187 0.604585 0
M  V30 1336 O 124.735 5.87154 -1.32414 0
M  V30 1337 H 128.561 2.57664 -1.60757 0
M  V30 1338 H 126.146 1.23152 -0.845803 0
M  V30 1339 H 128.028 4.20804 0.224048 0
M  V30 1340 H 126.703 3.14407 0.770049 0
M  V30 1341 H 125.61 3.4131 -1.5316 0
M  V30 1342 H 126.943 4.49861 -1.99714 0
M  V30 1343 N 128.595 0.856903 1.32268 0
M  V30 1344 C 129.543 0.291987 2.3076 0
M  V30 1345 C 130.537 -0.585857 1.58947 0
M  V30 1346 O 131.743 -0.47341 1.73663 0
M  V30 1347 H 128.118 0.075721 0.748178 0
M  V30 1348 H 130.089 1.13687 2.75895 0
M  V30 1349 C 128.838 -0.502869 3.44044 0
M  V30 1350 H 128.161 0.163328 3.99466 0
M  V30 1351 H 129.601 -0.863691 4.1511 0
M  V30 1352 C 128.06 -1.68898 2.91505 0
M  V30 1353 O 128.59 -2.78811 2.89184 0
M  V30 1354 N 126.796 -1.51679 2.47875 0
M  V30 1355 H 126.343 -0.622666 2.49961 0
M  V30 1356 H 126.301 -2.31184 2.13076 0
M  V30 1357 N 130.073 -1.45103 0.615059 0
M  V30 1358 C 131.35 -1.95549 0.0448276 0
M  V30 1359 C 131.73 -1.55737 -1.4251 0
M  V30 1360 O 131.078 -0.823556 -2.13143 0
M  V30 1361 C 131.288 -3.48098 0.250785 0
M  V30 1362 C 132.636 -4.24384 0.135509 0
M  V30 1363 O 133.66 -3.55738 0.181299 0
M  V30 1364 O 132.519 -5.46493 0.0268878 0
M  V30 1365 H 129.613 -0.8264 -0.0314845 0
M  V30 1366 H 132.159 -1.55232 0.685642 0
M  V30 1367 H 130.931 -3.7007 1.27139 0
M  V30 1368 H 130.554 -3.95323 -0.424937 0
M  V30 1369 N 131.551 -0.354651 -1.53558 0
M  V30 1370 C 132.481 0.489091 -2.2832 0
M  V30 1371 C 133.462 1.09324 -1.30316 0
M  V30 1372 O 134.647 1.11255 -1.59173 0
M  V30 1373 C 131.777 1.63456 -3.0643 0
M  V30 1374 C 130.731 1.1582 -4.12031 0
M  V30 1375 C 130.057 2.39305 -4.7816 0
M  V30 1376 C 131.357 0.250731 -5.21698 0
M  V30 1377 H 133.051 -0.134614 -2.99097 0
M  V30 1378 H 130.597 -0.0661826 -1.43848 0
M  V30 1379 H 132.55 2.23136 -3.57475 0
M  V30 1380 H 131.274 2.28533 -2.33325 0
M  V30 1381 H 129.933 0.584146 -3.61916 0
M  V30 1382 H 129.581 3.02814 -4.01637 0
M  V30 1383 H 129.281 2.08109 -5.49513 0
M  V30 1384 H 130.805 2.99691 -5.31994 0
M  V30 1385 H 132.219 0.754695 -5.68311 0
M  V30 1386 H 130.616 0.0301468 -6.00092 0
M  V30 1387 H 131.686 -0.710125 -4.79672 0
M  V30 1388 N 133.029 1.57378 -0.0835403 0
M  V30 1389 C 134.254 1.98682 0.594987 0
M  V30 1390 C 134.679 0.961969 1.61641 0
M  V30 1391 O 134.037 -0.0709989 1.81161 0
M  V30 1392 C 134.085 3.38988 1.2296 0
M  V30 1393 O 133.189 3.39208 2.34546 0
M  V30 1394 H 132.53 0.646368 0.152002 0
M  V30 1395 H 135.06 2.03961 -0.161533 0
M  V30 1396 H 135.07 3.76431 1.57366 0
M  V30 1397 H 133.745 4.13107 0.481228 0
M  V30 1398 H 132.322 3.13548 2.01846 0
M  V30 1399 N 134.507 -0.190092 1.56449 0
M  V30 1400 C 135.735 -0.925772 1.85033 0
M  V30 1401 C 136.15 -1.76638 0.666658 0
M  V30 1402 O 135.507 -1.78822 -0.364565 0
M  V30 1403 C 135.558 -1.81786 3.12468 0
M  V30 1404 O 135.279 -1.01118 4.26271 0
M  V30 1405 C 136.78 -2.6648 3.54265 0
M  V30 1406 H 134 -0.269872 0.614337 0
M  V30 1407 H 136.544 -0.195837 2.0356 0
M  V30 1408 H 134.699 -2.50136 2.95822 0
M  V30 1409 H 135.113 -1.61956 4.98869 0
M  V30 1410 H 136.587 -3.24722 4.46385 0
M  V30 1411 H 137.064 -3.40434 2.77491 0
M  V30 1412 H 137.67 -2.03493 3.73458 0
M  V30 1413 N 135.985 -1.50799 -0.457987 0
M  V30 1414 C 137.232 -1.62442 -1.20908 0
M  V30 1415 C 137.56 -0.330865 -1.91665 0
M  V30 1416 O 136.815 0.68401 -1.83357 0
M  V30 1417 C 137.114 -2.76358 -2.2663 0
M  V30 1418 C 136.78 -4.16378 -1.73033 0
M  V30 1419 C 135.442 -4.54473 -1.58138 0
M  V30 1420 C 137.794 -5.03836 -1.33413 0
M  V30 1421 C 135.122 -5.77754 -1.02065 0
M  V30 1422 C 137.474 -6.27676 -0.78778 0
M  V30 1423 C 136.138 -6.64562 -0.625561 0
M  V30 1424 H 135.408 -0.594417 -0.442435 0
M  V30 1425 H 138.055 -1.84772 -0.503136 0
M  V30 1426 H 136.36 -2.48167 -3.03184 0
M  V30 1427 H 138.057 -2.82568 -2.84528 0
M  V30 1428 H 134.647 -3.86331 -1.85598 0
M  V30 1429 H 138.831 -4.75026 -1.4375 0
M  V30 1430 H 134.087 -6.04997 -0.882547 0
M  V30 1431 H 138.261 -6.94797 -0.472177 0
M  V30 1432 H 135.888 -7.59965 -0.188926 0
M  V30 1433 N 137.463 0.71206 -1.40597 0
M  V30 1434 C 138.71 1.47197 -1.39065 0
M  V30 1435 C 139.038 1.94499 0.00583891 0
M  V30 1436 O 138.293 1.68752 0.99102 0
M  V30 1437 C 138.592 2.71039 -2.32965 0
M  V30 1438 C 138.258 2.42484 -3.80148 0
M  V30 1439 C 136.92 2.34406 -4.20247 0
M  V30 1440 C 139.272 2.18598 -4.73143 0
M  V30 1441 C 136.6 2.00516 -5.51371 0
M  V30 1442 C 138.952 1.8622 -6.0457 0
M  V30 1443 C 137.616 1.76626 -6.43708 0
M  V30 1444 H 136.886 0.538634 -0.508876 0
M  V30 1445 H 139.533 0.815325 -1.73276 0
M  V30 1446 H 137.838 3.41558 -1.91951 0
M  V30 1447 H 139.535 3.29138 -2.29061 0
M  V30 1448 H 136.125 2.49659 -3.4838 0
M  V30 1449 H 140.309 2.23793 -4.42979 0
M  V30 1450 H 135.565 1.91628 -5.80593 0
M  V30 1451 H 139.739 1.66752 -6.76141 0
M  V30 1452 H 137.366 1.50133 -7.45228 0
M  V30 1453 N 138.941 1.26152 0.944643 0
M  V30 1454 C 140.352 1.10454 1.50522 0
M  V30 1455 C 140.703 -0.31635 1.93633 0
M  V30 1456 O 139.828 -1.20746 1.79581 0
M  V30 1457 C 140.423 1.99891 2.73549 0
M  V30 1458 C 138.982 1.88348 3.25886 0
M  V30 1459 C 138.129 1.93447 1.9868 0
M  V30 1460 H 141.08 1.39292 0.760489 0
M  V30 1461 H 141.101 1.54477 3.47732 0
M  V30 1462 H 140.613 3.03297 2.42141 0
M  V30 1463 H 138.714 0.878636 3.62092 0
M  V30 1464 H 138.827 2.73696 3.93227 0
M  V30 1465 H 137.191 1.37456 2.14425 0
M  V30 1466 H 137.974 2.98476 1.69607 0
M  V30 1467 N 140.419 -1.14872 1.07899 0
M  V30 1468 C 141.666 -1.85789 0.805532 0
M  V30 1469 C 141.994 -1.82649 -0.668561 0
M  V30 1470 O 141.249 -1.24858 -1.50695 0
M  V30 1471 C 141.548 -3.34223 1.26609 0
M  V30 1472 C 141.214 -3.57555 2.74709 0
M  V30 1473 C 139.876 -3.63631 3.1516 0
M  V30 1474 C 142.228 -3.66803 3.70277 0
M  V30 1475 C 139.556 -3.76473 4.49983 0
M  V30 1476 C 141.908 -3.8117 5.04869 0
M  V30 1477 C 140.572 -3.85494 5.44932 0
M  V30 1478 H 139.842 -0.679849 0.294765 0
M  V30 1479 H 142.489 -1.3572 1.35101 0
M  V30 1480 H 140.794 -3.86536 0.640103 0
M  V30 1481 H 142.491 -3.87511 1.03132 0
M  V30 1482 H 139.081 -3.5347 2.42398 0
M  V30 1483 H 143.265 -3.61404 3.40149 0
M  V30 1484 H 138.521 -3.7808 4.80484 0
M  V30 1485 H 142.695 -3.87268 5.78789 0
M  V30 1486 H 140.322 -3.95197 6.49403 0
M  V30 1487 N 141.898 -0.863906 -1.31812 0
M  V30 1488 C 143.147 -0.46801 -1.96195 0
M  V30 1489 C 143.46 0.983474 -1.69077 0
M  V30 1490 O 144.666 1.48523 -2.27273 0
M  V30 1491 C 143.122 -0.785995 -3.51212 0
M  V30 1492 C 142.73 -2.25383 -3.87178 0
M  V30 1493 C 144.474 -0.458274 -4.22019 0
M  V30 1494 C 142.381 -2.51455 -5.3528 0
M  V30 1495 H 141.311 -0.171283 -0.734287 0
M  V30 1496 H 143.962 -1.05597 -1.50072 0
M  V30 1497 H 142.344 -0.127359 -3.95795 0
M  V30 1498 H 143.518 -2.95502 -3.53575 0
M  V30 1499 H 141.833 -2.54698 -3.2942 0
M  V30 1500 H 144.43 -0.630369 -5.30971 0
M  V30 1501 H 144.773 0.600834 -4.11941 0
M  V30 1502 H 145.306 -1.07319 -3.8305 0
M  V30 1503 H 142.045 -3.56025 -5.50387 0
M  V30 1504 H 141.565 -1.85923 -5.70257 0
M  V30 1505 H 143.244 -2.35874 -6.02472 0
M  V30 1506 N 143.376 1.44774 -0.622745 0
M  V30 1507 C 144.623 2.02121 -0.1239 0
M  V30 1508 C 144.951 1.48915 1.25118 0
M  V30 1509 O 144.206 0.660045 1.84233 0
M  V30 1510 C 144.505 3.57364 -0.0508323 0
M  V30 1511 C 144.171 4.29787 -1.36358 0
M  V30 1512 C 142.833 4.4929 -1.72314 0
M  V30 1513 C 145.185 4.71062 -2.23048 0
M  V30 1514 C 142.513 5.07325 -2.94682 0
M  V30 1515 C 144.865 5.30452 -3.44679 0
M  V30 1516 C 143.529 5.48175 -3.80868 0
M  V30 1517 H 142.799 0.739612 -0.0453381 0
M  V30 1518 H 145.446 1.73648 -0.807389 0
M  V30 1519 H 143.751 3.85202 0.715991 0
M  V30 1520 H 145.448 3.99456 0.351533 0
M  V30 1521 H 142.038 4.14932 -1.07375 0
M  V30 1522 H 146.222 4.55715 -1.96565 0
M  V30 1523 H 141.478 5.19235 -3.22809 0
M  V30 1524 H 145.652 5.61385 -4.12092 0
M  V30 1525 H 143.279 5.92912 -4.75773 0
M  V30 1526 N 144.854 0.36279 1.53368 0
M  V30 1527 C 145.764 -0.492994 2.29362 0
M  V30 1528 C 146.78 -1.09507 1.35219 0
M  V30 1529 O 147.956 -1.10662 1.68273 0
M  V30 1530 C 145.021 -1.61855 3.066 0
M  V30 1531 C 144.082 -1.04429 4.16405 0
M  V30 1532 C 143.315 -2.11621 4.89951 0
M  V30 1533 O 143.538 -3.32684 4.63333 0
M  V30 1534 O 142.472 -1.74835 5.75948 0
M  V30 1535 H 146.298 0.125331 3.03441 0
M  V30 1536 H 143.883 0.127253 1.48857 0
M  V30 1537 H 145.765 -2.27302 3.54841 0
M  V30 1538 H 144.44 -2.22233 2.3536 0
M  V30 1539 H 143.347 -0.353819 3.72423 0
M  V30 1540 H 144.68 -0.485113 4.89804 0
M  V30 1541 N 146.332 -1.57332 0.0918853 0
M  V30 1542 C 147.242 -2.17368 -0.882505 0
M  V30 1543 C 148.258 -1.14226 -1.31257 0
M  V30 1544 O 149.434 -1.46582 -1.38115 0
M  V30 1545 C 146.499 -2.73962 -2.12476 0
M  V30 1546 C 145.56 -3.92048 -1.7492 0
M  V30 1547 C 144.793 -4.45933 -2.93223 0
M  V30 1548 O 145.016 -3.98764 -4.07852 0
M  V30 1549 O 143.95 -5.36999 -2.71875 0
M  V30 1550 H 147.776 -3.01031 -0.40172 0
M  V30 1551 H 145.361 -1.48813 -0.132291 0
M  V30 1552 H 147.243 -3.10147 -2.85283 0
M  V30 1553 H 145.918 -1.93347 -2.59613 0
M  V30 1554 H 144.825 -3.6068 -0.993025 0
M  V30 1555 H 146.158 -4.74017 -1.32548 0
M  V30 1556 N 147.81 0.181792 -1.56548 0
M  V30 1557 C 148.72 1.24538 -1.98815 0
M  V30 1558 C 149.736 1.49045 -0.897861 0
M  V30 1559 O 150.912 1.61399 -1.20467 0
M  V30 1560 C 147.977 2.56683 -2.33055 0
M  V30 1561 C 147.038 2.40131 -3.55859 0
M  V30 1562 C 146.271 3.65975 -3.88456 0
M  V30 1563 O 146.494 4.70711 -3.22161 0
M  V30 1564 O 145.428 3.6071 -4.81842 0
M  V30 1565 H 149.254 0.916647 -2.89536 0
M  V30 1566 H 146.839 0.387842 -1.44278 0
M  V30 1567 H 148.721 3.34655 -2.56094 0
M  V30 1568 H 147.396 2.89157 -1.45498 0
M  V30 1569 H 146.303 1.60226 -3.38051 0
M  V30 1570 H 147.636 2.12585 -4.43924 0
M  V30 1571 N 149.288 1.51039 0.449983 0
M  V30 1572 C 150.699 1.557 1.03026 0
M  V30 1573 C 151.05 0.372939 1.92623 0
M  V30 1574 O 150.175 -0.511771 2.10261 0
M  V30 1575 C 150.77 2.82171 1.87523 0
M  V30 1576 C 149.329 2.89444 2.40622 0
M  V30 1577 C 148.476 2.50228 1.19504 0
M  V30 1578 H 151.427 1.56999 0.231745 0
M  V30 1579 H 151.448 2.65219 2.72835 0
M  V30 1580 H 150.96 3.68331 1.22286 0
M  V30 1581 H 149.061 2.07685 3.0935 0
M  V30 1582 H 149.174 3.92816 2.74285 0
M  V30 1583 H 147.538 2.03139 1.53644 0
M  V30 1584 H 148.321 3.38719 0.558972 0
M  V30 1585 N 150.766 -0.704594 1.40972 0
M  V30 1586 C 152.015 -1.46018 1.39146 0
M  V30 1587 C 152.328 -1.956 0.000589254 0
M  V30 1588 O 153.534 -2.71137 -0.1403 0
M  V30 1589 C 151.99 -2.63996 2.4461 0
M  V30 1590 C 151.598 -2.21238 3.89561 0
M  V30 1591 C 153.342 -3.41677 2.51907 0
M  V30 1592 C 151.249 -3.3612 4.86598 0
M  V30 1593 H 150.179 -0.548444 0.517422 0
M  V30 1594 H 152.83 -0.765784 1.66757 0
M  V30 1595 H 151.212 -3.3566 2.10115 0
M  V30 1596 H 152.386 -1.56923 4.33257 0
M  V30 1597 H 150.701 -1.56574 3.85841 0
M  V30 1598 H 153.298 -4.27182 3.2159 0
M  V30 1599 H 153.641 -3.86247 1.55303 0
M  V30 1600 H 154.174 -2.77064 2.85448 0
M  V30 1601 H 150.913 -2.96572 5.84573 0
M  V30 1602 H 150.433 -3.99315 4.47557 0
M  V30 1603 H 152.112 -4.02029 5.06934 0
M  V30 1604 N 152.244 -1.26651 -0.937939 0
M  V30 1605 C 153.491 -1.12387 -1.6845 0
M  V30 1606 C 153.819 0.332208 -1.91642 0
M  V30 1607 O 153.074 1.2602 -1.49725 0
M  V30 1608 C 153.373 -1.84168 -3.06295 0
M  V30 1609 C 153.039 -3.34056 -3.02849 0
M  V30 1610 C 151.701 -3.74942 -3.01616 0
M  V30 1611 C 154.053 -4.29741 -2.9491 0
M  V30 1612 C 151.381 -5.09894 -2.90215 0
M  V30 1613 C 153.733 -5.64738 -2.8505 0
M  V30 1614 C 152.397 -6.0493 -2.82162 0
M  V30 1615 H 151.667 -0.411252 -0.616403 0
M  V30 1616 H 154.314 -1.57134 -1.09459 0
M  V30 1617 H 152.619 -1.319 -3.6893 0
M  V30 1618 H 154.316 -1.70569 -3.62915 0
M  V30 1619 H 150.906 -3.01534 -3.0459 0
M  V30 1620 H 155.09 -3.99133 -2.94969 0
M  V30 1621 H 150.346 -5.40194 -2.86358 0
M  V30 1622 H 154.52 -6.38561 -2.77872 0
M  V30 1623 H 152.147 -7.09457 -2.73084 0
M  V30 1624 N 153.722 1.14298 -1.08507 0
M  V30 1625 C 154.969 1.85359 -0.815373 0
M  V30 1626 C 155.297 1.83001 0.658865 0
M  V30 1627 O 154.552 1.25655 1.50031 0
M  V30 1628 C 154.851 3.33547 -1.28379 0
M  V30 1629 C 154.517 3.56093 -2.76602 0
M  V30 1630 C 153.179 3.61955 -3.17084 0
M  V30 1631 C 155.531 3.64834 -3.72217 0
M  V30 1632 C 152.859 3.74082 -4.51973 0
M  V30 1633 C 155.211 3.78487 -5.06883 0
M  V30 1634 C 153.875 3.82598 -5.46969 0
M  V30 1635 H 153.145 0.678276 -0.298366 0
M  V30 1636 H 155.792 1.35002 -1.35819 0
M  V30 1637 H 154.097 3.86191 -0.660593 0
M  V30 1638 H 155.794 3.86959 -1.05186 0
M  V30 1639 H 152.384 3.52179 -2.4427 0
M  V30 1640 H 156.568 3.59595 -3.42061 0
M  V30 1641 H 151.824 3.75527 -4.82483 0
M  V30 1642 H 155.998 3.84193 -5.80834 0
M  V30 1643 H 153.625 3.91747 -6.51489 0
M  V30 1644 N 155.201 0.870884 1.31352 0
M  V30 1645 C 156.478 0.402907 1.91405 0
M  V30 1646 C 156.858 -1.11512 1.79244 0
M  V30 1647 O 156.206 -1.94411 1.2007 0
M  V30 1648 C 156.416 0.885301 3.37585 0
M  V30 1649 C 157.764 0.911971 4.14691 0
M  V30 1650 O 158.788 0.831016 3.46371 0
M  V30 1651 O 157.647 1.02927 5.3672 0
M  V30 1652 H 154.741 0.120698 0.818145 0
M  V30 1653 H 157.287 0.958857 1.40014 0
M  V30 1654 H 156.059 1.92889 3.40455 0
M  V30 1655 H 155.682 0.307714 3.96407 0
M  V30 1656 N 156.679 -1.44442 0.630414 0
M  V30 1657 C 157.907 -2.06414 0.141671 0
M  V30 1658 C 158.322 -1.47105 -1.18345 0
M  V30 1659 O 157.679 -0.593662 -1.72574 0
M  V30 1660 C 157.73 -3.61494 0.0199784 0
M  V30 1661 O 157.451 -4.18594 1.29269 0
M  V30 1662 C 158.952 -4.40499 -0.497544 0
M  V30 1663 H 156.172 -0.666292 0.0793452 0
M  V30 1664 H 158.716 -1.85323 0.864614 0
M  V30 1665 H 156.871 -3.8185 -0.653402 0
M  V30 1666 H 157.285 -5.12026 1.13707 0
M  V30 1667 H 158.759 -5.49433 -0.531708 0
M  V30 1668 H 159.236 -4.11895 -1.52445 0
M  V30 1669 H 159.842 -4.25061 0.142562 0
M  V30 1670 N 158.157 -0.370918 -1.53173 0
M  V30 1671 C 159.403 0.209976 -2.02313 0
M  V30 1672 C 159.758 1.45987 -1.25322 0
M  V30 1673 O 159.051 1.8856 -0.339965 0
M  V30 1674 C 159.245 0.549696 -3.53147 0
M  V30 1675 C 159.074 -0.665721 -4.44745 0
M  V30 1676 C 157.844 -1.17942 -4.91343 0
M  V30 1677 C 160.042 -1.53255 -4.90935 0
M  V30 1678 N 158.024 -2.35431 -5.66962 0
M  V30 1679 C 159.395 -2.55403 -5.64951 0
M  V30 1680 C 161.45 -1.5548 -4.73002 0
M  V30 1681 C 160.153 -3.5964 -6.22938 0
M  V30 1682 C 162.179 -2.58613 -5.31858 0
M  V30 1683 C 161.541 -3.59485 -6.05764 0
M  V30 1684 H 157.64 0.0394095 -0.781006 0
M  V30 1685 H 160.224 -0.516666 -1.8772 0
M  V30 1686 H 158.395 1.24541 -3.67891 0
M  V30 1687 H 160.127 1.11614 -3.89004 0
M  V30 1688 H 156.882 -0.743228 -4.67732 0
M  V30 1689 H 157.306 -2.94827 -6.09431 0
M  V30 1690 H 161.948 -0.788457 -4.15383 0
M  V30 1691 H 159.666 -4.37153 -6.79649 0
M  V30 1692 H 163.252 -2.61195 -5.19873 0
M  V30 1693 H 162.132 -4.3798 -6.50495 0
M  V30 1694 N 159.635 1.57281 -0.100228 0
M  V30 1695 C 160.912 1.86014 0.604812 0
M  V30 1696 C 161.292 0.998025 1.86018 0
M  V30 1697 O 160.64 0.0718184 2.28387 0
M  V30 1698 C 160.85 3.36784 0.915278 0
M  V30 1699 C 162.198 4.04957 1.27651 0
M  V30 1700 O 163.222 3.41695 1.00613 0
M  V30 1701 O 162.081 5.16593 1.7831 0
M  V30 1702 H 159.175 0.76942 0.303185 0
M  V30 1703 H 161.721 1.69176 -0.133313 0
M  V30 1704 H 160.493 3.91292 0.0248896 0
M  V30 1705 H 160.116 3.58987 1.70921 0
M  V30 1706 N 161.113 -0.173488 1.56642 0
M  V30 1707 C 162.061 -1.23417 1.97157 0
M  V30 1708 C 163.055 -1.45946 0.860013 0
M  V30 1709 O 164.261 -1.46551 1.04512 0
M  V30 1710 H 160.636 -0.414818 0.62724 0
M  V30 1711 H 162.607 -0.865582 2.8557 0
M  V30 1712 C 161.356 -2.5665 2.34576 0
M  V30 1713 H 160.679 -2.40137 3.19647 0
M  V30 1714 H 162.119 -3.2956 2.6677 0
M  V30 1715 C 160.578 -3.15245 1.18836 0
M  V30 1716 O 161.108 -3.98883 0.474869 0
M  V30 1717 N 159.314 -2.74303 0.959497 0
M  V30 1718 H 158.861 -2.0639 1.54146 0
M  V30 1719 H 158.819 -3.13844 0.186932 0
M  V30 1720 N 162.591 -1.51276 -0.441967 0
M  V30 1721 C 163.501 -1.75092 -1.56141 0
M  V30 1722 C 164.517 -0.634963 -1.62001 0
M  V30 1723 O 165.693 -0.916686 -1.79329 0
M  V30 1724 C 162.758 -1.86666 -2.92158 0
M  V30 1725 C 161.819 -3.10506 -2.96453 0
M  V30 1726 C 161.052 -3.21519 -4.25982 0
M  V30 1727 O 161.275 -2.38586 -5.18105 0
M  V30 1728 O 160.209 -4.14465 -4.36466 0
M  V30 1729 H 164.035 -2.70044 -1.38961 0
M  V30 1730 H 161.62 -1.35722 -0.624499 0
M  V30 1731 H 163.502 -1.96292 -3.72891 0
M  V30 1732 H 162.177 -0.949014 -3.09476 0
M  V30 1733 H 161.084 -3.06363 -2.14692 0
M  V30 1734 H 162.417 -4.01945 -2.84079 0
M  V30 1735 N 164.069 0.697108 -1.41344 0
M  V30 1736 C 165.032 1.79281 -1.42797 0
M  V30 1737 C 166.032 1.57607 -0.318837 0
M  V30 1738 O 167.222 1.64309 -0.578642 0
M  V30 1739 C 164.354 3.17632 -1.23785 0
M  V30 1740 H 165.547 1.79385 -2.40335 0
M  V30 1741 H 163.1 0.904582 -1.27464 0
M  V30 1742 H 163.835 3.23167 -0.270814 0
M  V30 1743 H 163.62 3.34765 -2.04144 0
M  V30 1744 H 165.11 3.97617 -1.27633 0
M  V30 1745 N 165.547 1.27147 0.931209 0
M  V30 1746 C 166.777 1.15914 1.71019 0
M  V30 1747 C 167.185 -0.287112 1.87009 0
M  V30 1748 O 166.528 -1.20761 1.38429 0
M  V30 1749 C 166.59 1.76647 3.13107 0
M  V30 1750 C 166.254 3.25807 3.20467 0
M  V30 1751 C 167.251 4.22489 3.02983 0
M  V30 1752 C 164.936 3.66452 3.43538 0
M  V30 1753 C 166.93 5.57794 3.08454 0
M  V30 1754 C 164.617 5.01888 3.48643 0
M  V30 1755 C 165.615 5.97369 3.31119 0
M  V30 1756 O 165.303 7.30337 3.35952 0
M  V30 1757 H 165.035 0.404062 0.54195 0
M  V30 1758 H 167.589 1.68457 1.17521 0
M  V30 1759 H 165.819 1.18578 3.68071 0
M  V30 1760 H 167.508 1.60179 3.72958 0
M  V30 1761 H 168.274 3.92425 2.85004 0
M  V30 1762 H 164.153 2.92611 3.5623 0
M  V30 1763 H 167.697 6.32298 2.94694 0
M  V30 1764 H 163.594 5.31609 3.66145 0
M  V30 1765 H 164.362 7.38739 3.5243 0
M  V30 1766 N 167.025 -1.13721 1.09112 0
M  V30 1767 C 168.271 -1.85198 0.826414 0
M  V30 1768 C 168.604 -1.83129 -0.646319 0
M  V30 1769 O 167.879 -1.2671 -1.47563 0
M  V30 1770 C 168.162 -3.33507 1.35812 0
M  V30 1771 C 168.015 -3.44108 2.89672 0
M  V30 1772 C 169.334 -4.28838 0.989256 0
M  V30 1773 H 166.453 -0.67243 0.301675 0
M  V30 1774 H 169.095 -1.33499 1.35197 0
M  V30 1775 H 167.245 -3.77666 0.911082 0
M  V30 1776 H 168.917 -3.08684 3.428 0
M  V30 1777 H 167.16 -2.85087 3.26967 0
M  V30 1778 H 167.831 -4.48388 3.21951 0
M  V30 1779 H 170.307 -3.92734 1.37475 0
M  V30 1780 H 169.183 -5.31051 1.38838 0
M  V30 1781 H 169.444 -4.4198 -0.102924 0
M  V30 1782 N 168.503 -0.877838 -1.30888 0
M  V30 1783 C 169.453 -0.310872 -2.25871 0
M  V30 1784 C 170.437 0.556596 -1.50966 0
M  V30 1785 O 171.629 0.402187 -1.7237 0
M  V30 1786 C 168.758 0.479821 -3.3993 0
M  V30 1787 C 167.844 -0.401333 -4.22197 0
M  V30 1788 N 168.235 -1.49848 -4.83093 0
M  V30 1789 C 166.533 -0.195167 -4.45573 0
M  V30 1790 C 167.234 -2.0425 -5.44662 0
M  V30 1791 N 166.21 -1.33843 -5.26865 0
M  V30 1792 H 170.012 -1.1493 -2.70496 0
M  V30 1793 H 167.526 -0.726458 -1.45246 0
M  V30 1794 H 169.523 0.902582 -4.07012 0
M  V30 1795 H 168.183 1.31577 -2.96846 0
M  V30 1796 H 169.194 -1.88137 -4.82519 0
M  V30 1797 H 165.871 0.604192 -4.13105 0
M  V30 1798 H 167.261 -2.96345 -6.03017 0
M  V30 1799 N 169.982 1.44106 -0.638065 0
M  V30 1800 C 171.259 1.95453 -0.0759321 0
M  V30 1801 C 171.639 1.57984 1.40015 0
M  V30 1802 O 170.987 0.857361 2.11806 0
M  V30 1803 C 171.197 3.47655 -0.306132 0
M  V30 1804 C 172.545 4.24114 -0.203008 0
M  V30 1805 O 173.569 3.55405 -0.237871 0
M  V30 1806 O 172.428 5.46381 -0.113827 0
M  V30 1807 H 169.522 0.826797 0.0183332 0
M  V30 1808 H 172.068 1.54122 -0.710251 0
M  V30 1809 H 170.84 3.68 -1.3301 0
M  V30 1810 H 170.463 3.95949 0.361991 0
M  V30 1811 N 171.46 0.379036 1.52974 0
M  V30 1812 C 172.423 -0.448865 2.24762 0
M  V30 1813 C 173.423 -0.998689 1.26027 0
M  V30 1814 O 174.613 -0.882313 1.50203 0
M  V30 1815 C 171.745 -1.62872 2.99476 0
M  V30 1816 H 172.938 0.179491 2.99362 0
M  V30 1817 H 170.491 0.13096 1.5575 0
M  V30 1818 H 171.226 -2.29479 2.29151 0
M  V30 1819 H 171.011 -1.24128 3.71934 0
M  V30 1820 H 172.501 -2.2151 3.5401 0
M  V30 1821 N 172.938 -1.57226 0.108567 0
M  V30 1822 C 174.349 -1.8195 -0.418464 0
M  V30 1823 C 174.7 -1.02508 -1.67292 0
M  V30 1824 O 173.825 -0.258496 -2.14851 0
M  V30 1825 C 174.42 -3.30028 -0.765979 0
M  V30 1826 C 172.979 -3.55469 -1.23769 0
M  V30 1827 C 172.126 -2.7625 -0.241106 0
M  V30 1828 H 175.077 -1.55149 0.33384 0
M  V30 1829 H 175.098 -3.44086 -1.62434 0
M  V30 1830 H 174.61 -3.87821 0.147219 0
M  V30 1831 H 172.711 -3.03022 -2.16814 0
M  V30 1832 H 172.824 -4.6408 -1.19022 0
M  V30 1833 H 171.188 -2.44133 -0.72602 0
M  V30 1834 H 171.971 -3.36797 0.665007 0
M  V30 1835 N 174.416 0.165178 -1.56732 0
M  V30 1836 C 175.662 0.882112 -1.82611 0
M  V30 1837 C 175.995 1.81628 -0.687378 0
M  V30 1838 O 175.27 1.92009 0.310267 0
M  V30 1839 C 175.553 1.67245 -3.18906 0
M  V30 1840 C 175.406 0.760987 -4.43316 0
M  V30 1841 C 176.725 2.63884 -3.52212 0
M  V30 1842 H 173.844 0.319242 -0.664269 0
M  V30 1843 H 176.486 0.148052 -1.89422 0
M  V30 1844 H 174.636 2.29824 -3.1323 0
M  V30 1845 H 176.308 0.147596 -4.61064 0
M  V30 1846 H 174.551 0.0694102 -4.33744 0
M  V30 1847 H 175.222 1.34962 -5.35247 0
M  V30 1848 H 177.698 2.11429 -3.58381 0
M  V30 1849 H 176.574 3.16245 -4.48643 0
M  V30 1850 H 176.835 3.44377 -2.77231 0
M  V30 1851 N 175.894 1.51508 0.433938 0
M  V30 1852 C 177.31 1.39759 0.770682 0
M  V30 1853 C 177.51 0.482594 1.95636 0
M  V30 1854 O 176.566 -0.0609691 2.52426 0
M  V30 1855 C 177.879 2.81851 1.04787 0
M  V30 1856 C 179.427 2.91025 1.1521 0
M  V30 1857 C 179.902 4.34032 1.46219 0
M  V30 1858 N 181.393 4.37154 1.53136 0
M  V30 1859 C 182.128 5.4484 1.78709 0
M  V30 1860 N 181.624 6.62682 2.02051 0
M  V30 1861 N 183.417 5.32324 1.80519 0
M  V30 1862 H 175.568 2.09548 -0.346892 0
M  V30 1863 H 177.831 0.943446 -0.0928074 0
M  V30 1864 H 177.537 3.50815 0.249304 0
M  V30 1865 H 177.411 3.21386 1.97461 0
M  V30 1866 H 179.798 2.22257 1.94128 0
M  V30 1867 H 179.879 2.54983 0.204281 0
M  V30 1868 H 179.523 5.03351 0.678274 0
M  V30 1869 H 179.453 4.6759 2.42212 0
M  V30 1870 H 181.944 3.52197 1.36987 0
M  V30 1871 H 182.257 7.40543 2.20943 0
M  V30 1872 H 180.602 6.65791 1.99366 0
M  V30 1873 H 183.793 4.39246 1.61805 0
M  V30 1874 H 183.966 6.16328 2.00111 0
M  V30 1875 N 177.372 -0.689602 1.41712 0
M  V30 1876 C 178.597 -1.48329 1.44959 0
M  V30 1877 C 179.022 -1.8801 0.0581283 0
M  V30 1878 O 178.38 -1.55026 -0.940035 0
M  V30 1879 C 178.428 -2.71835 2.36935 0
M  V30 1880 O 177.532 -3.69549 1.8305 0
M  V30 1881 H 176.873 -0.446199 0.491734 0
M  V30 1882 H 179.403 -0.847127 1.86239 0
M  V30 1883 H 179.413 -3.20076 2.53013 0
M  V30 1884 H 178.088 -2.42291 3.38035 0
M  V30 1885 H 176.665 -3.2851 1.76452 0
M  V30 1886 N 178.85 -1.27639 -0.924453 0
M  V30 1887 C 179.78 -1.13166 -2.04244 0
M  V30 1888 C 180.761 -0.032256 -1.70069 0
M  V30 1889 O 181.946 -0.207328 -1.9309 0
M  V30 1890 C 179.076 -0.781496 -3.38393 0
M  V30 1891 C 178.03 -1.83449 -3.86692 0
M  V30 1892 C 177.356 -1.33822 -5.17683 0
M  V30 1893 C 178.656 -3.23917 -4.09726 0
M  V30 1894 H 180.35 -2.06689 -2.1661 0
M  V30 1895 H 177.896 -0.995136 -1.04082 0
M  V30 1896 H 179.849 -0.667057 -4.16087 0
M  V30 1897 H 178.573 0.189439 -3.2605 0
M  V30 1898 H 177.232 -1.93789 -3.11193 0
M  V30 1899 H 176.88 -0.35665 -5.01734 0
M  V30 1900 H 176.58 -2.04224 -5.50968 0
M  V30 1901 H 178.104 -1.23679 -5.97943 0
M  V30 1902 H 179.518 -3.16559 -4.77978 0
M  V30 1903 H 177.915 -3.92059 -4.54324 0
M  V30 1904 H 178.985 -3.68729 -3.14908 0
M  V30 1905 N 180.328 1.1314 -1.09713 0
M  V30 1906 C 181.276 2.20717 -0.733934 0
M  V30 1907 C 182.27 1.6729 0.266506 0
M  V30 1908 O 183.476 1.79547 0.127656 0
M  V30 1909 H 179.851 0.719292 -0.21937 0
M  V30 1910 H 181.822 2.48611 -1.6503 0
M  V30 1911 C 180.571 3.47265 -0.173849 0
M  V30 1912 H 179.894 3.88716 -0.934873 0
M  V30 1913 H 181.334 4.23979 0.0423126 0
M  V30 1914 C 179.793 3.18724 1.09164 0
M  V30 1915 O 180.323 3.37762 2.17439 0
M  V30 1916 N 178.529 2.72583 1.00732 0
M  V30 1917 H 178.076 2.57291 0.126121 0
M  V30 1918 H 178.034 2.53862 1.85476 0
M  V30 1919 N 181.806 0.884767 1.30421 0
M  V30 1920 C 183.046 0.509806 1.9794 0
M  V30 1921 C 183.41 -0.923736 1.68319 0
M  V30 1922 O 184.611 -1.40481 2.29169 0
M  V30 1923 C 182.882 0.776732 3.48858 0
M  V30 1924 S 184.441 0.503843 4.35898 0
M  V30 1925 H 181.259 0.189699 0.685227 0
M  V30 1926 H 183.861 1.14399 1.58535 0
M  V30 1927 H 182.565 1.81857 3.67908 0
M  V30 1928 H 182.096 0.1301 3.93185 0
M  V30 1929 H 184.111 -0.657625 4.91823 0
M  V30 1930 N 183.284 -1.43765 0.645699 0
M  V30 1931 C 184.512 -2.06253 0.163556 0
M  V30 1932 C 184.927 -1.48352 -1.16778 0
M  V30 1933 O 184.284 -0.611932 -1.71935 0
M  V30 1934 C 184.335 -3.61453 0.0583186 0
M  V30 1935 O 184.056 -4.172 1.33702 0
M  V30 1936 C 185.557 -4.41002 -0.450795 0
M  V30 1937 H 182.777 -0.665413 0.0864077 0
M  V30 1938 H 185.321 -1.84396 0.884222 0
M  V30 1939 H 183.476 -3.82522 -0.612865 0
M  V30 1940 H 183.89 -5.10791 1.19131 0
M  V30 1941 H 185.364 -5.49966 -0.473403 0
M  V30 1942 H 185.841 -4.13488 -1.48068 0
M  V30 1943 H 186.447 -4.24886 0.187637 0
M  V30 1944 N 184.763 -0.387143 -1.52771 0
M  V30 1945 C 185.693 0.440551 -2.29306 0
M  V30 1946 C 186.674 1.06535 -1.32606 0
M  V30 1947 O 187.859 1.07853 -1.61497 0
M  V30 1948 C 184.989 1.56919 -3.09829 0
M  V30 1949 C 183.943 1.07054 -4.14395 0
M  V30 1950 C 183.269 2.29109 -4.83129 0
M  V30 1951 C 184.569 0.140015 -5.22112 0
M  V30 1952 H 186.263 -0.198026 -2.98744 0
M  V30 1953 H 183.809 -0.09668 -1.43675 0
M  V30 1954 H 185.762 2.15503 -3.62128 0
M  V30 1955 H 184.486 2.23532 -2.3812 0
M  V30 1956 H 183.145 0.507247 -3.63074 0
M  V30 1957 H 182.793 2.94227 -4.0797 0
M  V30 1958 H 182.493 1.96406 -5.53804 0
M  V30 1959 H 184.017 2.88339 -5.38231 0
M  V30 1960 H 185.431 0.633978 -5.69784 0
M  V30 1961 H 183.828 -0.0971485 -6.00021 0
M  V30 1962 H 184.898 -0.811711 -4.78058 0
M  V30 1963 N 186.241 1.57166 -0.116904 0
M  V30 1964 C 187.657 1.5779 0.239693 0
M  V30 1965 C 187.857 1.1295 1.66867 0
M  V30 1966 O 186.913 0.81592 2.38954 0
M  V30 1967 C 188.226 3.00699 0.00828202 0
M  V30 1968 C 189.774 3.12912 0.0743438 0
M  V30 1969 C 190.249 4.57817 -0.129348 0
M  V30 1970 N 191.74 4.63139 -0.075247 0
M  V30 1971 C 192.475 5.73023 -0.207788 0
M  V30 1972 N 191.971 6.91665 -0.396382 0
M  V30 1973 N 193.764 5.61906 -0.14751 0
M  V30 1974 H 185.915 1.84615 -1.05029 0
M  V30 1975 H 188.178 0.85311 -0.41341 0
M  V30 1976 H 187.884 3.37784 -0.979531 0
M  V30 1977 H 187.758 3.69848 0.741077 0
M  V30 1978 H 190.145 2.75686 1.05268 0
M  V30 1979 H 190.226 2.4631 -0.690297 0
M  V30 1980 H 189.87 4.95742 -1.10465 0
M  V30 1981 H 189.8 5.22507 0.655253 0
M  V30 1982 H 192.291 3.7784 0.0670898 0
M  V30 1983 H 192.604 7.71255 -0.488437 0
M  V30 1984 H 190.949 6.93654 -0.432329 0
M  V30 1985 H 194.14 4.681 -0.00115036 0
M  V30 1986 H 194.313 6.47501 -0.254247 0
M  V30 1987 N 187.719 -0.156864 1.56817 0
M  V30 1988 C 188.996 -0.899244 1.73704 0
M  V30 1989 C 189.376 -1.99771 0.682254 0
M  V30 1990 O 188.724 -2.26515 -0.300522 0
M  V30 1991 C 188.934 -1.45075 3.17418 0
M  V30 1992 C 190.282 -1.91802 3.7881 0
M  V30 1993 O 191.306 -1.54838 3.20786 0
M  V30 1994 O 190.165 -2.5994 4.80722 0
M  V30 1995 H 187.259 -0.424267 0.709878 0
M  V30 1996 H 189.805 -0.143561 1.69092 0
M  V30 1997 H 188.577 -0.660846 3.85679 0
M  V30 1998 H 188.2 -2.27021 3.26416 0
M  V30 1999 N 189.197 -1.51736 -0.425897 0
M  V30 2000 C 190.422 -1.69082 -1.20108 0
M  V30 2001 C 190.847 -0.392398 -1.83962 0
M  V30 2002 O 190.205 0.64858 -1.69302 0
M  V30 2003 C 190.253 -2.81604 -2.25237 0
M  V30 2004 O 189.357 -2.46004 -3.30992 0
M  V30 2005 H 188.698 -0.563408 -0.35138 0
M  V30 2006 H 191.228 -1.98358 -0.501512 0
M  V30 2007 H 191.238 -3.06025 -2.69838 0
M  V30 2008 H 189.913 -3.75817 -1.78142 0
M  V30 2009 H 188.49 -2.32195 -2.91787 0
M  V30 2010 N 190.675 0.682077 -1.42076 0
M  V30 2011 C 191.607 1.80755 -1.40926 0
M  V30 2012 C 192.62 1.59833 -0.309398 0
M  V30 2013 O 193.809 1.69087 -0.572014 0
M  V30 2014 C 190.909 3.17744 -1.17865 0
M  V30 2015 C 190.082 3.65578 -2.40149 0
M  V30 2016 C 189.141 4.81277 -2.12742 0
M  V30 2017 O 188.167 4.92197 -2.85887 0
M  V30 2018 N 189.369 5.69474 -1.12602 0
M  V30 2019 H 192.134 1.82229 -2.37935 0
M  V30 2020 H 189.695 0.864903 -1.36861 0
M  V30 2021 H 191.687 3.9279 -0.9746 0
M  V30 2022 H 190.257 3.11214 -0.294068 0
M  V30 2023 H 189.477 2.81291 -2.76169 0
M  V30 2024 H 190.765 3.94278 -3.21593 0
M  V30 2025 H 190.163 5.63297 -0.520899 0
M  V30 2026 H 188.72 6.44363 -0.981842 0
M  V30 2027 N 192.153 1.28127 0.917671 0
M  V30 2028 C 193.085 1.07517 2.02417 0
M  V30 2029 C 194.098 0.0281099 1.62776 0
M  V30 2030 O 195.287 0.270748 1.76435 0
M  V30 2031 C 192.387 0.610957 3.33347 0
M  V30 2032 C 191.56 1.73255 4.01624 0
M  V30 2033 C 190.619 1.26238 5.10833 0
M  V30 2034 O 189.645 1.96389 5.34247 0
M  V30 2035 N 190.847 0.123448 5.80369 0
M  V30 2036 H 193.612 2.02806 2.20658 0
M  V30 2037 H 191.173 1.19827 1.08871 0
M  V30 2038 H 193.165 0.280101 4.0373 0
M  V30 2039 H 191.735 -0.24898 3.11607 0
M  V30 2040 H 190.955 2.23319 3.24842 0
M  V30 2041 H 192.243 2.48503 4.43986 0
M  V30 2042 H 191.641 -0.461847 5.63812 0
M  V30 2043 H 190.198 -0.148158 6.51632 0
M  V30 2044 N 193.631 -1.12557 1.10312 0
M  V30 2045 C 194.578 -2.18247 0.750781 0
M  V30 2046 C 195.548 -1.63853 -0.272293 0
M  V30 2047 O 196.733 -1.90195 -0.151862 0
M  V30 2048 C 193.873 -3.44591 0.187379 0
M  V30 2049 C 192.986 -4.13046 1.2656 0
M  V30 2050 C 192.121 -5.27034 0.663978 0
M  V30 2051 C 191.16 -5.87353 1.72287 0
M  V30 2052 N 190.297 -6.92757 1.1416 0
M  V30 2053 H 195.137 -2.47732 1.65628 0
M  V30 2054 H 192.674 -1.21629 0.827337 0
M  V30 2055 H 194.632 -4.16904 -0.157148 0
M  V30 2056 H 193.262 -3.15527 -0.681355 0
M  V30 2057 H 192.314 -3.38924 1.72727 0
M  V30 2058 H 193.626 -4.53947 2.06721 0
M  V30 2059 H 192.78 -6.06104 0.268824 0
M  V30 2060 H 191.519 -4.87407 -0.169082 0
M  V30 2061 H 190.524 -5.06971 2.12746 0
M  V30 2062 H 191.749 -6.29051 2.55875 0
M  V30 2063 H 189.695 -6.5517 0.329984 0
M  V30 2064 H 189.612 -7.3225 1.88007 0
M  V30 2065 H 190.88 -7.75658 0.772956 0
M  V30 2066 N 195.109 -0.891671 -1.2995 0
M  V30 2067 C 196.334 -0.527932 -2.00568 0
M  V30 2068 C 196.759 0.877969 -1.66353 0
M  V30 2069 O 196.117 1.58301 -0.883762 0
M  V30 2070 C 196.165 -0.717745 -3.53385 0
M  V30 2071 O 195.269 0.233376 -4.11739 0
M  V30 2072 H 194.61 -0.20722 -0.630837 0
M  V30 2073 H 197.14 -1.20105 -1.65638 0
M  V30 2074 H 197.15 -0.619307 -4.03272 0
M  V30 2075 H 195.825 -1.74276 -3.77625 0
M  V30 2076 H 194.402 0.0880706 -3.72796 0
M  V30 2077 N 196.587 1.43421 -0.653314 0
M  V30 2078 C 197.517 2.33487 0.0246656 0
M  V30 2079 C 198.498 1.49475 0.811863 0
M  V30 2080 O 199.683 1.78139 0.773322 0
M  V30 2081 C 196.813 3.32841 0.99166 0
M  V30 2082 C 195.767 4.26842 0.314568 0
M  V30 2083 C 195.093 5.16236 1.39302 0
M  V30 2084 C 196.393 5.16243 -0.793095 0
M  V30 2085 H 198.087 2.90427 -0.727481 0
M  V30 2086 H 195.633 1.39649 -0.351287 0
M  V30 2087 H 197.586 3.94747 1.47487 0
M  V30 2088 H 196.31 2.74158 1.77497 0
M  V30 2089 H 194.969 3.663 -0.148199 0
M  V30 2090 H 194.617 4.53891 2.16776 0
M  V30 2091 H 194.317 5.79948 0.945223 0
M  V30 2092 H 195.841 5.81015 1.87759 0
M  V30 2093 H 197.255 5.71958 -0.392039 0
M  V30 2094 H 195.652 5.88676 -1.16536 0
M  V30 2095 H 196.722 4.55927 -1.65103 0
M  V30 2096 N 198.065 0.39524 1.52563 0
M  V30 2097 C 199.311 -0.185318 2.01952 0
M  V30 2098 C 199.644 -1.45964 1.28095 0
M  V30 2099 O 198.919 -1.90689 0.38315 0
M  V30 2100 C 199.202 -0.447193 3.57312 0
M  V30 2101 C 199.055 0.842828 4.41833 0
M  V30 2102 C 200.374 -1.23529 4.22408 0
M  V30 2103 H 197.493 -0.0658788 0.73405 0
M  V30 2104 H 200.135 0.525975 1.82575 0
M  V30 2105 H 198.285 -1.05312 3.73954 0
M  V30 2106 H 199.957 1.4795 4.36931 0
M  V30 2107 H 198.2 1.45686 4.08605 0
M  V30 2108 H 198.871 0.614165 5.48573 0
M  V30 2109 H 201.347 -0.722445 4.0978 0
M  V30 2110 H 200.223 -1.38727 5.3108 0
M  V30 2111 H 200.484 -2.25213 3.80436 0
M  V30 2112 N 199.544 -1.57102 0.125237 0
M  V30 2113 C 200.477 -2.11371 -0.860094 0
M  V30 2114 C 201.455 -1.03168 -1.25679 0
M  V30 2115 O 202.639 -1.30862 -1.35674 0
M  V30 2116 C 199.766 -2.61555 -2.1519 0
M  V30 2117 C 198.812 -3.81701 -1.9028 0
M  V30 2118 S 199.645 -5.23797 -1.11343 0
M  V30 2119 C 200.801 -5.77353 -2.41689 0
M  V30 2120 H 201.034 -2.94617 -0.39852 0
M  V30 2121 H 198.567 -1.54145 -0.0886555 0
M  V30 2122 H 200.525 -2.91122 -2.89411 0
M  V30 2123 H 199.186 -1.78479 -2.58465 0
M  V30 2124 H 198.379 -4.14985 -2.86014 0
M  V30 2125 H 197.981 -3.52783 -1.24178 0
M  V30 2126 H 200.273 -5.87458 -3.37489 0
M  V30 2127 H 201.216 -6.75323 -2.12942 0
M  V30 2128 H 201.624 -5.05457 -2.51342 0
M  V30 2129 N 201.022 0.148545 -1.56898 0
M  V30 2130 C 202.247 0.880385 -1.87787 0
M  V30 2131 C 202.672 1.74018 -0.714093 0
M  V30 2132 O 202.03 1.78153 0.336343 0
M  V30 2133 C 202.078 1.71422 -3.17249 0
M  V30 2134 O 201.182 2.8183 -3.01074 0
M  V30 2135 H 200.523 0.245301 -0.617028 0
M  V30 2136 H 203.053 0.139826 -2.04122 0
M  V30 2137 H 203.063 2.10954 -3.49231 0
M  V30 2138 H 201.738 1.08284 -4.01556 0
M  V30 2139 H 200.315 2.45715 -2.80497 0
M  V30 2140 N 202.5 1.5196 0.417844 0
M  V30 2141 C 203.748 1.65263 1.16329 0
M  V30 2142 C 204.069 0.380634 1.91249 0
M  V30 2143 O 203.339 -0.604214 1.86349 0
M  V30 2144 H 201.919 0.60912 0.432414 0
M  V30 2145 H 204.581 1.88969 0.477162 0
M  V30 2146 H 203.677 2.4896 1.88217 0
M  V30 2147 N 203.978 -0.674533 1.42435 0
M  V30 2148 C 205.389 -1.25514 1.38214 0
M  V30 2149 C 205.74 -1.96055 0.0755464 0
M  V30 2150 O 204.865 -2.00028 -0.8257 0
M  V30 2151 C 205.46 -2.28269 2.50357 0
M  V30 2152 C 204.019 -2.81856 2.49467 0
M  V30 2153 C 203.166 -1.56182 2.29134 0
M  V30 2154 H 206.117 -0.467902 1.51646 0
M  V30 2155 H 206.138 -3.10009 2.20624 0
M  V30 2156 H 205.65 -1.769 3.45439 0
M  V30 2157 H 203.751 -3.37346 1.58204 0
M  V30 2158 H 203.864 -3.30854 3.46515 0
M  V30 2159 H 202.228 -1.82761 1.774 0
M  V30 2160 H 203.011 -1.06778 3.26272 0
M  V30 2161 N 205.456 -1.28612 -0.910864 0
M  V30 2162 C 206.686 -1.1862 -1.69153 0
M  V30 2163 C 207.094 0.257324 -1.87442 0
M  V30 2164 O 206.437 1.18543 -1.40332 0
M  V30 2165 C 206.499 -1.81606 -3.10257 0
M  V30 2166 C 206.163 -3.30864 -3.15243 0
M  V30 2167 C 207.16 -4.27256 -2.96223 0
M  V30 2168 C 204.845 -3.71871 -3.37664 0
M  V30 2169 C 206.839 -5.62631 -2.99541 0
M  V30 2170 C 204.526 -5.07371 -3.40614 0
M  V30 2171 C 205.524 -6.02561 -3.21573 0
M  V30 2172 O 205.212 -7.35589 -3.2429 0
M  V30 2173 H 204.944 -0.412633 -0.535453 0
M  V30 2174 H 207.498 -1.70306 -1.14827 0
M  V30 2175 H 205.728 -1.24418 -3.66138 0
M  V30 2176 H 207.417 -1.66092 -3.70362 0
M  V30 2177 H 208.183 -3.9691 -2.78725 0
M  V30 2178 H 204.062 -2.98241 -3.5153 0
M  V30 2179 H 207.606 -6.36907 -2.84597 0
M  V30 2180 H 203.503 -5.37366 -3.57642 0
M  V30 2181 H 204.271 -7.44252 -3.40633 0
M  V30 2182 N 206.934 1.1197 -1.10907 0
M  V30 2183 C 207.844 2.21433 -0.774896 0
M  V30 2184 C 208.86 1.72478 0.229657 0
M  V30 2185 O 210.036 2.01288 0.0672008 0
M  V30 2186 C 207.101 3.4602 -0.216986 0
M  V30 2187 C 206.162 4.09791 -1.27944 0
M  V30 2188 C 205.395 5.28431 -0.748055 0
M  V30 2189 O 205.618 5.68823 0.423833 0
M  V30 2190 O 204.552 5.82644 -1.51027 0
M  V30 2191 H 208.378 2.5242 -1.68873 0
M  V30 2192 H 205.963 1.20399 -0.884555 0
M  V30 2193 H 207.845 4.21304 0.090059 0
M  V30 2194 H 206.52 3.16698 0.669633 0
M  V30 2195 H 205.427 3.36265 -1.63941 0
M  V30 2196 H 206.76 4.4328 -2.13925 0
M  V30 2197 N 208.412 0.89855 1.29475 0
M  V30 2198 C 209.342 0.39201 2.30186 0
M  V30 2199 C 210.323 -0.532359 1.61555 0
M  V30 2200 O 211.508 -0.443331 1.89072 0
M  V30 2201 C 208.638 -0.382353 3.45189 0
M  V30 2202 C 207.592 0.451483 4.25612 0
M  V30 2203 C 206.918 -0.450307 5.328 0
M  V30 2204 C 208.218 1.70079 4.93832 0
M  V30 2205 H 209.912 1.23362 2.72804 0
M  V30 2206 H 207.458 0.594638 1.31149 0
M  V30 2207 H 209.411 -0.747451 4.14718 0
M  V30 2208 H 208.135 -1.25774 3.01411 0
M  V30 2209 H 206.794 0.798897 3.57789 0
M  V30 2210 H 206.442 -1.32379 4.85268 0
M  V30 2211 H 206.142 0.103902 5.87508 0
M  V30 2212 H 207.666 -0.811623 6.05182 0
M  V30 2213 H 209.08 1.40549 5.55805 0
M  V30 2214 H 207.477 2.19623 5.58467 0
M  V30 2215 H 208.547 2.43744 4.19186 0
M  V30 2216 N 209.89 -1.43072 0.660911 0
M  V30 2217 C 210.837 -2.30785 -0.0259884 0
M  V30 2218 C 211.807 -1.45184 -0.806888 0
M  V30 2219 O 212.992 -1.74041 -0.781943 0
M  V30 2220 C 210.132 -3.30861 -0.981067 0
M  V30 2221 C 209.245 -4.31558 -0.195458 0
M  V30 2222 C 208.38 -5.18712 -1.14503 0
M  V30 2223 C 207.419 -6.11097 -0.350299 0
M  V30 2224 N 206.556 -6.90849 -1.25186 0
M  V30 2225 H 211.396 -2.88975 0.727846 0
M  V30 2226 H 208.933 -1.42353 0.370682 0
M  V30 2227 H 210.891 -3.87399 -1.54849 0
M  V30 2228 H 209.521 -2.74304 -1.70169 0
M  V30 2229 H 208.573 -3.77252 0.488374 0
M  V30 2230 H 209.885 -4.9701 0.422176 0
M  V30 2231 H 209.039 -5.79914 -1.78284 0
M  V30 2232 H 207.778 -4.53404 -1.79656 0
M  V30 2233 H 206.783 -5.48976 0.300808 0
M  V30 2234 H 208.008 -6.7845 0.296941 0
M  V30 2235 H 205.954 -6.28182 -1.89005 0
M  V30 2236 H 205.871 -7.52854 -0.688971 0
M  V30 2237 H 207.139 -7.5655 -1.87757 0
M  V30 2238 N 211.368 -0.403325 -1.52352 0
M  V30 2239 C 212.331 0.413051 -2.25447 0
M  V30 2240 C 213.331 0.978513 -1.276 0
M  V30 2241 O 214.521 0.858305 -1.51587 0
M  V30 2242 C 211.653 1.58087 -3.02029 0
M  V30 2243 H 212.846 -0.227094 -2.99039 0
M  V30 2244 H 210.399 -0.155722 -1.55522 0
M  V30 2245 H 211.134 2.25804 -2.32772 0
M  V30 2246 H 210.919 1.18195 -3.73861 0
M  V30 2247 H 212.409 2.1585 -3.57489 0
M  V30 2248 N 212.846 1.57033 -0.133567 0
M  V30 2249 C 213.776 2.1909 0.807567 0
M  V30 2250 C 214.757 1.13517 1.26681 0
M  V30 2251 O 215.942 1.41809 1.32679 0
M  V30 2252 C 213.072 2.80188 2.05212 0
M  V30 2253 C 212.026 3.91471 1.73015 0
M  V30 2254 C 211.352 4.39443 3.04622 0
M  V30 2255 C 212.652 5.12886 0.987168 0
M  V30 2256 H 214.346 2.97988 0.290403 0
M  V30 2257 H 211.892 1.43335 0.138239 0
M  V30 2258 H 213.845 3.22264 2.71521 0
M  V30 2259 H 212.569 1.98601 2.59278 0
M  V30 2260 H 211.228 3.49993 1.0909 0
M  V30 2261 H 210.876 3.54695 3.56651 0
M  V30 2262 H 210.576 5.14495 2.83847 0
M  V30 2263 H 212.1 4.8418 3.72024 0
M  V30 2264 H 213.514 5.51891 1.55208 0
M  V30 2265 H 211.911 5.93615 0.87985 0
M  V30 2266 H 212.981 4.84894 -0.0235286 0
M  V30 2267 N 214.325 -0.140222 1.56975 0
M  V30 2268 C 215.275 -1.17827 1.95194 0
M  V30 2269 C 216.259 -1.38195 0.824075 0
M  V30 2270 O 217.451 -1.39643 1.0876 0
M  V30 2271 C 214.58 -2.51024 2.34184 0
M  V30 2272 C 213.666 -2.3422 3.53556 0
M  V30 2273 N 214.057 -1.87185 4.69889 0
M  V30 2274 C 212.355 -2.64949 3.58773 0
M  V30 2275 C 213.056 -1.83586 5.5197 0
M  V30 2276 N 212.032 -2.2715 4.93866 0
M  V30 2277 H 215.834 -0.806817 2.82609 0
M  V30 2278 H 213.348 -0.348208 1.58623 0
M  V30 2279 H 215.345 -3.26074 2.59772 0
M  V30 2280 H 214.005 -2.88945 1.48124 0
M  V30 2281 H 215.016 -1.57048 4.93514 0
M  V30 2282 H 211.693 -3.067 2.8327 0
M  V30 2283 H 213.083 -1.48655 6.55249 0
M  V30 2284 N 215.803 -1.52179 -0.40978 0
M  V30 2285 C 216.733 -1.78435 -1.5061 0
M  V30 2286 C 217.714 -0.635295 -1.57791 0
M  V30 2287 O 218.899 -0.880823 -1.73076 0
M  V30 2288 C 216.029 -1.93444 -2.88439 0
M  V30 2289 C 214.983 -3.09038 -2.96108 0
M  V30 2290 C 214.309 -3.09268 -4.36185 0
M  V30 2291 C 215.609 -4.48508 -2.67652 0
M  V30 2292 H 217.303 -2.70237 -1.28889 0
M  V30 2293 H 214.849 -1.30036 -0.618605 0
M  V30 2294 H 216.802 -2.10394 -3.65119 0
M  V30 2295 H 215.526 -0.983129 -3.11452 0
M  V30 2296 H 214.185 -2.91837 -2.21872 0
M  V30 2297 H 213.833 -2.11861 -4.56206 0
M  V30 2298 H 213.533 -3.86907 -4.42241 0
M  V30 2299 H 215.057 -3.28348 -5.14801 0
M  V30 2300 H 216.471 -4.65918 -3.34056 0
M  V30 2301 H 214.868 -5.28059 -2.85085 0
M  V30 2302 H 215.938 -4.56649 -1.63095 0
M  V30 2303 N 217.281 0.66697 -1.42791 0
M  V30 2304 C 218.213 1.7925 -1.42836 0
M  V30 2305 C 219.226 1.59496 -0.326333 0
M  V30 2306 O 220.415 1.6847 -0.589916 0
M  V30 2307 C 217.515 3.16476 -1.21229 0
M  V30 2308 C 216.688 3.63011 -2.44013 0
M  V30 2309 C 215.747 4.78993 -2.17834 0
M  V30 2310 O 214.773 4.89137 -2.91091 0
M  V30 2311 N 215.975 5.68248 -1.18635 0
M  V30 2312 H 218.74 1.79695 -2.39854 0
M  V30 2313 H 216.301 0.850338 -1.37771 0
M  V30 2314 H 218.293 3.91734 -1.01621 0
M  V30 2315 H 216.863 3.10884 -0.32706 0
M  V30 2316 H 216.083 2.78346 -2.79137 0
M  V30 2317 H 217.371 3.90845 -3.25757 0
M  V30 2318 H 216.769 5.62712 -0.580615 0
M  V30 2319 H 215.326 6.43285 -1.05013 0
M  V30 2320 N 218.759 1.29093 0.90403 0
M  V30 2321 C 220.007 1.16583 1.65085 0
M  V30 2322 C 220.328 -0.283933 1.92922 0
M  V30 2323 O 219.598 -1.19509 1.55224 0
M  V30 2324 H 218.178 0.428467 0.611903 0
M  V30 2325 H 220.84 1.61959 1.08422 0
M  V30 2326 H 219.936 1.71266 2.6091 0
M  V30 2327 N 220.237 -1.11381 1.11499 0
M  V30 2328 C 221.169 -2.17207 0.731704 0
M  V30 2329 C 222.182 -1.61066 -0.236957 0
M  V30 2330 O 223.371 -1.78489 -0.0197591 0
M  V30 2331 C 220.471 -3.38846 0.0607624 0
M  V30 2332 C 219.644 -4.24451 1.0564 0
M  V30 2333 C 218.703 -5.24562 0.4149 0
M  V30 2334 O 217.729 -5.59071 1.069 0
M  V30 2335 N 218.931 -5.74651 -0.821943 0
M  V30 2336 H 221.696 -2.50699 1.64225 0
M  V30 2337 H 219.257 -1.26908 1.00529 0
M  V30 2338 H 221.249 -4.02911 -0.380139 0
M  V30 2339 H 219.819 -3.03411 -0.752376 0
M  V30 2340 H 219.039 -3.56833 1.67524 0
M  V30 2341 H 220.327 -4.78486 1.72998 0
M  V30 2342 H 219.725 -5.48797 -1.37252 0
M  V30 2343 H 218.282 -6.40549 -1.20582 0
M  V30 2344 N 221.715 -0.905404 -1.28997 0
M  V30 2345 C 222.992 -0.453513 -1.9027 0
M  V30 2346 C 223.372 1.06721 -1.82137 0
M  V30 2347 O 222.72 1.91159 -1.25182 0
M  V30 2348 C 222.93 -0.974494 -3.35119 0
M  V30 2349 C 224.278 -1.0216 -4.12127 0
M  V30 2350 O 225.302 -0.922557 -3.44046 0
M  V30 2351 O 224.161 -1.17121 -5.33802 0
M  V30 2352 H 221.255 -0.142347 -0.814657 0
M  V30 2353 H 223.801 -0.995642 -1.37423 0
M  V30 2354 H 222.573 -2.01848 -3.35221 0
M  V30 2355 H 222.196 -0.412706 -3.95452 0
M  V30 2356 N 223.193 1.4272 -0.668489 0
M  V30 2357 C 224.126 2.28111 0.0637898 0
M  V30 2358 C 225.104 1.40705 0.814912 0
M  V30 2359 O 226.288 1.70146 0.81134 0
M  V30 2360 C 223.415 3.20429 1.0974 0
M  V30 2361 C 222.461 4.24197 0.442579 0
M  V30 2362 S 223.294 5.29563 -0.795173 0
M  V30 2363 C 224.45 6.25449 0.237516 0
M  V30 2364 H 224.683 2.8987 -0.660521 0
M  V30 2365 H 222.216 1.47456 -0.457821 0
M  V30 2366 H 224.174 3.74158 1.68868 0
M  V30 2367 H 222.835 2.57818 1.79411 0
M  V30 2368 H 222.028 4.88954 1.22227 0
M  V30 2369 H 221.63 3.73925 -0.0749554 0
M  V30 2370 H 223.922 6.68524 1.09915 0
M  V30 2371 H 224.865 7.07104 -0.375421 0
M  V30 2372 H 225.273 5.61511 0.580167 0
M  V30 2373 N 224.671 0.411399 1.52136 0
M  V30 2374 C 225.581 -0.419774 2.30814 0
M  V30 2375 C 226.597 -1.0515 1.38634 0
M  V30 2376 O 227.773 -1.05252 1.71709 0
M  V30 2377 C 224.838 -1.52019 3.11594 0
M  V30 2378 C 223.899 -0.91129 4.19516 0
M  V30 2379 C 223.132 -1.95927 4.96436 0
M  V30 2380 O 223.355 -3.17775 4.73683 0
M  V30 2381 O 222.289 -1.56423 5.81219 0
M  V30 2382 H 226.115 0.221805 3.02889 0
M  V30 2383 H 223.7 0.174547 1.48377 0
M  V30 2384 H 225.582 -2.15898 3.61892 0
M  V30 2385 H 224.257 -2.14633 2.42311 0
M  V30 2386 H 223.164 -0.235157 3.7336 0
M  V30 2387 H 224.497 -0.32904 4.91099 0
M  V30 2388 N 226.149 -1.5696 0.141893 0
M  V30 2389 C 227.081 -2.13619 -0.830627 0
M  V30 2390 C 228.094 -1.08439 -1.21428 0
M  V30 2391 O 229.283 -1.35734 -1.15925 0
M  V30 2392 C 226.383 -2.63978 -2.12529 0
M  V30 2393 C 225.556 -3.93504 -1.9098 0
M  V30 2394 C 224.615 -4.29225 -3.04388 0
M  V30 2395 O 223.641 -4.97641 -2.76302 0
M  V30 2396 N 224.843 -3.88393 -4.31429 0
M  V30 2397 H 227.608 -2.97691 -0.34641 0
M  V30 2398 H 225.169 -1.61846 -0.0418375 0
M  V30 2399 H 227.161 -2.84891 -2.87436 0
M  V30 2400 H 225.731 -1.84659 -2.52229 0
M  V30 2401 H 224.951 -3.81269 -1.00139 0
M  V30 2402 H 226.239 -4.78154 -1.73914 0
M  V30 2403 H 225.637 -3.33257 -4.57117 0
M  V30 2404 H 224.194 -4.14368 -5.03133 0
M  V30 2405 N 227.627 0.131896 -1.57047 0
M  V30 2406 C 228.559 1.1878 -1.9602 0
M  V30 2407 C 229.572 1.38363 -0.857875 0
M  V30 2408 O 230.761 1.37666 -1.13623 0
M  V30 2409 C 227.861 2.55008 -2.23213 0
M  V30 2410 C 227.034 2.56201 -3.54513 0
M  V30 2411 C 226.093 3.7408 -3.70069 0
M  V30 2412 O 225.119 3.58258 -4.42312 0
M  V30 2413 N 226.321 4.92137 -3.07866 0
M  V30 2414 H 229.086 0.85639 -2.87204 0
M  V30 2415 H 226.647 0.321309 -1.5868 0
M  V30 2416 H 228.639 3.32404 -2.30846 0
M  V30 2417 H 227.209 2.80382 -1.3822 0
M  V30 2418 H 226.429 1.64613 -3.58185 0
M  V30 2419 H 227.717 2.54043 -4.4084 0
M  V30 2420 H 227.115 5.07895 -2.49116 0
M  V30 2421 H 225.672 5.67254 -3.21039 0
M  V30 2422 N 229.106 1.52395 0.401703 0
M  V30 2423 C 230.352 1.67065 1.14966 0
M  V30 2424 C 230.685 0.403052 1.89971 0
M  V30 2425 O 229.96 -0.598774 1.85054 0
M  V30 2426 C 230.243 2.8975 2.13815 0
M  V30 2427 C 230.096 4.26578 1.42658 0
M  V30 2428 C 231.415 3.07965 3.14397 0
M  V30 2429 H 228.534 0.607968 0.416587 0
M  V30 2430 H 231.176 1.84965 0.434511 0
M  V30 2431 H 229.326 2.74619 2.74803 0
M  V30 2432 H 230.998 4.53451 0.847329 0
M  V30 2433 H 229.241 4.27639 0.72849 0
M  V30 2434 H 229.912 5.08483 2.14823 0
M  V30 2435 H 232.388 3.22043 2.63491 0
M  V30 2436 H 231.264 3.95308 3.80819 0
M  V30 2437 H 231.525 2.21611 3.82545 0
M  V30 2438 N 230.584 -0.659388 1.43143 0
M  V30 2439 C 231.83 -1.42145 1.44647 0
M  V30 2440 C 232.163 -1.9408 0.0681907 0
M  V30 2441 O 231.438 -1.71899 -0.910007 0
M  V30 2442 C 231.721 -2.60735 2.48373 0
M  V30 2443 C 231.574 -2.14332 3.95451 0
M  V30 2444 C 232.893 -3.62951 2.48906 0
M  V30 2445 H 230.012 -0.51552 0.526696 0
M  V30 2446 H 232.654 -0.748069 1.74654 0
M  V30 2447 H 230.804 -3.18184 2.22916 0
M  V30 2448 H 232.476 -1.61932 4.31944 0
M  V30 2449 H 230.719 -1.4576 4.08578 0
M  V30 2450 H 231.39 -2.99583 4.63631 0
M  V30 2451 H 233.866 -3.1525 2.71582 0
M  V30 2452 H 232.742 -4.43487 3.23435 0
M  V30 2453 H 233.003 -4.15126 1.52061 0
M  V30 2454 N 232.062 -1.29571 -0.897171 0
M  V30 2455 C 233.309 -1.17689 -1.6479 0
M  V30 2456 C 233.637 0.27107 -1.92602 0
M  V30 2457 O 232.892 1.21193 -1.53658 0
M  V30 2458 C 233.191 -1.9382 -3.00281 0
M  V30 2459 C 232.857 -3.43522 -2.92068 0
M  V30 2460 C 231.519 -3.84348 -2.89535 0
M  V30 2461 C 233.871 -4.38906 -2.81089 0
M  V30 2462 C 231.199 -5.18869 -2.73846 0
M  V30 2463 C 233.551 -5.73521 -2.66939 0
M  V30 2464 C 232.215 -6.13601 -2.62774 0
M  V30 2465 H 231.485 -0.430654 -0.603008 0
M  V30 2466 H 234.132 -1.60536 -1.04404 0
M  V30 2467 H 232.437 -1.4357 -3.64547 0
M  V30 2468 H 234.134 -1.82028 -3.57305 0
M  V30 2469 H 230.724 -3.11072 -2.94842 0
M  V30 2470 H 234.908 -4.08315 -2.82121 0
M  V30 2471 H 230.164 -5.4903 -2.69027 0
M  V30 2472 H 234.338 -6.47078 -2.57416 0
M  V30 2473 H 231.965 -7.17786 -2.50375 0
M  V30 2474 N 233.54 1.10788 -1.12088 0
M  V30 2475 C 234.765 1.87002 -0.896949 0
M  V30 2476 C 235.19 1.79933 0.548261 0
M  V30 2477 O 234.548 1.16662 1.38779 0
M  V30 2478 C 234.596 3.3349 -1.37174 0
M  V30 2479 O 233.7 4.08745 -0.547831 0
M  V30 2480 H 233.041 0.580397 -0.322545 0
M  V30 2481 H 235.571 1.39996 -1.49206 0
M  V30 2482 H 235.581 3.84339 -1.36922 0
M  V30 2483 H 234.256 3.37951 -2.42408 0
M  V30 2484 H 232.833 3.6776 -0.617034 0
M  V30 2485 N 235.018 0.912232 1.28515 0
M  V30 2486 C 235.951 0.343928 2.25593 0
M  V30 2487 C 236.929 -0.550994 1.5298 0
M  V30 2488 O 238.113 -0.494991 1.81885 0
M  V30 2489 C 235.24 -0.508525 3.34861 0
M  V30 2490 C 234.286 0.320808 4.25292 0
M  V30 2491 S 235.119 1.72658 5.06902 0
M  V30 2492 C 236.275 0.881394 6.19663 0
M  V30 2493 H 236.508 1.16674 2.73449 0
M  V30 2494 H 234.041 0.713384 1.36931 0
M  V30 2495 H 235.999 -0.994539 3.9827 0
M  V30 2496 H 234.66 -1.30571 2.85675 0
M  V30 2497 H 233.853 -0.330941 5.02912 0
M  V30 2498 H 233.455 0.74042 3.66598 0
M  V30 2499 H 235.747 0.110359 6.7741 0
M  V30 2500 H 236.69 1.63009 6.89082 0
M  V30 2501 H 237.098 0.430239 5.62858 0
M  V30 2502 N 236.496 -1.42363 0.676048 0
M  V30 2503 C 237.721 -2.06377 0.205705 0
M  V30 2504 C 238.146 -1.50463 -1.12883 0
M  V30 2505 O 237.504 -0.623619 -1.70237 0
M  V30 2506 C 237.552 -3.60277 0.152655 0
M  V30 2507 O 236.656 -4.02935 -0.87845 0
M  V30 2508 H 235.997 -0.655588 0.105359 0
M  V30 2509 H 238.527 -1.82475 0.925412 0
M  V30 2510 H 238.537 -4.07993 -0.0230675 0
M  V30 2511 H 237.212 -4.00346 1.12675 0
M  V30 2512 H 235.789 -3.66764 -0.673668 0
M  V30 2513 N 237.974 -0.419461 -1.51915 0
M  V30 2514 C 239.221 0.152939 -2.01922 0
M  V30 2515 C 239.549 1.4426 -1.30458 0
M  V30 2516 O 238.804 1.91514 -0.402593 0
M  V30 2517 C 239.103 0.437067 -3.54717 0
M  V30 2518 C 238.769 -0.764632 -4.44369 0
M  V30 2519 C 237.431 -1.09423 -4.68594 0
M  V30 2520 C 239.783 -1.56713 -4.97082 0
M  V30 2521 C 237.111 -2.22732 -5.42777 0
M  V30 2522 C 239.463 -2.69107 -5.72507 0
M  V30 2523 C 238.127 -3.02541 -5.95 0
M  V30 2524 H 237.397 0.0559644 -0.738884 0
M  V30 2525 H 240.044 -0.562998 -1.83037 0
M  V30 2526 H 238.349 1.23469 -3.71837 0
M  V30 2527 H 240.046 0.893083 -3.90928 0
M  V30 2528 H 236.636 -0.497775 -4.257 0
M  V30 2529 H 240.82 -1.32571 -4.78266 0
M  V30 2530 H 236.076 -2.48971 -5.58411 0
M  V30 2531 H 240.25 -3.31671 -6.12346 0
M  V30 2532 H 237.877 -3.90457 -6.52264 0
M  V30 2533 N 239.452 1.56882 -0.150215 0
M  V30 2534 C 240.698 1.96518 0.500834 0
M  V30 2535 C 241.031 1.03527 1.64304 0
M  V30 2536 O 240.306 0.0782751 1.94342 0
M  V30 2537 C 240.589 3.45822 1.00395 0
M  V30 2538 C 240.442 4.49591 -0.136983 0
M  V30 2539 C 241.761 3.97704 1.88467 0
M  V30 2540 H 238.88 0.714535 0.18058 0
M  V30 2541 H 241.522 1.88577 -0.232091 0
M  V30 2542 H 239.672 3.5272 1.62851 0
M  V30 2543 H 241.344 4.5477 -0.77343 0
M  V30 2544 H 239.587 4.26441 -0.795652 0
M  V30 2545 H 240.258 5.51402 0.256815 0
M  V30 2546 H 242.734 3.93304 1.35834 0
M  V30 2547 H 241.61 5.0263 2.20578 0
M  V30 2548 H 241.871 3.40252 2.82279 0
M  V30 2549 N 240.93 -0.123565 1.57115 0
M  V30 2550 C 241.862 -1.17739 1.96648 0
M  V30 2551 C 242.875 -1.37906 0.865201 0
M  V30 2552 O 244.064 -1.37062 1.14351 0
M  V30 2553 C 241.164 -2.53821 2.24562 0
M  V30 2554 C 240.337 -2.54317 3.55867 0
M  V30 2555 C 239.396 -3.72112 3.72047 0
M  V30 2556 O 238.422 -3.55907 4.44206 0
M  V30 2557 N 239.624 -4.90498 3.10471 0
M  V30 2558 H 242.389 -0.841147 2.87654 0
M  V30 2559 H 239.95 -0.31289 1.58848 0
M  V30 2560 H 241.942 -3.31175 2.32606 0
M  V30 2561 H 240.512 -2.79645 1.39705 0
M  V30 2562 H 239.732 -1.62711 3.59053 0
M  V30 2563 H 241.02 -2.51701 4.42181 0
M  V30 2564 H 240.418 -5.06567 2.51806 0
M  V30 2565 H 238.975 -5.65544 3.24043 0
M  V30 2566 N 242.408 -1.52605 -0.393616 0
M  V30 2567 C 243.656 -1.67093 -1.13685 0
M  V30 2568 C 243.977 -0.411011 -1.90619 0
M  V30 2569 O 243.247 0.574491 -1.87287 0
M  V30 2570 H 241.827 -0.615923 -0.422668 0
M  V30 2571 H 244.489 -1.89704 -0.447039 0
M  V30 2572 H 243.585 -2.51922 -1.84232 0
M  V30 2573 N 243.887 0.651787 -1.4349 0
M  V30 2574 C 244.797 1.79368 -1.5121 0
M  V30 2575 C 245.813 1.69361 -0.399093 0
M  V30 2576 O 246.989 1.90505 -0.653431 0
M  V30 2577 C 244.054 3.15653 -1.43401 0
M  V30 2578 C 243.115 3.37446 -2.65384 0
M  V30 2579 C 242.348 4.67229 -2.57939 0
M  V30 2580 O 242.571 5.46676 -1.62792 0
M  V30 2581 O 241.505 4.90773 -3.48462 0
M  V30 2582 H 245.331 1.7581 -2.47638 0
M  V30 2583 H 242.916 0.810447 -1.25507 0
M  V30 2584 H 244.798 3.96935 -1.41494 0
M  V30 2585 H 243.473 3.19798 -0.501085 0
M  V30 2586 H 242.38 2.55923 -2.72863 0
M  V30 2587 H 243.713 3.38148 -3.57654 0
M  V30 2588 N 245.365 1.30045 0.890287 0
M  V30 2589 C 246.275 1.17885 2.02831 0
M  V30 2590 C 247.291 0.0999609 1.73713 0
M  V30 2591 O 248.467 0.313867 1.98939 0
M  V30 2592 C 245.532 0.866079 3.35708 0
M  V30 2593 C 244.593 2.02979 3.78283 0
M  V30 2594 C 243.826 1.73184 5.0482 0
M  V30 2595 O 244.049 0.657237 5.66601 0
M  V30 2596 O 242.983 2.58267 5.43674 0
M  V30 2597 H 246.809 2.13474 2.16015 0
M  V30 2598 H 244.394 1.09587 1.01543 0
M  V30 2599 H 246.276 0.706623 4.15433 0
M  V30 2600 H 244.951 -0.0599443 3.23644 0
M  V30 2601 H 243.858 2.24454 2.99285 0
M  V30 2602 H 245.191 2.93734 3.94944 0
M  V30 2603 N 246.843 -1.10192 1.12674 0
M  V30 2604 C 248.068 -1.86523 0.906853 0
M  V30 2605 C 248.493 -1.80221 -0.538711 0
M  V30 2606 O 247.851 -1.17396 -1.38158 0
M  V30 2607 C 247.899 -3.32758 1.3894 0
M  V30 2608 O 247.003 -4.08449 0.5695 0
M  V30 2609 H 246.344 -0.578678 0.325619 0
M  V30 2610 H 248.874 -1.39203 1.49946 0
M  V30 2611 H 248.884 -3.83608 1.38958 0
M  V30 2612 H 247.559 -3.36661 2.44197 0
M  V30 2613 H 246.136 -3.67427 0.636528 0
M  V30 2614 N 248.321 -0.919034 -1.28029 0
M  V30 2615 C 249.269 -0.401753 -2.29104 0
M  V30 2616 C 250.263 0.509354 -1.61561 0
M  V30 2617 O 251.469 0.390014 -1.75724 0
M  V30 2618 H 247.844 -0.111331 -0.743713 0
M  V30 2619 H 249.815 -1.2672 -2.70156 0
M  V30 2620 C 248.564 0.338148 -3.46052 0
M  V30 2621 H 247.887 -0.353732 -3.98232 0
M  V30 2622 H 249.327 0.664653 -4.18758 0
M  V30 2623 C 247.786 1.54798 -2.99231 0
M  V30 2624 O 248.316 2.64696 -3.02157 0
M  V30 2625 N 246.522 1.3968 -2.54829 0
M  V30 2626 H 246.069 0.502698 -2.52647 0
M  V30 2627 H 246.027 2.20755 -2.23863 0
M  V30 2628 N 249.799 1.42003 -0.683588 0
M  V30 2629 C 251.076 1.95112 -0.138075 0
M  V30 2630 C 251.456 1.62359 1.34918 0
M  V30 2631 O 250.804 0.924311 2.08971 0
M  V30 2632 C 251.014 3.46505 -0.416581 0
M  V30 2633 C 252.362 4.23254 -0.337834 0
M  V30 2634 O 253.386 3.54468 -0.35082 0
M  V30 2635 O 252.245 5.45743 -0.287596 0
M  V30 2636 H 249.339 0.826961 -0.00797996 0
M  V30 2637 H 251.885 1.51784 -0.758924 0
M  V30 2638 H 250.657 3.63582 -1.4465 0
M  V30 2639 H 250.28 3.969 0.235839 0
M  V30 2640 N 251.277 0.427512 1.51691 0
M  V30 2641 C 252.224 -0.388867 2.275 0
M  V30 2642 C 253.194 -1.02532 1.30677 0
M  V30 2643 O 254.379 -1.0461 1.59566 0
M  V30 2644 C 251.519 -1.48954 3.11298 0
M  V30 2645 C 250.632 -0.872194 4.23104 0
M  V30 2646 C 249.767 -1.94709 4.94228 0
M  V30 2647 C 248.806 -1.30766 5.97969 0
M  V30 2648 N 247.943 -2.32349 6.62539 0
M  V30 2649 H 252.783 0.263997 2.96828 0
M  V30 2650 H 250.32 0.142033 1.46413 0
M  V30 2651 H 252.278 -2.13887 3.58201 0
M  V30 2652 H 250.908 -2.11217 2.44105 0
M  V30 2653 H 249.96 -0.111419 3.80237 0
M  V30 2654 H 251.272 -0.365264 4.97461 0
M  V30 2655 H 250.426 -2.67327 5.44629 0
M  V30 2656 H 249.165 -2.48773 4.1948 0
M  V30 2657 H 248.17 -0.566902 5.4687 0
M  V30 2658 H 249.395 -0.774483 6.74669 0
M  V30 2659 H 247.341 -2.85511 5.90609 0
M  V30 2660 H 247.258 -1.8652 7.3263 0
M  V30 2661 H 248.526 -3.04481 7.17574 0
M  V30 2662 N 252.755 -1.56801 0.158532 0
M  V30 2663 C 254.004 -1.95665 -0.489702 0
M  V30 2664 C 254.317 -1.04654 -1.65248 0
M  V30 2665 O 255.523 -1.33146 -2.3661 0
M  V30 2666 C 253.979 -3.47874 -0.922582 0
M  V30 2667 C 253.587 -4.47489 0.213893 0
M  V30 2668 C 255.331 -3.95583 -1.53996 0
M  V30 2669 C 253.238 -5.90921 -0.237903 0
M  V30 2670 H 252.168 -0.730516 -0.186716 0
M  V30 2671 H 254.819 -1.81861 0.244722 0
M  V30 2672 H 253.201 -3.57051 -1.71261 0
M  V30 2673 H 254.375 -4.50017 0.991036 0
M  V30 2674 H 252.69 -4.09764 0.740407 0
M  V30 2675 H 255.287 -5.0019 -1.8898 0
M  V30 2676 H 255.63 -3.37789 -2.43319 0
M  V30 2677 H 256.163 -3.8937 -0.814611 0
M  V30 2678 H 252.902 -6.52559 0.620236 0
M  V30 2679 H 252.422 -5.91729 -0.980676 0
M  V30 2680 H 254.101 -6.43352 -0.686067 0
M  V30 2681 N 254.233 0.115231 -1.57178 0
M  V30 2682 C 255.644 0.67197 -1.74188 0
M  V30 2683 C 255.995 1.80125 -0.777777 0
M  V30 2684 O 255.12 2.16346 0.0484376 0
M  V30 2685 C 255.715 1.22573 -3.1585 0
M  V30 2686 C 254.274 1.72872 -3.34353 0
M  V30 2687 C 253.421 0.629972 -2.70049 0
M  V30 2688 H 256.372 -0.110712 -1.58313 0
M  V30 2689 H 256.393 2.09535 -3.17609 0
M  V30 2690 H 255.905 0.403598 -3.85996 0
M  V30 2691 H 254.006 2.5755 -2.69256 0
M  V30 2692 H 254.119 1.83557 -4.42542 0
M  V30 2693 H 252.483 1.0645 -2.31388 0
M  V30 2694 H 253.266 -0.181241 -3.42821 0
M  V30 2695 N 255.711 1.52812 0.385517 0
M  V30 2696 C 256.957 1.68275 1.13188 0
M  V30 2697 C 257.29 0.423179 1.89533 0
M  V30 2698 O 256.565 -0.579113 1.85679 0
M  V30 2699 C 256.848 2.92001 2.1073 0
M  V30 2700 C 256.701 4.28067 1.38125 0
M  V30 2701 C 258.02 3.11283 3.11113 0
M  V30 2702 H 255.139 0.612352 0.410115 0
M  V30 2703 H 257.781 1.85415 0.414869 0
M  V30 2704 H 255.931 2.77519 2.71874 0
M  V30 2705 H 257.603 4.54324 0.799187 0
M  V30 2706 H 255.846 4.28388 0.683092 0
M  V30 2707 H 256.517 5.10733 2.09417 0
M  V30 2708 H 258.993 3.2482 2.6006 0
M  V30 2709 H 257.869 3.99325 3.76605 0
M  V30 2710 H 258.13 2.25656 3.80173 0
M  V30 2711 N 257.189 -0.644168 1.43834 0
M  V30 2712 C 258.152 -1.73857 1.49353 0
M  V30 2713 C 259.152 -1.56315 0.377112 0
M  V30 2714 O 260.342 -1.62048 0.639226 0
M  V30 2715 C 257.474 -3.12819 1.35488 0
M  V30 2716 H 258.667 -1.70342 2.46827 0
M  V30 2717 H 256.22 -0.856652 1.30733 0
M  V30 2718 H 256.955 -3.2194 0.390569 0
M  V30 2719 H 256.74 -3.26958 2.16428 0
M  V30 2720 H 258.23 -3.92606 1.42302 0
M  V30 2721 N 258.668 -1.30515 -0.883378 0
M  V30 2722 C 259.598 -1.19607 -2.00541 0
M  V30 2723 C 260.579 -0.086346 -1.69881 0
M  V30 2724 O 261.764 -0.268654 -1.92333 0
M  V30 2725 C 258.894 -0.888758 -3.35736 0
M  V30 2726 C 257.848 -1.95659 -3.8066 0
M  V30 2727 C 257.174 -1.50224 -5.13164 0
M  V30 2728 C 258.474 -3.36788 -3.99213 0
M  V30 2729 H 260.168 -2.13476 -2.09925 0
M  V30 2730 H 257.714 -1.02775 -1.00863 0
M  V30 2731 H 259.667 -0.799094 -4.13754 0
M  V30 2732 H 258.391 0.0856125 -3.26488 0
M  V30 2733 H 257.05 -2.03591 -3.04871 0
M  V30 2734 H 256.698 -0.516092 -5.00345 0
M  V30 2735 H 256.398 -2.2165 -5.44192 0
M  V30 2736 H 257.922 -1.42639 -5.93706 0
M  V30 2737 H 259.336 -3.31605 -4.67665 0
M  V30 2738 H 257.733 -4.06314 -4.41621 0
M  V30 2739 H 258.803 -3.78561 -3.03017 0
M  V30 2740 N 260.146 1.09593 -1.13257 0
M  V30 2741 C 261.394 1.81375 -0.891492 0
M  V30 2742 C 261.715 1.86049 0.584009 0
M  V30 2743 O 260.985 1.34481 1.42449 0
M  V30 2744 H 259.565 0.671708 -0.326828 0
M  V30 2745 H 262.227 1.3256 -1.42877 0
M  V30 2746 H 261.323 2.84612 -1.28071 0
M  V30 2747 N 261.624 0.925811 1.2754 0
M  V30 2748 C 262.554 0.440748 2.29303 0
M  V30 2749 C 263.535 -0.497971 1.62648 0
M  V30 2750 O 264.72 -0.403126 1.8997 0
M  V30 2751 C 261.85 -0.309048 3.45922 0
M  V30 2752 C 260.804 0.54166 4.24559 0
M  V30 2753 C 260.13 -0.337191 5.33636 0
M  V30 2754 C 261.43 1.80516 4.90114 0
M  V30 2755 H 263.124 1.29121 2.70126 0
M  V30 2756 H 260.67 0.622323 1.29858 0
M  V30 2757 H 262.623 -0.659315 4.1621 0
M  V30 2758 H 261.347 -1.19352 3.04011 0
M  V30 2759 H 260.006 0.874609 3.56014 0
M  V30 2760 H 259.654 -1.22056 4.87966 0
M  V30 2761 H 259.354 0.228497 5.87156 0
M  V30 2762 H 260.878 -0.683072 6.06767 0
M  V30 2763 H 262.292 1.52307 5.52698 0
M  V30 2764 H 260.689 2.3142 5.53683 0
M  V30 2765 H 261.759 2.52581 4.13921 0
M  V30 2766 N 263.102 -1.41638 0.69111 0
M  V30 2767 C 264.049 -2.30789 0.0229705 0
M  V30 2768 C 265.019 -1.46863 -0.775911 0
M  V30 2769 O 266.204 -1.75661 -0.74485 0
M  V30 2770 C 263.344 -3.32868 -0.910666 0
M  V30 2771 C 262.457 -4.31875 -0.103874 0
M  V30 2772 C 261.592 -5.21024 -1.03475 0
M  V30 2773 C 260.631 -6.11702 -0.220598 0
M  V30 2774 N 259.768 -6.93349 -1.10504 0
M  V30 2775 H 264.608 -2.87366 0.788978 0
M  V30 2776 H 262.145 -1.41535 0.400794 0
M  V30 2777 H 264.103 -3.90596 -1.46597 0
M  V30 2778 H 262.733 -2.77851 -1.64312 0
M  V30 2779 H 261.785 -3.76131 0.568285 0
M  V30 2780 H 263.097 -4.96003 0.527504 0
M  V30 2781 H 262.251 -5.83565 -1.65943 0
M  V30 2782 H 260.99 -4.57112 -1.69999 0
M  V30 2783 H 259.995 -5.48215 0.417187 0
M  V30 2784 H 261.22 -6.77668 0.440784 0
M  V30 2785 H 259.166 -6.3205 -1.75638 0
M  V30 2786 H 259.083 -7.54146 -0.529125 0
M  V30 2787 H 260.351 -7.60362 -1.71667 0
M  V30 2788 N 264.58 -0.43555 -1.51462 0
M  V30 2789 C 265.49 0.383001 -2.31453 0
M  V30 2790 C 266.506 1.02931 -1.4029 0
M  V30 2791 O 267.682 1.02507 -1.73362 0
M  V30 2792 C 264.747 1.47043 -3.13973 0
M  V30 2793 C 263.808 0.844433 -4.20913 0
M  V30 2794 C 263.041 1.88004 -4.9949 0
M  V30 2795 O 263.264 3.10199 -4.78678 0
M  V30 2796 O 262.198 1.47157 -5.83634 0
M  V30 2797 H 266.024 -0.269964 -3.02498 0
M  V30 2798 H 263.609 -0.19813 -1.4808 0
M  V30 2799 H 265.491 2.10113 -3.65281 0
M  V30 2800 H 264.166 2.10751 -2.45695 0
M  V30 2801 H 263.073 0.175729 -3.73687 0
M  V30 2802 H 264.406 0.250869 -4.9156 0
M  V30 2803 N 266.058 1.56714 -0.166846 0
M  V30 2804 C 267.005 2.17746 0.765193 0
M  V30 2805 C 267.975 1.11614 1.23011 0
M  V30 2806 O 269.16 1.39745 1.29908 0
M  V30 2807 C 266.3 2.81882 1.9909 0
M  V30 2808 C 265.413 4.02462 1.56997 0
M  V30 2809 C 264.548 4.54537 2.749 0
M  V30 2810 C 263.587 5.67538 2.29275 0
M  V30 2811 N 262.724 6.14142 3.40255 0
M  V30 2812 H 267.564 2.97048 0.237952 0
M  V30 2813 H 265.101 1.4672 0.105725 0
M  V30 2814 H 267.059 3.17221 2.70974 0
M  V30 2815 H 265.689 2.05191 2.49192 0
M  V30 2816 H 264.741 3.72973 0.748037 0
M  V30 2817 H 266.053 4.84273 1.19503 0
M  V30 2818 H 265.207 4.92035 3.54946 0
M  V30 2819 H 263.946 3.71774 3.1565 0
M  V30 2820 H 262.951 5.29597 1.47674 0
M  V30 2821 H 264.176 6.52099 1.89588 0
M  V30 2822 H 262.122 5.3431 3.8059 0
M  V30 2823 H 262.039 6.9093 3.06841 0
M  V30 2824 H 263.307 6.56289 4.206 0
M  V30 2825 N 267.536 -0.106894 1.57237 0
M  V30 2826 C 268.484 -1.14944 2.02215 0
M  V30 2827 C 269.478 -1.42167 0.92114 0
M  V30 2828 O 270.684 -1.41987 1.10634 0
M  V30 2829 H 267.059 -0.387841 0.64427 0
M  V30 2830 H 269.03 -0.743683 2.88984 0
M  V30 2831 C 267.779 -2.4647 2.4525 0
M  V30 2832 H 267.102 -2.26363 3.29545 0
M  V30 2833 H 268.542 -3.17948 2.80508 0
M  V30 2834 C 267.001 -3.09921 1.321 0
M  V30 2835 O 267.531 -3.9651 0.643622 0
M  V30 2836 N 265.737 -2.69986 1.07497 0
M  V30 2837 H 265.284 -1.99667 1.62761 0
M  V30 2838 H 265.242 -3.12769 0.319876 0
M  V30 2839 N 269.014 -1.53014 -0.377408 0
M  V30 2840 C 269.944 -1.81589 -1.46791 0
M  V30 2841 C 270.925 -0.668622 -1.56408 0
M  V30 2842 O 272.11 -0.917337 -1.71168 0
M  V30 2843 C 269.24 -1.99519 -2.8427 0
M  V30 2844 C 268.194 -3.15249 -2.89486 0
M  V30 2845 C 267.52 -3.18451 -4.29527 0
M  V30 2846 C 268.82 -4.54084 -2.58079 0
M  V30 2847 H 270.514 -2.7291 -1.23127 0
M  V30 2848 H 268.06 -1.31319 -0.590883 0
M  V30 2849 H 270.013 -2.18092 -3.60575 0
M  V30 2850 H 268.737 -1.04897 -3.09296 0
M  V30 2851 H 267.396 -2.96477 -2.15631 0
M  V30 2852 H 267.044 -2.2149 -4.5161 0
M  V30 2853 H 266.744 -3.962 -4.33934 0
M  V30 2854 H 268.268 -3.39193 -5.07721 0
M  V30 2855 H 269.682 -4.72899 -3.24098 0
M  V30 2856 H 268.079 -5.33987 -2.7382 0
M  V30 2857 H 269.149 -4.60006 -1.53372 0
M  V30 2858 N 270.492 0.636531 -1.44174 0
M  V30 2859 C 271.722 1.42146 -1.49927 0
M  V30 2860 C 272.13 1.88812 -0.121063 0
M  V30 2861 O 271.473 1.61126 0.882267 0
M  V30 2862 C 271.535 2.67883 -2.39748 0
M  V30 2863 C 271.199 2.43048 -3.8701 0
M  V30 2864 C 272.196 2.05216 -4.77684 0
M  V30 2865 C 269.881 2.56856 -4.3166 0
M  V30 2866 C 271.875 1.81512 -6.11009 0
M  V30 2867 C 269.562 2.32766 -5.65034 0
M  V30 2868 C 270.56 1.95152 -6.54526 0
M  V30 2869 O 270.248 1.71326 -7.85431 0
M  V30 2870 H 269.98 0.442567 -0.51099 0
M  V30 2871 H 272.534 0.786158 -1.8976 0
M  V30 2872 H 270.764 3.34032 -1.94832 0
M  V30 2873 H 272.453 3.29874 -2.36513 0
M  V30 2874 H 273.219 1.94111 -4.44462 0
M  V30 2875 H 269.098 2.85104 -3.62266 0
M  V30 2876 H 272.642 1.52077 -6.80822 0
M  V30 2877 H 268.539 2.43479 -5.97819 0
M  V30 2878 H 269.307 1.85616 -7.97176 0
M  V30 2879 N 271.97 1.30982 0.876444 0
M  V30 2880 C 272.9 1.20668 1.99903 0
M  V30 2881 C 273.881 0.095354 1.69833 0
M  V30 2882 O 275.066 0.27885 1.92188 0
M  V30 2883 C 272.196 0.90655 3.3526 0
M  V30 2884 C 271.15 1.97675 3.79617 0
M  V30 2885 C 270.476 1.52943 5.1236 0
M  V30 2886 C 271.776 3.389 3.97422 0
M  V30 2887 H 273.47 2.14586 2.0879 0
M  V30 2888 H 271.016 1.03308 1.00317 0
M  V30 2889 H 272.969 0.821025 4.13324 0
M  V30 2890 H 271.693 -0.0682969 3.26529 0
M  V30 2891 H 270.352 2.05205 3.03787 0
M  V30 2892 H 270 0.54262 5.00065 0
M  V30 2893 H 269.7 2.24532 5.43009 0
M  V30 2894 H 271.224 1.45786 5.92941 0
M  V30 2895 H 272.638 3.34081 4.659 0
M  V30 2896 H 271.035 4.0865 4.3946 0
M  V30 2897 H 272.105 3.80163 3.01006 0
M  V30 2898 N 273.449 -1.08991 1.13837 0
M  V30 2899 C 274.674 -1.85551 0.926585 0
M  V30 2900 C 275.099 -1.80782 -0.519566 0
M  V30 2901 O 274.457 -1.18855 -1.36906 0
M  V30 2902 C 274.505 -3.31266 1.42462 0
M  V30 2903 O 273.609 -4.07822 0.612789 0
M  V30 2904 H 272.95 -0.575192 0.331738 0
M  V30 2905 H 275.48 -1.37604 1.51414 0
M  V30 2906 H 275.49 -3.82112 1.43019 0
M  V30 2907 H 274.165 -3.34052 2.47754 0
M  V30 2908 H 272.742 -3.66731 0.675463 0
M  V30 2909 N 274.927 -0.932562 -1.27047 0
M  V30 2910 C 276.167 -0.582919 -1.95912 0
M  V30 2911 C 276.531 0.860629 -1.71631 0
M  V30 2912 O 277.732 1.31878 -2.34225 0
M  V30 2913 C 276.003 -0.905673 -3.45734 0
M  V30 2914 S 277.562 -0.665277 -4.33727 0
M  V30 2915 H 274.38 -0.215 -0.677714 0
M  V30 2916 H 276.982 -1.20204 -1.54179 0
M  V30 2917 H 275.686 -1.95386 -3.60905 0
M  V30 2918 H 275.217 -0.275939 -3.92431 0
M  V30 2919 H 277.232 0.474635 -4.93925 0
M  V30 2920 N 276.405 1.4127 -0.698611 0
M  V30 2921 C 277.651 2.01478 -0.231207 0
M  V30 2922 C 277.984 1.55215 1.16713 0
M  V30 2923 O 277.259 0.764672 1.78838 0
M  V30 2924 C 277.542 3.58912 -0.292281 0
M  V30 2925 C 277.395 4.15293 -1.72778 0
M  V30 2926 C 278.714 4.38736 0.346194 0
M  V30 2927 H 275.833 0.732025 -0.0854878 0
M  V30 2928 H 278.475 1.67977 -0.887906 0
M  V30 2929 H 276.625 3.87582 0.26686 0
M  V30 2930 H 278.297 3.97486 -2.341 0
M  V30 2931 H 276.54 3.7022 -2.26096 0
M  V30 2932 H 277.211 5.24452 -1.72202 0
M  V30 2933 H 279.687 4.15897 -0.130035 0
M  V30 2934 H 278.563 5.48221 0.272932 0
M  V30 2935 H 278.824 4.18425 1.42734 0
M  V30 2936 N 277.883 0.443576 1.51229 0
M  V30 2937 C 278.813 -0.355142 2.30783 0
M  V30 2938 C 279.794 -1.0154 1.36468 0
M  V30 2939 O 280.979 -1.01785 1.65389 0
M  V30 2940 C 278.109 -1.45312 3.15439 0
M  V30 2941 C 277.063 -0.916002 4.18083 0
M  V30 2942 C 276.389 -2.1102 4.91299 0
M  V30 2943 C 277.689 0.0538602 5.22272 0
M  V30 2944 H 279.383 0.308767 2.97804 0
M  V30 2945 H 276.929 0.149937 1.43217 0
M  V30 2946 H 278.882 -2.01914 3.69876 0
M  V30 2947 H 277.606 -2.14541 2.46252 0
M  V30 2948 H 276.265 -0.372145 3.64706 0
M  V30 2949 H 275.913 -2.78882 4.18609 0
M  V30 2950 H 275.613 -1.75717 5.60712 0
M  V30 2951 H 277.137 -2.68164 5.48562 0
M  V30 2952 H 278.551 -0.422069 5.71744 0
M  V30 2953 H 276.948 0.319776 5.99247 0
M  V30 2954 H 278.018 0.98858 4.74716 0
M  V30 2955 N 279.361 -1.56624 0.175154 0
M  V30 2956 C 280.308 -2.18149 -0.753634 0
M  V30 2957 C 281.278 -1.12265 -1.22417 0
M  V30 2958 O 282.463 -1.40432 -1.29165 0
M  V30 2959 C 279.603 -2.82933 -1.97592 0
M  V30 2960 C 278.716 -4.03289 -1.5486 0
M  V30 2961 C 277.851 -4.55988 -2.72485 0
M  V30 2962 C 276.89 -5.68746 -2.26262 0
M  V30 2963 N 276.027 -6.15938 -3.36994 0
M  V30 2964 H 280.867 -2.9717 -0.222195 0
M  V30 2965 H 278.404 -1.46774 -0.0979422 0
M  V30 2966 H 280.362 -3.18653 -2.69288 0
M  V30 2967 H 278.992 -2.06509 -2.481 0
M  V30 2968 H 278.044 -3.73364 -0.728246 0
M  V30 2969 H 279.356 -4.849 -1.16933 0
M  V30 2970 H 278.51 -4.9391 -3.52332 0
M  V30 2971 H 277.249 -3.73443 -3.13674 0
M  V30 2972 H 276.254 -5.30372 -1.44863 0
M  V30 2973 H 277.479 -6.53095 -1.86127 0
M  V30 2974 H 275.425 -5.36321 -3.77751 0
M  V30 2975 H 275.342 -6.92548 -3.03172 0
M  V30 2976 H 276.61 -6.58511 -4.17114 0
M  V30 2977 N 280.839 0.0985539 -1.57292 0
M  V30 2978 C 282.116 0.834155 -1.76921 0
M  V30 2979 C 282.496 1.97101 -0.755928 0
M  V30 2980 O 281.844 2.27474 0.216245 0
M  V30 2981 C 282.054 1.33194 -3.22584 0
M  V30 2982 C 283.402 1.77611 -3.85668 0
M  V30 2983 O 284.426 1.42825 -3.26312 0
M  V30 2984 O 283.285 2.4192 -4.90038 0
M  V30 2985 H 280.379 0.397628 -0.725135 0
M  V30 2986 H 282.925 0.0807044 -1.69508 0
M  V30 2987 H 281.697 0.517248 -3.87866 0
M  V30 2988 H 281.32 2.1475 -3.34616 0
M  V30 2989 N 282.317 1.53212 0.369288 0
M  V30 2990 C 283.594 1.59815 1.12776 0
M  V30 2991 C 283.974 0.403402 2.0721 0
M  V30 2992 O 283.322 -0.606667 2.20299 0
M  V30 2993 C 283.532 2.94664 1.87013 0
M  V30 2994 C 284.88 3.49109 2.41677 0
M  V30 2995 O 285.904 2.96669 1.97144 0
M  V30 2996 O 284.763 4.40775 3.23079 0
M  V30 2997 H 281.857 0.645376 0.517125 0
M  V30 2998 H 284.403 1.65553 0.37285 0
M  V30 2999 H 283.175 3.73061 1.18071 0
M  V30 3000 H 282.798 2.92401 2.69421 0
M  V30 3001 N 283.795 -0.628877 1.44509 0
M  V30 3002 C 284.742 -1.74074 1.51549 0
M  V30 3003 C 285.712 -1.62084 0.363021 0
M  V30 3004 O 286.897 -1.81975 0.573567 0
M  V30 3005 C 284.037 -3.12328 1.46784 0
M  V30 3006 C 283.15 -3.35277 2.72422 0
M  V30 3007 C 282.285 -4.63515 2.59475 0
M  V30 3008 C 281.324 -4.7965 3.80266 0
M  V30 3009 N 280.461 -5.99168 3.65981 0
M  V30 3010 H 285.301 -1.67392 2.46544 0
M  V30 3011 H 282.838 -0.816527 1.22357 0
M  V30 3012 H 284.796 -3.92286 1.42012 0
M  V30 3013 H 283.426 -3.18018 0.553544 0
M  V30 3014 H 282.478 -2.49242 2.87372 0
M  V30 3015 H 283.79 -3.43078 3.62076 0
M  V30 3016 H 282.944 -5.51638 2.52548 0
M  V30 3017 H 281.683 -4.58076 1.67384 0
M  V30 3018 H 280.688 -3.89957 3.87574 0
M  V30 3019 H 281.913 -4.86902 4.73395 0
M  V30 3020 H 279.859 -5.94814 2.76644 0
M  V30 3021 H 279.776 -6.08035 4.49254 0
M  V30 3022 H 281.044 -6.89846 3.6295 0
M  V30 3023 N 285.273 -1.31445 -0.869486 0
M  V30 3024 C 286.684 -1.19042 -1.43826 0
M  V30 3025 C 287.035 0.202919 -1.95148 0
M  V30 3026 O 286.16 1.10071 -1.86315 0
M  V30 3027 C 286.755 -2.15499 -2.6143 0
M  V30 3028 C 285.314 -2.07028 -3.14351 0
M  V30 3029 C 284.461 -2.04701 -1.87063 0
M  V30 3030 H 287.412 -1.43489 -0.677984 0
M  V30 3031 H 287.433 -1.74488 -3.38134 0
M  V30 3032 H 286.945 -3.16899 -2.24046 0
M  V30 3033 H 285.046 -1.08825 -3.56354 0
M  V30 3034 H 285.159 -2.96157 -3.766 0
M  V30 3035 H 283.523 -1.49724 -2.06046 0
M  V30 3036 H 284.306 -3.07857 -1.51917 0
M  V30 3037 N 286.751 1.08385 -1.14413 0
M  V30 3038 C 287.979 1.84517 -0.936001 0
M  V30 3039 C 288.394 1.81626 0.515503 0
M  V30 3040 O 287.751 1.22008 1.35721 0
M  V30 3041 C 287.802 3.32049 -1.42918 0
M  V30 3042 O 287.523 3.34951 -2.82381 0
M  V30 3043 C 289.024 4.24986 -1.26103 0
M  V30 3044 H 286.244 0.582491 -0.333084 0
M  V30 3045 H 288.788 1.36885 -1.5193 0
M  V30 3046 H 286.943 3.7707 -0.888641 0
M  V30 3047 H 287.357 4.27048 -3.04517 0
M  V30 3048 H 288.831 5.26615 -1.6547 0
M  V30 3049 H 289.308 4.38726 -0.20392 0
M  V30 3050 H 289.914 3.85791 -1.79012 0
M  V30 3051 N 288.23 0.939286 1.26551 0
M  V30 3052 C 289.16 0.465044 2.28822 0
M  V30 3053 C 290.141 -0.480692 1.63167 0
M  V30 3054 O 291.326 -0.382955 1.90387 0
M  V30 3055 C 288.456 -0.27234 3.46231 0
M  V30 3056 C 287.41 0.58666 4.2396 0
M  V30 3057 C 286.736 -0.280573 5.33963 0
M  V30 3058 C 288.036 1.85704 4.88171 0
M  V30 3059 H 289.73 1.31979 2.68741 0
M  V30 3060 H 287.276 0.636061 1.29191 0
M  V30 3061 H 289.229 -0.615133 4.16886 0
M  V30 3062 H 287.953 -1.16121 3.0526 0
M  V30 3063 H 286.612 0.91232 3.55067 0
M  V30 3064 H 286.26 -1.16874 4.89234 0
M  V30 3065 H 285.96 0.29076 5.8688 0
M  V30 3066 H 287.484 -0.618678 6.07458 0
M  V30 3067 H 288.898 1.58161 5.51052 0
M  V30 3068 H 287.295 2.37279 5.51197 0
M  V30 3069 H 288.365 2.56957 4.11219 0
M  V30 3070 N 289.708 -1.40897 0.706093 0
M  V30 3071 C 290.64 -2.29199 0.00815776 0
M  V30 3072 C 291.653 -1.45336 -0.733582 0
M  V30 3073 O 292.842 -1.68727 -0.582537 0
M  V30 3074 C 289.942 -3.23417 -1.01265 0
M  V30 3075 C 289.115 -4.36089 -0.338387 0
M  V30 3076 C 288.174 -5.10811 -1.26326 0
M  V30 3077 O 287.2 -5.64215 -0.751651 0
M  V30 3078 N 288.402 -5.19269 -2.595 0
M  V30 3079 H 291.167 -2.89738 0.766297 0
M  V30 3080 H 288.728 -1.52164 0.55296 0
M  V30 3081 H 290.72 -3.70276 -1.63334 0
M  V30 3082 H 289.29 -2.64112 -1.67223 0
M  V30 3083 H 288.51 -3.91479 0.462352 0
M  V30 3084 H 289.798 -5.08634 0.130031 0
M  V30 3085 H 289.196 -4.77347 -3.03573 0
M  V30 3086 H 287.753 -5.69667 -3.16737 0
M  V30 3087 N 291.186 -0.45159 -1.50991 0
M  V30 3088 C 292.116 0.342898 -2.30969 0
M  V30 3089 C 293.097 1.00815 -1.37005 0
M  V30 3090 O 294.282 1.00907 -1.65926 0
M  V30 3091 C 291.412 1.43637 -3.16205 0
M  V30 3092 C 290.366 0.893818 -4.18563 0
M  V30 3093 C 289.692 2.08411 -4.92411 0
M  V30 3094 C 290.992 -0.0815568 -5.22236 0
M  V30 3095 H 292.686 -0.324556 -2.97636 0
M  V30 3096 H 290.232 -0.157531 -1.43136 0
M  V30 3097 H 292.185 1.9995 -3.70942 0
M  V30 3098 H 290.909 2.13232 -2.47386 0
M  V30 3099 H 289.568 0.352798 -3.64898 0
M  V30 3100 H 289.216 2.76658 -4.20082 0
M  V30 3101 H 288.916 1.72741 -5.61636 0
M  V30 3102 H 290.44 2.65251 -5.49976 0
M  V30 3103 H 291.854 0.391742 -5.7196 0
M  V30 3104 H 290.251 -0.351551 -5.99069 0
M  V30 3105 H 291.321 -1.01374 -4.74185 0
M  V30 3106 N 292.664 1.56529 -0.183458 0
M  V30 3107 C 293.574 2.22144 0.754272 0
M  V30 3108 C 294.59 1.21684 1.24374 0
M  V30 3109 O 295.766 1.54385 1.29333 0
M  V30 3110 C 292.831 2.85884 1.96141 0
M  V30 3111 C 291.892 4.01579 1.51765 0
M  V30 3112 C 291.125 4.6227 2.66725 0
M  V30 3113 O 291.348 4.21865 3.83909 0
M  V30 3114 O 290.282 5.51936 2.40104 0
M  V30 3115 H 294.108 3.02861 0.225527 0
M  V30 3116 H 291.693 1.49331 0.0453032 0
M  V30 3117 H 293.575 3.26253 2.66715 0
M  V30 3118 H 292.25 2.08154 2.47899 0
M  V30 3119 H 291.157 3.65856 0.781049 0
M  V30 3120 H 292.49 4.80938 1.04686 0
M  V30 3121 N 294.142 -0.090211 1.57342 0
M  V30 3122 C 295.367 -0.810082 1.90925 0
M  V30 3123 C 295.792 -1.71248 0.778187 0
M  V30 3124 O 295.15 -1.79278 -0.269991 0
M  V30 3125 C 295.198 -1.59529 3.23393 0
M  V30 3126 O 294.302 -2.70461 3.11327 0
M  V30 3127 H 293.643 -0.222231 0.625707 0
M  V30 3128 H 296.173 -0.0639716 2.045 0
M  V30 3129 H 296.183 -1.97847 3.5682 0
M  V30 3130 H 294.858 -0.933055 4.05299 0
M  V30 3131 H 293.435 -2.35135 2.89423 0
M  V30 3132 N 295.62 -1.53406 -0.361157 0
M  V30 3133 C 296.866 -1.70054 -1.10496 0
M  V30 3134 C 297.199 -0.453278 -1.88836 0
M  V30 3135 O 296.474 0.5495 -1.86576 0
M  V30 3136 C 296.757 -2.95317 -2.06058 0
M  V30 3137 C 296.61 -4.3021 -1.31298 0
M  V30 3138 C 297.929 -3.16193 -3.06121 0
M  V30 3139 H 295.048 -0.618799 -0.400321 0
M  V30 3140 H 297.69 -1.86052 -0.385318 0
M  V30 3141 H 295.84 -2.81809 -2.67425 0
M  V30 3142 H 297.512 -4.55538 -0.726807 0
M  V30 3143 H 295.755 -4.29421 -0.614853 0
M  V30 3144 H 296.426 -5.14 -2.01265 0
M  V30 3145 H 298.902 -3.28916 -2.5486 0
M  V30 3146 H 297.778 -4.05266 -3.70204 0
M  V30 3147 H 298.039 -2.31676 -3.76535 0
M  V30 3148 N 297.098 0.621204 -1.44841 0
M  V30 3149 C 298.375 1.38 -1.38619 0
M  V30 3150 C 298.755 2.11041 -0.0498935 0
M  V30 3151 O 298.103 2.06992 0.967816 0
M  V30 3152 C 298.313 2.33817 -2.59096 0
M  V30 3153 C 299.661 2.96844 -3.03593 0
M  V30 3154 O 300.685 2.44141 -2.59371 0
M  V30 3155 O 299.544 3.92476 -3.80296 0
M  V30 3156 H 296.638 0.61811 -0.549426 0
M  V30 3157 H 299.184 0.645429 -1.56947 0
M  V30 3158 H 297.956 1.79012 -3.47952 0
M  V30 3159 H 297.579 3.14676 -2.43032 0
M  V30 3160 N 298.576 1.31904 0.862503 0
M  V30 3161 C 299.987 1.19803 1.43193 0
M  V30 3162 C 300.338 -0.192567 1.95253 0
M  V30 3163 O 299.463 -1.09081 1.86896 0
M  V30 3164 C 300.058 2.16883 2.60283 0
M  V30 3165 C 298.617 2.08692 3.13248 0
M  V30 3166 C 297.764 2.05691 1.85975 0
M  V30 3167 H 300.715 1.43846 0.670365 0
M  V30 3168 H 300.736 1.76278 3.37204 0
M  V30 3169 H 300.248 3.18083 2.22363 0
M  V30 3170 H 298.349 1.10713 3.55771 0
M  V30 3171 H 298.462 2.9815 3.75025 0
M  V30 3172 H 296.826 1.50814 2.05249 0
M  V30 3173 H 297.609 3.08659 1.50282 0
M  V30 3174 N 300.054 -1.07777 1.14986 0
M  V30 3175 C 301.001 -2.14867 0.842672 0
M  V30 3176 C 301.971 -1.6486 -0.202552 0
M  V30 3177 O 303.156 -1.90668 -0.0710568 0
M  V30 3178 C 300.296 -3.43486 0.333363 0
M  V30 3179 C 299.409 -4.07306 1.43965 0
M  V30 3180 C 298.544 -5.23744 0.886914 0
M  V30 3181 C 297.583 -5.79517 1.97043 0
M  V30 3182 N 296.72 -6.87291 1.4344 0
M  V30 3183 H 301.56 -2.40485 1.75986 0
M  V30 3184 H 299.097 -1.1801 0.878179 0
M  V30 3185 H 301.055 -4.17195 0.0198163 0
M  V30 3186 H 299.685 -3.18133 -0.546916 0
M  V30 3187 H 298.737 -3.31293 1.86946 0
M  V30 3188 H 300.049 -4.44771 2.25788 0
M  V30 3189 H 299.203 -6.04419 0.525651 0
M  V30 3190 H 297.942 -4.87685 0.0377957 0
M  V30 3191 H 296.947 -4.97491 2.34057 0
M  V30 3192 H 298.172 -6.17632 2.82325 0
M  V30 3193 H 296.118 -6.5318 0.607567 0
M  V30 3194 H 296.035 -7.23617 2.18895 0
M  V30 3195 H 297.303 -7.71682 1.10124 0
M  V30 3196 N 301.532 -0.945985 -1.26051 0
M  V30 3197 C 302.48 -0.450259 -2.282 0
M  V30 3198 C 303.474 0.47497 -1.62605 0
M  V30 3199 O 304.68 0.352653 -1.76512 0
M  V30 3200 H 301.055 -0.127081 -0.741184 0
M  V30 3201 H 303.026 -1.32422 -2.67408 0
M  V30 3202 C 301.775 0.26467 -3.46691 0
M  V30 3203 H 301.098 -0.438123 -3.97392 0
M  V30 3204 H 302.538 0.575678 -4.20074 0
M  V30 3205 C 300.997 1.48416 -3.02447 0
M  V30 3206 O 301.527 2.58227 -3.07704 0
M  V30 3207 N 299.733 1.34243 -2.57735 0
M  V30 3208 H 299.28 0.448994 -2.53657 0
M  V30 3209 H 299.238 2.15957 -2.28495 0
M  V30 3210 N 303.011 1.40521 -0.713556 0
M  V30 3211 C 304.241 2.0494 -0.261395 0
M  V30 3212 C 304.649 1.53861 1.10107 0
M  V30 3213 O 303.992 0.689321 1.70276 0
M  V30 3214 C 304.054 3.59138 -0.161227 0
M  V30 3215 C 303.718 4.33096 -1.45865 0
M  V30 3216 C 304.715 4.61182 -2.40016 0
M  V30 3217 C 302.4 4.72043 -1.71701 0
M  V30 3218 C 304.394 5.27196 -3.58251 0
M  V30 3219 C 302.081 5.37789 -2.90218 0
M  V30 3220 C 303.079 5.65295 -3.83315 0
M  V30 3221 O 302.767 6.29683 -4.99754 0
M  V30 3222 H 302.499 0.666041 -0.115608 0
M  V30 3223 H 305.053 1.80954 -0.971849 0
M  V30 3224 H 303.283 3.81936 0.605153 0
M  V30 3225 H 304.972 4.05091 0.256105 0
M  V30 3226 H 305.738 4.31559 -2.21318 0
M  V30 3227 H 301.617 4.50003 -1.00092 0
M  V30 3228 H 305.161 5.48582 -4.30934 0
M  V30 3229 H 301.058 5.66831 -3.08825 0
M  V30 3230 H 301.826 6.4818 -4.99805 0
M  V30 3231 N 304.489 0.459591 1.5075 0
M  V30 3232 C 305.9 0.00171547 1.867 0
M  V30 3233 C 306.251 -1.39934 1.37525 0
M  V30 3234 O 305.376 -2.03523 0.735349 0
M  V30 3235 C 305.971 -0.00366298 3.388 0
M  V30 3236 C 304.53 -0.406026 3.74204 0
M  V30 3237 C 303.677 0.38673 2.7459 0
M  V30 3238 H 306.628 0.674413 1.43657 0
M  V30 3239 H 306.649 -0.808371 3.71814 0
M  V30 3240 H 306.161 1.01617 3.74561 0
M  V30 3241 H 304.262 -1.43063 3.4404 0
M  V30 3242 H 304.375 -0.115362 4.78961 0
M  V30 3243 H 302.739 -0.158019 2.54209 0
M  V30 3244 H 303.522 1.40585 3.13194 0
M  V30 3245 N 305.967 -1.56429 0.191757 0
M  V30 3246 C 306.914 -2.18936 -0.730454 0
M  V30 3247 C 307.884 -1.13557 -1.21219 0
M  V30 3248 O 309.069 -1.41794 -1.27668 0
M  V30 3249 C 306.209 -2.85013 -1.9458 0
M  V30 3250 C 305.322 -4.04909 -1.50574 0
M  V30 3251 C 304.457 -4.58853 -2.67634 0
M  V30 3252 C 303.496 -5.71114 -2.20217 0
M  V30 3253 N 302.633 -6.19478 -3.30442 0
M  V30 3254 H 307.473 -2.97389 -0.190664 0
M  V30 3255 H 305.01 -1.46869 -0.0823694 0
M  V30 3256 H 306.968 -3.21492 -2.65893 0
M  V30 3257 H 305.598 -2.09129 -2.45896 0
M  V30 3258 H 304.65 -3.74115 -0.688605 0
M  V30 3259 H 305.962 -4.86113 -1.11784 0
M  V30 3260 H 305.116 -4.97619 -3.47074 0
M  V30 3261 H 303.855 -3.76749 -3.09696 0
M  V30 3262 H 302.86 -5.31879 -1.3923 0
M  V30 3263 H 304.085 -6.55033 -1.79189 0
M  V30 3264 H 302.031 -5.40297 -3.72041 0
M  V30 3265 H 301.948 -6.95725 -2.9581 0
M  V30 3266 H 303.216 -6.62898 -4.10106 0
M  V30 3267 N 307.445 0.0818655 -1.57387 0
M  V30 3268 C 308.392 1.09834 -2.0299 0
M  V30 3269 C 309.362 1.39043 -0.908639 0
M  V30 3270 O 310.547 1.50282 -1.17559 0
M  V30 3271 C 307.687 2.40971 -2.47037 0
M  V30 3272 C 306.8 2.18379 -3.7274 0
M  V30 3273 C 305.935 3.43008 -4.0561 0
M  V30 3274 C 304.974 3.15736 -5.24383 0
M  V30 3275 N 304.111 4.32667 -5.52941 0
M  V30 3276 H 308.951 0.702472 -2.89602 0
M  V30 3277 H 306.488 0.33531 -1.43227 0
M  V30 3278 H 308.446 3.1752 -2.70623 0
M  V30 3279 H 307.076 2.78379 -1.63417 0
M  V30 3280 H 306.128 1.32569 -3.56552 0
M  V30 3281 H 307.44 1.94227 -4.59431 0
M  V30 3282 H 306.594 4.27958 -4.30043 0
M  V30 3283 H 305.333 3.70225 -3.17466 0
M  V30 3284 H 304.338 2.2918 -4.99757 0
M  V30 3285 H 305.563 2.8985 -6.14136 0
M  V30 3286 H 303.509 4.59935 -4.67756 0
M  V30 3287 H 303.426 4.11753 -6.34031 0
M  V30 3288 H 304.694 5.18644 -5.81918 0
M  V30 3289 N 308.923 1.53595 0.353017 0
M  V30 3290 C 309.87 1.80919 1.43308 0
M  V30 3291 C 310.84 0.654288 1.5267 0
M  V30 3292 O 312.025 0.897759 1.6836 0
M  V30 3293 C 309.165 2.01605 2.80089 0
M  V30 3294 C 308.278 3.29321 2.79593 0
M  V30 3295 C 307.413 3.40125 4.0803 0
M  V30 3296 C 306.452 4.61826 4.01725 0
M  V30 3297 N 305.589 4.69716 5.21834 0
M  V30 3298 H 310.429 2.73074 1.19308 0
M  V30 3299 H 307.966 1.35263 0.578131 0
M  V30 3300 H 309.924 2.11586 3.59565 0
M  V30 3301 H 308.554 1.12772 3.0246 0
M  V30 3302 H 307.606 3.28229 1.92276 0
M  V30 3303 H 308.918 4.18884 2.70809 0
M  V30 3304 H 308.072 3.49488 4.95927 0
M  V30 3305 H 306.811 2.48601 4.19582 0
M  V30 3306 H 305.816 4.52552 3.12213 0
M  V30 3307 H 307.041 5.54705 3.91764 0
M  V30 3308 H 304.987 3.81097 5.33948 0
M  V30 3309 H 304.904 5.53202 5.1527 0
M  V30 3310 H 306.172 4.83376 6.11529 0
M  V30 3311 N 310.401 -0.613514 1.45168 0
M  V30 3312 C 311.334 -1.73809 1.47871 0
M  V30 3313 C 312.312 -1.59097 0.33568 0
M  V30 3314 O 313.496 -1.8074 0.535299 0
M  V30 3315 C 310.623 -3.11574 1.32813 0
M  V30 3316 C 309.669 -3.4489 2.50905 0
M  V30 3317 S 310.502 -3.40393 4.13392 0
M  V30 3318 C 311.658 -4.80749 4.00789 0
M  V30 3319 H 311.891 -1.71252 2.43023 0
M  V30 3320 H 309.424 -0.789658 1.32679 0
M  V30 3321 H 311.382 -3.91065 1.24812 0
M  V30 3322 H 310.043 -3.11652 0.391418 0
M  V30 3323 H 309.236 -4.45183 2.36279 0
M  V30 3324 H 308.838 -2.72901 2.55736 0
M  V30 3325 H 311.13 -5.7041 3.65567 0
M  V30 3326 H 312.073 -5.00431 5.00974 0
M  V30 3327 H 312.481 -4.56151 3.32545 0
M  V30 3328 N 311.879 -1.3236 -0.855495 0
M  V30 3329 C 312.789 -1.23221 -1.99634 0
M  V30 3330 C 313.805 -0.145983 -1.73387 0
M  V30 3331 O 314.981 -0.366502 -1.98037 0
M  V30 3332 C 312.046 -0.954782 -3.33294 0
M  V30 3333 C 311.107 -2.12937 -3.72769 0
M  V30 3334 C 310.34 -1.86508 -5.00051 0
M  V30 3335 O 310.563 -0.807231 -5.64659 0
M  V30 3336 O 309.497 -2.72591 -5.36636 0
M  V30 3337 H 313.323 -2.19126 -2.1028 0
M  V30 3338 H 310.908 -1.12241 -0.986018 0
M  V30 3339 H 312.79 -0.816519 -4.13414 0
M  V30 3340 H 311.465 -0.0258854 -3.2369 0
M  V30 3341 H 310.372 -2.3231 -2.93228 0
M  V30 3342 H 311.705 -3.04102 -3.87018 0
M  V30 3343 N 313.357 1.07166 -1.15556 0
M  V30 3344 C 314.304 2.14417 -0.854055 0
M  V30 3345 C 315.274 1.64965 0.193806 0
M  V30 3346 O 316.459 1.90703 0.0609443 0
M  V30 3347 C 313.599 3.43304 -0.351574 0
M  V30 3348 C 312.712 4.06537 -1.46123 0
M  V30 3349 C 311.847 5.23266 -0.914677 0
M  V30 3350 C 310.886 5.78464 -2.00114 0
M  V30 3351 N 310.023 6.86521 -1.47083 0
M  V30 3352 H 314.863 2.39548 -1.77259 0
M  V30 3353 H 312.4 1.17543 -0.884425 0
M  V30 3354 H 314.358 4.17179 -0.0419409 0
M  V30 3355 H 312.988 3.18419 0.530037 0
M  V30 3356 H 312.04 3.30297 -1.88701 0
M  V30 3357 H 313.352 4.43567 -2.28144 0
M  V30 3358 H 312.506 6.04131 -0.557698 0
M  V30 3359 H 311.245 4.87658 -0.0636583 0
M  V30 3360 H 310.25 4.96243 -2.36692 0
M  V30 3361 H 311.475 6.16126 -2.85597 0
M  V30 3362 H 309.421 6.52849 -0.642198 0
M  V30 3363 H 309.338 7.22446 -2.22729 0
M  V30 3364 H 310.606 7.71087 -1.14215 0
M  V30 3365 N 314.835 0.952656 1.25548 0
M  V30 3366 C 316.251 0.656769 1.4546 0
M  V30 3367 C 316.451 -0.78633 1.85524 0
M  V30 3368 O 315.507 -1.56183 1.98402 0
M  V30 3369 C 316.82 1.62801 2.52817 0
M  V30 3370 C 318.368 1.63897 2.66659 0
M  V30 3371 C 318.843 2.5978 3.77198 0
M  V30 3372 N 320.334 2.58133 3.84606 0
M  V30 3373 C 321.069 3.29003 4.69621 0
M  V30 3374 N 320.565 4.09339 5.58939 0
M  V30 3375 N 322.358 3.179 4.63569 0
M  V30 3376 H 314.509 1.88526 0.978344 0
M  V30 3377 H 316.772 0.810815 0.491206 0
M  V30 3378 H 316.478 2.65869 2.30232 0
M  V30 3379 H 316.352 1.38898 3.50695 0
M  V30 3380 H 318.739 0.615481 2.8861 0
M  V30 3381 H 318.82 1.91858 1.69187 0
M  V30 3382 H 318.464 3.62254 3.55997 0
M  V30 3383 H 318.394 2.29105 4.7415 0
M  V30 3384 H 320.885 1.99809 3.20757 0
M  V30 3385 H 321.198 4.6034 6.20731 0
M  V30 3386 H 319.543 4.13438 5.58654 0
M  V30 3387 H 322.734 2.54612 3.92798 0
M  V30 3388 H 322.907 3.73398 5.29602 0
M  V30 3389 N 316.313 -1.40141 0.720998 0
M  V30 3390 C 317.56 -2.00787 0.262842 0
M  V30 3391 C 317.888 -1.5718 -1.14563 0
M  V30 3392 O 317.143 -0.785391 -1.79249 0
M  V30 3393 C 317.442 -3.56165 0.296892 0
M  V30 3394 C 317.108 -4.19373 1.65641 0
M  V30 3395 C 315.77 -4.36352 2.02855 0
M  V30 3396 C 318.122 -4.54578 2.54968 0
M  V30 3397 C 315.45 -4.8582 3.28931 0
M  V30 3398 C 317.802 -5.05447 3.80402 0
M  V30 3399 C 316.466 -5.20635 4.17726 0
M  V30 3400 H 315.736 -0.734731 0.0961807 0
M  V30 3401 H 318.383 -1.67673 0.925093 0
M  V30 3402 H 316.688 -3.8922 -0.448932 0
M  V30 3403 H 318.385 -4.00929 -0.0755208 0
M  V30 3404 H 314.975 -4.06549 1.35704 0
M  V30 3405 H 319.159 -4.41091 2.27491 0
M  V30 3406 H 314.415 -4.95764 3.57811 0
M  V30 3407 H 318.589 -5.31663 4.49786 0
M  V30 3408 H 316.216 -5.58728 5.15487 0
M  V30 3409 N 317.792 -0.46758 -1.50504 0
M  V30 3410 C 319.038 0.0887532 -2.02606 0
M  V30 3411 C 319.371 1.39686 -1.34913 0
M  V30 3412 O 318.646 1.88644 -0.473694 0
M  V30 3413 C 318.929 0.276206 -3.59039 0
M  V30 3414 C 318.782 -1.05267 -4.37309 0
M  V30 3415 C 320.101 1.03235 -4.27821 0
M  V30 3416 H 317.22 0.0307814 -0.736357 0
M  V30 3417 H 319.862 -0.612485 -1.79857 0
M  V30 3418 H 318.012 0.8735 -3.78553 0
M  V30 3419 H 319.684 -1.68628 -4.29374 0
M  V30 3420 H 317.927 -1.65015 -4.01189 0
M  V30 3421 H 318.598 -0.875197 -5.45018 0
M  V30 3422 H 321.074 0.526111 -4.12761 0
M  V30 3423 H 319.95 1.1323 -5.37094 0
M  V30 3424 H 320.211 2.06806 -3.90748 0
M  V30 3425 N 319.27 1.56325 -0.20005 0
M  V30 3426 C 320.517 1.97719 0.437411 0
M  V30 3427 C 320.845 1.08709 1.61284 0
M  V30 3428 O 320.1 0.127261 1.95286 0
M  V30 3429 C 320.399 3.4495 0.935103 0
M  V30 3430 C 320.065 4.5072 -0.12749 0
M  V30 3431 C 318.727 4.79368 -0.419451 0
M  V30 3432 C 321.079 5.14268 -0.847231 0
M  V30 3433 C 318.407 5.68854 -1.43604 0
M  V30 3434 C 320.759 6.04852 -1.85301 0
M  V30 3435 C 319.423 6.31855 -2.15211 0
M  V30 3436 H 318.693 0.723507 0.16006 0
M  V30 3437 H 321.34 1.89166 -0.298056 0
M  V30 3438 H 319.645 3.50599 1.74894 0
M  V30 3439 H 321.342 3.74337 1.43781 0
M  V30 3440 H 317.932 4.28458 0.11023 0
M  V30 3441 H 322.116 4.92222 -0.634901 0
M  V30 3442 H 317.372 5.88047 -1.67364 0
M  V30 3443 H 321.546 6.53152 -2.41591 0
M  V30 3444 H 319.173 7.00994 -2.94129 0
M  V30 3445 N 320.748 -0.0735177 1.57428 0
M  V30 3446 C 321.696 -1.10628 2.04607 0
M  V30 3447 C 322.69 -1.40181 0.951088 0
M  V30 3448 O 323.896 -1.39608 1.1362 0
M  V30 3449 H 320.271 -0.374088 0.652351 0
M  V30 3450 H 322.242 -0.682218 2.90497 0
M  V30 3451 C 320.991 -2.41212 2.50423 0
M  V30 3452 H 320.314 -2.19322 3.34272 0
M  V30 3453 H 321.754 -3.11927 2.87189 0
M  V30 3454 C 320.213 -3.0705 1.38644 0
M  V30 3455 O 320.743 -3.95056 0.727582 0
M  V30 3456 N 318.949 -2.67645 1.132 0
M  V30 3457 H 318.496 -1.96169 1.66959 0
M  V30 3458 H 318.454 -3.1202 0.386147 0
M  V30 3459 N 322.226 -1.5378 -0.344866 0
M  V30 3460 C 323.173 -1.81676 -1.42346 0
M  V30 3461 C 324.143 -0.662376 -1.52321 0
M  V30 3462 O 325.328 -0.906675 -1.67881 0
M  V30 3463 C 322.468 -2.03087 -2.79015 0
M  V30 3464 C 321.581 -3.30799 -2.77842 0
M  V30 3465 C 320.716 -3.42285 -4.0622 0
M  V30 3466 C 319.755 -4.6395 -3.9927 0
M  V30 3467 N 318.892 -4.72477 -5.19336 0
M  V30 3468 H 323.732 -2.73703 -1.17858 0
M  V30 3469 H 321.269 -1.35568 -0.570949 0
M  V30 3470 H 323.227 -2.1349 -3.58438 0
M  V30 3471 H 321.857 -1.14375 -3.01858 0
M  V30 3472 H 320.909 -3.29244 -1.90533 0
M  V30 3473 H 322.221 -4.20314 -2.68584 0
M  V30 3474 H 321.375 -3.52113 -4.94066 0
M  V30 3475 H 320.114 -2.50823 -4.18258 0
M  V30 3476 H 319.119 -4.54201 -3.09809 0
M  V30 3477 H 320.344 -5.56775 -3.88817 0
M  V30 3478 H 318.29 -3.83924 -5.3192 0
M  V30 3479 H 318.207 -5.55927 -5.12329 0
M  V30 3480 H 319.475 -4.86613 -6.08957 0
M  V30 3481 N 323.704 0.605807 -1.45491 0
M  V30 3482 C 324.953 1.36086 -1.48874 0
M  V30 3483 C 325.266 1.95131 -0.135333 0
M  V30 3484 O 326.472 2.7146 -0.0468144 0
M  V30 3485 C 324.928 2.46518 -2.62215 0
M  V30 3486 C 324.536 1.93877 -4.03876 0
M  V30 3487 C 326.28 3.23512 -2.74846 0
M  V30 3488 C 324.187 3.01801 -5.08596 0
M  V30 3489 H 323.117 0.511497 -0.553974 0
M  V30 3490 H 325.768 0.649089 -1.71636 0
M  V30 3491 H 324.15 3.20388 -2.32739 0
M  V30 3492 H 325.324 1.26704 -4.43038 0
M  V30 3493 H 323.639 1.29622 -3.95711 0
M  V30 3494 H 326.236 4.04013 -3.50253 0
M  V30 3495 H 326.579 3.74631 -1.81542 0
M  V30 3496 H 327.112 2.56742 -3.03856 0
M  V30 3497 H 323.851 2.55597 -6.03614 0
M  V30 3498 H 323.371 3.67535 -4.74002 0
M  V30 3499 H 325.05 3.66152 -5.33424 0
M  V30 3500 N 325.182 1.32811 0.848464 0
M  V30 3501 C 326.092 1.24278 1.98978 0
M  V30 3502 C 327.108 0.155176 1.73307 0
M  V30 3503 O 328.284 0.376999 1.9784 0
M  V30 3504 C 325.349 0.972444 3.32783 0
M  V30 3505 C 324.41 2.14911 3.71634 0
M  V30 3506 C 323.643 1.89157 4.99054 0
M  V30 3507 O 323.866 0.837165 5.64223 0
M  V30 3508 O 322.8 2.75433 5.35183 0
M  V30 3509 H 326.626 2.20238 2.09115 0
M  V30 3510 H 324.211 1.12762 0.980052 0
M  V30 3511 H 326.093 0.838432 4.12975 0
M  V30 3512 H 324.768 0.043051 3.23671 0
M  V30 3513 H 323.675 2.33862 2.91992 0
M  V30 3514 H 325.008 3.06151 3.85399 0
M  V30 3515 N 326.66 -1.06551 1.16123 0
M  V30 3516 C 327.909 -1.78687 0.935622 0
M  V30 3517 C 328.222 -1.88056 -0.538001 0
M  V30 3518 O 329.428 -2.56794 -0.88143 0
M  V30 3519 C 327.884 -3.21143 1.62466 0
M  V30 3520 C 327.492 -3.19949 3.13587 0
M  V30 3521 C 329.236 -3.9783 1.48092 0
M  V30 3522 C 327.143 -4.57108 3.75241 0
M  V30 3523 H 326.073 -0.669712 0.346412 0
M  V30 3524 H 328.724 -1.19534 1.39226 0
M  V30 3525 H 327.106 -3.80539 1.09572 0
M  V30 3526 H 328.28 -2.70151 3.73303 0
M  V30 3527 H 326.595 -2.5676 3.27816 0
M  V30 3528 H 329.192 -4.99217 1.91538 0
M  V30 3529 H 329.535 -4.14078 0.429507 0
M  V30 3530 H 330.068 -3.4495 1.98127 0
M  V30 3531 H 326.807 -4.46065 4.80319 0
M  V30 3532 H 326.327 -5.07111 3.20309 0
M  V30 3533 H 328.006 -5.26069 3.76644 0
M  V30 3534 N 328.138 -0.959301 -1.25041 0
M  V30 3535 C 329.086 -0.474437 -2.2771 0
M  V30 3536 C 330.08 0.457697 -1.631 0
M  V30 3537 O 331.286 0.333912 -1.76876 0
M  V30 3538 H 327.661 -0.134936 -0.739795 0
M  V30 3539 H 329.632 -1.35251 -2.65988 0
M  V30 3540 C 328.381 0.227884 -3.46952 0
M  V30 3541 H 327.704 -0.480248 -3.96905 0
M  V30 3542 H 329.144 0.531091 -4.20661 0
M  V30 3543 C 327.603 1.452 -3.04004 0
M  V30 3544 O 328.133 2.54949 -3.10426 0
M  V30 3545 N 326.339 1.31502 -2.59144 0
M  V30 3546 H 325.886 0.422065 -2.54119 0
M  V30 3547 H 325.844 2.13521 -2.30773 0
M  V30 3548 N 329.616 1.39756 -0.72842 0
M  V30 3549 C 330.564 2.32485 -0.0731849 0
M  V30 3550 C 331.558 1.52717 0.733063 0
M  V30 3551 O 332.764 1.68428 0.634988 0
M  V30 3552 H 329.139 0.751984 -0.00486469 0
M  V30 3553 H 331.11 2.85382 -0.871761 0
M  V30 3554 C 329.859 3.37773 0.824908 0
M  V30 3555 H 329.182 3.99227 0.213915 0
M  V30 3556 H 330.622 4.05121 1.25111 0
M  V30 3557 C 329.081 2.74287 1.95622 0
M  V30 3558 O 329.611 2.61618 3.04826 0
M  V30 3559 N 327.817 2.32475 1.74367 0
M  V30 3560 H 327.364 2.4298 0.855494 0
M  V30 3561 H 327.322 1.90337 2.50238 0
M  V30 3562 N 331.094 0.475555 1.50254 0
M  V30 3563 C 332.041 -0.316293 2.28622 0
M  V30 3564 C 333.011 -0.983227 1.33873 0
M  V30 3565 O 334.196 -0.994805 1.62814 0
M  V30 3566 C 331.336 -1.38975 3.1588 0
M  V30 3567 C 330.449 -0.737146 4.25664 0
M  V30 3568 C 329.584 -1.78887 5.00173 0
M  V30 3569 C 328.623 -1.11676 6.01826 0
M  V30 3570 N 327.76 -2.11154 6.69596 0
M  V30 3571 H 332.6 0.358297 2.95838 0
M  V30 3572 H 330.137 0.188541 1.45887 0
M  V30 3573 H 332.095 -2.02383 3.64825 0
M  V30 3574 H 330.725 -2.03344 2.50701 0
M  V30 3575 H 329.777 0.0096065 3.80399 0
M  V30 3576 H 331.089 -0.206816 4.98371 0
M  V30 3577 H 330.243 -2.49865 5.52859 0
M  V30 3578 H 328.982 -2.35302 4.27182 0
M  V30 3579 H 327.987 -0.392633 5.48396 0
M  V30 3580 H 329.212 -0.55945 6.76792 0
M  V30 3581 H 327.158 -2.66577 5.99394 0
M  V30 3582 H 327.075 -1.63118 7.38193 0
M  V30 3583 H 328.343 -2.81497 7.26897 0
M  V30 3584 N 332.573 -1.56217 0.208337 0
M  V30 3585 C 333.503 -2.22694 -0.702116 0
M  V30 3586 C 334.484 -1.19432 -1.2112 0
M  V30 3587 O 335.669 -1.47978 -1.25762 0
M  V30 3588 C 332.799 -2.8966 -1.9161 0
M  V30 3589 C 331.753 -3.9928 -1.5414 0
M  V30 3590 C 331.079 -4.53476 -2.83308 0
M  V30 3591 C 332.379 -5.17012 -0.741339 0
M  V30 3592 H 334.073 -2.99034 -0.147898 0
M  V30 3593 H 331.619 -1.43831 -0.0696951 0
M  V30 3594 H 333.572 -3.34852 -2.55836 0
M  V30 3595 H 332.296 -2.10746 -2.49507 0
M  V30 3596 H 330.955 -3.54799 -0.922668 0
M  V30 3597 H 330.603 -3.71308 -3.39322 0
M  V30 3598 H 330.303 -5.27451 -2.58976 0
M  V30 3599 H 331.827 -5.01378 -3.485 0
M  V30 3600 H 333.241 -5.58667 -1.28699 0
M  V30 3601 H 331.638 -5.97137 -0.595627 0
M  V30 3602 H 332.708 -4.8423 0.254851 0
M  V30 3603 N 334.051 0.0651679 -1.57465 0
M  V30 3604 C 334.961 1.09448 -2.07505 0
M  V30 3605 C 335.977 1.41974 -1.00595 0
M  V30 3606 O 337.153 1.52018 -1.32107 0
M  V30 3607 C 334.218 2.38689 -2.51453 0
M  V30 3608 C 333.279 2.13073 -3.72691 0
M  V30 3609 C 332.512 3.36152 -4.14533 0
M  V30 3610 O 332.735 4.45517 -3.56189 0
M  V30 3611 O 331.669 3.23974 -5.07272 0
M  V30 3612 H 335.495 0.69935 -2.95538 0
M  V30 3613 H 333.08 0.279752 -1.46757 0
M  V30 3614 H 334.962 3.14736 -2.80212 0
M  V30 3615 H 333.637 2.77568 -1.66546 0
M  V30 3616 H 332.544 1.34709 -3.49005 0
M  V30 3617 H 333.877 1.79071 -4.5847 0
M  V30 3618 N 335.529 1.53961 0.336706 0
M  V30 3619 C 336.776 1.71536 1.07618 0
M  V30 3620 C 337.104 0.482125 1.8843 0
M  V30 3621 O 336.359 -0.536142 1.88213 0
M  V30 3622 C 336.658 2.93493 2.03953 0
M  V30 3623 C 336.324 4.28811 1.39399 0
M  V30 3624 C 334.986 4.65602 1.21523 0
M  V30 3625 C 337.338 5.12844 0.929541 0
M  V30 3626 C 334.666 5.84037 0.558312 0
M  V30 3627 C 337.018 6.31951 0.286505 0
M  V30 3628 C 335.682 6.67432 0.0954869 0
M  V30 3629 H 334.952 0.627696 0.393801 0
M  V30 3630 H 337.599 1.88186 0.354715 0
M  V30 3631 H 335.904 2.71475 2.82504 0
M  V30 3632 H 337.601 3.04285 2.61174 0
M  V30 3633 H 334.191 3.99858 1.54311 0
M  V30 3634 H 338.375 4.84947 1.05548 0
M  V30 3635 H 333.631 6.10097 0.398995 0
M  V30 3636 H 337.805 6.96352 -0.0814376 0
M  V30 3637 H 335.432 7.59063 -0.415579 0
M  V30 3638 N 337.007 -0.598083 1.45811 0
M  V30 3639 C 337.917 -1.73632 1.57763 0
M  V30 3640 C 338.933 -1.67763 0.461676 0
M  V30 3641 O 340.109 -1.87949 0.723685 0
M  V30 3642 C 337.174 -3.10114 1.55018 0
M  V30 3643 C 336.235 -3.27364 2.77726 0
M  V30 3644 C 335.468 -4.57334 2.75102 0
M  V30 3645 O 335.691 -5.40258 1.8297 0
M  V30 3646 O 334.625 -4.77502 3.66437 0
M  V30 3647 H 338.451 -1.66498 2.53992 0
M  V30 3648 H 336.036 -0.763308 1.28429 0
M  V30 3649 H 337.918 -3.9141 1.56129 0
M  V30 3650 H 336.593 -3.17718 0.619431 0
M  V30 3651 H 335.5 -2.45619 2.82174 0
M  V30 3652 H 336.833 -3.24641 3.69958 0
M  V30 3653 N 338.485 -1.33259 -0.841409 0
M  V30 3654 C 339.71 -1.2775 -1.63385 0
M  V30 3655 C 340.135 0.149188 -1.87507 0
M  V30 3656 O 339.493 1.10498 -1.43736 0
M  V30 3657 C 339.541 -2.05571 -2.96265 0
M  V30 3658 O 338.645 -1.41257 -3.87453 0
M  V30 3659 H 337.986 -0.439627 -0.497618 0
M  V30 3660 H 340.516 -1.75782 -1.04699 0
M  V30 3661 H 340.526 -2.16241 -3.45982 0
M  V30 3662 H 339.201 -3.09309 -2.7803 0
M  V30 3663 H 337.778 -1.39217 -3.45938 0
M  V30 3664 N 339.963 1.05934 -1.16686 0
M  V30 3665 C 340.926 2.11669 -0.879144 0
M  V30 3666 C 341.926 1.60294 0.127445 0
M  V30 3667 O 343.116 1.7389 -0.103865 0
M  V30 3668 C 340.248 3.39438 -0.315425 0
M  V30 3669 H 341.441 2.38626 -1.81653 0
M  V30 3670 H 338.994 1.22058 -0.976299 0
M  V30 3671 H 339.729 3.18132 0.629468 0
M  V30 3672 H 339.514 3.78034 -1.04079 0
M  V30 3673 H 341.004 4.17391 -0.132189 0
M  V30 3674 N 341.441 0.965919 1.2453 0
M  V30 3675 C 342.373 0.452465 2.2469 0
M  V30 3676 C 343.386 -0.437821 1.56802 0
M  V30 3677 O 344.575 -0.244283 1.76821 0
M  V30 3678 C 341.675 -0.366258 3.36915 0
M  V30 3679 C 340.848 0.513701 4.34373 0
M  V30 3680 C 339.907 -0.248716 5.25612 0
M  V30 3681 O 338.933 0.356745 5.68081 0
M  V30 3682 N 340.135 -1.53877 5.59734 0
M  V30 3683 H 342.9 1.31361 2.69378 0
M  V30 3684 H 340.461 0.837541 1.38553 0
M  V30 3685 H 342.453 -0.884297 3.94921 0
M  V30 3686 H 341.023 -1.12832 2.91526 0
M  V30 3687 H 340.243 1.21273 3.75082 0
M  V30 3688 H 341.531 1.11391 4.96457 0
M  V30 3689 H 340.929 -2.05243 5.27154 0
M  V30 3690 H 339.486 -2.00254 6.20275 0
M  V30 3691 N 342.919 -1.39368 0.735821 0
M  V30 3692 C 344.166 -2.00497 0.284123 0
M  V30 3693 C 344.494 -1.58387 -1.12889 0
M  V30 3694 O 343.749 -0.804359 -1.78406 0
M  V30 3695 C 344.048 -3.5583 0.334651 0
M  V30 3696 C 343.714 -4.17593 1.7008 0
M  V30 3697 C 342.376 -4.34176 2.07472 0
M  V30 3698 C 344.728 -4.51848 2.59775 0
M  V30 3699 C 342.056 -4.82304 3.34065 0
M  V30 3700 C 344.408 -5.01384 3.85741 0
M  V30 3701 C 343.072 -5.16175 4.23225 0
M  V30 3702 H 342.342 -0.73367 0.103968 0
M  V30 3703 H 344.989 -1.66683 0.942825 0
M  V30 3704 H 343.294 -3.89674 -0.407625 0
M  V30 3705 H 344.991 -4.00986 -0.0329927 0
M  V30 3706 H 341.581 -4.05087 1.40008 0
M  V30 3707 H 345.765 -4.38653 2.32157 0
M  V30 3708 H 341.021 -4.91941 3.63049 0
M  V30 3709 H 345.195 -5.26863 4.55399 0
M  V30 3710 H 342.822 -5.5323 5.21384 0
M  V30 3711 N 344.397 -0.483516 -1.5 0
M  V30 3712 C 345.808 -0.0314176 -1.86674 0
M  V30 3713 C 346.159 1.37728 -1.39733 0
M  V30 3714 O 345.284 2.02327 -0.767635 0
M  V30 3715 C 345.879 -0.0502376 -3.38763 0
M  V30 3716 C 344.438 0.346442 -3.74802 0
M  V30 3717 C 343.585 -0.430366 -2.7394 0
M  V30 3718 H 346.536 -0.697182 -1.42566 0
M  V30 3719 H 346.557 0.749116 -3.73053 0
M  V30 3720 H 346.069 -1.07563 -3.72897 0
M  V30 3721 H 344.17 1.37572 -3.46273 0
M  V30 3722 H 344.283 0.0391486 -4.79084 0
M  V30 3723 H 342.647 0.117557 -2.54429 0
M  V30 3724 H 343.43 -1.4555 -3.10918 0
M  V30 3725 N 345.875 1.56104 -0.216619 0
M  V30 3726 C 346.823 2.21434 0.712036 0
M  V30 3727 C 347.817 1.19218 1.20348 0
M  V30 3728 O 349.023 1.3731 1.16387 0
M  V30 3729 H 345.398 0.70992 0.248026 0
M  V30 3730 H 347.369 2.98083 0.137558 0
M  V30 3731 C 346.118 2.90434 1.91163 0
M  V30 3732 H 345.441 3.68842 1.54258 0
M  V30 3733 H 346.881 3.39552 2.5393 0
M  V30 3734 C 345.34 1.92635 2.76394 0
M  V30 3735 O 345.87 1.44017 3.74996 0
M  V30 3736 N 344.076 1.60392 2.42328 0
M  V30 3737 H 343.623 2.00122 1.622 0
M  V30 3738 H 343.581 0.952159 2.99635 0
M  V30 3739 N 347.353 -0.0568162 1.57498 0
M  V30 3740 C 348.599 -0.748893 1.89111 0
M  V30 3741 C 348.954 -1.74422 0.81208 0
M  V30 3742 O 348.247 -1.90731 -0.182247 0
M  V30 3743 C 348.441 -1.48359 3.25153 0
M  V30 3744 C 348.27 -0.560924 4.46188 0
M  V30 3745 C 347.04 -0.192264 5.04934 0
M  V30 3746 C 349.238 0.148824 5.14085 0
M  V30 3747 N 347.22 0.734555 6.0949 0
M  V30 3748 C 348.591 0.932286 6.12951 0
M  V30 3749 C 350.646 0.218713 4.97419 0
M  V30 3750 C 349.349 1.77917 6.96949 0
M  V30 3751 C 351.375 1.05262 5.81957 0
M  V30 3752 C 350.737 1.82409 6.80372 0
M  V30 3753 H 346.836 -0.249002 0.741298 0
M  V30 3754 H 349.42 -0.00984926 1.94698 0
M  V30 3755 H 347.591 -2.19326 3.20547 0
M  V30 3756 H 349.323 -2.12586 3.44368 0
M  V30 3757 H 346.078 -0.548421 4.70414 0
M  V30 3758 H 346.502 1.19165 6.6643 0
M  V30 3759 H 351.144 -0.363407 4.21235 0
M  V30 3760 H 348.862 2.3722 7.72497 0
M  V30 3761 H 352.448 1.10987 5.71116 0
M  V30 3762 H 351.328 2.45895 7.44651 0
M  V30 3763 N 348.832 -1.54138 -0.328536 0
M  V30 3764 C 350.062 -1.75807 -1.08516 0
M  V30 3765 C 350.47 -0.50428 -1.82356 0
M  V30 3766 O 349.813 0.534451 -1.75754 0
M  V30 3767 C 349.875 -2.89423 -2.13248 0
M  V30 3768 C 349.539 -4.28504 -1.5885 0
M  V30 3769 C 350.536 -5.09536 -1.03289 0
M  V30 3770 C 348.221 -4.75034 -1.63243 0
M  V30 3771 C 350.215 -6.35206 -0.52845 0
M  V30 3772 C 347.902 -6.00672 -1.12411 0
M  V30 3773 C 348.9 -6.80592 -0.573062 0
M  V30 3774 O 348.588 -8.03867 -0.0723692 0
M  V30 3775 H 348.32 -0.590633 -0.328829 0
M  V30 3776 H 350.874 -2.01819 -0.381868 0
M  V30 3777 H 349.104 -2.5897 -2.87178 0
M  V30 3778 H 350.793 -2.98921 -2.74592 0
M  V30 3779 H 351.559 -4.74745 -0.99206 0
M  V30 3780 H 347.438 -4.12875 -2.05074 0
M  V30 3781 H 350.982 -6.97532 -0.0976774 0
M  V30 3782 H 346.879 -6.34955 -1.162 0
M  V30 3783 H 347.647 -8.18283 -0.188258 0
M  V30 3784 N 350.31 0.590341 -1.46126 0
M  V30 3785 C 351.559 1.34499 -1.50309 0
M  V30 3786 C 351.872 1.94977 -0.156021 0
M  V30 3787 O 353.078 2.71395 -0.0756037 0
M  V30 3788 C 351.534 2.43723 -2.64815 0
M  V30 3789 C 351.142 1.89582 -4.0591 0
M  V30 3790 C 352.886 3.20579 -2.78262 0
M  V30 3791 C 350.793 2.9639 -5.11769 0
M  V30 3792 H 349.723 0.505593 -0.559368 0
M  V30 3793 H 352.374 0.630848 -1.72315 0
M  V30 3794 H 350.756 3.17902 -2.36124 0
M  V30 3795 H 351.93 1.21997 -4.44357 0
M  V30 3796 H 350.245 1.25418 -3.97063 0
M  V30 3797 H 352.842 4.00276 -3.54519 0
M  V30 3798 H 353.185 3.72684 -1.85505 0
M  V30 3799 H 353.718 2.53505 -3.06562 0
M  V30 3800 H 350.457 2.49181 -6.06291 0
M  V30 3801 H 349.977 3.62487 -4.77873 0
M  V30 3802 H 351.656 3.60474 -5.37278 0
M  V30 3803 N 351.788 1.33704 0.83433 0
M  V30 3804 C 353.013 1.28615 1.62705 0
M  V30 3805 C 353.438 -0.139242 1.87584 0
M  V30 3806 O 352.796 -1.09734 1.4432 0
M  V30 3807 C 352.844 2.07139 2.95171 0
M  V30 3808 O 351.948 1.4331 3.86699 0
M  V30 3809 H 351.289 0.44226 0.49528 0
M  V30 3810 H 353.819 1.76335 1.03766 0
M  V30 3811 H 353.829 2.18073 3.44831 0
M  V30 3812 H 352.504 3.10779 2.76386 0
M  V30 3813 H 351.081 1.4105 3.45195 0
M  V30 3814 N 353.266 -1.05314 1.17247 0
M  V30 3815 C 354.494 -1.81971 0.984593 0
M  V30 3816 C 354.909 -1.82929 -0.467166 0
M  V30 3817 O 354.266 -1.25564 -1.32438 0
M  V30 3818 C 354.317 -3.28143 1.51672 0
M  V30 3819 O 354.038 -3.27347 2.91163 0
M  V30 3820 C 355.539 -4.21493 1.37326 0
M  V30 3821 H 352.759 -0.573455 0.348411 0
M  V30 3822 H 355.303 -1.32808 1.55506 0
M  V30 3823 H 353.458 -3.74582 0.988302 0
M  V30 3824 H 353.872 -4.18824 3.15732 0
M  V30 3825 H 355.346 -5.22043 1.79375 0
M  V30 3826 H 355.823 -4.38031 0.320169 0
M  V30 3827 H 356.429 -3.80909 1.89178 0
M  V30 3828 N 354.744 -0.972509 -1.24016 0
M  V30 3829 C 355.969 -0.654417 -1.96805 0
M  V30 3830 C 356.394 0.770398 -1.716 0
M  V30 3831 O 355.752 1.52361 -0.982647 0
M  V30 3832 C 355.8 -0.941031 -3.48105 0
M  V30 3833 O 354.904 -0.0289472 -4.1239 0
M  V30 3834 H 354.245 -0.24692 -0.616382 0
M  V30 3835 H 356.775 -1.30396 -1.57664 0
M  V30 3836 H 356.785 -0.87452 -3.98517 0
M  V30 3837 H 355.46 -1.97939 -3.65777 0
M  V30 3838 H 354.037 -0.149192 -3.72601 0
M  V30 3839 N 356.222 1.38976 -0.743202 0
M  V30 3840 C 357.154 2.29096 -0.0689228 0
M  V30 3841 C 358.167 1.47229 0.694791 0
M  V30 3842 O 359.356 1.70212 0.537597 0
M  V30 3843 C 356.456 3.25988 0.926548 0
M  V30 3844 C 355.629 4.36833 0.222647 0
M  V30 3845 C 354.688 5.13981 1.12739 0
M  V30 3846 O 353.714 5.6601 0.601795 0
M  V30 3847 N 354.916 5.25966 2.45641 0
M  V30 3848 H 357.681 2.87604 -0.842846 0
M  V30 3849 H 355.242 1.50645 -0.593109 0
M  V30 3850 H 357.234 3.74476 1.5346 0
M  V30 3851 H 355.804 2.68453 1.60162 0
M  V30 3852 H 355.024 3.90116 -0.565983 0
M  V30 3853 H 356.312 5.0811 -0.264841 0
M  V30 3854 H 355.71 4.85228 2.9081 0
M  V30 3855 H 354.267 5.77865 3.01522 0
M  V30 3856 N 357.7 0.491464 1.49741 0
M  V30 3857 C 358.663 -0.280906 2.27472 0
M  V30 3858 C 359.663 -0.902454 1.33088 0
M  V30 3859 O 360.853 -0.768465 1.56334 0
M  V30 3860 C 357.985 -1.40209 3.10732 0
M  V30 3861 H 359.178 0.401056 2.97206 0
M  V30 3862 H 356.731 0.246131 1.5435 0
M  V30 3863 H 357.466 -2.11849 2.45541 0
M  V30 3864 H 357.251 -0.961969 3.80117 0
M  V30 3865 H 358.741 -1.9464 3.69466 0
M  V30 3866 N 359.178 -1.55987 0.224894 0
M  V30 3867 C 360.088 -2.24066 -0.69511 0
M  V30 3868 C 361.104 -1.24939 -1.21104 0
M  V30 3869 O 362.28 -1.5776 -1.25195 0
M  V30 3870 C 359.345 -2.90983 -1.88493 0
M  V30 3871 C 358.406 -4.05462 -1.41064 0
M  V30 3872 C 357.639 -4.69179 -2.54375 0
M  V30 3873 O 357.862 -4.31895 -3.72589 0
M  V30 3874 O 356.796 -5.58108 -2.25386 0
M  V30 3875 H 360.622 -3.03353 -0.145149 0
M  V30 3876 H 358.207 -1.49399 -0.00569476 0
M  V30 3877 H 360.089 -3.33209 -2.57972 0
M  V30 3878 H 358.764 -2.14653 -2.42293 0
M  V30 3879 H 357.671 -3.67798 -0.683774 0
M  V30 3880 H 359.004 -4.83545 -0.918985 0
M  V30 3881 N 360.656 0.0484629 -1.57525 0
M  V30 3882 C 361.604 1.07359 -2.06341 0
M  V30 3883 C 362.598 1.3865 -0.973269 0
M  V30 3884 O 363.804 1.37783 -1.15827 0
M  V30 3885 H 360.179 0.363662 -0.65822 0
M  V30 3886 H 362.15 0.635916 -2.91545 0
M  V30 3887 C 360.899 2.37198 -2.54229 0
M  V30 3888 H 360.222 2.13977 -3.37719 0
M  V30 3889 H 361.662 3.07319 -2.92115 0
M  V30 3890 C 360.121 3.04805 -1.43511 0
M  V30 3891 O 360.651 3.93848 -0.79034 0
M  V30 3892 N 358.857 2.65811 -1.17444 0
M  V30 3893 H 358.404 1.93488 -1.70059 0
M  V30 3894 H 358.362 3.11366 -0.435737 0
M  V30 3895 N 362.134 1.5431 0.320358 0
M  V30 3896 C 363.067 1.78769 1.41834 0
M  V30 3897 C 364.045 0.63783 1.49568 0
M  V30 3898 O 365.229 0.875628 1.66928 0
M  V30 3899 C 362.356 1.90712 2.79905 0
M  V30 3900 C 361.402 3.13023 2.89687 0
M  V30 3901 S 362.235 4.71554 2.53766 0
M  V30 3902 C 363.391 4.86408 3.93902 0
M  V30 3903 H 363.624 2.71619 1.20874 0
M  V30 3904 H 361.157 1.45474 0.517377 0
M  V30 3905 H 363.115 1.98279 3.59438 0
M  V30 3906 H 361.776 0.988343 2.98145 0
M  V30 3907 H 360.969 3.18124 3.90913 0
M  V30 3908 H 360.571 3.03803 2.18128 0
M  V30 3909 H 362.863 4.69241 4.88691 0
M  V30 3910 H 363.806 5.88508 3.93782 0
M  V30 3911 H 364.214 4.14689 3.83005 0
M  V30 3912 N 363.613 -0.582584 1.46437 0
M  V30 3913 C 365.024 -1.1647 1.45916 0
M  V30 3914 C 365.375 -1.95177 0.200077 0
M  V30 3915 O 364.5 -2.04874 -0.696819 0
M  V30 3916 C 365.095 -2.11885 2.64367 0
M  V30 3917 C 363.654 -2.65421 2.66887 0
M  V30 3918 C 362.801 -1.41294 2.38603 0
M  V30 3919 H 365.752 -0.370514 1.54314 0
M  V30 3920 H 365.773 -2.9535 2.39892 0
M  V30 3921 H 365.285 -1.54573 3.5599 0
M  V30 3922 H 363.386 -3.26602 1.79338 0
M  V30 3923 H 363.499 -3.08147 3.66854 0
M  V30 3924 H 361.863 -1.71109 1.88663 0
M  V30 3925 H 362.646 -0.858125 3.32402 0
M  V30 3926 N 365.091 -1.34144 -0.827227 0
M  V30 3927 C 366.337 -1.26446 -1.58554 0
M  V30 3928 C 366.67 0.1664 -1.93486 0
M  V30 3929 O 365.945 1.1107 -1.59667 0
M  V30 3930 C 366.228 -2.15111 -2.8879 0
M  V30 3931 C 366.081 -3.66712 -2.60465 0
M  V30 3932 C 367.4 -2.03311 -3.90324 0
M  V30 3933 H 364.519 -0.46067 -0.575284 0
M  V30 3934 H 367.161 -1.64356 -0.953269 0
M  V30 3935 H 365.311 -1.8291 -3.42748 0
M  V30 3936 H 366.983 -4.09259 -2.1285 0
M  V30 3937 H 365.226 -3.88014 -1.93978 0
M  V30 3938 H 365.897 -4.24112 -3.53317 0
M  V30 3939 H 368.373 -2.31574 -3.45706 0
M  V30 3940 H 367.249 -2.67582 -4.79261 0
M  V30 3941 H 367.51 -1.00879 -4.30437 0
M  V30 3942 N 366.569 1.04691 -1.17803 0
M  V30 3943 C 367.816 1.77782 -0.969532 0
M  V30 3944 C 368.144 1.87926 0.501401 0
M  V30 3945 O 367.399 1.37918 1.38842 0
M  V30 3946 C 367.698 3.21467 -1.56186 0
M  V30 3947 C 367.364 3.3137 -3.05786 0
M  V30 3948 C 366.026 3.3378 -3.46619 0
M  V30 3949 C 368.378 3.31976 -4.01797 0
M  V30 3950 C 365.706 3.34431 -4.82051 0
M  V30 3951 C 368.058 3.34167 -5.37136 0
M  V30 3952 C 366.722 3.34866 -5.77426 0
M  V30 3953 H 365.992 0.650549 -0.354777 0
M  V30 3954 H 368.639 1.23006 -1.46772 0
M  V30 3955 H 366.944 3.79203 -0.985515 0
M  V30 3956 H 368.641 3.76652 -1.37602 0
M  V30 3957 H 365.231 3.3021 -2.73238 0
M  V30 3958 H 369.415 3.29311 -3.71306 0
M  V30 3959 H 364.671 3.33285 -5.12573 0
M  V30 3960 H 368.845 3.33585 -6.11305 0
M  V30 3961 H 366.472 3.35124 -6.82346 0
M  V30 3962 N 368.047 0.979072 1.23499 0
M  V30 3963 C 368.977 0.537606 2.27227 0
M  V30 3964 C 369.958 -0.428539 1.64613 0
M  V30 3965 O 371.143 -0.322191 1.91509 0
M  V30 3966 C 368.273 -0.162052 3.46922 0
M  V30 3967 C 367.227 0.721242 4.21879 0
M  V30 3968 C 366.553 -0.110555 5.34586 0
M  V30 3969 C 367.853 2.01141 4.82016 0
M  V30 3970 H 369.547 1.40462 2.64406 0
M  V30 3971 H 367.093 0.67684 1.27102 0
M  V30 3972 H 369.046 -0.482192 4.18632 0
M  V30 3973 H 367.77 -1.06351 3.08799 0
M  V30 3974 H 366.429 1.02482 3.51984 0
M  V30 3975 H 366.077 -1.0125 4.92704 0
M  V30 3976 H 365.777 0.477325 5.85658 0
M  V30 3977 H 367.301 -0.425107 6.09118 0
M  V30 3978 H 368.715 1.75612 5.45741 0
M  V30 3979 H 367.112 2.54695 5.43369 0
M  V30 3980 H 368.182 2.69909 4.02836 0
M  V30 3981 N 369.525 -1.3858 0.750561 0
M  V30 3982 C 370.773 -1.99789 0.30477 0
M  V30 3983 C 371.094 -1.59874 -1.11649 0
M  V30 3984 O 370.364 -0.85417 -1.76297 0
M  V30 3985 H 368.944 -0.738902 0.109694 0
M  V30 3986 H 371.606 -1.69391 0.963983 0
M  V30 3987 H 370.702 -3.09952 0.365499 0
M  V30 3988 N 371.003 -0.499398 -1.49478 0
M  V30 3989 C 372.251 0.0455996 -2.02049 0
M  V30 3990 C 372.572 1.37633 -1.38138 0
M  V30 3991 O 371.842 1.8842 -0.536166 0
M  V30 3992 H 370.422 0.0198416 -0.746736 0
M  V30 3993 H 373.084 -0.656274 -1.83519 0
M  V30 3994 H 372.18 0.176445 -3.11601 0
M  V30 3995 N 372.481 1.55866 -0.233164 0
M  V30 3996 C 373.709 2.02998 0.399905 0
M  V30 3997 C 374.124 1.11274 1.52524 0
M  V30 3998 O 373.481 0.124528 1.82075 0
M  V30 3999 C 373.532 3.4958 0.920639 0
M  V30 4000 O 373.253 4.37808 -0.159834 0
M  V30 4001 C 374.754 4.12411 1.62578 0
M  V30 4002 H 371.974 0.664006 0.0966281 0
M  V30 4003 H 374.518 2.0143 -0.353013 0
M  V30 4004 H 372.673 3.51727 1.62379 0
M  V30 4005 H 373.087 5.23981 0.23337 0
M  V30 4006 H 374.561 5.16711 1.94201 0
M  V30 4007 H 375.038 3.5809 2.54299 0
M  V30 4008 H 375.644 4.14148 0.967553 0
M  V30 4009 N 373.959 -0.0401083 1.57549 0
M  V30 4010 C 374.906 -1.04413 2.05831 0
M  V30 4011 C 375.876 -1.36585 0.945184 0
M  V30 4012 O 377.061 -1.47112 1.21502 0
M  V30 4013 C 374.201 -2.34336 2.53339 0
M  V30 4014 C 373.314 -2.08419 3.78398 0
M  V30 4015 C 372.449 -3.32133 4.14561 0
M  V30 4016 C 371.488 -3.01721 5.3257 0
M  V30 4017 N 370.625 -4.17855 5.64218 0
M  V30 4018 H 375.465 -0.625442 2.91363 0
M  V30 4019 H 373.002 -0.297218 1.44066 0
M  V30 4020 H 374.96 -3.10234 2.78946 0
M  V30 4021 H 373.59 -2.73948 1.7074 0
M  V30 4022 H 372.642 -1.23069 3.59942 0
M  V30 4023 H 373.954 -1.81978 4.64419 0
M  V30 4024 H 373.108 -4.16406 4.41238 0
M  V30 4025 H 371.847 -3.61678 3.2717 0
M  V30 4026 H 370.852 -2.15849 5.05657 0
M  V30 4027 H 372.077 -2.73466 6.21605 0
M  V30 4028 H 370.023 -4.47372 4.79786 0
M  V30 4029 H 369.94 -3.94798 6.44725 0
M  V30 4030 H 371.208 -5.03033 5.95465 0
M  V30 4031 N 375.437 -1.54477 -0.31217 0
M  V30 4032 C 376.685 -1.72884 -1.04668 0
M  V30 4033 C 377.006 -0.511477 -1.88173 0
M  V30 4034 O 376.276 0.474407 -1.90069 0
M  V30 4035 H 374.856 -0.637461 -0.389425 0
M  V30 4036 H 377.518 -1.91807 -0.345852 0
M  V30 4037 H 376.614 -2.61334 -1.70619 0
M  V30 4038 N 376.915 0.57481 -1.46744 0
M  V30 4039 C 378.163 1.33009 -1.52161 0
M  V30 4040 C 378.484 1.94185 -0.178092 0
M  V30 4041 O 377.754 1.7899 0.796196 0
M  V30 4042 H 376.334 0.493873 -0.560445 0
M  V30 4043 H 378.996 0.672589 -1.82927 0
M  V30 4044 H 378.092 2.13273 -2.27862 0
M  V30 4045 N 378.394 1.34581 0.820102 0
M  V30 4046 C 379.326 1.22236 1.93884 0
M  V30 4047 C 380.339 0.148776 1.62119 0
M  V30 4048 O 381.528 0.400877 1.7394 0
M  V30 4049 C 378.628 0.856542 3.27897 0
M  V30 4050 C 377.801 2.02569 3.87666 0
M  V30 4051 C 376.86 1.63782 5.00062 0
M  V30 4052 O 375.886 2.35477 5.18208 0
M  V30 4053 N 377.088 0.553611 5.77854 0
M  V30 4054 H 379.853 2.18615 2.05006 0
M  V30 4055 H 377.414 1.27573 0.99683 0
M  V30 4056 H 379.406 0.578806 4.0054 0
M  V30 4057 H 377.976 -0.0171518 3.12595 0
M  V30 4058 H 377.196 2.468 3.07382 0
M  V30 4059 H 378.484 2.80752 4.24329 0
M  V30 4060 H 377.882 -0.0423528 5.65684 0
M  V30 4061 H 376.439 0.335614 6.50935 0
M  V30 4062 N 379.872 -1.04064 1.18357 0
M  V30 4063 C 381.149 -1.74252 0.888581 0
M  V30 4064 C 381.529 -2.02138 -0.60856 0
M  V30 4065 O 380.877 -1.66656 -1.56327 0
M  V30 4066 C 381.087 -3.0277 1.73584 0
M  V30 4067 C 382.435 -3.76506 1.96286 0
M  V30 4068 O 383.459 -3.12668 1.70637 0
M  V30 4069 O 382.318 -4.91243 2.39464 0
M  V30 4070 H 379.412 -0.758271 0.330082 0
M  V30 4071 H 381.958 -1.1013 1.2911 0
M  V30 4072 H 380.73 -2.78299 2.75073 0
M  V30 4073 H 380.353 -3.74631 1.33183 0
M  V30 4074 N 381.35 -0.985608 -1.22978 0
M  V30 4075 C 382.599 -0.652881 -1.90841 0
M  V30 4076 C 382.912 0.817842 -1.77681 0
M  V30 4077 O 384.118 1.26185 -2.40395 0
M  V30 4078 C 382.574 -1.11717 -3.42122 0
M  V30 4079 C 382.182 -2.6126 -3.63933 0
M  V30 4080 C 383.926 -0.85843 -4.1573 0
M  V30 4081 C 381.833 -3.0133 -5.08876 0
M  V30 4082 H 380.763 -0.240491 -0.714619 0
M  V30 4083 H 383.414 -1.1942 -1.39324 0
M  V30 4084 H 381.796 -0.504027 -3.92779 0
M  V30 4085 H 382.97 -3.27858 -3.23799 0
M  V30 4086 H 381.285 -2.84937 -3.03644 0
M  V30 4087 H 383.882 -1.13359 -5.22546 0
M  V30 4088 H 384.225 0.205461 -4.15793 0
M  V30 4089 H 384.758 -1.43341 -3.71077 0
M  V30 4090 H 381.497 -4.06864 -5.13947 0
M  V30 4091 H 381.017 -2.3943 -5.49939 0
M  V30 4092 H 382.696 -2.92224 -5.77247 0
M  V30 4093 N 382.828 1.3818 -0.7579 0
M  V30 4094 C 384.056 2.04301 -0.326937 0
M  V30 4095 C 384.471 1.57163 1.0462 0
M  V30 4096 O 383.828 0.746626 1.66529 0
M  V30 4097 C 383.879 3.59846 -0.345363 0
M  V30 4098 O 383.6 4.05256 -1.66432 0
M  V30 4099 C 385.101 4.4319 0.098927 0
M  V30 4100 H 382.321 0.656443 -0.139012 0
M  V30 4101 H 384.865 1.76786 -1.02796 0
M  V30 4102 H 383.02 3.86182 0.306955 0
M  V30 4103 H 383.434 4.99709 -1.59345 0
M  V30 4104 H 384.908 5.51989 0.0348745 0
M  V30 4105 H 385.385 4.23947 1.14741 0
M  V30 4106 H 385.991 4.22051 -0.52468 0
M  V30 4107 N 384.306 0.507319 1.49211 0
M  V30 4108 C 385.583 -0.0982702 1.95353 0
M  V30 4109 C 385.963 -1.53516 1.449 0
M  V30 4110 O 385.311 -2.18594 0.66551 0
M  V30 4111 C 385.521 -0.00440283 3.49 0
M  V30 4112 C 386.869 -0.175147 4.24239 0
M  V30 4113 O 387.893 -0.0792891 3.56112 0
M  V30 4114 O 386.752 -0.37276 5.45227 0
M  V30 4115 H 383.846 -0.0918236 0.821887 0
M  V30 4116 H 386.392 0.570307 1.5983 0
M  V30 4117 H 385.164 0.997402 3.78375 0
M  V30 4118 H 384.787 -0.712845 3.91158 0
M  V30 4119 N 385.784 -1.5574 0.241426 0
M  V30 4120 C 387.031 -1.9881 -0.384836 0
M  V30 4121 C 387.359 -1.12947 -1.58346 0
M  V30 4122 O 386.614 -0.178993 -1.9488 0
M  V30 4123 C 386.913 -3.47308 -0.843317 0
M  V30 4124 C 386.579 -4.50223 0.246946 0
M  V30 4125 C 385.241 -4.78088 0.546399 0
M  V30 4126 C 387.593 -5.11841 0.983282 0
M  V30 4127 C 384.921 -5.64846 1.58636 0
M  V30 4128 C 387.273 -5.99727 2.01272 0
M  V30 4129 C 385.937 -6.25927 2.31888 0
M  V30 4130 H 385.207 -0.727496 -0.140821 0
M  V30 4131 H 387.854 -1.8831 0.348106 0
M  V30 4132 H 386.159 -3.55112 -1.65537 0
M  V30 4133 H 387.856 -3.78017 -1.33806 0
M  V30 4134 H 384.446 -4.286 0.00340639 0
M  V30 4135 H 388.63 -4.90366 0.765182 0
M  V30 4136 H 383.886 -5.83403 1.82896 0
M  V30 4137 H 388.06 -6.46517 2.58823 0
M  V30 4138 H 385.687 -6.92949 3.12611 0
M  V30 4139 N 387.262 0.0317525 -1.57568 0
M  V30 4140 C 388.49 0.734949 -1.93407 0
M  V30 4141 C 388.905 1.69036 -0.84096 0
M  V30 4142 O 388.262 1.81582 0.182836 0
M  V30 4143 C 388.313 1.49432 -3.29169 0
M  V30 4144 O 388.034 0.577261 -4.3428 0
M  V30 4145 C 389.535 2.29492 -3.79273 0
M  V30 4146 H 386.755 0.206706 -0.638368 0
M  V30 4147 H 389.299 -0.00992046 -2.04498 0
M  V30 4148 H 387.454 2.1911 -3.19483 0
M  V30 4149 H 387.868 1.10952 -5.1263 0
M  V30 4150 H 389.342 2.78172 -4.76785 0
M  V30 4151 H 389.819 3.10794 -3.10328 0
M  V30 4152 H 390.425 1.64894 -3.92033 0
M  V30 4153 N 388.74 1.54641 0.303973 0
M  V30 4154 C 389.673 1.80263 1.3993 0
M  V30 4155 C 390.651 0.653657 1.48883 0
M  V30 4156 O 391.835 0.893284 1.6599 0
M  V30 4157 C 388.962 1.9367 2.77866 0
M  V30 4158 C 388.008 3.16078 2.86351 0
M  V30 4159 S 388.841 4.74219 2.4875 0
M  V30 4160 C 389.997 4.90558 3.88721 0
M  V30 4161 H 390.23 2.72886 1.17986 0
M  V30 4162 H 387.763 1.46014 0.501918 0
M  V30 4163 H 389.721 2.0208 3.57315 0
M  V30 4164 H 388.382 1.01991 2.9708 0
M  V30 4165 H 387.575 3.22252 3.87517 0
M  V30 4166 H 387.177 3.06099 2.14893 0
M  V30 4167 H 389.469 4.74398 4.83687 0
M  V30 4168 H 390.412 5.92651 3.87518 0
M  V30 4169 H 390.82 4.18728 3.78585 0
M  V30 4170 N 390.218 -0.567019 1.47046 0
M  V30 4171 C 391.15 -1.68985 1.54844 0
M  V30 4172 C 392.163 -1.56869 0.435431 0
M  V30 4173 O 393.352 -1.64006 0.70457 0
M  V30 4174 C 390.452 -3.07373 1.42742 0
M  V30 4175 C 389.625 -3.45339 2.6844 0
M  V30 4176 C 388.684 -4.62849 2.50314 0
M  V30 4177 O 387.71 -4.67922 3.24095 0
M  V30 4178 N 388.912 -5.58726 1.57499 0
M  V30 4179 H 391.677 -1.62745 2.51663 0
M  V30 4180 H 389.238 -0.753411 1.43302 0
M  V30 4181 H 391.23 -3.83803 1.28365 0
M  V30 4182 H 389.8 -3.07893 0.540445 0
M  V30 4183 H 389.02 -2.58455 2.97648 0
M  V30 4184 H 390.308 -3.67476 3.51907 0
M  V30 4185 H 389.706 -5.57376 0.966876 0
M  V30 4186 H 388.263 -6.34523 1.49078 0
M  V30 4187 N 391.696 -1.35014 -0.812953 0
M  V30 4188 C 392.943 -1.27931 -1.56971 0
M  V30 4189 C 393.271 0.148034 -1.93936 0
M  V30 4190 O 392.526 1.11175 -1.61054 0
M  V30 4191 C 392.825 -2.12524 -2.87347 0
M  V30 4192 C 392.491 -3.61401 -2.6963 0
M  V30 4193 C 391.153 -4.01983 -2.64506 0
M  V30 4194 C 393.505 -4.55894 -2.52607 0
M  V30 4195 C 390.833 -5.35235 -2.40293 0
M  V30 4196 C 393.185 -5.89336 -2.29925 0
M  V30 4197 C 391.849 -6.2907 -2.23219 0
M  V30 4198 H 391.119 -0.468131 -0.574399 0
M  V30 4199 H 393.766 -1.66851 -0.939836 0
M  V30 4200 H 392.071 -1.66463 -3.54679 0
M  V30 4201 H 393.768 -2.04383 -3.45005 0
M  V30 4202 H 390.358 -3.29193 -2.74463 0
M  V30 4203 H 394.542 -4.25431 -2.55583 0
M  V30 4204 H 389.798 -5.65028 -2.33566 0
M  V30 4205 H 393.972 -6.62139 -2.15743 0
M  V30 4206 H 391.599 -7.32256 -2.04219 0
M  V30 4207 N 393.175 1.03435 -1.18907 0
M  V30 4208 C 394.421 1.77005 -0.989798 0
M  V30 4209 C 394.754 1.88205 0.478816 0
M  V30 4210 O 394.029 1.39481 1.35556 0
M  V30 4211 C 394.312 3.19925 -1.65287 0
M  V30 4212 C 394.165 3.1663 -3.19477 0
M  V30 4213 C 395.484 4.18189 -1.37134 0
M  V30 4214 H 392.603 0.642538 -0.360991 0
M  V30 4215 H 395.245 1.20784 -1.46667 0
M  V30 4216 H 393.395 3.67929 -1.24741 0
M  V30 4217 H 395.067 2.76567 -3.692 0
M  V30 4218 H 393.31 2.54491 -3.51307 0
M  V30 4219 H 393.981 4.1758 -3.61013 0
M  V30 4220 H 396.457 3.78761 -1.72276 0
M  V30 4221 H 395.333 5.16394 -1.86087 0
M  V30 4222 H 395.594 4.41112 -0.295424 0
M  V30 4223 N 394.653 0.992116 1.22453 0
M  V30 4224 C 395.878 0.685644 1.95739 0
M  V30 4225 C 396.303 -0.743 1.72804 0
M  V30 4226 O 395.661 -1.50778 1.00676 0
M  V30 4227 C 395.709 0.996293 3.46564 0
M  V30 4228 O 394.813 0.0945512 4.12292 0
M  V30 4229 H 394.154 0.256694 0.612376 0
M  V30 4230 H 396.684 1.32888 1.5557 0
M  V30 4231 H 396.694 0.93781 3.97076 0
M  V30 4232 H 395.369 2.03733 3.62582 0
M  V30 4233 H 393.946 0.208451 3.72317 0
M  V30 4234 N 396.131 -1.37776 0.765217 0
M  V30 4235 C 397.356 -2.04651 0.336537 0
M  V30 4236 C 397.781 -1.57337 -1.03086 0
M  V30 4237 O 397.139 -0.730621 -1.65927 0
M  V30 4238 C 397.187 -3.58577 0.381468 0
M  V30 4239 O 396.291 -4.07706 -0.62042 0
M  V30 4240 H 395.632 -0.64756 0.146838 0
M  V30 4241 H 398.162 -1.76221 1.03959 0
M  V30 4242 H 398.172 -4.07314 0.236448 0
M  V30 4243 H 396.847 -3.9237 1.37907 0
M  V30 4244 H 395.424 -3.70306 -0.439056 0
M  V30 4245 O 397.648 -0.656736 -1.47544 0
M  V30 4246 H 398.339 -0.183317 -1.92831 0
M  V30 END ATOM
M  V30 BEGIN BOND
M  V30 END BOND
M  V30 END CTAB
M  END
$$$$
