drugbank_target|Q12965 Unconventional myosin-Ie (DB03366)
 OpenBabel12092120553D

  0  0  0     0  0            999 V3000
M  V30 BEGIN CTAB
M  V30 COUNTS 17876 18076 0 0 0
M  V30 BEGIN ATOM
M  V30 1 H -0.908 1.98254 -0.117106 0
M  V30 2 N 0 1.576 0 0
M  V30 3 C 0.933 2.03868 1.02534 0
M  V30 4 C 1.911 0.928543 1.3348 0
M  V30 5 O 3.095 1.19667 1.45644 0
M  V30 6 C 0.222 2.43627 2.35294 0
M  V30 7 C -0.732 3.65373 2.2001 0
M  V30 8 S 0.101 5.13292 1.52614 0
M  V30 9 C 1.257 5.56322 2.86805 0
M  V30 10 H 1.49 2.90518 0.631377 0
M  V30 11 H -0.977 1.52953 0.210867 0
M  V30 12 H 0.981 2.67203 3.11629 0
M  V30 13 H -0.358 1.57376 2.7183 0
M  V30 14 H -1.165 3.90944 3.18086 0
M  V30 15 H -1.563 3.418 1.51819 0
M  V30 16 H 0.729 5.58782 3.83104 0
M  V30 17 H 1.672 6.56266 2.65933 0
M  V30 18 H 2.08 4.83886 2.90714 0
M  V30 19 N 1.4781 -0.272755 1.55222 0
M  V30 20 C 2.7261 -1.00234 1.75492 0
M  V30 21 C 3.0471 -1.8681 0.5592 0
M  V30 22 O 2.3171 -1.91215 -0.425882 0
M  V30 23 H 0.8971 -0.373076 0.647166 0
M  V30 24 H 3.5591 -0.296926 1.92625 0
M  V30 25 H 2.6551 -1.63913 2.65592 0
M  V30 26 N 2.9562 -1.48159 -0.537278 0
M  V30 27 C 4.1812 -1.59707 -1.32319 0
M  V30 28 C 4.6062 -0.254859 -1.86365 0
M  V30 29 O 3.9642 0.772378 -1.64024 0
M  V30 30 C 4.0122 -2.6412 -2.45505 0
M  V30 31 O 3.1162 -2.20774 -3.48328 0
M  V30 32 H 2.4572 -0.535791 -0.392204 0
M  V30 33 H 4.9872 -1.94092 -0.647268 0
M  V30 34 H 4.9972 -2.85166 -2.91795 0
M  V30 35 H 3.6722 -3.61567 -2.05528 0
M  V30 36 H 2.2492 -2.09911 -3.08207 0
M  V30 37 N 4.4343 0.785586 -1.36625 0
M  V30 38 C 5.3813 1.89838 -1.31264 0
M  V30 39 C 6.3513 1.65115 -0.180633 0
M  V30 40 O 7.5363 1.87222 -0.36777 0
M  V30 41 C 4.6763 3.26706 -1.11163 0
M  V30 42 C 3.7893 3.63476 -2.33472 0
M  V30 43 C 2.9243 4.89481 -2.06353 0
M  V30 44 C 1.9633 5.18941 -3.24602 0
M  V30 45 N 1.1003 6.36131 -2.97123 0
M  V30 46 H 5.9403 1.93756 -2.26413 0
M  V30 47 H 3.4773 0.947454 -1.12524 0
M  V30 48 H 5.4353 4.05639 -0.975337 0
M  V30 49 H 4.0653 3.222 -0.196674 0
M  V30 50 H 3.1173 2.79636 -2.57891 0
M  V30 51 H 4.4293 3.81193 -3.21704 0
M  V30 52 H 3.5833 5.76288 -1.89675 0
M  V30 53 H 2.3223 4.73841 -1.15437 0
M  V30 54 H 1.3273 4.30615 -3.41834 0
M  V30 55 H 2.5523 5.36498 -4.16349 0
M  V30 56 H 0.4983 6.21875 -2.08823 0
M  V30 57 H 0.4153 6.54198 -3.78894 0
M  V30 58 H 1.6833 7.2591 -2.84033 0
M  V30 59 N 5.9124 1.20967 1.01018 0
M  V30 60 C 7.1604 1.02172 1.74371 0
M  V30 61 C 7.4814 -0.446414 1.89821 0
M  V30 62 O 6.7514 -1.32234 1.44537 0
M  V30 63 H 5.3314 0.375066 0.646014 0
M  V30 64 H 7.9934 1.52187 1.21758 0
M  V30 65 H 7.0894 1.48538 2.74487 0
M  V30 66 N 7.3905 -1.2043 1.01659 0
M  V30 67 C 8.6365 -1.90079 0.706963 0
M  V30 68 C 8.9695 -1.78648 -0.761474 0
M  V30 69 O 8.2445 -1.17069 -1.55323 0
M  V30 70 C 8.5275 -3.41469 1.14327 0
M  V30 71 C 8.3805 -3.61833 2.67201 0
M  V30 72 C 9.6995 -4.34261 0.714529 0
M  V30 73 H 6.8185 -0.690254 0.2583 0
M  V30 74 H 9.4605 -1.41826 1.26433 0
M  V30 75 H 7.6105 -3.82696 0.669056 0
M  V30 76 H 9.2825 -3.2986 3.22475 0
M  V30 77 H 7.5255 -3.05304 3.08175 0
M  V30 78 H 8.1965 -4.67955 2.92783 0
M  V30 79 H 10.6725 -4.00682 1.12221 0
M  V30 80 H 9.5485 -5.38806 1.04784 0
M  V30 81 H 9.8095 -4.40431 -0.383799 0
M  V30 82 N 8.8686 -0.792821 -1.36206 0
M  V30 83 C 10.0986 -0.378275 -2.03107 0
M  V30 84 C 10.5066 1.01119 -1.59911 0
M  V30 85 O 9.8496 1.66052 -0.785658 0
M  V30 86 C 9.9116 -0.366535 -3.57627 0
M  V30 87 C 9.5756 -1.70416 -4.24037 0
M  V30 88 C 10.5726 -2.6602 -4.46687 0
M  V30 89 C 8.2576 -1.98439 -4.6144 0
M  V30 90 C 10.2516 -3.8784 -5.05825 0
M  V30 91 C 7.9386 -3.20525 -5.20295 0
M  V30 92 C 8.9366 -4.15044 -5.42427 0
M  V30 93 O 8.6246 -5.34978 -6.00045 0
M  V30 94 H 8.3566 -0.153543 -0.658332 0
M  V30 95 H 10.9106 -1.07383 -1.75094 0
M  V30 96 H 9.1406 0.385539 -3.84773 0
M  V30 97 H 10.8296 0.0238088 -4.05893 0
M  V30 98 H 11.5956 -2.45658 -4.18183 0
M  V30 99 H 7.4746 -1.25686 -4.43536 0
M  V30 100 H 11.0186 -4.61628 -5.23015 0
M  V30 101 H 6.9156 -3.40764 -5.48225 0
M  V30 102 H 7.6836 -5.36088 -6.18508 0
M  V30 103 N 10.3467 1.47872 -0.545128 0
M  V30 104 C 11.2787 2.27869 0.246621 0
M  V30 105 C 12.2917 1.36282 0.890561 0
M  V30 106 O 13.4807 1.61207 0.766449 0
M  V30 107 C 10.5807 3.10159 1.36582 0
M  V30 108 C 9.7537 4.29627 0.820954 0
M  V30 109 C 8.8127 4.93607 1.82314 0
M  V30 110 O 7.8387 5.52366 1.37406 0
M  V30 111 N 9.0407 4.87211 3.15603 0
M  V30 112 H 11.8057 2.96459 -0.439539 0
M  V30 113 H 9.3667 1.57367 -0.380421 0
M  V30 114 H 11.3587 3.49829 2.03474 0
M  V30 115 H 9.9287 2.43891 1.9554 0
M  V30 116 H 9.1487 3.94192 -0.0244032 0
M  V30 117 H 10.4367 5.06928 0.436063 0
M  V30 118 H 9.8347 4.40651 3.54744 0
M  V30 119 H 8.3917 5.30937 3.78087 0
M  V30 120 N 11.8248 0.280983 1.55075 0
M  V30 121 C 13.0548 -0.336804 2.03836 0
M  V30 122 C 13.4628 -1.49577 1.15859 0
M  V30 123 O 12.8058 -1.82888 0.172503 0
M  V30 124 C 12.8678 -0.874616 3.48699 0
M  V30 125 C 12.5318 0.156478 4.56732 0
M  V30 126 C 13.5288 0.978032 5.10618 0
M  V30 127 C 11.2138 0.292409 5.01448 0
M  V30 128 C 13.2078 1.92165 6.07743 0
M  V30 129 C 10.8948 1.23949 5.98398 0
M  V30 130 C 11.8928 2.05261 6.51427 0
M  V30 131 O 11.5808 2.98367 7.4648 0
M  V30 132 H 11.3128 -0.0800885 0.671239 0
M  V30 133 H 13.8668 0.412589 2.01213 0
M  V30 134 H 12.0968 -1.67418 3.4858 0
M  V30 135 H 13.7858 -1.40612 3.80766 0
M  V30 136 H 14.5518 0.883782 4.7688 0
M  V30 137 H 10.4308 -0.330498 4.59814 0
M  V30 138 H 13.9748 2.55672 6.49059 0
M  V30 139 H 9.8718 1.33454 6.31554 0
M  V30 140 H 10.6398 2.93116 7.64215 0
M  V30 141 N 13.3029 -1.57598 0.00835791 0
M  V30 142 C 14.2529 -2.05431 -0.989045 0
M  V30 143 C 15.2369 -0.950662 -1.29812 0
M  V30 144 O 16.4289 -1.21438 -1.28771 0
M  V30 145 C 13.5579 -2.56801 -2.27833 0
M  V30 146 C 12.6439 -3.74058 -1.99853 0
M  V30 147 N 13.0349 -4.8544 -1.42062 0
M  V30 148 C 11.3329 -3.82148 -2.29953 0
M  V30 149 C 12.0339 -5.66817 -1.30743 0
M  V30 150 N 11.0099 -5.13077 -1.7959 0
M  V30 151 H 14.8119 -2.88955 -0.536853 0
M  V30 152 H 12.3259 -1.61199 -0.197148 0
M  V30 153 H 14.3229 -2.89349 -3.00137 0
M  V30 154 H 12.9829 -1.74699 -2.73698 0
M  V30 155 H 13.9939 -5.0612 -1.09833 0
M  V30 156 H 10.6709 -3.10916 -2.78635 0
M  V30 157 H 12.0609 -6.66343 -0.862328 0
M  V30 158 N 14.781 0.264519 -1.55364 0
M  V30 159 C 16.027 0.992314 -1.77552 0
M  V30 160 C 16.382 1.83626 -0.574379 0
M  V30 161 O 15.675 1.86648 0.432782 0
M  V30 162 C 15.869 1.9004 -3.02687 0
M  V30 163 C 15.698 1.14583 -4.34857 0
M  V30 164 C 14.468 0.858068 -4.97961 0
M  V30 165 C 16.666 0.532069 -5.1154 0
M  V30 166 N 14.648 0.0775974 -6.13851 0
M  V30 167 C 16.019 -0.113823 -6.19896 0
M  V30 168 C 18.074 0.440763 -4.95945 0
M  V30 169 C 16.777 -0.842231 -7.14352 0
M  V30 170 C 18.803 -0.274072 -5.90765 0
M  V30 171 C 18.165 -0.90867 -6.98515 0
M  V30 172 H 14.264 0.344811 -0.701875 0
M  V30 173 H 16.848 0.267141 -1.92859 0
M  V30 174 H 15.019 2.59775 -2.88741 0
M  V30 175 H 16.751 2.56243 -3.13243 0
M  V30 176 H 13.506 1.16547 -4.59036 0
M  V30 177 H 13.93 -0.300216 -6.76334 0
M  V30 178 H 18.572 0.917064 -4.12735 0
M  V30 179 H 16.29 -1.33019 -7.97077 0
M  V30 180 H 19.876 -0.345151 -5.80775 0
M  V30 181 H 18.756 -1.45299 -7.70622 0
M  V30 182 N 16.2591 1.48442 0.529413 0
M  V30 183 C 17.1911 1.59095 1.64989 0
M  V30 184 C 18.2041 0.475212 1.5571 0
M  V30 185 O 19.3931 0.746081 1.6216 0
M  V30 186 C 16.4931 1.50518 3.0364 0
M  V30 187 C 15.6661 2.77142 3.38395 0
M  V30 188 C 14.7251 2.62012 4.56329 0
M  V30 189 O 13.7511 3.35898 4.59522 0
M  V30 190 N 14.9531 1.71667 5.54536 0
M  V30 191 H 17.7181 2.55723 1.56287 0
M  V30 192 H 15.2791 1.45173 0.716697 0
M  V30 193 H 17.2711 1.38091 3.80412 0
M  V30 194 H 15.8411 0.618627 3.06418 0
M  V30 195 H 15.0611 3.0413 2.50796 0
M  V30 196 H 16.3491 3.61146 3.58401 0
M  V30 197 H 15.7471 1.10841 5.54735 0
M  V30 198 H 14.3041 1.65178 6.30523 0
M  V30 199 N 17.7372 -0.778329 1.37039 0
M  V30 200 C 18.9622 -1.57248 1.35233 0
M  V30 201 C 19.3872 -1.87999 -0.0615568 0
M  V30 202 O 18.7452 -1.48734 -1.03672 0
M  V30 203 C 18.7932 -2.86353 2.19167 0
M  V30 204 O 17.8972 -3.80442 1.59178 0
M  V30 205 H 17.2382 -0.476569 0.462362 0
M  V30 206 H 19.7682 -0.963853 1.80474 0
M  V30 207 H 19.7782 -3.35519 2.32145 0
M  V30 208 H 18.4532 -2.63299 3.21942 0
M  V30 209 H 17.0302 -3.39067 1.55203 0
M  V30 210 N 19.2153 -1.21501 -1.00376 0
M  V30 211 C 20.1653 -0.942843 -2.07592 0
M  V30 212 C 21.1493 0.102384 -1.60574 0
M  V30 213 O 22.3413 -0.10671 -1.76678 0
M  V30 214 C 19.4703 -0.510729 -3.3948 0
M  V30 215 C 18.5563 -1.59009 -3.93163 0
M  V30 216 N 18.9473 -2.81544 -4.20198 0
M  V30 217 C 17.2453 -1.45925 -4.21452 0
M  V30 218 C 17.9463 -3.51261 -4.63671 0
M  V30 219 N 16.9223 -2.78703 -4.66718 0
M  V30 220 H 20.7243 -1.87378 -2.26421 0
M  V30 221 H 18.2383 -1.11093 -1.18458 0
M  V30 222 H 20.2353 -0.297101 -4.1584 0
M  V30 223 H 18.8953 0.413436 -3.22057 0
M  V30 224 H 19.9063 -3.18075 -4.08716 0
M  V30 225 H 16.5833 -0.600467 -4.13159 0
M  V30 226 H 17.9733 -4.56183 -4.93302 0
M  V30 227 N 20.6934 1.19889 -1.02296 0
M  V30 228 C 21.6414 2.24938 -0.592081 0
M  V30 229 C 22.6354 1.65257 0.372357 0
M  V30 230 O 23.8414 1.78371 0.241583 0
M  V30 231 H 20.2164 0.731787 -0.173182 0
M  V30 232 H 22.1874 2.58603 -1.48885 0
M  V30 233 C 20.9364 3.47668 0.047351 0
M  V30 234 H 20.2594 3.93875 -0.685772 0
M  V30 235 H 21.6994 4.22852 0.311862 0
M  V30 236 C 20.1584 3.11136 1.29212 0
M  V30 237 O 20.6884 3.2325 2.38479 0
M  V30 238 N 18.8944 2.65625 1.17863 0
M  V30 239 H 18.4414 2.55968 0.289493 0
M  V30 240 H 18.3994 2.41553 2.01245 0
M  V30 241 N 22.1715 0.800033 1.35784 0
M  V30 242 C 23.4175 0.377901 1.99248 0
M  V30 243 C 23.7505 -1.05052 1.63333 0
M  V30 244 O 23.0255 -1.72768 0.893385 0
M  V30 245 C 23.3085 0.553922 3.55814 0
M  V30 246 C 23.1615 2.0268 4.01548 0
M  V30 247 C 24.4805 -0.0244802 4.40093 0
M  V30 248 H 21.5995 0.138782 0.723815 0
M  V30 249 H 24.2415 1.00835 1.61035 0
M  V30 250 H 22.3915 0.0172398 3.88496 0
M  V30 251 H 24.0635 2.62536 3.79305 0
M  V30 252 H 22.3065 2.5256 3.52698 0
M  V30 253 H 22.9775 2.10087 5.10458 0
M  V30 254 H 25.4535 0.433775 4.13833 0
M  V30 255 H 24.3295 0.128637 5.48749 0
M  V30 256 H 24.5905 -1.11758 4.27741 0
M  V30 257 N 23.6496 -1.47581 0.552962 0
M  V30 258 C 24.5966 -2.29957 -0.197108 0
M  V30 259 C 25.5666 -1.38799 -0.912359 0
M  V30 260 O 26.7516 -1.67761 -0.908888 0
M  V30 261 C 23.8916 -3.22672 -1.22379 0
M  V30 262 C 23.0046 -4.28919 -0.515038 0
M  V30 263 C 22.1396 -5.0879 -1.52664 0
M  V30 264 C 21.1786 -6.06815 -0.802631 0
M  V30 265 N 20.3156 -6.7966 -1.76086 0
M  V30 266 H 25.1556 -2.93578 0.511486 0
M  V30 267 H 22.6926 -1.4471 0.264067 0
M  V30 268 H 24.6506 -3.74845 -1.83159 0
M  V30 269 H 23.2806 -2.60925 -1.90047 0
M  V30 270 H 22.3326 -3.79835 0.207192 0
M  V30 271 H 23.6446 -4.98773 0.0523425 0
M  V30 272 H 22.7986 -5.65091 -2.20809 0
M  V30 273 H 21.5376 -4.38828 -2.12794 0
M  V30 274 H 20.5426 -5.49695 -0.107238 0
M  V30 275 H 21.7676 -6.78784 -0.207135 0
M  V30 276 H 19.7136 -6.12432 -2.35081 0
M  V30 277 H 19.6306 -7.45669 -1.24552 0
M  V30 278 H 20.8986 -7.40538 -2.43359 0
M  V30 279 N 25.1277 -0.289203 -1.54924 0
M  V30 280 C 26.0777 0.606939 -2.19773 0
M  V30 281 C 27.0617 1.10783 -1.16687 0
M  V30 282 O 28.2537 1.05057 -1.4245 0
M  V30 283 C 25.3827 1.78398 -2.93307 0
M  V30 284 C 24.4687 1.29961 -4.03697 0
M  V30 285 N 24.8597 0.532377 -5.0299 0
M  V30 286 C 23.1577 1.58136 -4.17024 0
M  V30 287 C 23.8587 0.275912 -5.81045 0
M  V30 288 N 22.8347 0.852365 -5.36876 0
M  V30 289 H 26.6367 0.0130779 -2.93897 0
M  V30 290 H 24.1507 -0.09341 -1.62131 0
M  V30 291 H 26.1477 2.43741 -3.38225 0
M  V30 292 H 24.8077 2.38166 -2.20697 0
M  V30 293 H 25.8187 0.17838 -5.17593 0
M  V30 294 H 22.4957 2.18738 -3.55612 0
M  V30 295 H 23.8857 -0.339502 -6.71042 0
M  V30 296 N 26.6058 1.57591 -0.0167156 0
M  V30 297 C 27.8308 1.9598 0.67872 0
M  V30 298 C 28.2558 0.892546 1.65575 0
M  V30 299 O 27.6138 -0.147772 1.80697 0
M  V30 300 C 27.6618 3.33468 1.37227 0
M  V30 301 O 26.7658 3.28954 2.48722 0
M  V30 302 H 26.1068 0.639339 0.17928 0
M  V30 303 H 28.6368 2.04463 -0.0748802 0
M  V30 304 H 28.6468 3.69417 1.7319 0
M  V30 305 H 27.3218 4.10694 0.656007 0
M  V30 306 H 25.8988 3.04705 2.14963 0
M  V30 307 N 28.0839 -0.256276 1.55502 0
M  V30 308 C 29.3319 -0.983672 1.76545 0
M  V30 309 C 29.6529 -1.86206 0.578982 0
M  V30 310 O 28.9229 -1.91656 -0.405577 0
M  V30 311 H 27.5029 -0.366191 0.651086 0
M  V30 312 H 30.1649 -0.276479 1.92929 0
M  V30 313 H 29.2609 -1.61087 2.67315 0
M  V30 314 N 29.562 -1.4872 -0.521534 0
M  V30 315 C 30.808 -1.574 -1.27879 0
M  V30 316 C 31.141 -0.250817 -1.92573 0
M  V30 317 O 30.416 0.743934 -1.79711 0
M  V30 318 C 30.699 -2.71843 -2.36164 0
M  V30 319 C 30.552 -4.13893 -1.76105 0
M  V30 320 C 31.871 -2.82008 -3.37875 0
M  V30 321 H 28.99 -0.572941 -0.463581 0
M  V30 322 H 31.632 -1.80927 -0.580119 0
M  V30 323 H 29.782 -2.51914 -2.95756 0
M  V30 324 H 31.454 -4.45284 -1.20499 0
M  V30 325 H 29.697 -4.20498 -1.06601 0
M  V30 326 H 30.368 -4.89804 -2.5455 0
M  V30 327 H 32.844 -3.00086 -2.88249 0
M  V30 328 H 31.72 -3.63796 -4.11028 0
M  V30 329 H 31.981 -1.90511 -3.98946 0
M  V30 330 N 31.0401 0.771051 -1.3745 0
M  V30 331 C 32.3171 1.519 -1.23231 0
M  V30 332 C 32.6971 2.10383 0.173809 0
M  V30 333 O 32.0451 1.95583 1.18151 0
M  V30 334 C 32.2551 2.59933 -2.32886 0
M  V30 335 C 33.6031 3.27316 -2.70461 0
M  V30 336 O 34.6271 2.70228 -2.32068 0
M  V30 337 O 33.4861 4.30531 -3.36608 0
M  V30 338 H 30.5801 0.672803 -0.480901 0
M  V30 339 H 33.1261 0.807957 -1.49232 0
M  V30 340 H 31.8981 2.14842 -3.27045 0
M  V30 341 H 31.5211 3.38637 -2.08353 0
M  V30 342 N 32.5182 1.22032 0.997298 0
M  V30 343 C 33.7952 0.950823 1.70935 0
M  V30 344 C 34.1752 -0.535292 2.042 0
M  V30 345 O 33.5232 -1.50217 1.72183 0
M  V30 346 C 33.7332 1.84386 2.96315 0
M  V30 347 C 35.0812 2.09732 3.69185 0
M  V30 348 O 36.1052 1.81798 3.06314 0
M  V30 349 O 34.9642 2.57018 4.82291 0
M  V30 350 H 32.0582 0.357204 0.745878 0
M  V30 351 H 34.6042 1.32997 1.05404 0
M  V30 352 H 33.3762 2.84928 2.68201 0
M  V30 353 H 32.9992 1.46602 3.69586 0
M  V30 354 N 33.9963 -1.19345 1.0293 0
M  V30 355 C 34.9293 -2.21347 0.555029 0
M  V30 356 C 35.9073 -1.57492 -0.404351 0
M  V30 357 O 37.0913 -1.85741 -0.321352 0
M  V30 358 C 34.2183 -3.38163 -0.19064 0
M  V30 359 C 33.2643 -4.20375 0.720236 0
M  V30 360 S 34.0973 -4.88371 2.19668 0
M  V30 361 C 35.2533 -6.08597 1.46153 0
M  V30 362 H 35.4863 -2.61235 1.41929 0
M  V30 363 H 33.0193 -1.29598 0.839272 0
M  V30 364 H 34.9773 -4.05871 -0.614724 0
M  V30 365 H 33.6383 -2.9671 -1.03063 0
M  V30 366 H 32.8313 -5.03793 0.14455 0
M  V30 367 H 32.4333 -3.57987 1.08266 0
M  V30 368 H 34.7253 -6.73354 0.748357 0
M  V30 369 H 35.6683 -6.7065 2.27233 0
M  V30 370 H 36.0763 -5.56297 0.958842 0
M  V30 371 N 35.4744 -0.807222 -1.35358 0
M  V30 372 C 36.7204 -0.388463 -1.99045 0
M  V30 373 C 37.0534 1.04184 -1.63888 0
M  V30 374 O 36.3284 1.72292 -0.902535 0
M  V30 375 C 36.6114 -0.572783 -3.55515 0
M  V30 376 C 36.4644 -2.04807 -4.00468 0
M  V30 377 C 37.7834 0.00114064 -4.401 0
M  V30 378 H 34.9024 -0.142619 -0.723069 0
M  V30 379 H 37.5444 -1.01687 -1.60498 0
M  V30 380 H 35.6944 -0.0378425 -3.88482 0
M  V30 381 H 37.3664 -2.64544 -3.77908 0
M  V30 382 H 35.6094 -2.54427 -3.51353 0
M  V30 383 H 36.2804 -2.12792 -5.09337 0
M  V30 384 H 38.7564 -0.455716 -4.13597 0
M  V30 385 H 37.6324 -0.157737 -5.48673 0
M  V30 386 H 37.8934 1.09488 -4.28328 0
M  V30 387 N 36.9525 1.47285 -0.560781 0
M  V30 388 C 37.8825 2.32857 0.173105 0
M  V30 389 C 38.8635 1.44009 0.905281 0
M  V30 390 O 40.0485 1.7286 0.885046 0
M  V30 391 C 37.1785 3.25861 1.20133 0
M  V30 392 C 36.1325 4.23978 0.585388 0
M  V30 393 C 35.4585 5.06332 1.7185 0
M  V30 394 C 36.7585 5.20242 -0.463178 0
M  V30 395 H 38.4525 2.94466 -0.541307 0
M  V30 396 H 35.9985 1.41601 -0.261764 0
M  V30 397 H 37.9515 3.84569 1.72293 0
M  V30 398 H 36.6755 2.62315 1.94573 0
M  V30 399 H 35.3345 3.66501 0.085054 0
M  V30 400 H 34.9825 4.39186 2.45203 0
M  V30 401 H 34.6825 5.72762 1.31213 0
M  V30 402 H 36.2065 5.67899 2.24329 0
M  V30 403 H 37.6205 5.73293 -0.027502 0
M  V30 404 H 36.0175 5.94896 -0.788627 0
M  V30 405 H 37.0875 4.65504 -1.35773 0
M  V30 406 N 38.4306 0.297415 1.54768 0
M  V30 407 C 39.3606 -0.573494 2.26348 0
M  V30 408 C 40.3416 -1.14085 1.26169 0
M  V30 409 O 41.5266 -1.17086 1.54934 0
M  V30 410 C 38.6566 -1.74716 3.00153 0
M  V30 411 C 37.6106 -1.31032 4.07449 0
M  V30 412 C 36.9366 -2.56887 4.68949 0
M  V30 413 C 38.2366 -0.444183 5.20408 0
M  V30 414 H 39.9306 0.0235131 2.99391 0
M  V30 415 H 37.4766 0.0127488 1.43994 0
M  V30 416 H 39.4296 -2.3625 3.48947 0
M  V30 417 H 38.1536 -2.37035 2.24682 0
M  V30 418 H 36.8126 -0.718066 3.59499 0
M  V30 419 H 36.4606 -3.17512 3.90122 0
M  V30 420 H 36.1606 -2.2836 5.41411 0
M  V30 421 H 37.6846 -3.19229 5.20505 0
M  V30 422 H 39.0986 -0.9651 5.65118 0
M  V30 423 H 37.4956 -0.252846 5.99567 0
M  V30 424 H 38.5656 0.531609 4.81977 0
M  V30 425 N 39.9087 -1.5758 0.0250728 0
M  V30 426 C 41.1337 -1.96337 -0.668317 0
M  V30 427 C 41.5587 -0.901314 -1.651 0
M  V30 428 O 40.9167 0.138187 -1.80773 0
M  V30 429 C 40.9647 -3.34191 -1.35457 0
M  V30 430 O 40.0687 -3.30269 -2.46974 0
M  V30 431 H 39.4097 -0.640281 -0.175887 0
M  V30 432 H 41.9397 -2.0442 0.0857224 0
M  V30 433 H 41.9497 -3.70331 -1.71228 0
M  V30 434 H 40.6247 -4.11036 -0.634218 0
M  V30 435 H 39.2017 -3.05841 -2.13344 0
M  V30 436 N 41.3868 0.248026 -1.55636 0
M  V30 437 C 42.3338 1.30707 -1.90222 0
M  V30 438 C 43.3038 1.47881 -0.756332 0
M  V30 439 O 44.4888 1.61883 -1.00988 0
M  V30 440 C 41.6288 2.65769 -2.20138 0
M  V30 441 C 40.7418 2.56612 -3.47526 0
M  V30 442 C 39.8768 3.8402 -3.67017 0
M  V30 443 C 38.9158 3.69476 -4.8801 0
M  V30 444 N 38.0528 4.88774 -5.04029 0
M  V30 445 H 42.8928 1.00512 -2.80538 0
M  V30 446 H 40.4298 0.485055 -1.38873 0
M  V30 447 H 42.3878 3.44386 -2.35487 0
M  V30 448 H 41.0178 2.94115 -1.33027 0
M  V30 449 H 40.0698 1.69571 -3.40514 0
M  V30 450 H 41.3818 2.41774 -4.36287 0
M  V30 451 H 40.5358 4.7108 -3.8232 0
M  V30 452 H 39.2748 4.01754 -2.76487 0
M  V30 453 H 38.2798 2.80799 -4.72686 0
M  V30 454 H 39.5048 3.53238 -5.8 0
M  V30 455 H 37.4508 5.0687 -4.16435 0
M  V30 456 H 37.3678 4.76562 -5.86877 0
M  V30 457 H 38.6358 5.77335 -5.23741 0
M  V30 458 N 42.8649 1.48995 0.513639 0
M  V30 459 C 44.1139 1.57093 1.2651 0
M  V30 460 C 44.4269 0.257091 1.93903 0
M  V30 461 O 45.6329 0.216478 2.70636 0
M  V30 462 C 44.0889 2.77118 2.29638 0
M  V30 463 C 43.6969 4.15209 1.68241 0
M  V30 464 C 45.4409 2.94538 3.05692 0
M  V30 465 C 43.3479 5.26474 2.69406 0
M  V30 466 H 42.2779 0.584876 0.475854 0
M  V30 467 H 44.9289 1.7536 0.540487 0
M  V30 468 H 43.3109 2.52319 3.05207 0
M  V30 469 H 44.4849 4.50094 0.987505 0
M  V30 470 H 42.7999 4.03042 1.04623 0
M  V30 471 H 45.3969 3.74832 3.8132 0
M  V30 472 H 45.7399 2.04614 3.62545 0
M  V30 473 H 46.2729 3.19316 2.37238 0
M  V30 474 H 43.0119 6.18417 2.17351 0
M  V30 475 H 42.5319 4.96058 3.37175 0
M  V30 476 H 44.2109 5.55277 3.32078 0
M  V30 477 N 44.343 -0.763751 1.37857 0
M  V30 478 C 45.571 -1.55293 1.36718 0
M  V30 479 C 45.986 -1.88745 -0.0455434 0
M  V30 480 O 45.343 -1.52039 -1.00947 0
M  V30 481 C 45.394 -2.85831 2.2132 0
M  V30 482 O 45.115 -2.5381 3.57089 0
M  V30 483 C 46.616 -3.80023 2.28249 0
M  V30 484 H 43.836 -0.480841 0.468009 0
M  V30 485 H 46.38 -0.946009 1.81303 0
M  V30 486 H 44.535 -3.42926 1.80223 0
M  V30 487 H 44.949 -3.37459 4.01524 0
M  V30 488 H 46.423 -4.68599 2.91752 0
M  V30 489 H 46.9 -4.1973 1.2932 0
M  V30 490 H 47.506 -3.28855 2.69693 0
M  V30 491 N 45.8211 -1.22559 -0.990812 0
M  V30 492 C 46.7311 -1.01394 -2.11557 0
M  V30 493 C 47.7471 0.0383962 -1.73958 0
M  V30 494 O 48.9231 -0.154787 -2.00804 0
M  V30 495 C 45.9881 -0.596569 -3.41529 0
M  V30 496 C 45.0491 -1.72276 -3.93217 0
M  V30 497 C 44.2821 -1.32521 -5.16985 0
M  V30 498 O 44.5051 -0.204909 -5.70032 0
M  V30 499 O 43.4391 -2.14247 -5.62478 0
M  V30 500 H 47.2651 -1.95633 -2.32296 0
M  V30 501 H 44.8501 -1.01172 -1.0993 0
M  V30 502 H 46.7321 -0.374263 -4.19735 0
M  V30 503 H 45.4071 0.316939 -3.22145 0
M  V30 504 H 44.3141 -1.99961 -3.16174 0
M  V30 505 H 45.6471 -2.61421 -4.17037 0
M  V30 506 N 47.2992 1.18797 -1.03562 0
M  V30 507 C 48.2472 2.24297 -0.615905 0
M  V30 508 C 49.2412 1.65643 0.354808 0
M  V30 509 O 50.4472 1.78618 0.22265 0
M  V30 510 H 46.8222 0.729909 -0.180934 0
M  V30 511 H 48.7932 2.5701 -1.5162 0
M  V30 512 C 47.5422 3.47698 0.0104735 0
M  V30 513 H 46.8652 3.93125 -0.727509 0
M  V30 514 H 48.3052 4.23159 0.266995 0
M  V30 515 C 46.7642 3.12489 1.25905 0
M  V30 516 O 47.2942 3.25761 2.35038 0
M  V30 517 N 45.5002 2.6686 1.15039 0
M  V30 518 H 45.0472 2.56261 0.262328 0
M  V30 519 H 45.0052 2.43674 1.98672 0
M  V30 520 N 48.7773 0.814389 1.34928 0
M  V30 521 C 50.0023 0.410097 2.03305 0
M  V30 522 C 50.4273 -0.973464 1.60951 0
M  V30 523 O 49.7853 -1.63185 0.789964 0
M  V30 524 C 49.8333 0.51049 3.56968 0
M  V30 525 O 48.9373 -0.473035 4.09678 0
M  V30 526 H 48.2783 0.170088 0.641846 0
M  V30 527 H 50.8083 1.10244 1.72358 0
M  V30 528 H 50.8183 0.383135 4.06197 0
M  V30 529 H 49.4933 1.51963 3.87144 0
M  V30 530 H 48.0703 -0.305272 3.71648 0
M  V30 531 N 50.2554 -1.46986 0.568584 0
M  V30 532 C 51.5044 -2.01646 0.0465894 0
M  V30 533 C 51.8174 -1.44721 -1.31587 0
M  V30 534 O 53.0234 -1.91113 -1.92842 0
M  V30 535 C 51.4794 -3.59885 0.032752 0
M  V30 536 C 51.0874 -4.25804 1.39266 0
M  V30 537 C 52.8314 -4.22255 -0.436038 0
M  V30 538 C 50.7384 -5.76081 1.33732 0
M  V30 539 H 49.6684 -0.753876 0.013647 0
M  V30 540 H 52.3194 -1.68864 0.718131 0
M  V30 541 H 50.7014 -3.8968 -0.704669 0
M  V30 542 H 51.8754 -4.07637 2.1487 0
M  V30 543 H 50.1904 -3.7547 1.80032 0
M  V30 544 H 52.7874 -5.32394 -0.49602 0
M  V30 545 H 53.1304 -3.90212 -1.45053 0
M  V30 546 H 53.6634 -3.97033 0.246877 0
M  V30 547 H 50.4024 -6.12761 2.32817 0
M  V30 548 H 49.9224 -5.96553 0.623267 0
M  V30 549 H 51.6014 -6.38518 1.0442 0
M  V30 550 N 51.7335 -0.305618 -1.54608 0
M  V30 551 C 52.9795 0.302746 -2.00528 0
M  V30 552 C 53.3125 1.53184 -1.19367 0
M  V30 553 O 52.5875 1.92598 -0.271321 0
M  V30 554 C 52.8705 0.654756 -3.54097 0
M  V30 555 C 52.7235 -0.583793 -4.45995 0
M  V30 556 C 54.0425 1.47947 -4.14487 0
M  V30 557 H 51.1615 0.108564 -0.72896 0
M  V30 558 H 53.8035 -0.418634 -1.85331 0
M  V30 559 H 51.9535 1.26935 -3.67178 0
M  V30 560 H 53.6255 -1.22224 -4.44814 0
M  V30 561 H 51.8685 -1.21615 -4.16404 0
M  V30 562 H 52.5395 -0.293287 -5.5122 0
M  V30 563 H 55.0155 0.96013 -4.04871 0
M  V30 564 H 53.8915 1.69454 -5.22088 0
M  V30 565 H 54.1525 2.47011 -3.66658 0
M  V30 566 N 53.2116 1.57565 -0.0334293 0
M  V30 567 C 54.1216 2.13943 0.962572 0
M  V30 568 C 55.1376 1.09276 1.35406 0
M  V30 569 O 56.3136 1.41355 1.4346 0
M  V30 570 C 53.3786 2.65887 2.22497 0
M  V30 571 C 52.4396 3.85286 1.8935 0
M  V30 572 C 51.6726 4.34743 3.09571 0
M  V30 573 O 51.8956 3.83352 4.22371 0
M  V30 574 O 50.8296 5.26538 2.91618 0
M  V30 575 H 54.6556 2.99333 0.513169 0
M  V30 576 H 52.2406 1.4822 0.18743 0
M  V30 577 H 54.1226 2.99346 2.96598 0
M  V30 578 H 52.7976 1.83578 2.6661 0
M  V30 579 H 51.7046 3.56746 1.1262 0
M  V30 580 H 53.0376 4.68771 1.5005 0
M  V30 581 N 54.6897 -0.239769 1.55765 0
M  V30 582 C 55.6377 -1.31668 1.91745 0
M  V30 583 C 56.6317 -1.49462 0.797338 0
M  V30 584 O 57.8377 -1.50852 0.982021 0
M  V30 585 H 54.2127 -0.441048 0.609082 0
M  V30 586 H 56.1837 -0.985923 2.81642 0
M  V30 587 C 54.9327 -2.66368 2.2348 0
M  V30 588 H 54.2557 -2.53478 3.09175 0
M  V30 589 H 55.6957 -3.40578 2.52553 0
M  V30 590 C 54.1547 -3.20002 1.05359 0
M  V30 591 O 54.6847 -4.00538 0.305261 0
M  V30 592 N 52.8907 -2.78126 0.842292 0
M  V30 593 H 52.4377 -2.12742 1.45253 0
M  V30 594 H 52.3957 -3.14354 0.053652 0
M  V30 595 N 56.1678 -1.49265 -0.50573 0
M  V30 596 C 57.0978 -1.68495 -1.61653 0
M  V30 597 C 58.0788 -0.53366 -1.61512 0
M  V30 598 O 59.2638 -0.76897 -1.78327 0
M  V30 599 C 56.3938 -1.74709 -3.00157 0
M  V30 600 C 55.3478 -2.89581 -3.15162 0
M  V30 601 C 54.6738 -2.80903 -4.5497 0
M  V30 602 C 55.9738 -4.30578 -2.95634 0
M  V30 603 H 57.6678 -2.61493 -1.45814 0
M  V30 604 H 55.2138 -1.25838 -0.70005 0
M  V30 605 H 57.1668 -1.86748 -3.77761 0
M  V30 606 H 55.8908 -0.783067 -3.17074 0
M  V30 607 H 54.5498 -2.77136 -2.39982 0
M  V30 608 H 54.1978 -1.82419 -4.68756 0
M  V30 609 H 53.8978 -3.57999 -4.65951 0
M  V30 610 H 55.4218 -2.94944 -5.34641 0
M  V30 611 H 56.8358 -4.4373 -3.63011 0
M  V30 612 H 55.2328 -5.0886 -3.18091 0
M  V30 613 H 56.3028 -4.45352 -1.91806 0
M  V30 614 N 57.6459 0.756429 -1.3826 0
M  V30 615 C 58.5929 1.87011 -1.35261 0
M  V30 616 C 59.5629 1.64695 -0.215616 0
M  V30 617 O 60.7479 1.864 -0.407399 0
M  V30 618 C 57.8879 3.24275 -1.18068 0
M  V30 619 C 57.0009 3.58442 -2.41129 0
M  V30 620 C 56.1359 4.84994 -2.16689 0
M  V30 621 C 55.1749 5.11939 -3.35537 0
M  V30 622 N 54.3119 6.29685 -3.10549 0
M  V30 623 H 59.1519 1.8891 -2.30472 0
M  V30 624 H 56.6889 0.923373 -1.14509 0
M  V30 625 H 58.6469 4.03479 -1.06116 0
M  V30 626 H 57.2769 3.21711 -0.264973 0
M  V30 627 H 56.3289 2.74103 -2.63764 0
M  V30 628 H 57.6409 3.74283 -3.29717 0
M  V30 629 H 56.7949 5.72135 -2.01857 0
M  V30 630 H 55.5339 4.71286 -1.25462 0
M  V30 631 H 54.5389 4.23268 -3.50891 0
M  V30 632 H 55.7639 5.27546 -4.27635 0
M  V30 633 H 53.7099 6.17306 -2.21967 0
M  V30 634 H 53.6269 6.46014 -3.92686 0
M  V30 635 H 54.8949 7.19722 -2.99367 0
M  V30 636 N 59.124 1.23083 0.984299 0
M  V30 637 C 60.071 1.00854 2.07598 0
M  V30 638 C 61.041 -0.0726709 1.65941 0
M  V30 639 O 62.226 0.0786535 1.90638 0
M  V30 640 C 59.366 0.601645 3.39815 0
M  V30 641 C 58.479 1.75456 3.94765 0
M  V30 642 C 57.614 1.29482 5.15177 0
M  V30 643 C 56.653 2.41873 5.62284 0
M  V30 644 N 55.79 1.96885 6.73929 0
M  V30 645 H 60.63 1.943 2.25946 0
M  V30 646 H 58.167 0.968001 1.10762 0
M  V30 647 H 60.125 0.346854 4.15756 0
M  V30 648 H 58.755 -0.295803 3.21442 0
M  V30 649 H 57.807 2.12346 3.15616 0
M  V30 650 H 59.119 2.59965 4.25699 0
M  V30 651 H 58.273 0.997923 5.98437 0
M  V30 652 H 57.012 0.420046 4.85888 0
M  V30 653 H 56.017 2.72342 4.77608 0
M  V30 654 H 57.242 3.29881 5.93595 0
M  V30 655 H 55.188 1.11782 6.46406 0
M  V30 656 H 55.105 2.74956 7.04227 0
M  V30 657 H 56.373 1.70289 7.60672 0
M  V30 658 N 60.6021 -1.18246 1.0419 0
M  V30 659 C 62.0181 -1.40269 0.761366 0
M  V30 660 C 62.2181 -1.90777 -0.648578 0
M  V30 661 O 61.2741 -2.0929 -1.41258 0
M  V30 662 C 62.5871 -2.40237 1.8085 0
M  V30 663 C 64.1351 -2.53961 1.82955 0
M  V30 664 C 64.6101 -3.57194 2.86664 0
M  V30 665 N 66.1011 -3.64702 2.85563 0
M  V30 666 C 66.8361 -4.44309 3.6246 0
M  V30 667 N 66.3321 -5.27514 4.49111 0
M  V30 668 N 68.1251 -4.39084 3.50944 0
M  V30 669 H 60.2761 -0.837882 1.95175 0
M  V30 670 H 62.5391 -0.430608 0.84456 0
M  V30 671 H 62.2451 -2.10176 2.81991 0
M  V30 672 H 62.1191 -3.39601 1.64168 0
M  V30 673 H 64.5061 -2.83338 0.824855 0
M  V30 674 H 64.5871 -1.54706 2.03715 0
M  V30 675 H 64.2311 -3.28558 3.87314 0
M  V30 676 H 64.1611 -4.5613 2.6316 0
M  V30 677 H 66.6521 -3.05289 2.22727 0
M  V30 678 H 66.9651 -5.85411 5.04493 0
M  V30 679 H 65.3101 -5.2693 4.53178 0
M  V30 680 H 68.5011 -3.7313 2.82651 0
M  V30 681 H 68.6741 -5.00883 4.11121 0
M  V30 682 N 62.0802 -0.821533 -1.34494 0
M  V30 683 C 63.3102 -0.421272 -2.02259 0
M  V30 684 C 63.7182 0.977047 -1.6202 0
M  V30 685 O 63.0612 1.64348 -0.820703 0
M  V30 686 C 63.1232 -0.44231 -3.56769 0
M  V30 687 C 62.7872 -1.79372 -4.20327 0
M  V30 688 C 63.7842 -2.75435 -4.40944 0
M  V30 689 C 61.4692 -2.08182 -4.57127 0
M  V30 690 C 63.4632 -3.98482 -4.97484 0
M  V30 691 C 61.1502 -3.31489 -5.13379 0
M  V30 692 C 62.1482 -4.26457 -5.33501 0
M  V30 693 O 61.8362 -5.47585 -5.88562 0
M  V30 694 H 61.5682 -0.167473 -0.654927 0
M  V30 695 H 64.1222 -1.11073 -1.72777 0
M  V30 696 H 62.3522 0.303836 -3.85505 0
M  V30 697 H 64.0412 -0.0622925 -4.05852 0
M  V30 698 H 64.8072 -2.54473 -4.12878 0
M  V30 699 H 60.6862 -1.35066 -4.4077 0
M  V30 700 H 64.2302 -4.72618 -5.13106 0
M  V30 701 H 60.1272 -3.52316 -5.40873 0
M  V30 702 H 60.8952 -5.49086 -6.06998 0
M  V30 703 N 63.5583 1.46682 -0.576371 0
M  V30 704 C 64.4913 2.27243 0.208731 0
M  V30 705 C 65.4693 1.35238 0.902746 0
M  V30 706 O 66.6533 1.64641 0.917904 0
M  V30 707 C 63.7803 3.12802 1.29896 0
M  V30 708 C 62.8263 4.20524 0.711457 0
M  V30 709 S 63.6593 5.33548 -0.456781 0
M  V30 710 C 64.8153 6.22673 0.634798 0
M  V30 711 H 65.0483 2.93484 -0.474838 0
M  V30 712 H 62.5813 1.50069 -0.363118 0
M  V30 713 H 64.5393 3.62661 1.92321 0
M  V30 714 H 63.2003 2.45887 1.95444 0
M  V30 715 H 62.3933 4.80191 1.53076 0
M  V30 716 H 61.9953 3.73645 0.162999 0
M  V30 717 H 64.2873 6.60181 1.52209 0
M  V30 718 H 65.2303 7.0806 0.0750311 0
M  V30 719 H 65.6383 5.56684 0.936092 0
M  V30 720 N 65.0364 0.313813 1.54444 0
M  V30 721 C 66.3134 -0.345447 1.92525 0
M  V30 722 C 66.6934 -1.70667 1.24242 0
M  V30 723 O 66.0414 -2.25273 0.382654 0
M  V30 724 C 66.2514 -0.44737 3.46121 0
M  V30 725 C 67.5994 -0.712238 4.18584 0
M  V30 726 O 68.6234 -0.530678 3.52225 0
M  V30 727 O 67.4824 -1.06183 5.36085 0
M  V30 728 H 64.5764 -0.195407 0.803583 0
M  V30 729 H 67.1224 0.362813 1.65776 0
M  V30 730 H 65.8944 0.509043 3.87975 0
M  V30 731 H 65.5174 -1.20359 3.78945 0
M  V30 732 N 66.5145 -1.57545 0.0417849 0
M  V30 733 C 67.7915 -1.83642 -0.673433 0
M  V30 734 C 68.1715 -0.928298 -1.89594 0
M  V30 735 O 67.5195 0.0129955 -2.28496 0
M  V30 736 C 67.7295 -3.33155 -1.03964 0
M  V30 737 C 69.0775 -3.99941 -1.42592 0
M  V30 738 O 70.1015 -3.37725 -1.13226 0
M  V30 739 O 68.9605 -5.09619 -1.9736 0
M  V30 740 H 66.0545 -0.757638 -0.331533 0
M  V30 741 H 68.6005 -1.69554 0.070433 0
M  V30 742 H 67.3725 -3.9093 -0.170098 0
M  V30 743 H 66.9955 -3.52396 -1.84126 0
M  V30 744 N 67.9926 0.231505 -1.5589 0
M  V30 745 C 69.2226 0.973092 -1.82248 0
M  V30 746 C 69.6306 1.78845 -0.617328 0
M  V30 747 O 68.9736 1.78752 0.423499 0
M  V30 748 C 69.0356 1.94732 -3.02192 0
M  V30 749 C 68.6996 1.31743 -4.37599 0
M  V30 750 C 69.6966 0.712238 -5.14998 0
M  V30 751 C 67.3816 1.33218 -4.84312 0
M  V30 752 C 69.3756 0.130195 -6.37267 0
M  V30 753 C 67.0626 0.746286 -6.06526 0
M  V30 754 C 68.0606 0.146337 -6.82843 0
M  V30 755 O 67.7486 -0.430465 -8.02747 0
M  V30 756 H 67.4806 0.29125 -0.61004 0
M  V30 757 H 70.0346 0.254915 -2.03812 0
M  V30 758 H 68.2646 2.70422 -2.76422 0
M  V30 759 H 69.9536 2.55362 -3.15508 0
M  V30 760 H 70.7196 0.69324 -4.8002 0
M  V30 761 H 66.5986 1.78854 -4.24891 0
M  V30 762 H 70.1426 -0.33871 -6.96777 0
M  V30 763 H 66.0396 0.762663 -6.40979 0
M  V30 764 H 66.8076 -0.323818 -8.17859 0
M  V30 765 N 69.4707 1.49531 0.497807 0
M  V30 766 C 70.7197 1.58426 1.24837 0
M  V30 767 C 71.0327 0.277643 1.93619 0
M  V30 768 O 72.2387 0.24517 2.70391 0
M  V30 769 C 70.6947 2.79538 2.26686 0
M  V30 770 C 70.3027 4.16971 1.63828 0
M  V30 771 C 72.0467 2.97764 3.0255 0
M  V30 772 C 69.9537 5.29301 2.63807 0
M  V30 773 H 68.8837 0.58989 0.469623 0
M  V30 774 H 71.5347 1.75923 0.521857 0
M  V30 775 H 69.9167 2.55542 3.02514 0
M  V30 776 H 71.0907 4.51116 0.939711 0
M  V30 777 H 69.4057 4.04129 1.00342 0
M  V30 778 H 72.0027 3.78856 3.77323 0
M  V30 779 H 72.3457 2.08448 3.60354 0
M  V30 780 H 72.8787 3.21815 2.33838 0
M  V30 781 H 69.6177 6.20687 2.10779 0
M  V30 782 H 69.1377 4.99606 3.31894 0
M  V30 783 H 70.8167 5.58768 3.2617 0
M  V30 784 N 70.9488 -0.749086 1.3866 0
M  V30 785 C 72.1958 -1.50833 1.35114 0
M  V30 786 C 72.5238 -1.94415 -0.0574049 0
M  V30 787 O 71.7788 -1.66065 -1.03541 0
M  V30 788 C 72.0778 -2.7712 2.25697 0
M  V30 789 C 71.7438 -2.52477 3.73585 0
M  V30 790 C 70.4058 -2.45466 4.13884 0
M  V30 791 C 72.7578 -2.31066 4.67181 0
M  V30 792 C 70.0858 -2.15064 5.45861 0
M  V30 793 C 72.4378 -2.02183 5.9942 0
M  V30 794 C 71.1018 -1.93631 6.38798 0
M  V30 795 H 70.3718 -0.551936 0.494416 0
M  V30 796 H 73.0188 -0.860979 1.71054 0
M  V30 797 H 71.3238 -3.46528 1.82827 0
M  V30 798 H 73.0208 -3.35096 2.20254 0
M  V30 799 H 69.6108 -2.58807 3.41638 0
M  V30 800 H 73.7948 -2.35459 4.3689 0
M  V30 801 H 69.0508 -2.06954 5.75308 0
M  V30 802 H 73.2248 -1.8462 6.71482 0
M  V30 803 H 70.8518 -1.69839 7.40985 0
M  V30 804 N 72.4269 -1.23603 -0.977757 0
M  V30 805 C 73.6549 -1.09646 -1.75458 0
M  V30 806 C 74.0699 0.351859 -1.85492 0
M  V30 807 O 73.4269 1.24327 -1.336 0
M  V30 808 C 73.4779 -1.71895 -3.18016 0
M  V30 809 O 73.1989 -3.11063 -3.08498 0
M  V30 810 C 74.6999 -1.63415 -4.12081 0
M  V30 811 H 71.9199 -0.38359 -0.550545 0
M  V30 812 H 74.4639 -1.63507 -1.22824 0
M  V30 813 H 72.6189 -1.22061 -3.67668 0
M  V30 814 H 73.0329 -3.41305 -3.9826 0
M  V30 815 H 74.5069 -2.11669 -5.09804 0
M  V30 816 H 74.9839 -0.593462 -4.35172 0
M  V30 817 H 75.5899 -2.12628 -3.68334 0
M  V30 818 N 73.905 1.17692 -1.04816 0
M  V30 819 C 75.135 1.91508 -0.775128 0
M  V30 820 C 75.543 1.76844 0.67253 0
M  V30 821 O 74.886 1.10057 1.47082 0
M  V30 822 C 74.948 3.43167 -1.0713 0
M  V30 823 C 74.612 3.81612 -2.51438 0
M  V30 824 C 75.609 3.84772 -3.49638 0
M  V30 825 C 73.294 4.12687 -2.86348 0
M  V30 826 C 75.288 4.18469 -4.80794 0
M  V30 827 C 72.975 4.46053 -4.17708 0
M  V30 828 C 73.973 4.48921 -5.14741 0
M  V30 829 O 73.661 4.81504 -6.43746 0
M  V30 830 H 73.393 0.614575 -0.281555 0
M  V30 831 H 75.947 1.50206 -1.40098 0
M  V30 832 H 74.177 3.84745 -0.388342 0
M  V30 833 H 75.866 3.98239 -0.784883 0
M  V30 834 H 76.632 3.60893 -3.24008 0
M  V30 835 H 72.511 4.09627 -2.11486 0
M  V30 836 H 76.055 4.20623 -5.56527 0
M  V30 837 H 71.952 4.69393 -4.43103 0
M  V30 838 H 72.72 4.99377 -6.4851 0
M  V30 839 N 75.3831 0.828654 1.34056 0
M  V30 840 C 76.6321 0.415828 1.97367 0
M  V30 841 C 76.9451 -1.02796 1.6641 0
M  V30 842 O 78.1511 -1.54497 2.23255 0
M  V30 843 C 76.6071 0.692601 3.53173 0
M  V30 844 C 76.2151 2.15038 3.93017 0
M  V30 845 C 77.9591 0.346222 4.23086 0
M  V30 846 C 75.8661 2.37174 5.41758 0
M  V30 847 H 74.7961 0.151755 0.738571 0
M  V30 848 H 77.4471 1.01581 1.52819 0
M  V30 849 H 75.8291 0.0223764 3.95994 0
M  V30 850 H 77.0031 2.86024 3.61285 0
M  V30 851 H 75.3181 2.45875 3.36057 0
M  V30 852 H 77.9151 0.48937 5.32456 0
M  V30 853 H 78.2581 -0.709842 4.10204 0
M  V30 854 H 78.7911 0.971258 3.85761 0
M  V30 855 H 75.5301 3.41308 5.59633 0
M  V30 856 H 75.0501 1.70738 5.74986 0
M  V30 857 H 76.7291 2.19818 6.08514 0
M  V30 858 N 76.8612 -1.46375 0.584142 0
M  V30 859 C 78.1092 -2.01978 0.0701287 0
M  V30 860 C 78.4302 -1.4579 -1.295 0
M  V30 861 O 77.7002 -0.64314 -1.85042 0
M  V30 862 H 76.2802 -0.746648 0.0229345 0
M  V30 863 H 78.9422 -1.79461 0.760245 0
M  V30 864 H 78.0382 -3.121 0.0022064 0
M  V30 865 N 78.3393 -0.321999 -1.54275 0
M  V30 866 C 79.5643 0.285791 -2.05422 0
M  V30 867 C 79.9893 1.45124 -1.19669 0
M  V30 868 O 79.3473 1.80132 -0.205441 0
M  V30 869 C 79.3953 0.69956 -3.53749 0
M  V30 870 O 78.4993 1.8021 -3.70942 0
M  V30 871 H 77.8403 0.0518962 -0.661969 0
M  V30 872 H 80.3703 -0.469954 -1.9913 0
M  V30 873 H 80.3803 0.982649 -3.9599 0
M  V30 874 H 79.0553 -0.152864 -4.15619 0
M  V30 875 H 77.6323 1.51794 -3.40607 0
M  V30 876 N 79.8174 1.5752 -0.0501392 0
M  V30 877 C 81.0634 1.92936 0.624798 0
M  V30 878 C 81.3964 0.928685 1.70555 0
M  V30 879 O 80.6714 -0.0454779 1.94447 0
M  V30 880 C 80.9544 3.38737 1.22185 0
M  V30 881 C 80.8074 4.49552 0.149218 0
M  V30 882 C 82.1264 3.84913 2.13378 0
M  V30 883 H 79.2454 0.701604 0.225657 0
M  V30 884 H 81.8874 1.89671 -0.111693 0
M  V30 885 H 80.0374 3.4165 1.84953 0
M  V30 886 H 81.7094 4.58768 -0.482648 0
M  V30 887 H 79.9524 4.30638 -0.522841 0
M  V30 888 H 80.6234 5.48653 0.606966 0
M  V30 889 H 83.0994 3.8387 1.60572 0
M  V30 890 H 81.9754 4.87584 2.52097 0
M  V30 891 H 82.2364 3.21611 3.03346 0
M  V30 892 N 81.2955 -0.223234 1.56011 0
M  V30 893 C 82.2255 -1.27988 1.95298 0
M  V30 894 C 83.2065 -1.48976 0.820979 0
M  V30 895 O 84.3915 -1.61188 1.08315 0
M  V30 896 C 81.5215 -2.63 2.26822 0
M  V30 897 C 80.4755 -2.56671 3.42497 0
M  V30 898 C 79.8015 -3.95697 3.59622 0
M  V30 899 C 81.1015 -2.11601 4.77517 0
M  V30 900 H 82.7955 -0.953525 2.8381 0
M  V30 901 H 80.3415 -0.457244 1.36548 0
M  V30 902 H 82.2945 -3.37077 2.52898 0
M  V30 903 H 81.0185 -2.9732 1.35161 0
M  V30 904 H 79.6775 -1.85051 3.16467 0
M  V30 905 H 79.3255 -4.27322 2.6534 0
M  V30 906 H 79.0255 -3.92345 4.37424 0
M  V30 907 H 80.5495 -4.71438 3.88044 0
M  V30 908 H 81.9635 -2.7542 5.02809 0
M  V30 909 H 80.3605 -2.19311 5.5859 0
M  V30 910 H 81.4305 -1.06824 4.72987 0
M  V30 911 N 82.7736 -1.49793 -0.48987 0
M  V30 912 C 84.0226 -1.59085 -1.23995 0
M  V30 913 C 84.3356 -0.287907 -1.9347 0
M  V30 914 O 85.5416 -0.259506 -2.70257 0
M  V30 915 C 83.9976 -2.80736 -2.252 0
M  V30 916 C 83.6056 -4.17833 -1.61614 0
M  V30 917 C 85.3496 -2.99364 -3.00967 0
M  V30 918 C 83.2566 -5.30693 -2.60996 0
M  V30 919 H 82.1866 -0.592372 -0.466488 0
M  V30 920 H 84.8376 -1.76197 -0.51252 0
M  V30 921 H 83.2196 -2.57142 -3.01154 0
M  V30 922 H 84.3936 -4.51608 -0.915774 0
M  V30 923 H 82.7086 -4.04656 -0.981977 0
M  V30 924 H 85.3056 -3.80851 -3.75308 0
M  V30 925 H 85.6486 -2.10356 -3.59244 0
M  V30 926 H 86.1816 -3.2305 -2.32128 0
M  V30 927 H 82.9206 -6.21796 -2.07485 0
M  V30 928 H 82.4406 -5.01359 -3.2924 0
M  V30 929 H 84.1196 -5.6049 -3.23202 0
M  V30 930 N 84.2517 0.741722 -1.39055 0
M  V30 931 C 85.4767 1.53607 -1.39354 0
M  V30 932 C 85.9017 1.88096 0.0116905 0
M  V30 933 O 85.2597 1.5143 0.996924 0
M  V30 934 C 85.3077 2.80441 -2.26682 0
M  V30 935 O 84.4117 3.76088 -1.69208 0
M  V30 936 H 83.7527 0.464142 -0.474835 0
M  V30 937 H 86.2827 0.915665 -1.82967 0
M  V30 938 H 86.2927 3.29246 -2.40959 0
M  V30 939 H 84.9677 2.5467 -3.2881 0
M  V30 940 H 83.5447 3.34833 -1.64138 0
M  V30 941 N 85.7298 1.2412 0.971189 0
M  V30 942 C 86.9758 1.08041 1.71625 0
M  V30 943 C 87.3088 -0.380407 1.90438 0
M  V30 944 O 86.5838 -1.28127 1.46334 0
M  V30 945 C 86.8668 1.81682 3.10908 0
M  V30 946 C 86.7198 3.35493 2.99608 0
M  V30 947 C 88.0388 1.58671 4.10501 0
M  V30 948 H 85.1578 0.39388 0.622919 0
M  V30 949 H 87.7998 1.52743 1.13003 0
M  V30 950 H 85.9498 1.43684 3.60953 0
M  V30 951 H 87.6218 3.83068 2.57015 0
M  V30 952 H 85.8648 3.64052 2.35899 0
M  V30 953 H 86.5358 3.82217 3.98264 0
M  V30 954 H 89.0118 1.91719 3.69301 0
M  V30 955 H 87.8878 2.1266 5.06031 0
M  V30 956 H 88.1488 0.524161 4.38982 0
M  V30 957 N 87.2079 -1.17134 1.05439 0
M  V30 958 C 88.1559 -2.23289 0.651511 0
M  V30 959 C 89.1499 -1.66186 -0.328411 0
M  V30 960 O 90.3559 -1.78949 -0.194206 0
M  V30 961 H 86.7309 -0.726938 0.192523 0
M  V30 962 H 88.7019 -2.54565 1.55689 0
M  V30 963 C 87.4509 -3.47671 0.0448436 0
M  V30 964 H 86.7739 -3.91918 0.78996 0
M  V30 965 H 88.2139 -4.2353 -0.19964 0
M  V30 966 C 86.6729 -3.14453 -1.20918 0
M  V30 967 O 87.2029 -3.29459 -2.29825 0
M  V30 968 N 85.4089 -2.68657 -1.10779 0
M  V30 969 H 84.9559 -2.56646 -0.221526 0
M  V30 970 H 84.9139 -2.46804 -1.9477 0
M  V30 971 N 88.686 -0.835752 -1.33615 0
M  V30 972 C 90.097 -0.487099 -1.80234 0
M  V30 973 C 90.448 0.993627 -1.69179 0
M  V30 974 O 89.573 1.77403 -1.23924 0
M  V30 975 C 90.168 -0.877385 -3.27242 0
M  V30 976 C 88.727 -0.580915 -3.7189 0
M  V30 977 C 87.874 -1.0874 -2.5509 0
M  V30 978 H 90.825 -1.02474 -1.2118 0
M  V30 979 H 90.846 -0.186195 -3.80044 0
M  V30 980 H 90.358 -1.95512 -3.35256 0
M  V30 981 H 88.459 0.486881 -3.69405 0
M  V30 982 H 88.572 -1.13396 -4.65487 0
M  V30 983 H 86.936 -0.508392 -2.49575 0
M  V30 984 H 87.719 -2.17184 -2.65868 0
M  V30 985 N 90.1641 1.46063 -0.591896 0
M  V30 986 C 91.4111 2.02338 -0.0809991 0
M  V30 987 C 91.7391 1.46228 1.28249 0
M  V30 988 O 90.9941 0.620818 1.85592 0
M  V30 989 C 91.2931 3.57391 0.0249813 0
M  V30 990 C 90.9591 4.32583 -1.27211 0
M  V30 991 C 89.6211 4.52844 -1.62745 0
M  V30 992 C 91.9731 4.75687 -2.13005 0
M  V30 993 C 89.3011 5.13462 -2.83855 0
M  V30 994 C 91.6531 5.37644 -3.3335 0
M  V30 995 C 90.3171 5.5613 -3.69155 0
M  V30 996 H 89.5871 0.740407 -0.0296397 0
M  V30 997 H 92.2341 1.75321 -0.770374 0
M  V30 998 H 90.5391 3.83597 0.797537 0
M  V30 999 H 92.2361 3.98621 0.436184 0
M  V30 1000 H 88.8261 4.17116 -0.985499 0
M  V30 1001 H 93.0101 4.59782 -1.86855 0
M  V30 1002 H 88.2661 5.25965 -3.11722 0
M  V30 1003 H 92.4401 5.7 -4.00092 0
M  V30 1004 H 90.0671 6.0287 -4.63089 0
M  V30 1005 N 91.6422 0.330177 1.54103 0
M  V30 1006 C 92.5892 -0.532762 2.24567 0
M  V30 1007 C 93.5592 -1.10635 1.23892 0
M  V30 1008 O 94.7442 -1.14546 1.5259 0
M  V30 1009 C 91.8842 -1.6845 3.01195 0
M  V30 1010 C 90.9972 -1.13951 4.167 0
M  V30 1011 C 90.1322 -2.25746 4.80845 0
M  V30 1012 C 89.1712 -1.6853 5.88442 0
M  V30 1013 N 88.3082 -2.74014 6.46421 0
M  V30 1014 H 93.1482 0.0746905 2.97906 0
M  V30 1015 H 90.6852 0.048632 1.4702 0
M  V30 1016 H 92.6432 -2.36234 3.43874 0
M  V30 1017 H 91.2732 -2.26314 2.30178 0
M  V30 1018 H 90.3252 -0.35301 3.78758 0
M  V30 1019 H 91.6372 -0.680892 4.94131 0
M  V30 1020 H 90.7912 -3.01422 5.26526 0
M  V30 1021 H 89.5302 -2.74947 4.0281 0
M  V30 1022 H 88.5352 -0.913543 5.42157 0
M  V30 1023 H 89.7602 -1.20198 6.68378 0
M  V30 1024 H 87.7062 -3.22494 5.71256 0
M  V30 1025 H 87.6232 -2.32735 7.19285 0
M  V30 1026 H 88.8912 -3.49499 6.96757 0
M  V30 1027 N 93.1203 -1.57491 0.0584922 0
M  V30 1028 C 94.0523 -2.08916 -0.942694 0
M  V30 1029 C 95.0653 -1.0185 -1.27006 0
M  V30 1030 O 96.2543 -1.29398 -1.22957 0
M  V30 1031 C 93.3543 -2.52341 -2.26224 0
M  V30 1032 C 92.5273 -3.82827 -2.1157 0
M  V30 1033 C 91.5863 -4.12487 -3.26712 0
M  V30 1034 O 90.6123 -4.82295 -3.02292 0
M  V30 1035 N 91.8143 -3.64978 -4.5141 0
M  V30 1036 H 94.5793 -2.95437 -0.503722 0
M  V30 1037 H 92.1403 -1.61397 -0.12757 0
M  V30 1038 H 94.1323 -2.69254 -3.02133 0
M  V30 1039 H 92.7023 -1.7103 -2.61663 0
M  V30 1040 H 91.9223 -3.75425 -1.20208 0
M  V30 1041 H 93.2103 -4.68263 -1.99015 0
M  V30 1042 H 92.6083 -3.08558 -4.7414 0
M  V30 1043 H 91.1653 -3.87115 -5.2439 0
M  V30 1044 N 94.5984 0.214957 -1.56127 0
M  V30 1045 C 95.5314 1.29382 -1.87977 0
M  V30 1046 C 96.5094 1.44897 -0.737807 0
M  V30 1047 O 97.6934 1.60605 -0.986833 0
M  V30 1048 C 94.8204 2.66325 -2.09258 0
M  V30 1049 C 93.8664 2.67789 -3.31951 0
M  V30 1050 S 94.6994 2.21198 -4.8768 0
M  V30 1051 C 95.8554 3.60003 -5.12004 0
M  V30 1052 H 96.0884 1.02173 -2.79192 0
M  V30 1053 H 93.6214 0.417516 -1.48648 0
M  V30 1054 H 95.5794 3.45162 -2.22201 0
M  V30 1055 H 94.2404 2.90755 -1.18829 0
M  V30 1056 H 93.4334 3.68436 -3.43906 0
M  V30 1057 H 93.0354 1.9702 -3.17898 0
M  V30 1058 H 95.3274 4.55739 -5.01307 0
M  V30 1059 H 96.2704 3.52959 -6.13861 0
M  V30 1060 H 96.6784 3.53996 -4.39712 0
M  V30 1061 N 96.0765 1.50051 0.48192 0
M  V30 1062 C 97.4875 1.5348 1.06305 0
M  V30 1063 C 97.8385 0.331997 1.93371 0
M  V30 1064 O 96.9635 -0.556256 2.09129 0
M  V30 1065 C 97.5585 2.7813 1.93466 0
M  V30 1066 C 96.1175 2.84275 2.46707 0
M  V30 1067 C 95.2645 2.47637 1.24785 0
M  V30 1068 H 98.2155 1.56472 0.264995 0
M  V30 1069 H 98.2365 2.59372 2.78399 0
M  V30 1070 H 97.7485 3.65654 1.30072 0
M  V30 1071 H 95.8495 2.01077 3.13686 0
M  V30 1072 H 95.9625 3.8691 2.82555 0
M  V30 1073 H 94.3265 1.99835 1.57918 0
M  V30 1074 H 95.1095 3.37457 0.630694 0
M  V30 1075 N 97.5546 -0.734337 1.39446 0
M  V30 1076 C 98.7846 -1.52137 1.39778 0
M  V30 1077 C 99.1926 -1.89198 -0.00929312 0
M  V30 1078 O 98.5356 -1.54666 -0.991168 0
M  V30 1079 C 98.5976 -2.83762 2.20724 0
M  V30 1080 C 98.2616 -2.69131 3.69347 0
M  V30 1081 C 99.2586 -2.37635 4.62413 0
M  V30 1082 C 96.9436 -2.85982 4.1294 0
M  V30 1083 C 98.9376 -2.23172 5.97054 0
M  V30 1084 C 96.6246 -2.71137 5.47657 0
M  V30 1085 C 97.6226 -2.39777 6.39528 0
M  V30 1086 O 97.3106 -2.25026 7.71763 0
M  V30 1087 H 97.0426 -0.476717 0.479288 0
M  V30 1088 H 99.5966 -0.915012 1.83893 0
M  V30 1089 H 97.8266 -3.4666 1.71359 0
M  V30 1090 H 99.5156 -3.45383 2.13226 0
M  V30 1091 H 100.282 -2.24267 4.30034 0
M  V30 1092 H 96.1606 -3.09383 3.41765 0
M  V30 1093 H 99.7046 -1.98617 6.68728 0
M  V30 1094 H 95.6016 -2.84083 5.79626 0
M  V30 1095 H 96.3696 -2.40091 7.82495 0
M  V30 1096 N 99.0327 -1.24633 -0.964593 0
M  V30 1097 C 100.28 -1.08788 -1.70796 0
M  V30 1098 C 100.608 0.372783 -1.90894 0
M  V30 1099 O 99.8627 1.29167 -1.47018 0
M  V30 1100 C 100.162 -1.7763 -3.10133 0
M  V30 1101 C 99.8277 -3.27557 -3.09866 0
M  V30 1102 C 98.4897 -3.6846 -3.09501 0
M  V30 1103 C 100.842 -4.23389 -3.03959 0
M  V30 1104 C 98.1697 -5.03624 -3.00965 0
M  V30 1105 C 100.522 -5.58565 -2.96965 0
M  V30 1106 C 99.1857 -5.98809 -2.9493 0
M  V30 1107 H 98.4557 -0.398084 -0.624988 0
M  V30 1108 H 101.103 -1.54777 -1.12767 0
M  V30 1109 H 99.4077 -1.24044 -3.71645 0
M  V30 1110 H 101.105 -1.62832 -3.66451 0
M  V30 1111 H 97.6947 -2.95006 -3.10917 0
M  V30 1112 H 101.879 -3.92787 -3.03368 0
M  V30 1113 H 97.1347 -5.33998 -2.97752 0
M  V30 1114 H 101.309 -6.32523 -2.91354 0
M  V30 1115 H 98.9357 -7.03505 -2.88071 0
M  V30 1116 N 100.511 1.16574 -1.06058 0
M  V30 1117 C 101.759 1.86677 -0.77434 0
M  V30 1118 C 102.08 1.81959 0.701147 0
M  V30 1119 O 101.35 1.2515 1.50713 0
M  V30 1120 H 99.9298 0.691134 -0.283449 0
M  V30 1121 H 102.592 1.41378 -1.34158 0
M  V30 1122 H 101.688 2.92181 -1.09711 0
M  V30 1123 N 101.989 0.842826 1.3317 0
M  V30 1124 C 102.899 0.281444 2.32906 0
M  V30 1125 C 103.915 -0.594587 1.63526 0
M  V30 1126 O 105.091 -0.49777 1.95152 0
M  V30 1127 C 102.156 -0.530929 3.42611 0
M  V30 1128 C 101.217 0.369843 4.27704 0
M  V30 1129 C 100.45 -0.403853 5.3217 0
M  V30 1130 O 100.673 -1.63513 5.46461 0
M  V30 1131 O 99.6069 0.224199 6.01482 0
M  V30 1132 H 103.433 1.10744 2.82789 0
M  V30 1133 H 101.018 0.60545 1.36582 0
M  V30 1134 H 102.9 -0.992437 4.09547 0
M  V30 1135 H 101.575 -1.33392 2.94938 0
M  V30 1136 H 100.482 0.879275 3.6362 0
M  V30 1137 H 101.815 1.13771 4.78871 0
M  V30 1138 N 103.467 -1.45747 0.599634 0
M  V30 1139 C 104.414 -2.30467 -0.123849 0
M  V30 1140 C 105.384 -1.41632 -0.86774 0
M  V30 1141 O 106.569 -1.70568 -0.855056 0
M  V30 1142 C 103.709 -3.26402 -1.12051 0
M  V30 1143 C 102.822 -4.3034 -0.37832 0
M  V30 1144 C 101.957 -5.13389 -1.364 0
M  V30 1145 C 100.996 -6.09061 -0.609171 0
M  V30 1146 N 100.133 -6.84918 -1.54374 0
M  V30 1147 H 104.973 -2.91802 0.604627 0
M  V30 1148 H 102.51 -1.43797 0.309972 0
M  V30 1149 H 104.468 -3.80482 -1.7114 0
M  V30 1150 H 103.098 -2.66839 -1.8165 0
M  V30 1151 H 102.15 -3.78984 0.327929 0
M  V30 1152 H 103.462 -4.98354 0.210997 0
M  V30 1153 H 102.616 -5.7183 -2.02719 0
M  V30 1154 H 101.355 -4.45376 -1.98725 0
M  V30 1155 H 100.36 -5.49758 0.0676979 0
M  V30 1156 H 101.585 -6.79099 0.00891991 0
M  V30 1157 H 99.531 -6.19601 -2.15478 0
M  V30 1158 H 99.448 -7.49254 -1.00766 0
M  V30 1159 H 100.716 -7.47906 -2.19676 0
M  V30 1160 N 104.945 -0.338344 -1.53925 0
M  V30 1161 C 105.855 0.529421 -2.28548 0
M  V30 1162 C 106.871 1.11645 -1.3346 0
M  V30 1163 O 108.047 1.13325 -1.66492 0
M  V30 1164 C 105.112 1.66713 -3.03987 0
M  V30 1165 C 104.173 1.11041 -4.14691 0
M  V30 1166 C 103.406 2.19389 -4.86522 0
M  V30 1167 O 103.629 3.40013 -4.57982 0
M  V30 1168 O 102.563 1.83976 -5.73094 0
M  V30 1169 H 106.389 -0.0770399 -3.03602 0
M  V30 1170 H 103.974 -0.103555 -1.49041 0
M  V30 1171 H 105.856 2.32918 -3.5118 0
M  V30 1172 H 104.531 2.25949 -2.31794 0
M  V30 1173 H 103.438 0.413024 -3.71813 0
M  V30 1174 H 104.771 0.562975 -4.8897 0
M  V30 1175 N 106.423 1.57458 -0.0668435 0
M  V30 1176 C 107.672 1.92477 0.602947 0
M  V30 1177 C 107.985 0.948419 1.71068 0
M  V30 1178 O 109.191 1.19124 2.43971 0
M  V30 1179 C 107.647 3.41903 1.12383 0
M  V30 1180 C 107.255 4.47975 0.04737 0
M  V30 1181 C 108.999 3.85931 1.76797 0
M  V30 1182 C 106.906 5.88529 0.582022 0
M  V30 1183 H 105.836 0.718387 0.22899 0
M  V30 1184 H 108.487 1.82978 -0.138276 0
M  V30 1185 H 106.869 3.46459 1.91787 0
M  V30 1186 H 108.043 4.55029 -0.726978 0
M  V30 1187 H 106.358 4.13384 -0.500243 0
M  V30 1188 H 108.955 4.88322 2.17821 0
M  V30 1189 H 109.298 3.23029 2.62599 0
M  V30 1190 H 109.831 3.83958 1.04024 0
M  V30 1191 H 106.57 6.55065 -0.238721 0
M  V30 1192 H 106.09 5.85004 1.324 0
M  V30 1193 H 107.769 6.38258 1.05999 0
M  V30 1194 N 107.901 -0.206675 1.56239 0
M  V30 1195 C 108.811 -1.27686 1.96808 0
M  V30 1196 C 109.827 -1.50455 0.874035 0
M  V30 1197 O 111.003 -1.63295 1.17884 0
M  V30 1198 C 108.068 -2.60358 2.28942 0
M  V30 1199 C 107.129 -2.45762 3.51994 0
M  V30 1200 C 106.362 -3.72108 3.82585 0
M  V30 1201 O 106.585 -4.75776 3.14631 0
M  V30 1202 O 105.519 -3.6833 4.76043 0
M  V30 1203 H 109.345 -0.962593 2.88041 0
M  V30 1204 H 106.93 -0.410746 1.43643 0
M  V30 1205 H 108.812 -3.38687 2.50737 0
M  V30 1206 H 107.487 -2.91435 1.4088 0
M  V30 1207 H 106.394 -1.65584 3.35459 0
M  V30 1208 H 107.727 -2.19621 4.40486 0
M  V30 1209 N 109.379 -1.50304 -0.473955 0
M  V30 1210 C 110.312 -1.63595 -1.59097 0
M  V30 1211 C 111.29 -0.484142 -1.55225 0
M  V30 1212 O 112.474 -0.703271 -1.7489 0
M  V30 1213 C 109.601 -1.61589 -2.97669 0
M  V30 1214 C 108.647 -2.82295 -3.19705 0
M  V30 1215 S 109.48 -4.43635 -2.99913 0
M  V30 1216 C 110.636 -4.44317 -4.40832 0
M  V30 1217 H 110.869 -2.58082 -1.47583 0
M  V30 1218 H 108.402 -1.39531 -0.661087 0
M  V30 1219 H 110.36 -1.61116 -3.7756 0
M  V30 1220 H 109.021 -0.683421 -3.06575 0
M  V30 1221 H 108.214 -2.77188 -4.20931 0
M  V30 1222 H 107.816 -2.8032 -2.47582 0
M  V30 1223 H 110.108 -4.17703 -5.33414 0
M  V30 1224 H 111.051 -5.45911 -4.50984 0
M  V30 1225 H 111.459 -3.74059 -4.22777 0
M  V30 1226 N 110.857 0.726932 -1.39834 0
M  V30 1227 C 112.087 1.51393 -1.40583 0
M  V30 1228 C 112.495 1.892 -0.000740625 0
M  V30 1229 O 111.838 1.55189 0.982951 0
M  V30 1230 C 111.9 2.82588 -2.22226 0
M  V30 1231 C 111.564 2.67169 -3.70769 0
M  V30 1232 C 112.561 2.3518 -4.63666 0
M  V30 1233 C 110.246 2.83788 -4.14451 0
M  V30 1234 C 112.24 2.20002 -5.98229 0
M  V30 1235 C 109.927 2.68229 -5.49087 0
M  V30 1236 C 110.925 2.36382 -6.4079 0
M  V30 1237 O 110.613 2.2093 -7.72946 0
M  V30 1238 H 110.345 0.474168 -0.48181 0
M  V30 1239 H 112.899 0.905247 -1.84376 0
M  V30 1240 H 111.129 3.45746 -1.73195 0
M  V30 1241 H 112.818 3.44247 -2.15055 0
M  V30 1242 H 113.584 2.21984 -4.31217 0
M  V30 1243 H 109.463 3.07566 -3.43401 0
M  V30 1244 H 113.007 1.95067 -6.69772 0
M  V30 1245 H 108.904 2.81006 -5.81125 0
M  V30 1246 H 109.672 2.35937 -7.83757 0
M  V30 1247 N 112.336 1.25143 0.95797 0
M  V30 1248 C 113.268 1.01023 2.05735 0
M  V30 1249 C 114.281 -0.0236902 1.62783 0
M  V30 1250 O 115.47 0.21448 1.77207 0
M  V30 1251 C 112.57 0.504595 3.35122 0
M  V30 1252 C 111.743 1.6039 4.06932 0
M  V30 1253 C 110.802 1.09922 5.14591 0
M  V30 1254 O 109.828 1.79293 5.40225 0
M  V30 1255 N 111.03 -0.0612545 5.80468 0
M  V30 1256 H 113.795 1.95683 2.26998 0
M  V30 1257 H 111.356 1.16303 1.12629 0
M  V30 1258 H 113.348 0.151516 4.04416 0
M  V30 1259 H 111.918 -0.347989 3.10657 0
M  V30 1260 H 111.138 2.12872 3.31782 0
M  V30 1261 H 112.426 2.34252 4.51667 0
M  V30 1262 H 111.824 -0.640985 5.62057 0
M  V30 1263 H 110.381 -0.355395 6.5083 0
M  V30 1264 N 113.814 -1.1601 1.06675 0
M  V30 1265 C 115.062 -1.86264 0.784229 0
M  V30 1266 C 115.383 -1.82328 -0.691488 0
M  V30 1267 O 114.653 -1.25947 -1.50047 0
M  V30 1268 H 113.233 -0.689621 0.28711 0
M  V30 1269 H 115.895 -1.40664 1.34906 0
M  V30 1270 H 114.991 -2.91595 1.11259 0
M  V30 1271 N 115.292 -0.849877 -1.32721 0
M  V30 1272 C 116.255 -0.296122 -2.27279 0
M  V30 1273 C 117.255 0.541458 -1.5141 0
M  V30 1274 O 118.445 0.353658 -1.70572 0
M  V30 1275 C 115.577 0.581579 -3.35902 0
M  V30 1276 H 116.77 -1.13064 -2.77771 0
M  V30 1277 H 114.323 -0.62383 -1.43311 0
M  V30 1278 H 115.058 1.43809 -2.9067 0
M  V30 1279 H 114.843 -0.0178814 -3.92096 0
M  V30 1280 H 116.333 0.961951 -4.0637 0
M  V30 1281 N 116.77 1.45427 -0.607355 0
M  V30 1282 C 117.733 2.28974 0.101693 0
M  V30 1283 C 118.733 1.39754 0.795329 0
M  V30 1284 O 119.923 1.61878 0.643527 0
M  V30 1285 C 117.055 3.20768 1.15414 0
M  V30 1286 H 118.248 2.93147 -0.632844 0
M  V30 1287 H 115.801 1.51945 -0.366391 0
M  V30 1288 H 116.536 2.61395 1.91945 0
M  V30 1289 H 116.321 3.86489 0.66098 0
M  V30 1290 H 117.811 3.83589 1.65073 0
M  V30 1291 N 118.248 0.346503 1.53744 0
M  V30 1292 C 119.18 -0.543316 2.22667 0
M  V30 1293 C 120.193 -1.06159 1.23427 0
M  V30 1294 O 121.382 -0.971235 1.49764 0
M  V30 1295 C 118.482 -1.76076 2.89569 0
M  V30 1296 C 117.655 -1.37727 4.15151 0
M  V30 1297 C 116.714 -2.45471 4.65436 0
M  V30 1298 O 115.74 -2.08655 5.29577 0
M  V30 1299 N 116.942 -3.7677 4.41616 0
M  V30 1300 H 119.707 0.0469703 2.99663 0
M  V30 1301 H 117.268 0.170766 1.60997 0
M  V30 1302 H 119.26 -2.47593 3.20125 0
M  V30 1303 H 117.83 -2.25835 2.16142 0
M  V30 1304 H 117.05 -0.492746 3.91108 0
M  V30 1305 H 118.338 -1.09708 4.96832 0
M  V30 1306 H 117.736 -4.09467 3.90325 0
M  V30 1307 H 116.293 -4.44448 4.7677 0
M  V30 1308 N 119.726 -1.57421 0.075193 0
M  V30 1309 C 120.956 -1.97659 -0.601203 0
M  V30 1310 C 121.364 -0.952427 -1.63479 0
M  V30 1311 O 120.707 0.0688241 -1.83571 0
M  V30 1312 C 120.769 -3.34218 -1.32434 0
M  V30 1313 C 120.433 -4.5484 -0.443826 0
M  V30 1314 C 121.43 -5.19034 0.299969 0
M  V30 1315 C 119.115 -5.00952 -0.367709 0
M  V30 1316 C 121.109 -6.27695 1.10807 0
M  V30 1317 C 118.796 -6.09484 0.444058 0
M  V30 1318 C 119.794 -6.72719 1.18061 0
M  V30 1319 O 119.482 -7.79161 1.97898 0
M  V30 1320 H 119.214 -0.65494 -0.167422 0
M  V30 1321 H 121.768 -2.04886 0.145157 0
M  V30 1322 H 119.998 -3.23615 -2.11685 0
M  V30 1323 H 121.687 -3.59038 -1.89331 0
M  V30 1324 H 122.453 -4.84351 0.250776 0
M  V30 1325 H 118.332 -4.51509 -0.930638 0
M  V30 1326 H 121.876 -6.76982 1.68347 0
M  V30 1327 H 117.773 -6.43601 0.494803 0
M  V30 1328 H 118.541 -7.96055 1.90367 0
M  V30 1329 N 121.204 0.198386 -1.56346 0
M  V30 1330 C 122.114 1.2664 -1.97483 0
M  V30 1331 C 123.13 1.49989 -0.882002 0
M  V30 1332 O 124.306 1.62668 -1.18748 0
M  V30 1333 C 121.371 2.59141 -2.30319 0
M  V30 1334 C 120.432 2.43892 -3.53292 0
M  V30 1335 C 119.665 3.70074 -3.84553 0
M  V30 1336 O 119.888 4.74101 -3.1715 0
M  V30 1337 O 118.822 3.658 -4.7799 0
M  V30 1338 H 122.648 0.947304 -2.88548 0
M  V30 1339 H 120.233 0.403123 -1.43859 0
M  V30 1340 H 122.115 3.37352 -2.5253 0
M  V30 1341 H 120.79 2.90684 -1.42423 0
M  V30 1342 H 119.697 1.63803 -3.36332 0
M  V30 1343 H 121.03 2.17282 -4.41644 0
M  V30 1344 N 122.682 1.50554 0.465978 0
M  V30 1345 C 123.63 1.70324 1.58406 0
M  V30 1346 C 124.624 0.569139 1.59553 0
M  V30 1347 O 125.83 0.749776 1.63641 0
M  V30 1348 H 122.205 0.537688 0.525734 0
M  V30 1349 H 124.176 2.64104 1.38894 0
M  V30 1350 C 122.925 1.81928 2.96307 0
M  V30 1351 H 122.248 2.68586 2.96144 0
M  V30 1352 H 123.688 1.99784 3.73982 0
M  V30 1353 C 122.147 0.572095 3.32007 0
M  V30 1354 O 122.677 -0.286416 4.00678 0
M  V30 1355 N 120.883 0.424606 2.87481 0
M  V30 1356 H 120.43 1.12427 2.31771 0
M  V30 1357 H 120.388 -0.408697 3.11732 0
M  V30 1358 N 124.16 -0.719506 1.40217 0
M  V30 1359 C 125.571 -1.29848 1.34151 0
M  V30 1360 C 125.922 -1.96196 0.0131349 0
M  V30 1361 O 125.047 -1.973 -0.88892 0
M  V30 1362 C 125.642 -2.36118 2.42968 0
M  V30 1363 C 124.201 -2.8965 2.40374 0
M  V30 1364 C 123.348 -1.63393 2.24049 0
M  V30 1365 H 126.299 -0.51591 1.5008 0
M  V30 1366 H 126.32 -3.16871 2.10649 0
M  V30 1367 H 125.832 -1.878 3.39636 0
M  V30 1368 H 123.933 -3.42208 1.47392 0
M  V30 1369 H 124.046 -3.4171 3.35814 0
M  V30 1370 H 122.41 -1.88312 1.71495 0
M  V30 1371 H 123.193 -1.17104 3.2271 0
M  V30 1372 N 125.638 -1.25649 -0.95132 0
M  V30 1373 C 127.049 -1.09654 -1.51106 0
M  V30 1374 C 127.4 0.326615 -1.93462 0
M  V30 1375 O 126.525 1.21697 -1.78938 0
M  V30 1376 C 127.12 -1.98437 -2.74605 0
M  V30 1377 C 125.679 -1.86618 -3.2688 0
M  V30 1378 C 124.826 -1.9239 -1.99703 0
M  V30 1379 H 127.777 -1.38887 -0.767865 0
M  V30 1380 H 127.798 -1.5263 -3.48546 0
M  V30 1381 H 127.31 -3.02009 -2.43746 0
M  V30 1382 H 125.411 -0.859421 -3.62553 0
M  V30 1383 H 125.524 -2.71607 -3.94673 0
M  V30 1384 H 123.888 -1.36317 -2.15151 0
M  V30 1385 H 124.671 -2.97573 -1.71188 0
M  V30 1386 N 127.117 1.15442 -1.07289 0
M  V30 1387 C 128.067 2.18164 -0.662467 0
M  V30 1388 C 129.051 1.57845 0.312074 0
M  V30 1389 O 130.243 1.76552 0.125905 0
M  V30 1390 C 127.372 3.43246 -0.0611295 0
M  V30 1391 C 126.458 4.1062 -1.06077 0
M  V30 1392 N 126.849 4.53491 -2.24008 0
M  V30 1393 C 125.147 4.36949 -0.893964 0
M  V30 1394 C 125.848 5.05731 -2.87422 0
M  V30 1395 N 124.824 4.99236 -2.15091 0
M  V30 1396 H 128.626 2.49038 -1.56068 0
M  V30 1397 H 126.14 1.32003 -0.945988 0
M  V30 1398 H 128.137 4.16145 0.250792 0
M  V30 1399 H 126.797 3.13854 0.832207 0
M  V30 1400 H 127.808 4.46898 -2.6173 0
M  V30 1401 H 124.485 4.17466 -0.0534693 0
M  V30 1402 H 125.875 5.48865 -3.87553 0
M  V30 1403 N 128.595 0.856903 1.32268 0
M  V30 1404 C 129.844 0.457599 1.96441 0
M  V30 1405 C 130.157 -0.992426 1.68553 0
M  V30 1406 O 131.363 -1.49727 2.26482 0
M  V30 1407 C 129.819 0.767358 3.51624 0
M  V30 1408 C 129.427 2.23326 3.88367 0
M  V30 1409 C 131.171 0.435887 4.22256 0
M  V30 1410 C 129.078 2.48613 5.36606 0
M  V30 1411 H 128.008 0.167387 0.735185 0
M  V30 1412 H 130.659 1.048 1.5063 0
M  V30 1413 H 129.041 0.106367 3.95857 0
M  V30 1414 H 130.215 2.93623 3.55137 0
M  V30 1415 H 128.53 2.52948 3.30766 0
M  V30 1416 H 131.127 0.602202 5.31298 0
M  V30 1417 H 131.47 -0.622672 4.11617 0
M  V30 1418 H 132.003 1.05286 3.83614 0
M  V30 1419 H 128.742 3.53101 5.52268 0
M  V30 1420 H 128.262 1.82896 5.71235 0
M  V30 1421 H 129.941 2.32676 6.03714 0
M  V30 1422 N 130.073 -1.45103 0.615059 0
M  V30 1423 C 131.303 -2.06254 0.119596 0
M  V30 1424 C 131.711 -1.4591 -1.20445 0
M  V30 1425 O 131.054 -0.570384 -1.7462 0
M  V30 1426 C 131.116 -3.59396 -0.0865591 0
M  V30 1427 C 130.78 -4.42116 1.15683 0
M  V30 1428 C 131.777 -4.7662 2.07676 0
M  V30 1429 C 129.462 -4.82749 1.38775 0
M  V30 1430 C 131.456 -5.50622 3.21082 0
M  V30 1431 C 129.143 -5.56504 2.52481 0
M  V30 1432 C 130.141 -5.90358 3.43463 0
M  V30 1433 O 129.829 -6.62615 4.55189 0
M  V30 1434 H 129.561 -0.672423 0.0694512 0
M  V30 1435 H 132.115 -1.87219 0.844885 0
M  V30 1436 H 130.345 -3.76859 -0.866823 0
M  V30 1437 H 132.034 -4.02365 -0.534555 0
M  V30 1438 H 132.8 -4.4578 1.91063 0
M  V30 1439 H 128.679 -4.55829 0.688545 0
M  V30 1440 H 132.223 -5.76965 3.92119 0
M  V30 1441 H 128.12 -5.86759 2.69043 0
M  V30 1442 H 128.888 -6.81071 4.53966 0
M  V30 1443 N 131.551 -0.354651 -1.53558 0
M  V30 1444 C 132.514 0.484566 -2.24019 0
M  V30 1445 C 133.514 1.01861 -1.24422 0
M  V30 1446 O 134.704 0.906097 -1.4878 0
M  V30 1447 C 131.836 1.67615 -2.96847 0
M  V30 1448 H 133.029 -0.131843 -2.9961 0
M  V30 1449 H 130.582 -0.106165 -1.55939 0
M  V30 1450 H 131.317 2.33095 -2.25471 0
M  V30 1451 H 131.102 1.30029 -3.69912 0
M  V30 1452 H 132.592 2.27114 -3.50441 0
M  V30 1453 N 133.029 1.57378 -0.0835403 0
M  V30 1454 C 133.959 2.1641 0.87686 0
M  V30 1455 C 134.94 1.09429 1.30228 0
M  V30 1456 O 136.125 1.37516 1.37124 0
M  V30 1457 C 133.255 2.73517 2.14022 0
M  V30 1458 C 132.209 3.85769 1.85381 0
M  V30 1459 C 131.535 4.29529 3.18448 0
M  V30 1460 C 132.835 5.09486 1.14984 0
M  V30 1461 H 134.529 2.96914 0.385059 0
M  V30 1462 H 132.075 1.42823 0.18377 0
M  V30 1463 H 134.028 3.13463 2.81636 0
M  V30 1464 H 132.752 1.90252 2.65465 0
M  V30 1465 H 131.411 3.46345 1.20169 0
M  V30 1466 H 131.059 3.43169 3.67755 0
M  V30 1467 H 130.759 5.05204 3.00071 0
M  V30 1468 H 132.283 4.72099 3.8724 0
M  V30 1469 H 133.697 5.46674 1.72687 0
M  V30 1470 H 132.094 5.90515 1.06826 0
M  V30 1471 H 133.164 4.84724 0.130749 0
M  V30 1472 N 134.507 -0.190092 1.56449 0
M  V30 1473 C 135.47 -1.21925 1.9408 0
M  V30 1474 C 136.47 -1.38176 0.822431 0
M  V30 1475 O 137.66 -1.35903 1.08977 0
M  V30 1476 C 134.792 -2.58773 2.21922 0
M  V30 1477 H 135.985 -0.897464 2.86157 0
M  V30 1478 H 133.538 -0.43181 1.50217 0
M  V30 1479 H 134.273 -2.95998 1.32499 0
M  V30 1480 H 134.058 -2.48348 3.03424 0
M  V30 1481 H 135.548 -3.32978 2.52022 0
M  V30 1482 N 135.985 -1.50799 -0.457987 0
M  V30 1483 C 137.262 -1.52968 -1.21902 0
M  V30 1484 C 137.642 -0.281906 -2.09209 0
M  V30 1485 O 136.99 0.734076 -2.16388 0
M  V30 1486 C 137.2 -2.8326 -2.03875 0
M  V30 1487 C 138.548 -3.34425 -2.6162 0
M  V30 1488 O 139.572 -2.8467 -2.14106 0
M  V30 1489 O 138.431 -4.21188 -3.48228 0
M  V30 1490 H 135.525 -0.614129 -0.553873 0
M  V30 1491 H 138.071 -1.63098 -0.468739 0
M  V30 1492 H 136.843 -3.65543 -1.39621 0
M  V30 1493 H 136.466 -2.76195 -2.8601 0
M  V30 1494 N 137.463 0.71206 -1.40597 0
M  V30 1495 C 138.411 1.84746 -1.41321 0
M  V30 1496 C 139.405 1.66842 -0.293268 0
M  V30 1497 O 140.611 1.73904 -0.464481 0
M  V30 1498 H 136.986 0.608522 -0.441819 0
M  V30 1499 H 138.957 1.81252 -2.37045 0
M  V30 1500 C 137.706 3.22638 -1.29614 0
M  V30 1501 H 137.029 3.37023 -2.15071 0
M  V30 1502 H 138.469 4.02209 -1.3418 0
M  V30 1503 C 136.928 3.36899 -0.00673121 0
M  V30 1504 O 137.458 3.90186 0.954859 0
M  V30 1505 N 135.664 2.9053 0.0639327 0
M  V30 1506 H 135.211 2.47353 -0.719311 0
M  V30 1507 H 135.169 3.0045 0.926118 0
M  V30 1508 N 138.941 1.26152 0.944643 0
M  V30 1509 C 139.874 1.01729 2.04271 0
M  V30 1510 C 140.852 -0.0568101 1.62501 0
M  V30 1511 O 142.036 0.0848987 1.88309 0
M  V30 1512 C 139.163 0.539792 3.34371 0
M  V30 1513 C 138.209 1.60593 3.9511 0
M  V30 1514 S 139.042 3.19392 4.29825 0
M  V30 1515 C 140.198 2.73402 5.63029 0
M  V30 1516 H 140.431 1.94703 2.24673 0
M  V30 1517 H 137.964 1.09793 1.08558 0
M  V30 1518 H 139.922 0.270956 4.09605 0
M  V30 1519 H 138.583 -0.369609 3.11918 0
M  V30 1520 H 137.776 1.22275 4.88943 0
M  V30 1521 H 137.378 1.82596 3.26397 0
M  V30 1522 H 139.67 2.1765 6.41588 0
M  V30 1523 H 140.613 3.65913 6.06229 0
M  V30 1524 H 141.021 2.13077 5.22741 0
M  V30 1525 N 140.419 -1.14872 1.07899 0
M  V30 1526 C 141.649 -1.89386 0.825631 0
M  V30 1527 C 142.057 -1.78565 -0.625406 0
M  V30 1528 O 141.4 -1.13918 -1.44113 0
M  V30 1529 C 141.462 -3.40206 1.16191 0
M  V30 1530 C 141.126 -3.74812 2.61467 0
M  V30 1531 C 142.123 -3.75367 3.59716 0
M  V30 1532 C 139.808 -4.0495 2.97189 0
M  V30 1533 C 141.802 -4.05574 4.9172 0
M  V30 1534 C 139.489 -4.34821 4.29388 0
M  V30 1535 C 140.487 -4.35116 5.26463 0
M  V30 1536 O 140.175 -4.64267 6.56286 0
M  V30 1537 H 139.907 -0.606894 0.297751 0
M  V30 1538 H 142.461 -1.46438 1.44031 0
M  V30 1539 H 140.691 -3.8358 0.490214 0
M  V30 1540 H 142.38 -3.96018 0.890193 0
M  V30 1541 H 143.146 -3.52176 3.33462 0
M  V30 1542 H 139.025 -4.03876 2.22273 0
M  V30 1543 H 142.569 -4.05719 5.67484 0
M  V30 1544 H 138.466 -4.5748 4.55392 0
M  V30 1545 H 139.234 -4.82007 6.61522 0
M  V30 1546 N 141.898 -0.863906 -1.31812 0
M  V30 1547 C 143.314 -0.555004 -1.49639 0
M  V30 1548 C 143.514 0.912266 -1.79666 0
M  V30 1549 O 142.57 1.69479 -1.87171 0
M  V30 1550 C 143.883 -1.44998 -2.63431 0
M  V30 1551 C 145.431 -1.45138 -2.77316 0
M  V30 1552 C 145.906 -2.33179 -3.94197 0
M  V30 1553 N 147.397 -2.31025 -4.01474 0
M  V30 1554 C 148.132 -2.95871 -4.9117 0
M  V30 1555 N 147.628 -3.69863 -5.8581 0
M  V30 1556 N 149.421 -2.85211 -4.84367 0
M  V30 1557 H 141.572 -1.81339 -1.10589 0
M  V30 1558 H 143.835 -0.77505 -0.545895 0
M  V30 1559 H 143.541 -2.49377 -2.48 0
M  V30 1560 H 143.415 -1.14409 -3.59431 0
M  V30 1561 H 145.802 -0.415201 -2.92164 0
M  V30 1562 H 145.883 -1.79747 -1.82001 0
M  V30 1563 H 145.527 -3.3687 -3.80107 0
M  V30 1564 H 145.457 -1.95897 -4.88807 0
M  V30 1565 H 147.948 -1.77238 -3.33759 0
M  V30 1566 H 148.261 -4.16486 -6.50968 0
M  V30 1567 H 146.606 -3.73971 -5.85808 0
M  V30 1568 H 149.797 -2.26948 -4.09405 0
M  V30 1569 H 149.97 -3.36027 -5.54066 0
M  V30 1570 N 143.376 1.44774 -0.622745 0
M  V30 1571 C 144.324 2.32387 0.0994683 0
M  V30 1572 C 145.318 1.46859 0.844326 0
M  V30 1573 O 146.524 1.63254 0.758174 0
M  V30 1574 H 142.899 0.750273 0.0509291 0
M  V30 1575 H 144.87 2.91062 -0.65767 0
M  V30 1576 C 143.619 3.30723 1.07319 0
M  V30 1577 H 142.942 3.96541 0.509462 0
M  V30 1578 H 144.382 3.94725 1.54817 0
M  V30 1579 C 142.841 2.59021 2.15429 0
M  V30 1580 O 143.371 2.38286 3.23393 0
M  V30 1581 N 141.577 2.189 1.91131 0
M  V30 1582 H 141.124 2.35964 1.03337 0
M  V30 1583 H 141.082 1.71251 2.63668 0
M  V30 1584 N 144.854 0.36279 1.53368 0
M  V30 1585 C 145.787 -0.528507 2.21996 0
M  V30 1586 C 146.765 -1.0852 1.21087 0
M  V30 1587 O 147.949 -1.14186 1.4998 0
M  V30 1588 C 145.076 -1.72893 2.91249 0
M  V30 1589 C 144.122 -1.29994 4.06207 0
M  V30 1590 S 144.955 -0.303575 5.34639 0
M  V30 1591 C 146.111 -1.51039 6.07403 0
M  V30 1592 H 146.344 0.0543423 2.9725 0
M  V30 1593 H 143.877 0.146889 1.537 0
M  V30 1594 H 145.835 -2.41751 3.31763 0
M  V30 1595 H 144.496 -2.28303 2.15724 0
M  V30 1596 H 143.689 -2.19549 4.53667 0
M  V30 1597 H 143.291 -0.690608 3.67569 0
M  V30 1598 H 145.583 -2.44186 6.31965 0
M  V30 1599 H 146.526 -1.07721 6.99858 0
M  V30 1600 H 146.934 -1.71518 5.37812 0
M  V30 1601 N 146.332 -1.57332 0.0918853 0
M  V30 1602 C 147.581 -1.93412 -0.572249 0
M  V30 1603 C 147.894 -0.975515 -1.69538 0
M  V30 1604 O 149.1 -1.22991 -2.42045 0
M  V30 1605 C 147.556 -3.43648 -1.0693 0
M  V30 1606 C 147.164 -4.47994 0.0239049 0
M  V30 1607 C 148.908 -3.88695 -1.70635 0
M  V30 1608 C 146.815 -5.89381 -0.488319 0
M  V30 1609 H 145.745 -0.721939 -0.217532 0
M  V30 1610 H 148.396 -1.82735 0.167369 0
M  V30 1611 H 146.778 -3.49466 -1.8625 0
M  V30 1612 H 147.952 -4.53815 0.799277 0
M  V30 1613 H 146.267 -4.12536 0.565946 0
M  V30 1614 H 148.864 -4.91725 -2.10025 0
M  V30 1615 H 149.207 -3.27166 -2.57426 0
M  V30 1616 H 149.74 -3.85564 -0.979023 0
M  V30 1617 H 146.479 -6.54602 0.342906 0
M  V30 1618 H 145.999 -5.87037 -1.23077 0
M  V30 1619 H 147.678 -6.39863 -0.958317 0
M  V30 1620 N 147.81 0.181792 -1.56548 0
M  V30 1621 C 149.059 0.898348 -1.8059 0
M  V30 1622 C 149.372 1.83862 -0.667379 0
M  V30 1623 O 150.578 2.59678 -0.792446 0
M  V30 1624 C 149.034 1.64791 -3.19956 0
M  V30 1625 C 148.642 0.751789 -4.41647 0
M  V30 1626 C 150.386 2.35331 -3.53298 0
M  V30 1627 C 148.293 1.50098 -5.72035 0
M  V30 1628 H 147.223 0.339194 -0.673397 0
M  V30 1629 H 149.874 0.151413 -1.82874 0
M  V30 1630 H 148.256 2.43921 -3.11959 0
M  V30 1631 H 149.43 -0.0018076 -4.608 0
M  V30 1632 H 147.745 0.156562 -4.16106 0
M  V30 1633 H 150.342 2.91958 -4.47956 0
M  V30 1634 H 150.685 3.10164 -2.77676 0
M  V30 1635 H 151.218 1.63154 -3.62803 0
M  V30 1636 H 147.957 0.795175 -6.50659 0
M  V30 1637 H 147.477 2.22817 -5.56878 0
M  V30 1638 H 149.156 2.05125 -6.13622 0
M  V30 1639 N 149.288 1.51039 0.449983 0
M  V30 1640 C 150.565 1.53612 1.21089 0
M  V30 1641 C 150.945 0.292997 2.09057 0
M  V30 1642 O 150.293 -0.72259 2.16774 0
M  V30 1643 C 150.503 2.84337 2.0237 0
M  V30 1644 C 151.851 3.35807 2.59843 0
M  V30 1645 O 152.875 2.85802 2.12593 0
M  V30 1646 O 151.734 4.23029 3.45989 0
M  V30 1647 H 148.828 0.617057 0.550608 0
M  V30 1648 H 151.374 1.63344 0.460082 0
M  V30 1649 H 150.146 3.66278 1.37681 0
M  V30 1650 H 149.769 2.77708 2.84542 0
M  V30 1651 N 150.766 -0.704594 1.40972 0
M  V30 1652 C 152.182 -1.01406 1.23244 0
M  V30 1653 C 152.382 -2.01169 0.115399 0
M  V30 1654 O 151.438 -2.47021 -0.523147 0
M  V30 1655 C 152.751 -1.54728 2.57836 0
M  V30 1656 C 154.299 -1.66658 2.64942 0
M  V30 1657 C 154.774 -2.23383 3.9983 0
M  V30 1658 N 156.265 -2.30756 4.01629 0
M  V30 1659 C 157 -2.75655 5.02794 0
M  V30 1660 N 156.496 -3.20225 6.14352 0
M  V30 1661 N 158.289 -2.75138 4.90159 0
M  V30 1662 H 150.44 -0.0435285 2.12355 0
M  V30 1663 H 152.703 -0.0818951 0.944456 0
M  V30 1664 H 152.409 -0.888832 3.40283 0
M  V30 1665 H 152.283 -2.53084 2.79693 0
M  V30 1666 H 154.67 -2.31617 1.8286 0
M  V30 1667 H 154.751 -0.668717 2.46904 0
M  V30 1668 H 154.395 -1.59043 4.82357 0
M  V30 1669 H 154.325 -3.23904 4.15203 0
M  V30 1670 H 156.816 -1.99291 3.21079 0
M  V30 1671 H 157.129 -3.53084 6.87424 0
M  V30 1672 H 155.474 -3.18156 6.17901 0
M  V30 1673 H 158.665 -2.39661 4.02095 0
M  V30 1674 H 158.838 -3.09812 5.6914 0
M  V30 1675 N 152.244 -1.26651 -0.937939 0
M  V30 1676 C 153.154 -1.10276 -2.07066 0
M  V30 1677 C 154.17 -0.0354197 -1.73964 0
M  V30 1678 O 155.346 -0.239816 -1.99967 0
M  V30 1679 C 152.411 -0.740887 -3.38691 0
M  V30 1680 C 151.472 -1.88799 -3.85556 0
M  V30 1681 C 150.705 -1.54329 -5.10899 0
M  V30 1682 O 150.928 -0.446494 -5.6865 0
M  V30 1683 O 149.862 -2.37911 -5.52885 0
M  V30 1684 H 153.688 -2.05309 -2.23789 0
M  V30 1685 H 151.273 -1.05743 -1.0554 0
M  V30 1686 H 153.155 -0.55195 -4.1777 0
M  V30 1687 H 151.83 0.180022 -3.23199 0
M  V30 1688 H 150.737 -2.13191 -3.07409 0
M  V30 1689 H 152.07 -2.78874 -4.05574 0
M  V30 1690 N 153.722 1.14298 -1.08507 0
M  V30 1691 C 154.67 2.21483 -0.710483 0
M  V30 1692 C 155.664 1.66998 0.284234 0
M  V30 1693 O 156.87 1.79401 0.146692 0
M  V30 1694 H 153.245 0.721578 -0.211729 0
M  V30 1695 H 155.216 2.50348 -1.62384 0
M  V30 1696 C 153.965 3.4743 -0.137007 0
M  V30 1697 H 153.288 3.89686 -0.893592 0
M  V30 1698 H 154.728 4.2391 0.0872789 0
M  V30 1699 C 153.187 3.17548 1.12538 0
M  V30 1700 O 153.717 3.35437 2.21009 0
M  V30 1701 N 151.923 2.71499 1.03617 0
M  V30 1702 H 151.47 2.57143 0.153403 0
M  V30 1703 H 151.428 2.51881 1.88158 0
M  V30 1704 N 155.201 0.870884 1.31352 0
M  V30 1705 C 156.133 0.28455 2.27427 0
M  V30 1706 C 157.146 -0.552927 1.53123 0
M  V30 1707 O 158.335 -0.374771 1.74521 0
M  V30 1708 C 155.435 -0.615164 3.3327 0
M  V30 1709 C 154.608 0.190079 4.36987 0
M  V30 1710 C 153.667 -0.637917 5.22319 0
M  V30 1711 O 152.693 -0.065626 5.69162 0
M  V30 1712 N 153.895 -1.94973 5.46778 0
M  V30 1713 H 156.66 1.11017 2.7838 0
M  V30 1714 H 154.221 0.732458 1.44384 0
M  V30 1715 H 156.213 -1.1748 3.87273 0
M  V30 1716 H 154.783 -1.34146 2.82354 0
M  V30 1717 H 154.003 0.931165 3.83044 0
M  V30 1718 H 155.291 0.742579 5.03352 0
M  V30 1719 H 154.689 -2.4378 5.10478 0
M  V30 1720 H 153.246 -2.45713 6.03712 0
M  V30 1721 N 156.679 -1.44442 0.630414 0
M  V30 1722 C 157.919 -2.03934 0.137919 0
M  V30 1723 C 158.283 -1.48509 -1.21692 0
M  V30 1724 O 159.484 -1.99499 -1.80149 0
M  V30 1725 C 157.755 -3.57187 0.123373 0
M  V30 1726 S 159.314 -4.37741 -0.304604 0
M  V30 1727 H 156.132 -0.708401 0.0607353 0
M  V30 1728 H 158.734 -1.76835 0.833643 0
M  V30 1729 H 157.438 -3.95032 1.11256 0
M  V30 1730 H 156.969 -3.88895 -0.59362 0
M  V30 1731 H 158.984 -4.71403 -1.54897 0
M  V30 1732 N 158.157 -0.370918 -1.53173 0
M  V30 1733 C 159.403 0.217423 -2.01631 0
M  V30 1734 C 159.736 1.47983 -1.25756 0
M  V30 1735 O 159.011 1.91274 -0.352764 0
M  V30 1736 C 159.294 0.503982 -3.56556 0
M  V30 1737 C 159.147 -0.77243 -4.43118 0
M  V30 1738 C 160.466 1.30234 -4.20389 0
M  V30 1739 H 157.585 0.0775486 -0.732909 0
M  V30 1740 H 160.227 -0.496863 -1.83388 0
M  V30 1741 H 158.377 1.11248 -3.72231 0
M  V30 1742 H 160.049 -1.4098 -4.39229 0
M  V30 1743 H 158.292 -1.39167 -4.10871 0
M  V30 1744 H 158.963 -0.526815 -5.4948 0
M  V30 1745 H 161.439 0.787546 -4.08579 0
M  V30 1746 H 160.315 1.47158 -5.28806 0
M  V30 1747 H 160.576 2.31237 -3.76805 0
M  V30 1748 N 159.635 1.57281 -0.100228 0
M  V30 1749 C 160.884 1.93713 0.561984 0
M  V30 1750 C 161.197 0.984492 1.69018 0
M  V30 1751 O 162.403 1.24273 2.41389 0
M  V30 1752 C 160.859 3.4421 1.05106 0
M  V30 1753 C 160.467 4.47975 -0.0476628 0
M  V30 1754 C 162.211 3.89595 1.68571 0
M  V30 1755 C 160.118 5.89631 0.457055 0
M  V30 1756 H 159.048 0.723082 0.2137 0
M  V30 1757 H 161.699 1.82644 -0.177057 0
M  V30 1758 H 160.081 3.50449 1.84395 0
M  V30 1759 H 161.255 4.53385 -0.823333 0
M  V30 1760 H 159.57 4.1223 -0.587816 0
M  V30 1761 H 162.167 4.92832 2.07414 0
M  V30 1762 H 162.51 3.28526 2.55688 0
M  V30 1763 H 163.043 3.86078 0.958562 0
M  V30 1764 H 159.782 6.54411 -0.377616 0
M  V30 1765 H 159.302 5.87681 1.19962 0
M  V30 1766 H 160.981 6.40363 0.92437 0
M  V30 1767 N 161.113 -0.173488 1.56642 0
M  V30 1768 C 162.362 -0.888758 1.81063 0
M  V30 1769 C 162.675 -1.83506 0.67712 0
M  V30 1770 O 163.881 -2.59254 0.806206 0
M  V30 1771 C 162.337 -1.63091 3.20826 0
M  V30 1772 C 161.945 -0.728357 4.4204 0
M  V30 1773 C 163.689 -2.33454 3.54541 0
M  V30 1774 C 161.596 -1.47062 5.72823 0
M  V30 1775 H 160.526 -0.335618 0.675186 0
M  V30 1776 H 163.177 -0.141712 1.82952 0
M  V30 1777 H 161.559 -2.42263 3.13248 0
M  V30 1778 H 162.733 0.0262449 4.60793 0
M  V30 1779 H 161.048 -0.134492 4.16183 0
M  V30 1780 H 163.645 -2.89578 4.49498 0
M  V30 1781 H 163.988 -3.08687 2.79317 0
M  V30 1782 H 164.521 -1.61227 3.63663 0
M  V30 1783 H 161.26 -0.760658 6.51072 0
M  V30 1784 H 160.78 -2.1986 5.58052 0
M  V30 1785 H 162.459 -2.01868 6.14702 0
M  V30 1786 N 162.591 -1.51276 -0.441967 0
M  V30 1787 C 163.816 -1.67799 -1.21895 0
M  V30 1788 C 164.241 -0.372864 -1.84367 0
M  V30 1789 O 163.599 0.666501 -1.68604 0
M  V30 1790 C 163.647 -2.79199 -2.28211 0
M  V30 1791 O 162.751 -2.42479 -3.33583 0
M  V30 1792 H 162.092 -0.559649 -0.357336 0
M  V30 1793 H 164.622 -1.97815 -0.522522 0
M  V30 1794 H 164.632 -3.03146 -2.73069 0
M  V30 1795 H 163.307 -3.73906 -1.82118 0
M  V30 1796 H 161.884 -2.29087 -2.94234 0
M  V30 1797 N 164.069 0.697108 -1.41344 0
M  V30 1798 C 165.317 1.45426 -1.40341 0
M  V30 1799 C 165.638 1.94996 -0.0128787 0
M  V30 1800 O 164.908 1.71599 0.945027 0
M  V30 1801 H 163.488 0.539594 -0.516573 0
M  V30 1802 H 166.15 0.825201 -1.76569 0
M  V30 1803 H 165.246 2.31817 -2.08967 0
M  V30 1804 N 165.547 1.27147 0.931209 0
M  V30 1805 C 166.457 1.11372 2.06478 0
M  V30 1806 C 167.473 0.044645 1.73943 0
M  V30 1807 O 168.649 0.250417 1.99837 0
M  V30 1808 C 165.714 0.758838 3.38294 0
M  V30 1809 C 164.775 1.90841 3.84549 0
M  V30 1810 C 164.008 1.57036 5.10074 0
M  V30 1811 O 164.231 0.476645 5.68405 0
M  V30 1812 O 163.165 2.40839 5.51616 0
M  V30 1813 H 166.991 2.06493 2.22698 0
M  V30 1814 H 164.576 1.06301 1.04978 0
M  V30 1815 H 166.458 0.574098 4.17471 0
M  V30 1816 H 165.133 -0.162879 3.2329 0
M  V30 1817 H 164.04 2.14819 3.06274 0
M  V30 1818 H 165.373 2.81021 4.04089 0
M  V30 1819 N 167.025 -1.13721 1.09112 0
M  V30 1820 C 168.25 -1.89314 0.847053 0
M  V30 1821 C 168.675 -1.78416 -0.595774 0
M  V30 1822 O 168.033 -1.12942 -1.41823 0
M  V30 1823 C 168.081 -3.3701 1.28284 0
M  V30 1824 O 167.185 -4.10054 0.439267 0
M  V30 1825 H 166.526 -0.588745 0.307044 0
M  V30 1826 H 169.056 -1.43902 1.45442 0
M  V30 1827 H 169.066 -3.87834 1.26683 0
M  V30 1828 H 167.741 -3.4426 2.33363 0
M  V30 1829 H 166.318 -3.69266 0.519312 0
M  V30 1830 N 168.503 -0.877838 -1.30888 0
M  V30 1831 C 169.751 -0.491723 -1.96027 0
M  V30 1832 C 170.072 0.960827 -1.69685 0
M  V30 1833 O 169.342 1.67462 -1.01654 0
M  V30 1834 H 167.922 -0.17885 -0.725273 0
M  V30 1835 H 170.584 -1.11935 -1.59551 0
M  V30 1836 H 169.68 -0.656016 -3.05128 0
M  V30 1837 N 169.982 1.44106 -0.638065 0
M  V30 1838 C 170.945 2.29138 0.0531013 0
M  V30 1839 C 171.945 1.41409 0.765506 0
M  V30 1840 O 173.135 1.63206 0.609046 0
M  V30 1841 C 170.267 3.23144 1.08584 0
M  V30 1842 H 171.46 2.91739 -0.694883 0
M  V30 1843 H 169.013 1.51134 -0.398538 0
M  V30 1844 H 169.748 2.65408 1.86357 0
M  V30 1845 H 169.533 3.87804 0.578852 0
M  V30 1846 H 171.023 3.87004 1.56899 0
M  V30 1847 N 171.46 0.379036 1.52974 0
M  V30 1848 C 172.708 -0.206014 2.01047 0
M  V30 1849 C 173.029 -1.48175 1.26765 0
M  V30 1850 O 172.299 -1.92085 0.384743 0
M  V30 1851 H 170.879 -0.0791184 0.742798 0
M  V30 1852 H 173.541 0.508366 1.88153 0
M  V30 1853 H 172.637 -0.423501 3.09213 0
M  V30 1854 N 172.938 -1.57226 0.108567 0
M  V30 1855 C 173.885 -2.14756 -0.845481 0
M  V30 1856 C 174.855 -1.06971 -1.27068 0
M  V30 1857 O 176.04 -1.34827 -1.35005 0
M  V30 1858 C 173.18 -2.74298 -2.09415 0
M  V30 1859 C 172.293 -3.96358 -1.71826 0
M  V30 1860 C 171.428 -4.44021 -2.9158 0
M  V30 1861 C 170.467 -5.58637 -2.50181 0
M  V30 1862 N 169.604 -6.01091 -3.62814 0
M  V30 1863 H 174.444 -2.95961 -0.348035 0
M  V30 1864 H 171.981 -1.46226 -0.160106 0
M  V30 1865 H 173.939 -3.06945 -2.82561 0
M  V30 1866 H 172.569 -1.95801 -2.56636 0
M  V30 1867 H 171.621 -3.69939 -0.885947 0
M  V30 1868 H 172.933 -4.79504 -1.37394 0
M  V30 1869 H 172.087 -4.78522 -3.72963 0
M  V30 1870 H 170.826 -3.59803 -3.29231 0
M  V30 1871 H 169.831 -5.23751 -1.67228 0
M  V30 1872 H 171.056 -6.44613 -2.13659 0
M  V30 1873 H 169.002 -5.19817 -4.00158 0
M  V30 1874 H 168.919 -6.79066 -3.32273 0
M  V30 1875 H 170.187 -6.40227 -4.44668 0
M  V30 1876 N 174.416 0.165178 -1.56732 0
M  V30 1877 C 175.644 0.896218 -1.86482 0
M  V30 1878 C 176.059 1.75555 -0.694675 0
M  V30 1879 O 175.416 1.79379 0.33607 0
M  V30 1880 C 175.467 1.76792 -3.1532 0
M  V30 1881 O 175.188 0.943239 -4.27825 0
M  V30 1882 C 176.689 2.6081 -3.58459 0
M  V30 1883 H 173.909 0.260064 -0.618553 0
M  V30 1884 H 176.453 0.163428 -2.03846 0
M  V30 1885 H 174.608 2.45398 -2.99764 0
M  V30 1886 H 175.022 1.53998 -5.01383 0
M  V30 1887 H 176.496 3.17579 -4.51495 0
M  V30 1888 H 176.973 3.35977 -2.82872 0
M  V30 1889 H 177.579 1.97526 -3.76648 0
M  V30 1890 N 175.894 1.51508 0.433938 0
M  V30 1891 C 177.14 1.64588 1.18484 0
M  V30 1892 C 177.473 0.362666 1.90784 0
M  V30 1893 O 176.748 -0.637892 1.83742 0
M  V30 1894 C 177.031 2.85149 2.19913 0
M  V30 1895 C 176.884 4.23456 1.51674 0
M  V30 1896 C 178.203 3.01227 3.20858 0
M  V30 1897 H 175.322 0.598994 0.429389 0
M  V30 1898 H 177.964 1.84002 0.473647 0
M  V30 1899 H 176.114 2.68729 2.80566 0
M  V30 1900 H 177.786 4.51552 0.943322 0
M  V30 1901 H 176.029 4.25998 0.819035 0
M  V30 1902 H 176.7 5.03812 2.2556 0
M  V30 1903 H 179.176 3.16382 2.70263 0
M  V30 1904 H 178.052 3.87141 3.89118 0
M  V30 1905 H 178.313 2.13447 3.8716 0
M  V30 1906 N 177.372 -0.689602 1.41712 0
M  V30 1907 C 178.335 -1.78521 1.43746 0
M  V30 1908 C 179.335 -1.57436 0.327191 0
M  V30 1909 O 180.525 -1.64 0.587348 0
M  V30 1910 C 177.657 -3.16971 1.25467 0
M  V30 1911 H 178.85 -1.78108 2.41283 0
M  V30 1912 H 176.403 -0.89781 1.27942 0
M  V30 1913 H 177.138 -3.23019 0.287948 0
M  V30 1914 H 176.923 -3.33678 2.05917 0
M  V30 1915 H 178.413 -3.96935 1.2974 0
M  V30 1916 N 178.85 -1.27639 -0.924453 0
M  V30 1917 C 179.813 -1.10681 -2.00705 0
M  V30 1918 C 180.813 -0.0497823 -1.60723 0
M  V30 1919 O 182.003 -0.294654 -1.7169 0
M  V30 1920 C 179.135 -0.687164 -3.33902 0
M  V30 1921 H 180.328 -2.06817 -2.17179 0
M  V30 1922 H 177.881 -1.10473 -1.10569 0
M  V30 1923 H 178.616 0.275439 -3.23128 0
M  V30 1924 H 178.401 -1.45061 -3.6428 0
M  V30 1925 H 179.891 -0.590853 -4.13399 0
M  V30 1926 N 180.328 1.1314 -1.09713 0
M  V30 1927 C 181.275 2.18642 -0.739196 0
M  V30 1928 C 182.245 1.63706 0.280978 0
M  V30 1929 O 183.43 1.90111 0.161946 0
M  V30 1930 C 180.57 3.44685 -0.169102 0
M  V30 1931 C 179.683 4.13711 -1.24367 0
M  V30 1932 C 178.818 5.27379 -0.636019 0
M  V30 1933 C 177.857 5.88259 -1.69169 0
M  V30 1934 N 176.994 6.93352 -1.10485 0
M  V30 1935 H 181.834 2.48607 -1.64312 0
M  V30 1936 H 179.371 1.22066 -0.820875 0
M  V30 1937 H 181.329 4.16815 0.179256 0
M  V30 1938 H 179.959 3.15161 0.698079 0
M  V30 1939 H 179.011 3.39835 -1.70927 0
M  V30 1940 H 180.323 4.55037 -2.04311 0
M  V30 1941 H 179.477 6.06238 -0.236677 0
M  V30 1942 H 178.216 4.8731 0.194928 0
M  V30 1943 H 177.221 5.08092 -2.10055 0
M  V30 1944 H 178.446 6.30399 -2.52536 0
M  V30 1945 H 176.392 6.55335 -0.295234 0
M  V30 1946 H 176.309 7.33236 -1.84121 0
M  V30 1947 H 177.577 7.76057 -0.73181 0
M  V30 1948 N 181.806 0.884767 1.30421 0
M  V30 1949 C 183.036 0.517293 2.00019 0
M  V30 1950 C 183.444 -0.898632 1.66497 0
M  V30 1951 O 182.787 -1.60245 0.898181 0
M  V30 1952 C 182.849 0.612025 3.54252 0
M  V30 1953 C 182.513 1.99222 4.1129 0
M  V30 1954 C 183.51 2.9616 4.273 0
M  V30 1955 C 181.195 2.29755 4.46674 0
M  V30 1956 C 183.189 4.21764 4.77906 0
M  V30 1957 C 180.876 3.55606 4.96979 0
M  V30 1958 C 181.874 4.51425 5.12547 0
M  V30 1959 O 181.562 5.75043 5.61766 0
M  V30 1960 H 181.294 0.198529 0.64619 0
M  V30 1961 H 183.848 1.1919 1.67281 0
M  V30 1962 H 182.078 -0.119561 3.86515 0
M  V30 1963 H 183.767 0.255859 4.05093 0
M  V30 1964 H 184.533 2.73882 4.00267 0
M  V30 1965 H 180.412 1.55942 4.33824 0
M  V30 1966 H 183.956 4.96561 4.89972 0
M  V30 1967 H 179.853 3.7772 5.23448 0
M  V30 1968 H 180.621 5.77422 5.80109 0
M  V30 1969 N 183.284 -1.43765 0.645699 0
M  V30 1970 C 184.533 -2.01116 0.153412 0
M  V30 1971 C 184.846 -1.51493 -1.23731 0
M  V30 1972 O 186.052 -2.01067 -1.8244 0
M  V30 1973 C 184.508 -3.59206 0.223473 0
M  V30 1974 C 184.116 -4.17823 1.61642 0
M  V30 1975 C 185.86 -4.23972 -0.211597 0
M  V30 1976 C 183.767 -5.68183 1.64081 0
M  V30 1977 H 182.697 -0.752093 0.0535891 0
M  V30 1978 H 185.348 -1.6482 0.806633 0
M  V30 1979 H 183.73 -3.92867 -0.497118 0
M  V30 1980 H 184.904 -3.95674 2.36176 0
M  V30 1981 H 183.219 -3.65399 1.99681 0
M  V30 1982 H 185.816 -5.34275 -0.213112 0
M  V30 1983 H 186.159 -3.97352 -1.24165 0
M  V30 1984 H 186.692 -3.95166 0.456988 0
M  V30 1985 H 183.431 -5.99559 2.64971 0
M  V30 1986 H 182.951 -5.9241 0.938611 0
M  V30 1987 H 184.63 -6.32085 1.3812 0
M  V30 1988 N 184.763 -0.387143 -1.52771 0
M  V30 1989 C 185.696 0.493123 -2.22808 0
M  V30 1990 C 186.674 1.0658 -1.22798 0
M  V30 1991 O 187.858 1.11785 -1.51777 0
M  V30 1992 C 184.985 1.68238 -2.93962 0
M  V30 1993 C 184.031 1.23515 -4.08223 0
M  V30 1994 S 184.864 0.21848 -5.35054 0
M  V30 1995 C 186.02 1.41357 -6.09729 0
M  V30 1996 H 186.253 -0.101625 -2.97126 0
M  V30 1997 H 183.786 -0.171323 -1.53447 0
M  V30 1998 H 185.744 2.36443 -3.35567 0
M  V30 1999 H 184.405 2.24842 -2.19328 0
M  V30 2000 H 183.598 2.12304 -4.57103 0
M  V30 2001 H 183.2 0.632044 -3.68621 0
M  V30 2002 H 185.492 2.34101 -6.3577 0
M  V30 2003 H 186.435 0.965736 -7.01484 0
M  V30 2004 H 186.843 1.6294 -5.40473 0
M  V30 2005 N 186.241 1.57166 -0.116904 0
M  V30 2006 C 187.466 1.999 0.55271 0
M  V30 2007 C 187.891 0.996039 1.59564 0
M  V30 2008 O 187.249 -0.032556 1.81271 0
M  V30 2009 C 187.297 3.4152 1.15742 0
M  V30 2010 O 186.401 3.44106 2.27299 0
M  V30 2011 H 185.742 0.649447 0.138258 0
M  V30 2012 H 188.272 2.03573 -0.204759 0
M  V30 2013 H 188.282 3.79684 1.49346 0
M  V30 2014 H 186.957 4.14034 0.393493 0
M  V30 2015 H 185.534 3.17759 1.9515 0
M  V30 2016 N 187.719 -0.156864 1.56817 0
M  V30 2017 C 188.949 -0.885031 1.86684 0
M  V30 2018 C 189.357 -1.75696 0.701954 0
M  V30 2019 O 188.7 -1.80569 -0.337732 0
M  V30 2020 C 188.762 -1.80092 3.11138 0
M  V30 2021 C 188.426 -1.10714 4.43386 0
M  V30 2022 C 189.423 -0.465714 5.1781 0
M  V30 2023 C 187.108 -1.09959 4.90117 0
M  V30 2024 C 189.102 0.174002 6.37162 0
M  V30 2025 C 186.789 -0.456055 6.09396 0
M  V30 2026 C 187.787 0.179622 6.82764 0
M  V30 2027 O 187.475 0.812975 7.99779 0
M  V30 2028 H 187.207 -0.261813 0.623242 0
M  V30 2029 H 189.761 -0.157383 2.04796 0
M  V30 2030 H 187.991 -2.56926 2.89009 0
M  V30 2031 H 189.68 -2.40018 3.27332 0
M  V30 2032 H 190.446 -0.463427 4.82781 0
M  V30 2033 H 186.325 -1.58378 4.3294 0
M  V30 2034 H 189.869 0.670765 6.94368 0
M  V30 2035 H 185.766 -0.455975 6.43888 0
M  V30 2036 H 186.534 0.71366 8.15383 0
M  V30 2037 N 189.197 -1.51736 -0.425897 0
M  V30 2038 C 190.446 -1.64201 -1.17136 0
M  V30 2039 C 190.759 -0.369705 -1.92074 0
M  V30 2040 O 191.965 -0.373898 -2.68913 0
M  V30 2041 C 190.421 -2.90035 -2.13091 0
M  V30 2042 C 190.029 -4.24312 -1.43747 0
M  V30 2043 C 191.773 -3.1186 -2.87999 0
M  V30 2044 C 189.68 -5.41285 -2.38253 0
M  V30 2045 H 188.61 -0.611624 -0.440944 0
M  V30 2046 H 191.261 -1.78212 -0.437328 0
M  V30 2047 H 189.643 -2.69684 -2.89977 0
M  V30 2048 H 190.817 -4.55086 -0.723408 0
M  V30 2049 H 189.132 -4.08456 -0.809465 0
M  V30 2050 H 191.729 -3.96427 -3.58817 0
M  V30 2051 H 192.072 -2.25403 -3.49999 0
M  V30 2052 H 192.605 -3.32605 -2.18217 0
M  V30 2053 H 189.344 -6.30037 -1.80925 0
M  V30 2054 H 188.864 -5.14872 -3.0768 0
M  V30 2055 H 190.543 -5.73694 -2.99139 0
M  V30 2056 N 190.675 0.682077 -1.42076 0
M  V30 2057 C 191.9 1.47558 -1.45744 0
M  V30 2058 C 192.325 1.87977 -0.0680981 0
M  V30 2059 O 191.683 1.55522 0.9318 0
M  V30 2060 C 191.731 2.70575 -2.38373 0
M  V30 2061 O 190.835 3.68573 -1.85007 0
M  V30 2062 H 190.176 0.443585 -0.494093 0
M  V30 2063 H 192.706 0.837238 -1.86686 0
M  V30 2064 H 192.716 3.18729 -2.54707 0
M  V30 2065 H 191.391 2.40495 -3.39315 0
M  V30 2066 H 189.968 3.2757 -1.78192 0
M  V30 2067 N 192.153 1.28127 0.917671 0
M  V30 2068 C 193.569 1.05749 1.19538 0
M  V30 2069 C 193.769 -0.202633 2.00479 0
M  V30 2070 O 192.825 -0.905382 2.3571 0
M  V30 2071 C 194.138 2.30273 1.93378 0
M  V30 2072 C 195.686 2.35412 2.06277 0
M  V30 2073 C 196.161 3.59692 2.83524 0
M  V30 2074 N 197.652 3.60309 2.91087 0
M  V30 2075 C 198.387 4.53147 3.51348 0
M  V30 2076 N 197.883 5.563 4.12919 0
M  V30 2077 N 199.676 4.40751 3.48849 0
M  V30 2078 H 191.827 2.09024 0.377184 0
M  V30 2079 H 194.09 0.919798 0.22951 0
M  V30 2080 H 193.796 3.22055 1.41328 0
M  V30 2081 H 193.67 2.36378 2.93947 0
M  V30 2082 H 196.057 1.4413 2.57508 0
M  V30 2083 H 196.138 2.33304 1.04895 0
M  V30 2084 H 195.782 4.51316 2.32973 0
M  V30 2085 H 195.712 3.59054 3.85211 0
M  V30 2086 H 198.203 2.85714 2.47338 0
M  V30 2087 H 198.516 6.2329 4.56869 0
M  V30 2088 H 196.861 5.60131 4.11435 0
M  V30 2089 H 200.052 3.59367 2.99955 0
M  V30 2090 H 200.225 5.13291 3.9552 0
M  V30 2091 N 193.631 -1.12557 1.10312 0
M  V30 2092 C 194.877 -1.84311 0.846011 0
M  V30 2093 C 195.21 -1.83805 -0.626859 0
M  V30 2094 O 194.485 -1.28268 -1.46211 0
M  V30 2095 C 194.768 -3.32048 1.39341 0
M  V30 2096 C 194.621 -3.41016 2.93305 0
M  V30 2097 C 195.94 -4.27764 1.03468 0
M  V30 2098 H 193.059 -0.669192 0.30879 0
M  V30 2099 H 195.701 -1.32057 1.36605 0
M  V30 2100 H 193.851 -3.76678 0.951087 0
M  V30 2101 H 195.523 -3.05031 3.46055 0
M  V30 2102 H 193.766 -2.81603 3.29973 0
M  V30 2103 H 194.437 -4.44948 3.26689 0
M  V30 2104 H 196.913 -3.91253 1.41633 0
M  V30 2105 H 195.789 -5.29549 1.44463 0
M  V30 2106 H 196.05 -4.42064 -0.0560404 0
M  V30 2107 N 195.109 -0.891671 -1.2995 0
M  V30 2108 C 196.334 -0.527932 -2.00568 0
M  V30 2109 C 196.759 0.877969 -1.66353 0
M  V30 2110 O 196.117 1.58301 -0.883762 0
M  V30 2111 C 196.165 -0.717745 -3.53385 0
M  V30 2112 O 195.269 0.233376 -4.11739 0
M  V30 2113 H 194.61 -0.20722 -0.630837 0
M  V30 2114 H 197.14 -1.20105 -1.65638 0
M  V30 2115 H 197.15 -0.619307 -4.03272 0
M  V30 2116 H 195.825 -1.74276 -3.77625 0
M  V30 2117 H 194.402 0.0880706 -3.72796 0
M  V30 2118 N 196.587 1.43421 -0.653314 0
M  V30 2119 C 197.835 2.01414 -0.166415 0
M  V30 2120 C 198.156 1.51803 1.22397 0
M  V30 2121 O 197.426 0.730693 1.81763 0
M  V30 2122 H 196.006 0.744703 -0.0585319 0
M  V30 2123 H 198.668 1.75629 -0.845003 0
M  V30 2124 H 197.764 3.11734 -0.151111 0
M  V30 2125 N 198.065 0.39524 1.52563 0
M  V30 2126 C 199.313 -0.184678 2.01254 0
M  V30 2127 C 199.634 -1.46822 1.28329 0
M  V30 2128 O 198.904 -1.91666 0.405094 0
M  V30 2129 H 197.484 -0.0712355 0.743596 0
M  V30 2130 H 200.146 0.528293 1.87603 0
M  V30 2131 H 199.242 -0.390681 3.09645 0
M  V30 2132 N 199.544 -1.57102 0.125237 0
M  V30 2133 C 200.792 -1.95021 -0.530198 0
M  V30 2134 C 201.113 -1.00982 -1.66816 0
M  V30 2135 O 200.383 -0.0672693 -1.95784 0
M  V30 2136 H 198.963 -0.720046 -0.198853 0
M  V30 2137 H 201.625 -1.93916 0.19564 0
M  V30 2138 H 200.721 -2.98211 -0.920681 0
M  V30 2139 N 201.022 0.148545 -1.56898 0
M  V30 2140 C 202.25 0.876389 -1.87422 0
M  V30 2141 C 202.665 1.74809 -0.713256 0
M  V30 2142 O 202.022 1.79725 0.317025 0
M  V30 2143 C 202.073 1.73438 -3.17178 0
M  V30 2144 O 201.794 0.897809 -4.28802 0
M  V30 2145 C 203.295 2.56993 -3.61205 0
M  V30 2146 H 200.515 0.253489 -0.621277 0
M  V30 2147 H 203.059 0.141798 -2.04008 0
M  V30 2148 H 201.214 2.42205 -3.0235 0
M  V30 2149 H 201.628 1.48672 -5.02988 0
M  V30 2150 H 203.102 3.12773 -4.54838 0
M  V30 2151 H 203.579 3.32958 -2.86419 0
M  V30 2152 H 204.185 1.9352 -3.78722 0
M  V30 2153 N 202.5 1.5196 0.417844 0
M  V30 2154 C 203.447 1.74678 1.50852 0
M  V30 2155 C 204.417 0.588947 1.55308 0
M  V30 2156 O 205.602 0.825544 1.72016 0
M  V30 2157 C 202.742 1.89544 2.88387 0
M  V30 2158 C 201.855 3.17166 2.93309 0
M  V30 2159 C 200.99 3.22513 4.22088 0
M  V30 2160 C 200.029 4.44372 4.20951 0
M  V30 2161 N 199.166 4.47161 5.41287 0
M  V30 2162 H 204.006 2.67768 1.30783 0
M  V30 2163 H 201.543 1.32689 0.63498 0
M  V30 2164 H 203.501 1.96146 3.68216 0
M  V30 2165 H 202.131 0.998424 3.06971 0
M  V30 2166 H 201.183 3.19778 2.06024 0
M  V30 2167 H 202.495 4.07021 2.88332 0
M  V30 2168 H 201.649 3.28139 5.10303 0
M  V30 2169 H 200.388 2.30581 4.29748 0
M  V30 2170 H 199.393 4.38902 3.31127 0
M  V30 2171 H 200.618 5.3759 4.14938 0
M  V30 2172 H 198.564 3.58108 5.49632 0
M  V30 2173 H 198.481 5.3085 5.3827 0
M  V30 2174 H 199.749 4.57005 6.3148 0
M  V30 2175 N 203.978 -0.674533 1.42435 0
M  V30 2176 C 205.224 -1.43671 1.43131 0
M  V30 2177 C 205.557 -1.94142 0.0476021 0
M  V30 2178 O 204.832 -1.70924 -0.928188 0
M  V30 2179 C 205.115 -2.63355 2.45594 0
M  V30 2180 C 204.968 -2.18514 3.93156 0
M  V30 2181 C 206.287 -3.65571 2.45043 0
M  V30 2182 H 203.406 -0.521077 0.521198 0
M  V30 2183 H 206.048 -0.766551 1.7385 0
M  V30 2184 H 204.198 -3.2053 2.19528 0
M  V30 2185 H 205.87 -1.66504 4.30202 0
M  V30 2186 H 204.113 -1.50086 4.07009 0
M  V30 2187 H 204.784 -3.04484 4.60428 0
M  V30 2188 H 207.26 -3.18113 2.68223 0
M  V30 2189 H 206.136 -4.46893 3.18713 0
M  V30 2190 H 206.397 -4.16716 1.47649 0
M  V30 2191 N 205.456 -1.28612 -0.910864 0
M  V30 2192 C 206.388 -1.08589 -2.01844 0
M  V30 2193 C 207.401 -0.0367419 -1.62759 0
M  V30 2194 O 208.59 -0.280101 -1.76289 0
M  V30 2195 C 205.69 -0.628626 -3.33019 0
M  V30 2196 C 204.863 -1.75382 -4.00699 0
M  V30 2197 C 203.922 -1.28945 -5.10156 0
M  V30 2198 O 202.948 -1.9922 -5.33198 0
M  V30 2199 N 204.15 -0.154224 -5.80295 0
M  V30 2200 H 206.915 -2.03973 -2.19579 0
M  V30 2201 H 204.476 -1.20403 -1.08234 0
M  V30 2202 H 206.468 -0.301508 -4.03575 0
M  V30 2203 H 205.038 0.232451 -3.11735 0
M  V30 2204 H 204.258 -2.25039 -3.23653 0
M  V30 2205 H 205.546 -2.50854 -4.42662 0
M  V30 2206 H 204.944 0.43194 -5.64049 0
M  V30 2207 H 203.501 0.113599 -6.51701 0
M  V30 2208 N 206.934 1.1197 -1.10907 0
M  V30 2209 C 207.884 2.15946 -0.731538 0
M  V30 2210 C 208.868 1.58758 0.261699 0
M  V30 2211 O 210.06 1.76863 0.0696722 0
M  V30 2212 C 207.189 3.42877 -0.170299 0
M  V30 2213 C 206.275 4.07037 -1.19087 0
M  V30 2214 N 206.666 4.46135 -2.38322 0
M  V30 2215 C 204.964 4.33884 -1.03252 0
M  V30 2216 C 205.665 4.96331 -3.03366 0
M  V30 2217 N 204.641 4.9214 -2.30865 0
M  V30 2218 H 208.443 2.43947 -1.63912 0
M  V30 2219 H 205.957 1.28927 -0.987505 0
M  V30 2220 H 207.954 4.16732 0.118271 0
M  V30 2221 H 206.614 3.16343 0.731935 0
M  V30 2222 H 207.625 4.38345 -2.75815 0
M  V30 2223 H 204.302 4.17084 -0.186256 0
M  V30 2224 H 205.692 5.36257 -4.04818 0
M  V30 2225 N 208.412 0.89855 1.29475 0
M  V30 2226 C 209.658 0.524658 1.95896 0
M  V30 2227 C 209.991 -0.926468 1.70676 0
M  V30 2228 O 209.266 -1.65665 1.01908 0
M  V30 2229 C 209.549 0.81633 3.50725 0
M  V30 2230 C 209.402 2.31907 3.85408 0
M  V30 2231 C 210.721 0.302038 4.39062 0
M  V30 2232 H 207.84 0.19209 0.711527 0
M  V30 2233 H 210.482 1.12502 1.53112 0
M  V30 2234 H 208.632 0.305369 3.87298 0
M  V30 2235 H 210.304 2.89949 3.58786 0
M  V30 2236 H 208.547 2.78027 3.32992 0
M  V30 2237 H 209.218 2.47373 4.93468 0
M  V30 2238 H 211.694 0.739551 4.09475 0
M  V30 2239 H 210.57 0.535331 5.46283 0
M  V30 2240 H 210.831 -0.797216 4.34853 0
M  V30 2241 N 209.89 -1.43072 0.660911 0
M  V30 2242 C 210.837 -2.30785 -0.0259884 0
M  V30 2243 C 211.807 -1.45184 -0.806888 0
M  V30 2244 O 212.992 -1.74041 -0.781943 0
M  V30 2245 C 210.132 -3.30861 -0.981067 0
M  V30 2246 C 209.245 -4.31558 -0.195458 0
M  V30 2247 C 208.38 -5.18712 -1.14503 0
M  V30 2248 C 207.419 -6.11097 -0.350299 0
M  V30 2249 N 206.556 -6.90849 -1.25186 0
M  V30 2250 H 211.396 -2.88975 0.727846 0
M  V30 2251 H 208.933 -1.42353 0.370682 0
M  V30 2252 H 210.891 -3.87399 -1.54849 0
M  V30 2253 H 209.521 -2.74304 -1.70169 0
M  V30 2254 H 208.573 -3.77252 0.488374 0
M  V30 2255 H 209.885 -4.9701 0.422176 0
M  V30 2256 H 209.039 -5.79914 -1.78284 0
M  V30 2257 H 207.778 -4.53404 -1.79656 0
M  V30 2258 H 206.783 -5.48976 0.300808 0
M  V30 2259 H 208.008 -6.7845 0.296941 0
M  V30 2260 H 205.954 -6.28182 -1.89005 0
M  V30 2261 H 205.871 -7.52854 -0.688971 0
M  V30 2262 H 207.139 -7.5655 -1.87757 0
M  V30 2263 N 211.368 -0.403325 -1.52352 0
M  V30 2264 C 212.645 0.232611 -1.94212 0
M  V30 2265 C 213.025 1.63133 -1.33981 0
M  V30 2266 O 212.373 2.22659 -0.513344 0
M  V30 2267 C 212.583 0.244811 -3.4814 0
M  V30 2268 C 213.931 0.46698 -4.22024 0
M  V30 2269 O 214.955 0.324419 -3.5472 0
M  V30 2270 O 213.814 0.74747 -5.41364 0
M  V30 2271 H 210.908 0.148223 -0.813609 0
M  V30 2272 H 213.454 -0.458848 -1.63379 0
M  V30 2273 H 212.226 -0.734378 -3.84347 0
M  V30 2274 H 211.849 0.980611 -3.85318 0
M  V30 2275 N 212.846 1.57033 -0.133567 0
M  V30 2276 C 214.095 1.94861 0.520768 0
M  V30 2277 C 214.408 1.02012 1.66892 0
M  V30 2278 O 215.614 1.29365 2.38699 0
M  V30 2279 C 214.07 3.46362 0.977809 0
M  V30 2280 C 213.678 4.47773 -0.142674 0
M  V30 2281 C 215.422 3.93083 1.60269 0
M  V30 2282 C 213.329 5.90468 0.331883 0
M  V30 2283 H 212.259 0.727453 0.198315 0
M  V30 2284 H 214.91 1.82227 -0.215759 0
M  V30 2285 H 213.292 3.54282 1.7692 0
M  V30 2286 H 214.466 4.51536 -0.919317 0
M  V30 2287 H 212.781 4.10891 -0.675124 0
M  V30 2288 H 215.378 4.97121 1.96914 0
M  V30 2289 H 215.721 3.33876 2.48662 0
M  V30 2290 H 216.254 3.88025 0.876453 0
M  V30 2291 H 212.993 6.53463 -0.516341 0
M  V30 2292 H 212.513 5.90094 1.07469 0
M  V30 2293 H 214.192 6.42179 0.788332 0
M  V30 2294 N 214.325 -0.140222 1.56975 0
M  V30 2295 C 215.574 -0.850152 1.82908 0
M  V30 2296 C 215.887 -1.82028 0.715892 0
M  V30 2297 O 217.093 -2.57485 0.861016 0
M  V30 2298 C 215.549 -1.5625 3.24213 0
M  V30 2299 C 215.157 -0.63443 4.43485 0
M  V30 2300 C 216.901 -2.25881 3.59413 0
M  V30 2301 C 214.808 -1.34879 5.75814 0
M  V30 2302 H 213.738 -0.321221 0.682153 0
M  V30 2303 H 216.389 -0.102874 1.83211 0
M  V30 2304 H 214.771 -2.35565 3.18316 0
M  V30 2305 H 215.945 0.12398 4.60633 0
M  V30 2306 H 214.26 -0.0461836 4.16374 0
M  V30 2307 H 216.857 -2.79978 4.5554 0
M  V30 2308 H 217.2 -3.02693 2.85802 0
M  V30 2309 H 217.733 -1.53477 3.67001 0
M  V30 2310 H 214.472 -0.622385 6.52539 0
M  V30 2311 H 213.992 -2.07974 5.6259 0
M  V30 2312 H 215.671 -1.88784 6.18845 0
M  V30 2313 N 215.803 -1.52179 -0.40978 0
M  V30 2314 C 216.733 -1.78435 -1.5061 0
M  V30 2315 C 217.714 -0.635295 -1.57791 0
M  V30 2316 O 218.899 -0.880823 -1.73076 0
M  V30 2317 C 216.029 -1.93444 -2.88439 0
M  V30 2318 C 214.983 -3.09038 -2.96108 0
M  V30 2319 C 214.309 -3.09268 -4.36185 0
M  V30 2320 C 215.609 -4.48508 -2.67652 0
M  V30 2321 H 217.303 -2.70237 -1.28889 0
M  V30 2322 H 214.849 -1.30036 -0.618605 0
M  V30 2323 H 216.802 -2.10394 -3.65119 0
M  V30 2324 H 215.526 -0.983129 -3.11452 0
M  V30 2325 H 214.185 -2.91837 -2.21872 0
M  V30 2326 H 213.833 -2.11861 -4.56206 0
M  V30 2327 H 213.533 -3.86907 -4.42241 0
M  V30 2328 H 215.057 -3.28348 -5.14801 0
M  V30 2329 H 216.471 -4.65918 -3.34056 0
M  V30 2330 H 214.868 -5.28059 -2.85085 0
M  V30 2331 H 215.938 -4.56649 -1.63095 0
M  V30 2332 N 217.281 0.66697 -1.42791 0
M  V30 2333 C 218.213 1.7925 -1.42836 0
M  V30 2334 C 219.226 1.59496 -0.326333 0
M  V30 2335 O 220.415 1.6847 -0.589916 0
M  V30 2336 C 217.515 3.16476 -1.21229 0
M  V30 2337 C 216.688 3.63011 -2.44013 0
M  V30 2338 C 215.747 4.78993 -2.17834 0
M  V30 2339 O 214.773 4.89137 -2.91091 0
M  V30 2340 N 215.975 5.68248 -1.18635 0
M  V30 2341 H 218.74 1.79695 -2.39854 0
M  V30 2342 H 216.301 0.850338 -1.37771 0
M  V30 2343 H 218.293 3.91734 -1.01621 0
M  V30 2344 H 216.863 3.10884 -0.32706 0
M  V30 2345 H 216.083 2.78346 -2.79137 0
M  V30 2346 H 217.371 3.90845 -3.25757 0
M  V30 2347 H 216.769 5.62712 -0.580615 0
M  V30 2348 H 215.326 6.43285 -1.05013 0
M  V30 2349 N 218.759 1.29093 0.90403 0
M  V30 2350 C 219.984 1.19809 1.69294 0
M  V30 2351 C 220.409 -0.238481 1.86582 0
M  V30 2352 O 219.767 -1.1723 1.383 0
M  V30 2353 C 219.815 1.91202 3.05736 0
M  V30 2354 O 218.919 1.22611 3.93752 0
M  V30 2355 H 218.26 0.415385 0.518027 0
M  V30 2356 H 220.79 1.70586 1.12967 0
M  V30 2357 H 220.8 1.99487 3.55906 0
M  V30 2358 H 219.475 2.95692 2.92471 0
M  V30 2359 H 218.052 1.22554 3.52186 0
M  V30 2360 N 220.237 -1.11381 1.11499 0
M  V30 2361 C 221.185 -2.19522 0.768956 0
M  V30 2362 C 222.179 -1.67693 -0.239857 0
M  V30 2363 O 223.385 -1.79727 -0.0990755 0
M  V30 2364 H 219.76 -0.715711 0.230786 0
M  V30 2365 H 221.731 -2.45954 1.68964 0
M  V30 2366 C 220.48 -3.46945 0.229073 0
M  V30 2367 H 219.803 -3.8718 0.996596 0
M  V30 2368 H 221.243 -4.23993 0.0251441 0
M  V30 2369 C 219.702 -3.2042 -1.04079 0
M  V30 2370 O 220.232 -3.41178 -2.12038 0
M  V30 2371 N 218.438 -2.74151 -0.963823 0
M  V30 2372 H 217.985 -2.57459 -0.0851722 0
M  V30 2373 H 217.943 -2.56781 -1.81414 0
M  V30 2374 N 221.715 -0.905404 -1.28997 0
M  V30 2375 C 223.126 -0.581953 -1.77398 0
M  V30 2376 C 223.477 0.902552 -1.74208 0
M  V30 2377 O 222.602 1.70584 -1.33154 0
M  V30 2378 C 223.197 -1.04961 -3.22131 0
M  V30 2379 C 221.756 -0.777229 -3.68288 0
M  V30 2380 C 220.903 -1.22109 -2.48967 0
M  V30 2381 H 223.854 -1.08754 -1.15578 0
M  V30 2382 H 223.875 -0.387387 -3.78523 0
M  V30 2383 H 223.387 -2.13008 -3.24421 0
M  V30 2384 H 221.488 0.290383 -3.71467 0
M  V30 2385 H 221.601 -1.37911 -4.58822 0
M  V30 2386 H 219.965 -0.639971 -2.46529 0
M  V30 2387 H 220.748 -2.30972 -2.53982 0
M  V30 2388 N 223.193 1.4272 -0.668489 0
M  V30 2389 C 224.123 2.335 -0.000100175 0
M  V30 2390 C 225.104 1.50328 0.795964 0
M  V30 2391 O 226.289 1.78949 0.754385 0
M  V30 2392 C 223.419 3.33874 0.956302 0
M  V30 2393 C 222.373 4.27152 0.269278 0
M  V30 2394 C 221.699 5.17684 1.33818 0
M  V30 2395 C 222.999 5.15373 -0.847805 0
M  V30 2396 H 224.693 2.89639 -0.758244 0
M  V30 2397 H 222.239 1.39269 -0.366079 0
M  V30 2398 H 224.192 3.9629 1.43292 0
M  V30 2399 H 222.916 2.76025 1.74579 0
M  V30 2400 H 221.575 3.66123 -0.187042 0
M  V30 2401 H 221.223 4.56165 2.1195 0
M  V30 2402 H 220.923 5.80918 0.883659 0
M  V30 2403 H 222.447 5.82974 1.81586 0
M  V30 2404 H 223.861 5.7151 -0.452681 0
M  V30 2405 H 222.258 5.87407 -1.22773 0
M  V30 2406 H 223.328 4.5415 -1.69929 0
M  V30 2407 N 224.671 0.411399 1.52136 0
M  V30 2408 C 225.601 -0.404015 2.29978 0
M  V30 2409 C 226.582 -1.04412 1.34284 0
M  V30 2410 O 227.767 -1.0527 1.63192 0
M  V30 2411 C 224.897 -1.5197 3.12286 0
M  V30 2412 C 223.851 -1.00448 4.16046 0
M  V30 2413 C 223.177 -2.21393 4.86712 0
M  V30 2414 C 224.477 -0.0569336 5.22269 0
M  V30 2415 H 226.171 0.245529 2.98392 0
M  V30 2416 H 223.717 0.119525 1.43503 0
M  V30 2417 H 225.67 -2.09715 3.6551 0
M  V30 2418 H 224.394 -2.19716 2.41646 0
M  V30 2419 H 223.053 -0.449421 3.63835 0
M  V30 2420 H 222.701 -2.87699 4.12599 0
M  V30 2421 H 222.401 -1.87571 5.56858 0
M  V30 2422 H 223.925 -2.7974 5.4275 0
M  V30 2423 H 225.339 -0.54325 5.7072 0
M  V30 2424 H 223.736 0.192594 5.99791 0
M  V30 2425 H 224.806 0.887663 4.76706 0
M  V30 2426 N 226.149 -1.5696 0.141893 0
M  V30 2427 C 227.059 -2.20066 -0.812905 0
M  V30 2428 C 228.075 -1.18344 -1.27557 0
M  V30 2429 O 229.251 -1.50902 -1.33381 0
M  V30 2430 C 226.316 -2.80583 -2.03652 0
M  V30 2431 C 225.377 -3.97414 -1.62359 0
M  V30 2432 C 224.61 -4.55036 -2.78887 0
M  V30 2433 O 224.833 -4.11538 -3.94959 0
M  V30 2434 O 223.767 -5.45376 -2.54653 0
M  V30 2435 H 227.593 -3.02157 -0.305746 0
M  V30 2436 H 225.178 -1.49159 -0.0848799 0
M  V30 2437 H 227.06 -3.19067 -2.75272 0
M  V30 2438 H 225.735 -2.01508 -2.5333 0
M  V30 2439 H 224.642 -3.63656 -0.877775 0
M  V30 2440 H 225.975 -4.77994 -1.17401 0
M  V30 2441 N 227.627 0.131896 -1.57047 0
M  V30 2442 C 228.59 1.14638 -1.98471 0
M  V30 2443 C 229.59 1.35029 -0.873148 0
M  V30 2444 O 230.78 1.31764 -1.13946 0
M  V30 2445 C 227.912 2.50358 -2.31373 0
M  V30 2446 H 229.105 0.79064 -2.8929 0
M  V30 2447 H 226.658 0.375761 -1.51716 0
M  V30 2448 H 227.393 2.90876 -1.43393 0
M  V30 2449 H 227.178 2.36915 -3.12432 0
M  V30 2450 H 228.668 3.23395 -2.64207 0
M  V30 2451 N 229.106 1.52395 0.401703 0
M  V30 2452 C 230.353 1.66817 1.14796 0
M  V30 2453 C 230.681 0.401772 1.90305 0
M  V30 2454 O 229.936 -0.615487 1.85769 0
M  V30 2455 C 230.235 2.84578 2.16217 0
M  V30 2456 C 229.901 4.22513 1.5746 0
M  V30 2457 C 228.563 4.60029 1.41161 0
M  V30 2458 C 230.915 5.0844 1.14622 0
M  V30 2459 C 228.243 5.81144 0.80552 0
M  V30 2460 C 230.595 6.30167 0.55428 0
M  V30 2461 C 229.259 6.66426 0.378482 0
M  V30 2462 H 228.529 0.610428 0.420069 0
M  V30 2463 H 231.176 1.86512 0.434212 0
M  V30 2464 H 229.481 2.59248 2.93764 0
M  V30 2465 H 231.178 2.92933 2.73845 0
M  V30 2466 H 227.768 3.92953 1.71132 0
M  V30 2467 H 231.952 4.80034 1.26021 0
M  V30 2468 H 227.208 6.07855 0.657399 0
M  V30 2469 H 231.382 6.96071 0.213983 0
M  V30 2470 H 229.009 7.60143 -0.0932606 0
M  V30 2471 N 230.584 -0.659388 1.43143 0
M  V30 2472 C 231.832 -1.41654 1.44147 0
M  V30 2473 C 232.153 -1.94893 0.0645739 0
M  V30 2474 O 231.423 -1.74044 -0.899198 0
M  V30 2475 H 230.003 -0.525708 0.530697 0
M  V30 2476 H 232.665 -0.778097 1.78694 0
M  V30 2477 H 231.761 -2.26195 2.1504 0
M  V30 2478 N 232.062 -1.29571 -0.897171 0
M  V30 2479 C 233.01 -1.14802 -2.02295 0
M  V30 2480 C 234.004 -0.0629637 -1.69283 0
M  V30 2481 O 235.21 -0.222945 -1.78614 0
M  V30 2482 H 231.585 -0.354692 -0.663097 0
M  V30 2483 H 233.556 -2.10108 -2.11889 0
M  V30 2484 C 232.305 -0.843966 -3.37302 0
M  V30 2485 H 231.628 -1.67093 -3.63208 0
M  V30 2486 H 233.068 -0.780672 -4.16751 0
M  V30 2487 C 231.527 0.452843 -3.33843 0
M  V30 2488 O 232.057 1.47813 -3.73516 0
M  V30 2489 N 230.263 0.459601 -2.86943 0
M  V30 2490 H 229.81 -0.375213 -2.54853 0
M  V30 2491 H 229.768 1.32726 -2.85011 0
M  V30 2492 N 233.54 1.10788 -1.12088 0
M  V30 2493 C 234.503 2.15207 -0.788577 0
M  V30 2494 C 235.503 1.59609 0.195317 0
M  V30 2495 O 236.693 1.74174 -0.0300193 0
M  V30 2496 C 233.825 3.4047 -0.171174 0
M  V30 2497 H 235.018 2.46116 -1.71368 0
M  V30 2498 H 232.571 1.26089 -0.923652 0
M  V30 2499 H 233.306 3.15176 0.763832 0
M  V30 2500 H 233.091 3.82109 -0.879514 0
M  V30 2501 H 234.581 4.17576 0.04496 0
M  V30 2502 N 235.018 0.912232 1.28515 0
M  V30 2503 C 235.965 0.397954 2.27343 0
M  V30 2504 C 236.935 -0.526766 1.57526 0
M  V30 2505 O 238.12 -0.449292 1.85435 0
M  V30 2506 C 235.26 -0.357263 3.43246 0
M  V30 2507 C 234.373 0.599788 4.27816 0
M  V30 2508 C 233.508 -0.173725 5.30916 0
M  V30 2509 C 232.547 0.777039 6.07148 0
M  V30 2510 N 231.684 0.0371398 7.0209 0
M  V30 2511 H 236.524 1.24577 2.70711 0
M  V30 2512 H 234.061 0.625612 1.33133 0
M  V30 2513 H 236.019 -0.8113 4.09236 0
M  V30 2514 H 234.649 -1.16943 3.00872 0
M  V30 2515 H 233.701 1.17235 3.61884 0
M  V30 2516 H 235.013 1.32704 4.80823 0
M  V30 2517 H 234.167 -0.688394 6.02782 0
M  V30 2518 H 232.906 -0.934041 4.78672 0
M  V30 2519 H 231.911 1.3031 5.34134 0
M  V30 2520 H 233.136 1.53689 6.61481 0
M  V30 2521 H 231.082 -0.705213 6.52198 0
M  V30 2522 H 230.999 0.704249 7.52713 0
M  V30 2523 H 232.267 -0.457383 7.78157 0
M  V30 2524 N 236.496 -1.42363 0.676048 0
M  V30 2525 C 237.724 -2.05859 0.207268 0
M  V30 2526 C 238.139 -1.50796 -1.13605 0
M  V30 2527 O 237.496 -0.648265 -1.70598 0
M  V30 2528 C 237.547 -3.61248 0.134975 0
M  V30 2529 O 237.268 -4.1427 1.42521 0
M  V30 2530 C 238.769 -4.41859 -0.357151 0
M  V30 2531 H 235.989 -0.663431 0.100503 0
M  V30 2532 H 238.533 -1.82479 0.923136 0
M  V30 2533 H 236.688 -3.83735 -0.531588 0
M  V30 2534 H 237.102 -5.0815 1.29939 0
M  V30 2535 H 238.576 -5.50847 -0.356641 0
M  V30 2536 H 239.053 -4.16536 -1.39264 0
M  V30 2537 H 239.659 -4.24392 0.27772 0
M  V30 2538 N 237.974 -0.419461 -1.51915 0
M  V30 2539 C 239.22 0.153166 -2.02221 0
M  V30 2540 C 239.553 1.43907 -1.30401 0
M  V30 2541 O 238.828 1.90055 -0.413438 0
M  V30 2542 C 239.111 0.390291 -3.57979 0
M  V30 2543 C 238.964 -0.913014 -4.40436 0
M  V30 2544 C 240.283 1.16794 -4.2432 0
M  V30 2545 H 237.402 0.0541924 -0.735005 0
M  V30 2546 H 240.044 -0.554955 -1.81715 0
M  V30 2547 H 238.194 0.993491 -3.75582 0
M  V30 2548 H 239.866 -1.54882 -4.34522 0
M  V30 2549 H 238.109 -1.52168 -4.06236 0
M  V30 2550 H 238.78 -0.701361 -5.47526 0
M  V30 2551 H 241.256 0.657161 -4.10878 0
M  V30 2552 H 240.132 1.3026 -5.3322 0
M  V30 2553 H 240.393 2.19132 -3.83971 0
M  V30 2554 N 239.452 1.56882 -0.150215 0
M  V30 2555 C 240.868 1.58263 0.20617 0
M  V30 2556 C 241.068 1.16464 1.64434 0
M  V30 2557 O 240.124 0.866422 2.3717 0
M  V30 2558 C 241.437 3.00649 -0.0555025 0
M  V30 2559 C 242.985 3.12999 0.00795388 0
M  V30 2560 C 243.46 4.5744 -0.226429 0
M  V30 2561 N 244.951 4.62875 -0.173469 0
M  V30 2562 C 245.686 5.72454 -0.329288 0
M  V30 2563 N 245.182 6.90669 -0.543005 0
M  V30 2564 N 246.975 5.61467 -0.266666 0
M  V30 2565 H 239.126 1.82345 -1.08922 0
M  V30 2566 H 241.389 0.844149 -0.431413 0
M  V30 2567 H 241.095 3.3563 -1.05096 0
M  V30 2568 H 240.969 3.71337 0.66246 0
M  V30 2569 H 243.356 2.77857 0.993966 0
M  V30 2570 H 243.437 2.4479 -0.742388 0
M  V30 2571 H 243.081 4.93287 -1.20956 0
M  V30 2572 H 243.011 5.2378 0.544274 0
M  V30 2573 H 245.502 3.77898 -0.0130709 0
M  V30 2574 H 245.815 7.70045 -0.651922 0
M  V30 2575 H 244.16 6.92581 -0.579366 0
M  V30 2576 H 247.351 4.67992 -0.100441 0
M  V30 2577 H 247.524 6.46816 -0.391535 0
M  V30 2578 N 240.93 -0.123565 1.57115 0
M  V30 2579 C 241.878 -1.17082 2.00984 0
M  V30 2580 C 242.872 -1.43136 0.906009 0
M  V30 2581 O 244.078 -1.43152 1.09121 0
M  V30 2582 H 240.453 -0.394653 0.64012 0
M  V30 2583 H 242.424 -0.774292 2.88179 0
M  V30 2584 C 241.173 -2.49057 2.42623 0
M  V30 2585 H 240.496 -2.29846 3.27125 0
M  V30 2586 H 241.936 -3.20906 2.7712 0
M  V30 2587 C 240.395 -3.11305 1.28805 0
M  V30 2588 O 240.925 -3.97171 0.60153 0
M  V30 2589 N 239.131 -2.71111 1.04628 0
M  V30 2590 H 238.678 -2.01382 1.60634 0
M  V30 2591 H 238.636 -3.1309 0.286685 0
M  V30 2592 N 242.408 -1.52605 -0.393616 0
M  V30 2593 C 243.356 -1.77688 -1.50099 0
M  V30 2594 C 244.35 -0.644615 -1.56656 0
M  V30 2595 O 245.556 -0.826997 -1.59877 0
M  V30 2596 H 241.931 -0.562159 -0.499481 0
M  V30 2597 H 243.902 -2.7043 -1.26135 0
M  V30 2598 C 242.651 -1.95858 -2.87289 0
M  V30 2599 H 241.974 -2.8241 -2.82992 0
M  V30 2600 H 243.414 -2.174 -3.64024 0
M  V30 2601 C 241.873 -0.729848 -3.28899 0
M  V30 2602 O 242.403 0.0949217 -4.01588 0
M  V30 2603 N 240.609 -0.561283 -2.85128 0
M  V30 2604 H 240.156 -1.23357 -2.26143 0
M  V30 2605 H 240.114 0.2595 -3.13327 0
M  V30 2606 N 243.887 0.651787 -1.4349 0
M  V30 2607 C 244.835 1.78586 -1.49029 0
M  V30 2608 C 245.829 1.65448 -0.363767 0
M  V30 2609 O 247.035 1.71777 -0.537821 0
M  V30 2610 H 243.41 0.589236 -0.467231 0
M  V30 2611 H 245.381 1.71035 -2.44519 0
M  V30 2612 C 244.13 3.16851 -1.43181 0
M  V30 2613 H 243.453 3.27598 -2.29171 0
M  V30 2614 H 244.893 3.96156 -1.51118 0
M  V30 2615 C 243.352 3.36568 -0.149616 0
M  V30 2616 O 243.882 3.93885 0.788509 0
M  V30 2617 N 242.088 2.90539 -0.0593484 0
M  V30 2618 H 241.635 2.4408 -0.823575 0
M  V30 2619 H 241.593 3.04108 0.797853 0
M  V30 2620 N 245.365 1.30045 0.890287 0
M  V30 2621 C 246.59 1.21598 1.68014 0
M  V30 2622 C 247.015 -0.218678 1.86825 0
M  V30 2623 O 246.373 -1.15756 1.39536 0
M  V30 2624 C 246.421 1.94434 3.03691 0
M  V30 2625 O 245.525 1.2678 3.92429 0
M  V30 2626 H 244.866 0.420856 0.513592 0
M  V30 2627 H 247.396 1.71775 1.11151 0
M  V30 2628 H 247.406 2.03251 3.5377 0
M  V30 2629 H 246.081 2.98777 2.89318 0
M  V30 2630 H 244.658 1.26282 3.50866 0
M  V30 2631 N 246.843 -1.10192 1.12674 0
M  V30 2632 C 248.068 -1.86523 0.906853 0
M  V30 2633 C 248.493 -1.80221 -0.538711 0
M  V30 2634 O 247.851 -1.17396 -1.38158 0
M  V30 2635 C 247.899 -3.32758 1.3894 0
M  V30 2636 O 247.003 -4.08449 0.5695 0
M  V30 2637 H 246.344 -0.578678 0.325619 0
M  V30 2638 H 248.874 -1.39203 1.49946 0
M  V30 2639 H 248.884 -3.83608 1.38958 0
M  V30 2640 H 247.559 -3.36661 2.44197 0
M  V30 2641 H 246.136 -3.67427 0.636528 0
M  V30 2642 N 248.321 -0.919034 -1.28029 0
M  V30 2643 C 249.737 -0.617972 -1.4715 0
M  V30 2644 C 249.937 0.835242 -1.83374 0
M  V30 2645 O 248.993 1.61388 -1.94191 0
M  V30 2646 C 250.306 -1.56041 -2.57044 0
M  V30 2647 C 251.854 -1.56769 -2.7091 0
M  V30 2648 C 252.329 -2.49688 -3.83953 0
M  V30 2649 N 253.82 -2.47845 -3.91314 0
M  V30 2650 C 254.555 -3.16437 -4.78179 0
M  V30 2651 N 254.051 -3.94376 -5.69596 0
M  V30 2652 N 255.844 -3.05498 -4.71834 0
M  V30 2653 H 247.995 -1.85866 -1.02798 0
M  V30 2654 H 250.258 -0.797506 -0.512531 0
M  V30 2655 H 249.964 -2.59671 -2.372 0
M  V30 2656 H 249.838 -1.29551 -3.54255 0
M  V30 2657 H 252.225 -0.538745 -2.90141 0
M  V30 2658 H 252.306 -1.87305 -1.74214 0
M  V30 2659 H 251.95 -3.52688 -3.65477 0
M  V30 2660 H 251.88 -2.16453 -4.80058 0
M  V30 2661 H 254.371 -1.91234 -3.25941 0
M  V30 2662 H 254.684 -4.43721 -6.32718 0
M  V30 2663 H 253.029 -3.98481 -5.69419 0
M  V30 2664 H 256.22 -2.44108 -3.99411 0
M  V30 2665 H 256.393 -3.59225 -5.39316 0
M  V30 2666 N 249.799 1.42003 -0.683588 0
M  V30 2667 C 251.046 2.01413 -0.209514 0
M  V30 2668 C 251.374 1.54088 1.1869 0
M  V30 2669 O 250.629 0.737591 1.81268 0
M  V30 2670 C 250.928 3.56827 -0.202357 0
M  V30 2671 C 250.594 4.23617 -1.54464 0
M  V30 2672 C 249.256 4.41577 -1.91215 0
M  V30 2673 C 251.608 4.61178 -2.42826 0
M  V30 2674 C 248.936 4.9437 -3.15935 0
M  V30 2675 C 251.288 5.15355 -3.66867 0
M  V30 2676 C 249.952 5.31528 -4.03776 0
M  V30 2677 H 249.222 0.737023 -0.0766668 0
M  V30 2678 H 251.869 1.70067 -0.880312 0
M  V30 2679 H 250.174 3.87892 0.551969 0
M  V30 2680 H 251.871 4.00588 0.181793 0
M  V30 2681 H 248.461 4.10004 -1.24877 0
M  V30 2682 H 252.645 4.46968 -2.15717 0
M  V30 2683 H 247.901 5.05076 -3.44541 0
M  V30 2684 H 252.075 5.43402 -4.35531 0
M  V30 2685 H 249.702 5.72199 -5.00492 0
M  V30 2686 N 251.277 0.427512 1.51691 0
M  V30 2687 C 252.525 -0.141948 2.01601 0
M  V30 2688 C 252.846 -1.44067 1.31414 0
M  V30 2689 O 252.116 -1.90763 0.445658 0
M  V30 2690 H 250.696 -0.0554468 0.744939 0
M  V30 2691 H 253.358 0.567968 1.86441 0
M  V30 2692 H 252.454 -0.324913 3.10404 0
M  V30 2693 N 252.755 -1.56801 0.158532 0
M  V30 2694 C 253.702 -2.17337 -0.776729 0
M  V30 2695 C 254.672 -1.1096 -1.23601 0
M  V30 2696 O 255.857 -1.39054 -1.30647 0
M  V30 2697 C 252.997 -2.80822 -2.00582 0
M  V30 2698 C 252.11 -4.01624 -1.59129 0
M  V30 2699 C 251.245 -4.53072 -2.77306 0
M  V30 2700 C 250.284 -5.66314 -2.32282 0
M  V30 2701 N 249.421 -6.12329 -3.43508 0
M  V30 2702 H 254.261 -2.96918 -0.253701 0
M  V30 2703 H 251.798 -1.46661 -0.113504 0
M  V30 2704 H 253.756 -3.15779 -2.72652 0
M  V30 2705 H 252.386 -2.03866 -2.50277 0
M  V30 2706 H 251.438 -3.72571 -0.767806 0
M  V30 2707 H 252.75 -4.83633 -1.2207 0
M  V30 2708 H 251.904 -4.90145 -3.57551 0
M  V30 2709 H 250.643 -3.70095 -3.17617 0
M  V30 2710 H 249.648 -5.28806 -1.5048 0
M  V30 2711 H 250.873 -6.51085 -1.93043 0
M  V30 2712 H 248.819 -5.32284 -3.83418 0
M  V30 2713 H 248.736 -6.89293 -3.105 0
M  V30 2714 H 250.004 -6.5405 -4.24075 0
M  V30 2715 N 254.233 0.115231 -1.57178 0
M  V30 2716 C 255.463 0.835224 -1.88964 0
M  V30 2717 C 255.871 1.73774 -0.74829 0
M  V30 2718 O 255.214 1.81401 0.289739 0
M  V30 2719 C 255.276 1.7178 -3.15804 0
M  V30 2720 C 254.94 0.989198 -4.46166 0
M  V30 2721 C 255.937 0.328263 -5.18863 0
M  V30 2722 C 253.622 0.969256 -4.9286 0
M  V30 2723 C 255.616 -0.342873 -6.36477 0
M  V30 2724 C 253.303 0.294324 -6.10391 0
M  V30 2725 C 254.301 -0.360582 -6.82048 0
M  V30 2726 O 253.989 -1.02474 -7.97342 0
M  V30 2727 H 253.721 0.245197 -0.629964 0
M  V30 2728 H 256.275 0.10303 -2.05141 0
M  V30 2729 H 254.505 2.49173 -2.95719 0
M  V30 2730 H 256.194 2.31255 -3.33581 0
M  V30 2731 H 256.96 0.335263 -4.8384 0
M  V30 2732 H 252.839 1.46844 -4.36987 0
M  V30 2733 H 256.383 -0.854629 -6.92345 0
M  V30 2734 H 252.28 0.285099 -6.4487 0
M  V30 2735 H 253.048 -0.929594 -8.13204 0
M  V30 2736 N 255.711 1.52812 0.385517 0
M  V30 2737 C 256.958 1.68026 1.1302 0
M  V30 2738 C 257.286 0.421934 1.89868 0
M  V30 2739 O 256.541 -0.595749 1.86412 0
M  V30 2740 C 256.84 2.86856 2.13187 0
M  V30 2741 C 256.506 4.24159 1.5297 0
M  V30 2742 C 255.168 4.61501 1.36274 0
M  V30 2743 C 257.52 5.09627 1.09223 0
M  V30 2744 C 254.848 5.81966 0.743837 0
M  V30 2745 C 257.2 6.30719 0.487411 0
M  V30 2746 C 255.864 6.6679 0.307777 0
M  V30 2747 H 255.134 0.614849 0.413571 0
M  V30 2748 H 257.781 1.86962 0.414405 0
M  V30 2749 H 256.086 2.6235 2.90998 0
M  V30 2750 H 257.783 2.95821 2.70722 0
M  V30 2751 H 254.373 3.94746 1.66954 0
M  V30 2752 H 258.557 4.81343 1.20922 0
M  V30 2753 H 253.813 6.08519 0.592891 0
M  V30 2754 H 257.987 6.96259 0.140143 0
M  V30 2755 H 255.614 7.60001 -0.173879 0
M  V30 2756 N 257.189 -0.644168 1.43834 0
M  V30 2757 C 258.099 -1.78563 1.52159 0
M  V30 2758 C 259.115 -1.69147 0.408069 0
M  V30 2759 O 260.291 -1.90156 0.663524 0
M  V30 2760 C 257.356 -3.14888 1.45073 0
M  V30 2761 C 256.417 -3.36034 2.6717 0
M  V30 2762 C 255.65 -4.65855 2.60413 0
M  V30 2763 O 255.873 -5.45805 1.65689 0
M  V30 2764 O 254.807 -4.88918 3.5106 0
M  V30 2765 H 258.633 -1.74494 2.48567 0
M  V30 2766 H 256.218 -0.80378 1.25935 0
M  V30 2767 H 258.1 -3.96179 1.43597 0
M  V30 2768 H 256.775 -3.19528 0.518037 0
M  V30 2769 H 255.682 -2.54472 2.74217 0
M  V30 2770 H 257.015 -3.36247 3.59442 0
M  V30 2771 N 258.668 -1.30515 -0.883378 0
M  V30 2772 C 259.917 -1.18795 -1.63005 0
M  V30 2773 C 260.23 0.255923 -1.93919 0
M  V30 2774 O 261.436 0.494654 -2.66956 0
M  V30 2775 C 259.892 -2.07878 -2.93794 0
M  V30 2776 C 259.5 -3.57184 -2.70414 0
M  V30 2777 C 261.244 -2.04924 -3.71761 0
M  V30 2778 C 259.151 -4.38317 -3.97029 0
M  V30 2779 H 258.081 -0.441031 -0.611562 0
M  V30 2780 H 260.732 -1.55275 -0.977854 0
M  V30 2781 H 259.114 -1.64283 -3.60315 0
M  V30 2782 H 260.288 -4.08937 -2.12384 0
M  V30 2783 H 258.603 -3.61976 -2.0582 0
M  V30 2784 H 261.2 -2.62792 -4.65665 0
M  V30 2785 H 261.543 -1.0331 -4.03277 0
M  V30 2786 H 262.076 -2.46649 -3.12104 0
M  V30 2787 H 258.815 -5.40632 -3.70671 0
M  V30 2788 H 258.335 -3.91326 -4.54559 0
M  V30 2789 H 260.014 -4.49834 -4.65036 0
M  V30 2790 N 260.146 1.09593 -1.13257 0
M  V30 2791 C 261.078 2.16015 -0.766167 0
M  V30 2792 C 262.091 1.61423 0.211303 0
M  V30 2793 O 263.28 1.78498 -0.00863946 0
M  V30 2794 C 260.38 3.38706 -0.114662 0
M  V30 2795 C 259.553 4.22717 -1.12379 0
M  V30 2796 C 258.612 5.23835 -0.498301 0
M  V30 2797 O 257.638 5.573 -1.15781 0
M  V30 2798 N 258.84 5.75886 0.730417 0
M  V30 2799 H 261.605 2.48055 -1.68193 0
M  V30 2800 H 259.166 1.25292 -1.02535 0
M  V30 2801 H 261.158 4.03464 0.315991 0
M  V30 2802 H 259.728 3.04569 0.704011 0
M  V30 2803 H 258.948 3.54122 -1.73179 0
M  V30 2804 H 260.236 4.75673 -1.80589 0
M  V30 2805 H 259.634 5.50911 1.28504 0
M  V30 2806 H 258.191 6.42387 1.10376 0
M  V30 2807 N 261.624 0.925811 1.2754 0
M  V30 2808 C 262.871 0.565255 1.94451 0
M  V30 2809 C 263.199 -0.89316 1.7278 0
M  V30 2810 O 262.454 -1.65213 1.04895 0
M  V30 2811 C 262.753 0.835296 3.47502 0
M  V30 2812 C 262.419 2.27515 3.89291 0
M  V30 2813 C 261.081 2.66879 4.00411 0
M  V30 2814 C 263.433 3.21158 4.10496 0
M  V30 2815 C 260.761 3.99014 4.30122 0
M  V30 2816 C 263.113 4.52871 4.4169 0
M  V30 2817 C 261.777 4.92072 4.51023 0
M  V30 2818 H 261.047 0.206841 0.711546 0
M  V30 2819 H 263.694 1.16942 1.51647 0
M  V30 2820 H 261.999 0.148442 3.91519 0
M  V30 2821 H 263.696 0.535322 3.97411 0
M  V30 2822 H 260.286 1.95976 3.81171 0
M  V30 2823 H 264.47 2.9195 4.01346 0
M  V30 2824 H 259.726 4.2907 4.35556 0
M  V30 2825 H 263.9 5.25436 4.57045 0
M  V30 2826 H 261.527 5.9449 4.738 0
M  V30 2827 N 263.102 -1.41638 0.69111 0
M  V30 2828 C 264.327 -2.06148 0.227583 0
M  V30 2829 C 264.752 -1.51652 -1.11281 0
M  V30 2830 O 264.11 -0.64164 -1.69566 0
M  V30 2831 C 264.158 -3.60095 0.190858 0
M  V30 2832 O 263.262 -4.03845 -0.835664 0
M  V30 2833 H 262.603 -0.654434 0.112306 0
M  V30 2834 H 265.133 -1.81484 0.944714 0
M  V30 2835 H 265.143 -4.07995 0.020207 0
M  V30 2836 H 263.818 -3.99129 1.16915 0
M  V30 2837 H 262.395 -3.67458 -0.63473 0
M  V30 2838 N 264.58 -0.43555 -1.51462 0
M  V30 2839 C 265.991 0.0279871 -1.86679 0
M  V30 2840 C 266.342 1.42104 -1.35281 0
M  V30 2841 O 265.467 2.04667 -0.702878 0
M  V30 2842 C 266.062 0.0575626 -3.38751 0
M  V30 2843 C 264.621 0.465507 -3.7351 0
M  V30 2844 C 263.768 -0.342996 -2.75171 0
M  V30 2845 H 266.719 -0.651473 -1.44712 0
M  V30 2846 H 266.74 0.867421 -3.70481 0
M  V30 2847 H 266.252 -0.956448 -3.7613 0
M  V30 2848 H 264.353 1.48519 -3.41721 0
M  V30 2849 H 264.466 0.191546 -4.78717 0
M  V30 2850 H 262.83 0.198442 -2.53926 0
M  V30 2851 H 263.613 -1.35585 -3.15391 0
M  V30 2852 N 266.058 1.56714 -0.166846 0
M  V30 2853 C 267.306 1.96358 0.478305 0
M  V30 2854 C 267.627 1.0537 1.6408 0
M  V30 2855 O 266.897 0.119154 1.95537 0
M  V30 2856 H 265.477 0.725065 0.179692 0
M  V30 2857 H 268.139 1.93329 -0.246985 0
M  V30 2858 H 267.235 3.00547 0.841292 0
M  V30 2859 N 267.536 -0.106894 1.57237 0
M  V30 2860 C 268.784 -0.810921 1.85117 0
M  V30 2861 C 269.105 -1.7984 0.753827 0
M  V30 2862 O 268.375 -1.94649 -0.221056 0
M  V30 2863 H 266.955 -0.302466 0.683025 0
M  V30 2864 H 269.617 -0.0913324 1.94686 0
M  V30 2865 H 268.713 -1.34875 2.81452 0
M  V30 2866 N 269.014 -1.53014 -0.377408 0
M  V30 2867 C 269.924 -1.81557 -1.48574 0
M  V30 2868 C 270.94 -0.703102 -1.59162 0
M  V30 2869 O 272.116 -0.99192 -1.75279 0
M  V30 2870 C 269.181 -1.9889 -2.83978 0
M  V30 2871 C 268.242 -3.22801 -2.83016 0
M  V30 2872 C 267.475 -3.39298 -4.11962 0
M  V30 2873 O 267.698 -2.60345 -5.0752 0
M  V30 2874 O 266.632 -4.32604 -4.18494 0
M  V30 2875 H 270.458 -2.75695 -1.27382 0
M  V30 2876 H 268.043 -1.38248 -0.566373 0
M  V30 2877 H 269.925 -2.11931 -3.6423 0
M  V30 2878 H 268.6 -1.07942 -3.05172 0
M  V30 2879 H 267.507 -3.15193 -2.01505 0
M  V30 2880 H 268.84 -4.13632 -2.66775 0
M  V30 2881 N 270.492 0.636531 -1.44174 0
M  V30 2882 C 271.903 1.21806 -1.41493 0
M  V30 2883 C 272.254 1.95785 -0.1275 0
M  V30 2884 O 271.379 2.02147 0.772376 0
M  V30 2885 C 271.974 2.21551 -2.56321 0
M  V30 2886 C 270.533 2.75143 -2.56853 0
M  V30 2887 C 269.68 1.50052 -2.33195 0
M  V30 2888 H 272.631 0.427531 -1.52833 0
M  V30 2889 H 272.652 3.0405 -2.28765 0
M  V30 2890 H 272.164 1.67679 -3.50008 0
M  V30 2891 H 270.265 3.33033 -1.67093 0
M  V30 2892 H 270.378 3.2155 -3.55165 0
M  V30 2893 H 268.742 1.77993 -1.82183 0
M  V30 2894 H 269.525 0.980903 -3.28988 0
M  V30 2895 N 271.97 1.30982 0.876444 0
M  V30 2896 C 273.247 1.10942 1.61094 0
M  V30 2897 C 273.627 -0.338223 2.08373 0
M  V30 2898 O 272.975 -1.33122 1.85717 0
M  V30 2899 C 273.185 2.11789 2.77392 0
M  V30 2900 C 274.533 2.43965 3.47514 0
M  V30 2901 O 275.557 2.10166 2.87591 0
M  V30 2902 O 274.416 3.01817 4.55597 0
M  V30 2903 H 271.51 0.42667 0.708436 0
M  V30 2904 H 274.056 1.42438 0.922474 0
M  V30 2905 H 272.828 3.09194 2.39823 0
M  V30 2906 H 272.451 1.81161 3.5393 0
M  V30 2907 N 273.449 -1.08991 1.13837 0
M  V30 2908 C 274.697 -1.80899 0.901098 0
M  V30 2909 C 275.018 -1.86356 -0.574134 0
M  V30 2910 O 274.288 -1.35235 -1.41733 0
M  V30 2911 H 272.868 -0.669966 0.330386 0
M  V30 2912 H 275.53 -1.318 1.43578 0
M  V30 2913 H 274.626 -2.83929 1.29578 0
M  V30 2914 N 274.927 -0.932562 -1.27047 0
M  V30 2915 C 276.175 -0.574422 -1.93765 0
M  V30 2916 C 276.496 0.887993 -1.73608 0
M  V30 2917 O 275.766 1.62999 -1.08665 0
M  V30 2918 H 274.346 -0.209451 -0.717035 0
M  V30 2919 H 277.008 -1.18601 -1.5466 0
M  V30 2920 H 276.104 -0.784841 -3.02071 0
M  V30 2921 N 276.405 1.4127 -0.698611 0
M  V30 2922 C 277.352 2.30773 -0.0352094 0
M  V30 2923 C 278.322 1.47273 0.768111 0
M  V30 2924 O 279.507 1.76053 0.735524 0
M  V30 2925 C 276.647 3.33346 0.893 0
M  V30 2926 C 275.76 4.31924 0.0809695 0
M  V30 2927 C 274.895 5.21566 1.0071 0
M  V30 2928 C 273.934 6.11811 0.188155 0
M  V30 2929 N 273.071 6.93926 1.06825 0
M  V30 2930 H 277.911 2.86943 -0.804207 0
M  V30 2931 H 275.448 1.4132 -0.408294 0
M  V30 2932 H 277.406 3.91368 1.44523 0
M  V30 2933 H 276.036 2.78719 1.62836 0
M  V30 2934 H 275.088 3.75825 -0.588224 0
M  V30 2935 H 276.4 4.95716 -0.553801 0
M  V30 2936 H 275.554 5.84437 1.62845 0
M  V30 2937 H 274.293 4.58008 1.67572 0
M  V30 2938 H 273.298 5.47986 -0.446254 0
M  V30 2939 H 274.523 6.77425 -0.476716 0
M  V30 2940 H 272.469 6.32973 1.72283 0
M  V30 2941 H 272.386 7.54416 0.489123 0
M  V30 2942 H 273.654 7.61262 1.67632 0
M  V30 2943 N 277.883 0.443576 1.51229 0
M  V30 2944 C 279.132 -0.122332 2.01329 0
M  V30 2945 C 279.445 -1.43237 1.33201 0
M  V30 2946 O 280.651 -2.0816 1.74304 0
M  V30 2947 C 279.107 -0.268551 3.58897 0
M  V30 2948 C 278.715 1.03142 4.35965 0
M  V30 2949 C 280.459 -0.787894 4.17124 0
M  V30 2950 C 278.366 0.850504 5.85252 0
M  V30 2951 H 277.296 -0.0494929 0.752374 0
M  V30 2952 H 279.947 0.574289 1.74282 0
M  V30 2953 H 278.329 -1.02832 3.82415 0
M  V30 2954 H 279.503 1.80001 4.24189 0
M  V30 2955 H 277.818 1.47977 3.89219 0
M  V30 2956 H 280.415 -0.939841 5.26375 0
M  V30 2957 H 280.758 -1.77201 3.76703 0
M  V30 2958 H 281.291 -0.0862669 3.97706 0
M  V30 2959 H 278.03 1.80718 6.30096 0
M  V30 2960 H 277.55 0.121825 5.99676 0
M  V30 2961 H 279.229 0.506163 6.45017 0
M  V30 2962 N 279.361 -1.56624 0.175154 0
M  V30 2963 C 280.586 -2.01813 -0.478137 0
M  V30 2964 C 281.011 -1.05457 -1.55757 0
M  V30 2965 O 280.369 -0.0347439 -1.81267 0
M  V30 2966 C 280.417 -3.45581 -1.02987 0
M  V30 2967 O 279.521 -3.52305 -2.14371 0
M  V30 2968 H 278.862 -0.65413 -0.114059 0
M  V30 2969 H 281.392 -2.02673 0.280173 0
M  V30 2970 H 281.402 -3.84965 -1.35151 0
M  V30 2971 H 280.077 -4.1521 -0.239556 0
M  V30 2972 H 278.654 -3.24783 -1.83222 0
M  V30 2973 N 280.839 0.0985539 -1.57292 0
M  V30 2974 C 281.787 1.1387 -2.02821 0
M  V30 2975 C 282.781 1.41676 -0.928666 0
M  V30 2976 O 283.987 1.41398 -1.11385 0
M  V30 2977 H 280.362 0.384419 -0.646317 0
M  V30 2978 H 282.333 0.728347 -2.89375 0
M  V30 2979 C 281.082 2.45166 -2.46554 0
M  V30 2980 H 280.405 2.24613 -3.3074 0
M  V30 2981 H 281.845 3.16456 -2.8219 0
M  V30 2982 C 280.304 3.09216 -1.33742 0
M  V30 2983 O 280.834 3.96163 -0.66464 0
M  V30 2984 N 279.04 2.69413 -1.08928 0
M  V30 2985 H 278.587 1.98801 -1.63817 0
M  V30 2986 H 278.545 3.12594 -0.336458 0
M  V30 2987 N 282.317 1.53212 0.369288 0
M  V30 2988 C 283.564 1.69215 1.11232 0
M  V30 2989 C 283.892 0.442048 1.8941 0
M  V30 2990 O 283.147 -0.575944 1.87033 0
M  V30 2991 C 283.446 2.89101 2.10132 0
M  V30 2992 C 283.112 4.25758 1.48463 0
M  V30 2993 C 281.774 4.6292 1.31372 0
M  V30 2994 C 284.126 5.10757 1.03811 0
M  V30 2995 C 281.454 5.82722 0.68207 0
M  V30 2996 C 283.806 6.31201 0.420487 0
M  V30 2997 C 282.47 6.67079 0.237038 0
M  V30 2998 H 281.74 0.619201 0.407027 0
M  V30 2999 H 284.387 1.87391 0.394552 0
M  V30 3000 H 282.692 2.65421 2.88199 0
M  V30 3001 H 284.389 2.98676 2.6757 0
M  V30 3002 H 280.979 3.96494 1.62758 0
M  V30 3003 H 285.163 4.82599 1.1581 0
M  V30 3004 H 280.419 6.09113 0.528316 0
M  V30 3005 H 284.593 6.96368 0.0662874 0
M  V30 3006 H 282.22 7.59774 -0.254477 0
M  V30 3007 N 283.795 -0.628877 1.44509 0
M  V30 3008 C 284.725 -1.75187 1.54376 0
M  V30 3009 C 285.706 -1.65411 0.396618 0
M  V30 3010 O 286.891 -1.84137 0.617031 0
M  V30 3011 C 284.021 -3.13725 1.48976 0
M  V30 3012 C 282.975 -3.38291 2.62189 0
M  V30 3013 C 282.301 -4.76883 2.41841 0
M  V30 3014 C 283.601 -3.30632 4.04326 0
M  V30 3015 H 285.295 -1.67187 2.48373 0
M  V30 3016 H 282.841 -0.802909 1.19538 0
M  V30 3017 H 284.794 -3.92064 1.54478 0
M  V30 3018 H 283.518 -3.22515 0.514961 0
M  V30 3019 H 282.177 -2.62334 2.56079 0
M  V30 3020 H 281.825 -4.82378 1.42548 0
M  V30 3021 H 281.525 -4.94278 3.17747 0
M  V30 3022 H 283.049 -5.57449 2.49165 0
M  V30 3023 H 284.463 -3.98873 4.11793 0
M  V30 3024 H 282.86 -3.59561 4.80454 0
M  V30 3025 H 283.93 -2.28404 4.27738 0
M  V30 3026 N 285.273 -1.31445 -0.869486 0
M  V30 3027 C 286.203 -1.21727 -1.99261 0
M  V30 3028 C 287.184 -0.104359 -1.6978 0
M  V30 3029 O 288.369 -0.289038 -1.92037 0
M  V30 3030 C 285.499 -0.924317 -3.34774 0
M  V30 3031 C 284.453 -1.99685 -3.78563 0
M  V30 3032 C 283.779 -1.55658 -5.11541 0
M  V30 3033 C 285.079 -3.41003 -3.95619 0
M  V30 3034 H 286.773 -2.1569 -2.07649 0
M  V30 3035 H 284.319 -1.03839 -0.997675 0
M  V30 3036 H 286.272 -0.842934 -4.12883 0
M  V30 3037 H 284.996 0.0509793 -3.2656 0
M  V30 3038 H 283.655 -2.06813 -3.02694 0
M  V30 3039 H 283.303 -0.569132 -4.9977 0
M  V30 3040 H 283.003 -2.27409 -5.41811 0
M  V30 3041 H 284.527 -1.48928 -5.92159 0
M  V30 3042 H 285.941 -3.36547 -4.64122 0
M  V30 3043 H 284.338 -4.10975 -4.37286 0
M  V30 3044 H 285.408 -3.81754 -2.98985 0
M  V30 3045 N 286.751 1.08385 -1.14413 0
M  V30 3046 C 287.661 2.18856 -0.844951 0
M  V30 3047 C 288.677 1.73121 0.174668 0
M  V30 3048 O 289.853 2.014 0.00312857 0
M  V30 3049 C 286.918 3.45155 -0.32696 0
M  V30 3050 C 285.979 4.05513 -1.40916 0
M  V30 3051 C 285.212 5.25784 -0.915793 0
M  V30 3052 O 285.435 5.69884 0.242651 0
M  V30 3053 O 284.369 5.77545 -1.69487 0
M  V30 3054 H 288.195 2.46919 -1.76818 0
M  V30 3055 H 285.78 1.17524 -0.922411 0
M  V30 3056 H 287.662 4.21377 -0.0440211 0
M  V30 3057 H 286.337 3.18668 0.568539 0
M  V30 3058 H 285.244 3.30879 -1.74556 0
M  V30 3059 H 286.577 4.3625 -2.27919 0
M  V30 3060 N 288.23 0.939286 1.26551 0
M  V30 3061 C 289.177 0.446088 2.26448 0
M  V30 3062 C 290.147 -0.493234 1.58608 0
M  V30 3063 O 291.332 -0.409857 1.86346 0
M  V30 3064 C 288.472 -0.284375 3.43926 0
M  V30 3065 C 287.585 0.690399 4.26448 0
M  V30 3066 C 286.72 -0.0610712 5.31165 0
M  V30 3067 C 285.759 0.905649 6.05363 0
M  V30 3068 N 284.896 0.186055 7.01853 0
M  V30 3069 H 289.736 1.30291 2.68008 0
M  V30 3070 H 287.273 0.65371 1.31776 0
M  V30 3071 H 289.231 -0.724313 4.10864 0
M  V30 3072 H 287.861 -1.10535 3.03285 0
M  V30 3073 H 286.913 1.24885 3.59316 0
M  V30 3074 H 288.225 1.42873 4.779 0
M  V30 3075 H 287.379 -0.56038 6.04106 0
M  V30 3076 H 286.118 -0.832297 4.80546 0
M  V30 3077 H 285.123 1.4161 5.3125 0
M  V30 3078 H 286.348 1.67685 6.58072 0
M  V30 3079 H 284.294 -0.566714 6.53548 0
M  V30 3080 H 284.211 0.863752 7.51049 0
M  V30 3081 H 285.479 -0.292221 7.78952 0
M  V30 3082 N 289.708 -1.40897 0.706093 0
M  V30 3083 C 290.933 -2.05895 0.249435 0
M  V30 3084 C 291.358 -1.52823 -1.09666 0
M  V30 3085 O 290.716 -0.659589 -1.68876 0
M  V30 3086 C 290.764 -3.59872 0.22904 0
M  V30 3087 O 289.868 -4.04708 -0.792784 0
M  V30 3088 H 289.209 -0.653206 0.119241 0
M  V30 3089 H 291.739 -1.80471 0.96391 0
M  V30 3090 H 291.749 -4.07951 0.0634791 0
M  V30 3091 H 290.424 -3.97866 1.21141 0
M  V30 3092 H 289.001 -3.68111 -0.59572 0
M  V30 3093 N 291.186 -0.45159 -1.50991 0
M  V30 3094 C 292.602 -0.104647 -1.59257 0
M  V30 3095 C 292.802 1.38728 -1.4614 0
M  V30 3096 O 291.858 2.15866 -1.30989 0
M  V30 3097 C 293.171 -0.637468 -2.93865 0
M  V30 3098 C 294.719 -0.599166 -3.07212 0
M  V30 3099 C 295.194 -1.1092 -4.44366 0
M  V30 3100 N 296.685 -1.06778 -4.50725 0
M  V30 3101 C 297.42 -1.43314 -5.55201 0
M  V30 3102 N 296.916 -1.87204 -6.67028 0
M  V30 3103 N 298.709 -1.3504 -5.45638 0
M  V30 3104 H 290.86 -1.42214 -1.57762 0
M  V30 3105 H 293.123 -0.586921 -0.744465 0
M  V30 3106 H 292.829 -1.68187 -3.08879 0
M  V30 3107 H 292.703 -0.0702139 -3.77135 0
M  V30 3108 H 295.09 0.436277 -2.91857 0
M  V30 3109 H 295.171 -1.20299 -2.25747 0
M  V30 3110 H 294.815 -2.14318 -4.60467 0
M  V30 3111 H 294.745 -0.481773 -5.24392 0
M  V30 3112 H 297.236 -0.745643 -3.70471 0
M  V30 3113 H 297.549 -2.13282 -7.42786 0
M  V30 3114 H 295.894 -1.91142 -6.68199 0
M  V30 3115 H 299.085 -1.00607 -4.57161 0
M  V30 3116 H 299.258 -1.63841 -6.26945 0
M  V30 3117 N 292.664 1.56529 -0.183458 0
M  V30 3118 C 293.91 1.97537 0.459036 0
M  V30 3119 C 294.243 1.06989 1.62071 0
M  V30 3120 O 293.518 0.11948 1.94133 0
M  V30 3121 C 293.801 3.47874 0.930368 0
M  V30 3122 C 293.654 4.492 -0.232317 0
M  V30 3123 C 294.973 4.01612 1.79989 0
M  V30 3124 H 292.092 0.718204 0.165383 0
M  V30 3125 H 294.734 1.88042 -0.272038 0
M  V30 3126 H 292.884 3.56095 1.55333 0
M  V30 3127 H 294.556 4.53027 -0.86972 0
M  V30 3128 H 292.799 4.24657 -0.885928 0
M  V30 3129 H 293.47 5.51823 0.139796 0
M  V30 3130 H 295.946 3.96097 1.27461 0
M  V30 3131 H 294.822 5.07195 2.09867 0
M  V30 3132 H 295.083 3.46163 2.74998 0
M  V30 3133 N 294.142 -0.090211 1.57342 0
M  V30 3134 C 295.388 -0.793982 1.86611 0
M  V30 3135 C 295.721 -1.78142 0.773252 0
M  V30 3136 O 294.996 -1.93271 -0.218304 0
M  V30 3137 C 295.279 -1.51839 3.26523 0
M  V30 3138 C 295.132 -0.548609 4.46442 0
M  V30 3139 C 296.451 -2.46779 3.64401 0
M  V30 3140 H 293.57 -0.287186 0.678744 0
M  V30 3141 H 296.212 -0.0575076 1.89913 0
M  V30 3142 H 294.362 -2.14617 3.23839 0
M  V30 3143 H 296.034 0.0725513 4.61243 0
M  V30 3144 H 294.277 0.137614 4.33582 0
M  V30 3145 H 294.948 -1.09271 5.41076 0
M  V30 3146 H 297.424 -1.94089 3.68061 0
M  V30 3147 H 296.3 -2.94479 4.63221 0
M  V30 3148 H 296.561 -3.30758 2.93346 0
M  V30 3149 N 295.62 -1.53406 -0.361157 0
M  V30 3150 C 296.553 -1.74946 -1.46524 0
M  V30 3151 C 297.531 -0.59795 -1.51206 0
M  V30 3152 O 298.715 -0.831062 -1.69191 0
M  V30 3153 C 295.842 -1.83224 -2.84863 0
M  V30 3154 C 294.888 -3.05233 -2.97885 0
M  V30 3155 S 295.721 -4.6466 -2.66179 0
M  V30 3156 C 296.877 -4.75793 -4.06659 0
M  V30 3157 H 297.11 -2.68319 -1.28033 0
M  V30 3158 H 294.643 -1.44051 -0.555764 0
M  V30 3159 H 296.601 -1.88679 -3.64569 0
M  V30 3160 H 295.262 -0.908948 -3.00661 0
M  V30 3161 H 294.455 -3.07648 -3.9921 0
M  V30 3162 H 294.057 -2.97913 -2.26106 0
M  V30 3163 H 296.349 -4.5612 -5.0096 0
M  V30 3164 H 297.292 -5.7786 -4.09247 0
M  V30 3165 H 297.7 -4.04389 -3.93865 0
M  V30 3166 N 297.098 0.621204 -1.44841 0
M  V30 3167 C 298.514 0.94048 -1.28946 0
M  V30 3168 C 298.714 2.00154 -0.23249 0
M  V30 3169 O 297.77 2.49651 0.378237 0
M  V30 3170 C 299.083 1.39433 -2.66419 0
M  V30 3171 C 300.631 1.50927 -2.74208 0
M  V30 3172 C 301.106 1.99692 -4.12174 0
M  V30 3173 N 302.597 2.06947 -4.144 0
M  V30 3174 C 303.332 2.45871 -5.1801 0
M  V30 3175 N 302.828 2.83862 -6.31977 0
M  V30 3176 N 304.621 2.46092 -5.05366 0
M  V30 3177 H 296.772 -0.0803548 -2.12248 0
M  V30 3178 H 299.035 0.0266913 -0.947624 0
M  V30 3179 H 298.741 0.688925 -3.44887 0
M  V30 3180 H 298.615 2.36347 -2.93973 0
M  V30 3181 H 301.002 2.20561 -1.96053 0
M  V30 3182 H 301.083 0.523627 -2.50383 0
M  V30 3183 H 300.727 1.30649 -4.90809 0
M  V30 3184 H 300.657 2.99146 -4.33381 0
M  V30 3185 H 303.148 1.80232 -3.32152 0
M  V30 3186 H 303.461 3.12405 -7.0684 0
M  V30 3187 H 301.806 2.8159 -6.35399 0
M  V30 3188 H 304.997 2.1581 -4.15384 0
M  V30 3189 H 305.17 2.76102 -5.86235 0
M  V30 3190 N 298.576 1.31904 0.862503 0
M  V30 3191 C 299.524 1.20125 1.9918 0
M  V30 3192 C 300.518 0.107824 1.69056 0
M  V30 3193 O 301.724 0.270223 1.7796 0
M  V30 3194 H 298.099 0.372148 0.65346 0
M  V30 3195 H 300.07 2.15652 2.06244 0
M  V30 3196 C 298.819 0.933099 3.34946 0
M  V30 3197 H 298.142 1.76664 3.5865 0
M  V30 3198 H 299.582 0.890892 4.14535 0
M  V30 3199 C 298.041 -0.364172 3.34926 0
M  V30 3200 O 298.571 -1.37858 3.77304 0
M  V30 3201 N 296.777 -0.383362 2.8806 0
M  V30 3202 H 296.324 0.442651 2.53768 0
M  V30 3203 H 296.282 -1.25123 2.8843 0
M  V30 3204 N 300.054 -1.07777 1.14986 0
M  V30 3205 C 301.465 -1.61766 0.932127 0
M  V30 3206 C 301.816 -1.88974 -0.527581 0
M  V30 3207 O 300.941 -1.65198 -1.39781 0
M  V30 3208 C 301.536 -2.93891 1.68563 0
M  V30 3209 C 300.095 -3.44639 1.5133 0
M  V30 3210 C 299.242 -2.18767 1.704 0
M  V30 3211 H 302.193 -0.909201 1.30074 0
M  V30 3212 H 302.214 -3.62623 1.15259 0
M  V30 3213 H 301.726 -2.74057 2.74799 0
M  V30 3214 H 299.827 -3.69564 0.474702 0
M  V30 3215 H 299.94 -4.20966 2.28746 0
M  V30 3216 H 298.304 -2.28253 1.13016 0
M  V30 3217 H 299.087 -2.01433 2.77992 0
M  V30 3218 N 301.532 -0.945985 -1.26051 0
M  V30 3219 C 302.78 -0.594941 -1.93145 0
M  V30 3220 C 303.101 0.86953 -1.7454 0
M  V30 3221 O 302.371 1.61838 -1.10387 0
M  V30 3222 H 300.951 -0.217044 -0.714773 0
M  V30 3223 H 303.613 -1.20235 -1.53393 0
M  V30 3224 H 302.709 -0.816835 -3.01221 0
M  V30 3225 N 303.011 1.40521 -0.713556 0
M  V30 3226 C 303.921 2.34522 -0.0606667 0
M  V30 3227 C 304.937 1.57193 0.74607 0
M  V30 3228 O 306.113 1.89591 0.679493 0
M  V30 3229 C 303.178 3.36081 0.851491 0
M  V30 3230 C 302.239 4.29286 0.0349339 0
M  V30 3231 C 301.472 5.25994 0.903649 0
M  V30 3232 O 301.695 5.28616 2.14292 0
M  V30 3233 O 300.629 6.00918 0.343723 0
M  V30 3234 H 304.455 2.91968 -0.835972 0
M  V30 3235 H 302.04 1.41681 -0.47402 0
M  V30 3236 H 303.922 3.98369 1.37404 0
M  V30 3237 H 302.597 2.81052 1.60598 0
M  V30 3238 H 301.504 3.70289 -0.532633 0
M  V30 3239 H 302.837 4.87462 -0.681287 0
M  V30 3240 N 304.489 0.459591 1.5075 0
M  V30 3241 C 305.905 0.113092 1.59199 0
M  V30 3242 C 306.105 -1.37951 1.46874 0
M  V30 3243 O 305.161 -2.15168 1.32132 0
M  V30 3244 C 306.474 0.653043 2.93523 0
M  V30 3245 C 308.022 0.615449 3.0689 0
M  V30 3246 C 308.497 1.13275 4.43771 0
M  V30 3247 N 309.988 1.09167 4.50152 0
M  V30 3248 C 310.723 1.46256 5.54434 0
M  V30 3249 N 310.219 1.90739 6.66026 0
M  V30 3250 N 312.012 1.37932 5.44914 0
M  V30 3251 H 304.163 1.43049 1.57005 0
M  V30 3252 H 306.426 0.590861 0.741341 0
M  V30 3253 H 306.132 1.69822 3.07983 0
M  V30 3254 H 306.006 0.0902132 3.77092 0
M  V30 3255 H 308.393 -0.420793 2.92084 0
M  V30 3256 H 308.474 1.21495 2.25106 0
M  V30 3257 H 308.118 2.16757 4.59324 0
M  V30 3258 H 308.048 0.509576 5.24129 0
M  V30 3259 H 310.539 0.76528 3.7007 0
M  V30 3260 H 310.852 2.17218 7.41644 0
M  V30 3261 H 309.197 1.94683 6.67176 0
M  V30 3262 H 312.388 1.0303 4.56621 0
M  V30 3263 H 312.561 1.67164 6.26067 0
M  V30 3264 N 305.967 -1.56429 0.191757 0
M  V30 3265 C 307.192 -2.02309 -0.456706 0
M  V30 3266 C 307.617 -1.07103 -1.5463 0
M  V30 3267 O 306.975 -0.0539677 -1.8122 0
M  V30 3268 C 307.023 -3.46654 -0.993159 0
M  V30 3269 O 306.127 -3.54559 -2.10622 0
M  V30 3270 H 305.468 -0.655303 -0.107114 0
M  V30 3271 H 307.998 -2.02364 0.301653 0
M  V30 3272 H 308.008 -3.86377 -1.31061 0
M  V30 3273 H 306.683 -4.1544 -0.195504 0
M  V30 3274 H 305.26 -3.26708 -1.79767 0
M  V30 3275 N 307.445 0.0818655 -1.57387 0
M  V30 3276 C 308.692 0.782914 -1.86753 0
M  V30 3277 C 309.02 1.78082 -0.782118 0
M  V30 3278 O 308.275 1.94426 0.22295 0
M  V30 3279 C 308.574 1.53513 -3.22752 0
M  V30 3280 C 308.24 0.678134 -4.45771 0
M  V30 3281 C 306.902 0.441929 -4.79166 0
M  V30 3282 C 309.254 0.0832243 -5.21134 0
M  V30 3283 C 306.582 -0.398833 -5.85343 0
M  V30 3284 C 308.934 -0.744935 -6.28199 0
M  V30 3285 C 307.598 -0.991107 -6.60101 0
M  V30 3286 H 306.868 0.286489 -0.683378 0
M  V30 3287 H 309.515 0.0439808 -1.91449 0
M  V30 3288 H 307.82 2.34599 -3.138 0
M  V30 3289 H 309.517 2.08218 -3.42705 0
M  V30 3290 H 306.107 0.872357 -4.19628 0
M  V30 3291 H 310.291 0.252847 -4.95655 0
M  V30 3292 H 305.547 -0.598405 -6.08465 0
M  V30 3293 H 309.721 -1.21271 -6.8576 0
M  V30 3294 H 307.348 -1.64437 -7.42202 0
M  V30 3295 N 308.923 1.53595 0.353017 0
M  V30 3296 C 309.873 1.77299 1.43349 0
M  V30 3297 C 310.857 0.627884 1.48143 0
M  V30 3298 O 312.049 0.88697 1.53173 0
M  V30 3299 C 309.178 1.97757 2.80619 0
M  V30 3300 C 308.264 3.18305 2.80254 0
M  V30 3301 N 308.655 4.39967 2.49526 0
M  V30 3302 C 306.953 3.19283 3.11407 0
M  V30 3303 C 307.654 5.21772 2.57156 0
M  V30 3304 N 306.63 4.58269 2.92388 0
M  V30 3305 H 310.432 2.68963 1.18474 0
M  V30 3306 H 307.946 1.52391 0.561306 0
M  V30 3307 H 309.943 2.1287 3.58458 0
M  V30 3308 H 308.603 1.07329 3.06448 0
M  V30 3309 H 309.614 4.67482 2.22893 0
M  V30 3310 H 306.291 2.3879 3.4247 0
M  V30 3311 H 307.681 6.2885 2.36638 0
M  V30 3312 N 310.401 -0.613514 1.45168 0
M  V30 3313 C 311.65 -1.36874 1.4815 0
M  V30 3314 C 311.963 -1.952 0.124982 0
M  V30 3315 O 313.169 -2.71481 0.0324176 0
M  V30 3316 C 311.625 -2.47905 2.60904 0
M  V30 3317 C 311.233 -1.96016 4.02842 0
M  V30 3318 C 312.977 -3.24965 2.73126 0
M  V30 3319 C 310.884 -3.04494 5.06988 0
M  V30 3320 H 309.814 -0.514428 0.551253 0
M  V30 3321 H 312.465 -0.658182 1.7129 0
M  V30 3322 H 310.847 -3.21618 2.31037 0
M  V30 3323 H 312.021 -1.29051 4.4236 0
M  V30 3324 H 310.336 -1.31719 3.95018 0
M  V30 3325 H 312.933 -4.05865 3.48106 0
M  V30 3326 H 313.276 -3.75588 1.79553 0
M  V30 3327 H 313.809 -2.5835 3.0249 0
M  V30 3328 H 310.548 -2.58795 6.0225 0
M  V30 3329 H 310.068 -3.70044 4.72046 0
M  V30 3330 H 311.747 -3.68976 5.31475 0
M  V30 3331 N 311.879 -1.3236 -0.855495 0
M  V30 3332 C 313.126 -1.22872 -1.60962 0
M  V30 3333 C 313.454 0.209658 -1.93367 0
M  V30 3334 O 312.709 1.16243 -1.57436 0
M  V30 3335 C 313.008 -2.03275 -2.93963 0
M  V30 3336 C 312.674 -3.5264 -2.80991 0
M  V30 3337 C 311.336 -3.93364 -2.7716 0
M  V30 3338 C 313.688 -4.47626 -2.66983 0
M  V30 3339 C 311.016 -5.27319 -2.572 0
M  V30 3340 C 313.368 -5.81723 -2.48558 0
M  V30 3341 C 312.032 -6.2165 -2.4312 0
M  V30 3342 H 311.302 -0.44962 -0.589001 0
M  V30 3343 H 313.949 -1.63777 -0.992442 0
M  V30 3344 H 312.254 -1.55095 -3.59795 0
M  V30 3345 H 313.951 -1.93303 -3.51333 0
M  V30 3346 H 310.541 -3.20295 -2.84797 0
M  V30 3347 H 314.725 -4.17084 -2.68988 0
M  V30 3348 H 309.981 -5.57311 -2.51424 0
M  V30 3349 H 314.155 -6.5494 -2.36699 0
M  V30 3350 H 311.782 -7.25388 -2.27412 0
M  V30 3351 N 313.357 1.07166 -1.15556 0
M  V30 3352 C 314.587 1.83248 -0.954133 0
M  V30 3353 C 314.995 1.82449 0.500911 0
M  V30 3354 O 314.338 1.23575 1.35923 0
M  V30 3355 C 314.4 3.31393 -1.39351 0
M  V30 3356 C 314.064 3.5591 -2.86666 0
M  V30 3357 C 315.061 3.49695 -3.8472 0
M  V30 3358 C 312.746 3.83515 -3.24379 0
M  V30 3359 C 314.74 3.70737 -5.18491 0
M  V30 3360 C 312.427 4.04209 -4.58321 0
M  V30 3361 C 313.425 3.97815 -5.55186 0
M  V30 3362 O 313.113 4.17954 -6.86709 0
M  V30 3363 H 312.845 0.584941 -0.338851 0
M  V30 3364 H 315.399 1.36169 -1.53777 0
M  V30 3365 H 313.629 3.79292 -0.75329 0
M  V30 3366 H 315.318 3.88945 -1.16089 0
M  V30 3367 H 316.084 3.28368 -3.56931 0
M  V30 3368 H 311.963 3.87605 -2.49567 0
M  V30 3369 H 315.507 3.65663 -5.94085 0
M  V30 3370 H 311.404 4.25023 -4.85825 0
M  V30 3371 H 312.172 4.35291 -6.93155 0
M  V30 3372 N 314.835 0.952656 1.25548 0
M  V30 3373 C 315.767 0.428609 2.25157 0
M  V30 3374 C 316.78 -0.454428 1.56329 0
M  V30 3375 O 317.969 -0.263023 1.76552 0
M  V30 3376 C 315.069 -0.401972 3.36508 0
M  V30 3377 C 314.242 0.467601 4.34893 0
M  V30 3378 C 313.301 -0.30445 5.25319 0
M  V30 3379 O 312.327 0.296473 5.68427 0
M  V30 3380 N 313.529 -1.59805 5.5807 0
M  V30 3381 H 316.294 1.28497 2.70756 0
M  V30 3382 H 313.855 0.822798 1.39433 0
M  V30 3383 H 315.847 -0.926134 3.9396 0
M  V30 3384 H 314.417 -1.15918 2.90313 0
M  V30 3385 H 313.637 1.17288 3.76347 0
M  V30 3386 H 314.925 1.06119 4.97611 0
M  V30 3387 H 314.323 -2.10823 5.24948 0
M  V30 3388 H 312.88 -2.06822 6.18116 0
M  V30 3389 N 316.313 -1.40141 0.720998 0
M  V30 3390 C 317.243 -2.33339 0.0867621 0
M  V30 3391 C 318.224 -1.53178 -0.739622 0
M  V30 3392 O 319.409 -1.81625 -0.687449 0
M  V30 3393 C 316.539 -3.37194 -0.831728 0
M  V30 3394 C 315.493 -4.27857 -0.110558 0
M  V30 3395 C 314.819 -5.22294 -1.14513 0
M  V30 3396 C 316.119 -5.11872 1.0385 0
M  V30 3397 H 317.813 -2.86626 0.865219 0
M  V30 3398 H 315.359 -1.37814 0.417516 0
M  V30 3399 H 317.312 -4.01335 -1.28485 0
M  V30 3400 H 316.036 -2.82314 -1.64214 0
M  V30 3401 H 314.695 -3.65176 0.322797 0
M  V30 3402 H 314.343 -4.63717 -1.94874 0
M  V30 3403 H 314.043 -5.83797 -0.667446 0
M  V30 3404 H 315.567 -5.89312 -1.59824 0
M  V30 3405 H 316.981 -5.69436 0.664482 0
M  V30 3406 H 315.378 -5.82445 1.4449 0
M  V30 3407 H 316.448 -4.4753 1.86668 0
M  V30 3408 N 317.792 -0.46758 -1.50504 0
M  V30 3409 C 319.041 0.0902868 -2.01498 0
M  V30 3410 C 319.354 1.411 -1.35463 0
M  V30 3411 O 320.56 2.0536 -1.77594 0
M  V30 3412 C 319.016 0.21142 -3.59278 0
M  V30 3413 C 318.624 -1.10065 -4.34269 0
M  V30 3414 C 320.368 0.721433 -4.18325 0
M  V30 3415 C 318.275 -0.943505 -5.83825 0
M  V30 3416 H 317.205 0.037517 -0.753066 0
M  V30 3417 H 319.856 -0.601943 -1.73346 0
M  V30 3418 H 318.238 0.967352 -3.84003 0
M  V30 3419 H 319.412 -1.86726 -4.21272 0
M  V30 3420 H 317.727 -1.5415 -3.86816 0
M  V30 3421 H 320.324 0.85598 -5.27804 0
M  V30 3422 H 320.667 1.71186 -3.79475 0
M  V30 3423 H 321.2 0.0229843 -3.97793 0
M  V30 3424 H 317.939 -1.90719 -6.27141 0
M  V30 3425 H 317.459 -0.217213 -5.99407 0
M  V30 3426 H 319.138 -0.608715 -6.4413 0
M  V30 3427 N 319.27 1.56325 -0.20005 0
M  V30 3428 C 320.18 2.22931 0.730668 0
M  V30 3429 C 321.196 1.22997 1.23076 0
M  V30 3430 O 322.372 1.55748 1.27689 0
M  V30 3431 C 319.437 2.87948 1.93098 0
M  V30 3432 C 318.498 4.03166 1.47497 0
M  V30 3433 C 317.731 4.65073 2.61807 0
M  V30 3434 O 317.954 4.25913 3.79413 0
M  V30 3435 O 316.888 5.54452 2.34237 0
M  V30 3436 H 320.714 3.03084 0.193391 0
M  V30 3437 H 318.299 1.49371 0.0294621 0
M  V30 3438 H 320.181 3.29063 2.6324 0
M  V30 3439 H 318.856 2.10771 2.45677 0
M  V30 3440 H 317.763 3.66664 0.742201 0
M  V30 3441 H 319.096 4.82022 0.995796 0
M  V30 3442 N 320.748 -0.0735177 1.57428 0
M  V30 3443 C 321.996 -0.771472 1.86796 0
M  V30 3444 C 322.317 -1.78201 0.791804 0
M  V30 3445 O 321.587 -1.95074 -0.179718 0
M  V30 3446 H 320.167 -0.28791 0.689287 0
M  V30 3447 H 322.829 -0.0500161 1.94836 0
M  V30 3448 H 321.925 -1.28874 2.8425 0
M  V30 3449 N 322.226 -1.5378 -0.344866 0
M  V30 3450 C 323.189 -1.80981 -1.40637 0
M  V30 3451 C 324.189 -0.680816 -1.45676 0
M  V30 3452 O 325.379 -0.949095 -1.46075 0
M  V30 3453 C 322.511 -1.95063 -2.79577 0
M  V30 3454 H 323.704 -2.75803 -1.17783 0
M  V30 3455 H 321.257 -1.45173 -0.579181 0
M  V30 3456 H 321.992 -1.02379 -3.07716 0
M  V30 3457 H 321.777 -2.77198 -2.77315 0
M  V30 3458 H 323.267 -2.17629 -3.56409 0
M  V30 3459 N 323.704 0.605807 -1.45491 0
M  V30 3460 C 324.929 1.39625 -1.53361 0
M  V30 3461 C 325.354 1.87351 -0.167645 0
M  V30 3462 O 324.712 1.60243 0.848051 0
M  V30 3463 C 324.76 2.57559 -2.5238 0
M  V30 3464 O 323.864 3.58248 -2.04285 0
M  V30 3465 H 323.205 0.416771 -0.516912 0
M  V30 3466 H 325.735 0.737103 -1.90861 0
M  V30 3467 H 325.745 3.0478 -2.71244 0
M  V30 3468 H 324.42 2.22171 -3.51586 0
M  V30 3469 H 322.997 3.17664 -1.95305 0
M  V30 3470 N 325.182 1.32811 0.848464 0
M  V30 3471 C 326.145 1.22194 1.9391 0
M  V30 3472 C 327.145 0.143404 1.60159 0
M  V30 3473 O 328.335 0.394253 1.6968 0
M  V30 3474 C 325.467 0.88067 3.29328 0
M  V30 3475 H 326.66 2.19127 2.04752 0
M  V30 3476 H 324.213 1.16731 1.0394 0
M  V30 3477 H 324.948 -0.0865776 3.24184 0
M  V30 3478 H 324.733 1.66052 3.55203 0
M  V30 3479 H 326.223 0.830871 4.09251 0
M  V30 3480 N 326.66 -1.06551 1.16123 0
M  V30 3481 C 327.57 -2.17484 0.879662 0
M  V30 3482 C 328.586 -1.73377 -0.147104 0
M  V30 3483 O 329.762 -2.01379 0.0289128 0
M  V30 3484 C 326.827 -3.44591 0.381829 0
M  V30 3485 C 325.888 -4.0322 1.4735 0
M  V30 3486 C 325.121 -5.24261 0.999324 0
M  V30 3487 O 325.344 -5.70198 -0.151957 0
M  V30 3488 O 324.278 -5.74775 1.78653 0
M  V30 3489 H 328.104 -2.44075 1.80724 0
M  V30 3490 H 325.689 -1.16042 0.940992 0
M  V30 3491 H 327.571 -4.21254 0.111053 0
M  V30 3492 H 326.246 -3.19532 -0.51777 0
M  V30 3493 H 325.153 -3.2806 1.79798 0
M  V30 3494 H 326.486 -4.32568 2.34831 0
M  V30 3495 N 328.138 -0.959301 -1.25041 0
M  V30 3496 C 329.07 -0.440543 -2.24926 0
M  V30 3497 C 330.083 0.446131 -1.56568 0
M  V30 3498 O 331.272 0.253657 -1.76689 0
M  V30 3499 C 328.372 0.38412 -3.36716 0
M  V30 3500 C 327.545 -0.490658 -4.34639 0
M  V30 3501 C 326.604 0.276587 -5.25473 0
M  V30 3502 O 325.63 -0.326614 -5.68262 0
M  V30 3503 N 326.832 1.56844 -5.5891 0
M  V30 3504 H 329.597 -1.29931 -2.70071 0
M  V30 3505 H 327.158 -0.830181 -1.38995 0
M  V30 3506 H 329.15 0.905228 -3.94446 0
M  V30 3507 H 327.72 1.14377 -2.90924 0
M  V30 3508 H 326.94 -1.19282 -3.7572 0
M  V30 3509 H 328.228 -1.08756 -4.97041 0
M  V30 3510 H 327.626 2.08036 -5.26059 0
M  V30 3511 H 326.183 2.03541 -6.19205 0
M  V30 3512 N 329.616 1.39756 -0.72842 0
M  V30 3513 C 330.563 2.30647 -0.0841519 0
M  V30 3514 C 331.533 1.48869 0.7367 0
M  V30 3515 O 332.718 1.77574 0.698015 0
M  V30 3516 C 329.858 3.35165 0.822091 0
M  V30 3517 C 328.971 4.31999 -0.0106663 0
M  V30 3518 C 328.106 5.23585 0.896241 0
M  V30 3519 C 327.145 6.12072 0.0583381 0
M  V30 3520 N 326.282 6.96035 0.920818 0
M  V30 3521 H 331.122 2.85173 -0.864891 0
M  V30 3522 H 328.659 1.40422 -0.438179 0
M  V30 3523 H 330.617 3.94345 1.36189 0
M  V30 3524 H 329.247 2.8211 1.56888 0
M  V30 3525 H 328.299 3.74492 -0.66781 0
M  V30 3526 H 329.611 4.9443 -0.658825 0
M  V30 3527 H 328.765 5.87759 1.50412 0
M  V30 3528 H 327.504 4.61459 1.57819 0
M  V30 3529 H 326.509 5.46916 -0.562389 0
M  V30 3530 H 327.734 6.76261 -0.6203 0
M  V30 3531 H 325.68 6.36485 1.58818 0
M  V30 3532 H 325.597 7.55284 0.32899 0
M  V30 3533 H 326.865 7.64646 1.51447 0
M  V30 3534 N 331.094 0.475555 1.50254 0
M  V30 3535 C 332.044 -0.335025 2.25525 0
M  V30 3536 C 333.028 -0.957625 1.29299 0
M  V30 3537 O 334.22 -0.869436 1.54175 0
M  V30 3538 C 331.349 -1.41385 3.12834 0
M  V30 3539 C 330.435 -0.798762 4.1651 0
M  V30 3540 N 330.826 0.0835815 5.05731 0
M  V30 3541 C 329.124 -1.06221 4.33166 0
M  V30 3542 C 329.825 0.433113 5.80085 0
M  V30 3543 N 328.801 -0.1928 5.43258 0
M  V30 3544 H 332.603 0.344612 2.91873 0
M  V30 3545 H 330.117 0.289986 1.5979 0
M  V30 3546 H 332.114 -2.00777 3.65368 0
M  V30 3547 H 330.774 -2.09543 2.48036 0
M  V30 3548 H 331.785 0.452715 5.15918 0
M  V30 3549 H 328.462 -1.73844 3.79585 0
M  V30 3550 H 329.852 1.15346 6.61925 0
M  V30 3551 N 332.573 -1.56217 0.208337 0
M  V30 3552 C 333.798 -2.02782 -0.435222 0
M  V30 3553 C 334.223 -1.08738 -1.53485 0
M  V30 3554 O 333.581 -0.0731855 -1.81152 0
M  V30 3555 C 333.629 -3.47687 -0.956335 0
M  V30 3556 O 332.733 -3.56773 -2.06849 0
M  V30 3557 H 332.074 -0.656403 -0.100158 0
M  V30 3558 H 334.604 -2.02033 0.3231 0
M  V30 3559 H 334.614 -3.87745 -1.26955 0
M  V30 3560 H 333.289 -4.15624 -0.15143 0
M  V30 3561 H 331.866 -3.28597 -1.76292 0
M  V30 3562 N 334.051 0.0651679 -1.57465 0
M  V30 3563 C 334.981 1.07693 -2.07182 0
M  V30 3564 C 335.962 1.39962 -0.966673 0
M  V30 3565 O 337.147 1.49475 -1.2398 0
M  V30 3566 C 334.277 2.3885 -2.52127 0
M  V30 3567 C 333.231 2.20917 -3.66579 0
M  V30 3568 C 332.557 3.57515 -3.97601 0
M  V30 3569 C 333.857 1.62493 -4.9638 0
M  V30 3570 H 335.551 0.663199 -2.91962 0
M  V30 3571 H 333.097 0.317569 -1.40455 0
M  V30 3572 H 335.05 3.09928 -2.85522 0
M  V30 3573 H 333.774 2.82215 -1.64384 0
M  V30 3574 H 332.433 1.52279 -3.33477 0
M  V30 3575 H 332.081 3.98463 -3.06979 0
M  V30 3576 H 331.781 3.46353 -4.74672 0
M  V30 3577 H 333.305 4.30013 -4.33499 0
M  V30 3578 H 334.719 2.23445 -5.27963 0
M  V30 3579 H 333.116 1.62009 -5.77818 0
M  V30 3580 H 334.186 0.587041 -4.81333 0
M  V30 3581 N 335.529 1.53961 0.336706 0
M  V30 3582 C 336.777 1.71197 1.07405 0
M  V30 3583 C 337.098 0.481475 1.88962 0
M  V30 3584 O 336.368 -0.504585 1.8929 0
M  V30 3585 H 334.948 0.631185 0.399517 0
M  V30 3586 H 337.61 1.91232 0.376323 0
M  V30 3587 H 336.706 2.58587 1.74755 0
M  V30 3588 N 337.007 -0.598083 1.45811 0
M  V30 3589 C 338.256 -1.35295 1.49594 0
M  V30 3590 C 338.569 -1.95057 0.145679 0
M  V30 3591 O 339.775 -2.71431 0.0612099 0
M  V30 3592 C 338.231 -2.45124 2.63519 0
M  V30 3593 C 337.839 -1.91732 4.04899 0
M  V30 3594 C 339.583 -3.2205 2.76558 0
M  V30 3595 C 337.49 -2.991 5.1019 0
M  V30 3596 H 336.42 -0.508552 0.556679 0
M  V30 3597 H 339.071 -0.639977 1.71978 0
M  V30 3598 H 337.453 -3.19149 2.34435 0
M  V30 3599 H 338.627 -1.24352 4.43704 0
M  V30 3600 H 336.942 -1.27522 3.96393 0
M  V30 3601 H 339.539 -4.0215 3.52391 0
M  V30 3602 H 339.882 -3.73663 1.83526 0
M  V30 3603 H 340.415 -2.55127 3.05213 0
M  V30 3604 H 337.154 -2.52393 6.04961 0
M  V30 3605 H 336.674 -3.65017 4.75944 0
M  V30 3606 H 338.353 -3.63318 5.35359 0
M  V30 3607 N 338.485 -1.33259 -0.841409 0
M  V30 3608 C 339.713 -1.27605 -1.62864 0
M  V30 3609 C 340.128 0.153507 -1.88175 0
M  V30 3610 O 339.485 1.09485 -1.46011 0
M  V30 3611 C 339.536 -2.04596 -2.98031 0
M  V30 3612 O 339.257 -3.41975 -2.73834 0
M  V30 3613 C 340.758 -2.06122 -3.92465 0
M  V30 3614 H 337.978 -0.439718 -0.506842 0
M  V30 3615 H 340.522 -1.75591 -1.04824 0
M  V30 3616 H 338.677 -1.60299 -3.5268 0
M  V30 3617 H 339.091 -3.81549 -3.59889 0
M  V30 3618 H 340.565 -2.64451 -4.84531 0
M  V30 3619 H 341.042 -1.05083 -4.26444 0
M  V30 3620 H 341.648 -2.50427 -3.43753 0
M  V30 3621 N 339.963 1.05934 -1.16686 0
M  V30 3622 C 341.188 1.83029 -0.975455 0
M  V30 3623 C 341.613 1.82096 0.471452 0
M  V30 3624 O 340.971 1.22443 1.33706 0
M  V30 3625 C 341.019 3.27372 -1.51195 0
M  V30 3626 O 340.123 4.06054 -0.720701 0
M  V30 3627 H 339.464 0.566194 -0.346872 0
M  V30 3628 H 341.994 1.33541 -1.55009 0
M  V30 3629 H 342.004 3.78186 -1.53099 0
M  V30 3630 H 340.679 3.27366 -2.56523 0
M  V30 3631 H 339.256 3.64812 -0.772458 0
M  V30 3632 N 341.441 0.965919 1.2453 0
M  V30 3633 C 342.374 0.4393 2.23932 0
M  V30 3634 C 343.352 -0.485615 1.55179 0
M  V30 3635 O 344.536 -0.417402 1.83821 0
M  V30 3636 C 341.663 -0.366042 3.36716 0
M  V30 3637 C 340.709 0.5009 4.23548 0
M  V30 3638 S 341.542 1.94002 4.99123 0
M  V30 3639 C 342.698 1.14342 6.15367 0
M  V30 3640 H 342.931 1.28167 2.68254 0
M  V30 3641 H 340.464 0.770819 1.33782 0
M  V30 3642 H 342.422 -0.824724 4.0213 0
M  V30 3643 H 341.083 -1.18337 2.90956 0
M  V30 3644 H 340.276 -0.117341 5.03863 0
M  V30 3645 H 339.878 0.89524 3.63127 0
M  V30 3646 H 342.17 0.397572 6.76332 0
M  V30 3647 H 343.113 1.92089 6.81548 0
M  V30 3648 H 343.521 0.668579 5.60527 0
M  V30 3649 N 342.919 -1.39368 0.735821 0
M  V30 3650 C 344.196 -1.94465 0.210395 0
M  V30 3651 C 344.576 -1.67254 -1.28799 0
M  V30 3652 O 343.924 -1.00123 -2.05396 0
M  V30 3653 C 344.134 -3.4472 0.544897 0
M  V30 3654 C 345.482 -4.21708 0.494689 0
M  V30 3655 O 346.506 -3.52922 0.482136 0
M  V30 3656 O 345.365 -5.44299 0.489947 0
M  V30 3657 H 342.459 -0.826096 0.0386666 0
M  V30 3658 H 345.005 -1.48863 0.814735 0
M  V30 3659 H 343.777 -3.57963 1.58045 0
M  V30 3660 H 343.4 -3.97502 -0.08837 0
M  V30 3661 N 344.397 -0.483516 -1.5 0
M  V30 3662 C 345.627 0.0643896 -2.065 0
M  V30 3663 C 346.035 1.32949 -1.34615 0
M  V30 3664 O 345.378 1.79003 -0.412756 0
M  V30 3665 C 345.44 0.405983 -3.572 0
M  V30 3666 C 345.104 -0.758875 -4.50655 0
M  V30 3667 C 346.101 -1.64445 -4.93208 0
M  V30 3668 C 343.786 -0.952725 -4.93182 0
M  V30 3669 C 345.78 -2.70818 -5.77006 0
M  V30 3670 C 343.467 -2.01966 -5.76761 0
M  V30 3671 C 344.465 -2.89574 -6.18576 0
M  V30 3672 O 344.153 -3.94429 -7.00486 0
M  V30 3673 H 343.885 -0.00934786 -0.675935 0
M  V30 3674 H 346.439 -0.674959 -1.93993 0
M  V30 3675 H 344.669 1.19869 -3.67652 0
M  V30 3676 H 346.358 0.890433 -3.96013 0
M  V30 3677 H 347.124 -1.50643 -4.61012 0
M  V30 3678 H 343.003 -0.280247 -4.60147 0
M  V30 3679 H 346.547 -3.3923 -6.09565 0
M  V30 3680 H 342.444 -2.1577 -6.0837 0
M  V30 3681 H 343.212 -3.91568 -7.1876 0
M  V30 3682 N 345.875 1.56104 -0.216619 0
M  V30 3683 C 347.105 2.02269 0.420802 0
M  V30 3684 C 347.513 1.09575 1.5424 0
M  V30 3685 O 346.856 0.0967308 1.83445 0
M  V30 3686 C 346.918 3.44784 1.01806 0
M  V30 3687 C 346.582 4.56988 0.0325154 0
M  V30 3688 C 347.579 5.14225 -0.766055 0
M  V30 3689 C 345.264 5.02228 -0.0848092 0
M  V30 3690 C 347.258 6.15169 -1.6687 0
M  V30 3691 C 344.945 6.03011 -0.990994 0
M  V30 3692 C 345.943 6.59357 -1.78149 0
M  V30 3693 O 345.631 7.58179 -2.67245 0
M  V30 3694 H 345.363 0.667353 0.107776 0
M  V30 3695 H 347.917 2.02747 -0.329034 0
M  V30 3696 H 346.147 3.41359 1.81689 0
M  V30 3697 H 347.836 3.74626 1.56237 0
M  V30 3698 H 348.602 4.80126 -0.685836 0
M  V30 3699 H 344.481 4.58054 0.520349 0
M  V30 3700 H 348.025 6.59076 -2.28615 0
M  V30 3701 H 343.922 6.36532 -1.07225 0
M  V30 3702 H 344.69 7.75682 -2.61265 0
M  V30 3703 N 347.353 -0.0568162 1.57498 0
M  V30 3704 C 348.583 -0.764515 1.91934 0
M  V30 3705 C 348.991 -1.70877 0.81227 0
M  V30 3706 O 348.334 -1.82351 -0.222213 0
M  V30 3707 C 348.396 -1.5994 3.21962 0
M  V30 3708 C 348.06 -0.822925 4.4953 0
M  V30 3709 C 349.057 -0.135464 5.19723 0
M  V30 3710 C 346.742 -0.785666 4.96117 0
M  V30 3711 C 348.736 0.578861 6.34766 0
M  V30 3712 C 346.423 -0.0675784 6.11063 0
M  V30 3713 C 347.421 0.613471 6.80239 0
M  V30 3714 O 347.109 1.31996 7.92989 0
M  V30 3715 H 346.841 -0.221647 0.63863 0
M  V30 3716 H 349.395 -0.0268218 2.05382 0
M  V30 3717 H 347.625 -2.38026 3.04763 0
M  V30 3718 H 349.314 -2.18715 3.41934 0
M  V30 3719 H 350.08 -0.155458 4.84751 0
M  V30 3720 H 345.959 -1.30524 4.42136 0
M  V30 3721 H 349.503 1.111 6.88696 0
M  V30 3722 H 345.4 -0.0455636 6.45484 0
M  V30 3723 H 346.168 1.23077 8.09194 0
M  V30 3724 N 348.832 -1.54138 -0.328536 0
M  V30 3725 C 350.062 -1.75807 -1.08516 0
M  V30 3726 C 350.47 -0.50428 -1.82356 0
M  V30 3727 O 349.813 0.534451 -1.75754 0
M  V30 3728 C 349.875 -2.89423 -2.13248 0
M  V30 3729 C 349.539 -4.28504 -1.5885 0
M  V30 3730 C 350.536 -5.09536 -1.03289 0
M  V30 3731 C 348.221 -4.75034 -1.63243 0
M  V30 3732 C 350.215 -6.35206 -0.52845 0
M  V30 3733 C 347.902 -6.00672 -1.12411 0
M  V30 3734 C 348.9 -6.80592 -0.573062 0
M  V30 3735 O 348.588 -8.03867 -0.0723692 0
M  V30 3736 H 348.32 -0.590633 -0.328829 0
M  V30 3737 H 350.874 -2.01819 -0.381868 0
M  V30 3738 H 349.104 -2.5897 -2.87178 0
M  V30 3739 H 350.793 -2.98921 -2.74592 0
M  V30 3740 H 351.559 -4.74745 -0.99206 0
M  V30 3741 H 347.438 -4.12875 -2.05074 0
M  V30 3742 H 350.982 -6.97532 -0.0976774 0
M  V30 3743 H 346.879 -6.34955 -1.162 0
M  V30 3744 H 347.647 -8.18283 -0.188258 0
M  V30 3745 N 350.31 0.590341 -1.46126 0
M  V30 3746 C 351.24 1.71032 -1.58966 0
M  V30 3747 C 352.221 1.64302 -0.440335 0
M  V30 3748 O 353.406 1.82436 -0.665634 0
M  V30 3749 C 350.536 3.09665 -1.57241 0
M  V30 3750 C 349.49 3.31221 -2.71066 0
M  V30 3751 C 348.816 4.70303 -2.54399 0
M  V30 3752 C 350.116 3.19796 -4.1295 0
M  V30 3753 H 351.81 1.60543 -2.52718 0
M  V30 3754 H 349.356 0.770933 -1.21625 0
M  V30 3755 H 351.309 3.87831 -1.64819 0
M  V30 3756 H 350.033 3.21036 -0.600289 0
M  V30 3757 H 348.692 2.55452 -2.62944 0
M  V30 3758 H 348.34 4.78429 -1.55288 0
M  V30 3759 H 348.04 4.85679 -3.30741 0
M  V30 3760 H 349.564 5.50647 -2.63857 0
M  V30 3761 H 350.978 3.87815 -4.22223 0
M  V30 3762 H 349.375 3.46696 -4.89818 0
M  V30 3763 H 350.445 2.16983 -4.33643 0
M  V30 3764 N 351.788 1.33704 0.83433 0
M  V30 3765 C 353.013 1.28615 1.62705 0
M  V30 3766 C 353.438 -0.139242 1.87584 0
M  V30 3767 O 352.796 -1.09734 1.4432 0
M  V30 3768 C 352.844 2.07139 2.95171 0
M  V30 3769 O 351.948 1.4331 3.86699 0
M  V30 3770 H 351.289 0.44226 0.49528 0
M  V30 3771 H 353.819 1.76335 1.03766 0
M  V30 3772 H 353.829 2.18073 3.44831 0
M  V30 3773 H 352.504 3.10779 2.76386 0
M  V30 3774 H 351.081 1.4105 3.45195 0
M  V30 3775 N 353.266 -1.05314 1.17247 0
M  V30 3776 C 354.196 -2.1498 0.911362 0
M  V30 3777 C 355.177 -1.69471 -0.146169 0
M  V30 3778 O 356.362 -1.942 0.003812 0
M  V30 3779 C 353.492 -3.4472 0.422528 0
M  V30 3780 C 352.446 -4.03789 1.4191 0
M  V30 3781 C 351.772 -5.28858 0.788274 0
M  V30 3782 C 353.072 -4.41418 2.7919 0
M  V30 3783 H 354.766 -2.3708 1.82848 0
M  V30 3784 H 352.312 -1.13938 0.880569 0
M  V30 3785 H 354.265 -4.20787 0.227289 0
M  V30 3786 H 352.989 -3.22269 -0.530123 0
M  V30 3787 H 351.648 -3.2979 1.60106 0
M  V30 3788 H 351.296 -5.02709 -0.171173 0
M  V30 3789 H 350.996 -5.69338 1.45353 0
M  V30 3790 H 352.52 -6.07612 0.603282 0
M  V30 3791 H 353.934 -5.08524 2.64719 0
M  V30 3792 H 352.331 -4.92913 3.42282 0
M  V30 3793 H 353.401 -3.51819 3.33693 0
M  V30 3794 N 354.744 -0.972509 -1.24016 0
M  V30 3795 C 355.969 -0.654417 -1.96805 0
M  V30 3796 C 356.394 0.770398 -1.716 0
M  V30 3797 O 355.752 1.52361 -0.982647 0
M  V30 3798 C 355.8 -0.941031 -3.48105 0
M  V30 3799 O 354.904 -0.0289472 -4.1239 0
M  V30 3800 H 354.245 -0.24692 -0.616382 0
M  V30 3801 H 356.775 -1.30396 -1.57664 0
M  V30 3802 H 356.785 -0.87452 -3.98517 0
M  V30 3803 H 355.46 -1.97939 -3.65777 0
M  V30 3804 H 354.037 -0.149192 -3.72601 0
M  V30 3805 N 356.222 1.38976 -0.743202 0
M  V30 3806 C 357.47 1.99948 -0.29417 0
M  V30 3807 C 357.791 1.59279 1.12495 0
M  V30 3808 O 357.061 0.844808 1.76748 0
M  V30 3809 H 355.641 0.739473 -0.105774 0
M  V30 3810 H 358.303 1.699 -0.954986 0
M  V30 3811 H 357.399 3.10142 -0.349056 0
M  V30 3812 N 357.7 0.491464 1.49741 0
M  V30 3813 C 358.925 -0.0557177 2.07325 0
M  V30 3814 C 359.35 -1.30925 1.35056 0
M  V30 3815 O 358.708 -1.76733 0.404365 0
M  V30 3816 C 358.756 -0.302074 3.59333 0
M  V30 3817 O 357.86 -1.37868 3.88672 0
M  V30 3818 H 357.201 0.0219956 0.663636 0
M  V30 3819 H 359.731 0.688352 1.92673 0
M  V30 3820 H 359.741 -0.536464 4.04458 0
M  V30 3821 H 358.416 0.61383 4.11345 0
M  V30 3822 H 356.993 -1.12999 3.55367 0
M  V30 3823 N 359.178 -1.55987 0.224894 0
M  V30 3824 C 360.408 -2.02489 -0.41007 0
M  V30 3825 C 360.816 -1.10391 -1.53657 0
M  V30 3826 O 360.159 -0.106458 -1.83391 0
M  V30 3827 C 360.221 -3.45319 -0.999757 0
M  V30 3828 C 359.885 -4.56999 -0.00827976 0
M  V30 3829 C 360.882 -5.13812 0.793314 0
M  V30 3830 C 358.567 -5.02176 0.111442 0
M  V30 3831 C 360.561 -6.14276 1.7013 0
M  V30 3832 C 358.248 -6.02477 1.02296 0
M  V30 3833 C 359.246 -6.58403 1.81643 0
M  V30 3834 O 358.934 -7.56751 2.71262 0
M  V30 3835 H 358.666 -0.667915 -0.104235 0
M  V30 3836 H 361.22 -2.0257 0.339782 0
M  V30 3837 H 359.45 -3.42318 -1.79876 0
M  V30 3838 H 361.139 -3.7545 -1.54248 0
M  V30 3839 H 361.905 -4.79756 0.711288 0
M  V30 3840 H 357.784 -4.58323 -0.49605 0
M  V30 3841 H 361.328 -6.57854 2.32107 0
M  V30 3842 H 357.225 -6.35954 1.10599 0
M  V30 3843 H 357.993 -7.74286 2.65375 0
M  V30 3844 N 360.656 0.0484629 -1.57525 0
M  V30 3845 C 361.603 1.05504 -2.05275 0
M  V30 3846 C 362.573 1.37084 -0.937927 0
M  V30 3847 O 363.758 1.47754 -1.2072 0
M  V30 3848 C 360.898 2.35676 -2.52093 0
M  V30 3849 C 360.011 2.10423 -3.77288 0
M  V30 3850 C 359.146 3.34327 -4.12794 0
M  V30 3851 C 358.185 3.04542 -5.30962 0
M  V30 3852 N 357.322 4.20841 -5.61994 0
M  V30 3853 H 362.162 0.640885 -2.91027 0
M  V30 3854 H 359.699 0.304854 -1.43906 0
M  V30 3855 H 361.657 3.11709 -2.77297 0
M  V30 3856 H 360.287 2.7485 -1.69285 0
M  V30 3857 H 359.339 1.24976 -3.59284 0
M  V30 3858 H 360.651 1.84438 -4.63448 0
M  V30 3859 H 359.805 4.1874 -4.39024 0
M  V30 3860 H 358.544 3.63408 -3.25247 0
M  V30 3861 H 357.549 2.18528 -5.04505 0
M  V30 3862 H 358.774 2.76758 -6.20146 0
M  V30 3863 H 356.72 4.4991 -4.77406 0
M  V30 3864 H 356.637 3.98212 -6.42622 0
M  V30 3865 H 357.905 5.06184 -5.92789 0
M  V30 3866 N 362.134 1.5431 0.320358 0
M  V30 3867 C 363.38 1.72924 1.05949 0
M  V30 3868 C 363.713 0.503185 1.87568 0
M  V30 3869 O 362.988 -0.499839 1.87968 0
M  V30 3870 C 363.271 3.00676 1.98156 0
M  V30 3871 C 363.124 4.3354 1.19845 0
M  V30 3872 C 364.443 3.24198 2.9763 0
M  V30 3873 H 361.562 0.629195 0.383774 0
M  V30 3874 H 364.204 1.87008 0.335854 0
M  V30 3875 H 362.354 2.888 2.59859 0
M  V30 3876 H 364.026 4.57305 0.605773 0
M  V30 3877 H 362.269 4.309 0.500784 0
M  V30 3878 H 362.94 5.19156 1.87567 0
M  V30 3879 H 365.416 3.35557 2.4605 0
M  V30 3880 H 364.292 4.14938 3.59329 0
M  V30 3881 H 364.553 2.41577 3.7026 0
M  V30 3882 N 363.613 -0.582584 1.46437 0
M  V30 3883 C 364.89 -1.34276 1.4223 0
M  V30 3884 C 365.27 -2.10835 0.10583 0
M  V30 3885 O 364.618 -2.09485 -0.912596 0
M  V30 3886 C 364.828 -2.26865 2.65204 0
M  V30 3887 C 366.176 -2.88691 3.11356 0
M  V30 3888 O 367.2 -2.37178 2.65753 0
M  V30 3889 O 366.059 -3.82255 3.90568 0
M  V30 3890 H 363.153 -0.603326 0.565621 0
M  V30 3891 H 365.699 -0.603591 1.58603 0
M  V30 3892 H 364.471 -1.69724 3.52576 0
M  V30 3893 H 364.094 -3.08122 2.5129 0
M  V30 3894 N 365.091 -1.34144 -0.827227 0
M  V30 3895 C 366.368 -1.16844 -1.56865 0
M  V30 3896 C 366.748 0.260654 -2.09485 0
M  V30 3897 O 366.096 1.26138 -1.9053 0
M  V30 3898 C 366.306 -2.21939 -2.6934 0
M  V30 3899 C 367.654 -2.56695 -3.3822 0
M  V30 3900 O 368.678 -2.20695 -2.79593 0
M  V30 3901 O 367.537 -3.18518 -4.44082 0
M  V30 3902 H 364.631 -0.452669 -0.692112 0
M  V30 3903 H 367.177 -1.45763 -0.868973 0
M  V30 3904 H 365.949 -3.17882 -2.28182 0
M  V30 3905 H 365.572 -1.94172 -3.46962 0
M  V30 3906 N 366.569 1.04691 -1.17803 0
M  V30 3907 C 367.818 1.77176 -0.963931 0
M  V30 3908 C 368.131 1.88888 0.508015 0
M  V30 3909 O 369.337 2.58164 0.840465 0
M  V30 3910 C 367.793 3.18518 -1.67555 0
M  V30 3911 C 367.401 3.14919 -3.18637 0
M  V30 3912 C 369.145 3.95424 -1.54402 0
M  V30 3913 C 367.052 4.51081 -3.82466 0
M  V30 3914 H 365.982 0.664116 -0.357023 0
M  V30 3915 H 368.633 1.17303 -1.4111 0
M  V30 3916 H 367.015 3.78748 -1.15613 0
M  V30 3917 H 368.189 2.64178 -3.77554 0
M  V30 3918 H 366.504 2.51512 -3.31859 0
M  V30 3919 H 369.101 4.96106 -1.99456 0
M  V30 3920 H 369.444 4.13343 -0.495329 0
M  V30 3921 H 369.977 3.41754 -2.0359 0
M  V30 3922 H 366.716 4.38368 -4.87354 0
M  V30 3923 H 366.236 5.01951 -3.28337 0
M  V30 3924 H 367.915 5.2001 -3.84965 0
M  V30 3925 N 368.047 0.979072 1.23499 0
M  V30 3926 C 369.324 0.563674 1.87302 0
M  V30 3927 C 369.704 -0.959199 1.88049 0
M  V30 3928 O 369.052 -1.83535 1.36114 0
M  V30 3929 C 369.262 1.16822 3.28867 0
M  V30 3930 C 370.61 1.26014 4.0547 0
M  V30 3931 O 371.634 1.12158 3.38082 0
M  V30 3932 O 370.493 1.48044 5.26066 0
M  V30 3933 H 367.587 0.189602 0.804972 0
M  V30 3934 H 370.133 1.07407 1.31384 0
M  V30 3935 H 368.905 2.21049 3.22883 0
M  V30 3936 H 368.528 0.642564 3.92373 0
M  V30 3937 N 369.525 -1.3858 0.750561 0
M  V30 3938 C 370.802 -1.94231 0.231009 0
M  V30 3939 C 371.182 -1.68611 -1.27018 0
M  V30 3940 O 370.53 -1.02296 -2.04323 0
M  V30 3941 C 370.74 -3.44123 0.581428 0
M  V30 3942 C 372.088 -4.2116 0.539389 0
M  V30 3943 O 373.112 -3.52391 0.519541 0
M  V30 3944 O 371.971 -5.43749 0.54765 0
M  V30 3945 H 369.065 -0.825639 0.0474263 0
M  V30 3946 H 371.611 -1.4799 0.830478 0
M  V30 3947 H 370.383 -3.56267 1.61833 0
M  V30 3948 H 370.006 -3.97573 -0.0462047 0
M  V30 3949 N 371.003 -0.499398 -1.49478 0
M  V30 3950 C 372.419 -0.155261 -1.58843 0
M  V30 3951 C 372.619 1.34008 -1.50479 0
M  V30 3952 O 371.675 2.11589 -1.37791 0
M  V30 3953 C 372.988 -0.730636 -2.91689 0
M  V30 3954 C 374.536 -0.696599 -3.0515 0
M  V30 3955 C 375.011 -1.25001 -4.40612 0
M  V30 3956 N 376.502 -1.21064 -4.47099 0
M  V30 3957 C 377.237 -1.60905 -5.50361 0
M  V30 3958 N 376.733 -2.08331 -6.60735 0
M  V30 3959 N 378.526 -1.52331 -5.41065 0
M  V30 3960 H 370.677 -1.47162 -1.53158 0
M  V30 3961 H 372.94 -0.610309 -0.725415 0
M  V30 3962 H 372.646 -1.77928 -3.03372 0
M  V30 3963 H 372.52 -0.190161 -3.7672 0
M  V30 3964 H 374.907 0.343204 -2.93097 0
M  V30 3965 H 374.988 -1.2742 -2.21806 0
M  V30 3966 H 374.632 -2.28859 -4.53416 0
M  V30 3967 H 374.562 -0.64836 -5.22593 0
M  V30 3968 H 377.053 -0.863128 -3.67911 0
M  V30 3969 H 377.366 -2.36805 -7.35624 0
M  V30 3970 H 375.711 -2.12304 -6.6178 0
M  V30 3971 H 378.902 -1.151 -4.53729 0
M  V30 3972 H 379.075 -1.83704 -6.21415 0
M  V30 3973 N 372.481 1.55866 -0.233164 0
M  V30 3974 C 373.897 1.59133 0.121988 0
M  V30 3975 C 374.097 1.25016 1.58029 0
M  V30 3976 O 373.153 0.990922 2.32243 0
M  V30 3977 C 374.466 2.99932 -0.214792 0
M  V30 3978 C 376.014 3.12601 -0.157971 0
M  V30 3979 C 376.489 4.55597 -0.46859 0
M  V30 3980 N 377.98 4.61305 -0.418585 0
M  V30 3981 C 378.715 5.69903 -0.63227 0
M  V30 3982 N 378.211 6.86819 -0.90835 0
M  V30 3983 N 380.004 5.59264 -0.563913 0
M  V30 3984 H 372.155 1.76315 -1.18434 0
M  V30 3985 H 374.418 0.820093 -0.475553 0
M  V30 3986 H 374.124 3.29588 -1.22739 0
M  V30 3987 H 373.998 3.74327 0.464691 0
M  V30 3988 H 376.385 2.82735 0.845283 0
M  V30 3989 H 376.466 2.40511 -0.871102 0
M  V30 3990 H 376.11 4.86182 -1.46934 0
M  V30 3991 H 376.04 5.25928 0.265865 0
M  V30 3992 H 378.531 3.77297 -0.213368 0
M  V30 3993 H 378.844 7.65507 -1.05919 0
M  V30 3994 H 377.189 6.88536 -0.945673 0
M  V30 3995 H 380.38 4.66802 -0.348372 0
M  V30 3996 H 380.553 6.43831 -0.733847 0
M  V30 3997 N 373.959 -0.0401083 1.57549 0
M  V30 3998 C 374.869 -1.06133 2.0922 0
M  V30 3999 C 375.885 -1.40356 1.0284 0
M  V30 4000 O 377.061 -1.49897 1.34509 0
M  V30 4001 C 374.126 -2.34658 2.55218 0
M  V30 4002 C 373.187 -2.07117 3.76033 0
M  V30 4003 C 372.42 -3.29514 4.19829 0
M  V30 4004 O 372.643 -4.39794 3.63232 0
M  V30 4005 O 371.577 -3.15863 5.12362 0
M  V30 4006 H 375.403 -0.652244 2.96613 0
M  V30 4007 H 372.988 -0.256368 1.47184 0
M  V30 4008 H 374.87 -3.10239 2.85184 0
M  V30 4009 H 373.545 -2.74883 1.70941 0
M  V30 4010 H 372.452 -1.29139 3.51104 0
M  V30 4011 H 373.785 -1.71754 4.61261 0
M  V30 4012 N 375.437 -1.54477 -0.31217 0
M  V30 4013 C 376.684 -1.73227 -1.04875 0
M  V30 4014 C 377.012 -0.512042 -1.87639 0
M  V30 4015 O 376.267 0.506131 -1.89042 0
M  V30 4016 C 376.566 -2.967 -1.99258 0
M  V30 4017 C 376.232 -4.30974 -1.32559 0
M  V30 4018 C 374.894 -4.67477 -1.141 0
M  V30 4019 C 377.246 -5.14258 -0.847835 0
M  V30 4020 C 374.574 -5.84852 -0.465326 0
M  V30 4021 C 376.926 -6.32327 -0.185931 0
M  V30 4022 C 375.59 -6.67499 0.0107077 0
M  V30 4023 H 374.86 -0.633881 -0.383765 0
M  V30 4024 H 377.507 -1.88727 -0.324731 0
M  V30 4025 H 375.812 -2.75935 -2.7815 0
M  V30 4026 H 377.509 -3.08401 -2.563 0
M  V30 4027 H 374.099 -4.02262 -1.4793 0
M  V30 4028 H 378.283 -4.86565 -0.978192 0
M  V30 4029 H 373.539 -6.10654 -0.301883 0
M  V30 4030 H 377.713 -6.96135 0.192211 0
M  V30 4031 H 375.34 -7.58306 0.536287 0
M  V30 4032 N 376.915 0.57481 -1.46744 0
M  V30 4033 C 377.847 1.69804 -1.53946 0
M  V30 4034 C 378.86 1.57098 -0.427106 0
M  V30 4035 O 380.049 1.64378 -0.695863 0
M  V30 4036 C 377.149 3.08125 -1.4111 0
M  V30 4037 C 376.322 3.46757 -2.66605 0
M  V30 4038 C 375.381 4.6417 -2.47855 0
M  V30 4039 O 374.407 4.69634 -3.21609 0
M  V30 4040 N 375.609 5.59553 -1.54534 0
M  V30 4041 H 378.374 1.64077 -2.50796 0
M  V30 4042 H 375.935 0.761 -1.429 0
M  V30 4043 H 377.927 3.84478 -1.26328 0
M  V30 4044 H 376.497 3.08175 -0.524109 0
M  V30 4045 H 375.717 2.6003 -2.96274 0
M  V30 4046 H 377.005 3.69337 -3.49954 0
M  V30 4047 H 376.403 5.57881 -0.937304 0
M  V30 4048 H 374.96 6.35304 -1.45711 0
M  V30 4049 N 378.394 1.34581 0.820102 0
M  V30 4050 C 379.304 1.28471 1.96297 0
M  V30 4051 C 380.32 0.191902 1.72939 0
M  V30 4052 O 381.496 0.418879 1.96996 0
M  V30 4053 C 378.561 1.04281 3.30645 0
M  V30 4054 C 377.622 2.22745 3.66992 0
M  V30 4055 C 376.855 1.997 4.9493 0
M  V30 4056 O 377.078 0.956656 5.6232 0
M  V30 4057 O 376.012 2.86723 5.2922 0
M  V30 4058 H 379.838 2.24624 2.04396 0
M  V30 4059 H 377.423 1.14816 0.955913 0
M  V30 4060 H 379.305 0.925841 4.11104 0
M  V30 4061 H 377.98 0.111697 3.23507 0
M  V30 4062 H 376.887 2.40003 2.86966 0
M  V30 4063 H 378.22 3.14257 3.78819 0
M  V30 4064 N 379.872 -1.04064 1.18357 0
M  V30 4065 C 381.1 -1.80916 1.00384 0
M  V30 4066 C 381.515 -1.83414 -0.447738 0
M  V30 4067 O 380.872 -1.26962 -1.31099 0
M  V30 4068 C 380.923 -3.26516 1.55144 0
M  V30 4069 O 380.644 -3.2424 2.94618 0
M  V30 4070 C 382.145 -4.20013 1.41789 0
M  V30 4071 H 379.365 -0.569728 0.354474 0
M  V30 4072 H 381.909 -1.31151 1.56906 0
M  V30 4073 H 380.064 -3.73512 1.02798 0
M  V30 4074 H 380.478 -4.15452 3.20156 0
M  V30 4075 H 381.952 -5.20111 1.84901 0
M  V30 4076 H 382.429 -4.37667 0.36661 0
M  V30 4077 H 383.035 -3.78881 1.93207 0
M  V30 4078 N 381.35 -0.985608 -1.22978 0
M  V30 4079 C 382.28 -0.549649 -2.26939 0
M  V30 4080 C 383.261 0.419803 -1.64838 0
M  V30 4081 O 384.446 0.31203 -1.91677 0
M  V30 4082 C 381.576 0.143652 -3.47003 0
M  V30 4083 C 380.53 -0.743606 -4.21491 0
M  V30 4084 C 379.856 0.0822027 -5.34637 0
M  V30 4085 C 381.156 -2.03694 -4.80943 0
M  V30 4086 H 382.85 -1.41862 -2.63658 0
M  V30 4087 H 380.396 -0.683571 -1.26741 0
M  V30 4088 H 382.349 0.459985 -4.18882 0
M  V30 4089 H 381.073 1.04711 -3.09359 0
M  V30 4090 H 379.732 -1.04347 -3.51436 0
M  V30 4091 H 379.38 0.986359 -4.93234 0
M  V30 4092 H 379.08 -0.508377 -5.85397 0
M  V30 4093 H 380.604 0.392797 -6.09335 0
M  V30 4094 H 382.018 -1.78504 -5.44802 0
M  V30 4095 H 380.415 -2.57573 -5.42011 0
M  V30 4096 H 381.485 -2.72042 -4.01399 0
M  V30 4097 N 382.828 1.3818 -0.7579 0
M  V30 4098 C 383.778 2.27741 -0.108674 0
M  V30 4099 C 384.762 1.45415 0.688709 0
M  V30 4100 O 385.954 1.68108 0.553956 0
M  V30 4101 C 383.083 3.34313 0.780367 0
M  V30 4102 C 382.169 4.24093 -0.0240977 0
M  V30 4103 N 382.56 4.9451 -1.06271 0
M  V30 4104 C 380.858 4.45542 0.202049 0
M  V30 4105 C 381.559 5.60675 -1.54979 0
M  V30 4106 N 380.535 5.36684 -0.864348 0
M  V30 4107 H 384.337 2.79649 -0.904071 0
M  V30 4108 H 381.851 1.51133 -0.594346 0
M  V30 4109 H 383.848 3.97368 1.26114 0
M  V30 4110 H 382.508 2.83962 1.57467 0
M  V30 4111 H 383.519 4.97345 -1.44459 0
M  V30 4112 H 380.196 4.06091 0.96935 0
M  V30 4113 H 381.586 6.26992 -2.41517 0
M  V30 4114 N 384.306 0.507319 1.49211 0
M  V30 4115 C 385.269 -0.256763 2.27757 0
M  V30 4116 C 386.269 -0.888287 1.34038 0
M  V30 4117 O 387.459 -0.751841 1.5714 0
M  V30 4118 C 384.591 -1.36905 3.12202 0
M  V30 4119 H 385.784 0.432557 2.96764 0
M  V30 4120 H 383.337 0.262488 1.5408 0
M  V30 4121 H 384.072 -2.09233 2.47775 0
M  V30 4122 H 383.857 -0.921599 3.81115 0
M  V30 4123 H 385.347 -1.9071 3.7151 0
M  V30 4124 N 385.784 -1.5574 0.241426 0
M  V30 4125 C 386.717 -2.17168 -0.700935 0
M  V30 4126 C 387.695 -1.12206 -1.1768 0
M  V30 4127 O 388.879 -1.40565 -1.25593 0
M  V30 4128 C 386.006 -2.76796 -1.95196 0
M  V30 4129 C 385.052 -3.94764 -1.61442 0
M  V30 4130 S 385.885 -5.30613 -0.72182 0
M  V30 4131 C 387.041 -5.93691 -1.98197 0
M  V30 4132 H 387.274 -2.96761 -0.178882 0
M  V30 4133 H 384.807 -1.54378 0.0259299 0
M  V30 4134 H 386.765 -3.11787 -2.67019 0
M  V30 4135 H 385.426 -1.9716 -2.44514 0
M  V30 4136 H 384.619 -4.35057 -2.54443 0
M  V30 4137 H 384.221 -3.61022 -0.976672 0
M  V30 4138 H 386.513 -6.10874 -2.92983 0
M  V30 4139 H 387.456 -6.89258 -1.62262 0
M  V30 4140 H 387.864 -5.22709 -2.13156 0
M  V30 4141 N 387.262 0.0317525 -1.57568 0
M  V30 4142 C 388.21 1.05165 -2.07468 0
M  V30 4143 C 389.204 1.3761 -0.98792 0
M  V30 4144 O 390.41 1.36546 -1.17282 0
M  V30 4145 H 386.785 0.35666 -0.66204 0
M  V30 4146 H 388.756 0.604958 -2.92203 0
M  V30 4147 C 387.505 2.34488 -2.56731 0
M  V30 4148 H 386.828 2.10383 -3.39969 0
M  V30 4149 H 388.268 3.04203 -2.95358 0
M  V30 4150 C 386.727 3.03266 -1.46736 0
M  V30 4151 O 387.257 3.92988 -0.832069 0
M  V30 4152 N 385.463 2.6455 -1.20256 0
M  V30 4153 H 385.01 1.91674 -1.72102 0
M  V30 4154 H 384.968 3.10886 -0.468737 0
M  V30 4155 N 388.74 1.54641 0.303973 0
M  V30 4156 C 389.986 1.74038 1.04109 0
M  V30 4157 C 390.319 0.523051 1.87024 0
M  V30 4158 O 389.594 -0.479874 1.88487 0
M  V30 4159 C 389.877 3.02761 1.94955 0
M  V30 4160 C 389.73 4.34787 1.1524 0
M  V30 4161 C 391.049 3.27336 2.94175 0
M  V30 4162 H 388.168 0.63323 0.377079 0
M  V30 4163 H 390.81 1.87354 0.316001 0
M  V30 4164 H 388.96 2.9154 2.56782 0
M  V30 4165 H 390.632 4.57922 0.557236 0
M  V30 4166 H 388.875 4.31407 0.455053 0
M  V30 4167 H 389.546 5.21116 1.8205 0
M  V30 4168 H 392.022 3.38148 2.42477 0
M  V30 4169 H 390.898 4.18726 3.54908 0
M  V30 4170 H 391.159 2.45491 3.67677 0
M  V30 4171 N 390.218 -0.567019 1.47046 0
M  V30 4172 C 391.467 -1.32091 1.5243 0
M  V30 4173 C 391.78 -1.94704 0.187021 0
M  V30 4174 O 392.986 -2.7124 0.118771 0
M  V30 4175 C 391.442 -2.39479 2.68659 0
M  V30 4176 C 391.05 -1.831 4.08874 0
M  V30 4177 C 392.794 -3.16111 2.83327 0
M  V30 4178 C 390.701 -2.8821 5.16419 0
M  V30 4179 H 389.631 -0.496629 0.56734 0
M  V30 4180 H 392.282 -0.603354 1.73297 0
M  V30 4181 H 390.664 -3.14105 2.41152 0
M  V30 4182 H 391.838 -1.14913 4.46242 0
M  V30 4183 H 390.153 -1.19085 3.99008 0
M  V30 4184 H 392.75 -3.94585 3.60842 0
M  V30 4185 H 393.093 -3.69686 1.91411 0
M  V30 4186 H 393.626 -2.48595 3.10556 0
M  V30 4187 H 390.365 -2.39504 6.10179 0
M  V30 4188 H 389.885 -3.54839 4.8358 0
M  V30 4189 H 391.564 -3.51881 5.42945 0
M  V30 4190 N 391.696 -1.35014 -0.812953 0
M  V30 4191 C 392.944 -1.27678 -1.56661 0
M  V30 4192 C 393.265 0.150359 -1.94419 0
M  V30 4193 O 392.535 1.08532 -1.63088 0
M  V30 4194 H 391.115 -0.469602 -0.580933 0
M  V30 4195 H 393.777 -1.69043 -0.970076 0
M  V30 4196 H 392.873 -1.88833 -2.48492 0
M  V30 4197 N 393.175 1.03435 -1.18907 0
M  V30 4198 C 394.424 1.76143 -0.982669 0
M  V30 4199 C 394.737 1.89416 0.487953 0
M  V30 4200 O 395.943 2.59041 0.813036 0
M  V30 4201 C 394.399 3.16722 -1.70924 0
M  V30 4202 C 394.007 3.11522 -3.21959 0
M  V30 4203 C 395.751 3.93764 -1.58588 0
M  V30 4204 C 393.658 4.46999 -3.87228 0
M  V30 4205 H 392.588 0.660292 -0.364047 0
M  V30 4206 H 395.239 1.158 -1.42347 0
M  V30 4207 H 393.621 3.775 -1.19623 0
M  V30 4208 H 394.795 2.60158 -3.80335 0
M  V30 4209 H 393.11 2.47978 -3.34508 0
M  V30 4210 H 395.707 4.93963 -2.04707 0
M  V30 4211 H 396.05 4.12794 -0.539142 0
M  V30 4212 H 396.583 3.39576 -2.07203 0
M  V30 4213 H 393.322 4.33174 -4.91976 0
M  V30 4214 H 392.842 4.98441 -3.33642 0
M  V30 4215 H 394.521 5.15898 -3.90459 0
M  V30 4216 N 394.653 0.992116 1.22453 0
M  V30 4217 C 395.9 0.667534 1.91181 0
M  V30 4218 C 396.228 -0.800317 1.77271 0
M  V30 4219 O 395.483 -1.59421 1.13505 0
M  V30 4220 C 395.782 1.01832 3.42586 0
M  V30 4221 C 395.448 2.47831 3.76684 0
M  V30 4222 C 394.11 2.87729 3.85701 0
M  V30 4223 C 396.462 3.42466 3.92895 0
M  V30 4224 C 393.79 4.21252 4.08367 0
M  V30 4225 C 396.142 4.75648 4.17064 0
M  V30 4226 C 394.806 5.15288 4.24305 0
M  V30 4227 H 394.076 0.244268 0.699581 0
M  V30 4228 H 396.723 1.24816 1.45235 0
M  V30 4229 H 395.028 0.355769 3.90181 0
M  V30 4230 H 396.725 0.745228 3.94014 0
M  V30 4231 H 393.315 2.15905 3.70247 0
M  V30 4232 H 397.499 3.12814 3.85307 0
M  V30 4233 H 392.755 4.51554 4.122 0
M  V30 4234 H 396.929 5.48924 4.2855 0
M  V30 4235 H 394.556 6.18769 4.41621 0
M  V30 4236 N 396.131 -1.37776 0.765217 0
M  V30 4237 C 397.094 -2.28686 0.153416 0
M  V30 4238 C 398.094 -1.47727 -0.635081 0
M  V30 4239 O 399.284 -1.68027 -0.459632 0
M  V30 4240 C 396.416 -3.31608 -0.790495 0
M  V30 4241 H 397.609 -2.84297 0.954723 0
M  V30 4242 H 395.162 -1.46932 0.53299 0
M  V30 4243 H 395.897 -2.81109 -1.61705 0
M  V30 4244 H 395.682 -3.9144 -0.227348 0
M  V30 4245 H 397.172 -3.99559 -1.21419 0
M  V30 4246 N 397.609 -0.515225 -1.4894 0
M  V30 4247 C 398.519 0.259774 -2.33157 0
M  V30 4248 C 399.535 0.953501 -1.45548 0
M  V30 4249 O 400.711 0.931735 -1.78552 0
M  V30 4250 C 397.776 1.30193 -3.21326 0
M  V30 4251 C 396.837 0.620129 -4.24797 0
M  V30 4252 C 396.07 1.61263 -5.08753 0
M  V30 4253 O 396.293 2.84389 -4.94448 0
M  V30 4254 O 395.227 1.16013 -5.90614 0
M  V30 4255 H 399.053 -0.429932 -3.00641 0
M  V30 4256 H 396.638 -0.276346 -1.46822 0
M  V30 4257 H 398.52 1.90455 -3.75905 0
M  V30 4258 H 397.195 1.97431 -2.56521 0
M  V30 4259 H 396.102 -0.0226019 -3.74093 0
M  V30 4260 H 397.435 -0.0100493 -4.92199 0
M  V30 4261 N 399.087 1.5561 -0.249682 0
M  V30 4262 C 399.997 2.25143 0.659375 0
M  V30 4263 C 401.013 1.2685 1.19101 0
M  V30 4264 O 402.189 1.59732 1.22669 0
M  V30 4265 C 399.254 2.93945 1.8384 0
M  V30 4266 C 398.315 4.07655 1.34596 0
M  V30 4267 C 397.548 4.73167 2.46878 0
M  V30 4268 O 397.771 4.37768 3.65671 0
M  V30 4269 O 396.705 5.61623 2.16478 0
M  V30 4270 H 400.531 3.03545 0.0968698 0
M  V30 4271 H 398.116 1.49389 -0.018074 0
M  V30 4272 H 399.998 3.37271 2.52638 0
M  V30 4273 H 398.673 2.18481 2.38847 0
M  V30 4274 H 397.58 3.68839 0.625174 0
M  V30 4275 H 398.913 4.84946 0.841941 0
M  V30 4276 N 400.565 -0.0233959 1.57583 0
M  V30 4277 C 401.497 -1.04994 2.03737 0
M  V30 4278 C 402.51 -1.32125 0.951152 0
M  V30 4279 O 403.699 -1.29512 1.22837 0
M  V30 4280 C 400.799 -2.39026 2.40249 0
M  V30 4281 C 399.972 -2.31171 3.7132 0
M  V30 4282 C 399.031 -3.47698 3.94959 0
M  V30 4283 O 398.057 -3.26937 4.65941 0
M  V30 4284 N 399.259 -4.6976 3.41037 0
M  V30 4285 H 402.024 -0.656507 2.92421 0
M  V30 4286 H 399.585 -0.211235 1.60516 0
M  V30 4287 H 401.577 -3.15712 2.53196 0
M  V30 4288 H 400.147 -2.70194 1.57207 0
M  V30 4289 H 399.367 -1.39547 3.68674 0
M  V30 4290 H 400.655 -2.23071 4.57293 0
M  V30 4291 H 400.053 -4.89528 2.83512 0
M  V30 4292 H 398.61 -5.43791 3.59353 0
M  V30 4293 N 402.043 -1.548 -0.295768 0
M  V30 4294 C 403.271 -1.78327 -1.04914 0
M  V30 4295 C 403.686 -0.545316 -1.80753 0
M  V30 4296 O 403.043 0.485013 -1.75937 0
M  V30 4297 C 403.094 -2.99418 -2.02561 0
M  V30 4298 O 402.815 -4.18431 -1.29798 0
M  V30 4299 C 404.316 -3.35375 -2.89895 0
M  V30 4300 H 401.536 -0.594618 -0.310918 0
M  V30 4301 H 404.08 -2.01763 -0.333454 0
M  V30 4302 H 402.235 -2.78175 -2.69624 0
M  V30 4303 H 402.649 -4.86736 -1.95419 0
M  V30 4304 H 404.123 -4.23332 -3.54251 0
M  V30 4305 H 404.6 -2.53761 -3.58472 0
M  V30 4306 H 405.206 -3.58796 -2.28355 0
M  V30 4307 N 403.521 0.559213 -1.47345 0
M  V30 4308 C 404.451 1.67622 -1.62558 0
M  V30 4309 C 405.432 1.63331 -0.475087 0
M  V30 4310 O 406.617 1.80983 -0.704182 0
M  V30 4311 C 403.747 3.0626 -1.63774 0
M  V30 4312 C 402.701 3.25397 -2.7803 0
M  V30 4313 C 402.027 4.64801 -2.64318 0
M  V30 4314 C 403.327 3.10965 -4.19641 0
M  V30 4315 H 405.021 1.55146 -2.56067 0
M  V30 4316 H 402.567 0.744961 -1.23233 0
M  V30 4317 H 404.52 3.84247 -1.73008 0
M  V30 4318 H 403.244 3.1969 -0.66825 0
M  V30 4319 H 401.903 2.49817 -2.68304 0
M  V30 4320 H 401.551 4.75028 -1.65401 0
M  V30 4321 H 401.251 4.78555 -3.40968 0
M  V30 4322 H 402.775 5.44926 -2.75478 0
M  V30 4323 H 404.189 3.78772 -4.30354 0
M  V30 4324 H 402.586 3.36229 -4.97062 0
M  V30 4325 H 403.656 2.07736 -4.38148 0
M  V30 4326 N 404.999 1.35443 0.805782 0
M  V30 4327 C 406.245 1.28952 1.56522 0
M  V30 4328 C 406.578 -0.135597 1.93726 0
M  V30 4329 O 405.853 -1.08516 1.61414 0
M  V30 4330 C 406.136 2.19678 2.85331 0
M  V30 4331 C 405.989 3.7081 2.54598 0
M  V30 4332 C 407.308 2.09495 3.8704 0
M  V30 4333 H 404.427 0.469764 0.567883 0
M  V30 4334 H 407.069 1.65851 0.927001 0
M  V30 4335 H 405.219 1.8834 3.39795 0
M  V30 4336 H 406.891 4.12593 2.06312 0
M  V30 4337 H 405.134 3.91051 1.8778 0
M  V30 4338 H 405.805 4.29679 3.46525 0
M  V30 4339 H 408.281 2.37045 3.41978 0
M  V30 4340 H 407.157 2.75173 4.74943 0
M  V30 4341 H 407.418 1.07714 4.28777 0
M  V30 4342 N 406.477 -1.02803 1.19454 0
M  V30 4343 C 407.407 -2.12999 0.956758 0
M  V30 4344 C 408.388 -1.69743 -0.110188 0
M  V30 4345 O 409.573 -1.94148 0.0450038 0
M  V30 4346 C 406.703 -3.43746 0.495553 0
M  V30 4347 C 405.657 -4.00688 1.50443 0
M  V30 4348 C 404.983 -5.27067 0.900275 0
M  V30 4349 C 406.283 -4.35397 2.8849 0
M  V30 4350 H 407.977 -2.33148 1.87836 0
M  V30 4351 H 405.523 -1.12045 0.904539 0
M  V30 4352 H 407.476 -4.2021 0.316493 0
M  V30 4353 H 406.2 -3.23321 -0.461646 0
M  V30 4354 H 404.859 -3.2632 1.67065 0
M  V30 4355 H 404.507 -5.02959 -0.064503 0
M  V30 4356 H 404.207 -5.66127 1.57397 0
M  V30 4357 H 405.731 -6.06196 0.73203 0
M  V30 4358 H 407.145 -5.02795 2.75446 0
M  V30 4359 H 405.542 -4.85541 3.52661 0
M  V30 4360 H 406.612 -3.44662 3.41081 0
M  V30 4361 N 407.956 -0.998596 -1.21925 0
M  V30 4362 C 408.888 -0.511879 -2.23411 0
M  V30 4363 C 409.901 0.396094 -1.57908 0
M  V30 4364 O 411.09 0.197316 -1.77406 0
M  V30 4365 C 408.19 0.276802 -3.37768 0
M  V30 4366 C 407.363 -0.628687 -4.32858 0
M  V30 4367 C 406.422 0.109272 -5.26087 0
M  V30 4368 O 405.448 -0.507237 -5.66935 0
M  V30 4369 N 406.65 1.38983 -5.63617 0
M  V30 4370 H 409.415 -1.38457 -2.658 0
M  V30 4371 H 406.976 -0.873981 -1.36283 0
M  V30 4372 H 408.968 0.77928 -3.97126 0
M  V30 4373 H 407.538 1.05063 -2.94415 0
M  V30 4374 H 406.758 -1.31175 -3.71735 0
M  V30 4375 H 408.046 -1.24514 -4.93329 0
M  V30 4376 H 407.444 1.91194 -5.32411 0
M  V30 4377 H 406.001 1.83739 -6.25367 0
M  V30 4378 N 409.434 1.37368 -0.772513 0
M  V30 4379 C 410.683 1.98918 -0.333861 0
M  V30 4380 C 410.996 1.62017 1.09589 0
M  V30 4381 O 412.202 2.16676 1.63596 0
M  V30 4382 C 410.658 3.55735 -0.545971 0
M  V30 4383 C 410.266 4.01573 -1.98603 0
M  V30 4384 C 412.01 4.24156 -0.170979 0
M  V30 4385 C 409.917 5.51102 -2.1457 0
M  V30 4386 H 408.847 0.744214 -0.121085 0
M  V30 4387 H 411.498 1.56888 -0.95175 0
M  V30 4388 H 409.88 3.95748 0.141387 0
M  V30 4389 H 411.054 3.72803 -2.7084 0
M  V30 4390 H 409.369 3.45937 -2.31769 0
M  V30 4391 H 411.966 5.34024 -0.26878 0
M  V30 4392 H 412.309 4.06917 0.878855 0
M  V30 4393 H 412.842 3.89447 -0.810914 0
M  V30 4394 H 409.581 5.73268 -3.17875 0
M  V30 4395 H 409.101 5.81554 -1.46817 0
M  V30 4396 H 410.78 6.17083 -1.94468 0
M  V30 4397 N 410.912 0.523116 1.48665 0
M  V30 4398 C 412.158 -0.0134963 2.02796 0
M  V30 4399 C 412.491 -1.34582 1.40004 0
M  V30 4400 O 411.766 -1.86756 0.543381 0
M  V30 4401 C 412.049 -0.14276 3.59817 0
M  V30 4402 C 411.902 1.21425 4.331 0
M  V30 4403 C 413.221 -0.872856 4.31357 0
M  V30 4404 H 410.34 -0.00343074 0.736992 0
M  V30 4405 H 412.982 0.678816 1.7746 0
M  V30 4406 H 411.132 -0.732401 3.81534 0
M  V30 4407 H 412.804 1.84447 4.2282 0
M  V30 4408 H 411.047 1.79791 3.94788 0
M  V30 4409 H 411.718 1.07687 5.41394 0
M  V30 4410 H 414.194 -0.372555 4.14429 0
M  V30 4411 H 413.07 -0.932185 5.40927 0
M  V30 4412 H 413.331 -1.92161 3.98154 0
M  V30 4413 N 412.39 -1.55475 0.257931 0
M  V30 4414 C 413.353 -2.20551 -0.623706 0
M  V30 4415 C 414.353 -1.17809 -1.09443 0
M  V30 4416 O 415.543 -1.42823 -0.997362 0
M  V30 4417 C 412.675 -2.85784 -1.8585 0
M  V30 4418 H 413.868 -2.99848 -0.0557743 0
M  V30 4419 H 411.421 -1.56298 0.0084422 0
M  V30 4420 H 412.156 -2.10453 -2.46739 0
M  V30 4421 H 411.941 -3.61057 -1.52907 0
M  V30 4422 H 413.431 -3.35553 -2.48584 0
M  V30 4423 N 413.868 0.0150385 -1.57593 0
M  V30 4424 C 415.116 0.701613 -1.8953 0
M  V30 4425 C 415.437 1.75139 -0.857396 0
M  V30 4426 O 414.707 1.95607 0.107194 0
M  V30 4427 H 413.287 0.26213 -0.699498 0
M  V30 4428 H 415.949 -0.0223304 -1.94887 0
M  V30 4429 H 415.045 1.18236 -2.88837 0
M  V30 4430 N 415.346 1.54954 0.287554 0
M  V30 4431 C 416.595 1.74081 1.01877 0
M  V30 4432 C 416.908 0.541135 1.87966 0
M  V30 4433 O 418.114 0.614491 2.64455 0
M  V30 4434 C 416.57 3.08042 1.86113 0
M  V30 4435 C 416.178 4.35531 1.04961 0
M  V30 4436 C 417.922 3.36523 2.58752 0
M  V30 4437 C 415.829 5.60538 1.88551 0
M  V30 4438 H 414.759 0.64884 0.384087 0
M  V30 4439 H 417.41 1.81426 0.275101 0
M  V30 4440 H 415.792 2.94696 2.64519 0
M  V30 4441 H 416.966 4.59751 0.31074 0
M  V30 4442 H 415.281 4.14085 0.43843 0
M  V30 4443 H 417.878 4.27122 3.21668 0
M  V30 4444 H 418.221 2.56 3.28283 0
M  V30 4445 H 418.754 3.50901 1.87386 0
M  V30 4446 H 415.493 6.43767 1.23466 0
M  V30 4447 H 415.013 5.40483 2.60074 0
M  V30 4448 H 416.692 5.98297 2.46273 0
M  V30 4449 N 416.824 -0.551391 1.4764 0
M  V30 4450 C 417.754 -1.66757 1.63445 0
M  V30 4451 C 418.735 -1.63077 0.483742 0
M  V30 4452 O 419.92 -1.80607 0.71377 0
M  V30 4453 C 417.05 -3.05387 1.65396 0
M  V30 4454 C 416.004 -3.23918 2.79752 0
M  V30 4455 C 415.33 -4.63393 2.66779 0
M  V30 4456 C 416.63 -3.08735 4.21284 0
M  V30 4457 H 418.324 -1.53786 2.56886 0
M  V30 4458 H 415.87 -0.738415 1.23626 0
M  V30 4459 H 417.823 -3.83325 1.75043 0
M  V30 4460 H 416.547 -3.19332 0.685195 0
M  V30 4461 H 415.206 -2.48391 2.69625 0
M  V30 4462 H 414.854 -4.74144 1.67918 0
M  V30 4463 H 414.554 -4.7674 3.43501 0
M  V30 4464 H 416.078 -5.43458 2.78364 0
M  V30 4465 H 417.492 -3.76484 4.32357 0
M  V30 4466 H 415.889 -3.33588 4.98838 0
M  V30 4467 H 416.959 -2.0541 4.39243 0
M  V30 4468 N 418.302 -1.35869 -0.798587 0
M  V30 4469 C 419.252 -1.25982 -1.90033 0
M  V30 4470 C 420.236 -0.153303 -1.60168 0
M  V30 4471 O 421.428 -0.38527 -1.72756 0
M  V30 4472 C 418.557 -1.04211 -3.27101 0
M  V30 4473 C 417.643 -2.19289 -3.63006 0
M  V30 4474 N 418.034 -3.44559 -3.70287 0
M  V30 4475 C 416.332 -2.10852 -3.93011 0
M  V30 4476 C 417.033 -4.20283 -4.02166 0
M  V30 4477 N 416.009 -3.49124 -4.16669 0
M  V30 4478 H 419.811 -2.20883 -1.93876 0
M  V30 4479 H 417.325 -1.28457 -0.993614 0
M  V30 4480 H 419.322 -0.952155 -4.05881 0
M  V30 4481 H 417.982 -0.102013 -3.2454 0
M  V30 4482 H 418.993 -3.7881 -3.53162 0
M  V30 4483 H 415.67 -1.24744 -3.98428 0
M  V30 4484 H 417.06 -5.28575 -4.14799 0
M  V30 4485 N 419.78 1.02168 -1.19998 0
M  V30 4486 C 420.71 2.12488 -0.96804 0
M  V30 4487 C 421.691 1.69799 0.101185 0
M  V30 4488 O 422.876 1.94121 -0.0552993 0
M  V30 4489 C 420.006 3.43479 -0.513776 0
M  V30 4490 C 418.96 3.99884 -1.52566 0
M  V30 4491 C 418.286 5.26582 -0.928214 0
M  V30 4492 C 419.586 4.33861 -2.90795 0
M  V30 4493 H 421.28 2.32149 -1.89069 0
M  V30 4494 H 418.826 1.11564 -0.910468 0
M  V30 4495 H 420.779 4.20036 -0.338774 0
M  V30 4496 H 419.503 3.23561 0.444493 0
M  V30 4497 H 418.162 3.25429 -1.68794 0
M  V30 4498 H 417.81 5.02986 0.0378289 0
M  V30 4499 H 417.51 5.65284 -1.60397 0
M  V30 4500 H 419.034 6.05799 -0.764167 0
M  V30 4501 H 420.448 5.01327 -2.78109 0
M  V30 4502 H 418.845 4.83664 -3.55231 0
M  V30 4503 H 419.915 3.42848 -3.42904 0
M  V30 4504 N 421.258 1.00505 1.21394 0
M  V30 4505 C 422.506 0.686415 1.90086 0
M  V30 4506 C 422.827 -0.785264 1.7849 0
M  V30 4507 O 422.097 -1.56387 1.17983 0
M  V30 4508 H 420.677 0.2509 0.703604 0
M  V30 4509 H 423.339 1.27417 1.47482 0
M  V30 4510 H 422.435 0.959621 2.96981 0
M  V30 4511 N 422.737 -1.36956 0.779787 0
M  V30 4512 C 423.685 -2.32053 0.15942 0
M  V30 4513 C 424.679 -1.55333 -0.675878 0
M  V30 4514 O 425.885 -1.70668 -0.57204 0
M  V30 4515 H 422.26 -0.751286 0.0327707 0
M  V30 4516 H 424.231 -2.8195 0.977078 0
M  V30 4517 C 422.98 -3.40602 -0.698977 0
M  V30 4518 H 422.303 -3.99746 -0.0655966 0
M  V30 4519 H 423.743 -4.09486 -1.09989 0
M  V30 4520 C 422.202 -2.81359 -1.85307 0
M  V30 4521 O 422.732 -2.72751 -2.94906 0
M  V30 4522 N 420.938 -2.38786 -1.65619 0
M  V30 4523 H 420.485 -2.45987 -0.764725 0
M  V30 4524 H 420.443 -1.99493 -2.43002 0
M  V30 4525 N 424.215 -0.530993 -1.48385 0
M  V30 4526 C 425.464 0.00474348 -2.01699 0
M  V30 4527 C 425.777 1.35227 -1.41325 0
M  V30 4528 O 426.983 1.97643 -1.86144 0
M  V30 4529 C 425.439 0.0588473 -3.59852 0
M  V30 4530 C 425.047 -1.28385 -4.2921 0
M  V30 4531 C 426.791 0.543358 -4.21008 0
M  V30 4532 C 424.698 -1.19028 -5.79298 0
M  V30 4533 H 423.628 0.00554317 -0.75398 0
M  V30 4534 H 426.279 -0.674924 -1.70637 0
M  V30 4535 H 424.661 0.803612 -3.8776 0
M  V30 4536 H 425.835 -2.04426 -4.12973 0
M  V30 4537 H 424.15 -1.70418 -3.7993 0
M  V30 4538 H 426.747 0.631351 -5.3096 0
M  V30 4539 H 427.09 1.54937 -3.86394 0
M  V30 4540 H 427.623 -0.145754 -3.97533 0
M  V30 4541 H 424.362 -2.17147 -6.18488 0
M  V30 4542 H 423.882 -0.471246 -5.97946 0
M  V30 4543 H 425.561 -0.881365 -6.40969 0
M  V30 4544 N 425.693 1.55336 -0.266172 0
M  V30 4545 C 426.918 2.04258 0.359661 0
M  V30 4546 C 427.343 1.14359 1.49344 0
M  V30 4547 O 426.701 0.140369 1.80756 0
M  V30 4548 C 426.749 3.50997 0.826635 0
M  V30 4549 O 425.853 3.64204 1.93466 0
M  V30 4550 H 425.194 0.659668 0.075727 0
M  V30 4551 H 427.724 2.00694 -0.39786 0
M  V30 4552 H 427.734 3.9219 1.12477 0
M  V30 4553 H 426.409 4.159 -0.00293032 0
M  V30 4554 H 424.986 3.34913 1.63974 0
M  V30 4555 N 427.171 -0.0066808 1.57599 0
M  V30 4556 C 428.418 -0.69292 1.90276 0
M  V30 4557 C 428.746 -1.74148 0.866192 0
M  V30 4558 O 428.001 -1.95268 -0.129933 0
M  V30 4559 C 428.3 -1.37939 3.29708 0
M  V30 4560 C 427.966 -0.464679 4.48499 0
M  V30 4561 C 426.628 -0.212809 4.80729 0
M  V30 4562 C 428.98 0.16551 5.20937 0
M  V30 4563 C 426.308 0.677653 5.82773 0
M  V30 4564 C 428.66 1.04381 6.23929 0
M  V30 4565 C 427.324 1.30492 6.54621 0
M  V30 4566 H 426.594 -0.253558 0.696268 0
M  V30 4567 H 429.241 0.0474123 1.91441 0
M  V30 4568 H 427.546 -2.1936 3.24636 0
M  V30 4569 H 429.243 -1.9163 3.52249 0
M  V30 4570 H 425.833 -0.671153 4.23313 0
M  V30 4571 H 430.017 -0.0160756 4.96297 0
M  V30 4572 H 425.273 0.88803 6.04917 0
M  V30 4573 H 429.447 1.53851 6.79193 0
M  V30 4574 H 427.074 1.99662 7.33512 0
M  V30 4575 N 428.649 -1.55105 -0.279332 0
M  V30 4576 C 429.596 -1.8755 -1.34513 0
M  V30 4577 C 430.566 -0.726384 -1.49375 0
M  V30 4578 O 431.751 -0.977063 -1.63884 0
M  V30 4579 C 428.891 -2.14738 -2.70151 0
M  V30 4580 C 428.004 -3.42285 -2.63562 0
M  V30 4581 C 427.139 -3.59206 -3.91337 0
M  V30 4582 C 426.178 -4.80467 -3.79233 0
M  V30 4583 N 425.315 -4.94079 -4.98829 0
M  V30 4584 H 430.155 -2.78456 -1.06143 0
M  V30 4585 H 427.692 -1.37867 -0.512936 0
M  V30 4586 H 429.65 -2.28501 -3.49061 0
M  V30 4587 H 428.28 -1.27075 -2.96735 0
M  V30 4588 H 427.332 -3.37029 -1.76397 0
M  V30 4589 H 428.644 -4.31328 -2.50515 0
M  V30 4590 H 427.798 -3.72751 -4.78687 0
M  V30 4591 H 426.537 -2.68337 -4.07243 0
M  V30 4592 H 425.542 -4.66932 -2.90266 0
M  V30 4593 H 426.767 -5.72765 -3.64852 0
M  V30 4594 H 424.713 -4.06139 -5.15158 0
M  V30 4595 H 424.63 -5.77156 -4.8829 0
M  V30 4596 H 425.898 -5.12003 -5.8777 0
M  V30 4597 N 430.127 0.543554 -1.4793 0
M  V30 4598 C 431.037 1.67657 -1.64098 0
M  V30 4599 C 432.053 1.65934 -0.523622 0
M  V30 4600 O 433.229 1.85133 -0.792943 0
M  V30 4601 C 430.294 3.04146 -1.66421 0
M  V30 4602 C 429.355 3.16831 -2.89684 0
M  V30 4603 C 428.588 4.46809 -2.91886 0
M  V30 4604 O 428.811 5.33095 -2.02895 0
M  V30 4605 O 427.745 4.63573 -3.83906 0
M  V30 4606 H 431.571 1.56957 -2.59997 0
M  V30 4607 H 429.156 0.715116 -1.31173 0
M  V30 4608 H 431.038 3.85346 -1.70548 0
M  V30 4609 H 429.713 3.152 -0.736923 0
M  V30 4610 H 428.62 2.34977 -2.91095 0
M  V30 4611 H 429.953 3.10687 -3.81752 0
M  V30 4612 N 431.605 1.3629 0.791371 0
M  V30 4613 C 432.851 1.30605 1.55146 0
M  V30 4614 C 433.184 -0.115042 1.93859 0
M  V30 4615 O 432.459 -1.06798 1.62556 0
M  V30 4616 C 432.742 2.22692 2.82985 0
M  V30 4617 C 432.595 3.73489 2.50651 0
M  V30 4618 C 433.914 2.13588 3.84796 0
M  V30 4619 H 431.033 0.475761 0.562868 0
M  V30 4620 H 433.675 1.66825 0.909358 0
M  V30 4621 H 431.825 1.91933 3.37778 0
M  V30 4622 H 433.497 4.14758 2.01924 0
M  V30 4623 H 431.74 3.93021 1.83622 0
M  V30 4624 H 432.411 4.3333 3.41949 0
M  V30 4625 H 434.887 2.40659 3.39445 0
M  V30 4626 H 433.763 2.80195 4.71998 0
M  V30 4627 H 434.024 1.12256 4.27611 0
M  V30 4628 N 433.083 -1.0153 1.20538 0
M  V30 4629 C 434.331 -1.74803 1.01432 0
M  V30 4630 C 434.652 -1.8963 -0.454456 0
M  V30 4631 O 433.922 -1.43975 -1.32846 0
M  V30 4632 H 432.502 -0.647598 0.372324 0
M  V30 4633 H 435.164 -1.22402 1.5167 0
M  V30 4634 H 434.26 -2.75114 1.47373 0
M  V30 4635 N 434.561 -1.01147 -1.20859 0
M  V30 4636 C 435.509 -0.57059 -2.25493 0
M  V30 4637 C 436.503 0.388109 -1.64894 0
M  V30 4638 O 437.709 0.258592 -1.78133 0
M  V30 4639 H 434.084 -0.166191 -0.733406 0
M  V30 4640 H 436.055 -1.46411 -2.60012 0
M  V30 4641 C 434.804 0.0805241 -3.47607 0
M  V30 4642 H 434.127 -0.648156 -3.94511 0
M  V30 4643 H 435.567 0.352197 -4.22535 0
M  V30 4644 C 434.026 1.32175 -3.09889 0
M  V30 4645 O 434.556 2.41553 -3.20959 0
M  V30 4646 N 432.762 1.20392 -2.64488 0
M  V30 4647 H 432.309 0.313905 -2.5568 0
M  V30 4648 H 432.267 2.03541 -2.39621 0
M  V30 4649 N 436.039 1.36541 -0.78704 0
M  V30 4650 C 437.269 2.03266 -0.369662 0
M  V30 4651 C 437.677 1.59481 1.01796 0
M  V30 4652 O 437.02 0.778612 1.66383 0
M  V30 4653 C 437.082 3.57779 -0.351371 0
M  V30 4654 C 436.746 4.24756 -1.68617 0
M  V30 4655 C 437.743 4.47811 -2.64124 0
M  V30 4656 C 435.428 4.62277 -1.96481 0
M  V30 4657 C 437.422 5.07464 -3.85693 0
M  V30 4658 C 435.109 5.21649 -3.18317 0
M  V30 4659 C 436.107 5.44182 -4.12741 0
M  V30 4660 O 435.795 6.02307 -5.32429 0
M  V30 4661 H 435.527 0.658977 -0.150751 0
M  V30 4662 H 438.081 1.75548 -1.0664 0
M  V30 4663 H 436.311 3.84606 0.401847 0
M  V30 4664 H 438 4.05879 0.0410147 0
M  V30 4665 H 438.766 4.19221 -2.43883 0
M  V30 4666 H 434.645 4.44065 -1.23805 0
M  V30 4667 H 438.189 5.24968 -4.59407 0
M  V30 4668 H 434.086 5.49664 -3.38437 0
M  V30 4669 H 434.854 6.20775 -5.33461 0
M  V30 4670 N 437.518 0.538854 1.48102 0
M  V30 4671 C 438.481 -0.208395 2.28251 0
M  V30 4672 C 439.481 -0.859656 1.35892 0
M  V30 4673 O 440.671 -0.71834 1.58699 0
M  V30 4674 C 437.803 -1.30252 3.15035 0
M  V30 4675 H 438.996 0.495407 2.9578 0
M  V30 4676 H 436.549 0.295112 1.53489 0
M  V30 4677 H 437.284 -2.0393 2.52157 0
M  V30 4678 H 437.069 -0.840551 3.82985 0
M  V30 4679 H 438.559 -1.82787 3.75471 0
M  V30 4680 N 438.996 -1.55193 0.274407 0
M  V30 4681 C 439.959 -2.212 -0.600279 0
M  V30 4682 C 440.959 -1.18963 -1.08187 0
M  V30 4683 O 442.149 -1.43873 -0.982158 0
M  V30 4684 C 439.281 -2.87739 -1.82809 0
M  V30 4685 H 440.474 -2.9989 -0.0239682 0
M  V30 4686 H 438.027 -1.5628 0.0250192 0
M  V30 4687 H 438.762 -2.13058 -2.44493 0
M  V30 4688 H 438.547 -3.62658 -1.49069 0
M  V30 4689 H 440.037 -3.38171 -2.45011 0
M  V30 4690 N 440.474 -0.00167713 -1.576 0
M  V30 4691 C 441.72 0.683832 -1.90923 0
M  V30 4692 C 442.053 1.7333 -0.875799 0
M  V30 4693 O 441.328 1.94215 0.10525 0
M  V30 4694 C 441.611 1.32543 -3.3482 0
M  V30 4695 C 441.464 0.287387 -4.48881 0
M  V30 4696 C 442.783 2.25114 -3.78169 0
M  V30 4697 H 439.902 0.247125 -0.694333 0
M  V30 4698 H 442.544 -0.0533149 -1.89925 0
M  V30 4699 H 440.694 1.95372 -3.35801 0
M  V30 4700 H 442.366 -0.341346 -4.60035 0
M  V30 4701 H 440.609 -0.39017 -4.32042 0
M  V30 4702 H 441.28 0.775393 -5.46527 0
M  V30 4703 H 443.756 1.723 -3.7875 0
M  V30 4704 H 442.632 2.66971 -4.79602 0
M  V30 4705 H 442.893 3.13092 -3.12131 0
M  V30 4706 N 441.952 1.55251 0.271103 0
M  V30 4707 C 442.862 1.9136 1.35714 0
M  V30 4708 C 443.878 0.811075 1.5394 0
M  V30 4709 O 445.054 1.11031 1.6803 0
M  V30 4710 C 442.119 2.1798 2.69603 0
M  V30 4711 C 441.18 3.4153 2.60107 0
M  V30 4712 C 440.413 3.66871 3.8761 0
M  V30 4713 O 440.636 2.94689 4.8838 0
M  V30 4714 O 439.57 4.60405 3.87699 0
M  V30 4715 H 443.396 2.83815 1.08088 0
M  V30 4716 H 440.981 1.41821 0.469792 0
M  V30 4717 H 442.863 2.36518 3.48765 0
M  V30 4718 H 441.538 1.28708 2.97012 0
M  V30 4719 H 440.445 3.28325 1.79314 0
M  V30 4720 H 441.778 4.31027 2.37647 0
M  V30 4721 N 443.43 -0.535701 1.48216 0
M  V30 4722 C 444.655 -1.32149 1.59848 0
M  V30 4723 C 445.08 -1.86338 0.256842 0
M  V30 4724 O 444.438 -1.64107 -0.770632 0
M  V30 4725 C 444.486 -2.45224 2.64381 0
M  V30 4726 O 443.59 -3.48093 2.21144 0
M  V30 4727 H 442.931 -0.391634 0.536208 0
M  V30 4728 H 445.461 -0.645202 1.94161 0
M  V30 4729 H 445.471 -2.91491 2.85476 0
M  V30 4730 H 444.146 -2.05143 3.61786 0
M  V30 4731 H 442.723 -3.07984 2.10239 0
M  V30 4732 N 444.908 -1.36708 -0.784132 0
M  V30 4733 C 445.818 -1.3363 -1.92822 0
M  V30 4734 C 446.834 -0.237686 -1.72369 0
M  V30 4735 O 448.01 -0.470962 -1.95816 0
M  V30 4736 C 445.075 -1.13011 -3.27764 0
M  V30 4737 C 444.136 -2.32397 -3.60957 0
M  V30 4738 C 443.369 -2.12752 -4.89461 0
M  V30 4739 O 443.592 -1.10541 -5.59586 0
M  V30 4740 O 442.526 -3.00653 -5.21432 0
M  V30 4741 H 446.352 -2.29964 -1.98369 0
M  V30 4742 H 443.937 -1.1731 -0.925136 0
M  V30 4743 H 445.819 -1.03451 -4.08504 0
M  V30 4744 H 444.494 -0.19743 -3.23097 0
M  V30 4745 H 443.401 -2.47527 -2.80502 0
M  V30 4746 H 444.734 -3.2419 -3.70354 0
M  V30 4747 N 446.386 1.0089 -1.21074 0
M  V30 4748 C 447.296 2.13039 -0.982425 0
M  V30 4749 C 448.312 1.73881 0.0642161 0
M  V30 4750 O 449.488 2.01012 -0.12496 0
M  V30 4751 C 446.553 3.42377 -0.545803 0
M  V30 4752 C 445.614 3.95731 -1.6642 0
M  V30 4753 C 444.847 5.18896 -1.24832 0
M  V30 4754 O 445.07 5.70273 -0.120265 0
M  V30 4755 O 444.004 5.65597 -2.05873 0
M  V30 4756 H 447.83 2.35175 -1.92163 0
M  V30 4757 H 445.415 1.1142 -0.995285 0
M  V30 4758 H 447.297 4.20244 -0.311912 0
M  V30 4759 H 445.972 3.21639 0.364727 0
M  V30 4760 H 444.879 3.19108 -1.95246 0
M  V30 4761 H 446.212 4.20872 -2.55201 0
M  V30 4762 N 447.864 1.01787 1.20321 0
M  V30 4763 C 449.111 0.707936 1.89722 0
M  V30 4764 C 449.439 -0.762535 1.78929 0
M  V30 4765 O 448.694 -1.56977 1.16861 0
M  V30 4766 C 448.993 1.09076 3.40349 0
M  V30 4767 C 448.659 2.55765 3.71342 0
M  V30 4768 C 447.321 2.95845 3.79511 0
M  V30 4769 C 449.673 3.50723 3.85542 0
M  V30 4770 C 447.001 4.2982 3.99339 0
M  V30 4771 C 449.353 4.84387 4.06881 0
M  V30 4772 C 448.017 5.24172 4.1328 0
M  V30 4773 H 447.287 0.259052 0.694243 0
M  V30 4774 H 449.934 1.27868 1.42555 0
M  V30 4775 H 448.239 0.438453 3.89339 0
M  V30 4776 H 449.936 0.828636 3.92345 0
M  V30 4777 H 446.526 2.2371 3.65584 0
M  V30 4778 H 450.71 3.20916 3.78585 0
M  V30 4779 H 445.966 4.60196 4.02529 0
M  V30 4780 H 450.14 5.57891 4.1681 0
M  V30 4781 H 447.767 6.27997 4.28396 0
M  V30 4782 N 449.342 -1.36122 0.79427 0
M  V30 4783 C 450.272 -2.32551 0.210328 0
M  V30 4784 C 451.253 -1.56884 -0.657386 0
M  V30 4785 O 452.438 -1.85014 -0.590207 0
M  V30 4786 C 449.568 -3.41128 -0.651819 0
M  V30 4787 C 448.522 -4.27842 0.116395 0
M  V30 4788 C 447.848 -5.2763 -0.86666 0
M  V30 4789 C 449.148 -5.05647 1.30837 0
M  V30 4790 H 450.842 -2.81636 1.01594 0
M  V30 4791 H 448.388 -1.35407 0.489981 0
M  V30 4792 H 450.341 -4.07581 -1.07031 0
M  V30 4793 H 449.065 -2.90622 -1.49019 0
M  V30 4794 H 447.724 -3.62952 0.515915 0
M  V30 4795 H 447.372 -4.73395 -1.70019 0
M  V30 4796 H 447.072 -5.86514 -0.35705 0
M  V30 4797 H 448.596 -5.96955 -1.28361 0
M  V30 4798 H 450.01 -5.65113 0.965393 0
M  V30 4799 H 448.407 -5.73967 1.75161 0
M  V30 4800 H 449.477 -4.37006 2.10128 0
M  V30 4801 N 450.82 -0.546701 -1.47814 0
M  V30 4802 C 451.783 0.196287 -2.28358 0
M  V30 4803 C 452.783 0.852437 -1.36346 0
M  V30 4804 O 453.973 0.709913 -1.59078 0
M  V30 4805 C 451.105 1.28579 -3.15722 0
M  V30 4806 H 452.298 -0.511086 -2.95513 0
M  V30 4807 H 449.851 -0.303248 -1.5333 0
M  V30 4808 H 450.586 2.0259 -2.53235 0
M  V30 4809 H 450.371 0.820229 -3.83425 0
M  V30 4810 H 451.861 1.80793 -3.76435 0
M  V30 4811 N 452.299 1.55045 -0.282633 0
M  V30 4812 C 453.546 1.9976 0.33199 0
M  V30 4813 C 453.874 1.17105 1.55295 0
M  V30 4814 O 453.129 0.230599 1.94337 0
M  V30 4815 C 453.428 3.49422 0.750938 0
M  V30 4816 C 453.094 4.4941 -0.366228 0
M  V30 4817 C 451.756 4.76471 -0.672964 0
M  V30 4818 C 454.108 5.09054 -1.11864 0
M  V30 4819 C 451.436 5.60442 -1.73556 0
M  V30 4820 C 453.788 5.9418 -2.17102 0
M  V30 4821 C 452.452 6.19558 -2.48402 0
M  V30 4822 H 451.722 0.730974 0.121484 0
M  V30 4823 H 454.369 1.8732 -0.39791 0
M  V30 4824 H 452.674 3.59377 1.56063 0
M  V30 4825 H 454.371 3.81432 1.23736 0
M  V30 4826 H 450.961 4.2844 -0.117041 0
M  V30 4827 H 455.145 4.88165 -0.894925 0
M  V30 4828 H 450.401 5.78349 -1.983 0
M  V30 4829 H 454.575 6.39427 -2.75873 0
M  V30 4830 H 452.202 6.84417 -3.30874 0
M  V30 4831 N 453.777 0.010035 1.57597 0
M  V30 4832 C 455.188 -0.531426 1.78977 0
M  V30 4833 C 455.539 -1.73375 0.918454 0
M  V30 4834 O 454.664 -2.16047 0.123635 0
M  V30 4835 C 455.259 -0.97086 3.24592 0
M  V30 4836 C 453.818 -1.45756 3.47033 0
M  V30 4837 C 452.965 -0.413384 2.74201 0
M  V30 4838 H 455.916 0.236166 1.56933 0
M  V30 4839 H 455.937 -1.83633 3.33255 0
M  V30 4840 H 455.449 -0.0955893 3.87982 0
M  V30 4841 H 453.55 -2.35339 2.88871 0
M  V30 4842 H 453.663 -1.4781 4.55729 0
M  V30 4843 H 452.027 -0.877266 2.39115 0
M  V30 4844 H 452.81 0.453092 3.40297 0
M  V30 4845 N 455.255 -1.55392 -0.262866 0
M  V30 4846 C 456.218 -1.88181 -1.30846 0
M  V30 4847 C 457.218 -0.757079 -1.41862 0
M  V30 4848 O 458.408 -1.02519 -1.40838 0
M  V30 4849 C 455.54 -2.09609 -2.68844 0
M  V30 4850 H 456.733 -2.81659 -1.02997 0
M  V30 4851 H 454.286 -1.48039 -0.501414 0
M  V30 4852 H 455.021 -1.18547 -3.01856 0
M  V30 4853 H 454.806 -2.91508 -2.62231 0
M  V30 4854 H 456.296 -2.36215 -3.44372 0
M  V30 4855 N 456.733 0.527833 -1.48498 0
M  V30 4856 C 457.963 1.30633 -1.60058 0
M  V30 4857 C 458.371 1.87394 -0.260786 0
M  V30 4858 O 457.714 1.67227 0.760317 0
M  V30 4859 C 457.776 2.49361 -2.58958 0
M  V30 4860 C 457.44 2.13671 -4.03972 0
M  V30 4861 C 458.437 1.69217 -4.91591 0
M  V30 4862 C 456.122 2.24129 -4.49524 0
M  V30 4863 C 458.116 1.35689 -6.2279 0
M  V30 4864 C 455.803 1.90212 -5.80743 0
M  V30 4865 C 456.801 1.46063 -6.67199 0
M  V30 4866 O 456.489 1.12593 -7.95976 0
M  V30 4867 H 456.221 0.403444 -0.54241 0
M  V30 4868 H 458.775 0.643233 -1.95068 0
M  V30 4869 H 457.005 3.18659 -2.19073 0
M  V30 4870 H 458.694 3.11421 -2.6033 0
M  V30 4871 H 459.46 1.60607 -4.57636 0
M  V30 4872 H 455.339 2.57447 -3.82416 0
M  V30 4873 H 458.883 1.01157 -6.90227 0
M  V30 4874 H 454.78 1.98464 -6.14233 0
M  V30 4875 H 455.548 1.25972 -8.08748 0
M  V30 4876 N 458.211 1.37122 0.776871 0
M  V30 4877 C 459.141 1.35164 1.90402 0
M  V30 4878 C 460.122 0.221069 1.68657 0
M  V30 4879 O 461.307 0.420642 1.8959 0
M  V30 4880 C 458.437 1.15274 3.27611 0
M  V30 4881 C 457.391 2.25289 3.63908 0
M  V30 4882 C 456.717 1.90527 4.99603 0
M  V30 4883 C 458.017 3.67446 3.71188 0
M  V30 4884 H 459.711 2.29482 1.92297 0
M  V30 4885 H 457.257 1.10465 0.923773 0
M  V30 4886 H 459.21 1.12536 4.06096 0
M  V30 4887 H 457.934 0.174102 3.26136 0
M  V30 4888 H 456.593 2.27174 2.87728 0
M  V30 4889 H 456.241 0.91206 4.94662 0
M  V30 4890 H 455.941 2.64193 5.24858 0
M  V30 4891 H 457.465 1.89367 5.80493 0
M  V30 4892 H 458.879 3.67719 4.39836 0
M  V30 4893 H 457.276 4.40123 4.07936 0
M  V30 4894 H 458.346 4.01443 2.71977 0
M  V30 4895 N 459.689 -1.00246 1.21608 0
M  V30 4896 C 460.619 -2.10921 1.00172 0
M  V30 4897 C 461.6 -1.69938 -0.0741587 0
M  V30 4898 O 462.785 -1.94009 0.0861753 0
M  V30 4899 C 459.915 -3.42618 0.568355 0
M  V30 4900 C 458.869 -3.97407 1.58909 0
M  V30 4901 C 458.195 -5.25038 1.01187 0
M  V30 4902 C 459.495 -4.2918 2.97661 0
M  V30 4903 H 461.189 -2.29112 1.92739 0
M  V30 4904 H 458.735 -1.10101 0.928102 0
M  V30 4905 H 460.688 -4.19444 0.405555 0
M  V30 4906 H 459.412 -3.24227 -0.392961 0
M  V30 4907 H 458.071 -3.22703 1.73949 0
M  V30 4908 H 457.719 -5.02982 0.0421965 0
M  V30 4909 H 457.419 -5.62661 1.6937 0
M  V30 4910 H 458.943 -6.04507 0.860448 0
M  V30 4911 H 460.357 -4.96839 2.86049 0
M  V30 4912 H 458.754 -4.77952 3.6288 0
M  V30 4913 H 459.824 -3.3735 3.48315 0
M  V30 4914 N 461.167 -1.02423 -1.1978 0
M  V30 4915 C 462.415 -0.716569 -1.8897 0
M  V30 4916 C 462.736 0.756769 -1.79716 0
M  V30 4917 O 462.006 1.5449 -1.20456 0
M  V30 4918 H 460.586 -0.262062 -0.699523 0
M  V30 4919 H 463.248 -1.29747 -1.45436 0
M  V30 4920 H 462.344 -1.00675 -2.95417 0
M  V30 4921 N 462.645 1.35699 -0.801477 0
M  V30 4922 C 463.894 1.98165 -0.375979 0
M  V30 4923 C 464.207 1.64306 1.06127 0
M  V30 4924 O 465.413 2.20097 1.58964 0
M  V30 4925 C 463.869 3.54497 -0.621305 0
M  V30 4926 C 463.477 3.9727 -2.07076 0
M  V30 4927 C 465.221 4.23697 -0.26091 0
M  V30 4928 C 463.128 5.46427 -2.26211 0
M  V30 4929 H 462.058 0.741478 -0.136844 0
M  V30 4930 H 464.709 1.54834 -0.984814 0
M  V30 4931 H 463.091 3.95958 0.0574112 0
M  V30 4932 H 464.265 3.66974 -2.78687 0
M  V30 4933 H 462.58 3.40943 -2.39054 0
M  V30 4934 H 465.177 5.33334 -0.381994 0
M  V30 4935 H 465.52 4.0869 0.792344 0
M  V30 4936 H 466.053 3.87639 -0.893339 0
M  V30 4937 H 462.792 5.66396 -3.29963 0
M  V30 4938 H 462.312 5.78309 -1.59119 0
M  V30 4939 H 463.991 6.12819 -2.07513 0
M  V30 4940 N 464.123 0.554532 1.47522 0
M  V30 4941 C 465.071 -0.207765 2.3167 0
M  V30 4942 C 466.065 -0.911914 1.4276 0
M  V30 4943 O 467.271 -0.833504 1.59539 0
M  V30 4944 H 463.646 -0.0858726 0.747081 0
M  V30 4945 H 465.617 0.521178 2.93813 0
M  V30 4946 C 464.366 -1.2263 3.25357 0
M  V30 4947 H 463.689 -0.693887 3.93732 0
M  V30 4948 H 465.129 -1.73062 3.87073 0
M  V30 4949 C 463.588 -2.27278 2.4869 0
M  V30 4950 O 464.118 -3.34156 2.22941 0
M  V30 4951 N 462.324 -2.01134 2.09746 0
M  V30 4952 H 461.871 -1.14232 2.30887 0
M  V30 4953 H 461.829 -2.71369 1.58765 0
M  V30 4954 N 465.601 -1.54893 0.290851 0
M  V30 4955 C 466.533 -2.20564 -0.623236 0
M  V30 4956 C 467.546 -1.19519 -1.1054 0
M  V30 4957 O 468.735 -1.46165 -1.02459 0
M  V30 4958 C 465.835 -2.83033 -1.86401 0
M  V30 4959 C 465.008 -4.09916 -1.52604 0
M  V30 4960 C 464.067 -4.56284 -2.62091 0
M  V30 4961 O 463.093 -5.2171 -2.27612 0
M  V30 4962 N 464.295 -4.27746 -3.92446 0
M  V30 4963 H 467.06 -2.99638 -0.0610915 0
M  V30 4964 H 464.621 -1.61508 0.112615 0
M  V30 4965 H 466.613 -3.1099 -2.58973 0
M  V30 4966 H 465.183 -2.0786 -2.33481 0
M  V30 4967 H 464.403 -3.89078 -0.633424 0
M  V30 4968 H 465.691 -4.92554 -1.27547 0
M  V30 4969 H 465.089 -3.7531 -4.23272 0
M  V30 4970 H 463.646 -4.60437 -4.61347 0
M  V30 4971 N 467.08 -0.0183926 -1.57589 0
M  V30 4972 C 468.357 0.700621 -1.82622 0
M  V30 4973 C 468.737 1.90951 -0.90005 0
M  V30 4974 O 468.085 2.28452 0.0469145 0
M  V30 4975 C 468.295 1.08899 -3.31575 0
M  V30 4976 C 469.643 1.48514 -3.9778 0
M  V30 4977 O 470.667 1.18227 -3.36007 0
M  V30 4978 O 469.526 2.04903 -5.06633 0
M  V30 4979 H 466.62 0.342743 -0.752633 0
M  V30 4980 H 469.166 -0.0452548 -1.6964 0
M  V30 4981 H 467.938 0.228113 -3.90635 0
M  V30 4982 H 467.561 1.89338 -3.49624 0
M  V30 4983 N 468.558 1.5553 0.254621 0
M  V30 4984 C 469.974 1.4778 0.602753 0
M  V30 4985 C 470.174 0.707047 1.88688 0
M  V30 4986 O 469.23 0.233288 2.5142 0
M  V30 4987 C 470.543 2.92133 0.712648 0
M  V30 4988 C 472.091 3.02458 0.805488 0
M  V30 4989 C 472.566 4.48102 0.947009 0
M  V30 4990 N 474.057 4.52008 1.01207 0
M  V30 4991 C 474.792 5.61939 1.1407 0
M  V30 4992 N 474.288 6.81697 1.23536 0
M  V30 4993 N 476.081 5.49719 1.17325 0
M  V30 4994 H 468.232 2.04085 -0.588463 0
M  V30 4995 H 470.495 0.926229 -0.202001 0
M  V30 4996 H 470.201 3.51332 -0.160766 0
M  V30 4997 H 470.075 3.42187 1.58707 0
M  V30 4998 H 472.462 2.43344 1.66936 0
M  V30 4999 H 472.543 2.55627 -0.0939266 0
M  V30 5000 H 472.187 5.07824 0.087725 0
M  V30 5001 H 472.117 4.92607 1.86135 0
M  V30 5002 H 474.608 3.65749 0.950577 0
M  V30 5003 H 474.921 7.61228 1.33236 0
M  V30 5004 H 473.266 6.84473 1.20508 0
M  V30 5005 H 476.457 4.55095 1.09573 0
M  V30 5006 H 476.63 6.35432 1.27005 0
M  V30 5007 N 470.036 -0.519951 1.48776 0
M  V30 5008 C 470.966 -1.63253 1.66945 0
M  V30 5009 C 471.947 -1.62014 0.518224 0
M  V30 5010 O 473.132 -1.79053 0.751919 0
M  V30 5011 C 470.262 -3.0181 1.71836 0
M  V30 5012 C 469.216 -3.17911 2.8656 0
M  V30 5013 C 468.542 -4.5763 2.76548 0
M  V30 5014 C 469.842 -2.99729 4.27738 0
M  V30 5015 H 471.536 -1.48302 2.6009 0
M  V30 5016 H 469.082 -0.712026 1.25165 0
M  V30 5017 H 471.035 -3.79525 1.83135 0
M  V30 5018 H 469.759 -3.17806 0.752775 0
M  V30 5019 H 468.418 -2.42616 2.74833 0
M  V30 5020 H 468.066 -4.70476 1.77937 0
M  V30 5021 H 467.766 -4.69346 3.53536 0
M  V30 5022 H 469.29 -5.37431 2.89828 0
M  V30 5023 H 470.704 -3.67228 4.40246 0
M  V30 5024 H 469.101 -3.22932 5.05801 0
M  V30 5025 H 470.171 -1.96047 4.43502 0
M  V30 5026 N 471.514 -1.37532 -0.769588 0
M  V30 5027 C 472.461 -1.3347 -1.88293 0
M  V30 5028 C 473.431 -0.199891 -1.64893 0
M  V30 5029 O 474.616 -0.389594 -1.8678 0
M  V30 5030 C 471.756 -1.14968 -3.25387 0
M  V30 5031 C 470.869 -2.37698 -3.60727 0
M  V30 5032 C 470.004 -2.12051 -4.8704 0
M  V30 5033 C 469.043 -3.30636 -5.15117 0
M  V30 5034 N 468.18 -3.04527 -6.3262 0
M  V30 5035 H 473.02 -2.28658 -1.911 0
M  V30 5036 H 470.557 -1.13622 -0.934257 0
M  V30 5037 H 472.515 -1.02261 -4.04473 0
M  V30 5038 H 471.145 -0.234263 -3.21949 0
M  V30 5039 H 470.197 -2.61137 -2.76608 0
M  V30 5040 H 471.509 -3.26131 -3.77413 0
M  V30 5041 H 470.663 -1.96388 -5.74035 0
M  V30 5042 H 469.402 -1.20959 -4.72462 0
M  V30 5043 H 468.407 -3.46836 -4.26597 0
M  V30 5044 H 469.632 -4.22582 -5.31603 0
M  V30 5045 H 467.578 -2.16067 -6.19396 0
M  V30 5046 H 467.495 -3.86503 -6.49732 0
M  V30 5047 H 468.763 -2.92485 -7.22546 0
M  V30 5048 N 472.992 0.995999 -1.22138 0
M  V30 5049 C 473.902 2.11985 -1.00496 0
M  V30 5050 C 474.918 1.7394 0.0457701 0
M  V30 5051 O 476.094 2.00868 -0.146273 0
M  V30 5052 C 473.159 3.41779 -0.582086 0
M  V30 5053 C 472.22 3.93943 -1.70608 0
M  V30 5054 C 471.453 5.17542 -1.30328 0
M  V30 5055 O 471.676 5.70114 -0.180743 0
M  V30 5056 O 470.61 5.63382 -2.11861 0
M  V30 5057 H 474.436 2.33123 -1.94647 0
M  V30 5058 H 472.021 1.10358 -1.00705 0
M  V30 5059 H 473.903 4.1989 -0.356467 0
M  V30 5060 H 472.578 3.22007 0.330592 0
M  V30 5061 H 471.485 3.17019 -1.98619 0
M  V30 5062 H 472.818 4.18141 -2.59651 0
M  V30 5063 N 474.47 1.03057 1.19235 0
M  V30 5064 C 475.417 0.612832 2.22515 0
M  V30 5065 C 476.387 -0.374224 1.61829 0
M  V30 5066 O 477.572 -0.270501 1.88873 0
M  V30 5067 C 474.712 -0.028475 3.45088 0
M  V30 5068 C 473.825 1.00483 4.20151 0
M  V30 5069 C 472.96 0.333102 5.30155 0
M  V30 5070 C 471.999 1.3522 5.96977 0
M  V30 5071 N 471.136 0.70616 6.9854 0
M  V30 5072 H 475.976 1.49812 2.57605 0
M  V30 5073 H 473.513 0.749658 1.26564 0
M  V30 5074 H 475.471 -0.417548 4.15105 0
M  V30 5075 H 474.101 -0.877334 3.10649 0
M  V30 5076 H 473.153 1.51194 3.49062 0
M  V30 5077 H 474.465 1.77929 4.65986 0
M  V30 5078 H 473.619 -0.110725 6.06599 0
M  V30 5079 H 472.358 -0.473547 4.85396 0
M  V30 5080 H 471.363 1.80627 5.19282 0
M  V30 5081 H 472.588 2.16037 6.4382 0
M  V30 5082 H 470.534 -0.0803667 6.55951 0
M  V30 5083 H 470.451 1.41848 7.42573 0
M  V30 5084 H 471.719 0.286391 7.78974 0
M  V30 5085 N 475.948 -1.35272 0.808662 0
M  V30 5086 C 476.878 -2.32315 0.234981 0
M  V30 5087 C 477.859 -1.57572 -0.64071 0
M  V30 5088 O 479.044 -1.8563 -0.570551 0
M  V30 5089 C 476.174 -3.41801 -0.615601 0
M  V30 5090 C 475.128 -4.27694 0.161767 0
M  V30 5091 C 474.454 -5.28519 -0.810649 0
M  V30 5092 C 475.754 -5.04231 1.36193 0
M  V30 5093 H 477.448 -2.80543 1.04575 0
M  V30 5094 H 474.994 -1.3488 0.504315 0
M  V30 5095 H 476.947 -4.08693 -1.02702 0
M  V30 5096 H 475.671 -2.92186 -1.45928 0
M  V30 5097 H 474.33 -3.62384 0.554382 0
M  V30 5098 H 473.978 -4.75171 -1.64988 0
M  V30 5099 H 473.678 -5.8686 -0.294822 0
M  V30 5100 H 475.202 -5.98283 -1.22023 0
M  V30 5101 H 476.616 -5.64058 1.02528 0
M  V30 5102 H 475.013 -5.72077 1.81239 0
M  V30 5103 H 476.083 -4.34753 2.14751 0
M  V30 5104 N 477.426 -0.562348 -1.47226 0
M  V30 5105 C 478.654 -0.0452275 -2.06851 0
M  V30 5106 C 479.069 1.25078 -1.41424 0
M  V30 5107 O 478.426 1.75156 -0.512513 0
M  V30 5108 C 478.477 0.148674 -3.61194 0
M  V30 5109 O 478.198 -1.09602 -4.24169 0
M  V30 5110 C 479.699 0.702488 -4.37699 0
M  V30 5111 H 476.919 -0.0481775 -0.669268 0
M  V30 5112 H 479.463 -0.777223 -1.89155 0
M  V30 5113 H 477.618 0.830817 -3.78386 0
M  V30 5114 H 478.032 -0.896982 -5.16773 0
M  V30 5115 H 479.506 0.78743 -5.46355 0
M  V30 5116 H 479.983 1.71493 -4.04335 0
M  V30 5117 H 480.589 0.0558772 -4.25263 0
M  V30 5118 N 478.904 1.54736 -0.299062 0
M  V30 5119 C 480.129 2.04975 0.316254 0
M  V30 5120 C 480.554 1.17501 1.46885 0
M  V30 5121 O 479.912 0.178678 1.80417 0
M  V30 5122 C 479.96 3.52672 0.751997 0
M  V30 5123 O 479.064 3.68226 1.85697 0
M  V30 5124 H 478.405 0.661126 0.0617175 0
M  V30 5125 H 480.935 1.99805 -0.440341 0
M  V30 5126 H 480.945 3.94488 1.04133 0
M  V30 5127 H 479.62 4.158 -0.0911482 0
M  V30 5128 H 478.197 3.38316 1.56834 0
M  V30 5129 N 480.382 0.0267497 1.57577 0
M  V30 5130 C 481.798 -0.32962 1.56159 0
M  V30 5131 C 481.998 -1.73059 1.03213 0
M  V30 5132 O 481.054 -2.43233 0.677804 0
M  V30 5133 C 482.367 -0.18039 3.00158 0
M  V30 5134 C 483.915 -0.253334 3.11973 0
M  V30 5135 C 484.39 -0.132921 4.57807 0
M  V30 5136 N 485.881 -0.189979 4.6281 0
M  V30 5137 C 486.616 -0.120554 5.73273 0
M  V30 5138 N 486.112 -0.000180315 6.928 0
M  V30 5139 N 487.905 -0.174369 5.61829 0
M  V30 5140 H 480.056 0.942896 1.90324 0
M  V30 5141 H 482.319 0.3639 0.875375 0
M  V30 5142 H 482.025 0.784576 3.42837 0
M  V30 5143 H 481.899 -0.951565 3.65 0
M  V30 5144 H 484.286 -1.20876 2.69208 0
M  V30 5145 H 484.367 0.548177 2.49857 0
M  V30 5146 H 484.011 0.819073 5.01252 0
M  V30 5147 H 483.941 -0.953264 5.179 0
M  V30 5148 H 486.432 -0.283257 3.76837 0
M  V30 5149 H 486.745 0.0461666 7.72786 0
M  V30 5150 H 485.09 0.034569 6.94991 0
M  V30 5151 H 488.281 -0.266794 4.67339 0
M  V30 5152 H 488.454 -0.116802 6.47895 0
M  V30 5153 N 481.861 -1.55662 -0.24637 0
M  V30 5154 C 482.793 -1.86811 -1.32794 0
M  V30 5155 C 483.806 -0.754413 -1.44265 0
M  V30 5156 O 484.995 -1.03253 -1.45606 0
M  V30 5157 C 482.095 -2.0397 -2.70646 0
M  V30 5158 C 481.268 -3.34832 -2.81436 0
M  V30 5159 C 480.327 -3.41727 -4.00136 0
M  V30 5160 O 479.353 -4.14934 -3.89639 0
M  V30 5161 N 480.555 -2.71058 -5.1333 0
M  V30 5162 H 483.32 -2.80174 -1.06409 0
M  V30 5163 H 480.881 -1.55906 -0.43647 0
M  V30 5164 H 482.873 -2.05924 -3.48393 0
M  V30 5165 H 481.443 -1.1735 -2.89738 0
M  V30 5166 H 480.663 -3.4519 -1.90361 0
M  V30 5167 H 481.951 -4.21085 -2.85595 0
M  V30 5168 H 481.349 -2.11314 -5.2475 0
M  V30 5169 H 479.906 -2.78704 -5.89209 0
M  V30 5170 N 483.339 0.512053 -1.4905 0
M  V30 5171 C 484.272 1.63209 -1.59493 0
M  V30 5172 C 485.25 1.56407 -0.444481 0
M  V30 5173 O 486.434 1.76623 -0.658535 0
M  V30 5174 C 483.561 3.01685 -1.53961 0
M  V30 5175 C 482.607 3.26786 -2.74068 0
M  V30 5176 S 483.44 3.11107 -4.35859 0
M  V30 5177 C 484.596 4.51997 -4.32954 0
M  V30 5178 H 484.829 1.54104 -2.54243 0
M  V30 5179 H 482.362 0.696382 -1.37804 0
M  V30 5180 H 484.32 3.81538 -1.51455 0
M  V30 5181 H 482.981 3.08215 -0.605178 0
M  V30 5182 H 482.174 4.27849 -2.66386 0
M  V30 5183 H 481.776 2.54635 -2.73928 0
M  V30 5184 H 484.068 5.43871 -4.03993 0
M  V30 5185 H 485.011 4.64731 -5.34257 0
M  V30 5186 H 485.419 4.32159 -3.63178 0
M  V30 5187 N 484.817 1.37938 0.762283 0
M  V30 5188 C 486.094 1.24196 1.51112 0
M  V30 5189 C 486.474 -0.160409 2.1049 0
M  V30 5190 O 485.822 -1.16904 1.96331 0
M  V30 5191 C 486.032 2.34537 2.58445 0
M  V30 5192 C 487.38 2.7254 3.25588 0
M  V30 5193 O 488.404 2.33783 2.68745 0
M  V30 5194 O 487.263 3.39343 4.28379 0
M  V30 5195 H 484.357 0.485175 0.669727 0
M  V30 5196 H 486.903 1.49743 0.798438 0
M  V30 5197 H 485.675 3.28406 2.12756 0
M  V30 5198 H 485.298 2.10505 3.37303 0
M  V30 5199 N 486.295 -0.989507 1.22664 0
M  V30 5200 C 487.52 -1.77031 1.08051 0
M  V30 5201 C 487.945 -1.84535 -0.364483 0
M  V30 5202 O 487.303 -1.3003 -1.2634 0
M  V30 5203 C 487.351 -3.18 1.70024 0
M  V30 5204 O 486.455 -4.01161 0.956216 0
M  V30 5205 H 485.796 -0.545008 0.379292 0
M  V30 5206 H 488.326 -1.24277 1.62531 0
M  V30 5207 H 488.336 -3.68616 1.74888 0
M  V30 5208 H 487.011 -3.11853 2.75174 0
M  V30 5209 H 485.588 -3.59687 0.98384 0
M  V30 5210 N 487.773 -1.03688 -1.18687 0
M  V30 5211 C 488.72 -0.624624 -2.22187 0
M  V30 5212 C 489.69 0.365636 -1.62026 0
M  V30 5213 O 490.875 0.260481 -1.89014 0
M  V30 5214 C 488.015 0.0101738 -3.45099 0
M  V30 5215 C 487.128 -1.02709 -4.19613 0
M  V30 5216 C 486.263 -0.361213 -5.2997 0
M  V30 5217 C 485.302 -1.38384 -5.96252 0
M  V30 5218 N 484.439 -0.743196 -6.98155 0
M  V30 5219 H 489.279 -1.51176 -2.56807 0
M  V30 5220 H 486.816 -0.75636 -1.26165 0
M  V30 5221 H 488.774 0.395528 -4.15321 0
M  V30 5222 H 487.404 0.860848 -3.1111 0
M  V30 5223 H 486.456 -1.53043 -3.48256 0
M  V30 5224 H 487.768 -1.80398 -4.65036 0
M  V30 5225 H 486.922 0.0785537 -6.06649 0
M  V30 5226 H 485.661 0.447799 -4.8564 0
M  V30 5227 H 484.666 -1.83378 -5.18317 0
M  V30 5228 H 485.891 -2.19448 -6.42666 0
M  V30 5229 H 483.837 0.0455789 -6.55984 0
M  V30 5230 H 483.754 -1.45784 -7.41811 0
M  V30 5231 H 485.022 -0.327698 -7.78811 0
M  V30 5232 N 489.251 1.34841 -0.815825 0
M  V30 5233 C 490.497 1.99219 -0.410288 0
M  V30 5234 C 490.852 1.63532 1.01366 0
M  V30 5235 O 490.145 0.893093 1.69512 0
M  V30 5236 C 490.339 3.53273 -0.541541 0
M  V30 5237 C 490.168 4.03927 -1.9767 0
M  V30 5238 C 488.938 4.32852 -2.60706 0
M  V30 5239 C 491.136 4.21808 -2.9425 0
M  V30 5240 N 489.118 4.69494 -3.95536 0
M  V30 5241 C 490.489 4.6155 -4.13971 0
M  V30 5242 C 492.544 4.04038 -2.9096 0
M  V30 5243 C 491.247 4.85381 -5.30847 0
M  V30 5244 C 493.273 4.29031 -4.07046 0
M  V30 5245 C 492.635 4.69054 -5.25517 0
M  V30 5246 H 488.734 0.756494 -0.198094 0
M  V30 5247 H 491.318 1.63379 -1.05902 0
M  V30 5248 H 489.489 3.88323 0.0772544 0
M  V30 5249 H 491.221 4.04551 -0.109694 0
M  V30 5250 H 487.976 4.23503 -2.11995 0
M  V30 5251 H 488.4 4.92061 -4.64979 0
M  V30 5252 H 493.042 3.7223 -2.00512 0
M  V30 5253 H 490.76 5.16059 -6.21859 0
M  V30 5254 H 494.346 4.16826 -4.05891 0
M  V30 5255 H 493.226 4.88014 -6.1385 0
M  V30 5256 N 490.729 0.570148 1.46925 0
M  V30 5257 C 491.977 0.0508523 2.02036 0
M  V30 5258 C 492.298 -1.30885 1.44548 0
M  V30 5259 O 491.568 -1.85647 0.625453 0
M  V30 5260 H 490.148 0.0158088 0.746833 0
M  V30 5261 H 492.81 0.743086 1.80178 0
M  V30 5262 H 491.906 -0.027575 3.12088 0
M  V30 5263 N 492.207 -1.54576 0.307264 0
M  V30 5264 C 493.455 -1.99867 -0.299574 0
M  V30 5265 C 493.776 -1.19714 -1.53927 0
M  V30 5266 O 493.046 -0.29472 -1.9367 0
M  V30 5267 H 491.626 -0.738299 -0.113683 0
M  V30 5268 H 494.288 -1.9032 0.420042 0
M  V30 5269 H 493.384 -3.06901 -0.567283 0
M  V30 5270 N 493.685 -0.035106 -1.57561 0
M  V30 5271 C 494.632 0.94474 -2.10578 0
M  V30 5272 C 495.602 1.3192 -1.00927 0
M  V30 5273 O 496.787 1.41147 -1.28382 0
M  V30 5274 C 493.927 2.21982 -2.64231 0
M  V30 5275 C 493.04 1.90128 -3.87911 0
M  V30 5276 C 492.175 3.11975 -4.29936 0
M  V30 5277 C 491.214 2.75968 -5.46359 0
M  V30 5278 N 490.351 3.90459 -5.83512 0
M  V30 5279 H 495.191 0.485717 -2.94015 0
M  V30 5280 H 492.728 0.228143 -1.4532 0
M  V30 5281 H 494.686 2.96572 -2.9343 0
M  V30 5282 H 493.316 2.6549 -1.83616 0
M  V30 5283 H 492.368 1.05755 -3.65404 0
M  V30 5284 H 493.68 1.59613 -4.72573 0
M  V30 5285 H 492.834 3.9488 -4.60603 0
M  V30 5286 H 491.573 3.45657 -3.44053 0
M  V30 5287 H 490.578 1.91478 -5.1538 0
M  V30 5288 H 491.803 2.43497 -6.33945 0
M  V30 5289 H 489.749 4.23971 -5.00584 0
M  V30 5290 H 489.666 3.63588 -6.62827 0
M  V30 5291 H 490.934 4.7405 -6.18787 0
M  V30 5292 N 495.163 1.55791 0.238111 0
M  V30 5293 C 496.388 1.8244 0.986432 0
M  V30 5294 C 496.813 0.613314 1.7782 0
M  V30 5295 O 496.171 -0.437767 1.75935 0
M  V30 5296 C 496.219 3.06917 1.893 0
M  V30 5297 O 495.323 2.84449 2.98601 0
M  V30 5298 H 494.664 0.601975 0.280218 0
M  V30 5299 H 497.194 2.02987 0.256437 0
M  V30 5300 H 497.204 3.36583 2.30598 0
M  V30 5301 H 495.879 3.947 1.31091 0
M  V30 5302 H 494.456 2.65972 2.61368 0
M  V30 5303 N 496.642 -0.504142 1.49319 0
M  V30 5304 C 497.552 -1.63248 1.68486 0
M  V30 5305 C 498.568 -1.64488 0.567432 0
M  V30 5306 O 499.744 -1.82966 0.841749 0
M  V30 5307 C 496.809 -2.99627 1.74426 0
M  V30 5308 C 495.87 -3.09039 2.97982 0
M  V30 5309 C 495.103 -4.38913 3.0363 0
M  V30 5310 O 495.326 -5.27528 2.16958 0
M  V30 5311 O 494.26 -4.53231 3.96062 0
M  V30 5312 H 498.086 -1.50008 2.64067 0
M  V30 5313 H 495.671 -0.680086 1.33023 0
M  V30 5314 H 497.553 -3.80689 1.80705 0
M  V30 5315 H 496.228 -3.13136 0.820233 0
M  V30 5316 H 495.135 -2.27177 2.97223 0
M  V30 5317 H 496.468 -3.00456 3.89855 0
M  V30 5318 N 498.12 -1.38341 -0.754957 0
M  V30 5319 C 499.345 -1.37882 -1.5493 0
M  V30 5320 C 499.77 0.0296385 -1.88077 0
M  V30 5321 O 499.128 1.01133 -1.50472 0
M  V30 5322 C 499.176 -2.23996 -2.82592 0
M  V30 5323 O 498.28 -1.65612 -3.77686 0
M  V30 5324 H 497.621 -0.470384 -0.468652 0
M  V30 5325 H 500.151 -1.82084 -0.933082 0
M  V30 5326 H 500.161 -2.37806 -3.3153 0
M  V30 5327 H 498.836 -3.26365 -2.57796 0
M  V30 5328 H 497.413 -1.60936 -3.36384 0
M  V30 5329 N 499.598 0.982988 -1.23187 0
M  V30 5330 C 500.847 1.71817 -1.05649 0
M  V30 5331 C 501.16 1.91315 0.407176 0
M  V30 5332 O 502.366 2.62256 0.702436 0
M  V30 5333 C 500.822 3.09188 -1.84203 0
M  V30 5334 C 500.43 2.97586 -3.34882 0
M  V30 5335 C 502.174 3.86684 -1.75146 0
M  V30 5336 C 500.081 4.30173 -4.05839 0
M  V30 5337 H 499.011 0.644258 -0.391724 0
M  V30 5338 H 501.662 1.09659 -1.4713 0
M  V30 5339 H 500.044 3.72087 -1.35527 0
M  V30 5340 H 501.218 2.43793 -3.91026 0
M  V30 5341 H 499.533 2.33567 -3.44725 0
M  V30 5342 H 502.13 4.84836 -2.25473 0
M  V30 5343 H 502.473 4.10136 -0.713737 0
M  V30 5344 H 503.006 3.30482 -2.21419 0
M  V30 5345 H 499.745 4.11918 -5.09906 0
M  V30 5346 H 499.265 4.83841 -3.54482 0
M  V30 5347 H 500.944 4.98873 -4.11989 0
M  V30 5348 N 501.076 1.04316 1.18135 0
M  V30 5349 C 502.026 0.606731 2.19779 0
M  V30 5350 C 503.01 -0.352144 1.56999 0
M  V30 5351 O 504.202 -0.170795 1.76174 0
M  V30 5352 C 501.331 -0.0262443 3.4329 0
M  V30 5353 C 500.417 0.955928 4.13186 0
M  V30 5354 N 500.808 2.12395 4.59045 0
M  V30 5355 C 499.106 0.782473 4.39082 0
M  V30 5356 C 499.807 2.74458 5.12882 0
M  V30 5357 N 498.783 2.02316 5.04548 0
M  V30 5358 H 502.585 1.49679 2.5293 0
M  V30 5359 H 500.099 0.912088 1.34368 0
M  V30 5360 H 502.096 -0.356617 4.15372 0
M  V30 5361 H 500.756 -0.911811 3.11635 0
M  V30 5362 H 501.767 2.50272 4.53414 0
M  V30 5363 H 498.444 -0.0527906 4.17467 0
M  V30 5364 H 499.834 3.73459 5.5855 0
M  V30 5365 N 502.554 -1.34406 0.822964 0
M  V30 5366 C 503.8 -1.98578 0.411666 0
M  V30 5367 C 504.133 -1.65093 -1.02264 0
M  V30 5368 O 503.408 -0.92258 -1.71227 0
M  V30 5369 C 503.691 -3.54823 0.614235 0
M  V30 5370 C 503.544 -3.9805 2.09466 0
M  V30 5371 C 504.863 -4.40071 0.050221 0
M  V30 5372 H 501.982 -0.721355 0.151047 0
M  V30 5373 H 504.624 -1.59301 1.03554 0
M  V30 5374 H 502.774 -3.88411 0.0831774 0
M  V30 5375 H 504.446 -3.74795 2.68936 0
M  V30 5376 H 502.689 -3.4836 2.5851 0
M  V30 5377 H 503.36 -5.06819 2.18721 0
M  V30 5378 H 505.836 -4.13037 0.503953 0
M  V30 5379 H 504.712 -5.48452 0.221759 0
M  V30 5380 H 504.973 -4.29576 -1.04482 0
M  V30 5381 N 504.032 -0.577932 -1.46621 0
M  V30 5382 C 505.26 -0.0671642 -2.06791 0
M  V30 5383 C 505.675 1.23571 -1.42743 0
M  V30 5384 O 505.032 1.74602 -0.531062 0
M  V30 5385 C 505.083 0.110357 -3.61332 0
M  V30 5386 O 504.804 -1.14095 -4.22982 0
M  V30 5387 C 506.305 0.656025 -4.38419 0
M  V30 5388 H 503.525 -0.0552732 -0.66872 0
M  V30 5389 H 506.069 -0.797242 -1.8832 0
M  V30 5390 H 504.224 0.790637 -3.79246 0
M  V30 5391 H 504.638 -0.951742 -5.15793 0
M  V30 5392 H 506.112 0.729438 -5.47159 0
M  V30 5393 H 506.589 1.67195 -4.06131 0
M  V30 5394 H 507.195 0.0107692 -4.25299 0
M  V30 5395 N 505.51 1.54411 -0.315457 0
M  V30 5396 C 506.44 2.27002 0.547039 0
M  V30 5397 C 507.421 1.27492 1.12605 0
M  V30 5398 O 508.606 1.5629 1.15269 0
M  V30 5399 C 505.736 3.02171 1.71201 0
M  V30 5400 C 504.69 4.0895 1.26268 0
M  V30 5401 C 504.016 4.71915 2.51396 0
M  V30 5402 C 505.316 5.20891 0.383419 0
M  V30 5403 H 507.01 2.99343 -0.0584517 0
M  V30 5404 H 504.556 1.4397 -0.0295527 0
M  V30 5405 H 506.509 3.51681 2.32161 0
M  V30 5406 H 505.233 2.27433 2.34397 0
M  V30 5407 H 503.892 3.60312 0.676062 0
M  V30 5408 H 503.54 3.93801 3.12937 0
M  V30 5409 H 503.24 5.44039 2.22026 0
M  V30 5410 H 504.764 5.24195 3.13133 0
M  V30 5411 H 506.178 5.66206 0.899082 0
M  V30 5412 H 504.575 5.99821 0.182857 0
M  V30 5413 H 505.645 4.81324 -0.587821 0
M  V30 5414 N 506.988 0.0434614 1.5754 0
M  V30 5415 C 507.936 -0.951465 2.1225 0
M  V30 5416 C 508.93 -1.3274 1.05245 0
M  V30 5417 O 510.136 -1.30795 1.23663 0
M  V30 5418 H 506.511 -0.324667 0.678303 0
M  V30 5419 H 508.482 -0.464855 2.94757 0
M  V30 5420 C 507.231 -2.21972 2.67626 0
M  V30 5421 H 506.554 -1.93923 3.4962 0
M  V30 5422 H 507.994 -2.89765 3.09536 0
M  V30 5423 C 506.453 -2.95919 1.61038 0
M  V30 5424 O 506.983 -3.8857 1.01862 0
M  V30 5425 N 505.189 -2.58511 1.32741 0
M  V30 5426 H 504.736 -1.83244 1.81051 0
M  V30 5427 H 504.694 -3.08296 0.616531 0
M  V30 5428 N 508.466 -1.55915 -0.229846 0
M  V30 5429 C 509.712 -1.78807 -0.956868 0
M  V30 5430 C 510.045 -0.611687 -1.84315 0
M  V30 5431 O 509.32 0.389398 -1.90562 0
M  V30 5432 C 509.603 -3.11718 -1.80288 0
M  V30 5433 C 509.456 -4.3979 -0.943649 0
M  V30 5434 C 510.775 -3.40999 -2.78222 0
M  V30 5435 H 507.894 -0.6505 -0.346437 0
M  V30 5436 H 510.536 -1.88648 -0.226252 0
M  V30 5437 H 508.686 -3.03459 -2.42579 0
M  V30 5438 H 510.358 -4.60059 -0.338121 0
M  V30 5439 H 508.601 -4.33086 -0.248705 0
M  V30 5440 H 509.272 -5.29208 -1.5698 0
M  V30 5441 H 511.748 -3.49332 -2.26067 0
M  V30 5442 H 510.624 -4.35183 -3.34526 0
M  V30 5443 H 510.885 -2.62754 -3.55546 0
M  V30 5444 N 509.944 0.496216 -1.49584 0
M  V30 5445 C 510.854 1.62352 -1.69349 0
M  V30 5446 C 511.87 1.64184 -0.576147 0
M  V30 5447 O 513.046 1.82517 -0.85144 0
M  V30 5448 C 510.111 2.98698 -1.76013 0
M  V30 5449 C 509.172 3.07454 -2.99617 0
M  V30 5450 C 508.405 4.37296 -3.05953 0
M  V30 5451 O 508.628 5.2637 -2.19752 0
M  V30 5452 O 507.562 4.51124 -3.9846 0
M  V30 5453 H 511.388 1.48606 -2.64859 0
M  V30 5454 H 508.973 0.673022 -1.33382 0
M  V30 5455 H 510.855 3.79725 -1.82721 0
M  V30 5456 H 509.53 3.12696 -0.836828 0
M  V30 5457 H 508.437 2.25597 -2.98424 0
M  V30 5458 H 509.77 2.98385 -3.91443 0
M  V30 5459 N 511.423 1.38739 0.74761 0
M  V30 5460 C 512.355 1.32341 1.87132 0
M  V30 5461 C 513.368 0.234502 1.61102 0
M  V30 5462 O 514.557 0.492516 1.71571 0
M  V30 5463 C 511.657 1.02915 3.22896 0
M  V30 5464 C 510.83 2.22834 3.76383 0
M  V30 5465 C 509.889 1.90059 4.90677 0
M  V30 5466 O 508.915 2.62615 5.04997 0
M  V30 5467 N 510.117 0.859141 5.74107 0
M  V30 5468 H 512.882 2.29175 1.93129 0
M  V30 5469 H 510.443 1.32678 0.927805 0
M  V30 5470 H 512.435 0.79031 3.96908 0
M  V30 5471 H 511.005 0.148572 3.12247 0
M  V30 5472 H 510.225 2.62747 2.93867 0
M  V30 5473 H 511.513 3.02851 4.08851 0
M  V30 5474 H 510.911 0.257564 5.65113 0
M  V30 5475 H 509.468 0.680189 6.48241 0
M  V30 5476 N 512.901 -0.976442 1.23707 0
M  V30 5477 C 513.864 -2.0511 1.02287 0
M  V30 5478 C 514.864 -1.60791 -0.0167195 0
M  V30 5479 O 516.054 -1.72761 0.223408 0
M  V30 5480 C 513.186 -3.36458 0.548507 0
M  V30 5481 H 514.379 -2.25545 1.9766 0
M  V30 5482 H 511.932 -1.15042 1.05806 0
M  V30 5483 H 512.667 -3.21713 -0.408818 0
M  V30 5484 H 512.452 -3.69967 1.29874 0
M  V30 5485 H 513.942 -4.15489 0.419406 0
M  V30 5486 N 514.379 -1.04941 -1.1758 0
M  V30 5487 C 515.619 -0.766996 -1.89464 0
M  V30 5488 C 515.983 0.693123 -1.79053 0
M  V30 5489 O 517.184 1.08953 -2.45729 0
M  V30 5490 C 515.455 -1.23108 -3.35528 0
M  V30 5491 S 517.014 -1.07565 -4.25412 0
M  V30 5492 H 513.832 -0.278616 -0.654136 0
M  V30 5493 H 516.434 -1.34352 -1.4202 0
M  V30 5494 H 515.138 -2.28896 -3.40639 0
M  V30 5495 H 514.669 -0.648724 -3.88014 0
M  V30 5496 H 516.684 0.00169467 -4.962 0
M  V30 5497 N 515.857 1.33968 -0.830081 0
M  V30 5498 C 517.087 2.01987 -0.434142 0
M  V30 5499 C 517.495 1.62639 0.96671 0
M  V30 5500 O 516.838 0.831151 1.63822 0
M  V30 5501 C 516.9 3.5648 -0.465018 0
M  V30 5502 C 516.564 4.19176 -1.82045 0
M  V30 5503 C 517.561 4.39181 -2.78237 0
M  V30 5504 C 515.246 4.55792 -2.11089 0
M  V30 5505 C 517.24 4.94937 -4.01642 0
M  V30 5506 C 514.927 5.11258 -3.34752 0
M  V30 5507 C 515.925 5.30775 -4.29845 0
M  V30 5508 O 515.613 5.85064 -5.51322 0
M  V30 5509 H 515.345 0.653847 -0.171639 0
M  V30 5510 H 517.899 1.72066 -1.12171 0
M  V30 5511 H 516.129 3.8569 0.279284 0
M  V30 5512 H 517.818 4.05804 -0.0881334 0
M  V30 5513 H 518.584 4.11249 -2.57097 0
M  V30 5514 H 514.463 4.39901 -1.3787 0
M  V30 5515 H 518.007 5.10086 -4.75876 0
M  V30 5516 H 513.904 5.38619 -3.55753 0
M  V30 5517 H 514.672 6.03489 -5.5294 0
M  V30 5518 N 517.335 0.585699 1.46312 0
M  V30 5519 C 518.563 0.0781299 2.06752 0
M  V30 5520 C 518.978 -1.22812 1.43396 0
M  V30 5521 O 518.335 -1.74318 0.540314 0
M  V30 5522 C 518.386 -0.0911927 3.61385 0
M  V30 5523 O 518.107 1.16336 4.22371 0
M  V30 5524 C 519.608 -0.632765 4.38761 0
M  V30 5525 H 516.828 0.0588188 0.668417 0
M  V30 5526 H 519.372 0.807218 1.87894 0
M  V30 5527 H 517.527 -0.770514 3.7966 0
M  V30 5528 H 517.941 0.979082 5.15281 0
M  V30 5529 H 519.415 -0.70041 5.47538 0
M  V30 5530 H 519.892 -1.65039 4.07012 0
M  V30 5531 H 520.498 0.0117856 4.25298 0
M  V30 5532 N 518.813 -1.54241 0.323641 0
M  V30 5533 C 520.229 -1.59574 -0.0290018 0
M  V30 5534 C 520.429 -1.34017 -1.50472 0
M  V30 5535 O 519.485 -1.12464 -2.26071 0
M  V30 5536 C 520.798 -2.98169 0.389295 0
M  V30 5537 C 522.346 -3.11148 0.339958 0
M  V30 5538 C 522.821 -4.5209 0.733418 0
M  V30 5539 N 524.312 -4.5808 0.686827 0
M  V30 5540 C 525.047 -5.65248 0.963464 0
M  V30 5541 N 524.543 -6.80355 1.30724 0
M  V30 5542 N 526.336 -5.55025 0.88902 0
M  V30 5543 H 518.487 -1.6911 1.28512 0
M  V30 5544 H 520.75 -0.790972 0.522558 0
M  V30 5545 H 520.456 -3.21871 1.41746 0
M  V30 5546 H 520.33 -3.76399 -0.245657 0
M  V30 5547 H 522.717 -2.87182 -0.679002 0
M  V30 5548 H 522.798 -2.35023 1.00985 0
M  V30 5549 H 522.442 -4.76788 1.75029 0
M  V30 5550 H 522.372 -5.26584 0.0412189 0
M  V30 5551 H 524.863 -3.75411 0.43298 0
M  V30 5552 H 525.176 -7.58029 1.5037 0
M  V30 5553 H 523.521 -6.81851 1.3455 0
M  V30 5554 H 526.712 -4.63977 0.619939 0
M  V30 5555 H 526.885 -6.38458 1.10797 0
M  V30 5556 N 520.291 -0.0518155 -1.57515 0
M  V30 5557 C 521.568 0.661727 -1.84067 0
M  V30 5558 C 521.948 1.88999 -0.940351 0
M  V30 5559 O 521.296 2.285 -0.00155404 0
M  V30 5560 C 521.506 1.01841 -3.3381 0
M  V30 5561 C 522.854 1.40043 -4.00841 0
M  V30 5562 O 523.878 1.11073 -3.38439 0
M  V30 5563 O 522.737 1.94111 -5.10865 0
M  V30 5564 H 519.831 0.326702 -0.759733 0
M  V30 5565 H 522.377 -0.0812277 -1.69505 0
M  V30 5566 H 521.149 0.145202 -3.91031 0
M  V30 5567 H 520.772 1.81879 -3.53562 0
M  V30 5568 N 521.769 1.56035 0.221574 0
M  V30 5569 C 522.732 1.91584 1.2581 0
M  V30 5570 C 523.732 0.794425 1.39805 0
M  V30 5571 O 524.922 1.06217 1.38071 0
M  V30 5572 C 522.054 2.16663 2.63192 0
M  V30 5573 H 523.247 2.8429 0.954935 0
M  V30 5574 H 520.8 1.49316 0.461988 0
M  V30 5575 H 521.535 1.26508 2.98607 0
M  V30 5576 H 521.32 2.98358 2.5441 0
M  V30 5577 H 522.81 2.45262 3.37988 0
M  V30 5578 N 523.247 -0.488276 1.49845 0
M  V30 5579 C 524.177 -1.59675 1.70371 0
M  V30 5580 C 525.158 -1.60878 0.552473 0
M  V30 5581 O 526.343 -1.77417 0.78973 0
M  V30 5582 C 523.473 -2.98098 1.782 0
M  V30 5583 C 522.427 -3.11761 2.93239 0
M  V30 5584 C 521.753 -4.51661 2.86193 0
M  V30 5585 C 523.053 -2.90589 4.33999 0
M  V30 5586 H 524.747 -1.42752 2.63177 0
M  V30 5587 H 522.293 -0.685317 1.26647 0
M  V30 5588 H 524.246 -3.75555 1.91144 0
M  V30 5589 H 522.97 -3.16138 0.820018 0
M  V30 5590 H 521.629 -2.36732 2.79917 0
M  V30 5591 H 521.277 -4.66595 1.87877 0
M  V30 5592 H 520.977 -4.61742 3.63412 0
M  V30 5593 H 522.501 -5.31162 3.01163 0
M  V30 5594 H 523.915 -3.57807 4.47936 0
M  V30 5595 H 522.312 -3.1213 5.12538 0
M  V30 5596 H 523.382 -1.86595 4.4756 0
M  V30 5597 N 524.725 -1.39134 -0.740242 0
M  V30 5598 C 525.688 -1.37217 -1.83587 0
M  V30 5599 C 526.688 -0.270221 -1.58513 0
M  V30 5600 O 527.878 -0.527843 -1.6601 0
M  V30 5601 C 525.01 -1.13959 -3.21288 0
M  V30 5602 H 526.203 -2.34705 -1.86691 0
M  V30 5603 H 523.756 -1.24622 -0.94335 0
M  V30 5604 H 524.491 -0.17131 -3.23847 0
M  V30 5605 H 524.276 -1.93754 -3.40884 0
M  V30 5606 H 525.766 -1.15346 -4.01354 0
M  V30 5607 N 526.204 0.969867 -1.24223 0
M  V30 5608 C 527.151 2.06407 -1.0327 0
M  V30 5609 C 528.121 1.66014 0.0533 0
M  V30 5610 O 529.306 1.90533 -0.100896 0
M  V30 5611 C 526.446 3.3909 -0.641262 0
M  V30 5612 C 525.559 3.9269 -1.80051 0
M  V30 5613 C 524.694 5.13631 -1.35486 0
M  V30 5614 C 523.733 5.59423 -2.48419 0
M  V30 5615 N 522.87 6.71586 -2.04737 0
M  V30 5616 H 527.71 2.23663 -1.96923 0
M  V30 5617 H 525.247 1.09624 -0.980862 0
M  V30 5618 H 527.205 4.15323 -0.395351 0
M  V30 5619 H 525.835 3.21765 0.258269 0
M  V30 5620 H 524.887 3.13116 -2.16014 0
M  V30 5621 H 526.199 4.22636 -2.64916 0
M  V30 5622 H 525.353 5.97231 -1.0677 0
M  V30 5623 H 524.092 4.85364 -0.476722 0
M  V30 5624 H 523.097 4.74398 -2.77897 0
M  V30 5625 H 524.322 5.89705 -3.36786 0
M  V30 5626 H 522.268 6.45058 -1.19318 0
M  V30 5627 H 522.185 7.0097 -2.83156 0
M  V30 5628 H 523.453 7.58633 -1.79154 0
M  V30 5629 N 527.682 1.05563 1.17022 0
M  V30 5630 C 528.645 0.664098 2.19368 0
M  V30 5631 C 529.645 -0.286358 1.5823 0
M  V30 5632 O 530.835 -0.069728 1.7406 0
M  V30 5633 C 527.967 -0.0239932 3.40892 0
M  V30 5634 H 529.16 1.57 2.55521 0
M  V30 5635 H 526.713 0.849964 1.31169 0
M  V30 5636 H 527.448 -0.942988 3.10287 0
M  V30 5637 H 527.233 0.659351 3.86516 0
M  V30 5638 H 528.723 -0.283909 4.16634 0
M  V30 5639 N 529.16 -1.33526 0.837174 0
M  V30 5640 C 530.09 -2.31764 0.284206 0
M  V30 5641 C 531.071 -1.58896 -0.607142 0
M  V30 5642 O 532.256 -1.86798 -0.531047 0
M  V30 5643 C 529.386 -3.43029 -0.542962 0
M  V30 5644 C 528.34 -4.27255 0.252451 0
M  V30 5645 C 527.666 -5.3012 -0.69836 0
M  V30 5646 C 528.966 -5.01229 1.46858 0
M  V30 5647 H 530.66 -2.78262 1.10502 0
M  V30 5648 H 528.206 -1.3378 0.532812 0
M  V30 5649 H 530.159 -4.1078 -0.940096 0
M  V30 5650 H 528.883 -2.95216 -1.39697 0
M  V30 5651 H 527.542 -3.61127 0.631124 0
M  V30 5652 H 527.19 -4.78564 -1.54872 0
M  V30 5653 H 526.89 -5.87353 -0.170274 0
M  V30 5654 H 528.414 -6.00737 -1.09305 0
M  V30 5655 H 529.828 -5.61756 1.14469 0
M  V30 5656 H 528.225 -5.68104 1.93333 0
M  V30 5657 H 529.295 -4.301 2.23924 0
M  V30 5658 N 530.638 -0.59345 -1.46 0
M  V30 5659 C 531.588 0.154751 -2.27474 0
M  V30 5660 C 532.572 0.851849 -1.365 0
M  V30 5661 O 533.764 0.744171 -1.60596 0
M  V30 5662 C 530.893 1.16079 -3.2308 0
M  V30 5663 C 529.979 0.465256 -4.2154 0
M  V30 5664 N 530.37 -0.485197 -5.03467 0
M  V30 5665 C 528.668 0.714634 -4.40237 0
M  V30 5666 C 529.369 -0.892709 -5.74809 0
M  V30 5667 N 528.345 -0.239511 -5.43072 0
M  V30 5668 H 532.147 -0.57546 -2.88211 0
M  V30 5669 H 529.661 -0.416046 -1.5698 0
M  V30 5670 H 531.658 1.71108 -3.80168 0
M  V30 5671 H 530.318 1.89171 -2.63903 0
M  V30 5672 H 531.329 -0.861258 -5.10689 0
M  V30 5673 H 528.006 1.43131 -3.92199 0
M  V30 5674 H 529.396 -1.67581 -6.50666 0
M  V30 5675 N 532.116 1.54067 -0.331816 0
M  V30 5676 C 533.079 2.23275 0.517768 0
M  V30 5677 C 534.079 1.22897 1.03697 0
M  V30 5678 O 535.269 1.47419 0.928084 0
M  V30 5679 C 532.401 2.94326 1.72004 0
M  V30 5680 H 533.594 2.99773 -0.0873507 0
M  V30 5681 H 531.147 1.56079 -0.0830042 0
M  V30 5682 H 531.882 2.21986 2.36417 0
M  V30 5683 H 531.667 3.67941 1.35507 0
M  V30 5684 H 533.157 3.47031 2.32291 0
M  V30 5685 N 533.594 0.0601682 1.57485 0
M  V30 5686 C 535.01 -0.296422 1.56823 0
M  V30 5687 C 535.21 -1.70831 1.0686 0
M  V30 5688 O 534.266 -2.4174 0.729245 0
M  V30 5689 C 535.579 -0.116681 3.00474 0
M  V30 5690 C 537.127 -0.187103 3.1244 0
M  V30 5691 C 537.602 -0.035783 4.57986 0
M  V30 5692 N 539.093 -0.0917676 4.63109 0
M  V30 5693 C 539.828 0.00107251 5.734 0
M  V30 5694 N 539.324 0.146773 6.92645 0
M  V30 5695 N 541.117 -0.0551577 5.62073 0
M  V30 5696 H 533.268 0.983055 1.88281 0
M  V30 5697 H 535.531 0.382386 0.867459 0
M  V30 5698 H 535.237 0.85712 3.41096 0
M  V30 5699 H 535.111 -0.873929 3.66936 0
M  V30 5700 H 537.498 -1.15138 2.71712 0
M  V30 5701 H 537.579 0.601052 2.48638 0
M  V30 5702 H 537.223 0.925212 4.99402 0
M  V30 5703 H 537.153 -0.843196 5.19806 0
M  V30 5704 H 539.644 -0.203261 3.77353 0
M  V30 5705 H 539.957 0.210076 7.72514 0
M  V30 5706 H 538.302 0.181979 6.94762 0
M  V30 5707 H 541.493 -0.167605 4.678 0
M  V30 5708 H 541.666 0.020652 6.47997 0
M  V30 5709 N 535.072 -1.5615 -0.213296 0
M  V30 5710 C 536.318 -1.79812 -0.937849 0
M  V30 5711 C 536.651 -0.631201 -1.83656 0
M  V30 5712 O 535.926 0.369165 -1.90964 0
M  V30 5713 C 536.209 -3.13613 -1.76972 0
M  V30 5714 C 536.062 -4.40766 -0.89695 0
M  V30 5715 C 537.381 -3.43931 -2.7459 0
M  V30 5716 H 534.5 -0.654138 -0.339518 0
M  V30 5717 H 537.142 -1.88877 -0.20623 0
M  V30 5718 H 535.292 -3.06015 -2.39347 0
M  V30 5719 H 536.964 -4.60392 -0.289306 0
M  V30 5720 H 535.207 -4.33326 -0.202756 0
M  V30 5721 H 535.878 -5.30843 -1.51358 0
M  V30 5722 H 538.354 -3.5171 -2.22349 0
M  V30 5723 H 537.23 -4.38706 -3.29891 0
M  V30 5724 H 537.491 -2.6651 -3.52739 0
M  V30 5725 N 536.55 0.480323 -1.50102 0
M  V30 5726 C 537.797 1.23307 -1.60629 0
M  V30 5727 C 538.125 1.92135 -0.302375 0
M  V30 5728 O 537.38 1.82321 0.711154 0
M  V30 5729 C 537.679 2.30708 -2.72963 0
M  V30 5730 C 537.345 1.79195 -4.13763 0
M  V30 5731 C 536.007 1.64867 -4.52076 0
M  V30 5732 C 538.359 1.40878 -5.018 0
M  V30 5733 C 535.687 1.10631 -5.76175 0
M  V30 5734 C 538.039 0.880872 -6.26437 0
M  V30 5735 C 536.703 0.724146 -6.6356 0
M  V30 5736 H 535.973 0.451211 -0.587784 0
M  V30 5737 H 538.62 0.53051 -1.84005 0
M  V30 5738 H 536.925 3.06834 -2.43639 0
M  V30 5739 H 538.622 2.88692 -2.78313 0
M  V30 5740 H 535.212 1.91313 -3.83533 0
M  V30 5741 H 539.396 1.50786 -4.7284 0
M  V30 5742 H 534.652 0.972263 -6.0362 0
M  V30 5743 H 538.826 0.575269 -6.9402 0
M  V30 5744 H 536.453 0.301722 -7.59601 0
M  V30 5745 N 538.028 1.39524 0.732853 0
M  V30 5746 C 539.305 1.27373 1.48444 0
M  V30 5747 C 539.685 -0.115725 2.10783 0
M  V30 5748 O 539.033 -1.12713 1.98766 0
M  V30 5749 C 539.243 2.39966 2.53412 0
M  V30 5750 C 540.591 2.79384 3.19733 0
M  V30 5751 O 541.615 2.39431 2.63725 0
M  V30 5752 O 540.474 3.48353 4.21085 0
M  V30 5753 H 537.568 0.499272 0.659285 0
M  V30 5754 H 540.114 1.51403 0.766496 0
M  V30 5755 H 538.886 3.32845 2.05742 0
M  V30 5756 H 538.509 2.17612 3.32762 0
M  V30 5757 N 539.506 -0.963266 1.24736 0
M  V30 5758 C 540.753 -1.7068 1.0897 0
M  V30 5759 C 541.081 -1.90934 -0.370751 0
M  V30 5760 O 540.336 -1.47155 -1.29011 0
M  V30 5761 C 540.635 -3.09944 1.7796 0
M  V30 5762 C 540.301 -3.09518 3.27887 0
M  V30 5763 C 538.963 -3.09109 3.68789 0
M  V30 5764 C 541.315 -3.03509 4.23712 0
M  V30 5765 C 538.643 -3.00429 5.03944 0
M  V30 5766 C 540.995 -2.96371 5.5888 0
M  V30 5767 C 539.659 -2.94293 5.99123 0
M  V30 5768 H 538.929 -0.624564 0.398749 0
M  V30 5769 H 541.576 -1.12603 1.54896 0
M  V30 5770 H 539.881 -3.71513 1.2444 0
M  V30 5771 H 541.578 -3.66278 1.63222 0
M  V30 5772 H 538.168 -3.10603 2.95337 0
M  V30 5773 H 542.352 -3.0295 3.93109 0
M  V30 5774 H 537.608 -2.97183 5.34314 0
M  V30 5775 H 541.782 -2.90681 6.32833 0
M  V30 5776 H 539.409 -2.87322 7.03811 0
M  V30 5777 N 540.985 -1.06182 -1.16461 0
M  V30 5778 C 541.915 -0.692861 -2.22984 0
M  V30 5779 C 542.896 0.314122 -1.67174 0
M  V30 5780 O 544.081 0.189499 -1.93273 0
M  V30 5781 C 541.211 -0.07732 -3.47214 0
M  V30 5782 C 540.165 -1.01015 -4.15909 0
M  V30 5783 C 539.491 -0.257973 -5.34077 0
M  V30 5784 C 540.791 -2.33868 -4.67015 0
M  V30 5785 H 542.485 -1.58343 -2.54102 0
M  V30 5786 H 540.031 -0.76279 -1.22137 0
M  V30 5787 H 541.984 0.19266 -4.20959 0
M  V30 5788 H 540.708 0.848254 -3.15392 0
M  V30 5789 H 539.367 -1.26486 -3.44088 0
M  V30 5790 H 539.015 0.670684 -4.98509 0
M  V30 5791 H 538.715 -0.879638 -5.80979 0
M  V30 5792 H 540.239 0.00448788 -6.106 0
M  V30 5793 H 541.653 -2.1279 -5.32347 0
M  V30 5794 H 540.05 -2.91522 -5.24533 0
M  V30 5795 H 541.12 -2.97019 -3.83286 0
M  V30 5796 N 542.463 1.3308 -0.844243 0
M  V30 5797 C 543.709 1.97898 -0.443206 0
M  V30 5798 C 544.042 1.66699 0.99625 0
M  V30 5799 O 543.317 0.949704 1.69738 0
M  V30 5800 C 543.6 3.53801 -0.670606 0
M  V30 5801 C 543.453 3.94667 -2.15772 0
M  V30 5802 C 544.772 4.39936 -0.120226 0
M  V30 5803 H 541.891 0.718861 -0.162504 0
M  V30 5804 H 544.533 1.57633 -1.06075 0
M  V30 5805 H 542.683 3.88229 -0.14496 0
M  V30 5806 H 544.355 3.70469 -2.74865 0
M  V30 5807 H 542.598 3.44203 -2.6402 0
M  V30 5808 H 543.269 5.03275 -2.26757 0
M  V30 5809 H 545.745 4.12183 -0.5696 0
M  V30 5810 H 544.621 5.4803 -0.308984 0
M  V30 5811 H 544.882 4.31184 0.976347 0
M  V30 5812 N 543.941 0.601185 1.45683 0
M  V30 5813 C 545.218 0.0261659 1.95582 0
M  V30 5814 C 545.598 -1.4399 1.5437 0
M  V30 5815 O 544.946 -2.13919 0.80318 0
M  V30 5816 C 545.156 0.217557 3.48321 0
M  V30 5817 C 546.504 0.0950076 4.24494 0
M  V30 5818 O 547.528 0.147345 3.55895 0
M  V30 5819 O 546.387 -0.025261 5.46494 0
M  V30 5820 H 543.481 -0.0393688 0.826062 0
M  V30 5821 H 546.027 0.670798 1.55879 0
M  V30 5822 H 544.799 1.23601 3.71266 0
M  V30 5823 H 544.422 -0.46264 3.94899 0
M  V30 5824 N 545.419 -1.53889 0.339982 0
M  V30 5825 C 546.644 -2.05741 -0.261798 0
M  V30 5826 C 547.069 -1.21354 -1.43718 0
M  V30 5827 O 546.427 -0.22645 -1.7988 0
M  V30 5828 C 546.475 -3.54542 -0.658228 0
M  V30 5829 O 545.579 -3.7302 -1.75869 0
M  V30 5830 H 544.92 -0.662529 -0.0441672 0
M  V30 5831 H 547.45 -1.98568 0.493161 0
M  V30 5832 H 547.46 -3.9711 -0.936368 0
M  V30 5833 H 546.135 -4.15412 0.201358 0
M  V30 5834 H 544.712 -3.42355 -1.47809 0
M  V30 5835 N 546.897 -0.0685191 -1.57451 0
M  V30 5836 C 548.146 0.600898 -1.92541 0
M  V30 5837 C 548.459 1.70967 -0.950239 0
M  V30 5838 O 549.665 2.43844 -1.19384 0
M  V30 5839 C 548.121 1.12019 -3.42023 0
M  V30 5840 C 547.729 0.0426028 -4.4798 0
M  V30 5841 C 549.473 1.76386 -3.86119 0
M  V30 5842 C 547.38 0.575759 -5.88591 0
M  V30 5843 H 546.31 0.228225 -0.71863 0
M  V30 5844 H 548.961 -0.140223 -1.82963 0
M  V30 5845 H 547.343 1.91418 -3.46663 0
M  V30 5846 H 548.517 -0.73182 -4.54952 0
M  V30 5847 H 546.832 -0.504642 -4.13331 0
M  V30 5848 H 549.429 2.17302 -4.88553 0
M  V30 5849 H 549.772 2.62255 -3.23308 0
M  V30 5850 H 550.305 1.03615 -3.84069 0
M  V30 5851 H 547.044 -0.245691 -6.55039 0
M  V30 5852 H 546.564 1.31778 -5.85145 0
M  V30 5853 H 548.243 1.0532 -6.3837 0
M  V30 5854 N 548.375 1.56261 0.205012 0
M  V30 5855 C 549.323 1.94631 1.27364 0
M  V30 5856 C 550.317 0.830434 1.47649 0
M  V30 5857 O 551.523 1.01538 1.48627 0
M  V30 5858 H 547.898 0.618755 0.427371 0
M  V30 5859 H 549.869 2.83768 0.922941 0
M  V30 5860 C 548.618 2.29358 2.61324 0
M  V30 5861 H 547.941 3.14744 2.46528 0
M  V30 5862 H 549.381 2.60076 3.34868 0
M  V30 5863 C 547.84 1.12461 3.17575 0
M  V30 5864 O 548.37 0.394407 3.99759 0
M  V30 5865 N 546.576 0.904036 2.7618 0
M  V30 5866 H 546.123 1.49956 2.09454 0
M  V30 5867 H 546.081 0.123662 3.14157 0
M  V30 5868 N 549.853 -0.472356 1.50355 0
M  V30 5869 C 550.8 -1.57051 1.69126 0
M  V30 5870 C 551.77 -1.5733 0.532574 0
M  V30 5871 O 552.955 -1.7488 0.762994 0
M  V30 5872 C 550.095 -2.95033 1.79024 0
M  V30 5873 C 549.208 -3.04552 3.06386 0
M  V30 5874 C 548.343 -4.33441 3.07087 0
M  V30 5875 C 547.382 -4.36697 4.28908 0
M  V30 5876 N 546.519 -5.57056 4.27356 0
M  V30 5877 H 551.359 -1.40351 2.62879 0
M  V30 5878 H 548.896 -0.682403 1.30314 0
M  V30 5879 H 550.854 -3.75048 1.82744 0
M  V30 5880 H 549.484 -3.10371 0.887109 0
M  V30 5881 H 548.536 -2.17419 3.12143 0
M  V30 5882 H 549.848 -3.02818 3.96362 0
M  V30 5883 H 549.002 -5.21801 3.09529 0
M  V30 5884 H 547.741 -4.37782 2.14939 0
M  V30 5885 H 546.746 -3.46734 4.2668 0
M  V30 5886 H 547.971 -4.34049 5.22282 0
M  V30 5887 H 545.917 -5.62184 3.3806 0
M  V30 5888 H 545.834 -5.57058 5.111 0
M  V30 5889 H 547.102 -6.47545 4.33942 0
M  V30 5890 N 551.331 -1.39911 -0.725443 0
M  V30 5891 C 552.294 -1.39156 -1.82121 0
M  V30 5892 C 553.294 -0.287018 -1.58218 0
M  V30 5893 O 554.484 -0.545421 -1.65441 0
M  V30 5894 C 551.616 -1.1736 -3.20062 0
M  V30 5895 H 552.809 -2.36672 -1.84191 0
M  V30 5896 H 550.362 -1.25615 -0.930079 0
M  V30 5897 H 551.097 -0.205648 -3.23647 0
M  V30 5898 H 550.882 -1.97358 -3.3881 0
M  V30 5899 H 552.372 -1.19596 -4.00108 0
M  V30 5900 N 552.809 0.956637 -1.25245 0
M  V30 5901 C 553.742 2.05232 -0.99775 0
M  V30 5902 C 554.72 1.62439 0.0723137 0
M  V30 5903 O 555.904 1.88381 -0.066926 0
M  V30 5904 C 553.031 3.34871 -0.507861 0
M  V30 5905 C 552.077 3.96625 -1.56815 0
M  V30 5906 S 552.91 4.32853 -3.15276 0
M  V30 5907 C 554.066 5.65613 -2.68017 0
M  V30 5908 H 554.299 2.26521 -1.9255 0
M  V30 5909 H 551.832 1.09601 -1.08752 0
M  V30 5910 H 553.79 4.09845 -0.231858 0
M  V30 5911 H 552.451 3.11551 0.399356 0
M  V30 5912 H 551.644 4.90087 -1.17604 0
M  V30 5913 H 551.246 3.28124 -1.79473 0
M  V30 5914 H 553.538 6.43635 -2.11518 0
M  V30 5915 H 554.481 6.09693 -3.60112 0
M  V30 5916 H 554.889 5.24751 -2.0808 0
M  V30 5917 N 554.287 1.06798 1.15896 0
M  V30 5918 C 555.197 0.694564 2.24083 0
M  V30 5919 C 556.213 -0.291687 1.71538 0
M  V30 5920 O 557.389 -0.139723 2.00915 0
M  V30 5921 C 554.454 0.0921014 3.46578 0
M  V30 5922 C 553.515 1.13087 4.14137 0
M  V30 5923 C 552.748 0.557064 5.30785 0
M  V30 5924 O 552.971 -0.628623 5.66925 0
M  V30 5925 O 551.905 1.29924 5.8771 0
M  V30 5926 H 555.731 1.59663 2.58344 0
M  V30 5927 H 553.316 0.840575 1.2351 0
M  V30 5928 H 555.198 -0.241884 4.20705 0
M  V30 5929 H 553.873 -0.78337 3.14078 0
M  V30 5930 H 552.78 1.51712 3.41957 0
M  V30 5931 H 554.113 1.97805 4.50704 0
M  V30 5932 N 555.766 -1.3263 0.851289 0
M  V30 5933 C 556.713 -2.28952 0.291469 0
M  V30 5934 C 557.683 -1.54897 -0.599676 0
M  V30 5935 O 558.868 -1.83137 -0.535305 0
M  V30 5936 C 556.008 -3.41206 -0.516992 0
M  V30 5937 C 555.121 -4.30148 0.399566 0
M  V30 5938 C 554.256 -5.29527 -0.4212 0
M  V30 5939 C 553.295 -6.10112 0.492969 0
M  V30 5940 N 552.432 -7.01499 -0.290414 0
M  V30 5941 H 557.272 -2.76228 1.11813 0
M  V30 5942 H 554.809 -1.35907 0.562826 0
M  V30 5943 H 556.767 -4.05005 -1.00132 0
M  V30 5944 H 555.397 -2.9509 -1.30851 0
M  V30 5945 H 554.449 -3.66959 1.00227 0
M  V30 5946 H 555.761 -4.8649 1.1013 0
M  V30 5947 H 554.915 -5.98914 -0.968832 0
M  V30 5948 H 553.654 -4.73794 -1.15632 0
M  V30 5949 H 552.659 -5.39632 1.05251 0
M  V30 5950 H 553.884 -6.6793 1.22664 0
M  V30 5951 H 551.83 -6.48199 -1.00868 0
M  V30 5952 H 551.747 -7.55178 0.352354 0
M  V30 5953 H 553.015 -7.75176 -0.819882 0
M  V30 5954 N 557.244 -0.608902 -1.45362 0
M  V30 5955 C 558.521 -0.0365378 -1.95566 0
M  V30 5956 C 558.901 1.43169 -1.55131 0
M  V30 5957 O 558.249 2.1349 -0.814513 0
M  V30 5958 C 558.459 -0.236026 -3.48201 0
M  V30 5959 C 559.807 -0.117518 -4.24437 0
M  V30 5960 O 560.831 -0.166217 -3.55812 0
M  V30 5961 O 559.69 -0.00372127 -5.465 0
M  V30 5962 H 556.784 0.0349874 -0.82626 0
M  V30 5963 H 559.33 -0.679055 -1.55521 0
M  V30 5964 H 558.102 -1.25569 -3.70605 0
M  V30 5965 H 557.725 0.441691 -3.95139 0
M  V30 5966 N 558.722 1.53707 -0.348139 0
M  V30 5967 C 559.672 2.2193 0.522592 0
M  V30 5968 C 560.656 1.20831 1.06248 0
M  V30 5969 O 561.848 1.46357 0.995415 0
M  V30 5970 C 558.977 2.99904 1.6707 0
M  V30 5971 C 558.063 4.08364 1.14454 0
M  V30 5972 N 558.454 5.04656 0.339958 0
M  V30 5973 C 556.752 4.22757 1.421 0
M  V30 5974 C 557.453 5.81675 0.0538806 0
M  V30 5975 N 556.429 5.39739 0.646776 0
M  V30 5976 H 560.231 2.93733 -0.099135 0
M  V30 5977 H 557.745 1.61656 -0.15524 0
M  V30 5978 H 559.742 3.47284 2.30651 0
M  V30 5979 H 558.402 2.29629 2.29566 0
M  V30 5980 H 559.413 5.17896 -0.0193552 0
M  V30 5981 H 556.09 3.63704 2.05002 0
M  V30 5982 H 557.48 6.69256 -0.595443 0
M  V30 5983 N 560.2 0.0768682 1.57412 0
M  V30 5984 C 561.11 -0.903207 2.16516 0
M  V30 5985 C 562.126 -1.32341 1.12968 0
M  V30 5986 O 563.302 -1.39507 1.45258 0
M  V30 5987 C 560.367 -2.1508 2.71922 0
M  V30 5988 C 559.428 -1.78653 3.90361 0
M  V30 5989 C 558.661 -2.97465 4.43114 0
M  V30 5990 O 558.884 -4.11638 3.94854 0
M  V30 5991 O 557.818 -2.76987 5.3438 0
M  V30 5992 H 561.644 -0.430427 3.00634 0
M  V30 5993 H 559.229 -0.146485 1.4868 0
M  V30 5994 H 561.111 -2.8823 3.07411 0
M  V30 5995 H 559.786 -2.61446 1.9086 0
M  V30 5996 H 558.693 -1.0274 3.59716 0
M  V30 5997 H 560.026 -1.37066 4.7273 0
M  V30 5998 N 561.678 -1.56367 -0.196722 0
M  V30 5999 C 562.588 -1.97617 -1.2643 0
M  V30 6000 C 563.604 -0.883598 -1.49895 0
M  V30 6001 O 564.78 -1.18921 -1.62541 0
M  V30 6002 C 561.845 -2.30595 -2.58895 0
M  V30 6003 C 560.906 -3.53551 -2.43516 0
M  V30 6004 C 560.139 -3.84946 -3.69665 0
M  V30 6005 O 560.362 -3.17655 -4.73763 0
M  V30 6006 O 559.296 -4.78379 -3.65291 0
M  V30 6007 H 563.122 -2.88648 -0.944233 0
M  V30 6008 H 560.707 -1.43901 -0.401592 0
M  V30 6009 H 562.589 -2.52889 -3.37083 0
M  V30 6010 H 561.264 -1.42732 -2.90533 0
M  V30 6011 H 560.171 -3.36507 -1.63445 0
M  V30 6012 H 561.504 -4.41875 -2.16812 0
M  V30 6013 N 563.156 0.464375 -1.50603 0
M  V30 6014 C 564.386 1.23727 -1.65454 0
M  V30 6015 C 564.794 1.86119 -0.340032 0
M  V30 6016 O 564.137 1.70301 0.688706 0
M  V30 6017 C 564.199 2.38153 -2.69301 0
M  V30 6018 C 563.863 1.96345 -4.12671 0
M  V30 6019 C 564.86 1.48215 -4.98326 0
M  V30 6020 C 562.545 2.04861 -4.58625 0
M  V30 6021 C 564.539 1.09152 -6.27985 0
M  V30 6022 C 562.226 1.65409 -5.88288 0
M  V30 6023 C 563.224 1.17634 -6.72794 0
M  V30 6024 O 562.912 0.787312 -8.00035 0
M  V30 6025 H 562.644 0.380075 -0.559034 0
M  V30 6026 H 565.198 0.559919 -1.97621 0
M  V30 6027 H 563.428 3.09081 -2.32392 0
M  V30 6028 H 565.117 3.00099 -2.73304 0
M  V30 6029 H 565.883 1.41052 -4.64036 0
M  V30 6030 H 561.762 2.40996 -3.92991 0
M  V30 6031 H 565.306 0.717909 -6.93896 0
M  V30 6032 H 561.203 1.72233 -6.22098 0
M  V30 6033 H 561.971 0.915567 -8.13363 0
M  V30 6034 N 564.634 1.40294 0.718013 0
M  V30 6035 C 565.582 1.40536 1.85344 0
M  V30 6036 C 566.576 0.286192 1.66965 0
M  V30 6037 O 567.782 0.457105 1.74099 0
M  V30 6038 H 564.157 0.439236 0.61039 0
M  V30 6039 H 566.128 2.36275 1.82255 0
M  V30 6040 C 564.877 1.28245 3.23185 0
M  V30 6041 H 564.2 2.1364 3.37932 0
M  V30 6042 H 565.64 1.32474 4.02774 0
M  V30 6043 C 564.099 -0.0075503 3.36899 0
M  V30 6044 O 564.629 -0.971391 3.89778 0
M  V30 6045 N 562.835 -0.0762479 2.905 0
M  V30 6046 H 562.382 0.708819 2.47656 0
M  V30 6047 H 562.34 -0.938846 3.00055 0
M  V30 6048 N 566.112 -0.949982 1.2575 0
M  V30 6049 C 567.361 -1.68956 1.10168 0
M  V30 6050 C 567.674 -1.92327 -0.356309 0
M  V30 6051 O 568.88 -2.64026 -0.632657 0
M  V30 6052 C 567.336 -3.04196 1.92336 0
M  V30 6053 C 566.944 -2.88603 3.42655 0
M  V30 6054 C 568.688 -3.81904 1.85336 0
M  V30 6055 C 566.595 -4.19262 4.17101 0
M  V30 6056 H 565.525 -0.633645 0.408668 0
M  V30 6057 H 568.176 -1.05719 1.49986 0
M  V30 6058 H 566.558 -3.68363 1.45344 0
M  V30 6059 H 567.732 -2.3334 3.97353 0
M  V30 6060 H 566.047 -2.24345 3.50796 0
M  V30 6061 H 568.644 -4.78688 2.38248 0
M  V30 6062 H 568.987 -4.08099 0.822226 0
M  V30 6063 H 569.52 -3.24495 2.30104 0
M  V30 6064 H 566.259 -3.98254 5.20648 0
M  V30 6065 H 565.779 -4.74273 3.67186 0
M  V30 6066 H 567.458 -4.87775 4.25071 0
M  V30 6067 N 567.59 -1.07411 -1.15328 0
M  V30 6068 C 568.838 -0.796073 -1.85761 0
M  V30 6069 C 569.159 0.679864 -1.82764 0
M  V30 6070 O 568.429 1.49242 -1.269 0
M  V30 6071 H 567.009 -0.291495 -0.687779 0
M  V30 6072 H 569.671 -1.35799 -1.39802 0
M  V30 6073 H 568.767 -1.13114 -2.90881 0
M  V30 6074 N 569.068 1.32177 -0.85831 0
M  V30 6075 C 570.314 1.97417 -0.46417 0
M  V30 6076 C 570.647 1.67746 0.978514 0
M  V30 6077 O 569.922 0.967654 1.68721 0
M  V30 6078 C 570.205 3.53069 -0.708094 0
M  V30 6079 C 570.058 3.92357 -2.19946 0
M  V30 6080 C 571.377 4.39783 -0.166881 0
M  V30 6081 H 568.496 0.717097 -0.17012 0
M  V30 6082 H 571.138 1.56499 -1.07741 0
M  V30 6083 H 569.288 3.88054 -0.186128 0
M  V30 6084 H 570.96 3.67533 -2.78779 0
M  V30 6085 H 569.203 3.41384 -2.67656 0
M  V30 6086 H 569.874 5.00841 -2.32082 0
M  V30 6087 H 572.35 4.11556 -0.613285 0
M  V30 6088 H 571.226 5.47671 -0.367093 0
M  V30 6089 H 571.487 4.32196 0.930559 0
M  V30 6090 N 570.547 0.616602 1.45037 0
M  V30 6091 C 571.477 -0.0840787 2.33349 0
M  V30 6092 C 572.458 -0.849641 1.4736 0
M  V30 6093 O 573.643 -0.818407 1.76113 0
M  V30 6094 C 570.773 -1.07604 3.3021 0
M  V30 6095 C 569.727 -0.423096 4.25904 0
M  V30 6096 C 569.053 -1.52394 5.12523 0
M  V30 6097 C 570.353 0.661457 5.18095 0
M  V30 6098 H 572.047 0.653333 2.92185 0
M  V30 6099 H 569.593 0.315634 1.40498 0
M  V30 6100 H 571.546 -1.57485 3.90866 0
M  V30 6101 H 570.27 -1.84416 2.69552 0
M  V30 6102 H 568.929 0.05493 3.66559 0
M  V30 6103 H 568.577 -2.28257 4.48227 0
M  V30 6104 H 568.277 -1.09251 5.77354 0
M  V30 6105 H 569.801 -2.02485 5.76049 0
M  V30 6106 H 571.215 0.246353 5.7277 0
M  V30 6107 H 569.612 1.01517 5.91451 0
M  V30 6108 H 570.682 1.53446 4.59981 0
M  V30 6109 N 572.025 -1.5352 0.356285 0
M  V30 6110 C 573.302 -1.93405 -0.292223 0
M  V30 6111 C 573.682 -1.28901 -1.67176 0
M  V30 6112 O 573.03 -0.444632 -2.24132 0
M  V30 6113 C 573.24 -3.47223 -0.35175 0
M  V30 6114 C 574.588 -4.20389 -0.596534 0
M  V30 6115 O 575.612 -3.53554 -0.433344 0
M  V30 6116 O 574.471 -5.3881 -0.913589 0
M  V30 6117 H 571.565 -0.808666 -0.173172 0
M  V30 6118 H 574.111 -1.64713 0.408391 0
M  V30 6119 H 572.883 -3.86423 0.615841 0
M  V30 6120 H 572.506 -3.8212 -1.09864 0
M  V30 6121 N 573.503 -0.0852151 -1.57369 0
M  V30 6122 C 574.752 0.580443 -1.93168 0
M  V30 6123 C 575.065 1.6995 -0.968319 0
M  V30 6124 O 576.271 2.42564 -1.21963 0
M  V30 6125 C 574.727 1.08386 -3.43192 0
M  V30 6126 C 574.335 -0.00491388 -4.48 0
M  V30 6127 C 576.079 1.72281 -3.87968 0
M  V30 6128 C 573.986 0.513299 -5.89168 0
M  V30 6129 H 572.916 0.22059 -0.72101 0
M  V30 6130 H 575.567 -0.159621 -1.82804 0
M  V30 6131 H 573.949 1.8773 -3.48674 0
M  V30 6132 H 575.123 -0.780032 -4.5415 0
M  V30 6133 H 573.438 -0.548453 -4.12772 0
M  V30 6134 H 576.035 2.12108 -4.9083 0
M  V30 6135 H 576.378 2.58811 -3.26071 0
M  V30 6136 H 576.911 0.995359 -3.85146 0
M  V30 6137 H 573.65 -0.315153 -6.54742 0
M  V30 6138 H 573.17 1.25564 -5.8651 0
M  V30 6139 H 574.849 0.985433 -6.39451 0
M  V30 6140 N 574.981 1.5647 0.188427 0
M  V30 6141 C 576.211 1.84863 0.922463 0
M  V30 6142 C 576.619 0.666413 1.77075 0
M  V30 6143 O 575.962 -0.374044 1.79852 0
M  V30 6144 C 576.024 3.07447 1.86324 0
M  V30 6145 C 575.688 4.41066 1.19625 0
M  V30 6146 C 576.685 5.16767 0.569946 0
M  V30 6147 C 574.37 4.87802 1.19811 0
M  V30 6148 C 576.364 6.37384 -0.045594 0
M  V30 6149 C 574.051 6.08353 0.57874 0
M  V30 6150 C 575.049 6.82987 -0.0420259 0
M  V30 6151 O 574.737 8.01254 -0.651675 0
M  V30 6152 H 574.469 0.61784 0.274316 0
M  V30 6153 H 577.023 2.04437 0.198613 0
M  V30 6154 H 575.253 2.83774 2.62696 0
M  V30 6155 H 576.942 3.2243 2.46564 0
M  V30 6156 H 577.708 4.81749 0.560601 0
M  V30 6157 H 573.587 4.29662 1.67069 0
M  V30 6158 H 577.131 6.95578 -0.530731 0
M  V30 6159 H 573.028 6.42838 0.58561 0
M  V30 6160 H 573.796 8.16655 -0.549236 0
M  V30 6161 N 576.459 -0.456382 1.50847 0
M  V30 6162 C 577.707 -1.20497 1.62249 0
M  V30 6163 C 578.028 -1.92156 0.331839 0
M  V30 6164 O 577.298 -1.84751 -0.651443 0
M  V30 6165 H 575.878 -0.447775 0.597918 0
M  V30 6166 H 578.54 -0.525099 1.87693 0
M  V30 6167 H 577.636 -1.94492 2.44089 0
M  V30 6168 N 577.937 -1.40673 -0.710563 0
M  V30 6169 C 579.184 -1.39222 -1.47049 0
M  V30 6170 C 579.512 0.0037691 -1.945 0
M  V30 6171 O 578.767 0.989224 -1.68857 0
M  V30 6172 C 579.066 -2.33253 -2.70791 0
M  V30 6173 C 578.732 -3.80406 -2.42079 0
M  V30 6174 C 577.394 -4.20496 -2.33959 0
M  V30 6175 C 579.746 -4.73375 -2.18094 0
M  V30 6176 C 577.074 -5.51584 -1.99929 0
M  V30 6177 C 579.426 -6.04768 -1.85576 0
M  V30 6178 C 578.09 -6.43895 -1.75941 0
M  V30 6179 H 577.36 -0.509449 -0.538092 0
M  V30 6180 H 580.007 -1.73363 -0.81348 0
M  V30 6181 H 578.312 -1.92314 -3.41354 0
M  V30 6182 H 580.009 -2.29412 -3.28894 0
M  V30 6183 H 576.599 -3.48645 -2.49288 0
M  V30 6184 H 580.783 -4.43217 -2.23321 0
M  V30 6185 H 576.039 -5.80797 -1.91011 0
M  V30 6186 H 580.213 -6.76318 -1.66033 0
M  V30 6187 H 577.84 -7.45387 -1.4934 0
M  V30 6188 N 579.415 0.9433 -1.26252 0
M  V30 6189 C 580.325 2.07532 -1.09397 0
M  V30 6190 C 581.341 1.73977 -0.0280449 0
M  V30 6191 O 582.517 2.00067 -0.231337 0
M  V30 6192 C 579.582 3.39002 -0.726523 0
M  V30 6193 C 578.643 3.86353 -1.87163 0
M  V30 6194 C 577.876 5.11549 -1.52162 0
M  V30 6195 O 578.099 5.68834 -0.422385 0
M  V30 6196 O 577.033 5.53889 -2.35565 0
M  V30 6197 H 580.859 2.24658 -2.04359 0
M  V30 6198 H 578.444 1.05988 -1.05295 0
M  V30 6199 H 580.326 4.18 -0.534236 0
M  V30 6200 H 579.001 3.2312 0.193721 0
M  V30 6201 H 577.908 3.0831 -2.11886 0
M  V30 6202 H 579.241 4.06752 -2.77152 0
M  V30 6203 N 580.893 1.08022 1.14757 0
M  V30 6204 C 582.142 0.802468 1.8505 0
M  V30 6205 C 582.455 -0.674061 1.83619 0
M  V30 6206 O 583.661 -1.06683 2.49662 0
M  V30 6207 C 582.117 1.38551 3.32162 0
M  V30 6208 C 581.725 2.89354 3.42021 0
M  V30 6209 C 583.469 1.18608 4.07594 0
M  V30 6210 C 581.376 3.40815 4.83321 0
M  V30 6211 H 580.306 0.296518 0.693248 0
M  V30 6212 H 582.957 1.30114 1.29393 0
M  V30 6213 H 581.339 0.814556 3.87532 0
M  V30 6214 H 582.513 3.52552 2.96722 0
M  V30 6215 H 580.828 3.08165 2.80041 0
M  V30 6216 H 583.425 1.54525 5.11885 0
M  V30 6217 H 583.768 0.125599 4.1611 0
M  V30 6218 H 584.301 1.72375 3.58513 0
M  V30 6219 H 581.04 4.46418 4.79991 0
M  V30 6220 H 580.56 2.82374 5.29174 0
M  V30 6221 H 582.239 3.37171 5.522 0
M  V30 6222 N 582.371 -1.3172 0.865308 0
M  V30 6223 C 583.618 -1.96876 0.473931 0
M  V30 6224 C 583.946 -1.68425 -0.972786 0
M  V30 6225 O 583.201 -0.970742 -1.69927 0
M  V30 6226 C 583.5 -3.5102 0.672283 0
M  V30 6227 C 583.166 -3.9948 2.09108 0
M  V30 6228 C 581.828 -4.12425 2.4791 0
M  V30 6229 C 584.18 -4.2503 3.0166 0
M  V30 6230 C 581.508 -4.48267 3.78515 0
M  V30 6231 C 583.86 -4.62335 4.31774 0
M  V30 6232 C 582.524 -4.73486 4.70497 0
M  V30 6233 H 581.794 -0.72042 0.173424 0
M  V30 6234 H 584.441 -1.56937 1.0974 0
M  V30 6235 H 582.746 -3.91785 -0.034356 0
M  V30 6236 H 584.443 -3.99475 0.349353 0
M  V30 6237 H 581.033 -3.89898 1.77981 0
M  V30 6238 H 585.217 -4.14529 2.7291 0
M  V30 6239 H 580.473 -4.55097 4.08285 0
M  V30 6240 H 584.647 -4.81058 5.03543 0
M  V30 6241 H 582.274 -5.01016 5.71741 0
M  V30 6242 N 583.85 -0.624285 -1.44708 0
M  V30 6243 C 584.782 0.12305 -2.28869 0
M  V30 6244 C 585.795 0.81557 -1.40898 0
M  V30 6245 O 586.984 0.678162 -1.65116 0
M  V30 6246 C 584.084 1.19612 -3.1709 0
M  V30 6247 C 583.257 0.587452 -4.33437 0
M  V30 6248 C 582.316 1.55358 -5.02743 0
M  V30 6249 O 581.341 1.07338 -5.58988 0
M  V30 6250 N 582.543 2.88798 -5.03563 0
M  V30 6251 H 585.308 -0.599193 -2.93649 0
M  V30 6252 H 582.87 -0.464954 -1.5508 0
M  V30 6253 H 584.861 1.84261 -3.60319 0
M  V30 6254 H 583.432 1.82067 -2.54107 0
M  V30 6255 H 582.652 -0.237509 -3.93484 0
M  V30 6256 H 583.94 0.161326 -5.08544 0
M  V30 6257 H 583.338 3.30399 -4.59188 0
M  V30 6258 H 581.894 3.48826 -5.50603 0
M  V30 6259 N 585.328 1.53329 -0.364422 0
M  V30 6260 C 586.275 2.25698 0.482607 0
M  V30 6261 C 587.245 1.26325 1.07848 0
M  V30 6262 O 588.43 1.55104 1.11119 0
M  V30 6263 C 585.57 3.04873 1.61699 0
M  V30 6264 C 584.683 4.19135 1.0464 0
M  V30 6265 C 583.818 4.85754 2.14979 0
M  V30 6266 C 582.857 5.9205 1.5538 0
M  V30 6267 N 581.994 6.52365 2.59547 0
M  V30 6268 H 586.834 2.97666 -0.141032 0
M  V30 6269 H 584.371 1.46875 -0.0813692 0
M  V30 6270 H 586.329 3.49051 2.28516 0
M  V30 6271 H 584.959 2.35162 2.2113 0
M  V30 6272 H 584.011 3.79451 0.268553 0
M  V30 6273 H 585.323 4.95525 0.570653 0
M  V30 6274 H 584.477 5.3311 2.89619 0
M  V30 6275 H 583.216 4.08834 2.65906 0
M  V30 6276 H 582.221 5.44058 0.792549 0
M  V30 6277 H 583.446 6.7089 1.0528 0
M  V30 6278 H 581.392 5.78298 3.09689 0
M  V30 6279 H 581.309 7.2429 2.16655 0
M  V30 6280 H 582.577 7.0437 3.33892 0
M  V30 6281 N 586.806 0.0935595 1.57322 0
M  V30 6282 C 587.754 -0.883457 2.15169 0
M  V30 6283 C 588.748 -1.29324 1.09415 0
M  V30 6284 O 589.954 -1.26795 1.27762 0
M  V30 6285 H 586.329 -0.302923 0.688289 0
M  V30 6286 H 588.3 -0.370845 2.96087 0
M  V30 6287 C 587.049 -2.13345 2.74552 0
M  V30 6288 H 586.372 -1.82702 3.55612 0
M  V30 6289 H 587.812 -2.7977 3.18598 0
M  V30 6290 C 586.271 -2.90646 1.70371 0
M  V30 6291 O 586.801 -3.85133 1.14173 0
M  V30 6292 N 585.007 -2.54157 1.40899 0
M  V30 6293 H 584.554 -1.77391 1.86789 0
M  V30 6294 H 584.512 -3.06178 0.714301 0
M  V30 6295 N 588.284 -1.56567 -0.180126 0
M  V30 6296 C 589.532 -1.81133 -0.896392 0
M  V30 6297 C 589.853 -0.669114 -1.83161 0
M  V30 6298 O 589.123 0.311616 -1.93406 0
M  V30 6299 H 587.703 -0.668172 -0.333999 0
M  V30 6300 H 590.365 -1.94048 -0.182051 0
M  V30 6301 H 589.461 -2.74854 -1.47857 0
M  V30 6302 N 589.762 0.448376 -1.51087 0
M  V30 6303 C 591.009 1.19872 -1.63209 0
M  V30 6304 C 591.337 1.91451 -0.343062 0
M  V30 6305 O 590.592 1.83789 0.672321 0
M  V30 6306 C 590.891 2.24866 -2.77795 0
M  V30 6307 C 590.557 1.70378 -4.17471 0
M  V30 6308 C 589.219 1.55241 -4.55471 0
M  V30 6309 C 591.571 1.30203 -5.04675 0
M  V30 6310 C 588.899 0.983844 -5.78392 0
M  V30 6311 C 591.251 0.747798 -6.28165 0
M  V30 6312 C 589.915 0.583233 -6.64947 0
M  V30 6313 H 589.185 0.438642 -0.597222 0
M  V30 6314 H 591.832 0.49136 -1.85089 0
M  V30 6315 H 590.137 3.01598 -2.50092 0
M  V30 6316 H 591.834 2.82723 -2.84374 0
M  V30 6317 H 588.424 1.83134 -3.87505 0
M  V30 6318 H 592.608 1.40723 -4.75932 0
M  V30 6319 H 587.864 0.844007 -6.05546 0
M  V30 6320 H 592.038 0.427927 -6.95084 0
M  V30 6321 H 589.665 0.140532 -7.6007 0
M  V30 6322 N 591.24 1.41047 0.703093 0
M  V30 6323 C 592.15 1.44645 1.84703 0
M  V30 6324 C 593.166 0.337778 1.7069 0
M  V30 6325 O 594.342 0.584327 1.92737 0
M  V30 6326 C 591.407 1.31928 3.20618 0
M  V30 6327 C 590.468 2.53047 3.46794 0
M  V30 6328 C 589.701 2.40927 4.76224 0
M  V30 6329 O 589.924 1.42978 5.5219 0
M  V30 6330 O 588.858 3.30543 5.03016 0
M  V30 6331 H 592.684 2.41139 1.84624 0
M  V30 6332 H 590.269 1.22504 0.855167 0
M  V30 6333 H 592.151 1.27092 4.01778 0
M  V30 6334 H 590.826 0.385469 3.21397 0
M  V30 6335 H 589.733 2.6346 2.65593 0
M  V30 6336 H 591.066 3.45231 3.50822 0
M  V30 6337 N 592.718 -0.936591 1.26751 0
M  V30 6338 C 593.65 -2.03991 1.045 0
M  V30 6339 C 594.663 -1.628 0.00394261 0
M  V30 6340 O 595.852 -1.76817 0.244526 0
M  V30 6341 C 592.952 -3.34218 0.561403 0
M  V30 6342 C 592.125 -4.04151 1.67274 0
M  V30 6343 C 591.184 -5.12651 1.1864 0
M  V30 6344 O 590.21 -5.37104 1.88437 0
M  V30 6345 N 591.412 -5.80488 0.037278 0
M  V30 6346 H 594.177 -2.23644 1.99508 0
M  V30 6347 H 591.738 -1.10638 1.18198 0
M  V30 6348 H 593.73 -4.04101 0.220136 0
M  V30 6349 H 592.3 -3.11203 -0.295211 0
M  V30 6350 H 591.52 -3.28121 2.18472 0
M  V30 6351 H 592.808 -4.47626 2.41885 0
M  V30 6352 H 592.206 -5.63064 -0.545494 0
M  V30 6353 H 590.763 -6.5134 -0.244877 0
M  V30 6354 N 594.196 -1.08629 -1.14182 0
M  V30 6355 C 595.443 -0.817345 -1.85272 0
M  V30 6356 C 595.771 0.656917 -1.83071 0
M  V30 6357 O 595.026 1.49897 -1.25815 0
M  V30 6358 C 595.325 -1.28734 -3.3341 0
M  V30 6359 C 594.991 -2.76981 -3.55798 0
M  V30 6360 C 593.653 -3.17469 -3.61617 0
M  V30 6361 C 596.005 -3.72605 -3.64438 0
M  V30 6362 C 593.333 -4.52371 -3.736 0
M  V30 6363 C 595.685 -5.07286 -3.77947 0
M  V30 6364 C 594.349 -5.47376 -3.82016 0
M  V30 6365 H 593.619 -0.299088 -0.677958 0
M  V30 6366 H 596.266 -1.35962 -1.34857 0
M  V30 6367 H 594.571 -0.664702 -3.8612 0
M  V30 6368 H 596.268 -1.05598 -3.86846 0
M  V30 6369 H 592.858 -2.44644 -3.51919 0
M  V30 6370 H 597.042 -3.42443 -3.5923 0
M  V30 6371 H 592.298 -4.82882 -3.75013 0
M  V30 6372 H 596.472 -5.81243 -3.83575 0
M  V30 6373 H 594.099 -6.51906 -3.91054 0
M  V30 6374 N 595.674 1.31259 -0.872281 0
M  V30 6375 C 596.914 1.98418 -0.490894 0
M  V30 6376 C 597.278 1.67429 0.939755 0
M  V30 6377 O 598.479 2.27818 1.42661 0
M  V30 6378 C 596.75 3.49583 -0.743408 0
M  V30 6379 S 598.309 4.36359 -0.462226 0
M  V30 6380 H 595.127 0.687005 -0.183151 0
M  V30 6381 H 597.729 1.59619 -1.12881 0
M  V30 6382 H 596.433 3.69627 -1.78338 0
M  V30 6383 H 595.964 3.93291 -0.0925758 0
M  V30 6384 H 597.979 4.91173 0.704525 0
M  V30 6385 N 597.152 0.631951 1.44375 0
M  V30 6386 C 598.401 0.134214 2.01253 0
M  V30 6387 C 598.714 -1.25171 1.50305 0
M  V30 6388 O 599.92 -1.8435 1.99317 0
M  V30 6389 C 598.376 0.189187 3.59402 0
M  V30 6390 C 597.984 1.57647 4.19346 0
M  V30 6391 C 599.728 -0.252044 4.23751 0
M  V30 6392 C 597.635 1.58651 5.69722 0
M  V30 6393 H 596.565 0.0464101 0.75257 0
M  V30 6394 H 599.216 0.790868 1.65582 0
M  V30 6395 H 597.598 -0.534584 3.92375 0
M  V30 6396 H 598.772 2.32389 3.97909 0
M  V30 6397 H 597.087 1.96186 3.67288 0
M  V30 6398 H 599.684 -0.264084 5.34047 0
M  V30 6399 H 600.027 -1.27951 3.96149 0
M  V30 6400 H 600.56 0.41926 3.95584 0
M  V30 6401 H 597.299 2.59237 6.0206 0
M  V30 6402 H 596.819 0.882039 5.93279 0
M  V30 6403 H 598.498 1.32082 6.33375 0
M  V30 6404 N 598.631 -1.53133 0.372548 0
M  V30 6405 C 599.579 -2.27473 -0.485681 0
M  V30 6406 C 600.573 -1.30719 -1.07745 0
M  V30 6407 O 601.779 -1.48321 -1.01985 0
M  V30 6408 H 598.154 -0.731269 -0.175356 0
M  V30 6409 H 600.125 -2.97955 0.162986 0
M  V30 6410 C 598.874 -3.08191 -1.60978 0
M  V30 6411 H 598.197 -3.82488 -1.16373 0
M  V30 6412 H 599.637 -3.63373 -2.18485 0
M  V30 6413 C 598.096 -2.19461 -2.55614 0
M  V30 6414 O 598.626 -1.81008 -3.58607 0
M  V30 6415 N 596.832 -1.83955 -2.24965 0
M  V30 6416 H 596.379 -2.15423 -1.41247 0
M  V30 6417 H 596.337 -1.24874 -2.88538 0
M  V30 6418 N 600.109 -0.101901 -1.5727 0
M  V30 6419 C 601.356 0.560197 -1.94597 0
M  V30 6420 C 601.684 1.67767 -0.984101 0
M  V30 6421 O 600.939 1.95699 -0.00489193 0
M  V30 6422 C 601.238 1.14898 -3.38427 0
M  V30 6423 C 600.904 0.154613 -4.50635 0
M  V30 6424 C 599.566 -0.118861 -4.81053 0
M  V30 6425 C 601.918 -0.523979 -5.18559 0
M  V30 6426 C 599.246 -1.0775 -5.76721 0
M  V30 6427 C 601.598 -1.47114 -6.15256 0
M  V30 6428 C 600.262 -1.75278 -6.44076 0
M  V30 6429 H 599.532 0.204991 -0.712081 0
M  V30 6430 H 602.179 -0.17918 -1.9066 0
M  V30 6431 H 600.484 1.96476 -3.38976 0
M  V30 6432 H 602.181 1.66909 -3.64613 0
M  V30 6433 H 598.771 0.377948 -4.2693 0
M  V30 6434 H 602.955 -0.325851 -4.95229 0
M  V30 6435 H 598.211 -1.30263 -5.97362 0
M  V30 6436 H 602.385 -2.00274 -6.66981 0
M  V30 6437 H 600.012 -2.49717 -7.18015 0
M  V30 6438 N 601.587 1.56661 0.17182 0
M  V30 6439 C 602.833 1.82235 0.889845 0
M  V30 6440 C 603.166 0.679673 1.81918 0
M  V30 6441 O 602.441 -0.318404 1.91876 0
M  V30 6442 C 602.724 3.18195 1.68595 0
M  V30 6443 C 602.577 4.42989 0.779773 0
M  V30 6444 C 603.896 3.5109 2.65375 0
M  V30 6445 H 601.015 0.66291 0.322056 0
M  V30 6446 H 603.657 1.89358 0.15608 0
M  V30 6447 H 601.807 3.12253 2.3115 0
M  V30 6448 H 603.479 4.60997 0.16714 0
M  V30 6449 H 601.722 4.33711 0.0877964 0
M  V30 6450 H 602.393 5.3467 1.3723 0
M  V30 6451 H 604.869 3.57482 2.12946 0
M  V30 6452 H 603.745 4.47298 3.18144 0
M  V30 6453 H 604.006 2.75768 3.45549 0
M  V30 6454 N 603.065 -0.440357 1.51323 0
M  V30 6455 C 604.013 -1.55492 1.72988 0
M  V30 6456 C 605.007 -1.58564 0.596138 0
M  V30 6457 O 606.213 -1.62345 0.777443 0
M  V30 6458 H 602.588 -0.516532 0.546533 0
M  V30 6459 H 604.559 -1.34392 2.66423 0
M  V30 6460 C 603.308 -2.93176 1.86931 0
M  V30 6461 H 602.631 -2.91543 2.73574 0
M  V30 6462 H 604.071 -3.70537 2.06103 0
M  V30 6463 C 602.53 -3.30988 0.628365 0
M  V30 6464 O 603.06 -4.01106 -0.218367 0
M  V30 6465 N 601.266 -2.86719 0.473339 0
M  V30 6466 H 600.813 -2.2983 1.16345 0
M  V30 6467 H 600.771 -3.12381 -0.355727 0
M  V30 6468 N 604.543 -1.41418 -0.695603 0
M  V30 6469 C 605.453 -1.45622 -1.83933 0
M  V30 6470 C 606.469 -0.346825 -1.70508 0
M  V30 6471 O 607.645 -0.59454 -1.92424 0
M  V30 6472 C 604.71 -1.33627 -3.19914 0
M  V30 6473 C 603.771 -2.54882 -3.45447 0
M  V30 6474 C 603.004 -2.43449 -4.7494 0
M  V30 6475 O 603.227 -1.45905 -5.51424 0
M  V30 6476 O 602.161 -3.33206 -5.01256 0
M  V30 6477 H 605.987 -2.42114 -1.83342 0
M  V30 6478 H 603.572 -1.22956 -0.848658 0
M  V30 6479 H 605.454 -1.29221 -4.01098 0
M  V30 6480 H 604.129 -0.402508 -3.21188 0
M  V30 6481 H 603.036 -2.64865 -2.64192 0
M  V30 6482 H 604.369 -3.47087 -3.48987 0
M  V30 6483 N 606.021 0.929856 -1.27246 0
M  V30 6484 C 606.968 2.03017 -1.09785 0
M  V30 6485 C 607.938 1.661 0.000456744 0
M  V30 6486 O 609.123 1.90116 -0.161462 0
M  V30 6487 C 606.263 3.36878 -0.748816 0
M  V30 6488 C 605.376 3.86763 -1.92453 0
M  V30 6489 C 604.511 5.09061 -1.51758 0
M  V30 6490 C 603.55 5.51237 -2.66091 0
M  V30 6491 N 602.687 6.64732 -2.25999 0
M  V30 6492 H 607.527 2.17285 -2.03939 0
M  V30 6493 H 605.064 1.06448 -1.01524 0
M  V30 6494 H 607.022 4.13855 -0.527283 0
M  V30 6495 H 605.652 3.22424 0.155771 0
M  V30 6496 H 604.704 3.06086 -2.25867 0
M  V30 6497 H 606.016 4.13994 -2.78227 0
M  V30 6498 H 605.17 5.93532 -1.25716 0
M  V30 6499 H 603.909 4.83602 -0.630896 0
M  V30 6500 H 602.914 4.65316 -2.92849 0
M  V30 6501 H 604.139 5.78692 -3.55377 0
M  V30 6502 H 602.085 6.40935 -1.3978 0
M  V30 6503 H 602.002 6.91607 -3.05313 0
M  V30 6504 H 603.27 7.52549 -2.03199 0
M  V30 6505 N 607.499 1.09233 1.13605 0
M  V30 6506 C 608.429 0.751738 2.21068 0
M  V30 6507 C 609.41 -0.269688 1.67948 0
M  V30 6508 O 610.595 -0.13819 1.93708 0
M  V30 6509 C 607.725 0.16935 3.46887 0
M  V30 6510 C 606.679 1.12007 4.13084 0
M  V30 6511 C 606.005 0.399483 5.33206 0
M  V30 6512 C 607.305 2.46168 4.6065 0
M  V30 6513 H 608.999 1.65024 2.49815 0
M  V30 6514 H 606.545 0.794905 1.20072 0
M  V30 6515 H 608.498 -0.0809824 4.21322 0
M  V30 6516 H 607.222 -0.764335 3.1753 0
M  V30 6517 H 605.881 1.35564 3.40614 0
M  V30 6518 H 605.529 -0.538277 5.00112 0
M  V30 6519 H 605.229 1.03337 5.78442 0
M  V30 6520 H 606.753 0.157403 6.10397 0
M  V30 6521 H 608.167 2.26829 5.26518 0
M  V30 6522 H 606.564 3.05326 5.1662 0
M  V30 6523 H 607.634 3.07076 3.75276 0
M  V30 6524 N 608.977 -1.30795 0.87923 0
M  V30 6525 C 609.909 -2.27241 0.299025 0
M  V30 6526 C 610.922 -1.53472 -0.543166 0
M  V30 6527 O 612.111 -1.74756 -0.363651 0
M  V30 6528 C 609.211 -3.33655 -0.593931 0
M  V30 6529 C 608.384 -4.36857 0.2179 0
M  V30 6530 C 607.443 -5.22715 -0.604646 0
M  V30 6531 O 606.469 -5.69192 -0.0293838 0
M  V30 6532 N 607.671 -5.48008 -1.91488 0
M  V30 6533 H 610.436 -2.77667 1.12788 0
M  V30 6534 H 607.997 -1.43914 0.741637 0
M  V30 6535 H 609.989 -3.88013 -1.15012 0
M  V30 6536 H 608.559 -2.83202 -1.32346 0
M  V30 6537 H 607.779 -3.82444 0.955536 0
M  V30 6538 H 609.067 -5.02869 0.774614 0
M  V30 6539 H 608.465 -5.1202 -2.40525 0
M  V30 6540 H 607.022 -6.05264 -2.41864 0
M  V30 6541 N 610.455 -0.639598 -1.44038 0
M  V30 6542 C 611.387 0.0987684 -2.28987 0
M  V30 6543 C 612.4 0.80058 -1.41755 0
M  V30 6544 O 613.589 0.660611 -1.65826 0
M  V30 6545 C 610.689 1.16242 -3.18341 0
M  V30 6546 C 609.862 0.541447 -4.34036 0
M  V30 6547 C 608.921 1.50017 -5.04362 0
M  V30 6548 O 607.947 1.01403 -5.60095 0
M  V30 6549 N 609.149 2.83441 -5.06598 0
M  V30 6550 H 611.914 -0.630305 -2.92997 0
M  V30 6551 H 609.475 -0.481376 -1.54578 0
M  V30 6552 H 611.467 1.80429 -3.62253 0
M  V30 6553 H 610.037 1.79362 -2.56024 0
M  V30 6554 H 609.257 -0.27923 -3.9321 0
M  V30 6555 H 610.545 0.107379 -5.08687 0
M  V30 6556 H 609.943 3.2551 -4.62666 0
M  V30 6557 H 608.5 3.42966 -5.54272 0
M  V30 6558 N 611.933 1.52934 -0.380664 0
M  V30 6559 C 613.182 2.00651 0.205477 0
M  V30 6560 C 613.495 1.27164 1.48623 0
M  V30 6561 O 614.701 1.65547 2.15189 0
M  V30 6562 C 613.157 3.57479 0.416726 0
M  V30 6563 C 612.765 4.39857 -0.850268 0
M  V30 6564 C 614.509 4.13509 0.959702 0
M  V30 6565 C 612.416 5.88269 -0.607773 0
M  V30 6566 H 611.346 0.749684 0.0805614 0
M  V30 6567 H 613.997 1.76508 -0.501732 0
M  V30 6568 H 612.379 3.77836 1.18557 0
M  V30 6569 H 613.553 4.31269 -1.62307 0
M  V30 6570 H 611.868 3.95005 -1.31756 0
M  V30 6571 H 614.465 5.22039 1.15669 0
M  V30 6572 H 614.808 3.69054 1.92626 0
M  V30 6573 H 615.341 3.9701 0.250645 0
M  V30 6574 H 612.08 6.3703 -1.54509 0
M  V30 6575 H 611.6 5.99667 0.126247 0
M  V30 6576 H 613.279 6.46558 -0.239014 0
M  V30 6577 N 613.412 0.11024 1.57214 0
M  V30 6578 C 614.659 -0.54987 1.94891 0
M  V30 6579 C 614.987 -1.67243 0.992984 0
M  V30 6580 O 614.242 -1.95694 0.0152703 0
M  V30 6581 C 614.541 -1.13102 3.39032 0
M  V30 6582 C 614.207 -0.130713 4.5071 0
M  V30 6583 C 612.869 0.14437 4.80983 0
M  V30 6584 C 615.221 0.551472 5.18274 0
M  V30 6585 C 612.549 1.10807 5.76141 0
M  V30 6586 C 614.901 1.50375 6.14467 0
M  V30 6587 C 613.565 1.78691 6.43138 0
M  V30 6588 H 612.835 -0.201212 0.713158 0
M  V30 6589 H 615.482 0.189288 1.90562 0
M  V30 6590 H 613.787 -1.94675 3.40013 0
M  V30 6591 H 615.484 -1.64973 3.65493 0
M  V30 6592 H 612.074 -0.355301 4.27125 0
M  V30 6593 H 616.258 0.35211 4.95049 0
M  V30 6594 H 611.514 1.3343 5.96663 0
M  V30 6595 H 615.688 2.03808 6.65909 0
M  V30 6596 H 613.315 2.53522 7.1668 0
M  V30 6597 N 614.89 -1.56749 -0.16351 0
M  V30 6598 C 616.139 -1.81626 -0.877211 0
M  V30 6599 C 616.452 -0.688791 -1.83071 0
M  V30 6600 O 617.658 -0.822697 -2.58735 0
M  V30 6601 C 616.114 -3.21858 -1.61045 0
M  V30 6602 C 615.722 -4.42494 -0.700195 0
M  V30 6603 C 617.466 -3.56021 -2.31192 0
M  V30 6604 C 615.373 -5.73748 -1.43412 0
M  V30 6605 H 614.303 -0.67731 -0.331312 0
M  V30 6606 H 616.954 -1.83039 -0.13006 0
M  V30 6607 H 615.336 -3.14784 -2.40264 0
M  V30 6608 H 616.51 -4.60766 0.0555849 0
M  V30 6609 H 614.825 -4.1626 -0.10799 0
M  V30 6610 H 617.422 -4.51333 -2.8671 0
M  V30 6611 H 617.765 -2.81277 -3.06902 0
M  V30 6612 H 618.298 -3.64682 -1.58909 0
M  V30 6613 H 615.037 -6.51543 -0.719186 0
M  V30 6614 H 614.557 -5.5944 -2.16302 0
M  V30 6615 H 616.236 -6.15975 -1.9795 0
M  V30 6616 N 616.368 0.432326 -1.51554 0
M  V30 6617 C 617.278 1.55023 -1.76082 0
M  V30 6618 C 618.294 1.61593 -0.645265 0
M  V30 6619 O 619.47 1.78742 -0.928086 0
M  V30 6620 C 616.535 2.90964 -1.88523 0
M  V30 6621 C 615.596 2.9447 -3.12388 0
M  V30 6622 C 614.829 4.23926 -3.24225 0
M  V30 6623 O 615.052 5.16576 -2.4188 0
M  V30 6624 O 613.986 4.33818 -4.17235 0
M  V30 6625 H 617.812 1.37238 -2.70923 0
M  V30 6626 H 615.397 0.615845 -1.36117 0
M  V30 6627 H 617.279 3.71633 -1.98662 0
M  V30 6628 H 615.954 3.08865 -0.9687 0
M  V30 6629 H 614.861 2.12737 -3.07723 0
M  V30 6630 H 616.194 2.81514 -4.03746 0
M  V30 6631 N 617.846 1.41785 0.688094 0
M  V30 6632 C 618.776 1.47 1.8142 0
M  V30 6633 C 619.757 0.327881 1.6691 0
M  V30 6634 O 620.942 0.540362 1.86531 0
M  V30 6635 C 618.072 1.35876 3.19617 0
M  V30 6636 C 617.026 2.47976 3.48844 0
M  V30 6637 C 616.352 2.21915 4.86475 0
M  V30 6638 C 617.652 3.90309 3.47068 0
M  V30 6639 H 619.346 2.41247 1.77314 0
M  V30 6640 H 616.892 1.16116 0.851651 0
M  V30 6641 H 618.845 1.38134 3.98117 0
M  V30 6642 H 617.569 0.38116 3.24368 0
M  V30 6643 H 616.228 2.45013 2.72698 0
M  V30 6644 H 615.876 1.2248 4.8786 0
M  V30 6645 H 615.576 2.97037 5.06994 0
M  V30 6646 H 617.1 2.25901 5.67275 0
M  V30 6647 H 618.514 3.94947 4.1556 0
M  V30 6648 H 616.911 4.65175 3.7912 0
M  V30 6649 H 617.981 4.17927 2.45896 0
M  V30 6650 N 619.324 -0.923095 1.27737 0
M  V30 6651 C 620.552 -1.70525 1.17171 0
M  V30 6652 C 620.967 -1.86847 -0.270881 0
M  V30 6653 O 620.324 -1.38879 -1.18401 0
M  V30 6654 C 620.375 -3.10242 1.85559 0
M  V30 6655 O 620.096 -2.94683 3.24182 0
M  V30 6656 C 621.597 -4.04586 1.81176 0
M  V30 6657 H 618.817 -0.533347 0.407163 0
M  V30 6658 H 621.361 -1.15599 1.68692 0
M  V30 6659 H 619.516 -3.62014 1.3793 0
M  V30 6660 H 619.93 -3.83045 3.58297 0
M  V30 6661 H 621.404 -5.00119 2.33633 0
M  V30 6662 H 621.881 -4.3218 0.782099 0
M  V30 6663 H 622.487 -3.58741 2.2844 0
M  V30 6664 N 620.802 -1.09834 -1.13024 0
M  V30 6665 C 621.732 -0.763451 -2.20666 0
M  V30 6666 C 622.713 0.260778 -1.68089 0
M  V30 6667 O 623.898 0.127915 -1.93778 0
M  V30 6668 C 621.028 -0.187744 -3.46792 0
M  V30 6669 C 619.982 -1.14196 -4.12484 0
M  V30 6670 C 619.308 -0.427755 -5.32986 0
M  V30 6671 C 620.608 -2.48607 -4.59338 0
M  V30 6672 H 622.302 -1.66347 -2.48936 0
M  V30 6673 H 619.848 -0.801261 -1.19649 0
M  V30 6674 H 621.801 0.0586375 -4.21359 0
M  V30 6675 H 620.525 0.747485 -3.17931 0
M  V30 6676 H 619.184 -1.37369 -3.3989 0
M  V30 6677 H 618.832 0.511747 -5.0039 0
M  V30 6678 H 618.532 -1.06403 -5.77886 0
M  V30 6679 H 620.056 -0.189772 -6.10305 0
M  V30 6680 H 621.47 -2.29618 -5.25308 0
M  V30 6681 H 619.867 -3.08062 -5.14993 0
M  V30 6682 H 620.937 -3.09062 -3.73642 0
M  V30 6683 N 622.28 1.30327 -0.886154 0
M  V30 6684 C 623.227 2.28099 -0.352069 0
M  V30 6685 C 624.197 1.56433 0.558397 0
M  V30 6686 O 625.382 1.84492 0.486561 0
M  V30 6687 C 622.522 3.42456 0.426346 0
M  V30 6688 C 621.635 4.28938 -0.513472 0
M  V30 6689 C 620.77 5.30458 0.280657 0
M  V30 6690 C 619.809 6.0859 -0.654556 0
M  V30 6691 N 618.946 7.02022 0.104322 0
M  V30 6692 H 623.786 2.73166 -1.19097 0
M  V30 6693 H 621.323 1.34367 -0.598662 0
M  V30 6694 H 623.281 4.07518 0.893587 0
M  V30 6695 H 621.911 2.98455 1.22981 0
M  V30 6696 H 620.963 3.64173 -1.09921 0
M  V30 6697 H 622.275 4.83399 -1.2299 0
M  V30 6698 H 621.429 6.01273 0.8097 0
M  V30 6699 H 620.168 4.76693 1.03029 0
M  V30 6700 H 619.173 5.36651 -1.19522 0
M  V30 6701 H 620.398 6.64443 -1.4033 0
M  V30 6702 H 618.344 6.50645 0.836472 0
M  V30 6703 H 618.261 7.53979 -0.552453 0
M  V30 6704 H 619.529 7.77077 0.614069 0
M  V30 6705 N 623.758 0.647228 1.43697 0
M  V30 6706 C 624.721 -0.0385101 2.29168 0
M  V30 6707 C 625.721 -0.756487 1.41894 0
M  V30 6708 O 626.911 -0.598641 1.63591 0
M  V30 6709 C 624.043 -1.06524 3.23829 0
M  V30 6710 H 625.236 0.713445 2.9129 0
M  V30 6711 H 622.789 0.408153 1.50877 0
M  V30 6712 H 623.524 -1.84664 2.66589 0
M  V30 6713 H 623.309 -0.554147 3.88164 0
M  V30 6714 H 624.799 -1.54432 3.87996 0
M  V30 6715 N 625.236 -1.5273 0.388769 0
M  V30 6716 C 626.146 -2.30165 -0.453993 0
M  V30 6717 C 627.162 -1.37058 -1.07197 0
M  V30 6718 O 628.338 -1.70127 -1.0779 0
M  V30 6719 C 625.403 -3.09303 -1.56628 0
M  V30 6720 C 624.464 -4.18117 -0.973467 0
M  V30 6721 C 623.697 -4.93472 -2.03275 0
M  V30 6722 O 623.92 -4.68913 -3.24772 0
M  V30 6723 O 622.854 -5.78833 -1.65034 0
M  V30 6724 H 626.68 -3.03185 0.176816 0
M  V30 6725 H 624.265 -1.4862 0.152501 0
M  V30 6726 H 626.147 -3.58648 -2.21246 0
M  V30 6727 H 624.822 -2.39098 -2.18206 0
M  V30 6728 H 623.729 -3.7297 -0.290556 0
M  V30 6729 H 625.062 -4.90556 -0.401908 0
M  V30 6730 N 626.714 -0.118576 -1.57153 0
M  V30 6731 C 627.646 0.862247 -2.12363 0
M  V30 6732 C 628.659 1.23025 -1.06625 0
M  V30 6733 O 629.848 1.17927 -1.33998 0
M  V30 6734 C 626.948 2.16425 -2.60794 0
M  V30 6735 C 626.121 1.96801 -3.90626 0
M  V30 6736 C 625.18 3.10726 -4.2466 0
M  V30 6737 O 624.206 2.83659 -4.93484 0
M  V30 6738 N 625.408 4.37147 -3.81946 0
M  V30 6739 H 628.173 0.390564 -2.97144 0
M  V30 6740 H 625.734 0.0658591 -1.61766 0
M  V30 6741 H 627.726 2.91633 -2.80593 0
M  V30 6742 H 626.296 2.54943 -1.80895 0
M  V30 6743 H 625.516 1.05787 -3.7974 0
M  V30 6744 H 626.804 1.80993 -4.7552 0
M  V30 6745 H 626.202 4.62014 -3.26435 0
M  V30 6746 H 624.759 5.09229 -4.06853 0
M  V30 6747 N 628.193 1.56834 0.155195 0
M  V30 6748 C 629.103 2.009 1.21146 0
M  V30 6749 C 630.119 0.923029 1.475 0
M  V30 6750 O 631.295 1.23189 1.59331 0
M  V30 6751 C 628.36 2.37378 2.52691 0
M  V30 6752 C 627.421 3.59883 2.34057 0
M  V30 6753 C 626.654 3.94612 3.59329 0
M  V30 6754 O 626.877 3.30104 4.65175 0
M  V30 6755 O 625.811 4.87895 3.52479 0
M  V30 6756 H 629.637 2.9105 0.867371 0
M  V30 6757 H 627.222 1.44916 0.363298 0
M  V30 6758 H 629.104 2.61737 3.3026 0
M  V30 6759 H 627.779 1.50385 2.86646 0
M  V30 6760 H 626.686 3.40722 1.54465 0
M  V30 6761 H 628.019 4.47468 2.0502 0
M  V30 6762 N 629.671 -0.424282 1.51781 0
M  V30 6763 C 630.581 -1.54087 1.76902 0
M  V30 6764 C 631.597 -1.61249 0.653826 0
M  V30 6765 O 632.773 -1.78247 0.937552 0
M  V30 6766 C 629.838 -2.8996 1.90063 0
M  V30 6767 C 628.899 -2.92809 3.13945 0
M  V30 6768 C 628.132 -4.22201 3.26469 0
M  V30 6769 O 628.355 -5.15286 2.44616 0
M  V30 6770 O 627.289 -4.31599 4.1953 0
M  V30 6771 H 631.115 -1.358 2.71647 0
M  V30 6772 H 628.7 -0.608618 1.36441 0
M  V30 6773 H 630.582 -3.70575 2.0063 0
M  V30 6774 H 629.257 -3.08347 0.985067 0
M  V30 6775 H 628.164 -2.11102 3.08847 0
M  V30 6776 H 629.497 -2.79369 4.05233 0
M  V30 6777 N 631.149 -1.42148 -0.680565 0
M  V30 6778 C 632.379 -1.45485 -1.46689 0
M  V30 6779 C 632.787 -0.0629451 -1.89095 0
M  V30 6780 O 632.13 0.931397 -1.58337 0
M  V30 6781 C 632.192 -2.31397 -2.75129 0
M  V30 6782 C 631.856 -3.79353 -2.54834 0
M  V30 6783 C 632.853 -4.71148 -2.19808 0
M  V30 6784 C 630.538 -4.23557 -2.70008 0
M  V30 6785 C 632.532 -6.05139 -2.00215 0
M  V30 6786 C 630.219 -5.57609 -2.50031 0
M  V30 6787 C 631.217 -6.48216 -2.15187 0
M  V30 6788 O 630.905 -7.79792 -1.95397 0
M  V30 6789 H 630.637 -0.497139 -0.458071 0
M  V30 6790 H 633.191 -1.87252 -0.844139 0
M  V30 6791 H 631.421 -1.84468 -3.39865 0
M  V30 6792 H 633.11 -2.26257 -3.36991 0
M  V30 6793 H 633.876 -4.38282 -2.07686 0
M  V30 6794 H 629.755 -3.53327 -2.96109 0
M  V30 6795 H 633.299 -6.75823 -1.72941 0
M  V30 6796 H 629.196 -5.9005 -2.61748 0
M  V30 6797 H 629.964 -7.91091 -2.10042 0
M  V30 6798 N 632.627 0.916307 -1.28225 0
M  V30 6799 C 633.873 1.66765 -1.154 0
M  V30 6800 C 634.206 1.91912 0.297251 0
M  V30 6801 O 633.481 1.51766 1.21644 0
M  V30 6802 C 633.764 3.02715 -1.95028 0
M  V30 6803 C 633.617 2.84738 -3.48201 0
M  V30 6804 C 634.936 4.03215 -1.76369 0
M  V30 6805 H 632.055 0.605205 -0.42059 0
M  V30 6806 H 634.697 1.06255 -1.57512 0
M  V30 6807 H 632.847 3.54365 -1.59242 0
M  V30 6808 H 634.519 2.40118 -3.9388 0
M  V30 6809 H 632.762 2.19848 -3.73964 0
M  V30 6810 H 633.433 3.8127 -3.99171 0
M  V30 6811 H 635.909 3.60617 -2.07593 0
M  V30 6812 H 634.785 4.96306 -2.34459 0
M  V30 6813 H 635.046 4.36288 -0.71452 0
M  V30 6814 N 634.105 1.10431 1.1244 0
M  V30 6815 C 635.037 0.710945 2.17895 0
M  V30 6816 C 636.05 -0.252315 1.60833 0
M  V30 6817 O 637.239 -0.03679 1.78462 0
M  V30 6818 C 634.339 0.0284262 3.38888 0
M  V30 6819 C 633.512 1.01585 4.2544 0
M  V30 6820 C 632.571 0.364826 5.24934 0
M  V30 6821 O 631.597 1.01561 5.60066 0
M  V30 6822 N 632.799 -0.87674 5.73841 0
M  V30 6823 H 635.564 1.61826 2.52255 0
M  V30 6824 H 633.125 0.993132 1.27861 0
M  V30 6825 H 635.117 -0.418568 4.0253 0
M  V30 6826 H 633.687 -0.781294 3.02679 0
M  V30 6827 H 632.907 1.64111 3.58415 0
M  V30 6828 H 634.195 1.68425 4.80115 0
M  V30 6829 H 633.593 -1.42483 5.47462 0
M  V30 6830 H 632.15 -1.26688 6.39369 0
M  V30 6831 N 635.583 -1.29855 0.893053 0
M  V30 6832 C 636.493 -2.31661 0.370157 0
M  V30 6833 C 637.509 -1.65677 -0.531723 0
M  V30 6834 O 638.685 -1.9691 -0.422902 0
M  V30 6835 C 635.75 -3.44388 -0.399741 0
M  V30 6836 C 634.811 -4.2598 0.532861 0
M  V30 6837 C 634.044 -5.33324 -0.200388 0
M  V30 6838 O 634.267 -5.52305 -1.42531 0
M  V30 6839 O 633.201 -6.00188 0.453668 0
M  V30 6840 H 637.027 -2.78354 1.2146 0
M  V30 6841 H 634.612 -1.34171 0.657153 0
M  V30 6842 H 636.494 -4.13037 -0.835358 0
M  V30 6843 H 635.169 -2.99815 -1.22035 0
M  V30 6844 H 634.076 -3.59998 1.01746 0
M  V30 6845 H 635.409 -4.74178 1.3197 0
M  V30 6846 N 637.061 -0.65484 -1.43351 0
M  V30 6847 C 638.309 -0.168559 -2.01396 0
M  V30 6848 C 638.63 1.22235 -1.51933 0
M  V30 6849 O 637.9 1.81685 -0.732627 0
M  V30 6850 H 636.48 -0.0593244 -0.744641 0
M  V30 6851 H 639.142 -0.846871 -1.75539 0
M  V30 6852 H 638.238 -0.154428 -3.11718 0
M  V30 6853 N 638.539 1.52521 -0.396863 0
M  V30 6854 C 639.788 2.00857 0.184184 0
M  V30 6855 C 640.101 1.28733 1.47265 0
M  V30 6856 O 641.307 1.67821 2.13421 0
M  V30 6857 C 639.763 3.57901 0.378787 0
M  V30 6858 C 639.371 4.38931 -0.896873 0
M  V30 6859 C 641.115 4.14504 0.915789 0
M  V30 6860 C 639.022 5.87591 -0.670133 0
M  V30 6861 H 637.952 0.750496 0.0726055 0
M  V30 6862 H 640.603 1.75965 -0.520425 0
M  V30 6863 H 638.985 3.79072 1.14543 0
M  V30 6864 H 640.159 4.29524 -1.66872 0
M  V30 6865 H 638.474 3.93586 -1.35938 0
M  V30 6866 H 641.071 5.23236 1.10126 0
M  V30 6867 H 641.414 3.71076 1.88701 0
M  V30 6868 H 641.947 3.97253 0.208523 0
M  V30 6869 H 638.686 6.35355 -1.61257 0
M  V30 6870 H 638.206 5.99767 0.0626368 0
M  V30 6871 H 639.885 6.46268 -0.307577 0
M  V30 6872 N 640.017 0.126909 1.57088 0
M  V30 6873 C 641.433 -0.229641 1.57939 0
M  V30 6874 C 641.633 -1.66145 1.1401 0
M  V30 6875 O 640.689 -2.3843 0.831119 0
M  V30 6876 C 642.002 0.0108648 3.00698 0
M  V30 6877 C 643.55 -0.054418 3.12953 0
M  V30 6878 C 644.025 0.158497 4.57726 0
M  V30 6879 N 645.516 0.104735 4.63082 0
M  V30 6880 C 646.251 0.24427 5.72879 0
M  V30 6881 N 645.747 0.440415 6.91399 0
M  V30 6882 N 647.54 0.183286 5.61801 0
M  V30 6883 H 639.691 1.06203 1.83942 0
M  V30 6884 H 641.954 0.418834 0.85046 0
M  V30 6885 H 641.66 1.00102 3.37154 0
M  V30 6886 H 641.534 -0.717512 3.70313 0
M  V30 6887 H 643.921 -1.0351 2.7635 0
M  V30 6888 H 644.002 0.705967 2.45865 0
M  V30 6889 H 643.646 1.13619 4.95028 0
M  V30 6890 H 643.576 -0.62197 5.22914 0
M  V30 6891 H 646.067 -0.0430298 3.77876 0
M  V30 6892 H 646.38 0.537536 7.70928 0
M  V30 6893 H 644.725 0.476488 6.93365 0
M  V30 6894 H 647.916 0.0309561 4.6809 0
M  V30 6895 H 648.089 0.295471 6.47326 0
M  V30 6896 N 641.495 -1.56914 -0.146875 0
M  V30 6897 C 642.741 -1.84515 -0.855914 0
M  V30 6898 C 643.096 -0.710909 -1.78784 0
M  V30 6899 O 642.389 0.291123 -1.89375 0
M  V30 6900 C 642.583 -3.16128 -1.66727 0
M  V30 6901 C 642.412 -4.42246 -0.815405 0
M  V30 6902 C 641.182 -5.03006 -0.480976 0
M  V30 6903 C 643.38 -5.14094 -0.145684 0
M  V30 6904 N 641.362 -6.12695 0.384476 0
M  V30 6905 C 642.733 -6.17282 0.579902 0
M  V30 6906 C 644.788 -4.97856 -0.0663705 0
M  V30 6907 C 643.491 -7.0599 1.37731 0
M  V30 6908 C 645.517 -5.87028 0.71778 0
M  V30 6909 C 644.879 -6.89698 1.43165 0
M  V30 6910 H 640.978 -0.725829 -0.291026 0
M  V30 6911 H 643.562 -1.94322 -0.121279 0
M  V30 6912 H 641.733 -3.07468 -2.37315 0
M  V30 6913 H 643.465 -3.31635 -2.31949 0
M  V30 6914 H 640.22 -4.66504 -0.816789 0
M  V30 6915 H 640.644 -6.72158 0.80823 0
M  V30 6916 H 645.286 -4.18465 -0.603929 0
M  V30 6917 H 643.004 -7.84809 1.92613 0
M  V30 6918 H 646.59 -5.76532 0.781141 0
M  V30 6919 H 645.47 -7.57505 2.02868 0
M  V30 6920 N 642.974 0.416227 -1.52004 0
M  V30 6921 C 644.202 1.18573 -1.69553 0
M  V30 6922 C 644.617 1.84472 -0.401919 0
M  V30 6923 O 643.974 1.71593 0.621463 0
M  V30 6924 C 644.025 2.25413 -2.82615 0
M  V30 6925 O 643.746 1.62205 -4.06966 0
M  V30 6926 C 645.247 3.15297 -3.11613 0
M  V30 6927 H 642.467 0.356582 -0.56841 0
M  V30 6928 H 645.011 0.490618 -1.98528 0
M  V30 6929 H 643.166 2.90604 -2.56179 0
M  V30 6930 H 643.58 2.3298 -4.69916 0
M  V30 6931 H 645.054 3.86351 -3.94255 0
M  V30 6932 H 645.531 3.77264 -2.24874 0
M  V30 6933 H 646.137 2.55783 -3.39787 0
M  V30 6934 N 644.452 1.42507 0.673017 0
M  V30 6935 C 645.863 1.38347 1.25367 0
M  V30 6936 C 646.214 0.0776327 1.96046 0
M  V30 6937 O 645.339 -0.823571 2.00116 0
M  V30 6938 C 645.934 2.506 2.28002 0
M  V30 6939 C 644.493 2.49767 2.81591 0
M  V30 6940 C 643.64 2.293 1.55938 0
M  V30 6941 H 646.591 1.51695 0.466288 0
M  V30 6942 H 646.612 2.20953 3.09774 0
M  V30 6943 H 646.124 3.45627 1.76532 0
M  V30 6944 H 644.225 1.58563 3.37177 0
M  V30 6945 H 644.338 3.46867 3.30485 0
M  V30 6946 H 642.702 1.77594 1.82572 0
M  V30 6947 H 643.485 3.26385 1.06431 0
M  V30 6948 N 645.93 -0.909495 1.28709 0
M  V30 6949 C 647.179 -1.65365 1.15487 0
M  V30 6950 C 647.492 -1.93364 -0.294941 0
M  V30 6951 O 648.698 -2.65905 -0.548338 0
M  V30 6952 C 647.154 -2.97923 2.01916 0
M  V30 6953 C 646.762 -2.77556 3.51663 0
M  V30 6954 C 648.506 -3.75814 1.97393 0
M  V30 6955 C 646.413 -4.0578 4.30229 0
M  V30 6956 H 645.343 -0.620323 0.42862 0
M  V30 6957 H 647.994 -1.00894 1.53273 0
M  V30 6958 H 646.376 -3.63552 1.5699 0
M  V30 6959 H 647.55 -2.2058 4.04575 0
M  V30 6960 H 645.865 -2.13072 3.57756 0
M  V30 6961 H 648.462 -4.70866 2.53357 0
M  V30 6962 H 648.805 -4.05277 0.951643 0
M  V30 6963 H 649.338 -3.1701 2.40311 0
M  V30 6964 H 646.077 -3.81488 5.33055 0
M  V30 6965 H 645.597 -4.62351 3.82089 0
M  V30 6966 H 647.276 -4.74004 4.40374 0
M  V30 6967 N 647.408 -1.11026 -1.11852 0
M  V30 6968 C 648.318 -0.777252 -2.2135 0
M  V30 6969 C 649.334 0.227821 -1.72502 0
M  V30 6970 O 650.51 0.0650587 -2.01295 0
M  V30 6971 C 647.575 -0.220668 -3.45997 0
M  V30 6972 C 646.636 -1.2838 -4.09655 0
M  V30 6973 C 645.869 -0.753678 -5.28352 0
M  V30 6974 O 646.092 0.417779 -5.68868 0
M  V30 6975 O 645.026 -1.51647 -5.82483 0
M  V30 6976 H 648.852 -1.69141 -2.5224 0
M  V30 6977 H 646.437 -0.885836 -1.20305 0
M  V30 6978 H 648.319 0.0855756 -4.21313 0
M  V30 6979 H 646.994 0.666262 -3.16769 0
M  V30 6980 H 645.901 -1.64299 -3.3609 0
M  V30 6981 H 647.234 -2.14396 -4.43052 0
M  V30 6982 N 648.886 1.2938 -0.899927 0
M  V30 6983 C 650.116 1.99402 -0.540601 0
M  V30 6984 C 650.524 1.67534 0.87914 0
M  V30 6985 O 649.867 0.916821 1.59186 0
M  V30 6986 C 649.929 3.53514 -0.653326 0
M  V30 6987 C 649.593 4.08937 -2.04009 0
M  V30 6988 C 650.59 4.23815 -3.01126 0
M  V30 6989 C 648.275 4.43962 -2.34953 0
M  V30 6990 C 650.269 4.72951 -4.27313 0
M  V30 6991 C 647.956 4.92795 -3.61382 0
M  V30 6992 C 648.954 5.07244 -4.57376 0
M  V30 6993 O 648.642 5.55017 -5.8156 0
M  V30 6994 H 648.374 0.64383 -0.206057 0
M  V30 6995 H 650.928 1.65878 -1.21134 0
M  V30 6996 H 649.158 3.86628 0.0744449 0
M  V30 6997 H 650.847 4.04767 -0.303118 0
M  V30 6998 H 651.613 3.97043 -2.78535 0
M  V30 6999 H 647.492 4.31974 -1.60994 0
M  V30 7000 H 651.036 4.84144 -5.02245 0
M  V30 7001 H 646.933 5.19004 -3.83804 0
M  V30 7002 H 647.701 5.73331 -5.84153 0
M  V30 7003 N 650.364 0.662433 1.43002 0
M  V30 7004 C 651.611 0.179591 2.01702 0
M  V30 7005 C 651.939 -1.20964 1.52309 0
M  V30 7006 O 651.194 -1.82343 0.7106 0
M  V30 7007 C 651.493 0.149363 3.57088 0
M  V30 7008 C 651.159 1.48158 4.25864 0
M  V30 7009 C 649.821 1.84638 4.44367 0
M  V30 7010 C 652.173 2.35953 4.64732 0
M  V30 7011 C 649.501 3.08561 4.99006 0
M  V30 7012 C 651.853 3.59176 5.20745 0
M  V30 7013 C 650.517 3.95841 5.37463 0
M  V30 7014 H 649.787 0.0657172 0.73808 0
M  V30 7015 H 652.434 0.854968 1.71355 0
M  V30 7016 H 650.739 -0.609491 3.8703 0
M  V30 7017 H 652.436 -0.241241 4.00274 0
M  V30 7018 H 649.026 1.18777 4.11813 0
M  V30 7019 H 653.21 2.09058 4.50121 0
M  V30 7020 H 648.466 3.37005 5.10135 0
M  V30 7021 H 652.64 4.27417 5.49807 0
M  V30 7022 H 650.267 4.91942 5.79566 0
M  V30 7023 N 651.842 -1.52309 0.404946 0
M  V30 7024 C 652.79 -2.28452 -0.437321 0
M  V30 7025 C 653.784 -1.32975 -1.04948 0
M  V30 7026 O 654.99 -1.50451 -0.988159 0
M  V30 7027 H 651.365 -0.734824 -0.159805 0
M  V30 7028 H 653.336 -2.97542 0.22615 0
M  V30 7029 C 652.085 -3.11536 -1.54404 0
M  V30 7030 H 651.408 -3.84871 -1.08233 0
M  V30 7031 H 652.848 -3.67926 -2.10729 0
M  V30 7032 C 651.307 -2.24833 -2.50902 0
M  V30 7033 O 651.837 -1.88574 -3.54687 0
M  V30 7034 N 650.043 -1.88685 -2.21012 0
M  V30 7035 H 649.59 -2.18371 -1.36646 0
M  V30 7036 H 649.548 -1.30966 -2.85824 0
M  V30 7037 N 653.32 -0.135238 -1.57019 0
M  V30 7038 C 654.268 0.826099 -2.17436 0
M  V30 7039 C 655.262 1.26378 -1.12805 0
M  V30 7040 O 656.468 1.23363 -1.31079 0
M  V30 7041 H 652.843 0.284568 -0.696078 0
M  V30 7042 H 654.814 0.292212 -2.96966 0
M  V30 7043 C 653.563 2.05991 -2.80112 0
M  V30 7044 H 652.886 1.73209 -3.60331 0
M  V30 7045 H 654.326 2.71225 -3.25903 0
M  V30 7046 C 652.785 2.86027 -1.78017 0
M  V30 7047 O 653.315 3.81971 -1.24344 0
M  V30 7048 N 651.521 2.50332 -1.47588 0
M  V30 7049 H 651.068 1.72377 -1.91426 0
M  V30 7050 H 651.026 3.04177 -0.795228 0
M  V30 7051 N 654.798 1.5699 0.138552 0
M  V30 7052 C 655.745 1.98899 1.17081 0
M  V30 7053 C 656.715 0.857922 1.42228 0
M  V30 7054 O 657.9 1.12065 1.54422 0
M  V30 7055 C 655.04 2.38189 2.4972 0
M  V30 7056 C 654.153 3.64624 2.31674 0
M  V30 7057 C 653.288 3.9298 3.57407 0
M  V30 7058 C 652.327 5.1266 3.34435 0
M  V30 7059 N 651.464 5.36983 4.5232 0
M  V30 7060 H 656.304 2.86881 0.80642 0
M  V30 7061 H 653.841 1.41925 0.386727 0
M  V30 7062 H 655.799 2.59 3.2707 0
M  V30 7063 H 654.429 1.53275 2.84089 0
M  V30 7064 H 653.481 3.51542 1.45337 0
M  V30 7065 H 654.793 4.52131 2.10664 0
M  V30 7066 H 653.947 4.14335 4.43183 0
M  V30 7067 H 652.686 3.03912 3.8143 0
M  V30 7068 H 651.691 4.9117 2.47048 0
M  V30 7069 H 652.916 6.03288 3.11802 0
M  V30 7070 H 650.862 4.50871 4.76499 0
M  V30 7071 H 650.779 6.18775 4.34343 0
M  V30 7072 H 652.047 5.62842 5.39285 0
M  V30 7073 N 656.276 -0.40816 1.52223 0
M  V30 7074 C 657.525 -1.15212 1.65557 0
M  V30 7075 C 657.838 -1.9163 0.392096 0
M  V30 7076 O 659.044 -2.68458 0.405256 0
M  V30 7077 C 657.5 -2.09691 2.92502 0
M  V30 7078 C 657.108 -1.38785 4.25961 0
M  V30 7079 C 658.852 -2.8434 3.152 0
M  V30 7080 C 656.759 -2.31919 5.44029 0
M  V30 7081 H 655.689 -0.433776 0.616729 0
M  V30 7082 H 658.34 -0.4165 1.78711 0
M  V30 7083 H 656.722 -2.8681 2.7305 0
M  V30 7084 H 657.896 -0.670248 4.55899 0
M  V30 7085 H 656.211 -0.761741 4.09373 0
M  V30 7086 H 658.808 -3.54166 4.00587 0
M  V30 7087 H 659.151 -3.47344 2.29473 0
M  V30 7088 H 659.684 -2.14321 3.35129 0
M  V30 7089 H 656.423 -1.7356 6.32105 0
M  V30 7090 H 655.943 -3.0165 5.18428 0
M  V30 7091 H 657.622 -2.92424 5.77146 0
M  V30 7092 N 657.755 -1.42862 -0.66545 0
M  V30 7093 C 659.001 -1.44043 -1.42757 0
M  V30 7094 C 659.334 -0.0599629 -1.94107 0
M  V30 7095 O 658.609 0.917286 -1.71511 0
M  V30 7096 C 658.892 -2.47266 -2.61786 0
M  V30 7097 C 658.745 -3.94539 -2.16007 0
M  V30 7098 C 660.064 -2.47365 -3.64003 0
M  V30 7099 H 657.183 -0.524506 -0.517748 0
M  V30 7100 H 659.825 -1.74335 -0.755466 0
M  V30 7101 H 657.975 -2.21565 -3.19126 0
M  V30 7102 H 659.647 -4.31254 -1.63762 0
M  V30 7103 H 657.89 -4.07957 -1.47491 0
M  V30 7104 H 658.561 -4.62357 -3.01546 0
M  V30 7105 H 661.037 -2.70243 -3.16399 0
M  V30 7106 H 659.913 -3.21552 -4.44854 0
M  V30 7107 H 660.174 -1.50299 -4.15767 0
M  V30 7108 N 659.233 0.902656 -1.29189 0
M  V30 7109 C 660.473 1.6672 -1.18254 0
M  V30 7110 C 660.837 1.90199 0.262336 0
M  V30 7111 O 662.038 2.6421 0.494612 0
M  V30 7112 C 660.309 2.98178 -1.9704 0
M  V30 7113 S 661.868 3.89226 -2.02605 0
M  V30 7114 H 658.686 0.572432 -0.421714 0
M  V30 7115 H 661.288 1.07279 -1.63436 0
M  V30 7116 H 659.992 2.788 -3.01163 0
M  V30 7117 H 659.523 3.62661 -1.5245 0
M  V30 7118 H 661.538 4.82913 -1.14059 0
M  V30 7119 N 660.711 1.11618 1.11262 0
M  V30 7120 C 661.988 0.777876 1.79467 0
M  V30 7121 C 662.368 -0.733774 1.97937 0
M  V30 7122 O 661.716 -1.66443 1.56554 0
M  V30 7123 C 661.926 1.5431 3.13032 0
M  V30 7124 C 663.274 1.72357 3.88044 0
M  V30 7125 O 664.298 1.5075 3.22727 0
M  V30 7126 O 663.157 2.08276 5.05256 0
M  V30 7127 H 660.251 0.282018 0.777428 0
M  V30 7128 H 662.797 1.21971 1.17988 0
M  V30 7129 H 661.569 2.57132 2.94956 0
M  V30 7130 H 661.192 1.09495 3.82226 0
M  V30 7131 N 662.189 -1.289 0.906776 0
M  V30 7132 C 663.119 -2.29932 0.406659 0
M  V30 7133 C 664.1 -1.6189 -0.522061 0
M  V30 7134 O 665.285 -1.8935 -0.431283 0
M  V30 7135 C 662.415 -3.45425 -0.360366 0
M  V30 7136 C 661.369 -4.25316 0.478574 0
M  V30 7137 C 660.695 -5.33076 -0.416373 0
M  V30 7138 C 661.995 -4.92739 1.7322 0
M  V30 7139 H 663.689 -2.72013 1.25097 0
M  V30 7140 H 661.235 -1.30768 0.602977 0
M  V30 7141 H 663.188 -4.15186 -0.721029 0
M  V30 7142 H 661.912 -3.02206 -1.23852 0
M  V30 7143 H 660.571 -3.57273 0.821662 0
M  V30 7144 H 660.219 -4.86101 -1.29287 0
M  V30 7145 H 659.919 -5.8743 0.141309 0
M  V30 7146 H 661.443 -6.05686 -0.773072 0
M  V30 7147 H 662.857 -5.54898 1.44086 0
M  V30 7148 H 661.254 -5.57057 2.23175 0
M  V30 7149 H 662.324 -4.17625 2.46408 0
M  V30 7150 N 663.667 -0.670007 -1.42649 0
M  V30 7151 C 664.916 -0.187526 -2.00826 0
M  V30 7152 C 665.229 1.21142 -1.53571 0
M  V30 7153 O 666.435 1.79001 -2.04134 0
M  V30 7154 C 664.891 -0.284409 -3.58774 0
M  V30 7155 C 664.499 -1.6871 -4.15019 0
M  V30 7156 C 666.243 0.139605 -4.2427 0
M  V30 7157 C 664.15 -1.73701 -5.65316 0
M  V30 7158 H 663.08 -0.0663468 -0.751075 0
M  V30 7159 H 665.731 -0.834492 -1.63427 0
M  V30 7160 H 664.113 0.430364 -3.93655 0
M  V30 7161 H 665.287 -2.42857 -3.91608 0
M  V30 7162 H 663.602 -2.05855 -3.61957 0
M  V30 7163 H 666.199 0.122398 -5.3456 0
M  V30 7164 H 666.542 1.17403 -3.99402 0
M  V30 7165 H 667.075 -0.523995 -3.94334 0
M  V30 7166 H 663.814 -2.75109 -5.94975 0
M  V30 7167 H 663.334 -1.03903 -5.90732 0
M  V30 7168 H 665.013 -1.48829 -6.2965 0
M  V30 7169 N 665.145 1.52092 -0.413018 0
M  V30 7170 C 666.055 2.30858 0.417318 0
M  V30 7171 C 667.071 1.38746 1.05003 0
M  V30 7172 O 668.247 1.71821 1.05069 0
M  V30 7173 C 665.312 3.11756 1.51687 0
M  V30 7174 C 664.373 4.19613 0.906825 0
M  V30 7175 C 663.606 4.96644 1.95399 0
M  V30 7176 O 663.829 4.7402 3.17271 0
M  V30 7177 O 662.763 5.81385 1.55805 0
M  V30 7178 H 666.589 3.02865 -0.225028 0
M  V30 7179 H 664.174 1.48358 -0.176126 0
M  V30 7180 H 666.056 3.62122 2.15512 0
M  V30 7181 H 664.731 2.42539 2.14375 0
M  V30 7182 H 663.638 3.73385 0.231183 0
M  V30 7183 H 664.971 4.91134 0.323814 0
M  V30 7184 N 666.623 0.143563 1.56945 0
M  V30 7185 C 667.571 -0.814556 2.17871 0
M  V30 7186 C 668.565 -1.25778 1.13474 0
M  V30 7187 O 669.771 -1.22666 1.31731 0
M  V30 7188 H 666.146 -0.280873 0.697578 0
M  V30 7189 H 668.117 -0.276459 2.97117 0
M  V30 7190 C 666.866 -2.04503 2.81201 0
M  V30 7191 H 666.189 -1.71296 3.61245 0
M  V30 7192 H 667.629 -2.69493 3.27337 0
M  V30 7193 C 666.088 -2.85079 1.79532 0
M  V30 7194 O 666.618 -3.81306 1.26368 0
M  V30 7195 N 664.824 -2.49546 1.48913 0
M  V30 7196 H 664.371 -1.71359 1.92338 0
M  V30 7197 H 664.329 -3.03751 0.811348 0
M  V30 7198 N 668.101 -1.57061 -0.130224 0
M  V30 7199 C 669.048 -1.99517 -1.16024 0
M  V30 7200 C 670.018 -0.865452 -1.41771 0
M  V30 7201 O 671.203 -1.12882 -1.53826 0
M  V30 7202 C 668.343 -2.3951 -2.48453 0
M  V30 7203 C 667.456 -3.65848 -2.29737 0
M  V30 7204 C 666.591 -3.9487 -3.55318 0
M  V30 7205 C 665.63 -5.14426 -3.31711 0
M  V30 7206 N 664.767 -5.39375 -4.49466 0
M  V30 7207 H 669.607 -2.87305 -0.791194 0
M  V30 7208 H 667.144 -1.42129 -0.379195 0
M  V30 7209 H 669.102 -2.60731 -3.25692 0
M  V30 7210 H 667.732 -1.54779 -2.83272 0
M  V30 7211 H 666.784 -3.52307 -1.4347 0
M  V30 7212 H 668.096 -4.53241 -2.08263 0
M  V30 7213 H 667.25 -4.16679 -4.4098 0
M  V30 7214 H 665.989 -3.05931 -3.79813 0
M  V30 7215 H 664.994 -4.92473 -2.44439 0
M  V30 7216 H 666.219 -6.04933 -3.08598 0
M  V30 7217 H 664.165 -4.53391 -4.74102 0
M  V30 7218 H 664.082 -6.21069 -4.31055 0
M  V30 7219 H 665.35 -5.65694 -5.36293 0
M  V30 7220 N 669.579 0.400081 -1.52437 0
M  V30 7221 C 670.825 1.14788 -1.67187 0
M  V30 7222 C 671.158 1.89928 -0.405074 0
M  V30 7223 O 670.433 1.85118 0.596804 0
M  V30 7224 C 670.716 2.13507 -2.89977 0
M  V30 7225 C 670.569 1.42204 -4.2673 0
M  V30 7226 C 671.888 3.14069 -3.083 0
M  V30 7227 H 669.007 0.415939 -0.608411 0
M  V30 7228 H 671.649 0.432542 -1.85011 0
M  V30 7229 H 669.799 2.7451 -2.74912 0
M  V30 7230 H 671.471 0.842503 -4.53541 0
M  V30 7231 H 669.714 0.723939 -4.27717 0
M  V30 7232 H 670.385 2.14281 -5.08712 0
M  V30 7233 H 672.861 2.63148 -3.22323 0
M  V30 7234 H 671.737 3.80398 -3.95713 0
M  V30 7235 H 671.998 3.82309 -2.22018 0
M  V30 7236 N 671.057 1.43213 0.657864 0
M  V30 7237 C 672.005 1.48271 1.79216 0
M  V30 7238 C 672.999 0.35675 1.65601 0
M  V30 7239 O 674.205 0.530535 1.72004 0
M  V30 7240 H 670.58 0.464729 0.591211 0
M  V30 7241 H 672.551 2.43792 1.7207 0
M  V30 7242 C 671.3 1.41837 3.17455 0
M  V30 7243 H 670.623 2.27781 3.28567 0
M  V30 7244 H 672.063 1.49438 3.96793 0
M  V30 7245 C 670.522 0.135347 3.36628 0
M  V30 7246 O 671.052 -0.805199 3.93547 0
M  V30 7247 N 669.258 0.0470316 2.90562 0
M  V30 7248 H 668.805 0.813221 2.44427 0
M  V30 7249 H 668.763 -0.810737 3.03767 0
M  V30 7250 N 672.536 -0.895792 1.29666 0
M  V30 7251 C 673.947 -1.46195 1.1612 0
M  V30 7252 C 674.298 -1.94699 -0.242195 0
M  V30 7253 O 673.423 -1.8406 -1.13802 0
M  V30 7254 C 674.018 -2.65718 2.10189 0
M  V30 7255 C 672.577 -3.18458 2.00653 0
M  V30 7256 C 671.724 -1.91149 2.00891 0
M  V30 7257 H 674.675 -0.706756 1.42094 0
M  V30 7258 H 674.696 -3.4158 1.6764 0
M  V30 7259 H 674.208 -2.30386 3.12321 0
M  V30 7260 H 672.309 -3.58474 1.01623 0
M  V30 7261 H 672.422 -3.82491 2.88509 0
M  V30 7262 H 670.786 -2.09021 1.45542 0
M  V30 7263 H 671.569 -1.58089 3.04734 0
M  V30 7264 N 674.014 -1.12206 -1.10668 0
M  V30 7265 C 675.425 -0.890657 -1.64086 0
M  V30 7266 C 675.776 0.575502 -1.8757 0
M  V30 7267 O 674.901 1.4394 -1.61587 0
M  V30 7268 C 675.496 -1.61029 -2.98085 0
M  V30 7269 C 674.055 -1.4251 -3.48379 0
M  V30 7270 C 673.202 -1.64778 -2.23033 0
M  V30 7271 H 676.153 -1.27718 -0.94201 0
M  V30 7272 H 676.174 -1.05993 -3.65439 0
M  V30 7273 H 675.686 -2.67735 -2.80962 0
M  V30 7274 H 673.787 -0.380497 -3.70652 0
M  V30 7275 H 673.9 -2.17959 -4.26651 0
M  V30 7276 H 672.264 -1.07171 -2.31055 0
M  V30 7277 H 673.047 -2.72776 -2.08443 0
M  V30 7278 N 675.492 1.28418 -0.913599 0
M  V30 7279 C 676.74 1.94596 -0.545594 0
M  V30 7280 C 677.061 1.7227 0.913668 0
M  V30 7281 O 676.331 1.06233 1.64595 0
M  V30 7282 H 674.911 0.720065 -0.198783 0
M  V30 7283 H 677.573 1.56404 -1.16292 0
M  V30 7284 H 676.669 3.03202 -0.739911 0
M  V30 7285 N 676.97 0.677563 1.42291 0
M  V30 7286 C 678.219 0.198173 2.00724 0
M  V30 7287 C 678.532 -1.20325 1.54211 0
M  V30 7288 O 679.738 -1.77916 2.05081 0
M  V30 7289 C 678.194 0.303432 3.58619 0
M  V30 7290 C 677.802 1.70909 4.14119 0
M  V30 7291 C 679.546 -0.117103 4.24338 0
M  V30 7292 C 677.453 1.76696 5.64387 0
M  V30 7293 H 676.383 0.070329 0.750713 0
M  V30 7294 H 679.034 0.843147 1.62982 0
M  V30 7295 H 677.416 -0.409482 3.93877 0
M  V30 7296 H 678.59 2.44931 3.90315 0
M  V30 7297 H 676.905 2.07771 3.6086 0
M  V30 7298 H 679.502 -0.0940471 5.34617 0
M  V30 7299 H 679.845 -1.15283 4.00019 0
M  V30 7300 H 680.378 0.5449 3.9405 0
M  V30 7301 H 677.117 2.7826 5.93508 0
M  V30 7302 H 676.637 1.07034 5.90173 0
M  V30 7303 H 678.316 1.52166 6.28852 0
M  V30 7304 N 678.448 -1.51871 0.421078 0
M  V30 7305 C 679.381 -2.23851 -0.443369 0
M  V30 7306 C 680.359 -1.25142 -1.03818 0
M  V30 7307 O 681.543 -1.5423 -1.08377 0
M  V30 7308 C 678.67 -2.97637 -1.61648 0
M  V30 7309 C 677.716 -4.10873 -1.14391 0
M  V30 7310 S 678.549 -5.35408 -0.0992403 0
M  V30 7311 C 679.705 -6.12726 -1.27739 0
M  V30 7312 H 679.938 -2.96826 0.167786 0
M  V30 7313 H 677.471 -1.53027 0.205461 0
M  V30 7314 H 679.429 -3.40751 -2.28909 0
M  V30 7315 H 678.09 -2.24282 -2.199 0
M  V30 7316 H 677.283 -4.61718 -2.02069 0
M  V30 7317 H 676.885 -3.69937 -0.549775 0
M  V30 7318 H 679.177 -6.40827 -2.19881 0
M  V30 7319 H 680.12 -7.03461 -0.809239 0
M  V30 7320 H 680.528 -5.43968 -1.5086 0
M  V30 7321 N 679.926 -0.151884 -1.56866 0
M  V30 7322 C 681.151 0.508044 -2.01081 0
M  V30 7323 C 681.576 1.57306 -1.03134 0
M  V30 7324 O 680.934 1.81298 -0.0078309 0
M  V30 7325 C 680.982 1.08106 -3.44014 0
M  V30 7326 O 680.086 2.19577 -3.49084 0
M  V30 7327 H 679.427 0.123757 -0.652365 0
M  V30 7328 H 681.957 -0.250055 -2.03066 0
M  V30 7329 H 681.967 1.40851 -3.82916 0
M  V30 7330 H 680.642 0.301168 -4.14808 0
M  V30 7331 H 679.219 1.88023 -3.22027 0
M  V30 7332 N 681.404 1.57128 0.121893 0
M  V30 7333 C 682.653 1.83888 0.828748 0
M  V30 7334 C 682.966 0.737087 1.81181 0
M  V30 7335 O 684.172 0.891007 2.56463 0
M  V30 7336 C 682.628 3.26014 1.52455 0
M  V30 7337 C 682.236 4.44195 0.58263 0
M  V30 7338 C 683.98 3.62025 2.21671 0
M  V30 7339 C 681.887 5.77349 1.28149 0
M  V30 7340 H 680.817 0.685856 0.313238 0
M  V30 7341 H 683.468 1.83319 0.0814851 0
M  V30 7342 H 681.85 3.21044 2.31834 0
M  V30 7343 H 683.024 4.60457 -0.177729 0
M  V30 7344 H 681.339 4.164 -0.00241228 0
M  V30 7345 H 683.936 4.58776 2.74643 0
M  V30 7346 H 684.279 2.89315 2.99337 0
M  V30 7347 H 684.812 3.68767 1.49184 0
M  V30 7348 H 681.551 6.53221 0.546189 0
M  V30 7349 H 681.071 5.64978 2.01394 0
M  V30 7350 H 682.75 6.21006 1.81549 0
M  V30 7351 N 682.882 -0.391992 1.52647 0
M  V30 7352 C 683.812 -1.48517 1.8018 0
M  V30 7353 C 684.793 -1.57039 0.653667 0
M  V30 7354 O 685.978 -1.72036 0.900962 0
M  V30 7355 C 683.108 -2.86161 1.96797 0
M  V30 7356 C 682.062 -2.92481 3.12472 0
M  V30 7357 C 681.388 -4.32546 3.14338 0
M  V30 7358 C 682.688 -2.624 4.51601 0
M  V30 7359 H 684.382 -1.25726 2.71723 0
M  V30 7360 H 681.928 -0.603387 1.30749 0
M  V30 7361 H 683.881 -3.62639 2.14641 0
M  V30 7362 H 682.605 -3.10283 1.01941 0
M  V30 7363 H 681.264 -2.18451 2.94406 0
M  V30 7364 H 680.912 -4.53703 2.1717 0
M  V30 7365 H 680.612 -4.37695 3.92042 0
M  V30 7366 H 682.136 -5.10934 3.34333 0
M  V30 7367 H 683.55 -3.28596 4.69785 0
M  V30 7368 H 681.947 -2.78903 5.3135 0
M  V30 7369 H 683.017 -1.57754 4.58521 0
M  V30 7370 N 684.36 -1.4356 -0.65026 0
M  V30 7371 C 685.637 -1.35811 -1.40765 0
M  V30 7372 C 686.017 -0.00736379 -2.11099 0
M  V30 7373 O 685.365 1.00932 -2.05 0
M  V30 7374 C 685.575 -2.54332 -2.3899 0
M  V30 7375 C 686.923 -2.97551 -3.02901 0
M  V30 7376 O 687.947 -2.544 -2.49317 0
M  V30 7377 O 686.806 -3.72311 -4.00059 0
M  V30 7378 H 683.9 -0.536861 -0.629054 0
M  V30 7379 H 686.446 -1.55615 -0.676919 0
M  V30 7380 H 685.218 -3.44274 -1.85986 0
M  V30 7381 H 684.841 -2.36643 -3.19509 0
M  V30 7382 N 685.838 0.888903 -1.30139 0
M  V30 7383 C 687.115 1.62145 -1.094 0
M  V30 7384 C 687.495 2.08041 0.358091 0
M  V30 7385 O 686.843 1.84438 1.34888 0
M  V30 7386 C 687.053 2.794 -2.09133 0
M  V30 7387 C 688.401 3.49826 -2.40638 0
M  V30 7388 O 689.425 2.89583 -2.07412 0
M  V30 7389 O 688.284 4.58457 -2.97455 0
M  V30 7390 H 685.378 0.712475 -0.41989 0
M  V30 7391 H 687.924 0.936023 -1.41551 0
M  V30 7392 H 686.696 2.42762 -3.06891 0
M  V30 7393 H 686.319 3.55643 -1.77776 0
M  V30 7394 N 687.317 1.12792 1.10072 0
M  V30 7395 C 688.563 0.886857 1.82381 0
M  V30 7396 C 688.896 -0.58576 1.85155 0
M  V30 7397 O 688.171 -1.43317 1.31493 0
M  V30 7398 C 688.454 1.46703 3.28862 0
M  V30 7399 C 688.307 3.00829 3.34398 0
M  V30 7400 C 689.626 1.12971 4.25353 0
M  V30 7401 H 686.745 0.32362 0.662148 0
M  V30 7402 H 689.387 1.39513 1.28982 0
M  V30 7403 H 687.537 1.03476 3.74466 0
M  V30 7404 H 689.209 3.52764 2.97247 0
M  V30 7405 H 687.452 3.36164 2.74183 0
M  V30 7406 H 688.123 3.36519 4.3756 0
M  V30 7407 H 690.599 1.50313 3.88001 0
M  V30 7408 H 689.475 1.56223 5.26199 0
M  V30 7409 H 689.736 0.0424452 4.4208 0
M  V30 7410 N 688.795 -1.27931 0.920396 0
M  V30 7411 C 690.035 -1.96459 0.564198 0
M  V30 7412 C 690.399 -1.70802 -0.876967 0
M  V30 7413 O 691.6 -2.32956 -1.34107 0
M  V30 7414 C 689.871 -3.46583 0.872641 0
M  V30 7415 S 691.43 -4.34343 0.623859 0
M  V30 7416 H 688.248 -0.679735 0.208523 0
M  V30 7417 H 690.85 -1.55319 1.18727 0
M  V30 7418 H 689.554 -3.62753 1.91933 0
M  V30 7419 H 689.085 -3.92677 0.238479 0
M  V30 7420 H 691.1 -4.93449 -0.521744 0
M  V30 7421 N 690.273 -0.685099 -1.4193 0
M  V30 7422 C 691.236 -0.0222632 -2.29189 0
M  V30 7423 C 692.236 0.7186 -1.4385 0
M  V30 7424 O 693.426 0.555058 -1.6512 0
M  V30 7425 C 690.558 0.979013 -3.2654 0
M  V30 7426 H 691.751 -0.790424 -2.89296 0
M  V30 7427 H 689.304 -0.448012 -1.49742 0
M  V30 7428 H 690.039 1.77531 -2.71392 0
M  V30 7429 H 689.824 0.451037 -3.89497 0
M  V30 7430 H 691.314 1.44091 -3.91954 0
M  V30 7431 N 691.751 1.51645 -0.429126 0
M  V30 7432 C 692.979 2.06433 0.138994 0
M  V30 7433 C 693.394 1.29735 1.37165 0
M  V30 7434 O 692.751 0.354638 1.79021 0
M  V30 7435 C 692.802 3.58439 0.469452 0
M  V30 7436 O 692.523 4.32238 -0.714273 0
M  V30 7437 C 694.024 4.29712 1.08914 0
M  V30 7438 H 691.244 0.6709 0.0115608 0
M  V30 7439 H 693.788 1.9532 -0.605843 0
M  V30 7440 H 691.943 3.69494 1.16419 0
M  V30 7441 H 692.357 5.22704 -0.433633 0
M  V30 7442 H 693.831 5.37182 1.27042 0
M  V30 7443 H 694.308 3.87473 2.06788 0
M  V30 7444 H 694.914 4.2308 0.434028 0
M  V30 7445 N 693.229 0.160201 1.56784 0
M  V30 7446 C 694.162 -0.812797 2.13234 0
M  V30 7447 C 695.14 -1.2335 1.05942 0
M  V30 7448 O 696.324 -1.32725 1.33852 0
M  V30 7449 C 693.451 -2.09311 2.66283 0
M  V30 7450 C 692.497 -1.8173 3.85845 0
M  V30 7451 S 693.33 -0.996473 5.26147 0
M  V30 7452 C 694.486 -2.28769 5.82594 0
M  V30 7453 H 694.719 -0.332794 2.95432 0
M  V30 7454 H 692.252 -0.0542971 1.54304 0
M  V30 7455 H 694.21 -2.82854 2.97496 0
M  V30 7456 H 692.871 -2.54425 1.84192 0
M  V30 7457 H 692.064 -2.76699 4.21253 0
M  V30 7458 H 691.666 -1.16289 3.55462 0
M  V30 7459 H 693.958 -3.24319 5.9483 0
M  V30 7460 H 694.901 -1.97846 6.79899 0
M  V30 7461 H 695.309 -2.40021 5.10931 0
M  V30 7462 N 694.707 -1.5719 -0.113559 0
M  V30 7463 C 695.657 -1.97166 -1.14497 0
M  V30 7464 C 696.641 -0.847413 -1.36776 0
M  V30 7465 O 697.833 -1.11114 -1.37777 0
M  V30 7466 C 694.962 -2.38411 -2.47013 0
M  V30 7467 C 694.048 -3.5748 -2.28185 0
M  V30 7468 N 694.439 -4.72998 -1.79182 0
M  V30 7469 C 692.737 -3.63218 -2.58821 0
M  V30 7470 C 693.438 -5.55007 -1.74191 0
M  V30 7471 N 692.414 -4.9765 -2.18735 0
M  V30 7472 H 696.216 -2.83937 -0.758733 0
M  V30 7473 H 693.73 -1.59191 -0.321234 0
M  V30 7474 H 695.727 -2.65269 -3.21618 0
M  V30 7475 H 694.387 -1.53007 -2.8639 0
M  V30 7476 H 695.398 -4.96109 -1.48649 0
M  V30 7477 H 692.075 -2.88434 -3.01847 0
M  V30 7478 H 693.465 -6.57678 -1.37512 0
M  V30 7479 N 696.185 0.383891 -1.52853 0
M  V30 7480 C 697.148 1.45197 -1.77343 0
M  V30 7481 C 698.148 1.47362 -0.643522 0
M  V30 7482 O 699.338 1.48443 -0.911613 0
M  V30 7483 C 696.47 2.8445 -1.87885 0
M  V30 7484 H 697.663 1.24764 -2.72716 0
M  V30 7485 H 695.216 0.615939 -1.43652 0
M  V30 7486 H 695.951 3.10222 -0.94515 0
M  V30 7487 H 695.736 2.8428 -2.70051 0
M  V30 7488 H 697.226 3.61832 -2.08488 0
M  V30 7489 N 697.663 1.43903 0.642637 0
M  V30 7490 C 698.909 1.46296 1.40447 0
M  V30 7491 C 699.242 0.0908361 1.93987 0
M  V30 7492 O 698.517 -0.889884 1.72949 0
M  V30 7493 C 698.8 2.51399 2.57819 0
M  V30 7494 C 698.653 3.97926 2.09702 0
M  V30 7495 C 699.972 2.53125 3.60022 0
M  V30 7496 H 697.091 0.532676 0.509338 0
M  V30 7497 H 699.733 1.75515 0.727635 0
M  V30 7498 H 697.883 2.26614 3.1556 0
M  V30 7499 H 699.555 4.33804 1.5688 0
M  V30 7500 H 697.798 4.10252 1.40982 0
M  V30 7501 H 698.469 4.67096 2.94152 0
M  V30 7502 H 700.945 2.75242 3.12059 0
M  V30 7503 H 699.821 3.28589 4.39682 0
M  V30 7504 H 700.082 1.56895 4.13324 0
M  V30 7505 N 699.141 -0.881989 1.30609 0
M  V30 7506 C 700.389 -1.63082 1.19368 0
M  V30 7507 C 700.71 -1.93376 -0.251147 0
M  V30 7508 O 699.98 -1.5723 -1.16857 0
M  V30 7509 H 698.56 -0.604542 0.438791 0
M  V30 7510 H 701.222 -1.05658 1.63776 0
M  V30 7511 H 700.318 -2.57966 1.7567 0
M  V30 7512 N 700.619 -1.13374 -1.09472 0
M  V30 7513 C 701.529 -0.824029 -2.19652 0
M  V30 7514 C 702.545 0.19118 -1.72947 0
M  V30 7515 O 703.721 0.0223464 -2.01388 0
M  V30 7516 C 700.786 -0.294009 -3.45451 0
M  V30 7517 C 699.847 -1.3704 -4.0684 0
M  V30 7518 C 699.08 -0.86558 -5.26634 0
M  V30 7519 O 699.303 0.29702 -5.69626 0
M  V30 7520 O 698.237 -1.63968 -5.79136 0
M  V30 7521 H 702.063 -1.74454 -2.48595 0
M  V30 7522 H 699.648 -0.911155 -1.18399 0
M  V30 7523 H 701.53 -0.00381039 -4.214 0
M  V30 7524 H 700.205 0.598921 -3.18111 0
M  V30 7525 H 699.112 -1.71391 -3.3253 0
M  V30 7526 H 700.445 -2.23746 -4.38405 0
M  V30 7527 N 702.098 1.27442 -0.927168 0
M  V30 7528 C 703.346 1.94007 -0.566203 0
M  V30 7529 C 703.667 1.7323 0.895345 0
M  V30 7530 O 702.937 1.07973 1.63459 0
M  V30 7531 H 701.517 0.717917 -0.206409 0
M  V30 7532 H 704.179 1.55161 -1.17945 0
M  V30 7533 H 703.275 3.02401 -0.772028 0
M  V30 7534 N 703.576 0.692616 1.41565 0
M  V30 7535 C 704.539 0.0344174 2.29174 0
M  V30 7536 C 705.539 -0.710961 1.44229 0
M  V30 7537 O 706.729 -0.546293 1.65412 0
M  V30 7538 C 703.861 -0.961682 3.27054 0
M  V30 7539 H 705.054 0.805755 2.88873 0
M  V30 7540 H 702.607 0.455947 1.49502 0
M  V30 7541 H 703.342 -1.76089 2.72329 0
M  V30 7542 H 703.127 -0.430375 3.89731 0
M  V30 7543 H 704.617 -1.4201 3.92712 0
M  V30 7544 N 705.054 -1.51416 0.437162 0
M  V30 7545 C 706.331 -1.94682 -0.189292 0
M  V30 7546 C 706.711 -1.37581 -1.60108 0
M  V30 7547 O 706.059 -0.562815 -2.2146 0
M  V30 7548 C 706.269 -3.48599 -0.167201 0
M  V30 7549 C 707.617 -4.2296 -0.372856 0
M  V30 7550 O 708.641 -3.55354 -0.245323 0
M  V30 7551 O 707.5 -5.42895 -0.626693 0
M  V30 7552 H 704.594 -0.816708 -0.130063 0
M  V30 7553 H 707.14 -1.62316 0.495128 0
M  V30 7554 H 705.912 -3.82616 0.81981 0
M  V30 7555 H 705.535 -3.87406 -0.894537 0
M  V30 7556 N 706.532 -0.168513 -1.56696 0
M  V30 7557 C 707.464 0.794249 -2.14998 0
M  V30 7558 C 708.477 1.1957 -1.10485 0
M  V30 7559 O 709.666 1.13604 -1.37682 0
M  V30 7560 C 706.766 2.08018 -2.67547 0
M  V30 7561 C 705.939 1.84274 -3.96689 0
M  V30 7562 C 704.998 2.97059 -4.3433 0
M  V30 7563 O 704.024 2.67815 -5.02259 0
M  V30 7564 N 705.226 4.24775 -3.9566 0
M  V30 7565 H 707.991 0.295832 -2.98236 0
M  V30 7566 H 705.552 0.0143611 -1.61894 0
M  V30 7567 H 707.544 2.82559 -2.89729 0
M  V30 7568 H 706.114 2.49059 -1.88914 0
M  V30 7569 H 705.334 0.936528 -3.82914 0
M  V30 7570 H 706.622 1.65773 -4.81037 0
M  V30 7571 H 706.02 4.51395 -3.40968 0
M  V30 7572 H 704.577 4.96027 -4.22848 0
M  V30 7573 N 708.01 1.57248 0.105221 0
M  V30 7574 C 709.238 1.89768 0.82437 0
M  V30 7575 C 709.653 0.761192 1.72775 0
M  V30 7576 O 709.01 -0.267342 1.80531 0
M  V30 7577 C 709.061 3.2184 1.64625 0
M  V30 7578 O 708.782 4.31115 0.779217 0
M  V30 7579 C 710.283 3.68155 2.46935 0
M  V30 7580 H 707.503 0.628031 0.236259 0
M  V30 7581 H 710.047 2.04321 0.085485 0
M  V30 7582 H 708.202 3.08915 2.33775 0
M  V30 7583 H 708.616 5.06897 1.34745 0
M  V30 7584 H 710.09 4.6329 3.00111 0
M  V30 7585 H 710.567 2.95492 3.24932 0
M  V30 7586 H 711.173 3.83914 1.83002 0
M  V30 7587 N 709.488 -0.375779 1.53054 0
M  V30 7588 C 710.418 -1.46598 1.81745 0
M  V30 7589 C 711.399 -1.56337 0.670286 0
M  V30 7590 O 712.584 -1.71071 0.919158 0
M  V30 7591 C 709.714 -2.84058 1.99821 0
M  V30 7592 C 708.668 -2.8915 3.15557 0
M  V30 7593 C 707.994 -4.29187 3.18908 0
M  V30 7594 C 709.294 -2.57595 4.54359 0
M  V30 7595 H 710.988 -1.22837 2.73041 0
M  V30 7596 H 708.534 -0.589485 1.31381 0
M  V30 7597 H 710.487 -3.60342 2.18475 0
M  V30 7598 H 709.211 -3.09184 1.05226 0
M  V30 7599 H 707.87 -2.15316 2.96706 0
M  V30 7600 H 707.518 -4.51374 2.2197 0
M  V30 7601 H 707.218 -4.33512 3.96662 0
M  V30 7602 H 708.742 -5.07359 3.39734 0
M  V30 7603 H 710.156 -3.23595 4.73243 0
M  V30 7604 H 708.553 -2.73252 5.34279 0
M  V30 7605 H 709.623 -1.52882 4.60169 0
M  V30 7606 N 710.966 -1.44241 -0.634997 0
M  V30 7607 C 711.896 -1.53632 -1.7584 0
M  V30 7608 C 712.877 -0.389603 -1.65578 0
M  V30 7609 O 714.062 -0.609219 -1.84397 0
M  V30 7610 C 711.192 -1.47644 -3.14354 0
M  V30 7611 C 710.146 -2.60752 -3.394 0
M  V30 7612 C 709.472 -2.39817 -4.77904 0
M  V30 7613 C 710.772 -4.02921 -3.32343 0
M  V30 7614 H 712.466 -2.47662 -1.68238 0
M  V30 7615 H 710.012 -1.19197 -0.807969 0
M  V30 7616 H 711.965 -1.52815 -3.92716 0
M  V30 7617 H 710.689 -0.501284 -3.2273 0
M  V30 7618 H 709.348 -2.54965 -2.63417 0
M  V30 7619 H 708.996 -1.40502 -4.82978 0
M  V30 7620 H 708.696 -3.15649 -4.9562 0
M  V30 7621 H 710.22 -2.46799 -5.585 0
M  V30 7622 H 711.634 -4.10098 -4.00615 0
M  V30 7623 H 710.031 -4.78925 -3.61595 0
M  V30 7624 H 711.101 -4.26766 -2.30215 0
M  V30 7625 N 712.444 0.87505 -1.31075 0
M  V30 7626 C 713.376 1.98773 -1.14114 0
M  V30 7627 C 714.389 1.62595 -0.0816119 0
M  V30 7628 O 715.578 1.75449 -0.32861 0
M  V30 7629 C 712.678 3.31159 -0.720224 0
M  V30 7630 C 711.851 3.9571 -1.86366 0
M  V30 7631 C 710.91 5.06407 -1.42965 0
M  V30 7632 O 709.936 5.27501 -2.13848 0
M  V30 7633 N 711.138 5.79649 -0.314194 0
M  V30 7634 H 713.903 2.1387 -2.09951 0
M  V30 7635 H 711.464 1.04873 -1.23342 0
M  V30 7636 H 713.456 4.0259 -0.412687 0
M  V30 7637 H 712.026 3.12257 0.146396 0
M  V30 7638 H 711.246 3.17324 -2.33879 0
M  V30 7639 H 712.534 4.35576 -2.62966 0
M  V30 7640 H 711.932 5.65025 0.276228 0
M  V30 7641 H 710.489 6.51766 -0.0661641 0
M  V30 7642 N 713.922 1.13953 1.08869 0
M  V30 7643 C 714.869 0.82213 2.15661 0
M  V30 7644 C 715.839 -0.218274 1.6466 0
M  V30 7645 O 717.024 -0.0892475 1.90591 0
M  V30 7646 C 714.164 0.300572 3.43789 0
M  V30 7647 C 713.277 1.40071 4.08661 0
M  V30 7648 C 712.412 0.836897 5.24566 0
M  V30 7649 C 711.451 1.91504 5.81371 0
M  V30 7650 N 710.588 1.36875 6.88629 0
M  V30 7651 H 715.428 1.73683 2.42153 0
M  V30 7652 H 712.965 0.866879 1.18843 0
M  V30 7653 H 714.923 -0.0199943 4.17195 0
M  V30 7654 H 713.553 -0.577248 3.17597 0
M  V30 7655 H 712.605 1.83776 3.33062 0
M  V30 7656 H 713.917 2.21534 4.46905 0
M  V30 7657 H 713.071 0.467953 6.04893 0
M  V30 7658 H 711.81 -0.00874207 4.87699 0
M  V30 7659 H 710.815 2.29299 4.99702 0
M  V30 7660 H 712.04 2.76419 6.20298 0
M  V30 7661 H 709.986 0.545211 6.5373 0
M  V30 7662 H 709.903 2.1198 7.25672 0
M  V30 7663 H 711.171 1.02756 7.72698 0
M  V30 7664 N 715.4 -1.26948 0.933913 0
M  V30 7665 C 716.33 -2.29017 0.45534 0
M  V30 7666 C 717.311 -1.62961 -0.487605 0
M  V30 7667 O 718.496 -1.90223 -0.391022 0
M  V30 7668 C 715.626 -3.46112 -0.287015 0
M  V30 7669 C 714.58 -4.24205 0.568682 0
M  V30 7670 C 713.906 -5.3384 -0.303206 0
M  V30 7671 C 715.206 -4.88954 1.83633 0
M  V30 7672 H 716.9 -2.69298 1.30839 0
M  V30 7673 H 714.446 -1.29459 0.630579 0
M  V30 7674 H 716.399 -4.16622 -0.6328 0
M  V30 7675 H 715.123 -3.04765 -1.17414 0
M  V30 7676 H 713.782 -3.5545 0.897261 0
M  V30 7677 H 713.43 -4.88734 -1.18947 0
M  V30 7678 H 713.13 -5.86998 0.265879 0
M  V30 7679 H 714.654 -6.0719 -0.644423 0
M  V30 7680 H 716.068 -5.51717 1.55823 0
M  V30 7681 H 714.465 -5.52198 2.34941 0
M  V30 7682 H 715.535 -4.12305 2.55211 0
M  V30 7683 N 716.879 -0.700114 -1.41195 0
M  V30 7684 C 717.811 0.00155823 -2.292 0
M  V30 7685 C 718.824 0.739736 -1.45023 0
M  V30 7686 O 720.013 0.589684 -1.68478 0
M  V30 7687 C 717.113 1.02635 -3.22985 0
M  V30 7688 C 716.286 0.356871 -4.35942 0
M  V30 7689 C 715.345 1.28491 -5.10271 0
M  V30 7690 O 714.371 0.775562 -5.63892 0
M  V30 7691 N 715.573 2.61699 -5.18164 0
M  V30 7692 H 718.338 -0.754008 -2.9006 0
M  V30 7693 H 715.899 -0.546504 -1.52397 0
M  V30 7694 H 717.891 1.64902 -3.6958 0
M  V30 7695 H 716.461 1.68341 -2.63401 0
M  V30 7696 H 715.681 -0.445753 -3.91672 0
M  V30 7697 H 716.969 -0.108469 -5.08684 0
M  V30 7698 H 716.367 3.05594 -4.76056 0
M  V30 7699 H 714.924 3.19149 -5.6832 0
M  V30 7700 N 718.357 1.51182 -0.445186 0
M  V30 7701 C 719.29 2.24528 0.4077 0
M  V30 7702 C 720.268 1.26778 1.01814 0
M  V30 7703 O 721.452 1.55934 1.05909 0
M  V30 7704 C 718.579 3.00171 1.56892 0
M  V30 7705 C 717.625 4.12641 1.0784 0
M  V30 7706 S 718.458 5.35498 0.014049 0
M  V30 7707 C 719.614 6.14681 1.17975 0
M  V30 7708 H 719.847 2.96522 -0.214987 0
M  V30 7709 H 717.38 1.52681 -0.229781 0
M  V30 7710 H 719.338 3.44349 2.23459 0
M  V30 7711 H 717.999 2.27752 2.16304 0
M  V30 7712 H 717.192 4.64875 1.94698 0
M  V30 7713 H 716.794 3.70765 0.490852 0
M  V30 7714 H 719.086 6.44244 2.09658 0
M  V30 7715 H 720.029 7.04659 0.697222 0
M  V30 7716 H 720.437 5.46299 1.42187 0
M  V30 7717 N 719.835 0.176821 1.56605 0
M  V30 7718 C 720.767 -0.782836 2.15417 0
M  V30 7719 C 721.78 -1.18982 1.11117 0
M  V30 7720 O 722.969 -1.12872 1.38283 0
M  V30 7721 C 720.069 -2.06596 2.68647 0
M  V30 7722 C 719.242 -1.82167 3.9766 0
M  V30 7723 C 718.301 -2.94751 4.35899 0
M  V30 7724 O 717.327 -2.65148 5.03672 0
M  V30 7725 N 718.529 -4.2267 3.97907 0
M  V30 7726 H 721.294 -0.280012 2.98389 0
M  V30 7727 H 718.855 -0.00577529 1.61899 0
M  V30 7728 H 720.847 -2.81018 2.91223 0
M  V30 7729 H 719.417 -2.48054 1.90232 0
M  V30 7730 H 718.637 -0.916208 3.83405 0
M  V30 7731 H 719.925 -1.6322 4.81909 0
M  V30 7732 H 719.323 -4.4958 3.43357 0
M  V30 7733 H 717.88 -4.93778 4.25472 0
M  V30 7734 N 721.313 -1.57302 -0.09688 0
M  V30 7735 C 722.562 -1.85183 -0.799388 0
M  V30 7736 C 722.875 -0.765818 -1.79985 0
M  V30 7737 O 724.081 -0.931696 -2.55013 0
M  V30 7738 C 722.537 -3.28399 -1.47249 0
M  V30 7739 C 722.145 -4.45066 -0.511888 0
M  V30 7740 C 723.889 -3.65506 -2.15883 0
M  V30 7741 C 721.796 -5.79315 -1.18948 0
M  V30 7742 H 720.726 -0.690752 -0.302287 0
M  V30 7743 H 723.377 -1.83425 -0.0523104 0
M  V30 7744 H 721.759 -3.24692 -2.26697 0
M  V30 7745 H 722.933 -4.60116 0.250962 0
M  V30 7746 H 721.248 -4.16343 0.0686576 0
M  V30 7747 H 723.845 -4.63087 -2.67309 0
M  V30 7748 H 724.188 -2.94041 -2.94696 0
M  V30 7749 H 724.721 -3.71094 -1.43298 0
M  V30 7750 H 721.46 -6.54007 -0.442198 0
M  V30 7751 H 720.98 -5.68111 -1.9238 0
M  V30 7752 H 722.659 -6.23816 -1.71646 0
M  V30 7753 N 722.791 0.367657 -1.53252 0
M  V30 7754 C 724.039 1.10832 -1.68999 0
M  V30 7755 C 724.36 1.89894 -0.443306 0
M  V30 7756 O 723.63 1.88235 0.54262 0
M  V30 7757 H 722.21 0.412153 -0.623008 0
M  V30 7758 H 724.872 0.414775 -1.90435 0
M  V30 7759 H 723.968 1.7993 -2.55013 0
M  V30 7760 N 724.269 1.44576 0.627338 0
M  V30 7761 C 725.494 1.51271 1.41887 0
M  V30 7762 C 725.919 0.139814 1.8758 0
M  V30 7763 O 725.277 -0.871746 1.58966 0
M  V30 7764 C 725.325 2.48529 2.61277 0
M  V30 7765 O 724.429 1.98944 3.61241 0
M  V30 7766 H 723.77 0.510668 0.424399 0
M  V30 7767 H 726.3 1.89746 0.765356 0
M  V30 7768 H 726.31 2.66689 3.08773 0
M  V30 7769 H 724.985 3.48249 2.27366 0
M  V30 7770 H 723.562 1.90568 3.20528 0
M  V30 7771 N 725.747 -0.868086 1.31537 0
M  V30 7772 C 726.697 -1.96321 1.1594 0
M  V30 7773 C 727.681 -1.60748 0.0698962 0
M  V30 7774 O 728.873 -1.74524 0.295011 0
M  V30 7775 C 726.002 -3.32073 0.870789 0
M  V30 7776 C 725.088 -3.73907 2.00136 0
M  V30 7777 N 725.479 -3.87685 3.24859 0
M  V30 7778 C 723.777 -4.03433 1.90152 0
M  V30 7779 C 724.478 -4.23454 3.98825 0
M  V30 7780 N 723.454 -4.34242 3.27009 0
M  V30 7781 H 727.256 -2.05088 2.10514 0
M  V30 7782 H 724.77 -1.059 1.23122 0
M  V30 7783 H 726.767 -4.10279 0.740034 0
M  V30 7784 H 725.427 -3.24631 -0.0667068 0
M  V30 7785 H 726.438 -3.72363 3.59953 0
M  V30 7786 H 723.115 -4.0437 1.03879 0
M  V30 7787 H 724.505 -4.41696 5.06314 0
M  V30 7788 N 727.225 -1.14528 -1.08264 0
M  V30 7789 C 728.135 -0.84728 -2.18765 0
M  V30 7790 C 729.151 0.172826 -1.7314 0
M  V30 7791 O 730.327 0.000985336 -2.014 0
M  V30 7792 C 727.392 -0.330633 -3.4512 0
M  V30 7793 C 726.453 -1.41348 -4.05363 0
M  V30 7794 C 725.686 -0.921387 -5.25686 0
M  V30 7795 O 725.909 0.236587 -5.69909 0
M  V30 7796 O 724.843 -1.70101 -5.77364 0
M  V30 7797 H 728.669 -1.7708 -2.46731 0
M  V30 7798 H 726.254 -0.923661 -1.17426 0
M  V30 7799 H 728.136 -0.0485053 -4.21372 0
M  V30 7800 H 726.811 0.565147 -3.18728 0
M  V30 7801 H 725.718 -1.74908 -3.30693 0
M  V30 7802 H 727.051 -2.28383 -4.36007 0
M  V30 7803 N 728.703 1.26451 -0.940633 0
M  V30 7804 C 729.653 2.24086 -0.420669 0
M  V30 7805 C 730.637 1.53501 0.482301 0
M  V30 7806 O 731.829 1.74127 0.317636 0
M  V30 7807 C 728.958 3.41866 0.313452 0
M  V30 7808 C 728.044 4.19737 -0.606779 0
M  V30 7809 N 728.435 4.7521 -1.73232 0
M  V30 7810 C 726.733 4.44091 -0.41226 0
M  V30 7811 C 727.434 5.34052 -2.30572 0
M  V30 7812 N 726.41 5.1971 -1.59381 0
M  V30 7813 H 730.212 2.64569 -1.27986 0
M  V30 7814 H 727.726 1.4153 -0.796436 0
M  V30 7815 H 729.723 4.1093 0.702991 0
M  V30 7816 H 728.383 3.0291 1.16942 0
M  V30 7817 H 729.394 4.72769 -2.11447 0
M  V30 7818 H 726.071 4.1556 0.401984 0
M  V30 7819 H 727.461 5.87845 -3.25404 0
M  V30 7820 N 730.181 0.707592 1.40822 0
M  V30 7821 C 731.428 0.243671 2.01029 0
M  V30 7822 C 731.756 -1.16057 1.5608 0
M  V30 7823 O 731.011 -1.7999 0.768251 0
M  V30 7824 C 731.31 0.262892 3.56432 0
M  V30 7825 C 730.976 1.61632 4.20935 0
M  V30 7826 C 729.638 1.98682 4.38268 0
M  V30 7827 C 731.99 2.50619 4.5699 0
M  V30 7828 C 729.318 3.2428 4.88937 0
M  V30 7829 C 731.67 3.75562 5.09054 0
M  V30 7830 C 730.334 4.12739 5.24598 0
M  V30 7831 H 729.604 0.0891654 0.735616 0
M  V30 7832 H 732.251 0.909051 1.68548 0
M  V30 7833 H 730.556 -0.486052 3.88773 0
M  V30 7834 H 732.253 -0.113775 4.00839 0
M  V30 7835 H 728.843 1.31818 4.07826 0
M  V30 7836 H 733.027 2.23272 4.43242 0
M  V30 7837 H 728.283 3.53064 4.99155 0
M  V30 7838 H 732.457 4.44692 5.35931 0
M  V30 7839 H 730.084 5.10132 5.63622 0
M  V30 7840 N 731.66 -1.50943 0.453197 0
M  V30 7841 C 732.608 -2.29728 -0.364419 0
M  V30 7842 C 733.602 -1.36246 -1.00664 0
M  V30 7843 O 734.808 -1.53518 -0.939794 0
M  V30 7844 H 731.183 -0.739536 -0.136347 0
M  V30 7845 H 733.154 -2.96672 0.320696 0
M  V30 7846 C 731.903 -3.1629 -1.44415 0
M  V30 7847 H 731.226 -3.88119 -0.959343 0
M  V30 7848 H 732.666 -3.74444 -1.98917 0
M  V30 7849 C 731.125 -2.32702 -2.43622 0
M  V30 7850 O 731.655 -1.99763 -3.48508 0
M  V30 7851 N 729.861 -1.95621 -2.14897 0
M  V30 7852 H 729.408 -2.22607 -1.29629 0
M  V30 7853 H 729.366 -1.39993 -2.81513 0
M  V30 7854 N 733.138 -0.185124 -1.56509 0
M  V30 7855 C 734.363 0.465278 -2.02114 0
M  V30 7856 C 734.788 1.55083 -1.06447 0
M  V30 7857 O 734.146 1.81241 -0.0462852 0
M  V30 7858 C 734.194 1.00784 -3.46229 0
M  V30 7859 O 733.298 2.12123 -3.53663 0
M  V30 7860 H 732.639 0.109891 -0.654843 0
M  V30 7861 H 735.169 -0.293072 -2.0249 0
M  V30 7862 H 735.179 1.32697 -3.85818 0
M  V30 7863 H 733.854 0.213113 -4.15354 0
M  V30 7864 H 732.431 1.8115 -3.25943 0
M  V30 7865 N 734.616 1.57351 0.0885366 0
M  V30 7866 C 735.862 1.87564 0.786842 0
M  V30 7867 C 736.217 0.776774 1.76023 0
M  V30 7868 O 735.51 -0.220637 1.90325 0
M  V30 7869 C 735.704 3.22098 1.5488 0
M  V30 7870 C 735.533 4.44967 0.650706 0
M  V30 7871 C 734.303 5.04444 0.293957 0
M  V30 7872 C 736.501 5.1428 -0.0452187 0
M  V30 7873 N 734.483 6.10846 -0.611609 0
M  V30 7874 C 735.854 6.14704 -0.808603 0
M  V30 7875 C 737.909 4.97759 -0.118451 0
M  V30 7876 C 736.612 7.00392 -1.63839 0
M  V30 7877 C 738.638 5.8396 -0.935157 0
M  V30 7878 C 738 6.83909 -1.68664 0
M  V30 7879 H 734.099 0.73613 0.263887 0
M  V30 7880 H 736.683 1.94638 0.049074 0
M  V30 7881 H 734.854 3.16064 2.2574 0
M  V30 7882 H 736.586 3.40015 2.19481 0
M  V30 7883 H 733.341 4.69214 0.643086 0
M  V30 7884 H 733.765 6.68695 -1.05714 0
M  V30 7885 H 738.407 4.20418 0.448202 0
M  V30 7886 H 736.125 7.7712 -2.21608 0
M  V30 7887 H 739.711 5.73236 -0.994579 0
M  V30 7888 H 738.591 7.49454 -2.30842 0
M  V30 7889 N 736.094 -0.359525 1.53444 0
M  V30 7890 C 737.042 -1.46104 1.80987 0
M  V30 7891 C 738.036 -1.55181 0.679351 0
M  V30 7892 O 739.242 -1.57995 0.862405 0
M  V30 7893 H 735.617 -0.486835 0.573145 0
M  V30 7894 H 737.588 -1.2008 2.73173 0
M  V30 7895 C 736.337 -2.82855 2.02208 0
M  V30 7896 H 735.66 -2.76631 2.88644 0
M  V30 7897 H 737.1 -3.59091 2.25455 0
M  V30 7898 C 735.559 -3.27192 0.802931 0
M  V30 7899 O 736.089 -4.017 -0.00544286 0
M  V30 7900 N 734.295 -2.83807 0.624657 0
M  V30 7901 H 733.842 -2.23339 1.28364 0
M  V30 7902 H 733.8 -3.13828 -0.189641 0
M  V30 7903 N 737.572 -1.44907 -0.619662 0
M  V30 7904 C 738.504 -1.48652 -1.74457 0
M  V30 7905 C 739.517 -0.378596 -1.58337 0
M  V30 7906 O 740.706 -0.644987 -1.6644 0
M  V30 7907 C 737.806 -1.31568 -3.12319 0
M  V30 7908 C 736.979 -2.55816 -3.54792 0
M  V30 7909 C 736.038 -2.33465 -4.71573 0
M  V30 7910 O 735.064 -3.07015 -4.79302 0
M  V30 7911 N 736.266 -1.37254 -5.6404 0
M  V30 7912 H 739.031 -2.45632 -1.71712 0
M  V30 7913 H 736.592 -1.40492 -0.804582 0
M  V30 7914 H 738.584 -1.14445 -3.88181 0
M  V30 7915 H 737.154 -0.429095 -3.09641 0
M  V30 7916 H 736.374 -2.88137 -2.69018 0
M  V30 7917 H 737.662 -3.38431 -3.79924 0
M  V30 7918 H 737.06 -0.765309 -5.60499 0
M  V30 7919 H 735.617 -1.26106 -6.39485 0
M  V30 7920 N 739.05 0.861098 -1.31996 0
M  V30 7921 C 740.298 1.61162 -1.21947 0
M  V30 7922 C 740.619 1.93751 0.220351 0
M  V30 7923 O 739.889 1.59069 1.14341 0
M  V30 7924 H 738.469 0.597485 -0.448353 0
M  V30 7925 H 741.131 1.03039 -1.65436 0
M  V30 7926 H 740.227 2.55138 -1.79752 0
M  V30 7927 N 740.528 1.15101 1.07655 0
M  V30 7928 C 741.775 0.923974 1.80191 0
M  V30 7929 C 742.103 -0.549065 1.86589 0
M  V30 7930 O 741.358 -1.42307 1.3434 0
M  V30 7931 C 741.657 1.47954 3.25337 0
M  V30 7932 C 741.323 2.97253 3.39044 0
M  V30 7933 C 739.985 3.38012 3.42493 0
M  V30 7934 C 742.337 3.93219 3.42094 0
M  V30 7935 C 739.665 4.73384 3.4659 0
M  V30 7936 C 742.017 5.28458 3.47728 0
M  V30 7937 C 740.681 5.68717 3.49453 0
M  V30 7938 H 739.951 0.338106 0.659367 0
M  V30 7939 H 742.598 1.43594 1.26701 0
M  V30 7940 H 740.903 0.888691 3.81588 0
M  V30 7941 H 742.6 1.27972 3.80032 0
M  V30 7942 H 739.19 2.64746 3.37057 0
M  V30 7943 H 743.374 3.62805 3.38654 0
M  V30 7944 H 738.63 5.03925 3.46222 0
M  V30 7945 H 742.804 6.02618 3.49034 0
M  V30 7946 H 740.431 6.73596 3.5238 0
M  V30 7947 N 742.006 -1.2595 0.947325 0
M  V30 7948 C 743.255 -1.92759 0.593887 0
M  V30 7949 C 743.568 -1.75083 -0.872093 0
M  V30 7950 O 744.774 -2.36401 -1.33518 0
M  V30 7951 C 743.23 -3.45395 1.01144 0
M  V30 7952 C 742.838 -3.71795 2.49946 0
M  V30 7953 C 744.582 -4.18173 0.730185 0
M  V30 7954 C 742.489 -5.17901 2.85539 0
M  V30 7955 H 741.419 -0.721676 0.218403 0
M  V30 7956 H 744.07 -1.4293 1.15079 0
M  V30 7957 H 742.452 -3.94143 0.383007 0
M  V30 7958 H 743.626 -3.33728 3.17746 0
M  V30 7959 H 741.941 -3.12263 2.75465 0
M  V30 7960 H 744.538 -5.25784 0.972367 0
M  V30 7961 H 744.881 -4.14964 -0.333223 0
M  V30 7962 H 745.414 -3.75309 1.31862 0
M  V30 7963 H 742.153 -5.26216 3.90867 0
M  V30 7964 H 741.673 -5.57042 2.22406 0
M  V30 7965 H 743.352 -5.8596 2.74336 0
M  V30 7966 N 743.484 -0.715051 -1.40445 0
M  V30 7967 C 744.733 -0.251322 -2.00128 0
M  V30 7968 C 745.046 1.16194 -1.57347 0
M  V30 7969 O 746.252 1.72416 -2.09726 0
M  V30 7970 C 744.708 -0.398407 -3.57688 0
M  V30 7971 C 744.316 -1.81828 -4.09442 0
M  V30 7972 C 746.06 0.00455625 -4.245 0
M  V30 7973 C 743.967 -1.91598 -5.59503 0
M  V30 7974 H 742.897 -0.0902081 -0.748584 0
M  V30 7975 H 745.548 -0.886062 -1.6069 0
M  V30 7976 H 743.93 0.304908 -3.94824 0
M  V30 7977 H 745.104 -2.55193 -3.83684 0
M  V30 7978 H 743.419 -2.17266 -3.55225 0
M  V30 7979 H 746.016 -0.0477303 -5.34679 0
M  V30 7980 H 746.359 1.04636 -4.02935 0
M  V30 7981 H 746.892 -0.649184 -3.92467 0
M  V30 7982 H 743.631 -2.93898 -5.85922 0
M  V30 7983 H 743.151 -1.22644 -5.87127 0
M  V30 7984 H 744.83 -1.68785 -6.24596 0
M  V30 7985 N 744.962 1.50701 -0.461195 0
M  V30 7986 C 745.912 2.25195 0.35653 0
M  V30 7987 C 746.896 1.2838 0.96992 0
M  V30 7988 O 748.088 1.53338 0.884108 0
M  V30 7989 C 745.217 3.11471 1.44364 0
M  V30 7990 C 744.303 4.15729 0.83847 0
M  V30 7991 N 744.694 5.05788 -0.0353198 0
M  V30 7992 C 742.992 4.32133 1.1035 0
M  V30 7993 C 743.693 5.80472 -0.37774 0
M  V30 7994 N 742.669 5.43049 0.24463 0
M  V30 7995 H 746.471 2.92188 -0.316746 0
M  V30 7996 H 743.985 1.60059 -0.274725 0
M  V30 7997 H 745.982 3.63436 2.04255 0
M  V30 7998 H 744.642 2.46025 2.11901 0
M  V30 7999 H 745.653 5.16326 -0.403465 0
M  V30 8000 H 742.33 3.77908 1.77458 0
M  V30 8001 H 743.72 6.62996 -1.09024 0
M  V30 8002 N 746.441 0.193421 1.56409 0
M  V30 8003 C 747.391 -0.74089 2.15627 0
M  V30 8004 C 748.375 -1.17747 1.09656 0
M  V30 8005 O 749.567 -1.13615 1.35723 0
M  V30 8006 C 746.696 -1.96091 2.81786 0
M  V30 8007 C 745.782 -1.54531 3.94944 0
M  V30 8008 N 746.173 -0.840569 4.98767 0
M  V30 8009 C 744.471 -1.83473 4.06514 0
M  V30 8010 C 745.172 -0.632571 5.7825 0
M  V30 8011 N 744.148 -1.18078 5.30621 0
M  V30 8012 H 747.95 -0.193718 2.93261 0
M  V30 8013 H 745.464 -0.00643211 1.62399 0
M  V30 8014 H 747.461 -2.64071 3.22602 0
M  V30 8015 H 746.121 -2.51282 2.05639 0
M  V30 8016 H 747.132 -0.496218 5.15517 0
M  V30 8017 H 743.809 -2.40184 3.41493 0
M  V30 8018 H 745.199 -0.0736433 6.7186 0
M  V30 8019 N 747.919 -1.57396 -0.0801906 0
M  V30 8020 C 749.149 -1.90778 -0.792924 0
M  V30 8021 C 749.557 -0.786814 -1.72064 0
M  V30 8022 O 748.9 0.249259 -1.82001 0
M  V30 8023 C 748.962 -3.19552 -1.64702 0
M  V30 8024 C 748.626 -4.48259 -0.889567 0
M  V30 8025 C 749.623 -5.19465 -0.212602 0
M  V30 8026 C 747.308 -4.94896 -0.859229 0
M  V30 8027 C 749.302 -6.35555 0.484566 0
M  V30 8028 C 746.989 -6.10895 -0.158284 0
M  V30 8029 C 747.987 -6.81075 0.512421 0
M  V30 8030 O 747.675 -7.94862 1.20209 0
M  V30 8031 H 747.407 -0.63527 -0.231103 0
M  V30 8032 H 749.961 -2.0532 -0.0573081 0
M  V30 8033 H 748.191 -3.01196 -2.42524 0
M  V30 8034 H 749.88 -3.38649 -2.23767 0
M  V30 8035 H 750.646 -4.84467 -0.227403 0
M  V30 8036 H 746.525 -4.4015 -1.37073 0
M  V30 8037 H 750.069 -6.9027 1.00864 0
M  V30 8038 H 745.966 -6.45345 -0.141381 0
M  V30 8039 H 746.734 -8.10932 1.11051 0
M  V30 8040 N 749.397 0.351382 -1.53633 0
M  V30 8041 C 750.36 1.41403 -1.80383 0
M  V30 8042 C 751.36 1.45963 -0.674635 0
M  V30 8043 O 752.55 1.46476 -0.942895 0
M  V30 8044 C 749.682 2.80401 -1.93876 0
M  V30 8045 H 750.875 1.18951 -2.75301 0
M  V30 8046 H 748.428 0.58533 -1.44926 0
M  V30 8047 H 749.163 3.08147 -1.01074 0
M  V30 8048 H 748.948 2.78488 -2.7602 0
M  V30 8049 H 750.438 3.57329 -2.16116 0
M  V30 8050 N 750.875 1.45233 0.611969 0
M  V30 8051 C 752.123 1.48727 1.36838 0
M  V30 8052 C 752.444 0.128616 1.94575 0
M  V30 8053 O 751.714 -0.84149 1.76906 0
M  V30 8054 H 750.294 0.547695 0.507976 0
M  V30 8055 H 752.956 1.81156 0.718925 0
M  V30 8056 H 752.052 2.2236 2.19003 0
M  V30 8057 N 752.353 -0.854086 1.3245 0
M  V30 8058 C 753.3 -1.96271 1.21434 0
M  V30 8059 C 754.27 -1.6582 0.0963851 0
M  V30 8060 O 755.455 -1.88851 0.27203 0
M  V30 8061 C 752.595 -3.31939 0.943952 0
M  V30 8062 C 751.708 -3.74885 2.14675 0
M  V30 8063 C 750.843 -4.99347 1.81179 0
M  V30 8064 C 749.882 -5.34785 2.97777 0
M  V30 8065 N 749.019 -6.50425 2.6437 0
M  V30 8066 H 753.859 -2.05025 2.16261 0
M  V30 8067 H 751.396 -1.00348 1.07558 0
M  V30 8068 H 753.354 -4.10076 0.767675 0
M  V30 8069 H 751.984 -3.22784 0.0324763 0
M  V30 8070 H 751.036 -2.92396 2.43328 0
M  V30 8071 H 752.348 -3.97068 3.01891 0
M  V30 8072 H 751.502 -5.85193 1.60107 0
M  V30 8073 H 750.241 -4.79101 0.911777 0
M  V30 8074 H 749.246 -4.47451 3.1948 0
M  V30 8075 H 750.471 -5.56988 3.88511 0
M  V30 8076 H 748.417 -6.31695 1.7691 0
M  V30 8077 H 748.334 -6.7263 3.45116 0
M  V30 8078 H 749.602 -7.39422 2.46729 0
M  V30 8079 N 753.831 -1.1567 -1.07043 0
M  V30 8080 C 755.077 -0.9349 -1.79965 0
M  V30 8081 C 755.41 0.536464 -1.86643 0
M  V30 8082 O 754.685 1.39781 -1.35247 0
M  V30 8083 C 754.968 -1.55371 -3.24857 0
M  V30 8084 C 754.821 -3.09589 -3.26305 0
M  V30 8085 C 756.14 -1.24209 -4.22209 0
M  V30 8086 H 753.259 -0.341061 -0.653335 0
M  V30 8087 H 755.901 -1.42883 -1.25237 0
M  V30 8088 H 754.051 -1.13368 -3.71591 0
M  V30 8089 H 755.723 -3.60521 -2.87789 0
M  V30 8090 H 753.966 -3.43315 -2.65174 0
M  V30 8091 H 754.637 -3.48002 -4.28484 0
M  V30 8092 H 757.113 -1.60548 -3.8388 0
M  V30 8093 H 755.989 -1.70119 -5.21872 0
M  V30 8094 H 756.25 -0.15964 -4.41812 0
M  V30 8095 N 755.309 1.25446 -0.953992 0
M  V30 8096 C 756.534 1.97755 -0.625129 0
M  V30 8097 C 756.959 1.70437 0.795787 0
M  V30 8098 O 756.317 0.95992 1.53803 0
M  V30 8099 C 756.365 3.49463 -0.889251 0
M  V30 8100 O 755.469 4.12387 0.0322757 0
M  V30 8101 H 754.81 0.61998 -0.237742 0
M  V30 8102 H 757.34 1.59582 -1.28041 0
M  V30 8103 H 757.35 3.99772 -0.815263 0
M  V30 8104 H 756.025 3.68676 -1.92487 0
M  V30 8105 H 754.602 3.72782 -0.0938625 0
M  V30 8106 N 756.787 0.722489 1.40064 0
M  V30 8107 C 758.017 0.274439 2.04769 0
M  V30 8108 C 758.425 -1.09125 1.54559 0
M  V30 8109 O 757.768 -1.69834 0.700149 0
M  V30 8110 C 757.83 0.184091 3.59028 0
M  V30 8111 C 757.494 1.48619 4.32159 0
M  V30 8112 C 758.491 2.42947 4.59644 0
M  V30 8113 C 756.176 1.74703 4.7094 0
M  V30 8114 C 758.17 3.616 5.24904 0
M  V30 8115 C 755.857 2.93636 5.3593 0
M  V30 8116 C 756.855 3.86907 5.62843 0
M  V30 8117 O 756.543 5.03753 6.26489 0
M  V30 8118 H 756.275 0.119847 0.665292 0
M  V30 8119 H 758.829 0.983352 1.80331 0
M  V30 8120 H 757.059 -0.580821 3.82313 0
M  V30 8121 H 758.748 -0.230306 4.05246 0
M  V30 8122 H 759.514 2.24062 4.30141 0
M  V30 8123 H 755.393 1.02955 4.49356 0
M  V30 8124 H 758.937 4.34418 5.45827 0
M  V30 8125 H 754.834 3.12428 5.64853 0
M  V30 8126 H 755.602 5.03922 6.44984 0
M  V30 8127 N 758.265 -1.50454 0.469181 0
M  V30 8128 C 759.542 -1.9504 -0.147955 0
M  V30 8129 C 759.922 -1.40946 -1.57154 0
M  V30 8130 O 759.27 -0.609663 -2.20217 0
M  V30 8131 C 759.48 -3.48875 -0.0932198 0
M  V30 8132 C 760.828 -4.23655 -0.283056 0
M  V30 8133 O 761.852 -3.55795 -0.169892 0
M  V30 8134 O 760.711 -5.44102 -0.511396 0
M  V30 8135 H 757.805 -0.819283 -0.11271 0
M  V30 8136 H 760.351 -1.6123 0.529446 0
M  V30 8137 H 759.123 -3.80791 0.900784 0
M  V30 8138 H 758.746 -3.89217 -0.812161 0
M  V30 8139 N 759.743 -0.201713 -1.56304 0
M  V30 8140 C 760.676 0.755976 -2.15314 0
M  V30 8141 C 761.654 1.20497 -1.09175 0
M  V30 8142 O 762.838 1.2913 -1.37323 0
M  V30 8143 C 759.965 2.02177 -2.71739 0
M  V30 8144 C 759.011 1.71436 -3.90528 0
M  V30 8145 S 759.844 0.856624 -5.28604 0
M  V30 8146 C 761 2.13242 -5.88455 0
M  V30 8147 H 761.233 0.254348 -2.9621 0
M  V30 8148 H 758.766 0.0133669 -1.54394 0
M  V30 8149 H 760.724 2.74867 -3.04891 0
M  V30 8150 H 759.385 2.49452 -1.90873 0
M  V30 8151 H 758.578 2.65433 -4.28441 0
M  V30 8152 H 758.18 1.06823 -3.5842 0
M  V30 8153 H 760.472 3.08435 -6.0322 0
M  V30 8154 H 761.415 1.7975 -6.84905 0
M  V30 8155 H 761.823 2.2639 -5.17115 0
M  V30 8156 N 761.222 1.57436 0.0718424 0
M  V30 8157 C 762.499 1.78312 0.804006 0
M  V30 8158 C 762.879 0.789273 1.9579 0
M  V30 8159 O 762.227 -0.177605 2.27809 0
M  V30 8160 C 762.437 3.24798 1.277 0
M  V30 8161 C 763.785 3.88627 1.71039 0
M  V30 8162 O 764.809 3.28689 1.37266 0
M  V30 8163 O 763.668 4.94073 2.33567 0
M  V30 8164 H 760.762 0.73178 0.385262 0
M  V30 8165 H 763.308 1.69621 0.0519219 0
M  V30 8166 H 762.08 3.88688 0.45134 0
M  V30 8167 H 761.703 3.38213 2.0904 0
M  V30 8168 N 762.7 -0.34323 1.53817 0
M  V30 8169 C 763.948 -1.0813 1.70741 0
M  V30 8170 C 764.269 -1.89165 0.473461 0
M  V30 8171 O 763.539 -1.89075 -0.512605 0
M  V30 8172 H 762.119 -0.40219 0.629486 0
M  V30 8173 H 764.781 -0.384426 1.91071 0
M  V30 8174 H 763.877 -1.7585 2.57843 0
M  V30 8175 N 764.178 -1.45556 -0.604258 0
M  V30 8176 C 765.425 -1.49746 -1.36317 0
M  V30 8177 C 765.753 -0.140516 -1.93992 0
M  V30 8178 O 765.008 0.861244 -1.7573 0
M  V30 8179 C 765.307 -2.52697 -2.52743 0
M  V30 8180 C 764.973 -3.97315 -2.13195 0
M  V30 8181 C 763.635 -4.36692 -2.02123 0
M  V30 8182 C 765.987 -4.88249 -1.8238 0
M  V30 8183 C 763.315 -5.64895 -1.58463 0
M  V30 8184 C 765.667 -6.16867 -1.40205 0
M  V30 8185 C 764.331 -6.55172 -1.27694 0
M  V30 8186 H 763.601 -0.54796 -0.49882 0
M  V30 8187 H 766.248 -1.7892 -0.682643 0
M  V30 8188 H 764.553 -2.17105 -3.26148 0
M  V30 8189 H 766.25 -2.53176 -3.10971 0
M  V30 8190 H 762.84 -3.66176 -2.22739 0
M  V30 8191 H 767.024 -4.58561 -1.89829 0
M  V30 8192 H 762.28 -5.93365 -1.47402 0
M  V30 8193 H 766.454 -6.86771 -1.15408 0
M  V30 8194 H 764.081 -7.54411 -0.936375 0
M  V30 8195 N 765.656 0.84705 -1.32902 0
M  V30 8196 C 766.896 1.61554 -1.25218 0
M  V30 8197 C 767.26 1.91141 0.18143 0
M  V30 8198 O 768.461 2.6607 0.382106 0
M  V30 8199 C 766.732 2.89553 -2.09509 0
M  V30 8200 S 768.291 3.80283 -2.18931 0
M  V30 8201 H 765.109 0.554031 -0.445613 0
M  V30 8202 H 767.711 1.00251 -1.67839 0
M  V30 8203 H 766.415 2.65776 -3.12716 0
M  V30 8204 H 765.946 3.55868 -1.67694 0
M  V30 8205 H 767.961 4.77641 -1.34438 0
M  V30 8206 N 767.134 1.16236 1.06428 0
M  V30 8207 C 768.044 0.881976 2.1739 0
M  V30 8208 C 769.06 -0.145259 1.73393 0
M  V30 8209 O 770.236 0.0310558 2.01376 0
M  V30 8210 C 767.301 0.385496 3.4455 0
M  V30 8211 C 766.362 1.47779 4.03063 0
M  V30 8212 C 765.595 1.0049 5.24154 0
M  V30 8213 O 765.818 -0.145889 5.70213 0
M  V30 8214 O 764.752 1.79265 5.74585 0
M  V30 8215 H 768.578 1.80983 2.43883 0
M  V30 8216 H 766.163 0.942226 1.15942 0
M  V30 8217 H 768.045 0.115536 4.21242 0
M  V30 8218 H 766.72 -0.514369 3.19587 0
M  V30 8219 H 765.627 1.80147 3.27869 0
M  V30 8220 H 766.96 2.35291 4.32318 0
M  V30 8221 N 768.612 -1.24939 0.960631 0
M  V30 8222 C 770.028 -1.45039 0.666018 0
M  V30 8223 C 770.228 -1.86021 -0.774501 0
M  V30 8224 O 769.284 -1.99392 -1.54916 0
M  V30 8225 C 770.597 -2.51775 1.64408 0
M  V30 8226 C 772.145 -2.6561 1.65592 0
M  V30 8227 C 772.62 -3.75536 2.62177 0
M  V30 8228 N 774.111 -3.82954 2.60577 0
M  V30 8229 C 774.846 -4.67517 3.31987 0
M  V30 8230 N 774.342 -5.56321 4.1289 0
M  V30 8231 N 776.135 -4.61535 3.20845 0
M  V30 8232 H 768.286 -0.96632 1.89145 0
M  V30 8233 H 770.549 -0.486034 0.813926 0
M  V30 8234 H 770.255 -2.28534 2.67329 0
M  V30 8235 H 770.129 -3.49804 1.41128 0
M  V30 8236 H 772.516 -2.88212 0.633846 0
M  V30 8237 H 772.597 -1.67962 1.92931 0
M  V30 8238 H 772.241 -3.53684 3.64514 0
M  V30 8239 H 772.171 -4.72682 2.32119 0
M  V30 8240 H 774.662 -3.19478 2.01847 0
M  V30 8241 H 774.975 -6.17787 4.64283 0
M  V30 8242 H 773.32 -5.5601 4.16987 0
M  V30 8243 H 776.511 -3.91169 2.57108 0
M  V30 8244 H 776.684 -5.27214 3.76762 0
M  V30 8245 N 770.09 -0.729906 -1.39679 0
M  V30 8246 C 771.038 -0.0756589 -2.32477 0
M  V30 8247 C 772.032 0.731438 -1.52795 0
M  V30 8248 O 773.238 0.633195 -1.68495 0
M  V30 8249 H 769.613 -0.00566492 -0.751979 0
M  V30 8250 H 771.584 -0.874797 -2.85289 0
M  V30 8251 C 770.333 0.821313 -3.37861 0
M  V30 8252 H 769.656 0.209666 -3.9925 0
M  V30 8253 H 771.096 1.24679 -4.05254 0
M  V30 8254 C 769.555 1.9533 -2.74495 0
M  V30 8255 O 770.085 3.04548 -2.61942 0
M  V30 8256 N 768.291 1.74119 -2.3266 0
M  V30 8257 H 767.838 0.852908 -2.4307 0
M  V30 8258 H 767.796 2.50036 -1.90603 0
M  V30 8259 N 771.568 1.50203 -0.477153 0
M  V30 8260 C 772.984 1.59056 -0.131663 0
M  V30 8261 C 773.184 1.48473 1.36227 0
M  V30 8262 O 772.24 1.34635 2.13611 0
M  V30 8263 C 773.553 2.92741 -0.687254 0
M  V30 8264 C 775.101 3.0615 -0.651223 0
M  V30 8265 C 775.576 4.42419 -1.18446 0
M  V30 8266 N 777.067 4.48847 -1.14413 0
M  V30 8267 C 777.802 5.52689 -1.52717 0
M  V30 8268 N 777.298 6.63754 -1.98499 0
M  V30 8269 N 779.091 5.43267 -1.44282 0
M  V30 8270 H 771.242 1.55325 -1.44872 0
M  V30 8271 H 773.505 0.734395 -0.599473 0
M  V30 8272 H 773.211 3.0598 -1.73405 0
M  V30 8273 H 773.085 3.76961 -0.134215 0
M  V30 8274 H 775.472 2.92556 0.386677 0
M  V30 8275 H 775.553 2.23673 -1.24114 0
M  V30 8276 H 775.197 4.56763 -2.22103 0
M  V30 8277 H 775.127 5.23498 -0.570709 0
M  V30 8278 H 777.618 3.69152 -0.808416 0
M  V30 8279 H 777.931 7.39059 -2.25859 0
M  V30 8280 H 776.276 6.64858 -2.02456 0
M  V30 8281 H 779.467 4.55387 -1.08352 0
M  V30 8282 H 779.64 6.24074 -1.74459 0
M  V30 8283 N 773.046 0.209999 1.56195 0
M  V30 8284 C 774.323 -0.473214 1.89789 0
M  V30 8285 C 774.703 -1.78581 1.1257 0
M  V30 8286 O 774.051 -2.27325 0.231398 0
M  V30 8287 C 774.261 -0.677458 3.42362 0
M  V30 8288 C 775.609 -0.990114 4.12895 0
M  V30 8289 O 776.633 -0.764655 3.47896 0
M  V30 8290 O 775.492 -1.41737 5.278 0
M  V30 8291 H 772.586 -0.248622 0.788743 0
M  V30 8292 H 775.132 0.251324 1.67829 0
M  V30 8293 H 773.904 0.248878 3.90508 0
M  V30 8294 H 773.527 -1.45391 3.70064 0
M  V30 8295 N 774.524 -1.57472 -0.0634922 0
M  V30 8296 C 775.77 -1.87932 -0.762194 0
M  V30 8297 C 776.103 -0.803377 -1.76804 0
M  V30 8298 O 775.378 0.185468 -1.93614 0
M  V30 8299 C 775.661 -3.29053 -1.46275 0
M  V30 8300 C 775.514 -4.47309 -0.472755 0
M  V30 8301 C 776.833 -3.68537 -2.40558 0
M  V30 8302 H 773.952 -0.683521 -0.275624 0
M  V30 8303 H 776.594 -1.89983 -0.0252651 0
M  V30 8304 H 774.744 -3.27435 -2.0909 0
M  V30 8305 H 776.416 -4.61053 0.150828 0
M  V30 8306 H 774.659 -4.33286 0.211187 0
M  V30 8307 H 775.33 -5.42853 -1.00072 0
M  V30 8308 H 777.806 -3.71302 -1.87814 0
M  V30 8309 H 776.682 -4.68152 -2.86574 0
M  V30 8310 H 776.943 -2.98917 -3.25731 0
M  V30 8311 N 776.003 0.335068 -1.53997 0
M  V30 8312 C 776.933 1.41727 -1.85568 0
M  V30 8313 C 777.914 1.54505 -0.7115 0
M  V30 8314 O 779.099 1.68573 -0.964191 0
M  V30 8315 C 776.229 2.7866 -2.07282 0
M  V30 8316 C 775.183 2.80682 -3.23112 0
M  V30 8317 C 774.509 4.20581 -3.30175 0
M  V30 8318 C 775.809 2.45458 -4.61029 0
M  V30 8319 H 777.503 1.15555 -2.76202 0
M  V30 8320 H 775.049 0.554445 -1.32898 0
M  V30 8321 H 777.002 3.54423 -2.27952 0
M  V30 8322 H 775.726 3.06286 -1.13387 0
M  V30 8323 H 774.385 2.07373 -3.02311 0
M  V30 8324 H 774.033 4.4533 -2.33859 0
M  V30 8325 H 773.733 4.22843 -4.08016 0
M  V30 8326 H 775.257 4.98174 -3.53066 0
M  V30 8327 H 776.671 3.10934 -4.81656 0
M  V30 8328 H 775.068 2.5899 -5.41336 0
M  V30 8329 H 776.138 1.40628 -4.6406 0
M  V30 8330 N 777.481 1.45874 0.596531 0
M  V30 8331 C 778.728 1.50467 1.35521 0
M  V30 8332 C 779.056 0.150802 1.93915 0
M  V30 8333 O 778.311 -0.851913 1.76184 0
M  V30 8334 C 778.61 2.54034 2.51399 0
M  V30 8335 C 778.276 3.9844 2.11085 0
M  V30 8336 C 776.938 4.37758 1.99804 0
M  V30 8337 C 779.29 4.89209 1.79788 0
M  V30 8338 C 776.618 5.65727 1.55465 0
M  V30 8339 C 778.97 6.17602 1.36931 0
M  V30 8340 C 777.634 6.5584 1.24218 0
M  V30 8341 H 776.904 0.550597 0.495907 0
M  V30 8342 H 779.551 1.79279 0.673145 0
M  V30 8343 H 777.856 2.18832 3.24992 0
M  V30 8344 H 779.553 2.54822 3.09624 0
M  V30 8345 H 776.143 3.67353 2.20794 0
M  V30 8346 H 780.327 4.59562 1.87395 0
M  V30 8347 H 775.583 5.94139 1.44253 0
M  V30 8348 H 779.757 6.87373 1.11764 0
M  V30 8349 H 777.384 7.54897 0.896353 0
M  V30 8350 N 778.959 -0.83999 1.33349 0
M  V30 8351 C 779.892 -1.95415 1.17848 0
M  V30 8352 C 780.87 -1.6243 0.0742296 0
M  V30 8353 O 782.054 -1.87014 0.23626 0
M  V30 8354 C 779.181 -3.28938 0.807295 0
M  V30 8355 C 778.227 -3.80895 1.91888 0
M  V30 8356 S 779.06 -4.02709 3.52967 0
M  V30 8357 C 780.216 -5.39185 3.17853 0
M  V30 8358 H 780.449 -2.08265 2.12162 0
M  V30 8359 H 777.982 -0.993643 1.18178 0
M  V30 8360 H 779.94 -4.06093 0.599914 0
M  V30 8361 H 778.601 -3.13881 -0.117234 0
M  V30 8362 H 777.794 -4.77508 1.6125 0
M  V30 8363 H 777.396 -3.10633 2.08286 0
M  V30 8364 H 779.688 -6.21978 2.68608 0
M  V30 8365 H 780.631 -5.74795 4.13542 0
M  V30 8366 H 781.039 -5.03885 2.5448 0
M  V30 8367 N 780.437 -1.16799 -1.0581 0
M  V30 8368 C 781.714 -0.862616 -1.75551 0
M  V30 8369 C 782.094 0.6385 -2.01212 0
M  V30 8370 O 781.442 1.58784 -1.64317 0
M  V30 8371 C 781.652 -1.6907 -3.05314 0
M  V30 8372 C 783 -1.90675 -3.79379 0
M  V30 8373 O 784.024 -1.65976 -3.15167 0
M  V30 8374 O 782.883 -2.32145 -4.94743 0
M  V30 8375 H 779.977 -0.318789 -0.763088 0
M  V30 8376 H 782.523 -1.27461 -1.12034 0
M  V30 8377 H 781.295 -2.70912 -2.82352 0
M  V30 8378 H 780.918 -1.27606 -3.76567 0
M  V30 8379 N 781.915 1.24427 -0.967243 0
M  V30 8380 C 782.845 2.2773 -0.515899 0
M  V30 8381 C 783.826 1.64197 0.444227 0
M  V30 8382 O 785.011 1.91193 0.340451 0
M  V30 8383 C 782.141 3.46751 0.195149 0
M  V30 8384 C 781.095 4.22548 -0.680953 0
M  V30 8385 C 780.421 5.34456 0.161561 0
M  V30 8386 C 781.721 4.83914 -1.96532 0
M  V30 8387 H 783.415 2.65735 -1.37933 0
M  V30 8388 H 780.961 1.27742 -0.664681 0
M  V30 8389 H 782.914 4.18153 0.522117 0
M  V30 8390 H 781.638 3.07771 1.09292 0
M  V30 8391 H 780.297 3.52946 -0.991186 0
M  V30 8392 H 779.945 4.91716 1.05947 0
M  V30 8393 H 779.645 5.86087 -0.421418 0
M  V30 8394 H 781.169 6.08685 0.483211 0
M  V30 8395 H 782.583 5.47392 -1.70396 0
M  V30 8396 H 780.98 5.45775 -2.49499 0
M  V30 8397 H 782.05 4.05393 -2.66053 0
M  V30 8398 N 783.393 0.737304 1.3929 0
M  V30 8399 C 784.642 0.283129 1.99703 0
M  V30 8400 C 784.955 -1.13677 1.59176 0
M  V30 8401 O 786.161 -1.69058 2.12442 0
M  V30 8402 C 784.617 0.455262 3.57009 0
M  V30 8403 C 784.225 1.88319 4.06497 0
M  V30 8404 C 785.969 0.0629786 4.24453 0
M  V30 8405 C 783.876 2.00475 5.56385 0
M  V30 8406 H 782.806 0.102106 0.747054 0
M  V30 8407 H 785.457 0.911515 1.5926 0
M  V30 8408 H 783.839 -0.242057 3.9526 0
M  V30 8409 H 785.013 2.61265 3.79575 0
M  V30 8410 H 783.328 2.2289 3.51723 0
M  V30 8411 H 785.925 0.132787 5.34535 0
M  V30 8412 H 786.268 -0.982128 4.04549 0
M  V30 8413 H 786.801 0.71154 3.91385 0
M  V30 8414 H 783.54 3.03182 5.81172 0
M  V30 8415 H 783.06 1.31969 5.85102 0
M  V30 8416 H 784.739 1.787 6.21832 0
M  V30 8417 N 784.871 -1.49948 0.485112 0
M  V30 8418 C 785.781 -2.32587 -0.306697 0
M  V30 8419 C 786.797 -1.43598 -0.982632 0
M  V30 8420 O 787.973 -1.76638 -0.967519 0
M  V30 8421 C 785.038 -3.18638 -1.3664 0
M  V30 8422 C 784.099 -4.23462 -0.705589 0
M  V30 8423 C 783.332 -5.05401 -1.7148 0
M  V30 8424 O 783.555 -4.88618 -2.94293 0
M  V30 8425 O 782.489 -5.88157 -1.27889 0
M  V30 8426 H 786.315 -3.01447 0.369272 0
M  V30 8427 H 783.9 -1.47349 0.246709 0
M  V30 8428 H 785.782 -3.71992 -1.9799 0
M  V30 8429 H 784.457 -2.52491 -2.02559 0
M  V30 8430 H 783.364 -3.74063 -0.0527733 0
M  V30 8431 H 784.697 -4.92119 -0.0891187 0
M  V30 8432 N 786.349 -0.21828 -1.56081 0
M  V30 8433 C 787.279 0.687922 -2.23136 0
M  V30 8434 C 788.26 1.20357 -1.202 0
M  V30 8435 O 789.445 1.24817 -1.48776 0
M  V30 8436 C 786.575 1.89762 -2.90874 0
M  V30 8437 C 785.529 1.51595 -4.00254 0
M  V30 8438 C 784.855 2.80415 -4.55271 0
M  V30 8439 C 786.155 0.708404 -5.17474 0
M  V30 8440 H 787.849 0.128854 -2.99123 0
M  V30 8441 H 785.395 0.0605354 -1.43873 0
M  V30 8442 H 787.348 2.53699 -3.36474 0
M  V30 8443 H 786.072 2.4816 -2.1233 0
M  V30 8444 H 784.731 0.900058 -3.55379 0
M  V30 8445 H 784.379 3.36951 -3.73461 0
M  V30 8446 H 784.079 2.55613 -5.2909 0
M  V30 8447 H 785.603 3.453 -5.03587 0
M  V30 8448 H 787.017 1.2514 -5.59476 0
M  V30 8449 H 785.414 0.557593 -5.97504 0
M  V30 8450 H 786.484 -0.285679 -4.84058 0
M  V30 8451 N 787.827 1.57504 0.0551401 0
M  V30 8452 C 788.76 2.00155 1.09604 0
M  V30 8453 C 789.738 0.881274 1.36647 0
M  V30 8454 O 790.922 1.14498 1.49742 0
M  V30 8455 C 788.049 2.35246 2.43674 0
M  V30 8456 C 787.095 3.57452 2.32659 0
M  V30 8457 S 787.928 5.07639 1.7048 0
M  V30 8458 C 789.084 5.45947 3.06093 0
M  V30 8459 H 789.317 2.88131 0.732635 0
M  V30 8460 H 786.85 1.52122 0.264252 0
M  V30 8461 H 788.808 2.56136 3.20787 0
M  V30 8462 H 787.469 1.47769 2.7717 0
M  V30 8463 H 786.662 3.79576 3.31569 0
M  V30 8464 H 786.264 3.36279 1.63685 0
M  V30 8465 H 788.556 5.45036 4.0242 0
M  V30 8466 H 789.499 6.4656 2.88732 0
M  V30 8467 H 789.907 4.73419 3.07466 0
M  V30 8468 N 789.305 -0.326896 1.54172 0
M  V30 8469 C 790.237 -1.42319 1.79661 0
M  V30 8470 C 791.25 -1.47989 0.678456 0
M  V30 8471 O 792.439 -1.50773 0.955503 0
M  V30 8472 C 789.539 -2.80876 1.89636 0
M  V30 8473 C 788.712 -2.98449 3.19761 0
M  V30 8474 C 787.771 -4.17347 3.2048 0
M  V30 8475 O 786.797 -4.10667 3.94134 0
M  V30 8476 N 787.999 -5.26717 2.44027 0
M  V30 8477 H 790.764 -1.20819 2.74268 0
M  V30 8478 H 788.325 -0.516866 1.53428 0
M  V30 8479 H 790.317 -3.58619 1.87549 0
M  V30 8480 H 788.887 -2.95442 1.02141 0
M  V30 8481 H 788.107 -2.08035 3.34836 0
M  V30 8482 H 789.395 -3.07083 4.05681 0
M  V30 8483 H 788.793 -5.35019 1.8377 0
M  V30 8484 H 787.35 -6.02891 2.47721 0
M  V30 8485 N 790.784 -1.46188 -0.588786 0
M  V30 8486 C 792.009 -1.5498 -1.37826 0
M  V30 8487 C 792.434 -0.189498 -1.87143 0
M  V30 8488 O 791.792 0.829293 -1.61222 0
M  V30 8489 C 791.84 -2.55369 -2.54596 0
M  V30 8490 O 790.944 -2.08452 -3.55839 0
M  V30 8491 H 790.285 -0.521741 -0.41071 0
M  V30 8492 H 792.815 -1.91708 -0.714779 0
M  V30 8493 H 792.825 -2.74782 -3.01594 0
M  V30 8494 H 791.5 -3.54155 -2.18052 0
M  V30 8495 H 790.077 -1.98999 -3.15363 0
M  V30 8496 N 792.262 0.832906 -1.33792 0
M  V30 8497 C 793.487 1.62568 -1.28788 0
M  V30 8498 C 793.912 1.87599 0.137246 0
M  V30 8499 O 793.27 1.44436 1.0958 0
M  V30 8500 C 793.318 2.9495 -2.07453 0
M  V30 8501 O 792.422 3.86546 -1.43722 0
M  V30 8502 H 791.763 0.494809 -0.442787 0
M  V30 8503 H 794.293 1.03578 -1.76445 0
M  V30 8504 H 794.303 3.44599 -2.1844 0
M  V30 8505 H 792.978 2.76055 -3.11073 0
M  V30 8506 H 791.555 3.45044 -1.41417 0
M  V30 8507 N 793.74 1.17359 1.05189 0
M  V30 8508 C 794.65 0.904984 2.16442 0
M  V30 8509 C 795.666 -0.12686 1.73537 0
M  V30 8510 O 796.842 0.0524127 2.01332 0
M  V30 8511 C 793.907 0.422019 3.44122 0
M  V30 8512 C 792.968 1.52045 4.01473 0
M  V30 8513 C 792.201 1.06044 5.23059 0
M  V30 8514 O 792.424 -0.0854023 5.70336 0
M  V30 8515 O 791.358 1.85349 5.72651 0
M  V30 8516 H 795.184 1.8356 2.41949 0
M  V30 8517 H 792.769 0.95447 1.14936 0
M  V30 8518 H 794.651 0.160208 4.21095 0
M  V30 8519 H 793.326 -0.480444 3.20115 0
M  V30 8520 H 792.233 1.83615 3.25939 0
M  V30 8521 H 793.566 2.39863 4.29798 0
M  V30 8522 N 795.218 -1.23913 0.973828 0
M  V30 8523 C 796.148 -2.27453 0.527969 0
M  V30 8524 C 797.129 -1.6443 -0.435513 0
M  V30 8525 O 798.314 -1.9137 -0.330306 0
M  V30 8526 C 795.444 -3.4685 -0.176757 0
M  V30 8527 C 794.398 -4.22181 0.703352 0
M  V30 8528 C 793.724 -5.34534 -0.133215 0
M  V30 8529 C 795.024 -4.82865 1.99096 0
M  V30 8530 H 796.718 -2.65 1.3934 0
M  V30 8531 H 794.264 -1.27388 0.671446 0
M  V30 8532 H 796.217 -4.18424 -0.499934 0
M  V30 8533 H 794.941 -3.08346 -1.07659 0
M  V30 8534 H 793.6 -3.52416 1.00989 0
M  V30 8535 H 793.248 -4.92271 -1.03338 0
M  V30 8536 H 792.948 -5.85855 0.452494 0
M  V30 8537 H 794.472 -6.08933 -0.450924 0
M  V30 8538 H 795.886 -5.46481 1.73297 0
M  V30 8539 H 794.283 -5.44444 2.52389 0
M  V30 8540 H 795.353 -4.03977 2.68199 0
M  V30 8541 N 796.696 -0.74468 -1.38897 0
M  V30 8542 C 798.107 -0.36568 -1.83084 0
M  V30 8543 C 798.458 1.10436 -1.62168 0
M  V30 8544 O 797.583 1.85281 -1.11804 0
M  V30 8545 C 798.178 -0.656946 -3.3237 0
M  V30 8546 C 796.737 -0.331329 -3.74939 0
M  V30 8547 C 795.884 -0.914661 -2.61781 0
M  V30 8548 H 798.835 -0.941551 -1.27752 0
M  V30 8549 H 798.856 0.0679546 -3.80439 0
M  V30 8550 H 798.368 -1.72693 -3.47561 0
M  V30 8551 H 796.469 0.732426 -3.6533 0
M  V30 8552 H 796.582 -0.820655 -4.72019 0
M  V30 8553 H 794.946 -0.34063 -2.52412 0
M  V30 8554 H 795.729 -1.98949 -2.79775 0
M  V30 8555 N 798.174 1.49689 -0.493057 0
M  V30 8556 C 799.421 2.02427 0.0542714 0
M  V30 8557 C 799.749 1.37339 1.37725 0
M  V30 8558 O 799.004 0.495523 1.89323 0
M  V30 8559 C 799.303 3.56427 0.263536 0
M  V30 8560 C 798.969 4.40111 -0.98046 0
M  V30 8561 C 797.631 4.62699 -1.32148 0
M  V30 8562 C 799.983 4.88847 -1.80771 0
M  V30 8563 C 797.311 5.31268 -2.48941 0
M  V30 8564 C 799.663 5.587 -2.96711 0
M  V30 8565 C 798.327 5.79536 -3.31202 0
M  V30 8566 H 797.597 0.740734 0.0198593 0
M  V30 8567 H 800.244 1.80073 -0.651603 0
M  V30 8568 H 798.549 3.77416 1.05186 0
M  V30 8569 H 800.246 3.94819 0.701348 0
M  V30 8570 H 796.836 4.22765 -0.704814 0
M  V30 8571 H 801.02 4.71231 -1.55741 0
M  V30 8572 H 796.276 5.45603 -2.75911 0
M  V30 8573 H 800.45 5.9544 -3.61143 0
M  V30 8574 H 798.077 6.32443 -4.21805 0
M  V30 8575 N 799.652 0.226554 1.55963 0
M  V30 8576 C 800.901 -0.40417 1.97609 0
M  V30 8577 C 801.214 -1.60541 1.1174 0
M  V30 8578 O 802.42 -2.30598 1.43307 0
M  V30 8579 C 800.876 -0.770466 3.51556 0
M  V30 8580 C 800.484 0.408244 4.46136 0
M  V30 8581 C 802.228 -1.36651 4.01904 0
M  V30 8582 C 800.135 0.0192347 5.91397 0
M  V30 8583 H 799.065 -0.15478 0.737943 0
M  V30 8584 H 801.716 0.323558 1.80625 0
M  V30 8585 H 800.098 -1.55575 3.6416 0
M  V30 8586 H 801.272 1.18575 4.45283 0
M  V30 8587 H 799.587 0.917859 4.06158 0
M  V30 8588 H 802.184 -1.67055 5.07934 0
M  V30 8589 H 802.527 -2.28403 3.48049 0
M  V30 8590 H 803.06 -0.644556 3.92543 0
M  V30 8591 H 799.799 0.90336 6.49245 0
M  V30 8592 H 799.319 -0.722485 5.95433 0
M  V30 8593 H 800.998 -0.405711 6.45727 0
M  V30 8594 N 801.13 -1.57531 -0.0467866 0
M  V30 8595 C 802.077 -2.05387 -1.05285 0
M  V30 8596 C 803.047 -0.939385 -1.36985 0
M  V30 8597 O 804.232 -1.20877 -1.47626 0
M  V30 8598 C 801.372 -2.52343 -2.35408 0
M  V30 8599 C 800.485 -3.77512 -2.10022 0
M  V30 8600 C 799.62 -4.1315 -3.33887 0
M  V30 8601 C 798.659 -5.31286 -3.03976 0
M  V30 8602 N 797.796 -5.62441 -4.20243 0
M  V30 8603 H 802.636 -2.91095 -0.637788 0
M  V30 8604 H 800.173 -1.43939 -0.303322 0
M  V30 8605 H 802.131 -2.77628 -3.11413 0
M  V30 8606 H 800.761 -1.69577 -2.7467 0
M  V30 8607 H 799.813 -3.59417 -1.24594 0
M  V30 8608 H 801.125 -4.63644 -1.83945 0
M  V30 8609 H 800.279 -4.39469 -4.18273 0
M  V30 8610 H 799.018 -3.25634 -3.63062 0
M  V30 8611 H 798.023 -5.04738 -2.17991 0
M  V30 8612 H 799.248 -6.20441 -2.76098 0
M  V30 8613 H 797.194 -4.77885 -4.49402 0
M  V30 8614 H 797.111 -6.43046 -3.97528 0
M  V30 8615 H 798.379 -5.93327 -5.05553 0
M  V30 8616 N 802.608 0.318715 -1.54344 0
M  V30 8617 C 803.833 1.07987 -1.77069 0
M  V30 8618 C 804.258 1.80766 -0.520117 0
M  V30 8619 O 803.616 1.73424 0.528566 0
M  V30 8620 C 803.664 2.04987 -2.96669 0
M  V30 8621 O 802.768 3.12974 -2.68554 0
M  V30 8622 H 802.109 0.311109 -0.586606 0
M  V30 8623 H 804.639 0.361533 -2.0138 0
M  V30 8624 H 804.649 2.47771 -3.2415 0
M  V30 8625 H 803.324 1.51417 -3.87357 0
M  V30 8626 H 801.901 2.74831 -2.52037 0
M  V30 8627 N 804.086 1.46499 0.581025 0
M  V30 8628 C 805.016 1.60052 1.70017 0
M  V30 8629 C 805.997 0.450788 1.64018 0
M  V30 8630 O 807.182 0.677237 1.82009 0
M  V30 8631 C 804.312 1.5921 3.08658 0
M  V30 8632 C 803.266 2.73169 3.29488 0
M  V30 8633 C 802.592 2.57389 4.68674 0
M  V30 8634 C 803.892 4.14978 3.1716 0
M  V30 8635 H 805.586 2.53735 1.5893 0
M  V30 8636 H 803.132 1.22113 0.763173 0
M  V30 8637 H 805.085 1.67285 3.86773 0
M  V30 8638 H 803.809 0.620718 3.20647 0
M  V30 8639 H 802.468 2.64566 2.53773 0
M  V30 8640 H 802.116 1.58331 4.77431 0
M  V30 8641 H 801.816 3.33826 4.83564 0
M  V30 8642 H 803.34 2.67358 5.48956 0
M  V30 8643 H 804.754 4.24684 3.85119 0
M  V30 8644 H 803.151 4.92016 3.4357 0
M  V30 8645 H 804.221 4.35016 2.14218 0
M  V30 8646 N 805.565 -0.825799 1.34232 0
M  V30 8647 C 806.812 -1.58185 1.26427 0
M  V30 8648 C 807.14 -1.93786 -0.166533 0
M  V30 8649 O 806.395 -1.59986 -1.12707 0
M  V30 8650 C 806.694 -2.89362 2.09772 0
M  V30 8651 C 806.36 -2.73066 3.58812 0
M  V30 8652 C 805.022 -2.68329 3.99441 0
M  V30 8653 C 807.374 -2.56946 4.53462 0
M  V30 8654 C 804.702 -2.4539 5.32917 0
M  V30 8655 C 807.054 -2.35538 5.87115 0
M  V30 8656 C 805.718 -2.29212 6.26912 0
M  V30 8657 H 804.988 -0.57884 0.462629 0
M  V30 8658 H 807.635 -0.955714 1.65947 0
M  V30 8659 H 805.94 -3.56251 1.63071 0
M  V30 8660 H 807.637 -3.4694 2.01081 0
M  V30 8661 H 804.227 -2.77591 3.26559 0
M  V30 8662 H 808.411 -2.59631 4.22972 0
M  V30 8663 H 803.667 -2.38947 5.62774 0
M  V30 8664 H 807.841 -2.22051 6.6005 0
M  V30 8665 H 805.468 -2.11197 7.30274 0
M  V30 8666 N 807.043 -1.17915 -1.04565 0
M  V30 8667 C 808.454 -0.976383 -1.59134 0
M  V30 8668 C 808.805 0.475267 -1.90357 0
M  V30 8669 O 807.93 1.35172 -1.6899 0
M  V30 8670 C 808.525 -1.76604 -2.89131 0
M  V30 8671 C 807.084 -1.60777 -3.40335 0
M  V30 8672 C 806.231 -1.76369 -2.13985 0
M  V30 8673 H 809.182 -1.32532 -0.872985 0
M  V30 8674 H 809.203 -1.25215 -3.59307 0
M  V30 8675 H 808.715 -2.82252 -2.66375 0
M  V30 8676 H 806.816 -0.576436 -3.68114 0
M  V30 8677 H 806.929 -2.40268 -4.14497 0
M  V30 8678 H 805.293 -1.19268 -2.25049 0
M  V30 8679 H 806.076 -2.83441 -1.9369 0
M  V30 8680 N 808.521 1.23394 -0.980386 0
M  V30 8681 C 809.431 2.28561 -0.528864 0
M  V30 8682 C 810.447 1.68946 0.416329 0
M  V30 8683 O 811.623 1.99355 0.286251 0
M  V30 8684 C 808.688 3.46323 0.16155 0
M  V30 8685 C 807.749 4.21297 -0.825044 0
M  V30 8686 C 806.982 5.33437 -0.167483 0
M  V30 8687 O 807.205 5.60812 1.04146 0
M  V30 8688 O 806.139 5.95637 -0.866047 0
M  V30 8689 H 809.965 2.69326 -1.40346 0
M  V30 8690 H 807.55 1.29325 -0.748019 0
M  V30 8691 H 809.432 4.17811 0.548841 0
M  V30 8692 H 808.107 3.0751 1.01092 0
M  V30 8693 H 807.014 3.52134 -1.26303 0
M  V30 8694 H 808.347 4.6396 -1.64322 0
M  V30 8695 N 809.999 0.752036 1.385 0
M  V30 8696 C 810.947 0.112634 2.32327 0
M  V30 8697 C 811.941 -0.707037 1.53939 0
M  V30 8698 O 813.147 -0.606309 1.69481 0
M  V30 8699 H 809.522 0.0176275 0.751793 0
M  V30 8700 H 811.493 0.920074 2.83861 0
M  V30 8701 C 810.242 -0.767458 3.39124 0
M  V30 8702 H 809.565 -0.146122 3.99533 0
M  V30 8703 H 811.005 -1.18216 4.07187 0
M  V30 8704 C 809.464 -1.90938 2.77568 0
M  V30 8705 O 809.994 -3.00342 2.66754 0
M  V30 8706 N 808.2 -1.70396 2.35401 0
M  V30 8707 H 807.747 -0.81413 2.44397 0
M  V30 8708 H 807.705 -2.46972 1.94557 0
M  V30 8709 N 811.477 -1.49425 0.500989 0
M  V30 8710 C 812.407 -2.31971 -0.266775 0
M  V30 8711 C 813.388 -1.40245 -0.962563 0
M  V30 8712 O 814.573 -1.69154 -0.953968 0
M  V30 8713 C 811.703 -3.20757 -1.33163 0
M  V30 8714 C 810.657 -4.21275 -0.75572 0
M  V30 8715 C 809.983 -4.98997 -1.92109 0
M  V30 8716 C 811.283 -5.21686 0.253213 0
M  V30 8717 H 812.977 -2.96408 0.422237 0
M  V30 8718 H 810.523 -1.4254 0.204505 0
M  V30 8719 H 812.476 -3.77315 -1.87646 0
M  V30 8720 H 811.2 -2.54263 -2.04983 0
M  V30 8721 H 809.859 -3.65861 -0.232637 0
M  V30 8722 H 809.507 -4.28951 -2.62698 0
M  V30 8723 H 809.207 -5.67011 -1.54182 0
M  V30 8724 H 810.731 -5.584 -2.47026 0
M  V30 8725 H 812.145 -5.72939 -0.203483 0
M  V30 8726 H 810.542 -5.9759 0.548322 0
M  V30 8727 H 811.612 -4.70596 1.16909 0
M  V30 8728 N 812.955 -0.234822 -1.55841 0
M  V30 8729 C 813.887 0.702346 -2.18174 0
M  V30 8730 C 814.9 1.14776 -1.15457 0
M  V30 8731 O 816.089 1.07662 -1.42377 0
M  V30 8732 C 813.189 1.96483 -2.76129 0
M  V30 8733 C 812.362 1.67283 -4.04148 0
M  V30 8734 C 811.421 2.7837 -4.46539 0
M  V30 8735 O 810.447 2.46272 -5.13166 0
M  V30 8736 N 811.649 4.07611 -4.1332 0
M  V30 8737 H 814.414 0.169074 -2.99223 0
M  V30 8738 H 811.975 -0.0543164 -1.61809 0
M  V30 8739 H 813.967 2.70016 -3.01452 0
M  V30 8740 H 812.537 2.40822 -1.99307 0
M  V30 8741 H 811.757 0.773278 -3.86541 0
M  V30 8742 H 813.045 1.45222 -4.87635 0
M  V30 8743 H 812.443 4.36527 -3.59806 0
M  V30 8744 H 811 4.77646 -4.43506 0
M  V30 8745 N 814.433 1.57553 0.0384317 0
M  V30 8746 C 815.396 2.04927 1.02653 0
M  V30 8747 C 816.396 0.951768 1.29607 0
M  V30 8748 O 817.586 1.21568 1.24768 0
M  V30 8749 C 814.718 2.45828 2.36181 0
M  V30 8750 H 815.911 2.93474 0.617508 0
M  V30 8751 H 813.464 1.53679 0.285031 0
M  V30 8752 H 814.199 1.60408 2.8185 0
M  V30 8753 H 813.984 3.25945 2.1795 0
M  V30 8754 H 815.474 2.82939 3.0714 0
M  V30 8755 N 815.911 -0.310526 1.54511 0
M  V30 8756 C 817.188 -1.06593 1.64004 0
M  V30 8757 C 817.568 -2.05519 0.482216 0
M  V30 8758 O 816.916 -2.22455 -0.52212 0
M  V30 8759 C 817.126 -1.75627 3.01589 0
M  V30 8760 C 818.474 -2.28173 3.58081 0
M  V30 8761 O 819.498 -1.85674 3.03979 0
M  V30 8762 O 818.357 -3.06015 4.52788 0
M  V30 8763 H 815.451 -0.492109 0.664649 0
M  V30 8764 H 817.997 -0.309374 1.66856 0
M  V30 8765 H 816.769 -1.03743 3.77297 0
M  V30 8766 H 816.392 -2.58061 3.02473 0
M  V30 8767 N 817.389 -1.46805 -0.573248 0
M  V30 8768 C 818.336 -1.58084 -1.68161 0
M  V30 8769 C 819.306 -0.424636 -1.6058 0
M  V30 8770 O 820.491 -0.642623 -1.79652 0
M  V30 8771 C 817.631 -1.58601 -3.06496 0
M  V30 8772 C 816.744 -2.85023 -3.24632 0
M  V30 8773 C 815.879 -2.76981 -4.53271 0
M  V30 8774 C 814.918 -3.983 -4.64783 0
M  V30 8775 N 814.055 -3.88589 -5.84759 0
M  V30 8776 H 818.895 -2.52755 -1.57858 0
M  V30 8777 H 816.432 -1.25385 -0.769218 0
M  V30 8778 H 818.39 -1.56885 -3.86579 0
M  V30 8779 H 817.02 -0.674553 -3.15673 0
M  V30 8780 H 816.072 -2.96678 -2.38089 0
M  V30 8781 H 817.384 -3.7491 -3.29004 0
M  V30 8782 H 816.538 -2.73424 -5.41594 0
M  V30 8783 H 815.277 -1.84751 -4.51352 0
M  V30 8784 H 814.282 -4.02179 -3.74876 0
M  V30 8785 H 815.507 -4.91639 -4.68474 0
M  V30 8786 H 813.453 -2.99151 -5.83819 0
M  V30 8787 H 813.37 -4.7214 -5.90441 0
M  V30 8788 H 814.638 -3.89022 -6.75486 0
M  V30 8789 N 818.867 0.818669 -1.34668 0
M  V30 8790 C 819.814 1.92983 -1.26595 0
M  V30 8791 C 820.784 1.65506 -0.140315 0
M  V30 8792 O 821.969 1.88063 -0.322005 0
M  V30 8793 C 819.109 3.2932 -1.03163 0
M  V30 8794 C 818.222 3.69061 -2.24539 0
M  V30 8795 C 817.357 4.94368 -1.94355 0
M  V30 8796 C 816.396 5.26702 -3.11851 0
M  V30 8797 N 815.533 6.43187 -2.81522 0
M  V30 8798 H 820.373 1.99219 -2.2162 0
M  V30 8799 H 817.91 0.974612 -1.1018 0
M  V30 8800 H 819.868 4.07897 -0.87613 0
M  V30 8801 H 818.498 3.22584 -0.118045 0
M  V30 8802 H 817.55 2.85842 -2.50995 0
M  V30 8803 H 818.862 3.88924 -3.12313 0
M  V30 8804 H 818.016 5.80742 -1.75566 0
M  V30 8805 H 816.755 4.76515 -1.03848 0
M  V30 8806 H 815.76 4.38823 -3.31231 0
M  V30 8807 H 816.985 5.46492 -4.03142 0
M  V30 8808 H 814.931 6.26783 -1.93596 0
M  V30 8809 H 814.848 6.63243 -3.62829 0
M  V30 8810 H 816.116 7.32621 -2.66247 0
M  V30 8811 N 820.346 1.18468 1.03938 0
M  V30 8812 C 821.594 0.978895 1.76811 0
M  V30 8813 C 821.915 -0.49257 1.88676 0
M  V30 8814 O 821.185 -1.3572 1.41269 0
M  V30 8815 H 819.765 0.359201 0.654968 0
M  V30 8816 H 822.427 1.49173 1.25433 0
M  V30 8817 H 821.523 1.418 2.78027 0
M  V30 8818 N 821.824 -1.22873 0.986916 0
M  V30 8819 C 823.24 -1.43594 0.696633 0
M  V30 8820 C 823.44 -1.87622 -0.734869 0
M  V30 8821 O 822.496 -2.02633 -1.50652 0
M  V30 8822 C 823.809 -2.48231 1.69711 0
M  V30 8823 C 825.357 -2.62037 1.71188 0
M  V30 8824 C 825.832 -3.6989 2.70084 0
M  V30 8825 N 827.323 -3.77341 2.68641 0
M  V30 8826 C 828.058 -4.6037 3.41829 0
M  V30 8827 N 827.554 -5.47438 4.24598 0
M  V30 8828 N 829.347 -4.54626 3.30563 0
M  V30 8829 H 821.498 -0.925982 1.91153 0
M  V30 8830 H 823.761 -0.46866 0.824052 0
M  V30 8831 H 823.467 -2.22812 2.72117 0
M  V30 8832 H 823.341 -3.46731 1.48516 0
M  V30 8833 H 825.728 -2.86803 0.694837 0
M  V30 8834 H 825.809 -1.63831 1.96451 0
M  V30 8835 H 825.453 -3.45872 3.71934 0
M  V30 8836 H 825.383 -4.67652 2.42093 0
M  V30 8837 H 827.874 -3.15124 2.08578 0
M  V30 8838 H 828.187 -6.078 4.77283 0
M  V30 8839 H 826.532 -5.4704 4.28687 0
M  V30 8840 H 829.723 -3.85627 2.65347 0
M  V30 8841 H 829.896 -5.19103 3.8786 0
M  V30 8842 N 823.302 -0.75937 -1.38099 0
M  V30 8843 C 824.713 -0.385078 -1.82686 0
M  V30 8844 C 825.064 1.0871 -1.6333 0
M  V30 8845 O 824.189 1.84084 -1.13762 0
M  V30 8846 C 824.784 -0.692161 -3.31654 0
M  V30 8847 C 823.343 -0.371077 -3.74566 0
M  V30 8848 C 822.49 -0.942375 -2.60796 0
M  V30 8849 H 825.441 -0.955048 -1.26746 0
M  V30 8850 H 825.462 0.0276001 -3.8049 0
M  V30 8851 H 824.974 -1.76369 -3.4571 0
M  V30 8852 H 823.075 0.693637 -3.66087 0
M  V30 8853 H 823.188 -0.870672 -4.71122 0
M  V30 8854 H 821.552 -0.367383 -2.52036 0
M  V30 8855 H 822.335 -2.01905 -2.77649 0
M  V30 8856 N 824.78 1.49157 -0.508906 0
M  V30 8857 C 826.008 2.06879 0.0293734 0
M  V30 8858 C 826.423 1.36823 1.30095 0
M  V30 8859 O 825.78 0.449034 1.7689 0
M  V30 8860 C 825.831 3.60423 0.278791 0
M  V30 8861 O 825.552 4.27844 -0.942389 0
M  V30 8862 C 827.053 4.34881 0.859825 0
M  V30 8863 H 824.273 0.67057 -0.0240184 0
M  V30 8864 H 826.817 1.91834 -0.708526 0
M  V30 8865 H 824.972 3.75145 0.966689 0
M  V30 8866 H 825.386 5.19671 -0.710097 0
M  V30 8867 H 826.86 5.43161 0.983884 0
M  V30 8868 H 827.337 3.9789 1.85958 0
M  V30 8869 H 827.943 4.24785 0.209152 0
M  V30 8870 N 826.258 0.243083 1.55714 0
M  V30 8871 C 827.486 -0.386971 2.03249 0
M  V30 8872 C 827.901 -1.51812 1.12243 0
M  V30 8873 O 827.258 -1.81992 0.136119 0
M  V30 8874 C 827.309 -0.898361 3.5016 0
M  V30 8875 O 827.03 0.187708 4.37698 0
M  V30 8876 C 828.531 -1.59949 4.13438 0
M  V30 8877 H 825.751 -0.0923981 0.664608 0
M  V30 8878 H 828.295 0.365832 2.01201 0
M  V30 8879 H 826.45 -1.60136 3.52754 0
M  V30 8880 H 826.864 -0.200001 5.24119 0
M  V30 8881 H 828.338 -1.90907 5.17937 0
M  V30 8882 H 828.815 -2.52014 3.59702 0
M  V30 8883 H 829.421 -0.941163 4.14756 0
M  V30 8884 N 827.736 -1.57571 -0.0300757 0
M  V30 8885 C 828.699 -2.05468 -1.01565 0
M  V30 8886 C 829.699 -0.958628 -1.29101 0
M  V30 8887 O 830.889 -1.22228 -1.24121 0
M  V30 8888 C 828.021 -2.47077 -2.34874 0
M  V30 8889 H 829.214 -2.93797 -0.601936 0
M  V30 8890 H 826.767 -1.53828 -0.276878 0
M  V30 8891 H 827.502 -1.61901 -2.80996 0
M  V30 8892 H 827.287 -3.27097 -2.16218 0
M  V30 8893 H 828.777 -2.84564 -3.05635 0
M  V30 8894 N 829.214 0.302327 -1.54673 0
M  V30 8895 C 830.462 1.03565 -1.73547 0
M  V30 8896 C 830.783 1.87843 -0.523448 0
M  V30 8897 O 830.053 1.90367 0.462295 0
M  V30 8898 H 828.633 0.385358 -0.639928 0
M  V30 8899 H 831.295 0.333632 -1.92023 0
M  V30 8900 H 830.391 1.68952 -2.62415 0
M  V30 8901 N 830.692 1.47107 0.565454 0
M  V30 8902 C 831.917 1.57153 1.35343 0
M  V30 8903 C 832.342 0.219247 1.86818 0
M  V30 8904 O 831.7 -0.803539 1.62521 0
M  V30 8905 C 831.748 2.59387 2.50501 0
M  V30 8906 O 830.852 2.14086 3.52478 0
M  V30 8907 H 830.193 0.528209 0.402357 0
M  V30 8908 H 832.723 1.92821 0.684189 0
M  V30 8909 H 832.733 2.79546 2.97184 0
M  V30 8910 H 831.408 3.57579 2.12391 0
M  V30 8911 H 829.985 2.03991 3.12157 0
M  V30 8912 N 832.17 -0.811516 1.35101 0
M  V30 8913 C 833.117 -1.92308 1.27617 0
M  V30 8914 C 834.087 -1.6543 0.149091 0
M  V30 8915 O 835.272 -1.8789 0.331974 0
M  V30 8916 C 832.412 -3.28768 1.04908 0
M  V30 8917 C 831.525 -3.67865 2.26493 0
M  V30 8918 C 830.66 -4.9333 1.96974 0
M  V30 8919 C 829.699 -5.25041 3.1464 0
M  V30 8920 N 828.836 -6.41685 2.84929 0
M  V30 8921 H 833.676 -1.98041 2.22674 0
M  V30 8922 H 831.213 -0.968755 1.10696 0
M  V30 8923 H 833.171 -4.07426 0.897749 0
M  V30 8924 H 831.801 -3.22517 0.135151 0
M  V30 8925 H 830.853 -2.84507 2.52507 0
M  V30 8926 H 832.165 -3.87263 3.14371 0
M  V30 8927 H 831.319 -5.79803 1.78643 0
M  V30 8928 H 830.058 -4.75958 1.06374 0
M  V30 8929 H 829.063 -4.3706 3.33554 0
M  V30 8930 H 830.288 -5.44346 4.06035 0
M  V30 8931 H 828.234 -6.25747 1.96918 0
M  V30 8932 H 828.151 -6.6131 3.66341 0
M  V30 8933 H 829.419 -7.31198 2.70128 0
M  V30 8934 N 833.648 -1.19017 -1.03309 0
M  V30 8935 C 834.897 -0.984542 -1.76039 0
M  V30 8936 C 835.21 0.485937 -1.89468 0
M  V30 8937 O 836.416 0.810278 -2.59127 0
M  V30 8938 C 834.872 -1.71261 -3.1654 0
M  V30 8939 C 834.48 -3.22291 -3.11179 0
M  V30 8940 C 836.224 -1.59007 -3.93595 0
M  V30 8941 C 834.131 -3.87704 -4.46587 0
M  V30 8942 H 833.061 -0.364749 -0.659905 0
M  V30 8943 H 835.712 -1.4247 -1.15649 0
M  V30 8944 H 834.094 -1.20025 -3.77373 0
M  V30 8945 H 835.268 -3.80611 -2.59753 0
M  V30 8946 H 833.583 -3.34772 -2.47622 0
M  V30 8947 H 836.18 -2.05232 -4.93745 0
M  V30 8948 H 836.523 -0.543534 -4.12736 0
M  V30 8949 H 837.056 -2.07564 -3.39355 0
M  V30 8950 H 833.795 -4.92437 -4.3265 0
M  V30 8951 H 833.315 -3.34172 -4.98085 0
M  V30 8952 H 834.994 -3.91008 -5.15482 0
M  V30 8953 N 835.127 1.22348 -0.993418 0
M  V30 8954 C 836.074 2.24294 -0.544118 0
M  V30 8955 C 837.044 1.60602 0.42381 0
M  V30 8956 O 838.229 1.87952 0.328453 0
M  V30 8957 C 835.369 3.44837 0.134578 0
M  V30 8958 C 834.482 4.23043 -0.875151 0
M  V30 8959 C 833.617 5.30928 -0.169919 0
M  V30 8960 C 832.656 6.00853 -1.16798 0
M  V30 8961 N 831.793 7.00381 -0.491021 0
M  V30 8962 H 836.633 2.6209 -1.4182 0
M  V30 8963 H 834.17 1.2881 -0.710384 0
M  V30 8964 H 836.128 4.13625 0.544998 0
M  V30 8965 H 834.758 3.07804 0.972446 0
M  V30 8966 H 833.81 3.53546 -1.40389 0
M  V30 8967 H 835.122 4.71237 -1.63516 0
M  V30 8968 H 834.276 6.05972 0.297205 0
M  V30 8969 H 833.015 4.8371 0.622586 0
M  V30 8970 H 832.02 5.24591 -1.64573 0
M  V30 8971 H 833.245 6.50159 -1.96137 0
M  V30 8972 H 831.191 6.55393 0.282037 0
M  V30 8973 H 831.108 7.46584 -1.18947 0
M  V30 8974 H 832.376 7.79486 -0.0467169 0
M  V30 8975 N 836.605 0.766683 1.37694 0
M  V30 8976 C 837.552 0.147725 2.30327 0
M  V30 8977 C 838.522 -0.695366 1.50844 0
M  V30 8978 O 839.707 -0.64878 1.79431 0
M  V30 8979 C 836.847 -0.72935 3.37305 0
M  V30 8980 C 835.96 0.129795 4.31805 0
M  V30 8981 C 835.095 -0.751511 5.25857 0
M  V30 8982 C 834.134 0.110475 6.12 0
M  V30 8983 N 833.271 -0.728522 6.9831 0
M  V30 8984 H 838.111 0.943204 2.82679 0
M  V30 8985 H 835.648 0.476736 1.3916 0
M  V30 8986 H 837.606 -1.25263 3.97951 0
M  V30 8987 H 836.236 -1.49048 2.86329 0
M  V30 8988 H 835.288 0.770829 3.72508 0
M  V30 8989 H 836.6 0.794923 4.92425 0
M  V30 8990 H 835.754 -1.34146 5.91684 0
M  V30 8991 H 834.493 -1.45034 4.65636 0
M  V30 8992 H 833.498 0.712999 5.45157 0
M  V30 8993 H 834.723 0.806557 6.74293 0
M  V30 8994 H 832.669 -1.41206 6.40622 0
M  V30 8995 H 832.586 -0.12058 7.55904 0
M  V30 8996 H 833.854 -1.30303 7.68532 0
M  V30 8997 N 838.083 -1.48885 0.516809 0
M  V30 8998 C 839.015 -2.27357 -0.290061 0
M  V30 8999 C 840.028 -1.34558 -0.916406 0
M  V30 9000 O 841.217 -1.59715 -0.797073 0
M  V30 9001 C 838.317 -3.07496 -1.42476 0
M  V30 9002 C 837.49 -4.27982 -0.902793 0
M  V30 9003 C 836.549 -4.90038 -1.91701 0
M  V30 9004 O 835.575 -5.49643 -1.47922 0
M  V30 9005 N 836.777 -4.811 -3.24843 0
M  V30 9006 H 839.542 -2.97244 0.382884 0
M  V30 9007 H 837.103 -1.58064 0.35032 0
M  V30 9008 H 839.095 -3.45882 -2.10113 0
M  V30 9009 H 837.665 -2.40115 -2.00159 0
M  V30 9010 H 836.885 -3.94167 -0.0508272 0
M  V30 9011 H 838.173 -5.06003 -0.532723 0
M  V30 9012 H 837.571 -4.33801 -3.63088 0
M  V30 9013 H 836.128 -5.23625 -3.8815 0
M  V30 9014 N 839.561 -0.251338 -1.55583 0
M  V30 9015 C 840.524 0.63305 -2.20284 0
M  V30 9016 C 841.524 1.09941 -1.17344 0
M  V30 9017 O 842.714 1.00341 -1.42399 0
M  V30 9018 C 839.846 1.8706 -2.84993 0
M  V30 9019 H 841.039 0.0684846 -2.99822 0
M  V30 9020 H 838.592 -0.00181653 -1.563 0
M  V30 9021 H 839.327 2.47629 -2.09405 0
M  V30 9022 H 839.112 1.54436 -3.60405 0
M  V30 9023 H 840.602 2.50004 -3.34496 0
M  V30 9024 N 841.039 1.57585 0.0217189 0
M  V30 9025 C 841.987 2.08134 1.03842 0
M  V30 9026 C 842.981 0.996662 1.36978 0
M  V30 9027 O 844.187 1.18149 1.35797 0
M  V30 9028 H 840.562 0.664298 0.352438 0
M  V30 9029 H 842.533 2.92583 0.58634 0
M  V30 9030 C 841.282 2.58218 2.32849 0
M  V30 9031 H 840.605 3.41302 2.08214 0
M  V30 9032 H 842.045 2.97289 3.02316 0
M  V30 9033 C 840.504 1.48664 3.02325 0
M  V30 9034 O 841.034 0.857075 3.9245 0
M  V30 9035 N 839.24 1.21938 2.63779 0
M  V30 9036 H 838.787 1.73319 1.90574 0
M  V30 9037 H 838.745 0.488523 3.10581 0
M  V30 9038 N 842.517 -0.29412 1.54831 0
M  V30 9039 C 843.794 -1.04847 1.65126 0
M  V30 9040 C 844.174 -2.04996 0.503986 0
M  V30 9041 O 843.522 -2.22996 -0.498496 0
M  V30 9042 C 843.732 -1.72418 3.03435 0
M  V30 9043 C 845.08 -2.24362 3.60481 0
M  V30 9044 O 846.104 -1.8244 3.05932 0
M  V30 9045 O 844.963 -3.01196 4.56008 0
M  V30 9046 H 842.057 -0.485032 0.669831 0
M  V30 9047 H 844.603 -0.291659 1.67175 0
M  V30 9048 H 843.375 -0.997351 3.78376 0
M  V30 9049 H 842.998 -2.54839 3.05193 0
M  V30 9050 N 843.995 -1.47404 -0.557645 0
M  V30 9051 C 844.925 -1.62736 -1.67449 0
M  V30 9052 C 845.906 -0.476824 -1.6328 0
M  V30 9053 O 847.091 -0.706108 -1.80908 0
M  V30 9054 C 844.221 -1.641 -3.06086 0
M  V30 9055 C 843.175 -2.78377 -3.25101 0
M  V30 9056 C 842.501 -2.64812 -4.6452 0
M  V30 9057 C 843.801 -4.19971 -3.10518 0
M  V30 9058 H 845.495 -2.56232 -1.54873 0
M  V30 9059 H 843.041 -1.23312 -0.743649 0
M  V30 9060 H 844.994 -1.73417 -3.84063 0
M  V30 9061 H 843.718 -0.671652 -3.19619 0
M  V30 9062 H 842.377 -2.6857 -2.49531 0
M  V30 9063 H 842.025 -1.65906 -4.74852 0
M  V30 9064 H 841.725 -3.41477 -4.78191 0
M  V30 9065 H 843.249 -2.76057 -5.44633 0
M  V30 9066 H 844.663 -4.30757 -3.78313 0
M  V30 9067 H 843.06 -4.97419 -3.35699 0
M  V30 9068 H 844.13 -4.38369 -2.0727 0
M  V30 9069 N 845.473 0.80434 -1.35529 0
M  V30 9070 C 846.719 1.56385 -1.29118 0
M  V30 9071 C 847.052 1.9374 0.133536 0
M  V30 9072 O 846.327 1.6153 1.08344 0
M  V30 9073 C 846.61 2.85097 -2.19981 0
M  V30 9074 C 846.463 2.54204 -3.7108 0
M  V30 9075 C 847.782 3.86817 -2.09907 0
M  V30 9076 H 844.901 0.567382 -0.470368 0
M  V30 9077 H 847.543 0.925235 -1.6595 0
M  V30 9078 H 845.693 3.39594 -1.88701 0
M  V30 9079 H 847.365 2.05872 -4.12813 0
M  V30 9080 H 845.608 1.87364 -3.91251 0
M  V30 9081 H 846.279 3.46068 -4.30048 0
M  V30 9082 H 848.755 3.41725 -2.37409 0
M  V30 9083 H 847.631 4.7465 -2.75678 0
M  V30 9084 H 847.892 4.28663 -1.08171 0
M  V30 9085 N 846.951 1.19563 1.02676 0
M  V30 9086 C 848.176 1.02556 1.80269 0
M  V30 9087 C 848.601 -0.421056 1.83327 0
M  V30 9088 O 847.959 -1.30279 1.26084 0
M  V30 9089 C 848.007 1.60165 3.23078 0
M  V30 9090 O 847.111 0.832404 4.03912 0
M  V30 9091 H 846.452 0.362354 0.556413 0
M  V30 9092 H 848.982 1.58633 1.29216 0
M  V30 9093 H 848.992 1.6347 3.7382 0
M  V30 9094 H 847.667 2.65454 3.20167 0
M  V30 9095 H 846.244 0.872768 3.62543 0
M  V30 9096 N 848.429 -1.21819 0.999893 0
M  V30 9097 C 849.657 -1.94758 0.698359 0
M  V30 9098 C 850.072 -1.73771 -0.738183 0
M  V30 9099 O 849.429 -1.04113 -1.49889 0
M  V30 9100 C 849.48 -3.47292 1.00353 0
M  V30 9101 O 849.201 -3.67579 2.38363 0
M  V30 9102 C 850.702 -4.37403 0.72068 0
M  V30 9103 H 847.922 -0.619512 0.257771 0
M  V30 9104 H 850.466 -1.54778 1.33656 0
M  V30 9105 H 848.621 -3.85213 0.411018 0
M  V30 9106 H 849.035 -4.61719 2.48829 0
M  V30 9107 H 850.509 -5.43151 0.984422 0
M  V30 9108 H 850.986 -4.3784 -0.345309 0
M  V30 9109 H 851.592 -4.05119 1.29456 0
M  V30 9110 N 849.908 -0.773975 -1.37286 0
M  V30 9111 C 850.838 -0.175782 -2.32837 0
M  V30 9112 C 851.819 0.680603 -1.5589 0
M  V30 9113 O 853.004 0.617607 -1.84117 0
M  V30 9114 C 850.134 0.702388 -3.40123 0
M  V30 9115 C 849.088 -0.0528687 -4.27967 0
M  V30 9116 C 848.414 0.944891 -5.26285 0
M  V30 9117 C 849.714 -1.23316 -5.07534 0
M  V30 9118 H 851.408 -0.974016 -2.83114 0
M  V30 9119 H 848.954 -0.469826 -1.3612 0
M  V30 9120 H 850.907 1.13069 -4.05947 0
M  V30 9121 H 849.631 1.53316 -2.88378 0
M  V30 9122 H 848.29 -0.461978 -3.63678 0
M  V30 9123 H 847.938 1.77028 -4.70819 0
M  V30 9124 H 847.638 0.444079 -5.8592 0
M  V30 9125 H 849.162 1.37209 -5.94984 0
M  V30 9126 H 850.576 -0.881395 -5.66484 0
M  V30 9127 H 848.973 -1.66621 -5.76504 0
M  V30 9128 H 850.043 -2.03617 -4.40077 0
M  V30 9129 N 851.386 1.48609 -0.524698 0
M  V30 9130 C 852.319 2.26374 0.288109 0
M  V30 9131 C 853.297 1.31997 0.949509 0
M  V30 9132 O 854.481 1.61329 0.974946 0
M  V30 9133 C 851.608 3.08065 1.4076 0
M  V30 9134 C 850.654 4.17777 0.858152 0
M  V30 9135 S 851.487 5.3482 -0.269827 0
M  V30 9136 C 852.643 6.2007 0.852266 0
M  V30 9137 H 852.876 2.94965 -0.371865 0
M  V30 9138 H 850.409 1.51248 -0.31039 0
M  V30 9139 H 852.367 3.5571 2.04892 0
M  V30 9140 H 851.028 2.38898 2.03928 0
M  V30 9141 H 850.221 4.74542 1.69783 0
M  V30 9142 H 849.823 3.72846 0.293627 0
M  V30 9143 H 852.115 6.54451 1.75213 0
M  V30 9144 H 853.058 7.07364 0.322717 0
M  V30 9145 H 853.466 5.53068 1.13029 0
M  V30 9146 N 852.864 0.259585 1.55447 0
M  V30 9147 C 853.811 -0.634578 2.21905 0
M  V30 9148 C 854.781 -1.16168 1.18719 0
M  V30 9149 O 855.966 -1.21383 1.4721 0
M  V30 9150 C 853.106 -1.82005 2.93203 0
M  V30 9151 C 852.219 -1.32828 4.11073 0
M  V30 9152 C 851.354 -2.47431 4.70055 0
M  V30 9153 C 850.393 -1.95179 5.80148 0
M  V30 9154 N 849.53 -3.03197 6.33258 0
M  V30 9155 H 854.37 -0.0611886 2.97937 0
M  V30 9156 H 851.907 -0.0184378 1.47088 0
M  V30 9157 H 853.865 -2.51664 3.32748 0
M  V30 9158 H 852.495 -2.36571 2.19622 0
M  V30 9159 H 851.547 -0.525301 3.76756 0
M  V30 9160 H 852.859 -0.905435 4.90513 0
M  V30 9161 H 852.013 -3.25111 5.12238 0
M  V30 9162 H 850.752 -2.93023 3.89857 0
M  V30 9163 H 849.757 -1.15974 5.37429 0
M  V30 9164 H 850.982 -1.50541 6.62204 0
M  V30 9165 H 848.928 -3.48199 5.55961 0
M  V30 9166 H 848.845 -2.65282 7.07928 0
M  V30 9167 H 850.113 -3.80898 6.80101 0
M  V30 9168 N 854.342 -1.57594 -0.0133615 0
M  V30 9169 C 855.582 -1.91834 -0.705639 0
M  V30 9170 C 855.946 -0.859801 -1.71672 0
M  V30 9171 O 857.147 -1.08702 -2.4584 0
M  V30 9172 C 855.418 -3.31174 -1.34383 0
M  V30 9173 S 856.977 -3.87275 -2.06309 0
M  V30 9174 H 853.795 -0.671598 -0.233404 0
M  V30 9175 H 856.397 -1.95459 0.0401173 0
M  V30 9176 H 855.101 -4.06065 -0.594939 0
M  V30 9177 H 854.632 -3.3089 -2.12781 0
M  V30 9178 H 856.647 -3.67271 -3.33657 0
M  V30 9179 N 855.82 0.285905 -1.54985 0
M  V30 9180 C 857.048 1.03776 -1.78992 0
M  V30 9181 C 857.463 1.80402 -0.556814 0
M  V30 9182 O 856.82 1.76242 0.473801 0
M  V30 9183 C 856.871 2.0065 -3.00702 0
M  V30 9184 O 856.592 1.27131 -4.19249 0
M  V30 9185 C 858.093 2.87753 -3.37214 0
M  V30 9186 H 855.313 0.307126 -0.596586 0
M  V30 9187 H 857.857 0.3206 -2.01971 0
M  V30 9188 H 856.012 2.67847 -2.79887 0
M  V30 9189 H 856.426 1.92316 -4.8797 0
M  V30 9190 H 857.9 3.51548 -4.2558 0
M  V30 9191 H 858.377 3.56848 -2.56039 0
M  V30 9192 H 858.983 2.26065 -3.60242 0
M  V30 9193 N 857.298 1.47698 0.54982 0
M  V30 9194 C 858.709 1.48474 1.13191 0
M  V30 9195 C 859.06 0.243504 1.94683 0
M  V30 9196 O 858.185 -0.651009 2.06375 0
M  V30 9197 C 858.78 2.69022 2.05944 0
M  V30 9198 C 857.339 2.72733 2.5941 0
M  V30 9199 C 856.486 2.41691 1.35944 0
M  V30 9200 H 859.437 1.55101 0.336048 0
M  V30 9201 H 859.458 2.46412 2.89934 0
M  V30 9202 H 858.97 3.59345 1.46605 0
M  V30 9203 H 857.071 1.86568 3.22526 0
M  V30 9204 H 857.184 3.73628 2.99899 0
M  V30 9205 H 855.548 1.92428 1.66864 0
M  V30 9206 H 856.331 3.34231 0.783869 0
M  V30 9207 N 858.776 -0.797141 1.35954 0
M  V30 9208 C 859.726 -1.89899 1.26184 0
M  V30 9209 C 860.71 -1.60152 0.155007 0
M  V30 9210 O 861.902 -1.72715 0.387108 0
M  V30 9211 C 859.031 -3.2699 1.04559 0
M  V30 9212 C 858.117 -3.62772 2.19675 0
M  V30 9213 N 858.508 -3.6992 3.44953 0
M  V30 9214 C 856.806 -3.92786 2.1127 0
M  V30 9215 C 857.507 -4.01718 4.20711 0
M  V30 9216 N 856.483 -4.16298 3.49567 0
M  V30 9217 H 860.285 -1.9364 2.2109 0
M  V30 9218 H 857.799 -0.992246 1.28562 0
M  V30 9219 H 859.796 -4.0578 0.956474 0
M  V30 9220 H 858.456 -3.24529 0.105467 0
M  V30 9221 H 859.467 -3.52759 3.79185 0
M  V30 9222 H 856.144 -3.98295 1.25168 0
M  V30 9223 H 857.534 -4.14237 5.29016 0
M  V30 9224 N 860.254 -1.20106 -1.0204 0
M  V30 9225 C 861.484 -1.0329 -1.78927 0
M  V30 9226 C 861.892 0.421115 -1.84454 0
M  V30 9227 O 861.235 1.30422 -1.29367 0
M  V30 9228 C 861.297 -1.53627 -3.25021 0
M  V30 9229 C 860.961 -3.01869 -3.4311 0
M  V30 9230 C 861.958 -3.9956 -3.32638 0
M  V30 9231 C 859.643 -3.40746 -3.6905 0
M  V30 9232 C 861.637 -5.34119 -3.47844 0
M  V30 9233 C 859.324 -4.75462 -3.839 0
M  V30 9234 C 860.322 -5.71957 -3.73302 0
M  V30 9235 O 860.01 -7.04231 -3.87703 0
M  V30 9236 H 859.742 -0.363962 -0.569656 0
M  V30 9237 H 862.296 -1.59551 -1.29354 0
M  V30 9238 H 860.526 -0.917481 -3.75658 0
M  V30 9239 H 862.215 -1.32889 -3.8353 0
M  V30 9240 H 862.981 -3.70869 -3.12539 0
M  V30 9241 H 858.86 -2.66182 -3.76388 0
M  V30 9242 H 862.404 -6.09421 -3.39488 0
M  V30 9243 H 858.301 -5.03844 -4.03499 0
M  V30 9244 H 859.069 -7.11425 -4.04744 0
M  V30 9245 N 861.732 1.21287 -1.00634 0
M  V30 9246 C 862.981 1.89706 -0.685178 0
M  V30 9247 C 863.294 1.79044 0.787566 0
M  V30 9248 O 864.5 2.42502 1.22086 0
M  V30 9249 C 862.956 3.40176 -1.17508 0
M  V30 9250 C 862.564 3.59446 -2.674 0
M  V30 9251 C 864.308 4.14213 -0.928869 0
M  V30 9252 C 862.215 5.03688 -3.09923 0
M  V30 9253 H 861.145 0.710434 -0.252586 0
M  V30 9254 H 863.796 1.37277 -1.21768 0
M  V30 9255 H 862.178 3.91867 -0.570622 0
M  V30 9256 H 863.352 3.18188 -3.33306 0
M  V30 9257 H 861.667 2.98764 -2.9005 0
M  V30 9258 H 864.264 5.20546 -1.22212 0
M  V30 9259 H 864.607 4.16082 0.134859 0
M  V30 9260 H 865.14 3.68591 -1.49619 0
M  V30 9261 H 861.879 5.06968 -4.15529 0
M  V30 9262 H 861.399 5.45796 -2.4873 0
M  V30 9263 H 863.078 5.72204 -3.0198 0
M  V30 9264 N 863.21 0.781244 1.36873 0
M  V30 9265 C 864.626 0.461968 1.52768 0
M  V30 9266 C 864.826 -1.02099 1.73719 0
M  V30 9267 O 863.882 -1.80665 1.76399 0
M  V30 9268 C 865.195 1.2853 2.71846 0
M  V30 9269 C 866.743 1.27817 2.85713 0
M  V30 9270 C 867.218 2.08506 4.07786 0
M  V30 9271 N 868.709 2.05909 4.14917 0
M  V30 9272 C 869.444 2.65118 5.08429 0
M  V30 9273 N 868.94 3.33152 6.07438 0
M  V30 9274 N 870.733 2.54896 5.00983 0
M  V30 9275 H 862.884 1.74198 1.21527 0
M  V30 9276 H 865.147 0.740027 0.592506 0
M  V30 9277 H 864.853 2.3366 2.62861 0
M  V30 9278 H 864.727 0.920981 3.65784 0
M  V30 9279 H 867.114 0.234817 2.94164 0
M  V30 9280 H 867.195 1.68219 1.92707 0
M  V30 9281 H 866.839 3.12867 4.00096 0
M  V30 9282 H 866.769 1.65479 4.99924 0
M  V30 9283 H 869.26 1.56386 3.44023 0
M  V30 9284 H 869.573 3.75681 6.75339 0
M  V30 9285 H 867.918 3.37253 6.07689 0
M  V30 9286 H 871.109 2.01352 4.22581 0
M  V30 9287 H 871.282 3.01332 5.73675 0
M  V30 9288 N 864.689 -1.48329 0.532571 0
M  V30 9289 C 865.929 -2.044 0.00145618 0
M  V30 9290 C 866.293 -1.40053 -1.31336 0
M  V30 9291 O 867.494 -1.87026 -1.93066 0
M  V30 9292 C 865.765 -3.57214 -0.115376 0
M  V30 9293 S 867.324 -4.34731 -0.59618 0
M  V30 9294 H 864.142 -0.710876 0.0133038 0
M  V30 9295 H 866.744 -1.82006 0.71372 0
M  V30 9296 H 865.448 -4.01579 0.846335 0
M  V30 9297 H 864.979 -3.84065 -0.85194 0
M  V30 9298 H 866.994 -4.6001 -1.86025 0
M  V30 9299 N 866.167 -0.267825 -1.55308 0
M  V30 9300 C 867.416 0.351635 -1.98611 0
M  V30 9301 C 867.729 1.57522 -1.15957 0
M  V30 9302 O 868.935 2.26717 -1.49371 0
M  V30 9303 C 867.391 0.676986 -3.53475 0
M  V30 9304 C 866.999 -0.526385 -4.44897 0
M  V30 9305 C 868.743 1.25948 -4.05386 0
M  V30 9306 C 866.65 -0.176026 -5.91138 0
M  V30 9307 H 865.58 0.13516 -0.741787 0
M  V30 9308 H 868.231 -0.371333 -1.79704 0
M  V30 9309 H 866.613 1.45866 -3.68156 0
M  V30 9310 H 867.787 -1.30339 -4.41982 0
M  V30 9311 H 866.102 -1.02522 -4.03582 0
M  V30 9312 H 868.699 1.53529 -5.12184 0
M  V30 9313 H 869.042 2.19094 -3.53982 0
M  V30 9314 H 869.575 0.540253 -3.94114 0
M  V30 9315 H 866.314 -1.07518 -6.46622 0
M  V30 9316 H 865.834 0.564363 -5.97139 0
M  V30 9317 H 867.513 0.234365 -6.46575 0
M  V30 9318 N 867.645 1.57599 0.00500368 0
M  V30 9319 C 868.592 2.08106 0.998025 0
M  V30 9320 C 869.562 0.975374 1.34446 0
M  V30 9321 O 870.747 1.24749 1.44369 0
M  V30 9322 C 867.887 2.58496 2.28635 0
M  V30 9323 C 867 3.82947 1.99939 0
M  V30 9324 C 866.135 4.21857 3.22816 0
M  V30 9325 C 865.174 5.39159 2.89783 0
M  V30 9326 N 864.311 5.73386 4.05183 0
M  V30 9327 H 869.151 2.92684 0.560385 0
M  V30 9328 H 866.688 1.44692 0.265053 0
M  V30 9329 H 868.646 2.85787 3.03943 0
M  V30 9330 H 867.276 1.768 2.70077 0
M  V30 9331 H 866.328 3.62594 1.1502 0
M  V30 9332 H 867.64 4.68358 1.71588 0
M  V30 9333 H 866.794 4.50404 4.06474 0
M  V30 9334 H 865.533 3.35145 3.54301 0
M  V30 9335 H 864.538 5.1034 2.04532 0
M  V30 9336 H 865.763 6.27543 2.59551 0
M  V30 9337 H 863.709 4.89632 4.36574 0
M  V30 9338 H 863.626 6.53359 3.80339 0
M  V30 9339 H 864.894 6.06522 4.89644 0
M  V30 9340 N 869.123 -0.277682 1.55134 0
M  V30 9341 C 870.534 -0.849063 1.66276 0
M  V30 9342 C 870.885 -1.87223 0.5867 0
M  V30 9343 O 870.01 -2.14676 -0.272635 0
M  V30 9344 C 870.605 -1.54681 3.01429 0
M  V30 9345 C 869.164 -2.06628 3.14614 0
M  V30 9346 C 868.311 -0.906748 2.62056 0
M  V30 9347 H 871.262 -0.0541357 1.58608 0
M  V30 9348 H 871.283 -2.41356 2.94156 0
M  V30 9349 H 870.795 -0.80189 3.79725 0
M  V30 9350 H 868.896 -2.84095 2.41082 0
M  V30 9351 H 869.009 -2.2848 4.2111 0
M  V30 9352 H 867.373 -1.29882 2.19095 0
M  V30 9353 H 868.156 -0.175414 3.42852 0
M  V30 9354 N 870.601 -1.47988 -0.541979 0
M  V30 9355 C 871.549 -1.62044 -1.66867 0
M  V30 9356 C 872.543 -0.487217 -1.62242 0
M  V30 9357 O 873.749 -0.66554 -1.67244 0
M  V30 9358 H 870.124 -0.51024 -0.552412 0
M  V30 9359 H 872.095 -2.56695 -1.52153 0
M  V30 9360 C 870.844 -1.66615 -3.0518 0
M  V30 9361 H 870.167 -2.5317 -3.09427 0
M  V30 9362 H 871.607 -1.80496 -3.83663 0
M  V30 9363 C 870.066 -0.402421 -3.34488 0
M  V30 9364 O 870.596 0.48992 -3.98701 0
M  V30 9365 N 868.802 -0.277778 -2.89269 0
M  V30 9366 H 868.349 -1.00488 -2.37192 0
M  V30 9367 H 868.307 0.566784 -3.09249 0
M  V30 9368 N 872.079 0.78992 -1.36375 0
M  V30 9369 C 872.989 1.93386 -1.32812 0
M  V30 9370 C 874.005 1.72468 -0.230377 0
M  V30 9371 O 875.181 1.96014 -0.462657 0
M  V30 9372 C 872.246 3.2824 -1.11621 0
M  V30 9373 C 871.307 3.61939 -2.30865 0
M  V30 9374 C 870.54 4.90359 -2.10675 0
M  V30 9375 O 870.763 5.6005 -1.08168 0
M  V30 9376 O 869.697 5.22702 -2.9844 0
M  V30 9377 H 873.523 1.99342 -2.29121 0
M  V30 9378 H 871.108 0.9301 -1.16917 0
M  V30 9379 H 872.99 4.08939 -1.01719 0
M  V30 9380 H 871.665 3.23178 -0.183732 0
M  V30 9381 H 870.572 2.81549 -2.46335 0
M  V30 9382 H 871.905 3.71725 -3.22617 0
M  V30 9383 N 873.557 1.20646 1.01402 0
M  V30 9384 C 874.785 1.04389 1.78635 0
M  V30 9385 C 875.2 -0.406771 1.84366 0
M  V30 9386 O 874.557 -1.28239 1.2985 0
M  V30 9387 C 874.608 1.62378 3.22979 0
M  V30 9388 O 874.329 3.01768 3.17597 0
M  V30 9389 C 875.83 1.5111 4.1675 0
M  V30 9390 H 873.05 0.367077 0.56169 0
M  V30 9391 H 875.594 1.59789 1.27624 0
M  V30 9392 H 873.749 1.11092 3.7113 0
M  V30 9393 H 874.163 3.29331 4.08217 0
M  V30 9394 H 875.637 1.96441 5.15863 0
M  V30 9395 H 876.114 0.464011 4.36742 0
M  V30 9396 H 876.72 2.01599 3.74483 0
M  V30 9397 N 875.035 -1.20752 1.01276 0
M  V30 9398 C 875.982 -2.234 0.579732 0
M  V30 9399 C 876.952 -1.61256 -0.398206 0
M  V30 9400 O 878.137 -1.8845 -0.29851 0
M  V30 9401 C 875.277 -3.45008 -0.0797006 0
M  V30 9402 C 874.39 -4.21597 0.942343 0
M  V30 9403 C 873.525 -5.30591 0.254364 0
M  V30 9404 C 872.564 -5.98919 1.26343 0
M  V30 9405 N 871.701 -6.99511 0.602384 0
M  V30 9406 H 876.541 -2.59801 1.45971 0
M  V30 9407 H 874.078 -1.27663 0.730787 0
M  V30 9408 H 876.036 -4.1444 -0.479125 0
M  V30 9409 H 874.666 -3.09312 -0.923354 0
M  V30 9410 H 873.718 -3.51268 1.45996 0
M  V30 9411 H 875.03 -4.68576 1.70992 0
M  V30 9412 H 874.184 -6.06368 -0.200763 0
M  V30 9413 H 872.923 -4.84639 -0.545553 0
M  V30 9414 H 871.928 -5.21906 1.72898 0
M  V30 9415 H 873.153 -6.46957 2.06456 0
M  V30 9416 H 871.099 -6.55759 -0.177734 0
M  V30 9417 H 871.016 -7.44597 1.30809 0
M  V30 9418 H 872.284 -7.79313 0.17072 0
M  V30 9419 N 876.513 -0.788492 -1.36457 0
M  V30 9420 C 877.46 -0.18435 -2.30063 0
M  V30 9421 C 878.43 0.67128 -1.51931 0
M  V30 9422 O 879.615 0.620152 -1.8044 0
M  V30 9423 C 876.755 0.675596 -3.38422 0
M  V30 9424 C 875.868 -0.198475 -4.31544 0
M  V30 9425 C 875.003 0.667757 -5.26986 0
M  V30 9426 C 874.042 -0.207825 -6.11747 0
M  V30 9427 N 873.179 0.617335 -6.99381 0
M  V30 9428 H 878.019 -0.988056 -2.81143 0
M  V30 9429 H 875.556 -0.498815 -1.38384 0
M  V30 9430 H 877.514 1.18916 -3.99894 0
M  V30 9431 H 876.144 1.44474 -2.88664 0
M  V30 9432 H 875.196 -0.829995 -3.71235 0
M  V30 9433 H 876.508 -0.873163 -4.91098 0
M  V30 9434 H 875.662 1.24716 -5.93743 0
M  V30 9435 H 874.401 1.37607 -4.67884 0
M  V30 9436 H 873.406 -0.799638 -5.43954 0
M  V30 9437 H 874.631 -0.913729 -6.72925 0
M  V30 9438 H 872.577 1.30996 -6.42788 0
M  V30 9439 H 872.494 0.000307255 -7.56 0
M  V30 9440 H 873.762 1.1806 -7.70508 0
M  V30 9441 N 877.991 1.48044 -0.54043 0
M  V30 9442 C 879.402 1.86418 -0.102662 0
M  V30 9443 C 879.753 1.4489 1.32293 0
M  V30 9444 O 878.878 0.844319 1.99249 0
M  V30 9445 C 879.473 3.38324 -0.179533 0
M  V30 9446 C 878.032 3.75852 0.203098 0
M  V30 9447 C 877.179 2.72097 -0.534637 0
M  V30 9448 H 880.13 1.398 -0.751103 0
M  V30 9449 H 880.151 3.75641 0.606147 0
M  V30 9450 H 879.663 3.68518 -1.21721 0
M  V30 9451 H 877.764 3.51272 1.24252 0
M  V30 9452 H 877.877 4.78884 -0.143784 0
M  V30 9453 H 876.241 2.54692 0.0203358 0
M  V30 9454 H 877.024 3.05135 -1.57314 0
M  V30 9455 N 879.47 0.276058 1.55163 0
M  V30 9456 C 880.886 -0.0780579 1.59409 0
M  V30 9457 C 881.086 -1.54521 1.29327 0
M  V30 9458 O 880.142 -2.29422 1.05459 0
M  V30 9459 C 881.455 0.297422 2.99225 0
M  V30 9460 C 883.003 0.244117 3.12047 0
M  V30 9461 C 883.478 0.594051 4.54131 0
M  V30 9462 N 884.969 0.54564 4.59975 0
M  V30 9463 C 885.704 0.789192 5.67943 0
M  V30 9464 N 885.2 1.09741 6.84053 0
M  V30 9465 N 886.993 0.717926 5.57496 0
M  V30 9466 H 879.144 1.23251 1.72982 0
M  V30 9467 H 881.407 0.497988 0.806667 0
M  V30 9468 H 881.113 1.31782 3.26077 0
M  V30 9469 H 880.987 -0.361286 3.75466 0
M  V30 9470 H 883.374 -0.766992 2.84958 0
M  V30 9471 H 883.455 0.937097 2.38017 0
M  V30 9472 H 883.099 1.60285 4.81945 0
M  V30 9473 H 883.029 -0.120728 5.26462 0
M  V30 9474 H 885.52 0.317334 3.76565 0
M  V30 9475 H 885.833 1.26989 7.62295 0
M  V30 9476 H 884.178 1.13519 6.85666 0
M  V30 9477 H 887.369 0.47697 4.65664 0
M  V30 9478 H 887.542 0.911118 6.41563 0
M  V30 9479 N 880.948 -1.576 0.00335426 0
M  V30 9480 C 882.225 -1.81945 -0.718015 0
M  V30 9481 C 882.605 -0.881788 -1.91801 0
M  V30 9482 O 881.953 0.0687118 -2.28397 0
M  V30 9483 C 882.163 -3.30521 -1.12058 0
M  V30 9484 C 883.511 -3.96345 -1.52303 0
M  V30 9485 O 884.535 -3.34864 -1.21428 0
M  V30 9486 O 883.394 -5.04655 -2.09728 0
M  V30 9487 H 880.488 -0.749328 -0.34991 0
M  V30 9488 H 883.034 -1.69675 0.0290654 0
M  V30 9489 H 881.806 -3.90399 -0.265378 0
M  V30 9490 H 881.429 -3.47802 -1.92665 0
M  V30 9491 N 882.426 0.269451 -1.5528 0
M  V30 9492 C 883.672 0.997946 -1.77236 0
M  V30 9493 C 884.027 1.83808 -0.568546 0
M  V30 9494 O 883.32 1.8651 0.438706 0
M  V30 9495 C 883.514 1.91 -3.02082 0
M  V30 9496 C 883.343 1.15963 -4.34491 0
M  V30 9497 C 882.113 0.873873 -4.97686 0
M  V30 9498 C 884.311 0.548307 -5.11369 0
M  V30 9499 N 882.293 0.0970863 -6.13823 0
M  V30 9500 C 883.664 -0.0941413 -6.19929 0
M  V30 9501 C 885.719 0.456507 -4.95803 0
M  V30 9502 C 884.422 -0.819547 -7.14616 0
M  V30 9503 C 886.448 -0.255315 -5.90849 0
M  V30 9504 C 885.81 -0.886488 -6.988 0
M  V30 9505 H 881.909 0.347038 -0.700777 0
M  V30 9506 H 884.493 0.273262 -1.92773 0
M  V30 9507 H 882.664 2.60691 -2.87915 0
M  V30 9508 H 884.396 2.57237 -3.12428 0
M  V30 9509 H 881.151 1.18003 -4.58663 0
M  V30 9510 H 881.575 -0.278741 -6.76426 0
M  V30 9511 H 886.217 0.930164 -4.12441 0
M  V30 9512 H 883.935 -1.30488 -7.97495 0
M  V30 9513 H 887.521 -0.32671 -5.80882 0
M  V30 9514 H 886.401 -1.42851 -7.71079 0
M  V30 9515 N 883.904 1.48273 0.534124 0
M  V30 9516 C 884.814 1.65162 1.66609 0
M  V30 9517 C 885.83 0.534177 1.65598 0
M  V30 9518 O 887.006 0.804715 1.84625 0
M  V30 9519 C 884.071 1.68354 3.03081 0
M  V30 9520 C 883.132 2.91696 3.1498 0
M  V30 9521 C 882.365 2.94725 4.44941 0
M  V30 9522 O 882.588 2.06285 5.31792 0
M  V30 9523 O 881.522 3.8685 4.61119 0
M  V30 9524 H 885.348 2.60991 1.55298 0
M  V30 9525 H 882.933 1.31626 0.706749 0
M  V30 9526 H 884.815 1.72998 3.84252 0
M  V30 9527 H 883.49 0.756978 3.14725 0
M  V30 9528 H 882.397 2.92586 2.33119 0
M  V30 9529 H 883.73 3.83722 3.0825 0
M  V30 9530 N 885.382 -0.782676 1.36792 0
M  V30 9531 C 886.292 -1.92679 1.33835 0
M  V30 9532 C 887.308 -1.72344 0.23952 0
M  V30 9533 O 888.484 -1.95766 0.473045 0
M  V30 9534 C 885.549 -3.27644 1.1336 0
M  V30 9535 C 884.61 -3.6071 2.32781 0
M  V30 9536 C 883.843 -4.89234 2.13273 0
M  V30 9537 O 884.066 -5.59468 1.11136 0
M  V30 9538 O 883 -5.21112 3.01208 0
M  V30 9539 H 886.826 -1.98124 2.30175 0
M  V30 9540 H 884.411 -0.923887 1.17408 0
M  V30 9541 H 886.293 -4.08394 1.03886 0
M  V30 9542 H 884.968 -3.23076 0.200868 0
M  V30 9543 H 883.875 -2.80238 2.47825 0
M  V30 9544 H 885.208 -3.70008 3.24584 0
M  V30 9545 N 886.86 -1.21182 -1.00761 0
M  V30 9546 C 888.085 -1.05411 -1.78615 0
M  V30 9547 C 888.51 0.391837 -1.83973 0
M  V30 9548 O 887.868 1.28256 -1.28141 0
M  V30 9549 C 887.916 -1.65285 -3.20489 0
M  V30 9550 O 887.02 -0.896558 -4.02536 0
M  V30 9551 H 886.361 -0.37116 -0.550578 0
M  V30 9552 H 888.891 -1.60669 -1.26676 0
M  V30 9553 H 888.901 -1.69397 -3.71172 0
M  V30 9554 H 887.576 -2.70514 -3.15904 0
M  V30 9555 H 886.153 -0.930335 -3.61108 0
M  V30 9556 N 888.338 1.20213 -1.01915 0
M  V30 9557 C 889.754 1.41696 -0.734459 0
M  V30 9558 C 889.954 1.89504 0.684867 0
M  V30 9559 O 889.01 2.06556 1.45227 0
M  V30 9560 C 890.323 2.43644 -1.76233 0
M  V30 9561 C 891.871 2.57406 -1.78076 0
M  V30 9562 C 892.346 3.626 -2.79796 0
M  V30 9563 N 893.837 3.70086 -2.78551 0
M  V30 9564 C 894.572 4.51145 -3.53915 0
M  V30 9565 N 894.068 5.35988 -4.38963 0
M  V30 9566 N 895.861 4.45702 -3.425 0
M  V30 9567 H 888.012 0.874976 -1.93541 0
M  V30 9568 H 890.275 0.446647 -0.836188 0
M  V30 9569 H 889.981 2.15519 -2.77929 0
M  V30 9570 H 889.855 3.42672 -1.57657 0
M  V30 9571 H 892.242 2.8486 -0.770634 0
M  V30 9572 H 892.323 1.58565 -2.00725 0
M  V30 9573 H 891.967 3.35889 -3.80973 0
M  V30 9574 H 891.897 4.61069 -2.54407 0
M  V30 9575 H 894.388 3.09484 -2.1686 0
M  V30 9576 H 894.701 5.94932 -4.9323 0
M  V30 9577 H 893.046 5.35482 -4.4304 0
M  V30 9578 H 896.237 3.78456 -2.75478 0
M  V30 9579 H 896.41 5.08637 -4.01487 0
M  V30 9580 N 889.816 0.795718 1.36037 0
M  V30 9581 C 891.062 0.371574 1.99367 0
M  V30 9582 C 891.395 -1.0557 1.62999 0
M  V30 9583 O 890.67 -1.73051 0.887895 0
M  V30 9584 C 890.953 0.542622 3.55988 0
M  V30 9585 C 890.806 2.01404 4.0219 0
M  V30 9586 C 892.125 -0.0384527 4.40083 0
M  V30 9587 H 889.244 0.136483 0.724252 0
M  V30 9588 H 891.886 1.00323 1.61355 0
M  V30 9589 H 890.036 0.0049053 3.885 0
M  V30 9590 H 891.708 2.6133 3.80137 0
M  V30 9591 H 889.951 2.51439 3.53498 0
M  V30 9592 H 890.622 2.08466 5.11122 0
M  V30 9593 H 893.098 0.420634 4.13968 0
M  V30 9594 H 891.974 0.111214 5.48787 0
M  V30 9595 H 892.235 -1.13116 4.27384 0
M  V30 9596 N 891.294 -1.47756 0.548274 0
M  V30 9597 C 892.241 -2.29893 -0.204408 0
M  V30 9598 C 893.211 -1.38509 -0.916761 0
M  V30 9599 O 894.396 -1.67472 -0.91421 0
M  V30 9600 C 891.536 -3.22282 -1.23403 0
M  V30 9601 C 890.649 -4.28753 -0.528654 0
M  V30 9602 C 889.784 -5.08303 -1.54279 0
M  V30 9603 C 888.823 -6.06557 -0.821893 0
M  V30 9604 N 887.96 -6.79098 -1.78243 0
M  V30 9605 H 892.8 -2.93739 0.502163 0
M  V30 9606 H 890.337 -1.44793 0.259471 0
M  V30 9607 H 892.295 -3.74262 -1.84348 0
M  V30 9608 H 890.925 -2.6032 -1.90875 0
M  V30 9609 H 889.977 -3.79899 0.195132 0
M  V30 9610 H 891.289 -4.98787 0.0365066 0
M  V30 9611 H 890.443 -5.64388 -2.22602 0
M  V30 9612 H 889.182 -4.3815 -2.14186 0
M  V30 9613 H 888.187 -5.49659 -0.12469 0
M  V30 9614 H 889.412 -6.78715 -0.228685 0
M  V30 9615 H 887.358 -6.11682 -2.37025 0
M  V30 9616 H 887.275 -7.4527 -1.26919 0
M  V30 9617 H 888.543 -7.39762 -2.45709 0
M  V30 9618 N 892.772 -0.284283 -1.55015 0
M  V30 9619 C 893.722 0.613913 -2.19579 0
M  V30 9620 C 894.706 1.11153 -1.16335 0
M  V30 9621 O 895.898 1.05508 -1.42116 0
M  V30 9622 C 893.027 1.79329 -2.92739 0
M  V30 9623 C 892.113 1.31242 -4.03282 0
M  V30 9624 N 892.504 0.548344 -5.02819 0
M  V30 9625 C 890.802 1.5946 -4.1652 0
M  V30 9626 C 891.503 0.294358 -5.80955 0
M  V30 9627 N 890.479 0.869406 -5.36603 0
M  V30 9628 H 894.281 0.0224088 -2.93891 0
M  V30 9629 H 891.795 -0.0882619 -1.6216 0
M  V30 9630 H 893.792 2.44814 -3.37449 0
M  V30 9631 H 892.452 2.38865 -2.1994 0
M  V30 9632 H 893.463 0.194812 -5.17533 0
M  V30 9633 H 890.14 2.19866 -3.54916 0
M  V30 9634 H 891.53 -0.318195 -6.71146 0
M  V30 9635 N 894.251 1.57596 -0.0117121 0
M  V30 9636 C 895.183 2.06025 1.0043 0
M  V30 9637 C 896.196 0.980348 1.29973 0
M  V30 9638 O 897.385 1.25691 1.26744 0
M  V30 9639 C 894.485 2.45514 2.33615 0
M  V30 9640 C 893.658 3.76378 2.22842 0
M  V30 9641 C 892.717 4.02606 3.38814 0
M  V30 9642 O 891.743 4.73108 3.16477 0
M  V30 9643 N 892.945 3.51416 4.62047 0
M  V30 9644 H 895.71 2.93811 0.591206 0
M  V30 9645 H 893.271 1.60947 0.175427 0
M  V30 9646 H 895.263 2.60166 3.09993 0
M  V30 9647 H 893.833 1.63186 2.66625 0
M  V30 9648 H 893.053 3.71691 1.313 0
M  V30 9649 H 894.341 4.62149 2.12829 0
M  V30 9650 H 893.739 2.94346 4.83091 0
M  V30 9651 H 892.296 3.71377 5.35651 0
M  V30 9652 N 895.729 -0.261212 1.5542 0
M  V30 9653 C 896.975 -0.992699 1.76843 0
M  V30 9654 C 897.308 -1.8551 0.574428 0
M  V30 9655 O 896.583 -1.89739 -0.427713 0
M  V30 9656 C 896.866 -1.86532 3.08022 0
M  V30 9657 C 896.719 -1.03206 4.378 0
M  V30 9658 C 898.038 -2.85036 3.35324 0
M  V30 9659 H 895.157 -0.359473 0.643388 0
M  V30 9660 H 897.799 -0.264214 1.88154 0
M  V30 9661 H 895.949 -2.48644 2.9851 0
M  V30 9662 H 897.621 -0.430743 4.59285 0
M  V30 9663 H 895.864 -0.335911 4.32497 0
M  V30 9664 H 896.535 -1.6761 5.25938 0
M  V30 9665 H 899.011 -2.3306 3.44706 0
M  V30 9666 H 897.887 -3.43226 4.28354 0
M  V30 9667 H 898.148 -3.60768 2.55537 0
M  V30 9668 N 897.207 -1.48554 -0.526253 0
M  V30 9669 C 898.117 -1.66044 -1.65731 0
M  V30 9670 C 899.133 -0.542951 -1.65312 0
M  V30 9671 O 900.309 -0.814495 -1.84195 0
M  V30 9672 C 897.374 -1.69959 -3.02184 0
M  V30 9673 C 896.435 -2.93362 -3.13428 0
M  V30 9674 C 895.668 -2.97081 -4.43372 0
M  V30 9675 O 895.891 -2.09103 -5.3069 0
M  V30 9676 O 894.825 -3.8929 -4.59061 0
M  V30 9677 H 898.651 -2.61811 -1.53912 0
M  V30 9678 H 896.236 -1.31999 -0.699759 0
M  V30 9679 H 898.118 -1.75033 -3.83329 0
M  V30 9680 H 896.793 -0.773658 -3.14319 0
M  V30 9681 H 895.7 -2.93818 -2.31564 0
M  V30 9682 H 897.033 -3.85352 -3.06211 0
M  V30 9683 N 898.685 0.775411 -1.37205 0
M  V30 9684 C 899.915 1.56219 -1.352 0
M  V30 9685 C 900.323 1.89087 0.065456 0
M  V30 9686 O 899.666 1.51655 1.03665 0
M  V30 9687 C 899.728 2.9019 -2.12203 0
M  V30 9688 C 899.392 2.79978 -3.61195 0
M  V30 9689 C 900.389 2.51258 -4.55154 0
M  V30 9690 C 898.074 2.98115 -4.04268 0
M  V30 9691 C 900.068 2.40798 -5.90165 0
M  V30 9692 C 897.755 2.87276 -5.39366 0
M  V30 9693 C 898.753 2.58657 -6.32128 0
M  V30 9694 O 898.441 2.47838 -7.64743 0
M  V30 9695 H 898.173 0.490735 -0.464925 0
M  V30 9696 H 900.727 0.969201 -1.81096 0
M  V30 9697 H 898.957 3.51594 -1.60992 0
M  V30 9698 H 900.646 3.51561 -2.02879 0
M  V30 9699 H 901.412 2.36935 -4.23186 0
M  V30 9700 H 897.291 3.19392 -3.3243 0
M  V30 9701 H 900.835 2.18381 -6.62537 0
M  V30 9702 H 896.732 3.01166 -5.70937 0
M  V30 9703 H 897.5 2.63215 -7.75023 0
M  V30 9704 N 900.163 1.21714 1.00117 0
M  V30 9705 C 901.093 1.00397 2.10815 0
M  V30 9706 C 902.074 -0.0723502 1.69946 0
M  V30 9707 O 903.259 0.0882398 1.93999 0
M  V30 9708 C 900.389 0.572001 3.42557 0
M  V30 9709 C 899.343 1.59331 3.97237 0
M  V30 9710 C 898.669 1.01746 5.2493 0
M  V30 9711 C 899.969 2.98117 4.28863 0
M  V30 9712 H 901.663 1.92983 2.28906 0
M  V30 9713 H 899.209 0.929273 1.10002 0
M  V30 9714 H 901.162 0.410018 4.19401 0
M  V30 9715 H 899.886 -0.38951 3.24269 0
M  V30 9716 H 898.545 1.74293 3.22518 0
M  V30 9717 H 898.193 0.0475491 5.02978 0
M  V30 9718 H 897.893 1.69969 5.62481 0
M  V30 9719 H 899.417 0.866881 6.04415 0
M  V30 9720 H 900.831 2.86578 4.96534 0
M  V30 9721 H 899.228 3.63389 4.77565 0
M  V30 9722 H 900.298 3.48674 3.36979 0
M  V30 9723 N 901.641 -1.19671 1.02551 0
M  V30 9724 C 902.889 -1.88894 0.71858 0
M  V30 9725 C 903.21 -1.79797 -0.754856 0
M  V30 9726 O 902.48 -1.20621 -1.54362 0
M  V30 9727 H 901.06 -0.699244 0.262806 0
M  V30 9728 H 903.722 -1.45298 1.29902 0
M  V30 9729 H 902.818 -2.95309 1.00989 0
M  V30 9730 N 903.119 -0.802921 -1.35613 0
M  V30 9731 C 904.049 -0.225131 -2.32412 0
M  V30 9732 C 905.03 0.647383 -1.57299 0
M  V30 9733 O 906.215 0.578414 -1.85386 0
M  V30 9734 C 903.345 0.630085 -3.41537 0
M  V30 9735 C 902.299 -0.143635 -4.27759 0
M  V30 9736 C 901.625 0.833046 -5.28171 0
M  V30 9737 C 902.925 -1.34054 -5.04804 0
M  V30 9738 H 904.619 -1.03385 -2.80984 0
M  V30 9739 H 902.165 -0.498593 -1.35093 0
M  V30 9740 H 904.118 1.04433 -4.08254 0
M  V30 9741 H 902.842 1.47165 -2.91565 0
M  V30 9742 H 901.501 -0.539015 -3.62616 0
M  V30 9743 H 901.149 1.67001 -4.74468 0
M  V30 9744 H 900.849 0.319697 -5.8673 0
M  V30 9745 H 902.373 1.24558 -5.97761 0
M  V30 9746 H 903.787 -1.00136 -5.64487 0
M  V30 9747 H 902.184 -1.78812 -5.72841 0
M  V30 9748 H 903.254 -2.12906 -4.35659 0
M  V30 9749 N 904.597 1.47463 -0.556102 0
M  V30 9750 C 905.544 2.29998 0.192213 0
M  V30 9751 C 906.514 1.38993 0.909403 0
M  V30 9752 O 907.699 1.67954 0.905316 0
M  V30 9753 C 904.839 3.22932 1.21692 0
M  V30 9754 C 903.952 4.29027 0.505908 0
M  V30 9755 C 903.087 5.09114 1.51581 0
M  V30 9756 C 902.126 6.06984 0.789714 0
M  V30 9757 N 901.263 6.80033 1.74639 0
M  V30 9758 H 906.103 2.93468 -0.517734 0
M  V30 9759 H 903.64 1.44654 -0.267147 0
M  V30 9760 H 905.598 3.75234 1.8236 0
M  V30 9761 H 904.228 2.61329 1.89491 0
M  V30 9762 H 903.28 3.7979 -0.215276 0
M  V30 9763 H 904.592 4.9876 -0.062958 0
M  V30 9764 H 903.746 5.6556 2.19606 0
M  V30 9765 H 902.485 4.3928 2.11859 0
M  V30 9766 H 901.49 5.49717 0.0955382 0
M  V30 9767 H 902.715 6.78827 0.192688 0
M  V30 9768 H 900.661 6.12931 2.33777 0
M  V30 9769 H 900.578 7.45933 1.22965 0
M  V30 9770 H 901.846 7.41054 2.41782 0
M  V30 9771 N 906.075 0.2925 1.54862 0
M  V30 9772 C 906.985 -0.597036 2.26876 0
M  V30 9773 C 908.001 -1.15558 1.30086 0
M  V30 9774 O 909.177 -1.18217 1.63054 0
M  V30 9775 C 906.242 -1.75664 2.98903 0
M  V30 9776 C 905.303 -1.23303 4.11212 0
M  V30 9777 C 904.536 -2.33736 4.79795 0
M  V30 9778 O 904.759 -3.53459 4.47686 0
M  V30 9779 O 903.693 -2.00908 5.67379 0
M  V30 9780 H 907.519 -0.0131242 3.03697 0
M  V30 9781 H 905.104 0.0592642 1.49282 0
M  V30 9782 H 906.986 -2.43241 3.4411 0
M  V30 9783 H 905.661 -2.32731 2.24984 0
M  V30 9784 H 904.568 -0.523222 3.70423 0
M  V30 9785 H 905.901 -0.707887 4.87083 0
M  V30 9786 N 907.553 -1.57587 0.0200696 0
M  V30 9787 C 908.501 -2.10814 -0.982868 0
M  V30 9788 C 909.495 -1.03263 -1.34287 0
M  V30 9789 O 910.701 -1.21708 -1.32617 0
M  V30 9790 H 907.076 -0.673409 -0.334701 0
M  V30 9791 H 909.047 -2.94034 -0.50856 0
M  V30 9792 C 907.796 -2.64301 -2.25921 0
M  V30 9793 H 907.119 -3.46703 -1.99091 0
M  V30 9794 H 908.559 -3.052 -2.94328 0
M  V30 9795 C 907.018 -1.56628 -2.98277 0
M  V30 9796 O 907.548 -0.960825 -3.9004 0
M  V30 9797 N 905.754 -1.28889 -2.60453 0
M  V30 9798 H 905.301 -1.7831 -1.85912 0
M  V30 9799 H 905.259 -0.570697 -3.09177 0
M  V30 9800 N 909.032 0.252966 -1.55557 0
M  V30 9801 C 910.281 0.979736 -1.76307 0
M  V30 9802 C 910.594 1.86714 -0.582871 0
M  V30 9803 O 911.8 2.6302 -0.673247 0
M  V30 9804 C 910.256 1.79205 -3.12112 0
M  V30 9805 C 909.864 0.952333 -4.37761 0
M  V30 9806 C 911.608 2.51191 -3.42203 0
M  V30 9807 C 909.515 1.76018 -5.64599 0
M  V30 9808 H 908.445 0.369538 -0.657235 0
M  V30 9809 H 911.096 0.234619 -1.81994 0
M  V30 9810 H 909.478 2.57888 -3.00515 0
M  V30 9811 H 910.652 0.208251 -4.60329 0
M  V30 9812 H 908.967 0.346082 -4.14959 0
M  V30 9813 H 911.564 3.12074 -4.34182 0
M  V30 9814 H 911.907 3.22499 -2.63249 0
M  V30 9815 H 912.44 1.79523 -3.54988 0
M  V30 9816 H 909.179 1.09095 -6.46358 0
M  V30 9817 H 908.699 2.4797 -5.46142 0
M  V30 9818 H 910.378 2.32884 -6.03634 0
M  V30 9819 N 910.51 1.48831 0.518367 0
M  V30 9820 C 911.926 1.35209 0.847979 0
M  V30 9821 C 912.126 0.371927 1.98038 0
M  V30 9822 O 911.182 -0.202681 2.51685 0
M  V30 9823 C 912.495 2.7552 1.20455 0
M  V30 9824 C 914.043 2.84094 1.31377 0
M  V30 9825 C 914.518 4.25132 1.70372 0
M  V30 9826 N 916.009 4.27861 1.77453 0
M  V30 9827 C 916.744 5.3394 2.09035 0
M  V30 9828 N 916.24 6.50285 2.3896 0
M  V30 9829 N 918.033 5.21343 2.10139 0
M  V30 9830 H 910.184 2.11166 -0.228624 0
M  V30 9831 H 912.447 0.94717 -0.0396599 0
M  V30 9832 H 912.153 3.48861 0.445991 0
M  V30 9833 H 912.027 3.09785 2.15204 0
M  V30 9834 H 914.414 2.11001 2.06307 0
M  V30 9835 H 914.495 2.53433 0.347203 0
M  V30 9836 H 914.139 4.98745 0.959975 0
M  V30 9837 H 914.069 4.53245 2.68098 0
M  V30 9838 H 916.56 3.43945 1.56557 0
M  V30 9839 H 916.873 7.26961 2.62196 0
M  V30 9840 H 915.218 6.5354 2.36454 0
M  V30 9841 H 918.409 4.29462 1.86225 0
M  V30 9842 H 918.582 6.04112 2.34419 0
M  V30 9843 N 911.988 -0.768124 1.37614 0
M  V30 9844 C 913.234 -1.52907 1.33219 0
M  V30 9845 C 913.567 -1.94026 -0.0821218 0
M  V30 9846 O 912.842 -1.64345 -1.04023 0
M  V30 9847 C 913.125 -2.79164 2.27463 0
M  V30 9848 C 912.978 -2.44276 3.7769 0
M  V30 9849 C 914.297 -3.81115 2.20089 0
M  V30 9850 H 911.416 -0.554712 0.485246 0
M  V30 9851 H 914.058 -0.880911 1.68345 0
M  V30 9852 H 912.208 -3.34472 1.97639 0
M  V30 9853 H 913.88 -1.94855 4.18126 0
M  V30 9854 H 912.123 -1.76925 3.96081 0
M  V30 9855 H 912.794 -3.34544 4.39072 0
M  V30 9856 H 915.27 -3.35311 2.46386 0
M  V30 9857 H 914.146 -4.67174 2.88166 0
M  V30 9858 H 914.407 -4.25644 1.19498 0
M  V30 9859 N 913.466 -1.22244 -0.994698 0
M  V30 9860 C 914.882 -0.982006 -1.25813 0
M  V30 9861 C 915.082 0.325488 -1.98854 0
M  V30 9862 O 914.138 1.04857 -2.29698 0
M  V30 9863 C 915.451 -2.1795 -2.07167 0
M  V30 9864 C 916.999 -2.22287 -2.20358 0
M  V30 9865 C 917.474 -3.41583 -3.05098 0
M  V30 9866 N 918.965 -3.41734 -3.12686 0
M  V30 9867 C 919.7 -4.30692 -3.78539 0
M  V30 9868 N 919.196 -5.29865 -4.46335 0
M  V30 9869 N 920.989 -4.18473 -3.75283 0
M  V30 9870 H 913.14 -2.0631 -0.504963 0
M  V30 9871 H 915.403 -0.90395 -0.285618 0
M  V30 9872 H 915.109 -3.12758 -1.60858 0
M  V30 9873 H 914.983 -2.17862 -3.07922 0
M  V30 9874 H 917.37 -1.28028 -2.65881 0
M  V30 9875 H 917.451 -2.26414 -1.19039 0
M  V30 9876 H 917.095 -4.36141 -2.60275 0
M  V30 9877 H 917.025 -3.34695 -4.06555 0
M  V30 9878 H 919.516 -2.69969 -2.64433 0
M  V30 9879 H 919.829 -5.94027 -4.9432 0
M  V30 9880 H 918.174 -5.3378 -4.45089 0
M  V30 9881 H 921.365 -3.40249 -3.21478 0
M  V30 9882 H 921.538 -4.88007 -4.26326 0
M  V30 9883 N 914.944 1.19125 -1.03184 0
M  V30 9884 C 916.36 1.40909 -0.749447 0
M  V30 9885 C 916.56 1.9022 0.664729 0
M  V30 9886 O 915.616 2.08085 1.43028 0
M  V30 9887 C 916.929 2.41761 -1.78807 0
M  V30 9888 C 918.477 2.55503 -1.80796 0
M  V30 9889 C 918.952 3.59612 -2.83626 0
M  V30 9890 N 920.443 3.6711 -2.82461 0
M  V30 9891 C 921.178 4.47366 -3.5868 0
M  V30 9892 N 920.674 5.31302 -4.44623 0
M  V30 9893 N 922.467 4.42044 -3.47208 0
M  V30 9894 H 914.618 0.854399 -1.94458 0
M  V30 9895 H 916.881 0.437753 -0.840878 0
M  V30 9896 H 916.587 2.12559 -2.80199 0
M  V30 9897 H 916.461 3.40981 -1.61283 0
M  V30 9898 H 918.848 2.84027 -0.800803 0
M  V30 9899 H 918.929 1.56427 -2.02396 0
M  V30 9900 H 918.573 3.3183 -3.84515 0
M  V30 9901 H 918.503 4.58345 -2.59283 0
M  V30 9902 H 920.994 3.07166 -2.2013 0
M  V30 9903 H 921.307 5.89667 -4.99512 0
M  V30 9904 H 919.652 5.30753 -4.48694 0
M  V30 9905 H 922.843 3.75513 -2.79477 0
M  V30 9906 H 923.016 5.0435 -4.06859 0
M  V30 9907 N 916.422 0.810101 1.35185 0
M  V30 9908 C 917.385 0.22852 2.28058 0
M  V30 9909 C 918.385 -0.586168 1.49735 0
M  V30 9910 O 919.575 -0.40414 1.69447 0
M  V30 9911 C 916.707 -0.681041 3.34028 0
M  V30 9912 H 917.9 1.04768 2.81005 0
M  V30 9913 H 915.453 0.58101 1.451 0
M  V30 9914 H 916.188 -1.52375 2.86273 0
M  V30 9915 H 915.973 -0.0985276 3.91976 0
M  V30 9916 H 917.463 -1.08217 4.03335 0
M  V30 9917 N 917.9 -1.47166 0.563914 0
M  V30 9918 C 919.148 -2.02056 0.0422873 0
M  V30 9919 C 919.469 -1.43992 -1.31497 0
M  V30 9920 O 918.739 -0.617578 -1.85911 0
M  V30 9921 H 917.319 -0.746893 0.0126427 0
M  V30 9922 H 919.981 -1.80492 0.735441 0
M  V30 9923 H 919.077 -3.12073 -0.0408044 0
M  V30 9924 N 919.378 -0.300708 -1.54705 0
M  V30 9925 C 920.608 0.310819 -2.04249 0
M  V30 9926 C 921.016 1.4809 -1.17754 0
M  V30 9927 O 920.359 1.82654 -0.195779 0
M  V30 9928 C 920.421 0.83014 -3.49784 0
M  V30 9929 C 920.085 -0.214628 -4.56496 0
M  V30 9930 C 921.082 -1.04298 -5.09331 0
M  V30 9931 C 918.767 -0.356242 -5.01035 0
M  V30 9932 C 920.761 -1.99889 -6.05246 0
M  V30 9933 C 918.448 -1.3156 -5.96771 0
M  V30 9934 C 919.446 -2.1354 -6.4876 0
M  V30 9935 O 919.134 -3.07849 -7.4262 0
M  V30 9936 H 918.866 0.0715341 -0.672204 0
M  V30 9937 H 921.42 -0.438179 -2.00672 0
M  V30 9938 H 919.65 1.62966 -3.50684 0
M  V30 9939 H 921.339 1.35752 -3.82526 0
M  V30 9940 H 922.105 -0.944439 -4.75716 0
M  V30 9941 H 917.984 0.271916 -4.60197 0
M  V30 9942 H 921.528 -2.63917 -6.45751 0
M  V30 9943 H 917.425 -1.41486 -6.29803 0
M  V30 9944 H 918.193 -3.02824 -7.60421 0
M  V30 9945 N 920.856 1.57574 -0.0284266 0
M  V30 9946 C 921.819 2.09096 0.938691 0
M  V30 9947 C 922.819 1.00588 1.25454 0
M  V30 9948 O 924.009 1.2675 1.19499 0
M  V30 9949 C 921.141 2.55624 2.25542 0
M  V30 9950 H 922.334 2.95829 0.49248 0
M  V30 9951 H 919.887 1.5475 0.219594 0
M  V30 9952 H 920.622 1.72218 2.74793 0
M  V30 9953 H 920.407 3.34896 2.03929 0
M  V30 9954 H 921.897 2.95712 2.94863 0
M  V30 9955 N 922.334 -0.244713 1.55689 0
M  V30 9956 C 923.564 -0.988508 1.81417 0
M  V30 9957 C 923.972 -1.79362 0.602143 0
M  V30 9958 O 923.315 -1.78386 -0.438639 0
M  V30 9959 C 923.377 -1.97287 3.0053 0
M  V30 9960 C 923.041 -1.35448 4.36466 0
M  V30 9961 C 924.038 -0.755874 5.14376 0
M  V30 9962 C 921.723 -1.37319 4.83165 0
M  V30 9963 C 923.717 -0.184218 6.37134 0
M  V30 9964 C 921.404 -0.797681 6.05871 0
M  V30 9965 C 922.402 -0.204224 6.82695 0
M  V30 9966 O 922.09 0.362392 8.03083 0
M  V30 9967 H 921.822 -0.296412 0.607549 0
M  V30 9968 H 924.376 -0.272185 2.03589 0
M  V30 9969 H 922.606 -2.72756 2.74119 0
M  V30 9970 H 924.295 -2.58028 3.13331 0
M  V30 9971 H 925.061 -0.733912 4.79415 0
M  V30 9972 H 920.94 -1.8245 4.23359 0
M  V30 9973 H 924.484 0.279624 6.97039 0
M  V30 9974 H 920.381 -0.816978 6.40309 0
M  V30 9975 H 921.149 0.254467 8.18104 0
M  V30 9976 N 923.813 -1.49104 -0.510467 0
M  V30 9977 C 925.229 -1.35657 -0.840797 0
M  V30 9978 C 925.429 -0.382425 -1.97838 0
M  V30 9979 O 924.485 0.189331 -2.51789 0
M  V30 9980 C 925.798 -2.76155 -1.18992 0
M  V30 9981 C 927.346 -2.84786 -1.29868 0
M  V30 9982 C 927.821 -4.2603 -1.68115 0
M  V30 9983 N 929.312 -4.28796 -1.75181 0
M  V30 9984 C 930.047 -5.35041 -2.062 0
M  V30 9985 N 929.543 -6.51543 -2.35508 0
M  V30 9986 N 931.336 -5.2245 -2.07371 0
M  V30 9987 H 923.487 -2.11042 0.23982 0
M  V30 9988 H 925.75 -0.946946 0.0446824 0
M  V30 9989 H 925.456 -3.49092 -0.427484 0
M  V30 9990 H 925.33 -3.10922 -2.13558 0
M  V30 9991 H 927.717 -2.12092 -2.05186 0
M  V30 9992 H 927.798 -2.53613 -0.333758 0
M  V30 9993 H 927.442 -4.99247 -0.933512 0
M  V30 9994 H 927.372 -4.5466 -2.65691 0
M  V30 9995 H 929.863 -3.44771 -1.5473 0
M  V30 9996 H 930.176 -7.28342 -2.58337 0
M  V30 9997 H 928.521 -6.54785 -2.32985 0
M  V30 9998 H 931.712 -4.30444 -1.83945 0
M  V30 9999 H 931.885 -6.05347 -2.31212 0
M  V30 10000 N 925.291 0.760815 -1.38019 0
M  V30 10001 C 926.707 1.06289 -1.19058 0
M  V30 10002 C 926.907 2.01471 -0.0342603 0
M  V30 10003 O 925.963 2.44713 0.62224 0
M  V30 10004 C 927.276 1.6499 -2.51394 0
M  V30 10005 C 928.824 1.77196 -2.58013 0
M  V30 10006 C 929.299 2.3931 -3.90506 0
M  V30 10007 N 930.79 2.46749 -3.92007 0
M  V30 10008 C 931.525 2.95687 -4.91281 0
M  V30 10009 N 931.021 3.44715 -6.00952 0
M  V30 10010 N 932.814 2.94661 -4.78677 0
M  V30 10011 H 924.965 0.129045 -2.12008 0
M  V30 10012 H 927.228 0.119878 -0.94039 0
M  V30 10013 H 926.934 1.0252 -3.36426 0
M  V30 10014 H 926.808 2.64146 -2.6927 0
M  V30 10015 H 929.195 2.38796 -1.7338 0
M  V30 10016 H 929.276 0.767645 -2.4401 0
M  V30 10017 H 928.92 1.78346 -4.75558 0
M  V30 10018 H 928.85 3.40369 -4.01817 0
M  V30 10019 H 931.341 2.12064 -3.12789 0
M  V30 10020 H 931.654 3.80492 -6.72641 0
M  V30 10021 H 929.999 3.42791 -6.04582 0
M  V30 10022 H 933.19 2.55665 -3.92113 0
M  V30 10023 H 933.363 3.32489 -5.56197 0
M  V30 10024 N 926.769 1.22769 0.988202 0
M  V30 10025 C 928.018 1.0492 1.72263 0
M  V30 10026 C 928.331 -0.415282 1.91141 0
M  V30 10027 O 929.537 -0.713547 2.61956 0
M  V30 10028 C 927.993 1.82891 3.09966 0
M  V30 10029 C 927.601 3.33618 2.99003 0
M  V30 10030 C 929.345 1.73505 3.87423 0
M  V30 10031 C 927.252 4.04012 4.3189 0
M  V30 10032 H 926.182 0.38899 0.645912 0
M  V30 10033 H 928.833 1.46664 1.10281 0
M  V30 10034 H 927.215 1.33948 3.72658 0
M  V30 10035 H 928.389 3.8999 2.45448 0
M  V30 10036 H 926.704 3.43732 2.35027 0
M  V30 10037 H 929.301 2.23416 4.85787 0
M  V30 10038 H 929.644 0.696344 4.10435 0
M  V30 10039 H 930.177 2.20016 3.31418 0
M  V30 10040 H 926.916 5.08155 4.14075 0
M  V30 10041 H 926.436 3.52428 4.8534 0
M  V30 10042 H 928.115 4.0987 5.00615 0
M  V30 10043 N 928.247 -1.18576 1.03814 0
M  V30 10044 C 929.494 -1.88493 0.740036 0
M  V30 10045 C 929.822 -1.80198 -0.732056 0
M  V30 10046 O 929.077 -1.19509 -1.54971 0
M  V30 10047 C 929.376 -3.38448 1.14837 0
M  V30 10048 C 929.042 -3.66947 2.62031 0
M  V30 10049 C 927.704 -3.74435 3.02244 0
M  V30 10050 C 930.056 -3.79534 3.57217 0
M  V30 10051 C 927.384 -3.91986 4.36536 0
M  V30 10052 C 929.736 -3.986 4.91223 0
M  V30 10053 C 928.4 -4.04323 5.31111 0
M  V30 10054 H 927.67 -0.689746 0.270798 0
M  V30 10055 H 930.317 -1.40364 1.3027 0
M  V30 10056 H 928.622 -3.88539 0.504472 0
M  V30 10057 H 930.319 -3.90882 0.89511 0
M  V30 10058 H 926.909 -3.61734 2.29883 0
M  V30 10059 H 931.093 -3.73083 3.27296 0
M  V30 10060 H 926.349 -3.9466 4.66962 0
M  V30 10061 H 930.523 -4.07281 5.64885 0
M  V30 10062 H 928.15 -4.17676 6.35178 0
M  V30 10063 N 929.725 -0.817259 -1.34754 0
M  V30 10064 C 930.657 -0.192695 -2.28389 0
M  V30 10065 C 931.67 0.614167 -1.50771 0
M  V30 10066 O 932.859 0.444776 -1.7287 0
M  V30 10067 C 929.959 0.748929 -3.30521 0
M  V30 10068 C 929.132 -0.0138762 -4.37398 0
M  V30 10069 C 928.191 0.847825 -5.19325 0
M  V30 10070 O 927.217 0.29487 -5.68436 0
M  V30 10071 N 928.419 2.16843 -5.38479 0
M  V30 10072 H 931.184 -0.997122 -2.82626 0
M  V30 10073 H 928.745 -0.673696 -1.47217 0
M  V30 10074 H 930.737 1.32987 -3.82226 0
M  V30 10075 H 929.307 1.45412 -2.7672 0
M  V30 10076 H 928.527 -0.776093 -3.86485 0
M  V30 10077 H 929.815 -0.539191 -5.05935 0
M  V30 10078 H 929.213 2.64148 -5.00242 0
M  V30 10079 H 927.77 2.69835 -5.93323 0
M  V30 10080 N 931.203 1.46865 -0.571711 0
M  V30 10081 C 932.15 2.30189 0.167808 0
M  V30 10082 C 933.12 1.3995 0.89461 0
M  V30 10083 O 934.305 1.68905 0.887451 0
M  V30 10084 C 931.445 3.24205 1.1826 0
M  V30 10085 C 930.558 4.2954 0.460376 0
M  V30 10086 C 929.693 5.10693 1.46173 0
M  V30 10087 C 928.732 6.07788 0.725291 0
M  V30 10088 N 927.869 6.81847 1.67417 0
M  V30 10089 H 932.709 2.92902 -0.548831 0
M  V30 10090 H 930.246 1.44362 -0.282474 0
M  V30 10091 H 932.204 3.77147 1.7837 0
M  V30 10092 H 930.834 2.63324 1.86709 0
M  V30 10093 H 929.886 3.79541 -0.255546 0
M  V30 10094 H 931.198 4.98665 -0.115855 0
M  V30 10095 H 930.352 5.67857 2.13595 0
M  V30 10096 H 929.091 4.41502 2.07188 0
M  V30 10097 H 928.096 5.49787 0.037228 0
M  V30 10098 H 929.321 6.78993 0.120678 0
M  V30 10099 H 927.267 6.15376 2.27263 0
M  V30 10100 H 927.184 7.47195 1.15046 0
M  V30 10101 H 928.452 7.43577 2.33908 0
M  V30 10102 N 932.681 0.308908 1.54543 0
M  V30 10103 C 933.928 -0.298036 2.00295 0
M  V30 10104 C 934.256 -1.53285 1.19724 0
M  V30 10105 O 933.511 -1.93917 0.263551 0
M  V30 10106 C 933.81 -0.691522 3.50646 0
M  V30 10107 C 933.476 0.442454 4.48724 0
M  V30 10108 C 932.138 0.753739 4.7526 0
M  V30 10109 C 934.49 1.20488 5.07082 0
M  V30 10110 C 931.818 1.83044 5.57415 0
M  V30 10111 C 934.17 2.27156 5.90409 0
M  V30 10112 C 932.834 2.58882 6.15253 0
M  V30 10113 H 932.104 -0.109059 0.73293 0
M  V30 10114 H 934.751 0.429647 1.86618 0
M  V30 10115 H 933.056 -1.49941 3.61974 0
M  V30 10116 H 934.753 -1.17244 3.83477 0
M  V30 10117 H 931.343 0.189744 4.2818 0
M  V30 10118 H 935.527 0.977653 4.86575 0
M  V30 10119 H 930.783 2.08088 5.749 0
M  V30 10120 H 934.957 2.86687 6.34652 0
M  V30 10121 H 932.584 3.42443 6.78702 0
M  V30 10122 N 934.159 -1.57557 0.0367827 0
M  V30 10123 C 935.089 -2.13712 -0.940719 0
M  V30 10124 C 936.07 -1.05515 -1.33419 0
M  V30 10125 O 937.255 -1.33385 -1.41146 0
M  V30 10126 C 934.385 -2.67043 -2.22048 0
M  V30 10127 C 933.339 -3.80096 -1.96752 0
M  V30 10128 C 932.665 -4.19886 -3.31059 0
M  V30 10129 C 933.965 -5.05848 -1.30058 0
M  V30 10130 H 935.659 -2.9564 -0.473033 0
M  V30 10131 H 933.205 -1.42214 -0.226089 0
M  V30 10132 H 935.158 -3.04964 -2.90818 0
M  V30 10133 H 933.882 -1.82287 -2.70996 0
M  V30 10134 H 932.541 -3.42625 -1.30398 0
M  V30 10135 H 932.189 -3.32101 -3.77781 0
M  V30 10136 H 931.889 -4.96073 -3.14937 0
M  V30 10137 H 933.413 -4.60395 -4.01084 0
M  V30 10138 H 934.827 -5.41306 -1.8884 0
M  V30 10139 H 933.224 -5.87084 -1.24309 0
M  V30 10140 H 934.294 -4.84122 -0.274591 0
M  V30 10141 N 935.637 0.236453 -1.55816 0
M  V30 10142 C 936.569 1.31602 -1.87653 0
M  V30 10143 C 937.582 1.43782 -0.763584 0
M  V30 10144 O 938.771 1.44945 -1.04178 0
M  V30 10145 C 935.871 2.69342 -2.05689 0
M  V30 10146 C 935.044 2.79298 -3.36617 0
M  V30 10147 C 934.103 3.97952 -3.44268 0
M  V30 10148 O 933.129 3.86989 -4.17406 0
M  V30 10149 N 934.331 5.11594 -2.74321 0
M  V30 10150 H 937.096 1.04623 -2.80845 0
M  V30 10151 H 934.657 0.426534 -1.5618 0
M  V30 10152 H 936.649 3.47074 -2.08138 0
M  V30 10153 H 935.219 2.88984 -1.19192 0
M  V30 10154 H 934.439 1.8816 -3.46395 0
M  V30 10155 H 935.727 2.82908 -4.22895 0
M  V30 10156 H 935.125 5.23394 -2.14651 0
M  V30 10157 H 933.682 5.87422 -2.8245 0
M  V30 10158 N 937.115 1.49373 0.502552 0
M  V30 10159 C 938.531 1.36101 0.833591 0
M  V30 10160 C 938.731 0.392911 1.97632 0
M  V30 10161 O 937.787 -0.175975 2.51886 0
M  V30 10162 C 939.1 2.76782 1.17526 0
M  V30 10163 C 940.648 2.85471 1.28356 0
M  V30 10164 C 941.123 4.26915 1.65853 0
M  V30 10165 N 942.614 4.29719 1.72905 0
M  V30 10166 C 943.349 5.36127 2.0336 0
M  V30 10167 N 942.845 6.52782 2.32049 0
M  V30 10168 N 944.638 5.23542 2.04598 0
M  V30 10169 H 936.789 2.10912 -0.251008 0
M  V30 10170 H 939.052 0.946696 -0.0497037 0
M  V30 10171 H 938.758 3.49314 0.408965 0
M  V30 10172 H 938.632 3.1205 2.11907 0
M  V30 10173 H 941.019 2.13177 2.04058 0
M  V30 10174 H 941.1 2.53787 0.320304 0
M  V30 10175 H 940.744 4.99735 0.907022 0
M  V30 10176 H 940.674 4.56063 2.63276 0
M  V30 10177 H 943.165 3.45586 1.529 0
M  V30 10178 H 943.478 7.29701 2.54471 0
M  V30 10179 H 941.823 6.56011 2.29509 0
M  V30 10180 H 945.014 4.31413 1.8166 0
M  V30 10181 H 945.187 6.06565 2.27998 0
M  V30 10182 N 938.594 -0.753485 1.38421 0
M  V30 10183 C 939.824 -1.54049 1.37669 0
M  V30 10184 C 940.232 -1.89167 -0.0353656 0
M  V30 10185 O 939.575 -1.53285 -1.01239 0
M  V30 10186 C 939.637 -2.86777 2.16793 0
M  V30 10187 C 939.301 -2.74196 3.65603 0
M  V30 10188 C 940.298 -2.43985 4.59094 0
M  V30 10189 C 937.983 -2.91645 4.0896 0
M  V30 10190 C 939.977 -2.31379 5.93921 0
M  V30 10191 C 937.664 -2.78658 5.43868 0
M  V30 10192 C 938.662 -2.48568 6.36163 0
M  V30 10193 O 938.35 -2.3564 7.68589 0
M  V30 10194 H 938.082 -0.483276 0.472673 0
M  V30 10195 H 940.636 -0.940267 1.82615 0
M  V30 10196 H 938.866 -3.48988 1.66565 0
M  V30 10197 H 940.555 -3.48289 2.08446 0
M  V30 10198 H 941.321 -2.30172 4.26902 0
M  V30 10199 H 937.2 -3.14063 3.37469 0
M  V30 10200 H 940.744 -2.07813 6.65927 0
M  V30 10201 H 936.641 -2.92044 5.75656 0
M  V30 10202 H 937.409 -2.50851 7.79112 0
M  V30 10203 N 940.072 -1.23292 -0.981677 0
M  V30 10204 C 941.035 -1.01417 -2.05542 0
M  V30 10205 C 942.035 0.0235354 -1.60783 0
M  V30 10206 O 943.225 -0.216082 -1.72855 0
M  V30 10207 C 940.357 -0.534239 -3.36688 0
M  V30 10208 H 941.55 -1.96702 -2.26381 0
M  V30 10209 H 939.103 -1.05318 -1.1549 0
M  V30 10210 H 939.838 0.422452 -3.21537 0
M  V30 10211 H 939.623 -1.28304 -3.70514 0
M  V30 10212 H 941.113 -0.40179 -4.15663 0
M  V30 10213 N 941.55 1.18024 -1.04442 0
M  V30 10214 C 942.799 1.8743 -0.745185 0
M  V30 10215 C 943.112 1.81459 0.730206 0
M  V30 10216 O 944.318 2.46263 1.1431 0
M  V30 10217 C 942.774 3.36266 -1.28271 0
M  V30 10218 C 942.382 3.50757 -2.787 0
M  V30 10219 C 944.126 4.11048 -1.06018 0
M  V30 10220 C 942.033 4.93573 -3.25791 0
M  V30 10221 H 940.963 0.702038 -0.27506 0
M  V30 10222 H 943.614 1.33333 -1.26073 0
M  V30 10223 H 941.996 3.89853 -0.695002 0
M  V30 10224 H 943.17 3.07423 -3.43261 0
M  V30 10225 H 941.485 2.89385 -2.99408 0
M  V30 10226 H 944.082 5.16395 -1.38711 0
M  V30 10227 H 944.425 4.163 0.00241716 0
M  V30 10228 H 944.958 3.63644 -1.61269 0
M  V30 10229 H 941.697 4.93491 -4.31447 0
M  V30 10230 H 941.217 5.37607 -2.65968 0
M  V30 10231 H 942.896 5.62307 -3.20031 0
M  V30 10232 N 943.028 0.824394 1.34319 0
M  V30 10233 C 943.958 0.262077 2.32025 0
M  V30 10234 C 944.939 -0.622277 1.58309 0
M  V30 10235 O 946.124 -0.548848 1.86283 0
M  V30 10236 C 943.254 -0.57567 3.42496 0
M  V30 10237 C 942.208 0.21167 4.27476 0
M  V30 10238 C 941.534 -0.748913 5.29429 0
M  V30 10239 C 942.834 1.42068 5.02607 0
M  V30 10240 H 944.528 1.07842 2.79304 0
M  V30 10241 H 942.074 0.520022 1.34282 0
M  V30 10242 H 944.027 -0.979251 4.09864 0
M  V30 10243 H 942.751 -1.42508 2.93869 0
M  V30 10244 H 941.41 0.596636 3.61712 0
M  V30 10245 H 941.058 -1.59432 4.77064 0
M  V30 10246 H 940.758 -0.226313 5.87164 0
M  V30 10247 H 942.282 -1.15032 5.99667 0
M  V30 10248 H 943.696 1.09103 5.62823 0
M  V30 10249 H 942.093 1.87903 5.69923 0
M  V30 10250 H 943.163 2.1981 4.32217 0
M  V30 10251 N 944.506 -1.46559 0.579492 0
M  V30 10252 C 945.734 -2.06784 0.0693648 0
M  V30 10253 C 946.149 -1.42875 -1.23419 0
M  V30 10254 O 945.506 -0.532919 -1.74546 0
M  V30 10255 C 945.557 -3.61343 -0.106511 0
M  V30 10256 O 945.278 -4.22861 1.14545 0
M  V30 10257 C 946.779 -4.38489 -0.651359 0
M  V30 10258 H 943.999 -0.66866 0.0559848 0
M  V30 10259 H 946.543 -1.88235 0.799245 0
M  V30 10260 H 944.698 -3.7933 -0.786601 0
M  V30 10261 H 945.112 -5.15691 0.95723 0
M  V30 10262 H 946.586 -5.47237 -0.723615 0
M  V30 10263 H 947.063 -4.06309 -1.66763 0
M  V30 10264 H 947.669 -4.253 -0.0062433 0
M  V30 10265 N 945.984 -0.3171 -1.54377 0
M  V30 10266 C 946.931 0.551782 -2.24107 0
M  V30 10267 C 947.901 1.11681 -1.22949 0
M  V30 10268 O 949.086 1.15836 -1.51614 0
M  V30 10269 C 946.226 1.70997 -2.99756 0
M  V30 10270 C 945.339 1.17479 -4.15719 0
M  V30 10271 C 944.474 2.29815 -4.78914 0
M  V30 10272 C 943.513 1.73513 -5.86992 0
M  V30 10273 N 942.65 2.79485 -6.44075 0
M  V30 10274 H 947.49 -0.049431 -2.97959 0
M  V30 10275 H 945.027 -0.0361658 -1.47056 0
M  V30 10276 H 946.985 2.39141 -3.41859 0
M  V30 10277 H 945.615 2.28257 -2.28251 0
M  V30 10278 H 944.667 0.385109 -3.78446 0
M  V30 10279 H 945.979 0.72276 -4.93536 0
M  V30 10280 H 945.133 3.05875 -5.23952 0
M  V30 10281 H 943.872 2.78352 -4.00464 0
M  V30 10282 H 942.877 0.959475 -5.41363 0
M  V30 10283 H 944.102 1.2586 -6.67335 0
M  V30 10284 H 942.048 3.27325 -5.68502 0
M  V30 10285 H 941.965 2.38825 -7.17286 0
M  V30 10286 H 943.233 3.55394 -6.93769 0
M  V30 10287 N 947.462 1.57535 -0.0451378 0
M  V30 10288 C 948.425 2.1008 0.916461 0
M  V30 10289 C 949.425 1.01913 1.2438 0
M  V30 10290 O 950.615 1.2801 1.18148 0
M  V30 10291 C 947.747 2.58001 2.22818 0
M  V30 10292 H 948.94 2.96334 0.461076 0
M  V30 10293 H 946.493 1.54974 0.203169 0
M  V30 10294 H 947.228 1.75123 2.72951 0
M  V30 10295 H 947.013 3.3704 2.00366 0
M  V30 10296 H 948.503 2.98822 2.9171 0
M  V30 10297 N 948.94 -0.228186 1.55939 0
M  V30 10298 C 950.168 -0.970618 1.8272 0
M  V30 10299 C 950.583 -1.78212 0.623385 0
M  V30 10300 O 949.94 -1.77879 -0.408063 0
M  V30 10301 C 949.991 -1.89352 3.07942 0
M  V30 10302 O 949.712 -1.11483 4.23678 0
M  V30 10303 C 951.213 -2.75039 3.47661 0
M  V30 10304 H 948.433 -0.284772 0.607574 0
M  V30 10305 H 950.977 -0.245419 2.03022 0
M  V30 10306 H 949.132 -2.57275 2.89635 0
M  V30 10307 H 949.546 -1.74073 4.94772 0
M  V30 10308 H 951.02 -3.35511 4.38334 0
M  V30 10309 H 951.497 -3.471 2.69106 0
M  V30 10310 H 952.103 -2.1254 3.68384 0
M  V30 10311 N 950.418 -1.49637 -0.494624 0
M  V30 10312 C 951.664 -1.60654 -1.24747 0
M  V30 10313 C 952.019 -0.292376 -1.90166 0
M  V30 10314 O 951.312 0.707918 -1.78042 0
M  V30 10315 C 951.506 -2.70749 -2.33302 0
M  V30 10316 C 951.335 -4.12744 -1.7853 0
M  V30 10317 C 950.105 -4.79451 -1.59546 0
M  V30 10318 C 952.303 -4.97767 -1.29353 0
M  V30 10319 N 950.285 -6.05738 -0.997702 0
M  V30 10320 C 951.656 -6.14587 -0.817517 0
M  V30 10321 C 953.711 -4.83719 -1.17986 0
M  V30 10322 C 952.414 -7.18903 -0.23907 0
M  V30 10323 C 954.44 -5.8819 -0.615375 0
M  V30 10324 C 953.802 -7.04241 -0.149622 0
M  V30 10325 H 949.901 -0.642198 -0.446213 0
M  V30 10326 H 952.485 -1.86668 -0.553469 0
M  V30 10327 H 950.656 -2.46497 -3.00156 0
M  V30 10328 H 952.388 -2.71253 -3.0034 0
M  V30 10329 H 949.143 -4.36354 -1.84098 0
M  V30 10330 H 949.567 -6.73183 -0.717911 0
M  V30 10331 H 954.209 -3.94304 -1.52592 0
M  V30 10332 H 951.927 -8.08012 0.11925 0
M  V30 10333 H 955.513 -5.7938 -0.530114 0
M  V30 10334 H 954.393 -7.83699 0.280349 0
M  V30 10335 N 951.896 0.746133 -1.38819 0
M  V30 10336 C 953.307 1.32384 -1.31648 0
M  V30 10337 C 953.658 1.96185 0.0243086 0
M  V30 10338 O 952.783 1.95567 0.92641 0
M  V30 10339 C 953.378 2.40712 -2.38418 0
M  V30 10340 C 951.937 2.94185 -2.34803 0
M  V30 10341 C 951.084 1.67639 -2.20891 0
M  V30 10342 H 954.035 0.544457 -1.49068 0
M  V30 10343 H 954.056 3.20833 -2.04564 0
M  V30 10344 H 953.568 1.94247 -3.3599 0
M  V30 10345 H 951.669 3.44959 -1.40834 0
M  V30 10346 H 951.782 3.48057 -3.29231 0
M  V30 10347 H 950.146 1.9155 -1.67871 0
M  V30 10348 H 950.929 1.23242 -3.20416 0
M  V30 10349 N 953.375 1.23811 0.975125 0
M  V30 10350 C 954.6 1.10109 1.75757 0
M  V30 10351 C 955.025 -0.342922 1.84948 0
M  V30 10352 O 954.383 -1.24814 1.31496 0
M  V30 10353 C 954.431 1.73724 3.15994 0
M  V30 10354 O 953.535 1.00297 4.00018 0
M  V30 10355 H 952.876 0.385627 0.540544 0
M  V30 10356 H 955.406 1.63971 1.22372 0
M  V30 10357 H 955.416 1.79178 3.6655 0
M  V30 10358 H 954.091 2.78794 3.0862 0
M  V30 10359 H 952.668 1.02575 3.58515 0
M  V30 10360 N 954.853 -1.17469 1.05066 0
M  V30 10361 C 956.099 -1.88225 0.7709 0
M  V30 10362 C 956.454 -1.7943 -0.694452 0
M  V30 10363 O 955.747 -1.19059 -1.50118 0
M  V30 10364 C 955.941 -3.37211 1.18421 0
M  V30 10365 C 955.77 -3.60508 2.68819 0
M  V30 10366 C 954.54 -3.77303 3.36111 0
M  V30 10367 C 956.738 -3.60258 3.6704 0
M  V30 10368 N 954.72 -3.88433 4.75387 0
M  V30 10369 C 956.091 -3.77223 4.92039 0
M  V30 10370 C 958.146 -3.43401 3.60527 0
M  V30 10371 C 956.849 -3.79075 6.11305 0
M  V30 10372 C 958.875 -3.46541 4.79232 0
M  V30 10373 C 958.237 -3.64013 6.03054 0
M  V30 10374 H 954.336 -0.706941 0.334303 0
M  V30 10375 H 956.92 -1.41029 1.34235 0
M  V30 10376 H 955.091 -3.83079 0.640724 0
M  V30 10377 H 956.823 -3.95578 0.854411 0
M  V30 10378 H 953.578 -3.77105 2.86512 0
M  V30 10379 H 954.002 -3.97797 5.47802 0
M  V30 10380 H 958.644 -3.28831 2.65762 0
M  V30 10381 H 956.362 -3.92431 7.06416 0
M  V30 10382 H 959.948 -3.34758 4.75845 0
M  V30 10383 H 958.828 -3.66345 6.93369 0
M  V30 10384 N 956.331 -0.831506 -1.3388 0
M  V30 10385 C 957.263 -0.216908 -2.28171 0
M  V30 10386 C 958.276 0.598141 -1.51414 0
M  V30 10387 O 959.465 0.426416 -1.73332 0
M  V30 10388 C 956.565 0.713831 -3.31297 0
M  V30 10389 C 955.738 -0.0602673 -4.37358 0
M  V30 10390 C 954.797 0.792696 -5.20195 0
M  V30 10391 O 953.823 0.234564 -5.68716 0
M  V30 10392 N 955.025 2.11119 -5.40748 0
M  V30 10393 H 957.79 -1.02704 -2.81553 0
M  V30 10394 H 955.351 -0.689272 -1.46495 0
M  V30 10395 H 957.343 1.28925 -3.83615 0
M  V30 10396 H 955.913 1.42469 -2.78247 0
M  V30 10397 H 955.133 -0.817041 -3.8564 0
M  V30 10398 H 956.421 -0.592822 -5.05335 0
M  V30 10399 H 955.819 2.58828 -5.03016 0
M  V30 10400 H 954.376 2.63527 -5.96151 0
M  V30 10401 N 957.809 1.4625 -0.587256 0
M  V30 10402 C 959.057 2.01963 -0.0744273 0
M  V30 10403 C 959.378 1.46065 1.29189 0
M  V30 10404 O 958.648 0.647077 1.84905 0
M  V30 10405 H 957.228 0.746597 -0.0245236 0
M  V30 10406 H 959.89 1.79299 -0.764063 0
M  V30 10407 H 958.986 3.12099 -0.00884894 0
M  V30 10408 N 959.287 0.325282 1.54207 0
M  V30 10409 C 960.197 -0.548778 2.28091 0
M  V30 10410 C 961.213 -1.12772 1.32508 0
M  V30 10411 O 962.389 -1.14732 1.65525 0
M  V30 10412 C 959.454 -1.69284 3.02562 0
M  V30 10413 C 958.515 -1.14553 4.13734 0
M  V30 10414 C 957.748 -2.23506 4.84645 0
M  V30 10415 O 957.971 -3.43884 4.55082 0
M  V30 10416 O 956.905 -1.88828 5.71513 0
M  V30 10417 H 960.731 0.0512974 3.03657 0
M  V30 10418 H 958.316 0.0909159 1.49123 0
M  V30 10419 H 960.198 -2.35887 3.49192 0
M  V30 10420 H 958.873 -2.27906 2.2987 0
M  V30 10421 H 957.78 -0.444532 3.71449 0
M  V30 10422 H 959.113 -0.60441 4.88475 0
M  V30 10423 N 960.765 -1.57509 0.0534917 0
M  V30 10424 C 961.675 -2.15152 -0.935249 0
M  V30 10425 C 962.691 -1.10991 -1.34003 0
M  V30 10426 O 963.867 -1.43171 -1.41648 0
M  V30 10427 C 960.932 -2.68699 -2.19093 0
M  V30 10428 C 959.993 -3.87666 -1.84428 0
M  V30 10429 C 959.226 -4.3865 -3.0401 0
M  V30 10430 O 959.449 -3.887 -4.17455 0
M  V30 10431 O 958.383 -5.30209 -2.84889 0
M  V30 10432 H 962.209 -2.99962 -0.475009 0
M  V30 10433 H 959.794 -1.48446 -0.16854 0
M  V30 10434 H 961.676 -3.03098 -2.92762 0
M  V30 10435 H 960.351 -1.86958 -2.6425 0
M  V30 10436 H 959.258 -3.58151 -1.08068 0
M  V30 10437 H 960.591 -4.70643 -1.44068 0
M  V30 10438 N 962.243 0.219913 -1.56058 0
M  V30 10439 C 963.19 1.27254 -1.92549 0
M  V30 10440 C 964.16 1.46493 -0.782883 0
M  V30 10441 O 965.345 1.60035 -1.03892 0
M  V30 10442 C 962.485 2.61756 -2.24896 0
M  V30 10443 C 961.598 2.50302 -3.52098 0
M  V30 10444 C 960.733 3.77338 -3.73884 0
M  V30 10445 C 959.772 3.60613 -4.94595 0
M  V30 10446 N 958.909 4.79603 -5.12763 0
M  V30 10447 H 963.749 0.954352 -2.82305 0
M  V30 10448 H 961.286 0.459928 -1.39725 0
M  V30 10449 H 963.244 3.40082 -2.4166 0
M  V30 10450 H 961.874 2.91668 -1.38311 0
M  V30 10451 H 960.926 1.63401 -3.43517 0
M  V30 10452 H 962.238 2.33866 -4.40577 0
M  V30 10453 H 961.392 4.64108 -3.90754 0
M  V30 10454 H 960.131 3.96702 -2.83689 0
M  V30 10455 H 959.136 2.72228 -4.77674 0
M  V30 10456 H 960.361 3.42719 -5.86277 0
M  V30 10457 H 958.307 4.99277 -4.2551 0
M  V30 10458 H 958.224 4.65899 -5.95377 0
M  V30 10459 H 959.492 5.67794 -5.34069 0
M  V30 10460 N 963.721 1.49897 0.486681 0
M  V30 10461 C 964.653 1.63755 1.60365 0
M  V30 10462 C 965.666 0.519614 1.54285 0
M  V30 10463 O 966.855 0.792219 1.59957 0
M  V30 10464 C 963.955 1.59153 2.99205 0
M  V30 10465 C 963.128 2.8672 3.30319 0
M  V30 10466 C 962.187 2.74974 4.48638 0
M  V30 10467 O 961.213 3.48922 4.49714 0
M  V30 10468 N 962.415 1.87479 5.49392 0
M  V30 10469 H 965.18 2.60094 1.48899 0
M  V30 10470 H 962.741 1.47166 0.674825 0
M  V30 10471 H 964.733 1.4893 3.76301 0
M  V30 10472 H 963.303 0.706133 3.0452 0
M  V30 10473 H 962.523 3.11188 2.41983 0
M  V30 10474 H 963.811 3.71262 3.47911 0
M  V30 10475 H 963.209 1.26684 5.51333 0
M  V30 10476 H 961.766 1.83169 6.25534 0
M  V30 10477 N 965.199 -0.738761 1.39212 0
M  V30 10478 C 966.447 -1.49529 1.35962 0
M  V30 10479 C 966.768 -1.94948 -0.0450152 0
M  V30 10480 O 966.038 -1.68717 -0.995552 0
M  V30 10481 H 964.618 -0.554692 0.500326 0
M  V30 10482 H 967.28 -0.877255 1.74041 0
M  V30 10483 H 966.376 -2.37919 2.01993 0
M  V30 10484 N 966.677 -1.24326 -0.968545 0
M  V30 10485 C 967.923 -1.08406 -1.71394 0
M  V30 10486 C 968.256 0.376353 -1.90518 0
M  V30 10487 O 967.531 1.27816 -1.46606 0
M  V30 10488 C 967.814 -1.82344 -3.1052 0
M  V30 10489 C 967.667 -3.3613 -2.98893 0
M  V30 10490 C 968.986 -1.59545 -4.10163 0
M  V30 10491 H 966.105 -0.395205 -0.622079 0
M  V30 10492 H 968.747 -1.52983 -1.12677 0
M  V30 10493 H 966.897 -1.44452 -3.60646 0
M  V30 10494 H 968.569 -3.83614 -2.56199 0
M  V30 10495 H 966.812 -3.64553 -2.35124 0
M  V30 10496 H 967.483 -3.83064 -3.97449 0
M  V30 10497 H 969.959 -1.92504 -3.68892 0
M  V30 10498 H 968.835 -2.13736 -5.05577 0
M  V30 10499 H 969.096 -0.533503 -4.38869 0
M  V30 10500 N 968.156 1.1691 -1.05688 0
M  V30 10501 C 969.086 2.23275 -0.683402 0
M  V30 10502 C 970.067 1.6704 0.321206 0
M  V30 10503 O 971.252 1.93191 0.197691 0
M  V30 10504 C 968.382 3.47244 -0.0626006 0
M  V30 10505 C 967.336 4.16333 -0.992513 0
M  V30 10506 C 966.662 5.34182 -0.23533 0
M  V30 10507 C 967.962 4.68002 -2.31886 0
M  V30 10508 H 969.656 2.54771 -1.57264 0
M  V30 10509 H 967.202 1.2246 -0.757606 0
M  V30 10510 H 969.155 4.20874 0.210503 0
M  V30 10511 H 967.879 3.1503 0.861616 0
M  V30 10512 H 966.538 3.44622 -1.25026 0
M  V30 10513 H 966.186 4.9822 0.69181 0
M  V30 10514 H 965.886 5.81346 -0.855002 0
M  V30 10515 H 967.41 6.10592 0.0303717 0
M  V30 10516 H 968.824 5.33244 -2.10531 0
M  V30 10517 H 967.221 5.25764 -2.89296 0
M  V30 10518 H 968.291 3.84541 -2.95391 0
M  V30 10519 N 969.634 0.838594 1.33437 0
M  V30 10520 C 970.584 0.243681 2.26694 0
M  V30 10521 C 971.568 -0.601168 1.49247 0
M  V30 10522 O 972.76 -0.453181 1.711 0
M  V30 10523 C 969.889 -0.580525 3.38356 0
M  V30 10524 C 968.975 0.275819 4.23202 0
M  V30 10525 N 969.366 1.3544 4.87329 0
M  V30 10526 C 967.664 0.0628047 4.45956 0
M  V30 10527 C 968.365 1.87991 5.50486 0
M  V30 10528 N 967.341 1.18143 5.30607 0
M  V30 10529 H 971.143 1.06849 2.73789 0
M  V30 10530 H 968.657 0.683019 1.47338 0
M  V30 10531 H 970.654 -1.02301 4.04153 0
M  V30 10532 H 969.314 -1.40331 2.92809 0
M  V30 10533 H 970.325 1.73729 4.87892 0
M  V30 10534 H 967.002 -0.726563 4.11129 0
M  V30 10535 H 968.392 2.78312 6.11549 0
M  V30 10536 N 971.112 -1.45937 0.595003 0
M  V30 10537 C 972.042 -2.33198 -0.11871 0
M  V30 10538 C 973.023 -1.46083 -0.871423 0
M  V30 10539 O 974.208 -1.74879 -0.844461 0
M  V30 10540 C 971.338 -3.28576 -1.12495 0
M  V30 10541 C 970.292 -4.25229 -0.486275 0
M  V30 10542 C 969.618 -5.10204 -1.59986 0
M  V30 10543 C 970.918 -5.19019 0.584473 0
M  V30 10544 H 972.612 -2.93122 0.609886 0
M  V30 10545 H 970.158 -1.40951 0.294742 0
M  V30 10546 H 972.111 -3.88485 -1.6327 0
M  V30 10547 H 970.835 -2.66784 -1.88398 0
M  V30 10548 H 969.494 -3.666 0.000507962 0
M  V30 10549 H 969.142 -4.44789 -2.34886 0
M  V30 10550 H 968.842 -5.75669 -1.1781 0
M  V30 10551 H 970.366 -5.7298 -2.11014 0
M  V30 10552 H 971.78 -5.73073 0.161297 0
M  V30 10553 H 970.177 -5.92893 0.927256 0
M  V30 10554 H 971.247 -4.62208 1.46601 0
M  V30 10555 N 972.59 -0.333456 -1.54032 0
M  V30 10556 C 973.52 0.52051 -2.27625 0
M  V30 10557 C 974.501 1.1111 -1.28797 0
M  V30 10558 O 975.686 1.13438 -1.57625 0
M  V30 10559 C 972.816 1.67663 -3.04149 0
M  V30 10560 C 971.77 1.21487 -4.10396 0
M  V30 10561 C 971.096 2.45872 -4.74817 0
M  V30 10562 C 972.396 0.322603 -5.21303 0
M  V30 10563 H 974.09 -0.0933823 -2.99254 0
M  V30 10564 H 971.636 -0.0463526 -1.43925 0
M  V30 10565 H 973.589 2.28041 -3.54366 0
M  V30 10566 H 972.313 2.31727 -2.30153 0
M  V30 10567 H 970.972 0.633966 -3.61077 0
M  V30 10568 H 970.62 3.0832 -3.97426 0
M  V30 10569 H 970.32 2.15662 -5.46593 0
M  V30 10570 H 971.844 3.06994 -5.27814 0
M  V30 10571 H 973.258 0.832942 -5.67217 0
M  V30 10572 H 971.655 0.112843 -5.99994 0
M  V30 10573 H 972.725 -0.643954 -4.80605 0
M  V30 10574 N 974.068 1.57479 -0.061844 0
M  V30 10575 C 975 2.09116 0.938245 0
M  V30 10576 C 976.013 1.0212 1.26788 0
M  V30 10577 O 977.202 1.2966 1.22681 0
M  V30 10578 C 974.302 2.52822 2.25686 0
M  V30 10579 C 973.475 3.83277 2.10755 0
M  V30 10580 C 972.534 4.13182 3.25833 0
M  V30 10581 O 971.56 4.82937 3.01265 0
M  V30 10582 N 972.762 3.65938 4.50633 0
M  V30 10583 H 975.527 2.95543 0.497433 0
M  V30 10584 H 973.088 1.61423 0.124134 0
M  V30 10585 H 975.08 2.69896 3.01559 0
M  V30 10586 H 973.65 1.71586 2.61299 0
M  V30 10587 H 972.87 3.7568 1.19409 0
M  V30 10588 H 974.158 4.68686 1.98018 0
M  V30 10589 H 973.556 3.09566 4.73482 0
M  V30 10590 H 972.113 3.8823 5.23565 0
M  V30 10591 N 975.546 -0.211634 1.56173 0
M  V30 10592 C 976.771 -0.955324 1.84088 0
M  V30 10593 C 977.196 -1.76754 0.643407 0
M  V30 10594 O 976.554 -1.76653 -0.407842 0
M  V30 10595 C 976.602 -1.84063 3.10085 0
M  V30 10596 O 975.706 -2.9373 2.89476 0
M  V30 10597 H 975.047 -0.26996 0.606645 0
M  V30 10598 H 977.577 -0.221947 2.03393 0
M  V30 10599 H 977.587 -2.24852 3.40449 0
M  V30 10600 H 976.262 -1.24373 3.96868 0
M  V30 10601 H 974.839 -2.56816 2.7037 0
M  V30 10602 N 977.024 -1.50153 -0.478725 0
M  V30 10603 C 978.27 -1.60998 -1.23318 0
M  V30 10604 C 978.603 -0.305868 -1.91776 0
M  V30 10605 O 977.878 0.692158 -1.81767 0
M  V30 10606 C 978.161 -2.78495 -2.28282 0
M  V30 10607 C 978.014 -4.18767 -1.64178 0
M  V30 10608 C 979.333 -2.91569 -3.2966 0
M  V30 10609 H 976.452 -0.585983 -0.446982 0
M  V30 10610 H 979.094 -1.82514 -0.528063 0
M  V30 10611 H 977.244 -2.60281 -2.8842 0
M  V30 10612 H 978.916 -4.48552 -1.07696 0
M  V30 10613 H 977.159 -4.23379 -0.94514 0
M  V30 10614 H 977.83 -4.96894 -2.40417 0
M  V30 10615 H 980.306 -3.08219 -2.79536 0
M  V30 10616 H 979.182 -3.75419 -4.0044 0
M  V30 10617 H 979.443 -2.01859 -3.93326 0
M  V30 10618 N 978.502 0.731368 -1.39602 0
M  V30 10619 C 979.45 1.86676 -1.38761 0
M  V30 10620 C 980.444 1.6723 -0.270247 0
M  V30 10621 O 981.65 1.74528 -0.440471 0
M  V30 10622 H 978.025 0.614553 -0.433391 0
M  V30 10623 H 979.996 1.84501 -2.34525 0
M  V30 10624 C 978.745 3.24394 -1.25155 0
M  V30 10625 H 978.068 3.39955 -2.10406 0
M  V30 10626 H 979.508 4.04019 -1.28625 0
M  V30 10627 C 977.967 3.36877 0.0396976 0
M  V30 10628 O 978.497 3.88833 1.00854 0
M  V30 10629 N 976.703 2.90414 0.103965 0
M  V30 10630 H 976.25 2.48321 -0.685155 0
M  V30 10631 H 976.208 2.99146 0.967435 0
M  V30 10632 N 979.98 1.24838 0.961938 0
M  V30 10633 C 980.913 0.989041 2.05653 0
M  V30 10634 C 981.891 -0.079199 1.62407 0
M  V30 10635 O 983.075 0.0589397 1.88408 0
M  V30 10636 C 980.202 0.493661 3.35083 0
M  V30 10637 C 979.248 1.55132 3.97286 0
M  V30 10638 S 980.081 3.13438 4.34185 0
M  V30 10639 C 981.237 2.65617 5.66744 0
M  V30 10640 H 981.47 1.91588 2.27335 0
M  V30 10641 H 979.003 1.08287 1.10061 0
M  V30 10642 H 980.961 0.214482 4.09939 0
M  V30 10643 H 979.622 -0.412559 3.11379 0
M  V30 10644 H 978.815 1.15525 4.90581 0
M  V30 10645 H 978.417 1.78081 3.28882 0
M  V30 10646 H 980.709 2.08788 6.44526 0
M  V30 10647 H 981.652 3.57524 6.11214 0
M  V30 10648 H 982.06 2.05853 5.25628 0
M  V30 10649 N 981.458 -1.16348 1.06306 0
M  V30 10650 C 982.735 -1.829 0.69331 0
M  V30 10651 C 983.115 -1.94298 -0.82531 0
M  V30 10652 O 982.463 -1.48619 -1.73565 0
M  V30 10653 C 982.673 -3.1989 1.3954 0
M  V30 10654 C 984.021 -3.95662 1.54068 0
M  V30 10655 O 985.045 -3.29408 1.35532 0
M  V30 10656 O 983.904 -5.14422 1.84479 0
M  V30 10657 H 980.998 -0.789738 0.245445 0
M  V30 10658 H 983.544 -1.23549 1.16334 0
M  V30 10659 H 982.316 -3.06629 2.43093 0
M  V30 10660 H 981.939 -3.86918 0.915453 0
M  V30 10661 N 982.937 -0.845659 -1.3299 0
M  V30 10662 C 984.162 -0.457435 -2.02293 0
M  V30 10663 C 984.587 0.935634 -1.63179 0
M  V30 10664 O 983.945 1.61297 -0.827835 0
M  V30 10665 C 983.993 -0.593665 -3.5568 0
M  V30 10666 O 983.097 0.37729 -4.10671 0
M  V30 10667 H 982.438 -0.185022 -0.637701 0
M  V30 10668 H 984.968 -1.14237 -1.69738 0
M  V30 10669 H 984.978 -0.477834 -4.05192 0
M  V30 10670 H 983.653 -1.60957 -3.83491 0
M  V30 10671 H 982.23 0.218448 -3.7226 0
M  V30 10672 N 984.415 1.45619 -0.602734 0
M  V30 10673 C 985.692 1.9558 -0.0282472 0
M  V30 10674 C 986.072 1.54523 1.43826 0
M  V30 10675 O 985.42 0.805456 2.13833 0
M  V30 10676 C 985.63 3.48298 -0.221263 0
M  V30 10677 C 986.978 4.24483 -0.0995249 0
M  V30 10678 O 988.002 3.55879 -0.151132 0
M  V30 10679 O 986.861 5.46497 0.0194454 0
M  V30 10680 H 983.955 0.826104 0.0384897 0
M  V30 10681 H 986.501 1.55808 -0.672456 0
M  V30 10682 H 985.273 3.71134 -1.23997 0
M  V30 10683 H 984.896 3.94948 0.458437 0
M  V30 10684 N 985.893 0.34162 1.53853 0
M  V30 10685 C 986.825 -0.550383 2.22494 0
M  V30 10686 C 987.838 -1.0655 1.23089 0
M  V30 10687 O 989.027 -0.975985 1.49455 0
M  V30 10688 C 986.127 -1.76995 2.89009 0
M  V30 10689 C 985.3 -1.39045 4.14711 0
M  V30 10690 C 984.359 -2.46947 4.64654 0
M  V30 10691 O 983.385 -2.10336 5.28912 0
M  V30 10692 N 984.587 -3.7817 4.40418 0
M  V30 10693 H 987.352 0.037456 2.99677 0
M  V30 10694 H 984.913 0.165654 1.6105 0
M  V30 10695 H 986.905 -2.48608 3.19337 0
M  V30 10696 H 985.475 -2.2652 2.15424 0
M  V30 10697 H 984.695 -0.505161 3.9095 0
M  V30 10698 H 985.983 -1.11284 4.96481 0
M  V30 10699 H 985.381 -4.10704 3.89023 0
M  V30 10700 H 983.938 -4.45959 4.75356 0
M  V30 10701 N 987.371 -1.57444 0.0701946 0
M  V30 10702 C 988.618 -1.93429 -0.59929 0
M  V30 10703 C 988.946 -0.9501 -1.69715 0
M  V30 10704 O 988.201 0.0345377 -1.9567 0
M  V30 10705 C 988.5 -3.36044 -1.21694 0
M  V30 10706 C 988.166 -4.50232 -0.245374 0
M  V30 10707 C 986.828 -4.81195 0.0219161 0
M  V30 10708 C 989.18 -5.1951 0.419396 0
M  V30 10709 C 986.508 -5.78775 0.96109 0
M  V30 10710 C 988.86 -6.18095 1.34688 0
M  V30 10711 C 987.524 -6.47477 1.62265 0
M  V30 10712 H 986.794 -0.707807 -0.219296 0
M  V30 10713 H 989.441 -1.90982 0.14073 0
M  V30 10714 H 987.746 -3.34948 -2.03265 0
M  V30 10715 H 989.443 -3.61176 -1.74221 0
M  V30 10716 H 986.033 -4.26082 -0.463887 0
M  V30 10717 H 990.217 -4.95785 0.226009 0
M  V30 10718 H 985.473 -5.99865 1.18202 0
M  V30 10719 H 989.647 -6.7088 1.86795 0
M  V30 10720 H 987.274 -7.229 2.352 0
M  V30 10721 N 988.849 0.203349 -1.56283 0
M  V30 10722 C 989.781 1.27592 -1.90402 0
M  V30 10723 C 990.794 1.4213 -0.79391 0
M  V30 10724 O 991.983 1.42703 -1.07229 0
M  V30 10725 C 989.083 2.64919 -2.11356 0
M  V30 10726 C 988.256 2.72095 -3.42466 0
M  V30 10727 C 987.315 3.9056 -3.52631 0
M  V30 10728 O 986.341 3.78048 -4.25521 0
M  V30 10729 N 987.543 5.0566 -2.85111 0
M  V30 10730 H 990.308 0.986423 -2.83001 0
M  V30 10731 H 987.869 0.39331 -1.5705 0
M  V30 10732 H 989.861 3.42581 -2.15453 0
M  V30 10733 H 988.431 2.86391 -1.25295 0
M  V30 10734 H 987.651 1.8077 -3.50308 0
M  V30 10735 H 988.939 2.73874 -4.28801 0
M  V30 10736 H 988.337 5.18723 -2.25705 0
M  V30 10737 H 986.894 5.81299 -2.94847 0
M  V30 10738 N 990.327 1.50405 0.470755 0
M  V30 10739 C 991.257 1.72222 1.57676 0
M  V30 10740 C 992.238 0.57121 1.60222 0
M  V30 10741 O 993.423 0.810381 1.76484 0
M  V30 10742 C 990.553 1.81666 2.95998 0
M  V30 10743 C 989.507 2.96857 3.08318 0
M  V30 10744 C 988.833 2.91445 4.4829 0
M  V30 10745 C 990.133 4.37361 2.85504 0
M  V30 10746 H 991.827 2.64825 1.39671 0
M  V30 10747 H 989.373 1.27438 0.67049 0
M  V30 10748 H 991.326 1.95514 3.73299 0
M  V30 10749 H 990.05 0.856856 3.1516 0
M  V30 10750 H 988.709 2.82661 2.33449 0
M  V30 10751 H 988.357 1.93309 4.64371 0
M  V30 10752 H 988.057 3.68776 4.57469 0
M  V30 10753 H 989.581 3.07341 5.27611 0
M  V30 10754 H 990.995 4.52081 3.52555 0
M  V30 10755 H 989.392 5.16145 3.06127 0
M  V30 10756 H 990.462 4.49708 1.81359 0
M  V30 10757 N 991.805 -0.723954 1.39988 0
M  V30 10758 C 993.053 -1.48078 1.3754 0
M  V30 10759 C 993.374 -1.94985 -0.0243358 0
M  V30 10760 O 992.644 -1.69764 -0.977602 0
M  V30 10761 H 991.224 -0.549354 0.506181 0
M  V30 10762 H 993.886 -0.858746 1.74962 0
M  V30 10763 H 992.982 -2.35763 2.04505 0
M  V30 10764 N 993.283 -1.25346 -0.955304 0
M  V30 10765 C 994.699 -1.02154 -1.22625 0
M  V30 10766 C 994.899 0.26206 -1.99789 0
M  V30 10767 O 993.955 0.974958 -2.32918 0
M  V30 10768 C 995.268 -2.2443 -2.00129 0
M  V30 10769 C 996.816 -2.29185 -2.13174 0
M  V30 10770 C 997.291 -3.51117 -2.94077 0
M  V30 10771 N 998.782 -3.51509 -3.01655 0
M  V30 10772 C 999.517 -4.42517 -3.64645 0
M  V30 10773 N 999.013 -5.43796 -4.29252 0
M  V30 10774 N 1000.81 -4.302 -3.61779 0
M  V30 10775 H 992.957 -2.07812 -0.439071 0
M  V30 10776 H 995.22 -0.91258 -0.256715 0
M  V30 10777 H 994.926 -3.17717 -1.50827 0
M  V30 10778 H 994.8 -2.27548 -3.00835 0
M  V30 10779 H 997.187 -1.36422 -2.61674 0
M  V30 10780 H 997.268 -2.30087 -1.11775 0
M  V30 10781 H 996.912 -4.44201 -2.46268 0
M  V30 10782 H 996.842 -3.4746 -3.95701 0
M  V30 10783 H 999.333 -2.78245 -2.55711 0
M  V30 10784 H 999.646 -6.09453 -4.75171 0
M  V30 10785 H 997.991 -5.4767 -4.27882 0
M  V30 10786 H 1001.18 -3.50304 -3.10491 0
M  V30 10787 H 1001.36 -5.01323 -4.10584 0
M  V30 10788 N 994.761 1.15782 -1.06922 0
M  V30 10789 C 995.986 1.90896 -0.810771 0
M  V30 10790 C 996.411 1.77246 0.629714 0
M  V30 10791 O 995.769 1.10215 1.43953 0
M  V30 10792 C 995.817 3.39397 -1.21829 0
M  V30 10793 O 994.921 4.10818 -0.360934 0
M  V30 10794 H 994.262 0.594497 -0.295752 0
M  V30 10795 H 996.792 1.46652 -1.42669 0
M  V30 10796 H 996.802 3.90181 -1.19259 0
M  V30 10797 H 995.477 3.4865 -2.2675 0
M  V30 10798 H 994.054 3.7019 -0.448748 0
M  V30 10799 N 996.239 0.8527 1.3254 0
M  V30 10800 C 997.186 0.293905 2.28921 0
M  V30 10801 C 998.156 -0.598027 1.54961 0
M  V30 10802 O 999.341 -0.533355 1.83194 0
M  V30 10803 C 996.481 -0.513361 3.4126 0
M  V30 10804 C 995.594 0.404144 4.30105 0
M  V30 10805 C 994.729 -0.415564 5.29572 0
M  V30 10806 C 993.768 0.499461 6.10059 0
M  V30 10807 N 992.905 -0.282949 7.0153 0
M  V30 10808 H 997.745 1.12107 2.76109 0
M  V30 10809 H 995.282 0.564272 1.35847 0
M  V30 10810 H 997.24 -0.997008 4.05112 0
M  V30 10811 H 995.87 -1.30537 2.95229 0
M  V30 10812 H 994.922 1.00617 3.66852 0
M  V30 10813 H 996.234 1.10648 4.86373 0
M  V30 10814 H 995.388 -0.962458 5.99017 0
M  V30 10815 H 994.127 -1.15127 4.73917 0
M  V30 10816 H 993.132 1.05825 5.39519 0
M  V30 10817 H 994.357 1.23375 6.67799 0
M  V30 10818 H 992.303 -1.00179 6.48306 0
M  V30 10819 H 992.22 0.36039 7.55141 0
M  V30 10820 H 993.488 -0.811632 7.75263 0
M  V30 10821 N 997.718 -1.45297 0.610449 0
M  V30 10822 C 998.964 -2.02518 0.106917 0
M  V30 10823 C 999.297 -1.47747 -1.26034 0
M  V30 10824 O 998.572 -0.65329 -1.832 0
M  V30 10825 C 998.855 -3.6003 0.0710975 0
M  V30 10826 C 998.708 -4.25128 1.46922 0
M  V30 10827 C 1000.03 -4.35778 -0.61524 0
M  V30 10828 H 997.146 -0.735896 0.040327 0
M  V30 10829 H 999.788 -1.73117 0.782968 0
M  V30 10830 H 997.938 -3.85209 -0.504611 0
M  V30 10831 H 999.61 -4.11125 2.09223 0
M  V30 10832 H 997.853 -3.83418 2.02911 0
M  V30 10833 H 998.524 -5.34046 1.39637 0
M  V30 10834 H 1001 -4.1591 -0.125871 0
M  V30 10835 H 999.876 -5.45506 -0.609419 0
M  V30 10836 H 1000.14 -4.08859 -1.68186 0
M  V30 10837 N 999.196 -0.349774 -1.5367 0
M  V30 10838 C 1000.44 0.244827 -2.01015 0
M  V30 10839 C 1000.77 1.50057 -1.23746 0
M  V30 10840 O 1000.03 1.9315 -0.314872 0
M  V30 10841 C 1000.32 0.598311 -3.52356 0
M  V30 10842 C 999.991 -0.56127 -4.47393 0
M  V30 10843 C 998.653 -0.879481 -4.73095 0
M  V30 10844 C 1001 -1.3389 -5.03709 0
M  V30 10845 C 998.333 -1.97758 -5.52366 0
M  V30 10846 C 1000.68 -2.4273 -5.84179 0
M  V30 10847 C 999.349 -2.75103 -6.08173 0
M  V30 10848 H 998.619 0.0895884 -0.735564 0
M  V30 10849 H 1001.27 -0.478975 -1.85413 0
M  V30 10850 H 999.571 1.40291 -3.65822 0
M  V30 10851 H 1001.27 1.07036 -3.86451 0
M  V30 10852 H 997.858 -0.303201 -4.27526 0
M  V30 10853 H 1002.04 -1.10632 -4.83812 0
M  V30 10854 H 997.298 -2.23257 -5.6918 0
M  V30 10855 H 1001.47 -3.03412 -6.26828 0
M  V30 10856 H 999.099 -3.60317 -6.69385 0
M  V30 10857 N 1000.67 1.57404 -0.0785433 0
M  V30 10858 C 1001.92 1.9292 0.588626 0
M  V30 10859 C 1002.24 0.961106 1.70359 0
M  V30 10860 O 1003.44 1.20934 2.43079 0
M  V30 10861 C 1001.9 3.42729 1.09839 0
M  V30 10862 C 1001.51 4.47998 0.0140773 0
M  V30 10863 C 1003.25 3.87235 1.73924 0
M  V30 10864 C 1001.16 5.88945 0.538269 0
M  V30 10865 H 1000.09 0.720069 0.223645 0
M  V30 10866 H 1002.74 1.8287 -0.15187 0
M  V30 10867 H 1001.12 3.47875 1.89207 0
M  V30 10868 H 1002.29 4.54476 -0.760773 0
M  V30 10869 H 1000.61 4.13001 -0.53095 0
M  V30 10870 H 1003.21 4.89927 2.14186 0
M  V30 10871 H 1003.55 3.24971 2.60191 0
M  V30 10872 H 1004.08 3.84721 1.01168 0
M  V30 10873 H 1000.82 6.5487 -0.287395 0
M  V30 10874 H 1000.34 5.85972 1.28049 0
M  V30 10875 H 1002.02 6.39028 1.01253 0
M  V30 10876 N 1002.15 -0.195058 1.56388 0
M  V30 10877 C 1003.1 -1.24175 1.94549 0
M  V30 10878 C 1004.07 -1.45229 0.806089 0
M  V30 10879 O 1005.25 -1.58362 1.06425 0
M  V30 10880 C 1002.39 -2.58145 2.29031 0
M  V30 10881 C 1001.51 -2.44669 3.56035 0
M  V30 10882 C 1000.64 -3.71342 3.7984 0
M  V30 10883 C 999.681 -3.52699 5.0027 0
M  V30 10884 N 998.818 -4.71385 5.20328 0
M  V30 10885 H 1003.66 -0.909319 2.83788 0
M  V30 10886 H 1001.19 -0.437641 1.40439 0
M  V30 10887 H 1003.15 -3.36195 2.4704 0
M  V30 10888 H 1001.78 -2.8943 1.42933 0
M  V30 10889 H 1000.83 -1.57916 3.46073 0
M  V30 10890 H 1002.15 -2.26827 4.44242 0
M  V30 10891 H 1001.3 -4.57832 3.98088 0
M  V30 10892 H 1000.04 -3.92138 2.89964 0
M  V30 10893 H 999.045 -2.64594 4.81944 0
M  V30 10894 H 1000.27 -3.33349 5.91655 0
M  V30 10895 H 998.216 -4.92444 4.33399 0
M  V30 10896 H 998.133 -4.56368 6.02714 0
M  V30 10897 H 999.401 -5.59226 5.43035 0
M  V30 10898 N 1003.63 -1.50653 -0.462772 0
M  V30 10899 C 1004.59 -1.69561 -1.54213 0
M  V30 10900 C 1005.59 -0.566106 -1.50505 0
M  V30 10901 O 1006.78 -0.833273 -1.52978 0
M  V30 10902 C 1003.91 -1.72856 -2.93826 0
M  V30 10903 H 1005.11 -2.65867 -1.38761 0
M  V30 10904 H 1002.66 -1.40259 -0.689728 0
M  V30 10905 H 1003.4 -0.78273 -3.14712 0
M  V30 10906 H 1003.18 -2.54919 -2.97924 0
M  V30 10907 H 1004.67 -1.89411 -3.72174 0
M  V30 10908 N 1005.11 0.71652 -1.4037 0
M  V30 10909 C 1006.52 1.29562 -1.34427 0
M  V30 10910 C 1006.87 1.96192 -0.0173106 0
M  V30 10911 O 1006 1.97488 0.884719 0
M  V30 10912 C 1006.59 2.35601 -2.4347 0
M  V30 10913 C 1005.15 2.89138 -2.4099 0
M  V30 10914 C 1004.3 1.62915 -2.24397 0
M  V30 10915 H 1007.25 0.512715 -1.5019 0
M  V30 10916 H 1007.27 3.16422 -2.11323 0
M  V30 10917 H 1006.78 1.87077 -3.40035 0
M  V30 10918 H 1004.88 3.41894 -1.4812 0
M  V30 10919 H 1004.99 3.40995 -3.3654 0
M  V30 10920 H 1003.36 1.87947 -1.71896 0
M  V30 10921 H 1004.14 1.16417 -3.22958 0
M  V30 10922 N 1006.59 1.25851 0.948643 0
M  V30 10923 C 1007.5 1.08516 2.07994 0
M  V30 10924 C 1008.51 0.0206696 1.73988 0
M  V30 10925 O 1009.69 0.222854 2.00163 0
M  V30 10926 C 1006.75 0.712145 3.39307 0
M  V30 10927 C 1005.81 1.85523 3.87143 0
M  V30 10928 C 1005.05 1.49992 5.1219 0
M  V30 10929 O 1005.27 0.398268 5.69008 0
M  V30 10930 O 1004.2 2.33215 5.54882 0
M  V30 10931 H 1008.03 2.03405 2.25522 0
M  V30 10932 H 1005.62 1.04844 1.06433 0
M  V30 10933 H 1007.5 0.516512 4.18223 0
M  V30 10934 H 1006.17 -0.207416 3.23035 0
M  V30 10935 H 1005.08 2.10578 3.09205 0
M  V30 10936 H 1006.41 2.75425 4.07924 0
M  V30 10937 N 1008.06 -1.15214 1.07534 0
M  V30 10938 C 1009.29 -1.90463 0.820883 0
M  V30 10939 C 1009.71 -1.77578 -0.620305 0
M  V30 10940 O 1009.07 -1.10976 -1.43366 0
M  V30 10941 C 1009.12 -3.38746 1.23627 0
M  V30 10942 O 1008.22 -4.1062 0.382715 0
M  V30 10943 H 1007.57 -0.59292 0.298901 0
M  V30 10944 H 1010.1 -1.45893 1.43445 0
M  V30 10945 H 1010.11 -3.89543 1.21327 0
M  V30 10946 H 1008.78 -3.47443 2.28596 0
M  V30 10947 H 1007.36 -3.69947 0.468374 0
M  V30 10948 N 1009.54 -0.859717 -1.32086 0
M  V30 10949 C 1010.47 -0.323502 -2.31248 0
M  V30 10950 C 1011.45 0.580085 -1.59903 0
M  V30 10951 O 1012.64 0.499265 -1.87673 0
M  V30 10952 C 1009.77 0.484661 -3.43902 0
M  V30 10953 C 1008.72 -0.324933 -4.26765 0
M  V30 10954 C 1008.05 0.608281 -5.31229 0
M  V30 10955 C 1009.35 -1.55344 -4.98664 0
M  V30 10956 H 1011.04 -1.15209 -2.76346 0
M  V30 10957 H 1008.59 -0.555442 -1.32856 0
M  V30 10958 H 1010.54 0.870238 -4.12316 0
M  V30 10959 H 1009.27 1.34666 -2.97544 0
M  V30 10960 H 1007.92 -0.692328 -3.60003 0
M  V30 10961 H 1007.57 1.46727 -4.81124 0
M  V30 10962 H 1007.27 0.0705571 -5.87558 0
M  V30 10963 H 1008.8 0.990925 -6.02506 0
M  V30 10964 H 1010.21 -1.23987 -5.59732 0
M  V30 10965 H 1008.61 -2.02947 -5.64741 0
M  V30 10966 H 1009.68 -2.31192 -4.26237 0
M  V30 10967 N 1011.02 1.44971 -0.618145 0
M  V30 10968 C 1012.27 2.02159 -0.117482 0
M  V30 10969 C 1012.6 1.48517 1.2559 0
M  V30 10970 O 1011.85 0.654192 1.84442 0
M  V30 10971 C 1012.15 3.57378 -0.0394861 0
M  V30 10972 C 1011.82 4.30218 -1.34993 0
M  V30 10973 C 1010.48 4.49835 -1.70886 0
M  V30 10974 C 1012.83 4.71768 -2.21551 0
M  V30 10975 C 1010.16 5.08258 -2.9307 0
M  V30 10976 C 1012.51 5.31543 -3.42993 0
M  V30 10977 C 1011.17 5.49381 -3.79126 0
M  V30 10978 H 1010.44 0.739752 -0.0429897 0
M  V30 10979 H 1013.09 1.73903 -0.801871 0
M  V30 10980 H 1011.4 3.84973 0.728217 0
M  V30 10981 H 1013.09 3.99343 0.364213 0
M  V30 10982 H 1009.68 4.15271 -1.06057 0
M  V30 10983 H 1013.87 4.56336 -1.95117 0
M  V30 10984 H 1009.12 5.20257 -3.21158 0
M  V30 10985 H 1013.3 5.62691 -4.10308 0
M  V30 10986 H 1010.92 5.94419 -4.73888 0
M  V30 10987 N 1012.5 0.357919 1.53482 0
M  V30 10988 C 1013.43 -0.484231 2.28424 0
M  V30 10989 C 1014.41 -1.09046 1.30548 0
M  V30 10990 O 1015.59 -1.10916 1.59409 0
M  V30 10991 C 1012.72 -1.62803 3.06778 0
M  V30 10992 C 1011.68 -1.14943 4.12277 0
M  V30 10993 C 1011 -2.38287 4.78669 0
M  V30 10994 C 1012.3 -0.239627 5.2175 0
M  V30 10995 H 1014 0.140979 2.99068 0
M  V30 10996 H 1011.54 0.069244 1.43833 0
M  V30 10997 H 1013.5 -2.22374 3.57949 0
M  V30 10998 H 1012.22 -2.28036 2.3381 0
M  V30 10999 H 1010.88 -0.576442 3.6204 0
M  V30 11000 H 1010.53 -3.01959 4.02281 0
M  V30 11001 H 1010.23 -2.06939 5.49955 0
M  V30 11002 H 1011.75 -2.98558 5.32631 0
M  V30 11003 H 1013.17 -0.742597 5.6847 0
M  V30 11004 H 1011.56 -0.0173747 6.00097 0
M  V30 11005 H 1012.63 0.720333 4.7952 0
M  V30 11006 N 1013.98 -1.5736 0.0868897 0
M  V30 11007 C 1014.91 -2.16596 -0.872252 0
M  V30 11008 C 1015.89 -1.09706 -1.29995 0
M  V30 11009 O 1017.07 -1.37808 -1.36831 0
M  V30 11010 C 1014.2 -2.73972 -2.1344 0
M  V30 11011 C 1013.16 -3.86163 -1.8456 0
M  V30 11012 C 1012.48 -4.30206 -3.17533 0
M  V30 11013 C 1013.78 -5.0973 -1.13899 0
M  V30 11014 H 1015.48 -2.96995 -0.378738 0
M  V30 11015 H 1013.02 -1.42861 -0.18073 0
M  V30 11016 H 1014.98 -3.14062 -2.80968 0
M  V30 11017 H 1013.7 -1.90817 -2.6506 0
M  V30 11018 H 1012.36 -3.466 -1.19432 0
M  V30 11019 H 1012.01 -3.43951 -3.67024 0
M  V30 11020 H 1011.71 -5.05841 -2.98996 0
M  V30 11021 H 1013.23 -4.72922 -3.86234 0
M  V30 11022 H 1014.64 -5.4704 -1.71523 0
M  V30 11023 H 1013.04 -5.90741 -1.05569 0
M  V30 11024 H 1014.11 -4.8475 -0.120432 0
M  V30 11025 N 1015.45 0.186762 -1.56489 0
M  V30 11026 C 1016.36 1.25169 -1.98419 0
M  V30 11027 C 1017.38 1.49329 -0.893124 0
M  V30 11028 O 1018.56 1.61781 -1.19954 0
M  V30 11029 C 1015.62 2.57422 -2.32239 0
M  V30 11030 C 1014.68 2.4126 -3.55095 0
M  V30 11031 C 1013.92 3.67206 -3.87292 0
M  V30 11032 O 1014.14 4.71731 -3.20665 0
M  V30 11033 O 1013.07 3.62238 -4.80695 0
M  V30 11034 H 1016.9 0.925834 -2.89244 0
M  V30 11035 H 1014.48 0.392421 -1.44154 0
M  V30 11036 H 1016.37 3.35466 -2.5503 0
M  V30 11037 H 1015.04 2.89618 -1.44579 0
M  V30 11038 H 1013.95 1.61299 -3.37541 0
M  V30 11039 H 1015.28 2.13994 -4.43247 0
M  V30 11040 N 1016.93 1.50896 0.454776 0
M  V30 11041 C 1017.84 1.73762 1.5762 0
M  V30 11042 C 1018.86 0.621206 1.62533 0
M  V30 11043 O 1020.03 0.901449 1.801 0
M  V30 11044 C 1017.1 1.84183 2.9373 0
M  V30 11045 C 1016.16 3.07982 2.99075 0
M  V30 11046 C 1015.39 3.17896 4.28693 0
M  V30 11047 O 1015.62 2.34184 5.20109 0
M  V30 11048 O 1014.55 4.10749 4.39964 0
M  V30 11049 H 1018.38 2.68856 1.41245 0
M  V30 11050 H 1015.96 1.35187 0.635984 0
M  V30 11051 H 1017.84 1.93123 3.74542 0
M  V30 11052 H 1016.52 0.922742 3.10269 0
M  V30 11053 H 1015.43 3.04531 2.17282 0
M  V30 11054 H 1016.76 3.99523 2.87476 0
M  V30 11055 N 1018.41 -0.709066 1.40748 0
M  V30 11056 C 1019.34 -1.83293 1.35937 0
M  V30 11057 C 1020.32 -1.60983 0.22871 0
M  V30 11058 O 1021.51 -1.8391 0.413435 0
M  V30 11059 C 1018.63 -3.19746 1.11714 0
M  V30 11060 C 1017.68 -3.60872 2.27319 0
M  V30 11061 S 1018.51 -3.67233 3.89743 0
M  V30 11062 C 1019.67 -5.06434 3.67797 0
M  V30 11063 H 1019.9 -1.87095 2.31047 0
M  V30 11064 H 1017.43 -0.876479 1.27111 0
M  V30 11065 H 1019.39 -3.98526 0.984245 0
M  V30 11066 H 1018.05 -3.1357 0.182472 0
M  V30 11067 H 1017.25 -4.59965 2.06029 0
M  V30 11068 H 1016.85 -2.89366 2.36946 0
M  V30 11069 H 1019.14 -5.93544 3.26668 0
M  V30 11070 H 1020.08 -5.32761 4.66445 0
M  V30 11071 H 1020.49 -4.77336 3.01348 0
M  V30 11072 N 1019.89 -1.26353 -0.941956 0
M  V30 11073 C 1021.31 -1.03448 -1.21534 0
M  V30 11074 C 1021.51 0.240855 -2.00055 0
M  V30 11075 O 1020.56 0.950199 -2.33939 0
M  V30 11076 C 1021.87 -2.2654 -1.97737 0
M  V30 11077 C 1023.42 -2.31433 -2.10731 0
M  V30 11078 C 1023.9 -3.54216 -2.90336 0
M  V30 11079 N 1025.39 -3.54688 -2.9791 0
M  V30 11080 C 1026.12 -4.4636 -3.59931 0
M  V30 11081 N 1025.62 -5.48319 -4.2346 0
M  V30 11082 N 1027.41 -4.34013 -3.57196 0
M  V30 11083 H 1019.56 -2.08266 -0.417005 0
M  V30 11084 H 1021.83 -0.915251 -0.247021 0
M  V30 11085 H 1021.53 -3.19299 -1.47449 0
M  V30 11086 H 1021.41 -2.30726 -2.98405 0
M  V30 11087 H 1023.79 -1.3919 -2.60212 0
M  V30 11088 H 1023.87 -2.31259 -1.09329 0
M  V30 11089 H 1023.52 -4.46788 -2.41543 0
M  V30 11090 H 1023.45 -3.51637 -3.91993 0
M  V30 11091 H 1025.94 -2.80942 -2.52745 0
M  V30 11092 H 1026.25 -6.14458 -4.6868 0
M  V30 11093 H 1024.6 -5.52177 -4.22049 0
M  V30 11094 H 1027.79 -3.53578 -3.06758 0
M  V30 11095 H 1027.96 -5.0565 -4.05244 0
M  V30 11096 N 1021.37 1.14642 -1.08144 0
M  V30 11097 C 1022.28 2.23257 -0.720668 0
M  V30 11098 C 1023.29 1.71866 0.271648 0
M  V30 11099 O 1024.47 2.01064 0.116266 0
M  V30 11100 C 1021.53 3.46447 -0.132542 0
M  V30 11101 C 1020.6 4.12789 -1.17913 0
M  V30 11102 C 1019.83 5.30099 -0.618971 0
M  V30 11103 O 1020.05 5.6762 0.562418 0
M  V30 11104 O 1018.99 5.86154 -1.36774 0
M  V30 11105 H 1022.81 2.56463 -1.62667 0
M  V30 11106 H 1020.4 1.22521 -0.854932 0
M  V30 11107 H 1022.28 4.20959 0.19277 0
M  V30 11108 H 1020.95 3.14971 0.746662 0
M  V30 11109 H 1019.86 3.40163 -1.55693 0
M  V30 11110 H 1021.19 4.48365 -2.03051 0
M  V30 11111 N 1022.85 0.866709 1.31628 0
M  V30 11112 C 1024.26 0.558188 1.49521 0
M  V30 11113 C 1024.46 -0.90844 1.7986 0
M  V30 11114 O 1023.52 -1.6908 1.87531 0
M  V30 11115 C 1024.83 1.45559 2.63122 0
M  V30 11116 C 1026.38 1.45728 2.77006 0
M  V30 11117 C 1026.85 2.34017 3.937 0
M  V30 11118 N 1028.34 2.31879 4.00982 0
M  V30 11119 C 1029.08 2.96915 4.90539 0
M  V30 11120 N 1028.58 3.71109 5.85021 0
M  V30 11121 N 1030.37 2.86241 4.83759 0
M  V30 11122 H 1022.52 1.81574 1.10203 0
M  V30 11123 H 1024.78 0.77621 0.544244 0
M  V30 11124 H 1024.49 2.49904 2.47469 0
M  V30 11125 H 1024.36 1.15174 3.59186 0
M  V30 11126 H 1026.75 0.421419 2.92075 0
M  V30 11127 H 1026.83 1.80134 1.81619 0
M  V30 11128 H 1026.47 3.37678 3.79389 0
M  V30 11129 H 1026.4 1.96937 4.88388 0
M  V30 11130 H 1028.9 1.77948 3.33381 0
M  V30 11131 H 1029.21 4.1787 6.5008 0
M  V30 11132 H 1027.55 3.75217 5.8501 0
M  V30 11133 H 1030.74 2.27819 4.08921 0
M  V30 11134 H 1030.92 3.37206 5.5335 0
M  V30 11135 N 1024.32 -1.44642 0.625825 0
M  V30 11136 C 1025.27 -2.30653 -0.082259 0
M  V30 11137 C 1026.24 -1.43174 -0.842052 0
M  V30 11138 O 1027.43 -1.72082 -0.824151 0
M  V30 11139 C 1024.57 -3.2837 -1.06146 0
M  V30 11140 C 1023.68 -4.30953 -0.300638 0
M  V30 11141 C 1022.81 -5.15766 -1.27118 0
M  V30 11142 C 1021.85 -6.10061 -0.499215 0
M  V30 11143 N 1020.99 -6.87591 -1.41995 0
M  V30 11144 H 1025.83 -2.90664 0.657161 0
M  V30 11145 H 1023.37 -1.43215 0.335859 0
M  V30 11146 H 1025.32 -3.83507 -1.6425 0
M  V30 11147 H 1023.95 -2.70072 -1.76807 0
M  V30 11148 H 1023.01 -3.78331 0.396234 0
M  V30 11149 H 1024.32 -4.97892 0.300851 0
M  V30 11150 H 1023.47 -5.75394 -1.92372 0
M  V30 11151 H 1022.21 -4.48888 -1.9066 0
M  V30 11152 H 1021.22 -5.49547 0.166848 0
M  V30 11153 H 1022.44 -6.78973 0.131409 0
M  V30 11154 H 1020.39 -6.23387 -2.04267 0
M  V30 11155 H 1020.3 -7.5095 -0.872354 0
M  V30 11156 H 1021.57 -7.51746 -2.0615 0
M  V30 11157 N 1025.8 -0.366053 -1.5329 0
M  V30 11158 C 1027.03 0.22391 -2.05383 0
M  V30 11159 C 1027.44 1.42962 -1.23929 0
M  V30 11160 O 1026.78 1.81659 -0.273072 0
M  V30 11161 C 1026.84 0.681038 -3.5299 0
M  V30 11162 C 1026.51 -0.40805 -4.55175 0
M  V30 11163 C 1027.51 -1.25806 -5.04449 0
M  V30 11164 C 1025.19 -0.568428 -4.99073 0
M  V30 11165 C 1027.18 -2.25379 -5.96224 0
M  V30 11166 C 1024.87 -1.56752 -5.90654 0
M  V30 11167 C 1025.87 -2.40864 -6.39119 0
M  V30 11168 O 1025.56 -3.39069 -7.28895 0
M  V30 11169 H 1025.29 0.0429593 -0.674634 0
M  V30 11170 H 1027.84 -0.522897 -1.98633 0
M  V30 11171 H 1026.07 1.47945 -3.5728 0
M  V30 11172 H 1027.76 1.19406 -3.8794 0
M  V30 11173 H 1028.53 -1.14536 -4.71282 0
M  V30 11174 H 1024.41 0.0764858 -4.60937 0
M  V30 11175 H 1027.95 -2.91068 -6.33976 0
M  V30 11176 H 1023.85 -1.6807 -6.23236 0
M  V30 11177 H 1024.62 -3.34804 -7.46893 0
M  V30 11178 N 1027.28 1.57312 -0.0952337 0
M  V30 11179 C 1028.56 1.85822 0.610715 0
M  V30 11180 C 1028.94 0.992114 1.86334 0
M  V30 11181 O 1028.28 0.0645669 2.28409 0
M  V30 11182 C 1028.49 3.36492 0.925967 0
M  V30 11183 C 1029.84 4.0455 1.28936 0
M  V30 11184 O 1030.87 3.41374 1.01698 0
M  V30 11185 O 1029.73 5.16024 1.79949 0
M  V30 11186 H 1026.82 0.768454 0.305626 0
M  V30 11187 H 1029.37 1.69217 -0.127941 0
M  V30 11188 H 1028.14 3.91282 0.0373127 0
M  V30 11189 H 1027.76 3.58443 1.7206 0
M  V30 11190 N 1028.76 -0.17846 1.56586 0
M  V30 11191 C 1030.01 -0.894464 1.81228 0
M  V30 11192 C 1030.33 -1.83089 0.671062 0
M  V30 11193 O 1029.6 -1.93439 -0.309557 0
M  V30 11194 H 1028.18 -0.333288 0.668527 0
M  V30 11195 H 1030.84 -0.179986 1.94067 0
M  V30 11196 H 1029.93 -1.47565 2.75011 0
M  V30 11197 N 1030.24 -1.51135 -0.446768 0
M  V30 11198 C 1031.47 -1.66887 -1.21788 0
M  V30 11199 C 1031.87 -0.361729 -1.8571 0
M  V30 11200 O 1031.22 0.668784 -1.71093 0
M  V30 11201 C 1031.28 -2.72062 -2.34994 0
M  V30 11202 C 1030.94 -4.14935 -1.91516 0
M  V30 11203 C 1031.94 -5.00021 -1.42389 0
M  V30 11204 C 1029.62 -4.60985 -1.99495 0
M  V30 11205 C 1031.62 -6.29216 -1.01816 0
M  V30 11206 C 1029.31 -5.90179 -1.58532 0
M  V30 11207 C 1030.3 -6.74121 -1.09774 0
M  V30 11208 O 1029.99 -8.009 -0.69389 0
M  V30 11209 H 1029.72 -0.563431 -0.373525 0
M  V30 11210 H 1032.28 -1.98261 -0.536818 0
M  V30 11211 H 1030.51 -2.35983 -3.06348 0
M  V30 11212 H 1032.2 -2.76788 -2.96889 0
M  V30 11213 H 1032.96 -4.6565 -1.35627 0
M  V30 11214 H 1028.84 -3.95777 -2.36393 0
M  V30 11215 H 1032.39 -6.94687 -0.636879 0
M  V30 11216 H 1028.28 -6.24066 -1.64962 0
M  V30 11217 H 1029.05 -8.14376 -0.820582 0
M  V30 11218 N 1031.71 0.701592 -1.41122 0
M  V30 11219 C 1032.68 1.79733 -1.42227 0
M  V30 11220 C 1033.68 1.57708 -0.313831 0
M  V30 11221 O 1034.87 1.64492 -0.573423 0
M  V30 11222 C 1032 3.18024 -1.22775 0
M  V30 11223 H 1033.19 1.80148 -2.39764 0
M  V30 11224 H 1030.74 0.908624 -1.27176 0
M  V30 11225 H 1031.48 3.23252 -0.260552 0
M  V30 11226 H 1031.26 3.35411 -2.0308 0
M  V30 11227 H 1032.75 3.98021 -1.2637 0
M  V30 11228 N 1033.19 1.2685 0.935242 0
M  V30 11229 C 1034.61 1.04091 1.20984 0
M  V30 11230 C 1034.81 -0.230242 2.0018 0
M  V30 11231 O 1033.86 -0.93778 2.3444 0
M  V30 11232 C 1035.18 2.27586 1.96533 0
M  V30 11233 C 1036.72 2.32547 2.09501 0
M  V30 11234 C 1037.2 3.55751 2.88454 0
M  V30 11235 N 1038.69 3.56263 2.96025 0
M  V30 11236 C 1039.43 4.48262 3.57559 0
M  V30 11237 N 1038.92 5.50557 4.20546 0
M  V30 11238 N 1040.71 4.35901 3.5489 0
M  V30 11239 H 1032.87 2.08484 0.405954 0
M  V30 11240 H 1035.13 0.916548 0.242164 0
M  V30 11241 H 1034.83 3.20076 1.45753 0
M  V30 11242 H 1034.71 2.32305 2.97177 0
M  V30 11243 H 1037.1 1.40568 2.5947 0
M  V30 11244 H 1037.18 2.31836 1.08101 0
M  V30 11245 H 1036.82 4.48063 2.3917 0
M  V30 11246 H 1036.75 3.53711 3.90123 0
M  V30 11247 H 1039.24 2.82278 2.51252 0
M  V30 11248 H 1039.55 6.16935 4.65415 0
M  V30 11249 H 1037.9 5.54407 4.19115 0
M  V30 11250 H 1041.09 3.552 3.04879 0
M  V30 11251 H 1041.26 5.07792 4.02557 0
M  V30 11252 N 1034.67 -1.14067 1.0875 0
M  V30 11253 C 1035.92 -1.85459 0.82053 0
M  V30 11254 C 1036.25 -1.82923 -0.65213 0
M  V30 11255 O 1035.52 -1.26241 -1.47965 0
M  V30 11256 C 1035.81 -3.33937 1.34752 0
M  V30 11257 C 1035.66 -3.45026 2.88578 0
M  V30 11258 C 1036.98 -4.2915 0.975636 0
M  V30 11259 H 1034.1 -0.673384 0.299538 0
M  V30 11260 H 1036.74 -1.33927 1.34772 0
M  V30 11261 H 1034.89 -3.77953 0.899086 0
M  V30 11262 H 1036.56 -3.09771 3.41818 0
M  V30 11263 H 1034.81 -2.86124 3.26061 0
M  V30 11264 H 1035.48 -4.49408 3.20526 0
M  V30 11265 H 1037.95 -3.93168 1.36228 0
M  V30 11266 H 1036.83 -5.31489 1.37152 0
M  V30 11267 H 1037.09 -4.41945 -0.116956 0
M  V30 11268 N 1036.15 -0.873678 -1.31166 0
M  V30 11269 C 1037.4 -0.482577 -1.95842 0
M  V30 11270 C 1037.71 0.970881 -1.69804 0
M  V30 11271 O 1038.92 1.4683 -2.28371 0
M  V30 11272 C 1037.37 -0.812074 -3.50619 0
M  V30 11273 C 1036.98 -2.28254 -3.85492 0
M  V30 11274 C 1038.72 -0.489624 -4.21667 0
M  V30 11275 C 1036.63 -2.55426 -5.33396 0
M  V30 11276 H 1035.56 -0.176736 -0.732994 0
M  V30 11277 H 1038.21 -1.06709 -1.49283 0
M  V30 11278 H 1036.59 -0.156769 -3.9569 0
M  V30 11279 H 1037.77 -2.98122 -3.51369 0
M  V30 11280 H 1036.08 -2.5714 -3.27518 0
M  V30 11281 H 1038.68 -0.669811 -5.30488 0
M  V30 11282 H 1039.02 0.570204 -4.12376 0
M  V30 11283 H 1039.56 -1.10163 -3.82242 0
M  V30 11284 H 1036.3 -3.60106 -5.47726 0
M  V30 11285 H 1035.82 -1.90156 -5.68859 0
M  V30 11286 H 1037.49 -2.40345 -6.00702 0
M  V30 11287 N 1037.63 1.44308 -0.633487 0
M  V30 11288 C 1038.56 2.28943 0.108474 0
M  V30 11289 C 1039.57 1.41415 0.806582 0
M  V30 11290 O 1040.76 1.65544 0.667634 0
M  V30 11291 C 1037.86 3.17845 1.1759 0
M  V30 11292 C 1037.03 4.33802 0.559842 0
M  V30 11293 C 1036.09 5.03722 1.52154 0
M  V30 11294 O 1035.12 5.5966 1.03776 0
M  V30 11295 N 1036.32 5.05392 2.85586 0
M  V30 11296 H 1039.09 2.93262 -0.617879 0
M  V30 11297 H 1036.65 1.54781 -0.474819 0
M  V30 11298 H 1038.64 3.61485 1.81963 0
M  V30 11299 H 1037.21 2.55261 1.80445 0
M  V30 11300 H 1036.43 3.93325 -0.262559 0
M  V30 11301 H 1037.72 5.08637 0.128942 0
M  V30 11302 H 1037.11 4.61282 3.27468 0
M  V30 11303 H 1035.67 5.52813 3.45313 0
M  V30 11304 N 1039.1 0.374177 1.53094 0
M  V30 11305 C 1040.05 -0.468226 2.26001 0
M  V30 11306 C 1041.02 -1.07041 1.27009 0
M  V30 11307 O 1042.21 -1.10129 1.55809 0
M  V30 11308 C 1039.35 -1.59754 3.05896 0
M  V30 11309 C 1038.46 -1.01969 4.19793 0
M  V30 11310 C 1037.59 -2.11882 4.87113 0
M  V30 11311 C 1036.63 -1.51607 5.93028 0
M  V30 11312 N 1035.77 -2.55388 6.54004 0
M  V30 11313 H 1040.61 0.159983 2.9757 0
M  V30 11314 H 1038.15 0.0907196 1.4682 0
M  V30 11315 H 1040.11 -2.26288 3.50499 0
M  V30 11316 H 1038.74 -2.19628 2.36565 0
M  V30 11317 H 1037.79 -0.244386 3.79614 0
M  V30 11318 H 1039.1 -0.539089 4.95878 0
M  V30 11319 H 1038.25 -2.86218 5.34943 0
M  V30 11320 H 1036.99 -2.63297 4.10519 0
M  V30 11321 H 1036 -0.757891 5.44551 0
M  V30 11322 H 1037.22 -1.01006 6.71546 0
M  V30 11323 H 1035.17 -3.06 5.80258 0
M  V30 11324 H 1035.09 -2.12039 7.25655 0
M  V30 11325 H 1036.35 -3.294 7.06481 0
M  V30 11326 N 1040.58 -1.57259 0.103575 0
M  V30 11327 C 1041.81 -1.99424 -0.569638 0
M  V30 11328 C 1042.23 -0.982475 -1.60403 0
M  V30 11329 O 1041.59 0.0479231 -1.81237 0
M  V30 11330 C 1041.64 -3.40527 -1.18633 0
M  V30 11331 O 1040.74 -3.42167 -2.30208 0
M  V30 11332 H 1040.08 -0.648251 -0.143759 0
M  V30 11333 H 1042.61 -2.03739 0.187493 0
M  V30 11334 H 1042.62 -3.78404 -1.5256 0
M  V30 11335 H 1041.3 -4.13686 -0.428582 0
M  V30 11336 H 1039.88 -3.16093 -1.97837 0
M  V30 11337 N 1042.06 0.170153 -1.56679 0
M  V30 11338 C 1043.31 0.883211 -1.83224 0
M  V30 11339 C 1043.66 1.7982 -0.68429 0
M  V30 11340 O 1042.95 1.88922 0.319204 0
M  V30 11341 C 1043.15 1.71402 -3.13618 0
M  V30 11342 C 1042.98 0.880967 -4.40986 0
M  V30 11343 C 1041.75 0.555594 -5.02236 0
M  V30 11344 C 1043.95 0.221986 -5.13821 0
M  V30 11345 N 1041.93 -0.293479 -6.13198 0
M  V30 11346 C 1043.3 -0.488202 -6.18075 0
M  V30 11347 C 1045.35 0.14027 -4.97702 0
M  V30 11348 C 1044.06 -1.27236 -7.07957 0
M  V30 11349 C 1046.08 -0.630556 -5.88029 0
M  V30 11350 C 1045.44 -1.3291 -6.91747 0
M  V30 11351 H 1041.54 0.301769 -0.721429 0
M  V30 11352 H 1044.13 0.150113 -1.9412 0
M  V30 11353 H 1042.3 2.41853 -3.03911 0
M  V30 11354 H 1044.03 2.36847 -3.28155 0
M  V30 11355 H 1040.79 0.885952 -4.6524 0
M  V30 11356 H 1041.21 -0.708359 -6.73284 0
M  V30 11357 H 1045.85 0.665983 -4.17522 0
M  V30 11358 H 1043.57 -1.80941 -7.87582 0
M  V30 11359 H 1047.16 -0.695468 -5.77628 0
M  V30 11360 H 1046.04 -1.916 -7.60433 0
M  V30 11361 N 1043.54 1.5137 0.438746 0
M  V30 11362 C 1044.95 1.39514 0.775116 0
M  V30 11363 C 1045.15 0.47638 1.95788 0
M  V30 11364 O 1044.21 -0.0689832 2.52406 0
M  V30 11365 C 1045.52 2.81517 1.05681 0
M  V30 11366 C 1047.07 2.90658 1.16133 0
M  V30 11367 C 1047.55 4.33566 1.47597 0
M  V30 11368 N 1049.04 4.36665 1.54524 0
M  V30 11369 C 1049.77 5.4427 1.80438 0
M  V30 11370 N 1049.27 6.62037 2.04154 0
M  V30 11371 N 1051.06 5.31749 1.82208 0
M  V30 11372 H 1043.21 2.09657 -0.340237 0
M  V30 11373 H 1045.48 0.943736 -0.0898115 0
M  V30 11374 H 1045.18 3.50734 0.260441 0
M  V30 11375 H 1045.06 3.20757 1.98481 0
M  V30 11376 H 1047.44 2.2164 1.94833 0
M  V30 11377 H 1047.52 2.54917 0.212376 0
M  V30 11378 H 1047.17 5.03133 0.694251 0
M  V30 11379 H 1047.1 4.66819 2.43696 0
M  V30 11380 H 1049.59 3.51761 1.38105 0
M  V30 11381 H 1049.9 7.39838 2.23293 0
M  V30 11382 H 1048.25 6.65155 2.01479 0
M  V30 11383 H 1051.44 4.3873 1.63198 0
M  V30 11384 H 1051.61 6.15689 2.02067 0
M  V30 11385 N 1045.02 -0.694098 1.41492 0
M  V30 11386 C 1045.96 -1.80801 1.43456 0
M  V30 11387 C 1046.93 -1.63571 0.288757 0
M  V30 11388 O 1048.12 -1.844 0.490017 0
M  V30 11389 C 1045.26 -3.18694 1.32394 0
M  V30 11390 C 1044.37 -3.47346 2.56855 0
M  V30 11391 C 1043.51 -4.74862 2.38075 0
M  V30 11392 C 1042.55 -4.96486 3.58005 0
M  V30 11393 N 1041.68 -6.15229 3.38287 0
M  V30 11394 H 1046.52 -1.78457 2.38657 0
M  V30 11395 H 1044.06 -0.871455 1.18508 0
M  V30 11396 H 1046.02 -3.98352 1.23982 0
M  V30 11397 H 1044.65 -3.20211 0.407999 0
M  V30 11398 H 1043.7 -2.62083 2.75711 0
M  V30 11399 H 1045.01 -3.59226 3.4606 0
M  V30 11400 H 1044.17 -5.62577 2.27139 0
M  V30 11401 H 1042.9 -4.6523 1.46329 0
M  V30 11402 H 1041.91 -4.07219 3.69395 0
M  V30 11403 H 1043.13 -5.07976 4.50708 0
M  V30 11404 H 1041.08 -6.06807 2.49242 0
M  V30 11405 H 1041 -6.27883 4.21069 0
M  V30 11406 H 1042.27 -7.05674 3.31126 0
M  V30 11407 N 1046.49 -1.27344 -0.928501 0
M  V30 11408 C 1047.74 -1.13635 -1.6761 0
M  V30 11409 C 1048.07 0.317957 -1.91884 0
M  V30 11410 O 1047.32 1.24904 -1.50657 0
M  V30 11411 C 1047.62 -1.86439 -3.04918 0
M  V30 11412 C 1047.29 -3.36298 -3.00358 0
M  V30 11413 C 1045.95 -3.77173 -2.98821 0
M  V30 11414 C 1048.3 -4.31921 -2.91708 0
M  V30 11415 C 1045.63 -5.12037 -2.86417 0
M  V30 11416 C 1047.98 -5.66841 -2.80846 0
M  V30 11417 C 1046.65 -6.07011 -2.77659 0
M  V30 11418 H 1045.92 -0.415821 -0.61333 0
M  V30 11419 H 1048.56 -1.57943 -1.08288 0
M  V30 11420 H 1046.87 -1.34638 -3.6794 0
M  V30 11421 H 1048.57 -1.73261 -3.61637 0
M  V30 11422 H 1045.16 -3.0379 -3.0234 0
M  V30 11423 H 1049.34 -4.01314 -2.91994 0
M  V30 11424 H 1044.6 -5.42307 -2.82336 0
M  V30 11425 H 1048.77 -6.40608 -2.73119 0
M  V30 11426 H 1046.4 -7.11467 -2.67804 0
M  V30 11427 N 1047.97 1.13488 -1.09353 0
M  V30 11428 C 1049.22 1.85022 -0.830354 0
M  V30 11429 C 1049.55 1.83266 0.64242 0
M  V30 11430 O 1048.83 1.27024 1.47293 0
M  V30 11431 C 1049.11 3.33218 -1.36521 0
M  V30 11432 C 1048.96 3.43491 -2.90404 0
M  V30 11433 C 1050.28 4.28626 -0.998381 0
M  V30 11434 H 1047.4 0.671786 -0.303105 0
M  V30 11435 H 1050.04 1.33211 -1.3548 0
M  V30 11436 H 1048.19 3.77471 -0.919117 0
M  V30 11437 H 1049.86 3.07954 -3.43456 0
M  V30 11438 H 1048.11 2.84391 -3.27573 0
M  V30 11439 H 1048.78 4.47702 -3.22905 0
M  V30 11440 H 1051.25 3.9244 -1.38311 0
M  V30 11441 H 1050.13 5.30754 -1.39968 0
M  V30 11442 H 1050.39 4.42001 0.093517 0
M  V30 11443 N 1049.45 0.880621 1.30701 0
M  V30 11444 C 1050.41 0.349087 2.26526 0
M  V30 11445 C 1051.41 -0.505973 1.52632 0
M  V30 11446 O 1052.6 -0.313751 1.71351 0
M  V30 11447 C 1049.74 -0.503023 3.37168 0
M  V30 11448 H 1050.93 1.19516 2.75056 0
M  V30 11449 H 1048.48 0.657107 1.41816 0
M  V30 11450 H 1049.22 -1.36986 2.93948 0
M  V30 11451 H 1049 0.109389 3.91947 0
M  V30 11452 H 1050.49 -0.866845 4.08504 0
M  V30 11453 N 1050.93 -1.4397 0.641131 0
M  V30 11454 C 1052.35 -1.56607 0.30762 0
M  V30 11455 C 1052.55 -1.62694 -1.18882 0
M  V30 11456 O 1051.6 -1.57541 -1.97325 0
M  V30 11457 C 1052.91 -2.83289 1.00834 0
M  V30 11458 C 1054.46 -2.97016 0.98744 0
M  V30 11459 C 1054.94 -4.26514 1.66882 0
M  V30 11460 N 1056.43 -4.33351 1.63589 0
M  V30 11461 C 1057.16 -5.32292 2.13196 0
M  V30 11462 N 1056.66 -6.37582 2.71038 0
M  V30 11463 N 1058.45 -5.23866 2.03766 0
M  V30 11464 H 1050.6 -1.38262 1.61237 0
M  V30 11465 H 1052.87 -0.663221 0.677378 0
M  V30 11466 H 1052.57 -2.84812 2.06337 0
M  V30 11467 H 1052.45 -3.73134 0.552333 0
M  V30 11468 H 1054.83 -2.95041 -0.0591395 0
M  V30 11469 H 1054.91 -2.08493 1.48203 0
M  V30 11470 H 1054.56 -4.2925 2.71491 0
M  V30 11471 H 1054.49 -5.13912 1.14898 0
M  V30 11472 H 1056.98 -3.5788 1.21368 0
M  V30 11473 H 1057.29 -7.09378 3.06597 0
M  V30 11474 H 1055.64 -6.38239 2.75093 0
M  V30 11475 H 1058.83 -4.40524 1.58291 0
M  V30 11476 H 1059 -6.00819 2.42737 0
M  V30 11477 N 1052.41 -0.382291 -1.52893 0
M  V30 11478 C 1053.35 0.456234 -2.26246 0
M  V30 11479 C 1054.32 1.06366 -1.27575 0
M  V30 11480 O 1055.51 1.09301 -1.5639 0
M  V30 11481 C 1052.65 1.5813 -3.06739 0
M  V30 11482 C 1051.76 0.997416 -4.20328 0
M  V30 11483 C 1050.9 2.09296 -4.8823 0
M  V30 11484 C 1049.94 1.4846 -5.93823 0
M  V30 11485 N 1049.07 2.51916 -6.55349 0
M  V30 11486 H 1053.91 -0.175761 -2.97481 0
M  V30 11487 H 1051.45 -0.0985046 -1.4677 0
M  V30 11488 H 1053.41 2.24426 -3.51694 0
M  V30 11489 H 1052.04 2.18371 -2.37727 0
M  V30 11490 H 1051.09 0.224251 -3.79738 0
M  V30 11491 H 1052.4 0.512784 -4.96157 0
M  V30 11492 H 1051.56 2.83377 -5.36453 0
M  V30 11493 H 1050.3 2.61116 -4.1191 0
M  V30 11494 H 1049.3 0.729001 -5.44946 0
M  V30 11495 H 1050.53 0.97443 -6.72073 0
M  V30 11496 H 1048.47 3.02919 -5.81873 0
M  V30 11497 H 1048.39 2.08188 -7.26769 0
M  V30 11498 H 1049.66 3.25649 -7.08218 0
M  V30 11499 N 1053.89 1.57202 -0.111913 0
M  V30 11500 C 1054.83 2.14936 0.840908 0
M  V30 11501 C 1055.8 1.07242 1.2684 0
M  V30 11502 O 1056.99 1.35114 1.34718 0
M  V30 11503 C 1054.13 2.74743 2.0883 0
M  V30 11504 C 1053.24 3.96723 1.70982 0
M  V30 11505 C 1052.38 4.4464 2.90634 0
M  V30 11506 C 1051.41 5.59169 2.48992 0
M  V30 11507 N 1050.55 6.01862 3.61534 0
M  V30 11508 H 1055.39 2.96034 0.341735 0
M  V30 11509 H 1052.93 1.4626 0.156993 0
M  V30 11510 H 1054.89 3.07546 2.81907 0
M  V30 11511 H 1053.52 1.96346 2.56218 0
M  V30 11512 H 1052.57 3.70127 0.878072 0
M  V30 11513 H 1053.88 4.79795 1.36373 0
M  V30 11514 H 1053.03 4.79315 3.71944 0
M  V30 11515 H 1051.77 3.60503 3.28464 0
M  V30 11516 H 1050.78 5.24106 1.66113 0
M  V30 11517 H 1052 6.45067 2.12287 0
M  V30 11518 H 1049.95 5.20667 3.99051 0
M  V30 11519 H 1049.87 6.79772 3.30827 0
M  V30 11520 H 1051.13 6.41172 4.43305 0
M  V30 11521 N 1055.36 -0.161842 1.56767 0
M  V30 11522 C 1056.59 -0.890953 1.86402 0
M  V30 11523 C 1057 -1.75918 0.696373 0
M  V30 11524 O 1056.34 -1.80461 -0.343463 0
M  V30 11525 C 1056.41 -1.81079 3.10565 0
M  V30 11526 C 1056.07 -1.12121 4.43032 0
M  V30 11527 C 1057.07 -0.482152 5.17659 0
M  V30 11528 C 1054.75 -1.11514 4.89765 0
M  V30 11529 C 1056.75 0.153772 6.37214 0
M  V30 11530 C 1054.43 -0.4754 6.09248 0
M  V30 11531 C 1055.43 0.157944 6.82817 0
M  V30 11532 O 1055.12 0.787579 8.00033 0
M  V30 11533 H 1054.85 -0.26379 0.622407 0
M  V30 11534 H 1057.41 -0.163884 2.04745 0
M  V30 11535 H 1055.64 -2.57842 2.88192 0
M  V30 11536 H 1057.32 -2.41056 3.26568 0
M  V30 11537 H 1058.09 -0.478752 4.82631 0
M  V30 11538 H 1053.97 -1.59752 4.32435 0
M  V30 11539 H 1057.51 0.648716 6.94577 0
M  V30 11540 H 1053.41 -0.476416 6.43739 0
M  V30 11541 H 1054.18 0.687769 8.15605 0
M  V30 11542 N 1056.84 -1.516 -0.430713 0
M  V30 11543 C 1058.09 -1.6484 -1.18134 0
M  V30 11544 C 1058.42 -0.366725 -1.90706 0
M  V30 11545 O 1057.7 0.63398 -1.83878 0
M  V30 11546 C 1057.98 -2.85617 -2.19306 0
M  V30 11547 C 1057.83 -4.23778 -1.50773 0
M  V30 11548 C 1059.15 -3.01909 -3.20217 0
M  V30 11549 H 1056.27 -0.599907 -0.428113 0
M  V30 11550 H 1058.91 -1.84102 -0.46973 0
M  V30 11551 H 1057.06 -2.69325 -2.79993 0
M  V30 11552 H 1058.73 -4.51752 -0.93371 0
M  V30 11553 H 1056.98 -4.26171 -0.809966 0
M  V30 11554 H 1057.65 -5.04291 -2.24487 0
M  V30 11555 H 1060.12 -3.16956 -2.69589 0
M  V30 11556 H 1059 -3.87968 -3.88293 0
M  V30 11557 H 1059.26 -2.1427 -3.86705 0
M  V30 11558 N 1058.32 0.686584 -1.41858 0
M  V30 11559 C 1059.25 1.81202 -1.40352 0
M  V30 11560 C 1060.26 1.5993 -0.304322 0
M  V30 11561 O 1061.45 1.69267 -0.566643 0
M  V30 11562 C 1058.55 3.18116 -1.16856 0
M  V30 11563 C 1057.73 3.66339 -2.38987 0
M  V30 11564 C 1056.79 4.8195 -2.11212 0
M  V30 11565 O 1055.81 4.93102 -2.84323 0
M  V30 11566 N 1057.01 5.69829 -1.10793 0
M  V30 11567 H 1059.78 1.82983 -2.37355 0
M  V30 11568 H 1057.34 0.869244 -1.36586 0
M  V30 11569 H 1059.33 3.93097 -0.962125 0
M  V30 11570 H 1057.9 3.11306 -0.284186 0
M  V30 11571 H 1057.12 2.82166 -2.75274 0
M  V30 11572 H 1058.41 3.95297 -3.2034 0
M  V30 11573 H 1057.81 5.63459 -0.503012 0
M  V30 11574 H 1056.36 6.44671 -0.961379 0
M  V30 11575 N 1059.8 1.27835 0.921735 0
M  V30 11576 C 1060.73 1.05397 2.02402 0
M  V30 11577 C 1061.71 -0.0274904 1.62577 0
M  V30 11578 O 1062.89 0.11885 1.88125 0
M  V30 11579 C 1060.02 0.600016 3.33343 0
M  V30 11580 C 1059.07 1.67693 3.9215 0
M  V30 11581 S 1059.9 3.27093 4.23994 0
M  V30 11582 C 1061.05 2.83513 5.58006 0
M  V30 11583 H 1061.29 1.98723 2.21125 0
M  V30 11584 H 1058.82 1.11733 1.0656 0
M  V30 11585 H 1060.78 0.344793 4.09049 0
M  V30 11586 H 1059.44 -0.313288 3.12534 0
M  V30 11587 H 1058.63 1.31074 4.86658 0
M  V30 11588 H 1058.23 1.88454 3.2305 0
M  V30 11589 H 1060.53 2.29187 6.37557 0
M  V30 11590 H 1061.47 3.76788 5.9953 0
M  V30 11591 H 1061.88 2.22472 5.18813 0
M  V30 11592 N 1061.28 -1.12907 1.09954 0
M  V30 11593 C 1062.69 -1.363 0.830326 0
M  V30 11594 C 1062.89 -1.93772 -0.552694 0
M  V30 11595 O 1061.95 -2.1607 -1.30652 0
M  V30 11596 C 1063.26 -2.30925 1.92598 0
M  V30 11597 C 1064.81 -2.44528 1.95385 0
M  V30 11598 C 1065.28 -3.42464 3.0411 0
M  V30 11599 N 1066.77 -3.50018 3.03384 0
M  V30 11600 C 1067.51 -4.25693 3.84152 0
M  V30 11601 N 1067.01 -5.04476 4.74843 0
M  V30 11602 N 1068.8 -4.21049 3.7239 0
M  V30 11603 H 1060.95 -0.739571 1.99108 0
M  V30 11604 H 1063.21 -0.387983 0.86497 0
M  V30 11605 H 1062.92 -1.95861 2.92115 0
M  V30 11606 H 1062.79 -3.30997 1.80889 0
M  V30 11607 H 1065.18 -2.78875 0.965037 0
M  V30 11608 H 1065.26 -1.44361 2.11172 0
M  V30 11609 H 1064.9 -3.08847 4.03207 0
M  V30 11610 H 1064.83 -4.42448 2.85565 0
M  V30 11611 H 1067.33 -2.93809 2.37665 0
M  V30 11612 H 1067.64 -5.59541 5.33042 0
M  V30 11613 H 1065.98 -5.0369 4.78875 0
M  V30 11614 H 1069.17 -3.5858 3.00895 0
M  V30 11615 H 1069.35 -4.79771 4.35572 0
M  V30 11616 N 1062.75 -0.88754 -1.30232 0
M  V30 11617 C 1063.66 -0.360333 -2.31816 0
M  V30 11618 C 1064.68 0.538741 -1.6545 0
M  V30 11619 O 1065.86 0.431246 -1.96729 0
M  V30 11620 C 1062.92 0.414336 -3.44215 0
M  V30 11621 C 1061.98 -0.514799 -4.26202 0
M  V30 11622 C 1061.21 0.222994 -5.33234 0
M  V30 11623 O 1061.44 1.44871 -5.51696 0
M  V30 11624 O 1060.37 -0.428221 -6.00375 0
M  V30 11625 H 1064.2 -1.20279 -2.78867 0
M  V30 11626 H 1061.78 -0.651459 -1.34448 0
M  V30 11627 H 1063.66 0.852859 -4.12679 0
M  V30 11628 H 1062.34 1.23305 -2.99295 0
M  V30 11629 H 1061.25 -1.00219 -3.60426 0
M  V30 11630 H 1062.58 -1.29959 -4.74733 0
M  V30 11631 N 1064.23 1.43628 -0.648757 0
M  V30 11632 C 1065.14 2.34554 0.0463037 0
M  V30 11633 C 1066.16 1.53629 0.816952 0
M  V30 11634 O 1067.33 1.86297 0.765212 0
M  V30 11635 C 1064.4 3.3185 1.00381 0
M  V30 11636 C 1063.46 4.2868 0.230589 0
M  V30 11637 C 1062.69 5.21328 1.14249 0
M  V30 11638 O 1062.92 5.18298 2.38166 0
M  V30 11639 O 1061.85 5.98726 0.617296 0
M  V30 11640 H 1065.68 2.95475 -0.702008 0
M  V30 11641 H 1063.26 1.43694 -0.408942 0
M  V30 11642 H 1065.14 3.91692 1.5542 0
M  V30 11643 H 1063.82 2.73439 1.73243 0
M  V30 11644 H 1062.73 3.72332 -0.363282 0
M  V30 11645 H 1064.06 4.90061 -0.458368 0
M  V30 11646 N 1065.71 0.390394 1.52688 0
M  V30 11647 C 1066.67 -0.432149 2.25089 0
M  V30 11648 C 1067.67 -0.989296 1.26766 0
M  V30 11649 O 1068.86 -0.871126 1.50854 0
M  V30 11650 C 1066 -1.60642 3.00678 0
M  V30 11651 H 1067.19 0.201734 2.99221 0
M  V30 11652 H 1064.74 0.142531 1.55649 0
M  V30 11653 H 1065.48 -2.2777 2.3085 0
M  V30 11654 H 1065.26 -1.21361 3.72846 0
M  V30 11655 H 1066.75 -2.18873 3.55647 0
M  V30 11656 N 1067.19 -1.57141 0.120249 0
M  V30 11657 C 1068.41 -2.00017 -0.548454 0
M  V30 11658 C 1068.84 -0.999433 -1.59352 0
M  V30 11659 O 1068.2 0.0286978 -1.81277 0
M  V30 11660 C 1068.24 -3.41766 -1.15015 0
M  V30 11661 O 1067.35 -3.44589 -2.26566 0
M  V30 11662 H 1066.69 -0.649739 -0.136875 0
M  V30 11663 H 1069.22 -2.03529 0.209092 0
M  V30 11664 H 1069.23 -3.80001 -1.48537 0
M  V30 11665 H 1067.9 -4.14117 -0.384681 0
M  V30 11666 H 1066.48 -3.18174 -1.94473 0
M  V30 11667 N 1068.67 0.153526 -1.5685 0
M  V30 11668 C 1069.94 0.895545 -1.73895 0
M  V30 11669 C 1070.32 1.99625 -0.686504 0
M  V30 11670 O 1069.67 2.26579 0.2957 0
M  V30 11671 C 1069.88 1.44399 -3.17726 0
M  V30 11672 C 1071.23 1.90996 -3.79217 0
M  V30 11673 O 1072.25 1.54155 -3.21115 0
M  V30 11674 O 1071.11 2.58917 -4.81274 0
M  V30 11675 H 1068.21 0.422755 -0.710779 0
M  V30 11676 H 1070.75 0.139961 -1.69122 0
M  V30 11677 H 1069.52 0.652635 -3.85819 0
M  V30 11678 H 1069.15 2.26326 -3.26898 0
M  V30 11679 N 1070.14 1.51827 0.422667 0
M  V30 11680 C 1071.07 1.77152 1.52117 0
M  V30 11681 C 1072.06 0.621895 1.58324 0
M  V30 11682 O 1073.24 0.866118 1.73816 0
M  V30 11683 C 1070.37 1.90991 2.90068 0
M  V30 11684 C 1069.32 3.06516 2.98717 0
M  V30 11685 C 1068.65 3.05559 4.38791 0
M  V30 11686 C 1069.95 4.46223 2.71445 0
M  V30 11687 H 1071.64 2.69135 1.31175 0
M  V30 11688 H 1069.19 1.29507 0.629607 0
M  V30 11689 H 1071.14 2.07291 3.6689 0
M  V30 11690 H 1069.87 0.956688 3.12274 0
M  V30 11691 H 1068.53 2.89945 2.24338 0
M  V30 11692 H 1068.17 2.07985 4.57986 0
M  V30 11693 H 1067.87 3.83144 4.45505 0
M  V30 11694 H 1069.4 3.23971 5.17566 0
M  V30 11695 H 1070.81 4.63069 3.37994 0
M  V30 11696 H 1069.21 5.25623 2.89552 0
M  V30 11697 H 1070.28 4.5525 1.6696 0
M  V30 11698 N 1071.62 -0.679052 1.4222 0
M  V30 11699 C 1072.55 -1.80481 1.48152 0
M  V30 11700 C 1073.53 -1.66698 0.338502 0
M  V30 11701 O 1074.72 -1.86183 0.552228 0
M  V30 11702 C 1071.85 -3.18746 1.37908 0
M  V30 11703 C 1070.8 -3.47258 2.50192 0
M  V30 11704 C 1070.13 -4.85052 2.25008 0
M  V30 11705 C 1071.43 -3.44576 3.92511 0
M  V30 11706 H 1073.12 -1.75774 2.42371 0
M  V30 11707 H 1070.67 -0.844241 1.16656 0
M  V30 11708 H 1072.62 -3.97229 1.40666 0
M  V30 11709 H 1071.35 -3.24119 0.401806 0
M  V30 11710 H 1070 -2.71133 2.46744 0
M  V30 11711 H 1069.65 -4.8707 1.25584 0
M  V30 11712 H 1069.35 -5.05092 3.00259 0
M  V30 11713 H 1070.88 -5.65825 2.29508 0
M  V30 11714 H 1072.29 -4.13036 3.97585 0
M  V30 11715 H 1070.69 -3.76151 4.67579 0
M  V30 11716 H 1071.76 -2.4323 4.19484 0
M  V30 11717 N 1073.1 -1.28322 -0.914942 0
M  V30 11718 C 1074.03 -1.14681 -2.03398 0
M  V30 11719 C 1075.01 -0.0448939 -1.70041 0
M  V30 11720 O 1076.2 -0.221672 -1.92931 0
M  V30 11721 C 1073.33 -0.806623 -3.37803 0
M  V30 11722 C 1072.28 -1.86318 -3.85318 0
M  V30 11723 C 1071.61 -1.37665 -5.16674 0
M  V30 11724 C 1072.91 -3.26953 -4.07307 0
M  V30 11725 H 1074.6 -2.08293 -2.15068 0
M  V30 11726 H 1072.15 -1.00284 -1.03339 0
M  V30 11727 H 1074.1 -0.69796 -4.1558 0
M  V30 11728 H 1072.82 0.165203 -3.26182 0
M  V30 11729 H 1071.48 -1.96096 -3.09745 0
M  V30 11730 H 1071.13 -0.393927 -5.01455 0
M  V30 11731 H 1070.83 -2.08313 -5.49435 0
M  V30 11732 H 1072.35 -1.28119 -5.97007 0
M  V30 11733 H 1073.77 -3.20102 -4.75613 0
M  V30 11734 H 1072.17 -3.95424 -4.51398 0
M  V30 11735 H 1073.24 -3.71059 -3.12159 0
M  V30 11736 N 1074.58 1.12322 -1.10551 0
M  V30 11737 C 1075.53 2.20166 -0.750317 0
M  V30 11738 C 1076.52 1.67484 0.254066 0
M  V30 11739 O 1077.73 1.79637 0.114309 0
M  V30 11740 H 1074.1 0.717642 -0.22471 0
M  V30 11741 H 1076.07 2.47378 -1.66873 0
M  V30 11742 C 1074.82 3.47126 -0.199651 0
M  V30 11743 H 1074.14 3.88011 -0.963735 0
M  V30 11744 H 1075.58 4.23999 0.0108033 0
M  V30 11745 C 1074.04 3.19526 1.06792 0
M  V30 11746 O 1074.57 3.39368 2.14923 0
M  V30 11747 N 1072.78 2.73324 0.987032 0
M  V30 11748 H 1072.33 2.57378 0.106997 0
M  V30 11749 H 1072.28 2.55234 1.83584 0
M  V30 11750 N 1076.06 0.894434 1.2976 0
M  V30 11751 C 1077 0.366586 2.2787 0
M  V30 11752 C 1077.97 -0.548425 1.56785 0
M  V30 11753 O 1079.16 -0.474804 1.84798 0
M  V30 11754 C 1076.3 -0.404531 3.42721 0
M  V30 11755 C 1075.41 0.540774 4.28602 0
M  V30 11756 C 1074.55 -0.246875 5.30626 0
M  V30 11757 C 1073.59 0.693294 6.08161 0
M  V30 11758 N 1072.72 -0.059619 7.02075 0
M  V30 11759 H 1077.56 1.20834 2.72402 0
M  V30 11760 H 1075.1 0.607205 1.33983 0
M  V30 11761 H 1077.06 -0.86762 4.08079 0
M  V30 11762 H 1075.69 -1.21078 2.99232 0
M  V30 11763 H 1074.74 1.12237 3.63465 0
M  V30 11764 H 1076.05 1.26065 4.82606 0
M  V30 11765 H 1075.21 -0.771398 6.01776 0
M  V30 11766 H 1073.94 -0.999918 4.77339 0
M  V30 11767 H 1072.95 1.22936 5.35879 0
M  V30 11768 H 1074.17 1.44558 6.63536 0
M  V30 11769 H 1072.12 -0.795026 6.51165 0
M  V30 11770 H 1072.04 0.60045 7.53612 0
M  V30 11771 H 1073.31 -0.564577 7.77453 0
M  V30 11772 N 1077.53 -1.43282 0.656365 0
M  V30 11773 C 1078.48 -2.30776 -0.0333155 0
M  V30 11774 C 1079.45 -1.44928 -0.811493 0
M  V30 11775 O 1080.64 -1.73792 -0.787465 0
M  V30 11776 C 1077.78 -3.30548 -0.991566 0
M  V30 11777 C 1076.89 -4.31493 -0.209159 0
M  V30 11778 C 1076.02 -5.18346 -1.16149 0
M  V30 11779 C 1075.06 -6.10983 -0.369699 0
M  V30 11780 N 1074.2 -6.90449 -1.27378 0
M  V30 11781 H 1079.04 -2.89204 0.718668 0
M  V30 11782 H 1076.58 -1.4247 0.366161 0
M  V30 11783 H 1078.54 -3.86905 -1.56078 0
M  V30 11784 H 1077.17 -2.73762 -1.71039 0
M  V30 11785 H 1076.22 -3.77405 0.476394 0
M  V30 11786 H 1077.53 -4.97142 0.406394 0
M  V30 11787 H 1076.68 -5.79345 -1.80124 0
M  V30 11788 H 1075.42 -4.52831 -1.81095 0
M  V30 11789 H 1074.43 -5.49069 0.283377 0
M  V30 11790 H 1075.65 -6.78541 0.275399 0
M  V30 11791 H 1073.6 -6.27579 -1.90999 0
M  V30 11792 H 1073.52 -7.52631 -0.71287 0
M  V30 11793 H 1074.78 -7.5595 -1.90158 0
M  V30 11794 N 1079.01 -0.398486 -1.52479 0
M  V30 11795 C 1079.92 0.439328 -2.3045 0
M  V30 11796 C 1080.94 1.06322 -1.37738 0
M  V30 11797 O 1082.12 1.06704 -1.7081 0
M  V30 11798 C 1079.18 1.54655 -3.10294 0
M  V30 11799 C 1078.24 0.946824 -4.18729 0
M  V30 11800 C 1077.47 2.00129 -4.94757 0
M  V30 11801 O 1077.7 3.2178 -4.70971 0
M  V30 11802 O 1076.63 1.61345 -5.79872 0
M  V30 11803 H 1080.46 -0.196118 -3.03066 0
M  V30 11804 H 1078.04 -0.161961 -1.4852 0
M  V30 11805 H 1079.92 2.18958 -3.60049 0
M  V30 11806 H 1078.6 2.1668 -2.40482 0
M  V30 11807 H 1077.51 0.266802 -3.73147 0
M  V30 11808 H 1078.84 0.370664 -4.90802 0
M  V30 11809 N 1080.49 1.57075 -0.12858 0
M  V30 11810 C 1081.91 1.57964 0.227961 0
M  V30 11811 C 1082.11 1.14186 1.66023 0
M  V30 11812 O 1081.16 0.833655 2.38341 0
M  V30 11813 C 1082.48 3.00697 -0.0140648 0
M  V30 11814 C 1084.02 3.12958 0.0510876 0
M  V30 11815 C 1084.5 4.57709 -0.163368 0
M  V30 11816 N 1085.99 4.6307 -0.109663 0
M  V30 11817 C 1086.73 5.72853 -0.250366 0
M  V30 11818 N 1086.22 6.91351 -0.447772 0
M  V30 11819 N 1088.01 5.61781 -0.189265 0
M  V30 11820 H 1080.17 1.83829 -1.06398 0
M  V30 11821 H 1082.43 0.850014 -0.419739 0
M  V30 11822 H 1082.13 3.37047 -1.00461 0
M  V30 11823 H 1082.01 3.70389 0.713571 0
M  V30 11824 H 1084.4 2.7646 1.03216 0
M  V30 11825 H 1084.48 2.4579 -0.708583 0
M  V30 11826 H 1084.12 4.94907 -1.14146 0
M  V30 11827 H 1084.05 5.2298 0.616405 0
M  V30 11828 H 1086.54 3.7788 0.0390086 0
M  V30 11829 H 1086.85 7.70871 -0.54574 0
M  V30 11830 H 1085.2 6.93314 -0.483866 0
M  V30 11831 H 1088.39 4.68086 -0.0359374 0
M  V30 11832 H 1088.56 6.47294 -0.302359 0
M  V30 11833 N 1081.97 -0.145205 1.5693 0
M  V30 11834 C 1083.39 -0.497905 1.51635 0
M  V30 11835 C 1083.59 -1.8328 0.837301 0
M  V30 11836 O 1082.64 -2.49172 0.408584 0
M  V30 11837 C 1083.95 -0.506557 2.96403 0
M  V30 11838 C 1085.5 -0.591947 3.07352 0
M  V30 11839 C 1085.98 -0.631244 4.53629 0
M  V30 11840 N 1087.47 -0.693417 4.5798 0
M  V30 11841 C 1088.2 -0.744836 5.68542 0
M  V30 11842 N 1087.7 -0.755492 6.88668 0
M  V30 11843 N 1089.49 -0.785854 5.5658 0
M  V30 11844 H 1081.64 0.729779 1.99469 0
M  V30 11845 H 1083.91 0.266295 0.90983 0
M  V30 11846 H 1083.61 0.406127 3.49347 0
M  V30 11847 H 1083.49 -1.34383 3.5245 0
M  V30 11848 H 1085.87 -1.49505 2.54425 0
M  V30 11849 H 1085.95 0.272507 2.54344 0
M  V30 11850 H 1085.6 0.26771 5.07194 0
M  V30 11851 H 1085.53 -1.51221 5.0442 0
M  V30 11852 H 1088.02 -0.692408 3.71503 0
M  V30 11853 H 1088.33 -0.796624 7.68683 0
M  V30 11854 H 1086.68 -0.723339 6.91226 0
M  V30 11855 H 1089.87 -0.774712 4.61645 0
M  V30 11856 H 1090.04 -0.822461 6.42759 0
M  V30 11857 N 1083.45 -1.52049 -0.414609 0
M  V30 11858 C 1084.86 -1.40729 -0.752822 0
M  V30 11859 C 1085.06 -0.507468 -1.95005 0
M  V30 11860 O 1084.12 0.0288189 -2.52484 0
M  V30 11861 C 1085.43 -2.83163 -1.01189 0
M  V30 11862 C 1086.98 -2.92469 -1.11494 0
M  V30 11863 C 1087.46 -4.35859 -1.4068 0
M  V30 11864 N 1088.95 -4.39069 -1.47557 0
M  V30 11865 C 1089.68 -5.47072 -1.71756 0
M  V30 11866 N 1089.18 -6.65201 -1.93595 0
M  V30 11867 N 1090.97 -5.3458 -1.73726 0
M  V30 11868 H 1083.12 -2.09089 0.373549 0
M  V30 11869 H 1085.38 -0.942188 0.104814 0
M  V30 11870 H 1085.09 -3.51104 -0.204609 0
M  V30 11871 H 1084.96 -3.23874 -1.93353 0
M  V30 11872 H 1087.35 -2.24711 -1.91282 0
M  V30 11873 H 1087.43 -2.55222 -0.171794 0
M  V30 11874 H 1087.08 -5.04174 -0.614119 0
M  V30 11875 H 1087.01 -4.70637 -2.36238 0
M  V30 11876 H 1089.5 -3.53913 -1.32491 0
M  V30 11877 H 1089.81 -7.43297 -2.11495 0
M  V30 11878 H 1088.16 -6.68276 -1.90871 0
M  V30 11879 H 1091.35 -4.41271 -1.56198 0
M  V30 11880 H 1091.52 -6.18826 -1.92246 0
M  V30 11881 N 1084.93 0.6715 -1.42579 0
M  V30 11882 C 1085.87 1.80623 -1.46554 0
M  V30 11883 C 1086.87 1.65934 -0.340932 0
M  V30 11884 O 1088.07 1.72502 -0.514098 0
M  V30 11885 H 1084.45 0.595619 -0.459067 0
M  V30 11886 H 1086.42 1.74388 -2.42139 0
M  V30 11887 C 1085.17 3.18794 -1.38801 0
M  V30 11888 H 1084.49 3.30725 -2.24635 0
M  V30 11889 H 1085.93 3.98201 -1.45645 0
M  V30 11890 C 1084.39 3.36742 -0.103219 0
M  V30 11891 O 1084.92 3.92761 0.842715 0
M  V30 11892 N 1083.13 2.90594 -0.0193034 0
M  V30 11893 H 1082.67 2.45192 -0.78986 0
M  V30 11894 H 1082.63 3.0298 0.839686 0
M  V30 11895 N 1086.4 1.28806 0.908124 0
M  V30 11896 C 1087.63 1.19271 1.69674 0
M  V30 11897 C 1088.05 -0.244403 1.86505 0
M  V30 11898 O 1087.41 -1.17668 1.37927 0
M  V30 11899 C 1087.46 1.9023 3.06341 0
M  V30 11900 O 1086.56 1.2136 3.94139 0
M  V30 11901 H 1085.9 0.413738 0.519343 0
M  V30 11902 H 1088.43 1.70227 1.13508 0
M  V30 11903 H 1088.44 1.98356 3.56537 0
M  V30 11904 H 1087.12 2.94762 2.93408 0
M  V30 11905 H 1085.7 1.21435 3.52573 0
M  V30 11906 N 1087.88 -1.11734 1.11145 0
M  V30 11907 C 1089.13 -1.82766 0.853194 0
M  V30 11908 C 1089.44 -1.85408 -0.623168 0
M  V30 11909 O 1090.65 -2.52509 -0.997574 0
M  V30 11910 C 1089.11 -3.28215 1.47658 0
M  V30 11911 C 1088.71 -3.33911 2.98676 0
M  V30 11912 C 1090.46 -4.04168 1.29803 0
M  V30 11913 C 1088.36 -4.73739 3.54013 0
M  V30 11914 H 1087.29 -0.684807 0.315523 0
M  V30 11915 H 1089.95 -1.25756 1.33633 0
M  V30 11916 H 1088.33 -3.85138 0.921116 0
M  V30 11917 H 1089.5 -2.86887 3.606 0
M  V30 11918 H 1087.82 -2.71437 3.15771 0
M  V30 11919 H 1090.41 -5.07429 1.68582 0
M  V30 11920 H 1090.76 -4.15606 0.240302 0
M  V30 11921 H 1091.29 -3.53623 1.82196 0
M  V30 11922 H 1088.03 -4.67497 4.59485 0
M  V30 11923 H 1087.55 -5.21186 2.9686 0
M  V30 11924 H 1089.23 -5.42691 3.52271 0
M  V30 11925 N 1089.36 -0.901303 -1.29284 0
M  V30 11926 C 1090.31 -0.370142 -2.29636 0
M  V30 11927 C 1091.3 0.53157 -1.60844 0
M  V30 11928 O 1092.51 0.414194 -1.7517 0
M  V30 11929 H 1088.88 -0.101072 -0.745177 0
M  V30 11930 H 1090.85 -1.22985 -2.71877 0
M  V30 11931 C 1089.6 0.385806 -3.45553 0
M  V30 11932 H 1088.93 -0.298818 -3.98682 0
M  V30 11933 H 1090.37 0.722299 -4.17802 0
M  V30 11934 C 1088.82 1.58907 -2.97069 0
M  V30 11935 O 1089.35 2.68835 -2.98481 0
M  V30 11936 N 1087.56 1.43178 -2.5288 0
M  V30 11937 H 1087.11 0.537467 -2.51931 0
M  V30 11938 H 1087.07 2.23819 -2.208 0
M  V30 11939 N 1090.84 1.42931 -0.663954 0
M  V30 11940 C 1092.25 1.56098 -0.332496 0
M  V30 11941 C 1092.45 1.64564 1.16279 0
M  V30 11942 O 1091.51 1.6066 1.94794 0
M  V30 11943 C 1092.82 2.81649 -1.05329 0
M  V30 11944 C 1094.37 2.95408 -1.03457 0
M  V30 11945 C 1094.85 4.23805 -1.73647 0
M  V30 11946 N 1096.34 4.30693 -1.70462 0
M  V30 11947 C 1097.07 5.28833 -2.21637 0
M  V30 11948 N 1096.57 6.33189 -2.81147 0
M  V30 11949 N 1098.36 5.20558 -2.12075 0
M  V30 11950 H 1090.51 1.3568 -1.63416 0
M  V30 11951 H 1092.77 0.652361 -0.687844 0
M  V30 11952 H 1092.48 2.81494 -2.10842 0
M  V30 11953 H 1092.35 3.72208 -0.611626 0
M  V30 11954 H 1094.74 2.95097 0.0121936 0
M  V30 11955 H 1094.82 2.06109 -1.51502 0
M  V30 11956 H 1094.47 4.24876 -2.78285 0
M  V30 11957 H 1094.4 5.12019 -1.2306 0
M  V30 11958 H 1096.89 3.55904 -1.27046 0
M  V30 11959 H 1097.2 7.04411 -3.17844 0
M  V30 11960 H 1095.55 6.33781 -2.85212 0
M  V30 11961 H 1098.74 4.3795 -1.6528 0
M  V30 11962 H 1098.91 5.96881 -2.52264 0
M  V30 11963 N 1092.32 0.406567 1.52266 0
M  V30 11964 C 1093.26 -0.43489 2.28498 0
M  V30 11965 C 1094.26 -1.04806 1.33086 0
M  V30 11966 O 1095.46 -0.986557 1.50556 0
M  V30 11967 H 1091.84 -0.159023 0.734994 0
M  V30 11968 H 1093.81 0.229316 2.97518 0
M  V30 11969 C 1092.56 -1.54073 3.117 0
M  V30 11970 H 1091.88 -1.07824 3.84986 0
M  V30 11971 H 1093.32 -2.10337 3.6815 0
M  V30 11972 C 1091.78 -2.50662 2.251 0
M  V30 11973 O 1092.31 -3.54486 1.88951 0
M  V30 11974 N 1090.52 -2.20811 1.8892 0
M  V30 11975 H 1090.06 -1.36413 2.18516 0
M  V30 11976 H 1090.02 -2.85684 1.3127 0
M  V30 11977 N 1093.79 -1.57004 0.136909 0
M  V30 11978 C 1095.04 -1.95797 -0.516711 0
M  V30 11979 C 1095.37 -1.02123 -1.65533 0
M  V30 11980 O 1094.62 -0.0484835 -1.9564 0
M  V30 11981 C 1094.92 -3.40903 -1.07331 0
M  V30 11982 C 1094.59 -4.50867 -0.0541941 0
M  V30 11983 C 1093.25 -4.80669 0.225988 0
M  V30 11984 C 1095.6 -5.17264 0.639361 0
M  V30 11985 C 1092.93 -5.74177 1.2057 0
M  V30 11986 C 1095.28 -6.11827 1.60783 0
M  V30 11987 C 1093.95 -6.40012 1.89581 0
M  V30 11988 H 1093.22 -0.716471 -0.189078 0
M  V30 11989 H 1095.86 -1.90213 0.221605 0
M  V30 11990 H 1094.17 -3.43268 -1.88876 0
M  V30 11991 H 1095.87 -3.6824 -1.58745 0
M  V30 11992 H 1092.46 -4.27666 -0.282754 0
M  V30 11993 H 1096.64 -4.9438 0.436085 0
M  V30 11994 H 1091.9 -5.94312 1.43538 0
M  V30 11995 H 1096.07 -6.62354 2.15081 0
M  V30 11996 H 1093.7 -7.12274 2.65649 0
M  V30 11997 N 1095.27 0.136881 -1.57004 0
M  V30 11998 C 1096.52 0.846257 -1.83088 0
M  V30 11999 C 1096.83 1.81876 -0.719765 0
M  V30 12000 O 1098.04 2.57302 -0.866494 0
M  V30 12001 C 1096.5 1.55559 -3.24545 0
M  V30 12002 C 1096.1 0.624989 -4.43619 0
M  V30 12003 C 1097.85 2.25115 -3.59893 0
M  V30 12004 C 1095.76 1.33653 -5.761 0
M  V30 12005 H 1094.69 0.319768 -0.682836 0
M  V30 12006 H 1097.34 0.0989741 -1.83233 0
M  V30 12007 H 1095.72 2.34887 -3.18817 0
M  V30 12008 H 1096.89 -0.133783 -4.60606 0
M  V30 12009 H 1095.21 0.0373216 -4.16383 0
M  V30 12010 H 1097.8 2.79008 -4.56134 0
M  V30 12011 H 1098.15 3.02084 -2.86446 0
M  V30 12012 H 1098.68 1.52696 -3.67327 0
M  V30 12013 H 1095.42 0.608495 -6.5267 0
M  V30 12014 H 1094.94 2.06776 -5.63031 0
M  V30 12015 H 1096.62 1.87467 -6.19246 0
M  V30 12016 N 1096.75 1.52266 0.40654 0
M  V30 12017 C 1098 1.66123 1.15097 0
M  V30 12018 C 1098.32 0.394836 1.90961 0
M  V30 12019 O 1097.59 -0.590349 1.86793 0
M  V30 12020 H 1096.17 0.612317 0.427875 0
M  V30 12021 H 1098.83 1.89318 0.463106 0
M  V30 12022 H 1097.93 2.50351 1.86361 0
M  V30 12023 N 1098.23 -0.663929 1.42933 0
M  V30 12024 C 1099.51 -1.42054 1.34462 0
M  V30 12025 C 1099.89 -2.11096 -0.0127801 0
M  V30 12026 O 1099.23 -2.04027 -1.02884 0
M  V30 12027 C 1099.44 -2.41406 2.5204 0
M  V30 12028 C 1100.79 -3.05726 2.94647 0
M  V30 12029 O 1101.82 -2.51733 2.52009 0
M  V30 12030 O 1100.67 -4.03593 3.68477 0
M  V30 12031 H 1097.77 -0.634149 0.530834 0
M  V30 12032 H 1100.31 -0.691738 1.54962 0
M  V30 12033 H 1099.09 -1.89263 3.42484 0
M  V30 12034 H 1098.71 -3.21752 2.33584 0
M  V30 12035 N 1099.71 -1.29285 -0.901281 0
M  V30 12036 C 1100.94 -1.19874 -1.68267 0
M  V30 12037 C 1101.34 0.243387 -1.87628 0
M  V30 12038 O 1100.69 1.17497 -1.41209 0
M  V30 12039 C 1100.75 -1.83907 -3.08899 0
M  V30 12040 C 1100.41 -3.33198 -3.12775 0
M  V30 12041 C 1101.41 -4.29446 -2.9304 0
M  V30 12042 C 1099.1 -3.7437 -3.34892 0
M  V30 12043 C 1101.09 -5.64842 -2.95352 0
M  V30 12044 C 1098.78 -5.09888 -3.36834 0
M  V30 12045 C 1099.77 -6.04934 -3.17087 0
M  V30 12046 O 1099.46 -7.37979 -3.18815 0
M  V30 12047 H 1099.19 -0.416601 -0.532372 0
M  V30 12048 H 1101.75 -1.71154 -1.13558 0
M  V30 12049 H 1099.98 -1.27136 -3.65203 0
M  V30 12050 H 1101.67 -1.6884 -3.69118 0
M  V30 12051 H 1102.43 -3.9897 -2.75767 0
M  V30 12052 H 1098.31 -3.00846 -3.49303 0
M  V30 12053 H 1101.86 -6.39004 -2.79856 0
M  V30 12054 H 1097.75 -5.40009 -3.53638 0
M  V30 12055 H 1098.52 -7.46763 -3.35092 0
M  V30 12056 N 1101.18 1.11143 -1.11736 0
M  V30 12057 C 1102.43 1.82311 -0.862875 0
M  V30 12058 C 1102.75 1.85735 0.613326 0
M  V30 12059 O 1103.95 2.53034 0.984168 0
M  V30 12060 C 1102.41 3.27427 -1.49396 0
M  V30 12061 C 1102.02 3.32323 -3.00443 0
M  V30 12062 C 1103.76 4.03474 -1.31944 0
M  V30 12063 C 1101.67 4.71855 -3.56521 0
M  V30 12064 H 1100.6 0.683124 -0.31915 0
M  V30 12065 H 1103.25 1.25045 -1.34298 0
M  V30 12066 H 1101.63 3.84644 -0.941528 0
M  V30 12067 H 1102.8 2.84971 -3.62117 0
M  V30 12068 H 1101.12 2.69758 -3.17206 0
M  V30 12069 H 1103.72 5.06528 -1.71271 0
M  V30 12070 H 1104.06 4.15473 -0.262339 0
M  V30 12071 H 1104.59 3.52652 -1.84069 0
M  V30 12072 H 1101.33 4.65054 -4.61958 0
M  V30 12073 H 1100.85 5.19604 -2.99619 0
M  V30 12074 H 1102.53 5.40816 -3.55144 0
M  V30 12075 N 1102.66 0.908147 1.28804 0
M  V30 12076 C 1103.91 0.53734 1.94826 0
M  V30 12077 C 1104.23 -0.920962 1.71882 0
M  V30 12078 O 1103.5 -1.65043 1.05534 0
M  V30 12079 H 1102.08 0.195729 0.720902 0
M  V30 12080 H 1104.74 1.15628 1.56895 0
M  V30 12081 H 1103.84 0.727052 3.03513 0
M  V30 12082 N 1104.14 -1.42577 0.671525 0
M  V30 12083 C 1105.07 -2.28124 -0.0589347 0
M  V30 12084 C 1106.05 -1.40878 -0.811915 0
M  V30 12085 O 1107.24 -1.70318 -0.807717 0
M  V30 12086 C 1104.36 -3.20662 -1.09057 0
M  V30 12087 C 1103.41 -4.24291 -0.43355 0
M  V30 12088 S 1104.24 -5.29393 0.806442 0
M  V30 12089 C 1105.4 -6.25498 -0.224204 0
M  V30 12090 H 1105.63 -2.89728 0.666689 0
M  V30 12091 H 1103.16 -1.47359 0.460959 0
M  V30 12092 H 1105.12 -3.74516 -1.68071 0
M  V30 12093 H 1103.78 -2.582 -1.78862 0
M  V30 12094 H 1102.98 -4.89213 -1.21186 0
M  V30 12095 H 1102.58 -3.73908 0.0829136 0
M  V30 12096 H 1104.87 -6.68757 -1.08492 0
M  V30 12097 H 1105.81 -7.07023 0.390469 0
M  V30 12098 H 1106.22 -5.61633 -0.568214 0
M  V30 12099 N 1105.62 -0.414636 -1.52048 0
M  V30 12100 C 1106.53 0.414861 -2.30903 0
M  V30 12101 C 1107.54 1.04855 -1.38858 0
M  V30 12102 O 1108.72 1.04886 -1.71933 0
M  V30 12103 C 1105.79 1.51356 -3.11917 0
M  V30 12104 C 1104.85 0.902359 -4.19709 0
M  V30 12105 C 1104.08 1.9487 -4.96852 0
M  V30 12106 O 1104.3 3.16766 -4.74358 0
M  V30 12107 O 1103.24 1.55186 -5.8155 0
M  V30 12108 H 1107.06 -0.228251 -3.02841 0
M  V30 12109 H 1104.65 -0.177704 -1.48339 0
M  V30 12110 H 1106.53 2.15127 -3.62351 0
M  V30 12111 H 1105.2 2.14117 -2.42767 0
M  V30 12112 H 1104.11 0.22721 -3.73409 0
M  V30 12113 H 1105.44 0.318587 -4.91168 0
M  V30 12114 N 1107.1 1.56929 -0.145233 0
M  V30 12115 C 1108.01 2.20238 0.808219 0
M  V30 12116 C 1109.02 1.18615 1.27304 0
M  V30 12117 O 1110.2 1.51186 1.3306 0
M  V30 12118 C 1107.26 2.81016 2.03055 0
M  V30 12119 C 1106.32 3.97759 1.61512 0
M  V30 12120 C 1105.56 4.55628 2.77918 0
M  V30 12121 O 1105.78 4.12378 3.94082 0
M  V30 12122 O 1104.71 5.45917 2.53492 0
M  V30 12123 H 1108.54 3.02221 0.299314 0
M  V30 12124 H 1106.13 1.49176 0.0817051 0
M  V30 12125 H 1108.01 3.19652 2.74592 0
M  V30 12126 H 1106.68 2.02047 2.52901 0
M  V30 12127 H 1105.59 3.63842 0.870033 0
M  V30 12128 H 1106.92 4.78242 1.16383 0
M  V30 12129 N 1108.58 -0.128553 1.57075 0
M  V30 12130 C 1109.53 -1.16373 1.96065 0
M  V30 12131 C 1110.51 -1.37579 0.834323 0
M  V30 12132 O 1111.7 -1.38831 1.09795 0
M  V30 12133 C 1108.83 -2.49276 2.36043 0
M  V30 12134 C 1107.92 -2.31586 3.55287 0
M  V30 12135 N 1108.31 -1.83688 4.71267 0
M  V30 12136 C 1106.61 -2.62275 3.60732 0
M  V30 12137 C 1107.31 -1.79479 5.53319 0
M  V30 12138 N 1106.28 -2.23474 4.95541 0
M  V30 12139 H 1110.08 -0.785792 2.832 0
M  V30 12140 H 1107.6 -0.33641 1.58877 0
M  V30 12141 H 1109.6 -3.24134 2.62188 0
M  V30 12142 H 1108.26 -2.87837 1.50267 0
M  V30 12143 H 1109.27 -1.53376 4.94668 0
M  V30 12144 H 1105.94 -3.04586 2.85541 0
M  V30 12145 H 1107.33 -1.43781 6.56336 0
M  V30 12146 N 1110.05 -1.5248 -0.398459 0
M  V30 12147 C 1111.46 -1.59107 -0.976817 0
M  V30 12148 C 1111.82 -0.438104 -1.91246 0
M  V30 12149 O 1110.94 0.440111 -2.11877 0
M  V30 12150 C 1111.54 -2.88373 -1.77838 0
M  V30 12151 C 1110.09 -2.97445 -2.30659 0
M  V30 12152 C 1109.24 -2.5414 -1.10942 0
M  V30 12153 H 1112.19 -1.57695 -0.178324 0
M  V30 12154 H 1112.21 -2.74327 -2.63676 0
M  V30 12155 H 1111.73 -3.72269 -1.09714 0
M  V30 12156 H 1109.83 -2.18066 -3.02123 0
M  V30 12157 H 1109.94 -4.019 -2.60794 0
M  V30 12158 H 1108.3 -2.08237 -1.46661 0
M  V30 12159 H 1109.09 -3.40421 -0.443684 0
M  V30 12160 N 1111.53 0.65634 -1.43283 0
M  V30 12161 C 1112.44 1.79847 -1.50639 0
M  V30 12162 C 1113.46 1.69487 -0.393714 0
M  V30 12163 O 1114.63 1.90712 -0.647379 0
M  V30 12164 C 1111.7 3.16107 -1.42398 0
M  V30 12165 C 1110.76 3.38287 -2.64312 0
M  V30 12166 C 1109.99 4.68046 -2.56454 0
M  V30 12167 O 1110.22 5.4719 -1.61056 0
M  V30 12168 O 1109.15 4.91877 -3.46902 0
M  V30 12169 H 1112.98 1.76596 -2.47078 0
M  V30 12170 H 1110.56 0.814428 -1.25249 0
M  V30 12171 H 1112.44 3.97382 -1.40233 0
M  V30 12172 H 1111.12 3.19956 -0.490929 0
M  V30 12173 H 1110.02 2.56788 -2.72049 0
M  V30 12174 H 1111.36 3.39282 -3.56579 0
M  V30 12175 N 1113.01 1.29761 0.894412 0
M  V30 12176 C 1113.94 1.17902 2.01547 0
M  V30 12177 C 1114.92 0.0719402 1.69948 0
M  V30 12178 O 1116.11 0.252338 1.92554 0
M  V30 12179 C 1113.24 0.860262 3.36477 0
M  V30 12180 C 1112.19 1.92424 3.82305 0
M  V30 12181 C 1111.52 1.45868 5.14419 0
M  V30 12182 C 1112.82 3.33391 4.02054 0
M  V30 12183 H 1114.51 2.11688 2.11727 0
M  V30 12184 H 1112.06 1.01916 1.01731 0
M  V30 12185 H 1114.01 0.763987 4.14417 0
M  V30 12186 H 1112.73 -0.113289 3.26403 0
M  V30 12187 H 1111.39 2.00999 3.06586 0
M  V30 12188 H 1111.04 0.473654 5.00765 0
M  V30 12189 H 1110.74 2.17028 5.46052 0
M  V30 12190 H 1112.26 1.37601 5.94894 0
M  V30 12191 H 1113.68 3.27628 4.7046 0
M  V30 12192 H 1112.07 4.02555 4.4505 0
M  V30 12193 H 1113.14 3.75978 3.06216 0
M  V30 12194 N 1114.49 -1.10549 1.12324 0
M  V30 12195 C 1115.42 -2.16657 0.747826 0
M  V30 12196 C 1116.43 -1.61238 -0.224981 0
M  V30 12197 O 1117.62 -1.78499 -0.00649408 0
M  V30 12198 C 1114.72 -3.38791 0.0859421 0
M  V30 12199 C 1113.89 -4.23655 1.08792 0
M  V30 12200 C 1112.95 -5.24239 0.453871 0
M  V30 12201 O 1111.98 -5.58262 1.11052 0
M  V30 12202 N 1113.18 -5.75246 -0.779215 0
M  V30 12203 H 1115.95 -2.49472 1.66084 0
M  V30 12204 H 1113.51 -1.26157 1.01469 0
M  V30 12205 H 1115.5 -4.03182 -0.350186 0
M  V30 12206 H 1114.07 -3.03961 -0.729807 0
M  V30 12207 H 1113.29 -3.55578 1.70171 0
M  V30 12208 H 1114.58 -4.77187 1.76549 0
M  V30 12209 H 1113.98 -5.49802 -1.3317 0
M  V30 12210 H 1112.53 -6.41428 -1.15818 0
M  V30 12211 N 1115.97 -0.914965 -1.28321 0
M  V30 12212 C 1116.9 -0.361578 -2.2633 0
M  V30 12213 C 1117.91 0.500637 -1.54911 0
M  V30 12214 O 1119.1 0.31532 -1.75693 0
M  V30 12215 C 1116.2 0.501693 -3.35166 0
M  V30 12216 C 1115.37 -0.338289 -4.3609 0
M  V30 12217 C 1114.43 0.460267 -5.24183 0
M  V30 12218 O 1113.46 -0.127594 -5.69057 0
M  V30 12219 N 1114.66 1.76302 -5.5308 0
M  V30 12220 H 1117.42 -1.20402 -2.74451 0
M  V30 12221 H 1114.99 -0.781042 -1.41814 0
M  V30 12222 H 1116.98 1.04268 -3.91037 0
M  V30 12223 H 1115.55 1.24485 -2.86744 0
M  V30 12224 H 1114.77 -1.06064 -3.79663 0
M  V30 12225 H 1116.06 -0.912996 -5.00542 0
M  V30 12226 H 1115.45 2.26314 -5.18458 0
M  V30 12227 H 1114.01 2.25081 -6.11704 0
M  V30 12228 N 1117.44 1.42219 -0.679077 0
M  V30 12229 C 1118.69 2.01479 -0.203119 0
M  V30 12230 C 1119.02 1.5371 1.19178 0
M  V30 12231 O 1118.27 0.731832 1.81501 0
M  V30 12232 C 1118.57 3.56889 -0.191027 0
M  V30 12233 C 1118.24 4.24106 -1.53118 0
M  V30 12234 C 1116.9 4.42182 -1.89812 0
M  V30 12235 C 1119.25 4.61946 -2.41361 0
M  V30 12236 C 1116.58 4.95371 -3.14364 0
M  V30 12237 C 1118.93 5.16518 -3.65229 0
M  V30 12238 C 1117.6 5.32807 -4.02086 0
M  V30 12239 H 1116.87 0.737263 -0.0743264 0
M  V30 12240 H 1119.51 1.70346 -0.874908 0
M  V30 12241 H 1117.82 3.87715 0.564282 0
M  V30 12242 H 1119.52 4.00528 0.194511 0
M  V30 12243 H 1116.11 4.10399 -1.23575 0
M  V30 12244 H 1120.29 4.4765 -2.14297 0
M  V30 12245 H 1115.55 5.06167 -3.42935 0
M  V30 12246 H 1119.72 5.44782 -4.33804 0
M  V30 12247 H 1117.35 5.73785 -4.98673 0
M  V30 12248 N 1118.92 0.422693 1.51826 0
M  V30 12249 C 1120.17 -0.148861 2.02253 0
M  V30 12250 C 1120.5 -1.43629 1.30707 0
M  V30 12251 O 1119.78 -1.89967 0.417482 0
M  V30 12252 C 1120.06 -0.382672 3.58061 0
M  V30 12253 C 1119.91 0.922386 4.40241 0
M  V30 12254 C 1121.23 -1.1589 4.24567 0
M  V30 12255 H 1118.35 -0.0526279 0.735119 0
M  V30 12256 H 1120.99 0.558821 1.81596 0
M  V30 12257 H 1119.14 -0.985495 3.75793 0
M  V30 12258 H 1120.81 1.55806 4.34191 0
M  V30 12259 H 1119.06 1.53032 4.05911 0
M  V30 12260 H 1119.73 0.713012 5.47376 0
M  V30 12261 H 1122.2 -0.648415 4.11017 0
M  V30 12262 H 1121.08 -1.29125 5.33496 0
M  V30 12263 H 1121.34 -2.18315 3.84436 0
M  V30 12264 N 1120.4 -1.5685 0.153553 0
M  V30 12265 C 1121.65 -1.95946 -0.494936 0
M  V30 12266 C 1121.97 -1.03975 -1.64967 0
M  V30 12267 O 1121.24 -0.102572 -1.95631 0
M  V30 12268 H 1119.82 -0.723516 -0.185833 0
M  V30 12269 H 1122.48 -1.93531 0.230585 0
M  V30 12270 H 1121.58 -2.99823 -0.866743 0
M  V30 12271 N 1121.88 0.120221 -1.57141 0
M  V30 12272 C 1122.82 1.14751 -2.00252 0
M  V30 12273 C 1123.79 1.41217 -0.874462 0
M  V30 12274 O 1124.98 1.53104 -1.13859 0
M  V30 12275 C 1122.12 2.46923 -2.41087 0
M  V30 12276 C 1121.23 2.27403 -3.67303 0
M  V30 12277 C 1120.37 3.52797 -3.97125 0
M  V30 12278 C 1119.41 3.28429 -5.16528 0
M  V30 12279 N 1118.54 4.46022 -5.42226 0
M  V30 12280 H 1123.38 0.772884 -2.87803 0
M  V30 12281 H 1120.92 0.370137 -1.42367 0
M  V30 12282 H 1122.88 3.24025 -2.62799 0
M  V30 12283 H 1121.51 2.82281 -1.5658 0
M  V30 12284 H 1120.56 1.41224 -3.53214 0
M  V30 12285 H 1121.87 2.05373 -4.54558 0
M  V30 12286 H 1121.03 4.38318 -4.19479 0
M  V30 12287 H 1119.77 3.77857 -3.08343 0
M  V30 12288 H 1118.77 2.41299 -4.94019 0
M  V30 12289 H 1120 3.0474 -6.06886 0
M  V30 12290 H 1117.94 4.71205 -4.56401 0
M  V30 12291 H 1117.86 4.27092 -6.23802 0
M  V30 12292 H 1119.13 5.3268 -5.69098 0
M  V30 12293 N 1123.36 1.52689 0.390367 0
M  V30 12294 C 1124.77 1.41909 0.730338 0
M  V30 12295 C 1124.97 0.538427 1.94173 0
M  V30 12296 O 1124.03 0.0113527 2.52497 0
M  V30 12297 C 1125.34 2.84737 0.966714 0
M  V30 12298 C 1126.89 2.94206 1.06827 0
M  V30 12299 C 1127.36 4.38042 1.33728 0
M  V30 12300 N 1128.86 4.4136 1.40553 0
M  V30 12301 C 1129.59 5.49735 1.63031 0
M  V30 12302 N 1129.09 6.68197 1.82988 0
M  V30 12303 N 1130.88 5.37276 1.65199 0
M  V30 12304 H 1123.03 2.08469 -0.406766 0
M  V30 12305 H 1125.29 0.940401 -0.11979 0
M  V30 12306 H 1125 3.51385 0.148725 0
M  V30 12307 H 1124.87 3.26909 1.88176 0
M  V30 12308 H 1127.26 2.27726 1.87683 0
M  V30 12309 H 1127.34 2.55463 0.131168 0
M  V30 12310 H 1126.99 5.05087 0.533832 0
M  V30 12311 H 1126.92 4.74336 2.28721 0
M  V30 12312 H 1129.41 3.55976 1.26844 0
M  V30 12313 H 1129.72 7.46567 1.99643 0
M  V30 12314 H 1128.06 6.71228 1.80215 0
M  V30 12315 H 1131.26 4.437 1.49158 0
M  V30 12316 H 1131.43 6.21806 1.82377 0
M  V30 12317 N 1124.83 -0.648732 1.43629 0
M  V30 12318 C 1125.74 -1.79046 1.51591 0
M  V30 12319 C 1126.76 -1.69276 0.402697 0
M  V30 12320 O 1127.94 -1.90366 0.657484 0
M  V30 12321 C 1125 -3.15347 1.44073 0
M  V30 12322 C 1124.06 -3.3688 2.66102 0
M  V30 12323 C 1123.3 -4.66679 2.58933 0
M  V30 12324 O 1123.52 -5.46328 1.63956 0
M  V30 12325 O 1122.45 -4.9003 3.49506 0
M  V30 12326 H 1126.28 -1.75283 2.48011 0
M  V30 12327 H 1123.86 -0.807774 1.2568 0
M  V30 12328 H 1125.75 -3.96633 1.42339 0
M  V30 12329 H 1124.42 -3.19691 0.50789 0
M  V30 12330 H 1123.33 -2.55341 2.73407 0
M  V30 12331 H 1124.66 -3.37386 3.58373 0
M  V30 12332 N 1126.31 -1.30234 -0.887518 0
M  V30 12333 C 1127.26 -1.164 -1.99298 0
M  V30 12334 C 1128.23 -0.0541536 -1.66012 0
M  V30 12335 O 1129.41 -0.223881 -1.89482 0
M  V30 12336 C 1126.55 -0.859169 -3.34234 0
M  V30 12337 C 1125.67 -2.05065 -3.80227 0
M  V30 12338 C 1124.8 -1.68413 -5.03796 0
M  V30 12339 C 1123.84 -2.8407 -5.4219 0
M  V30 12340 N 1122.98 -2.47732 -6.56942 0
M  V30 12341 H 1127.82 -2.10973 -2.10463 0
M  V30 12342 H 1125.36 -1.04969 -1.03053 0
M  V30 12343 H 1127.31 -0.663064 -4.11897 0
M  V30 12344 H 1125.94 0.0496808 -3.22762 0
M  V30 12345 H 1125 -2.35808 -2.98494 0
M  V30 12346 H 1126.31 -2.91688 -4.04623 0
M  V30 12347 H 1125.46 -1.45162 -5.89078 0
M  V30 12348 H 1124.2 -0.789553 -4.81266 0
M  V30 12349 H 1123.21 -3.0799 -4.55437 0
M  V30 12350 H 1124.43 -3.74211 -5.66695 0
M  V30 12351 H 1122.38 -1.60777 -6.35993 0
M  V30 12352 H 1122.29 -3.27887 -6.81195 0
M  V30 12353 H 1123.56 -2.27831 -7.45462 0
M  V30 12354 N 1127.79 1.09952 -1.12909 0
M  V30 12355 C 1129.04 1.81386 -0.882163 0
M  V30 12356 C 1129.35 1.86376 0.593592 0
M  V30 12357 O 1130.56 2.54064 0.957275 0
M  V30 12358 C 1129.01 3.25824 -1.52861 0
M  V30 12359 C 1128.62 3.29117 -3.0395 0
M  V30 12360 C 1130.37 4.02051 -1.36216 0
M  V30 12361 C 1128.27 4.68047 -3.61505 0
M  V30 12362 H 1127.2 0.679701 -0.326378 0
M  V30 12363 H 1129.85 1.23614 -1.35616 0
M  V30 12364 H 1128.24 3.83624 -0.982271 0
M  V30 12365 H 1129.41 2.81114 -3.65119 0
M  V30 12366 H 1127.73 2.66379 -3.20049 0
M  V30 12367 H 1130.32 5.04683 -1.76633 0
M  V30 12368 H 1130.67 4.15171 -0.306391 0
M  V30 12369 H 1131.2 3.5068 -1.87799 0
M  V30 12370 H 1127.94 4.60128 -4.66865 0
M  V30 12371 H 1127.46 5.16397 -3.05114 0
M  V30 12372 H 1129.14 5.37018 -3.6086 0
M  V30 12373 N 1129.27 0.921757 1.27833 0
M  V30 12374 C 1130.55 0.477706 1.89677 0
M  V30 12375 C 1130.93 -1.04392 1.83481 0
M  V30 12376 O 1130.27 -1.89549 1.27606 0
M  V30 12377 C 1130.48 1.01709 3.33851 0
M  V30 12378 C 1131.83 1.074 4.10792 0
M  V30 12379 O 1132.86 0.966295 3.42843 0
M  V30 12380 O 1131.71 1.23909 5.32268 0
M  V30 12381 H 1128.81 0.15271 0.812778 0
M  V30 12382 H 1131.35 1.01306 1.36144 0
M  V30 12383 H 1130.13 2.061 3.32623 0
M  V30 12384 H 1129.75 0.463031 3.94895 0
M  V30 12385 N 1130.75 -1.41857 0.686609 0
M  V30 12386 C 1131.99 -2.01368 0.213801 0
M  V30 12387 C 1132.32 -1.5434 -1.18361 0
M  V30 12388 O 1131.58 -0.741447 -1.81111 0
M  V30 12389 C 1131.88 -3.56783 0.209951 0
M  V30 12390 C 1131.54 -4.23288 1.55365 0
M  V30 12391 C 1130.2 -4.41169 1.92154 0
M  V30 12392 C 1132.56 -4.6066 2.43807 0
M  V30 12393 C 1129.88 -4.93697 3.16986 0
M  V30 12394 C 1132.24 -5.14573 3.67963 0
M  V30 12395 C 1130.9 -5.30667 4.04906 0
M  V30 12396 H 1130.17 -0.736858 0.0782352 0
M  V30 12397 H 1132.82 -1.69879 0.88393 0
M  V30 12398 H 1131.12 -3.88009 -0.543712 0
M  V30 12399 H 1132.82 -4.00625 -0.173267 0
M  V30 12400 H 1129.41 -4.09738 1.2575 0
M  V30 12401 H 1133.59 -4.46507 2.16668 0
M  V30 12402 H 1128.85 -5.04342 3.45615 0
M  V30 12403 H 1133.02 -5.42473 4.36687 0
M  V30 12404 H 1130.65 -5.71133 5.01709 0
M  V30 12405 N 1132.22 -0.430739 -1.51599 0
M  V30 12406 C 1133.19 0.372319 -2.26156 0
M  V30 12407 C 1134.19 0.955338 -1.29344 0
M  V30 12408 O 1135.38 0.830823 -1.53111 0
M  V30 12409 C 1132.51 1.52613 -3.04831 0
M  V30 12410 H 1133.7 -0.280996 -2.98581 0
M  V30 12411 H 1131.26 -0.183749 -1.55216 0
M  V30 12412 H 1131.99 2.21569 -2.36807 0
M  V30 12413 H 1131.78 1.11433 -3.75932 0
M  V30 12414 H 1133.27 2.09366 -3.61325 0
M  V30 12415 N 1133.7 1.56767 -0.161869 0
M  V30 12416 C 1134.98 1.88245 0.531352 0
M  V30 12417 C 1135.36 1.07025 1.81958 0
M  V30 12418 O 1134.71 0.161385 2.27929 0
M  V30 12419 C 1134.92 3.40117 0.782416 0
M  V30 12420 C 1136.27 4.09655 1.11661 0
M  V30 12421 O 1137.29 3.4538 0.871274 0
M  V30 12422 O 1136.15 5.23192 1.57901 0
M  V30 12423 H 1133.24 0.780725 0.272759 0
M  V30 12424 H 1135.79 1.68522 -0.199597 0
M  V30 12425 H 1134.56 3.91088 -0.128677 0
M  V30 12426 H 1134.18 3.65418 1.56702 0
M  V30 12427 N 1135.18 -0.111886 1.57202 0
M  V30 12428 C 1136.41 -0.832407 1.89416 0
M  V30 12429 C 1136.82 -1.73096 0.753861 0
M  V30 12430 O 1136.18 -1.80416 -0.274992 0
M  V30 12431 C 1136.23 -1.65988 3.21139 0
M  V30 12432 O 1135.95 -0.797485 4.3078 0
M  V30 12433 C 1137.45 -2.48493 3.67105 0
M  V30 12434 H 1134.67 -0.238919 0.627024 0
M  V30 12435 H 1137.22 -0.0941456 2.04283 0
M  V30 12436 H 1135.37 -2.35082 3.07921 0
M  V30 12437 H 1135.79 -1.36892 5.06321 0
M  V30 12438 H 1137.26 -3.02072 4.62014 0
M  V30 12439 H 1137.74 -3.26182 2.94112 0
M  V30 12440 H 1138.34 -1.84628 3.83135 0
M  V30 12441 N 1136.66 -1.52894 -0.382264 0
M  V30 12442 C 1137.9 -1.68515 -1.12829 0
M  V30 12443 C 1138.24 -0.427211 -1.89443 0
M  V30 12444 O 1137.51 0.57516 -1.85801 0
M  V30 12445 C 1137.8 -2.92449 -2.10108 0
M  V30 12446 C 1137.65 -4.2836 -1.37214 0
M  V30 12447 C 1138.97 -3.11944 -3.1045 0
M  V30 12448 H 1136.09 -0.613223 -0.408811 0
M  V30 12449 H 1138.73 -1.85503 -0.410921 0
M  V30 12450 H 1136.88 -2.78097 -2.71283 0
M  V30 12451 H 1138.55 -4.54493 -0.789516 0
M  V30 12452 H 1136.79 -4.28532 -0.673973 0
M  V30 12453 H 1137.46 -5.11178 -2.0833 0
M  V30 12454 H 1139.94 -3.25372 -2.59369 0
M  V30 12455 H 1138.82 -4.00125 -3.75754 0
M  V30 12456 H 1139.08 -2.26465 -3.79692 0
M  V30 12457 N 1138.14 0.641106 -1.43971 0
M  V30 12458 C 1139.37 1.42829 -1.49692 0
M  V30 12459 C 1139.78 1.88427 -0.118594 0
M  V30 12460 O 1139.14 1.60234 0.873581 0
M  V30 12461 C 1139.19 2.65524 -2.45314 0
M  V30 12462 O 1138.91 2.2183 -3.77787 0
M  V30 12463 C 1140.41 3.58758 -2.60399 0
M  V30 12464 H 1137.63 0.438367 -0.508011 0
M  V30 12465 H 1140.17 0.784933 -1.88836 0
M  V30 12466 H 1138.33 3.25973 -2.09332 0
M  V30 12467 H 1138.74 3.01303 -4.29321 0
M  V30 12468 H 1140.22 4.41483 -3.31357 0
M  V30 12469 H 1140.69 4.06909 -1.65294 0
M  V30 12470 H 1141.3 3.04184 -2.97241 0
M  V30 12471 N 1139.62 1.30703 0.880598 0
M  V30 12472 C 1140.56 1.17455 1.98678 0
M  V30 12473 C 1141.53 0.0629569 1.65981 0
M  V30 12474 O 1142.72 0.233926 1.89361 0
M  V30 12475 C 1139.86 0.876882 3.33774 0
M  V30 12476 C 1138.97 2.07078 3.79134 0
M  V30 12477 C 1138.11 1.71082 5.02896 0
M  V30 12478 C 1137.14 2.86942 5.40676 0
M  V30 12479 N 1136.28 2.51212 6.55619 0
M  V30 12480 H 1141.12 2.12086 2.09341 0
M  V30 12481 H 1138.66 1.05514 1.02495 0
M  V30 12482 H 1140.62 0.684899 4.1154 0
M  V30 12483 H 1139.25 -0.0325633 3.22784 0
M  V30 12484 H 1138.3 2.37388 2.97239 0
M  V30 12485 H 1139.61 2.9383 4.0307 0
M  V30 12486 H 1138.76 1.48284 5.883 0
M  V30 12487 H 1137.5 0.815064 4.80841 0
M  V30 12488 H 1136.51 3.10401 4.53797 0
M  V30 12489 H 1137.73 3.77211 5.64703 0
M  V30 12490 H 1135.68 1.64147 6.35131 0
M  V30 12491 H 1135.6 3.31495 6.79446 0
M  V30 12492 H 1136.86 2.31781 7.44243 0
M  V30 12493 N 1141.09 -1.09351 1.1349 0
M  V30 12494 C 1142.32 -1.85036 0.918989 0
M  V30 12495 C 1142.73 -1.8146 -0.535638 0
M  V30 12496 O 1142.07 -1.20958 -1.38256 0
M  V30 12497 C 1142.14 -3.33992 1.33001 0
M  V30 12498 C 1141.8 -3.61315 2.79822 0
M  V30 12499 C 1142.8 -3.56973 3.77976 0
M  V30 12500 C 1140.48 -3.89636 3.17001 0
M  V30 12501 C 1142.48 -3.80564 5.11321 0
M  V30 12502 C 1140.16 -4.12882 4.50524 0
M  V30 12503 C 1141.16 -4.08338 5.47494 0
M  V30 12504 O 1140.85 -4.30983 6.78608 0
M  V30 12505 H 1140.58 -0.591301 0.327627 0
M  V30 12506 H 1143.14 -1.39078 1.5115 0
M  V30 12507 H 1141.37 -3.8066 0.68077 0
M  V30 12508 H 1143.05 -3.9109 1.08645 0
M  V30 12509 H 1143.82 -3.3512 3.50599 0
M  V30 12510 H 1139.7 -3.92297 2.42124 0
M  V30 12511 H 1143.24 -3.76933 5.86998 0
M  V30 12512 H 1139.14 -4.34216 4.77626 0
M  V30 12513 H 1139.91 -4.4844 6.84722 0
M  V30 12514 N 1142.57 -0.928524 -1.27343 0
M  V30 12515 C 1143.85 -0.487758 -1.89421 0
M  V30 12516 C 1144.23 1.03418 -1.84032 0
M  V30 12517 O 1143.58 1.8887 -1.2861 0
M  V30 12518 C 1143.79 -1.03478 -3.33307 0
M  V30 12519 C 1145.13 -1.09577 -4.10217 0
M  V30 12520 O 1146.16 -0.984463 -3.42326 0
M  V30 12521 O 1145.02 -1.2673 -5.31603 0
M  V30 12522 H 1142.11 -0.157018 -0.811957 0
M  V30 12523 H 1144.66 -1.02027 -1.35605 0
M  V30 12524 H 1143.43 -2.07861 -3.31526 0
M  V30 12525 H 1143.05 -0.483967 -3.94644 0
M  V30 12526 N 1144.05 1.41491 -0.694123 0
M  V30 12527 C 1145.47 1.55358 -0.365532 0
M  V30 12528 C 1145.67 1.66994 1.12762 0
M  V30 12529 O 1144.72 1.64756 1.91342 0
M  V30 12530 C 1146.03 2.79352 -1.11279 0
M  V30 12531 C 1147.58 2.93147 -1.097 0
M  V30 12532 C 1148.06 4.20027 -1.82597 0
M  V30 12533 N 1149.55 4.26981 -1.7956 0
M  V30 12534 C 1150.28 5.24013 -2.32805 0
M  V30 12535 N 1149.78 6.27083 -2.94515 0
M  V30 12536 N 1151.57 5.15943 -2.23069 0
M  V30 12537 H 1143.72 1.32183 -1.66257 0
M  V30 12538 H 1145.99 0.637624 -0.701527 0
M  V30 12539 H 1145.69 2.76958 -2.16765 0
M  V30 12540 H 1145.57 3.70827 -0.690439 0
M  V30 12541 H 1147.95 2.95057 -0.0504037 0
M  V30 12542 H 1148.03 2.02849 -1.55839 0
M  V30 12543 H 1147.68 4.18878 -2.87235 0
M  V30 12544 H 1147.61 5.09294 -1.33893 0
M  V30 12545 H 1150.1 3.53129 -1.34567 0
M  V30 12546 H 1150.41 6.97511 -3.32714 0
M  V30 12547 H 1148.76 6.27589 -2.98592 0
M  V30 12548 H 1151.95 4.34346 -1.74532 0
M  V30 12549 H 1152.12 5.91396 -2.64868 0
M  V30 12550 N 1145.53 0.438773 1.51369 0
M  V30 12551 C 1146.94 0.0911416 1.5934 0
M  V30 12552 C 1147.14 -1.39962 1.44958 0
M  V30 12553 O 1146.2 -2.16968 1.29155 0
M  V30 12554 C 1147.51 0.612531 2.94395 0
M  V30 12555 C 1149.06 0.573098 3.07709 0
M  V30 12556 C 1149.54 1.07149 4.4529 0
M  V30 12557 N 1151.03 1.02953 4.51614 0
M  V30 12558 C 1151.76 1.38602 5.56397 0
M  V30 12559 N 1151.26 1.81543 6.68591 0
M  V30 12560 N 1153.05 1.30409 5.46763 0
M  V30 12561 H 1145.2 1.40872 1.58962 0
M  V30 12562 H 1147.46 0.580589 0.749414 0
M  V30 12563 H 1147.17 1.65562 3.10294 0
M  V30 12564 H 1147.04 0.0382375 3.77181 0
M  V30 12565 H 1149.43 -0.461006 2.91477 0
M  V30 12566 H 1149.51 1.18381 2.26759 0
M  V30 12567 H 1149.16 2.10406 4.62268 0
M  V30 12568 H 1149.09 0.437297 5.24781 0
M  V30 12569 H 1151.58 0.714208 3.7109 0
M  V30 12570 H 1151.89 2.06977 7.44567 0
M  V30 12571 H 1150.24 1.8547 6.69795 0
M  V30 12572 H 1153.43 0.967272 4.57997 0
M  V30 12573 H 1153.6 1.5852 6.28312 0
M  V30 12574 N 1147.01 -1.56678 0.170181 0
M  V30 12575 C 1148.25 -1.96849 -0.475064 0
M  V30 12576 C 1148.58 -1.05611 -1.6333 0
M  V30 12577 O 1147.84 -0.0899708 -1.95493 0
M  V30 12578 C 1148.13 -3.43103 -1.00076 0
M  V30 12579 C 1147.8 -4.50881 0.0414538 0
M  V30 12580 C 1146.46 -4.80082 0.327894 0
M  V30 12581 C 1148.81 -5.15791 0.748936 0
M  V30 12582 C 1146.14 -5.71491 1.32722 0
M  V30 12583 C 1148.49 -6.08278 1.73724 0
M  V30 12584 C 1147.16 -6.35847 2.03114 0
M  V30 12585 H 1146.43 -0.72032 -0.173838 0
M  V30 12586 H 1149.08 -1.89701 0.261903 0
M  V30 12587 H 1147.38 -3.47197 -1.81553 0
M  V30 12588 H 1149.08 -3.71525 -1.50899 0
M  V30 12589 H 1145.67 -4.2817 -0.191976 0
M  V30 12590 H 1149.85 -4.93344 0.540852 0
M  V30 12591 H 1145.11 -5.91134 1.56112 0
M  V30 12592 H 1149.28 -6.57643 2.29082 0
M  V30 12593 H 1146.91 -7.06479 2.80698 0
M  V30 12594 N 1148.48 0.103547 -1.57259 0
M  V30 12595 C 1149.43 1.12621 -2.01458 0
M  V30 12596 C 1150.4 1.40282 -0.889391 0
M  V30 12597 O 1151.59 1.51887 -1.15477 0
M  V30 12598 C 1148.73 2.44352 -2.43692 0
M  V30 12599 C 1147.84 2.23495 -3.69695 0
M  V30 12600 C 1146.97 3.48565 -4.00844 0
M  V30 12601 C 1146.01 3.22932 -5.19982 0
M  V30 12602 N 1145.15 4.40246 -5.46926 0
M  V30 12603 H 1149.99 0.742315 -2.88606 0
M  V30 12604 H 1147.53 0.355016 -1.42752 0
M  V30 12605 H 1149.48 3.2122 -2.66221 0
M  V30 12606 H 1148.11 2.80605 -1.59565 0
M  V30 12607 H 1147.17 1.3747 -3.54692 0
M  V30 12608 H 1148.48 2.0054 -4.56711 0
M  V30 12609 H 1147.63 4.33844 -4.24104 0
M  V30 12610 H 1146.37 3.74565 -3.12333 0
M  V30 12611 H 1145.38 2.36045 -4.96551 0
M  V30 12612 H 1146.6 2.98286 -6.10084 0
M  V30 12613 H 1144.55 4.66338 -4.61373 0
M  V30 12614 H 1144.46 4.20452 -6.28296 0
M  V30 12615 H 1145.73 5.26614 -5.74716 0
M  V30 12616 N 1149.96 1.53094 0.37415 0
M  V30 12617 C 1151.21 1.68527 1.11548 0
M  V30 12618 C 1151.53 0.435253 1.9008 0
M  V30 12619 O 1150.8 -0.550594 1.88003 0
M  V30 12620 H 1149.38 0.621255 0.41479 0
M  V30 12621 H 1152.04 1.90258 0.422844 0
M  V30 12622 H 1151.14 2.54248 1.81009 0
M  V30 12623 N 1151.44 -0.633461 1.44309 0
M  V30 12624 C 1152.69 -1.39513 1.47187 0
M  V30 12625 C 1153.02 -1.93926 0.103186 0
M  V30 12626 O 1152.29 -1.73512 -0.878853 0
M  V30 12627 C 1152.58 -2.56213 2.53036 0
M  V30 12628 C 1152.43 -2.07164 3.99253 0
M  V30 12629 C 1153.75 -3.58403 2.55412 0
M  V30 12630 H 1150.87 -0.505936 0.535908 0
M  V30 12631 H 1153.51 -0.716445 1.75975 0
M  V30 12632 H 1151.66 -3.14111 2.28619 0
M  V30 12633 H 1153.33 -1.54115 4.34795 0
M  V30 12634 H 1151.57 -1.38367 4.11141 0
M  V30 12635 H 1152.25 -2.91172 4.6896 0
M  V30 12636 H 1154.72 -3.103 2.77224 0
M  V30 12637 H 1153.6 -4.37581 3.31382 0
M  V30 12638 H 1153.86 -4.12316 1.59523 0
M  V30 12639 N 1152.92 -1.31168 -0.873655 0
M  V30 12640 C 1153.87 -1.18507 -1.98052 0
M  V30 12641 C 1154.84 -0.0717583 -1.65945 0
M  V30 12642 O 1156.02 -0.243965 -1.89234 0
M  V30 12643 C 1153.16 -0.894571 -3.33304 0
M  V30 12644 C 1152.27 -2.09086 -3.7803 0
M  V30 12645 C 1151.41 -1.73747 -5.01982 0
M  V30 12646 C 1150.45 -2.89805 -5.39147 0
M  V30 12647 N 1149.58 -2.54686 -6.54278 0
M  V30 12648 H 1154.42 -2.13193 -2.08213 0
M  V30 12649 H 1151.96 -1.06056 -1.01934 0
M  V30 12650 H 1153.92 -0.706714 -4.11171 0
M  V30 12651 H 1152.55 0.0154449 -3.22796 0
M  V30 12652 H 1151.6 -2.38961 -2.95976 0
M  V30 12653 H 1152.91 -2.95963 -4.01506 0
M  V30 12654 H 1152.07 -1.51402 -5.87505 0
M  V30 12655 H 1150.81 -0.840553 -4.80402 0
M  V30 12656 H 1149.81 -3.12803 -4.52144 0
M  V30 12657 H 1151.04 -3.802 -5.62694 0
M  V30 12658 H 1148.98 -1.67513 -6.34252 0
M  V30 12659 H 1148.9 -3.35093 -6.77679 0
M  V30 12660 H 1150.17 -2.35725 -7.43003 0
M  V30 12661 N 1154.4 1.08748 -1.14068 0
M  V30 12662 C 1155.81 1.33125 -0.880341 0
M  V30 12663 C 1156.01 1.9569 0.480396 0
M  V30 12664 O 1155.07 2.2077 1.22543 0
M  V30 12665 C 1156.38 2.23618 -2.01036 0
M  V30 12666 C 1157.93 2.37108 -2.04326 0
M  V30 12667 C 1158.4 3.30941 -3.1661 0
M  V30 12668 N 1159.9 3.38517 -3.16166 0
M  V30 12669 C 1160.63 4.11142 -3.99687 0
M  V30 12670 N 1160.13 4.86505 -4.93239 0
M  V30 12671 N 1161.92 4.06938 -3.87761 0
M  V30 12672 H 1154.07 0.665164 -2.01716 0
M  V30 12673 H 1156.33 0.355612 -0.878774 0
M  V30 12674 H 1156.04 1.84885 -2.99183 0
M  V30 12675 H 1155.91 3.24056 -1.93049 0
M  V30 12676 H 1158.3 2.75101 -1.06787 0
M  V30 12677 H 1158.38 1.36424 -2.16384 0
M  V30 12678 H 1158.03 2.93669 -4.14392 0
M  V30 12679 H 1157.96 4.31545 -3.01789 0
M  V30 12680 H 1160.45 2.84786 -2.48405 0
M  V30 12681 H 1160.76 5.39372 -5.53441 0
M  V30 12682 H 1159.1 4.8557 -4.9724 0
M  V30 12683 H 1162.3 3.47166 -3.13996 0
M  V30 12684 H 1162.47 4.63275 -4.53079 0
M  V30 12685 N 1155.87 0.935264 1.26849 0
M  V30 12686 C 1157.15 0.497797 1.8916 0
M  V30 12687 C 1157.53 -1.02441 1.84578 0
M  V30 12688 O 1156.88 -1.88185 1.29609 0
M  V30 12689 C 1157.09 1.05244 3.32753 0
M  V30 12690 C 1158.44 1.11751 4.0963 0
M  V30 12691 O 1159.46 1.0026 3.41799 0
M  V30 12692 O 1158.32 1.29548 5.30923 0
M  V30 12693 H 1155.41 0.161322 0.811113 0
M  V30 12694 H 1157.96 1.02744 1.35062 0
M  V30 12695 H 1156.73 2.09617 3.30419 0
M  V30 12696 H 1156.36 0.504889 3.94381 0
M  V30 12697 N 1157.35 -1.41121 0.701616 0
M  V30 12698 C 1158.28 -2.33436 0.0545974 0
M  V30 12699 C 1159.26 -1.52144 -0.760662 0
M  V30 12700 O 1160.45 -1.80661 -0.712414 0
M  V30 12701 C 1157.58 -3.36015 -0.878117 0
M  V30 12702 C 1156.53 -4.27664 -0.169511 0
M  V30 12703 C 1155.86 -5.20666 -1.21699 0
M  V30 12704 C 1157.16 -5.13254 0.967859 0
M  V30 12705 H 1158.85 -2.87791 0.825637 0
M  V30 12706 H 1156.4 -1.38377 0.398484 0
M  V30 12707 H 1158.35 -3.99526 -1.34004 0
M  V30 12708 H 1157.08 -2.80024 -1.68089 0
M  V30 12709 H 1155.73 -3.65586 0.272441 0
M  V30 12710 H 1155.38 -4.60987 -2.01246 0
M  V30 12711 H 1155.08 -5.82822 -0.747836 0
M  V30 12712 H 1156.61 -5.87053 -1.6793 0
M  V30 12713 H 1158.02 -5.70298 0.585944 0
M  V30 12714 H 1156.42 -5.84381 1.3645 0
M  V30 12715 H 1157.49 -4.5006 1.80483 0
M  V30 12716 N 1158.83 -0.446794 -1.51134 0
M  V30 12717 C 1159.76 0.350229 -2.30858 0
M  V30 12718 C 1160.74 1.0125 -1.36684 0
M  V30 12719 O 1161.93 1.01433 -1.65605 0
M  V30 12720 C 1159.06 1.4464 -3.15748 0
M  V30 12721 C 1158.01 0.907102 -4.18277 0
M  V30 12722 C 1157.34 2.09974 -4.91747 0
M  V30 12723 C 1158.64 -0.0649758 -5.2226 0
M  V30 12724 H 1160.33 -0.315105 -2.97737 0
M  V30 12725 H 1157.88 -0.152985 -1.43185 0
M  V30 12726 H 1159.83 2.01127 -3.70305 0
M  V30 12727 H 1158.55 2.14016 -2.46708 0
M  V30 12728 H 1157.21 0.364382 -3.64785 0
M  V30 12729 H 1156.86 2.77991 -4.19202 0
M  V30 12730 H 1156.56 1.74523 -5.61084 0
M  V30 12731 H 1158.08 2.66996 -5.49131 0
M  V30 12732 H 1159.5 0.4099 -5.71833 0
M  V30 12733 H 1157.9 -0.332529 -5.99178 0
M  V30 12734 H 1158.97 -0.998681 -4.74504 0
M  V30 12735 N 1160.31 1.56586 -0.178487 0
M  V30 12736 C 1161.24 2.21313 0.744486 0
M  V30 12737 C 1162.22 1.17098 1.23377 0
M  V30 12738 O 1163.4 1.45551 1.28563 0
M  V30 12739 C 1160.53 2.8595 1.97103 0
M  V30 12740 C 1159.49 3.96266 1.61732 0
M  V30 12741 C 1158.81 4.47987 2.91911 0
M  V30 12742 C 1160.11 5.15503 0.839868 0
M  V30 12743 H 1161.81 2.98698 0.204938 0
M  V30 12744 H 1159.35 1.43672 0.0971306 0
M  V30 12745 H 1161.31 3.29909 2.6218 0
M  V30 12746 H 1160.03 2.05946 2.53484 0
M  V30 12747 H 1158.69 3.52974 0.990208 0
M  V30 12748 H 1158.34 3.64765 3.46346 0
M  V30 12749 H 1158.04 5.22413 2.68995 0
M  V30 12750 H 1159.56 4.94637 3.58004 0
M  V30 12751 H 1160.98 5.5611 1.39337 0
M  V30 12752 H 1159.37 5.95891 0.709473 0
M  V30 12753 H 1160.44 4.84628 -0.162396 0
M  V30 12754 N 1161.79 -0.095206 1.57312 0
M  V30 12755 C 1163.01 -0.81227 1.90289 0
M  V30 12756 C 1163.43 -1.72287 0.772178 0
M  V30 12757 O 1162.79 -1.80698 -0.255841 0
M  V30 12758 C 1162.84 -1.62572 3.22882 0
M  V30 12759 O 1162.56 -0.75175 4.31602 0
M  V30 12760 C 1164.06 -2.44585 3.6972 0
M  V30 12761 H 1161.28 -0.232256 0.629522 0
M  V30 12762 H 1163.82 -0.0724733 2.04372 0
M  V30 12763 H 1161.98 -2.31803 3.10397 0
M  V30 12764 H 1162.39 -1.31514 5.07744 0
M  V30 12765 H 1163.87 -2.97155 4.65191 0
M  V30 12766 H 1164.34 -3.23044 2.97555 0
M  V30 12767 H 1164.95 -1.80554 3.85072 0
M  V30 12768 N 1163.26 -1.53291 -0.366026 0
M  V30 12769 C 1164.68 -1.61144 -0.942849 0
M  V30 12770 C 1165.03 -0.478571 -1.90274 0
M  V30 12771 O 1164.15 0.395069 -2.12763 0
M  V30 12772 C 1164.75 -2.92081 -1.71681 0
M  V30 12773 C 1163.31 -3.0227 -2.24298 0
M  V30 12774 C 1162.45 -2.56436 -1.05526 0
M  V30 12775 H 1165.4 -1.58038 -0.144835 0
M  V30 12776 H 1165.42 -2.79858 -2.57798 0
M  V30 12777 H 1164.94 -3.74513 -1.01793 0
M  V30 12778 H 1163.04 -2.24425 -2.97429 0
M  V30 12779 H 1163.15 -4.07341 -2.5221 0
M  V30 12780 H 1161.51 -2.11301 -1.42211 0
M  V30 12781 H 1162.3 -3.41285 -0.371376 0
M  V30 12782 N 1164.74 0.6258 -1.44643 0
M  V30 12783 C 1165.69 1.73751 -1.51919 0
M  V30 12784 C 1166.66 1.62007 -0.36647 0
M  V30 12785 O 1167.84 1.81852 -0.577439 0
M  V30 12786 C 1164.98 3.12015 -1.47448 0
M  V30 12787 C 1164.1 3.34696 -2.73135 0
M  V30 12788 C 1163.23 4.62962 -2.6046 0
M  V30 12789 C 1162.27 4.7884 -3.81286 0
M  V30 12790 N 1161.41 5.98388 -3.67255 0
M  V30 12791 H 1166.25 1.66867 -2.46899 0
M  V30 12792 H 1163.79 0.813921 -1.22531 0
M  V30 12793 H 1165.74 3.91983 -1.42846 0
M  V30 12794 H 1164.37 3.179 -0.560312 0
M  V30 12795 H 1163.43 2.4863 -2.87901 0
M  V30 12796 H 1164.74 3.42306 -3.62806 0
M  V30 12797 H 1163.89 5.51099 -2.53722 0
M  V30 12798 H 1162.63 4.57719 -1.68359 0
M  V30 12799 H 1161.64 3.89131 -3.88403 0
M  V30 12800 H 1162.86 4.85893 -4.74431 0
M  V30 12801 H 1160.81 5.94224 -2.77909 0
M  V30 12802 H 1160.72 6.07078 -4.50547 0
M  V30 12803 H 1161.99 6.89072 -3.64417 0
M  V30 12804 N 1166.22 1.31629 0.866686 0
M  V30 12805 C 1167.46 1.22806 1.63395 0
M  V30 12806 C 1167.82 -0.209785 1.9085 0
M  V30 12807 O 1169.03 -0.421562 2.65474 0
M  V30 12808 C 1167.3 2.05187 2.92631 0
M  V30 12809 S 1168.86 2.13261 3.83491 0
M  V30 12810 H 1165.67 0.437339 0.560585 0
M  V30 12811 H 1168.28 1.66333 1.02731 0
M  V30 12812 H 1166.98 3.08736 2.70389 0
M  V30 12813 H 1166.51 1.62393 3.58318 0
M  V30 12814 H 1168.53 1.27333 4.79584 0
M  V30 12815 N 1167.7 -1.08142 1.14644 0
M  V30 12816 C 1168.63 -2.17139 0.858667 0
M  V30 12817 C 1169.61 -1.69064 -0.187452 0
M  V30 12818 O 1170.8 -1.94151 -0.0435458 0
M  V30 12819 C 1167.93 -3.45648 0.33834 0
M  V30 12820 C 1166.88 -4.07129 1.32021 0
M  V30 12821 C 1166.21 -5.30623 0.659075 0
M  V30 12822 C 1167.51 -4.48095 2.68343 0
M  V30 12823 H 1169.2 -2.41468 1.77012 0
M  V30 12824 H 1166.75 -1.16052 0.852523 0
M  V30 12825 H 1168.7 -4.21216 0.124611 0
M  V30 12826 H 1167.42 -3.2088 -0.608553 0
M  V30 12827 H 1166.08 -3.33596 1.52016 0
M  V30 12828 H 1165.73 -5.02142 -0.293711 0
M  V30 12829 H 1165.43 -5.72714 1.31427 0
M  V30 12830 H 1166.95 -6.08903 0.454933 0
M  V30 12831 H 1168.37 -5.14828 2.5224 0
M  V30 12832 H 1166.76 -5.01113 3.30161 0
M  V30 12833 H 1167.83 -3.59852 3.25015 0
M  V30 12834 N 1169.18 -0.941978 -1.26351 0
M  V30 12835 C 1170.41 -0.605868 -1.97517 0
M  V30 12836 C 1170.82 0.823583 -1.70334 0
M  V30 12837 O 1170.16 1.56085 -0.968662 0
M  V30 12838 C 1170.22 -0.769201 -3.51175 0
M  V30 12839 C 1169.88 -2.17343 -4.02009 0
M  V30 12840 C 1170.88 -3.14898 -4.13685 0
M  V30 12841 C 1168.57 -2.49422 -4.35998 0
M  V30 12842 C 1170.56 -4.42631 -4.58646 0
M  V30 12843 C 1168.25 -3.77388 -4.80647 0
M  V30 12844 C 1169.25 -4.73806 -4.91932 0
M  V30 12845 O 1168.93 -5.99493 -5.35596 0
M  V30 12846 H 1168.67 -0.227113 -0.636707 0
M  V30 12847 H 1171.22 -1.26523 -1.61806 0
M  V30 12848 H 1169.45 -0.0527104 -3.86664 0
M  V30 12849 H 1171.14 -0.436032 -4.03551 0
M  V30 12850 H 1171.9 -2.91438 -3.87671 0
M  V30 12851 H 1167.78 -1.7511 -4.26448 0
M  V30 12852 H 1171.33 -5.17892 -4.67369 0
M  V30 12853 H 1167.22 -4.0066 -5.06105 0
M  V30 12854 H 1167.99 -6.02687 -5.53815 0
M  V30 12855 N 1170.66 1.40747 -0.709091 0
M  V30 12856 C 1171.59 2.33404 -0.0669763 0
M  V30 12857 C 1172.57 1.52546 0.752582 0
M  V30 12858 O 1173.75 1.81036 0.702823 0
M  V30 12859 C 1170.88 3.36476 0.860285 0
M  V30 12860 C 1169.84 4.27748 0.146828 0
M  V30 12861 C 1169.16 5.21304 1.18937 0
M  V30 12862 C 1170.46 5.12734 -0.995064 0
M  V30 12863 H 1172.16 2.87349 -0.840888 0
M  V30 12864 H 1169.7 1.38163 -0.405817 0
M  V30 12865 H 1171.65 4.00231 1.31883 0
M  V30 12866 H 1170.38 2.80912 1.66602 0
M  V30 12867 H 1169.04 3.65437 -0.291826 0
M  V30 12868 H 1168.69 4.62048 1.98798 0
M  V30 12869 H 1168.39 5.8321 0.716917 0
M  V30 12870 H 1169.91 5.87936 1.64815 0
M  V30 12871 H 1171.32 5.69979 -0.61618 0
M  V30 12872 H 1169.72 5.83649 -1.39547 0
M  V30 12873 H 1170.79 4.49097 -1.82867 0
M  V30 12874 N 1172.13 0.454803 1.50895 0
M  V30 12875 C 1173.38 -0.107367 2.01414 0
M  V30 12876 C 1173.7 -1.42243 1.34262 0
M  V30 12877 O 1174.9 -2.06858 1.75846 0
M  V30 12878 C 1173.36 -0.241872 3.59086 0
M  V30 12879 C 1172.97 1.06379 4.35187 0
M  V30 12880 C 1174.71 -0.756873 4.17698 0
M  V30 12881 C 1172.62 0.893973 5.84604 0
M  V30 12882 H 1171.55 -0.0439003 0.752721 0
M  V30 12883 H 1174.2 0.587225 1.7385 0
M  V30 12884 H 1172.58 -0.999873 3.83169 0
M  V30 12885 H 1173.75 1.83148 4.2284 0
M  V30 12886 H 1172.07 1.50865 3.88109 0
M  V30 12887 H 1174.67 -0.900697 5.27059 0
M  V30 12888 H 1175.01 -1.74397 3.7801 0
M  V30 12889 H 1175.54 -0.0567088 3.9776 0
M  V30 12890 H 1172.28 1.85395 6.28736 0
M  V30 12891 H 1171.8 0.166387 5.99569 0
M  V30 12892 H 1173.48 0.554084 6.44623 0
M  V30 12893 N 1173.61 -1.56489 0.186789 0
M  V30 12894 C 1174.86 -1.96952 -0.453261 0
M  V30 12895 C 1175.18 -1.07451 -1.62725 0
M  V30 12896 O 1174.45 -0.144046 -1.9537 0
M  V30 12897 H 1173.03 -0.727295 -0.170445 0
M  V30 12898 H 1175.69 -1.92999 0.271584 0
M  V30 12899 H 1174.79 -3.01594 -0.802951 0
M  V30 12900 N 1175.09 0.086862 -1.5736 0
M  V30 12901 C 1176.51 0.441284 -1.53378 0
M  V30 12902 C 1176.71 1.80046 -0.904748 0
M  V30 12903 O 1175.76 2.47484 -0.500781 0
M  V30 12904 C 1177.07 0.3962 -2.98078 0
M  V30 12905 C 1178.62 0.477468 -3.09337 0
M  V30 12906 C 1179.1 0.462448 -4.55659 0
M  V30 12907 N 1180.59 0.522963 -4.60238 0
M  V30 12908 C 1181.32 0.533313 -5.70914 0
M  V30 12909 N 1180.82 0.499376 -6.90998 0
M  V30 12910 N 1182.61 0.578742 -5.59113 0
M  V30 12911 H 1174.76 -0.803308 -1.96623 0
M  V30 12912 H 1177.03 -0.299879 -0.89932 0
M  V30 12913 H 1176.73 -0.535505 -3.47599 0
M  V30 12914 H 1176.61 1.21209 -3.57195 0
M  V30 12915 H 1178.99 1.39959 -2.59799 0
M  V30 12916 H 1179.07 -0.366717 -2.53158 0
M  V30 12917 H 1178.72 -0.455768 -5.05851 0
M  V30 12918 H 1178.65 1.32396 -5.09685 0
M  V30 12919 H 1181.14 0.554051 -3.73816 0
M  V30 12920 H 1181.45 0.510784 -7.7111 0
M  V30 12921 H 1179.8 0.466296 -6.93434 0
M  V30 12922 H 1182.99 0.602841 -4.64202 0
M  V30 12923 H 1183.16 0.583339 -6.45369 0
M  V30 12924 N 1176.57 1.53483 0.357892 0
M  V30 12925 C 1177.48 1.83434 1.4625 0
M  V30 12926 C 1178.49 0.723313 1.58254 0
M  V30 12927 O 1179.67 1.01416 1.74002 0
M  V30 12928 C 1176.73 2.0249 2.81423 0
M  V30 12929 C 1175.8 3.26378 2.78883 0
M  V30 12930 C 1175.03 3.44516 4.07608 0
M  V30 12931 O 1175.25 2.66787 5.04163 0
M  V30 12932 O 1174.19 4.37898 4.12952 0
M  V30 12933 H 1178.01 2.77294 1.23861 0
M  V30 12934 H 1175.6 1.38958 0.548722 0
M  V30 12935 H 1177.48 2.16552 3.61501 0
M  V30 12936 H 1176.15 1.11819 3.03773 0
M  V30 12937 H 1175.06 3.17733 1.97475 0
M  V30 12938 H 1176.39 4.16996 2.61486 0
M  V30 12939 N 1178.05 -0.61812 1.44973 0
M  V30 12940 C 1178.99 -1.72942 1.52838 0
M  V30 12941 C 1179.96 -1.6181 0.375056 0
M  V30 12942 O 1181.15 -1.81544 0.587075 0
M  V30 12943 C 1178.29 -3.11228 1.49101 0
M  V30 12944 C 1177.4 -3.33243 2.74906 0
M  V30 12945 C 1176.54 -4.61574 2.62912 0
M  V30 12946 C 1175.57 -4.76811 3.8382 0
M  V30 12947 N 1174.71 -5.96432 3.70424 0
M  V30 12948 H 1179.55 -1.65556 2.47781 0
M  V30 12949 H 1177.09 -0.807411 1.2296 0
M  V30 12950 H 1179.05 -3.9122 1.44923 0
M  V30 12951 H 1177.68 -3.17598 0.577163 0
M  V30 12952 H 1176.73 -2.471 2.89216 0
M  V30 12953 H 1178.04 -3.40377 3.64616 0
M  V30 12954 H 1177.19 -5.49746 2.56641 0
M  V30 12955 H 1175.93 -4.5682 1.70784 0
M  V30 12956 H 1174.94 -3.87066 3.90461 0
M  V30 12957 H 1176.16 -4.83371 4.77001 0
M  V30 12958 H 1174.11 -5.92742 2.81057 0
M  V30 12959 H 1174.03 -6.0468 4.5376 0
M  V30 12960 H 1175.29 -6.8713 3.68067 0
M  V30 12961 N 1179.52 -1.32087 -0.859693 0
M  V30 12962 C 1180.77 -1.22542 -1.6159 0
M  V30 12963 C 1181.1 0.213533 -1.93022 0
M  V30 12964 O 1180.38 1.14931 -1.56911 0
M  V30 12965 C 1180.66 -2.08004 -2.93949 0
M  V30 12966 C 1180.51 -3.60252 -2.6933 0
M  V30 12967 C 1181.83 -1.93732 -3.95166 0
M  V30 12968 H 1178.95 -0.446504 -0.586347 0
M  V30 12969 H 1181.59 -1.61982 -0.993064 0
M  V30 12970 H 1179.74 -1.74498 -3.47106 0
M  V30 12971 H 1181.42 -4.03947 -2.22766 0
M  V30 12972 H 1179.66 -3.83169 -2.03382 0
M  V30 12973 H 1180.33 -4.1537 -3.63555 0
M  V30 12974 H 1182.81 -2.23075 -3.5125 0
M  V30 12975 H 1181.68 -2.55815 -4.85644 0
M  V30 12976 H 1181.94 -0.903528 -4.32769 0
M  V30 12977 N 1181 1.07532 -1.15215 0
M  V30 12978 C 1181.95 2.14687 -0.847243 0
M  V30 12979 C 1182.92 1.64903 0.199043 0
M  V30 12980 O 1184.1 1.90682 0.0669986 0
M  V30 12981 C 1181.24 3.43414 -0.340673 0
M  V30 12982 C 1180.36 4.06999 -1.44831 0
M  V30 12983 C 1179.49 5.23554 -0.898059 0
M  V30 12984 C 1178.53 5.79097 -1.98276 0
M  V30 12985 N 1177.67 6.86985 -1.44902 0
M  V30 12986 H 1182.51 2.4011 -1.76498 0
M  V30 12987 H 1180.04 1.17823 -0.880689 0
M  V30 12988 H 1182 4.1719 -0.0286956 0
M  V30 12989 H 1180.63 3.18249 0.540144 0
M  V30 12990 H 1179.68 3.30895 -1.87651 0
M  V30 12991 H 1181 4.44289 -2.26735 0
M  V30 12992 H 1180.15 6.04305 -0.538514 0
M  V30 12993 H 1178.89 4.87676 -0.0481752 0
M  V30 12994 H 1177.89 4.96992 -2.35115 0
M  V30 12995 H 1179.12 6.1703 -2.83639 0
M  V30 12996 H 1177.07 6.5305 -0.621468 0
M  V30 12997 H 1176.98 7.23149 -2.20434 0
M  V30 12998 H 1178.25 7.71446 -1.11767 0
M  V30 12999 N 1182.48 0.948665 1.2585 0
M  V30 13000 C 1183.41 0.421458 2.25292 0
M  V30 13001 C 1184.43 -0.459389 1.56184 0
M  V30 13002 O 1185.61 -0.268627 1.76467 0
M  V30 13003 C 1182.71 -0.412653 3.36378 0
M  V30 13004 C 1181.89 0.453792 4.3504 0
M  V30 13005 C 1180.95 -0.321127 5.25219 0
M  V30 13006 O 1179.97 0.278424 5.68519 0
M  V30 13007 N 1181.17 -1.61576 5.5756 0
M  V30 13008 H 1183.94 1.27636 2.71162 0
M  V30 13009 H 1181.5 0.818367 1.39694 0
M  V30 13010 H 1183.49 -0.938637 3.93664 0
M  V30 13011 H 1182.06 -1.16839 2.89944 0
M  V30 13012 H 1181.28 1.16093 3.76718 0
M  V30 13013 H 1182.57 1.04538 4.97945 0
M  V30 13014 H 1181.97 -2.12488 5.24276 0
M  V30 13015 H 1180.53 -2.08783 6.17457 0
M  V30 13016 N 1183.96 -1.40369 0.716545 0
M  V30 13017 C 1185.21 -2.00473 0.255959 0
M  V30 13018 C 1185.53 -1.57104 -1.15514 0
M  V30 13019 O 1184.8 -0.810925 -1.78328 0
M  V30 13020 H 1183.38 -0.741357 0.0916427 0
M  V30 13021 H 1186.04 -1.71692 0.922389 0
M  V30 13022 H 1185.14 -3.10752 0.289806 0
M  V30 13023 N 1185.44 -0.462799 -1.50652 0
M  V30 13024 C 1186.85 -0.00568907 -1.86699 0
M  V30 13025 C 1187.2 1.39641 -1.37822 0
M  V30 13026 O 1186.32 2.03366 -0.739679 0
M  V30 13027 C 1186.92 -0.00354783 -3.388 0
M  V30 13028 C 1185.48 0.398061 -3.74289 0
M  V30 13029 C 1184.62 -0.392574 -2.74507 0
M  V30 13030 H 1187.58 -0.677469 -1.43513 0
M  V30 13031 H 1187.6 0.800456 -3.71985 0
M  V30 13032 H 1187.11 -1.02414 -3.74344 0
M  V30 13033 H 1185.21 1.42331 -3.44344 0
M  V30 13034 H 1185.32 0.105168 -4.78985 0
M  V30 13035 H 1183.69 0.152608 -2.54242 0
M  V30 13036 H 1184.47 -1.41252 -3.12894 0
M  V30 13037 N 1186.91 1.56388 -0.195085 0
M  V30 13038 C 1188.19 1.89329 0.491303 0
M  V30 13039 C 1188.57 1.10861 1.79647 0
M  V30 13040 O 1187.92 0.209696 2.27536 0
M  V30 13041 C 1188.13 3.417 0.710096 0
M  V30 13042 C 1189.48 4.11931 1.02947 0
M  V30 13043 O 1190.5 3.4715 0.797817 0
M  V30 13044 O 1189.36 5.26423 1.46767 0
M  V30 13045 H 1186.45 0.786335 0.256137 0
M  V30 13046 H 1189 1.68061 -0.235298 0
M  V30 13047 H 1187.77 3.90727 -0.211604 0
M  V30 13048 H 1187.4 3.6866 1.48916 0
M  V30 13049 N 1188.39 -0.0785156 1.57404 0
M  V30 13050 C 1189.34 -1.09402 2.03224 0
M  V30 13051 C 1190.31 -1.38849 0.911596 0
M  V30 13052 O 1191.49 -1.50031 1.17878 0
M  V30 13053 C 1188.63 -2.40444 2.47549 0
M  V30 13054 C 1187.75 -2.17585 3.73203 0
M  V30 13055 C 1186.88 -3.42143 4.06339 0
M  V30 13056 C 1185.92 -3.14619 5.25054 0
M  V30 13057 N 1185.06 -4.31489 5.5386 0
M  V30 13058 H 1189.9 -0.696307 2.89751 0
M  V30 13059 H 1187.44 -0.332261 1.43298 0
M  V30 13060 H 1189.39 -3.16944 2.71298 0
M  V30 13061 H 1188.02 -2.78031 1.64009 0
M  V30 13062 H 1187.08 -1.3181 3.56834 0
M  V30 13063 H 1188.39 -1.93249 4.59844 0
M  V30 13064 H 1187.54 -4.27042 4.30953 0
M  V30 13065 H 1186.28 -3.69549 3.18253 0
M  V30 13066 H 1185.29 -2.28116 5.00243 0
M  V30 13067 H 1186.51 -2.88543 6.14752 0
M  V30 13068 H 1184.46 -4.58939 4.68734 0
M  V30 13069 H 1184.37 -4.10403 6.34906 0
M  V30 13070 H 1185.64 -5.17404 5.83021 0
M  V30 13071 N 1189.87 -1.5367 -0.349747 0
M  V30 13072 C 1191.12 -1.70281 -1.08853 0
M  V30 13073 C 1191.44 -0.465438 -1.89364 0
M  V30 13074 O 1190.71 0.520615 -1.88856 0
M  V30 13075 H 1189.29 -0.627775 -0.404854 0
M  V30 13076 H 1191.95 -1.90906 -0.392523 0
M  V30 13077 H 1191.05 -2.57096 -1.76941 0
M  V30 13078 N 1191.35 0.610423 -1.45298 0
M  V30 13079 C 1192.28 1.73207 -1.56594 0
M  V30 13080 C 1193.26 1.64893 -0.417651 0
M  V30 13081 O 1194.44 1.83336 -0.64043 0
M  V30 13082 C 1191.57 3.11803 -1.52959 0
M  V30 13083 C 1190.53 3.34925 -2.66475 0
M  V30 13084 C 1189.85 4.73764 -2.47894 0
M  V30 13085 C 1191.15 3.25456 -4.08504 0
M  V30 13086 H 1192.85 1.6401 -2.50482 0
M  V30 13087 H 1190.39 0.787621 -1.20551 0
M  V30 13088 H 1192.35 3.90065 -1.59458 0
M  V30 13089 H 1191.07 3.21833 -0.55599 0
M  V30 13090 H 1189.73 2.59051 -2.59399 0
M  V30 13091 H 1189.38 4.80524 -1.4868 0
M  V30 13092 H 1189.08 4.90191 -3.24016 0
M  V30 13093 H 1190.6 5.54231 -2.56243 0
M  V30 13094 H 1192.02 3.93597 -4.16839 0
M  V30 13095 H 1190.41 3.53414 -4.84994 0
M  V30 13096 H 1191.48 2.22939 -4.30612 0
M  V30 13097 N 1192.83 1.32541 0.852676 0
M  V30 13098 C 1194.07 1.23397 1.60938 0
M  V30 13099 C 1194.41 -0.203294 1.93133 0
M  V30 13100 O 1193.68 -1.14097 1.57519 0
M  V30 13101 C 1193.96 2.0956 2.92842 0
M  V30 13102 C 1193.82 3.61675 2.67416 0
M  V30 13103 C 1195.14 1.95825 3.94133 0
M  V30 13104 H 1192.25 0.449608 0.583971 0
M  V30 13105 H 1194.9 1.62507 0.98446 0
M  V30 13106 H 1193.05 1.76336 3.46176 0
M  V30 13107 H 1194.72 4.05122 2.20621 0
M  V30 13108 H 1192.96 3.84242 2.01347 0
M  V30 13109 H 1193.63 4.17292 3.61347 0
M  V30 13110 H 1196.11 2.24935 3.50062 0
M  V30 13111 H 1194.98 2.58387 4.8428 0
M  V30 13112 H 1195.25 0.926466 4.32284 0
M  V30 13113 N 1194.3 -1.0692 1.15784 0
M  V30 13114 C 1195.25 -2.14235 0.858616 0
M  V30 13115 C 1196.22 -1.65006 -0.190295 0
M  V30 13116 O 1197.41 -1.90715 -0.0568853 0
M  V30 13117 C 1194.55 -3.43229 0.35888 0
M  V30 13118 C 1193.66 -4.06225 1.46987 0
M  V30 13119 C 1192.79 -5.2307 0.925812 0
M  V30 13120 C 1191.83 -5.78037 2.01345 0
M  V30 13121 N 1190.97 -6.86206 1.48544 0
M  V30 13122 H 1195.81 -2.3917 1.77769 0
M  V30 13123 H 1193.35 -1.17354 0.886925 0
M  V30 13124 H 1195.31 -4.17169 0.0508198 0
M  V30 13125 H 1193.94 -3.18531 -0.523259 0
M  V30 13126 H 1192.99 -3.29895 1.89403 0
M  V30 13127 H 1194.3 -4.43081 2.29088 0
M  V30 13128 H 1193.45 -6.04011 0.570555 0
M  V30 13129 H 1192.19 -4.87644 0.0740371 0
M  V30 13130 H 1191.2 -4.95738 2.37748 0
M  V30 13131 H 1192.42 -6.15517 2.86907 0
M  V30 13132 H 1190.37 -6.52711 0.656092 0
M  V30 13133 H 1190.29 -7.2197 2.24266 0
M  V30 13134 H 1191.55 -7.70842 1.15856 0
M  V30 13135 N 1195.78 -0.955326 -1.25345 0
M  V30 13136 C 1196.69 -0.482707 -2.2958 0
M  V30 13137 C 1197.71 0.450283 -1.68073 0
M  V30 13138 O 1198.88 0.326358 -1.98738 0
M  V30 13139 C 1195.95 0.231293 -3.45928 0
M  V30 13140 C 1195.01 -0.739995 -4.22874 0
M  V30 13141 C 1194.24 -0.0599748 -5.33666 0
M  V30 13142 O 1194.47 1.15423 -5.586 0
M  V30 13143 O 1193.4 -0.745865 -5.97261 0
M  V30 13144 H 1197.23 -1.34892 -2.72099 0
M  V30 13145 H 1194.81 -0.721812 -1.30806 0
M  V30 13146 H 1196.69 0.632908 -4.1662 0
M  V30 13147 H 1195.37 1.07267 -3.0541 0
M  V30 13148 H 1194.28 -1.19183 -3.54607 0
M  V30 13149 H 1195.61 -1.54941 -4.67177 0
M  V30 13150 N 1197.26 1.39987 -0.723979 0
M  V30 13151 C 1198.51 2.01028 -0.267511 0
M  V30 13152 C 1198.84 1.57295 1.13894 0
M  V30 13153 O 1198.12 0.796805 1.7743 0
M  V30 13154 C 1198.4 3.58326 -0.356971 0
M  V30 13155 C 1198.25 4.12109 -1.8024 0
M  V30 13156 C 1199.57 4.39289 0.267003 0
M  V30 13157 H 1196.69 0.730364 -0.0986775 0
M  V30 13158 H 1199.33 1.66348 -0.91806 0
M  V30 13159 H 1197.48 3.88001 0.196908 0
M  V30 13160 H 1199.15 3.93199 -2.41231 0
M  V30 13161 H 1197.4 3.66082 -2.32737 0
M  V30 13162 H 1198.07 5.21261 -1.81634 0
M  V30 13163 H 1200.54 4.15595 -0.20503 0
M  V30 13164 H 1199.42 5.48624 0.174004 0
M  V30 13165 H 1199.68 4.20931 1.35164 0
M  V30 13166 N 1198.74 0.470782 1.50404 0
M  V30 13167 C 1199.67 -0.313458 2.31386 0
M  V30 13168 C 1200.65 -0.990623 1.38278 0
M  V30 13169 O 1201.84 -0.987854 1.67198 0
M  V30 13170 C 1198.97 -1.39599 3.18009 0
M  V30 13171 C 1197.92 -0.840443 4.19667 0
M  V30 13172 C 1197.25 -2.02124 4.95025 0
M  V30 13173 C 1198.55 0.148055 5.2209 0
M  V30 13174 H 1200.24 0.362432 2.97198 0
M  V30 13175 H 1197.79 0.175745 1.42924 0
M  V30 13176 H 1199.74 -1.9521 3.73458 0
M  V30 13177 H 1198.46 -2.10064 2.50081 0
M  V30 13178 H 1197.12 -0.306302 3.65318 0
M  V30 13179 H 1196.77 -2.71286 4.23571 0
M  V30 13180 H 1196.47 -1.65574 5.6379 0
M  V30 13181 H 1197.99 -2.58226 5.5331 0
M  V30 13182 H 1199.41 -0.318874 5.72413 0
M  V30 13183 H 1197.8 0.427811 5.98573 0
M  V30 13184 H 1198.87 1.07404 4.72855 0
M  V30 13185 N 1200.22 -1.56282 0.203376 0
M  V30 13186 C 1201.16 -2.19473 -0.714164 0
M  V30 13187 C 1202.13 -1.14454 -1.20372 0
M  V30 13188 O 1203.32 -1.42739 -1.26611 0
M  V30 13189 C 1200.46 -2.86451 -1.92457 0
M  V30 13190 C 1199.57 -4.06017 -1.47561 0
M  V30 13191 C 1198.71 -4.60829 -2.64216 0
M  V30 13192 C 1197.75 -5.72734 -2.15967 0
M  V30 13193 N 1196.88 -6.21916 -3.25829 0
M  V30 13194 H 1201.72 -2.97523 -0.168558 0
M  V30 13195 H 1199.26 -1.46926 -0.0714525 0
M  V30 13196 H 1201.22 -3.23459 -2.63496 0
M  V30 13197 H 1199.85 -2.10951 -2.44335 0
M  V30 13198 H 1198.9 -3.74617 -0.660784 0
M  V30 13199 H 1200.21 -4.8693 -1.08168 0
M  V30 13200 H 1199.37 -5.00185 -3.43366 0
M  V30 13201 H 1198.11 -3.7904 -3.06887 0
M  V30 13202 H 1197.11 -5.32899 -1.35273 0
M  V30 13203 H 1198.34 -6.56346 -1.74316 0
M  V30 13204 H 1196.28 -5.43047 -3.68016 0
M  V30 13205 H 1196.2 -6.97904 -2.90631 0
M  V30 13206 H 1197.47 -6.65927 -4.05168 0
M  V30 13207 N 1201.7 0.070167 -1.57444 0
M  V30 13208 C 1203.11 0.424991 -1.53838 0
M  V30 13209 C 1203.31 1.79076 -0.923793 0
M  V30 13210 O 1202.37 2.46939 -0.527002 0
M  V30 13211 C 1203.68 0.364562 -2.98482 0
M  V30 13212 C 1205.23 0.444631 -3.09826 0
M  V30 13213 C 1205.7 0.414093 -4.56124 0
M  V30 13214 N 1207.19 0.474119 -4.60767 0
M  V30 13215 C 1207.93 0.472729 -5.71448 0
M  V30 13216 N 1207.43 0.426059 -6.91489 0
M  V30 13217 N 1209.22 0.519408 -5.59695 0
M  V30 13218 H 1201.37 -0.824117 -1.9576 0
M  V30 13219 H 1203.63 -0.309401 -0.896089 0
M  V30 13220 H 1203.34 -0.572343 -3.47012 0
M  V30 13221 H 1203.21 1.17414 -3.5846 0
M  V30 13222 H 1205.6 1.37196 -2.61269 0
M  V30 13223 H 1205.68 -0.393547 -2.52755 0
M  V30 13224 H 1205.32 -0.509394 -5.05339 0
M  V30 13225 H 1205.25 1.26983 -5.11061 0
M  V30 13226 H 1207.75 0.514371 -3.74383 0
M  V30 13227 H 1208.06 0.428969 -7.71609 0
M  V30 13228 H 1206.4 0.392722 -6.9389 0
M  V30 13229 H 1209.59 0.553573 -4.64815 0
M  V30 13230 H 1209.77 0.514856 -6.45951 0
M  V30 13231 N 1203.17 1.53854 0.341593 0
M  V30 13232 C 1204.12 1.81979 1.41959 0
M  V30 13233 C 1205.09 0.665616 1.5218 0
M  V30 13234 O 1206.28 0.910246 1.67688 0
M  V30 13235 C 1203.42 2.03681 2.78583 0
M  V30 13236 C 1202.53 3.31389 2.77137 0
M  V30 13237 C 1201.66 3.43148 4.05491 0
M  V30 13238 C 1200.7 4.64799 3.98282 0
M  V30 13239 N 1199.84 4.73581 5.18329 0
M  V30 13240 H 1204.68 2.73953 1.17275 0
M  V30 13241 H 1202.22 1.35689 0.568062 0
M  V30 13242 H 1204.17 2.14253 3.57983 0
M  V30 13243 H 1202.8 1.15017 3.01614 0
M  V30 13244 H 1201.86 3.29649 1.89832 0
M  V30 13245 H 1203.17 4.20885 2.67689 0
M  V30 13246 H 1202.32 3.53163 4.93316 0
M  V30 13247 H 1201.06 2.51712 4.17723 0
M  V30 13248 H 1200.07 4.54859 3.08842 0
M  V30 13249 H 1201.29 5.57601 3.87631 0
M  V30 13250 H 1199.24 3.85055 5.31102 0
M  V30 13251 H 1199.15 5.57016 5.11145 0
M  V30 13252 H 1200.42 4.87908 6.0792 0
M  V30 13253 N 1204.65 -0.602709 1.4562 0
M  V30 13254 C 1205.9 -1.35769 1.49163 0
M  V30 13255 C 1206.21 -1.95102 0.139485 0
M  V30 13256 O 1207.42 -2.71449 0.0525919 0
M  V30 13257 C 1205.88 -2.45959 2.62739 0
M  V30 13258 C 1205.48 -1.93017 4.04288 0
M  V30 13259 C 1207.23 -3.22926 2.75534 0
M  V30 13260 C 1205.13 -3.00718 5.09237 0
M  V30 13261 H 1204.06 -0.510317 0.555061 0
M  V30 13262 H 1206.72 -0.645434 1.71774 0
M  V30 13263 H 1205.1 -3.19892 2.3342 0
M  V30 13264 H 1206.27 -1.2576 4.43307 0
M  V30 13265 H 1204.59 -1.2878 3.95986 0
M  V30 13266 H 1207.18 -4.03267 3.51112 0
M  V30 13267 H 1207.53 -3.74243 1.82339 0
M  V30 13268 H 1208.06 -2.56095 3.04402 0
M  V30 13269 H 1204.8 -2.54312 6.04157 0
M  V30 13270 H 1204.32 -3.66526 4.74783 0
M  V30 13271 H 1206 -3.65016 5.34202 0
M  V30 13272 N 1206.13 -1.32992 -0.845635 0
M  V30 13273 C 1207.04 -1.24701 -1.98713 0
M  V30 13274 C 1208.06 -0.158864 -1.73273 0
M  V30 13275 O 1209.23 -0.381209 -1.97759 0
M  V30 13276 C 1206.3 -0.979524 -3.32575 0
M  V30 13277 C 1205.36 -2.15701 -3.71176 0
M  V30 13278 C 1204.59 -1.90219 -4.98651 0
M  V30 13279 O 1204.81 -0.849171 -5.64044 0
M  V30 13280 O 1203.75 -2.76571 -5.34595 0
M  V30 13281 H 1207.57 -2.20683 -2.08645 0
M  V30 13282 H 1205.16 -1.12971 -0.97765 0
M  V30 13283 H 1207.04 -0.847219 -4.12796 0
M  V30 13284 H 1205.72 -0.0499398 -3.23661 0
M  V30 13285 H 1204.62 -2.34483 -2.91494 0
M  V30 13286 H 1205.96 -3.0697 -3.84747 0
M  V30 13287 N 1207.61 1.06304 -1.1635 0
M  V30 13288 C 1208.86 1.78487 -0.939423 0
M  V30 13289 C 1209.17 1.8817 0.533998 0
M  V30 13290 O 1210.38 2.56981 0.875962 0
M  V30 13291 C 1208.83 3.20796 -1.63149 0
M  V30 13292 C 1208.44 3.19281 -3.14267 0
M  V30 13293 C 1210.18 3.97514 -1.48938 0
M  V30 13294 C 1208.09 4.56309 -3.76213 0
M  V30 13295 H 1207.02 0.668973 -0.347837 0
M  V30 13296 H 1209.67 1.19237 -1.3948 0
M  V30 13297 H 1208.05 3.80305 -1.10382 0
M  V30 13298 H 1209.23 2.69356 -3.73877 0
M  V30 13299 H 1207.54 2.56062 -3.28362 0
M  V30 13300 H 1210.14 4.98808 -1.926 0
M  V30 13301 H 1210.48 4.13986 -0.438319 0
M  V30 13302 H 1211.02 3.44528 -1.98861 0
M  V30 13303 H 1207.75 4.45042 -4.81267 0
M  V30 13304 H 1207.27 5.06429 -3.21388 0
M  V30 13305 H 1208.95 5.25266 -3.77762 0
M  V30 13306 N 1209.09 0.96196 1.24836 0
M  V30 13307 C 1210 0.494876 2.29321 0
M  V30 13308 C 1211.01 -0.441363 1.68309 0
M  V30 13309 O 1212.19 -0.315814 1.98908 0
M  V30 13310 C 1209.25 -0.212944 3.46045 0
M  V30 13311 C 1208.31 0.762411 4.22476 0
M  V30 13312 C 1207.55 0.0882756 5.33627 0
M  V30 13313 O 1207.77 -1.12459 5.59204 0
M  V30 13314 O 1206.7 0.777529 5.96857 0
M  V30 13315 H 1210.53 1.36333 2.7138 0
M  V30 13316 H 1208.11 0.728738 1.30421 0
M  V30 13317 H 1210 -0.610805 4.1695 0
M  V30 13318 H 1208.67 -1.05645 3.05975 0
M  V30 13319 H 1207.58 1.21062 3.5397 0
M  V30 13320 H 1208.91 1.57416 4.66349 0
M  V30 13321 N 1210.56 -1.39601 0.731392 0
M  V30 13322 C 1211.98 -1.54334 0.406594 0
M  V30 13323 C 1212.18 -1.69925 -1.08295 0
M  V30 13324 O 1211.24 -1.69771 -1.86906 0
M  V30 13325 C 1212.55 -2.76303 1.18647 0
M  V30 13326 C 1214.1 -2.90135 1.17433 0
M  V30 13327 C 1214.57 -4.15038 1.93669 0
M  V30 13328 N 1216.06 -4.2207 1.90817 0
M  V30 13329 C 1216.8 -5.17656 2.46616 0
M  V30 13330 N 1216.29 -6.19054 3.11037 0
M  V30 13331 N 1218.09 -5.09847 2.3667 0
M  V30 13332 H 1210.24 -1.27728 1.69703 0
M  V30 13333 H 1212.5 -0.6188 0.718186 0
M  V30 13334 H 1212.21 -2.71113 2.24032 0
M  V30 13335 H 1212.08 -3.68866 0.788514 0
M  V30 13336 H 1214.47 -2.9482 0.128615 0
M  V30 13337 H 1214.55 -1.98646 1.61163 0
M  V30 13338 H 1214.19 -4.11115 2.9824 0
M  V30 13339 H 1214.12 -5.05565 1.47349 0
M  V30 13340 H 1216.61 -3.49437 1.43882 0
M  V30 13341 H 1216.93 -6.88444 3.51091 0
M  V30 13342 H 1215.27 -6.19452 3.15126 0
M  V30 13343 H 1218.46 -4.29566 1.85987 0
M  V30 13344 H 1218.64 -5.84165 2.80455 0
M  V30 13345 N 1212.04 -0.478751 -1.50152 0
M  V30 13346 C 1213.29 0.07531 -2.01559 0
M  V30 13347 C 1213.6 1.40089 -1.36508 0
M  V30 13348 O 1214.81 2.04035 -1.79115 0
M  V30 13349 C 1213.27 0.184714 -3.59426 0
M  V30 13350 C 1212.87 -1.13289 -4.33439 0
M  V30 13351 C 1214.62 0.690326 -4.18849 0
M  V30 13352 C 1212.53 -0.986866 -5.83108 0
M  V30 13353 H 1211.46 0.0319196 -0.753324 0
M  V30 13354 H 1214.11 -0.614809 -1.72894 0
M  V30 13355 H 1212.49 0.938788 -3.84711 0
M  V30 13356 H 1213.66 -1.89852 -4.19872 0
M  V30 13357 H 1211.98 -1.57021 -3.8566 0
M  V30 13358 H 1214.57 0.816733 -5.28426 0
M  V30 13359 H 1214.92 1.68361 -3.80737 0
M  V30 13360 H 1215.45 -0.00657846 -3.97799 0
M  V30 13361 H 1212.19 -1.95375 -6.25707 0
M  V30 13362 H 1211.71 -0.261752 -5.99229 0
M  V30 13363 H 1213.39 -0.656567 -6.4366 0
M  V30 13364 N 1213.52 1.56172 -0.211661 0
M  V30 13365 C 1214.45 2.22843 0.697375 0
M  V30 13366 C 1215.43 1.19689 1.20866 0
M  V30 13367 O 1216.62 1.48245 1.25447 0
M  V30 13368 C 1213.75 2.90067 1.90993 0
M  V30 13369 C 1212.7 3.99608 1.5329 0
M  V30 13370 C 1212.03 4.54078 2.82343 0
M  V30 13371 C 1213.33 5.17169 0.730333 0
M  V30 13372 H 1215.02 2.99065 0.141533 0
M  V30 13373 H 1212.57 1.43846 0.0666337 0
M  V30 13374 H 1214.52 3.35396 2.55123 0
M  V30 13375 H 1213.24 2.11276 2.49058 0
M  V30 13376 H 1211.9 3.54995 0.915115 0
M  V30 13377 H 1211.55 3.72029 3.38531 0
M  V30 13378 H 1211.25 5.28001 2.57853 0
M  V30 13379 H 1212.77 5.02119 3.47432 0
M  V30 13380 H 1214.19 5.5894 1.2751 0
M  V30 13381 H 1212.59 5.97262 0.582916 0
M  V30 13382 H 1213.66 4.84174 -0.265157 0
M  V30 13383 N 1215 -0.0618163 1.57479 0
M  V30 13384 C 1216.22 -0.775513 1.92355 0
M  V30 13385 C 1216.65 -1.69816 0.808949 0
M  V30 13386 O 1216.01 -1.79736 -0.23761 0
M  V30 13387 C 1216.05 -1.5367 3.26218 0
M  V30 13388 O 1215.16 -2.64802 3.16155 0
M  V30 13389 H 1214.5 -0.210909 0.629614 0
M  V30 13390 H 1217.03 -0.0270752 2.04582 0
M  V30 13391 H 1217.04 -1.91379 3.6033 0
M  V30 13392 H 1215.71 -0.859798 4.06916 0
M  V30 13393 H 1214.29 -2.29876 2.93618 0
M  V30 13394 N 1216.48 -1.54033 -0.333429 0
M  V30 13395 C 1217.72 -1.72019 -1.07411 0
M  V30 13396 C 1218.06 -0.487265 -1.87988 0
M  V30 13397 O 1217.33 0.515757 -1.87537 0
M  V30 13398 C 1217.61 -2.98986 -2.00698 0
M  V30 13399 C 1217.47 -4.32509 -1.23517 0
M  V30 13400 C 1218.79 -3.21663 -3.00368 0
M  V30 13401 H 1215.9 -0.625919 -0.389094 0
M  V30 13402 H 1218.55 -1.86717 -0.351697 0
M  V30 13403 H 1216.7 -2.86586 -2.62298 0
M  V30 13404 H 1218.37 -4.56775 -0.644522 0
M  V30 13405 H 1216.61 -4.3046 -0.537298 0
M  V30 13406 H 1217.28 -5.17547 -1.91962 0
M  V30 13407 H 1219.76 -3.33459 -2.48886 0
M  V30 13408 H 1218.63 -4.11877 -3.62834 0
M  V30 13409 H 1218.9 -2.3843 -3.72295 0
M  V30 13410 N 1217.95 0.594978 -1.45938 0
M  V30 13411 C 1219.18 1.38482 -1.54394 0
M  V30 13412 C 1219.6 1.87222 -0.181563 0
M  V30 13413 O 1218.96 1.60869 0.836119 0
M  V30 13414 C 1219.01 2.55676 -2.54287 0
M  V30 13415 O 1218.11 3.5672 -2.06941 0
M  V30 13416 H 1217.46 0.412918 -0.519995 0
M  V30 13417 H 1219.99 0.722899 -1.91404 0
M  V30 13418 H 1220 3.02756 -2.73501 0
M  V30 13419 H 1218.67 2.19552 -3.53228 0
M  V30 13420 H 1217.25 3.16204 -1.97661 0
M  V30 13421 N 1219.43 1.33438 0.838571 0
M  V30 13422 C 1220.36 1.26344 1.96365 0
M  V30 13423 C 1221.34 0.143956 1.6949 0
M  V30 13424 O 1222.53 0.333779 1.9131 0
M  V30 13425 C 1219.66 1.0022 3.32526 0
M  V30 13426 C 1218.61 2.08466 3.73799 0
M  V30 13427 C 1217.94 1.67555 5.07769 0
M  V30 13428 C 1219.24 3.50144 3.87552 0
M  V30 13429 H 1220.93 2.20478 2.02558 0
M  V30 13430 H 1218.48 1.06139 0.973168 0
M  V30 13431 H 1220.43 0.939068 4.10803 0
M  V30 13432 H 1219.16 0.0252514 3.2659 0
M  V30 13433 H 1217.81 2.13822 2.97785 0
M  V30 13434 H 1217.46 0.685619 4.98305 0
M  V30 13435 H 1217.16 2.39993 5.36356 0
M  V30 13436 H 1218.69 1.62708 5.88522 0
M  V30 13437 H 1220.1 3.47287 4.56141 0
M  V30 13438 H 1218.5 4.21069 4.27575 0
M  V30 13439 H 1219.57 3.88628 2.89994 0
M  V30 13440 N 1220.91 -1.05686 1.16912 0
M  V30 13441 C 1222.14 -1.82821 0.979348 0
M  V30 13442 C 1222.56 -1.82196 -0.467575 0
M  V30 13443 O 1221.92 -1.22727 -1.33445 0
M  V30 13444 C 1221.97 -3.2705 1.51891 0
M  V30 13445 O 1221.07 -4.05899 0.729341 0
M  V30 13446 H 1220.41 -0.565455 0.348076 0
M  V30 13447 H 1222.94 -1.33211 1.55293 0
M  V30 13448 H 1222.95 -3.77859 1.53904 0
M  V30 13449 H 1221.63 -3.26819 2.5722 0
M  V30 13450 H 1220.2 -3.64646 0.780221 0
M  V30 13451 N 1222.39 -0.968567 -1.24324 0
M  V30 13452 C 1223.62 -0.648568 -1.96472 0
M  V30 13453 C 1224.03 0.782168 -1.71836 0
M  V30 13454 O 1223.39 1.5249 -1.00265 0
M  V30 13455 C 1223.44 -0.91482 -3.49733 0
M  V30 13456 O 1223.16 -2.28931 -3.73527 0
M  V30 13457 C 1224.66 -0.609131 -4.39095 0
M  V30 13458 H 1221.88 -0.241921 -0.625872 0
M  V30 13459 H 1224.43 -1.29673 -1.5813 0
M  V30 13460 H 1222.58 -0.31285 -3.86135 0
M  V30 13461 H 1222.99 -2.36998 -4.67902 0
M  V30 13462 H 1224.47 -0.845875 -5.4548 0
M  V30 13463 H 1224.95 0.456625 -4.3682 0
M  V30 13464 H 1225.55 -1.19105 -4.08282 0
M  V30 13465 N 1223.87 1.39211 -0.738786 0
M  V30 13466 C 1224.8 2.28145 -0.0499733 0
M  V30 13467 C 1225.78 1.44592 0.743776 0
M  V30 13468 O 1226.96 1.73978 0.725536 0
M  V30 13469 C 1224.09 3.255 0.93634 0
M  V30 13470 C 1223.13 4.25876 0.230621 0
M  V30 13471 S 1223.97 5.24942 -1.0581 0
M  V30 13472 C 1225.12 6.25856 -0.0744844 0
M  V30 13473 H 1225.36 2.86218 -0.804163 0
M  V30 13474 H 1222.89 1.44991 -0.53074 0
M  V30 13475 H 1224.85 3.82109 1.50011 0
M  V30 13476 H 1223.51 2.66439 1.66339 0
M  V30 13477 H 1222.7 4.94438 0.977075 0
M  V30 13478 H 1222.3 3.73087 -0.261216 0
M  V30 13479 H 1224.6 6.73172 0.764616 0
M  V30 13480 H 1225.54 7.04354 -0.727354 0
M  V30 13481 H 1225.95 5.63704 0.299605 0
M  V30 13482 N 1225.34 0.486708 1.49896 0
M  V30 13483 C 1226.28 -0.335809 2.26727 0
M  V30 13484 C 1227.29 -0.94333 1.32684 0
M  V30 13485 O 1228.48 -0.82909 1.58077 0
M  V30 13486 C 1225.58 -1.48642 3.04563 0
M  V30 13487 C 1224.75 -0.988837 4.26076 0
M  V30 13488 C 1223.81 -2.01535 4.86076 0
M  V30 13489 O 1222.84 -1.58966 5.46552 0
M  V30 13490 N 1224.04 -3.34471 4.74457 0
M  V30 13491 H 1226.8 0.322919 2.97955 0
M  V30 13492 H 1224.36 0.318403 1.58738 0
M  V30 13493 H 1226.36 -2.17039 3.41579 0
M  V30 13494 H 1224.93 -2.04956 2.36033 0
M  V30 13495 H 1224.15 -0.130232 3.93985 0
M  V30 13496 H 1225.43 -0.634562 5.04827 0
M  V30 13497 H 1224.83 -3.71755 4.26398 0
M  V30 13498 H 1223.39 -3.98621 5.15698 0
M  V30 13499 N 1226.82 -1.56058 0.219941 0
M  V30 13500 C 1228.1 -1.90087 -0.46112 0
M  V30 13501 C 1228.48 -1.13705 -1.77861 0
M  V30 13502 O 1227.83 -0.245868 -2.27173 0
M  V30 13503 C 1228.04 -3.42786 -0.655644 0
M  V30 13504 C 1229.39 -4.13517 -0.963803 0
M  V30 13505 O 1230.41 -3.48376 -0.742488 0
M  V30 13506 O 1229.27 -5.28692 -1.38374 0
M  V30 13507 H 1226.36 -0.790311 -0.243595 0
M  V30 13508 H 1228.91 -1.67665 0.262005 0
M  V30 13509 H 1227.68 -3.90341 0.273738 0
M  V30 13510 H 1227.3 -3.70982 -1.43032 0
M  V30 13511 N 1228.3 0.053464 -1.57509 0
M  V30 13512 C 1229.58 0.783141 -1.79238 0
M  V30 13513 C 1229.96 1.94855 -0.812069 0
M  V30 13514 O 1229.31 2.28 0.151006 0
M  V30 13515 C 1229.52 1.239 -3.26266 0
M  V30 13516 C 1230.86 1.66492 -3.90596 0
M  V30 13517 O 1231.89 1.33421 -3.30269 0
M  V30 13518 O 1230.75 2.27785 -4.96766 0
M  V30 13519 H 1227.84 0.376696 -0.736226 0
M  V30 13520 H 1230.39 0.0321229 -1.6967 0
M  V30 13521 H 1229.16 0.405948 -3.89189 0
M  V30 13522 H 1228.78 2.05078 -3.4063 0
M  V30 13523 N 1229.78 1.54207 0.325255 0
M  V30 13524 C 1231.03 1.71544 1.06091 0
M  V30 13525 C 1231.34 0.495137 1.89229 0
M  V30 13526 O 1232.55 0.54982 2.65874 0
M  V30 13527 C 1231 3.03412 1.93569 0
M  V30 13528 C 1230.61 4.32842 1.1555 0
M  V30 13529 C 1232.36 3.30113 2.66881 0
M  V30 13530 C 1230.26 5.55773 2.02164 0
M  V30 13531 H 1229.19 0.639281 0.399795 0
M  V30 13532 H 1231.84 1.80701 0.319261 0
M  V30 13533 H 1230.23 2.88158 2.71626 0
M  V30 13534 H 1231.4 4.58857 0.42276 0
M  V30 13535 H 1229.71 4.12893 0.539277 0
M  V30 13536 H 1232.31 4.19151 3.31988 0
M  V30 13537 H 1232.65 2.47918 3.34428 0
M  V30 13538 H 1233.19 3.46227 1.95887 0
M  V30 13539 H 1229.93 6.40565 1.39128 0
M  V30 13540 H 1229.45 5.3398 2.73177 0
M  V30 13541 H 1231.13 5.92113 2.60789 0
M  V30 13542 N 1231.26 -0.58723 1.46251 0
M  V30 13543 C 1232.5 -1.3456 1.51327 0
M  V30 13544 C 1232.83 -1.93815 0.163146 0
M  V30 13545 O 1232.09 -1.76723 -0.840677 0
M  V30 13546 C 1232.39 -2.49776 2.5563 0
M  V30 13547 C 1232.05 -2.08543 3.99776 0
M  V30 13548 C 1230.71 -1.97013 4.39021 0
M  V30 13549 C 1233.07 -1.76669 4.90344 0
M  V30 13550 C 1230.39 -1.5186 5.66706 0
M  V30 13551 C 1232.75 -1.32996 6.18462 0
M  V30 13552 C 1231.41 -1.20039 6.56618 0
M  V30 13553 H 1230.68 -0.492391 0.553744 0
M  V30 13554 H 1233.33 -0.661715 1.79704 0
M  V30 13555 H 1231.63 -3.23592 2.20897 0
M  V30 13556 H 1233.33 -3.07995 2.56788 0
M  V30 13557 H 1229.92 -2.18451 3.68751 0
M  V30 13558 H 1234.1 -1.84465 4.60746 0
M  V30 13559 H 1229.36 -1.40467 5.95045 0
M  V30 13560 H 1233.53 -1.07385 6.88071 0
M  V30 13561 H 1231.16 -0.848268 7.55452 0
M  V30 13562 N 1232.74 -1.33881 -0.831482 0
M  V30 13563 C 1233.98 -1.251 -1.58218 0
M  V30 13564 C 1234.3 0.17963 -1.94773 0
M  V30 13565 O 1235.5 0.389516 -2.68691 0
M  V30 13566 C 1233.96 -2.19246 -2.8541 0
M  V30 13567 C 1233.57 -3.6752 -2.5619 0
M  V30 13568 C 1235.31 -2.19355 -3.63433 0
M  V30 13569 C 1233.22 -4.53559 -3.79523 0
M  V30 13570 H 1232.15 -0.46469 -0.593784 0
M  V30 13571 H 1234.8 -1.58992 -0.916169 0
M  V30 13572 H 1233.18 -1.78295 -3.53591 0
M  V30 13573 H 1234.36 -4.16956 -1.96173 0
M  V30 13574 H 1232.67 -3.69774 -1.91458 0
M  V30 13575 H 1235.27 -2.80863 -4.54995 0
M  V30 13576 H 1235.61 -1.19056 -3.98913 0
M  V30 13577 H 1236.14 -2.58706 -3.02185 0
M  V30 13578 H 1232.88 -5.54762 -3.4917 0
M  V30 13579 H 1232.4 -4.08862 -4.38853 0
M  V30 13580 H 1234.08 -4.67736 -4.47025 0
M  V30 13581 N 1234.21 1.05064 -1.1747 0
M  V30 13582 C 1235.14 2.14786 -0.915936 0
M  V30 13583 C 1236.12 1.69502 0.142561 0
M  V30 13584 O 1237.31 1.94198 -0.00794522 0
M  V30 13585 C 1234.44 3.44629 -0.429864 0
M  V30 13586 C 1233.39 4.03486 -1.42769 0
M  V30 13587 C 1232.72 5.28689 -0.799528 0
M  V30 13588 C 1234.02 4.40823 -2.80129 0
M  V30 13589 H 1235.71 2.3669 -1.83352 0
M  V30 13590 H 1233.26 1.13751 -0.882992 0
M  V30 13591 H 1235.21 4.20737 -0.236245 0
M  V30 13592 H 1233.94 3.22381 0.523263 0
M  V30 13593 H 1232.6 3.29449 -1.60808 0
M  V30 13594 H 1232.24 5.02744 0.160474 0
M  V30 13595 H 1231.94 5.69028 -1.46565 0
M  V30 13596 H 1233.47 6.07483 -0.616212 0
M  V30 13597 H 1234.88 5.07959 -2.65801 0
M  V30 13598 H 1233.28 4.92183 -3.43331 0
M  V30 13599 H 1234.35 3.51108 -3.34441 0
M  V30 13600 N 1235.69 0.975146 1.23809 0
M  V30 13601 C 1236.64 0.482305 2.2284 0
M  V30 13602 C 1237.63 -0.439787 1.54773 0
M  V30 13603 O 1238.82 -0.269496 1.74936 0
M  V30 13604 C 1235.95 -0.219056 3.426 0
M  V30 13605 C 1235.03 0.722299 4.17904 0
M  V30 13606 N 1235.42 1.86271 4.70252 0
M  V30 13607 C 1233.72 0.53457 4.42785 0
M  V30 13608 C 1234.42 2.45212 5.2749 0
M  V30 13609 N 1233.4 1.73652 5.15117 0
M  V30 13610 H 1237.2 1.35234 2.60939 0
M  V30 13611 H 1234.71 0.835162 1.3928 0
M  V30 13612 H 1236.71 -0.589401 4.12713 0
M  V30 13613 H 1235.37 -1.08544 3.0602 0
M  V30 13614 H 1236.38 2.24404 4.66758 0
M  V30 13615 H 1233.06 -0.287232 4.16511 0
M  V30 13616 H 1234.45 3.41491 5.78648 0
M  V30 13617 N 1237.17 -1.38817 0.746158 0
M  V30 13618 C 1238.08 -2.34316 0.115386 0
M  V30 13619 C 1239.1 -1.58892 -0.709179 0
M  V30 13620 O 1240.27 -1.91126 -0.635059 0
M  V30 13621 C 1237.34 -3.37977 -0.772821 0
M  V30 13622 C 1236.4 -4.2925 0.0652679 0
M  V30 13623 C 1235.63 -5.2796 -0.78064 0
M  V30 13624 O 1235.85 -5.33474 -2.01896 0
M  V30 13625 O 1234.79 -6.01556 -0.20338 0
M  V30 13626 H 1238.61 -2.89937 0.903887 0
M  V30 13627 H 1236.2 -1.40536 0.506958 0
M  V30 13628 H 1238.08 -4.01468 -1.28068 0
M  V30 13629 H 1236.76 -2.84723 -1.53994 0
M  V30 13630 H 1235.66 -3.68945 0.61891 0
M  V30 13631 H 1237 -4.85739 0.794871 0
M  V30 13632 N 1238.65 -0.49465 -1.49636 0
M  V30 13633 C 1239.58 0.323781 -2.26902 0
M  V30 13634 C 1240.59 0.936281 -1.33183 0
M  V30 13635 O 1241.78 0.820695 -1.58514 0
M  V30 13636 C 1238.88 1.47025 -3.05347 0
M  V30 13637 C 1238.05 0.966228 -4.26594 0
M  V30 13638 C 1237.11 1.98955 -4.87138 0
M  V30 13639 O 1236.14 1.56065 -5.47387 0
M  V30 13640 N 1237.34 3.3195 -4.76224 0
M  V30 13641 H 1240.11 -0.338716 -2.9778 0
M  V30 13642 H 1237.67 -0.326817 -1.58567 0
M  V30 13643 H 1239.66 2.15225 -3.42725 0
M  V30 13644 H 1238.23 2.03702 -2.37117 0
M  V30 13645 H 1237.45 0.109336 -3.94048 0
M  V30 13646 H 1238.74 0.607781 -5.05157 0
M  V30 13647 H 1238.14 3.69488 -4.28363 0
M  V30 13648 H 1236.69 3.95881 -5.17805 0
M  V30 13649 N 1240.13 1.55939 -0.228214 0
M  V30 13650 C 1241.04 2.24213 0.690339 0
M  V30 13651 C 1242.05 1.25197 1.20838 0
M  V30 13652 O 1243.23 1.58026 1.24859 0
M  V30 13653 C 1240.29 2.91384 1.87873 0
M  V30 13654 C 1239.35 4.05761 1.40201 0
M  V30 13655 C 1238.59 4.6972 2.53376 0
M  V30 13656 O 1238.81 4.32687 3.71669 0
M  V30 13657 O 1237.74 5.58587 2.24198 0
M  V30 13658 H 1241.57 3.03383 0.138692 0
M  V30 13659 H 1239.15 1.494 0.00251504 0
M  V30 13660 H 1241.04 3.33758 2.57262 0
M  V30 13661 H 1239.71 2.15168 2.41835 0
M  V30 13662 H 1238.62 3.67943 0.675945 0
M  V30 13663 H 1239.95 4.83739 0.908691 0
M  V30 13664 N 1241.6 -0.0451101 1.57535 0
M  V30 13665 C 1242.83 -0.750231 1.92497 0
M  V30 13666 C 1243.24 -1.70268 0.824946 0
M  V30 13667 O 1242.59 -1.82511 -0.208656 0
M  V30 13668 C 1242.65 -1.57543 3.23141 0
M  V30 13669 C 1242.31 -0.789495 4.50129 0
M  V30 13670 C 1243.31 -0.0968367 5.1981 0
M  V30 13671 C 1240.99 -0.748776 4.96688 0
M  V30 13672 C 1242.99 0.626018 6.34318 0
M  V30 13673 C 1240.67 -0.0221652 6.11096 0
M  V30 13674 C 1241.67 0.664006 6.79765 0
M  V30 13675 O 1241.36 1.37885 7.91987 0
M  V30 13676 H 1241.09 -0.216895 0.64026 0
M  V30 13677 H 1243.65 -0.011558 2.05397 0
M  V30 13678 H 1241.88 -2.35754 3.06524 0
M  V30 13679 H 1243.57 -2.16168 3.4355 0
M  V30 13680 H 1244.33 -0.119429 4.84853 0
M  V30 13681 H 1240.21 -1.27235 4.43094 0
M  V30 13682 H 1243.75 1.16215 6.87852 0
M  V30 13683 H 1239.65 0.00240707 6.455 0
M  V30 13684 H 1240.42 1.29087 8.08257 0
M  V30 13685 N 1243.08 -1.54377 -0.317073 0
M  V30 13686 C 1244.36 -1.63551 -1.07287 0
M  V30 13687 C 1244.74 -0.473499 -2.05721 0
M  V30 13688 O 1244.09 0.531545 -2.22232 0
M  V30 13689 C 1244.3 -3.00842 -1.76904 0
M  V30 13690 C 1245.65 -3.57111 -2.29689 0
M  V30 13691 O 1246.67 -3.0319 -1.86961 0
M  V30 13692 O 1245.53 -4.51486 -3.07932 0
M  V30 13693 H 1242.62 -0.662557 -0.494922 0
M  V30 13694 H 1245.17 -1.66723 -0.316444 0
M  V30 13695 H 1243.94 -3.76854 -1.05341 0
M  V30 13696 H 1243.56 -3.01377 -2.59341 0
M  V30 13697 N 1244.56 0.579466 -1.4656 0
M  V30 13698 C 1245.79 1.36837 -1.55854 0
M  V30 13699 C 1246.21 1.87019 -0.20141 0
M  V30 13700 O 1245.57 1.61746 0.81901 0
M  V30 13701 C 1245.62 2.52965 -2.56985 0
M  V30 13702 O 1244.72 3.54505 -2.10713 0
M  V30 13703 H 1244.06 0.407379 -0.524345 0
M  V30 13704 H 1246.59 0.702558 -1.9216 0
M  V30 13705 H 1246.6 2.99838 -2.76697 0
M  V30 13706 H 1245.28 2.15793 -3.55536 0
M  V30 13707 H 1243.85 3.14089 -2.01003 0
M  V30 13708 N 1246.04 1.3432 0.824371 0
M  V30 13709 C 1246.97 1.2842 1.95014 0
M  V30 13710 C 1247.95 0.161925 1.69328 0
M  V30 13711 O 1249.13 0.354052 1.90945 0
M  V30 13712 C 1246.26 1.03741 3.31444 0
M  V30 13713 C 1245.22 2.12419 3.71567 0
M  V30 13714 C 1244.54 1.72931 5.05963 0
M  V30 13715 C 1245.84 3.54235 3.83817 0
M  V30 13716 H 1247.54 2.22614 2.00209 0
M  V30 13717 H 1245.08 1.07165 0.961856 0
M  V30 13718 H 1247.04 0.982586 4.09784 0
M  V30 13719 H 1245.76 0.0598892 3.26545 0
M  V30 13720 H 1244.42 2.16968 2.955 0
M  V30 13721 H 1244.07 0.738433 4.9755 0
M  V30 13722 H 1243.77 2.45668 5.3378 0
M  V30 13723 H 1245.29 1.68941 5.86763 0
M  V30 13724 H 1246.71 3.52106 4.52432 0
M  V30 13725 H 1245.1 4.25581 4.23085 0
M  V30 13726 H 1246.17 3.91682 2.85856 0
M  V30 13727 N 1247.52 -1.0444 1.18026 0
M  V30 13728 C 1248.45 -2.14297 0.927314 0
M  V30 13729 C 1249.43 -1.69575 -0.13357 0
M  V30 13730 O 1250.61 -1.94191 0.0182439 0
M  V30 13731 C 1247.74 -3.44397 0.448134 0
M  V30 13732 C 1246.7 -4.02723 1.44907 0
M  V30 13733 C 1246.02 -5.28257 0.827555 0
M  V30 13734 C 1247.32 -4.39331 2.82463 0
M  V30 13735 H 1249.02 -2.35715 1.84605 0
M  V30 13736 H 1246.56 -1.13281 0.889012 0
M  V30 13737 H 1248.52 -4.20606 0.258554 0
M  V30 13738 H 1247.24 -3.22654 -0.506159 0
M  V30 13739 H 1245.9 -3.28591 1.62552 0
M  V30 13740 H 1245.55 -5.02822 -0.13381 0
M  V30 13741 H 1245.25 -5.68242 1.49581 0
M  V30 13742 H 1246.77 -6.07147 0.64842 0
M  V30 13743 H 1248.18 -5.06543 2.68491 0
M  V30 13744 H 1246.58 -4.90355 3.45936 0
M  V30 13745 H 1247.65 -3.4933 3.36299 0
M  V30 13746 N 1248.99 -0.981699 -1.2329 0
M  V30 13747 C 1249.9 -0.531296 -2.28505 0
M  V30 13748 C 1250.92 0.414531 -1.6899 0
M  V30 13749 O 1252.1 0.284129 -1.99386 0
M  V30 13750 C 1249.16 0.157864 -3.4634 0
M  V30 13751 C 1248.22 -0.829527 -4.21209 0
M  V30 13752 C 1247.46 -0.17316 -5.33419 0
M  V30 13753 O 1247.68 1.03549 -5.60922 0
M  V30 13754 O 1246.61 -0.872385 -5.95544 0
M  V30 13755 H 1250.44 -1.40633 -2.69177 0
M  V30 13756 H 1248.02 -0.749395 -1.29246 0
M  V30 13757 H 1249.91 0.544394 -4.17869 0
M  V30 13758 H 1248.58 1.00764 -3.07617 0
M  V30 13759 H 1247.49 -1.26678 -3.51999 0
M  V30 13760 H 1248.82 -1.64815 -4.63785 0
M  V30 13761 N 1250.47 1.3842 -0.753509 0
M  V30 13762 C 1251.7 2.04929 -0.319174 0
M  V30 13763 C 1252.12 1.56457 1.04416 0
M  V30 13764 O 1251.48 0.716527 1.6654 0
M  V30 13765 C 1251.53 3.58887 -0.351054 0
M  V30 13766 O 1250.63 4.07166 0.654963 0
M  V30 13767 H 1249.97 0.648782 -0.141343 0
M  V30 13768 H 1252.5 1.77096 -1.02461 0
M  V30 13769 H 1252.51 4.075 -0.201907 0
M  V30 13770 H 1251.19 3.93525 -1.34576 0
M  V30 13771 H 1249.77 3.69921 0.470435 0
M  V30 13772 N 1251.95 0.502579 1.49372 0
M  V30 13773 C 1253.2 -0.0414423 2.02758 0
M  V30 13774 C 1253.53 -1.36499 1.38136 0
M  V30 13775 O 1252.8 -1.87487 0.517593 0
M  V30 13776 C 1253.09 -0.192333 3.59586 0
M  V30 13777 C 1252.94 1.15445 4.34733 0
M  V30 13778 C 1254.26 -0.932218 4.30114 0
M  V30 13779 H 1251.38 -0.0135869 0.736875 0
M  V30 13780 H 1254.02 0.654296 1.78379 0
M  V30 13781 H 1252.17 -0.78491 3.80488 0
M  V30 13782 H 1253.84 1.78603 4.25322 0
M  V30 13783 H 1252.09 1.74333 3.97228 0
M  V30 13784 H 1252.76 1.00216 5.42827 0
M  V30 13785 H 1255.23 -0.429632 4.13876 0
M  V30 13786 H 1254.11 -1.00664 5.39591 0
M  V30 13787 H 1254.37 -1.9763 3.95468 0
M  V30 13788 N 1253.43 -1.55816 0.23648 0
M  V30 13789 C 1254.68 -1.98686 -0.391146 0
M  V30 13790 C 1255 -1.12443 -1.58703 0
M  V30 13791 O 1254.26 -0.172805 -1.94936 0
M  V30 13792 C 1254.56 -3.47039 -0.85434 0
M  V30 13793 C 1254.22 -4.50299 0.232651 0
M  V30 13794 C 1252.89 -4.78259 0.531218 0
M  V30 13795 C 1255.24 -5.1215 0.967027 0
M  V30 13796 C 1252.57 -5.65347 1.56842 0
M  V30 13797 C 1254.92 -6.00363 1.99367 0
M  V30 13798 C 1253.58 -6.2666 2.299 0
M  V30 13799 H 1252.85 -0.727045 -0.14313 0
M  V30 13800 H 1255.5 -1.88419 0.342125 0
M  V30 13801 H 1253.8 -3.54585 -1.66663 0
M  V30 13802 H 1255.5 -3.7759 -1.35005 0
M  V30 13803 H 1252.09 -4.28599 -0.0102014 0
M  V30 13804 H 1256.27 -4.90606 0.749609 0
M  V30 13805 H 1251.53 -5.83981 1.81043 0
M  V30 13806 H 1255.7 -6.47335 2.56769 0
M  V30 13807 H 1253.33 -6.93938 3.1041 0
M  V30 13808 N 1254.91 0.036755 -1.57557 0
M  V30 13809 C 1255.85 1.03975 -2.06053 0
M  V30 13810 C 1256.82 1.36384 -0.948089 0
M  V30 13811 O 1258.01 1.46853 -1.21815 0
M  V30 13812 C 1255.15 2.33796 -2.53837 0
M  V30 13813 C 1254.26 2.07614 -3.78841 0
M  V30 13814 C 1253.4 3.3125 -4.15267 0
M  V30 13815 C 1252.44 3.00587 -5.33211 0
M  V30 13816 N 1251.57 4.16653 -5.65106 0
M  V30 13817 H 1256.41 0.61924 -2.91495 0
M  V30 13818 H 1253.95 0.294151 -1.44129 0
M  V30 13819 H 1255.91 3.09639 -2.79606 0
M  V30 13820 H 1254.54 2.73584 -1.71323 0
M  V30 13821 H 1253.59 1.22302 -3.60203 0
M  V30 13822 H 1254.9 1.80989 -4.64806 0
M  V30 13823 H 1254.06 4.15466 -4.42123 0
M  V30 13824 H 1252.79 3.60981 -3.27939 0
M  V30 13825 H 1251.8 2.14772 -5.06115 0
M  V30 13826 H 1253.02 2.72142 -6.22186 0
M  V30 13827 H 1250.97 4.4635 -4.80737 0
M  V30 13828 H 1250.89 3.93425 -6.45564 0
M  V30 13829 H 1252.16 5.01764 -5.96534 0
M  V30 13830 N 1256.39 1.54543 0.308881 0
M  V30 13831 C 1257.61 1.77431 1.06422 0
M  V30 13832 C 1258.03 0.529972 1.81209 0
M  V30 13833 O 1257.39 -0.499912 1.7552 0
M  V30 13834 C 1257.44 2.9769 2.05092 0
M  V30 13835 O 1257.16 4.17315 1.33341 0
M  V30 13836 C 1258.66 3.32905 2.92727 0
M  V30 13837 H 1255.88 0.591961 0.315948 0
M  V30 13838 H 1258.42 2.01473 0.350547 0
M  V30 13839 H 1256.58 2.7588 2.71973 0
M  V30 13840 H 1256.99 4.85061 1.99539 0
M  V30 13841 H 1258.47 4.20314 3.57827 0
M  V30 13842 H 1258.94 2.50713 3.6061 0
M  V30 13843 H 1259.55 3.56847 2.31388 0
M  V30 13844 N 1257.86 -0.571685 1.46866 0
M  V30 13845 C 1258.77 -1.70758 1.60869 0
M  V30 13846 C 1259.79 -1.66903 0.49186 0
M  V30 13847 O 1260.97 -1.86613 0.757468 0
M  V30 13848 C 1258.03 -3.07267 1.60586 0
M  V30 13849 C 1257.09 -3.22301 2.83585 0
M  V30 13850 C 1256.32 -4.52298 2.83306 0
M  V30 13851 O 1256.55 -5.36869 1.92685 0
M  V30 13852 O 1255.48 -4.70814 3.7499 0
M  V30 13853 H 1259.31 -1.6189 2.56954 0
M  V30 13854 H 1256.89 -0.740018 1.29785 0
M  V30 13855 H 1258.77 -3.8853 1.63163 0
M  V30 13856 H 1257.45 -3.16549 0.676637 0
M  V30 13857 H 1256.36 -2.4049 2.86558 0
M  V30 13858 H 1257.69 -3.17916 3.75753 0
M  V30 13859 N 1259.34 -1.34755 -0.817236 0
M  V30 13860 C 1260.59 -1.27432 -1.57377 0
M  V30 13861 C 1260.92 0.15419 -1.93888 0
M  V30 13862 O 1260.17 1.11686 -1.60701 0
M  V30 13863 C 1260.47 -2.11611 -2.8802 0
M  V30 13864 C 1260.14 -3.60543 -2.70776 0
M  V30 13865 C 1258.8 -4.01141 -2.6578 0
M  V30 13866 C 1261.15 -4.55089 -2.54053 0
M  V30 13867 C 1258.48 -5.34469 -2.41991 0
M  V30 13868 C 1260.83 -5.88603 -2.31795 0
M  V30 13869 C 1259.49 -6.28358 -2.25215 0
M  V30 13870 H 1258.76 -0.466305 -0.575882 0
M  V30 13871 H 1261.41 -1.66552 -0.945128 0
M  V30 13872 H 1259.72 -1.65336 -3.55206 0
M  V30 13873 H 1261.41 -2.03287 -3.45652 0
M  V30 13874 H 1258 -3.2832 -2.75506 0
M  V30 13875 H 1262.19 -4.24617 -2.56932 0
M  V30 13876 H 1257.44 -5.64284 -2.35359 0
M  V30 13877 H 1261.62 -6.61451 -2.17844 0
M  V30 13878 H 1259.24 -7.31604 -2.06543 0
M  V30 13879 N 1260.82 1.03812 -1.18578 0
M  V30 13880 C 1261.75 2.13802 -0.938665 0
M  V30 13881 C 1262.73 1.69643 0.124575 0
M  V30 13882 O 1263.92 1.94179 -0.0285421 0
M  V30 13883 C 1261.05 3.44154 -0.466392 0
M  V30 13884 C 1260 4.01949 -1.47041 0
M  V30 13885 C 1259.33 5.27811 -0.855558 0
M  V30 13886 C 1260.63 4.37827 -2.84789 0
M  V30 13887 H 1262.32 2.34732 -1.85852 0
M  V30 13888 H 1259.87 1.12808 -0.895007 0
M  V30 13889 H 1261.82 4.20463 -0.280856 0
M  V30 13890 H 1260.54 3.22918 0.489041 0
M  V30 13891 H 1259.2 3.27725 -1.64293 0
M  V30 13892 H 1258.85 5.02886 0.107142 0
M  V30 13893 H 1258.55 5.67441 -1.52592 0
M  V30 13894 H 1260.07 6.06795 -0.680609 0
M  V30 13895 H 1261.49 5.05112 -2.71173 0
M  V30 13896 H 1259.88 4.88514 -3.48532 0
M  V30 13897 H 1260.95 3.47541 -3.38147 0
M  V30 13898 N 1262.3 0.988223 1.22768 0
M  V30 13899 C 1263.52 0.679426 1.95955 0
M  V30 13900 C 1263.95 -0.748483 1.72567 0
M  V30 13901 O 1263.31 -1.51097 1.00197 0
M  V30 13902 C 1263.35 0.985284 3.46878 0
M  V30 13903 O 1262.46 0.0814607 4.1232 0
M  V30 13904 H 1261.8 0.254749 0.613188 0
M  V30 13905 H 1264.33 1.32393 1.55991 0
M  V30 13906 H 1264.34 0.925198 3.97371 0
M  V30 13907 H 1263.01 2.02581 3.63227 0
M  V30 13908 H 1261.59 0.196629 3.72381 0
M  V30 13909 N 1263.78 -1.38018 0.760839 0
M  V30 13910 C 1264.71 -2.32995 0.153557 0
M  V30 13911 C 1265.69 -1.55234 -0.695448 0
M  V30 13912 O 1266.87 -1.8352 -0.635148 0
M  V30 13913 C 1264 -3.39437 -0.734811 0
M  V30 13914 C 1262.96 -4.27998 0.0120287 0
M  V30 13915 C 1262.28 -5.25359 -0.995067 0
M  V30 13916 C 1263.58 -5.08687 1.18468 0
M  V30 13917 H 1265.28 -2.8403 0.946956 0
M  V30 13918 H 1262.82 -1.36562 0.456816 0
M  V30 13919 H 1264.77 -4.0485 -1.16938 0
M  V30 13920 H 1263.5 -2.86901 -1.56061 0
M  V30 13921 H 1262.16 -3.64102 0.427254 0
M  V30 13922 H 1261.81 -4.69108 -1.81512 0
M  V30 13923 H 1261.51 -5.85469 -0.499969 0
M  V30 13924 H 1263.03 -5.93648 -1.4288 0
M  V30 13925 H 1264.44 -5.67299 0.8273 0
M  V30 13926 H 1262.84 -5.78068 1.61112 0
M  V30 13927 H 1263.91 -4.42 1.99409 0
M  V30 13928 N 1265.25 -0.510493 -1.49103 0
M  V30 13929 C 1266.18 0.251999 -2.32136 0
M  V30 13930 C 1267.16 0.953613 -1.40855 0
M  V30 13931 O 1268.35 0.943178 -1.69758 0
M  V30 13932 C 1265.48 1.31118 -3.21598 0
M  V30 13933 C 1264.43 0.72888 -4.21748 0
M  V30 13934 C 1263.76 1.88928 -5.0021 0
M  V30 13935 C 1265.06 -0.286425 -5.21514 0
M  V30 13936 H 1266.75 -0.441102 -2.96133 0
M  V30 13937 H 1264.3 -0.213577 -1.42407 0
M  V30 13938 H 1266.25 1.8524 -3.78503 0
M  V30 13939 H 1264.98 2.0336 -2.55563 0
M  V30 13940 H 1263.64 0.209336 -3.66002 0
M  V30 13941 H 1263.28 2.59961 -4.30615 0
M  V30 13942 H 1262.98 1.50568 -5.67981 0
M  V30 13943 H 1264.51 2.43465 -5.59962 0
M  V30 13944 H 1265.92 0.166997 -5.73057 0
M  V30 13945 H 1264.32 -0.586361 -5.97228 0
M  V30 13946 H 1265.39 -1.19904 -4.69842 0
M  V30 13947 N 1266.73 1.55688 -0.24474 0
M  V30 13948 C 1267.69 2.20014 0.642382 0
M  V30 13949 C 1268.69 1.16877 1.10437 0
M  V30 13950 O 1269.88 1.41972 1.00943 0
M  V30 13951 C 1267.02 2.84198 1.88267 0
M  V30 13952 H 1268.21 2.9979 0.0811937 0
M  V30 13953 H 1265.76 1.56299 0.00480917 0
M  V30 13954 H 1266.5 2.08354 2.48514 0
M  V30 13955 H 1266.28 3.59747 1.55963 0
M  V30 13956 H 1267.77 3.33434 2.5142 0
M  V30 13957 N 1268.21 -0.0283989 1.57574 0
M  V30 13958 C 1269.16 -1.02881 2.06601 0
M  V30 13959 C 1270.13 -1.35879 0.955308 0
M  V30 13960 O 1271.31 -1.46205 1.22592 0
M  V30 13961 C 1268.45 -2.32447 2.55073 0
M  V30 13962 C 1267.56 -2.05602 3.79937 0
M  V30 13963 C 1266.7 -3.29043 4.17018 0
M  V30 13964 C 1265.74 -2.97755 5.34797 0
M  V30 13965 N 1264.88 -4.1365 5.67308 0
M  V30 13966 H 1269.72 -0.603772 2.91819 0
M  V30 13967 H 1267.25 -0.286503 1.44283 0
M  V30 13968 H 1269.21 -3.08152 2.81244 0
M  V30 13969 H 1267.84 -2.72672 1.72771 0
M  V30 13970 H 1266.89 -1.2039 3.60847 0
M  V30 13971 H 1268.2 -1.78522 4.65759 0
M  V30 13972 H 1267.36 -4.13115 4.4432 0
M  V30 13973 H 1266.1 -3.59237 3.29849 0
M  V30 13974 H 1265.1 -2.12085 5.07247 0
M  V30 13975 H 1266.33 -2.68839 6.23621 0
M  V30 13976 H 1264.27 -4.43794 4.83097 0
M  V30 13977 H 1264.19 -3.89996 6.47641 0
M  V30 13978 H 1265.46 -4.98594 5.99186 0
M  V30 13979 N 1269.69 -1.54705 -0.300681 0
M  V30 13980 C 1271.1 -1.45926 -0.646359 0
M  V30 13981 C 1271.3 -0.65072 -1.90704 0
M  V30 13982 O 1270.36 -0.158547 -2.52002 0
M  V30 13983 C 1271.67 -2.89889 -0.799059 0
M  V30 13984 C 1273.22 -2.99934 -0.894923 0
M  V30 13985 C 1273.7 -4.45093 -1.07962 0
M  V30 13986 N 1275.19 -4.48804 -1.14581 0
M  V30 13987 C 1275.92 -5.58305 -1.30702 0
M  V30 13988 N 1275.42 -6.77729 -1.43719 0
M  V30 13989 N 1277.21 -5.45994 -1.33593 0
M  V30 13990 H 1269.36 -2.05742 0.527617 0
M  V30 13991 H 1271.62 -0.931817 0.174415 0
M  V30 13992 H 1271.33 -3.51655 0.0563954 0
M  V30 13993 H 1271.2 -3.37325 -1.68796 0
M  V30 13994 H 1273.59 -2.38281 -1.74086 0
M  V30 13995 H 1273.67 -2.55794 0.0179973 0
M  V30 13996 H 1273.32 -5.0734 -0.238444 0
M  V30 13997 H 1273.25 -4.86864 -2.00677 0
M  V30 13998 H 1275.74 -3.62766 -1.05874 0
M  V30 13999 H 1276.05 -7.56937 -1.55776 0
M  V30 14000 H 1274.4 -6.80594 -1.40774 0
M  V30 14001 H 1277.59 -4.51641 -1.23035 0
M  V30 14002 H 1277.76 -6.31381 -1.45813 0
M  V30 14003 N 1271.17 0.563888 -1.47167 0
M  V30 14004 C 1272.4 1.34498 -1.56825 0
M  V30 14005 C 1272.8 1.87974 -0.215011 0
M  V30 14006 O 1272.15 1.65323 0.80087 0
M  V30 14007 C 1272.21 2.55602 -2.528 0
M  V30 14008 C 1271.87 2.23459 -3.98642 0
M  V30 14009 C 1272.87 1.81155 -4.87318 0
M  V30 14010 C 1270.56 2.35024 -4.43925 0
M  V30 14011 C 1272.55 1.50835 -6.19296 0
M  V30 14012 C 1270.24 2.04317 -5.75932 0
M  V30 14013 C 1271.23 1.6229 -6.63439 0
M  V30 14014 O 1270.92 1.31969 -7.92994 0
M  V30 14015 H 1270.65 0.416551 -0.532411 0
M  V30 14016 H 1273.21 0.690611 -1.93442 0
M  V30 14017 H 1271.44 3.23907 -2.11237 0
M  V30 14018 H 1273.13 3.17677 -2.52659 0
M  V30 14019 H 1273.89 1.71719 -4.53583 0
M  V30 14020 H 1269.77 2.66696 -3.76024 0
M  V30 14021 H 1273.32 1.17958 -6.87555 0
M  V30 14022 H 1269.21 2.13383 -6.09211 0
M  V30 14023 H 1269.98 1.45656 -8.05436 0
M  V30 14024 N 1272.64 1.35187 0.810078 0
M  V30 14025 C 1273.55 1.29926 1.95337 0
M  V30 14026 C 1274.57 0.204748 1.72791 0
M  V30 14027 O 1275.75 0.433507 1.96679 0
M  V30 14028 C 1272.81 1.06736 3.29861 0
M  V30 14029 C 1271.87 2.25466 3.65326 0
M  V30 14030 C 1271.11 2.03373 4.93432 0
M  V30 14031 O 1271.33 0.998419 5.61594 0
M  V30 14032 O 1270.26 2.90648 5.27075 0
M  V30 14033 H 1274.09 2.26137 2.02721 0
M  V30 14034 H 1271.67 1.15523 0.947354 0
M  V30 14035 H 1273.56 0.956367 4.10404 0
M  V30 14036 H 1272.23 0.135735 3.23415 0
M  V30 14037 H 1271.14 2.42129 2.85175 0
M  V30 14038 H 1272.47 3.17063 3.76473 0
M  V30 14039 N 1274.12 -1.03182 1.19127 0
M  V30 14040 C 1275.03 -2.14875 0.94159 0
M  V30 14041 C 1276.05 -1.73727 -0.0973872 0
M  V30 14042 O 1277.22 -2.01214 0.0865775 0
M  V30 14043 C 1274.29 -3.43356 0.480366 0
M  V30 14044 C 1273.35 -3.98835 1.58838 0
M  V30 14045 C 1272.58 -5.21183 1.14907 0
M  V30 14046 O 1272.81 -5.70399 0.0114141 0
M  V30 14047 O 1271.74 -5.69423 1.95042 0
M  V30 14048 H 1275.57 -2.38799 1.8764 0
M  V30 14049 H 1273.15 -1.13299 0.973841 0
M  V30 14050 H 1275.03 -4.20763 0.231658 0
M  V30 14051 H 1273.71 -3.20884 -0.426041 0
M  V30 14052 H 1272.62 -3.22776 1.8912 0
M  V30 14053 H 1273.95 -4.25665 2.47123 0
M  V30 14054 N 1275.6 -0.99472 -1.22242 0
M  V30 14055 C 1276.55 -0.546504 -2.24236 0
M  V30 14056 C 1277.52 0.422101 -1.60647 0
M  V30 14057 O 1278.7 0.326452 -1.87987 0
M  V30 14058 C 1275.84 0.130909 -3.44852 0
M  V30 14059 C 1274.96 -0.879653 -4.22949 0
M  V30 14060 C 1274.09 -0.175569 -5.3091 0
M  V30 14061 C 1273.13 -1.17438 -6.00729 0
M  V30 14062 N 1272.27 -0.498474 -7.00328 0
M  V30 14063 H 1277.11 -1.42099 -2.61939 0
M  V30 14064 H 1274.64 -0.711755 -1.28734 0
M  V30 14065 H 1276.6 0.540596 -4.13683 0
M  V30 14066 H 1275.23 0.96917 -3.07907 0
M  V30 14067 H 1274.28 -1.40765 -3.53397 0
M  V30 14068 H 1275.6 -1.64017 -4.71062 0
M  V30 14069 H 1274.75 0.290756 -6.06003 0
M  V30 14070 H 1273.49 0.617438 -4.83776 0
M  V30 14071 H 1272.49 -1.65131 -5.24416 0
M  V30 14072 H 1273.72 -1.96829 -6.4995 0
M  V30 14073 H 1271.66 0.275063 -6.55423 0
M  V30 14074 H 1271.58 -1.19741 -7.46457 0
M  V30 14075 H 1272.85 -0.0550119 -7.79481 0
M  V30 14076 N 1277.08 1.37613 -0.768148 0
M  V30 14077 C 1278.31 2.04052 -0.342111 0
M  V30 14078 C 1278.72 1.57936 1.03449 0
M  V30 14079 O 1278.08 0.758981 1.65969 0
M  V30 14080 C 1278.13 3.5958 -0.372096 0
M  V30 14081 O 1277.85 4.04008 -1.69439 0
M  V30 14082 C 1279.35 4.43251 0.0659884 0
M  V30 14083 H 1276.57 0.655391 -0.143886 0
M  V30 14084 H 1279.12 1.76017 -1.04107 0
M  V30 14085 H 1277.27 3.86399 0.278248 0
M  V30 14086 H 1277.68 4.98511 -1.63054 0
M  V30 14087 H 1279.16 5.52 -0.00614775 0
M  V30 14088 H 1279.64 4.24788 1.11588 0
M  V30 14089 H 1280.24 4.2165 -0.55603 0
M  V30 14090 N 1278.56 0.518393 1.4883 0
M  V30 14091 C 1279.49 -0.287642 2.27388 0
M  V30 14092 C 1280.5 -0.914974 1.34655 0
M  V30 14093 O 1281.69 -0.795373 1.598 0
M  V30 14094 C 1278.79 -1.42149 3.07647 0
M  V30 14095 C 1277.96 -0.898238 4.28078 0
M  V30 14096 C 1277.02 -1.91179 4.90242 0
M  V30 14097 O 1276.05 -1.47337 5.498 0
M  V30 14098 N 1277.25 -3.24331 4.81445 0
M  V30 14099 H 1280.02 0.386047 2.97203 0
M  V30 14100 H 1277.58 0.352002 1.58027 0
M  V30 14101 H 1279.57 -2.09745 3.46106 0
M  V30 14102 H 1278.14 -1.99903 2.40328 0
M  V30 14103 H 1277.36 -0.0466326 3.94172 0
M  V30 14104 H 1278.65 -0.527338 5.0606 0
M  V30 14105 H 1278.04 -3.62627 4.34187 0
M  V30 14106 H 1276.6 -3.87593 5.24037 0
M  V30 14107 N 1280.03 -1.55556 0.252993 0
M  V30 14108 C 1280.98 -2.21634 -0.643979 0
M  V30 14109 C 1281.95 -1.18226 -1.1667 0
M  V30 14110 O 1283.14 -1.46694 -1.22006 0
M  V30 14111 C 1280.28 -2.92429 -1.83246 0
M  V30 14112 C 1279.39 -4.10506 -1.34569 0
M  V30 14113 C 1278.52 -4.69001 -2.49421 0
M  V30 14114 C 1277.56 -5.79315 -1.97636 0
M  V30 14115 N 1276.7 -6.31967 -3.05878 0
M  V30 14116 H 1281.54 -2.97909 -0.0738178 0
M  V30 14117 H 1279.08 -1.47079 -0.0246728 0
M  V30 14118 H 1281.04 -3.31678 -2.53072 0
M  V30 14119 H 1279.67 -2.18617 -2.375 0
M  V30 14120 H 1278.72 -3.76529 -0.541268 0
M  V30 14121 H 1280.03 -4.90125 -0.92622 0
M  V30 14122 H 1279.18 -5.10855 -3.27279 0
M  V30 14123 H 1277.92 -3.88612 -2.94673 0
M  V30 14124 H 1276.93 -5.36933 -1.18251 0
M  V30 14125 H 1278.15 -6.6156 -1.53347 0
M  V30 14126 H 1276.1 -5.5448 -3.50553 0
M  V30 14127 H 1276.02 -7.06797 -2.68281 0
M  V30 14128 H 1277.28 -6.7848 -3.83777 0
M  V30 14129 N 1281.51 0.0200419 -1.57587 0
M  V30 14130 C 1282.44 1.0456 -2.0396 0
M  V30 14131 C 1283.46 1.31922 -0.953962 0
M  V30 14132 O 1284.65 1.2925 -1.23112 0
M  V30 14133 C 1281.75 2.38514 -2.40758 0
M  V30 14134 C 1280.92 2.3038 -3.71812 0
M  V30 14135 C 1279.98 3.46856 -3.95698 0
M  V30 14136 O 1279 3.25944 -4.66636 0
M  V30 14137 N 1280.21 4.69033 -3.42036 0
M  V30 14138 H 1282.97 0.650282 -2.9256 0
M  V30 14139 H 1280.53 0.207818 -1.60561 0
M  V30 14140 H 1282.52 3.15172 -2.53868 0
M  V30 14141 H 1281.09 2.69859 -1.57781 0
M  V30 14142 H 1280.31 1.38762 -3.6897 0
M  V30 14143 H 1281.6 2.22097 -4.57767 0
M  V30 14144 H 1281 4.88923 -2.84553 0
M  V30 14145 H 1279.56 5.43025 -3.6051 0
M  V30 14146 N 1282.99 1.54862 0.292472 0
M  V30 14147 C 1283.92 1.89406 1.36556 0
M  V30 14148 C 1284.9 0.753838 1.52484 0
M  V30 14149 O 1286.09 1.01031 1.6585 0
M  V30 14150 C 1283.22 2.14888 2.72838 0
M  V30 14151 C 1282.17 3.3073 2.71665 0
M  V30 14152 C 1281.5 3.41648 4.11316 0
M  V30 14153 C 1282.8 4.67622 2.32651 0
M  V30 14154 H 1284.49 2.79284 1.07894 0
M  V30 14155 H 1282.04 1.34377 0.517585 0
M  V30 14156 H 1283.99 2.3764 3.48002 0
M  V30 14157 H 1282.71 1.2179 3.03042 0
M  V30 14158 H 1281.37 3.07915 1.98958 0
M  V30 14159 H 1281.02 2.46051 4.38711 0
M  V30 14160 H 1280.72 4.19522 4.11431 0
M  V30 14161 H 1282.24 3.6667 4.88248 0
M  V30 14162 H 1283.66 4.90048 2.97533 0
M  V30 14163 H 1282.06 5.48272 2.43963 0
M  V30 14164 H 1283.13 4.67762 1.27777 0
M  V30 14165 N 1284.47 -0.556076 1.47464 0
M  V30 14166 C 1285.88 -1.1382 1.47993 0
M  V30 14167 C 1286.23 -1.94785 0.235249 0
M  V30 14168 O 1285.36 -2.06098 -0.659752 0
M  V30 14169 C 1285.95 -2.07082 2.68146 0
M  V30 14170 C 1284.51 -2.60564 2.71631 0
M  V30 14171 C 1283.66 -1.36967 2.41113 0
M  V30 14172 H 1286.61 -0.34262 1.54957 0
M  V30 14173 H 1286.63 -2.90975 2.45181 0
M  V30 14174 H 1286.14 -1.48127 3.5872 0
M  V30 14175 H 1284.24 -3.23314 1.852 0
M  V30 14176 H 1284.35 -3.0148 3.72353 0
M  V30 14177 H 1282.72 -1.67678 1.91719 0
M  V30 14178 H 1283.5 -0.79803 3.33896 0
M  V30 14179 N 1285.95 -1.35615 -0.802897 0
M  V30 14180 C 1286.88 -1.31506 -1.92947 0
M  V30 14181 C 1287.86 -0.188843 -1.69048 0
M  V30 14182 O 1289.04 -0.384384 -1.90358 0
M  V30 14183 C 1286.17 -1.09001 -3.29752 0
M  V30 14184 C 1285.13 -2.18303 -3.68141 0
M  V30 14185 C 1284.45 -1.80959 -5.03148 0
M  V30 14186 C 1285.75 -3.60296 -3.78132 0
M  V30 14187 H 1287.45 -2.25771 -1.96642 0
M  V30 14188 H 1284.99 -1.08682 -0.944685 0
M  V30 14189 H 1286.95 -1.04766 -4.08169 0
M  V30 14190 H 1285.67 -0.111832 -3.26408 0
M  V30 14191 H 1284.33 -2.21642 -2.92011 0
M  V30 14192 H 1283.98 -0.817495 -4.96312 0
M  V30 14193 H 1283.68 -2.54129 -5.29804 0
M  V30 14194 H 1285.2 -1.78255 -5.84001 0
M  V30 14195 H 1286.62 -3.59259 -4.46773 0
M  V30 14196 H 1285.01 -4.32258 -4.16261 0
M  V30 14197 H 1286.08 -3.9618 -2.79588 0
M  V30 14198 N 1287.43 1.02549 -1.19673 0
M  V30 14199 C 1288.37 2.109 -0.937536 0
M  V30 14200 C 1289.34 1.65599 0.128923 0
M  V30 14201 O 1290.53 1.90795 -0.0139366 0
M  V30 14202 C 1287.67 3.4166 -0.48602 0
M  V30 14203 C 1286.78 4.0049 -1.61963 0
M  V30 14204 C 1285.92 5.19273 -1.11931 0
M  V30 14205 C 1284.95 5.70166 -2.22659 0
M  V30 14206 N 1284.09 6.80221 -1.73909 0
M  V30 14207 H 1288.93 2.32408 -1.86523 0
M  V30 14208 H 1286.47 1.13982 -0.929869 0
M  V30 14209 H 1288.43 4.16693 -0.205614 0
M  V30 14210 H 1287.06 3.20253 0.404678 0
M  V30 14211 H 1286.11 3.22638 -2.01516 0
M  V30 14212 H 1287.42 4.34273 -2.45374 0
M  V30 14213 H 1286.57 6.01478 -0.794336 0
M  V30 14214 H 1285.31 4.87033 -0.254972 0
M  V30 14215 H 1284.32 4.86572 -2.55983 0
M  V30 14216 H 1285.54 6.04444 -3.09554 0
M  V30 14217 H 1283.49 6.49826 -0.897889 0
M  V30 14218 H 1283.41 7.13149 -2.50907 0
M  V30 14219 H 1284.67 7.66011 -1.44386 0
M  V30 14220 N 1288.9 1.00119 1.21713 0
M  V30 14221 C 1290.15 0.681723 1.9068 0
M  V30 14222 C 1290.48 -0.787121 1.77861 0
M  V30 14223 O 1289.73 -1.58573 1.14687 0
M  V30 14224 C 1290.03 1.04376 3.41819 0
M  V30 14225 C 1289.7 2.50624 3.74831 0
M  V30 14226 C 1288.36 2.90587 3.83552 0
M  V30 14227 C 1290.71 3.45377 3.90339 0
M  V30 14228 C 1288.04 4.24276 4.05225 0
M  V30 14229 C 1290.39 4.78734 4.13517 0
M  V30 14230 C 1289.06 5.18427 4.20464 0
M  V30 14231 H 1288.33 0.24946 0.697747 0
M  V30 14232 H 1290.97 1.25892 1.44304 0
M  V30 14233 H 1289.28 0.384756 3.89906 0
M  V30 14234 H 1290.98 0.774488 3.9345 0
M  V30 14235 H 1287.57 2.18651 3.68632 0
M  V30 14236 H 1291.75 3.15669 3.82971 0
M  V30 14237 H 1287.01 4.54605 4.08833 0
M  V30 14238 H 1291.18 5.52094 4.24459 0
M  V30 14239 H 1288.81 6.22034 4.3701 0
M  V30 14240 N 1290.38 -1.37203 0.775435 0
M  V30 14241 C 1291.61 -2.04396 0.351737 0
M  V30 14242 C 1292.03 -1.58099 -1.01913 0
M  V30 14243 O 1291.39 -0.742932 -1.65379 0
M  V30 14244 C 1291.44 -3.58283 0.408105 0
M  V30 14245 O 1290.54 -4.08156 -0.590104 0
M  V30 14246 H 1289.88 -0.646451 0.151647 0
M  V30 14247 H 1292.41 -1.75443 1.05265 0
M  V30 14248 H 1292.42 -4.07127 0.266711 0
M  V30 14249 H 1291.1 -3.91335 1.40819 0
M  V30 14250 H 1289.67 -3.70622 -0.411524 0
M  V30 14251 N 1291.86 -0.526279 -1.48553 0
M  V30 14252 C 1292.81 0.251938 -2.31232 0
M  V30 14253 C 1293.8 0.938991 -1.40994 0
M  V30 14254 O 1295.01 0.863798 -1.57919 0
M  V30 14255 H 1291.38 0.100114 -0.745306 0
M  V30 14256 H 1293.35 -0.465013 -2.94754 0
M  V30 14257 C 1292.1 1.28816 -3.22958 0
M  V30 14258 H 1291.43 0.768899 -3.92337 0
M  V30 14259 H 1292.87 1.80417 -3.837 0
M  V30 14260 C 1291.32 2.31982 -2.44307 0
M  V30 14261 O 1291.85 3.3835 -2.16523 0
M  V30 14262 N 1290.06 2.051 -2.05869 0
M  V30 14263 H 1289.61 1.18618 -2.28665 0
M  V30 14264 H 1289.57 2.74349 -1.53557 0
M  V30 14265 N 1293.34 1.5542 -0.261239 0
M  V30 14266 C 1294.57 2.03687 0.363225 0
M  V30 14267 C 1294.98 1.14007 1.50492 0
M  V30 14268 O 1294.34 0.157349 1.8182 0
M  V30 14269 C 1294.39 3.51184 0.857435 0
M  V30 14270 O 1294.11 4.37449 -0.238776 0
M  V30 14271 C 1295.61 4.15277 1.55113 0
M  V30 14272 H 1292.83 0.665641 0.0846356 0
M  V30 14273 H 1295.37 2.00761 -0.389288 0
M  V30 14274 H 1293.53 3.54599 1.56008 0
M  V30 14275 H 1293.94 5.24316 0.138821 0
M  V30 14276 H 1295.42 5.20129 1.8485 0
M  V30 14277 H 1295.89 3.62619 2.47799 0
M  V30 14278 H 1296.5 4.15826 0.892695 0
M  V30 14279 N 1294.82 -0.0116844 1.57596 0
M  V30 14280 C 1295.75 -1.00599 2.10718 0
M  V30 14281 C 1296.73 -1.36601 1.01362 0
M  V30 14282 O 1297.91 -1.4518 1.28982 0
M  V30 14283 C 1295.04 -2.30155 2.60089 0
M  V30 14284 C 1294 -2.08347 3.73866 0
M  V30 14285 C 1293.32 -3.43814 4.09507 0
M  V30 14286 C 1294.62 -1.45552 5.01609 0
M  V30 14287 H 1296.32 -0.563721 2.94045 0
M  V30 14288 H 1293.86 -0.269714 1.41452 0
M  V30 14289 H 1295.81 -3.00058 2.95877 0
M  V30 14290 H 1294.54 -2.76473 1.73868 0
M  V30 14291 H 1293.2 -1.40872 3.38453 0
M  V30 14292 H 1292.85 -3.87814 3.20326 0
M  V30 14293 H 1292.55 -3.30043 4.86154 0
M  V30 14294 H 1294.07 -4.15052 4.47844 0
M  V30 14295 H 1295.48 -2.05396 5.35243 0
M  V30 14296 H 1293.88 -1.42304 5.82983 0
M  V30 14297 H 1294.95 -0.423331 4.83049 0
M  V30 14298 N 1296.29 -1.55015 -0.284256 0
M  V30 14299 C 1297.2 -1.90203 -1.37332 0
M  V30 14300 C 1298.22 -0.797994 -1.54622 0
M  V30 14301 O 1299.4 -1.09602 -1.68965 0
M  V30 14302 C 1296.46 -2.15687 -2.71441 0
M  V30 14303 C 1295.52 -3.39313 -2.62993 0
M  V30 14304 C 1294.75 -3.63571 -3.90707 0
M  V30 14305 O 1294.98 -2.90538 -4.9086 0
M  V30 14306 O 1293.91 -4.57102 -3.91589 0
M  V30 14307 H 1297.74 -2.82888 -1.1049 0
M  V30 14308 H 1295.32 -1.41418 -0.481798 0
M  V30 14309 H 1297.2 -2.33553 -3.50758 0
M  V30 14310 H 1295.88 -1.26185 -2.98092 0
M  V30 14311 H 1294.79 -3.26793 -1.82091 0
M  V30 14312 H 1296.12 -4.28997 -2.41293 0
M  V30 14313 N 1297.77 0.548248 -1.47757 0
M  V30 14314 C 1298.7 1.66409 -1.63799 0
M  V30 14315 C 1299.68 1.62973 -0.487211 0
M  V30 14316 O 1300.87 1.80455 -0.717612 0
M  V30 14317 C 1298 3.05035 -1.66046 0
M  V30 14318 C 1296.95 3.23322 -2.80441 0
M  V30 14319 C 1296.28 4.62824 -2.67765 0
M  V30 14320 C 1297.58 3.07837 -4.2194 0
M  V30 14321 H 1299.27 1.53239 -2.57212 0
M  V30 14322 H 1296.82 0.735783 -1.23783 0
M  V30 14323 H 1298.77 3.82951 -1.75859 0
M  V30 14324 H 1297.49 3.19185 -0.69199 0
M  V30 14325 H 1296.15 2.47816 -2.70153 0
M  V30 14326 H 1295.8 4.73786 -1.68927 0
M  V30 14327 H 1295.5 4.76007 -3.44515 0
M  V30 14328 H 1297.03 5.42864 -2.7952 0
M  V30 14329 H 1298.44 3.75563 -4.33157 0
M  V30 14330 H 1296.84 3.32525 -4.99547 0
M  V30 14331 H 1297.91 2.04474 -4.3968 0
M  V30 14332 N 1299.25 1.36039 0.795694 0
M  V30 14333 C 1300.2 1.29853 1.90806 0
M  V30 14334 C 1301.17 0.168387 1.65244 0
M  V30 14335 O 1302.35 0.353879 1.8749 0
M  V30 14336 C 1299.49 1.08737 3.27521 0
M  V30 14337 C 1298.6 2.30771 3.65197 0
M  V30 14338 C 1297.74 2.02718 4.90998 0
M  V30 14339 C 1296.78 3.20746 5.21333 0
M  V30 14340 N 1295.92 2.92399 6.38316 0
M  V30 14341 H 1300.76 2.2497 1.95429 0
M  V30 14342 H 1298.29 1.11819 0.955771 0
M  V30 14343 H 1300.25 0.945236 4.06351 0
M  V30 14344 H 1298.88 0.172781 3.22337 0
M  V30 14345 H 1297.93 2.5581 2.81541 0
M  V30 14346 H 1299.24 3.18869 3.83568 0
M  V30 14347 H 1298.4 1.85398 5.77679 0
M  V30 14348 H 1297.14 1.11921 4.74684 0
M  V30 14349 H 1296.14 3.38632 4.33138 0
M  V30 14350 H 1297.37 4.1236 5.3957 0
M  V30 14351 H 1295.31 2.04207 6.23406 0
M  V30 14352 H 1295.23 3.74034 6.56989 0
M  V30 14353 H 1296.5 2.78643 7.27996 0
M  V30 14354 N 1300.73 -1.01913 1.20215 0
M  V30 14355 C 1301.66 -2.12282 0.97256 0
M  V30 14356 C 1302.64 -1.6982 -0.0975709 0
M  V30 14357 O 1303.82 -1.94109 0.0594307 0
M  V30 14358 C 1300.95 -3.43369 0.521085 0
M  V30 14359 C 1299.91 -3.99559 1.53417 0
M  V30 14360 C 1299.23 -5.26383 0.93942 0
M  V30 14361 C 1300.53 -4.33241 2.91718 0
M  V30 14362 H 1302.23 -2.31746 1.89563 0
M  V30 14363 H 1299.77 -1.1137 0.912841 0
M  V30 14364 H 1301.73 -4.19963 0.347713 0
M  V30 14365 H 1300.45 -3.23655 -0.437605 0
M  V30 14366 H 1299.11 -3.25069 1.69486 0
M  V30 14367 H 1298.76 -5.02993 -0.0271236 0
M  V30 14368 H 1298.46 -5.64942 1.616 0
M  V30 14369 H 1299.98 -6.05635 0.777059 0
M  V30 14370 H 1301.4 -5.00734 2.79175 0
M  V30 14371 H 1299.79 -4.82907 3.56259 0
M  V30 14372 H 1300.86 -3.42118 3.43633 0
M  V30 14373 N 1302.21 -1.00763 -1.2118 0
M  V30 14374 C 1303.15 -0.570257 -2.23644 0
M  V30 14375 C 1304.12 0.405039 -1.61086 0
M  V30 14376 O 1305.31 0.306496 -1.88322 0
M  V30 14377 C 1302.45 0.094325 -3.44971 0
M  V30 14378 C 1301.56 -0.924463 -4.21993 0
M  V30 14379 C 1300.7 -0.231869 -5.30694 0
M  V30 14380 C 1299.74 -1.23803 -5.99449 0
M  V30 14381 N 1298.87 -0.572725 -6.9976 0
M  V30 14382 H 1303.71 -1.44869 -2.60417 0
M  V30 14383 H 1301.25 -0.725369 -1.27972 0
M  V30 14384 H 1303.21 0.496689 -4.14233 0
M  V30 14385 H 1301.84 0.936457 -3.08918 0
M  V30 14386 H 1300.89 -1.44505 -3.51884 0
M  V30 14387 H 1302.2 -1.69004 -4.69296 0
M  V30 14388 H 1301.36 0.226465 -6.06277 0
M  V30 14389 H 1300.09 0.566092 -4.84403 0
M  V30 14390 H 1299.1 -1.70684 -5.22635 0
M  V30 14391 H 1300.32 -2.03711 -6.47826 0
M  V30 14392 H 1298.27 0.205531 -6.55678 0
M  V30 14393 H 1298.19 -1.27651 -7.45145 0
M  V30 14394 H 1299.46 -0.137683 -7.79378 0
M  V30 14395 N 1303.68 1.3679 -0.7827 0
M  V30 14396 C 1304.63 2.30139 -0.174595 0
M  V30 14397 C 1305.6 1.51645 0.677714 0
M  V30 14398 O 1306.79 1.80176 0.627796 0
M  V30 14399 C 1303.93 3.38133 0.689936 0
M  V30 14400 C 1303.04 4.31624 -0.180179 0
M  V30 14401 C 1302.17 5.26698 0.69009 0
M  V30 14402 C 1301.21 6.1183 -0.181891 0
M  V30 14403 N 1300.35 6.99113 0.646977 0
M  V30 14404 H 1305.19 2.81559 -0.97613 0
M  V30 14405 H 1302.73 1.38595 -0.492944 0
M  V30 14406 H 1304.69 3.99386 1.2061 0
M  V30 14407 H 1303.32 2.88049 1.45696 0
M  V30 14408 H 1302.37 3.71583 -0.81425 0
M  V30 14409 H 1303.68 4.91464 -0.852337 0
M  V30 14410 H 1302.83 5.93209 1.27232 0
M  V30 14411 H 1301.57 4.67297 1.3959 0
M  V30 14412 H 1300.58 5.44288 -0.776572 0
M  V30 14413 H 1301.8 6.73306 -0.885195 0
M  V30 14414 H 1299.75 6.42227 1.3372 0
M  V30 14415 H 1299.67 7.55993 0.0323547 0
M  V30 14416 H 1300.93 7.7 1.21325 0
M  V30 14417 N 1305.16 0.53415 1.48272 0
M  V30 14418 C 1306.07 -0.230062 2.33469 0
M  V30 14419 C 1307.09 -0.934889 1.46751 0
M  V30 14420 O 1308.26 -0.908921 1.79724 0
M  V30 14421 C 1305.33 -1.2609 3.22958 0
M  V30 14422 C 1304.39 -0.565983 4.25553 0
M  V30 14423 C 1303.62 -1.54771 5.10766 0
M  V30 14424 O 1303.85 -2.7807 4.9803 0
M  V30 14425 O 1302.78 -1.08482 5.92043 0
M  V30 14426 H 1306.61 0.468182 3.0007 0
M  V30 14427 H 1304.19 0.29502 1.46458 0
M  V30 14428 H 1306.07 -1.85652 3.783 0
M  V30 14429 H 1304.75 -1.94148 2.59014 0
M  V30 14430 H 1303.66 0.0702391 3.74034 0
M  V30 14431 H 1304.99 0.0727277 4.92146 0
M  V30 14432 N 1306.64 -1.55279 0.269478 0
M  V30 14433 C 1307.59 -2.23723 -0.636468 0
M  V30 14434 C 1308.58 -1.23234 -1.16232 0
M  V30 14435 O 1309.79 -1.41181 -1.1166 0
M  V30 14436 H 1306.16 -0.71793 -0.223788 0
M  V30 14437 H 1308.13 -2.98378 -0.0363057 0
M  V30 14438 C 1306.88 -2.96755 -1.81195 0
M  V30 14439 H 1306.21 -3.73865 -1.4165 0
M  V30 14440 H 1307.65 -3.47975 -2.42258 0
M  V30 14441 C 1306.11 -2.01905 -2.69696 0
M  V30 14442 O 1306.64 -1.56662 -3.69892 0
M  V30 14443 N 1304.84 -1.68524 -2.36744 0
M  V30 14444 H 1304.39 -2.05512 -1.55314 0
M  V30 14445 H 1304.35 -1.05331 -2.96231 0
M  V30 14446 N 1308.12 0.00332656 -1.576 0
M  V30 14447 C 1309.36 0.684275 -1.91544 0
M  V30 14448 C 1309.72 1.71565 -0.870814 0
M  V30 14449 O 1309.01 1.9124 0.117405 0
M  V30 14450 C 1309.21 1.37237 -3.30001 0
M  V30 14451 C 1309.04 0.409158 -4.47835 0
M  V30 14452 C 1307.81 0.0207716 -5.05296 0
M  V30 14453 C 1310 -0.323226 -5.13283 0
M  V30 14454 N 1307.99 -0.941002 -6.06645 0
M  V30 14455 C 1309.36 -1.13979 -6.09433 0
M  V30 14456 C 1311.41 -0.387419 -4.9639 0
M  V30 14457 C 1310.11 -2.0147 -6.90509 0
M  V30 14458 C 1312.14 -1.24954 -5.78049 0
M  V30 14459 C 1311.5 -2.05396 -6.73789 0
M  V30 14460 H 1307.6 0.223698 -0.749322 0
M  V30 14461 H 1310.19 -0.0562395 -1.94619 0
M  V30 14462 H 1308.36 2.0832 -3.27807 0
M  V30 14463 H 1310.09 2.00775 -3.51385 0
M  V30 14464 H 1306.84 0.38844 -4.72004 0
M  V30 14465 H 1307.27 -1.41716 -6.62001 0
M  V30 14466 H 1311.91 0.220225 -4.22226 0
M  V30 14467 H 1309.63 -2.63303 -7.64001 0
M  V30 14468 H 1313.21 -1.30308 -5.6702 0
M  V30 14469 H 1312.09 -2.71028 -7.35876 0
M  V30 14470 N 1309.6 1.55164 0.276031 0
M  V30 14471 C 1310.84 1.7528 1.00604 0
M  V30 14472 C 1311.17 0.555256 1.86928 0
M  V30 14473 O 1310.44 -0.429917 1.91124 0
M  V30 14474 H 1309.02 0.646377 0.374441 0
M  V30 14475 H 1311.68 1.92562 0.300992 0
M  V30 14476 H 1310.77 2.65245 1.64473 0
M  V30 14477 N 1311.07 -0.540404 1.48045 0
M  V30 14478 C 1312.49 -1.12243 1.49192 0
M  V30 14479 C 1312.84 -1.94524 0.255895 0
M  V30 14480 O 1311.96 -2.06786 -0.637855 0
M  V30 14481 C 1312.56 -2.04227 2.70327 0
M  V30 14482 C 1311.12 -2.57668 2.7438 0
M  V30 14483 C 1310.26 -1.34402 2.42552 0
M  V30 14484 H 1313.21 -0.326165 1.55312 0
M  V30 14485 H 1313.23 -2.88359 2.48253 0
M  V30 14486 H 1312.75 -1.44314 3.60271 0
M  V30 14487 H 1310.85 -3.21331 1.88618 0
M  V30 14488 H 1310.96 -2.97514 3.7553 0
M  V30 14489 H 1309.32 -1.65635 1.93487 0
M  V30 14490 H 1310.11 -0.762571 3.34723 0
M  V30 14491 N 1312.55 -1.36459 -0.788468 0
M  V30 14492 C 1313.8 -1.31942 -1.54799 0
M  V30 14493 C 1314.15 0.100282 -1.92138 0
M  V30 14494 O 1313.45 1.05505 -1.59935 0
M  V30 14495 C 1313.64 -2.17672 -2.83467 0
M  V30 14496 C 1313.47 -3.67836 -2.58702 0
M  V30 14497 C 1312.24 -4.37009 -2.53675 0
M  V30 14498 C 1314.44 -4.61081 -2.27835 0
M  V30 14499 N 1312.42 -5.72811 -2.20817 0
M  V30 14500 C 1313.79 -5.85137 -2.04973 0
M  V30 14501 C 1315.85 -4.49636 -2.13849 0
M  V30 14502 C 1314.55 -6.99034 -1.69541 0
M  V30 14503 C 1316.57 -5.63401 -1.79816 0
M  V30 14504 C 1315.94 -6.86497 -1.57803 0
M  V30 14505 H 1312.04 -0.538087 -0.567438 0
M  V30 14506 H 1314.62 -1.7152 -0.921358 0
M  V30 14507 H 1312.79 -1.80338 -3.43995 0
M  V30 14508 H 1314.52 -2.04539 -3.49208 0
M  V30 14509 H 1311.28 -3.89822 -2.68953 0
M  V30 14510 H 1311.7 -6.44535 -2.07132 0
M  V30 14511 H 1316.34 -3.55054 -2.29558 0
M  V30 14512 H 1314.06 -7.93567 -1.52571 0
M  V30 14513 H 1317.65 -5.56508 -1.69677 0
M  V30 14514 H 1316.53 -7.73036 -1.31855 0
M  V30 14515 N 1314.03 1.01274 -1.20754 0
M  V30 14516 C 1315.26 1.7906 -1.04653 0
M  V30 14517 C 1315.68 1.83806 0.399632 0
M  V30 14518 O 1315.04 1.27596 1.28798 0
M  V30 14519 C 1315.09 3.21187 -1.63925 0
M  V30 14520 O 1314.19 4.02913 -0.879486 0
M  V30 14521 H 1313.53 0.552147 -0.368823 0
M  V30 14522 H 1316.06 1.27356 -1.6013 0
M  V30 14523 H 1316.07 3.71887 -1.67822 0
M  V30 14524 H 1314.75 3.17048 -2.69172 0
M  V30 14525 H 1313.32 3.61499 -0.915019 0
M  V30 14526 N 1315.51 1.01404 1.20644 0
M  V30 14527 C 1316.47 0.586941 2.21557 0
M  V30 14528 C 1317.47 -0.341543 1.57131 0
M  V30 14529 O 1318.66 -0.130585 1.7371 0
M  V30 14530 C 1315.79 -0.143248 3.40599 0
M  V30 14531 H 1316.99 1.47964 2.60858 0
M  V30 14532 H 1314.54 0.803551 1.34063 0
M  V30 14533 H 1315.28 -1.05097 3.06798 0
M  V30 14534 H 1315.06 0.523716 3.88587 0
M  V30 14535 H 1316.55 -0.429504 4.15385 0
M  V30 14536 N 1316.99 -1.36373 0.789944 0
M  V30 14537 C 1318.24 -1.98834 0.361866 0
M  V30 14538 C 1318.56 -1.63006 -1.07024 0
M  V30 14539 O 1317.83 -0.904312 -1.73779 0
M  V30 14540 H 1316.41 -0.735457 0.130812 0
M  V30 14541 H 1319.07 -1.66561 1.0121 0
M  V30 14542 H 1318.16 -3.08778 0.454122 0
M  V30 14543 N 1318.47 -0.542005 -1.47987 0
M  V30 14544 C 1319.71 -0.0122873 -2.02096 0
M  V30 14545 C 1320.03 1.3362 -1.42024 0
M  V30 14546 O 1319.3 1.86807 -0.589911 0
M  V30 14547 H 1317.88 -0.00155365 -0.746998 0
M  V30 14548 H 1320.55 -0.708566 -1.81564 0
M  V30 14549 H 1319.64 0.0871275 -3.11978 0
M  V30 14550 N 1319.94 1.55134 -0.277709 0
M  V30 14551 C 1321.17 2.04519 0.344472 0
M  V30 14552 C 1321.59 1.15466 1.4849 0
M  V30 14553 O 1320.95 0.153798 1.80646 0
M  V30 14554 C 1321 3.51602 0.800527 0
M  V30 14555 O 1320.1 3.65632 1.90754 0
M  V30 14556 H 1319.44 0.660212 0.0708226 0
M  V30 14557 H 1321.97 2.00393 -0.412764 0
M  V30 14558 H 1321.98 3.93015 1.09559 0
M  V30 14559 H 1320.66 4.15886 -0.033838 0
M  V30 14560 H 1319.24 3.36122 1.61481 0
M  V30 14561 N 1321.42 0.00503138 1.57599 0
M  V30 14562 C 1322.84 -0.351109 1.5569 0
M  V30 14563 C 1323.04 -1.74465 1.00818 0
M  V30 14564 O 1322.09 -2.44144 0.64422 0
M  V30 14565 C 1323.41 -0.221738 2.99881 0
M  V30 14566 C 1324.95 -0.296303 3.11594 0
M  V30 14567 C 1325.43 -0.195998 4.5758 0
M  V30 14568 N 1326.92 -0.253741 4.62504 0
M  V30 14569 C 1327.66 -0.199546 5.73053 0
M  V30 14570 N 1327.15 -0.0956553 6.92734 0
M  V30 14571 N 1328.94 -0.251779 5.61536 0
M  V30 14572 H 1321.1 0.916578 1.91605 0
M  V30 14573 H 1323.36 0.351802 0.880306 0
M  V30 14574 H 1323.06 0.737255 3.43886 0
M  V30 14575 H 1322.94 -1.00178 3.63654 0
M  V30 14576 H 1325.33 -1.24574 2.67517 0
M  V30 14577 H 1325.41 0.513692 2.50589 0
M  V30 14578 H 1325.05 0.749918 5.02333 0
M  V30 14579 H 1324.98 -1.02455 5.16537 0
M  V30 14580 H 1327.47 -0.335163 3.76411 0
M  V30 14581 H 1327.78 -0.0603357 7.72776 0
M  V30 14582 H 1326.13 -0.0612113 6.94973 0
M  V30 14583 H 1329.32 -0.331173 4.66927 0
M  V30 14584 H 1329.49 -0.206078 6.47672 0
M  V30 14585 N 1322.9 -1.55308 -0.267798 0
M  V30 14586 C 1323.83 -1.84963 -1.35356 0
M  V30 14587 C 1324.84 -0.73446 -1.45291 0
M  V30 14588 O 1326.03 -1.01237 -1.47015 0
M  V30 14589 C 1323.13 -2.00221 -2.73432 0
M  V30 14590 C 1322.31 -3.30922 -2.86024 0
M  V30 14591 C 1321.37 -3.3618 -4.04808 0
M  V30 14592 O 1320.39 -4.09525 -3.9532 0
M  V30 14593 N 1321.59 -2.63958 -5.17017 0
M  V30 14594 H 1324.36 -2.7868 -1.1026 0
M  V30 14595 H 1321.92 -1.55289 -0.457914 0
M  V30 14596 H 1323.91 -2.01103 -3.51197 0
M  V30 14597 H 1322.48 -1.13346 -2.91327 0
M  V30 14598 H 1321.7 -3.42534 -1.951 0
M  V30 14599 H 1322.99 -4.17109 -2.91371 0
M  V30 14600 H 1322.39 -2.04062 -5.27613 0
M  V30 14601 H 1320.94 -2.70558 -5.92994 0
M  V30 14602 N 1324.38 0.532545 -1.4833 0
M  V30 14603 C 1325.62 1.29042 -1.56448 0
M  V30 14604 C 1325.96 1.92754 -0.236532 0
M  V30 14605 O 1325.23 1.79154 0.757237 0
M  V30 14606 C 1325.51 2.38173 -2.70084 0
M  V30 14607 C 1325.37 1.79169 -4.12576 0
M  V30 14608 C 1326.69 3.39957 -2.79495 0
M  V30 14609 H 1323.81 0.467816 -0.569488 0
M  V30 14610 H 1326.45 0.593517 -1.80492 0
M  V30 14611 H 1324.6 2.97616 -2.49714 0
M  V30 14612 H 1326.27 1.23797 -4.44378 0
M  V30 14613 H 1324.51 1.09716 -4.19696 0
M  V30 14614 H 1325.18 2.58174 -4.87904 0
M  V30 14615 H 1327.66 2.90466 -2.97941 0
M  V30 14616 H 1326.54 4.13714 -3.60739 0
M  V30 14617 H 1326.8 4.00347 -1.87548 0
M  V30 14618 N 1325.86 1.36875 0.78122 0
M  V30 14619 C 1326.79 1.27738 1.90304 0
M  V30 14620 C 1327.8 0.195147 1.61626 0
M  V30 14621 O 1328.99 0.450531 1.72721 0
M  V30 14622 C 1326.09 0.950103 3.25309 0
M  V30 14623 C 1325.26 2.13589 3.81705 0
M  V30 14624 C 1324.32 1.78037 4.95166 0
M  V30 14625 O 1323.35 2.50223 5.11251 0
M  V30 14626 N 1324.55 0.718886 5.76031 0
M  V30 14627 H 1327.31 2.24397 1.98661 0
M  V30 14628 H 1324.88 1.30376 0.959883 0
M  V30 14629 H 1326.87 0.693286 3.98717 0
M  V30 14630 H 1325.44 0.0723849 3.12516 0
M  V30 14631 H 1324.66 2.55502 3.00187 0
M  V30 14632 H 1325.95 2.9279 4.16114 0
M  V30 14633 H 1325.34 0.119681 5.65573 0
M  V30 14634 H 1323.9 0.521909 6.49707 0
M  V30 14635 N 1327.33 -1.00632 1.21289 0
M  V30 14636 C 1328.58 -1.74388 1.02932 0
M  V30 14637 C 1328.91 -1.8952 -0.437327 0
M  V30 14638 O 1328.16 -1.42551 -1.3408 0
M  V30 14639 C 1328.46 -3.1598 1.67007 0
M  V30 14640 C 1328.13 -3.208 3.16857 0
M  V30 14641 C 1326.79 -3.21823 3.57748 0
M  V30 14642 C 1329.14 -3.18147 4.12834 0
M  V30 14643 C 1326.47 -3.17877 4.93124 0
M  V30 14644 C 1328.82 -3.15743 5.48169 0
M  V30 14645 C 1327.49 -3.15074 5.88459 0
M  V30 14646 H 1326.76 -0.638133 0.376653 0
M  V30 14647 H 1329.4 -1.17953 1.50862 0
M  V30 14648 H 1327.71 -3.75639 1.11365 0
M  V30 14649 H 1329.41 -3.71764 1.50307 0
M  V30 14650 H 1326 -3.20746 2.84289 0
M  V30 14651 H 1330.18 -3.16519 3.82269 0
M  V30 14652 H 1325.44 -3.15696 5.2359 0
M  V30 14653 H 1329.61 -3.12644 6.22275 0
M  V30 14654 H 1327.24 -3.11771 6.93327 0
M  V30 14655 N 1328.81 -1.02043 -1.20104 0
M  V30 14656 C 1329.76 -0.564679 -2.20897 0
M  V30 14657 C 1330.75 0.382041 -1.56299 0
M  V30 14658 O 1331.94 0.204384 -1.75816 0
M  V30 14659 C 1329.07 0.0917516 -3.43177 0
M  V30 14660 C 1328.15 -0.876903 -4.14935 0
M  V30 14661 N 1328.54 -2.03596 -4.63014 0
M  V30 14662 C 1326.84 -0.698538 -4.40496 0
M  V30 14663 C 1327.54 -2.64621 -5.18026 0
M  V30 14664 N 1326.52 -1.92651 -5.08317 0
M  V30 14665 H 1330.32 -1.44825 -2.5574 0
M  V30 14666 H 1327.83 -0.88628 -1.36084 0
M  V30 14667 H 1329.83 0.43582 -4.14616 0
M  V30 14668 H 1328.49 0.971116 -3.09838 0
M  V30 14669 H 1329.5 -2.41573 -4.58108 0
M  V30 14670 H 1326.18 0.132449 -4.1729 0
M  V30 14671 H 1327.57 -3.62732 -5.65575 0
M  V30 14672 N 1330.29 1.35952 -0.797165 0
M  V30 14673 C 1331.22 2.28649 -0.15877 0
M  V30 14674 C 1332.24 1.49842 0.636481 0
M  V30 14675 O 1333.42 1.72191 0.47039 0
M  V30 14676 C 1330.52 3.29373 0.797913 0
M  V30 14677 C 1329.7 4.3737 0.0510574 0
M  V30 14678 C 1328.76 5.18009 0.924826 0
M  V30 14679 O 1327.78 5.67935 0.379223 0
M  V30 14680 N 1328.98 5.352 2.24813 0
M  V30 14681 H 1331.75 2.84075 -0.955056 0
M  V30 14682 H 1329.31 1.48201 -0.651767 0
M  V30 14683 H 1331.3 3.80209 1.38646 0
M  V30 14684 H 1329.87 2.74531 1.49504 0
M  V30 14685 H 1329.09 3.87594 -0.718633 0
M  V30 14686 H 1330.38 5.0668 -0.464025 0
M  V30 14687 H 1329.78 4.96266 2.71545 0
M  V30 14688 H 1328.34 5.89252 2.78614 0
M  V30 14689 N 1331.77 0.549846 1.47697 0
M  V30 14690 C 1333.02 0.0230048 2.02087 0
M  V30 14691 C 1333.34 -1.32865 1.4273 0
M  V30 14692 O 1332.61 -1.86492 0.59981 0
M  V30 14693 H 1331.19 0.00551514 0.74698 0
M  V30 14694 H 1333.85 0.718185 1.81185 0
M  V30 14695 H 1332.95 -0.0705813 3.1202 0
M  V30 14696 N 1333.25 -1.54984 0.285932 0
M  V30 14697 C 1334.49 -1.9983 -0.327737 0
M  V30 14698 C 1334.82 -1.17435 -1.55046 0
M  V30 14699 O 1334.08 -0.234735 -1.94287 0
M  V30 14700 C 1334.38 -3.49581 -0.7435 0
M  V30 14701 C 1334.04 -4.49331 0.375792 0
M  V30 14702 C 1332.7 -4.76327 0.683103 0
M  V30 14703 C 1335.06 -5.08815 1.12947 0
M  V30 14704 C 1332.38 -5.60071 1.74748 0
M  V30 14705 C 1334.74 -5.93716 2.18366 0
M  V30 14706 C 1333.4 -6.19028 2.4972 0
M  V30 14707 H 1332.67 -0.731231 -0.119928 0
M  V30 14708 H 1335.32 -1.87235 0.401896 0
M  V30 14709 H 1333.62 -3.59708 -1.55298 0
M  V30 14710 H 1335.32 -3.81694 -1.22924 0
M  V30 14711 H 1331.91 -4.28414 0.126159 0
M  V30 14712 H 1336.09 -4.87973 0.905313 0
M  V30 14713 H 1331.35 -5.77925 1.9953 0
M  V30 14714 H 1335.52 -6.38838 2.77233 0
M  V30 14715 H 1333.15 -6.83711 3.3233 0
M  V30 14716 N 1334.72 -0.0133892 -1.57594 0
M  V30 14717 C 1335.97 0.667313 -1.90765 0
M  V30 14718 C 1336.29 1.73564 -0.888847 0
M  V30 14719 O 1335.56 1.95768 0.0718946 0
M  V30 14720 H 1334.14 0.24947 -0.704112 0
M  V30 14721 H 1336.81 -0.0574789 -1.94815 0
M  V30 14722 H 1335.9 1.13007 -2.90922 0
M  V30 14723 N 1336.2 1.55448 0.259558 0
M  V30 14724 C 1337.48 1.6742 1.01143 0
M  V30 14725 C 1337.86 0.549525 2.03822 0
M  V30 14726 O 1337.21 -0.448699 2.24051 0
M  V30 14727 C 1337.42 3.07201 1.65616 0
M  V30 14728 C 1338.77 3.6539 2.16277 0
M  V30 14729 O 1339.79 3.0992 1.7558 0
M  V30 14730 O 1338.65 4.62604 2.90963 0
M  V30 14731 H 1335.74 0.680469 0.469991 0
M  V30 14732 H 1338.29 1.67783 0.254348 0
M  V30 14733 H 1337.06 3.80504 0.912819 0
M  V30 14734 H 1336.68 3.10794 2.47977 0
M  V30 14735 N 1337.68 -0.524672 1.4861 0
M  V30 14736 C 1338.61 -1.63782 1.66426 0
M  V30 14737 C 1339.59 -1.62177 0.513077 0
M  V30 14738 O 1340.78 -1.7929 0.74623 0
M  V30 14739 C 1337.91 -3.02354 1.70877 0
M  V30 14740 C 1336.86 -3.18819 2.85549 0
M  V30 14741 C 1336.19 -4.58506 2.75094 0
M  V30 14742 C 1337.49 -3.01086 4.26784 0
M  V30 14743 H 1339.18 -1.49127 2.59618 0
M  V30 14744 H 1336.73 -0.715997 1.24938 0
M  V30 14745 H 1338.68 -3.80105 1.81929 0
M  V30 14746 H 1337.4 -3.18044 0.742682 0
M  V30 14747 H 1336.06 -2.43487 2.74061 0
M  V30 14748 H 1335.71 -4.71038 1.76443 0
M  V30 14749 H 1335.41 -4.70466 3.52044 0
M  V30 14750 H 1336.93 -5.38348 2.88121 0
M  V30 14751 H 1338.35 -3.68624 4.39077 0
M  V30 14752 H 1336.75 -3.24536 5.04774 0
M  V30 14753 H 1337.82 -1.97454 4.42877 0
M  V30 14754 N 1339.16 -1.37287 -0.77395 0
M  V30 14755 C 1340.12 -1.32699 -1.86878 0
M  V30 14756 C 1341.12 -0.231486 -1.59125 0
M  V30 14757 O 1342.31 -0.487203 -1.67248 0
M  V30 14758 C 1339.44 -1.0609 -3.23972 0
M  V30 14759 H 1340.64 -2.30083 -1.92359 0
M  V30 14760 H 1338.19 -1.22284 -0.973459 0
M  V30 14761 H 1338.92 -0.0922868 -3.24169 0
M  V30 14762 H 1338.71 -1.85383 -3.45508 0
M  V30 14763 H 1340.2 -1.05524 -4.04048 0
M  V30 14764 N 1340.64 0.999871 -1.21821 0
M  V30 14765 C 1341.88 1.74098 -1.04009 0
M  V30 14766 C 1342.22 1.89499 0.424716 0
M  V30 14767 O 1341.49 1.43306 1.31505 0
M  V30 14768 C 1341.77 3.1506 -1.74382 0
M  V30 14769 C 1341.63 3.0735 -3.28414 0
M  V30 14770 C 1342.95 4.1409 -1.49055 0
M  V30 14771 H 1340.06 0.631935 -0.379245 0
M  V30 14772 H 1342.71 1.16534 -1.50066 0
M  V30 14773 H 1340.86 3.64206 -1.35227 0
M  V30 14774 H 1342.53 2.65879 -3.76969 0
M  V30 14775 H 1340.77 2.44325 -3.58452 0
M  V30 14776 H 1341.44 4.07069 -3.72825 0
M  V30 14777 H 1343.92 3.73672 -1.83054 0
M  V30 14778 H 1342.79 5.10853 -2.008 0
M  V30 14779 H 1343.06 4.40085 -0.421641 0
M  V30 14780 N 1342.11 1.02678 1.19562 0
M  V30 14781 C 1343.04 0.626359 2.24942 0
M  V30 14782 C 1344.03 -0.363612 1.66168 0
M  V30 14783 O 1345.21 -0.246793 1.92625 0
M  V30 14784 C 1342.34 -0.0257912 3.4729 0
M  V30 14785 C 1341.29 0.886237 4.18724 0
M  V30 14786 C 1340.62 0.0993081 5.34608 0
M  V30 14787 C 1341.92 2.19901 4.73752 0
M  V30 14788 H 1343.61 1.50729 2.58691 0
M  V30 14789 H 1341.16 0.726195 1.24348 0
M  V30 14790 H 1343.11 -0.317545 4.20202 0
M  V30 14791 H 1341.84 -0.941511 3.12735 0
M  V30 14792 H 1340.5 1.16215 3.47692 0
M  V30 14793 H 1340.14 -0.81838 4.96298 0
M  V30 14794 H 1339.84 0.706776 5.83334 0
M  V30 14795 H 1341.37 -0.185754 6.10317 0
M  V30 14796 H 1342.78 1.96892 5.3843 0
M  V30 14797 H 1341.18 2.75821 5.32956 0
M  V30 14798 H 1342.25 2.85509 3.91934 0
M  V30 14799 N 1343.59 -1.35528 0.804364 0
M  V30 14800 C 1344.54 -2.29832 0.211186 0
M  V30 14801 C 1345.51 -1.52704 -0.653503 0
M  V30 14802 O 1346.69 -1.81152 -0.599052 0
M  V30 14803 C 1343.83 -3.39188 -0.636054 0
M  V30 14804 C 1342.95 -4.31283 0.248824 0
M  V30 14805 C 1342.08 -5.2773 -0.60621 0
M  V30 14806 C 1341.12 -6.11463 0.279205 0
M  V30 14807 N 1340.26 -7.00054 -0.535672 0
M  V30 14808 H 1345.1 -2.79971 1.0208 0
M  V30 14809 H 1342.64 -1.37793 0.514931 0
M  V30 14810 H 1344.59 -4.01254 -1.14241 0
M  V30 14811 H 1343.22 -2.90331 -1.41095 0
M  V30 14812 H 1342.28 -3.70241 0.873263 0
M  V30 14813 H 1343.59 -4.90046 0.930417 0
M  V30 14814 H 1342.74 -5.95158 -1.17778 0
M  V30 14815 H 1341.48 -4.69458 -1.32138 0
M  V30 14816 H 1340.49 -5.42984 0.863066 0
M  V30 14817 H 1341.71 -6.71813 0.9922 0
M  V30 14818 H 1339.66 -6.44273 -1.23486 0
M  V30 14819 H 1339.57 -7.55949 0.0879213 0
M  V30 14820 H 1340.84 -7.71833 -1.09059 0
M  V30 14821 N 1345.07 -0.557671 -1.47404 0
M  V30 14822 C 1346.48 -0.124411 -1.86285 0
M  V30 14823 C 1346.83 1.30593 -1.46424 0
M  V30 14824 O 1345.96 1.9825 -0.867515 0
M  V30 14825 C 1346.55 -0.219005 -3.38091 0
M  V30 14826 C 1345.11 0.159221 -3.76063 0
M  V30 14827 C 1344.26 -0.566355 -2.71455 0
M  V30 14828 H 1347.21 -0.767367 -1.38914 0
M  V30 14829 H 1347.23 0.562267 -3.76323 0
M  V30 14830 H 1346.74 -1.26013 -3.67073 0
M  V30 14831 H 1344.84 1.20144 -3.52698 0
M  V30 14832 H 1344.96 -0.199662 -4.78684 0
M  V30 14833 H 1343.32 -0.00938921 -2.54698 0
M  V30 14834 H 1344.1 -1.60865 -3.03278 0
M  V30 14835 N 1346.55 1.54831 -0.294147 0
M  V30 14836 C 1347.77 2.04873 0.32276 0
M  V30 14837 C 1348.2 1.17034 1.47257 0
M  V30 14838 O 1347.56 0.172949 1.80473 0
M  V30 14839 C 1347.61 3.52431 0.76319 0
M  V30 14840 O 1346.71 3.67635 1.86865 0
M  V30 14841 H 1346.05 0.660926 0.0638162 0
M  V30 14842 H 1348.58 1.99944 -0.433995 0
M  V30 14843 H 1348.59 3.94155 1.05385 0
M  V30 14844 H 1347.27 4.15827 -0.0779464 0
M  V30 14845 H 1345.84 3.37816 1.57907 0
M  V30 14846 N 1348.03 0.0217466 1.57585 0
M  V30 14847 C 1348.98 -0.980624 2.10918 0
M  V30 14848 C 1349.97 -1.34178 1.03406 0
M  V30 14849 O 1351.18 -1.32487 1.21849 0
M  V30 14850 H 1347.55 -0.333984 0.673764 0
M  V30 14851 H 1349.52 -0.505431 2.94088 0
M  V30 14852 C 1348.27 -2.25639 2.64542 0
M  V30 14853 H 1347.59 -1.98722 3.46914 0
M  V30 14854 H 1349.03 -2.94003 3.05513 0
M  V30 14855 C 1347.49 -2.98111 1.56945 0
M  V30 14856 O 1348.02 -3.89937 0.964975 0
M  V30 14857 N 1346.23 -2.60316 1.29166 0
M  V30 14858 H 1345.78 -1.85722 1.78508 0
M  V30 14859 H 1345.73 -3.09116 0.573987 0
M  V30 14860 N 1349.51 -1.55583 -0.251311 0
M  V30 14861 C 1350.45 -1.89946 -1.31108 0
M  V30 14862 C 1351.42 -0.753209 -1.4804 0
M  V30 14863 O 1352.61 -1.00646 -1.62095 0
M  V30 14864 C 1349.75 -2.19576 -2.66233 0
M  V30 14865 C 1348.86 -3.46983 -2.57345 0
M  V30 14866 C 1348 -3.66206 -3.84794 0
M  V30 14867 C 1347.03 -4.87229 -3.70505 0
M  V30 14868 N 1346.17 -5.02996 -4.89836 0
M  V30 14869 H 1351.01 -2.80325 -1.01104 0
M  V30 14870 H 1348.55 -1.3877 -0.487986 0
M  V30 14871 H 1350.51 -2.3476 -3.44882 0
M  V30 14872 H 1349.14 -1.32406 -2.94395 0
M  V30 14873 H 1348.19 -3.40156 -1.70289 0
M  V30 14874 H 1349.5 -4.35776 -2.42695 0
M  V30 14875 H 1348.65 -3.81324 -4.71886 0
M  V30 14876 H 1347.39 -2.75638 -4.02337 0
M  V30 14877 H 1346.4 -4.72092 -2.81797 0
M  V30 14878 H 1347.62 -5.79253 -3.54462 0
M  V30 14879 H 1345.57 -4.15364 -5.07748 0
M  V30 14880 H 1345.49 -5.8587 -4.778 0
M  V30 14881 H 1346.75 -5.22521 -5.78439 0
M  V30 14882 N 1350.98 0.516783 -1.48886 0
M  V30 14883 C 1352.23 1.27375 -1.57808 0
M  V30 14884 C 1352.56 1.92492 -0.256963 0
M  V30 14885 O 1351.84 1.79947 0.738193 0
M  V30 14886 C 1352.12 2.35295 -2.72595 0
M  V30 14887 C 1351.97 1.74783 -4.14453 0
M  V30 14888 C 1353.29 3.36973 -2.83085 0
M  V30 14889 H 1350.41 0.46175 -0.574418 0
M  V30 14890 H 1353.05 0.57434 -1.81111 0
M  V30 14891 H 1351.2 2.94951 -2.52857 0
M  V30 14892 H 1352.88 1.19076 -4.45666 0
M  V30 14893 H 1351.12 1.05258 -4.20836 0
M  V30 14894 H 1351.79 2.52985 -4.90615 0
M  V30 14895 H 1354.27 2.87289 -3.01005 0
M  V30 14896 H 1353.14 4.09864 -3.65106 0
M  V30 14897 H 1353.4 3.98336 -1.91784 0
M  V30 14898 N 1352.46 1.37696 0.766659 0
M  V30 14899 C 1353.39 1.36576 1.89392 0
M  V30 14900 C 1354.37 0.233597 1.68488 0
M  V30 14901 O 1355.56 0.434719 1.89272 0
M  V30 14902 C 1352.69 1.17705 3.26746 0
M  V30 14903 C 1351.64 2.27987 3.62224 0
M  V30 14904 C 1350.97 1.94235 4.98174 0
M  V30 14905 C 1352.27 3.70195 3.68447 0
M  V30 14906 H 1353.96 2.30905 1.90587 0
M  V30 14907 H 1351.51 1.11148 0.915538 0
M  V30 14908 H 1353.46 1.15551 4.05248 0
M  V30 14909 H 1352.18 0.198334 3.25997 0
M  V30 14910 H 1350.84 2.29306 2.86032 0
M  V30 14911 H 1350.49 0.948796 4.93971 0
M  V30 14912 H 1350.19 2.68086 5.2288 0
M  V30 14913 H 1351.72 1.93676 5.7907 0
M  V30 14914 H 1353.13 3.70978 4.37091 0
M  V30 14915 H 1351.53 4.43142 4.04654 0
M  V30 14916 H 1352.6 4.03453 2.68986 0
M  V30 14917 N 1353.94 -0.993397 1.22349 0
M  V30 14918 C 1354.87 -2.08543 0.950925 0
M  V30 14919 C 1355.88 -1.62648 -0.0702741 0
M  V30 14920 O 1357.07 -1.77748 0.16367 0
M  V30 14921 C 1354.17 -3.36429 0.408466 0
M  V30 14922 C 1353.35 -4.11356 1.48676 0
M  V30 14923 C 1352.41 -5.17526 0.951478 0
M  V30 14924 O 1351.43 -5.45135 1.63757 0
M  V30 14925 N 1352.63 -5.80055 -0.227378 0
M  V30 14926 H 1355.4 -2.32506 1.89106 0
M  V30 14927 H 1352.96 -1.15911 1.13032 0
M  V30 14928 H 1354.95 -4.04684 0.0356968 0
M  V30 14929 H 1353.52 -3.09534 -0.436767 0
M  V30 14930 H 1352.74 -3.37739 2.03288 0
M  V30 14931 H 1354.03 -4.58187 2.21228 0
M  V30 14932 H 1353.43 -5.59992 -0.801601 0
M  V30 14933 H 1351.98 -6.49546 -0.541538 0
M  V30 14934 N 1355.42 -1.03311 -1.19015 0
M  V30 14935 C 1356.66 -0.733124 -1.89085 0
M  V30 14936 C 1357 0.73675 -1.79682 0
M  V30 14937 O 1356.27 1.53692 -1.19201 0
M  V30 14938 C 1356.55 -1.19028 -3.39859 0
M  V30 14939 C 1356.41 -2.72169 -3.58112 0
M  V30 14940 C 1357.73 -0.774383 -4.33234 0
M  V30 14941 H 1354.85 -0.2678 -0.686624 0
M  V30 14942 H 1357.49 -1.28378 -1.40068 0
M  V30 14943 H 1355.64 -0.721799 -3.81736 0
M  V30 14944 H 1357.31 -3.26996 -3.25379 0
M  V30 14945 H 1355.55 -3.12358 -3.01023 0
M  V30 14946 H 1356.22 -2.99213 -4.6387 0
M  V30 14947 H 1358.7 -1.17739 -3.99095 0
M  V30 14948 H 1357.58 -1.12209 -5.37308 0
M  V30 14949 H 1357.84 0.322989 -4.40919 0
M  V30 14950 N 1356.9 1.35099 -0.81154 0
M  V30 14951 C 1358.12 2.03391 -0.405805 0
M  V30 14952 C 1358.55 1.60745 0.97686 0
M  V30 14953 O 1357.9 0.786518 1.63351 0
M  V30 14954 C 1357.95 3.57075 -0.502954 0
M  V30 14955 O 1357.06 4.09577 0.481681 0
M  V30 14956 H 1356.4 0.642203 -0.168733 0
M  V30 14957 H 1358.93 1.72591 -1.0988 0
M  V30 14958 H 1358.94 4.06277 -0.37456 0
M  V30 14959 H 1357.61 3.87463 -1.51145 0
M  V30 14960 H 1356.19 3.71583 0.313115 0
M  V30 14961 N 1358.37 0.56548 1.47106 0
M  V30 14962 C 1359.62 0.042333 2.01656 0
M  V30 14963 C 1359.94 -1.31892 1.44443 0
M  V30 14964 O 1361.14 -1.93245 1.90706 0
M  V30 14965 C 1359.6 0.0251556 3.59891 0
M  V30 14966 C 1359.21 1.38367 4.26097 0
M  V30 14967 C 1360.95 -0.44495 4.22162 0
M  V30 14968 C 1358.86 1.32516 5.76362 0
M  V30 14969 H 1357.79 0.0120557 0.753904 0
M  V30 14970 H 1360.44 0.714565 1.69015 0
M  V30 14971 H 1358.82 -0.712893 3.8953 0
M  V30 14972 H 1359.99 2.14009 4.08089 0
M  V30 14973 H 1358.31 1.79239 3.75849 0
M  V30 14974 H 1360.91 -0.507256 5.32288 0
M  V30 14975 H 1361.25 -1.45876 3.89905 0
M  V30 14976 H 1361.78 0.238496 3.97084 0
M  V30 14977 H 1358.52 2.31523 6.13252 0
M  V30 14978 H 1358.04 0.610674 5.96683 0
M  V30 14979 H 1359.72 1.03072 6.38737 0
M  V30 14980 N 1359.85 -1.54672 0.302354 0
M  V30 14981 C 1361.1 -1.99771 -0.305919 0
M  V30 14982 C 1361.42 -1.19225 -1.54306 0
M  V30 14983 O 1360.69 -0.288569 -1.93763 0
M  V30 14984 H 1359.27 -0.737934 -0.116026 0
M  V30 14985 H 1361.93 -1.90452 0.413997 0
M  V30 14986 H 1361.03 -3.06719 -0.577024 0
M  V30 14987 N 1361.33 -0.0301034 -1.57571 0
M  V30 14988 C 1362.74 0.508591 -1.79639 0
M  V30 14989 C 1363.09 1.72191 -0.940458 0
M  V30 14990 O 1362.22 2.15872 -0.151138 0
M  V30 14991 C 1362.81 0.929446 -3.25802 0
M  V30 14992 C 1361.37 1.41325 -3.48861 0
M  V30 14993 C 1360.52 0.378433 -2.74706 0
M  V30 14994 H 1363.47 -0.256131 -1.56619 0
M  V30 14995 H 1363.49 1.79374 -3.35567 0
M  V30 14996 H 1363 0.0461738 -3.88073 0
M  V30 14997 H 1361.1 2.31641 -2.91844 0
M  V30 14998 H 1361.22 1.41995 -4.57574 0
M  V30 14999 H 1359.58 0.846744 -2.40213 0
M  V30 15000 H 1360.36 -0.49639 -3.39692 0
M  V30 15001 N 1362.81 1.55714 0.243056 0
M  V30 15002 C 1364.06 1.77375 0.968638 0
M  V30 15003 C 1364.38 0.594781 1.85708 0
M  V30 15004 O 1363.65 -0.38928 1.91993 0
M  V30 15005 H 1362.23 0.654174 0.360646 0
M  V30 15006 H 1364.89 1.93157 0.260079 0
M  V30 15007 H 1363.99 2.68674 1.5881 0
M  V30 15008 N 1364.29 -0.50888 1.49158 0
M  V30 15009 C 1365.22 -1.62008 1.68154 0
M  V30 15010 C 1366.2 -1.61624 0.53025 0
M  V30 15011 O 1367.38 -1.78489 0.765205 0
M  V30 15012 C 1364.51 -3.00525 1.74075 0
M  V30 15013 C 1363.47 -3.15773 2.88915 0
M  V30 15014 C 1362.79 -4.55562 2.79942 0
M  V30 15015 C 1364.09 -2.96542 4.29953 0
M  V30 15016 H 1365.79 -1.46365 2.61185 0
M  V30 15017 H 1363.33 -0.702705 1.2569 0
M  V30 15018 H 1365.29 -3.78154 1.8595 0
M  V30 15019 H 1364.01 -3.17238 0.776373 0
M  V30 15020 H 1362.67 -2.40567 2.76628 0
M  V30 15021 H 1362.32 -4.6914 1.81429 0
M  V30 15022 H 1362.02 -4.66706 3.57015 0
M  V30 15023 H 1363.54 -5.35262 2.93814 0
M  V30 15024 H 1364.95 -3.63947 4.42963 0
M  V30 15025 H 1363.35 -3.19164 5.08187 0
M  V30 15026 H 1364.42 -1.92745 4.44946 0
M  V30 15027 N 1365.76 -1.381 -0.759346 0
M  V30 15028 C 1367.18 -1.30379 -1.33635 0
M  V30 15029 C 1367.53 0.0430279 -1.96153 0
M  V30 15030 O 1366.65 0.945029 -1.94675 0
M  V30 15031 C 1367.25 -2.3611 -2.42976 0
M  V30 15032 C 1365.81 -2.31985 -2.96412 0
M  V30 15033 C 1364.95 -2.19281 -1.69739 0
M  V30 15034 H 1367.9 -1.48542 -0.558656 0
M  V30 15035 H 1367.92 -2.01493 -3.22771 0
M  V30 15036 H 1367.44 -3.34122 -1.97445 0
M  V30 15037 H 1365.54 -1.37536 -3.46287 0
M  V30 15038 H 1365.65 -3.25895 -3.51183 0
M  V30 15039 H 1364.01 -1.66035 -1.93144 0
M  V30 15040 H 1364.8 -3.19225 -1.26293 0
M  V30 15041 N 1367.24 0.986894 -1.22875 0
M  V30 15042 C 1368.19 2.07811 -1.00416 0
M  V30 15043 C 1369.16 1.65925 0.0761734 0
M  V30 15044 O 1370.34 1.90654 -0.0746294 0
M  V30 15045 C 1367.48 3.39941 -0.594471 0
M  V30 15046 C 1366.6 3.95134 -1.74622 0
M  V30 15047 C 1365.73 5.1545 -1.28394 0
M  V30 15048 C 1364.77 5.62794 -2.40686 0
M  V30 15049 N 1363.91 6.74343 -1.95462 0
M  V30 15050 H 1368.75 2.26356 -1.93822 0
M  V30 15051 H 1366.29 1.10966 -0.965661 0
M  V30 15052 H 1368.24 4.15828 -0.338078 0
M  V30 15053 H 1366.87 3.21379 0.302587 0
M  V30 15054 H 1365.93 3.16064 -2.11679 0
M  V30 15055 H 1367.24 4.26247 -2.59066 0
M  V30 15056 H 1366.39 5.98646 -0.98529 0
M  V30 15057 H 1365.13 4.85975 -0.409789 0
M  V30 15058 H 1364.14 4.78182 -2.71333 0
M  V30 15059 H 1365.36 5.9429 -3.28627 0
M  V30 15060 H 1363.31 6.46641 -1.10417 0
M  V30 15061 H 1363.22 7.04806 -2.73469 0
M  V30 15062 H 1364.49 7.6103 -1.68683 0
M  V30 15063 N 1368.72 1.0394 1.18466 0
M  V30 15064 C 1369.67 0.623063 2.241 0
M  V30 15065 C 1370.66 -0.349518 1.65755 0
M  V30 15066 O 1371.87 -0.216947 1.78688 0
M  V30 15067 H 1368.24 0.183263 0.729327 0
M  V30 15068 H 1370.21 1.52439 2.56524 0
M  V30 15069 C 1368.96 0.000626805 3.477 0
M  V30 15070 H 1368.29 0.740056 3.92891 0
M  V30 15071 H 1369.73 -0.253484 4.23242 0
M  V30 15072 C 1368.19 -1.24907 3.1289 0
M  V30 15073 O 1368.72 -2.33996 3.2651 0
M  V30 15074 N 1366.92 -1.14187 2.67226 0
M  V30 15075 H 1366.47 -0.254146 2.56343 0
M  V30 15076 H 1366.43 -1.97893 2.44307 0
M  V30 15077 N 1370.2 -1.34667 0.818693 0
M  V30 15078 C 1371.42 -2.03173 0.416585 0
M  V30 15079 C 1371.85 -1.61261 -0.968321 0
M  V30 15080 O 1371.21 -0.79517 -1.62932 0
M  V30 15081 C 1371.25 -3.56803 0.521884 0
M  V30 15082 O 1370.36 -4.09827 -0.459953 0
M  V30 15083 H 1369.7 -0.6413 0.172136 0
M  V30 15084 H 1372.23 -1.72006 1.10794 0
M  V30 15085 H 1372.24 -4.06073 0.3961 0
M  V30 15086 H 1370.91 -3.86656 1.53198 0
M  V30 15087 H 1369.49 -3.71744 -0.293405 0
M  V30 15088 N 1371.68 -0.573274 -1.46804 0
M  V30 15089 C 1373.09 -0.23423 -1.57872 0
M  V30 15090 C 1373.29 1.26342 -1.56971 0
M  V30 15091 O 1372.35 2.04459 -1.48165 0
M  V30 15092 C 1373.66 -0.875097 -2.87685 0
M  V30 15093 C 1375.21 -0.847812 -3.01299 0
M  V30 15094 C 1375.68 -1.46804 -4.33835 0
M  V30 15095 N 1377.18 -1.43196 -4.4051 0
M  V30 15096 C 1377.91 -1.88133 -5.41658 0
M  V30 15097 N 1377.41 -2.41001 -6.49531 0
M  V30 15098 N 1379.2 -1.79107 -5.32801 0
M  V30 15099 H 1371.35 -1.54612 -1.45633 0
M  V30 15100 H 1373.61 -0.645703 -0.694098 0
M  V30 15101 H 1373.32 -1.92826 -2.94127 0
M  V30 15102 H 1373.19 -0.377671 -3.75305 0
M  V30 15103 H 1375.58 0.196707 -2.94444 0
M  V30 15104 H 1375.66 -1.38316 -2.1518 0
M  V30 15105 H 1375.31 -2.51171 -4.41447 0
M  V30 15106 H 1375.24 -0.908 -5.18713 0
M  V30 15107 H 1377.73 -1.04541 -3.63152 0
M  V30 15108 H 1378.04 -2.73172 -7.22908 0
M  V30 15109 H 1376.38 -2.45021 -6.50377 0
M  V30 15110 H 1379.58 -1.37569 -4.47429 0
M  V30 15111 H 1379.75 -2.14445 -6.11488 0
M  V30 15112 N 1373.15 1.5451 -0.310553 0
M  V30 15113 C 1374.57 1.85829 0.180166 0
M  V30 15114 C 1374.92 1.23239 1.52665 0
M  V30 15115 O 1374.04 0.53359 2.09718 0
M  V30 15116 C 1374.64 3.37153 0.333687 0
M  V30 15117 C 1373.2 3.68469 0.768625 0
M  V30 15118 C 1372.34 2.77051 -0.117399 0
M  V30 15119 H 1375.29 1.49544 -0.531262 0
M  V30 15120 H 1375.31 3.62171 1.16673 0
M  V30 15121 H 1374.83 3.82678 -0.646455 0
M  V30 15122 H 1372.93 3.28467 1.75898 0
M  V30 15123 H 1373.04 4.75559 0.581392 0
M  V30 15124 H 1371.4 2.51461 0.404905 0
M  V30 15125 H 1372.19 3.254 -1.09407 0
M  V30 15126 N 1374.63 0.0384594 1.57553 0
M  V30 15127 C 1375.86 -0.648077 1.96488 0
M  V30 15128 C 1376.28 -1.65123 0.915414 0
M  V30 15129 O 1375.63 -1.82216 -0.101779 0
M  V30 15130 C 1375.68 -1.34623 3.35498 0
M  V30 15131 O 1375.41 -0.383261 4.3642 0
M  V30 15132 C 1376.91 -2.12372 3.89119 0
M  V30 15133 H 1374.13 -0.178068 0.646941 0
M  V30 15134 H 1376.67 0.100993 2.0425 0
M  V30 15135 H 1374.83 -2.04663 3.28926 0
M  V30 15136 H 1375.24 -0.880095 5.17063 0
M  V30 15137 H 1376.71 -2.5666 4.88702 0
M  V30 15138 H 1377.19 -2.96664 3.23863 0
M  V30 15139 H 1377.8 -1.4727 3.98988 0
M  V30 15140 N 1376.11 -1.55841 -0.234795 0
M  V30 15141 C 1377.53 -1.48536 -0.583885 0
M  V30 15142 C 1377.73 -0.731018 -1.87772 0
M  V30 15143 O 1376.78 -0.265287 -2.51103 0
M  V30 15144 C 1378.1 -2.93017 -0.675389 0
M  V30 15145 C 1379.64 -3.03459 -0.766906 0
M  V30 15146 C 1380.12 -4.49272 -0.889868 0
M  V30 15147 N 1381.61 -4.5326 -0.95443 0
M  V30 15148 C 1382.35 -5.63346 -1.06905 0
M  V30 15149 N 1381.84 -6.83215 -1.14845 0
M  V30 15150 N 1383.63 -5.51169 -1.10315 0
M  V30 15151 H 1375.79 -2.0332 0.614405 0
M  V30 15152 H 1378.05 -0.923581 0.213779 0
M  V30 15153 H 1377.75 -3.51099 0.205493 0
M  V30 15154 H 1377.63 -3.4418 -1.54337 0
M  V30 15155 H 1380.02 -2.4545 -1.63823 0
M  V30 15156 H 1380.1 -2.55487 0.126472 0
M  V30 15157 H 1379.74 -5.07895 -0.0230489 0
M  V30 15158 H 1379.67 -4.94937 -1.79847 0
M  V30 15159 H 1382.16 -3.6693 -0.903923 0
M  V30 15160 H 1382.47 -7.62863 -1.23532 0
M  V30 15161 H 1380.82 -6.85952 -1.11781 0
M  V30 15162 H 1384.01 -4.56453 -1.03769 0
M  V30 15163 H 1384.18 -6.36998 -1.18903 0
M  V30 15164 N 1377.59 0.500963 -1.49426 0
M  V30 15165 C 1379.01 0.832142 -1.36189 0
M  V30 15166 C 1379.21 1.9759 -0.395014 0
M  V30 15167 O 1378.26 2.51905 0.173294 0
M  V30 15168 C 1379.57 1.17232 -2.76907 0
M  V30 15169 C 1381.12 1.28052 -2.85607 0
M  V30 15170 C 1381.6 1.65399 -4.27092 0
M  V30 15171 N 1383.09 1.72448 -4.29902 0
M  V30 15172 C 1383.82 2.02789 -5.36343 0
M  V30 15173 N 1383.32 2.31354 -6.53029 0
M  V30 15174 N 1385.11 2.0404 -5.23759 0
M  V30 15175 H 1377.26 -0.253253 -2.10885 0
M  V30 15176 H 1379.53 -0.0507111 -0.946643 0
M  V30 15177 H 1379.23 0.405247 -3.49357 0
M  V30 15178 H 1379.11 2.11574 -3.12276 0
M  V30 15179 H 1381.49 2.03831 -2.13394 0
M  V30 15180 H 1381.57 0.317603 -2.53821 0
M  V30 15181 H 1381.22 0.901704 -4.99832 0
M  V30 15182 H 1381.15 2.6279 -4.56343 0
M  V30 15183 H 1383.64 1.52532 -3.45749 0
M  V30 15184 H 1383.95 2.53695 -7.29972 0
M  V30 15185 H 1382.3 2.28811 -6.56255 0
M  V30 15186 H 1385.49 1.812 -4.31606 0
M  V30 15187 H 1385.66 2.27353 -6.06807 0
M  V30 15188 N 1379.07 1.38501 0.752011 0
M  V30 15189 C 1380.02 1.35975 1.88716 0
M  V30 15190 C 1381.01 0.245392 1.67613 0
M  V30 15191 O 1382.22 0.414514 1.75162 0
M  V30 15192 H 1378.59 0.424221 0.620919 0
M  V30 15193 H 1380.56 2.3176 1.87962 0
M  V30 15194 C 1379.31 1.20326 3.26216 0
M  V30 15195 H 1378.63 2.05336 3.43041 0
M  V30 15196 H 1380.07 1.22613 4.05884 0
M  V30 15197 C 1378.53 -0.0897029 3.36781 0
M  V30 15198 O 1379.06 -1.06615 3.87293 0
M  V30 15199 N 1377.27 -0.147065 2.90228 0
M  V30 15200 H 1376.82 0.648216 2.49311 0
M  V30 15201 H 1376.77 -1.01174 2.97676 0
M  V30 15202 N 1380.55 -0.980364 1.23396 0
M  V30 15203 C 1381.77 -1.75689 1.09275 0
M  V30 15204 C 1382.19 -1.85418 -0.355773 0
M  V30 15205 O 1381.55 -1.33337 -1.24609 0
M  V30 15206 C 1381.6 -3.18378 1.71223 0
M  V30 15207 O 1381.32 -3.09154 3.10411 0
M  V30 15208 C 1382.82 -4.12425 1.62545 0
M  V30 15209 H 1380.04 -0.551354 0.382427 0
M  V30 15210 H 1382.58 -1.23169 1.63247 0
M  V30 15211 H 1380.74 -3.67925 1.21285 0
M  V30 15212 H 1381.15 -3.9898 3.40464 0
M  V30 15213 H 1382.63 -5.1025 2.10592 0
M  V30 15214 H 1383.1 -4.35296 0.584275 0
M  V30 15215 H 1383.71 -3.68782 2.1185 0
M  V30 15216 N 1382.02 -1.04567 -1.17913 0
M  V30 15217 C 1383.25 -0.772204 -1.9195 0
M  V30 15218 C 1383.67 0.671303 -1.76462 0
M  V30 15219 O 1383.02 1.45805 -1.0976 0
M  V30 15220 C 1383.07 -1.13539 -3.43207 0
M  V30 15221 O 1382.8 -2.52223 -3.58211 0
M  V30 15222 C 1384.3 -0.887146 -4.34332 0
M  V30 15223 H 1381.52 -0.281234 -0.609219 0
M  V30 15224 H 1384.06 -1.39467 -1.49563 0
M  V30 15225 H 1382.22 -0.557784 -3.83363 0
M  V30 15226 H 1382.63 -2.66275 -4.51882 0
M  V30 15227 H 1384.1 -1.19107 -5.38997 0
M  V30 15228 H 1384.58 0.1779 -4.3884 0
M  V30 15229 H 1385.19 -1.44829 -3.99881 0
M  V30 15230 N 1383.5 1.34231 -0.825823 0
M  V30 15231 C 1384.43 2.28261 -0.207234 0
M  V30 15232 C 1385.45 1.51159 0.604554 0
M  V30 15233 O 1386.64 1.7315 0.43376 0
M  V30 15234 C 1383.74 3.30991 0.727868 0
M  V30 15235 C 1382.91 4.3738 -0.0417267 0
M  V30 15236 C 1381.97 5.19854 0.81474 0
M  V30 15237 O 1380.99 5.68612 0.25867 0
M  V30 15238 N 1382.2 5.39849 2.1341 0
M  V30 15239 H 1384.96 2.81986 -1.0151 0
M  V30 15240 H 1382.52 1.46785 -0.683056 0
M  V30 15241 H 1384.51 3.83065 1.3055 0
M  V30 15242 H 1383.08 2.7764 1.43647 0
M  V30 15243 H 1382.3 3.85983 -0.800686 0
M  V30 15244 H 1383.59 5.05581 -0.571395 0
M  V30 15245 H 1382.99 5.01914 2.60958 0
M  V30 15246 H 1381.55 5.95029 2.66052 0
M  V30 15247 N 1384.98 0.581051 1.46498 0
M  V30 15248 C 1385.93 -0.165944 2.32007 0
M  V30 15249 C 1386.92 -0.886015 1.44382 0
M  V30 15250 O 1388.13 -0.804592 1.61017 0
M  V30 15251 H 1384.5 -0.0723834 0.748508 0
M  V30 15252 H 1386.47 0.574089 2.92826 0
M  V30 15253 C 1385.22 -1.16741 3.27516 0
M  V30 15254 H 1384.55 -0.622756 3.9492 0
M  V30 15255 H 1385.99 -1.66052 3.90132 0
M  V30 15256 C 1384.44 -2.22755 2.52749 0
M  V30 15257 O 1384.97 -3.30081 2.28932 0
M  V30 15258 N 1383.18 -1.97318 2.1334 0
M  V30 15259 H 1382.73 -1.10049 2.3291 0
M  V30 15260 H 1382.69 -2.68461 1.63633 0
M  V30 15261 N 1386.46 -1.54343 0.318742 0
M  V30 15262 C 1387.69 -2.04894 -0.287378 0
M  V30 15263 C 1388.1 -1.19514 -1.46157 0
M  V30 15264 O 1387.46 -0.224722 -1.81111 0
M  V30 15265 C 1387.51 -3.54124 -0.726505 0
M  V30 15266 O 1387.23 -4.36261 0.400968 0
M  V30 15267 C 1388.73 -4.20748 -1.39594 0
M  V30 15268 H 1385.95 -0.668323 -0.0598724 0
M  V30 15269 H 1388.49 -1.99177 0.463531 0
M  V30 15270 H 1386.65 -3.60145 -1.4274 0
M  V30 15271 H 1387.06 -5.2447 0.0558714 0
M  V30 15272 H 1388.54 -5.26632 -1.65418 0
M  V30 15273 H 1389.01 -3.71566 -2.3417 0
M  V30 15274 H 1389.62 -4.18852 -0.737749 0
M  V30 15275 N 1387.94 -0.0468143 -1.5753 0
M  V30 15276 C 1389.18 0.626699 -1.92138 0
M  V30 15277 C 1389.5 1.7164 -0.925463 0
M  V30 15278 O 1388.77 1.95876 0.0303531 0
M  V30 15279 H 1387.35 0.234479 -0.709245 0
M  V30 15280 H 1390.02 -0.0987892 -1.94649 0
M  V30 15281 H 1389.11 1.06811 -2.93254 0
M  V30 15282 N 1389.41 1.55964 0.226527 0
M  V30 15283 C 1390.64 1.82558 0.967269 0
M  V30 15284 C 1391.05 0.623034 1.78647 0
M  V30 15285 O 1390.4 -0.41779 1.78886 0
M  V30 15286 C 1390.46 3.02812 1.93766 0
M  V30 15287 C 1390.12 4.38017 1.30345 0
M  V30 15288 C 1391.12 5.15223 0.695793 0
M  V30 15289 C 1388.8 4.84735 1.31671 0
M  V30 15290 C 1390.8 6.37305 0.109849 0
M  V30 15291 C 1388.48 6.06761 0.726919 0
M  V30 15292 C 1389.48 6.82886 0.124537 0
M  V30 15293 O 1389.17 8.02605 -0.45609 0
M  V30 15294 H 1388.9 0.610967 0.289301 0
M  V30 15295 H 1391.46 2.03892 0.248407 0
M  V30 15296 H 1389.69 2.77283 2.69538 0
M  V30 15297 H 1391.38 3.16321 2.54353 0
M  V30 15298 H 1392.14 4.80239 0.677912 0
M  V30 15299 H 1388.02 4.2546 1.77496 0
M  V30 15300 H 1391.56 6.96666 -0.360953 0
M  V30 15301 H 1387.46 6.41219 0.742196 0
M  V30 15302 H 1388.23 8.17752 -0.349926 0
M  V30 15303 N 1390.89 -0.493031 1.4969 0
M  V30 15304 C 1392.12 -1.27517 1.63567 0
M  V30 15305 C 1392.54 -1.85526 0.310105 0
M  V30 15306 O 1391.9 -1.66246 -0.723314 0
M  V30 15307 C 1391.95 -2.37551 2.71296 0
M  V30 15308 O 1391.05 -3.41617 2.31023 0
M  V30 15309 H 1390.39 -0.376116 0.547205 0
M  V30 15310 H 1392.92 -0.589328 1.95929 0
M  V30 15311 H 1392.93 -2.83196 2.93708 0
M  V30 15312 H 1391.61 -1.94697 3.67513 0
M  V30 15313 H 1390.19 -3.01836 2.18974 0
M  V30 15314 N 1392.37 -1.38898 -0.744656 0
M  V30 15315 C 1393.6 -1.3903 -1.53901 0
M  V30 15316 C 1394.02 0.0156607 -1.88093 0
M  V30 15317 O 1393.38 1.00012 -1.51219 0
M  V30 15318 C 1393.43 -2.2609 -2.80919 0
M  V30 15319 O 1392.53 -1.68414 -3.76444 0
M  V30 15320 H 1391.87 -0.473854 -0.465144 0
M  V30 15321 H 1394.4 -1.82773 -0.919525 0
M  V30 15322 H 1394.41 -2.40264 -3.29754 0
M  V30 15323 H 1393.09 -3.28271 -2.55364 0
M  V30 15324 H 1391.66 -1.63431 -3.35179 0
M  V30 15325 N 1393.85 0.973806 -1.23914 0
M  V30 15326 C 1395.1 1.71259 -1.07307 0
M  V30 15327 C 1395.42 1.91064 0.389831 0
M  V30 15328 O 1394.69 1.48401 1.27883 0
M  V30 15329 H 1393.27 0.634588 -0.39409 0
M  V30 15330 H 1395.93 1.17184 -1.55737 0
M  V30 15331 H 1395.03 2.69953 -1.56626 0
M  V30 15332 N 1395.33 1.05191 1.17357 0
M  V30 15333 C 1396.55 0.782373 1.91537 0
M  V30 15334 C 1396.97 -0.661935 1.76816 0
M  V30 15335 O 1396.33 -1.45221 1.10531 0
M  V30 15336 C 1396.38 1.15357 3.426 0
M  V30 15337 O 1396.1 2.54119 3.56869 0
M  V30 15338 C 1397.6 0.910167 4.33856 0
M  V30 15339 H 1394.82 0.284461 0.607719 0
M  V30 15340 H 1397.36 1.40259 1.48821 0
M  V30 15341 H 1395.52 0.578107 3.83062 0
M  V30 15342 H 1395.93 2.68668 4.50464 0
M  V30 15343 H 1397.41 1.21964 5.38358 0
M  V30 15344 H 1397.88 -0.154624 4.38928 0
M  V30 15345 H 1398.49 1.46947 3.99107 0
M  V30 15346 N 1396.8 -1.33791 0.83293 0
M  V30 15347 C 1397.74 -2.28148 0.219336 0
M  V30 15348 C 1398.75 -1.51477 -0.596529 0
M  V30 15349 O 1399.94 -1.73377 -0.424571 0
M  V30 15350 C 1397.04 -3.31373 -0.710305 0
M  V30 15351 C 1396.21 -4.37352 0.0649215 0
M  V30 15352 C 1395.27 -5.20279 -0.78716 0
M  V30 15353 O 1394.3 -5.68741 -0.228511 0
M  V30 15354 N 1395.5 -5.40973 -2.10544 0
M  V30 15355 H 1398.26 -2.81443 1.03004 0
M  V30 15356 H 1395.82 -1.46421 0.690831 0
M  V30 15357 H 1397.82 -3.83752 -1.28517 0
M  V30 15358 H 1396.39 -2.78398 -1.42173 0
M  V30 15359 H 1395.61 -3.85553 0.821144 0
M  V30 15360 H 1396.89 -5.05271 0.598199 0
M  V30 15361 H 1396.29 -5.03291 -2.58292 0
M  V30 15362 H 1394.85 -5.96432 -2.62893 0
M  V30 15363 N 1398.28 -0.588812 -1.46187 0
M  V30 15364 C 1399.23 0.153638 -2.32092 0
M  V30 15365 C 1400.22 0.878346 -1.4485 0
M  V30 15366 O 1401.43 0.796042 -1.61441 0
M  V30 15367 H 1397.81 0.0684129 -0.748882 0
M  V30 15368 H 1399.78 -0.58961 -2.92517 0
M  V30 15369 C 1398.53 1.15003 -3.28131 0
M  V30 15370 H 1397.85 0.601804 -3.95245 0
M  V30 15371 H 1399.29 1.6398 -3.91007 0
M  V30 15372 C 1397.75 2.21411 -2.53926 0
M  V30 15373 O 1398.28 3.28862 -2.30679 0
M  V30 15374 N 1396.48 1.96184 -2.14383 0
M  V30 15375 H 1396.03 1.08812 -2.3349 0
M  V30 15376 H 1395.99 2.6759 -1.65055 0
M  V30 15377 N 1399.76 1.54172 -0.326923 0
M  V30 15378 C 1400.72 2.2311 0.524855 0
M  V30 15379 C 1401.72 1.22567 1.04087 0
M  V30 15380 O 1402.91 1.47123 0.932759 0
M  V30 15381 C 1400.05 2.93778 1.72937 0
M  V30 15382 H 1401.24 2.99799 -0.0778327 0
M  V30 15383 H 1398.79 1.56105 -0.0780484 0
M  V30 15384 H 1399.53 2.21234 2.3712 0
M  V30 15385 H 1399.31 3.67509 1.36674 0
M  V30 15386 H 1400.8 3.46292 2.33392 0
M  V30 15387 N 1401.24 0.0551678 1.57503 0
M  V30 15388 C 1402.19 -0.935665 2.12951 0
M  V30 15389 C 1403.18 -1.31954 1.06229 0
M  V30 15390 O 1404.39 -1.29873 1.24632 0
M  V30 15391 H 1400.76 -0.319618 0.680697 0
M  V30 15392 H 1402.73 -0.442937 2.95094 0
M  V30 15393 C 1401.48 -2.19977 2.69268 0
M  V30 15394 H 1400.8 -1.91319 3.51051 0
M  V30 15395 H 1402.24 -2.87456 3.11681 0
M  V30 15396 C 1400.7 -2.94714 1.63233 0
M  V30 15397 O 1401.23 -3.87803 1.04747 0
M  V30 15398 N 1399.44 -2.57518 1.34659 0
M  V30 15399 H 1398.99 -1.81894 1.82407 0
M  V30 15400 H 1398.94 -3.07829 0.639425 0
M  V30 15401 N 1402.72 -1.56081 -0.218252 0
M  V30 15402 C 1403.95 -1.83069 -0.957574 0
M  V30 15403 C 1404.35 -0.6325 -1.78315 0
M  V30 15404 O 1403.7 0.408298 -1.79105 0
M  V30 15405 C 1403.76 -3.03835 -1.92157 0
M  V30 15406 C 1403.42 -4.38702 -1.2802 0
M  V30 15407 C 1404.42 -5.15585 -0.66846 0
M  V30 15408 C 1402.11 -4.85427 -1.29098 0
M  V30 15409 C 1404.1 -6.37355 -0.0760499 0
M  V30 15410 C 1401.79 -6.07138 -0.69473 0
M  V30 15411 C 1402.78 -6.82943 -0.0883201 0
M  V30 15412 O 1402.47 -8.02352 0.498648 0
M  V30 15413 H 1402.2 -0.612493 -0.286057 0
M  V30 15414 H 1404.76 -2.04021 -0.23759 0
M  V30 15415 H 1402.99 -2.78709 -2.68064 0
M  V30 15416 H 1404.68 -3.17666 -2.52672 0
M  V30 15417 H 1405.44 -4.80592 -0.652434 0
M  V30 15418 H 1401.32 -4.26395 -1.75238 0
M  V30 15419 H 1404.87 -6.96464 0.397893 0
M  V30 15420 H 1400.76 -6.41604 -0.70818 0
M  V30 15421 H 1401.53 -8.17555 0.393289 0
M  V30 15422 N 1404.2 0.485086 -1.49949 0
M  V30 15423 C 1405.61 1.06629 -1.53255 0
M  V30 15424 C 1405.96 1.9344 -0.327915 0
M  V30 15425 O 1405.08 2.09011 0.560669 0
M  V30 15426 C 1405.68 1.94053 -2.77721 0
M  V30 15427 C 1404.24 2.47307 -2.83754 0
M  V30 15428 C 1403.38 1.25307 -2.47373 0
M  V30 15429 H 1406.33 0.268297 -1.56416 0
M  V30 15430 H 1406.36 2.78946 -2.58784 0
M  V30 15431 H 1405.87 1.30843 -3.65379 0
M  V30 15432 H 1403.97 3.1411 -2.00414 0
M  V30 15433 H 1404.08 2.83371 -3.86313 0
M  V30 15434 H 1402.45 1.5834 -1.99501 0
M  V30 15435 H 1403.23 0.637815 -3.37323 0
M  V30 15436 N 1405.67 1.39291 0.737279 0
M  V30 15437 C 1406.92 1.36592 1.49901 0
M  V30 15438 C 1407.25 -0.0388812 1.94161 0
M  V30 15439 O 1406.53 -1.00337 1.66622 0
M  V30 15440 C 1406.81 2.33625 2.74028 0
M  V30 15441 C 1406.66 3.83037 2.35802 0
M  V30 15442 C 1407.98 2.28524 3.76118 0
M  V30 15443 H 1405.1 0.497482 0.543765 0
M  V30 15444 H 1407.74 1.70265 0.843193 0
M  V30 15445 H 1405.89 2.0504 3.29986 0
M  V30 15446 H 1407.57 4.22363 1.85493 0
M  V30 15447 H 1405.81 3.99924 1.68058 0
M  V30 15448 H 1406.48 4.46415 3.24681 0
M  V30 15449 H 1408.96 2.53794 3.29739 0
M  V30 15450 H 1407.83 2.98501 4.60639 0
M  V30 15451 H 1408.09 1.28949 4.22876 0
M  V30 15452 N 1407.15 -0.967221 1.24429 0
M  V30 15453 C 1408.57 -1.23594 1.00979 0
M  V30 15454 C 1408.77 -1.99529 -0.281112 0
M  V30 15455 O 1407.82 -2.31977 -0.997139 0
M  V30 15456 C 1409.14 -2.02261 2.22511 0
M  V30 15457 C 1410.68 -2.15352 2.2714 0
M  V30 15458 C 1411.16 -2.97414 3.48294 0
M  V30 15459 N 1412.65 -3.04996 3.48614 0
M  V30 15460 C 1413.39 -3.68851 4.39017 0
M  V30 15461 N 1412.88 -4.34421 5.39676 0
M  V30 15462 N 1414.67 -3.65868 4.26728 0
M  V30 15463 H 1406.83 -0.458881 2.07384 0
M  V30 15464 H 1409.09 -0.265411 0.910088 0
M  V30 15465 H 1408.79 -1.53852 3.16263 0
M  V30 15466 H 1408.67 -3.02993 2.24667 0
M  V30 15467 H 1411.06 -2.62964 1.33919 0
M  V30 15468 H 1411.14 -1.13966 2.2901 0
M  V30 15469 H 1410.78 -2.50495 4.41831 0
M  V30 15470 H 1410.71 -3.98998 3.43668 0
M  V30 15471 H 1413.2 -2.58354 2.75793 0
M  V30 15472 H 1413.51 -4.80965 6.04891 0
M  V30 15473 H 1411.86 -4.33089 5.43562 0
M  V30 15474 H 1415.05 -3.13819 3.47325 0
M  V30 15475 H 1415.22 -4.15349 4.97382 0
M  V30 15476 N 1408.63 -1.05812 -1.16797 0
M  V30 15477 C 1409.59 -0.668766 -2.19226 0
M  V30 15478 C 1410.59 0.28299 -1.5829 0
M  V30 15479 O 1411.78 0.0660233 -1.74075 0
M  V30 15480 C 1408.91 0.0167379 -3.40896 0
M  V30 15481 H 1410.11 -1.57543 -2.55187 0
M  V30 15482 H 1407.66 -0.852753 -1.30988 0
M  V30 15483 H 1408.4 0.936382 -3.10487 0
M  V30 15484 H 1408.18 -0.667576 -3.86375 0
M  V30 15485 H 1409.67 0.275041 -4.16693 0
M  V30 15486 N 1410.11 1.33347 -0.840014 0
M  V30 15487 C 1411.07 2.27492 -0.279264 0
M  V30 15488 C 1412.07 1.51004 0.552669 0
M  V30 15489 O 1413.26 1.70305 0.366295 0
M  V30 15490 C 1410.39 3.35462 0.606466 0
M  V30 15491 H 1411.59 2.78601 -1.11001 0
M  V30 15492 H 1409.14 1.4377 -0.613187 0
M  V30 15493 H 1409.87 2.89596 1.45961 0
M  V30 15494 H 1409.66 3.92098 0.0111889 0
M  V30 15495 H 1411.15 4.05645 0.992052 0
M  V30 15496 N 1411.59 0.596556 1.45873 0
M  V30 15497 C 1413 0.173758 1.8589 0
M  V30 15498 C 1413.35 -1.26665 1.49835 0
M  V30 15499 O 1412.47 -1.9588 0.919773 0
M  V30 15500 C 1413.07 0.308567 3.37392 0
M  V30 15501 C 1411.63 -0.0594585 3.76353 0
M  V30 15502 C 1410.77 0.638127 2.69858 0
M  V30 15503 H 1413.72 0.803928 1.36831 0
M  V30 15504 H 1413.75 -0.462294 3.77681 0
M  V30 15505 H 1413.26 1.35701 3.63603 0
M  V30 15506 H 1411.36 -1.1075 3.5576 0
M  V30 15507 H 1411.47 0.326506 4.77986 0
M  V30 15508 H 1409.84 0.0769147 2.54584 0
M  V30 15509 H 1410.62 1.68849 2.98906 0
M  V30 15510 N 1413.06 -1.53996 0.335095 0
M  V30 15511 C 1414.47 -1.86092 -0.15058 0
M  V30 15512 C 1414.83 -1.25652 -1.50685 0
M  V30 15513 O 1413.95 -0.566887 -2.08843 0
M  V30 15514 C 1414.55 -3.37641 -0.280007 0
M  V30 15515 C 1413.1 -3.69645 -0.709907 0
M  V30 15516 C 1412.25 -2.7683 0.161461 0
M  V30 15517 H 1415.2 -1.4868 0.554986 0
M  V30 15518 H 1415.22 -3.63981 -1.10896 0
M  V30 15519 H 1414.74 -3.81601 0.707254 0
M  V30 15520 H 1412.84 -3.31224 -1.7065 0
M  V30 15521 H 1412.95 -4.76424 -0.505661 0
M  V30 15522 H 1411.31 -2.52073 -0.364849 0
M  V30 15523 H 1412.1 -3.23618 1.1457 0
M  V30 15524 N 1414.54 -0.0635198 -1.57472 0
M  V30 15525 C 1415.95 0.470372 -1.80678 0
M  V30 15526 C 1416.3 1.70158 -0.976771 0
M  V30 15527 O 1415.43 2.15502 -0.196893 0
M  V30 15528 C 1416.02 0.860129 -3.277 0
M  V30 15529 C 1414.58 1.33893 -3.51781 0
M  V30 15530 C 1413.73 0.320078 -2.75447 0
M  V30 15531 H 1416.68 -0.289295 -1.56041 0
M  V30 15532 H 1416.7 1.72216 -3.39296 0
M  V30 15533 H 1416.21 -0.0361525 -3.88083 0
M  V30 15534 H 1414.31 2.25399 -2.96692 0
M  V30 15535 H 1414.43 1.32257 -4.60483 0
M  V30 15536 H 1412.79 0.795601 -2.41955 0
M  V30 15537 H 1413.57 -0.568332 -3.38563 0
M  V30 15538 N 1416.02 1.56195 0.209972 0
M  V30 15539 C 1417.43 1.69811 0.775969 0
M  V30 15540 C 1417.78 0.667543 1.84495 0
M  V30 15541 O 1416.91 -0.179043 2.15658 0
M  V30 15542 C 1417.5 3.07869 1.41429 0
M  V30 15543 C 1416.06 3.233 1.92755 0
M  V30 15544 C 1415.21 2.6575 0.791958 0
M  V30 15545 H 1418.16 1.58693 -0.0148727 0
M  V30 15546 H 1418.18 3.04371 2.28339 0
M  V30 15547 H 1417.69 3.82853 0.63604 0
M  V30 15548 H 1415.79 2.53206 2.73345 0
M  V30 15549 H 1415.91 4.30645 2.09956 0
M  V30 15550 H 1414.27 2.24535 1.20234 0
M  V30 15551 H 1415.05 3.4329 0.0261877 0
M  V30 15552 N 1417.5 -0.477127 1.50204 0
M  V30 15553 C 1418.75 -1.22722 1.60573 0
M  V30 15554 C 1419.07 -1.92595 0.305326 0
M  V30 15555 O 1418.34 -1.83836 -0.676842 0
M  V30 15556 H 1416.92 -0.455973 0.591691 0
M  V30 15557 H 1419.58 -0.550915 1.86952 0
M  V30 15558 H 1418.67 -1.97837 2.41385 0
M  V30 15559 N 1418.98 -1.3968 -0.729882 0
M  V30 15560 C 1420.21 -1.40263 -1.5169 0
M  V30 15561 C 1420.61 0.00325293 -1.892 0
M  V30 15562 O 1419.96 0.986225 -1.54982 0
M  V30 15563 C 1420.02 -2.21629 -2.83056 0
M  V30 15564 C 1419.68 -3.70204 -2.67951 0
M  V30 15565 C 1420.68 -4.63169 -2.36158 0
M  V30 15566 C 1418.37 -4.13851 -2.84662 0
M  V30 15567 C 1420.36 -5.97763 -2.21265 0
M  V30 15568 C 1418.05 -5.4852 -2.69387 0
M  V30 15569 C 1419.04 -6.4029 -2.37734 0
M  V30 15570 O 1418.73 -7.72478 -2.22561 0
M  V30 15571 H 1418.46 -0.480808 -0.475184 0
M  V30 15572 H 1421.02 -1.84184 -0.909136 0
M  V30 15573 H 1419.25 -1.72465 -3.46111 0
M  V30 15574 H 1420.94 -2.14328 -3.447 0
M  V30 15575 H 1421.7 -4.30748 -2.22893 0
M  V30 15576 H 1417.58 -3.42751 -3.0829 0
M  V30 15577 H 1421.13 -6.69359 -1.96481 0
M  V30 15578 H 1417.02 -5.8053 -2.82232 0
M  V30 15579 H 1417.79 -7.83258 -2.37591 0
M  V30 15580 N 1420.45 0.960609 -1.2494 0
M  V30 15581 C 1421.4 2.04164 -1.01493 0
M  V30 15582 C 1422.39 1.60834 0.0461124 0
M  V30 15583 O 1423.58 1.76196 -0.168491 0
M  V30 15584 C 1420.71 3.37484 -0.629251 0
M  V30 15585 C 1419.8 3.87356 -1.72674 0
M  V30 15586 N 1420.19 4.10085 -2.9608 0
M  V30 15587 C 1418.48 4.16086 -1.60589 0
M  V30 15588 C 1419.19 4.51091 -3.67276 0
M  V30 15589 N 1418.16 4.56676 -2.9487 0
M  V30 15590 H 1421.96 2.19723 -1.95189 0
M  V30 15591 H 1419.48 1.14496 -1.15171 0
M  V30 15592 H 1421.47 4.14545 -0.442484 0
M  V30 15593 H 1420.13 3.23307 0.300446 0
M  V30 15594 H 1421.15 3.97331 -3.32187 0
M  V30 15595 H 1417.82 4.10804 -0.744725 0
M  V30 15596 H 1419.21 4.77031 -4.73172 0
M  V30 15597 N 1421.93 1.0643 1.16234 0
M  V30 15598 C 1422.86 0.634274 2.20249 0
M  V30 15599 C 1423.88 -0.308432 1.59852 0
M  V30 15600 O 1425.07 -0.0992067 1.78224 0
M  V30 15601 C 1422.17 -0.0901593 3.3878 0
M  V30 15602 C 1421.34 0.866379 4.28734 0
M  V30 15603 C 1420.4 0.180942 5.25889 0
M  V30 15604 O 1419.42 0.819034 5.63277 0
M  V30 15605 N 1420.63 -1.07698 5.70422 0
M  V30 15606 H 1423.39 1.52901 2.57762 0
M  V30 15607 H 1420.95 0.947789 1.31258 0
M  V30 15608 H 1422.94 -0.559147 4.00819 0
M  V30 15609 H 1421.51 -0.886715 2.9976 0
M  V30 15610 H 1420.73 1.51471 3.63937 0
M  V30 15611 H 1422.02 1.51524 4.85714 0
M  V30 15612 H 1421.42 -1.6155 5.42142 0
M  V30 15613 H 1419.98 -1.48981 6.34545 0
M  V30 15614 N 1423.41 -1.329 0.847073 0
M  V30 15615 C 1424.36 -2.3097 0.27487 0
M  V30 15616 C 1425.35 -1.58508 -0.597625 0
M  V30 15617 O 1426.56 -1.73307 -0.486273 0
M  V30 15618 H 1422.93 -0.748719 0.0701719 0
M  V30 15619 H 1424.9 -2.7673 1.11638 0
M  V30 15620 C 1423.65 -3.43662 -0.528363 0
M  V30 15621 H 1422.98 -3.99576 0.133707 0
M  V30 15622 H 1424.42 -4.14458 -0.894443 0
M  V30 15623 C 1422.88 -2.90244 -1.71055 0
M  V30 15624 O 1423.41 -2.87109 -2.80947 0
M  V30 15625 N 1421.61 -2.46743 -1.53512 0
M  V30 15626 H 1421.16 -2.49493 -0.641181 0
M  V30 15627 H 1421.12 -2.11356 -2.32757 0
M  V30 15628 N 1424.89 -0.604284 -1.45555 0
M  V30 15629 C 1426.14 -0.0979922 -2.01862 0
M  V30 15630 C 1426.46 1.27476 -1.47563 0
M  V30 15631 O 1425.73 1.84137 -0.668612 0
M  V30 15632 H 1424.31 -0.033235 -0.74626 0
M  V30 15633 H 1426.97 -0.784936 -1.78395 0
M  V30 15634 H 1426.07 -0.0452716 -3.12067 0
M  V30 15635 N 1426.37 1.53816 -0.343257 0
M  V30 15636 C 1427.61 2.01207 0.253721 0
M  V30 15637 C 1427.95 1.23069 1.50225 0
M  V30 15638 O 1427.22 0.31824 1.91879 0
M  V30 15639 C 1427.5 3.5559 0.56815 0
M  V30 15640 C 1427.36 4.44438 -0.692457 0
M  V30 15641 C 1428.68 4.17974 1.37788 0
M  V30 15642 H 1425.79 0.731392 0.0907427 0
M  V30 15643 H 1428.44 1.84254 -0.463736 0
M  V30 15644 H 1426.59 3.70166 1.17937 0
M  V30 15645 H 1428.26 4.41698 -1.33042 0
M  V30 15646 H 1426.5 4.13312 -1.3174 0
M  V30 15647 H 1427.17 5.5034 -0.427715 0
M  V30 15648 H 1429.65 4.07094 0.861043 0
M  V30 15649 H 1428.52 5.26068 1.56663 0
M  V30 15650 H 1428.79 3.72577 2.3799 0
M  V30 15651 N 1427.84 0.0718701 1.57436 0
M  V30 15652 C 1429.09 -0.596799 1.92669 0
M  V30 15653 C 1429.41 -1.70765 0.953876 0
M  V30 15654 O 1430.61 -2.43589 1.19903 0
M  V30 15655 C 1429.07 -1.11291 3.42261 0
M  V30 15656 C 1428.68 -0.0330681 4.47988 0
M  V30 15657 C 1430.42 -1.75564 3.86494 0
M  V30 15658 C 1428.33 -0.56323 5.88712 0
M  V30 15659 H 1427.26 -0.226695 0.719114 0
M  V30 15660 H 1429.91 0.144117 1.82933 0
M  V30 15661 H 1428.29 -1.9068 3.4707 0
M  V30 15662 H 1429.46 0.741501 4.54795 0
M  V30 15663 H 1427.78 0.513438 4.13222 0
M  V30 15664 H 1430.38 -2.16261 4.89014 0
M  V30 15665 H 1430.72 -2.61566 3.23865 0
M  V30 15666 H 1431.25 -1.02798 3.84288 0
M  V30 15667 H 1427.99 0.259632 6.54986 0
M  V30 15668 H 1427.51 -1.30532 5.85424 0
M  V30 15669 H 1429.19 -1.03961 6.38593 0
M  V30 15670 N 1429.32 -1.56304 -0.201686 0
M  V30 15671 C 1430.74 -1.49741 -0.552247 0
M  V30 15672 C 1430.94 -0.770683 -1.86179 0
M  V30 15673 O 1429.99 -0.318489 -2.50483 0
M  V30 15674 C 1431.31 -2.94384 -0.613083 0
M  V30 15675 C 1432.86 -3.05018 -0.702365 0
M  V30 15676 C 1433.33 -4.51058 -0.794371 0
M  V30 15677 N 1434.82 -4.55183 -0.858072 0
M  V30 15678 C 1435.56 -5.65487 -0.949317 0
M  V30 15679 N 1435.05 -6.85497 -1.00327 0
M  V30 15680 N 1436.85 -5.53385 -0.985995 0
M  V30 15681 H 1429 -2.01971 0.657394 0
M  V30 15682 H 1431.26 -0.918839 0.233322 0
M  V30 15683 H 1430.97 -3.50584 0.279921 0
M  V30 15684 H 1430.84 -3.47376 -1.47002 0
M  V30 15685 H 1433.23 -2.4887 -1.5858 0
M  V30 15686 H 1433.31 -2.55161 0.180636 0
M  V30 15687 H 1432.95 -5.07829 0.0846883 0
M  V30 15688 H 1432.88 -4.98641 -1.69308 0
M  V30 15689 H 1435.37 -3.68765 -0.825888 0
M  V30 15690 H 1435.69 -7.65312 -1.07322 0
M  V30 15691 H 1434.03 -6.88169 -0.972061 0
M  V30 15692 H 1437.22 -4.58552 -0.940635 0
M  V30 15693 H 1437.39 -6.39376 -1.05365 0
M  V30 15694 N 1430.8 0.469154 -1.50455 0
M  V30 15695 C 1431.75 1.58765 -1.6999 0
M  V30 15696 C 1432.74 1.59673 -0.56577 0
M  V30 15697 O 1433.95 1.63799 -0.74632 0
M  V30 15698 H 1430.32 0.526868 -0.536577 0
M  V30 15699 H 1432.29 1.39451 -2.6381 0
M  V30 15700 C 1431.04 2.9669 -1.81302 0
M  V30 15701 H 1430.37 2.96711 -2.67961 0
M  V30 15702 H 1431.81 3.74403 -1.98994 0
M  V30 15703 C 1430.27 3.32127 -0.565086 0
M  V30 15704 O 1430.8 4.00616 0.294873 0
M  V30 15705 N 1429 2.8757 -0.418537 0
M  V30 15706 H 1428.55 2.32008 -1.11938 0
M  V30 15707 H 1428.51 3.11645 0.415276 0
M  V30 15708 N 1432.28 1.40065 0.722464 0
M  V30 15709 C 1433.21 1.35695 1.84715 0
M  V30 15710 C 1434.22 0.263522 1.60653 0
M  V30 15711 O 1435.41 0.523382 1.70655 0
M  V30 15712 C 1432.51 1.08722 3.20987 0
M  V30 15713 C 1431.69 2.29586 3.72302 0
M  V30 15714 C 1430.74 1.98879 4.87169 0
M  V30 15715 O 1429.77 2.71681 5.00178 0
M  V30 15716 N 1430.97 0.962554 5.72464 0
M  V30 15717 H 1433.74 2.32621 1.88964 0
M  V30 15718 H 1431.3 1.3433 0.903723 0
M  V30 15719 H 1433.29 0.861772 3.95418 0
M  V30 15720 H 1431.86 0.204869 3.11928 0
M  V30 15721 H 1431.08 2.68004 2.8908 0
M  V30 15722 H 1432.37 3.10176 4.03322 0
M  V30 15723 H 1431.77 0.359452 5.64557 0
M  V30 15724 H 1430.32 0.797003 6.46909 0
M  V30 15725 N 1433.76 -0.95397 1.25448 0
M  V30 15726 C 1434.99 -1.7308 1.12814 0
M  V30 15727 C 1435.4 -1.86461 -0.320764 0
M  V30 15728 O 1434.74 -1.3623 -1.23236 0
M  V30 15729 C 1434.8 -3.16239 1.70976 0
M  V30 15730 C 1434.46 -3.26286 3.19979 0
M  V30 15731 C 1435.46 -3.10547 4.16961 0
M  V30 15732 C 1433.15 -3.50085 3.60202 0
M  V30 15733 C 1435.14 -3.18456 5.52146 0
M  V30 15734 C 1432.83 -3.5763 4.95524 0
M  V30 15735 C 1433.83 -3.4183 5.91305 0
M  V30 15736 O 1433.51 -3.49058 7.24164 0
M  V30 15737 H 1433.25 -0.549143 0.394231 0
M  V30 15738 H 1435.8 -1.20538 1.66312 0
M  V30 15739 H 1434.03 -3.70148 1.11926 0
M  V30 15740 H 1435.72 -3.75784 1.53432 0
M  V30 15741 H 1436.48 -2.92029 3.87226 0
M  V30 15742 H 1432.36 -3.61445 2.86145 0
M  V30 15743 H 1435.91 -3.0604 6.26885 0
M  V30 15744 H 1431.8 -3.75665 5.24925 0
M  V30 15745 H 1432.57 -3.65684 7.32269 0
M  V30 15746 N 1435.24 -1.07045 -1.15668 0
M  V30 15747 C 1436.48 -0.792908 -1.86657 0
M  V30 15748 C 1436.81 0.679213 -1.81935 0
M  V30 15749 O 1436.09 1.49822 -1.2403 0
M  V30 15750 C 1436.37 -1.2978 -3.35901 0
M  V30 15751 C 1436.23 -2.83424 -3.49272 0
M  V30 15752 C 1437.54 -0.911821 -4.30551 0
M  V30 15753 H 1434.66 -0.289509 -0.677756 0
M  V30 15754 H 1437.31 -1.32769 -1.35913 0
M  V30 15755 H 1435.46 -0.84288 -3.79246 0
M  V30 15756 H 1437.13 -3.37182 -3.14811 0
M  V30 15757 H 1435.37 -3.21777 -2.90933 0
M  V30 15758 H 1436.04 -3.13819 -4.54116 0
M  V30 15759 H 1438.52 -1.30376 -3.95147 0
M  V30 15760 H 1437.39 -1.29247 -5.33467 0
M  V30 15761 H 1437.65 0.18255 -4.41723 0
M  V30 15762 N 1436.71 1.32449 -0.85411 0
M  V30 15763 C 1438.12 1.79545 -0.511923 0
M  V30 15764 C 1438.48 1.70534 0.970188 0
M  V30 15765 O 1437.6 1.2636 1.75676 0
M  V30 15766 C 1438.2 3.26 -0.922456 0
M  V30 15767 C 1436.75 3.71053 -0.632176 0
M  V30 15768 C 1435.9 2.53565 -1.12249 0
M  V30 15769 H 1438.85 1.19755 -1.04137 0
M  V30 15770 H 1438.87 3.79751 -0.238618 0
M  V30 15771 H 1438.39 3.32526 -2.00119 0
M  V30 15772 H 1436.49 3.70042 0.435862 0
M  V30 15773 H 1436.6 4.63878 -1.19809 0
M  V30 15774 H 1434.96 2.48849 -0.542781 0
M  V30 15775 H 1435.75 2.62846 -2.20832 0
M  V30 15776 N 1438.19 0.611994 1.45232 0
M  V30 15777 C 1439.42 0.115242 2.06278 0
M  V30 15778 C 1439.83 -1.20752 1.45656 0
M  V30 15779 O 1439.17 -1.7474 0.566697 0
M  V30 15780 C 1439.23 -0.0941449 3.59377 0
M  V30 15781 C 1438.9 1.1475 4.42359 0
M  V30 15782 C 1439.9 2.06669 4.77058 0
M  V30 15783 C 1437.58 1.37756 4.83041 0
M  V30 15784 C 1439.57 3.19919 5.51299 0
M  V30 15785 C 1437.26 2.51306 5.57035 0
M  V30 15786 C 1438.26 3.42216 5.91082 0
M  V30 15787 O 1437.95 4.5379 6.63574 0
M  V30 15788 H 1437.68 0.0680317 0.672568 0
M  V30 15789 H 1440.23 0.840932 1.87397 0
M  V30 15790 H 1438.46 -0.874775 3.76676 0
M  V30 15791 H 1440.15 -0.543047 4.02251 0
M  V30 15792 H 1440.92 1.90122 4.46182 0
M  V30 15793 H 1436.8 0.678922 4.55973 0
M  V30 15794 H 1440.34 3.90901 5.77791 0
M  V30 15795 H 1436.24 2.67804 5.87325 0
M  V30 15796 H 1437.01 4.52527 6.82027 0
M  V30 15797 N 1439.67 -1.53632 0.351409 0
M  V30 15798 C 1441.08 -1.86241 -0.130834 0
M  V30 15799 C 1441.43 -1.27243 -1.49344 0
M  V30 15800 O 1440.56 -0.589006 -2.0823 0
M  V30 15801 C 1441.15 -3.37919 -0.244179 0
M  V30 15802 C 1439.71 -3.70377 -0.670662 0
M  V30 15803 C 1438.86 -2.76643 0.190813 0
M  V30 15804 H 1441.81 -1.48083 0.570724 0
M  V30 15805 H 1441.83 -3.65137 -1.07029 0
M  V30 15806 H 1441.34 -3.8083 0.747688 0
M  V30 15807 H 1439.44 -3.33015 -1.67127 0
M  V30 15808 H 1439.56 -4.76934 -0.455102 0
M  V30 15809 H 1437.92 -2.52446 -0.338092 0
M  V30 15810 H 1438.7 -3.22385 1.17996 0
M  V30 15811 N 1441.15 -0.0802183 -1.57396 0
M  V30 15812 C 1442.1 0.894334 -2.09728 0
M  V30 15813 C 1443.08 1.25342 -1.00887 0
M  V30 15814 O 1444.27 1.23099 -1.27184 0
M  V30 15815 C 1441.4 2.15885 -2.66924 0
M  V30 15816 C 1440.49 1.82587 -3.82783 0
M  V30 15817 N 1440.88 1.19777 -4.91413 0
M  V30 15818 C 1439.18 2.12287 -3.92237 0
M  V30 15819 C 1439.88 1.04758 -5.72189 0
M  V30 15820 N 1438.85 1.56005 -5.20733 0
M  V30 15821 H 1442.66 0.404523 -2.91103 0
M  V30 15822 H 1440.17 0.123432 -1.6193 0
M  V30 15823 H 1442.17 2.8663 -3.02736 0
M  V30 15824 H 1440.83 2.65446 -1.86998 0
M  V30 15825 H 1441.84 0.866384 -5.10602 0
M  V30 15826 H 1438.52 2.64166 -3.23299 0
M  V30 15827 H 1439.91 0.55756 -6.69583 0
M  V30 15828 N 1442.63 1.56409 0.193394 0
M  V30 15829 C 1443.59 1.93822 1.22334 0
M  V30 15830 C 1444.59 0.819513 1.3835 0
M  V30 15831 O 1445.78 1.0869 1.36132 0
M  V30 15832 C 1442.91 2.21375 2.59241 0
M  V30 15833 H 1444.1 2.85967 0.903502 0
M  V30 15834 H 1441.66 1.50125 0.43498 0
M  V30 15835 H 1442.39 1.31874 2.96277 0
M  V30 15836 H 1442.18 3.02899 2.48988 0
M  V30 15837 H 1443.67 2.51319 3.33509 0
M  V30 15838 N 1444.1 -0.461169 1.50702 0
M  V30 15839 C 1445.51 -1.04177 1.54932 0
M  V30 15840 C 1445.87 -1.92894 0.358648 0
M  V30 15841 O 1444.99 -2.09876 -0.527346 0
M  V30 15842 C 1445.59 -1.8961 2.80773 0
M  V30 15843 C 1444.14 -2.42761 2.87652 0
M  V30 15844 C 1443.29 -1.21356 2.49335 0
M  V30 15845 H 1446.24 -0.243379 1.56823 0
M  V30 15846 H 1446.26 -2.74794 2.63189 0
M  V30 15847 H 1445.78 -1.25014 3.67414 0
M  V30 15848 H 1443.88 -3.10881 2.05386 0
M  V30 15849 H 1443.99 -2.77189 3.90772 0
M  V30 15850 H 1442.35 -1.55146 2.01995 0
M  V30 15851 H 1443.14 -0.584069 3.38295 0
M  V30 15852 N 1445.58 -1.40446 -0.715026 0
M  V30 15853 C 1446.83 -1.3848 -1.47199 0
M  V30 15854 C 1447.15 0.0119198 -1.94996 0
M  V30 15855 O 1446.42 0.966772 -1.70383 0
M  V30 15856 H 1445 -0.509669 -0.54612 0
M  V30 15857 H 1447.66 -1.75505 -0.847588 0
M  V30 15858 H 1446.76 -2.06002 -2.34456 0
M  V30 15859 N 1447.06 0.947303 -1.25952 0
M  V30 15860 C 1448.28 1.73261 -1.13997 0
M  V30 15861 C 1448.71 1.85666 0.301639 0
M  V30 15862 O 1448.07 1.34244 1.21854 0
M  V30 15863 C 1448.12 3.12046 -1.8072 0
M  V30 15864 O 1447.22 3.97684 -1.09182 0
M  V30 15865 H 1446.56 0.53182 -0.397572 0
M  V30 15866 H 1449.09 1.18689 -1.66656 0
M  V30 15867 H 1449.1 3.62468 -1.87299 0
M  V30 15868 H 1447.78 3.02334 -2.856 0
M  V30 15869 H 1446.35 3.56141 -1.10536 0
M  V30 15870 N 1448.54 1.07657 1.15099 0
M  V30 15871 C 1449.47 0.657598 2.19564 0
M  V30 15872 C 1450.48 -0.29146 1.6017 0
M  V30 15873 O 1451.67 -0.0802981 1.78319 0
M  V30 15874 C 1448.77 -0.0542221 3.38857 0
M  V30 15875 C 1447.95 0.911803 4.27791 0
M  V30 15876 C 1447 0.236709 5.25667 0
M  V30 15877 O 1446.03 0.878731 5.62376 0
M  V30 15878 N 1447.23 -1.01641 5.71532 0
M  V30 15879 H 1450 1.55626 2.56126 0
M  V30 15880 H 1447.56 0.961657 1.30245 0
M  V30 15881 H 1449.55 -0.516603 4.01389 0
M  V30 15882 H 1448.12 -0.854871 3.00684 0
M  V30 15883 H 1447.34 1.55322 3.6231 0
M  V30 15884 H 1448.63 1.56667 4.8408 0
M  V30 15885 H 1448.03 -1.55791 5.43825 0
M  V30 15886 H 1446.58 -1.42242 6.3609 0
M  V30 15887 N 1450.02 -1.31994 0.861122 0
M  V30 15888 C 1451.43 -1.49756 0.551844 0
M  V30 15889 C 1451.63 -1.79473 -0.916056 0
M  V30 15890 O 1450.69 -1.86813 -1.69874 0
M  V30 15891 C 1452 -2.63737 1.44442 0
M  V30 15892 C 1453.55 -2.77621 1.44552 0
M  V30 15893 C 1454.02 -3.94689 2.32346 0
M  V30 15894 N 1455.52 -4.01961 2.30177 0
M  V30 15895 C 1456.25 -4.91794 2.94833 0
M  V30 15896 N 1455.75 -5.86589 3.68626 0
M  V30 15897 N 1457.54 -4.84968 2.84188 0
M  V30 15898 H 1449.69 -1.10972 1.81105 0
M  V30 15899 H 1451.95 -0.54753 0.773896 0
M  V30 15900 H 1451.66 -2.48526 2.48853 0
M  V30 15901 H 1451.53 -3.59671 1.13651 0
M  V30 15902 H 1453.92 -2.92251 0.409034 0
M  V30 15903 H 1454 -1.8238 1.79363 0
M  V30 15904 H 1453.65 -3.80817 3.36067 0
M  V30 15905 H 1453.58 -4.89219 1.94865 0
M  V30 15906 H 1456.07 -3.34132 1.76533 0
M  V30 15907 H 1456.38 -6.51846 4.15111 0
M  V30 15908 H 1454.72 -5.86596 3.72734 0
M  V30 15909 H 1457.92 -4.09883 2.26084 0
M  V30 15910 H 1458.09 -5.54774 3.34857 0
M  V30 15911 N 1451.49 -0.619688 -1.44906 0
M  V30 15912 C 1452.72 -0.124598 -2.07025 0
M  V30 15913 C 1453.14 1.18698 -1.45919 0
M  V30 15914 O 1452.5 1.72552 -0.556366 0
M  V30 15915 C 1452.55 -0.0112238 -3.60598 0
M  V30 15916 O 1451.65 1.03582 -3.9918 0
M  V30 15917 H 1451 -0.0795631 -0.659216 0
M  V30 15918 H 1453.53 -0.853127 -1.85965 0
M  V30 15919 H 1453.54 0.183079 -4.07589 0
M  V30 15920 H 1452.21 -0.968849 -4.04458 0
M  V30 15921 H 1450.79 0.817008 -3.6384 0
M  V30 15922 N 1452.97 1.53444 -0.359552 0
M  V30 15923 C 1453.92 2.27053 0.504949 0
M  V30 15924 C 1454.91 1.29801 1.08849 0
M  V30 15925 O 1456.12 1.47451 1.03239 0
M  V30 15926 H 1452.5 0.729756 0.181549 0
M  V30 15927 H 1454.47 2.98082 -0.137719 0
M  V30 15928 C 1453.22 3.06815 1.63585 0
M  V30 15929 H 1452.54 3.81488 1.19611 0
M  V30 15930 H 1453.98 3.61508 2.21558 0
M  V30 15931 C 1452.44 2.17286 2.57466 0
M  V30 15932 O 1452.97 1.77961 3.60129 0
M  V30 15933 N 1451.17 1.82041 2.26516 0
M  V30 15934 H 1450.72 2.14218 1.43068 0
M  V30 15935 H 1450.68 1.22423 2.89586 0
M  V30 15936 N 1454.45 0.0885642 1.57351 0
M  V30 15937 C 1455.38 -0.902617 2.10679 0
M  V30 15938 C 1456.4 -1.25037 1.04257 0
M  V30 15939 O 1457.58 -1.20462 1.31723 0
M  V30 15940 C 1454.68 -2.21362 2.56616 0
M  V30 15941 C 1453.86 -2.04219 3.86799 0
M  V30 15942 C 1452.92 -3.18774 4.18652 0
M  V30 15943 O 1451.94 -2.93024 4.87981 0
M  V30 15944 N 1453.14 -4.44357 3.73534 0
M  V30 15945 H 1455.91 -0.447199 2.96345 0
M  V30 15946 H 1453.47 -0.0967178 1.61611 0
M  V30 15947 H 1455.46 -2.96935 2.74976 0
M  V30 15948 H 1454.03 -2.58349 1.75996 0
M  V30 15949 H 1453.25 -1.13015 3.77652 0
M  V30 15950 H 1454.54 -1.90035 4.71979 0
M  V30 15951 H 1453.94 -4.68159 3.17558 0
M  V30 15952 H 1452.5 -5.169 3.97061 0
M  V30 15953 N 1455.93 -1.56509 -0.185096 0
M  V30 15954 C 1456.88 -1.95336 -1.22934 0
M  V30 15955 C 1457.85 -0.81532 -1.44713 0
M  V30 15956 O 1459.03 -1.07431 -1.57681 0
M  V30 15957 C 1456.17 -2.30671 -2.56681 0
M  V30 15958 C 1455.28 -3.57586 -2.42397 0
M  V30 15959 C 1454.42 -3.82197 -3.68916 0
M  V30 15960 C 1453.46 -5.02505 -3.49507 0
M  V30 15961 N 1452.59 -5.23319 -4.68062 0
M  V30 15962 H 1457.43 -2.84361 -0.89123 0
M  V30 15963 H 1454.97 -1.40715 -0.428689 0
M  V30 15964 H 1456.93 -2.49176 -3.34615 0
M  V30 15965 H 1455.56 -1.44773 -2.88514 0
M  V30 15966 H 1454.61 -3.47072 -1.55709 0
M  V30 15967 H 1455.92 -4.45677 -2.23994 0
M  V30 15968 H 1455.08 -4.00996 -4.55288 0
M  V30 15969 H 1453.82 -2.92455 -3.90284 0
M  V30 15970 H 1452.82 -4.83619 -2.6152 0
M  V30 15971 H 1454.05 -5.93765 -3.29574 0
M  V30 15972 H 1451.99 -4.36526 -4.89674 0
M  V30 15973 H 1451.91 -6.05608 -4.52521 0
M  V30 15974 H 1453.18 -5.46585 -5.55757 0
M  V30 15975 N 1457.41 0.45317 -1.50944 0
M  V30 15976 C 1458.63 1.23136 -1.6689 0
M  V30 15977 C 1459.06 1.84639 -0.359185 0
M  V30 15978 O 1458.41 1.68106 0.678983 0
M  V30 15979 C 1458.46 2.30275 -2.77499 0
M  V30 15980 O 1457.57 3.35371 -2.39999 0
M  V30 15981 H 1456.91 0.361475 -0.556984 0
M  V30 15982 H 1459.44 0.537174 -1.97422 0
M  V30 15983 H 1459.45 2.75309 -3.01113 0
M  V30 15984 H 1458.12 1.84885 -3.72546 0
M  V30 15985 H 1456.7 2.95924 -2.26899 0
M  V30 15986 N 1458.88 1.40823 0.707568 0
M  V30 15987 C 1459.81 1.44485 1.83429 0
M  V30 15988 C 1460.8 0.304848 1.67346 0
M  V30 15989 O 1461.98 0.514605 1.87258 0
M  V30 15990 C 1459.11 1.31458 3.21459 0
M  V30 15991 C 1458.06 2.43145 3.52228 0
M  V30 15992 C 1457.39 2.15189 4.89487 0
M  V30 15993 C 1458.69 3.85489 3.52414 0
M  V30 15994 H 1460.38 2.38781 1.80622 0
M  V30 15995 H 1457.93 1.14931 0.867572 0
M  V30 15996 H 1459.88 1.32635 3.99983 0
M  V30 15997 H 1458.61 0.336422 3.24863 0
M  V30 15998 H 1457.27 2.41231 2.76049 0
M  V30 15999 H 1456.91 1.15745 4.89502 0
M  V30 16000 H 1456.61 2.90022 5.11039 0
M  V30 16001 H 1458.14 2.18062 5.70334 0
M  V30 16002 H 1459.55 3.89183 4.20963 0
M  V30 16003 H 1457.95 4.59906 3.85495 0
M  V30 16004 H 1459.02 4.14499 2.51632 0
M  V30 16005 N 1460.36 -0.94061 1.26453 0
M  V30 16006 C 1461.59 -1.71874 1.14643 0
M  V30 16007 C 1462 -1.86791 -0.300969 0
M  V30 16008 O 1461.34 -1.37529 -1.21784 0
M  V30 16009 C 1461.41 -3.14408 1.74321 0
M  V30 16010 C 1461.07 -3.22873 3.23422 0
M  V30 16011 C 1462.07 -3.06107 4.20231 0
M  V30 16012 C 1459.75 -3.46245 3.63895 0
M  V30 16013 C 1461.75 -3.12581 5.55492 0
M  V30 16014 C 1459.43 -3.52354 4.99289 0
M  V30 16015 C 1460.43 -3.35539 5.94897 0
M  V30 16016 O 1460.12 -3.41357 7.27826 0
M  V30 16017 H 1459.85 -0.544931 0.400033 0
M  V30 16018 H 1462.4 -1.18767 1.67581 0
M  V30 16019 H 1460.63 -3.6894 1.15846 0
M  V30 16020 H 1462.32 -3.74135 1.57409 0
M  V30 16021 H 1463.09 -2.87906 3.90302 0
M  V30 16022 H 1458.97 -3.58389 2.89962 0
M  V30 16023 H 1462.51 -2.99374 6.30096 0
M  V30 16024 H 1458.41 -3.70077 5.2888 0
M  V30 16025 H 1459.18 -3.57897 7.36106 0
M  V30 16026 N 1461.84 -1.08266 -1.14527 0
M  V30 16027 C 1463.07 -0.83288 -1.89396 0
M  V30 16028 C 1463.48 0.614823 -1.78509 0
M  V30 16029 O 1462.84 1.42239 -1.14343 0
M  V30 16030 C 1462.89 -1.244 -3.39421 0
M  V30 16031 O 1462.61 -2.63491 -3.50006 0
M  V30 16032 C 1464.11 -1.02488 -4.3129 0
M  V30 16033 H 1461.33 -0.300474 -0.599964 0
M  V30 16034 H 1463.88 -1.44155 -1.4505 0
M  V30 16035 H 1462.03 -0.679466 -3.81395 0
M  V30 16036 H 1462.45 -2.80517 -4.43182 0
M  V30 16037 H 1463.92 -1.36194 -5.34935 0
M  V30 16038 H 1464.4 0.0381961 -4.39183 0
M  V30 16039 H 1465 -1.57477 -3.95071 0
M  V30 16040 N 1463.32 1.31536 -0.86811 0
M  V30 16041 C 1464.54 2.01487 -0.491705 0
M  V30 16042 C 1464.97 1.64744 0.907803 0
M  V30 16043 O 1464.33 0.855093 1.59868 0
M  V30 16044 C 1464.38 3.54621 -0.65395 0
M  V30 16045 O 1463.48 4.11252 0.307532 0
M  V30 16046 H 1462.82 0.634469 -0.195819 0
M  V30 16047 H 1465.35 1.67775 -1.17101 0
M  V30 16048 H 1465.36 4.04323 -0.546539 0
M  V30 16049 H 1464.04 3.80704 -1.67443 0
M  V30 16050 H 1462.61 3.72577 0.155233 0
M  V30 16051 N 1464.8 0.627364 1.44575 0
M  V30 16052 C 1465.73 -0.129056 2.27835 0
M  V30 16053 C 1466.71 -0.854852 1.38315 0
M  V30 16054 O 1467.89 -0.859709 1.67754 0
M  V30 16055 C 1465.02 -1.18866 3.17157 0
M  V30 16056 C 1464.07 -0.563816 4.22757 0
M  V30 16057 S 1464.9 0.643269 5.31622 0
M  V30 16058 C 1466.05 -0.416443 6.24513 0
M  V30 16059 H 1466.29 0.577281 2.91641 0
M  V30 16060 H 1463.82 0.415427 1.48706 0
M  V30 16061 H 1465.78 -1.79508 3.69171 0
M  V30 16062 H 1464.44 -1.86717 2.52578 0
M  V30 16063 H 1463.63 -1.36173 4.85256 0
M  V30 16064 H 1463.23 -0.0321045 3.73986 0
M  V30 16065 H 1465.53 -1.29006 6.65104 0
M  V30 16066 H 1466.47 0.172871 7.07889 0
M  V30 16067 H 1466.88 -0.740651 5.5962 0
M  V30 16068 N 1466.28 -1.53251 0.367684 0
M  V30 16069 C 1467.24 -2.24423 -0.465516 0
M  V30 16070 C 1468.24 -1.25283 -1.00801 0
M  V30 16071 O 1469.43 -1.49545 -0.893424 0
M  V30 16072 C 1466.56 -2.9826 -1.65087 0
M  V30 16073 H 1467.75 -2.99487 0.157292 0
M  V30 16074 H 1465.31 -1.55843 0.119409 0
M  V30 16075 H 1466.04 -2.27443 -2.31171 0
M  V30 16076 H 1465.83 -3.71003 -1.26882 0
M  V30 16077 H 1467.32 -3.52358 -2.24128 0
M  V30 16078 N 1467.75 -0.0969077 -1.57302 0
M  V30 16079 C 1469.17 0.25974 -1.57472 0
M  V30 16080 C 1469.37 1.6829 -1.10818 0
M  V30 16081 O 1468.43 2.39972 -0.785466 0
M  V30 16082 C 1469.74 0.0465211 -3.00664 0
M  V30 16083 C 1471.29 0.114131 -3.12792 0
M  V30 16084 C 1471.76 -0.0711175 -4.57945 0
M  V30 16085 N 1473.25 -0.0163438 -4.63197 0
M  V30 16086 C 1473.99 -0.1349 -5.73241 0
M  V30 16087 N 1473.48 -0.308391 -6.92113 0
M  V30 16088 N 1475.28 -0.0760411 -5.62049 0
M  V30 16089 H 1467.43 -1.02673 -1.85935 0
M  V30 16090 H 1469.69 -0.402528 -0.858298 0
M  V30 16091 H 1469.4 -0.936496 -3.39002 0
M  V30 16092 H 1469.27 0.78805 -3.68876 0
M  V30 16093 H 1471.66 1.08765 -2.74325 0
M  V30 16094 H 1471.74 -0.658918 -2.47168 0
M  V30 16095 H 1471.38 -1.04152 -4.97106 0
M  V30 16096 H 1471.31 0.721647 -5.21632 0
M  V30 16097 H 1473.8 0.115134 -3.77725 0
M  V30 16098 H 1474.12 -0.390318 -7.71814 0
M  V30 16099 H 1472.46 -0.344082 -6.94148 0
M  V30 16100 H 1475.65 0.0583778 -4.68064 0
M  V30 16101 H 1475.83 -0.171884 -6.47772 0
M  V30 16102 N 1469.23 1.56605 0.176793 0
M  V30 16103 C 1470.64 1.71418 0.739775 0
M  V30 16104 C 1470.99 0.706527 1.83037 0
M  V30 16105 O 1470.12 -0.133259 2.15989 0
M  V30 16106 C 1470.71 3.10799 1.34867 0
M  V30 16107 C 1469.27 3.27315 1.85854 0
M  V30 16108 C 1468.42 2.67371 0.73541 0
M  V30 16109 H 1471.37 1.58626 -0.0485305 0
M  V30 16110 H 1471.39 3.09146 2.21831 0
M  V30 16111 H 1470.9 3.84116 0.554688 0
M  V30 16112 H 1469 2.58947 2.67913 0
M  V30 16113 H 1469.12 4.35002 2.00774 0
M  V30 16114 H 1467.48 2.27035 1.15444 0
M  V30 16115 H 1468.26 3.43268 -0.0466351 0
M  V30 16116 N 1470.71 -0.445159 1.51182 0
M  V30 16117 C 1472.12 -1.02528 1.56028 0
M  V30 16118 C 1472.47 -1.92503 0.379087 0
M  V30 16119 O 1471.6 -2.10424 -0.505056 0
M  V30 16120 C 1472.19 -1.86621 2.82768 0
M  V30 16121 C 1470.75 -2.39697 2.90211 0
M  V30 16122 C 1469.9 -1.18705 2.50608 0
M  V30 16123 H 1472.85 -0.226732 1.57072 0
M  V30 16124 H 1472.87 -2.71987 2.66089 0
M  V30 16125 H 1472.38 -1.2111 3.68719 0
M  V30 16126 H 1470.48 -3.08686 2.08672 0
M  V30 16127 H 1470.6 -2.73029 3.9369 0
M  V30 16128 H 1468.96 -1.52995 2.03629 0
M  V30 16129 H 1469.74 -0.548156 3.38895 0
M  V30 16130 N 1472.19 -1.41197 -0.700089 0
M  V30 16131 C 1473.12 -1.45456 -1.8266 0
M  V30 16132 C 1474.1 -0.313719 -1.67182 0
M  V30 16133 O 1475.28 -0.524528 -1.86982 0
M  V30 16134 C 1472.41 -1.33161 -3.20758 0
M  V30 16135 C 1471.37 -2.4501 -3.50933 0
M  V30 16136 C 1470.69 -2.17782 -4.88339 0
M  V30 16137 C 1471.99 -3.87352 -3.50365 0
M  V30 16138 H 1473.69 -2.39735 -1.79353 0
M  V30 16139 H 1471.23 -1.1539 -0.861465 0
M  V30 16140 H 1473.19 -1.34754 -3.99274 0
M  V30 16141 H 1471.91 -0.353646 -3.2468 0
M  V30 16142 H 1470.57 -2.42692 -2.74766 0
M  V30 16143 H 1470.22 -1.1834 -4.88881 0
M  V30 16144 H 1469.92 -2.92728 -5.09494 0
M  V30 16145 H 1471.44 -2.21083 -5.6917 0
M  V30 16146 H 1472.86 -3.9141 -4.18893 0
M  V30 16147 H 1471.25 -4.61944 -3.83051 0
M  V30 16148 H 1472.32 -4.15827 -2.4943 0
M  V30 16149 N 1473.67 0.933891 -1.2695 0
M  V30 16150 C 1475.08 1.49578 -1.11728 0
M  V30 16151 C 1475.43 1.93895 0.299889 0
M  V30 16152 O 1474.55 1.806 1.19216 0
M  V30 16153 C 1475.15 2.71841 -2.02208 0
M  V30 16154 C 1473.71 3.24274 -1.9111 0
M  V30 16155 C 1472.85 1.97029 -1.95128 0
M  V30 16156 H 1475.8 0.748628 -1.39933 0
M  V30 16157 H 1475.83 3.46407 -1.57425 0
M  V30 16158 H 1475.34 2.39556 -3.05343 0
M  V30 16159 H 1473.44 3.61333 -0.909367 0
M  V30 16160 H 1473.55 3.90887 -2.77027 0
M  V30 16161 H 1471.92 2.13249 -1.39273 0
M  V30 16162 H 1472.7 1.67066 -2.99907 0
M  V30 16163 N 1475.14 1.08871 1.13951 0
M  V30 16164 C 1476.56 0.817282 1.37086 0
M  V30 16165 C 1476.76 -0.571159 1.93236 0
M  V30 16166 O 1475.82 -1.32708 2.14813 0
M  V30 16167 C 1477.13 1.90386 2.32752 0
M  V30 16168 C 1478.68 1.93043 2.46381 0
M  V30 16169 C 1479.15 3.00828 3.4535 0
M  V30 16170 N 1480.64 3.0003 3.52897 0
M  V30 16171 C 1481.38 3.80073 4.29339 0
M  V30 16172 N 1480.87 4.70008 5.08984 0
M  V30 16173 N 1482.67 3.68355 4.24583 0
M  V30 16174 H 1474.82 1.98393 0.758537 0
M  V30 16175 H 1477.08 0.861229 0.396219 0
M  V30 16176 H 1476.79 2.90233 1.9864 0
M  V30 16177 H 1476.66 1.77722 3.32708 0
M  V30 16178 H 1479.05 0.938382 2.79783 0
M  V30 16179 H 1479.13 2.09785 1.4637 0
M  V30 16180 H 1478.77 4.00242 3.1268 0
M  V30 16181 H 1478.7 2.8133 4.45153 0
M  V30 16182 H 1481.19 2.3485 2.96064 0
M  V30 16183 H 1481.51 5.27678 5.64602 0
M  V30 16184 H 1479.85 4.74047 5.08236 0
M  V30 16185 H 1483.04 2.9746 3.61435 0
M  V30 16186 H 1483.22 4.30974 4.83906 0
M  V30 16187 N 1476.62 -1.31073 0.875073 0
M  V30 16188 C 1477.55 -2.27335 0.291809 0
M  V30 16189 C 1478.57 -1.53298 -0.548036 0
M  V30 16190 O 1479.76 -1.7464 -0.369198 0
M  V30 16191 C 1476.86 -3.33465 -0.604521 0
M  V30 16192 C 1476.03 -4.36924 0.204029 0
M  V30 16193 C 1475.09 -5.2252 -0.621238 0
M  V30 16194 O 1474.11 -5.6918 -0.0474551 0
M  V30 16195 N 1475.32 -5.47397 -1.93227 0
M  V30 16196 H 1478.08 -2.78024 1.11906 0
M  V30 16197 H 1475.64 -1.44149 0.737064 0
M  V30 16198 H 1477.63 -3.87646 -1.16243 0
M  V30 16199 H 1476.2 -2.8278 -1.33244 0
M  V30 16200 H 1475.42 -3.82745 0.943389 0
M  V30 16201 H 1476.71 -5.03112 0.758644 0
M  V30 16202 H 1476.11 -5.11253 -2.4215 0
M  V30 16203 H 1474.67 -6.04493 -2.43785 0
M  V30 16204 N 1478.1 -0.635022 -1.4424 0
M  V30 16205 C 1479.03 0.106038 -2.28955 0
M  V30 16206 C 1480.05 0.805076 -1.415 0
M  V30 16207 O 1481.23 0.665872 -1.65615 0
M  V30 16208 C 1478.33 1.17252 -3.1797 0
M  V30 16209 C 1477.51 0.555225 -4.33862 0
M  V30 16210 C 1476.57 1.51618 -5.03883 0
M  V30 16211 O 1475.59 1.03181 -5.5977 0
M  V30 16212 N 1476.79 2.85048 -5.05696 0
M  V30 16213 H 1479.56 -0.620999 -2.93196 0
M  V30 16214 H 1477.12 -0.476466 -1.5473 0
M  V30 16215 H 1479.11 1.81578 -3.61679 0
M  V30 16216 H 1477.68 1.80174 -2.55453 0
M  V30 16217 H 1476.9 -0.266745 -3.93296 0
M  V30 16218 H 1478.19 0.123529 -5.0865 0
M  V30 16219 H 1477.59 3.26977 -4.6163 0
M  V30 16220 H 1476.15 3.44724 -5.5318 0
M  V30 16221 N 1479.58 1.53054 -0.375806 0
M  V30 16222 C 1480.8 2.06296 0.213708 0
M  V30 16223 C 1481.23 1.24675 1.40846 0
M  V30 16224 O 1480.59 0.268371 1.79303 0
M  V30 16225 C 1480.63 3.55981 0.575301 0
M  V30 16226 O 1479.74 3.77023 1.67115 0
M  V30 16227 H 1479.08 0.66338 0.0286922 0
M  V30 16228 H 1481.61 1.97362 -0.539371 0
M  V30 16229 H 1481.62 3.99187 0.843431 0
M  V30 16230 H 1480.29 4.14829 -0.298258 0
M  V30 16231 H 1478.87 3.45712 1.39778 0
M  V30 16232 N 1481.06 0.105248 1.57248 0
M  V30 16233 C 1482.28 -0.564157 1.9906 0
M  V30 16234 C 1482.7 -1.61092 0.984624 0
M  V30 16235 O 1482.06 -1.82484 -0.0244031 0
M  V30 16236 C 1482.11 -1.20272 3.40906 0
M  V30 16237 O 1481.83 -0.197815 4.37653 0
M  V30 16238 C 1483.33 -1.95677 3.97776 0
M  V30 16239 H 1480.55 -0.150468 0.653912 0
M  V30 16240 H 1483.09 0.187532 2.03638 0
M  V30 16241 H 1481.25 -1.90528 3.3731 0
M  V30 16242 H 1481.66 -0.659998 5.20331 0
M  V30 16243 H 1483.14 -2.35702 4.99148 0
M  V30 16244 H 1483.61 -2.82661 3.36154 0
M  V30 16245 H 1484.22 -1.30215 4.04876 0
M  V30 16246 N 1482.53 -1.56697 -0.168486 0
M  V30 16247 C 1483.76 -1.86652 -0.904195 0
M  V30 16248 C 1484.18 -0.691906 -1.74912 0
M  V30 16249 O 1483.54 0.358971 -1.77711 0
M  V30 16250 C 1483.59 -3.15043 -1.75442 0
M  V30 16251 O 1482.69 -2.97466 -2.85636 0
M  V30 16252 H 1482.04 -0.613859 -0.253128 0
M  V30 16253 H 1484.57 -2.03927 -0.165773 0
M  V30 16254 H 1484.58 -3.4652 -2.15378 0
M  V30 16255 H 1483.25 -4.00147 -1.13381 0
M  V30 16256 H 1481.83 -2.7735 -2.49262 0
M  V30 16257 N 1484.01 0.437135 -1.51416 0
M  V30 16258 C 1485.24 1.21359 -1.68187 0
M  V30 16259 C 1485.66 1.84247 -0.378748 0
M  V30 16260 O 1485.02 1.68816 0.661115 0
M  V30 16261 C 1485.07 2.27319 -2.79926 0
M  V30 16262 O 1484.17 3.32807 -2.43543 0
M  V30 16263 H 1483.51 0.355547 -0.560787 0
M  V30 16264 H 1486.04 0.516204 -1.97981 0
M  V30 16265 H 1486.05 2.721 -3.04016 0
M  V30 16266 H 1484.73 1.80923 -3.74486 0
M  V30 16267 H 1483.31 2.93501 -2.30025 0
M  V30 16268 N 1485.49 1.41566 0.692592 0
M  V30 16269 C 1486.77 1.31572 1.44735 0
M  V30 16270 C 1487.15 -0.0553081 2.11028 0
M  V30 16271 O 1486.5 -1.06974 2.01913 0
M  V30 16272 C 1486.71 2.47125 2.46435 0
M  V30 16273 C 1488.05 2.88427 3.11601 0
M  V30 16274 O 1489.08 2.46886 2.5676 0
M  V30 16275 O 1487.94 3.6027 4.10935 0
M  V30 16276 H 1485.03 0.517949 0.644715 0
M  V30 16277 H 1487.58 1.53536 0.722818 0
M  V30 16278 H 1486.35 3.38601 1.96124 0
M  V30 16279 H 1485.97 2.27054 3.26393 0
M  V30 16280 N 1486.97 -0.927146 1.27443 0
M  V30 16281 C 1488.38 -1.20319 1.0486 0
M  V30 16282 C 1488.58 -2.00323 -0.217491 0
M  V30 16283 O 1487.64 -2.35032 -0.922833 0
M  V30 16284 C 1488.95 -1.9508 2.28833 0
M  V30 16285 C 1490.5 -2.08016 2.33877 0
M  V30 16286 C 1490.98 -2.86183 3.5758 0
M  V30 16287 N 1492.47 -2.93751 3.58141 0
M  V30 16288 C 1493.2 -3.54698 4.5053 0
M  V30 16289 N 1492.7 -4.17032 5.53223 0
M  V30 16290 N 1494.49 -3.52107 4.38152 0
M  V30 16291 H 1486.64 -0.392671 2.08739 0
M  V30 16292 H 1488.91 -0.236323 0.918072 0
M  V30 16293 H 1488.61 -1.43712 3.20998 0
M  V30 16294 H 1488.49 -2.95692 2.34193 0
M  V30 16295 H 1490.87 -2.5857 1.42217 0
M  V30 16296 H 1490.95 -1.06622 2.3252 0
M  V30 16297 H 1490.6 -2.36312 4.49576 0
M  V30 16298 H 1490.53 -3.87863 3.56188 0
M  V30 16299 H 1493.02 -2.49449 2.83872 0
M  V30 16300 H 1493.33 -4.61477 6.19886 0
M  V30 16301 H 1491.68 -4.15576 5.57065 0
M  V30 16302 H 1494.87 -3.02611 3.57134 0
M  V30 16303 H 1495.04 -3.99315 5.10344 0
M  V30 16304 N 1488.45 -1.09474 -1.13372 0
M  V30 16305 C 1489.69 -0.832323 -1.84933 0
M  V30 16306 C 1490.03 0.640469 -1.83335 0
M  V30 16307 O 1489.3 1.47158 -1.2718 0
M  V30 16308 C 1489.58 -1.36876 -3.33072 0
M  V30 16309 C 1489.44 -2.90769 -3.43181 0
M  V30 16310 C 1490.76 -1.00294 -4.2852 0
M  V30 16311 H 1487.87 -0.30382 -0.671463 0
M  V30 16312 H 1490.52 -1.35622 -1.33066 0
M  V30 16313 H 1488.67 -0.923134 -3.77373 0
M  V30 16314 H 1490.34 -3.43784 -3.07588 0
M  V30 16315 H 1488.58 -3.27876 -2.84042 0
M  V30 16316 H 1489.25 -3.23381 -4.47358 0
M  V30 16317 H 1491.73 -1.38729 -3.92293 0
M  V30 16318 H 1490.6 -1.40533 -5.30605 0
M  V30 16319 H 1490.87 0.0888133 -4.42011 0
M  V30 16320 N 1489.92 1.30607 -0.882012 0
M  V30 16321 C 1491.15 2.00954 -0.513048 0
M  V30 16322 C 1491.57 1.65697 0.890279 0
M  V30 16323 O 1490.93 0.872001 1.58952 0
M  V30 16324 C 1490.98 3.53907 -0.691525 0
M  V30 16325 O 1490.08 4.11555 0.263896 0
M  V30 16326 H 1489.43 0.632356 -0.202537 0
M  V30 16327 H 1491.96 1.66524 -1.18874 0
M  V30 16328 H 1491.97 4.0372 -0.589392 0
M  V30 16329 H 1490.64 3.78907 -1.71471 0
M  V30 16330 H 1489.22 3.7272 0.115707 0
M  V30 16331 N 1491.4 0.642663 1.43901 0
M  V30 16332 C 1492.33 -0.0938945 2.29008 0
M  V30 16333 C 1493.35 -0.797561 1.41925 0
M  V30 16334 O 1494.54 -0.65708 1.65966 0
M  V30 16335 C 1491.64 -1.15564 3.18588 0
M  V30 16336 C 1490.81 -0.532208 4.3415 0
M  V30 16337 C 1489.87 -1.48943 5.0468 0
M  V30 16338 O 1488.89 -1.00211 5.60309 0
M  V30 16339 N 1490.1 -2.82362 5.072 0
M  V30 16340 H 1492.86 0.636539 2.92862 0
M  V30 16341 H 1490.42 0.484665 1.54475 0
M  V30 16342 H 1492.41 -1.79658 3.62636 0
M  V30 16343 H 1490.98 -1.78816 2.56405 0
M  V30 16344 H 1490.2 0.287598 3.93149 0
M  V30 16345 H 1491.49 -0.0965526 5.08708 0
M  V30 16346 H 1490.89 -3.24524 4.63358 0
M  V30 16347 H 1489.45 -3.41786 5.55001 0
M  V30 16348 N 1492.88 -1.52852 0.383918 0
M  V30 16349 C 1494.11 -2.05929 -0.200216 0
M  V30 16350 C 1494.52 -1.25606 -1.40956 0
M  V30 16351 O 1493.88 -0.301336 -1.79995 0
M  V30 16352 C 1493.93 -3.56887 -0.575655 0
M  V30 16353 O 1493.65 -4.34168 0.58564 0
M  V30 16354 C 1495.15 -4.2629 -1.21623 0
M  V30 16355 H 1492.37 -0.670261 -0.0314727 0
M  V30 16356 H 1494.92 -1.97032 0.547591 0
M  V30 16357 H 1493.07 -3.65875 -1.27336 0
M  V30 16358 H 1493.49 -5.23761 0.278267 0
M  V30 16359 H 1494.96 -5.33174 -1.42933 0
M  V30 16360 H 1495.44 -3.81163 -2.182 0
M  V30 16361 H 1496.04 -4.21605 -0.559435 0
M  V30 16362 N 1494.36 -0.113586 -1.5719 0
M  V30 16363 C 1495.77 0.412653 -1.82083 0
M  V30 16364 C 1496.12 1.66964 -1.03041 0
M  V30 16365 O 1495.25 2.14767 -0.265354 0
M  V30 16366 C 1495.84 0.755439 -3.3027 0
M  V30 16367 C 1494.4 1.22634 -3.55862 0
M  V30 16368 C 1493.55 0.232285 -2.76325 0
M  V30 16369 H 1496.5 -0.338792 -1.55042 0
M  V30 16370 H 1496.52 1.61335 -3.44603 0
M  V30 16371 H 1496.03 -0.1596 -3.87772 0
M  V30 16372 H 1494.13 2.15846 -3.03713 0
M  V30 16373 H 1494.25 1.1754 -4.64458 0
M  V30 16374 H 1492.61 0.718222 -2.44364 0
M  V30 16375 H 1493.39 -0.675756 -3.36583 0
M  V30 16376 N 1495.84 1.56784 0.160173 0
M  V30 16377 C 1496.75 2.00514 1.21783 0
M  V30 16378 C 1497.76 0.918341 1.47792 0
M  V30 16379 O 1498.94 1.22683 1.59721 0
M  V30 16380 C 1496 2.36575 2.53443 0
M  V30 16381 C 1495.07 3.59138 2.35198 0
M  V30 16382 C 1494.3 3.93469 3.6058 0
M  V30 16383 O 1494.52 3.28625 4.6622 0
M  V30 16384 O 1493.46 4.86774 3.54027 0
M  V30 16385 H 1497.28 2.90774 0.876607 0
M  V30 16386 H 1494.87 1.44799 0.367897 0
M  V30 16387 H 1496.75 2.60687 3.31089 0
M  V30 16388 H 1495.42 1.49474 2.87122 0
M  V30 16389 H 1494.33 3.4023 1.55546 0
M  V30 16390 H 1495.66 4.46815 2.0644 0
M  V30 16391 N 1497.32 -0.429099 1.51646 0
M  V30 16392 C 1498.54 -1.20465 1.68828 0
M  V30 16393 C 1498.97 -1.84044 0.388514 0
M  V30 16394 O 1498.32 -1.69165 -0.652152 0
M  V30 16395 C 1498.37 -2.25831 2.81128 0
M  V30 16396 O 1497.48 -3.31511 2.45305 0
M  V30 16397 H 1496.82 -0.352568 0.562665 0
M  V30 16398 H 1499.35 -0.505698 1.98252 0
M  V30 16399 H 1499.36 -2.70484 3.05455 0
M  V30 16400 H 1498.03 -1.78934 3.7544 0
M  V30 16401 H 1496.61 -2.92277 2.31579 0
M  V30 16402 N 1498.79 -1.41931 -0.685074 0
M  V30 16403 C 1499.72 -1.47385 -1.81107 0
M  V30 16404 C 1500.7 -0.331433 -1.6684 0
M  V30 16405 O 1501.89 -0.544331 -1.86415 0
M  V30 16406 C 1499.02 -1.36555 -3.19327 0
M  V30 16407 C 1497.97 -2.48718 -3.48315 0
M  V30 16408 C 1497.3 -2.2295 -4.86002 0
M  V30 16409 C 1498.6 -3.91047 -3.46237 0
M  V30 16410 H 1500.29 -2.41624 -1.768 0
M  V30 16411 H 1497.84 -1.16297 -0.849178 0
M  V30 16412 H 1499.79 -1.38981 -3.97822 0
M  V30 16413 H 1498.52 -0.388063 -3.24286 0
M  V30 16414 H 1497.18 -2.45592 -2.72176 0
M  V30 16415 H 1496.82 -1.23518 -4.87598 0
M  V30 16416 H 1496.52 -2.98116 -5.0636 0
M  V30 16417 H 1498.05 -2.27108 -5.66793 0
M  V30 16418 H 1499.46 -3.95831 -4.14718 0
M  V30 16419 H 1497.86 -4.65981 -3.7813 0
M  V30 16420 H 1498.93 -4.1845 -2.45006 0
M  V30 16421 N 1500.27 0.920374 -1.27933 0
M  V30 16422 C 1501.55 1.64765 -1.05413 0
M  V30 16423 C 1501.93 2.07106 0.408717 0
M  V30 16424 O 1501.28 1.81094 1.39346 0
M  V30 16425 C 1501.49 2.84417 -2.02257 0
M  V30 16426 C 1502.83 3.5559 -2.32036 0
M  V30 16427 O 1503.86 2.94555 -2.00289 0
M  V30 16428 O 1502.72 4.65574 -2.86187 0
M  V30 16429 H 1499.81 0.722503 -0.402391 0
M  V30 16430 H 1502.36 0.970263 -1.39226 0
M  V30 16431 H 1501.13 2.50174 -3.0088 0
M  V30 16432 H 1500.75 3.59872 -1.6905 0
M  V30 16433 N 1501.75 1.10074 1.1279 0
M  V30 16434 C 1503 0.840873 1.84216 0
M  V30 16435 C 1503.32 -0.633551 1.83892 0
M  V30 16436 O 1502.58 -1.48283 1.27714 0
M  V30 16437 C 1502.88 1.32969 3.31744 0
M  V30 16438 C 1502.54 2.81489 3.52242 0
M  V30 16439 C 1501.21 3.22048 3.57545 0
M  V30 16440 C 1503.56 3.77216 3.59664 0
M  V30 16441 C 1500.89 4.57092 3.67809 0
M  V30 16442 C 1503.24 5.12057 3.71457 0
M  V30 16443 C 1501.9 5.52196 3.75014 0
M  V30 16444 H 1501.17 0.307697 0.674095 0
M  V30 16445 H 1503.82 1.37669 1.33115 0
M  V30 16446 H 1502.12 0.713819 3.85243 0
M  V30 16447 H 1503.82 1.10515 3.8547 0
M  V30 16448 H 1500.41 2.49106 3.48775 0
M  V30 16449 H 1504.6 3.4699 3.5484 0
M  V30 16450 H 1499.85 4.87618 3.68834 0
M  V30 16451 H 1504.03 5.86081 3.76142 0
M  V30 16452 H 1501.65 6.56833 3.8272 0
M  V30 16453 N 1503.23 -1.30138 0.888926 0
M  V30 16454 C 1504.16 -2.3047 0.374934 0
M  V30 16455 C 1505.14 -1.61156 -0.544322 0
M  V30 16456 O 1506.32 -1.88738 -0.457337 0
M  V30 16457 C 1503.45 -3.44896 -0.407935 0
M  V30 16458 C 1502.41 -4.25935 0.419916 0
M  V30 16459 C 1501.73 -5.32452 -0.489797 0
M  V30 16460 C 1503.03 -4.9508 1.66413 0
M  V30 16461 H 1504.73 -2.73711 1.21337 0
M  V30 16462 H 1502.27 -1.31586 0.584899 0
M  V30 16463 H 1504.23 -4.14153 -0.778177 0
M  V30 16464 H 1502.95 -3.0047 -1.28005 0
M  V30 16465 H 1501.61 -3.58372 0.772348 0
M  V30 16466 H 1501.26 -4.84273 -1.35974 0
M  V30 16467 H 1500.96 -5.87569 0.0603412 0
M  V30 16468 H 1502.48 -6.04563 -0.856468 0
M  V30 16469 H 1503.9 -5.56831 1.36425 0
M  V30 16470 H 1502.29 -5.6008 2.15477 0
M  V30 16471 H 1503.36 -4.20981 2.4063 0
M  V30 16472 N 1504.71 -0.650285 -1.43559 0
M  V30 16473 C 1505.65 0.043098 -2.3076 0
M  V30 16474 C 1506.62 0.81763 -1.44582 0
M  V30 16475 O 1507.81 0.794825 -1.73457 0
M  V30 16476 C 1504.95 1.00557 -3.30125 0
M  V30 16477 C 1504.06 0.227448 -4.31401 0
M  V30 16478 C 1503.2 1.18345 -5.17849 0
M  V30 16479 C 1502.23 0.395596 -6.1082 0
M  V30 16480 N 1501.37 1.30304 -6.89902 0
M  V30 16481 H 1506.21 -0.706402 -2.89506 0
M  V30 16482 H 1503.75 -0.360118 -1.42624 0
M  V30 16483 H 1505.71 1.57717 -3.8624 0
M  V30 16484 H 1504.34 1.72198 -2.73034 0
M  V30 16485 H 1503.39 -0.460391 -3.77604 0
M  V30 16486 H 1504.7 -0.385316 -4.9731 0
M  V30 16487 H 1503.85 1.82578 -5.78576 0
M  V30 16488 H 1502.59 1.83013 -4.52059 0
M  V30 16489 H 1501.6 -0.260099 -5.49184 0
M  V30 16490 H 1502.82 -0.246633 -6.78652 0
M  V30 16491 H 1500.77 1.93657 -6.26764 0
M  V30 16492 H 1500.69 0.744768 -7.52323 0
M  V30 16493 H 1501.95 1.93361 -7.55137 0
M  V30 16494 N 1506.18 1.52647 -0.392018 0
M  V30 16495 C 1507.43 2.01912 0.18958 0
M  V30 16496 C 1507.76 1.27786 1.46234 0
M  V30 16497 O 1507.04 0.379124 1.90769 0
M  V30 16498 C 1507.32 3.57217 0.454734 0
M  V30 16499 C 1507.17 4.4201 -0.833501 0
M  V30 16500 C 1508.49 4.22146 1.24421 0
M  V30 16501 H 1505.61 0.733909 0.0674281 0
M  V30 16502 H 1508.25 1.82685 -0.52212 0
M  V30 16503 H 1506.4 3.73731 1.06101 0
M  V30 16504 H 1508.08 4.37242 -1.47027 0
M  V30 16505 H 1506.32 4.08912 -1.44823 0
M  V30 16506 H 1506.99 5.48701 -0.602585 0
M  V30 16507 H 1509.47 4.09627 0.731093 0
M  V30 16508 H 1508.34 5.30786 1.39848 0
M  V30 16509 H 1508.6 3.7996 2.26016 0
M  V30 16510 N 1507.66 0.121921 1.57128 0
M  V30 16511 C 1509.07 -0.402991 1.82299 0
M  V30 16512 C 1509.42 -1.66415 1.03925 0
M  V30 16513 O 1508.55 -2.14623 0.27674 0
M  V30 16514 C 1509.14 -0.737913 3.30666 0
M  V30 16515 C 1507.7 -1.20745 3.56508 0
M  V30 16516 C 1506.85 -0.217628 2.76445 0
M  V30 16517 H 1509.8 0.347009 1.5486 0
M  V30 16518 H 1509.82 -1.59505 3.45454 0
M  V30 16519 H 1509.33 0.180162 3.87682 0
M  V30 16520 H 1507.44 -2.14232 3.04853 0
M  V30 16521 H 1507.55 -1.15075 4.65075 0
M  V30 16522 H 1505.91 -0.705253 2.44741 0
M  V30 16523 H 1506.7 0.693596 3.3622 0
M  V30 16524 N 1509.14 -1.56867 -0.151857 0
M  V30 16525 C 1510.42 -1.7399 -0.893694 0
M  V30 16526 C 1510.8 -0.688628 -1.99552 0
M  V30 16527 O 1510.15 0.293289 -2.2661 0
M  V30 16528 C 1510.36 -3.1788 -1.44061 0
M  V30 16529 C 1511.7 -3.7942 -1.90592 0
M  V30 16530 O 1512.73 -3.21279 -1.53813 0
M  V30 16531 O 1511.59 -4.81549 -2.58404 0
M  V30 16532 H 1508.68 -0.711229 -0.421998 0
M  V30 16533 H 1511.23 -1.69137 -0.138162 0
M  V30 16534 H 1510 -3.85888 -0.648529 0
M  V30 16535 H 1509.62 -3.27139 -2.25978 0
M  V30 16536 N 1510.62 0.421051 -1.51871 0
M  V30 16537 C 1511.55 1.53094 -1.70572 0
M  V30 16538 C 1512.56 1.5188 -0.586201 0
M  V30 16539 O 1513.75 1.56361 -0.861013 0
M  V30 16540 C 1510.85 2.92002 -1.72011 0
M  V30 16541 C 1510.03 3.17541 -3.0081 0
M  V30 16542 C 1509.08 4.36259 -2.94219 0
M  V30 16543 O 1508.11 4.34118 -3.68144 0
M  V30 16544 N 1509.31 5.40722 -2.11188 0
M  V30 16545 H 1512.08 1.3745 -2.66322 0
M  V30 16546 H 1509.64 0.610204 -1.4996 0
M  V30 16547 H 1511.63 3.6947 -1.65149 0
M  V30 16548 H 1510.2 3.01162 -0.837861 0
M  V30 16549 H 1509.42 2.28225 -3.21414 0
M  V30 16550 H 1510.71 3.3144 -3.86037 0
M  V30 16551 H 1510.11 5.45304 -1.50534 0
M  V30 16552 H 1508.66 6.16979 -2.10192 0
M  V30 16553 N 1512.1 1.42293 0.677538 0
M  V30 16554 C 1513.34 1.42334 1.43476 0
M  V30 16555 C 1513.67 0.0397842 1.94959 0
M  V30 16556 O 1512.94 -0.921258 1.72886 0
M  V30 16557 H 1511.52 0.523969 0.532415 0
M  V30 16558 H 1514.18 1.7769 0.800758 0
M  V30 16559 H 1513.27 2.12146 2.28912 0
M  V30 16560 N 1513.57 -0.913576 1.28419 0
M  V30 16561 C 1514.54 -1.99757 1.12382 0
M  V30 16562 C 1515.54 -1.60675 0.063435 0
M  V30 16563 O 1516.73 -1.71433 0.30923 0
M  V30 16564 C 1513.86 -3.33307 0.715506 0
M  V30 16565 H 1515.05 -2.15414 2.08655 0
M  V30 16566 H 1512.61 -1.09626 1.11408 0
M  V30 16567 H 1513.34 -3.23351 -0.247977 0
M  V30 16568 H 1513.13 -3.63034 1.4815 0
M  V30 16569 H 1514.62 -4.12882 0.625953 0
M  V30 16570 N 1515.05 -1.1067 -1.12204 0
M  V30 16571 C 1516.02 -0.761145 -2.16193 0
M  V30 16572 C 1517.02 0.215599 -1.59348 0
M  V30 16573 O 1518.21 -0.00786723 -1.74198 0
M  V30 16574 C 1515.34 -0.127863 -3.4066 0
M  V30 16575 H 1516.53 -1.68225 -2.48275 0
M  V30 16576 H 1514.08 -0.907542 -1.27253 0
M  V30 16577 H 1514.82 0.803851 -3.14179 0
M  V30 16578 H 1514.6 -0.83085 -3.83196 0
M  V30 16579 H 1516.09 0.0980593 -4.17485 0
M  V30 16580 N 1516.53 1.29665 -0.895815 0
M  V30 16581 C 1517.78 1.9533 -0.518725 0
M  V30 16582 C 1518.1 1.70995 0.937322 0
M  V30 16583 O 1517.37 1.03955 1.66043 0
M  V30 16584 H 1515.95 0.722736 -0.188841 0
M  V30 16585 H 1518.61 1.57991 -1.14126 0
M  V30 16586 H 1517.71 3.04193 -0.698057 0
M  V30 16587 N 1518.01 0.657889 1.43212 0
M  V30 16588 C 1519.25 0.173443 2.02057 0
M  V30 16589 C 1519.59 -1.21108 1.51811 0
M  V30 16590 O 1518.86 -1.80953 0.71317 0
M  V30 16591 C 1519.15 0.189429 3.59601 0
M  V30 16592 C 1519 1.6082 4.20068 0
M  V30 16593 C 1520.32 -0.471633 4.37566 0
M  V30 16594 H 1517.44 0.0644999 0.734172 0
M  V30 16595 H 1520.08 0.839462 1.7045 0
M  V30 16596 H 1518.23 -0.377689 3.8666 0
M  V30 16597 H 1519.9 2.22627 4.04024 0
M  V30 16598 H 1518.14 2.15407 3.7654 0
M  V30 16599 H 1518.81 1.5712 5.29167 0
M  V30 16600 H 1521.29 0.0109387 4.16099 0
M  V30 16601 H 1520.17 -0.429739 5.47215 0
M  V30 16602 H 1520.43 -1.54652 4.14168 0
M  V30 16603 N 1519.49 -1.52437 0.400108 0
M  V30 16604 C 1520.9 -1.5952 0.0505611 0
M  V30 16605 C 1521.1 -1.4135 -1.43606 0
M  V30 16606 O 1520.16 -1.23591 -2.20185 0
M  V30 16607 C 1521.47 -2.95859 0.537411 0
M  V30 16608 C 1523.02 -3.09067 0.494603 0
M  V30 16609 C 1523.49 -4.47873 0.957815 0
M  V30 16610 N 1524.99 -4.54087 0.914267 0
M  V30 16611 C 1525.72 -5.59744 1.24397 0
M  V30 16612 N 1525.22 -6.72995 1.64469 0
M  V30 16613 N 1527.01 -5.49905 1.16452 0
M  V30 16614 H 1519.16 -1.62496 1.36781 0
M  V30 16615 H 1521.42 -0.763947 0.561328 0
M  V30 16616 H 1521.13 -3.14407 1.57611 0
M  V30 16617 H 1521 -3.77156 -0.0577652 0
M  V30 16618 H 1523.39 -2.90209 -0.535035 0
M  V30 16619 H 1523.47 -2.29698 1.12572 0
M  V30 16620 H 1523.12 -4.67473 1.98574 0
M  V30 16621 H 1523.05 -5.25724 0.303602 0
M  V30 16622 H 1525.54 -3.72787 0.619536 0
M  V30 16623 H 1525.85 -7.49594 1.87961 0
M  V30 16624 H 1524.19 -6.74298 1.68364 0
M  V30 16625 H 1527.39 -4.60311 0.850401 0
M  V30 16626 H 1527.56 -6.32142 1.42478 0
M  V30 16627 N 1520.96 -0.130252 -1.57061 0
M  V30 16628 C 1522.38 0.226279 -1.57988 0
M  V30 16629 C 1522.58 1.65902 -1.14363 0
M  V30 16630 O 1521.64 2.38252 -0.836191 0
M  V30 16631 C 1522.95 -0.0172647 -3.00695 0
M  V30 16632 C 1524.5 0.0477572 -3.12964 0
M  V30 16633 C 1524.97 -0.168238 -4.57691 0
M  V30 16634 N 1526.46 -0.114591 -4.63058 0
M  V30 16635 C 1527.2 -0.256462 -5.72826 0
M  V30 16636 N 1526.69 -0.455129 -6.91303 0
M  V30 16637 N 1528.49 -0.195243 -5.61761 0
M  V30 16638 H 1520.64 -1.06594 -1.83716 0
M  V30 16639 H 1522.9 -0.420643 -0.849567 0
M  V30 16640 H 1522.61 -1.00819 -3.3694 0
M  V30 16641 H 1522.48 0.709629 -3.70465 0
M  V30 16642 H 1524.87 1.02922 -2.7657 0
M  V30 16643 H 1524.95 -0.711198 -2.45714 0
M  V30 16644 H 1524.59 -1.14673 -4.94785 0
M  V30 16645 H 1524.52 0.610839 -5.23045 0
M  V30 16646 H 1527.01 0.0349873 -3.77884 0
M  V30 16647 H 1527.33 -0.553943 -7.70812 0
M  V30 16648 H 1525.67 -0.491244 -6.93262 0
M  V30 16649 H 1528.86 -0.0409186 -4.68082 0
M  V30 16650 H 1529.04 -0.309248 -6.47262 0
M  V30 16651 N 1522.44 1.56945 0.143535 0
M  V30 16652 C 1523.38 1.95134 1.2023 0
M  V30 16653 C 1524.39 0.847593 1.38995 0
M  V30 16654 O 1525.58 1.12599 1.38505 0
M  V30 16655 C 1522.68 2.21316 2.56656 0
M  V30 16656 C 1521.85 3.52604 2.58822 0
M  V30 16657 C 1520.91 3.67285 3.76813 0
M  V30 16658 O 1519.94 4.39644 3.61527 0
M  V30 16659 N 1521.14 3.04208 4.94406 0
M  V30 16660 H 1523.9 2.86561 0.87766 0
M  V30 16661 H 1521.46 1.58437 0.333065 0
M  V30 16662 H 1523.46 2.28375 3.34106 0
M  V30 16663 H 1522.03 1.36137 2.81399 0
M  V30 16664 H 1521.25 3.56954 1.67264 0
M  V30 16665 H 1522.53 4.38944 2.57304 0
M  V30 16666 H 1521.93 2.45344 5.09728 0
M  V30 16667 H 1520.49 3.16824 5.69619 0
M  V30 16668 N 1523.92 -0.412991 1.52093 0
M  V30 16669 C 1525.15 -1.18212 1.69805 0
M  V30 16670 C 1525.56 -1.84386 0.405844 0
M  V30 16671 O 1524.92 -1.71725 -0.617809 0
M  V30 16672 C 1524.97 -2.24811 2.83094 0
M  V30 16673 O 1524.69 -1.61338 4.0731 0
M  V30 16674 C 1526.19 -3.14633 3.12283 0
M  V30 16675 H 1523.41 -0.355371 0.569168 0
M  V30 16676 H 1525.96 -0.486392 1.98632 0
M  V30 16677 H 1524.11 -2.90058 2.56797 0
M  V30 16678 H 1524.53 -2.31979 4.7041 0
M  V30 16679 H 1526 -3.85511 3.95076 0
M  V30 16680 H 1526.48 -3.76785 2.25677 0
M  V30 16681 H 1527.08 -2.55059 3.40331 0
M  V30 16682 N 1525.4 -1.4265 -0.669982 0
M  V30 16683 C 1526.63 -1.46784 -1.45816 0
M  V30 16684 C 1527.04 -0.080606 -1.88628 0
M  V30 16685 O 1526.4 0.905687 -1.58441 0
M  V30 16686 C 1526.45 -2.39915 -2.70413 0
M  V30 16687 O 1526.17 -3.73241 -2.29396 0
M  V30 16688 C 1527.67 -2.53118 -3.63931 0
M  V30 16689 H 1524.89 -0.499076 -0.448513 0
M  V30 16690 H 1527.44 -1.87216 -0.822819 0
M  V30 16691 H 1525.59 -2.02722 -3.30125 0
M  V30 16692 H 1526.01 -4.23164 -3.09891 0
M  V30 16693 H 1527.48 -3.22395 -4.48069 0
M  V30 16694 H 1527.96 -1.57062 -4.10156 0
M  V30 16695 H 1528.56 -2.91052 -3.10111 0
M  V30 16696 N 1526.88 0.906753 -1.28902 0
M  V30 16697 C 1528.1 1.69547 -1.19452 0
M  V30 16698 C 1528.53 1.86531 0.242418 0
M  V30 16699 O 1527.89 1.38052 1.17521 0
M  V30 16700 C 1527.93 3.06139 -1.90556 0
M  V30 16701 O 1527.04 3.9401 -1.21779 0
M  V30 16702 H 1526.38 0.518902 -0.41429 0
M  V30 16703 H 1528.91 1.13327 -1.70347 0
M  V30 16704 H 1528.92 3.56326 -1.98736 0
M  V30 16705 H 1527.59 2.93094 -2.95074 0
M  V30 16706 H 1526.17 3.52444 -1.2181 0
M  V30 16707 N 1528.36 1.11264 1.11616 0
M  V30 16708 C 1529.77 0.846176 1.35322 0
M  V30 16709 C 1529.97 -0.530043 1.94404 0
M  V30 16710 O 1529.03 -1.28122 2.1758 0
M  V30 16711 C 1530.34 1.9528 2.28662 0
M  V30 16712 C 1531.89 1.98225 2.42231 0
M  V30 16713 C 1532.36 3.08086 3.38891 0
M  V30 16714 N 1533.85 3.07448 3.46453 0
M  V30 16715 C 1534.59 3.89094 4.21181 0
M  V30 16716 N 1534.09 4.80698 4.989 0
M  V30 16717 N 1535.88 3.77279 4.16674 0
M  V30 16718 H 1528.03 1.99958 0.716284 0
M  V30 16719 H 1530.29 0.869439 0.377862 0
M  V30 16720 H 1530 2.94381 1.92439 0
M  V30 16721 H 1529.87 1.84739 3.28864 0
M  V30 16722 H 1532.26 0.997517 2.77729 0
M  V30 16723 H 1532.34 2.12842 1.41887 0
M  V30 16724 H 1531.98 4.06784 3.0412 0
M  V30 16725 H 1531.91 2.90709 4.39085 0
M  V30 16726 H 1534.41 2.41077 2.91016 0
M  V30 16727 H 1534.72 5.39535 5.53282 0
M  V30 16728 H 1533.06 4.84721 4.98067 0
M  V30 16729 H 1536.25 3.05059 3.55044 0
M  V30 16730 H 1536.43 4.41142 4.74655 0
M  V30 16731 N 1529.83 -1.29188 0.902679 0
M  V30 16732 C 1531.24 -1.77521 0.578207 0
M  V30 16733 C 1531.6 -1.74017 -0.906227 0
M  V30 16734 O 1530.72 -1.32793 -1.70865 0
M  V30 16735 C 1531.32 -3.22352 1.04281 0
M  V30 16736 C 1529.87 -3.68451 0.769454 0
M  V30 16737 C 1529.02 -2.49225 1.21583 0
M  V30 16738 H 1531.97 -1.15807 1.0851 0
M  V30 16739 H 1531.99 -3.78604 0.379396 0
M  V30 16740 H 1531.51 -3.2487 2.12323 0
M  V30 16741 H 1529.61 -3.71405 -0.298223 0
M  V30 16742 H 1529.72 -4.59112 1.36943 0
M  V30 16743 H 1528.08 -2.46663 0.634766 0
M  V30 16744 H 1528.87 -2.54469 2.30436 0
M  V30 16745 N 1531.31 -0.665475 -1.42861 0
M  V30 16746 C 1532.72 -0.26225 -1.84849 0
M  V30 16747 C 1533.07 1.19372 -1.55707 0
M  V30 16748 O 1532.2 1.91269 -1.01218 0
M  V30 16749 C 1532.79 -0.469189 -3.35535 0
M  V30 16750 C 1531.35 -0.120172 -3.76208 0
M  V30 16751 C 1530.5 -0.766153 -2.66506 0
M  V30 16752 H 1533.45 -0.868296 -1.32839 0
M  V30 16753 H 1533.47 0.281571 -3.79457 0
M  V30 16754 H 1532.98 -1.52894 -3.56714 0
M  V30 16755 H 1531.08 0.936505 -3.60639 0
M  V30 16756 H 1531.2 -0.554188 -4.75884 0
M  V30 16757 H 1529.56 -0.198292 -2.53927 0
M  V30 16758 H 1530.34 -1.82918 -2.9051 0
M  V30 16759 N 1532.79 1.52222 -0.408187 0
M  V30 16760 C 1534.2 1.86598 0.0616213 0
M  V30 16761 C 1534.55 1.32698 1.44519 0
M  V30 16762 O 1533.68 0.665883 2.059 0
M  V30 16763 C 1534.27 3.38592 0.118595 0
M  V30 16764 C 1532.83 3.72611 0.532737 0
M  V30 16765 C 1531.98 2.75744 -0.293356 0
M  V30 16766 H 1534.93 1.45862 -0.625291 0
M  V30 16767 H 1534.95 3.68858 0.934039 0
M  V30 16768 H 1534.46 3.77792 -0.888516 0
M  V30 16769 H 1532.56 3.38989 1.54652 0
M  V30 16770 H 1532.68 4.78294 0.277777 0
M  V30 16771 H 1531.04 2.53527 0.244166 0
M  V30 16772 H 1531.82 3.17783 -1.2988 0
M  V30 16773 N 1534.27 0.138579 1.5699 0
M  V30 16774 C 1535.23 -0.79013 2.1515 0
M  V30 16775 C 1536.23 -1.1811 1.09117 0
M  V30 16776 O 1537.42 -1.1034 1.34798 0
M  V30 16777 C 1534.55 -2.07109 2.70774 0
M  V30 16778 H 1535.75 -0.284343 2.98549 0
M  V30 16779 H 1533.3 -0.11081 1.55907 0
M  V30 16780 H 1534.03 -2.62074 1.91018 0
M  V30 16781 H 1533.82 -1.80004 3.4834 0
M  V30 16782 H 1535.31 -2.73456 3.15613 0
M  V30 16783 N 1535.75 -1.57019 -0.13521 0
M  V30 16784 C 1536.99 -1.83626 -0.844147 0
M  V30 16785 C 1537.31 -0.721298 -1.81169 0
M  V30 16786 O 1536.58 0.256095 -1.94219 0
M  V30 16787 H 1535.16 -0.677464 -0.314725 0
M  V30 16788 H 1537.83 -1.9449 -0.126399 0
M  V30 16789 H 1536.92 -2.78976 -1.39925 0
M  V30 16790 N 1537.22 0.404919 -1.52309 0
M  V30 16791 C 1538.47 1.14921 -1.66246 0
M  V30 16792 C 1538.79 1.90919 -0.396868 0
M  V30 16793 O 1538.06 1.86856 0.588361 0
M  V30 16794 H 1536.64 0.427223 -0.612772 0
M  V30 16795 H 1539.31 0.461091 -1.89367 0
M  V30 16796 H 1538.4 1.86095 -2.5055 0
M  V30 16797 N 1538.7 1.43003 0.662408 0
M  V30 16798 C 1540.12 1.26201 0.977003 0
M  V30 16799 C 1540.32 0.175104 2.00738 0
M  V30 16800 O 1539.37 -0.44954 2.48466 0
M  V30 16801 C 1540.69 2.62319 1.47001 0
M  V30 16802 C 1542.24 2.69776 1.58714 0
M  V30 16803 C 1542.71 4.06289 2.11408 0
M  V30 16804 N 1544.2 4.08307 2.18724 0
M  V30 16805 C 1544.94 5.10761 2.60598 0
M  V30 16806 N 1544.43 6.23593 3.01834 0
M  V30 16807 N 1546.23 4.98115 2.60456 0
M  V30 16808 H 1538.38 2.12391 -0.0195698 0
M  V30 16809 H 1540.64 0.946472 0.0538044 0
M  V30 16810 H 1540.35 3.42773 0.78736 0
M  V30 16811 H 1540.22 2.87088 2.44664 0
M  V30 16812 H 1542.61 1.89659 2.26083 0
M  V30 16813 H 1542.69 2.48782 0.595081 0
M  V30 16814 H 1542.33 4.86868 1.44644 0
M  V30 16815 H 1542.26 4.24641 3.11428 0
M  V30 16816 H 1544.75 3.26857 1.89665 0
M  V30 16817 H 1545.07 6.97609 3.32509 0
M  V30 16818 H 1543.41 6.27079 2.99661 0
M  V30 16819 H 1546.6 4.09037 2.27611 0
M  V30 16820 H 1546.77 5.78092 2.92769 0
M  V30 16821 N 1540.18 -0.899904 1.29381 0
M  V30 16822 C 1541.59 -1.46563 1.15655 0
M  V30 16823 C 1541.94 -1.94622 -0.248375 0
M  V30 16824 O 1541.07 -1.83698 -1.14386 0
M  V30 16825 C 1541.66 -2.66384 2.09344 0
M  V30 16826 C 1540.22 -3.19093 1.99641 0
M  V30 16827 C 1539.37 -1.91786 2.00283 0
M  V30 16828 H 1542.32 -0.711264 1.41869 0
M  V30 16829 H 1542.34 -3.42111 1.66554 0
M  V30 16830 H 1541.85 -2.31376 3.11587 0
M  V30 16831 H 1539.95 -3.58795 1.00485 0
M  V30 16832 H 1540.07 -3.83405 2.87293 0
M  V30 16833 H 1538.43 -2.09482 1.44878 0
M  V30 16834 H 1539.21 -1.59055 3.04231 0
M  V30 16835 N 1541.66 -1.11854 -1.11024 0
M  V30 16836 C 1542.61 -0.780825 -2.17191 0
M  V30 16837 C 1543.58 0.249657 -1.64213 0
M  V30 16838 O 1544.76 0.125603 -1.90386 0
M  V30 16839 C 1541.9 -0.23491 -3.443 0
M  V30 16840 C 1541.01 -1.32247 -4.1126 0
M  V30 16841 C 1540.15 -0.736638 -5.26068 0
M  V30 16842 C 1539.19 -1.80375 -5.8492 0
M  V30 16843 N 1538.32 -1.23709 -6.91115 0
M  V30 16844 H 1543.16 -1.69031 -2.45423 0
M  V30 16845 H 1540.7 -0.844041 -1.20476 0
M  V30 16846 H 1542.66 0.0996064 -4.17081 0
M  V30 16847 H 1541.29 0.637752 -3.16437 0
M  V30 16848 H 1540.34 -1.77387 -3.36509 0
M  V30 16849 H 1541.65 -2.12965 -4.51051 0
M  V30 16850 H 1540.81 -0.352432 -6.05675 0
M  V30 16851 H 1539.55 0.101811 -4.87594 0
M  V30 16852 H 1538.55 -2.19721 -5.03987 0
M  V30 16853 H 1539.78 -2.64531 -6.2546 0
M  V30 16854 H 1537.72 -0.420357 -6.54652 0
M  V30 16855 H 1537.64 -1.98093 -7.29586 0
M  V30 16856 H 1538.91 -0.879912 -7.74518 0
M  V30 16857 N 1543.14 1.28707 -0.909517 0
M  V30 16858 C 1544.55 1.77212 -0.587613 0
M  V30 16859 C 1544.9 1.74495 0.896986 0
M  V30 16860 O 1544.02 1.33698 1.70158 0
M  V30 16861 C 1544.62 3.21794 -1.05989 0
M  V30 16862 C 1543.18 3.68038 -0.788983 0
M  V30 16863 C 1542.32 2.48576 -1.22903 0
M  V30 16864 H 1545.28 1.1523 -1.09122 0
M  V30 16865 H 1545.3 3.78397 -0.399469 0
M  V30 16866 H 1544.81 3.23739 -2.14043 0
M  V30 16867 H 1542.91 3.71558 0.278523 0
M  V30 16868 H 1543.02 4.58379 -1.39376 0
M  V30 16869 H 1541.39 2.46323 -0.647838 0
M  V30 16870 H 1542.17 2.53243 -2.31782 0
M  V30 16871 N 1544.61 0.673042 1.42506 0
M  V30 16872 C 1545.55 -0.0452975 2.29155 0
M  V30 16873 C 1546.56 -0.767277 1.43585 0
M  V30 16874 O 1547.75 -0.621728 1.67322 0
M  V30 16875 C 1544.85 -1.0878 3.20967 0
M  V30 16876 C 1544.02 -0.439999 4.35181 0
M  V30 16877 C 1543.08 -1.38205 5.07726 0
M  V30 16878 O 1542.11 -0.883031 5.62309 0
M  V30 16879 N 1543.31 -2.7154 5.13075 0
M  V30 16880 H 1546.07 0.698517 2.91446 0
M  V30 16881 H 1543.63 0.517322 1.53412 0
M  V30 16882 H 1545.63 -1.71925 3.66366 0
M  V30 16883 H 1544.2 -1.73337 2.6014 0
M  V30 16884 H 1543.42 0.370926 3.92451 0
M  V30 16885 H 1544.7 0.0113738 5.08799 0
M  V30 16886 H 1544.1 -3.14623 4.70137 0
M  V30 16887 H 1542.66 -3.29937 5.62126 0
M  V30 16888 N 1546.09 -1.52004 0.416254 0
M  V30 16889 C 1547.5 -1.86628 -0.0517247 0
M  V30 16890 C 1547.85 -1.33463 -1.43813 0
M  V30 16891 O 1546.98 -0.676793 -2.05544 0
M  V30 16892 C 1547.57 -3.38651 -0.100637 0
M  V30 16893 C 1546.13 -3.72888 -0.512969 0
M  V30 16894 C 1545.28 -2.75584 0.307975 0
M  V30 16895 H 1548.23 -1.45529 0.633018 0
M  V30 16896 H 1548.25 -3.69348 -0.914465 0
M  V30 16897 H 1547.76 -3.77316 0.908538 0
M  V30 16898 H 1545.87 -3.39804 -1.52852 0
M  V30 16899 H 1545.98 -4.78435 -0.252408 0
M  V30 16900 H 1544.34 -2.53653 -0.230717 0
M  V30 16901 H 1545.13 -3.1709 1.31563 0
M  V30 16902 N 1547.57 -0.146903 -1.56914 0
M  V30 16903 C 1548.52 0.792821 -2.16756 0
M  V30 16904 C 1549.49 1.2442 -1.1004 0
M  V30 16905 O 1550.67 1.31674 -1.38081 0
M  V30 16906 C 1547.81 2.02659 -2.79327 0
M  V30 16907 C 1546.93 1.62102 -4.00433 0
M  V30 16908 C 1546.06 2.80658 -4.51004 0
M  V30 16909 C 1545.1 2.36474 -5.64576 0
M  V30 16910 N 1544.24 3.48038 -6.09766 0
M  V30 16911 H 1549.08 0.275708 -2.96722 0
M  V30 16912 H 1546.61 0.124374 -1.46573 0
M  V30 16913 H 1548.57 2.74986 -3.13749 0
M  V30 16914 H 1547.2 2.51781 -2.02005 0
M  V30 16915 H 1546.25 0.795407 -3.71991 0
M  V30 16916 H 1547.57 1.25652 -4.82714 0
M  V30 16917 H 1546.72 3.61175 -4.87481 0
M  V30 16918 H 1545.46 3.20353 -3.6773 0
M  V30 16919 H 1544.46 1.54397 -5.27676 0
M  V30 16920 H 1545.69 1.97865 -6.49635 0
M  V30 16921 H 1543.63 3.87354 -5.29427 0
M  V30 16922 H 1543.55 3.15602 -6.86972 0
M  V30 16923 H 1544.82 4.28912 -6.50887 0
M  V30 16924 N 1549.05 1.57088 0.126881 0
M  V30 16925 C 1550.46 1.73685 0.684865 0
M  V30 16926 C 1550.81 0.764401 1.80697 0
M  V30 16927 O 1549.94 -0.0644761 2.16304 0
M  V30 16928 C 1550.53 3.14933 1.24911 0
M  V30 16929 C 1549.09 3.33063 1.75346 0
M  V30 16930 C 1548.24 2.69575 0.649976 0
M  V30 16931 H 1551.19 1.58391 -0.0989715 0
M  V30 16932 H 1551.21 3.16047 2.11884 0
M  V30 16933 H 1550.72 3.85686 0.432204 0
M  V30 16934 H 1548.82 2.67339 2.59539 0
M  V30 16935 H 1548.93 4.41169 1.86833 0
M  V30 16936 H 1547.3 2.30592 1.08163 0
M  V30 16937 H 1548.08 3.42946 -0.15582 0
M  V30 16938 N 1550.53 -0.396836 1.52522 0
M  V30 16939 C 1551.47 -1.48427 1.76743 0
M  V30 16940 C 1552.44 -1.54481 0.610321 0
M  V30 16941 O 1553.63 -1.7086 0.849201 0
M  V30 16942 C 1550.77 -2.85744 1.93505 0
M  V30 16943 C 1549.88 -2.88904 3.21183 0
M  V30 16944 C 1549.02 -4.17598 3.28307 0
M  V30 16945 C 1548.06 -4.14779 4.50138 0
M  V30 16946 N 1547.19 -5.35065 4.54587 0
M  V30 16947 H 1552.03 -1.27075 2.69548 0
M  V30 16948 H 1549.57 -0.61661 1.33553 0
M  V30 16949 H 1551.53 -3.65474 2.01208 0
M  V30 16950 H 1550.16 -3.05564 1.04069 0
M  V30 16951 H 1549.21 -2.01592 3.22591 0
M  V30 16952 H 1550.52 -2.82688 4.10961 0
M  V30 16953 H 1549.68 -5.05727 3.35149 0
M  V30 16954 H 1548.41 -4.26526 2.36489 0
M  V30 16955 H 1547.42 -3.25039 4.4343 0
M  V30 16956 H 1548.64 -4.07481 5.43264 0
M  V30 16957 H 1546.59 -5.44638 3.65658 0
M  V30 16958 H 1546.51 -5.30894 5.38227 0
M  V30 16959 H 1547.78 -6.25114 4.65675 0
M  V30 16960 N 1552.01 -1.43353 -0.654814 0
M  V30 16961 C 1553.42 -1.39933 -1.23595 0
M  V30 16962 C 1553.77 -0.102592 -1.95932 0
M  V30 16963 O 1552.89 0.798021 -2.01148 0
M  V30 16964 C 1553.49 -2.53483 -2.24793 0
M  V30 16965 C 1552.05 -2.53333 -2.78387 0
M  V30 16966 C 1551.19 -2.31268 -1.53005 0
M  V30 16967 H 1554.14 -1.52277 -0.446932 0
M  V30 16968 H 1554.17 -2.2488 -3.06935 0
M  V30 16969 H 1553.68 -3.47847 -1.72116 0
M  V30 16970 H 1551.78 -1.62844 -3.35131 0
M  V30 16971 H 1551.89 -3.51047 -3.26041 0
M  V30 16972 H 1550.26 -1.79905 -1.80295 0
M  V30 16973 H 1551.04 -3.27714 -1.02266 0
M  V30 16974 N 1553.48 0.89303 -1.29857 0
M  V30 16975 C 1554.42 2.00327 -1.11364 0
M  V30 16976 C 1555.43 1.62692 -0.0591968 0
M  V30 16977 O 1556.62 1.75885 -0.3044 0
M  V30 16978 C 1553.72 3.3212 -0.674518 0
M  V30 16979 C 1552.89 3.98241 -1.80895 0
M  V30 16980 C 1551.95 5.08329 -1.35972 0
M  V30 16981 O 1550.98 5.30398 -2.06558 0
M  V30 16982 N 1552.18 5.80027 -0.234282 0
M  V30 16983 H 1554.94 2.16743 -2.06984 0
M  V30 16984 H 1552.5 1.06563 -1.21885 0
M  V30 16985 H 1554.5 4.03121 -0.357167 0
M  V30 16986 H 1553.07 3.12026 0.189414 0
M  V30 16987 H 1552.29 3.20517 -2.29483 0
M  V30 16988 H 1553.57 4.39158 -2.56939 0
M  V30 16989 H 1552.97 5.64591 0.354068 0
M  V30 16990 H 1551.53 6.51796 0.0236623 0
M  V30 16991 N 1554.96 1.12442 1.10429 0
M  V30 16992 C 1556.21 0.881062 1.82661 0
M  V30 16993 C 1556.54 -0.591636 1.84968 0
M  V30 16994 O 1555.82 -1.43734 1.31037 0
M  V30 16995 C 1556.1 1.45658 3.29326 0
M  V30 16996 C 1555.95 2.99766 3.35352 0
M  V30 16997 C 1557.27 1.1162 4.2571 0
M  V30 16998 H 1554.39 0.321516 0.663172 0
M  V30 16999 H 1557.03 1.39102 1.29424 0
M  V30 17000 H 1555.18 1.02286 3.74793 0
M  V30 17001 H 1556.85 3.51818 2.98365 0
M  V30 17002 H 1555.1 3.35292 2.75249 0
M  V30 17003 H 1555.77 3.35128 4.38627 0
M  V30 17004 H 1558.24 1.49081 3.88477 0
M  V30 17005 H 1557.12 1.54552 5.26692 0
M  V30 17006 H 1557.38 0.0284093 4.42091 0
M  V30 17007 N 1556.44 -1.28223 0.91633 0
M  V30 17008 C 1557.85 -1.76898 0.597003 0
M  V30 17009 C 1558.2 -1.74969 -0.887719 0
M  V30 17010 O 1557.33 -1.34598 -1.69447 0
M  V30 17011 C 1557.92 -3.21228 1.07694 0
M  V30 17012 C 1556.48 -3.67614 0.80849 0
M  V30 17013 C 1555.63 -2.47921 1.24219 0
M  V30 17014 H 1558.58 -1.1465 1.09732 0
M  V30 17015 H 1558.6 -3.7818 0.419531 0
M  V30 17016 H 1558.11 -3.226 2.15757 0
M  V30 17017 H 1556.21 -3.717 -0.258814 0
M  V30 17018 H 1556.33 -4.57633 1.41804 0
M  V30 17019 H 1554.69 -2.45976 0.660892 0
M  V30 17020 H 1555.47 -2.5201 2.33122 0
M  V30 17021 N 1557.92 -0.68059 -1.42147 0
M  V30 17022 C 1558.85 0.0331442 -2.29176 0
M  V30 17023 C 1559.86 0.759652 -1.4399 0
M  V30 17024 O 1561.05 0.612846 -1.6765 0
M  V30 17025 C 1558.15 1.07077 -3.2154 0
M  V30 17026 C 1557.32 0.416914 -4.35409 0
M  V30 17027 C 1556.38 1.3551 -5.08452 0
M  V30 17028 O 1555.41 0.853198 -5.62769 0
M  V30 17029 N 1556.61 2.68815 -5.14508 0
M  V30 17030 H 1559.38 -0.713963 -2.91072 0
M  V30 17031 H 1556.94 -0.525451 -1.53136 0
M  V30 17032 H 1558.93 1.6998 -3.67272 0
M  V30 17033 H 1557.5 1.71955 -2.61056 0
M  V30 17034 H 1556.72 -0.391734 -3.92249 0
M  V30 17035 H 1558.01 -0.0383564 -5.08786 0
M  V30 17036 H 1557.41 3.12125 -4.71799 0
M  V30 17037 H 1555.96 3.26951 -5.63867 0
M  V30 17038 N 1559.4 1.51781 -0.424309 0
M  V30 17039 C 1560.64 2.03879 0.145828 0
M  V30 17040 C 1561 1.30226 1.41086 0
M  V30 17041 O 1562.2 1.72629 2.06041 0
M  V30 17042 C 1560.47 3.55454 0.372466 0
M  V30 17043 S 1562.03 4.29305 0.907876 0
M  V30 17044 H 1558.85 0.709986 0.0379529 0
M  V30 17045 H 1561.45 1.86676 -0.58072 0
M  V30 17046 H 1560.15 4.06633 -0.554778 0
M  V30 17047 H 1559.69 3.76928 1.12646 0
M  V30 17048 H 1561.7 4.4541 2.18687 0
M  V30 17049 N 1560.87 0.155222 1.56834 0
M  V30 17050 C 1561.82 -0.781315 2.17173 0
M  V30 17051 C 1562.79 -1.23835 1.10699 0
M  V30 17052 O 1563.98 -1.3094 1.38778 0
M  V30 17053 C 1561.12 -2.01174 2.80398 0
M  V30 17054 C 1560.23 -1.59976 4.01287 0
M  V30 17055 C 1559.36 -2.78262 4.52486 0
M  V30 17056 C 1558.4 -2.33477 5.65822 0
M  V30 17057 N 1557.54 -3.44799 6.11603 0
M  V30 17058 H 1562.38 -0.259968 2.96864 0
M  V30 17059 H 1559.92 -0.116599 1.46637 0
M  V30 17060 H 1561.87 -2.73318 3.15203 0
M  V30 17061 H 1560.5 -2.50706 2.03338 0
M  V30 17062 H 1559.56 -0.775668 3.72408 0
M  V30 17063 H 1560.87 -1.2309 4.83374 0
M  V30 17064 H 1560.02 -3.58585 4.89389 0
M  V30 17065 H 1558.76 -3.18398 3.69424 0
M  V30 17066 H 1557.77 -1.51596 5.28487 0
M  V30 17067 H 1558.99 -1.94417 6.50676 0
M  V30 17068 H 1556.94 -3.84541 5.31474 0
M  V30 17069 H 1556.85 -3.11955 6.88637 0
M  V30 17070 H 1558.12 -4.25454 6.53153 0
M  V30 17071 N 1562.35 -1.57153 -0.118549 0
M  V30 17072 C 1563.31 -1.99438 -1.12947 0
M  V30 17073 C 1564.31 -0.884588 -1.34282 0
M  V30 17074 O 1565.5 -1.15062 -1.30792 0
M  V30 17075 C 1562.64 -2.33492 -2.48384 0
M  V30 17076 H 1563.83 -2.89952 -0.766034 0
M  V30 17077 H 1561.38 -1.5203 -0.362858 0
M  V30 17078 H 1562.12 -1.45859 -2.89647 0
M  V30 17079 H 1561.9 -3.14433 -2.34252 0
M  V30 17080 H 1563.39 -2.66945 -3.21139 0
M  V30 17081 N 1563.83 0.388742 -1.5273 0
M  V30 17082 C 1564.76 1.48133 -1.80496 0
M  V30 17083 C 1565.74 1.56899 -0.657008 0
M  V30 17084 O 1566.93 1.71844 -0.904621 0
M  V30 17085 C 1564.06 2.85742 -1.97405 0
M  V30 17086 C 1563.01 2.91815 -3.13094 0
M  V30 17087 C 1562.34 4.31876 -3.15258 0
M  V30 17088 C 1563.64 2.61438 -4.52159 0
M  V30 17089 H 1565.33 1.25147 -2.7199 0
M  V30 17090 H 1562.88 0.600603 -1.30877 0
M  V30 17091 H 1564.83 3.62182 -2.15412 0
M  V30 17092 H 1563.55 3.10065 -1.02601 0
M  V30 17093 H 1562.21 2.17824 -2.9487 0
M  V30 17094 H 1561.86 4.53239 -2.18135 0
M  V30 17095 H 1561.56 4.3686 -3.92972 0
M  V30 17096 H 1563.08 5.10221 -3.3542 0
M  V30 17097 H 1564.5 3.27596 -4.70483 0
M  V30 17098 H 1562.89 2.77771 -5.31943 0
M  V30 17099 H 1563.96 1.56778 -4.58856 0
M  V30 17100 N 1565.31 1.43698 0.647203 0
M  V30 17101 C 1566.54 1.48869 1.43254 0
M  V30 17102 C 1566.95 0.107061 1.88897 0
M  V30 17103 O 1566.29 -0.894189 1.60468 0
M  V30 17104 C 1566.35 2.37755 2.69653 0
M  V30 17105 C 1566.01 3.85197 2.45911 0
M  V30 17106 C 1567.01 4.7615 2.08752 0
M  V30 17107 C 1564.7 4.29744 2.60049 0
M  V30 17108 C 1566.69 6.09647 1.86037 0
M  V30 17109 C 1564.38 5.63293 2.36949 0
M  V30 17110 C 1565.38 6.53061 1.99999 0
M  V30 17111 O 1565.06 7.8414 1.77144 0
M  V30 17112 H 1564.8 0.507694 0.446343 0
M  V30 17113 H 1567.35 1.89172 0.800205 0
M  V30 17114 H 1565.58 1.9235 3.35467 0
M  V30 17115 H 1567.27 2.3406 3.31618 0
M  V30 17116 H 1568.03 4.4301 1.974 0
M  V30 17117 H 1563.91 3.60142 2.87782 0
M  V30 17118 H 1567.46 6.79676 1.57121 0
M  V30 17119 H 1563.35 5.95998 2.47905 0
M  V30 17120 H 1564.12 7.95778 1.91521 0
M  V30 17121 N 1566.79 -0.886131 1.30328 0
M  V30 17122 C 1567.75 -1.97328 1.16594 0
M  V30 17123 C 1568.75 -1.60504 0.0975023 0
M  V30 17124 O 1569.94 -1.70739 0.345524 0
M  V30 17125 C 1567.07 -3.31714 0.786045 0
M  V30 17126 H 1568.26 -2.1094 2.13177 0
M  V30 17127 H 1565.82 -1.07238 1.13708 0
M  V30 17128 H 1566.55 -3.23804 -0.179334 0
M  V30 17129 H 1566.34 -3.5981 1.55817 0
M  V30 17130 H 1567.83 -4.11461 0.71339 0
M  V30 17131 N 1568.26 -1.13026 -1.09832 0
M  V30 17132 C 1569.49 -0.911137 -1.85423 0
M  V30 17133 C 1569.9 0.543325 -1.81231 0
M  V30 17134 O 1569.25 1.38768 -1.20371 0
M  V30 17135 C 1569.31 -1.31584 -3.34553 0
M  V30 17136 C 1568.97 -2.78288 -3.62498 0
M  V30 17137 C 1569.97 -3.7646 -3.58572 0
M  V30 17138 C 1567.65 -3.15346 -3.90976 0
M  V30 17139 C 1569.65 -5.09703 -3.82729 0
M  V30 17140 C 1567.33 -4.4877 -4.14788 0
M  V30 17141 C 1568.33 -5.45758 -4.10655 0
M  V30 17142 O 1568.02 -6.76775 -4.33856 0
M  V30 17143 H 1567.75 -0.325117 -0.592684 0
M  V30 17144 H 1570.31 -1.50559 -1.39718 0
M  V30 17145 H 1568.54 -0.664628 -3.80946 0
M  V30 17146 H 1570.23 -1.06986 -3.91547 0
M  V30 17147 H 1570.99 -3.49175 -3.36603 0
M  V30 17148 H 1566.87 -2.40459 -3.9332 0
M  V30 17149 H 1570.41 -5.85395 -3.79418 0
M  V30 17150 H 1566.31 -4.75781 -4.36237 0
M  V30 17151 H 1567.08 -6.82815 -4.51338 0
M  V30 17152 N 1569.74 1.27735 -0.923117 0
M  V30 17153 C 1571.02 1.89626 -0.479724 0
M  V30 17154 C 1571.4 1.83592 1.04197 0
M  V30 17155 O 1570.75 1.27808 1.89413 0
M  V30 17156 C 1570.96 3.33742 -1.02064 0
M  V30 17157 C 1572.31 4.10678 -1.07837 0
M  V30 17158 O 1573.33 3.4274 -0.969943 0
M  V30 17159 O 1572.19 5.32135 -1.24476 0
M  V30 17160 H 1569.28 0.812615 -0.153575 0
M  V30 17161 H 1571.83 1.36036 -1.01451 0
M  V30 17162 H 1570.6 3.32404 -2.06454 0
M  V30 17163 H 1570.22 3.94845 -0.467234 0
M  V30 17164 N 1571.22 0.688118 1.41784 0
M  V30 17165 C 1572.18 0.0271411 2.29184 0
M  V30 17166 C 1573.18 -0.715537 1.44002 0
M  V30 17167 O 1574.37 -0.551542 1.65238 0
M  V30 17168 C 1571.51 -0.97206 3.26747 0
M  V30 17169 H 1572.7 0.79658 2.89127 0
M  V30 17170 H 1570.25 0.451198 1.49646 0
M  V30 17171 H 1570.99 -1.76953 2.71769 0
M  V30 17172 H 1570.77 -0.442746 3.89592 0
M  V30 17173 H 1572.26 -1.43256 3.92259 0
M  V30 17174 N 1572.7 -1.51554 0.432352 0
M  V30 17175 C 1573.63 -2.25369 -0.417328 0
M  V30 17176 C 1574.64 -1.29197 -0.990551 0
M  V30 17177 O 1575.83 -1.54985 -0.885539 0
M  V30 17178 C 1572.93 -2.99006 -1.59526 0
M  V30 17179 C 1572.11 -4.22234 -1.1418 0
M  V30 17180 C 1571.16 -4.78495 -2.18928 0
M  V30 17181 O 1570.19 -5.40465 -1.78566 0
M  V30 17182 N 1571.39 -4.62091 -3.51358 0
M  V30 17183 H 1574.16 -2.98926 0.215294 0
M  V30 17184 H 1571.72 -1.59783 0.26097 0
M  V30 17185 H 1573.71 -3.33532 -2.29212 0
M  V30 17186 H 1572.28 -2.28491 -2.13332 0
M  V30 17187 H 1571.5 -3.93259 -0.272182 0
M  V30 17188 H 1572.79 -5.02212 -0.816145 0
M  V30 17189 H 1572.19 -4.12718 -3.86885 0
M  V30 17190 H 1570.74 -5.00992 -4.16953 0
M  V30 17191 N 1574.18 -0.163538 -1.56749 0
M  V30 17192 C 1575.45 0.529349 -1.88301 0
M  V30 17193 C 1575.83 1.81844 -1.07219 0
M  V30 17194 O 1575.18 2.27912 -0.16381 0
M  V30 17195 C 1575.39 0.778796 -3.402 0
M  V30 17196 C 1576.74 1.11225 -4.09773 0
M  V30 17197 O 1577.76 0.867598 -3.45472 0
M  V30 17198 O 1576.62 1.57344 -5.2336 0
M  V30 17199 H 1573.72 0.271928 -0.781015 0
M  V30 17200 H 1576.26 -0.20139 -1.68501 0
M  V30 17201 H 1575.03 -0.132839 -3.91074 0
M  V30 17202 H 1574.66 1.56313 -3.65584 0
M  V30 17203 N 1575.65 1.57214 0.110213 0
M  V30 17204 C 1576.88 1.89505 0.830391 0
M  V30 17205 C 1577.3 0.755702 1.73016 0
M  V30 17206 O 1576.65 -0.273072 1.80445 0
M  V30 17207 C 1576.71 3.21316 1.65646 0
M  V30 17208 O 1576.43 4.30865 0.7929 0
M  V30 17209 C 1577.93 3.67369 2.48102 0
M  V30 17210 H 1575.15 0.627277 0.238252 0
M  V30 17211 H 1577.69 2.04293 0.0919716 0
M  V30 17212 H 1575.85 3.08171 2.34754 0
M  V30 17213 H 1576.26 5.06466 1.36353 0
M  V30 17214 H 1577.73 4.62335 3.0158 0
M  V30 17215 H 1578.21 2.94459 3.25869 0
M  V30 17216 H 1578.82 3.83331 1.8422 0
M  V30 17217 N 1577.13 -0.380637 1.52934 0
M  V30 17218 C 1578.41 -1.13958 1.58975 0
M  V30 17219 C 1578.79 -2.07503 0.388028 0
M  V30 17220 O 1578.14 -2.19844 -0.622984 0
M  V30 17221 C 1578.35 -1.89192 2.9327 0
M  V30 17222 C 1579.7 -2.44259 3.47308 0
M  V30 17223 O 1580.72 -1.99338 2.95199 0
M  V30 17224 O 1579.58 -3.26338 4.38367 0
M  V30 17225 H 1576.67 -0.521896 0.641525 0
M  V30 17226 H 1579.22 -0.385114 1.65272 0
M  V30 17227 H 1577.99 -1.20834 3.72176 0
M  V30 17228 H 1577.61 -2.71581 2.90395 0
M  V30 17229 N 1578.61 -1.44039 -0.639573 0
M  V30 17230 C 1579.52 -1.52728 -1.78077 0
M  V30 17231 C 1580.54 -0.413467 -1.69016 0
M  V30 17232 O 1581.71 -0.669592 -1.89943 0
M  V30 17233 C 1578.78 -1.46078 -3.14424 0
M  V30 17234 C 1577.84 -2.68242 -3.35179 0
M  V30 17235 C 1577.07 -2.61899 -4.65021 0
M  V30 17236 O 1577.29 -1.67431 -5.45273 0
M  V30 17237 O 1576.23 -3.52619 -4.87795 0
M  V30 17238 H 1580.05 -2.49122 -1.737 0
M  V30 17239 H 1577.64 -1.26191 -0.799755 0
M  V30 17240 H 1579.52 -1.44861 -3.95719 0
M  V30 17241 H 1578.2 -0.528236 -3.19361 0
M  V30 17242 H 1577.1 -2.75028 -2.53595 0
M  V30 17243 H 1578.44 -3.60514 -3.35098 0
M  V30 17244 N 1580.09 0.879207 -1.30796 0
M  V30 17245 C 1581.02 2.00158 -1.20246 0
M  V30 17246 C 1582 1.69852 -0.091769 0
M  V30 17247 O 1583.18 1.92246 -0.274792 0
M  V30 17248 C 1580.31 3.3545 -0.899472 0
M  V30 17249 C 1579.27 3.80033 -1.96873 0
M  V30 17250 C 1578.59 5.12681 -1.51861 0
M  V30 17251 C 1579.89 3.98136 -3.38061 0
M  V30 17252 H 1581.59 2.09242 -2.14145 0
M  V30 17253 H 1579.13 1.00535 -1.03096 0
M  V30 17254 H 1581.09 4.13497 -0.812299 0
M  V30 17255 H 1579.81 3.26513 0.075189 0
M  V30 17256 H 1578.47 3.04219 -2.04564 0
M  V30 17257 H 1578.12 5.00178 -0.532063 0
M  V30 17258 H 1577.82 5.43482 -2.23386 0
M  V30 17259 H 1579.34 5.93247 -1.44534 0
M  V30 17260 H 1580.76 4.66604 -3.33096 0
M  V30 17261 H 1579.15 4.40321 -4.07722 0
M  V30 17262 H 1580.22 3.01807 -3.79526 0
M  V30 17263 N 1581.57 1.13606 1.09231 0
M  V30 17264 C 1582.79 0.922667 1.85746 0
M  V30 17265 C 1583.22 -0.523381 1.80672 0
M  V30 17266 O 1582.58 -1.37156 1.18566 0
M  V30 17267 C 1582.62 1.41762 3.31566 0
M  V30 17268 O 1581.73 0.60418 4.0795 0
M  V30 17269 H 1581.07 0.330523 0.575891 0
M  V30 17270 H 1583.6 1.51123 1.37924 0
M  V30 17271 H 1583.61 1.42212 3.82413 0
M  V30 17272 H 1582.28 2.47048 3.34574 0
M  V30 17273 H 1580.86 0.667721 3.66873 0
M  V30 17274 N 1583.05 -1.27244 0.929878 0
M  V30 17275 C 1584.29 -1.94269 0.57146 0
M  V30 17276 C 1584.62 -1.73064 -0.887639 0
M  V30 17277 O 1583.88 -1.05422 -1.64878 0
M  V30 17278 C 1584.17 -3.47233 0.846386 0
M  V30 17279 C 1583.84 -3.88563 2.28757 0
M  V30 17280 C 1582.5 -3.99557 2.68156 0
M  V30 17281 C 1584.85 -4.09468 3.22467 0
M  V30 17282 C 1582.18 -4.28846 4.00385 0
M  V30 17283 C 1584.53 -4.40242 4.54279 0
M  V30 17284 C 1583.2 -4.4945 4.93509 0
M  V30 17285 H 1582.47 -0.710882 0.209112 0
M  V30 17286 H 1585.12 -1.51273 1.17425 0
M  V30 17287 H 1583.42 -3.91469 0.160941 0
M  V30 17288 H 1585.12 -3.97238 0.548006 0
M  V30 17289 H 1581.71 -3.80544 1.97192 0
M  V30 17290 H 1585.89 -4.00412 2.9323 0
M  V30 17291 H 1581.15 -4.34184 4.30458 0
M  V30 17292 H 1585.32 -4.55365 5.26892 0
M  V30 17293 H 1582.95 -4.71899 5.95999 0
M  V30 17294 N 1584.52 -0.695628 -1.41417 0
M  V30 17295 C 1585.47 -0.0189456 -2.32592 0
M  V30 17296 C 1586.47 0.76848 -1.50966 0
M  V30 17297 O 1587.67 0.674096 -1.66901 0
M  V30 17298 H 1584.05 0.0126742 -0.751893 0
M  V30 17299 H 1586.02 -0.804968 -2.87337 0
M  V30 17300 C 1584.77 0.903458 -3.35757 0
M  V30 17301 H 1584.09 0.306963 -3.9862 0
M  V30 17302 H 1585.53 1.34525 -4.02093 0
M  V30 17303 C 1583.99 2.01966 -2.69651 0
M  V30 17304 O 1584.52 3.10845 -2.54438 0
M  V30 17305 N 1582.72 1.79741 -2.28345 0
M  V30 17306 H 1582.27 0.911929 -2.40918 0
M  V30 17307 H 1582.23 2.54609 -1.84449 0
M  V30 17308 N 1586 1.51322 -0.440383 0
M  V30 17309 C 1586.96 2.26388 0.357911 0
M  V30 17310 C 1587.96 1.2995 0.947083 0
M  V30 17311 O 1589.15 1.53637 0.821057 0
M  V30 17312 C 1586.29 3.05797 1.50669 0
M  V30 17313 H 1587.48 2.98396 -0.300002 0
M  V30 17314 H 1585.03 1.55096 -0.193628 0
M  V30 17315 H 1585.77 2.38213 2.20057 0
M  V30 17316 H 1585.55 3.76634 1.09037 0
M  V30 17317 H 1587.04 3.6265 2.07062 0
M  V30 17318 N 1587.48 0.171848 1.5666 0
M  V30 17319 C 1588.43 -0.775125 2.19305 0
M  V30 17320 C 1589.42 -1.23711 1.15724 0
M  V30 17321 O 1590.63 -1.2027 1.33922 0
M  V30 17322 H 1587 -0.268245 0.70253 0
M  V30 17323 H 1588.97 -0.222823 2.97567 0
M  V30 17324 C 1587.72 -1.99397 2.84844 0
M  V30 17325 H 1587.05 -1.64752 3.64276 0
M  V30 17326 H 1588.49 -2.63545 3.32145 0
M  V30 17327 C 1586.94 -2.81794 1.84645 0
M  V30 17328 O 1587.47 -3.78964 1.33225 0
M  V30 17329 N 1585.68 -2.4682 1.5339 0
M  V30 17330 H 1585.23 -1.67862 1.95397 0
M  V30 17331 H 1585.19 -3.02238 0.866004 0
M  V30 17332 N 1588.96 -1.5727 -0.101874 0
M  V30 17333 C 1590.23 -1.76745 -0.837888 0
M  V30 17334 C 1590.61 -0.751766 -1.9726 0
M  V30 17335 O 1589.96 0.221046 -2.27428 0
M  V30 17336 C 1590.17 -3.22302 -1.33875 0
M  V30 17337 C 1591.52 -3.85292 -1.78425 0
M  V30 17338 O 1592.54 -3.2601 -1.43514 0
M  V30 17339 O 1591.4 -4.89526 -2.42953 0
M  V30 17340 H 1588.5 -0.724294 -0.399157 0
M  V30 17341 H 1591.04 -1.69491 -0.0842821 0
M  V30 17342 H 1589.82 -3.87756 -0.525434 0
M  V30 17343 H 1589.44 -3.34162 -2.15456 0
M  V30 17344 N 1590.44 0.372521 -1.53134 0
M  V30 17345 C 1591.68 1.11316 -1.68201 0
M  V30 17346 C 1592 1.90662 -0.436714 0
M  V30 17347 O 1593.2 2.67439 -0.467802 0
M  V30 17348 C 1591.66 2.02808 -2.97317 0
M  V30 17349 C 1591.27 1.28806 -4.29084 0
M  V30 17350 C 1593.01 2.76906 -3.2175 0
M  V30 17351 C 1590.92 2.19159 -5.49294 0
M  V30 17352 H 1589.85 0.419264 -0.626685 0
M  V30 17353 H 1592.5 0.374677 -1.79634 0
M  V30 17354 H 1590.88 2.80359 -2.79669 0
M  V30 17355 H 1592.06 0.563661 -4.5734 0
M  V30 17356 H 1590.37 0.665989 -4.1104 0
M  V30 17357 H 1592.97 3.44721 -4.08744 0
M  V30 17358 H 1593.31 3.41894 -2.37517 0
M  V30 17359 H 1593.84 2.06441 -3.4004 0
M  V30 17360 H 1590.58 1.5876 -6.35984 0
M  V30 17361 H 1590.1 2.89468 -5.25327 0
M  V30 17362 H 1591.78 2.78874 -5.83814 0
M  V30 17363 N 1591.91 1.44376 0.631925 0
M  V30 17364 C 1593.16 1.46398 1.38747 0
M  V30 17365 C 1593.48 0.100149 1.95343 0
M  V30 17366 O 1594.68 -0.00210908 2.715 0
M  V30 17367 C 1593.14 2.57731 2.51203 0
M  V30 17368 C 1592.75 4.00317 2.01123 0
M  V30 17369 C 1594.49 2.68972 3.28412 0
M  V30 17370 C 1592.4 5.03075 3.10917 0
M  V30 17371 H 1591.33 0.544667 0.521396 0
M  V30 17372 H 1593.98 1.70439 0.679912 0
M  V30 17373 H 1592.36 2.26928 3.2453 0
M  V30 17374 H 1593.53 4.40683 1.34666 0
M  V30 17375 H 1591.85 3.93311 1.36732 0
M  V30 17376 H 1594.45 3.42916 4.10259 0
M  V30 17377 H 1594.79 1.74762 3.77841 0
M  V30 17378 H 1595.32 2.9918 2.62176 0
M  V30 17379 H 1592.06 5.98911 2.66433 0
M  V30 17380 H 1591.58 4.67302 3.76017 0
M  V30 17381 H 1593.26 5.2674 3.75705 0
M  V30 17382 N 1593.39 -0.872258 1.31261 0
M  V30 17383 C 1594.67 -1.60739 1.11456 0
M  V30 17384 C 1595.05 -2.0848 -0.331569 0
M  V30 17385 O 1594.4 -1.86141 -1.32528 0
M  V30 17386 C 1594.61 -2.76714 2.12674 0
M  V30 17387 C 1595.95 -3.46734 2.45074 0
M  V30 17388 O 1596.98 -2.86919 2.11083 0
M  V30 17389 O 1595.84 -4.54632 3.0327 0
M  V30 17390 H 1592.93 -0.70707 0.428929 0
M  V30 17391 H 1595.48 -0.917922 1.42732 0
M  V30 17392 H 1594.25 -2.38834 3.09958 0
M  V30 17393 H 1593.87 -3.5335 1.8229 0
M  V30 17394 N 1594.87 -1.14184 -1.08627 0
M  V30 17395 C 1596.12 -0.903271 -1.80344 0
M  V30 17396 C 1596.43 0.571801 -1.87056 0
M  V30 17397 O 1597.64 0.92756 -2.55164 0
M  V30 17398 C 1596.09 -1.56653 -3.24018 0
M  V30 17399 C 1595.7 -3.07771 -3.25548 0
M  V30 17400 C 1597.45 -1.40899 -4.00434 0
M  V30 17401 C 1595.35 -3.66943 -4.63796 0
M  V30 17402 H 1594.28 -0.334288 -0.675846 0
M  V30 17403 H 1596.93 -1.3705 -1.22023 0
M  V30 17404 H 1595.32 -1.02698 -3.82452 0
M  V30 17405 H 1596.49 -3.68375 -2.76834 0
M  V30 17406 H 1594.8 -3.23136 -2.62625 0
M  V30 17407 H 1597.4 -1.82511 -5.02587 0
M  V30 17408 H 1597.74 -0.354822 -4.14785 0
M  V30 17409 H 1598.28 -1.91879 -3.48464 0
M  V30 17410 H 1595.02 -4.72203 -4.54648 0
M  V30 17411 H 1594.54 -3.11119 -5.12801 0
M  V30 17412 H 1596.22 -3.67103 -5.32771 0
M  V30 17413 N 1596.35 1.26749 -0.936613 0
M  V30 17414 C 1597.6 1.93255 -0.577524 0
M  V30 17415 C 1597.91 1.74337 0.886905 0
M  V30 17416 O 1599.12 2.3526 1.35517 0
M  V30 17417 C 1597.57 3.4624 -0.982119 0
M  V30 17418 C 1597.18 3.739 -2.46784 0
M  V30 17419 C 1598.92 4.18777 -0.694706 0
M  V30 17420 C 1596.83 5.20303 -2.81138 0
M  V30 17421 H 1595.76 0.723502 -0.212276 0
M  V30 17422 H 1598.41 1.43901 -1.13863 0
M  V30 17423 H 1596.79 3.94454 -0.349577 0
M  V30 17424 H 1597.97 3.3641 -3.14905 0
M  V30 17425 H 1596.28 3.14587 -2.72808 0
M  V30 17426 H 1598.88 5.2659 -0.927756 0
M  V30 17427 H 1599.22 4.14667 0.368392 0
M  V30 17428 H 1599.76 3.76414 -1.28676 0
M  V30 17429 H 1596.5 5.29511 -3.86392 0
M  V30 17430 H 1596.02 5.58907 -2.17675 0
M  V30 17431 H 1597.69 5.88265 -2.69358 0
M  V30 17432 N 1597.83 0.703118 1.41046 0
M  V30 17433 C 1598.77 0.0425767 2.30761 0
M  V30 17434 C 1599.74 -0.763406 1.47517 0
M  V30 17435 O 1600.93 -0.7299 1.76287 0
M  V30 17436 C 1598.07 -0.882353 3.33629 0
M  V30 17437 C 1597.18 -0.0671799 4.31948 0
M  V30 17438 C 1596.32 -0.990443 5.21885 0
M  V30 17439 C 1595.36 -0.168622 6.11868 0
M  V30 17440 N 1594.49 -1.04609 6.94263 0
M  V30 17441 H 1599.33 0.813363 2.86685 0
M  V30 17442 H 1596.87 0.412804 1.41189 0
M  V30 17443 H 1598.83 -1.43273 3.91827 0
M  V30 17444 H 1597.46 -1.61946 2.79237 0
M  V30 17445 H 1596.51 0.600219 3.75635 0
M  V30 17446 H 1597.82 0.569624 4.95537 0
M  V30 17447 H 1596.98 -1.60979 5.84954 0
M  V30 17448 H 1595.71 -1.66109 4.5854 0
M  V30 17449 H 1594.72 0.463746 5.47841 0
M  V30 17450 H 1595.94 0.49834 6.77269 0
M  V30 17451 H 1593.89 -1.70262 6.33519 0
M  V30 17452 H 1593.81 -0.465036 7.54568 0
M  V30 17453 H 1595.08 -1.65201 7.61793 0
M  V30 17454 N 1599.3 -1.51086 0.448402 0
M  V30 17455 C 1600.21 -2.3177 -0.363323 0
M  V30 17456 C 1601.23 -1.41159 -1.01736 0
M  V30 17457 O 1602.41 -1.74226 -1.01031 0
M  V30 17458 C 1599.47 -3.15211 -1.4437 0
M  V30 17459 C 1598.53 -4.21615 -0.808643 0
M  V30 17460 C 1597.77 -5.01069 -1.83754 0
M  V30 17461 O 1597.99 -4.81296 -3.06121 0
M  V30 17462 O 1596.92 -5.84863 -1.42193 0
M  V30 17463 H 1600.75 -3.02257 0.295653 0
M  V30 17464 H 1598.33 -1.47907 0.210703 0
M  V30 17465 H 1600.22 -3.67053 -2.07002 0
M  V30 17466 H 1598.89 -2.47476 -2.08656 0
M  V30 17467 H 1597.8 -3.73823 -0.143975 0
M  V30 17468 H 1599.13 -4.91756 -0.209098 0
M  V30 17469 N 1600.78 -0.180154 -1.56567 0
M  V30 17470 C 1602.06 0.509347 -1.88852 0
M  V30 17471 C 1602.44 1.80697 -1.09141 0
M  V30 17472 O 1601.79 2.27726 -0.187974 0
M  V30 17473 C 1602 0.742669 -3.41006 0
M  V30 17474 C 1603.35 1.06873 -4.1093 0
M  V30 17475 O 1604.37 0.830907 -3.46373 0
M  V30 17476 O 1603.23 1.51784 -5.24999 0
M  V30 17477 H 1600.32 0.263629 -0.783855 0
M  V30 17478 H 1602.87 -0.219251 -1.68278 0
M  V30 17479 H 1601.64 -0.17431 -3.90912 0
M  V30 17480 H 1601.26 1.52427 -3.67222 0
M  V30 17481 N 1602.26 1.57322 0.0935319 0
M  V30 17482 C 1603.67 1.75099 0.64787 0
M  V30 17483 C 1604.02 0.802558 1.79035 0
M  V30 17484 O 1603.15 -0.0185803 2.16392 0
M  V30 17485 C 1603.74 3.17512 1.18203 0
M  V30 17486 C 1602.3 3.36707 1.68242 0
M  V30 17487 C 1601.45 2.70893 0.592649 0
M  V30 17488 H 1604.4 1.58146 -0.132546 0
M  V30 17489 H 1604.42 3.2047 2.05132 0
M  V30 17490 H 1603.93 3.86516 0.350297 0
M  V30 17491 H 1602.03 2.72784 2.5381 0
M  V30 17492 H 1602.15 4.45033 1.77433 0
M  V30 17493 H 1600.51 2.32835 1.03248 0
M  V30 17494 H 1601.29 3.42539 -0.228529 0
M  V30 17495 N 1603.74 -0.364395 1.53329 0
M  V30 17496 C 1604.96 -1.13196 1.73786 0
M  V30 17497 C 1605.39 -1.82231 0.466224 0
M  V30 17498 O 1604.75 -1.71778 -0.579817 0
M  V30 17499 C 1604.79 -2.13704 2.90453 0
M  V30 17500 O 1603.9 -3.20808 2.59144 0
M  V30 17501 H 1603.24 -0.328387 0.577112 0
M  V30 17502 H 1605.77 -0.421157 2.00218 0
M  V30 17503 H 1605.78 -2.57285 3.16652 0
M  V30 17504 H 1604.45 -1.6285 3.82691 0
M  V30 17505 H 1603.03 -2.82192 2.43767 0
M  V30 17506 N 1605.22 -1.44709 -0.62426 0
M  V30 17507 C 1606.46 -1.47561 -1.38094 0
M  V30 17508 C 1606.79 -0.112115 -1.94677 0
M  V30 17509 O 1606.06 0.856458 -1.76186 0
M  V30 17510 H 1604.64 -0.543368 -0.512601 0
M  V30 17511 H 1607.3 -1.8054 -0.734258 0
M  V30 17512 H 1606.39 -2.20496 -2.2088 0
M  V30 17513 N 1606.69 0.865285 -1.31722 0
M  V30 17514 C 1607.94 1.62098 -1.22865 0
M  V30 17515 C 1608.3 1.91249 0.210099 0
M  V30 17516 O 1607.59 1.53634 1.14487 0
M  V30 17517 C 1607.78 2.95462 -2.0109 0
M  V30 17518 C 1607.61 2.79333 -3.52425 0
M  V30 17519 C 1606.38 2.78273 -4.21773 0
M  V30 17520 C 1608.58 2.53854 -4.47284 0
M  V30 17521 N 1606.56 2.53243 -5.59233 0
M  V30 17522 C 1607.93 2.38131 -5.72445 0
M  V30 17523 C 1609.99 2.39236 -4.36658 0
M  V30 17524 C 1608.69 2.09276 -6.88183 0
M  V30 17525 C 1610.72 2.1177 -5.52184 0
M  V30 17526 C 1610.08 1.96839 -6.76338 0
M  V30 17527 H 1606.18 0.597308 -0.504724 0
M  V30 17528 H 1608.76 1.01803 -1.65965 0
M  V30 17529 H 1606.93 3.53754 -1.60352 0
M  V30 17530 H 1608.66 3.60343 -1.84214 0
M  V30 17531 H 1605.42 2.90826 -3.73788 0
M  V30 17532 H 1605.84 2.43686 -6.31622 0
M  V30 17533 H 1610.49 2.49505 -3.41331 0
M  V30 17534 H 1608.2 1.97745 -7.83532 0
M  V30 17535 H 1611.79 2.01253 -5.45883 0
M  V30 17536 H 1610.67 1.75888 -7.64221 0
M  V30 17537 N 1608.17 1.14759 1.0802 0
M  V30 17538 C 1609.42 0.929574 1.80916 0
M  V30 17539 C 1609.77 -0.53792 1.84727 0
M  V30 17540 O 1609.07 -1.39348 1.31501 0
M  V30 17541 C 1609.26 1.4692 3.25805 0
M  V30 17542 C 1609.09 2.98763 3.36111 0
M  V30 17543 C 1607.86 3.67248 3.47069 0
M  V30 17544 C 1610.06 3.966 3.27433 0
M  V30 17545 N 1608.04 5.06965 3.46207 0
M  V30 17546 C 1609.41 5.22594 3.33609 0
M  V30 17547 C 1611.47 3.88665 3.11197 0
M  V30 17548 C 1610.17 6.41579 3.25221 0
M  V30 17549 C 1612.19 5.07201 3.0414 0
M  V30 17550 C 1611.56 6.32066 3.10921 0
M  V30 17551 H 1607.66 0.393733 0.675647 0
M  V30 17552 H 1610.24 1.45842 1.2899 0
M  V30 17553 H 1608.41 0.967084 3.76168 0
M  V30 17554 H 1610.14 1.19071 3.86787 0
M  V30 17555 H 1606.9 3.17815 3.51128 0
M  V30 17556 H 1607.32 5.79917 3.49322 0
M  V30 17557 H 1611.96 2.93 3.04813 0
M  V30 17558 H 1609.68 7.37485 3.30365 0
M  V30 17559 H 1613.27 5.02815 2.92691 0
M  V30 17560 H 1612.15 7.22248 3.05495 0
M  V30 17561 N 1609.65 -1.26251 0.943322 0
M  V30 17562 C 1610.88 -1.97739 0.608852 0
M  V30 17563 C 1611.29 -1.70225 -0.81663 0
M  V30 17564 O 1610.65 -0.97172 -1.54479 0
M  V30 17565 C 1610.7 -3.51505 0.844172 0
M  V30 17566 O 1610.42 -3.78063 2.21359 0
M  V30 17567 C 1611.92 -4.40233 0.52054 0
M  V30 17568 H 1609.14 -0.630619 0.229262 0
M  V30 17569 H 1611.69 -1.6071 1.26461 0
M  V30 17570 H 1609.84 -3.86687 0.23499 0
M  V30 17571 H 1610.26 -4.72582 2.27523 0
M  V30 17572 H 1611.73 -5.47074 0.735802 0
M  V30 17573 H 1612.21 -4.35811 -0.544541 0
M  V30 17574 H 1612.81 -4.10599 1.10854 0
M  V30 17575 N 1611.13 -0.710588 -1.40671 0
M  V30 17576 C 1612.38 -0.247459 -2.00579 0
M  V30 17577 C 1612.7 1.16179 -1.56612 0
M  V30 17578 O 1611.97 1.7867 -0.803358 0
M  V30 17579 H 1610.55 -0.0884992 -0.741739 0
M  V30 17580 H 1613.21 -0.915103 -1.72081 0
M  V30 17581 H 1612.31 -0.276631 -3.10872 0
M  V30 17582 N 1612.61 1.50847 -0.456408 0
M  V30 17583 C 1614.02 1.59222 -0.109731 0
M  V30 17584 C 1614.22 1.46582 1.3826 0
M  V30 17585 O 1613.28 1.31678 2.15446 0
M  V30 17586 C 1614.59 2.9366 -0.646846 0
M  V30 17587 C 1616.14 3.07019 -0.60897 0
M  V30 17588 C 1616.62 4.44009 -1.12338 0
M  V30 17589 N 1618.11 4.50381 -1.08217 0
M  V30 17590 C 1618.84 5.54741 -1.45086 0
M  V30 17591 N 1618.34 6.66427 -1.89333 0
M  V30 17592 N 1620.13 5.45204 -1.36782 0
M  V30 17593 H 1612.28 1.57307 -1.42717 0
M  V30 17594 H 1614.54 0.742587 -0.589295 0
M  V30 17595 H 1614.25 3.0834 -1.69172 0
M  V30 17596 H 1614.12 3.7711 -0.0822535 0
M  V30 17597 H 1616.51 2.91995 0.426958 0
M  V30 17598 H 1616.59 2.25362 -1.21019 0
M  V30 17599 H 1616.24 4.59781 -2.15787 0
M  V30 17600 H 1616.17 5.24235 -0.498512 0
M  V30 17601 H 1618.66 3.70231 -0.757467 0
M  V30 17602 H 1618.97 7.42101 -2.15652 0
M  V30 17603 H 1617.32 6.67585 -1.93275 0
M  V30 17604 H 1620.51 4.56837 -1.02066 0
M  V30 17605 H 1620.68 6.26419 -1.65842 0
M  V30 17606 N 1614.09 0.188454 1.56469 0
M  V30 17607 C 1615.02 -0.730379 2.21783 0
M  V30 17608 C 1616 -1.22629 1.17882 0
M  V30 17609 O 1617.18 -1.27634 1.46367 0
M  V30 17610 C 1614.31 -1.95278 2.872 0
M  V30 17611 C 1613.27 -1.59205 3.97288 0
M  V30 17612 C 1612.59 -2.89052 4.49836 0
M  V30 17613 C 1613.89 -0.807027 5.16027 0
M  V30 17614 H 1615.59 -0.185914 2.98822 0
M  V30 17615 H 1613.13 -0.0879804 1.43731 0
M  V30 17616 H 1615.08 -2.60074 3.31571 0
M  V30 17617 H 1613.81 -2.52167 2.07556 0
M  V30 17618 H 1612.47 -0.967713 3.53597 0
M  V30 17619 H 1612.12 -3.44017 3.66963 0
M  V30 17620 H 1611.82 -2.65663 5.24115 0
M  V30 17621 H 1613.34 -3.54847 4.96906 0
M  V30 17622 H 1614.75 -1.35794 5.56986 0
M  V30 17623 H 1613.15 -0.671516 5.96331 0
M  V30 17624 H 1614.22 0.193251 4.84515 0
M  V30 17625 N 1615.56 -1.5737 -0.0851874 0
M  V30 17626 C 1616.98 -1.53425 -0.439651 0
M  V30 17627 C 1617.18 -0.906663 -1.7995 0
M  V30 17628 O 1616.24 -0.503414 -2.47431 0
M  V30 17629 C 1617.55 -2.9812 -0.393028 0
M  V30 17630 C 1619.1 -3.09387 -0.474175 0
M  V30 17631 C 1619.57 -4.55708 -0.457598 0
M  V30 17632 N 1621.06 -4.60294 -0.518065 0
M  V30 17633 C 1621.8 -5.70971 -0.527237 0
M  V30 17634 N 1621.29 -6.91051 -0.492023 0
M  V30 17635 N 1623.09 -5.59174 -0.572792 0
M  V30 17636 H 1615.24 -1.96538 0.805399 0
M  V30 17637 H 1617.5 -0.899 0.300836 0
M  V30 17638 H 1617.21 -3.47542 0.539204 0
M  V30 17639 H 1617.08 -3.57324 -1.20829 0
M  V30 17640 H 1619.47 -2.59948 -1.39683 0
M  V30 17641 H 1619.55 -2.53119 0.369411 0
M  V30 17642 H 1619.19 -5.05802 0.46115 0
M  V30 17643 H 1619.12 -5.09826 -1.31853 0
M  V30 17644 H 1621.61 -3.73875 -0.550072 0
M  V30 17645 H 1621.93 -7.71164 -0.502578 0
M  V30 17646 H 1620.27 -6.93483 -0.458917 0
M  V30 17647 H 1623.46 -4.64266 -0.597901 0
M  V30 17648 H 1623.64 -6.45431 -0.576471 0
M  V30 17649 N 1617.04 0.356258 -1.53521 0
M  V30 17650 C 1618.29 1.09573 -1.69818 0
M  V30 17651 C 1618.61 1.89559 -0.457406 0
M  V30 17652 O 1617.88 1.88633 0.528616 0
M  V30 17653 H 1616.46 0.407512 -0.626054 0
M  V30 17654 H 1619.12 0.400612 -1.90738 0
M  V30 17655 H 1618.22 1.7803 -2.56343 0
M  V30 17656 N 1618.52 1.45038 0.616577 0
M  V30 17657 C 1619.47 1.53022 1.7278 0
M  V30 17658 C 1620.44 0.376778 1.6177 0
M  V30 17659 O 1621.62 0.589006 1.81481 0
M  V30 17660 C 1618.76 1.49432 3.11069 0
M  V30 17661 C 1617.87 2.7526 3.3295 0
M  V30 17662 C 1617.01 2.63403 4.61294 0
M  V30 17663 C 1616.05 3.84327 4.76402 0
M  V30 17664 N 1615.19 3.71058 5.96037 0
M  V30 17665 H 1620.03 2.47957 1.65292 0
M  V30 17666 H 1617.56 1.23046 0.806102 0
M  V30 17667 H 1619.52 1.45339 3.91066 0
M  V30 17668 H 1618.15 0.580542 3.17537 0
M  V30 17669 H 1617.2 2.89479 2.46792 0
M  V30 17670 H 1618.51 3.64978 3.39989 0
M  V30 17671 H 1617.67 2.57226 5.49472 0
M  V30 17672 H 1616.41 1.7127 4.56638 0
M  V30 17673 H 1615.41 3.90873 3.8665 0
M  V30 17674 H 1616.64 4.77515 4.82863 0
M  V30 17675 H 1614.58 2.81687 5.92443 0
M  V30 17676 H 1614.5 4.54403 6.04197 0
M  V30 17677 H 1615.77 3.68798 6.86738 0
M  V30 17678 N 1620 -0.858287 1.32179 0
M  V30 17679 C 1620.93 -1.97304 1.16636 0
M  V30 17680 C 1621.94 -1.62478 0.102311 0
M  V30 17681 O 1623.13 -1.75016 0.350926 0
M  V30 17682 C 1620.23 -3.30215 0.762337 0
M  V30 17683 C 1619.4 -3.93305 1.9139 0
M  V30 17684 C 1618.46 -5.04545 1.49402 0
M  V30 17685 O 1617.49 -5.24735 2.20548 0
M  V30 17686 N 1618.69 -5.79202 0.387984 0
M  V30 17687 H 1621.46 -2.11179 2.12658 0
M  V30 17688 H 1619.02 -1.03294 1.24668 0
M  V30 17689 H 1621.01 -4.02032 0.463922 0
M  V30 17690 H 1619.58 -3.12418 -0.10662 0
M  V30 17691 H 1618.8 -3.1432 2.37901 0
M  V30 17692 H 1620.09 -4.32192 2.68492 0
M  V30 17693 H 1619.49 -5.65331 -0.204252 0
M  V30 17694 H 1618.04 -6.51629 0.149158 0
M  V30 17695 N 1621.48 -1.1533 -1.07409 0
M  V30 17696 C 1622.72 -0.925974 -1.79639 0
M  V30 17697 C 1623.04 0.548365 -1.87131 0
M  V30 17698 O 1622.31 1.39854 -1.37178 0
M  V30 17699 H 1620.89 -0.339599 -0.665343 0
M  V30 17700 H 1623.56 -1.45383 -1.29806 0
M  V30 17701 H 1622.65 -1.33484 -2.82114 0
M  V30 17702 N 1622.95 1.25748 -0.950004 0
M  V30 17703 C 1623.88 2.28419 -0.484467 0
M  V30 17704 C 1624.86 1.63569 0.466813 0
M  V30 17705 O 1626.05 1.90705 0.366766 0
M  V30 17706 C 1623.18 3.46449 0.242916 0
M  V30 17707 C 1622.13 4.23447 -0.622657 0
M  V30 17708 C 1621.46 5.34182 0.235199 0
M  V30 17709 C 1622.76 4.86576 -1.89845 0
M  V30 17710 H 1624.45 2.6761 -1.34257 0
M  V30 17711 H 1622 1.28646 -0.647014 0
M  V30 17712 H 1623.95 4.17394 0.579693 0
M  V30 17713 H 1622.68 3.06235 1.13523 0
M  V30 17714 H 1621.34 3.54279 -0.942453 0
M  V30 17715 H 1620.98 4.90209 1.12713 0
M  V30 17716 H 1620.68 5.86612 -0.340609 0
M  V30 17717 H 1622.21 6.07961 0.567048 0
M  V30 17718 H 1623.62 5.49688 -1.62837 0
M  V30 17719 H 1622.02 5.49162 -2.41954 0
M  V30 17720 H 1623.09 4.09021 -2.60441 0
M  V30 17721 N 1624.43 0.718038 1.40292 0
M  V30 17722 C 1625.68 0.258603 2.00842 0
M  V30 17723 C 1626.01 -1.14894 1.56938 0
M  V30 17724 O 1625.26 -1.79414 0.781606 0
M  V30 17725 C 1625.56 0.289374 3.56227 0
M  V30 17726 C 1625.23 1.64756 4.19722 0
M  V30 17727 C 1623.89 2.01934 4.36779 0
M  V30 17728 C 1626.24 2.54008 4.55115 0
M  V30 17729 C 1623.57 3.27905 4.86513 0
M  V30 17730 C 1625.92 3.79334 5.06249 0
M  V30 17731 C 1624.58 4.16626 5.21516 0
M  V30 17732 H 1623.85 0.0946296 0.734933 0
M  V30 17733 H 1626.5 0.921552 1.67868 0
M  V30 17734 H 1624.81 -0.457147 3.89124 0
M  V30 17735 H 1626.5 -0.0839832 4.00912 0
M  V30 17736 H 1623.09 1.34846 4.06835 0
M  V30 17737 H 1627.28 2.2656 4.4157 0
M  V30 17738 H 1622.53 3.56763 4.96518 0
M  V30 17739 H 1626.71 4.48663 5.32611 0
M  V30 17740 H 1624.33 5.14306 5.59815 0
M  V30 17741 N 1625.91 -1.50602 0.464402 0
M  V30 17742 C 1627.32 -1.86698 0.00767586 0
M  V30 17743 C 1627.67 -1.37971 -1.39494 0
M  V30 17744 O 1626.8 -0.741843 -2.03287 0
M  V30 17745 C 1627.39 -3.38799 0.00715323 0
M  V30 17746 C 1625.95 -3.74331 -0.394077 0
M  V30 17747 C 1625.1 -2.74465 0.395495 0
M  V30 17748 H 1628.05 -1.43441 0.678996 0
M  V30 17749 H 1628.07 -3.7207 -0.796497 0
M  V30 17750 H 1627.58 -3.74234 1.02812 0
M  V30 17751 H 1625.68 -3.44495 -1.41964 0
M  V30 17752 H 1625.8 -4.78995 -0.10007 0
M  V30 17753 H 1624.16 -2.54258 -0.149903 0
M  V30 17754 H 1624.94 -3.12744 1.41585 0
M  V30 17755 N 1627.39 -0.19675 -1.56367 0
M  V30 17756 C 1628.34 0.740138 -2.2051 0
M  V30 17757 C 1629.33 1.21854 -1.17677 0
M  V30 17758 O 1630.54 1.18124 -1.35819 0
M  V30 17759 H 1626.91 0.257034 -0.706709 0
M  V30 17760 H 1628.88 0.175454 -2.97884 0
M  V30 17761 C 1627.63 1.94841 -2.8798 0
M  V30 17762 H 1626.95 1.58936 -3.66851 0
M  V30 17763 H 1628.39 2.58227 -3.36296 0
M  V30 17764 C 1626.85 2.78821 -1.89104 0
M  V30 17765 O 1627.38 3.76797 -1.39237 0
M  V30 17766 N 1625.59 2.44348 -1.57297 0
M  V30 17767 H 1625.14 1.64732 -1.98043 0
M  V30 17768 H 1625.09 3.00822 -0.913978 0
M  V30 17769 N 1628.87 1.57413 0.0768405 0
M  V30 17770 C 1629.81 2.04373 1.1106 0
M  V30 17771 C 1630.81 0.948127 1.40381 0
M  V30 17772 O 1632.01 1.13325 1.39848 0
M  V30 17773 H 1628.39 0.65156 0.375464 0
M  V30 17774 H 1630.36 2.90352 0.688348 0
M  V30 17775 C 1629.11 2.49914 2.41741 0
M  V30 17776 H 1628.43 3.33808 2.20027 0
M  V30 17777 H 1629.87 2.8653 3.12532 0
M  V30 17778 C 1628.33 1.37996 3.07341 0
M  V30 17779 O 1628.86 0.719242 3.95209 0
M  V30 17780 N 1627.07 1.12635 2.67884 0
M  V30 17781 H 1626.61 1.66545 1.96521 0
M  V30 17782 H 1626.57 0.37956 3.121 0
M  V30 17783 N 1630.34 -0.348112 1.53707 0
M  V30 17784 C 1631.57 -1.10742 1.74412 0
M  V30 17785 C 1631.98 -1.82982 0.481049 0
M  V30 17786 O 1631.33 -1.7506 -0.556759 0
M  V30 17787 C 1631.39 -2.16911 2.86687 0
M  V30 17788 C 1631.05 -1.64286 4.26449 0
M  V30 17789 C 1632.05 -1.09761 5.08182 0
M  V30 17790 C 1629.73 -1.69271 4.72919 0
M  V30 17791 C 1631.73 -0.609186 6.34482 0
M  V30 17792 C 1629.41 -1.20041 5.99194 0
M  V30 17793 C 1630.41 -0.659566 6.79808 0
M  V30 17794 O 1630.1 -0.174591 8.0371 0
M  V30 17795 H 1629.83 -0.336313 0.586404 0
M  V30 17796 H 1632.39 -0.407502 2.01317 0
M  V30 17797 H 1630.62 -2.90449 2.55297 0
M  V30 17798 H 1632.31 -2.78371 2.95405 0
M  V30 17799 H 1633.07 -1.05235 4.73445 0
M  V30 17800 H 1628.95 -2.10308 4.10234 0
M  V30 17801 H 1632.49 -0.186374 6.97351 0
M  V30 17802 H 1628.39 -1.24265 6.33426 0
M  V30 17803 H 1629.16 -0.292303 8.17978 0
M  V30 17804 N 1631.82 -1.45363 -0.608876 0
M  V30 17805 C 1633.07 -1.49534 -1.36995 0
M  V30 17806 C 1633.4 -0.136087 -1.93723 0
M  V30 17807 O 1632.68 0.849276 -1.74979 0
M  V30 17808 C 1632.96 -2.57348 -2.51881 0
M  V30 17809 C 1632.81 -4.02712 -2.00358 0
M  V30 17810 C 1634.13 -2.61459 -3.54016 0
M  V30 17811 H 1631.25 -0.544419 -0.496767 0
M  V30 17812 H 1633.89 -1.77165 -0.686473 0
M  V30 17813 H 1632.04 -2.33917 -3.10185 0
M  V30 17814 H 1633.71 -4.37348 -1.46713 0
M  V30 17815 H 1631.96 -4.1343 -1.31369 0
M  V30 17816 H 1632.63 -4.73834 -2.8317 0
M  V30 17817 H 1635.1 -2.8245 -3.0555 0
M  V30 17818 H 1633.98 -3.38761 -4.31894 0
M  V30 17819 H 1634.24 -1.66499 -4.09549 0
M  V30 17820 N 1633.3 0.851265 -1.32632 0
M  V30 17821 C 1634.53 1.63805 -1.26394 0
M  V30 17822 C 1634.94 1.88056 0.167454 0
M  V30 17823 O 1634.3 1.45196 1.10564 0
M  V30 17824 C 1634.35 2.9954 -2.02381 0
M  V30 17825 O 1634.07 2.76361 -3.39935 0
M  V30 17826 C 1635.57 3.93982 -2.03207 0
M  V30 17827 H 1632.79 0.510088 -0.435948 0
M  V30 17828 H 1635.34 1.06123 -1.74809 0
M  V30 17829 H 1633.49 3.53859 -1.5768 0
M  V30 17830 H 1633.91 3.62708 -3.78871 0
M  V30 17831 H 1635.38 4.86478 -2.60851 0
M  V30 17832 H 1635.86 4.27211 -1.01918 0
M  V30 17833 H 1636.46 3.45601 -2.47871 0
M  V30 17834 N 1634.78 1.15898 1.06796 0
M  V30 17835 C 1635.73 0.860895 2.14143 0
M  V30 17836 C 1636.7 -0.188539 1.65026 0
M  V30 17837 O 1637.88 -0.0548558 1.90721 0
M  V30 17838 C 1635.02 0.362533 3.4319 0
M  V30 17839 C 1634.13 1.4742 4.06068 0
M  V30 17840 C 1633.27 0.931377 5.22971 0
M  V30 17841 C 1632.31 2.0196 5.77822 0
M  V30 17842 N 1631.44 1.49274 6.86048 0
M  V30 17843 H 1636.28 1.78023 2.38981 0
M  V30 17844 H 1633.82 0.888173 1.1726 0
M  V30 17845 H 1635.78 0.0552592 4.17163 0
M  V30 17846 H 1634.41 -0.519869 3.18586 0
M  V30 17847 H 1633.46 1.89754 3.29693 0
M  V30 17848 H 1634.77 2.29559 4.42836 0
M  V30 17849 H 1633.93 0.576982 6.0395 0
M  V30 17850 H 1632.67 0.0792265 4.87636 0
M  V30 17851 H 1631.67 2.38275 4.95485 0
M  V30 17852 H 1632.9 2.87562 6.15211 0
M  V30 17853 H 1630.84 0.663037 6.52641 0
M  V30 17854 H 1630.76 2.25035 7.21731 0
M  V30 17855 H 1632.03 1.16676 7.70718 0
M  V30 17856 N 1636.26 -1.25243 0.956659 0
M  V30 17857 C 1637.51 -1.92312 0.608196 0
M  V30 17858 C 1637.82 -1.75726 -0.859058 0
M  V30 17859 O 1639.02 -2.37386 -1.31757 0
M  V30 17860 C 1637.48 -3.44634 1.03708 0
M  V30 17861 C 1637.09 -3.69927 2.52702 0
M  V30 17862 C 1638.83 -4.17619 0.761242 0
M  V30 17863 C 1636.74 -5.15765 2.8938 0
M  V30 17864 H 1635.67 -0.720033 0.22376 0
M  V30 17865 H 1638.32 -1.42071 1.16138 0
M  V30 17866 H 1636.7 -3.93848 0.412287 0
M  V30 17867 H 1637.88 -3.31357 3.20217 0
M  V30 17868 H 1636.19 -3.10207 2.77778 0
M  V30 17869 H 1638.79 -5.25047 1.01141 0
M  V30 17870 H 1639.13 -4.152 -0.302375 0
M  V30 17871 H 1639.66 -3.74319 1.34648 0
M  V30 17872 H 1636.4 -5.23296 3.94767 0
M  V30 17873 H 1635.92 -5.55374 2.26539 0
M  V30 17874 H 1637.6 -5.83905 2.78683 0
M  V30 17875 O 1637.77 -0.863466 -1.36479 0
M  V30 17876 H 1638.46 -0.460615 -1.88144 0
M  V30 END ATOM
M  V30 BEGIN BOND
M  V30 END BOND
M  V30 END CTAB
M  END
$$$$
