drugbank_target|P08253 72 kDa type IV collagenase (DB00786; DB01197; DB01630; DB04866; DB05387; DB06423)
 OpenBabel12092119363D

  0  0  0     0  0            999 V3000
M  V30 BEGIN CTAB
M  V30 COUNTS 10171 10331 0 0 0
M  V30 BEGIN ATOM
M  V30 1 H -0.908 1.98254 -0.117106 0
M  V30 2 N 0 1.576 0 0
M  V30 3 C 0.933 2.03868 1.02534 0
M  V30 4 C 1.911 0.928543 1.3348 0
M  V30 5 O 3.095 1.19667 1.45644 0
M  V30 6 C 0.222 2.43627 2.35294 0
M  V30 7 C -0.732 3.65373 2.2001 0
M  V30 8 S 0.101 5.13292 1.52614 0
M  V30 9 C 1.257 5.56322 2.86805 0
M  V30 10 H 1.49 2.90518 0.631377 0
M  V30 11 H -0.977 1.52953 0.210867 0
M  V30 12 H 0.981 2.67203 3.11629 0
M  V30 13 H -0.358 1.57376 2.7183 0
M  V30 14 H -1.165 3.90944 3.18086 0
M  V30 15 H -1.563 3.418 1.51819 0
M  V30 16 H 0.729 5.58782 3.83104 0
M  V30 17 H 1.672 6.56266 2.65933 0
M  V30 18 H 2.08 4.83886 2.90714 0
M  V30 19 N 1.4781 -0.272755 1.55222 0
M  V30 20 C 2.3881 -1.35918 1.91216 0
M  V30 21 C 3.4041 -1.54026 0.809436 0
M  V30 22 O 4.5801 -1.68148 1.10852 0
M  V30 23 C 1.6451 -2.69834 2.17693 0
M  V30 24 C 0.7061 -2.6047 3.41253 0
M  V30 25 C -0.0609 -3.88 3.66458 0
M  V30 26 O 0.1621 -4.88693 2.94169 0
M  V30 27 O -0.9039 -3.88189 4.59992 0
M  V30 28 H 2.9221 -1.0839 2.83699 0
M  V30 29 H 0.5071 -0.471301 1.41771 0
M  V30 30 H 2.3891 -3.49017 2.36147 0
M  V30 31 H 1.0641 -2.97148 1.28392 0
M  V30 32 H -0.0289 -1.79663 3.28134 0
M  V30 33 H 1.3041 -2.38106 4.30774 0
M  V30 34 N 2.9562 -1.48159 -0.537278 0
M  V30 35 C 3.9192 -1.61665 -1.62472 0
M  V30 36 C 4.9192 -0.490395 -1.5314 0
M  V30 37 O 6.1092 -0.755998 -1.5694 0
M  V30 38 C 3.2412 -1.57997 -3.02076 0
M  V30 39 H 4.4342 -2.58621 -1.51839 0
M  V30 40 H 1.9872 -1.36647 -0.758771 0
M  V30 41 H 2.7222 -0.624913 -3.18222 0
M  V30 42 H 2.5072 -2.39755 -3.10258 0
M  V30 43 H 3.9972 -1.70627 -3.81151 0
M  V30 44 N 4.4343 0.785586 -1.36625 0
M  V30 45 C 5.3643 1.91259 -1.33949 0
M  V30 46 C 6.3453 1.68795 -0.210325 0
M  V30 47 O 7.5303 1.89854 -0.408561 0
M  V30 48 C 4.6603 3.28339 -1.13186 0
M  V30 49 C 3.6143 3.65335 -2.22967 0
M  V30 50 C 2.9403 5.00806 -1.87342 0
M  V30 51 C 4.2403 3.7352 -3.65075 0
M  V30 52 H 5.9343 1.93755 -2.28253 0
M  V30 53 H 3.4803 0.930788 -1.09874 0
M  V30 54 H 5.4333 4.06804 -1.09948 0
M  V30 55 H 4.1573 3.2624 -0.153332 0
M  V30 56 H 2.8163 2.89169 -2.25337 0
M  V30 57 H 2.4643 4.95233 -0.880545 0
M  V30 58 H 2.1643 5.26529 -2.60846 0
M  V30 59 H 3.6883 5.81687 -1.85667 0
M  V30 60 H 5.1023 4.42168 -3.64911 0
M  V30 61 H 3.4993 4.10731 -4.37516 0
M  V30 62 H 4.5693 2.74527 -3.99703 0
M  V30 63 N 5.9124 1.20967 1.01018 0
M  V30 64 C 6.8454 0.907578 2.09376 0
M  V30 65 C 7.8234 -0.142868 1.61971 0
M  V30 66 O 9.0074 -0.0150391 1.88494 0
M  V30 67 C 6.1344 0.361791 3.36762 0
M  V30 68 C 5.1804 1.39423 4.03068 0
M  V30 69 S 6.0134 2.96159 4.4615 0
M  V30 70 C 7.1694 2.43173 5.7673 0
M  V30 71 H 7.4024 1.82519 2.34678 0
M  V30 72 H 4.9354 1.03884 1.14225 0
M  V30 73 H 6.8934 0.0534523 4.10465 0
M  V30 74 H 5.5544 -0.53443 3.0952 0
M  V30 75 H 4.7474 0.961853 4.94737 0
M  V30 76 H 4.3494 1.65038 3.35617 0
M  V30 77 H 6.6414 1.83335 6.52223 0
M  V30 78 H 7.5844 3.33264 6.24773 0
M  V30 79 H 7.9924 1.85069 5.33301 0
M  V30 80 N 7.3905 -1.2043 1.01659 0
M  V30 81 C 8.3535 -2.21433 0.591616 0
M  V30 82 C 9.3535 -1.57203 -0.338226 0
M  V30 83 O 10.5435 -1.73737 -0.126918 0
M  V30 84 C 7.6755 -3.40628 -0.136058 0
M  V30 85 H 8.8685 -2.60545 1.48514 0
M  V30 86 H 6.4215 -1.33893 0.806379 0
M  V30 87 H 7.1565 -3.07019 -1.04449 0
M  V30 88 H 6.9415 -3.88475 0.531917 0
M  V30 89 H 8.4315 -4.15475 -0.420735 0
M  V30 90 N 8.8686 -0.792821 -1.36206 0
M  V30 91 C 10.2846 -0.474903 -1.52371 0
M  V30 92 C 10.4846 1.00622 -1.74578 0
M  V30 93 O 9.5406 1.79162 -1.77924 0
M  V30 94 C 10.8536 -1.3083 -2.70747 0
M  V30 95 C 12.4016 -1.30234 -2.84619 0
M  V30 96 C 12.8766 -2.11956 -4.06004 0
M  V30 97 N 14.3676 -2.09419 -4.13156 0
M  V30 98 C 15.1026 -2.69419 -5.06163 0
M  V30 99 N 14.5986 -3.3829 -6.04592 0
M  V30 100 N 16.3916 -2.59134 -4.98804 0
M  V30 101 H 8.5426 -1.75222 -1.20046 0
M  V30 102 H 10.8056 -0.745024 -0.586211 0
M  V30 103 H 10.5116 -2.35881 -2.6087 0
M  V30 104 H 10.3856 -0.95196 -3.6499 0
M  V30 105 H 12.7726 -0.259748 -2.93955 0
M  V30 106 H 12.8536 -1.69847 -1.91274 0
M  V30 107 H 12.4976 -3.16248 -3.97429 0
M  V30 108 H 12.4276 -1.69711 -4.98503 0
M  V30 109 H 14.9186 -1.59297 -3.42685 0
M  V30 110 H 15.2316 -3.81394 -6.7213 0
M  V30 111 H 13.5766 -3.42393 -6.04807 0
M  V30 112 H 16.7676 -2.04927 -4.20859 0
M  V30 113 H 16.9406 -3.06185 -5.711 0
M  V30 114 N 10.3467 1.47872 -0.545128 0
M  V30 115 C 11.5947 2.02093 -0.016553 0
M  V30 116 C 11.9157 1.42305 1.3332 0
M  V30 117 O 11.1857 0.593853 1.86682 0
M  V30 118 H 9.7657 0.746993 -0.00313038 0
M  V30 119 H 12.4277 1.81414 -0.712397 0
M  V30 120 H 11.5237 3.11996 0.0805422 0
M  V30 121 N 11.8248 0.280983 1.55075 0
M  V30 122 C 12.7878 -0.590896 2.21452 0
M  V30 123 C 13.7878 -1.07682 1.19421 0
M  V30 124 O 14.9778 -0.97605 1.44288 0
M  V30 125 C 12.1098 -1.81587 2.88511 0
M  V30 126 H 13.3028 -0.0112554 2.99898 0
M  V30 127 H 10.8558 0.0316438 1.56268 0
M  V30 128 H 11.5908 -2.43587 2.14093 0
M  V30 129 H 11.3758 -1.4753 3.63287 0
M  V30 130 H 12.8658 -2.43575 3.39206 0
M  V30 131 N 13.3029 -1.57598 0.00835791 0
M  V30 132 C 14.2329 -2.1198 -0.979113 0
M  V30 133 C 15.2139 -1.03091 -1.35301 0
M  V30 134 O 16.3989 -1.30818 -1.43528 0
M  V30 135 C 13.5289 -2.62995 -2.26828 0
M  V30 136 C 12.4829 -3.76485 -2.03576 0
M  V30 137 C 11.8089 -4.13846 -3.38579 0
M  V30 138 C 13.1089 -5.0342 -1.39161 0
M  V30 139 H 14.8029 -2.94738 -0.526281 0
M  V30 140 H 12.3489 -1.41783 -0.251704 0
M  V30 141 H 14.3019 -2.99669 -2.96271 0
M  V30 142 H 13.0259 -1.7737 -2.7424 0
M  V30 143 H 11.6849 -3.40217 -1.36557 0
M  V30 144 H 11.3329 -3.25232 -3.83709 0
M  V30 145 H 11.0329 -4.90312 -3.23834 0
M  V30 146 H 12.5569 -4.53086 -4.09323 0
M  V30 147 H 13.9709 -5.37812 -1.98573 0
M  V30 148 H 12.3679 -5.84746 -1.34878 0
M  V30 149 H 13.4379 -4.83548 -0.361868 0
M  V30 150 N 14.781 0.264519 -1.55364 0
M  V30 151 C 16.009 1.013 -1.80405 0
M  V30 152 C 16.424 1.79618 -0.581622 0
M  V30 153 O 15.781 1.76879 0.449468 0
M  V30 154 C 15.832 1.96487 -3.03439 0
M  V30 155 O 15.553 1.21341 -4.20961 0
M  V30 156 C 17.054 2.83079 -3.41147 0
M  V30 157 H 14.274 0.298875 -0.600762 0
M  V30 158 H 16.818 0.292736 -2.02394 0
M  V30 159 H 14.973 2.63965 -2.83551 0
M  V30 160 H 15.387 1.85573 -4.90574 0
M  V30 161 H 16.861 3.4565 -4.30384 0
M  V30 162 H 17.338 3.53286 -2.60932 0
M  V30 163 H 17.944 2.2108 -3.63323 0
M  V30 164 N 16.2591 1.48442 0.529413 0
M  V30 165 C 17.5071 1.56179 1.28267 0
M  V30 166 C 17.8281 0.237721 1.93546 0
M  V30 167 O 17.0981 -0.740779 1.81354 0
M  V30 168 H 15.6781 0.575367 0.476405 0
M  V30 169 H 18.3401 1.84909 0.61602 0
M  V30 170 H 17.4361 2.34312 2.06165 0
M  V30 171 N 17.7372 -0.778329 1.37039 0
M  V30 172 C 19.1482 -1.35421 1.28523 0
M  V30 173 C 19.4992 -1.96075 -0.0700901 0
M  V30 174 O 18.6242 -1.93352 -0.971801 0
M  V30 175 C 19.2192 -2.46211 2.32735 0
M  V30 176 C 17.7782 -2.99585 2.27873 0
M  V30 177 C 16.9252 -1.72748 2.16918 0
M  V30 178 H 19.8762 -0.5791 1.47757 0
M  V30 179 H 19.8972 -3.2552 1.9702 0
M  V30 180 H 19.4092 -2.02036 3.31365 0
M  V30 181 H 17.5102 -3.48152 1.32745 0
M  V30 182 H 17.6232 -3.55646 3.21018 0
M  V30 183 H 15.9872 -1.95416 1.63354 0
M  V30 184 H 16.7702 -1.30686 3.17452 0
M  V30 185 N 19.2153 -1.21501 -1.00376 0
M  V30 186 C 20.1453 -0.999478 -2.11028 0
M  V30 187 C 21.1263 0.0759671 -1.6993 0
M  V30 188 O 22.3113 -0.0841106 -1.94018 0
M  V30 189 C 19.4413 -0.564709 -3.42678 0
M  V30 190 C 18.3953 -1.58486 -3.97576 0
M  V30 191 C 17.7213 -1.00628 -5.25146 0
M  V30 192 C 19.0213 -2.97204 -4.29496 0
M  V30 193 H 20.7153 -1.92495 -2.29317 0
M  V30 194 H 18.2613 -0.92693 -1.102 0
M  V30 195 H 20.2143 -0.401091 -4.19487 0
M  V30 196 H 18.9383 0.396411 -3.24185 0
M  V30 197 H 17.5973 -1.73606 -3.22888 0
M  V30 198 H 17.2453 -0.0368439 -5.02987 0
M  V30 199 H 16.9453 -1.68771 -5.62841 0
M  V30 200 H 18.4693 -0.854015 -6.04598 0
M  V30 201 H 19.8833 -2.8552 -4.97143 0
M  V30 202 H 18.2803 -3.62372 -4.78338 0
M  V30 203 H 19.3503 -3.47956 -3.3772 0
M  V30 204 N 20.6934 1.19889 -1.02296 0
M  V30 205 C 22.1094 1.41462 -0.738954 0
M  V30 206 C 22.3094 1.89721 0.678846 0
M  V30 207 O 21.3654 2.07016 1.4457 0
M  V30 208 C 22.6784 2.43083 -1.77005 0
M  V30 209 C 24.2264 2.5684 -1.78892 0
M  V30 210 C 24.7014 3.61709 -2.80945 0
M  V30 211 N 26.1924 3.69199 -2.79725 0
M  V30 212 C 26.9274 4.50019 -3.55345 0
M  V30 213 N 26.4234 5.34592 -4.40662 0
M  V30 214 N 28.2164 4.44612 -3.43914 0
M  V30 215 H 20.3674 0.868827 -1.93817 0
M  V30 216 H 22.6304 0.44399 -0.837602 0
M  V30 217 H 22.3364 2.14636 -2.78612 0
M  V30 218 H 22.2104 3.4217 -1.58744 0
M  V30 219 H 24.5974 2.84614 -0.779674 0
M  V30 220 H 24.6784 1.57927 -2.01228 0
M  V30 221 H 24.3224 3.34678 -3.82038 0
M  V30 222 H 24.2524 4.60259 -2.5587 0
M  V30 223 H 26.7434 3.08794 -2.17842 0
M  V30 224 H 27.0564 5.93363 -4.95116 0
M  V30 225 H 25.4014 5.34073 -4.44737 0
M  V30 226 H 28.5924 3.7758 -2.76679 0
M  V30 227 H 28.7654 5.0736 -4.031 0
M  V30 228 N 22.1715 0.800033 1.35784 0
M  V30 229 C 23.1345 0.211565 2.28221 0
M  V30 230 C 24.1345 -0.59728 1.49296 0
M  V30 231 O 25.3245 -0.416721 1.69142 0
M  V30 232 C 22.4565 -0.705846 3.33513 0
M  V30 233 H 23.6495 1.02677 2.81776 0
M  V30 234 H 21.2025 0.570211 1.45528 0
M  V30 235 H 21.9375 -1.54498 2.85133 0
M  V30 236 H 21.7225 -0.127655 3.91892 0
M  V30 237 H 23.2125 -1.11211 4.02519 0
M  V30 238 N 23.6496 -1.47581 0.552962 0
M  V30 239 C 24.5796 -2.32762 -0.185451 0
M  V30 240 C 25.5606 -1.43527 -0.912905 0
M  V30 241 O 26.7456 -1.72388 -0.894201 0
M  V30 242 C 23.8756 -3.25219 -1.21859 0
M  V30 243 C 22.8296 -4.23661 -0.607864 0
M  V30 244 C 22.1556 -5.05413 -1.74533 0
M  V30 245 C 23.4556 -5.20481 0.435582 0
M  V30 246 H 25.1496 -2.94749 0.525684 0
M  V30 247 H 22.6956 -1.41738 0.254251 0
M  V30 248 H 24.6486 -3.8365 -1.7433 0
M  V30 249 H 23.3726 -2.61279 -1.95961 0
M  V30 250 H 22.0316 -3.66451 -0.104489 0
M  V30 251 H 21.6796 -4.3788 -2.47529 0
M  V30 252 H 21.3796 -5.72059 -1.34249 0
M  V30 253 H 22.9036 -5.66701 -2.27338 0
M  V30 254 H 24.3176 -5.733 -0.00290157 0
M  V30 255 H 22.7146 -5.95305 0.757067 0
M  V30 256 H 23.7846 -4.66217 1.33303 0
M  V30 257 N 25.1277 -0.289203 -1.54924 0
M  V30 258 C 26.3677 0.324536 -2.01807 0
M  V30 259 C 26.7317 1.5199 -1.17316 0
M  V30 260 O 27.9327 2.20422 -1.53843 0
M  V30 261 C 26.2037 0.683578 -3.50802 0
M  V30 262 S 27.7627 1.28185 -4.19659 0
M  V30 263 H 24.5807 0.100236 -0.703899 0
M  V30 264 H 27.1827 -0.414325 -1.91059 0
M  V30 265 H 25.8867 -0.195073 -4.09936 0
M  V30 266 H 25.4177 1.45354 -3.65562 0
M  V30 267 H 27.4327 2.57006 -4.24456 0
M  V30 268 N 26.6058 1.57591 -0.0167156 0
M  V30 269 C 27.5358 2.12496 0.967858 0
M  V30 270 C 28.5168 1.03807 1.34752 0
M  V30 271 O 29.7018 1.31577 1.42833 0
M  V30 272 C 26.8318 2.64194 2.25431 0
M  V30 273 C 25.7858 3.77559 2.01576 0
M  V30 274 C 25.1118 4.15636 3.36379 0
M  V30 275 C 26.4118 5.04151 1.36489 0
M  V30 276 H 28.1058 2.95013 0.510643 0
M  V30 277 H 25.6518 1.41915 0.244181 0
M  V30 278 H 27.6048 3.01236 2.94678 0
M  V30 279 H 26.3288 1.78821 2.73296 0
M  V30 280 H 24.9878 3.40937 1.34751 0
M  V30 281 H 24.6358 3.27263 3.81979 0
M  V30 282 H 24.3358 4.92022 3.21229 0
M  V30 283 H 25.8598 4.5525 4.06915 0
M  V30 284 H 27.2738 5.38857 1.95718 0
M  V30 285 H 25.6708 5.85453 1.31776 0
M  V30 286 H 26.7408 4.83733 0.336219 0
M  V30 287 N 28.0839 -0.256276 1.55502 0
M  V30 288 C 29.0139 -1.32102 1.92539 0
M  V30 289 C 29.9949 -1.50684 0.789194 0
M  V30 290 O 31.1799 -1.63449 1.04872 0
M  V30 291 C 28.3099 -2.67752 2.21192 0
M  V30 292 C 27.2639 -2.63878 3.36975 0
M  V30 293 C 26.5899 -4.03236 3.51147 0
M  V30 294 C 27.8899 -2.21682 4.72921 0
M  V30 295 H 29.5839 -1.01351 2.81724 0
M  V30 296 H 27.1299 -0.486105 1.35547 0
M  V30 297 H 29.0829 -3.42365 2.45691 0
M  V30 298 H 27.8069 -3.0012 1.28824 0
M  V30 299 H 26.4659 -1.91722 3.12471 0
M  V30 300 H 26.1139 -4.32854 2.56216 0
M  V30 301 H 25.8139 -4.01535 4.29003 0
M  V30 302 H 27.3379 -4.79563 3.77957 0
M  V30 303 H 28.7519 -2.86023 4.96854 0
M  V30 304 H 27.1489 -2.3111 5.53812 0
M  V30 305 H 28.2189 -1.16833 4.70615 0
M  V30 306 N 29.562 -1.4872 -0.521534 0
M  V30 307 C 30.81 -1.56857 -1.27437 0
M  V30 308 C 31.131 -0.247982 -1.93417 0
M  V30 309 O 30.401 0.731151 -1.81744 0
M  V30 310 H 28.981 -0.577885 -0.473347 0
M  V30 311 H 31.643 -1.85233 -0.606205 0
M  V30 312 H 30.739 -2.35402 -2.0492 0
M  V30 313 N 31.0401 0.771051 -1.3745 0
M  V30 314 C 32.2801 1.54264 -1.34096 0
M  V30 315 C 32.6441 1.91858 0.0737639 0
M  V30 316 O 33.8451 2.67797 0.23203 0
M  V30 317 C 32.1161 2.77326 -2.25445 0
M  V30 318 S 33.6751 3.67383 -2.39948 0
M  V30 319 H 30.4931 0.528122 -0.476034 0
M  V30 320 H 33.0951 0.906633 -1.73206 0
M  V30 321 H 31.7991 2.47788 -3.27153 0
M  V30 322 H 31.3301 3.45886 -1.87421 0
M  V30 323 H 33.3451 4.69334 -1.61059 0
M  V30 324 N 32.5182 1.22032 0.997298 0
M  V30 325 C 33.4482 1.01065 2.10495 0
M  V30 326 C 34.4292 -0.0669542 1.69968 0
M  V30 327 O 35.6142 0.0943987 1.9397 0
M  V30 328 C 32.7442 0.582874 3.42374 0
M  V30 329 C 31.6982 1.60592 3.96729 0
M  V30 330 C 31.0242 1.03412 5.24605 0
M  V30 331 C 32.3242 2.99478 4.27914 0
M  V30 332 H 34.0182 1.93708 2.28292 0
M  V30 333 H 31.5642 0.932761 1.09707 0
M  V30 334 H 33.5172 0.423332 4.19268 0
M  V30 335 H 32.2412 -0.379213 3.24391 0
M  V30 336 H 30.9002 1.75316 3.21963 0
M  V30 337 H 30.5482 0.063518 5.0296 0
M  V30 338 H 30.2482 1.71754 5.61938 0
M  V30 339 H 31.7722 0.886066 6.04137 0
M  V30 340 H 33.1862 2.88153 4.95622 0
M  V30 341 H 31.5832 3.64903 4.76409 0
M  V30 342 H 32.6532 3.49742 3.3587 0
M  V30 343 N 33.9963 -1.19345 1.0293 0
M  V30 344 C 34.9263 -2.2481 0.631105 0
M  V30 345 C 35.9073 -1.66245 -0.360104 0
M  V30 346 O 37.0923 -1.92677 -0.242726 0
M  V30 347 C 34.2223 -3.47295 -0.0184607 0
M  V30 348 C 33.1763 -4.18536 0.895073 0
M  V30 349 C 32.5023 -5.34586 0.110592 0
M  V30 350 C 33.8023 -4.73287 2.209 0
M  V30 351 H 35.4963 -2.58372 1.51275 0
M  V30 352 H 33.0423 -1.24194 0.728818 0
M  V30 353 H 34.9953 -4.20268 -0.308675 0
M  V30 354 H 33.7193 -3.12933 -0.934907 0
M  V30 355 H 32.3783 -3.47446 1.16949 0
M  V30 356 H 32.0263 -4.96469 -0.807902 0
M  V30 357 H 31.7263 -5.83183 0.719087 0
M  V30 358 H 33.2503 -6.10355 -0.172871 0
M  V30 359 H 34.6643 -5.38013 1.98028 0
M  V30 360 H 33.0613 -5.32373 2.76946 0
M  V30 361 H 34.1313 -3.91331 2.86336 0
M  V30 362 N 35.4744 -0.807222 -1.35358 0
M  V30 363 C 36.6994 -0.399309 -2.0352 0
M  V30 364 C 37.1244 0.981986 -1.60433 0
M  V30 365 O 36.4824 1.63601 -0.781299 0
M  V30 366 C 36.5304 -0.491552 -3.57234 0
M  V30 367 O 35.6344 0.494754 -4.09421 0
M  V30 368 H 34.9754 -0.166682 -0.642739 0
M  V30 369 H 37.5054 -1.09328 -1.72941 0
M  V30 370 H 37.5154 -0.361588 -4.06395 0
M  V30 371 H 36.1904 -1.49907 -3.87944 0
M  V30 372 H 34.7674 0.324977 -3.71481 0
M  V30 373 N 36.9525 1.47285 -0.560781 0
M  V30 374 C 37.9025 2.27073 0.205384 0
M  V30 375 C 38.8865 1.34569 0.882044 0
M  V30 376 O 40.0785 1.58899 0.77976 0
M  V30 377 C 37.2075 3.20414 1.23247 0
M  V30 378 C 36.2935 4.20399 0.559041 0
M  V30 379 N 36.6845 5.04423 -0.372927 0
M  V30 380 C 34.9825 4.38536 0.812522 0
M  V30 381 C 35.6835 5.76655 -0.764446 0
M  V30 382 N 34.6595 5.43471 -0.11848 0
M  V30 383 H 38.4615 2.89422 -0.511117 0
M  V30 384 H 35.9755 1.57868 -0.380975 0
M  V30 385 H 37.9725 3.76262 1.79534 0
M  V30 386 H 36.6325 2.59623 1.95002 0
M  V30 387 H 37.6435 5.1248 -0.747287 0
M  V30 388 H 34.3205 3.88913 1.51832 0
M  V30 389 H 35.7105 6.54238 -1.53045 0
M  V30 390 N 38.4306 0.297415 1.54768 0
M  V30 391 C 39.3936 -0.567375 2.22066 0
M  V30 392 C 40.3936 -1.06409 1.20556 0
M  V30 393 O 41.5836 -0.960691 1.45315 0
M  V30 394 C 38.7156 -1.78517 2.90421 0
M  V30 395 H 39.9086 0.0205534 2.99893 0
M  V30 396 H 37.4616 0.0482163 1.56226 0
M  V30 397 H 38.1966 -2.41303 2.16664 0
M  V30 398 H 37.9816 -1.43669 3.64831 0
M  V30 399 H 39.4716 -2.39964 3.41771 0
M  V30 400 N 39.9087 -1.5758 0.0250728 0
M  V30 401 C 40.8717 -2.08896 -0.943139 0
M  V30 402 C 41.8717 -1.00321 -1.25668 0
M  V30 403 O 43.0617 -1.26495 -1.19769 0
M  V30 404 C 40.1937 -2.55143 -2.26086 0
M  V30 405 H 41.3867 -2.95723 -0.498775 0
M  V30 406 H 38.9397 -1.54703 -0.222888 0
M  V30 407 H 39.6747 -1.71633 -2.75159 0
M  V30 408 H 39.4597 -3.34461 -2.04641 0
M  V30 409 H 40.9497 -2.95083 -2.95492 0
M  V30 410 N 41.3868 0.248026 -1.55636 0
M  V30 411 C 42.3498 1.29044 -1.89421 0
M  V30 412 C 43.3498 1.41134 -0.770581 0
M  V30 413 O 44.5398 1.39854 -1.03858 0
M  V30 414 C 41.6718 2.66831 -2.12165 0
M  V30 415 H 42.8648 1.00305 -2.82629 0
M  V30 416 H 40.4178 0.487265 -1.48511 0
M  V30 417 H 41.1528 3.00711 -1.21422 0
M  V30 418 H 40.9378 2.59438 -2.93997 0
M  V30 419 H 42.4278 3.42103 -2.3949 0
M  V30 420 N 42.8649 1.48995 0.513639 0
M  V30 421 C 43.8279 1.64229 1.59879 0
M  V30 422 C 44.8279 0.514696 1.5234 0
M  V30 423 O 46.0179 0.78087 1.55718 0
M  V30 424 C 43.1499 1.62783 2.99524 0
M  V30 425 H 44.3429 2.61004 1.47705 0
M  V30 426 H 41.8959 1.37837 0.736936 0
M  V30 427 H 42.6309 0.675461 3.17188 0
M  V30 428 H 42.4159 2.4466 3.06404 0
M  V30 429 H 43.9059 1.76669 3.78388 0
M  V30 430 N 44.343 -0.763751 1.37857 0
M  V30 431 C 45.754 -1.3405 1.29952 0
M  V30 432 C 46.105 -1.96138 -0.0492898 0
M  V30 433 O 45.23 -1.94372 -0.951239 0
M  V30 434 C 45.825 -2.43729 2.35333 0
M  V30 435 C 44.384 -2.97151 2.31037 0
M  V30 436 C 43.531 -1.70438 2.18738 0
M  V30 437 H 46.482 -0.563396 1.48363 0
M  V30 438 H 46.503 -3.23412 2.00462 0
M  V30 439 H 46.015 -1.9851 3.33489 0
M  V30 440 H 44.116 -3.46724 1.3643 0
M  V30 441 H 44.229 -3.52221 3.24772 0
M  V30 442 H 42.593 -1.93673 1.65418 0
M  V30 443 H 43.376 -1.27312 3.18821 0
M  V30 444 N 45.8211 -1.22559 -0.990812 0
M  V30 445 C 47.0461 -1.07862 -1.77145 0
M  V30 446 C 47.4711 0.366447 -1.84496 0
M  V30 447 O 46.8291 1.26478 -1.29896 0
M  V30 448 C 46.8771 -1.69686 -3.18181 0
M  V30 449 O 45.9811 -0.951946 -4.01263 0
M  V30 450 H 45.3221 -0.378712 -0.545411 0
M  V30 451 H 47.8521 -1.62399 -1.2445 0
M  V30 452 H 47.8621 -1.74496 -3.68802 0
M  V30 453 H 46.5371 -2.74841 -3.12146 0
M  V30 454 H 45.1141 -0.980011 -3.59792 0
M  V30 455 N 47.2992 1.18797 -1.03562 0
M  V30 456 C 48.7102 1.70322 -0.764676 0
M  V30 457 C 49.0612 1.82708 0.714996 0
M  V30 458 O 48.1862 1.50299 1.55689 0
M  V30 459 C 48.7812 3.09356 -1.38145 0
M  V30 460 C 47.3402 3.58114 -1.15895 0
M  V30 461 C 46.4872 2.34798 -1.4753 0
M  V30 462 H 49.4382 1.03543 -1.20268 0
M  V30 463 H 49.4592 3.72378 -0.781977 0
M  V30 464 H 48.9712 3.00309 -2.45837 0
M  V30 465 H 47.0722 3.72464 -0.100544 0
M  V30 466 H 47.1852 4.4184 -1.8524 0
M  V30 467 H 45.5492 2.38464 -0.894829 0
M  V30 468 H 46.3322 2.28375 -2.56319 0
M  V30 469 N 48.7773 0.814389 1.34928 0
M  V30 470 C 50.0263 0.394871 1.97797 0
M  V30 471 C 50.3393 -1.04555 1.65311 0
M  V30 472 O 51.5453 -1.56856 2.21604 0
M  V30 473 C 50.0013 0.655103 3.53888 0
M  V30 474 C 49.6093 2.10858 3.95276 0
M  V30 475 C 51.3533 0.301329 4.23429 0
M  V30 476 C 49.2603 2.31415 5.44244 0
M  V30 477 H 48.1903 0.143913 0.740139 0
M  V30 478 H 50.8413 0.999544 1.53888 0
M  V30 479 H 49.2233 -0.0196253 3.95995 0
M  V30 480 H 50.3973 2.82176 3.64298 0
M  V30 481 H 48.7123 2.42297 3.38646 0
M  V30 482 H 51.3093 0.432869 5.32945 0
M  V30 483 H 51.6523 -0.75331 4.09428 0
M  V30 484 H 52.1853 0.930288 3.86769 0
M  V30 485 H 48.9243 3.35353 5.63222 0
M  V30 486 H 48.4443 1.6463 5.76764 0
M  V30 487 H 50.1233 2.13352 6.10811 0
M  V30 488 N 50.2554 -1.46986 0.568584 0
M  V30 489 C 51.5044 -2.01646 0.0465894 0
M  V30 490 C 51.8174 -1.44721 -1.31587 0
M  V30 491 O 53.0234 -1.91113 -1.92842 0
M  V30 492 C 51.4794 -3.59885 0.032752 0
M  V30 493 C 51.0874 -4.25804 1.39266 0
M  V30 494 C 52.8314 -4.22255 -0.436038 0
M  V30 495 C 50.7384 -5.76081 1.33732 0
M  V30 496 H 49.6684 -0.753876 0.013647 0
M  V30 497 H 52.3194 -1.68864 0.718131 0
M  V30 498 H 50.7014 -3.8968 -0.704669 0
M  V30 499 H 51.8754 -4.07637 2.1487 0
M  V30 500 H 50.1904 -3.7547 1.80032 0
M  V30 501 H 52.7874 -5.32394 -0.49602 0
M  V30 502 H 53.1304 -3.90212 -1.45053 0
M  V30 503 H 53.6634 -3.97033 0.246877 0
M  V30 504 H 50.4024 -6.12761 2.32817 0
M  V30 505 H 49.9224 -5.96553 0.623267 0
M  V30 506 H 51.6014 -6.38518 1.0442 0
M  V30 507 N 51.7335 -0.305618 -1.54608 0
M  V30 508 C 52.6805 0.568421 -2.23691 0
M  V30 509 C 53.6505 1.12592 -1.22116 0
M  V30 510 O 54.8355 1.16959 -1.50749 0
M  V30 511 C 51.9755 1.7322 -2.98477 0
M  V30 512 C 51.0885 1.20566 -4.14835 0
M  V30 513 C 50.2235 2.33368 -4.77193 0
M  V30 514 C 49.2625 1.7787 -5.85686 0
M  V30 515 N 48.3995 2.84263 -6.4198 0
M  V30 516 H 53.2395 -0.0272867 -2.97988 0
M  V30 517 H 50.7765 -0.0252363 -1.47078 0
M  V30 518 H 52.7345 2.41675 -3.40072 0
M  V30 519 H 51.3645 2.29947 -2.26548 0
M  V30 520 H 50.4165 0.413223 -3.78149 0
M  V30 521 H 51.7285 0.759417 -4.92985 0
M  V30 522 H 50.8825 3.09761 -5.21664 0
M  V30 523 H 49.6215 2.8132 -3.98385 0
M  V30 524 H 48.6265 0.99968 -5.40635 0
M  V30 525 H 49.8515 1.30816 -6.66381 0
M  V30 526 H 47.7975 3.31541 -5.66053 0
M  V30 527 H 47.7145 2.44149 -7.15491 0
M  V30 528 H 48.9825 3.6054 -6.91109 0
M  V30 529 N 53.2116 1.57565 -0.0334293 0
M  V30 530 C 54.4586 1.91978 0.644272 0
M  V30 531 C 54.7866 0.910231 1.71887 0
M  V30 532 O 54.0416 -0.0801961 1.95536 0
M  V30 533 C 54.3406 3.33112 1.29504 0
M  V30 534 C 54.0066 4.49537 0.350388 0
M  V30 535 C 52.6686 4.81115 0.0903974 0
M  V30 536 C 55.0206 5.20347 -0.298032 0
M  V30 537 C 52.3486 5.8086 -0.825746 0
M  V30 538 C 54.7006 6.2107 -1.20226 0
M  V30 539 C 53.3646 6.51088 -1.4711 0
M  V30 540 H 52.6346 0.702496 0.235756 0
M  V30 541 H 55.2816 1.91259 -0.0961176 0
M  V30 542 H 53.5866 3.30113 2.11028 0
M  V30 543 H 55.2836 3.57011 1.82603 0
M  V30 544 H 51.8736 4.24883 0.563205 0
M  V30 545 H 56.0576 4.96178 -0.110234 0
M  V30 546 H 51.3136 6.02461 -1.04169 0
M  V30 547 H 55.4876 6.75057 -1.71086 0
M  V30 548 H 53.1146 7.28193 -2.18264 0
M  V30 549 N 54.6897 -0.239769 1.55765 0
M  V30 550 C 56.1007 -0.808263 1.68297 0
M  V30 551 C 56.4517 -1.85736 0.632181 0
M  V30 552 O 55.5767 -2.15277 -0.220204 0
M  V30 553 C 56.1717 -1.47284 3.05111 0
M  V30 554 C 54.7307 -1.98895 3.19559 0
M  V30 555 C 53.8777 -0.842575 2.64189 0
M  V30 556 H 56.8287 -0.0154422 1.58692 0
M  V30 557 H 56.8497 -2.34111 2.99954 0
M  V30 558 H 56.3617 -0.709053 3.81568 0
M  V30 559 H 54.4627 -2.78132 2.47938 0
M  V30 560 H 54.5757 -2.18143 4.26556 0
M  V30 561 H 52.9397 -1.24501 2.22197 0
M  V30 562 H 53.7227 -0.0917552 3.43177 0
M  V30 563 N 56.1678 -1.49265 -0.50573 0
M  V30 564 C 57.4158 -1.582 -1.25766 0
M  V30 565 C 57.7368 -0.268482 -1.93143 0
M  V30 566 O 57.0068 0.711833 -1.8251 0
M  V30 567 H 55.5868 -0.582873 -0.467191 0
M  V30 568 H 58.2488 -1.85865 -0.586525 0
M  V30 569 H 57.3448 -2.37563 -2.02412 0
M  V30 570 N 57.6459 0.756429 -1.3826 0
M  V30 571 C 58.9229 1.50584 -1.24835 0
M  V30 572 C 59.3029 2.10556 0.151485 0
M  V30 573 O 58.6509 1.96825 1.1607 0
M  V30 574 C 58.8609 2.57448 -2.3563 0
M  V30 575 C 60.2089 3.24429 -2.73917 0
M  V30 576 O 61.2329 2.67751 -2.34921 0
M  V30 577 O 60.0919 4.26937 -3.41156 0
M  V30 578 H 57.1859 0.667664 -0.48801 0
M  V30 579 H 59.7319 0.792083 -1.5008 0
M  V30 580 H 58.5039 2.11362 -3.29305 0
M  V30 581 H 58.1269 3.36408 -2.11933 0
M  V30 582 N 59.124 1.23083 0.984299 0
M  V30 583 C 60.37 1.06214 1.72761 0
M  V30 584 C 60.703 -0.400584 1.90024 0
M  V30 585 O 59.978 -1.29672 1.44967 0
M  V30 586 C 60.261 1.78375 3.12817 0
M  V30 587 C 60.114 3.32296 3.03149 0
M  V30 588 C 61.433 1.54309 4.12161 0
M  V30 589 H 58.552 0.387251 0.627061 0
M  V30 590 H 61.194 1.51536 1.14616 0
M  V30 591 H 59.344 1.39848 3.62457 0
M  V30 592 H 61.016 3.8032 2.61064 0
M  V30 593 H 59.259 3.6153 2.39747 0
M  V30 594 H 59.93 3.77972 4.02295 0
M  V30 595 H 62.406 1.87791 3.71314 0
M  V30 596 H 61.282 2.07281 5.08258 0
M  V30 597 H 61.543 0.477572 4.39513 0
M  V30 598 N 60.6021 -1.18246 1.0419 0
M  V30 599 C 61.5651 -2.20128 0.638452 0
M  V30 600 C 62.5651 -1.57885 -0.304805 0
M  V30 601 O 63.7551 -1.73967 -0.0900369 0
M  V30 602 C 60.8871 -3.4084 -0.0637751 0
M  V30 603 H 62.0801 -2.57336 1.54007 0
M  V30 604 H 59.6331 -1.32152 0.834598 0
M  V30 605 H 60.3681 -3.09166 -0.979136 0
M  V30 606 H 60.1531 -3.8726 0.614198 0
M  V30 607 H 61.6431 -4.16274 -0.332512 0
M  V30 608 N 62.0802 -0.821533 -1.34494 0
M  V30 609 C 63.4912 -0.467956 -1.8074 0
M  V30 610 C 63.8422 1.01151 -1.68116 0
M  V30 611 O 62.9672 1.78707 -1.22036 0
M  V30 612 C 63.5622 -0.842627 -3.28154 0
M  V30 613 C 62.1212 -0.541439 -3.72485 0
M  V30 614 C 61.2682 -1.06028 -2.56229 0
M  V30 615 H 64.2192 -1.01183 -1.22261 0
M  V30 616 H 64.2402 -0.145876 -3.8022 0
M  V30 617 H 63.7522 -1.91945 -3.37311 0
M  V30 618 H 61.8532 0.526034 -3.68868 0
M  V30 619 H 61.9662 -1.08453 -4.66663 0
M  V30 620 H 60.3302 -0.481892 -2.501 0
M  V30 621 H 61.1132 -2.14352 -2.68157 0
M  V30 622 N 63.5583 1.46682 -0.576371 0
M  V30 623 C 64.5053 2.30241 0.160499 0
M  V30 624 C 65.4753 1.40233 0.890162 0
M  V30 625 O 66.6603 1.69186 0.882084 0
M  V30 626 C 63.8003 3.24578 1.1723 0
M  V30 627 C 62.9133 4.29684 0.446736 0
M  V30 628 C 62.0483 5.11154 1.44551 0
M  V30 629 C 61.0873 6.08015 0.70599 0
M  V30 630 N 60.2243 6.82376 1.65251 0
M  V30 631 H 65.0643 2.92727 -0.558127 0
M  V30 632 H 62.6013 1.44272 -0.287056 0
M  V30 633 H 64.5593 3.77711 1.77172 0
M  V30 634 H 63.1893 2.63916 1.85872 0
M  V30 635 H 62.2413 3.79458 -0.267594 0
M  V30 636 H 63.5533 4.98626 -0.131686 0
M  V30 637 H 62.7073 5.68533 2.11791 0
M  V30 638 H 61.4463 4.42158 2.05786 0
M  V30 639 H 60.4513 5.49796 0.0197725 0
M  V30 640 H 61.6763 6.79028 0.09912 0
M  V30 641 H 59.6223 6.16094 2.25308 0
M  V30 642 H 59.5393 7.47556 1.12673 0
M  V30 643 H 60.8073 7.44316 2.31546 0
M  V30 644 N 65.0364 0.313813 1.54444 0
M  V30 645 C 66.2644 -0.293918 2.04802 0
M  V30 646 C 66.6794 -1.46537 1.19047 0
M  V30 647 O 66.0364 -1.81182 0.218939 0
M  V30 648 C 66.0874 -0.737806 3.53891 0
M  V30 649 O 65.8084 0.387038 4.36387 0
M  V30 650 C 67.3094 -1.40936 4.203 0
M  V30 651 H 64.5294 -0.0620057 0.668129 0
M  V30 652 H 67.0734 0.457169 1.99324 0
M  V30 653 H 65.2284 -1.43889 3.59687 0
M  V30 654 H 65.6424 0.0391274 5.24485 0
M  V30 655 H 67.1164 -1.67099 5.26101 0
M  V30 656 H 67.5934 -2.35355 3.70816 0
M  V30 657 H 68.1994 -0.751117 4.18615 0
M  V30 658 N 66.5145 -1.57545 0.0417849 0
M  V30 659 C 67.7915 -1.83642 -0.673433 0
M  V30 660 C 68.1715 -0.928298 -1.89594 0
M  V30 661 O 67.5195 0.0129955 -2.28496 0
M  V30 662 C 67.7295 -3.33155 -1.03964 0
M  V30 663 C 69.0775 -3.99941 -1.42592 0
M  V30 664 O 70.1015 -3.37725 -1.13226 0
M  V30 665 O 68.9605 -5.09619 -1.9736 0
M  V30 666 H 66.0545 -0.757638 -0.331533 0
M  V30 667 H 68.6005 -1.69554 0.070433 0
M  V30 668 H 67.3725 -3.9093 -0.170098 0
M  V30 669 H 66.9955 -3.52396 -1.84126 0
M  V30 670 N 67.9926 0.231505 -1.5589 0
M  V30 671 C 68.9396 1.28682 -1.91598 0
M  V30 672 C 69.9096 1.47071 -0.771974 0
M  V30 673 O 71.0946 1.60802 -1.027 0
M  V30 674 C 68.2346 2.6342 -2.22944 0
M  V30 675 C 67.3476 2.52912 -3.50228 0
M  V30 676 C 66.4826 3.80106 -3.7107 0
M  V30 677 C 65.5216 3.64279 -4.91902 0
M  V30 678 N 64.6586 4.834 -5.09184 0
M  V30 679 H 69.4986 0.975305 -2.81588 0
M  V30 680 H 67.0356 0.470299 -1.39379 0
M  V30 681 H 68.9936 3.41869 -2.39126 0
M  V30 682 H 67.6236 2.92687 -1.36139 0
M  V30 683 H 66.6756 1.6595 -3.42294 0
M  V30 684 H 67.9876 2.37133 -4.38827 0
M  V30 685 H 67.1416 4.66999 -3.87295 0
M  V30 686 H 65.8806 3.98799 -2.80733 0
M  V30 687 H 64.8856 2.7577 -4.75637 0
M  V30 688 H 66.1106 3.47067 -5.83714 0
M  V30 689 H 64.0566 5.02425 -4.21788 0
M  V30 690 H 63.9736 4.70311 -5.91898 0
M  V30 691 H 65.2416 5.71747 -5.29835 0
M  V30 692 N 69.4707 1.49531 0.497807 0
M  V30 693 C 70.3807 1.69176 1.62532 0
M  V30 694 C 71.3967 0.5744 1.64246 0
M  V30 695 O 72.5727 0.849497 1.82608 0
M  V30 696 C 69.6377 1.75695 2.98885 0
M  V30 697 C 68.6987 2.9929 3.07773 0
M  V30 698 C 67.9317 3.05488 4.37622 0
M  V30 699 O 68.1547 2.19192 5.26603 0
M  V30 700 O 67.0887 3.9798 4.51548 0
M  V30 701 H 70.9147 2.647 1.48887 0
M  V30 702 H 68.4997 1.3331 0.674441 0
M  V30 703 H 70.3817 1.82317 3.79919 0
M  V30 704 H 69.0567 0.8335 3.12785 0
M  V30 705 H 67.9637 2.98183 2.25915 0
M  V30 706 H 69.2967 3.91125 2.98801 0
M  V30 707 N 70.9488 -0.749086 1.3866 0
M  V30 708 C 71.8788 -1.8764 1.38973 0
M  V30 709 C 72.8598 -1.68178 0.255004 0
M  V30 710 O 74.0448 -1.88704 0.458754 0
M  V30 711 C 71.1748 -3.25222 1.21851 0
M  V30 712 C 70.1288 -3.59295 2.32575 0
M  V30 713 C 69.4548 -4.95663 2.00555 0
M  V30 714 C 70.7548 -3.63709 3.7485 0
M  V30 715 H 72.4488 -1.87635 2.3331 0
M  V30 716 H 69.9948 -0.901329 1.12303 0
M  V30 717 H 71.9478 -4.03746 1.20695 0
M  V30 718 H 70.6718 -3.25719 0.239775 0
M  V30 719 H 69.3308 -2.83093 2.32925 0
M  V30 720 H 68.9788 -4.92724 1.01154 0
M  V30 721 H 68.6788 -5.19429 2.74714 0
M  V30 722 H 70.2028 -5.7656 2.01024 0
M  V30 723 H 71.6168 -4.32338 3.76506 0
M  V30 724 H 70.0138 -3.98986 4.48252 0
M  V30 725 H 71.0838 -2.63834 4.06841 0
M  V30 726 N 72.4269 -1.23603 -0.977757 0
M  V30 727 C 73.3899 -1.02069 -2.05218 0
M  V30 728 C 74.3899 0.0184305 -1.60789 0
M  V30 729 O 75.5799 -0.221569 -1.72785 0
M  V30 730 C 72.7119 -0.544926 -3.36517 0
M  V30 731 H 73.9049 -1.9742 -2.25755 0
M  V30 732 H 71.4579 -1.05684 -1.15155 0
M  V30 733 H 72.1929 0.412241 -3.21669 0
M  V30 734 H 71.9779 -1.2948 -3.70105 0
M  V30 735 H 73.4679 -0.414985 -4.15533 0
M  V30 736 N 73.905 1.17692 -1.04816 0
M  V30 737 C 75.151 1.88137 -0.75711 0
M  V30 738 C 75.484 1.80604 0.713841 0
M  V30 739 O 74.759 1.21146 1.52164 0
M  V30 740 C 75.042 3.38318 -1.2334 0
M  V30 741 C 74.895 3.54622 -2.76701 0
M  V30 742 C 76.214 4.32214 -0.829415 0
M  V30 743 H 73.333 0.683163 -0.27651 0
M  V30 744 H 75.975 1.38424 -1.30149 0
M  V30 745 H 74.125 3.80787 -0.770286 0
M  V30 746 H 75.797 3.21194 -3.31107 0
M  V30 747 H 74.04 2.97026 -3.16161 0
M  V30 748 H 74.711 4.60028 -3.05088 0
M  V30 749 H 77.187 3.97565 -1.22805 0
M  V30 750 H 76.063 5.35838 -1.19033 0
M  V30 751 H 76.324 4.41294 0.266891 0
M  V30 752 N 75.3831 0.828654 1.34056 0
M  V30 753 C 76.3151 0.212052 2.28217 0
M  V30 754 C 77.3281 -0.601362 1.51286 0
M  V30 755 O 78.5171 -0.430104 1.73241 0
M  V30 756 C 75.6171 -0.72088 3.31144 0
M  V30 757 C 74.7901 0.0509587 4.3737 0
M  V30 758 C 73.8491 -0.803766 5.20025 0
M  V30 759 O 72.8751 -0.246667 5.68665 0
M  V30 760 N 74.0771 -2.1227 5.40298 0
M  V30 761 H 76.8421 1.02105 2.81771 0
M  V30 762 H 74.4031 0.686153 1.46641 0
M  V30 763 H 76.3951 -1.29742 3.8334 0
M  V30 764 H 74.9651 -1.43061 2.77943 0
M  V30 765 H 74.1851 0.808831 3.85813 0
M  V30 766 H 75.4731 0.582065 5.0546 0
M  V30 767 H 74.8711 -2.59898 5.02464 0
M  V30 768 H 73.4281 -2.64796 5.95589 0
M  V30 769 N 76.8612 -1.46375 0.584142 0
M  V30 770 C 78.0912 -2.06461 0.0758195 0
M  V30 771 C 78.4992 -1.43322 -1.23512 0
M  V30 772 O 77.8422 -0.533216 -1.75791 0
M  V30 773 C 77.9042 -3.59131 -0.162773 0
M  V30 774 C 77.5682 -4.4447 1.06279 0
M  V30 775 C 78.5652 -4.80918 1.97519 0
M  V30 776 C 76.2502 -4.85584 1.28504 0
M  V30 777 C 78.2442 -5.57309 3.09331 0
M  V30 778 C 75.9312 -5.61734 2.4062 0
M  V30 779 C 76.9292 -5.9751 3.30863 0
M  V30 780 O 76.6172 -6.72121 4.41032 0
M  V30 781 H 76.3492 -0.673745 0.0551725 0
M  V30 782 H 78.9032 -1.88969 0.804984 0
M  V30 783 H 77.1332 -3.74936 -0.946565 0
M  V30 784 H 78.8222 -4.0114 -0.619782 0
M  V30 785 H 79.5882 -4.49732 1.81565 0
M  V30 786 H 75.4672 -4.57187 0.591702 0
M  V30 787 H 79.0112 -5.85152 3.79793 0
M  V30 788 H 74.9082 -5.92334 2.56537 0
M  V30 789 H 75.6762 -6.90547 4.39417 0
M  V30 790 N 78.3393 -0.321999 -1.54275 0
M  V30 791 C 79.2693 0.537411 -2.27231 0
M  V30 792 C 80.2503 1.12064 -1.27968 0
M  V30 793 O 81.4353 1.14606 -1.56777 0
M  V30 794 C 78.5653 1.69919 -3.02894 0
M  V30 795 C 77.5193 1.24534 -4.09482 0
M  V30 796 C 76.8453 2.49394 -4.72977 0
M  V30 797 C 78.1453 0.361335 -5.21049 0
M  V30 798 H 79.8393 -0.0711406 -2.99315 0
M  V30 799 H 77.3853 -0.0356555 -1.43956 0
M  V30 800 H 79.3383 2.30668 -3.52662 0
M  V30 801 H 78.0623 2.33431 -2.28424 0
M  V30 802 H 76.7213 0.660782 -3.60596 0
M  V30 803 H 76.3693 3.11265 -3.95124 0
M  V30 804 H 76.0693 2.19718 -5.44975 0
M  V30 805 H 77.5933 3.10908 -5.25517 0
M  V30 806 H 79.0073 0.875072 -5.66582 0
M  V30 807 H 77.4043 0.157428 -5.99893 0
M  V30 808 H 78.4743 -0.60822 -4.8107 0
M  V30 809 N 79.8174 1.5752 -0.0501392 0
M  V30 810 C 80.7654 2.12651 0.942459 0
M  V30 811 C 81.7594 1.05807 1.32292 0
M  V30 812 O 82.9654 1.24217 1.3027 0
M  V30 813 H 79.3404 0.679673 0.321789 0
M  V30 814 H 81.3114 2.94951 0.452356 0
M  V30 815 C 80.0604 2.68565 2.20836 0
M  V30 816 H 79.3834 3.50439 1.92439 0
M  V30 817 H 80.8234 3.10761 2.8845 0
M  V30 818 C 79.2824 1.62291 2.95234 0
M  V30 819 O 79.8124 1.03508 3.88135 0
M  V30 820 N 78.0184 1.33836 2.57946 0
M  V30 821 H 77.5654 1.81826 1.82475 0
M  V30 822 H 77.5234 0.629595 3.08032 0
M  V30 823 N 81.2955 -0.223234 1.56011 0
M  V30 824 C 82.5235 -0.964812 1.83027 0
M  V30 825 C 82.9385 -1.78013 0.62904 0
M  V30 826 O 82.2955 -1.78008 -0.402414 0
M  V30 827 C 82.3465 -1.88373 3.08542 0
M  V30 828 O 82.0675 -1.10137 4.2403 0
M  V30 829 C 83.5685 -2.73934 3.48533 0
M  V30 830 H 80.7885 -0.282842 0.608475 0
M  V30 831 H 83.3325 -0.238971 2.03099 0
M  V30 832 H 81.4875 -2.56354 2.9045 0
M  V30 833 H 81.9015 -1.72501 4.95322 0
M  V30 834 H 83.3755 -3.34117 4.39397 0
M  V30 835 H 83.8525 -3.46244 2.70207 0
M  V30 836 H 84.4585 -2.11369 3.69057 0
M  V30 837 N 82.7736 -1.49793 -0.48987 0
M  V30 838 C 84.0206 -1.59841 -1.24327 0
M  V30 839 C 84.3486 -0.290135 -1.92324 0
M  V30 840 O 83.6036 0.722749 -1.81865 0
M  V30 841 C 83.9026 -2.71488 -2.32441 0
M  V30 842 C 83.5686 -4.12614 -1.81826 0
M  V30 843 C 82.2306 -4.51017 -1.67742 0
M  V30 844 C 84.5826 -5.00892 -1.4407 0
M  V30 845 C 81.9106 -5.75459 -1.14297 0
M  V30 846 C 84.2626 -6.25863 -0.920742 0
M  V30 847 C 82.9266 -6.63086 -0.766383 0
M  V30 848 H 82.1966 -0.584899 -0.454944 0
M  V30 849 H 84.8436 -1.83663 -0.542215 0
M  V30 850 H 83.1486 -2.4168 -3.0838 0
M  V30 851 H 84.8456 -2.76469 -2.90458 0
M  V30 852 H 81.4356 -3.82307 -1.93751 0
M  V30 853 H 85.6196 -4.7187 -1.53794 0
M  V30 854 H 80.8756 -6.02989 -1.01068 0
M  V30 855 H 85.0496 -6.9364 -0.619448 0
M  V30 856 H 82.6766 -7.59393 -0.350083 0
M  V30 857 N 84.2517 0.741722 -1.39055 0
M  V30 858 C 85.4817 1.52876 -1.3897 0
M  V30 859 C 85.8897 1.8919 0.0193266 0
M  V30 860 O 85.2327 1.54138 0.999356 0
M  V30 861 C 85.2947 2.84929 -2.19216 0
M  V30 862 C 84.9587 2.71086 -3.67915 0
M  V30 863 C 85.9557 2.40084 -4.61146 0
M  V30 864 C 83.6407 2.88168 -4.11418 0
M  V30 865 C 85.6347 2.26335 -5.95862 0
M  V30 866 C 83.3217 2.74037 -5.46211 0
M  V30 867 C 84.3197 2.43166 -6.38247 0
M  V30 868 O 84.0077 2.29115 -7.70559 0
M  V30 869 H 83.7397 0.479252 -0.476753 0
M  V30 870 H 86.2937 0.924751 -1.83405 0
M  V30 871 H 84.5237 3.47564 -1.69518 0
M  V30 872 H 86.2127 3.46509 -2.11392 0
M  V30 873 H 86.9787 2.26545 -4.28838 0
M  V30 874 H 82.8577 3.11191 -3.40119 0
M  V30 875 H 86.4017 2.0216 -6.67665 0
M  V30 876 H 82.2987 2.87153 -5.78112 0
M  V30 877 H 83.0667 2.44237 -7.81211 0
M  V30 878 N 85.7298 1.2412 0.971189 0
M  V30 879 C 86.9778 1.07668 1.71032 0
M  V30 880 C 87.2988 -0.385797 1.91146 0
M  V30 881 O 86.5688 -1.27569 1.4867 0
M  V30 882 H 85.1488 0.395429 0.633755 0
M  V30 883 H 87.8108 1.55984 1.16855 0
M  V30 884 H 86.9068 1.57195 2.69622 0
M  V30 885 N 87.2079 -1.17134 1.05439 0
M  V30 886 C 88.4479 -1.89137 0.77502 0
M  V30 887 C 88.8119 -1.79345 -0.685526 0
M  V30 888 O 90.0129 -2.46188 -1.0791 0
M  V30 889 C 88.2839 -3.35003 1.2453 0
M  V30 890 S 89.8429 -4.24952 1.09367 0
M  V30 891 H 86.6609 -0.652949 0.281387 0
M  V30 892 H 89.2629 -1.4145 1.34953 0
M  V30 893 H 87.9669 -3.39666 2.30338 0
M  V30 894 H 87.4979 -3.87736 0.665166 0
M  V30 895 H 89.5129 -4.96196 0.0193397 0
M  V30 896 N 88.686 -0.835752 -1.33615 0
M  V30 897 C 90.097 -0.487099 -1.80234 0
M  V30 898 C 90.448 0.993627 -1.69179 0
M  V30 899 O 89.573 1.77403 -1.23924 0
M  V30 900 C 90.168 -0.877385 -3.27242 0
M  V30 901 C 88.727 -0.580915 -3.7189 0
M  V30 902 C 87.874 -1.0874 -2.5509 0
M  V30 903 H 90.825 -1.02474 -1.2118 0
M  V30 904 H 90.846 -0.186195 -3.80044 0
M  V30 905 H 90.358 -1.95512 -3.35256 0
M  V30 906 H 88.459 0.486881 -3.69405 0
M  V30 907 H 88.572 -1.13396 -4.65487 0
M  V30 908 H 86.936 -0.508392 -2.49575 0
M  V30 909 H 87.719 -2.17184 -2.65868 0
M  V30 910 N 90.1641 1.46063 -0.591896 0
M  V30 911 C 91.1111 2.30399 0.136069 0
M  V30 912 C 92.0811 1.41169 0.875238 0
M  V30 913 O 93.2661 1.70112 0.86409 0
M  V30 914 C 90.4061 3.25804 1.13781 0
M  V30 915 C 89.5191 4.30134 0.401137 0
M  V30 916 C 88.6541 5.12659 1.39121 0
M  V30 917 C 87.6931 6.0873 0.641462 0
M  V30 918 N 86.8301 6.8409 1.58004 0
M  V30 919 H 91.6701 2.92118 -0.589144 0
M  V30 920 H 89.2071 1.43959 -0.302342 0
M  V30 921 H 91.1651 3.79569 1.73156 0
M  V30 922 H 89.7951 2.65872 1.83062 0
M  V30 923 H 88.8471 3.79152 -0.307826 0
M  V30 924 H 90.1591 4.98458 -0.184565 0
M  V30 925 H 89.3131 5.70747 2.05749 0
M  V30 926 H 88.0521 4.44316 2.01084 0
M  V30 927 H 87.0571 5.49786 -0.0385419 0
M  V30 928 H 88.2821 6.79095 0.0270945 0
M  V30 929 H 86.2281 6.18449 2.18761 0
M  V30 930 H 86.1451 7.48709 1.04738 0
M  V30 931 H 87.4131 7.4673 2.23639 0
M  V30 932 N 91.6422 0.330177 1.54103 0
M  V30 933 C 92.5522 -0.541534 2.28264 0
M  V30 934 C 93.5682 -1.12351 1.32866 0
M  V30 935 O 94.7442 -1.14206 1.65888 0
M  V30 936 C 91.8092 -1.68322 3.03098 0
M  V30 937 C 90.8702 -1.13238 4.14096 0
M  V30 938 C 90.1032 -2.21966 4.85352 0
M  V30 939 O 90.3262 -3.42437 4.56172 0
M  V30 940 O 89.2602 -1.87013 5.7211 0
M  V30 941 H 93.0862 0.060938 3.03639 0
M  V30 942 H 90.6712 0.09565 1.49093 0
M  V30 943 H 92.5532 -2.34777 3.49939 0
M  V30 944 H 91.2282 -2.27176 2.30593 0
M  V30 945 H 90.1352 -0.432736 3.71589 0
M  V30 946 H 91.4682 -0.588898 4.88664 0
M  V30 947 N 93.1203 -1.57491 0.0584922 0
M  V30 948 C 94.3453 -1.97711 -0.62652 0
M  V30 949 C 94.7703 -0.936132 -1.63151 0
M  V30 950 O 94.1283 0.099811 -1.81025 0
M  V30 951 C 94.1763 -3.36989 -1.28338 0
M  V30 952 O 93.2803 -3.35433 -2.39913 0
M  V30 953 H 92.6213 -0.643868 -0.162266 0
M  V30 954 H 95.1513 -2.04193 0.129064 0
M  V30 955 H 95.1613 -3.73879 -1.63335 0
M  V30 956 H 93.8363 -4.12289 -0.546889 0
M  V30 957 H 92.4133 -3.10298 -2.06809 0
M  V30 958 N 94.5984 0.214957 -1.56127 0
M  V30 959 C 95.8384 0.945364 -1.81224 0
M  V30 960 C 96.2024 1.81265 -0.633005 0
M  V30 961 O 97.4034 2.57731 -0.763423 0
M  V30 962 C 95.6744 1.75665 -3.1125 0
M  V30 963 S 97.2334 2.54179 -3.57685 0
M  V30 964 H 94.0514 0.317443 -0.6362 0
M  V30 965 H 96.6534 0.210381 -1.94365 0
M  V30 966 H 95.3574 1.10977 -3.9511 0
M  V30 967 H 94.8884 2.53381 -3.00934 0
M  V30 968 H 96.9034 3.7792 -3.21545 0
M  V30 969 N 96.0765 1.50051 0.48192 0
M  V30 970 C 97.0245 1.68635 1.60203 0
M  V30 971 C 98.0185 0.552184 1.60148 0
M  V30 972 O 99.2245 0.732377 1.64427 0
M  V30 973 H 95.5995 0.532081 0.531407 0
M  V30 974 H 97.5705 2.62616 1.41688 0
M  V30 975 C 96.3195 1.78775 2.9822 0
M  V30 976 H 95.6425 2.6543 2.98976 0
M  V30 977 H 97.0825 1.95806 3.7608 0
M  V30 978 C 95.5415 0.536849 3.32595 0
M  V30 979 O 96.0715 -0.328897 4.00351 0
M  V30 980 N 94.2775 0.394091 2.87915 0
M  V30 981 H 93.8245 1.09962 2.32951 0
M  V30 982 H 93.7825 -0.441737 3.11281 0
M  V30 983 N 97.5546 -0.734337 1.39446 0
M  V30 984 C 98.4846 -1.86155 1.40955 0
M  V30 985 C 99.4656 -1.67898 0.272827 0
M  V30 986 O 100.651 -1.88207 0.478743 0
M  V30 987 C 97.7806 -3.23912 1.25294 0
M  V30 988 C 96.7346 -3.56808 2.36373 0
M  V30 989 C 96.0606 -4.93508 2.058 0
M  V30 990 C 97.3606 -3.59713 3.78687 0
M  V30 991 H 99.0546 -1.8515 2.35287 0
M  V30 992 H 96.6006 -0.889367 1.13253 0
M  V30 993 H 98.5536 -4.02443 1.2497 0
M  V30 994 H 97.2776 -3.25446 0.274308 0
M  V30 995 H 95.9366 -2.80606 2.35914 0
M  V30 996 H 95.5846 -4.91623 1.06374 0
M  V30 997 H 95.2846 -5.16486 2.80208 0
M  V30 998 H 96.8086 -5.74396 2.07128 0
M  V30 999 H 98.2226 -4.2832 3.81071 0
M  V30 1000 H 96.6196 -3.94209 4.52459 0
M  V30 1001 H 97.6896 -2.59504 4.09617 0
M  V30 1002 N 99.0327 -1.24633 -0.964593 0
M  V30 1003 C 100.28 -1.08788 -1.70796 0
M  V30 1004 C 100.608 0.372783 -1.90894 0
M  V30 1005 O 99.8627 1.29167 -1.47018 0
M  V30 1006 C 100.162 -1.7763 -3.10133 0
M  V30 1007 C 99.8277 -3.27557 -3.09866 0
M  V30 1008 C 98.4897 -3.6846 -3.09501 0
M  V30 1009 C 100.842 -4.23389 -3.03959 0
M  V30 1010 C 98.1697 -5.03624 -3.00965 0
M  V30 1011 C 100.522 -5.58565 -2.96965 0
M  V30 1012 C 99.1857 -5.98809 -2.9493 0
M  V30 1013 H 98.4557 -0.398084 -0.624988 0
M  V30 1014 H 101.103 -1.54777 -1.12767 0
M  V30 1015 H 99.4077 -1.24044 -3.71645 0
M  V30 1016 H 101.105 -1.62832 -3.66451 0
M  V30 1017 H 97.6947 -2.95006 -3.10917 0
M  V30 1018 H 101.879 -3.92787 -3.03368 0
M  V30 1019 H 97.1347 -5.33998 -2.97752 0
M  V30 1020 H 101.309 -6.32523 -2.91354 0
M  V30 1021 H 98.9357 -7.03505 -2.88071 0
M  V30 1022 N 100.511 1.16574 -1.06058 0
M  V30 1023 C 101.757 1.87324 -0.777022 0
M  V30 1024 C 102.09 1.81351 0.694645 0
M  V30 1025 O 101.365 1.22753 1.50871 0
M  V30 1026 C 101.648 3.36991 -1.26922 0
M  V30 1027 C 101.501 3.51667 -2.80447 0
M  V30 1028 C 102.82 4.3131 -0.87521 0
M  V30 1029 H 99.9388 0.680191 -0.28374 0
M  V30 1030 H 102.581 1.37036 -1.3161 0
M  V30 1031 H 100.731 3.79949 -0.81063 0
M  V30 1032 H 102.403 3.17664 -3.34495 0
M  V30 1033 H 100.646 2.93656 -3.19294 0
M  V30 1034 H 101.317 4.56766 -3.0995 0
M  V30 1035 H 103.793 3.9624 -1.27014 0
M  V30 1036 H 102.669 5.34545 -1.2471 0
M  V30 1037 H 102.93 4.41552 0.220071 0
M  V30 1038 N 101.989 0.842826 1.3317 0
M  V30 1039 C 102.919 0.294028 2.31641 0
M  V30 1040 C 103.9 -0.600401 1.59151 0
M  V30 1041 O 105.085 -0.523124 1.87022 0
M  V30 1042 C 102.215 -0.528416 3.43257 0
M  V30 1043 C 101.169 0.27056 4.27144 0
M  V30 1044 C 100.495 -0.675881 5.30411 0
M  V30 1045 C 101.795 1.48981 5.00602 0
M  V30 1046 H 103.489 1.11681 2.77791 0
M  V30 1047 H 101.035 0.538478 1.33553 0
M  V30 1048 H 102.988 -0.922674 4.11175 0
M  V30 1049 H 101.712 -1.38445 2.95805 0
M  V30 1050 H 100.371 0.646427 3.60856 0
M  V30 1051 H 100.019 -1.52842 4.79216 0
M  V30 1052 H 99.7189 -0.145374 5.8742 0
M  V30 1053 H 101.243 -1.06757 6.01195 0
M  V30 1054 H 102.657 1.16849 5.61266 0
M  V30 1055 H 101.054 1.95739 5.6728 0
M  V30 1056 H 102.124 2.25746 4.29147 0
M  V30 1057 N 103.467 -1.45747 0.599634 0
M  V30 1058 C 104.414 -2.30467 -0.123849 0
M  V30 1059 C 105.384 -1.41632 -0.86774 0
M  V30 1060 O 106.569 -1.70568 -0.855056 0
M  V30 1061 C 103.709 -3.26402 -1.12051 0
M  V30 1062 C 102.822 -4.3034 -0.37832 0
M  V30 1063 C 101.957 -5.13389 -1.364 0
M  V30 1064 C 100.996 -6.09061 -0.609171 0
M  V30 1065 N 100.133 -6.84918 -1.54374 0
M  V30 1066 H 104.973 -2.91802 0.604627 0
M  V30 1067 H 102.51 -1.43797 0.309972 0
M  V30 1068 H 104.468 -3.80482 -1.7114 0
M  V30 1069 H 103.098 -2.66839 -1.8165 0
M  V30 1070 H 102.15 -3.78984 0.327929 0
M  V30 1071 H 103.462 -4.98354 0.210997 0
M  V30 1072 H 102.616 -5.7183 -2.02719 0
M  V30 1073 H 101.355 -4.45376 -1.98725 0
M  V30 1074 H 100.36 -5.49758 0.0676979 0
M  V30 1075 H 101.585 -6.79099 0.00891991 0
M  V30 1076 H 99.531 -6.19601 -2.15478 0
M  V30 1077 H 99.448 -7.49254 -1.00766 0
M  V30 1078 H 100.716 -7.47906 -2.19676 0
M  V30 1079 N 104.945 -0.338344 -1.53925 0
M  V30 1080 C 106.222 0.314774 -1.93051 0
M  V30 1081 C 106.602 1.68669 -1.26941 0
M  V30 1082 O 105.95 2.24636 -0.418445 0
M  V30 1083 C 106.16 0.392249 -3.46789 0
M  V30 1084 C 107.508 0.645554 -4.19664 0
M  V30 1085 O 108.532 0.474575 -3.53024 0
M  V30 1086 O 107.391 0.976408 -5.37707 0
M  V30 1087 H 104.485 0.182598 -0.80659 0
M  V30 1088 H 107.031 -0.389141 -1.65178 0
M  V30 1089 H 105.803 -0.570702 -3.87116 0
M  V30 1090 H 105.426 1.14316 -3.80812 0
M  V30 1091 N 106.423 1.57458 -0.0668435 0
M  V30 1092 C 107.651 1.97624 0.612565 0
M  V30 1093 C 108.066 0.94502 1.63447 0
M  V30 1094 O 107.423 -0.0689276 1.8237 0
M  V30 1095 C 107.474 3.37869 1.28555 0
M  V30 1096 O 107.195 4.3704 0.304557 0
M  V30 1097 C 108.696 3.92882 2.05325 0
M  V30 1098 H 105.916 0.650045 0.166381 0
M  V30 1099 H 108.46 2.04035 -0.137782 0
M  V30 1100 H 106.615 3.3256 1.98702 0
M  V30 1101 H 107.029 5.18565 0.786779 0
M  V30 1102 H 108.503 4.93247 2.47812 0
M  V30 1103 H 108.98 3.29156 2.9078 0
M  V30 1104 H 109.586 4.01577 1.40056 0
M  V30 1105 N 107.901 -0.206675 1.56239 0
M  V30 1106 C 108.831 -1.25909 1.96645 0
M  V30 1107 C 109.812 -1.48097 0.836734 0
M  V30 1108 O 110.997 -1.6003 1.10019 0
M  V30 1109 C 108.127 -2.6058 2.29599 0
M  V30 1110 C 107.081 -2.53024 3.452 0
M  V30 1111 C 106.407 -3.91861 3.63798 0
M  V30 1112 C 107.707 -2.06524 4.79734 0
M  V30 1113 H 109.401 -0.923369 2.84806 0
M  V30 1114 H 106.947 -0.442735 1.37025 0
M  V30 1115 H 108.9 -3.34375 2.56459 0
M  V30 1116 H 107.624 -2.95869 1.38307 0
M  V30 1117 H 106.283 -1.81684 3.18412 0
M  V30 1118 H 105.931 -4.24483 2.69857 0
M  V30 1119 H 105.631 -3.87683 4.4156 0
M  V30 1120 H 107.155 -4.67296 3.93022 0
M  V30 1121 H 108.569 -2.70072 5.05702 0
M  V30 1122 H 106.966 -2.13374 5.60885 0
M  V30 1123 H 108.036 -1.01802 4.74093 0
M  V30 1124 N 109.379 -1.50304 -0.473955 0
M  V30 1125 C 110.326 -1.68959 -1.57231 0
M  V30 1126 C 111.296 -0.530899 -1.57387 0
M  V30 1127 O 112.481 -0.761133 -1.74961 0
M  V30 1128 C 109.621 -1.7871 -2.95223 0
M  V30 1129 C 108.734 -3.06061 -3.04878 0
M  V30 1130 C 107.869 -3.06626 -4.33767 0
M  V30 1131 C 106.908 -4.28443 -4.37154 0
M  V30 1132 N 106.045 -4.26763 -5.5751 0
M  V30 1133 H 110.885 -2.6273 -1.40631 0
M  V30 1134 H 108.422 -1.30241 -0.683789 0
M  V30 1135 H 110.38 -1.82344 -3.75242 0
M  V30 1136 H 109.01 -0.883806 -3.10465 0
M  V30 1137 H 108.062 -3.11911 -2.17751 0
M  V30 1138 H 109.374 -3.96039 -3.0324 0
M  V30 1139 H 108.528 -3.08973 -5.22131 0
M  V30 1140 H 107.267 -2.14473 -4.3801 0
M  V30 1141 H 106.272 -4.2631 -3.47188 0
M  V30 1142 H 107.497 -5.2182 -4.34605 0
M  V30 1143 H 105.443 -3.37462 -5.62544 0
M  V30 1144 H 105.36 -5.10507 -5.57601 0
M  V30 1145 H 106.628 -4.33253 -6.48006 0
M  V30 1146 N 110.857 0.726932 -1.39834 0
M  V30 1147 C 111.804 1.841 -1.39197 0
M  V30 1148 C 112.774 1.642 -0.250502 0
M  V30 1149 O 113.959 1.85494 -0.446846 0
M  V30 1150 C 111.099 3.21697 -1.24919 0
M  V30 1151 C 110.212 3.53247 -2.48678 0
M  V30 1152 C 109.347 4.80289 -2.26928 0
M  V30 1153 C 108.386 5.04707 -3.4632 0
M  V30 1154 N 107.523 6.22956 -3.23836 0
M  V30 1155 H 112.363 1.83979 -2.34427 0
M  V30 1156 H 109.9 0.898876 -1.16442 0
M  V30 1157 H 111.858 4.01137 -1.1465 0
M  V30 1158 H 110.488 3.21076 -0.333153 0
M  V30 1159 H 109.54 2.68447 -2.69519 0
M  V30 1160 H 110.852 3.67205 -3.37582 0
M  V30 1161 H 110.006 5.67725 -2.13947 0
M  V30 1162 H 108.745 4.68519 -1.35431 0
M  V30 1163 H 107.75 4.1573 -3.5979 0
M  V30 1164 H 108.975 5.18357 -4.38729 0
M  V30 1165 H 106.921 6.12459 -2.35011 0
M  V30 1166 H 106.838 6.37539 -4.063 0
M  V30 1167 H 108.106 7.1321 -3.14566 0
M  V30 1168 N 112.336 1.25143 0.95797 0
M  V30 1169 C 113.269 0.995565 2.05338 0
M  V30 1170 C 114.247 -0.0740423 1.62431 0
M  V30 1171 O 115.431 0.0649212 1.88388 0
M  V30 1172 C 112.558 0.504298 3.34925 0
M  V30 1173 C 111.604 1.56393 3.96792 0
M  V30 1174 S 112.437 3.14815 4.33188 0
M  V30 1175 C 113.593 2.67415 5.65898 0
M  V30 1176 H 113.826 1.92309 2.26726 0
M  V30 1177 H 111.359 1.08635 1.09716 0
M  V30 1178 H 113.317 0.227497 4.09869 0
M  V30 1179 H 111.978 -0.402671 3.11508 0
M  V30 1180 H 111.171 1.17082 4.90212 0
M  V30 1181 H 110.773 1.79124 3.28315 0
M  V30 1182 H 113.065 2.10833 6.4386 0
M  V30 1183 H 114.008 3.59463 6.10076 0
M  V30 1184 H 114.416 2.07521 5.24972 0
M  V30 1185 N 113.814 -1.1601 1.06675 0
M  V30 1186 C 114.746 -2.20115 0.638921 0
M  V30 1187 C 115.759 -1.59916 -0.305057 0
M  V30 1188 O 116.948 -1.78245 -0.0954446 0
M  V30 1189 C 114.048 -3.38798 -0.0830083 0
M  V30 1190 C 113.221 -4.2855 0.875426 0
M  V30 1191 C 112.28 -5.25849 0.192042 0
M  V30 1192 O 111.306 -5.63102 0.830921 0
M  V30 1193 N 112.508 -5.70648 -1.06493 0
M  V30 1194 H 115.273 -2.57439 1.53444 0
M  V30 1195 H 112.834 -1.31057 0.950557 0
M  V30 1196 H 114.826 -4.00936 -0.550685 0
M  V30 1197 H 113.396 -2.99947 -0.880386 0
M  V30 1198 H 112.616 -3.63617 1.52238 0
M  V30 1199 H 113.904 -4.85393 1.52548 0
M  V30 1200 H 113.302 -5.42482 -1.60405 0
M  V30 1201 H 111.859 -6.34859 -1.47641 0
M  V30 1202 N 115.292 -0.849877 -1.32721 0
M  V30 1203 C 116.239 -0.289033 -2.28983 0
M  V30 1204 C 117.209 0.601324 -1.54833 0
M  V30 1205 O 118.394 0.537253 -1.8308 0
M  V30 1206 C 115.534 0.520623 -3.4115 0
M  V30 1207 C 114.647 -0.394989 -4.3019 0
M  V30 1208 C 113.782 0.426834 -5.29482 0
M  V30 1209 C 112.821 -0.486476 -6.10164 0
M  V30 1210 N 111.958 0.297879 -7.01468 0
M  V30 1211 H 116.798 -1.11519 -2.76347 0
M  V30 1212 H 114.335 -0.56138 -1.35967 0
M  V30 1213 H 116.293 1.00563 -4.04899 0
M  V30 1214 H 114.923 1.31165 -2.9495 0
M  V30 1215 H 113.975 -0.99836 -3.67065 0
M  V30 1216 H 115.287 -1.09612 -4.86607 0
M  V30 1217 H 114.441 0.975205 -5.98811 0
M  V30 1218 H 113.18 1.16136 -4.73671 0
M  V30 1219 H 112.185 -1.04677 -5.39743 0
M  V30 1220 H 113.41 -1.21953 -6.6806 0
M  V30 1221 H 111.356 1.01558 -6.48091 0
M  V30 1222 H 111.273 -0.344318 -7.55216 0
M  V30 1223 H 112.541 0.828131 -7.75089 0
M  V30 1224 N 116.77 1.45427 -0.607355 0
M  V30 1225 C 118.017 2.02241 -0.102455 0
M  V30 1226 C 118.345 1.4758 1.26691 0
M  V30 1227 O 117.6 0.640468 1.84923 0
M  V30 1228 C 117.899 3.57398 -0.0129263 0
M  V30 1229 C 117.565 4.3121 -1.31792 0
M  V30 1230 C 116.227 4.51092 -1.67539 0
M  V30 1231 C 118.579 4.73401 -2.18039 0
M  V30 1232 C 115.907 5.10422 -2.89285 0
M  V30 1233 C 118.259 5.34078 -3.39034 0
M  V30 1234 C 116.923 5.52184 -3.75033 0
M  V30 1235 H 116.193 0.740051 -0.037491 0
M  V30 1236 H 118.84 1.74494 -0.788926 0
M  V30 1237 H 117.145 3.84421 0.756806 0
M  V30 1238 H 118.842 3.99061 0.393881 0
M  V30 1239 H 115.432 4.16047 -1.02968 0
M  V30 1240 H 119.616 4.57774 -1.91721 0
M  V30 1241 H 114.872 5.22629 -3.17283 0
M  V30 1242 H 119.046 5.65724 -4.06115 0
M  V30 1243 H 116.673 5.97925 -4.69457 0
M  V30 1244 N 118.248 0.346503 1.53744 0
M  V30 1245 C 119.495 -0.249104 2.00962 0
M  V30 1246 C 119.823 -1.5032 1.23426 0
M  V30 1247 O 119.078 -1.93217 0.310761 0
M  V30 1248 C 119.377 -0.605809 3.52228 0
M  V30 1249 C 119.043 0.551747 4.47512 0
M  V30 1250 C 117.705 0.86941 4.73281 0
M  V30 1251 C 120.057 1.32818 5.03993 0
M  V30 1252 C 117.385 1.96582 5.52786 0
M  V30 1253 C 119.737 2.41486 5.84694 0
M  V30 1254 C 118.401 2.73808 6.08757 0
M  V30 1255 H 117.671 -0.0911538 0.735372 0
M  V30 1256 H 120.318 0.475027 1.85515 0
M  V30 1257 H 118.623 -1.4107 3.65522 0
M  V30 1258 H 120.32 -1.07858 3.86222 0
M  V30 1259 H 116.91 0.294102 4.2759 0
M  V30 1260 H 121.094 1.09602 4.84047 0
M  V30 1261 H 116.35 2.22045 5.69654 0
M  V30 1262 H 120.524 3.02078 6.27473 0
M  V30 1263 H 118.151 3.58892 6.7015 0
M  V30 1264 N 119.726 -1.57421 0.075193 0
M  V30 1265 C 120.974 -1.93236 -0.591974 0
M  V30 1266 C 121.295 -0.956241 -1.69944 0
M  V30 1267 O 120.565 -0.00494792 -1.95899 0
M  V30 1268 H 119.145 -0.713355 -0.22166 0
M  V30 1269 H 121.807 -1.9444 0.133848 0
M  V30 1270 H 120.903 -2.95131 -1.01509 0
M  V30 1271 N 121.204 0.198386 -1.56346 0
M  V30 1272 C 122.134 1.24865 -1.9731 0
M  V30 1273 C 123.115 1.47651 -0.844576 0
M  V30 1274 O 124.3 1.59444 -1.10866 0
M  V30 1275 C 121.43 2.59358 -2.30977 0
M  V30 1276 C 120.384 2.5119 -3.46537 0
M  V30 1277 C 119.71 3.89926 -3.65871 0
M  V30 1278 C 121.01 2.03977 -4.80823 0
M  V30 1279 H 122.704 0.908252 -2.85291 0
M  V30 1280 H 120.25 0.435462 -1.37258 0
M  V30 1281 H 122.203 3.33011 -2.58228 0
M  V30 1282 H 120.927 2.95132 -1.39874 0
M  V30 1283 H 119.586 1.79993 -3.19371 0
M  V30 1284 H 119.234 4.23046 -2.72105 0
M  V30 1285 H 118.934 3.85336 -4.4361 0
M  V30 1286 H 120.458 4.65205 -3.95495 0
M  V30 1287 H 121.872 2.67386 -5.07127 0
M  V30 1288 H 120.269 2.10397 -5.62008 0
M  V30 1289 H 121.339 0.992861 -4.74626 0
M  V30 1290 N 122.682 1.50554 0.465978 0
M  V30 1291 C 124.093 1.54599 1.04671 0
M  V30 1292 C 124.444 0.352488 1.93008 0
M  V30 1293 O 123.569 -0.534044 2.09707 0
M  V30 1294 C 124.164 2.80166 1.90505 0
M  V30 1295 C 122.723 2.86876 2.43678 0
M  V30 1296 C 121.87 2.48947 1.22151 0
M  V30 1297 H 124.821 1.56744 0.248384 0
M  V30 1298 H 124.842 2.62311 2.75633 0
M  V30 1299 H 124.354 3.67013 1.26186 0
M  V30 1300 H 122.455 2.04393 3.11536 0
M  V30 1301 H 122.568 3.89885 2.78436 0
M  V30 1302 H 120.932 2.01498 1.5579 0
M  V30 1303 H 121.715 3.38107 0.594866 0
M  V30 1304 N 124.16 -0.719506 1.40217 0
M  V30 1305 C 125.092 -1.84428 1.36084 0
M  V30 1306 C 126.105 -1.60597 0.266913 0
M  V30 1307 O 127.294 -1.70544 0.526983 0
M  V30 1308 C 124.394 -3.20757 1.094 0
M  V30 1309 C 123.567 -3.71817 2.30372 0
M  V30 1310 C 122.626 -4.86748 1.99907 0
M  V30 1311 O 121.652 -4.99603 2.72737 0
M  V30 1312 N 122.854 -5.7226 0.974635 0
M  V30 1313 H 125.619 -1.88473 2.33019 0
M  V30 1314 H 123.18 -0.900885 1.3452 0
M  V30 1315 H 125.172 -3.95235 0.870116 0
M  V30 1316 H 123.742 -3.11884 0.211452 0
M  V30 1317 H 122.962 -2.88514 2.68614 0
M  V30 1318 H 124.25 -4.02666 3.11026 0
M  V30 1319 H 123.648 -5.6448 0.371368 0
M  V30 1320 H 122.205 -6.46739 0.810656 0
M  V30 1321 N 125.638 -1.25649 -0.95132 0
M  V30 1322 C 126.866 -1.13343 -1.73092 0
M  V30 1323 C 127.281 0.312434 -1.86197 0
M  V30 1324 O 126.638 1.21465 -1.36207 0
M  V30 1325 C 126.689 -1.78602 -3.14299 0
M  V30 1326 O 126.41 -3.17537 -3.01831 0
M  V30 1327 C 127.911 -1.72119 -4.08522 0
M  V30 1328 H 125.131 -0.395181 -0.542285 0
M  V30 1329 H 127.675 -1.66076 -1.19328 0
M  V30 1330 H 125.83 -1.29832 -3.64996 0
M  V30 1331 H 126.244 -3.49676 -3.90931 0
M  V30 1332 H 127.718 -2.22435 -5.052 0
M  V30 1333 H 128.195 -0.685635 -4.33815 0
M  V30 1334 H 128.801 -2.20393 -3.63741 0
M  V30 1335 N 127.117 1.15442 -1.07289 0
M  V30 1336 C 128.365 1.85845 -0.794096 0
M  V30 1337 C 128.686 1.82692 0.681809 0
M  V30 1338 O 127.956 1.26741 1.49377 0
M  V30 1339 H 126.536 0.688089 -0.290763 0
M  V30 1340 H 129.198 1.39947 -1.3565 0
M  V30 1341 H 128.294 2.91001 -1.12804 0
M  V30 1342 N 128.595 0.856903 1.32268 0
M  V30 1343 C 129.872 0.382583 1.91822 0
M  V30 1344 C 130.252 -1.13407 1.78051 0
M  V30 1345 O 129.6 -1.95673 1.18001 0
M  V30 1346 C 129.81 0.849446 3.38505 0
M  V30 1347 C 131.158 0.867936 4.15634 0
M  V30 1348 O 132.182 0.794232 3.47232 0
M  V30 1349 O 131.041 0.972286 5.37781 0
M  V30 1350 H 128.135 0.112014 0.819379 0
M  V30 1351 H 130.681 0.943952 1.41024 0
M  V30 1352 H 129.453 1.89267 3.42482 0
M  V30 1353 H 129.076 0.265652 3.96712 0
M  V30 1354 N 130.073 -1.45103 0.615059 0
M  V30 1355 C 131.003 -2.33339 -0.0865619 0
M  V30 1356 C 131.984 -1.4727 -0.851209 0
M  V30 1357 O 133.169 -1.76026 -0.820281 0
M  V30 1358 C 130.299 -3.30095 -1.07956 0
M  V30 1359 C 129.253 -4.25858 -0.427628 0
M  V30 1360 C 128.579 -5.12361 -1.5294 0
M  V30 1361 C 129.879 -5.18165 0.655944 0
M  V30 1362 H 131.573 -2.92254 0.650224 0
M  V30 1363 H 129.119 -1.40532 0.314138 0
M  V30 1364 H 131.072 -3.90698 -1.57901 0
M  V30 1365 H 129.796 -2.69355 -1.84703 0
M  V30 1366 H 128.455 -3.66564 0.0510292 0
M  V30 1367 H 128.103 -4.47984 -2.28734 0
M  V30 1368 H 127.803 -5.77238 -1.09865 0
M  V30 1369 H 129.327 -5.75833 -2.03098 0
M  V30 1370 H 130.741 -5.72796 0.240257 0
M  V30 1371 H 129.138 -5.91559 1.00888 0
M  V30 1372 H 130.208 -4.60144 1.52957 0
M  V30 1373 N 131.551 -0.354651 -1.53558 0
M  V30 1374 C 132.828 0.294281 -1.93374 0
M  V30 1375 C 133.208 1.67313 -1.28723 0
M  V30 1376 O 132.556 2.24179 -0.442247 0
M  V30 1377 C 132.766 0.355445 -3.47185 0
M  V30 1378 C 134.114 0.601007 -4.20325 0
M  V30 1379 O 135.138 0.437106 -3.53508 0
M  V30 1380 O 133.997 0.919322 -5.38712 0
M  V30 1381 H 131.091 0.174033 -0.808481 0
M  V30 1382 H 133.637 -0.406638 -1.64756 0
M  V30 1383 H 132.409 -0.611729 -3.86489 0
M  V30 1384 H 132.032 1.1027 -3.82003 0
M  V30 1385 N 133.029 1.57378 -0.0835403 0
M  V30 1386 C 133.961 2.10389 0.909338 0
M  V30 1387 C 134.974 1.03858 1.25369 0
M  V30 1388 O 136.163 1.31338 1.20882 0
M  V30 1389 C 133.263 2.55908 2.2218 0
M  V30 1390 C 132.436 3.86145 2.05453 0
M  V30 1391 C 131.495 4.17633 3.20108 0
M  V30 1392 O 130.521 4.87043 2.94581 0
M  V30 1393 N 131.723 3.72113 4.45547 0
M  V30 1394 H 134.488 2.962 0.456657 0
M  V30 1395 H 132.049 1.61579 0.101877 0
M  V30 1396 H 134.041 2.74027 2.97811 0
M  V30 1397 H 132.611 1.75171 2.58909 0
M  V30 1398 H 131.831 3.7729 1.1422 0
M  V30 1399 H 133.119 4.7137 1.91541 0
M  V30 1400 H 132.517 3.16062 4.69171 0
M  V30 1401 H 131.074 3.95409 5.18165 0
M  V30 1402 N 134.507 -0.190092 1.56449 0
M  V30 1403 C 135.455 -1.25501 1.95837 0
M  V30 1404 C 136.449 -1.4685 0.844485 0
M  V30 1405 O 137.655 -1.47651 1.02952 0
M  V30 1406 H 134.03 -0.421447 0.622805 0
M  V30 1407 H 136.001 -0.895821 2.84636 0
M  V30 1408 C 134.75 -2.59124 2.31841 0
M  V30 1409 H 134.073 -2.43514 3.17082 0
M  V30 1410 H 135.513 -3.32371 2.6326 0
M  V30 1411 C 133.972 -3.16488 1.15486 0
M  V30 1412 O 134.502 -3.99365 0.432535 0
M  V30 1413 N 132.708 -2.75305 0.930349 0
M  V30 1414 H 132.255 -2.08013 1.51948 0
M  V30 1415 H 132.213 -3.14024 0.153634 0
M  V30 1416 N 135.985 -1.50799 -0.457987 0
M  V30 1417 C 137.213 -1.66218 -1.23203 0
M  V30 1418 C 137.628 -0.350894 -1.85511 0
M  V30 1419 O 136.985 0.668546 -1.69814 0
M  V30 1420 C 137.036 -2.76291 -2.33121 0
M  V30 1421 O 136.757 -4.02338 -1.73366 0
M  V30 1422 C 138.258 -3.028 -3.2377 0
M  V30 1423 H 135.478 -0.558361 -0.372121 0
M  V30 1424 H 138.022 -1.97099 -0.545179 0
M  V30 1425 H 136.177 -2.48068 -2.97558 0
M  V30 1426 H 136.591 -4.63312 -2.4585 0
M  V30 1427 H 138.065 -3.8345 -3.97077 0
M  V30 1428 H 138.542 -2.14385 -3.83322 0
M  V30 1429 H 139.148 -3.32604 -2.65056 0
M  V30 1430 N 137.463 0.71206 -1.40597 0
M  V30 1431 C 138.712 1.46754 -1.38369 0
M  V30 1432 C 139.025 1.95598 0.0097839 0
M  V30 1433 O 140.231 2.71059 0.154677 0
M  V30 1434 C 138.687 2.65289 -2.43207 0
M  V30 1435 C 138.295 2.23301 -3.88382 0
M  V30 1436 C 140.039 3.43008 -2.50091 0
M  V30 1437 C 137.946 3.38696 -4.84808 0
M  V30 1438 H 136.876 0.55118 -0.514506 0
M  V30 1439 H 139.527 0.774616 -1.66349 0
M  V30 1440 H 137.909 3.36769 -2.08332 0
M  V30 1441 H 139.083 1.59218 -4.32419 0
M  V30 1442 H 137.398 1.58618 -3.85006 0
M  V30 1443 H 139.995 4.28881 -3.1932 0
M  V30 1444 H 140.338 3.87065 -1.53253 0
M  V30 1445 H 140.871 2.78574 -2.83974 0
M  V30 1446 H 137.61 2.99668 -5.82992 0
M  V30 1447 H 137.13 4.01683 -4.45433 0
M  V30 1448 H 138.809 4.04712 -5.04794 0
M  V30 1449 N 138.941 1.26152 0.944643 0
M  V30 1450 C 139.851 1.09176 2.07648 0
M  V30 1451 C 140.867 0.0261935 1.7398 0
M  V30 1452 O 142.043 0.229208 2.00091 0
M  V30 1453 C 139.108 0.722915 3.39079 0
M  V30 1454 C 138.169 1.86752 3.86552 0
M  V30 1455 C 137.402 1.51617 5.11711 0
M  V30 1456 O 137.625 0.416331 5.68879 0
M  V30 1457 O 136.559 2.34975 5.54139 0
M  V30 1458 H 140.385 2.0412 2.24875 0
M  V30 1459 H 137.97 1.05182 1.061 0
M  V30 1460 H 139.852 0.529787 4.18056 0
M  V30 1461 H 138.527 -0.197159 3.23099 0
M  V30 1462 H 137.434 2.11558 3.08535 0
M  V30 1463 H 138.767 2.76719 4.07047 0
M  V30 1464 N 140.419 -1.14872 1.07899 0
M  V30 1465 C 141.647 -1.89661 0.82683 0
M  V30 1466 C 142.062 -1.78312 -0.620519 0
M  V30 1467 O 141.419 -1.13888 -1.42604 0
M  V30 1468 C 141.47 -3.39817 1.23316 0
M  V30 1469 O 141.191 -3.50845 2.62372 0
M  V30 1470 C 142.692 -4.31615 1.0111 0
M  V30 1471 H 139.912 -0.60092 0.298557 0
M  V30 1472 H 142.456 -1.4551 1.43691 0
M  V30 1473 H 140.611 -3.8161 0.667286 0
M  V30 1474 H 141.025 -4.44076 2.79101 0
M  V30 1475 H 142.499 -5.35367 1.34486 0
M  V30 1476 H 142.976 -4.39169 -0.0522168 0
M  V30 1477 H 143.582 -3.95572 1.56215 0
M  V30 1478 N 141.898 -0.863906 -1.31812 0
M  V30 1479 C 142.831 -0.259963 -2.26714 0
M  V30 1480 C 143.809 0.607392 -1.50829 0
M  V30 1481 O 144.993 0.562155 -1.79922 0
M  V30 1482 C 142.12 0.632456 -3.32743 0
M  V30 1483 C 141.166 -0.162743 -4.26189 0
M  V30 1484 S 141.999 -1.53726 -5.12961 0
M  V30 1485 C 143.155 -0.650803 -6.22507 0
M  V30 1486 H 143.388 -1.06445 -2.77591 0
M  V30 1487 H 140.921 -0.662071 -1.39485 0
M  V30 1488 H 142.879 1.14167 -3.94305 0
M  V30 1489 H 141.54 1.41083 -2.80632 0
M  V30 1490 H 140.733 0.517366 -5.01338 0
M  V30 1491 H 140.335 -0.60385 -3.69093 0
M  V30 1492 H 142.627 0.141134 -6.77353 0
M  V30 1493 H 143.57 -1.37322 -6.94657 0
M  V30 1494 H 143.978 -0.221041 -5.64067 0
M  V30 1495 N 143.376 1.44774 -0.622745 0
M  V30 1496 C 144.792 1.56986 -0.287652 0
M  V30 1497 C 144.992 1.61167 1.20944 0
M  V30 1498 O 144.048 1.55015 1.99315 0
M  V30 1499 C 145.361 2.84551 -0.972188 0
M  V30 1500 C 146.909 2.9825 -0.949536 0
M  V30 1501 C 147.384 4.28605 -1.61437 0
M  V30 1502 N 148.875 4.35399 -1.58057 0
M  V30 1503 C 149.61 5.34964 -2.064 0
M  V30 1504 N 149.106 6.40981 -2.62897 0
M  V30 1505 N 150.899 5.26419 -1.97078 0
M  V30 1506 H 143.05 1.40304 -1.59463 0
M  V30 1507 H 145.313 0.671794 -0.668878 0
M  V30 1508 H 145.019 2.87417 -2.02693 0
M  V30 1509 H 144.893 3.73807 -0.504771 0
M  V30 1510 H 147.28 2.94941 0.0967067 0
M  V30 1511 H 147.361 2.10364 -1.45536 0
M  V30 1512 H 147.005 4.32672 -2.66002 0
M  V30 1513 H 146.935 5.15334 -1.08344 0
M  V30 1514 H 149.426 3.59397 -1.16801 0
M  V30 1515 H 149.739 7.13225 -2.97539 0
M  V30 1516 H 148.084 6.4169 -2.66943 0
M  V30 1517 H 151.275 4.42504 -1.52669 0
M  V30 1518 H 151.448 6.03861 -2.35066 0
M  V30 1519 N 144.854 0.36279 1.53368 0
M  V30 1520 C 145.801 -0.485008 2.25646 0
M  V30 1521 C 146.771 -1.07982 1.2621 0
M  V30 1522 O 147.956 -1.11284 1.54986 0
M  V30 1523 C 145.096 -1.62023 3.04701 0
M  V30 1524 C 144.209 -1.05086 4.19024 0
M  V30 1525 C 143.344 -2.15496 4.85525 0
M  V30 1526 C 142.383 -1.5601 5.91884 0
M  V30 1527 N 141.52 -2.60241 6.52088 0
M  V30 1528 H 146.36 0.137864 2.97681 0
M  V30 1529 H 143.897 0.0798061 1.46883 0
M  V30 1530 H 145.855 -2.28887 3.48807 0
M  V30 1531 H 144.485 -2.2138 2.34927 0
M  V30 1532 H 143.537 -0.27259 3.79422 0
M  V30 1533 H 144.849 -0.575926 4.95464 0
M  V30 1534 H 144.003 -2.90186 5.32801 0
M  V30 1535 H 142.742 -2.66341 4.08551 0
M  V30 1536 H 141.747 -0.798338 5.43973 0
M  V30 1537 H 142.972 -1.05994 6.70777 0
M  V30 1538 H 140.918 -3.10304 5.77968 0
M  V30 1539 H 140.835 -2.17426 7.24059 0
M  V30 1540 H 142.103 -3.34641 7.04014 0
M  V30 1541 N 146.332 -1.57332 0.0918853 0
M  V30 1542 C 147.743 -1.81496 -0.437739 0
M  V30 1543 C 148.094 -1.00727 -1.6837 0
M  V30 1544 O 147.219 -0.235694 -2.15113 0
M  V30 1545 C 147.814 -3.29197 -0.800939 0
M  V30 1546 C 146.373 -3.54136 -1.27532 0
M  V30 1547 C 145.52 -2.75979 -0.270392 0
M  V30 1548 H 148.471 -1.55494 0.317366 0
M  V30 1549 H 148.492 -3.42344 -1.66074 0
M  V30 1550 H 148.004 -3.87955 0.106078 0
M  V30 1551 H 146.105 -3.00705 -2.20016 0
M  V30 1552 H 146.218 -4.62792 -1.23938 0
M  V30 1553 H 144.582 -2.43349 -0.751872 0
M  V30 1554 H 145.365 -3.37484 0.629248 0
M  V30 1555 N 147.81 0.181792 -1.56548 0
M  V30 1556 C 149.226 0.53316 -1.50431 0
M  V30 1557 C 149.426 1.85184 -0.794297 0
M  V30 1558 O 148.482 2.50058 -0.350318 0
M  V30 1559 C 149.795 0.575597 -2.9514 0
M  V30 1560 C 151.343 0.663519 -3.05886 0
M  V30 1561 C 151.818 0.736946 -4.52032 0
M  V30 1562 N 153.309 0.800118 -4.56237 0
M  V30 1563 C 154.044 0.877327 -5.66649 0
M  V30 1564 N 153.54 0.916016 -6.86718 0
M  V30 1565 N 155.333 0.915542 -5.54594 0
M  V30 1566 H 147.484 -0.683025 -2.01118 0
M  V30 1567 H 149.747 -0.244988 -0.915797 0
M  V30 1568 H 149.453 -0.324482 -3.502 0
M  V30 1569 H 149.327 1.42572 -3.49218 0
M  V30 1570 H 151.714 1.55403 -2.50867 0
M  V30 1571 H 151.795 -0.21307 -2.54911 0
M  V30 1572 H 151.439 -0.149262 -5.07681 0
M  V30 1573 H 151.369 1.62953 -5.00753 0
M  V30 1574 H 153.86 0.778926 -3.69785 0
M  V30 1575 H 154.173 0.975813 -7.66614 0
M  V30 1576 H 152.518 0.884469 -6.89349 0
M  V30 1577 H 155.709 0.882245 -4.59711 0
M  V30 1578 H 155.882 0.972253 -6.40665 0
M  V30 1579 N 149.288 1.51039 0.449983 0
M  V30 1580 C 150.528 1.64732 1.21007 0
M  V30 1581 C 150.892 0.349865 1.88785 0
M  V30 1582 O 152.093 0.362431 2.66345 0
M  V30 1583 C 150.364 2.80902 2.20973 0
M  V30 1584 S 151.923 3.14851 3.05638 0
M  V30 1585 H 148.741 0.5805 0.410538 0
M  V30 1586 H 151.343 1.88901 0.503634 0
M  V30 1587 H 150.047 3.73627 1.69796 0
M  V30 1588 H 149.578 2.58882 2.96215 0
M  V30 1589 H 151.593 2.60306 4.22439 0
M  V30 1590 N 150.766 -0.704594 1.40972 0
M  V30 1591 C 152.014 -1.46169 1.39568 0
M  V30 1592 C 152.335 -1.95 0.00253745 0
M  V30 1593 O 151.605 -1.71095 -0.954114 0
M  V30 1594 H 150.185 -0.542326 0.513704 0
M  V30 1595 H 152.847 -0.834553 1.76128 0
M  V30 1596 H 151.943 -2.32922 2.07735 0
M  V30 1597 N 152.244 -1.26651 -0.937939 0
M  V30 1598 C 153.192 -1.08308 -2.05845 0
M  V30 1599 C 154.186 -0.0090757 -1.69398 0
M  V30 1600 O 155.392 -0.166007 -1.79233 0
M  V30 1601 H 151.767 -0.333416 -0.674046 0
M  V30 1602 H 153.738 -2.03261 -2.18467 0
M  V30 1603 C 152.487 -0.736229 -3.39816 0
M  V30 1604 H 151.81 -1.55453 -3.6834 0
M  V30 1605 H 153.25 -0.64769 -4.19024 0
M  V30 1606 C 151.709 0.558824 -3.32233 0
M  V30 1607 O 152.239 1.59621 -3.68624 0
M  V30 1608 N 150.445 0.550657 -2.85335 0
M  V30 1609 H 149.992 -0.293943 -2.55917 0
M  V30 1610 H 149.95 1.41726 -2.80644 0
M  V30 1611 N 153.722 1.14298 -1.08507 0
M  V30 1612 C 155.133 1.66926 -0.836227 0
M  V30 1613 C 155.484 1.85576 0.63686 0
M  V30 1614 O 154.609 1.56767 1.49175 0
M  V30 1615 C 155.204 3.03219 -1.51142 0
M  V30 1616 C 153.763 3.52876 -1.30979 0
M  V30 1617 C 152.91 2.2833 -1.57356 0
M  V30 1618 H 155.861 0.983491 -1.24552 0
M  V30 1619 H 155.882 3.68726 -0.939211 0
M  V30 1620 H 155.394 2.89612 -2.58353 0
M  V30 1621 H 153.495 3.71703 -0.258429 0
M  V30 1622 H 153.608 4.33586 -2.03814 0
M  V30 1623 H 151.972 2.34454 -0.995164 0
M  V30 1624 H 152.755 2.17298 -2.65775 0
M  V30 1625 N 155.201 0.870884 1.31352 0
M  V30 1626 C 156.478 0.402907 1.91405 0
M  V30 1627 C 156.858 -1.11512 1.79244 0
M  V30 1628 O 156.206 -1.94411 1.2007 0
M  V30 1629 C 156.416 0.885301 3.37585 0
M  V30 1630 C 157.764 0.911971 4.14691 0
M  V30 1631 O 158.788 0.831016 3.46371 0
M  V30 1632 O 157.647 1.02927 5.3672 0
M  V30 1633 H 154.741 0.120698 0.818145 0
M  V30 1634 H 157.287 0.958857 1.40014 0
M  V30 1635 H 156.059 1.92889 3.40455 0
M  V30 1636 H 155.682 0.307714 3.96407 0
M  V30 1637 N 156.679 -1.44442 0.630414 0
M  V30 1638 C 157.925 -2.02351 0.134816 0
M  V30 1639 C 158.258 -1.4947 -1.23986 0
M  V30 1640 O 157.533 -0.678475 -1.82283 0
M  V30 1641 C 157.816 -3.59898 0.120707 0
M  V30 1642 C 157.669 -4.23063 1.52767 0
M  V30 1643 C 158.988 -4.36585 -0.555127 0
M  V30 1644 H 156.107 -0.73527 0.0504646 0
M  V30 1645 H 158.749 -1.72022 0.806751 0
M  V30 1646 H 156.899 -3.85868 -0.451477 0
M  V30 1647 H 158.571 -4.08202 2.14869 0
M  V30 1648 H 156.814 -3.80586 2.08175 0
M  V30 1649 H 157.485 -5.32071 1.46984 0
M  V30 1650 H 159.961 -4.16044 -0.0685429 0
M  V30 1651 H 158.837 -5.46294 -0.534185 0
M  V30 1652 H 159.098 -4.11138 -1.62535 0
M  V30 1653 N 158.157 -0.370918 -1.53173 0
M  V30 1654 C 159.12 0.460778 -2.24521 0
M  V30 1655 C 160.12 1.00536 -1.25496 0
M  V30 1656 O 161.31 0.890266 -1.49733 0
M  V30 1657 C 158.442 1.64457 -2.98608 0
M  V30 1658 H 159.635 -0.163613 -2.99453 0
M  V30 1659 H 157.188 -0.122699 -1.55818 0
M  V30 1660 H 157.923 2.30691 -2.2793 0
M  V30 1661 H 157.708 1.26099 -3.7127 0
M  V30 1662 H 159.198 2.23384 -3.5283 0
M  V30 1663 N 159.635 1.57281 -0.100228 0
M  V30 1664 C 160.583 2.15542 0.874328 0
M  V30 1665 C 161.577 1.09962 1.28859 0
M  V30 1666 O 162.783 1.28298 1.26252 0
M  V30 1667 H 159.158 0.689567 0.300003 0
M  V30 1668 H 161.129 2.96241 0.35829 0
M  V30 1669 C 159.878 2.75454 2.1218 0
M  V30 1670 H 159.201 3.56384 1.81193 0
M  V30 1671 H 160.641 3.19781 2.78417 0
M  V30 1672 C 159.1 1.71602 2.89921 0
M  V30 1673 O 159.63 1.15804 3.84646 0
M  V30 1674 N 157.836 1.41975 2.53558 0
M  V30 1675 H 157.383 1.87539 1.76598 0
M  V30 1676 H 157.341 0.727274 3.05873 0
M  V30 1677 N 161.113 -0.173488 1.56642 0
M  V30 1678 C 162.343 -0.904781 1.85734 0
M  V30 1679 C 162.751 -1.76431 0.68328 0
M  V30 1680 O 162.094 -1.802 -0.356865 0
M  V30 1681 C 162.156 -1.83382 3.09211 0
M  V30 1682 C 161.82 -1.15411 4.42187 0
M  V30 1683 C 162.817 -0.520609 5.17287 0
M  V30 1684 C 160.502 -1.15151 4.88923 0
M  V30 1685 C 162.496 0.106412 6.37311 0
M  V30 1686 C 160.183 -0.520664 6.08878 0
M  V30 1687 C 161.181 0.107196 6.82916 0
M  V30 1688 O 160.869 0.728102 8.00596 0
M  V30 1689 H 160.601 -0.268408 0.62043 0
M  V30 1690 H 163.155 -0.179096 2.04618 0
M  V30 1691 H 161.385 -2.59976 2.86268 0
M  V30 1692 H 163.074 -2.43476 3.24768 0
M  V30 1693 H 163.84 -0.514606 4.82262 0
M  V30 1694 H 159.719 -1.62961 4.31236 0
M  V30 1695 H 163.263 0.597081 6.9504 0
M  V30 1696 H 159.16 -0.524242 6.43368 0
M  V30 1697 H 159.928 0.627138 8.16094 0
M  V30 1698 N 162.591 -1.51276 -0.441967 0
M  V30 1699 C 163.539 -1.72823 -1.55676 0
M  V30 1700 C 164.533 -0.59445 -1.58627 0
M  V30 1701 O 165.739 -0.775715 -1.62427 0
M  V30 1702 H 162.114 -0.545983 -0.517113 0
M  V30 1703 H 164.085 -2.6628 -1.34675 0
M  V30 1704 C 162.834 -1.86619 -2.93375 0
M  V30 1705 H 162.157 -2.73264 -2.91834 0
M  V30 1706 H 163.597 -2.05709 -3.70756 0
M  V30 1707 C 162.056 -0.624842 -3.31055 0
M  V30 1708 O 162.586 0.222636 -4.01083 0
M  V30 1709 N 160.792 -0.470288 -2.86769 0
M  V30 1710 H 160.339 -1.161 -2.29953 0
M  V30 1711 H 160.297 0.359051 -3.12343 0
M  V30 1712 N 164.069 0.697108 -1.41344 0
M  V30 1713 C 165.316 1.45714 -1.40619 0
M  V30 1714 C 165.644 1.94494 -0.0147907 0
M  V30 1715 O 164.899 1.69794 0.973066 0
M  V30 1716 C 165.198 2.68553 -2.35826 0
M  V30 1717 C 164.864 2.38438 -3.82698 0
M  V30 1718 C 163.526 2.29936 -4.22709 0
M  V30 1719 C 165.878 2.13567 -4.75435 0
M  V30 1720 C 163.206 1.94656 -5.53467 0
M  V30 1721 C 165.558 1.79797 -6.06511 0
M  V30 1722 C 164.222 1.69789 -6.45545 0
M  V30 1723 H 163.492 0.533206 -0.51456 0
M  V30 1724 H 166.139 0.796901 -1.74131 0
M  V30 1725 H 164.444 3.39503 -1.95563 0
M  V30 1726 H 166.141 3.2669 -2.32539 0
M  V30 1727 H 162.731 2.4595 -3.51008 0
M  V30 1728 H 166.915 2.19082 -4.45328 0
M  V30 1729 H 162.171 1.8546 -5.82593 0
M  V30 1730 H 166.345 1.59572 -6.77872 0
M  V30 1731 H 163.972 1.4222 -7.46778 0
M  V30 1732 N 165.547 1.27147 0.931209 0
M  V30 1733 C 166.794 1.13278 1.67852 0
M  V30 1734 C 167.122 -0.32204 1.91815 0
M  V30 1735 O 166.377 -1.25224 1.50391 0
M  V30 1736 C 166.676 1.8579 3.05314 0
M  V30 1737 C 166.342 3.35657 3.01073 0
M  V30 1738 C 165.004 3.76536 2.99623 0
M  V30 1739 C 167.356 4.31299 2.92627 0
M  V30 1740 C 164.684 5.11426 2.87506 0
M  V30 1741 C 167.036 5.66242 2.82051 0
M  V30 1742 C 165.7 6.06418 2.7895 0
M  V30 1743 H 164.97 0.414515 0.614214 0
M  V30 1744 H 167.617 1.57712 1.08624 0
M  V30 1745 H 165.922 1.33854 3.68226 0
M  V30 1746 H 167.619 1.72491 3.62005 0
M  V30 1747 H 164.209 3.03146 3.02986 0
M  V30 1748 H 168.393 4.00692 2.92848 0
M  V30 1749 H 163.649 5.41705 2.83489 0
M  V30 1750 H 167.823 6.40026 2.74481 0
M  V30 1751 H 165.45 7.10895 2.69318 0
M  V30 1752 N 167.025 -1.13721 1.09112 0
M  V30 1753 C 168.436 -1.6648 0.845068 0
M  V30 1754 C 168.787 -1.85911 -0.62701 0
M  V30 1755 O 167.912 -1.57556 -1.48341 0
M  V30 1756 C 168.507 -3.02413 1.52748 0
M  V30 1757 C 167.066 -3.52176 1.32849 0
M  V30 1758 C 166.213 -2.27492 1.58564 0
M  V30 1759 H 169.164 -0.976872 1.25072 0
M  V30 1760 H 169.185 -3.68223 0.958752 0
M  V30 1761 H 168.697 -2.88238 2.59885 0
M  V30 1762 H 166.798 -3.7156 0.278137 0
M  V30 1763 H 166.911 -4.32499 2.0611 0
M  V30 1764 H 165.275 -2.33923 1.00758 0
M  V30 1765 H 166.058 -2.15886 2.66924 0
M  V30 1766 N 168.503 -0.877838 -1.30888 0
M  V30 1767 C 169.919 -0.570844 -1.49042 0
M  V30 1768 C 170.119 0.893159 -1.80624 0
M  V30 1769 O 169.175 1.67485 -1.88958 0
M  V30 1770 C 170.488 -1.47784 -2.61878 0
M  V30 1771 C 172.036 -1.48071 -2.75761 0
M  V30 1772 C 172.511 -2.37347 -3.91702 0
M  V30 1773 N 174.002 -2.35271 -3.99001 0
M  V30 1774 C 174.737 -3.01063 -4.88004 0
M  V30 1775 N 174.233 -3.76055 -5.81854 0
M  V30 1776 N 176.026 -2.90332 -4.81315 0
M  V30 1777 H 168.177 -1.82502 -1.0866 0
M  V30 1778 H 170.44 -0.780797 -0.537644 0
M  V30 1779 H 170.146 -2.51993 -2.45341 0
M  V30 1780 H 170.02 -1.18215 -3.58197 0
M  V30 1781 H 172.407 -0.446166 -2.91708 0
M  V30 1782 H 172.488 -1.81668 -1.80085 0
M  V30 1783 H 172.132 -3.40883 -3.76512 0
M  V30 1784 H 172.062 -2.01071 -4.86701 0
M  V30 1785 H 174.553 -1.80768 -3.3186 0
M  V30 1786 H 174.866 -4.23366 -6.46514 0
M  V30 1787 H 173.211 -3.80163 -5.81808 0
M  V30 1788 H 176.402 -2.31278 -4.06974 0
M  V30 1789 H 176.575 -3.41885 -5.50471 0
M  V30 1790 N 169.982 1.44106 -0.638065 0
M  V30 1791 C 170.929 2.30715 0.062701 0
M  V30 1792 C 171.899 1.43882 0.829883 0
M  V30 1793 O 173.084 1.72775 0.809532 0
M  V30 1794 C 170.224 3.29258 1.03358 0
M  V30 1795 C 169.337 4.31192 0.26409 0
M  V30 1796 C 168.472 5.16825 1.22741 0
M  V30 1797 C 167.511 6.10462 0.447475 0
M  V30 1798 N 166.648 6.8877 1.36161 0
M  V30 1799 H 171.488 2.90096 -0.681781 0
M  V30 1800 H 169.025 1.42925 -0.347988 0
M  V30 1801 H 170.983 3.84886 1.60992 0
M  V30 1802 H 169.613 2.71562 1.74511 0
M  V30 1803 H 168.665 3.77981 -0.428295 0
M  V30 1804 H 169.977 4.97619 -0.343052 0
M  V30 1805 H 169.131 5.77004 1.87487 0
M  V30 1806 H 167.87 4.50488 1.86847 0
M  V30 1807 H 166.875 5.49386 -0.213433 0
M  V30 1808 H 168.1 6.78837 -0.188968 0
M  V30 1809 H 166.046 6.25096 1.98975 0
M  V30 1810 H 165.963 7.51663 0.808656 0
M  V30 1811 H 167.231 7.53467 1.99769 0
M  V30 1812 N 171.46 0.379036 1.52974 0
M  V30 1813 C 172.871 -0.0972525 1.86447 0
M  V30 1814 C 173.222 -1.47027 1.29914 0
M  V30 1815 O 172.347 -2.07135 0.626433 0
M  V30 1816 C 172.942 -0.183248 3.38304 0
M  V30 1817 C 171.501 -0.603812 3.71525 0
M  V30 1818 C 170.648 0.240632 2.76254 0
M  V30 1819 H 173.599 0.597316 1.4703 0
M  V30 1820 H 173.62 -1.00432 3.67006 0
M  V30 1821 H 173.132 0.816191 3.79421 0
M  V30 1822 H 171.233 -1.61099 3.35973 0
M  V30 1823 H 171.346 -0.369086 4.77676 0
M  V30 1824 H 169.71 -0.292548 2.53014 0
M  V30 1825 H 170.493 1.23786 3.20206 0
M  V30 1826 N 172.938 -1.57226 0.108567 0
M  V30 1827 C 173.885 -2.14756 -0.845481 0
M  V30 1828 C 174.855 -1.06971 -1.27068 0
M  V30 1829 O 176.04 -1.34827 -1.35005 0
M  V30 1830 C 173.18 -2.74298 -2.09415 0
M  V30 1831 C 172.293 -3.96358 -1.71826 0
M  V30 1832 C 171.428 -4.44021 -2.9158 0
M  V30 1833 C 170.467 -5.58637 -2.50181 0
M  V30 1834 N 169.604 -6.01091 -3.62814 0
M  V30 1835 H 174.444 -2.95961 -0.348035 0
M  V30 1836 H 171.981 -1.46226 -0.160106 0
M  V30 1837 H 173.939 -3.06945 -2.82561 0
M  V30 1838 H 172.569 -1.95801 -2.56636 0
M  V30 1839 H 171.621 -3.69939 -0.885947 0
M  V30 1840 H 172.933 -4.79504 -1.37394 0
M  V30 1841 H 172.087 -4.78522 -3.72963 0
M  V30 1842 H 170.826 -3.59803 -3.29231 0
M  V30 1843 H 169.831 -5.23751 -1.67228 0
M  V30 1844 H 171.056 -6.44613 -2.13659 0
M  V30 1845 H 169.002 -5.19817 -4.00158 0
M  V30 1846 H 168.919 -6.79066 -3.32273 0
M  V30 1847 H 170.187 -6.40227 -4.44668 0
M  V30 1848 N 174.416 0.165178 -1.56732 0
M  V30 1849 C 175.662 0.877389 -1.83503 0
M  V30 1850 C 176.017 1.79602 -0.689996 0
M  V30 1851 O 175.31 1.89023 0.313205 0
M  V30 1852 C 175.504 1.70405 -3.1416 0
M  V30 1853 C 175.333 0.866961 -4.41264 0
M  V30 1854 C 174.103 0.539646 -5.0241 0
M  V30 1855 C 176.301 0.205671 -5.13889 0
M  V30 1856 N 174.283 -0.312946 -6.13102 0
M  V30 1857 C 175.654 -0.507823 -6.17917 0
M  V30 1858 C 177.709 0.124468 -4.97744 0
M  V30 1859 C 176.412 -1.29483 -7.0755 0
M  V30 1860 C 178.438 -0.649222 -5.87826 0
M  V30 1861 C 177.8 -1.35106 -6.91322 0
M  V30 1862 H 173.899 0.299477 -0.722383 0
M  V30 1863 H 176.483 0.143949 -1.94167 0
M  V30 1864 H 174.654 2.40887 -3.04677 0
M  V30 1865 H 176.386 2.35804 -3.28905 0
M  V30 1866 H 173.141 0.871176 -4.65519 0
M  V30 1867 H 173.565 -0.729731 -6.73056 0
M  V30 1868 H 178.207 0.652724 -4.17731 0
M  V30 1869 H 175.925 -1.83441 -7.87004 0
M  V30 1870 H 179.511 -0.713804 -5.77405 0
M  V30 1871 H 178.391 -1.94013 -7.59821 0
M  V30 1872 N 175.894 1.51508 0.433938 0
M  V30 1873 C 177.171 1.54888 1.19453 0
M  V30 1874 C 177.551 0.315154 2.08734 0
M  V30 1875 O 176.899 -0.699558 2.17528 0
M  V30 1876 C 177.109 2.86467 1.99342 0
M  V30 1877 C 178.457 3.38545 2.56267 0
M  V30 1878 O 179.481 2.88041 2.0955 0
M  V30 1879 O 178.34 4.26675 3.41483 0
M  V30 1880 H 175.434 0.622863 0.544032 0
M  V30 1881 H 177.98 1.63823 0.442732 0
M  V30 1882 H 176.752 3.67718 1.33788 0
M  V30 1883 H 176.375 2.8071 2.8158 0
M  V30 1884 N 177.372 -0.689602 1.41712 0
M  V30 1885 C 178.319 -1.80345 1.44029 0
M  V30 1886 C 179.289 -1.63478 0.293948 0
M  V30 1887 O 180.474 -1.84244 0.495869 0
M  V30 1888 C 177.614 -3.18272 1.33405 0
M  V30 1889 C 176.727 -3.46529 2.57956 0
M  V30 1890 C 175.862 -4.74103 2.39582 0
M  V30 1891 C 174.901 -4.95347 3.5958 0
M  V30 1892 N 174.038 -6.14151 3.40239 0
M  V30 1893 H 178.878 -1.77698 2.39222 0
M  V30 1894 H 176.415 -0.867688 1.18784 0
M  V30 1895 H 178.373 -3.97956 1.25246 0
M  V30 1896 H 177.003 -3.2008 0.418164 0
M  V30 1897 H 176.055 -2.61207 2.76542 0
M  V30 1898 H 177.367 -3.58126 3.47199 0
M  V30 1899 H 176.521 -5.61853 2.28924 0
M  V30 1900 H 175.26 -4.64763 1.47805 0
M  V30 1901 H 174.265 -4.06044 3.70686 0
M  V30 1902 H 175.49 -5.06542 4.52318 0
M  V30 1903 H 173.436 -6.06013 2.51167 0
M  V30 1904 H 173.353 -6.26543 4.23061 0
M  V30 1905 H 174.621 -7.04619 3.33365 0
M  V30 1906 N 178.85 -1.27639 -0.924453 0
M  V30 1907 C 179.798 -1.10485 -2.04685 0
M  V30 1908 C 180.792 -0.0270421 -1.69378 0
M  V30 1909 O 181.998 -0.185008 -1.79047 0
M  V30 1910 H 178.373 -0.340546 -0.670472 0
M  V30 1911 H 180.344 -2.05566 -2.16298 0
M  V30 1912 C 179.093 -0.772229 -3.39016 0
M  V30 1913 H 178.416 -1.59351 -3.66671 0
M  V30 1914 H 179.856 -0.692097 -4.18313 0
M  V30 1915 C 178.315 0.523554 -3.32807 0
M  V30 1916 O 178.845 1.55702 -3.70297 0
M  V30 1917 N 177.051 0.520363 -2.85903 0
M  V30 1918 H 176.598 -0.32107 -2.55591 0
M  V30 1919 H 176.556 1.38742 -2.82131 0
M  V30 1920 N 180.328 1.1314 -1.09713 0
M  V30 1921 C 181.26 2.18343 -0.697056 0
M  V30 1922 C 182.273 1.60669 0.262551 0
M  V30 1923 O 183.462 1.78435 0.0481527 0
M  V30 1924 C 180.562 3.38899 -0.00684728 0
M  V30 1925 C 179.735 4.26078 -0.988741 0
M  V30 1926 C 178.794 5.25155 -0.331394 0
M  V30 1927 O 177.82 5.60701 -0.979926 0
M  V30 1928 N 179.022 5.73271 0.913261 0
M  V30 1929 H 181.787 2.5328 -1.60216 0
M  V30 1930 H 179.348 1.28491 -0.984971 0
M  V30 1931 H 181.34 4.02255 0.444191 0
M  V30 1932 H 179.91 3.02175 0.800551 0
M  V30 1933 H 179.13 3.59453 -1.61826 0
M  V30 1934 H 180.418 4.81178 -1.65364 0
M  V30 1935 H 179.816 5.46544 1.45966 0
M  V30 1936 H 178.373 6.3855 1.30757 0
M  V30 1937 N 181.806 0.884767 1.30421 0
M  V30 1938 C 183.055 0.499164 1.95426 0
M  V30 1939 C 183.368 -0.95645 1.70621 0
M  V30 1940 O 184.574 -1.44889 2.29607 0
M  V30 1941 C 183.03 0.84177 3.49917 0
M  V30 1942 C 182.638 2.31514 3.83543 0
M  V30 1943 C 184.382 0.525355 4.21237 0
M  V30 1944 C 182.289 2.59939 5.31212 0
M  V30 1945 H 181.219 0.182944 0.73147 0
M  V30 1946 H 183.87 1.07971 1.48373 0
M  V30 1947 H 182.252 0.190311 3.95542 0
M  V30 1948 H 183.426 3.0109 3.48829 0
M  V30 1949 H 181.741 2.59907 3.25326 0
M  V30 1950 H 184.338 0.714762 5.29901 0
M  V30 1951 H 184.681 -0.535222 4.12845 0
M  V30 1952 H 185.214 1.134 3.81294 0
M  V30 1953 H 181.953 3.64736 5.44654 0
M  V30 1954 H 181.473 1.94972 5.67227 0
M  V30 1955 H 183.152 2.45429 5.98643 0
M  V30 1956 N 183.284 -1.43765 0.645699 0
M  V30 1957 C 184.512 -2.06253 0.163556 0
M  V30 1958 C 184.927 -1.48352 -1.16778 0
M  V30 1959 O 184.284 -0.611932 -1.71935 0
M  V30 1960 C 184.335 -3.61453 0.0583186 0
M  V30 1961 O 184.056 -4.172 1.33702 0
M  V30 1962 C 185.557 -4.41002 -0.450795 0
M  V30 1963 H 182.777 -0.665413 0.0864077 0
M  V30 1964 H 185.321 -1.84396 0.884222 0
M  V30 1965 H 183.476 -3.82522 -0.612865 0
M  V30 1966 H 183.89 -5.10791 1.19131 0
M  V30 1967 H 185.364 -5.49966 -0.473403 0
M  V30 1968 H 185.841 -4.13488 -1.48068 0
M  V30 1969 H 186.447 -4.24886 0.187637 0
M  V30 1970 N 184.763 -0.387143 -1.52771 0
M  V30 1971 C 185.993 0.195585 -2.05672 0
M  V30 1972 C 186.401 1.41241 -1.25887 0
M  V30 1973 O 185.744 1.81265 -0.298081 0
M  V30 1974 C 185.806 0.632327 -3.53895 0
M  V30 1975 C 185.47 -0.470739 -4.54569 0
M  V30 1976 C 186.467 -1.32746 -5.02667 0
M  V30 1977 C 184.152 -0.637151 -4.98243 0
M  V30 1978 C 186.146 -2.33574 -5.93061 0
M  V30 1979 C 183.833 -1.64877 -5.88438 0
M  V30 1980 C 184.831 -2.49649 -6.35739 0
M  V30 1981 O 184.519 -3.49082 -7.24153 0
M  V30 1982 H 184.251 0.033658 -0.675162 0
M  V30 1983 H 186.805 -0.550221 -1.97893 0
M  V30 1984 H 185.035 1.43008 -3.59285 0
M  V30 1985 H 186.724 1.14048 -3.89548 0
M  V30 1986 H 187.49 -1.21019 -4.69659 0
M  V30 1987 H 183.369 0.0129567 -4.60998 0
M  V30 1988 H 186.913 -2.99777 -6.29904 0
M  V30 1989 H 182.81 -1.76643 -6.2086 0
M  V30 1990 H 183.578 -3.45065 -7.42208 0
M  V30 1991 N 186.241 1.57166 -0.116904 0
M  V30 1992 C 187.657 1.5779 0.239693 0
M  V30 1993 C 187.857 1.1295 1.66867 0
M  V30 1994 O 186.913 0.81592 2.38954 0
M  V30 1995 C 188.226 3.00699 0.00828202 0
M  V30 1996 C 189.774 3.12912 0.0743438 0
M  V30 1997 C 190.249 4.57817 -0.129348 0
M  V30 1998 N 191.74 4.63139 -0.075247 0
M  V30 1999 C 192.475 5.73023 -0.207788 0
M  V30 2000 N 191.971 6.91665 -0.396382 0
M  V30 2001 N 193.764 5.61906 -0.14751 0
M  V30 2002 H 185.915 1.84615 -1.05029 0
M  V30 2003 H 188.178 0.85311 -0.41341 0
M  V30 2004 H 187.884 3.37784 -0.979531 0
M  V30 2005 H 187.758 3.69848 0.741077 0
M  V30 2006 H 190.145 2.75686 1.05268 0
M  V30 2007 H 190.226 2.4631 -0.690297 0
M  V30 2008 H 189.87 4.95742 -1.10465 0
M  V30 2009 H 189.8 5.22507 0.655253 0
M  V30 2010 H 192.291 3.7784 0.0670898 0
M  V30 2011 H 192.604 7.71255 -0.488437 0
M  V30 2012 H 190.949 6.93654 -0.432329 0
M  V30 2013 H 194.14 4.681 -0.00115036 0
M  V30 2014 H 194.313 6.47501 -0.254247 0
M  V30 2015 N 187.719 -0.156864 1.56817 0
M  V30 2016 C 188.968 -0.869504 1.81996 0
M  V30 2017 C 189.281 -1.82777 0.696545 0
M  V30 2018 O 190.487 -2.58384 0.833658 0
M  V30 2019 C 188.943 -1.59679 3.22538 0
M  V30 2020 C 188.551 -0.681431 4.42787 0
M  V30 2021 C 190.295 -2.2968 3.56997 0
M  V30 2022 C 188.202 -1.40978 5.74351 0
M  V30 2023 H 187.132 -0.328438 0.678708 0
M  V30 2024 H 189.783 -0.1223 1.83092 0
M  V30 2025 H 188.165 -2.38927 3.158 0
M  V30 2026 H 189.339 0.0751166 4.60739 0
M  V30 2027 H 187.654 -0.0903431 4.16302 0
M  V30 2028 H 190.251 -2.84794 4.52544 0
M  V30 2029 H 190.594 -3.05707 2.82576 0
M  V30 2030 H 191.127 -1.57361 3.65352 0
M  V30 2031 H 187.866 -0.691561 6.51842 0
M  V30 2032 H 187.386 -2.13929 5.60352 0
M  V30 2033 H 189.065 -1.95337 6.16808 0
M  V30 2034 N 189.197 -1.51736 -0.425897 0
M  V30 2035 C 190.446 -1.64201 -1.17136 0
M  V30 2036 C 190.759 -0.369705 -1.92074 0
M  V30 2037 O 191.965 -0.373898 -2.68913 0
M  V30 2038 C 190.421 -2.90035 -2.13091 0
M  V30 2039 C 190.029 -4.24312 -1.43747 0
M  V30 2040 C 191.773 -3.1186 -2.87999 0
M  V30 2041 C 189.68 -5.41285 -2.38253 0
M  V30 2042 H 188.61 -0.611624 -0.440944 0
M  V30 2043 H 191.261 -1.78212 -0.437328 0
M  V30 2044 H 189.643 -2.69684 -2.89977 0
M  V30 2045 H 190.817 -4.55086 -0.723408 0
M  V30 2046 H 189.132 -4.08456 -0.809465 0
M  V30 2047 H 191.729 -3.96427 -3.58817 0
M  V30 2048 H 192.072 -2.25403 -3.49999 0
M  V30 2049 H 192.605 -3.32605 -2.18217 0
M  V30 2050 H 189.344 -6.30037 -1.80925 0
M  V30 2051 H 188.864 -5.14872 -3.0768 0
M  V30 2052 H 190.543 -5.73694 -2.99139 0
M  V30 2053 N 190.675 0.682077 -1.42076 0
M  V30 2054 C 191.923 1.4393 -1.41876 0
M  V30 2055 C 192.244 1.94971 -0.0335599 0
M  V30 2056 O 191.514 1.72591 0.926773 0
M  V30 2057 H 190.094 0.534085 -0.522267 0
M  V30 2058 H 192.756 0.806427 -1.77434 0
M  V30 2059 H 191.852 2.29588 -2.11414 0
M  V30 2060 N 192.153 1.28127 0.917671 0
M  V30 2061 C 193.383 1.17722 1.6978 0
M  V30 2062 C 193.791 -0.267261 1.87303 0
M  V30 2063 O 193.134 -1.19286 1.39702 0
M  V30 2064 C 193.196 1.79958 3.11216 0
M  V30 2065 C 192.86 3.29187 3.16993 0
M  V30 2066 C 193.857 4.25679 2.98485 0
M  V30 2067 C 191.542 3.70075 3.39632 0
M  V30 2068 C 193.536 5.61035 3.02521 0
M  V30 2069 C 191.223 5.05557 3.433 0
M  V30 2070 C 192.221 6.00847 3.24764 0
M  V30 2071 O 191.909 7.33859 3.28187 0
M  V30 2072 H 191.641 0.409788 0.537634 0
M  V30 2073 H 194.195 1.69694 1.15728 0
M  V30 2074 H 192.425 1.22475 3.66793 0
M  V30 2075 H 194.114 1.64125 3.71238 0
M  V30 2076 H 194.88 3.95426 2.80826 0
M  V30 2077 H 190.759 2.96373 3.53106 0
M  V30 2078 H 194.303 6.35388 2.87971 0
M  V30 2079 H 190.2 5.35462 3.60486 0
M  V30 2080 H 190.968 7.42436 3.44575 0
M  V30 2081 N 193.631 -1.12557 1.10312 0
M  V30 2082 C 194.859 -1.87864 0.866873 0
M  V30 2083 C 195.274 -1.79588 -0.582557 0
M  V30 2084 O 194.631 -1.16887 -1.40156 0
M  V30 2085 C 194.682 -3.37125 1.30496 0
M  V30 2086 O 194.403 -3.45201 2.69755 0
M  V30 2087 C 195.904 -4.29373 1.10243 0
M  V30 2088 H 193.124 -0.594452 0.311236 0
M  V30 2089 H 195.668 -1.42429 1.46745 0
M  V30 2090 H 193.823 -3.80109 0.748081 0
M  V30 2091 H 194.237 -4.38056 2.88457 0
M  V30 2092 H 195.711 -5.32394 1.45811 0
M  V30 2093 H 196.188 -4.39181 0.0409492 0
M  V30 2094 H 196.794 -3.92169 1.64571 0
M  V30 2095 N 195.109 -0.891671 -1.2995 0
M  V30 2096 C 196.52 -0.563104 -1.78006 0
M  V30 2097 C 196.871 0.920978 -1.73241 0
M  V30 2098 O 195.996 1.71987 -1.31337 0
M  V30 2099 C 196.591 -1.01539 -3.23226 0
M  V30 2100 C 195.15 -0.738124 -3.69092 0
M  V30 2101 C 194.297 -1.19461 -2.50249 0
M  V30 2102 H 197.248 -1.07522 -1.16725 0
M  V30 2103 H 197.269 -0.347217 -3.78912 0
M  V30 2104 H 196.781 -2.09555 -3.26662 0
M  V30 2105 H 194.882 0.329766 -3.71138 0
M  V30 2106 H 194.995 -1.33037 -4.60259 0
M  V30 2107 H 193.359 -0.613787 -2.47194 0
M  V30 2108 H 194.142 -2.28265 -2.56417 0
M  V30 2109 N 196.587 1.43421 -0.653314 0
M  V30 2110 C 197.864 1.95361 -0.0966581 0
M  V30 2111 C 198.244 1.59461 1.38331 0
M  V30 2112 O 197.592 0.879777 2.10884 0
M  V30 2113 C 197.802 3.47311 -0.342988 0
M  V30 2114 C 199.15 4.23875 -0.24798 0
M  V30 2115 O 200.174 3.55133 -0.275553 0
M  V30 2116 O 199.033 5.4623 -0.171771 0
M  V30 2117 H 196.127 0.826945 0.00956291 0
M  V30 2118 H 198.673 1.5336 -0.726558 0
M  V30 2119 H 197.445 3.66569 -1.36906 0
M  V30 2120 H 197.068 3.9631 0.319975 0
M  V30 2121 N 198.065 0.39524 1.52563 0
M  V30 2122 C 198.995 -0.428384 2.29537 0
M  V30 2123 C 199.976 -1.05831 1.33169 0
M  V30 2124 O 201.161 -1.06995 1.62067 0
M  V30 2125 C 198.291 -1.55274 3.10656 0
M  V30 2126 C 197.245 -1.04855 4.14957 0
M  V30 2127 C 196.571 -2.26543 4.84337 0
M  V30 2128 C 197.871 -0.112324 5.22179 0
M  V30 2129 H 199.565 0.213867 2.98635 0
M  V30 2130 H 197.111 0.104298 1.43622 0
M  V30 2131 H 199.064 -2.1358 3.63265 0
M  V30 2132 H 197.788 -2.22266 2.39302 0
M  V30 2133 H 196.447 -0.487985 3.63338 0
M  V30 2134 H 196.095 -2.92059 4.09525 0
M  V30 2135 H 195.795 -1.93466 5.54837 0
M  V30 2136 H 197.319 -2.85481 5.39753 0
M  V30 2137 H 198.733 -0.603752 5.70112 0
M  V30 2138 H 197.13 0.128968 5.99961 0
M  V30 2139 H 198.2 0.837052 4.77621 0
M  V30 2140 N 199.544 -1.57102 0.125237 0
M  V30 2141 C 200.821 -1.86953 -0.575142 0
M  V30 2142 C 201.201 -1.02749 -1.84407 0
M  V30 2143 O 200.549 -0.108144 -2.28244 0
M  V30 2144 C 200.759 -3.38198 -0.861583 0
M  V30 2145 C 202.107 -4.06937 -1.21192 0
M  V30 2146 O 203.131 -3.43252 -0.951645 0
M  V30 2147 O 201.99 -5.19364 -1.70068 0
M  V30 2148 H 199.084 -0.774147 -0.290906 0
M  V30 2149 H 201.63 -1.68942 0.160211 0
M  V30 2150 H 200.402 -3.91282 0.0373647 0
M  V30 2151 H 200.025 -3.61661 -1.65188 0
M  V30 2152 N 201.022 0.148545 -1.56898 0
M  V30 2153 C 202.433 0.708766 -1.72723 0
M  V30 2154 C 202.784 1.81734 -0.739395 0
M  V30 2155 O 201.909 2.16194 0.0943169 0
M  V30 2156 C 202.504 1.29245 -3.13179 0
M  V30 2157 C 201.063 1.79925 -3.30611 0
M  V30 2158 C 200.21 0.687111 -2.68652 0
M  V30 2159 H 203.161 -0.0771063 -1.58513 0
M  V30 2160 H 203.182 2.16224 -3.13093 0
M  V30 2161 H 202.694 0.485382 -3.85053 0
M  V30 2162 H 200.795 2.63203 -2.63732 0
M  V30 2163 H 200.908 1.92903 -4.38549 0
M  V30 2164 H 199.272 1.11335 -2.29078 0
M  V30 2165 H 200.055 -0.108483 -3.43129 0
M  V30 2166 N 202.5 1.5196 0.417844 0
M  V30 2167 C 203.41 1.77554 1.53336 0
M  V30 2168 C 204.426 0.660655 1.6097 0
M  V30 2169 O 205.602 0.945099 1.77848 0
M  V30 2170 C 202.667 1.91291 2.89152 0
M  V30 2171 C 201.728 3.15183 2.91475 0
M  V30 2172 C 200.961 3.28256 4.20813 0
M  V30 2173 O 201.184 2.46798 5.14244 0
M  V30 2174 O 200.118 4.21356 4.29817 0
M  V30 2175 H 203.944 2.7222 1.34647 0
M  V30 2176 H 201.529 1.36698 0.602828 0
M  V30 2177 H 203.411 2.02199 3.69721 0
M  V30 2178 H 202.086 0.998129 3.07927 0
M  V30 2179 H 200.993 3.09739 2.09791 0
M  V30 2180 H 202.326 4.06414 2.77648 0
M  V30 2181 N 203.978 -0.674533 1.42435 0
M  V30 2182 C 205.206 -1.46283 1.46317 0
M  V30 2183 C 205.621 -1.88653 0.0745836 0
M  V30 2184 O 204.978 -1.58151 -0.91074 0
M  V30 2185 C 205.029 -2.71178 2.3905 0
M  V30 2186 O 204.75 -2.30586 3.72507 0
M  V30 2187 C 206.251 -3.64738 2.51955 0
M  V30 2188 H 203.471 -0.450104 0.497642 0
M  V30 2189 H 206.015 -0.828792 1.86953 0
M  V30 2190 H 204.17 -3.3077 2.01667 0
M  V30 2191 H 204.584 -3.11241 4.22172 0
M  V30 2192 H 206.058 -4.49096 3.20962 0
M  V30 2193 H 206.535 -4.10656 1.55752 0
M  V30 2194 H 207.141 -3.11038 2.90061 0
M  V30 2195 N 205.456 -1.28612 -0.910864 0
M  V30 2196 C 206.702 -1.16106 -1.66274 0
M  V30 2197 C 207.035 0.289113 -1.92036 0
M  V30 2198 O 206.31 1.21 -1.52281 0
M  V30 2199 C 206.593 -1.96309 -3.01885 0
M  V30 2200 C 206.446 -3.49405 -2.8326 0
M  V30 2201 C 207.765 -1.78076 -4.02463 0
M  V30 2202 H 204.884 -0.423152 -0.603417 0
M  V30 2203 H 207.526 -1.57961 -1.05586 0
M  V30 2204 H 205.676 -1.60742 -3.53687 0
M  V30 2205 H 207.348 -3.94894 -2.38446 0
M  V30 2206 H 205.591 -3.74893 -2.18261 0
M  V30 2207 H 206.262 -4.00784 -3.79574 0
M  V30 2208 H 208.738 -2.0912 -3.59733 0
M  V30 2209 H 207.614 -2.36561 -4.95308 0
M  V30 2210 H 207.875 -0.733008 -4.35981 0
M  V30 2211 N 206.934 1.1197 -1.10907 0
M  V30 2212 C 208.211 1.79959 -0.766432 0
M  V30 2213 C 208.591 1.97466 0.746363 0
M  V30 2214 O 207.939 1.55491 1.67436 0
M  V30 2215 C 208.149 3.14009 -1.52314 0
M  V30 2216 C 209.497 3.89134 -1.69883 0
M  V30 2217 O 210.521 3.2368 -1.48692 0
M  V30 2218 O 209.38 5.06572 -2.05054 0
M  V30 2219 H 206.474 0.779208 -0.277062 0
M  V30 2220 H 209.02 1.18762 -1.21217 0
M  V30 2221 H 207.792 2.96587 -2.55249 0
M  V30 2222 H 207.415 3.82915 -1.07059 0
M  V30 2223 N 208.412 0.89855 1.29475 0
M  V30 2224 C 209.689 0.443416 1.90508 0
M  V30 2225 C 210.069 -1.07685 1.81569 0
M  V30 2226 O 209.417 -1.9182 1.24166 0
M  V30 2227 C 209.627 0.956708 3.35631 0
M  V30 2228 C 210.975 0.999728 4.12663 0
M  V30 2229 O 211.999 0.904299 3.4453 0
M  V30 2230 O 210.858 1.14289 5.34416 0
M  V30 2231 H 207.952 0.138025 0.815401 0
M  V30 2232 H 210.498 0.98834 1.37949 0
M  V30 2233 H 209.27 2.00067 3.36287 0
M  V30 2234 H 208.893 0.391728 3.95666 0
M  V30 2235 N 209.89 -1.43072 0.660911 0
M  V30 2236 C 210.853 -2.29194 -0.0166406 0
M  V30 2237 C 211.853 -1.42609 -0.742912 0
M  V30 2238 O 213.043 -1.64155 -0.583004 0
M  V30 2239 C 210.175 -3.24831 -1.0343 0
M  V30 2240 H 211.368 -2.90596 0.741208 0
M  V30 2241 H 208.921 -1.5048 0.422532 0
M  V30 2242 H 209.656 -2.68339 -1.82111 0
M  V30 2243 H 209.441 -3.88676 -0.517082 0
M  V30 2244 H 210.931 -3.89451 -1.50723 0
M  V30 2245 N 211.368 -0.403325 -1.52352 0
M  V30 2246 C 212.615 0.174347 -2.01748 0
M  V30 2247 C 212.943 1.45636 -1.2892 0
M  V30 2248 O 212.198 1.9193 -0.382258 0
M  V30 2249 C 212.497 0.474665 -3.54234 0
M  V30 2250 C 212.163 -0.717458 -4.45155 0
M  V30 2251 C 210.825 -1.04447 -4.69728 0
M  V30 2252 C 213.177 -1.51432 -4.98716 0
M  V30 2253 C 210.505 -2.16963 -5.45109 0
M  V30 2254 C 212.857 -2.6302 -5.75329 0
M  V30 2255 C 211.521 -2.96213 -5.98175 0
M  V30 2256 H 210.791 0.0637981 -0.738248 0
M  V30 2257 H 213.438 -0.543553 -1.83624 0
M  V30 2258 H 211.743 1.27406 -3.70506 0
M  V30 2259 H 213.44 0.934496 -3.89959 0
M  V30 2260 H 210.03 -0.452596 -4.26204 0
M  V30 2261 H 214.214 -1.27491 -4.79645 0
M  V30 2262 H 209.47 -2.43034 -5.61021 0
M  V30 2263 H 213.644 -3.25158 -6.15829 0
M  V30 2264 H 211.271 -3.83516 -6.56368 0
M  V30 2265 N 212.846 1.57033 -0.133567 0
M  V30 2266 C 213.809 2.14897 0.796995 0
M  V30 2267 C 214.809 1.0874 1.18458 0
M  V30 2268 O 215.999 1.34446 1.1077 0
M  V30 2269 C 213.131 2.70112 2.07973 0
M  V30 2270 H 214.324 2.98457 0.293873 0
M  V30 2271 H 211.877 1.55871 0.115787 0
M  V30 2272 H 212.612 1.9018 2.62682 0
M  V30 2273 H 212.397 3.47764 1.81115 0
M  V30 2274 H 213.887 3.14738 2.74462 0
M  V30 2275 N 214.325 -0.140222 1.56975 0
M  V30 2276 C 215.741 -0.493088 1.51792 0
M  V30 2277 C 215.941 -1.83013 0.843116 0
M  V30 2278 O 214.997 -2.49041 0.416493 0
M  V30 2279 C 216.31 -0.497144 2.96562 0
M  V30 2280 C 217.858 -0.582186 3.07538 0
M  V30 2281 C 218.333 -0.616838 4.53827 0
M  V30 2282 N 219.824 -0.678873 4.58198 0
M  V30 2283 C 220.559 -0.726782 5.68775 0
M  V30 2284 N 220.055 -0.733623 6.88905 0
M  V30 2285 N 221.848 -0.768179 5.56826 0
M  V30 2286 H 213.999 0.736108 1.99237 0
M  V30 2287 H 216.262 0.269182 0.90898 0
M  V30 2288 H 215.968 0.417217 3.49217 0
M  V30 2289 H 215.842 -1.33263 3.52875 0
M  V30 2290 H 218.229 -1.48697 2.54899 0
M  V30 2291 H 218.31 0.280581 2.54257 0
M  V30 2292 H 217.954 0.283812 5.07106 0
M  V30 2293 H 217.884 -1.49619 5.04898 0
M  V30 2294 H 220.375 -0.68061 3.7172 0
M  V30 2295 H 220.688 -0.772215 7.68932 0
M  V30 2296 H 219.033 -0.701389 6.91452 0
M  V30 2297 H 222.224 -0.760051 4.61888 0
M  V30 2298 H 222.397 -0.80205 6.43017 0
M  V30 2299 N 215.803 -1.52179 -0.40978 0
M  V30 2300 C 216.766 -1.74853 -1.48186 0
M  V30 2301 C 217.766 -0.618417 -1.48433 0
M  V30 2302 O 218.956 -0.886286 -1.49969 0
M  V30 2303 C 216.088 -1.8303 -2.87598 0
M  V30 2304 H 217.281 -2.70559 -1.29374 0
M  V30 2305 H 214.834 -1.42586 -0.640233 0
M  V30 2306 H 215.569 -0.89236 -3.11781 0
M  V30 2307 H 215.354 -2.65187 -2.88822 0
M  V30 2308 H 216.844 -2.02316 -3.65319 0
M  V30 2309 N 217.281 0.66697 -1.42791 0
M  V30 2310 C 218.528 1.42699 -1.43678 0
M  V30 2311 C 218.856 1.94419 -0.0560425 0
M  V30 2312 O 218.111 1.7182 0.936831 0
M  V30 2313 C 218.41 2.6349 -2.4147 0
M  V30 2314 C 218.076 2.30267 -3.8767 0
M  V30 2315 C 216.738 2.20918 -4.27491 0
M  V30 2316 C 219.09 2.03435 -4.79858 0
M  V30 2317 C 216.418 1.82873 -5.57471 0
M  V30 2318 C 218.77 1.66892 -6.10188 0
M  V30 2319 C 217.434 1.56058 -6.49001 0
M  V30 2320 H 216.704 0.522171 -0.525755 0
M  V30 2321 H 219.351 0.759785 -1.75783 0
M  V30 2322 H 217.656 3.35279 -2.0272 0
M  V30 2323 H 219.353 3.21684 -2.39417 0
M  V30 2324 H 215.943 2.38449 -3.56146 0
M  V30 2325 H 220.127 2.09586 -4.49875 0
M  V30 2326 H 215.383 1.7306 -5.86396 0
M  V30 2327 H 219.557 1.45157 -6.81104 0
M  V30 2328 H 217.184 1.26348 -7.49627 0
M  V30 2329 N 218.759 1.29093 0.90403 0
M  V30 2330 C 219.691 1.09658 2.01266 0
M  V30 2331 C 220.704 0.0453729 1.62737 0
M  V30 2332 O 221.893 0.289446 1.76138 0
M  V30 2333 C 218.993 0.646278 3.32681 0
M  V30 2334 C 218.166 1.77505 3.99763 0
M  V30 2335 C 217.225 1.31649 5.09465 0
M  V30 2336 O 216.251 2.02045 5.32134 0
M  V30 2337 N 217.453 0.184997 5.80205 0
M  V30 2338 H 220.218 2.05135 2.18494 0
M  V30 2339 H 217.779 1.20975 1.07594 0
M  V30 2340 H 219.771 0.322906 4.0341 0
M  V30 2341 H 218.341 -0.215916 3.11853 0
M  V30 2342 H 217.561 2.26752 3.22455 0
M  V30 2343 H 218.849 2.53198 4.41325 0
M  V30 2344 H 218.247 -0.402021 5.6427 0
M  V30 2345 H 216.804 -0.0790358 6.51752 0
M  V30 2346 N 220.237 -1.11381 1.11499 0
M  V30 2347 C 221.483 -1.83403 0.865512 0
M  V30 2348 C 221.816 -1.84459 -0.607329 0
M  V30 2349 O 221.091 -1.29811 -1.44842 0
M  V30 2350 C 221.374 -3.30552 1.42855 0
M  V30 2351 C 221.227 -3.37886 2.96906 0
M  V30 2352 C 222.546 -4.26643 1.08 0
M  V30 2353 H 219.665 -0.665879 0.31587 0
M  V30 2354 H 222.307 -1.30601 1.37998 0
M  V30 2355 H 220.457 -3.75648 0.990985 0
M  V30 2356 H 222.129 -3.01343 3.49271 0
M  V30 2357 H 220.372 -2.78088 3.32941 0
M  V30 2358 H 221.043 -4.41458 3.31389 0
M  V30 2359 H 223.519 -3.89729 1.45775 0
M  V30 2360 H 222.395 -5.27986 1.50072 0
M  V30 2361 H 222.656 -4.42099 -0.00915037 0
M  V30 2362 N 221.715 -0.905404 -1.28997 0
M  V30 2363 C 222.961 -0.544465 -1.95977 0
M  V30 2364 C 223.316 0.90041 -1.70031 0
M  V30 2365 O 222.609 1.63064 -1.00601 0
M  V30 2366 C 222.803 -0.779906 -3.48787 0
M  V30 2367 C 222.632 -2.24612 -3.89589 0
M  V30 2368 C 221.402 -2.89464 -4.14172 0
M  V30 2369 C 223.6 -3.22182 -4.00878 0
M  V30 2370 N 221.582 -4.26469 -4.41585 0
M  V30 2371 C 222.953 -4.44323 -4.32409 0
M  V30 2372 C 225.008 -3.17694 -3.83373 0
M  V30 2373 C 223.711 -5.62546 -4.48258 0
M  V30 2374 C 225.737 -4.35208 -4.00435 0
M  V30 2375 C 225.099 -5.56121 -4.3233 0
M  V30 2376 H 221.198 -0.248948 -0.741316 0
M  V30 2377 H 223.782 -1.1674 -1.5582 0
M  V30 2378 H 221.953 -0.186308 -3.87953 0
M  V30 2379 H 223.685 -0.383833 -4.02876 0
M  V30 2380 H 220.44 -2.40232 -4.08149 0
M  V30 2381 H 220.864 -4.97283 -4.5939 0
M  V30 2382 H 225.506 -2.25297 -3.57773 0
M  V30 2383 H 223.224 -6.55429 -4.72692 0
M  V30 2384 H 226.81 -4.33228 -3.88336 0
M  V30 2385 H 225.69 -6.45537 -4.45255 0
M  V30 2386 N 223.193 1.4272 -0.668489 0
M  V30 2387 C 224.418 2.06484 -0.194758 0
M  V30 2388 C 224.843 1.49862 1.13679 0
M  V30 2389 O 224.201 0.614582 1.70565 0
M  V30 2390 C 224.249 3.60353 -0.133546 0
M  V30 2391 O 223.353 4.02464 0.899806 0
M  V30 2392 H 222.694 0.656137 -0.10188 0
M  V30 2393 H 225.224 1.82964 -0.915722 0
M  V30 2394 H 225.234 4.07976 0.0447041 0
M  V30 2395 H 223.909 4.00938 -1.1055 0
M  V30 2396 H 222.486 3.66402 0.693109 0
M  V30 2397 N 224.671 0.411399 1.52136 0
M  V30 2398 C 225.948 -0.222308 1.94333 0
M  V30 2399 C 226.328 -1.6242 1.34844 0
M  V30 2400 O 225.676 -2.22384 0.525145 0
M  V30 2401 C 225.886 -0.226345 3.48265 0
M  V30 2402 C 227.234 -0.444592 4.22266 0
M  V30 2403 O 228.258 -0.305602 3.54887 0
M  V30 2404 O 227.117 -0.718749 5.41753 0
M  V30 2405 H 224.211 -0.143907 0.814383 0
M  V30 2406 H 226.757 0.467506 1.63133 0
M  V30 2407 H 225.529 0.75475 3.83952 0
M  V30 2408 H 225.152 -0.960163 3.85832 0
M  V30 2409 N 226.149 -1.5696 0.141893 0
M  V30 2410 C 227.395 -1.9625 -0.511248 0
M  V30 2411 C 227.728 -1.02654 -1.64851 0
M  V30 2412 O 227.003 -0.0679676 -1.94381 0
M  V30 2413 C 227.286 -3.45285 -1.02227 0
M  V30 2414 C 227.139 -4.49658 0.113138 0
M  V30 2415 C 228.458 -3.96698 -1.90574 0
M  V30 2416 H 225.577 -0.713567 -0.184367 0
M  V30 2417 H 228.219 -1.88698 0.222087 0
M  V30 2418 H 226.369 -3.51852 -1.64719 0
M  V30 2419 H 228.041 -4.55174 0.749302 0
M  V30 2420 H 226.284 -4.26857 0.773026 0
M  V30 2421 H 226.955 -5.51258 -0.286053 0
M  V30 2422 H 229.431 -3.92578 -1.37918 0
M  V30 2423 H 228.307 -5.01453 -2.2324 0
M  V30 2424 H 228.568 -3.3875 -2.84079 0
M  V30 2425 N 227.627 0.131896 -1.57047 0
M  V30 2426 C 228.855 0.856461 -1.88341 0
M  V30 2427 C 229.27 1.74042 -0.731757 0
M  V30 2428 O 228.627 1.80051 0.297945 0
M  V30 2429 C 228.678 1.70064 -3.18999 0
M  V30 2430 O 228.399 0.852278 -4.2973 0
M  V30 2431 C 229.9 2.53148 -3.63911 0
M  V30 2432 H 227.12 0.246885 -0.62393 0
M  V30 2433 H 229.664 0.120152 -2.04147 0
M  V30 2434 H 227.819 2.38984 -3.04902 0
M  V30 2435 H 228.233 1.43329 -5.04537 0
M  V30 2436 H 229.707 3.07931 -4.58129 0
M  V30 2437 H 230.184 3.29901 -2.89935 0
M  V30 2438 H 230.79 1.89492 -3.80753 0
M  V30 2439 N 229.106 1.52395 0.401703 0
M  V30 2440 C 230.517 1.58899 0.980202 0
M  V30 2441 C 230.868 0.434032 1.91339 0
M  V30 2442 O 229.993 -0.444619 2.11783 0
M  V30 2443 C 230.588 2.87994 1.78451 0
M  V30 2444 C 229.147 2.96953 2.31292 0
M  V30 2445 C 228.294 2.53903 1.11483 0
M  V30 2446 H 231.245 1.57657 0.18168 0
M  V30 2447 H 231.266 2.73765 2.64259 0
M  V30 2448 H 230.778 3.72035 1.10506 0
M  V30 2449 H 228.879 2.17422 3.02586 0
M  V30 2450 H 228.992 4.01344 2.61649 0
M  V30 2451 H 227.356 2.07925 1.47104 0
M  V30 2452 H 228.139 3.40326 0.450928 0
M  V30 2453 N 230.584 -0.659388 1.43143 0
M  V30 2454 C 231.514 -1.78422 1.50625 0
M  V30 2455 C 232.495 -1.66216 0.361443 0
M  V30 2456 O 233.68 -1.85404 0.577834 0
M  V30 2457 C 230.81 -3.16815 1.42287 0
M  V30 2458 C 229.764 -3.43777 2.54954 0
M  V30 2459 C 229.09 -4.81905 2.31671 0
M  V30 2460 C 230.39 -3.39134 3.97222 0
M  V30 2461 H 232.084 -1.72417 2.44771 0
M  V30 2462 H 229.63 -0.828084 1.17808 0
M  V30 2463 H 231.583 -3.95253 1.46127 0
M  V30 2464 H 230.307 -3.23534 0.446435 0
M  V30 2465 H 228.966 -2.67707 2.50457 0
M  V30 2466 H 228.614 -4.85294 1.32284 0
M  V30 2467 H 228.314 -5.00906 3.07192 0
M  V30 2468 H 229.838 -5.62609 2.37284 0
M  V30 2469 H 231.252 -4.07518 4.03239 0
M  V30 2470 H 229.649 -3.69671 4.72719 0
M  V30 2471 H 230.719 -2.37426 4.22797 0
M  V30 2472 N 232.062 -1.29571 -0.897171 0
M  V30 2473 C 233.478 -1.07637 -1.17841 0
M  V30 2474 C 233.678 0.170713 -2.00776 0
M  V30 2475 O 232.734 0.867768 -2.3712 0
M  V30 2476 C 234.047 -2.3332 -1.8969 0
M  V30 2477 C 235.595 -2.38664 -2.02505 0
M  V30 2478 C 236.07 -3.64157 -2.77765 0
M  V30 2479 N 237.561 -3.64894 -2.85318 0
M  V30 2480 C 238.296 -4.58679 -3.44094 0
M  V30 2481 N 237.792 -5.62799 -4.04017 0
M  V30 2482 N 239.585 -4.46245 -3.41793 0
M  V30 2483 H 231.736 -2.09598 -0.343883 0
M  V30 2484 H 233.999 -0.923333 -0.214848 0
M  V30 2485 H 233.705 -3.24262 -1.36187 0
M  V30 2486 H 233.579 -2.41025 -2.9015 0
M  V30 2487 H 235.966 -1.48208 -2.55183 0
M  V30 2488 H 236.047 -2.34943 -1.01171 0
M  V30 2489 H 235.691 -4.54965 -2.25763 0
M  V30 2490 H 235.621 -3.65137 -3.7945 0
M  V30 2491 H 238.112 -2.89613 -2.42761 0
M  V30 2492 H 238.425 -6.3048 -4.46895 0
M  V30 2493 H 236.77 -5.66605 -4.02472 0
M  V30 2494 H 239.961 -3.64094 -2.94199 0
M  V30 2495 H 240.134 -5.19518 -3.87304 0
M  V30 2496 N 233.54 1.10788 -1.12088 0
M  V30 2497 C 234.787 1.82671 -0.873931 0
M  V30 2498 C 235.115 1.85004 0.600311 0
M  V30 2499 O 234.37 1.30365 1.45957 0
M  V30 2500 C 234.669 3.29294 -1.38926 0
M  V30 2501 C 234.335 3.47113 -2.87791 0
M  V30 2502 C 232.997 3.51684 -3.28439 0
M  V30 2503 C 235.349 3.52808 -3.83635 0
M  V30 2504 C 232.677 3.59513 -4.63646 0
M  V30 2505 C 235.029 3.62169 -5.18668 0
M  V30 2506 C 233.693 3.65003 -5.58864 0
M  V30 2507 H 232.963 0.668441 -0.319794 0
M  V30 2508 H 235.61 1.30613 -1.40045 0
M  V30 2509 H 233.915 3.83894 -0.783122 0
M  V30 2510 H 235.612 3.83416 -1.17443 0
M  V30 2511 H 232.202 3.4423 -2.5535 0
M  V30 2512 H 236.386 3.4853 -3.53328 0
M  V30 2513 H 231.642 3.59987 -4.94185 0
M  V30 2514 H 235.816 3.6552 -5.92763 0
M  V30 2515 H 233.443 3.70822 -6.63623 0
M  V30 2516 N 235.018 0.912232 1.28515 0
M  V30 2517 C 236.243 0.559774 1.99703 0
M  V30 2518 C 236.668 -0.851393 1.67729 0
M  V30 2519 O 236.026 -1.56875 0.908834 0
M  V30 2520 C 236.074 0.773874 3.52198 0
M  V30 2521 O 235.178 -0.167842 4.12058 0
M  V30 2522 H 234.519 0.21723 0.627461 0
M  V30 2523 H 237.049 1.22725 1.63706 0
M  V30 2524 H 237.059 0.683386 4.02236 0
M  V30 2525 H 235.734 1.80261 3.74805 0
M  V30 2526 H 234.311 -0.0287509 3.72889 0
M  V30 2527 N 236.496 -1.42363 0.676048 0
M  V30 2528 C 237.912 -1.55811 0.345718 0
M  V30 2529 C 238.112 -1.65544 -1.14879 0
M  V30 2530 O 237.168 -1.62306 -1.93424 0
M  V30 2531 C 238.481 -2.80746 1.07713 0
M  V30 2532 C 240.029 -2.9452 1.05958 0
M  V30 2533 C 240.504 -4.22318 1.77233 0
M  V30 2534 N 241.995 -4.29233 1.74108 0
M  V30 2535 C 242.73 -5.26935 2.26113 0
M  V30 2536 N 242.226 -6.30783 2.86505 0
M  V30 2537 N 244.019 -5.18741 2.1648 0
M  V30 2538 H 236.17 -1.34289 1.6456 0
M  V30 2539 H 238.433 -0.646506 0.69335 0
M  V30 2540 H 238.139 -2.79696 2.13221 0
M  V30 2541 H 238.013 -3.71676 0.64316 0
M  V30 2542 H 240.4 -2.95097 0.0128255 0
M  V30 2543 H 240.481 -2.04817 1.53244 0
M  V30 2544 H 240.125 -4.22502 2.81877 0
M  V30 2545 H 240.055 -5.10958 1.27396 0
M  V30 2546 H 242.546 -3.54814 1.30059 0
M  V30 2547 H 242.859 -7.01691 3.23805 0
M  V30 2548 H 241.204 -6.31341 2.90575 0
M  V30 2549 H 244.395 -4.36533 1.68987 0
M  V30 2550 H 244.568 -5.94721 2.57316 0
M  V30 2551 N 237.974 -0.419461 -1.51915 0
M  V30 2552 C 239.223 0.154346 -2.01109 0
M  V30 2553 C 239.536 1.45338 -1.30905 0
M  V30 2554 O 240.742 2.10906 -1.7097 0
M  V30 2555 C 239.198 0.325615 -3.58424 0
M  V30 2556 C 238.806 -0.961934 -4.37551 0
M  V30 2557 C 240.55 0.854155 -4.15818 0
M  V30 2558 C 238.457 -0.757287 -5.86531 0
M  V30 2559 H 237.387 0.0614563 -0.751491 0
M  V30 2560 H 240.038 -0.54649 -1.75173 0
M  V30 2561 H 238.42 1.08903 -3.80731 0
M  V30 2562 H 239.594 -1.7323 -4.26999 0
M  V30 2563 H 237.909 -1.41766 -3.91524 0
M  V30 2564 H 240.506 1.02346 -5.24814 0
M  V30 2565 H 240.849 1.83172 -3.73837 0
M  V30 2566 H 241.382 0.149528 -3.97519 0
M  V30 2567 H 238.121 -1.70671 -6.32892 0
M  V30 2568 H 237.641 -0.0264061 -5.99794 0
M  V30 2569 H 239.32 -0.403482 -6.45741 0
M  V30 2570 N 239.452 1.56882 -0.150215 0
M  V30 2571 C 240.402 2.13501 0.800071 0
M  V30 2572 C 241.386 1.06368 1.20726 0
M  V30 2573 O 242.578 1.32538 1.17314 0
M  V30 2574 C 239.707 2.76271 2.03787 0
M  V30 2575 C 238.793 3.90533 1.65364 0
M  V30 2576 N 239.184 4.96259 0.977794 0
M  V30 2577 C 237.482 4.013 1.94613 0
M  V30 2578 C 238.183 5.76286 0.791794 0
M  V30 2579 N 237.159 5.27163 1.32666 0
M  V30 2580 H 240.961 2.92615 0.274517 0
M  V30 2581 H 238.475 1.62319 0.0512144 0
M  V30 2582 H 240.472 3.15197 2.72867 0
M  V30 2583 H 239.132 1.98631 2.56857 0
M  V30 2584 H 240.143 5.13953 0.638193 0
M  V30 2585 H 236.82 3.3474 2.4951 0
M  V30 2586 H 238.21 6.71401 0.258894 0
M  V30 2587 N 240.93 -0.123565 1.57115 0
M  V30 2588 C 242.207 -0.862196 1.75572 0
M  V30 2589 C 242.587 -1.98279 0.724475 0
M  V30 2590 O 241.935 -2.27102 -0.252407 0
M  V30 2591 C 242.145 -1.38309 3.20424 0
M  V30 2592 C 243.493 -1.83724 3.82793 0
M  V30 2593 O 244.517 -1.47999 3.23998 0
M  V30 2594 O 243.376 -2.49685 4.86127 0
M  V30 2595 H 240.47 -0.409113 0.718718 0
M  V30 2596 H 243.016 -0.107661 1.69358 0
M  V30 2597 H 241.788 -0.578889 3.86994 0
M  V30 2598 H 241.411 -2.20046 3.31158 0
M  V30 2599 N 242.408 -1.52605 -0.393616 0
M  V30 2600 C 243.656 -1.67093 -1.13685 0
M  V30 2601 C 243.977 -0.411011 -1.90619 0
M  V30 2602 O 243.247 0.574491 -1.87287 0
M  V30 2603 H 241.827 -0.615923 -0.422668 0
M  V30 2604 H 244.489 -1.89704 -0.447039 0
M  V30 2605 H 243.585 -2.51922 -1.84232 0
M  V30 2606 N 243.887 0.651787 -1.4349 0
M  V30 2607 C 244.797 1.79368 -1.5121 0
M  V30 2608 C 245.813 1.69361 -0.399093 0
M  V30 2609 O 246.989 1.90505 -0.653431 0
M  V30 2610 C 244.054 3.15653 -1.43401 0
M  V30 2611 C 243.115 3.37446 -2.65384 0
M  V30 2612 C 242.348 4.67229 -2.57939 0
M  V30 2613 O 242.571 5.46676 -1.62792 0
M  V30 2614 O 241.505 4.90773 -3.48462 0
M  V30 2615 H 245.331 1.7581 -2.47638 0
M  V30 2616 H 242.916 0.810447 -1.25507 0
M  V30 2617 H 244.798 3.96935 -1.41494 0
M  V30 2618 H 243.473 3.19798 -0.501085 0
M  V30 2619 H 242.38 2.55923 -2.72863 0
M  V30 2620 H 243.713 3.38148 -3.57654 0
M  V30 2621 N 245.365 1.30045 0.890287 0
M  V30 2622 C 246.328 1.15963 1.977 0
M  V30 2623 C 247.328 0.0923777 1.60534 0
M  V30 2624 O 248.518 0.340071 1.70848 0
M  V30 2625 C 245.65 0.775451 3.31963 0
M  V30 2626 H 246.843 2.12502 2.11619 0
M  V30 2627 H 244.396 1.13366 1.07601 0
M  V30 2628 H 245.131 -0.189671 3.23745 0
M  V30 2629 H 244.916 1.54668 3.60306 0
M  V30 2630 H 246.406 0.700251 4.11687 0
M  V30 2631 N 246.843 -1.10192 1.12674 0
M  V30 2632 C 248.12 -1.78717 0.794965 0
M  V30 2633 C 248.5 -1.98628 -0.714853 0
M  V30 2634 O 247.848 -1.58135 -1.64941 0
M  V30 2635 C 248.058 -3.11546 1.5729 0
M  V30 2636 C 249.406 -3.86382 1.76052 0
M  V30 2637 O 250.43 -3.21274 1.53823 0
M  V30 2638 O 249.289 -5.03246 2.13087 0
M  V30 2639 H 246.383 -0.774702 0.289423 0
M  V30 2640 H 248.929 -1.16819 1.23091 0
M  V30 2641 H 247.701 -2.92489 2.59935 0
M  V30 2642 H 247.324 -3.81164 1.13137 0
M  V30 2643 N 248.321 -0.919034 -1.28029 0
M  V30 2644 C 249.57 -0.550802 -1.94034 0
M  V30 2645 C 249.883 0.910877 -1.73096 0
M  V30 2646 O 251.089 1.3875 -2.33368 0
M  V30 2647 C 249.545 -0.934249 -3.47563 0
M  V30 2648 C 249.153 -2.41602 -3.7727 0
M  V30 2649 C 250.897 -0.636854 -4.19696 0
M  V30 2650 C 248.804 -2.73932 -5.24133 0
M  V30 2651 H 247.734 -0.202273 -0.726362 0
M  V30 2652 H 250.385 -1.11867 -1.45458 0
M  V30 2653 H 248.767 -0.295115 -3.94899 0
M  V30 2654 H 249.941 -3.10233 -3.40723 0
M  V30 2655 H 248.256 -2.68441 -3.18321 0
M  V30 2656 H 250.853 -0.855005 -5.2782 0
M  V30 2657 H 251.196 0.425575 -4.14119 0
M  V30 2658 H 251.729 -1.23469 -3.78154 0
M  V30 2659 H 248.468 -3.79049 -5.34792 0
M  V30 2660 H 247.988 -2.09942 -5.61858 0
M  V30 2661 H 249.667 -2.61215 -5.91925 0
M  V30 2662 N 249.799 1.42003 -0.683588 0
M  V30 2663 C 250.732 2.28166 0.039592 0
M  V30 2664 C 251.71 1.41562 0.799942 0
M  V30 2665 O 252.894 1.70997 0.793248 0
M  V30 2666 C 250.021 3.21575 1.06335 0
M  V30 2667 C 249.067 4.24643 0.397562 0
M  V30 2668 S 249.9 5.2869 -0.851296 0
M  V30 2669 C 251.056 6.25666 0.171166 0
M  V30 2670 H 251.289 2.89153 -0.691229 0
M  V30 2671 H 248.822 1.46962 -0.473435 0
M  V30 2672 H 250.78 3.75928 1.6489 0
M  V30 2673 H 249.441 2.59707 1.76667 0
M  V30 2674 H 248.634 4.90223 1.17035 0
M  V30 2675 H 248.236 3.73824 -0.114611 0
M  V30 2676 H 250.528 6.69653 1.02819 0
M  V30 2677 H 251.471 7.06666 -0.450397 0
M  V30 2678 H 251.879 5.62095 0.520578 0
M  V30 2679 N 251.277 0.427512 1.51691 0
M  V30 2680 C 252.526 -0.143679 2.01188 0
M  V30 2681 C 252.839 -1.44642 1.31674 0
M  V30 2682 O 254.045 -2.09997 1.72086 0
M  V30 2683 C 252.501 -0.306602 3.58592 0
M  V30 2684 C 252.109 0.985125 4.37035 0
M  V30 2685 C 253.853 -0.832091 4.16265 0
M  V30 2686 C 251.76 0.788382 5.86122 0
M  V30 2687 H 250.69 -0.0574701 0.751807 0
M  V30 2688 H 253.341 0.555772 1.74881 0
M  V30 2689 H 251.723 -1.06882 3.81303 0
M  V30 2690 H 252.897 1.75492 4.26074 0
M  V30 2691 H 251.212 1.4384 3.90767 0
M  V30 2692 H 253.809 -0.995617 5.25349 0
M  V30 2693 H 254.152 -1.81186 3.74803 0
M  V30 2694 H 254.685 -0.128444 3.97593 0
M  V30 2695 H 251.424 1.74025 6.31978 0
M  V30 2696 H 250.944 0.0582143 5.99772 0
M  V30 2697 H 252.623 0.437722 6.45518 0
M  V30 2698 N 252.755 -1.56801 0.158532 0
M  V30 2699 C 253.703 -2.18638 -0.793729 0
M  V30 2700 C 254.697 -1.14669 -1.24689 0
M  V30 2701 O 255.903 -1.32895 -1.21403 0
M  V30 2702 H 252.278 -0.700226 -0.274204 0
M  V30 2703 H 254.249 -2.97367 -0.248095 0
M  V30 2704 C 252.998 -2.83139 -2.0181 0
M  V30 2705 H 252.321 -3.62863 -1.67841 0
M  V30 2706 H 253.761 -3.29894 -2.66357 0
M  V30 2707 C 252.22 -1.82244 -2.83353 0
M  V30 2708 O 252.75 -1.3 -3.80083 0
M  V30 2709 N 250.956 -1.51288 -2.48114 0
M  V30 2710 H 250.503 -1.93964 -1.69516 0
M  V30 2711 H 250.461 -0.840296 -3.02963 0
M  V30 2712 N 254.233 0.115231 -1.57178 0
M  V30 2713 C 255.48 0.822351 -1.8505 0
M  V30 2714 C 255.808 1.79701 -0.744168 0
M  V30 2715 O 255.063 1.93909 0.26414 0
M  V30 2716 C 255.362 1.60324 -3.19423 0
M  V30 2717 C 255.028 0.772536 -4.44233 0
M  V30 2718 C 253.69 0.543468 -4.78121 0
M  V30 2719 C 256.042 0.193746 -5.2084 0
M  V30 2720 C 253.37 -0.274583 -5.86057 0
M  V30 2721 C 255.722 -0.611517 -6.29637 0
M  V30 2722 C 254.386 -0.850867 -6.62055 0
M  V30 2723 H 253.656 0.30092 -0.677147 0
M  V30 2724 H 256.303 0.0845802 -1.91313 0
M  V30 2725 H 254.608 2.41203 -3.08753 0
M  V30 2726 H 256.305 2.1544 -3.38211 0
M  V30 2727 H 252.895 0.96117 -4.17683 0
M  V30 2728 H 257.079 0.357926 -4.95008 0
M  V30 2729 H 252.335 -0.469206 -6.09597 0
M  V30 2730 H 256.509 -1.06697 -6.88178 0
M  V30 2731 H 254.136 -1.48657 -7.45523 0
M  V30 2732 N 255.711 1.52812 0.385517 0
M  V30 2733 C 256.959 1.67694 1.12797 0
M  V30 2734 C 257.28 0.421115 1.90399 0
M  V30 2735 O 256.55 -0.564551 1.87589 0
M  V30 2736 H 255.13 0.618155 0.419396 0
M  V30 2737 H 257.792 1.89938 0.436972 0
M  V30 2738 H 256.888 2.52896 1.82894 0
M  V30 2739 N 257.189 -0.644168 1.43834 0
M  V30 2740 C 258.605 -0.960875 1.27434 0
M  V30 2741 C 258.805 -2.00499 0.200618 0
M  V30 2742 O 257.861 -2.49018 -0.417906 0
M  V30 2743 C 259.174 -1.43653 2.64167 0
M  V30 2744 C 260.722 -1.55271 2.71772 0
M  V30 2745 C 261.197 -2.06224 4.08944 0
M  V30 2746 N 262.688 -2.13513 4.11055 0
M  V30 2747 C 263.423 -2.54081 5.14033 0
M  V30 2748 N 262.919 -2.9388 6.27381 0
M  V30 2749 N 264.712 -2.54101 5.01387 0
M  V30 2750 H 256.863 0.0465779 2.12349 0
M  V30 2751 H 259.126 -0.0417638 0.94708 0
M  V30 2752 H 258.832 -0.743706 3.43747 0
M  V30 2753 H 258.706 -2.40993 2.90176 0
M  V30 2754 H 261.093 -2.23653 1.92519 0
M  V30 2755 H 261.174 -0.563395 2.49519 0
M  V30 2756 H 260.818 -1.38441 4.88668 0
M  V30 2757 H 260.748 -3.06003 4.28567 0
M  V30 2758 H 263.239 -1.85493 3.29242 0
M  V30 2759 H 263.552 -3.2361 7.01781 0
M  V30 2760 H 261.897 -2.91663 6.30839 0
M  V30 2761 H 265.088 -2.22391 4.11898 0
M  V30 2762 H 265.261 -2.85394 5.81768 0
M  V30 2763 N 258.668 -1.30515 -0.883378 0
M  V30 2764 C 259.914 -1.20617 -1.63778 0
M  V30 2765 C 260.269 0.236469 -1.90941 0
M  V30 2766 O 259.562 1.16596 -1.52039 0
M  V30 2767 C 259.756 -1.96994 -2.98209 0
M  V30 2768 C 259.585 -3.48537 -2.84169 0
M  V30 2769 C 258.355 -4.17893 -2.84067 0
M  V30 2770 C 260.553 -4.43738 -2.60001 0
M  V30 2771 N 258.535 -5.55685 -2.60936 0
M  V30 2772 C 259.906 -5.69105 -2.46007 0
M  V30 2773 C 261.961 -4.33316 -2.45239 0
M  V30 2774 C 260.664 -6.8523 -2.18752 0
M  V30 2775 C 262.69 -5.4921 -2.19369 0
M  V30 2776 C 262.052 -6.73558 -2.06153 0
M  V30 2777 H 258.151 -0.496434 -0.604216 0
M  V30 2778 H 260.735 -1.64544 -1.04083 0
M  V30 2779 H 258.906 -1.55455 -3.55933 0
M  V30 2780 H 260.638 -1.79225 -3.62851 0
M  V30 2781 H 257.393 -3.69739 -2.95956 0
M  V30 2782 H 257.817 -6.28199 -2.52378 0
M  V30 2783 H 262.459 -3.37856 -2.54191 0
M  V30 2784 H 260.177 -7.80729 -2.08537 0
M  V30 2785 H 263.763 -5.43054 -2.08766 0
M  V30 2786 H 262.643 -7.61721 -1.86416 0
M  V30 2787 N 260.146 1.09593 -1.13257 0
M  V30 2788 C 261.056 2.19739 -0.821691 0
M  V30 2789 C 262.072 1.72926 0.19302 0
M  V30 2790 O 263.248 2.01385 0.0244895 0
M  V30 2791 C 260.313 3.45482 -0.290333 0
M  V30 2792 C 259.374 4.06985 -1.36607 0
M  V30 2793 C 258.607 5.26726 -0.859975 0
M  V30 2794 O 258.83 5.69594 0.303082 0
M  V30 2795 O 257.764 5.7931 -1.63351 0
M  V30 2796 H 261.59 2.48781 -1.74189 0
M  V30 2797 H 259.175 1.18496 -0.909894 0
M  V30 2798 H 261.057 4.214 0.000674022 0
M  V30 2799 H 259.732 3.18047 0.602306 0
M  V30 2800 H 258.639 3.32712 -1.71037 0
M  V30 2801 H 259.972 4.38643 -2.23279 0
M  V30 2802 N 261.624 0.925811 1.2754 0
M  V30 2803 C 262.574 0.394488 2.24561 0
M  V30 2804 C 263.558 -0.500183 1.52928 0
M  V30 2805 O 264.75 -0.337936 1.73744 0
M  V30 2806 C 261.879 -0.353328 3.41477 0
M  V30 2807 C 260.965 0.557752 4.20416 0
M  V30 2808 N 261.356 1.67674 4.77199 0
M  V30 2809 C 259.654 0.360404 4.44541 0
M  V30 2810 C 260.355 2.24324 5.36706 0
M  V30 2811 N 259.331 1.53305 5.21535 0
M  V30 2812 H 263.133 1.2489 2.66045 0
M  V30 2813 H 260.647 0.779864 1.4245 0
M  V30 2814 H 262.644 -0.7509 4.10082 0
M  V30 2815 H 261.304 -1.20469 3.01525 0
M  V30 2816 H 262.315 2.05915 4.75204 0
M  V30 2817 H 258.992 -0.450454 4.15063 0
M  V30 2818 H 260.382 3.18521 5.91603 0
M  V30 2819 N 263.102 -1.41638 0.69111 0
M  V30 2820 C 264.35 -2.00902 0.219758 0
M  V30 2821 C 264.671 -1.54994 -1.18329 0
M  V30 2822 O 263.941 -0.778628 -1.79762 0
M  V30 2823 H 262.521 -0.74289 0.0782558 0
M  V30 2824 H 265.183 -1.73327 0.891271 0
M  V30 2825 H 264.279 -3.11224 0.233708 0
M  V30 2826 N 264.58 -0.43555 -1.51462 0
M  V30 2827 C 265.857 0.191364 -1.94662 0
M  V30 2828 C 266.237 1.60254 -1.37411 0
M  V30 2829 O 265.585 2.2152 -0.560458 0
M  V30 2830 C 265.795 0.17091 -3.48581 0
M  V30 2831 C 267.143 0.377357 -4.2292 0
M  V30 2832 O 268.167 0.249104 -3.55328 0
M  V30 2833 O 267.026 0.63247 -5.42828 0
M  V30 2834 H 264.12 0.130932 -0.816569 0
M  V30 2835 H 266.666 -0.4934 -1.62369 0
M  V30 2836 H 265.438 -0.815738 -3.82703 0
M  V30 2837 H 265.061 0.898659 -3.87311 0
M  V30 2838 N 266.058 1.56714 -0.166846 0
M  V30 2839 C 267.306 1.96358 0.478305 0
M  V30 2840 C 267.627 1.0537 1.6408 0
M  V30 2841 O 266.897 0.119154 1.95537 0
M  V30 2842 H 265.477 0.725065 0.179692 0
M  V30 2843 H 268.139 1.93329 -0.246985 0
M  V30 2844 H 267.235 3.00547 0.841292 0
M  V30 2845 N 267.536 -0.106894 1.57237 0
M  V30 2846 C 268.766 -0.825191 1.89405 0
M  V30 2847 C 269.174 -1.73374 0.757496 0
M  V30 2848 O 268.517 -1.81552 -0.280115 0
M  V30 2849 C 268.579 -1.70102 3.1671 0
M  V30 2850 C 268.243 -0.965523 4.46684 0
M  V30 2851 C 269.24 -0.300741 5.19029 0
M  V30 2852 C 266.925 -0.943105 4.93367 0
M  V30 2853 C 268.919 0.376622 6.36286 0
M  V30 2854 C 266.606 -0.261949 6.10538 0
M  V30 2855 C 267.604 0.396748 6.81847 0
M  V30 2856 O 267.292 1.06701 7.96787 0
M  V30 2857 H 267.024 -0.241852 0.631255 0
M  V30 2858 H 269.578 -0.0921491 2.05193 0
M  V30 2859 H 267.808 -2.47601 2.97036 0
M  V30 2860 H 269.497 -2.29483 3.34802 0
M  V30 2861 H 270.263 -0.309599 4.84011 0
M  V30 2862 H 266.142 -1.44524 4.3776 0
M  V30 2863 H 269.686 0.891334 6.91882 0
M  V30 2864 H 265.583 -0.250896 6.45012 0
M  V30 2865 H 266.351 0.972707 8.127 0
M  V30 2866 N 269.014 -1.53014 -0.377408 0
M  V30 2867 C 270.425 -1.60438 -0.954798 0
M  V30 2868 C 270.776 -0.464418 -1.90624 0
M  V30 2869 O 269.901 0.41087 -2.12464 0
M  V30 2870 C 270.496 -2.90797 -1.73847 0
M  V30 2871 C 269.055 -3.00595 -2.26538 0
M  V30 2872 C 268.202 -2.55645 -1.07429 0
M  V30 2873 H 271.153 -1.57926 -0.156575 0
M  V30 2874 H 271.174 -2.77935 -2.5987 0
M  V30 2875 H 270.686 -3.73746 -1.04574 0
M  V30 2876 H 268.787 -2.22208 -2.99089 0
M  V30 2877 H 268.9 -4.05456 -2.5523 0
M  V30 2878 H 267.264 -2.10239 -1.43777 0
M  V30 2879 H 268.047 -3.41 -0.396728 0
M  V30 2880 N 270.492 0.636531 -1.44174 0
M  V30 2881 C 271.739 1.39619 -1.46672 0
M  V30 2882 C 272.067 1.94257 -0.0972691 0
M  V30 2883 O 271.322 1.73768 0.900175 0
M  V30 2884 C 271.621 2.58309 -2.47005 0
M  V30 2885 C 271.287 2.21992 -3.92467 0
M  V30 2886 C 269.949 2.118 -4.32081 0
M  V30 2887 C 272.301 1.9321 -4.84065 0
M  V30 2888 C 269.629 1.71007 -5.61225 0
M  V30 2889 C 271.981 1.53911 -6.13591 0
M  V30 2890 C 270.645 1.42257 -6.52165 0
M  V30 2891 H 269.915 0.510902 -0.536712 0
M  V30 2892 H 272.562 0.722328 -1.77355 0
M  V30 2893 H 270.867 3.30903 -2.09786 0
M  V30 2894 H 272.564 3.16533 -2.46186 0
M  V30 2895 H 269.154 2.30841 -3.61124 0
M  V30 2896 H 273.338 1.99997 -4.54219 0
M  V30 2897 H 268.594 1.60583 -5.89935 0
M  V30 2898 H 272.768 1.30677 -6.8403 0
M  V30 2899 H 270.395 1.10419 -7.52138 0
M  V30 2900 N 271.97 1.30982 0.876444 0
M  V30 2901 C 273.247 1.10942 1.61094 0
M  V30 2902 C 273.627 -0.338223 2.08373 0
M  V30 2903 O 272.975 -1.33122 1.85717 0
M  V30 2904 C 273.185 2.11789 2.77392 0
M  V30 2905 C 274.533 2.43965 3.47514 0
M  V30 2906 O 275.557 2.10166 2.87591 0
M  V30 2907 O 274.416 3.01817 4.55597 0
M  V30 2908 H 271.51 0.42667 0.708436 0
M  V30 2909 H 274.056 1.42438 0.922474 0
M  V30 2910 H 272.828 3.09194 2.39823 0
M  V30 2911 H 272.451 1.81161 3.5393 0
M  V30 2912 N 273.449 -1.08991 1.13837 0
M  V30 2913 C 274.697 -1.80899 0.901098 0
M  V30 2914 C 275.018 -1.86356 -0.574134 0
M  V30 2915 O 274.288 -1.35235 -1.41733 0
M  V30 2916 H 272.868 -0.669966 0.330386 0
M  V30 2917 H 275.53 -1.318 1.43578 0
M  V30 2918 H 274.626 -2.83929 1.29578 0
M  V30 2919 N 274.927 -0.932562 -1.27047 0
M  V30 2920 C 275.874 -0.434072 -2.26681 0
M  V30 2921 C 276.844 0.501639 -1.58344 0
M  V30 2922 O 278.029 0.419734 -1.86126 0
M  V30 2923 C 275.169 0.30261 -3.43771 0
M  V30 2924 C 274.282 -0.667774 -4.26808 0
M  V30 2925 C 273.417 0.0892393 -5.31125 0
M  V30 2926 C 272.456 -0.873532 -6.05835 0
M  V30 2927 N 271.593 -0.148832 -7.01942 0
M  V30 2928 H 276.433 -1.28868 -2.68695 0
M  V30 2929 H 273.97 -0.646713 -1.32121 0
M  V30 2930 H 275.928 0.746092 -4.10474 0
M  V30 2931 H 274.558 1.12142 -3.02695 0
M  V30 2932 H 273.61 -1.22978 -3.59973 0
M  V30 2933 H 274.922 -1.40337 -4.78651 0
M  V30 2934 H 274.076 0.592409 -6.03801 0
M  V30 2935 H 272.815 0.85777 -4.80097 0
M  V30 2936 H 271.82 -1.38791 -5.31994 0
M  V30 2937 H 273.045 -1.64193 -6.58952 0
M  V30 2938 H 270.991 0.601365 -6.53238 0
M  V30 2939 H 270.908 -0.82391 -7.51497 0
M  V30 2940 H 272.176 0.333527 -7.78786 0
M  V30 2941 N 276.405 1.4127 -0.698611 0
M  V30 2942 C 277.682 1.94955 -0.158762 0
M  V30 2943 C 278.062 1.63781 1.33188 0
M  V30 2944 O 277.41 0.946423 2.07979 0
M  V30 2945 C 277.62 3.46044 -0.453309 0
M  V30 2946 C 278.968 4.22872 -0.382707 0
M  V30 2947 O 279.992 3.54076 -0.388396 0
M  V30 2948 O 278.851 5.45407 -0.345463 0
M  V30 2949 H 275.945 0.82683 -0.0167505 0
M  V30 2950 H 278.491 1.50971 -0.77498 0
M  V30 2951 H 277.263 3.62028 -1.48498 0
M  V30 2952 H 276.886 3.97128 0.19373 0
M  V30 2953 N 277.883 0.443576 1.51229 0
M  V30 2954 C 279.131 -0.120557 2.0174 0
M  V30 2955 C 279.452 -1.42665 1.32935 0
M  V30 2956 O 278.722 -1.9028 0.465866 0
M  V30 2957 H 277.302 -0.0475426 0.745486 0
M  V30 2958 H 279.964 0.587711 1.85828 0
M  V30 2959 H 279.06 -0.291972 3.10731 0
M  V30 2960 N 279.361 -1.56624 0.175154 0
M  V30 2961 C 280.291 -2.21155 -0.749195 0
M  V30 2962 C 281.272 -1.16836 -1.23626 0
M  V30 2963 O 282.457 -1.45277 -1.28873 0
M  V30 2964 C 279.587 -2.8553 -1.97711 0
M  V30 2965 C 278.541 -3.95921 -1.62575 0
M  V30 2966 C 277.867 -4.47365 -2.92864 0
M  V30 2967 C 279.167 -5.15323 -0.850838 0
M  V30 2968 H 280.861 -2.98653 -0.211295 0
M  V30 2969 H 278.407 -1.43651 -0.100188 0
M  V30 2970 H 280.36 -3.2935 -2.62881 0
M  V30 2971 H 279.084 -2.05406 -2.53921 0
M  V30 2972 H 277.743 -3.52762 -0.997719 0
M  V30 2973 H 277.391 -3.64027 -3.47122 0
M  V30 2974 H 277.091 -5.21839 -2.70106 0
M  V30 2975 H 278.615 -4.93873 -3.59056 0
M  V30 2976 H 280.029 -5.55812 -1.40521 0
M  V30 2977 H 278.426 -5.95739 -0.722154 0
M  V30 2978 H 279.496 -4.84661 0.152082 0
M  V30 2979 N 280.839 0.0985539 -1.57292 0
M  V30 2980 C 281.769 1.12064 -2.04851 0
M  V30 2981 C 282.75 1.41981 -0.936767 0
M  V30 2982 O 283.935 1.52071 -1.20781 0
M  V30 2983 C 281.065 2.44144 -2.47004 0
M  V30 2984 C 280.019 2.28643 -3.6181 0
M  V30 2985 C 279.345 3.65869 -3.89929 0
M  V30 2986 C 280.645 1.72986 -4.92822 0
M  V30 2987 H 282.339 0.724979 -2.9049 0
M  V30 2988 H 279.885 0.34729 -1.39749 0
M  V30 2989 H 281.838 3.15914 -2.78884 0
M  V30 2990 H 280.562 2.85639 -1.5836 0
M  V30 2991 H 279.221 1.59318 -3.30172 0
M  V30 2992 H 278.869 4.04885 -2.98458 0
M  V30 2993 H 278.569 3.56344 -4.67218 0
M  V30 2994 H 280.093 4.39112 -4.2428 0
M  V30 2995 H 281.507 2.34593 -5.23105 0
M  V30 2996 H 279.904 1.74229 -5.74251 0
M  V30 2997 H 280.974 0.689007 -4.7998 0
M  V30 2998 N 282.317 1.53212 0.369288 0
M  V30 2999 C 283.28 1.7872 1.43498 0
M  V30 3000 C 284.28 0.657554 1.46741 0
M  V30 3001 O 285.47 0.925736 1.47566 0
M  V30 3002 C 282.602 1.90591 2.82645 0
M  V30 3003 H 283.795 2.73894 1.22156 0
M  V30 3004 H 281.348 1.44233 0.602203 0
M  V30 3005 H 282.083 0.974709 3.09306 0
M  V30 3006 H 281.868 2.72751 2.8169 0
M  V30 3007 H 283.358 2.11931 3.59826 0
M  V30 3008 N 283.795 -0.628877 1.44509 0
M  V30 3009 C 284.745 -1.7345 1.47983 0
M  V30 3010 C 285.729 -1.5715 0.345373 0
M  V30 3011 O 286.921 -1.66848 0.590829 0
M  V30 3012 C 284.05 -3.12143 1.42904 0
M  V30 3013 C 283.136 -3.33906 2.61472 0
M  V30 3014 N 283.527 -3.26024 3.86706 0
M  V30 3015 C 281.825 -3.64709 2.56716 0
M  V30 3016 C 282.526 -3.48536 4.65722 0
M  V30 3017 N 281.502 -3.71517 3.96832 0
M  V30 3018 H 285.304 -1.65818 2.42655 0
M  V30 3019 H 282.818 -0.831419 1.39503 0
M  V30 3020 H 284.815 -3.91433 1.43476 0
M  V30 3021 H 283.475 -3.2094 0.492717 0
M  V30 3022 H 284.486 -3.04893 4.18641 0
M  V30 3023 H 281.163 -3.80473 1.71891 0
M  V30 3024 H 282.553 -3.48016 5.74747 0
M  V30 3025 N 285.273 -1.31445 -0.869486 0
M  V30 3026 C 286.236 -1.19094 -1.9583 0
M  V30 3027 C 287.236 -0.117906 -1.60367 0
M  V30 3028 O 288.426 -0.367208 -1.70286 0
M  V30 3029 C 285.558 -0.828165 -3.30688 0
M  V30 3030 H 286.751 -2.15842 -2.08212 0
M  V30 3031 H 284.304 -1.15063 -1.05784 0
M  V30 3032 H 285.039 0.138142 -3.24006 0
M  V30 3033 H 284.824 -1.6038 -3.578 0
M  V30 3034 H 286.314 -0.765658 -4.10521 0
M  V30 3035 N 286.751 1.08385 -1.14413 0
M  V30 3036 C 287.998 1.80776 -0.912482 0
M  V30 3037 C 288.326 1.86236 0.560934 0
M  V30 3038 O 287.581 1.33431 1.43159 0
M  V30 3039 C 287.88 3.26273 -1.45879 0
M  V30 3040 C 287.546 3.4093 -2.95089 0
M  V30 3041 C 286.208 3.44638 -3.35824 0
M  V30 3042 C 288.56 3.44591 -3.91033 0
M  V30 3043 C 285.888 3.49597 -4.71167 0
M  V30 3044 C 288.24 3.51086 -5.26233 0
M  V30 3045 C 286.904 3.53067 -5.6648 0
M  V30 3046 H 286.174 0.661507 -0.333901 0
M  V30 3047 H 288.821 1.27613 -1.42784 0
M  V30 3048 H 287.126 3.82146 -0.864376 0
M  V30 3049 H 288.823 3.80839 -1.2555 0
M  V30 3050 H 285.413 3.38736 -2.62594 0
M  V30 3051 H 289.597 3.40957 -3.60641 0
M  V30 3052 H 284.853 3.49424 -5.0171 0
M  V30 3053 H 289.027 3.52864 -6.00383 0
M  V30 3054 H 286.654 3.56662 -6.71339 0
M  V30 3055 N 288.23 0.939286 1.26551 0
M  V30 3056 C 289.193 0.451987 2.24699 0
M  V30 3057 C 290.193 -0.435869 1.5478 0
M  V30 3058 O 291.383 -0.235314 1.72603 0
M  V30 3059 C 288.515 -0.348801 3.39111 0
M  V30 3060 H 289.708 1.3193 2.69322 0
M  V30 3061 H 287.261 0.721072 1.38673 0
M  V30 3062 H 287.996 -1.23444 2.99887 0
M  V30 3063 H 287.781 0.287945 3.91041 0
M  V30 3064 H 289.271 -0.679726 4.12031 0
M  V30 3065 N 289.708 -1.40897 0.706093 0
M  V30 3066 C 291.119 -1.84023 0.315052 0
M  V30 3067 C 291.47 -1.5906 -1.14866 0
M  V30 3068 O 290.595 -1.06651 -1.88293 0
M  V30 3069 C 291.19 -3.34055 0.565038 0
M  V30 3070 C 289.749 -3.7571 0.227806 0
M  V30 3071 C 288.896 -2.64204 0.842122 0
M  V30 3072 H 291.847 -1.303 0.905963 0
M  V30 3073 H 291.868 -3.80107 -0.172843 0
M  V30 3074 H 291.38 -3.52192 1.63042 0
M  V30 3075 H 289.481 -3.63172 -0.832895 0
M  V30 3076 H 289.594 -4.74103 0.690174 0
M  V30 3077 H 287.958 -2.53255 0.270893 0
M  V30 3078 H 288.741 -2.85155 1.91158 0
M  V30 3079 N 291.186 -0.45159 -1.50991 0
M  V30 3080 C 292.434 0.109857 -2.01801 0
M  V30 3081 C 292.755 1.41958 -1.3369 0
M  V30 3082 O 292.025 1.9003 -0.475951 0
M  V30 3083 H 290.605 0.0435884 -0.745727 0
M  V30 3084 H 293.267 -0.597557 -1.85514 0
M  V30 3085 H 292.363 0.275489 -3.10882 0
M  V30 3086 N 292.664 1.56529 -0.183458 0
M  V30 3087 C 293.892 2.01623 0.464285 0
M  V30 3088 C 294.307 1.06366 1.55986 0
M  V30 3089 O 293.664 0.0665398 1.82379 0
M  V30 3090 C 293.715 3.46475 1.03139 0
M  V30 3091 O 293.436 4.38095 -0.0204675 0
M  V30 3092 C 294.937 4.0703 1.75617 0
M  V30 3093 H 292.157 0.660596 0.117704 0
M  V30 3094 H 294.701 2.02451 -0.288751 0
M  V30 3095 H 292.856 3.46383 1.73486 0
M  V30 3096 H 293.27 5.22973 0.399952 0
M  V30 3097 H 294.744 5.10271 2.10542 0
M  V30 3098 H 295.221 3.49819 2.65563 0
M  V30 3099 H 295.827 4.1086 1.09882 0
M  V30 3100 N 294.142 -0.090211 1.57342 0
M  V30 3101 C 295.39 -0.791241 1.85967 0
M  V30 3102 C 295.711 -1.7903 0.772859 0
M  V30 3103 O 294.981 -1.94872 -0.200398 0
M  V30 3104 H 293.561 -0.295205 0.686195 0
M  V30 3105 H 296.223 -0.0706782 1.94772 0
M  V30 3106 H 295.319 -1.31882 2.82867 0
M  V30 3107 N 295.62 -1.53406 -0.361157 0
M  V30 3108 C 296.866 -1.70054 -1.10496 0
M  V30 3109 C 297.199 -0.453278 -1.88836 0
M  V30 3110 O 296.474 0.5495 -1.86576 0
M  V30 3111 C 296.757 -2.95317 -2.06058 0
M  V30 3112 C 296.61 -4.3021 -1.31298 0
M  V30 3113 C 297.929 -3.16193 -3.06121 0
M  V30 3114 H 295.048 -0.618799 -0.400321 0
M  V30 3115 H 297.69 -1.86052 -0.385318 0
M  V30 3116 H 295.84 -2.81809 -2.67425 0
M  V30 3117 H 297.512 -4.55538 -0.726807 0
M  V30 3118 H 295.755 -4.29421 -0.614853 0
M  V30 3119 H 296.426 -5.14 -2.01265 0
M  V30 3120 H 298.902 -3.28916 -2.5486 0
M  V30 3121 H 297.778 -4.05266 -3.70204 0
M  V30 3122 H 298.039 -2.31676 -3.76535 0
M  V30 3123 N 297.098 0.621204 -1.44841 0
M  V30 3124 C 298.346 1.37783 -1.47852 0
M  V30 3125 C 298.667 1.94653 -0.116224 0
M  V30 3126 O 297.937 1.76367 0.852737 0
M  V30 3127 H 296.517 0.511453 -0.544449 0
M  V30 3128 H 299.179 0.730446 -1.80694 0
M  V30 3129 H 298.275 2.20414 -2.20961 0
M  V30 3130 N 298.576 1.31904 0.862503 0
M  V30 3131 C 299.824 1.21776 1.61292 0
M  V30 3132 C 300.145 -0.222413 1.93727 0
M  V30 3133 O 299.415 -1.1451 1.58947 0
M  V30 3134 H 297.995 0.447717 0.597962 0
M  V30 3135 H 300.657 1.65326 1.03215 0
M  V30 3136 H 299.753 1.7948 2.5533 0
M  V30 3137 N 300.054 -1.07777 1.14986 0
M  V30 3138 C 301.331 -1.7699 0.832695 0
M  V30 3139 C 301.711 -2.001 -0.672561 0
M  V30 3140 O 301.059 -1.61598 -1.6155 0
M  V30 3141 C 301.269 -3.08139 1.63863 0
M  V30 3142 C 302.617 -3.8256 1.84208 0
M  V30 3143 O 303.641 -3.17939 1.60603 0
M  V30 3144 O 302.5 -4.98612 2.23714 0
M  V30 3145 H 299.594 -0.768389 0.305791 0
M  V30 3146 H 302.14 -1.14182 1.25541 0
M  V30 3147 H 300.912 -2.86909 2.6608 0
M  V30 3148 H 300.535 -3.78678 1.21197 0
M  V30 3149 N 301.532 -0.945985 -1.26051 0
M  V30 3150 C 302.757 -0.612525 -1.98149 0
M  V30 3151 C 303.182 0.806623 -1.69927 0
M  V30 3152 O 302.54 1.54411 -0.950108 0
M  V30 3153 C 302.588 -0.866981 -3.50023 0
M  V30 3154 O 301.692 0.0585333 -4.12358 0
M  V30 3155 H 301.033 -0.23379 -0.621481 0
M  V30 3156 H 303.563 -1.27023 -1.60395 0
M  V30 3157 H 303.573 -0.789792 -4.00283 0
M  V30 3158 H 302.248 -1.90135 -3.69894 0
M  V30 3159 H 300.825 -0.0701241 -3.72834 0
M  V30 3160 N 303.011 1.40521 -0.713556 0
M  V30 3161 C 303.961 2.27971 -0.036165 0
M  V30 3162 C 304.945 1.43151 0.734623 0
M  V30 3163 O 306.137 1.66261 0.607158 0
M  V30 3164 C 303.266 3.31661 0.886331 0
M  V30 3165 C 302.352 4.23955 0.110836 0
M  V30 3166 N 302.743 4.97641 -0.904847 0
M  V30 3167 C 301.041 4.44674 0.343692 0
M  V30 3168 C 301.742 5.65322 -1.37064 0
M  V30 3169 N 300.718 5.39162 -0.693168 0
M  V30 3170 H 304.52 2.82384 -0.814645 0
M  V30 3171 H 302.034 1.52948 -0.545963 0
M  V30 3172 H 304.031 3.93154 1.38692 0
M  V30 3173 H 302.691 2.78808 1.66421 0
M  V30 3174 H 303.702 5.01689 -1.28563 0
M  V30 3175 H 300.379 4.02801 1.09805 0
M  V30 3176 H 301.769 6.34359 -2.21447 0
M  V30 3177 N 304.489 0.459591 1.5075 0
M  V30 3178 C 305.736 -0.0993495 2.02256 0
M  V30 3179 C 306.064 -1.40751 1.34237 0
M  V30 3180 O 305.319 -1.90379 0.453228 0
M  V30 3181 C 305.618 -0.342866 3.55752 0
M  V30 3182 C 305.284 0.88218 4.42186 0
M  V30 3183 C 303.946 1.21808 4.65528 0
M  V30 3184 C 306.298 1.69837 4.92752 0
M  V30 3185 C 303.626 2.37045 5.36681 0
M  V30 3186 C 305.978 2.84192 5.65171 0
M  V30 3187 C 304.642 3.1821 5.8677 0
M  V30 3188 H 303.912 -0.0363545 0.740108 0
M  V30 3189 H 306.559 0.611329 1.8148 0
M  V30 3190 H 304.864 -1.13567 3.7498 0
M  V30 3191 H 306.561 -0.789121 3.93159 0
M  V30 3192 H 303.151 0.610467 4.2423 0
M  V30 3193 H 307.335 1.45205 4.74583 0
M  V30 3194 H 302.591 2.63689 5.51614 0
M  V30 3195 H 306.765 3.4779 6.03337 0
M  V30 3196 H 304.392 4.07613 6.41682 0
M  V30 3197 N 305.967 -1.56429 0.191757 0
M  V30 3198 C 307.244 -1.89224 -0.495332 0
M  V30 3199 C 307.624 -1.10478 -1.79883 0
M  V30 3200 O 306.972 -0.204852 -2.2758 0
M  V30 3201 C 307.182 -3.41548 -0.717367 0
M  V30 3202 C 308.53 -4.11711 -1.03823 0
M  V30 3203 O 309.554 -3.4698 -0.805204 0
M  V30 3204 O 308.413 -5.2611 -1.47887 0
M  V30 3205 H 305.507 -0.785788 -0.25781 0
M  V30 3206 H 308.053 -1.68111 0.231721 0
M  V30 3207 H 306.825 -3.90772 0.203287 0
M  V30 3208 H 306.448 -3.68342 -1.497 0
M  V30 3209 N 307.445 0.0818655 -1.57387 0
M  V30 3210 C 308.722 0.815343 -1.77796 0
M  V30 3211 C 309.102 1.96289 -0.77679 0
M  V30 3212 O 308.45 2.27691 0.192106 0
M  V30 3213 C 308.66 1.29765 -3.23978 0
M  V30 3214 C 310.008 1.7351 -3.8753 0
M  V30 3215 O 311.032 1.39356 -3.27808 0
M  V30 3216 O 309.891 2.36708 -4.92576 0
M  V30 3217 H 306.985 0.389914 -0.729312 0
M  V30 3218 H 309.531 0.0627213 -1.69584 0
M  V30 3219 H 308.303 0.47608 -3.88393 0
M  V30 3220 H 307.926 2.11189 -3.36875 0
M  V30 3221 N 308.923 1.53595 0.353017 0
M  V30 3222 C 310.2 1.61002 1.11075 0
M  V30 3223 C 310.58 0.425356 2.0677 0
M  V30 3224 O 309.928 -0.583267 2.2093 0
M  V30 3225 C 310.138 2.96631 1.83877 0
M  V30 3226 C 311.486 3.51653 2.37961 0
M  V30 3227 O 312.51 2.98743 1.93987 0
M  V30 3228 O 311.369 4.44177 3.18386 0
M  V30 3229 H 308.463 0.650825 0.510251 0
M  V30 3230 H 311.009 1.6594 0.35527 0
M  V30 3231 H 309.781 3.74293 1.14108 0
M  V30 3232 H 309.404 2.95242 2.66304 0
M  V30 3233 N 310.401 -0.613514 1.45168 0
M  V30 3234 C 311.311 -1.75296 1.55912 0
M  V30 3235 C 312.327 -1.68244 0.443856 0
M  V30 3236 O 313.503 -1.88706 0.70371 0
M  V30 3237 C 310.568 -3.1174 1.5172 0
M  V30 3238 C 309.629 -3.30291 2.74238 0
M  V30 3239 C 308.862 -4.60226 2.70236 0
M  V30 3240 O 309.085 -5.42168 1.77229 0
M  V30 3241 O 308.019 -4.81361 3.61352 0
M  V30 3242 H 311.845 -1.69183 2.52212 0
M  V30 3243 H 309.43 -0.776886 1.27612 0
M  V30 3244 H 311.312 -3.93044 1.51968 0
M  V30 3245 H 309.987 -3.18357 0.585697 0
M  V30 3246 H 308.894 -2.48598 2.79553 0
M  V30 3247 H 310.227 -3.28547 3.66494 0
M  V30 3248 N 311.879 -1.3236 -0.855495 0
M  V30 3249 C 312.809 -1.23833 -1.97958 0
M  V30 3250 C 313.79 -0.122361 -1.69659 0
M  V30 3251 O 314.975 -0.30939 -1.9172 0
M  V30 3252 C 312.105 -0.959772 -3.33775 0
M  V30 3253 C 311.059 -2.03689 -3.76424 0
M  V30 3254 C 310.385 -1.61075 -5.09862 0
M  V30 3255 C 311.685 -3.4518 -3.9198 0
M  V30 3256 H 313.379 -2.1788 -2.0535 0
M  V30 3257 H 310.925 -1.04891 -0.986605 0
M  V30 3258 H 312.878 -0.886678 -4.11966 0
M  V30 3259 H 311.602 0.0163404 -3.26596 0
M  V30 3260 H 310.261 -2.10012 -3.00484 0
M  V30 3261 H 309.909 -0.622107 -4.99138 0
M  V30 3262 H 309.609 -2.33143 -5.39368 0
M  V30 3263 H 311.133 -1.55201 -5.90546 0
M  V30 3264 H 312.547 -3.4145 -4.60526 0
M  V30 3265 H 310.944 -4.1559 -4.32903 0
M  V30 3266 H 312.014 -3.84903 -2.94919 0
M  V30 3267 N 313.357 1.07166 -1.15556 0
M  V30 3268 C 314.603 1.80222 -0.942961 0
M  V30 3269 C 314.958 1.85121 0.524209 0
M  V30 3270 O 314.251 1.32531 1.38369 0
M  V30 3271 C 314.445 3.24707 -1.49332 0
M  V30 3272 C 314.274 3.33887 -3.01247 0
M  V30 3273 C 313.044 3.44337 -3.69811 0
M  V30 3274 C 315.242 3.24484 -3.99017 0
M  V30 3275 N 313.224 3.42439 -5.09518 0
M  V30 3276 C 314.595 3.29726 -5.25053 0
M  V30 3277 C 316.65 3.08307 -3.90962 0
M  V30 3278 C 315.353 3.20455 -6.43973 0
M  V30 3279 C 317.379 3.00371 -5.09442 0
M  V30 3280 C 316.741 3.06227 -6.34354 0
M  V30 3281 H 312.84 0.672709 -0.398731 0
M  V30 3282 H 315.424 1.27905 -1.46794 0
M  V30 3283 H 313.595 3.7544 -0.994946 0
M  V30 3284 H 315.327 3.85894 -1.21935 0
M  V30 3285 H 312.082 3.48762 -3.20409 0
M  V30 3286 H 312.506 3.45013 -5.8249 0
M  V30 3287 H 317.148 3.02633 -2.95251 0
M  V30 3288 H 314.866 3.24888 -7.39914 0
M  V30 3289 H 318.452 2.88955 -5.04971 0
M  V30 3290 H 317.332 3.00132 -7.24493 0
M  V30 3291 N 314.835 0.952656 1.25548 0
M  V30 3292 C 316.063 0.623496 1.97282 0
M  V30 3293 C 316.478 -0.803987 1.70826 0
M  V30 3294 O 315.835 -1.53755 0.983147 0
M  V30 3295 C 315.886 0.870209 3.5087 0
M  V30 3296 O 315.607 2.24156 3.76412 0
M  V30 3297 C 317.108 0.553164 4.39835 0
M  V30 3298 H 314.328 0.233931 0.628902 0
M  V30 3299 H 316.872 1.27649 1.59768 0
M  V30 3300 H 315.027 0.263652 3.86502 0
M  V30 3301 H 315.441 2.31021 4.70882 0
M  V30 3302 H 316.915 0.776342 5.46513 0
M  V30 3303 H 317.392 -0.512215 4.36203 0
M  V30 3304 H 317.998 1.13896 4.09766 0
M  V30 3305 N 316.313 -1.40141 0.720998 0
M  V30 3306 C 317.243 -2.33339 0.0867621 0
M  V30 3307 C 318.224 -1.53178 -0.739622 0
M  V30 3308 O 319.409 -1.81625 -0.687449 0
M  V30 3309 C 316.539 -3.37194 -0.831728 0
M  V30 3310 C 315.493 -4.27857 -0.110558 0
M  V30 3311 C 314.819 -5.22294 -1.14513 0
M  V30 3312 C 316.119 -5.11872 1.0385 0
M  V30 3313 H 317.813 -2.86626 0.865219 0
M  V30 3314 H 315.359 -1.37814 0.417516 0
M  V30 3315 H 317.312 -4.01335 -1.28485 0
M  V30 3316 H 316.036 -2.82314 -1.64214 0
M  V30 3317 H 314.695 -3.65176 0.322797 0
M  V30 3318 H 314.343 -4.63717 -1.94874 0
M  V30 3319 H 314.043 -5.83797 -0.667446 0
M  V30 3320 H 315.567 -5.89312 -1.59824 0
M  V30 3321 H 316.981 -5.69436 0.664482 0
M  V30 3322 H 315.378 -5.82445 1.4449 0
M  V30 3323 H 316.448 -4.4753 1.86668 0
M  V30 3324 N 317.792 -0.46758 -1.50504 0
M  V30 3325 C 319.04 0.0884469 -2.01906 0
M  V30 3326 C 319.361 1.40532 -1.35188 0
M  V30 3327 O 318.631 1.89515 -0.496079 0
M  V30 3328 H 317.211 0.0356765 -0.746148 0
M  V30 3329 H 319.873 -0.6172 -1.84869 0
M  V30 3330 H 318.969 0.2425 -3.11156 0
M  V30 3331 N 319.27 1.56325 -0.20005 0
M  V30 3332 C 320.18 2.22931 0.730668 0
M  V30 3333 C 321.196 1.22997 1.23076 0
M  V30 3334 O 322.372 1.55748 1.27689 0
M  V30 3335 C 319.437 2.87948 1.93098 0
M  V30 3336 C 318.498 4.03166 1.47497 0
M  V30 3337 C 317.731 4.65073 2.61807 0
M  V30 3338 O 317.954 4.25913 3.79413 0
M  V30 3339 O 316.888 5.54452 2.34237 0
M  V30 3340 H 320.714 3.03084 0.193391 0
M  V30 3341 H 318.299 1.49371 0.0294621 0
M  V30 3342 H 320.181 3.29063 2.6324 0
M  V30 3343 H 318.856 2.10771 2.45677 0
M  V30 3344 H 317.763 3.66664 0.742201 0
M  V30 3345 H 319.096 4.82022 0.995796 0
M  V30 3346 N 320.748 -0.0735177 1.57428 0
M  V30 3347 C 321.996 -0.771472 1.86796 0
M  V30 3348 C 322.317 -1.78201 0.791804 0
M  V30 3349 O 321.587 -1.95074 -0.179718 0
M  V30 3350 H 320.167 -0.28791 0.689287 0
M  V30 3351 H 322.829 -0.0500161 1.94836 0
M  V30 3352 H 321.925 -1.28874 2.8425 0
M  V30 3353 N 322.226 -1.5378 -0.344866 0
M  V30 3354 C 323.158 -1.77988 -1.44406 0
M  V30 3355 C 324.171 -0.661138 -1.48771 0
M  V30 3356 O 325.36 -0.937842 -1.51877 0
M  V30 3357 C 322.46 -1.86345 -2.8307 0
M  V30 3358 C 321.633 -3.16256 -3.0216 0
M  V30 3359 C 320.692 -3.15588 -4.21059 0
M  V30 3360 O 319.718 -3.89314 -4.15239 0
M  V30 3361 N 320.92 -2.37864 -5.29529 0
M  V30 3362 H 323.685 -2.72839 -1.24012 0
M  V30 3363 H 321.246 -1.52814 -0.534737 0
M  V30 3364 H 323.238 -1.83351 -3.60783 0
M  V30 3365 H 321.808 -0.986858 -2.96614 0
M  V30 3366 H 321.028 -3.32385 -2.11929 0
M  V30 3367 H 322.316 -4.0207 -3.11797 0
M  V30 3368 H 321.714 -1.77514 -5.37127 0
M  V30 3369 H 320.271 -2.40668 -6.05741 0
M  V30 3370 N 323.704 0.605807 -1.45491 0
M  V30 3371 C 324.95 1.36679 -1.49823 0
M  V30 3372 C 325.283 1.93693 -0.140175 0
M  V30 3373 O 324.558 1.75158 0.845581 0
M  V30 3374 C 324.841 2.51337 -2.57879 0
M  V30 3375 C 324.694 1.99508 -4.03134 0
M  V30 3376 C 326.013 3.53463 -2.62205 0
M  V30 3377 H 323.132 0.495617 -0.545466 0
M  V30 3378 H 325.774 0.682732 -1.7731 0
M  V30 3379 H 323.924 3.09691 -2.34571 0
M  V30 3380 H 325.596 1.45789 -4.37656 0
M  V30 3381 H 323.839 1.30496 -4.13707 0
M  V30 3382 H 324.51 2.82169 -4.74431 0
M  V30 3383 H 326.986 3.04953 -2.83095 0
M  V30 3384 H 325.862 4.31178 -3.39672 0
M  V30 3385 H 326.123 4.09197 -1.67363 0
M  V30 3386 N 325.182 1.32811 0.848464 0
M  V30 3387 C 326.428 1.23907 1.60546 0
M  V30 3388 C 326.761 -0.197161 1.93197 0
M  V30 3389 O 326.036 -1.13596 1.5788 0
M  V30 3390 C 326.319 2.10489 2.92175 0
M  V30 3391 C 326.172 3.62522 2.66266 0
M  V30 3392 C 327.491 1.97075 3.93509 0
M  V30 3393 H 324.61 0.451459 0.58254 0
M  V30 3394 H 327.252 1.62818 0.979296 0
M  V30 3395 H 325.402 1.77434 3.45614 0
M  V30 3396 H 327.074 4.05821 2.19334 0
M  V30 3397 H 325.317 3.84879 2.00126 0
M  V30 3398 H 325.988 4.18437 3.6002 0
M  V30 3399 H 328.464 2.26045 3.49346 0
M  V30 3400 H 327.34 2.59923 4.83457 0
M  V30 3401 H 327.601 0.940186 4.31987 0
M  V30 3402 N 326.66 -1.06551 1.16123 0
M  V30 3403 C 328.076 -1.3142 0.905585 0
M  V30 3404 C 328.276 -1.96571 -0.442964 0
M  V30 3405 O 327.332 -2.23068 -1.18308 0
M  V30 3406 C 328.645 -2.19741 2.05267 0
M  V30 3407 C 330.193 -2.33165 2.08813 0
M  V30 3408 C 330.668 -3.24838 3.22868 0
M  V30 3409 N 332.159 -3.32421 3.22568 0
M  V30 3410 C 332.894 -4.0344 4.0746 0
M  V30 3411 N 332.39 -4.77003 5.02434 0
M  V30 3412 N 334.183 -3.99464 3.95456 0
M  V30 3413 H 326.334 -0.626548 2.02949 0
M  V30 3414 H 328.597 -0.338777 0.8854 0
M  V30 3415 H 328.303 -1.79142 3.02657 0
M  V30 3416 H 328.177 -3.20313 1.99198 0
M  V30 3417 H 330.564 -2.73013 1.12018 0
M  V30 3418 H 330.645 -1.3227 2.18948 0
M  V30 3419 H 330.289 -2.85708 4.19921 0
M  V30 3420 H 330.219 -4.25707 3.0997 0
M  V30 3421 H 332.71 -2.79994 2.53795 0
M  V30 3422 H 333.023 -5.28712 5.63634 0
M  V30 3423 H 331.368 -4.75992 5.06415 0
M  V30 3424 H 334.559 -3.4111 3.20564 0
M  V30 3425 H 334.732 -4.54544 4.61837 0
M  V30 3426 N 328.138 -0.959301 -1.25041 0
M  V30 3427 C 329.384 -0.617525 -1.9317 0
M  V30 3428 C 329.717 0.843981 -1.74902 0
M  V30 3429 O 328.992 1.60615 -1.09696 0
M  V30 3430 C 329.275 -0.982736 -3.46431 0
M  V30 3431 C 329.128 -2.50032 -3.73904 0
M  V30 3432 C 330.447 -0.511176 -4.37121 0
M  V30 3433 H 327.566 -0.22582 -0.701552 0
M  V30 3434 H 330.208 -1.19679 -1.4757 0
M  V30 3435 H 328.358 -0.489806 -3.854 0
M  V30 3436 H 330.03 -3.06737 -3.44544 0
M  V30 3437 H 328.273 -2.93598 -3.19348 0
M  V30 3438 H 328.944 -2.70635 -4.81103 0
M  V30 3439 H 331.42 -0.934075 -4.0548 0
M  V30 3440 H 330.296 -0.795361 -5.43107 0
M  V30 3441 H 330.557 0.588834 -4.38161 0
M  V30 3442 N 329.616 1.39756 -0.72842 0
M  V30 3443 C 330.563 2.30647 -0.0841519 0
M  V30 3444 C 331.533 1.48869 0.7367 0
M  V30 3445 O 332.718 1.77574 0.698015 0
M  V30 3446 C 329.858 3.35165 0.822091 0
M  V30 3447 C 328.971 4.31999 -0.0106663 0
M  V30 3448 C 328.106 5.23585 0.896241 0
M  V30 3449 C 327.145 6.12072 0.0583381 0
M  V30 3450 N 326.282 6.96035 0.920818 0
M  V30 3451 H 331.122 2.85173 -0.864891 0
M  V30 3452 H 328.659 1.40422 -0.438179 0
M  V30 3453 H 330.617 3.94345 1.36189 0
M  V30 3454 H 329.247 2.8211 1.56888 0
M  V30 3455 H 328.299 3.74492 -0.66781 0
M  V30 3456 H 329.611 4.9443 -0.658825 0
M  V30 3457 H 328.765 5.87759 1.50412 0
M  V30 3458 H 327.504 4.61459 1.57819 0
M  V30 3459 H 326.509 5.46916 -0.562389 0
M  V30 3460 H 327.734 6.76261 -0.6203 0
M  V30 3461 H 325.68 6.36485 1.58818 0
M  V30 3462 H 325.597 7.55284 0.32899 0
M  V30 3463 H 326.865 7.64646 1.51447 0
M  V30 3464 N 331.094 0.475555 1.50254 0
M  V30 3465 C 332.324 -0.0753399 2.06463 0
M  V30 3466 C 332.732 -1.33661 1.33908 0
M  V30 3467 O 332.075 -1.79219 0.403257 0
M  V30 3468 C 332.137 -0.424921 3.5698 0
M  V30 3469 C 331.801 0.734965 4.51051 0
M  V30 3470 C 332.798 1.61827 4.94073 0
M  V30 3471 C 330.483 0.926557 4.9368 0
M  V30 3472 C 332.477 2.67754 5.78434 0
M  V30 3473 C 330.164 1.98904 5.77824 0
M  V30 3474 C 331.162 2.8629 6.20103 0
M  V30 3475 O 330.85 3.90708 7.02568 0
M  V30 3476 H 330.582 0.00576308 0.675975 0
M  V30 3477 H 333.136 0.664662 1.94349 0
M  V30 3478 H 331.366 -1.21817 3.67012 0
M  V30 3479 H 333.055 -0.911422 3.95535 0
M  V30 3480 H 333.821 1.48196 4.61804 0
M  V30 3481 H 329.7 0.25584 4.6029 0
M  V30 3482 H 333.244 3.35992 6.11355 0
M  V30 3483 H 329.141 2.12541 6.09505 0
M  V30 3484 H 329.909 3.87751 7.20827 0
M  V30 3485 N 332.573 -1.56217 0.208337 0
M  V30 3486 C 333.821 -1.97558 -0.426076 0
M  V30 3487 C 334.142 -1.09683 -1.61229 0
M  V30 3488 O 333.412 -0.170956 -1.95153 0
M  V30 3489 H 331.992 -0.729575 -0.160405 0
M  V30 3490 H 334.654 -1.92606 0.298155 0
M  V30 3491 H 333.75 -3.02672 -0.761312 0
M  V30 3492 N 334.051 0.0651679 -1.57465 0
M  V30 3493 C 334.999 1.09542 -2.05191 0
M  V30 3494 C 335.993 1.39675 -0.958509 0
M  V30 3495 O 337.199 1.39003 -1.14359 0
M  V30 3496 H 333.574 0.370623 -0.654326 0
M  V30 3497 H 335.545 0.666802 -2.90854 0
M  V30 3498 C 334.294 2.39881 -2.51699 0
M  V30 3499 H 333.617 2.17547 -3.3543 0
M  V30 3500 H 335.057 3.104 -2.88839 0
M  V30 3501 C 333.516 3.0631 -1.40271 0
M  V30 3502 O 334.046 3.94664 -0.748523 0
M  V30 3503 N 332.252 2.67041 -1.14618 0
M  V30 3504 H 331.799 1.95281 -1.67997 0
M  V30 3505 H 331.757 3.1181 -0.402688 0
M  V30 3506 N 335.529 1.53961 0.336706 0
M  V30 3507 C 336.492 1.81724 1.39675 0
M  V30 3508 C 337.492 0.688532 1.45313 0
M  V30 3509 O 338.682 0.956829 1.45569 0
M  V30 3510 C 335.814 1.96543 2.78538 0
M  V30 3511 H 337.007 2.76424 1.16318 0
M  V30 3512 H 334.56 1.45478 0.571474 0
M  V30 3513 H 335.295 1.0401 3.07168 0
M  V30 3514 H 335.08 2.78665 2.75841 0
M  V30 3515 H 336.57 2.19516 3.5525 0
M  V30 3516 N 337.007 -0.598083 1.45811 0
M  V30 3517 C 338.284 -1.35777 1.40797 0
M  V30 3518 C 338.664 -2.10935 0.083462 0
M  V30 3519 O 338.012 -2.08505 -0.934763 0
M  V30 3520 C 338.222 -2.29666 2.62783 0
M  V30 3521 C 339.57 -2.91977 3.08277 0
M  V30 3522 O 340.594 -2.39984 2.63223 0
M  V30 3523 O 339.453 -3.86376 3.86491 0
M  V30 3524 H 336.547 -0.609291 0.55919 0
M  V30 3525 H 339.093 -0.620379 1.57954 0
M  V30 3526 H 337.865 -1.73454 3.50756 0
M  V30 3527 H 337.488 -3.1077 2.48008 0
M  V30 3528 N 338.485 -1.33259 -0.841409 0
M  V30 3529 C 339.733 -1.24326 -1.59334 0
M  V30 3530 C 340.054 0.191564 -1.94057 0
M  V30 3531 O 339.324 1.11967 -1.60749 0
M  V30 3532 H 337.904 -0.457174 -0.590763 0
M  V30 3533 H 340.566 -1.66947 -1.00571 0
M  V30 3534 H 339.662 -1.8352 -2.52442 0
M  V30 3535 N 339.963 1.05934 -1.16686 0
M  V30 3536 C 340.873 2.17014 -0.891183 0
M  V30 3537 C 341.889 1.73453 0.137907 0
M  V30 3538 O 343.065 2.01361 -0.039592 0
M  V30 3539 C 340.13 3.44384 -0.400099 0
M  V30 3540 C 339.191 4.02433 -1.49486 0
M  V30 3541 C 338.424 5.23723 -1.02711 0
M  V30 3542 O 338.647 5.7027 0.121716 0
M  V30 3543 O 337.581 5.7382 -1.81699 0
M  V30 3544 H 341.407 2.43113 -1.82015 0
M  V30 3545 H 338.992 1.15541 -0.947132 0
M  V30 3546 H 340.874 4.21189 -0.133392 0
M  V30 3547 H 339.549 3.19802 0.500817 0
M  V30 3548 H 338.456 3.27102 -1.81535 0
M  V30 3549 H 339.789 4.31317 -2.37121 0
M  V30 3550 N 341.441 0.965919 1.2453 0
M  V30 3551 C 342.671 0.643451 1.96324 0
M  V30 3552 C 343.079 -0.790927 1.71875 0
M  V30 3553 O 342.422 -1.54208 0.998273 0
M  V30 3554 C 342.484 0.836078 3.49643 0
M  V30 3555 C 342.148 2.24975 3.97788 0
M  V30 3556 C 343.145 3.22735 4.07601 0
M  V30 3557 C 340.83 2.57697 4.31158 0
M  V30 3558 C 342.824 4.51303 4.50116 0
M  V30 3559 C 340.511 3.86492 4.73357 0
M  V30 3560 C 341.509 4.83107 4.828 0
M  V30 3561 O 341.197 6.09605 5.24058 0
M  V30 3562 H 340.929 0.239223 0.632257 0
M  V30 3563 H 343.483 1.29587 1.59362 0
M  V30 3564 H 341.713 0.12649 3.86493 0
M  V30 3565 H 343.402 0.512965 4.02646 0
M  V30 3566 H 344.168 2.98783 3.82039 0
M  V30 3567 H 340.047 1.83216 4.23028 0
M  V30 3568 H 343.591 5.26716 4.57401 0
M  V30 3569 H 339.488 4.10245 4.98366 0
M  V30 3570 H 340.256 6.13146 5.42213 0
M  V30 3571 N 342.919 -1.39368 0.735821 0
M  V30 3572 C 344.159 -2.02349 0.288813 0
M  V30 3573 C 344.523 -1.57127 -1.10341 0
M  V30 3574 O 345.724 -2.12312 -1.64854 0
M  V30 3575 C 343.995 -3.55288 0.387986 0
M  V30 3576 S 345.554 -4.38795 0.0209408 0
M  V30 3577 H 342.372 -0.701944 0.113115 0
M  V30 3578 H 344.974 -1.70164 0.962518 0
M  V30 3579 H 343.678 -3.85691 1.40252 0
M  V30 3580 H 343.209 -3.92227 -0.303512 0
M  V30 3581 H 345.224 -4.81595 -1.19503 0
M  V30 3582 N 344.397 -0.483516 -1.5 0
M  V30 3583 C 345.344 0.304164 -2.28787 0
M  V30 3584 C 346.314 0.976114 -1.34392 0
M  V30 3585 O 347.499 0.986156 -1.63339 0
M  V30 3586 C 344.639 1.37298 -3.16612 0
M  V30 3587 C 343.752 0.714561 -4.26049 0
M  V30 3588 C 342.887 1.76232 -5.01114 0
M  V30 3589 C 341.926 1.08483 -6.0241 0
M  V30 3590 N 341.063 2.076 -6.70706 0
M  V30 3591 H 345.903 -0.373981 -2.95644 0
M  V30 3592 H 343.44 -0.196275 -1.45785 0
M  V30 3593 H 345.398 2.00445 -3.65893 0
M  V30 3594 H 344.028 2.02012 -2.51776 0
M  V30 3595 H 343.08 -0.0297798 -3.80388 0
M  V30 3596 H 344.392 0.180383 -4.98474 0
M  V30 3597 H 343.546 2.46929 -5.54176 0
M  V30 3598 H 342.285 2.33033 -4.28424 0
M  V30 3599 H 341.29 0.363545 -5.48597 0
M  V30 3600 H 342.515 0.523551 -6.77079 0
M  V30 3601 H 340.461 2.63394 -6.00799 0
M  V30 3602 H 340.378 1.59201 -7.39047 0
M  V30 3603 H 341.646 2.77639 -7.2838 0
M  V30 3604 N 345.875 1.56104 -0.216619 0
M  V30 3605 C 347.122 1.98172 0.416416 0
M  V30 3606 C 347.45 1.10413 1.60122 0
M  V30 3607 O 346.705 0.147967 1.9514 0
M  V30 3608 C 347.004 3.45923 0.898464 0
M  V30 3609 C 346.67 4.50559 -0.175288 0
M  V30 3610 C 345.332 4.78897 -0.470271 0
M  V30 3611 C 347.684 5.1334 -0.901728 0
M  V30 3612 C 345.012 5.67299 -1.4963 0
M  V30 3613 C 347.364 6.02853 -1.91705 0
M  V30 3614 C 346.028 6.29537 -2.21901 0
M  V30 3615 H 345.298 0.725164 0.152377 0
M  V30 3616 H 347.945 1.88839 -0.318103 0
M  V30 3617 H 346.25 3.52434 1.71165 0
M  V30 3618 H 347.947 3.75841 1.39803 0
M  V30 3619 H 344.537 4.28551 0.0647806 0
M  V30 3620 H 348.721 4.91521 -0.687072 0
M  V30 3621 H 343.977 5.86239 -1.73592 0
M  V30 3622 H 348.151 6.50552 -2.48505 0
M  V30 3623 H 345.778 6.97835 -3.01548 0
M  V30 3624 N 347.353 -0.0568162 1.57498 0
M  V30 3625 C 348.764 -0.606858 1.76562 0
M  V30 3626 C 349.115 -1.77114 0.844094 0
M  V30 3627 O 348.24 -2.16376 0.0318911 0
M  V30 3628 C 348.835 -1.10766 3.20182 0
M  V30 3629 C 347.394 -1.60344 3.40539 0
M  V30 3630 C 346.541 -0.529311 2.72201 0
M  V30 3631 H 349.492 0.169393 1.57793 0
M  V30 3632 H 349.513 -1.97602 3.25167 0
M  V30 3633 H 349.025 -0.26006 3.87228 0
M  V30 3634 H 347.126 -2.47379 2.78629 0
M  V30 3635 H 347.239 -1.67006 4.4905 0
M  V30 3636 H 345.603 -0.977893 2.35179 0
M  V30 3637 H 346.386 0.308352 3.41912 0
M  V30 3638 N 348.832 -1.54138 -0.328536 0
M  V30 3639 C 350.079 -1.72105 -1.06706 0
M  V30 3640 C 350.407 -0.492111 -1.88171 0
M  V30 3641 O 349.662 0.526153 -1.88494 0
M  V30 3642 C 349.961 -2.9457 -2.02393 0
M  V30 3643 C 349.627 -4.29544 -1.37122 0
M  V30 3644 C 348.289 -4.6624 -1.19052 0
M  V30 3645 C 350.641 -5.1333 -0.902331 0
M  V30 3646 C 347.969 -5.84325 -0.527331 0
M  V30 3647 C 350.321 -6.32094 -0.252988 0
M  V30 3648 C 348.985 -6.67473 -0.0600901 0
M  V30 3649 H 348.255 -0.629775 -0.390466 0
M  V30 3650 H 350.902 -1.88372 -0.34473 0
M  V30 3651 H 349.207 -2.72969 -2.81061 0
M  V30 3652 H 350.904 -3.05665 -2.59557 0
M  V30 3653 H 347.494 -4.0067 -1.52188 0
M  V30 3654 H 351.678 -4.855 -1.02974 0
M  V30 3655 H 346.934 -6.103 -0.366634 0
M  V30 3656 H 351.108 -6.96299 0.118366 0
M  V30 3657 H 348.735 -7.58832 0.455828 0
M  V30 3658 N 350.31 0.590341 -1.46126 0
M  V30 3659 C 351.24 1.71032 -1.58966 0
M  V30 3660 C 352.221 1.64302 -0.440335 0
M  V30 3661 O 353.406 1.82436 -0.665634 0
M  V30 3662 C 350.536 3.09665 -1.57241 0
M  V30 3663 C 349.49 3.31221 -2.71066 0
M  V30 3664 C 348.816 4.70303 -2.54399 0
M  V30 3665 C 350.116 3.19796 -4.1295 0
M  V30 3666 H 351.81 1.60543 -2.52718 0
M  V30 3667 H 349.356 0.770933 -1.21625 0
M  V30 3668 H 351.309 3.87831 -1.64819 0
M  V30 3669 H 350.033 3.21036 -0.600289 0
M  V30 3670 H 348.692 2.55452 -2.62944 0
M  V30 3671 H 348.34 4.78429 -1.55288 0
M  V30 3672 H 348.04 4.85679 -3.30741 0
M  V30 3673 H 349.564 5.50647 -2.63857 0
M  V30 3674 H 350.978 3.87815 -4.22223 0
M  V30 3675 H 349.375 3.46696 -4.89818 0
M  V30 3676 H 350.445 2.16983 -4.33643 0
M  V30 3677 N 351.788 1.33704 0.83433 0
M  V30 3678 C 353.035 1.25417 1.58987 0
M  V30 3679 C 353.363 -0.178869 1.93676 0
M  V30 3680 O 352.618 -1.13723 1.59265 0
M  V30 3681 C 352.917 2.07926 2.90692 0
M  V30 3682 C 352.583 3.57066 2.75345 0
M  V30 3683 C 351.245 3.97724 2.70867 0
M  V30 3684 C 353.597 4.51817 2.59828 0
M  V30 3685 C 350.925 5.31344 2.48778 0
M  V30 3686 C 353.277 5.85604 2.39272 0
M  V30 3687 C 351.941 6.25439 2.33199 0
M  V30 3688 H 351.211 0.458934 0.581774 0
M  V30 3689 H 353.858 1.65335 0.966261 0
M  V30 3690 H 352.163 1.608 3.57282 0
M  V30 3691 H 353.86 1.98868 3.48213 0
M  V30 3692 H 350.45 3.24785 2.79665 0
M  V30 3693 H 354.634 4.21311 2.62319 0
M  V30 3694 H 349.89 5.61241 2.42526 0
M  V30 3695 H 354.064 6.58623 2.2625 0
M  V30 3696 H 351.691 7.28914 2.15843 0
M  V30 3697 N 353.266 -1.05314 1.17247 0
M  V30 3698 C 354.214 -2.15137 0.884238 0
M  V30 3699 C 355.208 -1.68729 -0.15063 0
M  V30 3700 O 356.414 -1.8 -0.00366673 0
M  V30 3701 H 352.789 -0.702471 0.2684 0
M  V30 3702 H 354.76 -2.36652 1.81764 0
M  V30 3703 C 353.509 -3.45243 0.412659 0
M  V30 3704 H 352.832 -3.81352 1.20043 0
M  V30 3705 H 354.272 -4.23263 0.249858 0
M  V30 3706 C 352.731 -3.25487 -0.86948 0
M  V30 3707 O 353.261 -3.51938 -1.93655 0
M  V30 3708 N 351.467 -2.78875 -0.817147 0
M  V30 3709 H 351.014 -2.57549 0.0514211 0
M  V30 3710 H 350.972 -2.66036 -1.67547 0
M  V30 3711 N 354.744 -0.972509 -1.24016 0
M  V30 3712 C 355.992 -0.635776 -1.91839 0
M  V30 3713 C 356.313 0.832312 -1.76345 0
M  V30 3714 O 355.583 1.5946 -1.13795 0
M  V30 3715 H 354.163 -0.232157 -0.710009 0
M  V30 3716 H 356.825 -1.23462 -1.50809 0
M  V30 3717 H 355.921 -0.880545 -2.99421 0
M  V30 3718 N 356.222 1.38976 -0.743202 0
M  V30 3719 C 357.169 2.30544 -0.10861 0
M  V30 3720 C 358.139 1.49642 0.720869 0
M  V30 3721 O 359.324 1.78304 0.679142 0
M  V30 3722 C 356.464 3.36018 0.786496 0
M  V30 3723 C 355.577 4.31963 -0.0564849 0
M  V30 3724 C 354.712 5.24506 0.840657 0
M  V30 3725 C 353.751 6.121 -0.00658363 0
M  V30 3726 N 352.888 6.96973 0.846943 0
M  V30 3727 H 357.728 2.8424 -0.895088 0
M  V30 3728 H 355.265 1.3995 -0.453048 0
M  V30 3729 H 357.223 3.95768 1.31999 0
M  V30 3730 H 355.853 2.83758 1.53887 0
M  V30 3731 H 354.905 3.73763 -0.707492 0
M  V30 3732 H 356.217 4.93703 -0.711229 0
M  V30 3733 H 355.371 5.89322 1.4417 0
M  V30 3734 H 354.11 4.63107 1.52916 0
M  V30 3735 H 353.115 5.46289 -0.620366 0
M  V30 3736 H 354.34 6.75565 -0.691992 0
M  V30 3737 H 352.286 6.38133 1.52059 0
M  V30 3738 H 352.203 7.5559 0.248864 0
M  V30 3739 H 353.471 7.6621 1.43328 0
M  V30 3740 N 357.7 0.491464 1.49741 0
M  V30 3741 C 358.61 -0.296835 2.32715 0
M  V30 3742 C 359.626 -0.976536 1.44013 0
M  V30 3743 O 360.802 -0.960023 1.77047 0
M  V30 3744 C 357.867 -1.35288 3.19215 0
M  V30 3745 C 356.928 -0.687632 4.23757 0
M  V30 3746 C 356.161 -1.69336 5.06123 0
M  V30 3747 O 356.384 -2.92219 4.89861 0
M  V30 3748 O 355.318 -1.25394 5.88693 0
M  V30 3749 H 359.144 0.382048 3.01287 0
M  V30 3750 H 356.729 0.252953 1.47243 0
M  V30 3751 H 358.611 -1.96411 3.72828 0
M  V30 3752 H 357.286 -2.01487 2.53347 0
M  V30 3753 H 356.193 -0.0369159 3.74082 0
M  V30 3754 H 357.526 -0.0682566 4.92153 0
M  V30 3755 N 359.178 -1.55987 0.224894 0
M  V30 3756 C 360.408 -2.02489 -0.41007 0
M  V30 3757 C 360.816 -1.10391 -1.53657 0
M  V30 3758 O 360.159 -0.106458 -1.83391 0
M  V30 3759 C 360.221 -3.45319 -0.999757 0
M  V30 3760 C 359.885 -4.56999 -0.00827976 0
M  V30 3761 C 360.882 -5.13812 0.793314 0
M  V30 3762 C 358.567 -5.02176 0.111442 0
M  V30 3763 C 360.561 -6.14276 1.7013 0
M  V30 3764 C 358.248 -6.02477 1.02296 0
M  V30 3765 C 359.246 -6.58403 1.81643 0
M  V30 3766 O 358.934 -7.56751 2.71262 0
M  V30 3767 H 358.666 -0.667915 -0.104235 0
M  V30 3768 H 361.22 -2.0257 0.339782 0
M  V30 3769 H 359.45 -3.42318 -1.79876 0
M  V30 3770 H 361.139 -3.7545 -1.54248 0
M  V30 3771 H 361.905 -4.79756 0.711288 0
M  V30 3772 H 357.784 -4.58323 -0.49605 0
M  V30 3773 H 361.328 -6.57854 2.32107 0
M  V30 3774 H 357.225 -6.35954 1.10599 0
M  V30 3775 H 357.993 -7.74286 2.65375 0
M  V30 3776 N 360.656 0.0484629 -1.57525 0
M  V30 3777 C 361.604 1.07359 -2.06341 0
M  V30 3778 C 362.598 1.3865 -0.973269 0
M  V30 3779 O 363.804 1.37783 -1.15827 0
M  V30 3780 H 360.179 0.363662 -0.65822 0
M  V30 3781 H 362.15 0.635916 -2.91545 0
M  V30 3782 C 360.899 2.37198 -2.54229 0
M  V30 3783 H 360.222 2.13977 -3.37719 0
M  V30 3784 H 361.662 3.07319 -2.92115 0
M  V30 3785 C 360.121 3.04805 -1.43511 0
M  V30 3786 O 360.651 3.93848 -0.79034 0
M  V30 3787 N 358.857 2.65811 -1.17444 0
M  V30 3788 H 358.404 1.93488 -1.70059 0
M  V30 3789 H 358.362 3.11366 -0.435737 0
M  V30 3790 N 362.134 1.5431 0.320358 0
M  V30 3791 C 363.359 1.76954 1.08175 0
M  V30 3792 C 363.784 0.518193 1.80821 0
M  V30 3793 O 363.142 -0.530411 1.73368 0
M  V30 3794 C 363.19 2.96451 2.05303 0
M  V30 3795 O 362.294 2.68221 3.13259 0
M  V30 3796 H 361.635 0.586275 0.311733 0
M  V30 3797 H 364.165 2.01342 0.363676 0
M  V30 3798 H 364.175 3.23887 2.48116 0
M  V30 3799 H 362.85 3.87196 1.51829 0
M  V30 3800 H 361.427 2.51744 2.75099 0
M  V30 3801 N 363.613 -0.582584 1.46437 0
M  V30 3802 C 364.853 -1.35184 1.53312 0
M  V30 3803 C 365.217 -1.9115 0.180508 0
M  V30 3804 O 366.418 -2.68514 0.124017 0
M  V30 3805 C 364.689 -2.45089 2.60127 0
M  V30 3806 S 366.248 -3.32439 2.86408 0
M  V30 3807 H 363.066 -0.460559 0.54167 0
M  V30 3808 H 365.668 -0.669709 1.83671 0
M  V30 3809 H 364.372 -2.02366 3.57038 0
M  V30 3810 H 363.903 -3.18074 2.315 0
M  V30 3811 H 365.918 -4.43924 2.21688 0
M  V30 3812 N 365.091 -1.34144 -0.827227 0
M  V30 3813 C 366.319 -1.29325 -1.61501 0
M  V30 3814 C 366.734 0.13354 -1.88327 0
M  V30 3815 O 366.091 1.0793 -1.47164 0
M  V30 3816 C 366.142 -2.07746 -2.95844 0
M  V30 3817 O 365.863 -3.4486 -2.70191 0
M  V30 3818 C 367.364 -2.10273 -3.90256 0
M  V30 3819 H 364.584 -0.445069 -0.50215 0
M  V30 3820 H 367.128 -1.76693 -1.02955 0
M  V30 3821 H 365.283 -1.6403 -3.5096 0
M  V30 3822 H 365.697 -3.85345 -3.55822 0
M  V30 3823 H 367.171 -2.69575 -4.81698 0
M  V30 3824 H 367.648 -1.096 -4.25305 0
M  V30 3825 H 368.254 -2.54059 -3.41078 0
M  V30 3826 N 366.569 1.04691 -1.17803 0
M  V30 3827 C 367.846 1.7472 -0.879328 0
M  V30 3828 C 368.226 2.01812 0.619271 0
M  V30 3829 O 367.574 1.65824 1.57209 0
M  V30 3830 C 367.784 3.03686 -1.71976 0
M  V30 3831 C 369.132 3.77542 -1.94286 0
M  V30 3832 O 370.156 3.13569 -1.68976 0
M  V30 3833 O 369.015 4.92506 -2.36855 0
M  V30 3834 H 366.109 0.760011 -0.326056 0
M  V30 3835 H 368.655 1.10813 -1.28525 0
M  V30 3836 H 367.427 2.79754 -2.73594 0
M  V30 3837 H 367.05 3.75332 -1.31194 0
M  V30 3838 N 368.047 0.979072 1.23499 0
M  V30 3839 C 369.275 0.665202 1.95915 0
M  V30 3840 C 369.69 -0.767571 1.72493 0
M  V30 3841 O 369.047 -1.51635 1.01554 0
M  V30 3842 C 369.098 0.944438 3.48945 0
M  V30 3843 O 368.819 2.3209 3.71572 0
M  V30 3844 C 370.32 0.646336 4.38563 0
M  V30 3845 H 367.54 0.247218 0.623798 0
M  V30 3846 H 370.084 1.31009 1.57025 0
M  V30 3847 H 368.239 0.345575 3.85856 0
M  V30 3848 H 368.653 2.40957 4.65876 0
M  V30 3849 H 370.127 0.892091 5.44744 0
M  V30 3850 H 370.604 -0.419575 4.37191 0
M  V30 3851 H 371.21 1.22562 4.07258 0
M  V30 3852 N 369.525 -1.3858 0.750561 0
M  V30 3853 C 370.773 -1.99789 0.30477 0
M  V30 3854 C 371.094 -1.59874 -1.11649 0
M  V30 3855 O 370.364 -0.85417 -1.76297 0
M  V30 3856 H 368.944 -0.738902 0.109694 0
M  V30 3857 H 371.606 -1.69391 0.963983 0
M  V30 3858 H 370.702 -3.09952 0.365499 0
M  V30 3859 N 371.003 -0.499398 -1.49478 0
M  V30 3860 C 372.419 -0.155261 -1.58843 0
M  V30 3861 C 372.619 1.34008 -1.50479 0
M  V30 3862 O 371.675 2.11589 -1.37791 0
M  V30 3863 C 372.988 -0.730636 -2.91689 0
M  V30 3864 C 374.536 -0.696599 -3.0515 0
M  V30 3865 C 375.011 -1.25001 -4.40612 0
M  V30 3866 N 376.502 -1.21064 -4.47099 0
M  V30 3867 C 377.237 -1.60905 -5.50361 0
M  V30 3868 N 376.733 -2.08331 -6.60735 0
M  V30 3869 N 378.526 -1.52331 -5.41065 0
M  V30 3870 H 370.677 -1.47162 -1.53158 0
M  V30 3871 H 372.94 -0.610309 -0.725415 0
M  V30 3872 H 372.646 -1.77928 -3.03372 0
M  V30 3873 H 372.52 -0.190161 -3.7672 0
M  V30 3874 H 374.907 0.343204 -2.93097 0
M  V30 3875 H 374.988 -1.2742 -2.21806 0
M  V30 3876 H 374.632 -2.28859 -4.53416 0
M  V30 3877 H 374.562 -0.64836 -5.22593 0
M  V30 3878 H 377.053 -0.863128 -3.67911 0
M  V30 3879 H 377.366 -2.36805 -7.35624 0
M  V30 3880 H 375.711 -2.12304 -6.6178 0
M  V30 3881 H 378.902 -1.151 -4.53729 0
M  V30 3882 H 379.075 -1.83704 -6.21415 0
M  V30 3883 N 372.481 1.55866 -0.233164 0
M  V30 3884 C 373.706 2.03449 0.402906 0
M  V30 3885 C 374.131 1.11166 1.51736 0
M  V30 3886 O 373.489 0.101996 1.81013 0
M  V30 3887 C 373.537 3.49165 0.9009 0
M  V30 3888 O 372.641 3.60019 2.01147 0
M  V30 3889 H 371.982 0.657913 0.0897025 0
M  V30 3890 H 374.512 2.01493 -0.355201 0
M  V30 3891 H 374.522 3.89716 1.2077 0
M  V30 3892 H 373.197 4.15813 0.0852889 0
M  V30 3893 H 371.774 3.3136 1.71042 0
M  V30 3894 N 373.959 -0.0401083 1.57549 0
M  V30 3895 C 375.236 -0.767917 1.79896 0
M  V30 3896 C 375.616 -1.9416 0.82856 0
M  V30 3897 O 374.964 -2.2812 -0.131671 0
M  V30 3898 C 375.174 -1.2113 3.27305 0
M  V30 3899 C 376.522 -1.63175 3.91994 0
M  V30 3900 O 377.546 -1.30616 3.31388 0
M  V30 3901 O 376.405 -2.23565 4.98679 0
M  V30 3902 H 373.499 -0.370441 0.739393 0
M  V30 3903 H 376.045 -0.017737 1.69691 0
M  V30 3904 H 374.817 -0.372937 3.89519 0
M  V30 3905 H 374.44 -2.02183 3.42356 0
M  V30 3906 N 375.437 -1.54477 -0.31217 0
M  V30 3907 C 376.685 -1.72884 -1.04668 0
M  V30 3908 C 377.006 -0.511477 -1.88173 0
M  V30 3909 O 376.276 0.474407 -1.90069 0
M  V30 3910 H 374.856 -0.637461 -0.389425 0
M  V30 3911 H 377.518 -1.91807 -0.345852 0
M  V30 3912 H 376.614 -2.61334 -1.70619 0
M  V30 3913 N 376.915 0.57481 -1.46744 0
M  V30 3914 C 378.162 1.33272 -1.52462 0
M  V30 3915 C 378.49 1.93669 -0.179572 0
M  V30 3916 O 377.745 1.7743 0.825664 0
M  V30 3917 C 378.044 2.476 -2.57738 0
M  V30 3918 C 377.71 2.05146 -4.01529 0
M  V30 3919 C 376.372 1.93284 -4.40676 0
M  V30 3920 C 378.724 1.72506 -4.91824 0
M  V30 3921 C 376.052 1.47049 -5.67973 0
M  V30 3922 C 378.404 1.27748 -6.19567 0
M  V30 3923 C 377.068 1.14468 -6.57612 0
M  V30 3924 H 376.338 0.487678 -0.557899 0
M  V30 3925 H 378.985 0.646456 -1.80259 0
M  V30 3926 H 377.29 3.21708 -2.23632 0
M  V30 3927 H 378.987 3.05807 -2.5939 0
M  V30 3928 H 375.577 2.15316 -3.7059 0
M  V30 3929 H 379.761 1.80552 -4.62293 0
M  V30 3930 H 375.017 1.35417 -5.96215 0
M  V30 3931 H 379.191 1.01547 -6.88957 0
M  V30 3932 H 376.818 0.78419 -7.56145 0
M  V30 3933 N 378.394 1.34581 0.820102 0
M  V30 3934 C 379.324 1.29038 1.94606 0
M  V30 3935 C 380.305 0.1673 1.69275 0
M  V30 3936 O 381.49 0.360112 1.90832 0
M  V30 3937 C 378.62 1.04793 3.31113 0
M  V30 3938 C 377.574 2.13597 3.70891 0
M  V30 3939 C 376.9 1.74537 5.05412 0
M  V30 3940 C 378.2 3.55451 3.8269 0
M  V30 3941 H 379.894 2.23248 1.99501 0
M  V30 3942 H 377.44 1.0747 0.958449 0
M  V30 3943 H 379.393 0.995592 4.0947 0
M  V30 3944 H 378.117 0.0702565 3.26524 0
M  V30 3945 H 376.776 2.17905 2.9481 0
M  V30 3946 H 376.424 0.754226 4.97313 0
M  V30 3947 H 376.124 2.47361 5.32997 0
M  V30 3948 H 377.648 1.70803 5.86224 0
M  V30 3949 H 379.062 3.5354 4.51312 0
M  V30 3950 H 377.459 4.26922 4.21732 0
M  V30 3951 H 378.529 3.92587 2.84611 0
M  V30 3952 N 379.872 -1.04064 1.18357 0
M  V30 3953 C 381.118 -1.77658 0.990412 0
M  V30 3954 C 381.473 -1.86446 -0.474944 0
M  V30 3955 O 380.766 -1.36153 -1.34807 0
M  V30 3956 C 380.96 -3.20634 1.57888 0
M  V30 3957 C 380.789 -3.25782 3.09994 0
M  V30 3958 C 379.559 -3.34411 3.7881 0
M  V30 3959 C 381.757 -3.13791 4.0748 0
M  V30 3960 N 379.739 -3.28809 5.18418 0
M  V30 3961 C 381.11 -3.15689 5.33611 0
M  V30 3962 C 383.165 -2.97833 3.98998 0
M  V30 3963 C 381.868 -3.03268 6.52243 0
M  V30 3964 C 383.894 -2.86759 5.17227 0
M  V30 3965 C 383.256 -2.893 6.4225 0
M  V30 3966 H 379.355 -0.661901 0.416427 0
M  V30 3967 H 381.939 -1.23968 1.50133 0
M  V30 3968 H 380.11 -3.7267 1.09414 0
M  V30 3969 H 381.842 -3.82525 1.32124 0
M  V30 3970 H 378.597 -3.40144 3.29543 0
M  V30 3971 H 379.021 -3.29448 5.91433 0
M  V30 3972 H 383.663 -2.94698 3.03171 0
M  V30 3973 H 381.381 -3.05156 7.48268 0
M  V30 3974 H 384.967 -2.75465 5.12455 0
M  V30 3975 H 383.847 -2.80818 7.32196 0
M  V30 3976 N 381.35 -0.985608 -1.22978 0
M  V30 3977 C 382.59 -0.665487 -1.93263 0
M  V30 3978 C 382.954 0.78706 -1.75127 0
M  V30 3979 O 384.155 1.21826 -2.39608 0
M  V30 3980 C 382.426 -1.0515 -3.41582 0
M  V30 3981 S 383.985 -0.848637 -4.30516 0
M  V30 3982 H 380.803 -0.24355 -0.667985 0
M  V30 3983 H 383.405 -1.26635 -1.48942 0
M  V30 3984 H 382.109 -2.10517 -3.52293 0
M  V30 3985 H 381.64 -0.442134 -3.90908 0
M  V30 3986 H 383.655 0.264717 -4.95493 0
M  V30 3987 N 382.828 1.3818 -0.7579 0
M  V30 3988 C 384.053 2.04827 -0.325679 0
M  V30 3989 C 384.478 1.56788 1.03919 0
M  V30 3990 O 383.836 0.721811 1.66312 0
M  V30 3991 C 383.884 3.58774 -0.362447 0
M  V30 3992 O 382.988 4.07372 0.642033 0
M  V30 3993 H 382.329 0.64833 -0.143402 0
M  V30 3994 H 384.859 1.7677 -1.03023 0
M  V30 3995 H 384.869 4.07434 -0.214844 0
M  V30 3996 H 383.544 3.93096 -1.35824 0
M  V30 3997 H 382.121 3.70068 0.458688 0
M  V30 3998 N 384.306 0.507319 1.49211 0
M  V30 3999 C 385.534 -0.0315749 2.06876 0
M  V30 4000 C 385.949 -1.30241 1.36685 0
M  V30 4001 O 385.306 -1.76937 0.447152 0
M  V30 4002 C 385.357 -0.282627 3.60393 0
M  V30 4003 O 385.078 0.937835 4.27944 0
M  V30 4004 C 386.579 -0.864453 4.3479 0
M  V30 4005 H 383.799 0.0233048 0.670595 0
M  V30 4006 H 386.343 0.706484 1.91909 0
M  V30 4007 H 384.498 -0.97068 3.75042 0
M  V30 4008 H 384.912 0.704567 5.19746 0
M  V30 4009 H 386.386 -0.989664 5.43056 0
M  V30 4010 H 386.863 -1.86382 3.97692 0
M  V30 4011 H 387.469 -0.213672 4.24763 0
M  V30 4012 N 385.784 -1.5574 0.241426 0
M  V30 4013 C 387.012 -2.03208 -0.389134 0
M  V30 4014 C 387.427 -1.12082 -1.51931 0
M  V30 4015 O 386.784 -0.134183 -1.82006 0
M  V30 4016 C 386.835 -3.50064 -0.902087 0
M  V30 4017 O 386.556 -4.37717 0.18305 0
M  V30 4018 C 388.057 -4.13268 -1.60389 0
M  V30 4019 H 385.277 -0.664509 -0.0931053 0
M  V30 4020 H 387.821 -2.0124 0.36369 0
M  V30 4021 H 385.976 -3.52583 -1.60511 0
M  V30 4022 H 386.39 -5.24097 -0.205579 0
M  V30 4023 H 387.864 -5.17733 -1.91458 0
M  V30 4024 H 388.341 -3.59434 -2.52397 0
M  V30 4025 H 388.947 -4.14655 -0.945576 0
M  V30 4026 N 387.262 0.0317525 -1.57568 0
M  V30 4027 C 388.492 0.733884 -1.93126 0
M  V30 4028 C 388.9 1.69563 -0.839352 0
M  V30 4029 O 388.243 1.82681 0.193175 0
M  V30 4030 C 388.305 1.54798 -3.24465 0
M  V30 4031 C 387.969 0.751304 -4.50782 0
M  V30 4032 C 388.966 0.0527632 -5.19873 0
M  V30 4033 C 386.651 0.706639 -4.97305 0
M  V30 4034 C 388.645 -0.679774 -6.33765 0
M  V30 4035 C 386.332 -0.0296449 -6.11093 0
M  V30 4036 C 387.33 -0.721614 -6.79177 0
M  V30 4037 O 387.018 -1.44595 -7.90789 0
M  V30 4038 H 386.75 0.211459 -0.642076 0
M  V30 4039 H 389.304 -0.00585615 -2.05399 0
M  V30 4040 H 387.534 2.33147 -3.08512 0
M  V30 4041 H 389.223 2.13247 -3.4537 0
M  V30 4042 H 389.989 0.0783188 -4.84937 0
M  V30 4043 H 385.868 1.23474 -4.44157 0
M  V30 4044 H 389.412 -1.22042 -6.86842 0
M  V30 4045 H 385.309 -0.0571331 -6.45475 0
M  V30 4046 H 386.077 -1.35935 -8.07133 0
M  V30 4047 N 388.74 1.54641 0.303973 0
M  V30 4048 C 389.688 1.86137 1.39484 0
M  V30 4049 C 390.682 0.734854 1.52631 0
M  V30 4050 O 391.888 0.918803 1.54784 0
M  V30 4051 H 388.263 0.590324 0.465856 0
M  V30 4052 H 390.234 2.77324 1.10154 0
M  V30 4053 C 388.983 2.12274 2.75382 0
M  V30 4054 H 388.306 2.98429 2.66046 0
M  V30 4055 H 389.746 2.38254 3.5073 0
M  V30 4056 C 388.205 0.920365 3.24085 0
M  V30 4057 O 388.735 0.139377 4.01458 0
M  V30 4058 N 386.941 0.726566 2.81371 0
M  V30 4059 H 386.488 1.36332 2.18567 0
M  V30 4060 H 386.446 -0.0763799 3.14307 0
M  V30 4061 N 390.218 -0.567019 1.47046 0
M  V30 4062 C 391.465 -1.32462 1.53167 0
M  V30 4063 C 391.793 -1.93571 0.189841 0
M  V30 4064 O 391.048 -1.77865 -0.816243 0
M  V30 4065 C 391.347 -2.4623 2.59047 0
M  V30 4066 C 391.013 -2.03014 4.02612 0
M  V30 4067 C 389.675 -1.90944 4.41694 0
M  V30 4068 C 392.027 -1.69895 4.92732 0
M  V30 4069 C 389.355 -1.44035 5.68745 0
M  V30 4070 C 391.707 -1.2446 6.20236 0
M  V30 4071 C 390.371 -1.10979 6.5821 0
M  V30 4072 H 389.641 -0.484713 0.560477 0
M  V30 4073 H 392.288 -0.636888 1.80599 0
M  V30 4074 H 390.593 -3.20517 2.25335 0
M  V30 4075 H 392.29 -3.04427 2.61008 0
M  V30 4076 H 388.88 -2.13348 3.71726 0
M  V30 4077 H 393.064 -1.78098 4.63244 0
M  V30 4078 H 388.32 -1.32254 5.96925 0
M  V30 4079 H 392.494 -0.978924 6.89485 0
M  V30 4080 H 390.121 -0.744078 7.5655 0
M  V30 4081 N 391.696 -1.35014 -0.812953 0
M  V30 4082 C 392.606 -1.2951 -1.95613 0
M  V30 4083 C 393.622 -0.20107 -1.72834 0
M  V30 4084 O 394.798 -0.42932 -1.96771 0
M  V30 4085 C 391.863 -1.06033 -3.30088 0
M  V30 4086 C 390.924 -2.24688 -3.65805 0
M  V30 4087 C 390.157 -2.02322 -4.93864 0
M  V30 4088 O 390.38 -0.986464 -5.61805 0
M  V30 4089 O 389.314 -2.89525 -5.27692 0
M  V30 4090 H 393.14 -2.25705 -2.03202 0
M  V30 4091 H 390.725 -1.15321 -0.949811 0
M  V30 4092 H 392.607 -0.94763 -4.10607 0
M  V30 4093 H 391.282 -0.128852 -3.23443 0
M  V30 4094 H 390.189 -2.41521 -2.85689 0
M  V30 4095 H 391.522 -3.16261 -3.77147 0
M  V30 4096 N 393.175 1.03435 -1.18907 0
M  V30 4097 C 394.122 2.11591 -0.921837 0
M  V30 4098 C 395.092 1.65499 0.141226 0
M  V30 4099 O 396.277 1.908 0.000242829 0
M  V30 4100 C 393.417 3.42012 -0.460616 0
M  V30 4101 C 392.53 4.01682 -1.58982 0
M  V30 4102 C 391.665 5.20091 -1.08069 0
M  V30 4103 C 390.704 5.71805 -2.18416 0
M  V30 4104 N 389.841 6.81494 -1.68849 0
M  V30 4105 H 394.681 2.33787 -1.8479 0
M  V30 4106 H 392.218 1.1467 -0.921373 0
M  V30 4107 H 394.176 4.16834 -0.174642 0
M  V30 4108 H 392.806 3.19944 0.428467 0
M  V30 4109 H 391.858 3.24127 -1.99113 0
M  V30 4110 H 393.17 4.36084 -2.4214 0
M  V30 4111 H 392.324 6.02051 -0.749615 0
M  V30 4112 H 391.063 4.87209 -0.218771 0
M  V30 4113 H 390.068 4.88461 -2.5236 0
M  V30 4114 H 391.293 6.06728 -3.05054 0
M  V30 4115 H 389.239 6.50475 -0.849572 0
M  V30 4116 H 389.156 7.14994 -2.45601 0
M  V30 4117 H 390.424 7.67063 -1.38689 0
M  V30 4118 N 394.653 0.992116 1.22453 0
M  V30 4119 C 395.93 0.583508 1.86694 0
M  V30 4120 C 396.31 -0.9392 1.89056 0
M  V30 4121 O 395.658 -1.82081 1.38053 0
M  V30 4122 C 395.868 1.20304 3.2761 0
M  V30 4123 C 397.216 1.30308 4.0411 0
M  V30 4124 O 398.24 1.15737 3.36873 0
M  V30 4125 O 397.099 1.53615 5.24466 0
M  V30 4126 H 394.193 0.198129 0.802916 0
M  V30 4127 H 396.739 1.08794 1.30238 0
M  V30 4128 H 395.511 2.24461 3.2052 0
M  V30 4129 H 395.134 0.684144 3.9167 0
M  V30 4130 N 396.131 -1.37776 0.765217 0
M  V30 4131 C 397.379 -1.99454 0.325943 0
M  V30 4132 C 397.7 -1.61049 -1.09947 0
M  V30 4133 O 396.97 -0.872821 -1.75381 0
M  V30 4134 H 395.55 -0.737697 0.117525 0
M  V30 4135 H 398.212 -1.68359 0.981895 0
M  V30 4136 H 397.308 -3.09547 0.398353 0
M  V30 4137 N 397.609 -0.515225 -1.4894 0
M  V30 4138 C 398.556 0.255567 -2.29381 0
M  V30 4139 C 399.526 0.947387 -1.36432 0
M  V30 4140 O 400.711 0.951288 -1.65394 0
M  V30 4141 C 397.851 1.30551 -3.19453 0
M  V30 4142 C 396.964 0.624029 -4.27469 0
M  V30 4143 C 396.099 1.65563 -5.0474 0
M  V30 4144 C 395.138 0.956802 -6.04576 0
M  V30 4145 N 394.275 1.93326 -6.74959 0
M  V30 4146 H 399.115 -0.436607 -2.94784 0
M  V30 4147 H 396.652 -0.227154 -1.45336 0
M  V30 4148 H 398.61 1.92639 -3.70062 0
M  V30 4149 H 397.24 1.96626 -2.56004 0
M  V30 4150 H 396.292 -0.110459 -3.8024 0
M  V30 4151 H 397.604 0.0746092 -4.98744 0
M  V30 4152 H 396.758 2.35119 -5.59289 0
M  V30 4153 H 395.497 2.23893 -4.3327 0
M  V30 4154 H 394.502 0.247097 -5.49244 0
M  V30 4155 H 395.727 0.379814 -6.78037 0
M  V30 4156 H 393.673 2.50591 -6.06251 0
M  V30 4157 H 393.59 1.43489 -7.42258 0
M  V30 4158 H 394.858 2.62126 -7.34105 0
M  V30 4159 N 399.087 1.5561 -0.249682 0
M  V30 4160 C 400.317 2.03116 0.377803 0
M  V30 4161 C 400.725 1.12822 1.51881 0
M  V30 4162 O 400.068 0.13562 1.83199 0
M  V30 4163 C 400.13 3.46866 0.944693 0
M  V30 4164 C 399.794 4.56955 -0.0644259 0
M  V30 4165 C 400.791 5.12485 -0.874957 0
M  V30 4166 C 398.476 5.01936 -0.19132 0
M  V30 4167 C 400.47 6.11491 -1.79881 0
M  V30 4168 C 398.157 6.00773 -1.11868 0
M  V30 4169 C 399.155 6.5543 -1.92095 0
M  V30 4170 O 398.843 7.5234 -2.83267 0
M  V30 4171 H 398.575 0.669489 0.0935961 0
M  V30 4172 H 401.129 2.02004 -0.371966 0
M  V30 4173 H 399.359 3.45136 1.74407 0
M  V30 4174 H 401.048 3.77856 1.48255 0
M  V30 4175 H 401.814 4.78564 -0.787523 0
M  V30 4176 H 397.693 4.59055 0.423072 0
M  V30 4177 H 401.237 6.54078 -2.42543 0
M  V30 4178 H 397.134 6.34114 -1.20703 0
M  V30 4179 H 397.902 7.69966 -2.7766 0
M  V30 4180 N 400.565 -0.0233959 1.57583 0
M  V30 4181 C 401.813 -0.711654 1.89156 0
M  V30 4182 C 402.134 -1.75591 0.848096 0
M  V30 4183 O 401.404 -1.95547 -0.117566 0
M  V30 4184 H 399.984 -0.265835 0.698098 0
M  V30 4185 H 402.646 0.0119948 1.94896 0
M  V30 4186 H 401.742 -1.19766 2.88206 0
M  V30 4187 N 402.043 -1.548 -0.295768 0
M  V30 4188 C 403.29 -1.74329 -1.03032 0
M  V30 4189 C 403.618 -0.531915 -1.87085 0
M  V30 4190 O 402.873 0.486052 -1.89568 0
M  V30 4191 C 403.172 -2.98797 -1.961 0
M  V30 4192 C 402.838 -4.32356 -1.2798 0
M  V30 4193 C 401.5 -4.68661 -1.09135 0
M  V30 4194 C 403.852 -5.15128 -0.793243 0
M  V30 4195 C 401.18 -5.85312 -0.403269 0
M  V30 4196 C 403.532 -6.32488 -0.118854 0
M  V30 4197 C 402.196 -6.6745 0.0815043 0
M  V30 4198 H 401.466 -0.637916 -0.37702 0
M  V30 4199 H 404.113 -1.8906 -0.304696 0
M  V30 4200 H 402.418 -2.78869 -2.75207 0
M  V30 4201 H 404.115 -3.11102 -2.53015 0
M  V30 4202 H 400.705 -4.03808 -1.43655 0
M  V30 4203 H 404.889 -4.87575 -0.92653 0
M  V30 4204 H 400.145 -6.1094 -0.237098 0
M  V30 4205 H 404.319 -6.95892 0.266035 0
M  V30 4206 H 401.946 -7.57695 0.616685 0
M  V30 4207 N 403.521 0.559213 -1.47345 0
M  V30 4208 C 404.761 1.32728 -1.55444 0
M  V30 4209 C 405.125 1.90838 -0.210895 0
M  V30 4210 O 406.326 2.68282 -0.166719 0
M  V30 4211 C 404.597 2.4092 -2.63993 0
M  V30 4212 S 406.156 3.2784 -2.91661 0
M  V30 4213 H 402.974 0.451883 -0.548929 0
M  V30 4214 H 405.576 0.640404 -1.84714 0
M  V30 4215 H 404.28 1.9666 -3.60212 0
M  V30 4216 H 403.811 3.14351 -2.36531 0
M  V30 4217 H 405.826 4.40341 -2.28722 0
M  V30 4218 N 404.999 1.35443 0.805782 0
M  V30 4219 C 406.41 1.25768 1.37983 0
M  V30 4220 C 406.761 -0.10958 1.95894 0
M  V30 4221 O 405.886 -1.01056 1.91355 0
M  V30 4222 C 406.481 2.27727 2.5085 0
M  V30 4223 C 405.04 2.2179 3.04115 0
M  V30 4224 C 404.187 2.13393 1.77084 0
M  V30 4225 H 407.138 1.4656 0.608752 0
M  V30 4226 H 407.159 1.90422 3.29424 0
M  V30 4227 H 406.671 3.27227 2.08671 0
M  V30 4228 H 404.772 1.25703 3.50756 0
M  V30 4229 H 404.885 3.13788 3.62042 0
M  V30 4230 H 403.249 1.59384 1.98668 0
M  V30 4231 H 404.032 3.14755 1.37056 0
M  V30 4232 N 406.477 -1.02803 1.19454 0
M  V30 4233 C 407.427 -2.0945 0.900827 0
M  V30 4234 C 408.411 -1.60335 -0.134715 0
M  V30 4235 O 409.603 -1.76857 0.0710924 0
M  V30 4236 C 406.732 -3.4044 0.442229 0
M  V30 4237 C 405.818 -3.96286 1.51056 0
M  V30 4238 N 406.209 -4.25785 2.73021 0
M  V30 4239 C 404.507 -4.24307 1.37404 0
M  V30 4240 C 405.208 -4.70654 3.41848 0
M  V30 4241 N 404.184 -4.72238 2.69243 0
M  V30 4242 H 407.986 -2.3015 1.82779 0
M  V30 4243 H 405.5 -1.20672 1.08683 0
M  V30 4244 H 407.497 -4.16354 0.21326 0
M  V30 4245 H 406.157 -3.21159 -0.478238 0
M  V30 4246 H 407.168 -4.15041 3.09776 0
M  V30 4247 H 403.845 -4.14285 0.517103 0
M  V30 4248 H 405.235 -5.02392 4.46152 0
M  V30 4249 N 407.956 -0.998596 -1.21925 0
M  V30 4250 C 408.866 -0.562736 -2.27751 0
M  V30 4251 C 409.882 0.391203 -1.69545 0
M  V30 4252 O 411.058 0.256625 -1.99758 0
M  V30 4253 C 408.123 0.11012 -3.46525 0
M  V30 4254 C 407.184 -0.887495 -4.20026 0
M  V30 4255 C 406.417 -0.246654 -5.3313 0
M  V30 4256 O 406.64 0.958088 -5.62296 0
M  V30 4257 O 405.574 -0.954374 -5.94286 0
M  V30 4258 H 409.4 -1.44329 -2.67213 0
M  V30 4259 H 406.985 -0.767135 -1.28201 0
M  V30 4260 H 408.867 0.486756 -4.18579 0
M  V30 4261 H 407.542 0.965154 -3.08976 0
M  V30 4262 H 406.449 -1.31517 -3.5022 0
M  V30 4263 H 407.782 -1.71191 -4.6147 0
M  V30 4264 N 409.434 1.37368 -0.772513 0
M  V30 4265 C 410.397 2.28601 -0.165541 0
M  V30 4266 C 411.397 1.48062 0.627238 0
M  V30 4267 O 412.587 1.68268 0.450715 0
M  V30 4268 C 409.719 3.32023 0.772897 0
M  V30 4269 H 410.912 2.83787 -0.969787 0
M  V30 4270 H 408.465 1.46647 -0.540775 0
M  V30 4271 H 409.2 2.81962 1.60212 0
M  V30 4272 H 408.985 3.91555 0.206585 0
M  V30 4273 H 410.475 4.00197 1.19298 0
M  V30 4274 N 410.912 0.523116 1.48665 0
M  V30 4275 C 411.842 -0.23231 2.32342 0
M  V30 4276 C 412.823 -0.941637 1.41659 0
M  V30 4277 O 414.008 -0.928751 1.70552 0
M  V30 4278 C 411.138 -1.28387 3.22698 0
M  V30 4279 C 410.092 -0.693098 4.22351 0
M  V30 4280 C 409.418 -1.8468 5.01794 0
M  V30 4281 C 410.718 0.33063 5.21252 0
M  V30 4282 H 412.412 0.466192 2.95748 0
M  V30 4283 H 409.958 0.225643 1.42221 0
M  V30 4284 H 411.911 -1.82024 3.80059 0
M  V30 4285 H 410.635 -2.01186 2.57278 0
M  V30 4286 H 409.294 -0.178299 3.66166 0
M  V30 4287 H 408.942 -2.56301 4.32804 0
M  V30 4288 H 408.642 -1.45747 5.69238 0
M  V30 4289 H 410.166 -2.38709 5.62006 0
M  V30 4290 H 411.58 -0.118407 5.73178 0
M  V30 4291 H 409.977 0.636974 5.9671 0
M  V30 4292 H 411.047 1.23883 4.68808 0
M  V30 4293 N 412.39 -1.55475 0.257931 0
M  V30 4294 C 413.637 -1.99207 -0.363728 0
M  V30 4295 C 413.965 -1.1462 -1.57139 0
M  V30 4296 O 413.22 -0.199653 -1.94679 0
M  V30 4297 C 413.519 -3.48183 -0.806433 0
M  V30 4298 C 413.185 -4.49936 0.294684 0
M  V30 4299 C 411.847 -4.77481 0.597076 0
M  V30 4300 C 414.199 -5.10769 1.03751 0
M  V30 4301 C 411.527 -5.63132 1.64618 0
M  V30 4302 C 413.879 -5.97558 2.07622 0
M  V30 4303 C 412.543 -6.23432 2.38514 0
M  V30 4304 H 411.813 -0.728949 -0.133097 0
M  V30 4305 H 414.46 -1.8793 0.368059 0
M  V30 4306 H 412.765 -3.56848 -1.61761 0
M  V30 4307 H 414.462 -3.79415 -1.29789 0
M  V30 4308 H 411.052 -4.28572 0.0488649 0
M  V30 4309 H 415.236 -4.89527 0.817149 0
M  V30 4310 H 410.492 -5.8143 1.89074 0
M  V30 4311 H 414.666 -6.43735 2.65666 0
M  V30 4312 H 412.293 -6.89594 3.19943 0
M  V30 4313 N 413.868 0.0150385 -1.57593 0
M  V30 4314 C 415.096 0.714395 -1.94175 0
M  V30 4315 C 415.511 1.68135 -0.858841 0
M  V30 4316 O 414.868 1.81766 0.163567 0
M  V30 4317 C 414.919 1.45933 -3.30735 0
M  V30 4318 O 414.64 0.531167 -4.34868 0
M  V30 4319 C 416.141 2.25456 -3.81686 0
M  V30 4320 H 413.361 0.199923 -0.640525 0
M  V30 4321 H 415.905 -0.0316096 -2.04476 0
M  V30 4322 H 414.06 2.15709 -3.21789 0
M  V30 4323 H 414.474 1.05509 -5.13778 0
M  V30 4324 H 415.948 2.731 -4.79709 0
M  V30 4325 H 416.425 3.07485 -3.13607 0
M  V30 4326 H 417.031 1.60727 -3.9376 0
M  V30 4327 N 415.346 1.54954 0.287554 0
M  V30 4328 C 416.279 1.81737 1.3801 0
M  V30 4329 C 417.257 0.669412 1.48181 0
M  V30 4330 O 418.441 0.910839 1.65033 0
M  V30 4331 C 415.568 1.96606 2.75796 0
M  V30 4332 C 414.614 3.19098 2.82982 0
M  V30 4333 S 415.447 4.7683 2.43707 0
M  V30 4334 C 416.603 4.94653 3.83496 0
M  V30 4335 H 416.836 2.74122 1.15085 0
M  V30 4336 H 414.369 1.46538 0.486403 0
M  V30 4337 H 416.327 2.05858 3.55152 0
M  V30 4338 H 414.988 1.05136 2.95982 0
M  V30 4339 H 414.181 3.26344 3.84077 0
M  V30 4340 H 413.783 3.08361 2.11635 0
M  V30 4341 H 416.075 4.79502 4.78628 0
M  V30 4342 H 417.018 5.96728 3.8121 0
M  V30 4343 H 417.426 4.2272 3.74123 0
M  V30 4344 N 416.824 -0.551391 1.4764 0
M  V30 4345 C 418.072 -1.30572 1.54258 0
M  V30 4346 C 418.393 -1.93877 0.208963 0
M  V30 4347 O 417.663 -1.80234 -0.767619 0
M  V30 4348 H 416.243 -0.484894 0.568231 0
M  V30 4349 H 418.905 -0.643402 1.83974 0
M  V30 4350 H 418.001 -2.09621 2.31226 0
M  V30 4351 N 418.302 -1.35869 -0.798587 0
M  V30 4352 C 419.55 -1.29332 -1.55298 0
M  V30 4353 C 419.871 0.129729 -1.94568 0
M  V30 4354 O 419.141 1.06796 -1.6423 0
M  V30 4355 H 417.721 -0.475737 -0.57592 0
M  V30 4356 H 420.383 -1.70062 -0.952093 0
M  V30 4357 H 419.479 -1.91458 -2.46476 0
M  V30 4358 N 419.78 1.02168 -1.19998 0
M  V30 4359 C 420.728 2.12717 -0.940967 0
M  V30 4360 C 421.722 1.69069 0.105841 0
M  V30 4361 O 422.928 1.79946 -0.0440583 0
M  V30 4362 H 419.303 0.695108 -0.28693 0
M  V30 4363 H 421.274 2.3175 -1.87975 0
M  V30 4364 C 420.023 3.44027 -0.504049 0
M  V30 4365 H 419.346 3.78036 -1.30112 0
M  V30 4366 H 420.786 4.22452 -0.361991 0
M  V30 4367 C 419.245 3.27678 0.782878 0
M  V30 4368 O 419.775 3.56949 1.84256 0
M  V30 4369 N 417.981 2.80943 0.742921 0
M  V30 4370 H 417.528 2.57322 -0.119687 0
M  V30 4371 H 417.486 2.70385 1.60435 0
M  V30 4372 N 421.258 1.00505 1.21394 0
M  V30 4373 C 422.221 0.570459 2.21987 0
M  V30 4374 C 423.221 -0.353211 1.56873 0
M  V30 4375 O 424.411 -0.14349 1.73608 0
M  V30 4376 C 421.543 -0.168555 3.40483 0
M  V30 4377 H 422.736 1.46021 2.6195 0
M  V30 4378 H 420.289 0.793565 1.34656 0
M  V30 4379 H 421.024 -1.07374 3.06009 0
M  V30 4380 H 420.809 0.494823 3.88965 0
M  V30 4381 H 422.299 -0.460362 4.15055 0
M  V30 4382 N 422.737 -1.36956 0.779787 0
M  V30 4383 C 423.647 -2.33965 0.172491 0
M  V30 4384 C 424.663 -1.60574 -0.670222 0
M  V30 4385 O 425.839 -1.92617 -0.588263 0
M  V30 4386 C 422.904 -3.39761 -0.690173 0
M  V30 4387 C 421.965 -4.28964 0.169924 0
M  V30 4388 C 421.198 -5.29707 -0.651662 0
M  V30 4389 O 421.421 -5.38238 -1.88827 0
M  V30 4390 O 420.355 -6.01873 -0.0566264 0
M  V30 4391 H 424.181 -2.87647 0.974321 0
M  V30 4392 H 421.766 -1.39258 0.541078 0
M  V30 4393 H 423.648 -4.04471 -1.1824 0
M  V30 4394 H 422.323 -2.88394 -1.47006 0
M  V30 4395 H 421.23 -3.67326 0.708696 0
M  V30 4396 H 422.563 -4.83656 0.913085 0
M  V30 4397 N 424.215 -0.530993 -1.48385 0
M  V30 4398 C 425.463 0.00273189 -2.021 0
M  V30 4399 C 425.784 1.34672 -1.41027 0
M  V30 4400 O 425.054 1.8724 -0.576012 0
M  V30 4401 H 423.634 0.00399774 -0.746989 0
M  V30 4402 H 426.296 -0.695054 -1.82085 0
M  V30 4403 H 425.392 0.11031 -3.11905 0
M  V30 4404 N 425.693 1.55336 -0.266172 0
M  V30 4405 C 426.625 2.19544 0.658247 0
M  V30 4406 C 427.638 1.17746 1.12427 0
M  V30 4407 O 428.827 1.44517 1.04772 0
M  V30 4408 C 425.927 2.80032 1.9088 0
M  V30 4409 C 425.1 4.07436 1.59106 0
M  V30 4410 C 424.159 4.52056 2.69317 0
M  V30 4411 O 423.185 5.18023 2.35883 0
M  V30 4412 N 424.387 4.21448 3.99201 0
M  V30 4413 H 427.152 2.99503 0.108754 0
M  V30 4414 H 424.713 1.61667 -0.0869059 0
M  V30 4415 H 426.705 3.06831 2.63888 0
M  V30 4416 H 425.275 2.04119 2.36758 0
M  V30 4417 H 424.495 3.88021 0.695243 0
M  V30 4418 H 425.783 4.90462 1.35367 0
M  V30 4419 H 425.181 3.68528 4.29189 0
M  V30 4420 H 423.738 4.53039 4.68614 0
M  V30 4421 N 427.171 -0.0066808 1.57599 0
M  V30 4422 C 428.582 -0.550379 1.78403 0
M  V30 4423 C 428.933 -1.74339 0.900014 0
M  V30 4424 O 428.058 -2.16166 0.100713 0
M  V30 4425 C 428.653 -1.00523 3.23544 0
M  V30 4426 C 427.212 -1.49428 3.45468 0
M  V30 4427 C 426.359 -0.442444 2.73748 0
M  V30 4428 H 429.31 0.219508 1.57175 0
M  V30 4429 H 429.331 -1.87157 3.31289 0
M  V30 4430 H 428.843 -0.136735 3.87859 0
M  V30 4431 H 426.944 -2.3839 2.86358 0
M  V30 4432 H 427.057 -1.52635 4.54136 0
M  V30 4433 H 425.421 -0.902578 2.38171 0
M  V30 4434 H 426.204 0.416973 3.40758 0
M  V30 4435 N 428.649 -1.55105 -0.279332 0
M  V30 4436 C 429.889 -1.7716 -1.01949 0
M  V30 4437 C 430.253 -0.557511 -1.83728 0
M  V30 4438 O 431.454 -0.656198 -2.60667 0
M  V30 4439 C 429.725 -3.0372 -1.88385 0
M  V30 4440 S 431.284 -3.46868 -2.68752 0
M  V30 4441 H 428.102 -0.62253 -0.343478 0
M  V30 4442 H 430.704 -1.93329 -0.290572 0
M  V30 4443 H 429.408 -3.90184 -1.2722 0
M  V30 4444 H 428.939 -2.902 -2.65608 0
M  V30 4445 H 430.954 -3.05643 -3.90892 0
M  V30 4446 N 430.127 0.543554 -1.4793 0
M  V30 4447 C 431.074 1.64942 -1.6144 0
M  V30 4448 C 432.044 1.59692 -0.456903 0
M  V30 4449 O 433.229 1.78321 -0.678688 0
M  V30 4450 C 430.369 3.03238 -1.64744 0
M  V30 4451 C 429.482 3.18823 -2.91506 0
M  V30 4452 C 428.617 4.47599 -2.86057 0
M  V30 4453 C 427.656 4.56664 -4.07584 0
M  V30 4454 N 426.793 5.76811 -4.00292 0
M  V30 4455 H 431.633 1.52733 -2.55884 0
M  V30 4456 H 429.17 0.7438 -1.2691 0
M  V30 4457 H 431.128 3.83339 -1.64641 0
M  V30 4458 H 429.758 3.1425 -0.738017 0
M  V30 4459 H 428.81 2.32064 -3.01414 0
M  V30 4460 H 430.122 3.21384 -3.81463 0
M  V30 4461 H 429.276 5.35975 -2.84281 0
M  V30 4462 H 428.015 4.47538 -1.93807 0
M  V30 4463 H 427.02 3.66697 -4.09651 0
M  V30 4464 H 428.245 4.58474 -5.00978 0
M  V30 4465 H 426.191 5.77673 -3.10853 0
M  V30 4466 H 426.108 5.80808 -4.8394 0
M  V30 4467 H 427.376 6.67512 -4.02553 0
M  V30 4468 N 431.605 1.3629 0.791371 0
M  V30 4469 C 432.852 1.30412 1.54916 0
M  V30 4470 C 433.18 -0.117162 1.94147 0
M  V30 4471 O 432.435 -1.08599 1.62803 0
M  V30 4472 C 432.734 2.17068 2.8393 0
M  V30 4473 C 432.4 3.65645 2.63846 0
M  V30 4474 C 431.062 4.0614 2.58077 0
M  V30 4475 C 433.414 4.59855 2.45322 0
M  V30 4476 C 430.742 5.3899 2.31748 0
M  V30 4477 C 433.094 5.9292 2.2052 0
M  V30 4478 C 431.758 6.32542 2.13183 0
M  V30 4479 H 431.028 0.47721 0.566879 0
M  V30 4480 H 433.675 1.68325 0.913172 0
M  V30 4481 H 431.98 1.72085 3.51986 0
M  V30 4482 H 433.677 2.09846 3.4171 0
M  V30 4483 H 430.267 3.33518 2.69191 0
M  V30 4484 H 434.451 4.29443 2.48782 0
M  V30 4485 H 429.707 5.68672 2.24548 0
M  V30 4486 H 433.881 6.65487 2.05182 0
M  V30 4487 H 431.508 7.35412 1.92544 0
M  V30 4488 N 433.083 -1.0153 1.20538 0
M  V30 4489 C 434.494 -1.56598 1.01657 0
M  V30 4490 C 434.845 -1.91505 -0.426668 0
M  V30 4491 O 433.97 -1.72375 -1.30827 0
M  V30 4492 C 434.565 -2.84542 1.83905 0
M  V30 4493 C 433.124 -3.36133 1.69386 0
M  V30 4494 C 432.271 -2.09427 1.81757 0
M  V30 4495 H 435.222 -0.838974 1.34711 0
M  V30 4496 H 435.243 -3.56004 1.34319 0
M  V30 4497 H 434.755 -2.59105 2.8894 0
M  V30 4498 H 432.856 -3.66528 0.669933 0
M  V30 4499 H 432.969 -4.08248 2.50739 0
M  V30 4500 H 431.333 -2.21941 1.24957 0
M  V30 4501 H 432.116 -1.86414 2.88279 0
M  V30 4502 N 434.561 -1.01147 -1.20859 0
M  V30 4503 C 435.808 -0.697865 -1.90095 0
M  V30 4504 C 436.136 0.772014 -1.78522 0
M  V30 4505 O 435.391 1.57595 -1.16027 0
M  V30 4506 C 435.69 -1.0727 -3.40922 0
M  V30 4507 C 435.356 -2.53792 -3.72693 0
M  V30 4508 C 434.018 -2.93829 -3.81075 0
M  V30 4509 C 436.37 -3.48674 -3.87397 0
M  V30 4510 C 433.698 -4.27696 -4.01613 0
M  V30 4511 C 436.05 -4.82223 -4.09444 0
M  V30 4512 C 434.714 -5.21973 -4.16054 0
M  V30 4513 H 433.984 -0.255367 -0.695607 0
M  V30 4514 H 436.631 -1.27111 -1.43231 0
M  V30 4515 H 434.936 -0.417799 -3.89566 0
M  V30 4516 H 436.633 -0.807818 -3.92779 0
M  V30 4517 H 433.223 -2.21768 -3.66765 0
M  V30 4518 H 437.407 -3.18904 -3.80281 0
M  V30 4519 H 432.663 -4.58055 -4.04964 0
M  V30 4520 H 436.837 -5.55672 -4.19763 0
M  V30 4521 H 434.464 -6.25717 -4.31721 0
M  V30 4522 N 436.039 1.36541 -0.78704 0
M  V30 4523 C 437.455 1.52571 -0.46844 0
M  V30 4524 C 437.655 1.7415 1.01361 0
M  V30 4525 O 436.711 1.77163 1.79915 0
M  V30 4526 C 438.024 2.71299 -1.29682 0
M  V30 4527 C 439.572 2.85169 -1.29027 0
M  V30 4528 C 440.047 4.06898 -2.10233 0
M  V30 4529 N 441.538 4.1404 -2.07666 0
M  V30 4530 C 442.273 5.07301 -2.67271 0
M  V30 4531 N 441.769 6.06021 -3.35724 0
M  V30 4532 N 443.562 4.99898 -2.57018 0
M  V30 4533 H 435.713 1.20788 -1.74711 0
M  V30 4534 H 437.976 0.589364 -0.742532 0
M  V30 4535 H 437.682 2.61868 -2.34773 0
M  V30 4536 H 437.556 3.6539 -0.936479 0
M  V30 4537 H 439.943 2.94062 -0.247284 0
M  V30 4538 H 440.024 1.91992 -1.69035 0
M  V30 4539 H 439.668 3.98766 -3.1456 0
M  V30 4540 H 439.598 4.99218 -1.67597 0
M  V30 4541 H 442.089 3.43357 -1.57843 0
M  V30 4542 H 442.402 6.73741 -3.78541 0
M  V30 4543 H 440.747 6.06253 -3.39826 0
M  V30 4544 H 443.938 4.21724 -2.03142 0
M  V30 4545 H 444.111 5.72392 -3.03761 0
M  V30 4546 N 437.518 0.538854 1.48102 0
M  V30 4547 C 438.765 0.0080018 2.02498 0
M  V30 4548 C 439.093 -1.33437 1.41509 0
M  V30 4549 O 438.348 -1.87709 0.553507 0
M  V30 4550 C 438.647 -0.153808 3.57069 0
M  V30 4551 C 438.313 1.11533 4.36888 0
M  V30 4552 C 436.975 1.46314 4.58417 0
M  V30 4553 C 439.327 1.95718 4.83057 0
M  V30 4554 C 436.655 2.6516 5.23361 0
M  V30 4555 C 439.007 3.13751 5.49312 0
M  V30 4556 C 437.671 3.48866 5.69077 0
M  V30 4557 H 436.941 0.00292807 0.740994 0
M  V30 4558 H 439.588 0.706668 1.77984 0
M  V30 4559 H 437.893 -0.935309 3.80472 0
M  V30 4560 H 439.59 -0.579607 3.96789 0
M  V30 4561 H 436.18 0.834484 4.20398 0
M  V30 4562 H 440.364 1.70158 4.66219 0
M  V30 4563 H 435.62 2.92558 5.36861 0
M  V30 4564 H 439.794 3.79282 5.84053 0
M  V30 4565 H 437.421 4.41054 6.19173 0
M  V30 4566 N 438.996 -1.55193 0.274407 0
M  V30 4567 C 439.928 -2.1989 -0.646595 0
M  V30 4568 C 440.941 -1.1834 -1.11801 0
M  V30 4569 O 442.13 -1.4507 -1.04004 0
M  V30 4570 C 439.23 -2.8104 -1.89393 0
M  V30 4571 C 438.403 -4.08274 -1.56943 0
M  V30 4572 C 437.462 -4.53478 -2.66916 0
M  V30 4573 O 436.488 -5.19267 -2.33132 0
M  V30 4574 N 437.69 -4.2356 -3.9696 0
M  V30 4575 H 440.455 -2.99556 -0.0928686 0
M  V30 4576 H 438.016 -1.61618 0.0954783 0
M  V30 4577 H 440.008 -3.08226 -2.62257 0
M  V30 4578 H 438.578 -2.05372 -2.35672 0
M  V30 4579 H 437.798 -3.88384 -0.674655 0
M  V30 4580 H 439.086 -4.91173 -1.32764 0
M  V30 4581 H 438.484 -3.70799 -4.27229 0
M  V30 4582 H 437.041 -4.55518 -4.66205 0
M  V30 4583 N 440.474 -0.00167713 -1.576 0
M  V30 4584 C 441.722 0.681471 -1.90264 0
M  V30 4585 C 442.043 1.7422 -0.875924 0
M  V30 4586 O 441.313 1.95709 0.0864412 0
M  V30 4587 H 439.893 0.254696 -0.702239 0
M  V30 4588 H 442.555 -0.0429996 -1.94853 0
M  V30 4589 H 441.651 1.15166 -2.90075 0
M  V30 4590 N 441.952 1.55251 0.271103 0
M  V30 4591 C 443.18 1.79974 1.02064 0
M  V30 4592 C 443.595 0.574003 1.79863 0
M  V30 4593 O 442.952 -0.456962 1.76686 0
M  V30 4594 C 443.003 3.02603 1.97772 0
M  V30 4595 O 442.724 4.20443 1.23124 0
M  V30 4596 C 444.225 3.39944 2.84522 0
M  V30 4597 H 441.445 0.599489 0.301419 0
M  V30 4598 H 443.989 2.02268 0.301313 0
M  V30 4599 H 442.144 2.8243 2.65165 0
M  V30 4600 H 442.558 4.89783 1.87651 0
M  V30 4601 H 444.032 4.28915 3.47471 0
M  V30 4602 H 444.509 2.59432 3.54389 0
M  V30 4603 H 445.115 3.62383 2.22618 0
M  V30 4604 N 443.43 -0.535701 1.48216 0
M  V30 4605 C 444.655 -1.32149 1.59848 0
M  V30 4606 C 445.08 -1.86338 0.256842 0
M  V30 4607 O 444.438 -1.64107 -0.770632 0
M  V30 4608 C 444.486 -2.45224 2.64381 0
M  V30 4609 O 443.59 -3.48093 2.21144 0
M  V30 4610 H 442.931 -0.391634 0.536208 0
M  V30 4611 H 445.461 -0.645202 1.94161 0
M  V30 4612 H 445.471 -2.91491 2.85476 0
M  V30 4613 H 444.146 -2.05143 3.61786 0
M  V30 4614 H 442.723 -3.07984 2.10239 0
M  V30 4615 N 444.908 -1.36708 -0.784132 0
M  V30 4616 C 446.138 -1.34203 -1.57077 0
M  V30 4617 C 446.546 0.0774945 -1.89041 0
M  V30 4618 O 445.889 1.04628 -1.50992 0
M  V30 4619 C 445.951 -2.10351 -2.91535 0
M  V30 4620 C 445.615 -3.59405 -2.82272 0
M  V30 4621 C 446.612 -4.53545 -2.54151 0
M  V30 4622 C 444.297 -4.02362 -3.00683 0
M  V30 4623 C 446.291 -5.8862 -2.44551 0
M  V30 4624 C 443.978 -5.37526 -2.90704 0
M  V30 4625 C 444.976 -6.30468 -2.62677 0
M  V30 4626 O 444.664 -7.63149 -2.52702 0
M  V30 4627 H 444.396 -0.461791 -0.493685 0
M  V30 4628 H 446.95 -1.80475 -0.980712 0
M  V30 4629 H 445.18 -1.5875 -3.52612 0
M  V30 4630 H 446.869 -2.00636 -3.52845 0
M  V30 4631 H 447.635 -4.21669 -2.39625 0
M  V30 4632 H 443.514 -3.30389 -3.21503 0
M  V30 4633 H 447.058 -6.61133 -2.22596 0
M  V30 4634 H 442.955 -5.69008 -3.04795 0
M  V30 4635 H 443.723 -7.73331 -2.68144 0
M  V30 4636 N 446.386 1.0089 -1.21074 0
M  V30 4637 C 447.663 1.71834 -0.934469 0
M  V30 4638 C 448.043 2.0368 0.554753 0
M  V30 4639 O 447.391 1.70742 1.51854 0
M  V30 4640 C 447.601 2.98061 -1.8155 0
M  V30 4641 C 448.949 3.7117 -2.06199 0
M  V30 4642 O 449.973 3.08034 -1.78867 0
M  V30 4643 O 448.832 4.84721 -2.52404 0
M  V30 4644 H 445.926 0.749253 -0.35007 0
M  V30 4645 H 448.472 1.06668 -1.31985 0
M  V30 4646 H 447.244 2.70908 -2.82355 0
M  V30 4647 H 446.867 3.70968 -1.43068 0
M  V30 4648 N 447.864 1.01787 1.20321 0
M  V30 4649 C 449.089 0.727009 1.9424 0
M  V30 4650 C 449.514 -0.706179 1.74341 0
M  V30 4651 O 448.872 -1.48609 1.03852 0
M  V30 4652 C 448.92 1.06958 3.44372 0
M  V30 4653 O 448.024 0.181983 4.11998 0
M  V30 4654 H 447.365 0.269626 0.606793 0
M  V30 4655 H 449.895 1.36158 1.52716 0
M  V30 4656 H 449.905 1.02182 3.94997 0
M  V30 4657 H 448.58 2.11378 3.58179 0
M  V30 4658 H 447.157 0.287378 3.71791 0
M  V30 4659 N 449.342 -1.36122 0.79427 0
M  V30 4660 C 450.582 -2.00942 0.374376 0
M  V30 4661 C 450.946 -1.61666 -1.03577 0
M  V30 4662 O 452.147 -2.19113 -1.55701 0
M  V30 4663 C 450.418 -3.53323 0.538327 0
M  V30 4664 S 451.977 -4.38311 0.20703 0
M  V30 4665 H 448.795 -0.696515 0.142785 0
M  V30 4666 H 451.397 -1.65929 1.03382 0
M  V30 4667 H 450.101 -3.79395 1.56484 0
M  V30 4668 H 449.632 -3.93162 -0.136882 0
M  V30 4669 H 451.647 -4.8623 -0.989695 0
M  V30 4670 N 450.82 -0.546701 -1.47814 0
M  V30 4671 C 452.048 -0.0232857 -2.06887 0
M  V30 4672 C 452.463 1.26571 -1.4009 0
M  V30 4673 O 451.82 1.7569 -0.493906 0
M  V30 4674 C 451.871 0.186975 -3.61016 0
M  V30 4675 O 451.592 -1.05097 -4.25307 0
M  V30 4676 C 453.093 0.748872 -4.36929 0
M  V30 4677 H 450.313 -0.0410763 -0.669742 0
M  V30 4678 H 452.857 -0.757117 -1.89968 0
M  V30 4679 H 451.012 0.870903 -3.77484 0
M  V30 4680 H 451.426 -0.842121 -5.17695 0
M  V30 4681 H 452.9 0.845334 -5.45489 0
M  V30 4682 H 453.377 1.75772 -4.02493 0
M  V30 4683 H 453.983 0.100979 -4.2518 0
M  V30 4684 N 452.299 1.55045 -0.282633 0
M  V30 4685 C 453.527 2.04168 0.33512 0
M  V30 4686 C 453.942 1.16071 1.48906 0
M  V30 4687 O 453.299 0.182391 1.81586 0
M  V30 4688 C 453.35 3.52332 0.808957 0
M  V30 4689 O 453.071 4.37078 -0.299038 0
M  V30 4690 C 454.572 4.17375 1.49375 0
M  V30 4691 H 451.792 0.666744 0.0754543 0
M  V30 4692 H 454.336 2.00205 -0.416918 0
M  V30 4693 H 452.491 3.56715 1.51106 0
M  V30 4694 H 452.905 5.24458 0.0665514 0
M  V30 4695 H 454.379 5.22627 1.77664 0
M  V30 4696 H 454.856 3.65999 2.42778 0
M  V30 4697 H 455.462 4.17016 0.835305 0
M  V30 4698 N 453.777 0.010035 1.57597 0
M  V30 4699 C 454.687 -0.994226 2.12491 0
M  V30 4700 C 455.703 -1.37013 1.07254 0
M  V30 4701 O 456.879 -1.45542 1.3921 0
M  V30 4702 C 453.944 -2.2642 2.62555 0
M  V30 4703 C 453.005 -1.95049 3.82432 0
M  V30 4704 C 452.238 -3.15991 4.30099 0
M  V30 4705 O 452.461 -4.28015 3.7704 0
M  V30 4706 O 451.395 -2.99403 5.22151 0
M  V30 4707 H 455.221 -0.557549 2.98538 0
M  V30 4708 H 452.806 -0.209413 1.47925 0
M  V30 4709 H 454.688 -3.01009 2.9491 0
M  V30 4710 H 453.363 -2.69306 1.796 0
M  V30 4711 H 452.27 -1.17904 3.55034 0
M  V30 4712 H 453.603 -1.56992 4.66491 0
M  V30 4713 N 455.255 -1.55392 -0.262866 0
M  V30 4714 C 456.503 -1.76127 -0.991147 0
M  V30 4715 C 456.824 -0.571083 -1.8645 0
M  V30 4716 O 456.094 0.413698 -1.91482 0
M  V30 4717 H 454.674 -0.649528 -0.368948 0
M  V30 4718 H 457.336 -1.9281 -0.284655 0
M  V30 4719 H 456.432 -2.6663 -1.62219 0
M  V30 4720 N 456.733 0.527833 -1.48498 0
M  V30 4721 C 458.149 0.856571 -1.34666 0
M  V30 4722 C 458.349 1.98271 -0.35931 0
M  V30 4723 O 457.405 2.51551 0.218703 0
M  V30 4724 C 458.718 1.22207 -2.74747 0
M  V30 4725 C 460.266 1.33183 -2.83251 0
M  V30 4726 C 460.741 1.73075 -4.24039 0
M  V30 4727 N 462.232 1.80174 -4.26722 0
M  V30 4728 C 462.967 2.1243 -5.32598 0
M  V30 4729 N 462.463 2.43096 -6.4875 0
M  V30 4730 N 464.256 2.13454 -5.19994 0
M  V30 4731 H 456.407 -0.215174 -2.11307 0
M  V30 4732 H 458.67 -0.0336281 -0.947403 0
M  V30 4733 H 458.376 0.468195 -3.4857 0
M  V30 4734 H 458.25 2.17173 -3.08409 0
M  V30 4735 H 460.637 2.07647 -2.09683 0
M  V30 4736 H 460.718 0.363333 -2.53206 0
M  V30 4737 H 460.362 0.991712 -4.98124 0
M  V30 4738 H 460.292 2.70979 -4.51529 0
M  V30 4739 H 462.783 1.58744 -3.42942 0
M  V30 4740 H 463.096 2.6682 -7.25277 0
M  V30 4741 H 461.441 2.40611 -6.52021 0
M  V30 4742 H 464.632 1.88956 -4.28268 0
M  V30 4743 H 464.805 2.38261 -6.02608 0
M  V30 4744 N 458.211 1.37122 0.776871 0
M  V30 4745 C 459.439 1.3523 1.5659 0
M  V30 4746 C 459.854 -0.0635518 1.88693 0
M  V30 4747 O 459.211 -1.02394 1.51069 0
M  V30 4748 C 459.262 2.18583 2.8793 0
M  V30 4749 O 458.983 3.5465 2.57206 0
M  V30 4750 C 460.484 2.24612 3.82183 0
M  V30 4751 H 457.704 0.4634 0.485285 0
M  V30 4752 H 460.248 1.80392 0.963266 0
M  V30 4753 H 458.403 1.76943 3.4463 0
M  V30 4754 H 458.817 3.98286 3.41275 0
M  V30 4755 H 460.291 2.87267 4.71361 0
M  V30 4756 H 460.768 1.25309 4.20944 0
M  V30 4757 H 461.374 2.66543 3.31414 0
M  V30 4758 N 459.689 -1.00246 1.21608 0
M  V30 4759 C 460.966 -1.71336 0.943568 0
M  V30 4760 C 461.346 -2.03972 -0.543943 0
M  V30 4761 O 460.694 -1.71545 -1.50946 0
M  V30 4762 C 460.904 -2.97094 1.83128 0
M  V30 4763 C 462.252 -3.70071 2.08165 0
M  V30 4764 O 463.276 -3.07081 1.80498 0
M  V30 4765 O 462.135 -4.83376 2.54971 0
M  V30 4766 H 459.229 -0.747386 0.354039 0
M  V30 4767 H 461.775 -1.05967 1.32549 0
M  V30 4768 H 460.547 -2.69407 2.83788 0
M  V30 4769 H 460.17 -3.70204 1.45034 0
M  V30 4770 N 461.167 -1.02423 -1.1978 0
M  V30 4771 C 462.415 -0.716569 -1.8897 0
M  V30 4772 C 462.736 0.756769 -1.79716 0
M  V30 4773 O 462.006 1.5449 -1.20456 0
M  V30 4774 H 460.586 -0.262062 -0.699523 0
M  V30 4775 H 463.248 -1.29747 -1.45436 0
M  V30 4776 H 462.344 -1.00675 -2.95417 0
M  V30 4777 N 462.645 1.35699 -0.801477 0
M  V30 4778 C 463.875 2.02862 -0.3912 0
M  V30 4779 C 464.283 1.60552 1.00099 0
M  V30 4780 O 463.626 0.796215 1.65548 0
M  V30 4781 C 463.688 3.57386 -0.389299 0
M  V30 4782 C 463.352 4.22943 -1.73113 0
M  V30 4783 C 464.349 4.44984 -2.68859 0
M  V30 4784 C 462.034 4.60167 -2.01373 0
M  V30 4785 C 464.028 5.03345 -3.91053 0
M  V30 4786 C 461.715 5.18243 -3.23832 0
M  V30 4787 C 462.713 5.39773 -4.1849 0
M  V30 4788 O 462.401 5.96626 -5.38788 0
M  V30 4789 H 462.133 0.657341 -0.157732 0
M  V30 4790 H 464.687 1.74407 -1.08496 0
M  V30 4791 H 462.917 3.85011 0.361031 0
M  V30 4792 H 464.606 4.059 -0.0020365 0
M  V30 4793 H 465.372 4.1661 -2.48316 0
M  V30 4794 H 461.251 4.42726 -1.28508 0
M  V30 4795 H 464.795 5.20065 -4.64949 0
M  V30 4796 H 460.692 5.46044 -3.44248 0
M  V30 4797 H 461.46 6.15082 -5.40015 0
M  V30 4798 N 464.123 0.554532 1.47522 0
M  V30 4799 C 465.539 0.214107 1.58157 0
M  V30 4800 C 465.739 -1.28331 1.55349 0
M  V30 4801 O 464.795 -2.06329 1.45549 0
M  V30 4802 C 466.108 0.838391 2.88776 0
M  V30 4803 C 467.656 0.809374 3.02354 0
M  V30 4804 C 468.131 1.41268 4.35669 0
M  V30 4805 N 469.622 1.37574 4.42298 0
M  V30 4806 C 470.357 1.8122 5.4401 0
M  V30 4807 N 469.853 2.3271 6.52547 0
M  V30 4808 N 471.646 1.72307 5.35039 0
M  V30 4809 H 463.797 1.52744 1.4759 0
M  V30 4810 H 466.06 0.636812 0.702264 0
M  V30 4811 H 465.766 1.89065 2.96559 0
M  V30 4812 H 465.64 0.329847 3.75755 0
M  V30 4813 H 468.027 -0.234187 2.94169 0
M  V30 4814 H 468.108 1.35565 2.16924 0
M  V30 4815 H 467.752 2.45529 4.4461 0
M  V30 4816 H 467.682 0.841871 5.19827 0
M  V30 4817 H 470.173 0.999081 3.64454 0
M  V30 4818 H 470.486 2.63944 7.26329 0
M  V30 4819 H 468.831 2.36719 6.53444 0
M  V30 4820 H 472.022 1.3186 4.49144 0
M  V30 4821 H 472.195 2.06641 6.14169 0
M  V30 4822 N 465.601 -1.54893 0.290851 0
M  V30 4823 C 466.847 -2.00949 -0.314784 0
M  V30 4824 C 467.202 -1.1757 -1.52299 0
M  V30 4825 O 466.495 -0.241558 -1.90071 0
M  V30 4826 C 466.689 -3.49815 -0.732397 0
M  V30 4827 C 466.518 -4.47603 0.433799 0
M  V30 4828 C 465.288 -4.96806 0.922599 0
M  V30 4829 C 467.486 -4.98233 1.27546 0
M  V30 4830 N 465.468 -5.78426 2.05662 0
M  V30 4831 C 466.839 -5.77455 2.25712 0
M  V30 4832 C 468.894 -4.80439 1.307 0
M  V30 4833 C 467.597 -6.40778 3.26796 0
M  V30 4834 C 469.623 -5.44574 2.30637 0
M  V30 4835 C 468.985 -6.23619 3.27533 0
M  V30 4836 H 465.084 -0.777905 -0.0799257 0
M  V30 4837 H 467.668 -1.9015 0.418458 0
M  V30 4838 H 465.839 -3.60925 -1.43483 0
M  V30 4839 H 467.571 -3.82681 -1.31671 0
M  V30 4840 H 464.326 -4.70961 0.49926 0
M  V30 4841 H 464.75 -6.23923 2.62772 0
M  V30 4842 H 469.392 -4.18918 0.571622 0
M  V30 4843 H 467.11 -7.01439 4.01258 0
M  V30 4844 H 470.696 -5.32739 2.33838 0
M  V30 4845 H 469.576 -6.72367 4.03599 0
M  V30 4846 N 467.08 -0.0183926 -1.57589 0
M  V30 4847 C 468.32 0.666846 -1.93216 0
M  V30 4848 C 468.684 1.69905 -0.894215 0
M  V30 4849 O 469.885 2.436 -1.13633 0
M  V30 4850 C 468.156 1.27684 -3.33814 0
M  V30 4851 S 469.715 1.98464 -3.91353 0
M  V30 4852 H 466.533 0.219826 -0.676164 0
M  V30 4853 H 469.135 -0.0794893 -1.95338 0
M  V30 4854 H 467.839 0.513006 -4.07181 0
M  V30 4855 H 467.37 2.06071 -3.3511 0
M  V30 4856 H 469.385 3.26189 -3.73918 0
M  V30 4857 N 468.558 1.5553 0.254621 0
M  V30 4858 C 469.806 1.7665 0.981793 0
M  V30 4859 C 470.127 0.580963 1.86145 0
M  V30 4860 O 469.397 -0.403537 1.91699 0
M  V30 4861 H 467.977 0.651475 0.365498 0
M  V30 4862 H 470.639 1.92958 0.274426 0
M  V30 4863 H 469.735 2.67486 1.60802 0
M  V30 4864 N 470.036 -0.519951 1.48776 0
M  V30 4865 C 471.264 -1.29971 1.60982 0
M  V30 4866 C 471.679 -1.86803 0.273885 0
M  V30 4867 O 471.036 -1.66904 -0.738193 0
M  V30 4868 C 471.087 -2.44346 2.66415 0
M  V30 4869 O 470.808 -1.89855 3.94825 0
M  V30 4870 C 472.309 -3.36014 2.89153 0
M  V30 4871 H 469.529 -0.394891 0.542496 0
M  V30 4872 H 472.073 -0.626214 1.94676 0
M  V30 4873 H 470.228 -3.07562 2.35552 0
M  V30 4874 H 470.642 -2.64798 4.5275 0
M  V30 4875 H 472.116 -4.12593 3.66703 0
M  V30 4876 H 472.593 -3.91859 1.98351 0
M  V30 4877 H 473.199 -2.78582 3.21359 0
M  V30 4878 N 471.514 -1.37532 -0.769588 0
M  V30 4879 C 472.742 -1.36059 -1.55871 0
M  V30 4880 C 473.157 0.053544 -1.88724 0
M  V30 4881 O 472.514 1.01591 -1.5161 0
M  V30 4882 C 472.565 -2.20107 -2.86767 0
M  V30 4883 O 472.286 -3.56009 -2.55321 0
M  V30 4884 C 473.787 -2.26636 -3.80987 0
M  V30 4885 H 471.007 -0.465967 -0.482821 0
M  V30 4886 H 473.551 -1.80901 -0.953686 0
M  V30 4887 H 471.706 -1.78768 -3.43687 0
M  V30 4888 H 472.12 -4.0009 -3.39158 0
M  V30 4889 H 473.594 -2.89763 -4.69831 0
M  V30 4890 H 474.071 -1.2754 -4.20274 0
M  V30 4891 H 474.677 -2.68296 -3.29996 0
M  V30 4892 N 472.992 0.995999 -1.22138 0
M  V30 4893 C 473.902 2.11985 -1.00496 0
M  V30 4894 C 474.918 1.7394 0.0457701 0
M  V30 4895 O 476.094 2.00868 -0.146273 0
M  V30 4896 C 473.159 3.41779 -0.582086 0
M  V30 4897 C 472.22 3.93943 -1.70608 0
M  V30 4898 C 471.453 5.17542 -1.30328 0
M  V30 4899 O 471.676 5.70114 -0.180743 0
M  V30 4900 O 470.61 5.63382 -2.11861 0
M  V30 4901 H 474.436 2.33123 -1.94647 0
M  V30 4902 H 472.021 1.10358 -1.00705 0
M  V30 4903 H 473.903 4.1989 -0.356467 0
M  V30 4904 H 472.578 3.22007 0.330592 0
M  V30 4905 H 471.485 3.17019 -1.98619 0
M  V30 4906 H 472.818 4.18141 -2.59651 0
M  V30 4907 N 474.47 1.03057 1.19235 0
M  V30 4908 C 475.747 0.642608 1.84743 0
M  V30 4909 C 476.127 -0.878577 1.91948 0
M  V30 4910 O 475.475 -1.77597 1.43776 0
M  V30 4911 C 475.685 1.30665 3.23616 0
M  V30 4912 C 477.033 1.43098 3.9976 0
M  V30 4913 O 478.057 1.26396 3.3302 0
M  V30 4914 O 476.916 1.70223 5.19313 0
M  V30 4915 H 474.01 0.223573 0.796206 0
M  V30 4916 H 476.556 1.12883 1.26711 0
M  V30 4917 H 475.328 2.34544 3.13217 0
M  V30 4918 H 474.951 0.808405 3.89295 0
M  V30 4919 N 475.948 -1.35272 0.808662 0
M  V30 4920 C 477.178 -2.02652 0.401953 0
M  V30 4921 C 477.586 -1.6108 -0.992462 0
M  V30 4922 O 476.929 -0.804984 -1.65123 0
M  V30 4923 C 476.991 -3.57174 0.408246 0
M  V30 4924 C 476.655 -4.22019 1.75353 0
M  V30 4925 C 477.652 -4.43552 2.71215 0
M  V30 4926 C 475.337 -4.59093 2.03811 0
M  V30 4927 C 477.331 -5.01264 3.93717 0
M  V30 4928 C 475.018 -5.16519 3.26576 0
M  V30 4929 C 476.016 -5.37546 4.21347 0
M  V30 4930 O 475.704 -5.93761 5.41944 0
M  V30 4931 H 475.436 -0.656495 0.161216 0
M  V30 4932 H 477.99 -1.73829 1.0942 0
M  V30 4933 H 476.22 -3.85197 -0.340608 0
M  V30 4934 H 477.909 -4.05893 0.0235623 0
M  V30 4935 H 478.675 -4.15288 2.50522 0
M  V30 4936 H 474.554 -4.42039 1.30854 0
M  V30 4937 H 478.098 -5.17592 4.67701 0
M  V30 4938 H 473.995 -5.4421 3.47139 0
M  V30 4939 H 474.763 -6.1221 5.43269 0
M  V30 4940 N 477.426 -0.562348 -1.47226 0
M  V30 4941 C 478.703 0.0256985 -1.95583 0
M  V30 4942 C 479.083 1.48032 -1.50498 0
M  V30 4943 O 478.431 2.15973 -0.746181 0
M  V30 4944 C 478.641 -0.125129 -3.48776 0
M  V30 4945 C 479.989 0.0175728 -4.24596 0
M  V30 4946 O 481.013 -0.0529341 -3.56161 0
M  V30 4947 O 479.872 0.170145 -5.46235 0
M  V30 4948 H 476.966 0.0612565 -0.824728 0
M  V30 4949 H 479.512 -0.629233 -1.57603 0
M  V30 4950 H 478.284 -1.13715 -3.74412 0
M  V30 4951 H 477.907 0.567178 -3.93534 0
M  V30 4952 N 478.904 1.54736 -0.299062 0
M  V30 4953 C 480.32 1.59507 0.0543849 0
M  V30 4954 C 480.52 1.31606 1.52585 0
M  V30 4955 O 479.576 1.08853 2.27832 0
M  V30 4956 C 480.889 2.98751 -0.34181 0
M  V30 4957 C 482.437 3.1165 -0.290414 0
M  V30 4958 C 482.912 4.53199 -0.661402 0
M  V30 4959 N 484.403 4.59114 -0.613863 0
M  V30 4960 C 485.138 5.66709 -0.873417 0
M  V30 4961 N 484.634 6.82349 -1.19884 0
M  V30 4962 N 486.427 5.56369 -0.800608 0
M  V30 4963 H 478.578 1.71133 -1.25806 0
M  V30 4964 H 480.841 0.799186 -0.509908 0
M  V30 4965 H 480.547 3.24085 -1.36608 0
M  V30 4966 H 480.421 3.75961 0.305508 0
M  V30 4967 H 482.808 2.86066 0.724605 0
M  V30 4968 H 482.889 2.366 -0.972327 0
M  V30 4969 H 482.533 4.79513 -1.67422 0
M  V30 4970 H 482.463 5.26583 0.0425612 0
M  V30 4971 H 484.954 3.76053 -0.3732 0
M  V30 4972 H 485.267 7.60326 -1.38291 0
M  V30 4973 H 483.612 6.83906 -1.23685 0
M  V30 4974 H 486.803 4.64904 -0.546045 0
M  V30 4975 H 486.976 6.40139 -1.00626 0
M  V30 4976 N 480.382 0.0267497 1.57577 0
M  V30 4977 C 481.659 -0.690926 1.82991 0
M  V30 4978 C 482.039 -1.90471 0.910164 0
M  V30 4979 O 481.387 -2.28474 -0.0347985 0
M  V30 4980 C 481.597 -1.07139 3.32148 0
M  V30 4981 C 482.945 -1.46402 3.98562 0
M  V30 4982 O 483.969 -1.16443 3.36629 0
M  V30 4983 O 482.828 -2.02214 5.07712 0
M  V30 4984 H 479.922 -0.338747 0.75444 0
M  V30 4985 H 482.468 0.0542506 1.69613 0
M  V30 4986 H 481.24 -0.207394 3.9075 0
M  V30 4987 H 480.863 -1.87481 3.50623 0
M  V30 4988 N 481.861 -1.55662 -0.24637 0
M  V30 4989 C 482.808 -1.90361 -1.30504 0
M  V30 4990 C 483.778 -0.757905 -1.47801 0
M  V30 4991 O 484.963 -1.01161 -1.61775 0
M  V30 4992 C 482.103 -2.2042 -2.65535 0
M  V30 4993 C 481.216 -3.47799 -2.56242 0
M  V30 4994 C 480.351 -3.67426 -3.8363 0
M  V30 4995 C 479.39 -4.88403 -3.68956 0
M  V30 4996 N 478.527 -5.04548 -4.88237 0
M  V30 4997 H 483.367 -2.80645 -1.00213 0
M  V30 4998 H 480.904 -1.38924 -0.483577 0
M  V30 4999 H 482.862 -2.35853 -3.44135 0
M  V30 5000 H 481.492 -1.3334 -2.93973 0
M  V30 5001 H 480.544 -3.40694 -1.69208 0
M  V30 5002 H 481.856 -4.36544 -2.4131 0
M  V30 5003 H 481.01 -3.82821 -4.70673 0
M  V30 5004 H 479.749 -2.76914 -4.01459 0
M  V30 5005 H 478.754 -4.72984 -2.80296 0
M  V30 5006 H 479.979 -5.80375 -3.52621 0
M  V30 5007 H 477.925 -4.16974 -5.06427 0
M  V30 5008 H 477.842 -5.87384 -4.75937 0
M  V30 5009 H 479.11 -5.24355 -5.76777 0
M  V30 5010 N 483.339 0.512053 -1.4905 0
M  V30 5011 C 484.286 1.6148 -1.64902 0
M  V30 5012 C 485.256 1.58687 -0.490673 0
M  V30 5013 O 486.441 1.76842 -0.71636 0
M  V30 5014 C 483.581 2.99676 -1.71139 0
M  V30 5015 C 482.694 3.12568 -2.98203 0
M  V30 5016 C 481.829 4.4143 -2.95487 0
M  V30 5017 C 480.868 4.47916 -4.17179 0
M  V30 5018 N 480.005 5.68191 -4.12437 0
M  V30 5019 H 484.845 1.47271 -2.59066 0
M  V30 5020 H 482.382 0.716713 -1.28459 0
M  V30 5021 H 484.34 3.79761 -1.72736 0
M  V30 5022 H 482.97 3.12614 -0.804508 0
M  V30 5023 H 482.022 2.25618 -3.06269 0
M  V30 5024 H 483.334 3.1322 -3.88194 0
M  V30 5025 H 482.488 5.29825 -2.95585 0
M  V30 5026 H 481.227 4.43326 -2.03256 0
M  V30 5027 H 480.232 3.57925 -4.17337 0
M  V30 5028 H 481.457 4.47744 -5.1059 0
M  V30 5029 H 479.403 5.7095 -3.23036 0
M  V30 5030 H 479.32 5.70413 -4.96151 0
M  V30 5031 H 480.588 6.58823 -4.16621 0
M  V30 5032 N 484.817 1.37938 0.762283 0
M  V30 5033 C 486.047 1.36685 1.54922 0
M  V30 5034 C 486.455 -0.0474099 1.89141 0
M  V30 5035 O 485.798 -1.02213 1.52638 0
M  V30 5036 C 485.86 2.14963 2.88152 0
M  V30 5037 C 485.524 3.6385 2.76518 0
M  V30 5038 C 486.521 4.57531 2.46904 0
M  V30 5039 C 484.206 4.07095 2.94243 0
M  V30 5040 C 486.2 5.92436 2.35156 0
M  V30 5041 C 483.887 5.42083 2.82116 0
M  V30 5042 C 484.885 6.34567 2.52614 0
M  V30 5043 O 484.573 7.67073 2.40529 0
M  V30 5044 H 484.305 0.469586 0.486276 0
M  V30 5045 H 486.859 1.82012 0.951876 0
M  V30 5046 H 485.089 1.6434 3.50042 0
M  V30 5047 H 486.778 2.06224 3.49609 0
M  V30 5048 H 487.544 4.25428 2.32886 0
M  V30 5049 H 483.423 3.35462 3.16206 0
M  V30 5050 H 486.967 6.64591 2.12049 0
M  V30 5051 H 482.864 5.73785 2.95704 0
M  V30 5052 H 483.632 7.77499 2.55807 0
M  V30 5053 N 486.295 -0.989507 1.22664 0
M  V30 5054 C 487.543 -1.72612 1.05117 0
M  V30 5055 C 487.864 -1.90552 -0.414131 0
M  V30 5056 O 487.134 -1.4676 -1.29762 0
M  V30 5057 H 485.714 -0.639555 0.385977 0
M  V30 5058 H 488.376 -1.19158 1.54232 0
M  V30 5059 H 487.472 -2.71926 1.53175 0
M  V30 5060 N 487.773 -1.03688 -1.18687 0
M  V30 5061 C 489.02 -0.73803 -1.88572 0
M  V30 5062 C 489.348 0.733973 -1.8012 0
M  V30 5063 O 488.603 1.55098 -1.19344 0
M  V30 5064 C 488.902 -1.14477 -3.3857 0
M  V30 5065 C 488.568 -2.61641 -3.67226 0
M  V30 5066 C 487.23 -3.01846 -3.74757 0
M  V30 5067 C 489.582 -3.56812 -3.79914 0
M  V30 5068 C 486.91 -4.36118 -3.92451 0
M  V30 5069 C 489.262 -4.90799 -3.99123 0
M  V30 5070 C 487.926 -5.3068 -4.04888 0
M  V30 5071 H 487.196 -0.270064 -0.690034 0
M  V30 5072 H 489.843 -1.3012 -1.40503 0
M  V30 5073 H 488.148 -0.500337 -3.88592 0
M  V30 5074 H 489.845 -0.89095 -3.90977 0
M  V30 5075 H 486.435 -2.29498 -3.61979 0
M  V30 5076 H 490.619 -3.26899 -3.73431 0
M  V30 5077 H 485.875 -4.66542 -3.95157 0
M  V30 5078 H 490.049 -5.64451 -4.07882 0
M  V30 5079 H 487.676 -6.34733 -4.18351 0
M  V30 5080 N 489.251 1.34841 -0.815825 0
M  V30 5081 C 490.491 2.00321 -0.406297 0
M  V30 5082 C 490.855 1.63293 1.00992 0
M  V30 5083 O 492.056 2.21563 1.52195 0
M  V30 5084 C 490.327 3.52421 -0.594469 0
M  V30 5085 S 491.886 4.37926 -0.276735 0
M  V30 5086 H 488.704 0.694155 -0.153848 0
M  V30 5087 H 491.306 1.64263 -1.06009 0
M  V30 5088 H 490.01 3.76858 -1.625 0
M  V30 5089 H 489.541 3.9333 0.0743157 0
M  V30 5090 H 491.556 4.87743 0.912215 0
M  V30 5091 N 490.729 0.570148 1.46925 0
M  V30 5092 C 492.14 0.1402 1.86173 0
M  V30 5093 C 492.491 -1.29347 1.47526 0
M  V30 5094 O 491.616 -1.97508 0.884292 0
M  V30 5095 C 492.211 0.247661 3.37894 0
M  V30 5096 C 490.77 -0.127332 3.76185 0
M  V30 5097 C 489.917 0.589349 2.70965 0
M  V30 5098 H 492.868 0.779117 1.38259 0
M  V30 5099 H 492.889 -0.530341 3.76786 0
M  V30 5100 H 492.401 1.29121 3.65991 0
M  V30 5101 H 490.502 -1.17149 3.53704 0
M  V30 5102 H 490.615 0.240238 4.78497 0
M  V30 5103 H 488.979 0.0309824 2.54681 0
M  V30 5104 H 489.762 1.6343 3.01903 0
M  V30 5105 N 492.207 -1.54576 0.307264 0
M  V30 5106 C 493.117 -2.27435 -0.57536 0
M  V30 5107 C 494.133 -1.31183 -1.14311 0
M  V30 5108 O 495.309 -1.64175 -1.16656 0
M  V30 5109 C 492.374 -3.00566 -1.72803 0
M  V30 5110 C 491.435 -4.12369 -1.19373 0
M  V30 5111 C 490.668 -4.82003 -2.29147 0
M  V30 5112 O 490.891 -4.51038 -3.49171 0
M  V30 5113 O 489.825 -5.69271 -1.95485 0
M  V30 5114 H 493.651 -3.03696 0.0158558 0
M  V30 5115 H 491.236 -1.49219 0.0735064 0
M  V30 5116 H 493.118 -3.46416 -2.39946 0
M  V30 5117 H 491.793 -2.27195 -2.30574 0
M  V30 5118 H 490.7 -3.70905 -0.487851 0
M  V30 5119 H 492.033 -4.87736 -0.661376 0
M  V30 5120 N 493.685 -0.035106 -1.57561 0
M  V30 5121 C 494.913 0.652258 -1.9635 0
M  V30 5122 C 495.328 1.65317 -0.911897 0
M  V30 5123 O 494.685 1.82194 0.105657 0
M  V30 5124 C 494.736 1.35337 -3.35211 0
M  V30 5125 O 494.457 0.392548 -4.36338 0
M  V30 5126 C 495.958 2.13199 -3.88666 0
M  V30 5127 H 493.178 0.179444 -0.646561 0
M  V30 5128 H 495.722 -0.0966459 -2.04271 0
M  V30 5129 H 493.877 2.05362 -3.28489 0
M  V30 5130 H 494.291 0.891097 -5.16875 0
M  V30 5131 H 495.765 2.577 -4.88154 0
M  V30 5132 H 496.242 2.97353 -3.23231 0
M  V30 5133 H 496.848 1.48118 -3.98674 0
M  V30 5134 N 495.163 1.55791 0.238111 0
M  V30 5135 C 496.126 1.90239 1.27835 0
M  V30 5136 C 497.126 0.779552 1.4064 0
M  V30 5137 O 498.316 1.04747 1.3919 0
M  V30 5138 C 495.448 2.13859 2.65475 0
M  V30 5139 H 496.641 2.83262 0.985034 0
M  V30 5140 H 494.194 1.48818 0.477799 0
M  V30 5141 H 494.929 1.23334 2.99932 0
M  V30 5142 H 494.714 2.95643 2.57561 0
M  V30 5143 H 496.204 2.41664 3.40571 0
M  V30 5144 N 496.642 -0.504142 1.49319 0
M  V30 5145 C 497.575 -1.62361 1.60356 0
M  V30 5146 C 498.553 -1.56169 0.45277 0
M  V30 5147 O 499.737 -1.76271 0.667892 0
M  V30 5148 C 496.864 -3.00864 1.55559 0
M  V30 5149 C 495.91 -3.25328 2.75797 0
M  V30 5150 S 496.743 -3.08791 4.37503 0
M  V30 5151 C 497.899 -4.49695 4.35345 0
M  V30 5152 H 498.132 -1.52753 2.55056 0
M  V30 5153 H 495.665 -0.689065 1.38171 0
M  V30 5154 H 497.623 -3.8073 1.53477 0
M  V30 5155 H 496.284 -3.0789 0.621515 0
M  V30 5156 H 495.477 -4.2643 2.68651 0
M  V30 5157 H 495.079 -2.53179 2.75275 0
M  V30 5158 H 497.371 -5.41721 4.06871 0
M  V30 5159 H 498.314 -4.61891 5.36714 0
M  V30 5160 H 498.722 -4.30227 3.65465 0
M  V30 5161 N 498.12 -1.38341 -0.754957 0
M  V30 5162 C 499.345 -1.37882 -1.5493 0
M  V30 5163 C 499.77 0.0296385 -1.88077 0
M  V30 5164 O 499.128 1.01133 -1.50472 0
M  V30 5165 C 499.176 -2.23996 -2.82592 0
M  V30 5166 O 498.28 -1.65612 -3.77686 0
M  V30 5167 H 497.621 -0.470384 -0.468652 0
M  V30 5168 H 500.151 -1.82084 -0.933082 0
M  V30 5169 H 500.161 -2.37806 -3.3153 0
M  V30 5170 H 498.836 -3.26365 -2.57796 0
M  V30 5171 H 497.413 -1.60936 -3.36384 0
M  V30 5172 N 499.598 0.982988 -1.23187 0
M  V30 5173 C 500.826 1.75921 -1.08901 0
M  V30 5174 C 501.241 1.85341 0.359719 0
M  V30 5175 O 500.598 1.33072 1.24892 0
M  V30 5176 C 500.649 3.18742 -1.70545 0
M  V30 5177 O 500.37 3.09814 -3.09753 0
M  V30 5178 C 501.871 4.1277 -1.61667 0
M  V30 5179 H 499.091 0.552166 -0.381252 0
M  V30 5180 H 501.635 1.23516 -1.62985 0
M  V30 5181 H 499.79 3.68182 -1.20501 0
M  V30 5182 H 500.204 3.99703 -3.39614 0
M  V30 5183 H 501.678 5.10697 -2.09506 0
M  V30 5184 H 502.155 4.3542 -0.575009 0
M  V30 5185 H 502.761 3.69232 -2.11064 0
M  V30 5186 N 501.076 1.04316 1.18135 0
M  V30 5187 C 502.322 0.749128 1.88457 0
M  V30 5188 C 502.655 -0.72149 1.803 0
M  V30 5189 O 501.93 -1.52676 1.205 0
M  V30 5190 C 502.213 1.21905 3.38838 0
M  V30 5191 C 502.066 2.75195 3.55792 0
M  V30 5192 C 503.385 0.811085 4.32561 0
M  V30 5193 H 500.504 0.273611 0.684329 0
M  V30 5194 H 503.146 1.29561 1.38975 0
M  V30 5195 H 501.296 0.754137 3.8111 0
M  V30 5196 H 502.968 3.29743 3.22595 0
M  V30 5197 H 501.211 3.14899 2.98364 0
M  V30 5198 H 501.882 3.03135 4.61317 0
M  V30 5199 H 504.358 1.21118 3.98082 0
M  V30 5200 H 503.234 1.16761 5.36338 0
M  V30 5201 H 503.495 -0.285596 4.41177 0
M  V30 5202 N 502.554 -1.34406 0.822964 0
M  V30 5203 C 503.802 -1.97892 0.410245 0
M  V30 5204 C 504.123 -1.65567 -1.03017 0
M  V30 5205 O 503.393 -0.94642 -1.71522 0
M  V30 5206 H 501.973 -0.732049 0.148707 0
M  V30 5207 H 504.635 -1.64043 1.05242 0
M  V30 5208 H 503.731 -3.07579 0.529284 0
M  V30 5209 N 504.032 -0.577932 -1.46621 0
M  V30 5210 C 505.28 -0.061566 -2.02006 0
M  V30 5211 C 505.601 1.30117 -1.4524 0
M  V30 5212 O 504.871 1.85313 -0.63529 0
M  V30 5213 H 503.451 -0.0197692 -0.746738 0
M  V30 5214 H 506.113 -0.752631 -1.79782 0
M  V30 5215 H 505.209 0.0110238 -3.12098 0
M  V30 5216 N 505.51 1.54411 -0.315457 0
M  V30 5217 C 506.458 2.25514 0.569771 0
M  V30 5218 C 507.452 1.2663 1.12522 0
M  V30 5219 O 508.658 1.44434 1.07419 0
M  V30 5220 H 505.033 0.724257 0.202376 0
M  V30 5221 H 507.004 2.98354 -0.0522895 0
M  V30 5222 C 505.753 3.02004 1.72305 0
M  V30 5223 H 505.076 3.77906 1.30488 0
M  V30 5224 H 506.516 3.55014 2.31821 0
M  V30 5225 C 504.975 2.09822 2.63583 0
M  V30 5226 O 505.505 1.67574 3.65078 0
M  V30 5227 N 503.711 1.75478 2.31637 0
M  V30 5228 H 503.258 2.10032 1.49145 0
M  V30 5229 H 503.216 1.14079 2.92973 0
M  V30 5230 N 506.988 0.0434614 1.5754 0
M  V30 5231 C 508.213 -0.645358 1.97104 0
M  V30 5232 C 508.638 -1.64037 0.920521 0
M  V30 5233 O 507.996 -1.80922 -0.11708 0
M  V30 5234 C 508.044 -1.31547 3.35749 0
M  V30 5235 O 507.148 -2.43103 3.33129 0
M  V30 5236 H 506.489 -0.168403 0.64229 0
M  V30 5237 H 509.019 0.109573 2.04306 0
M  V30 5238 H 509.029 -1.66895 3.72304 0
M  V30 5239 H 507.704 -0.586205 4.11748 0
M  V30 5240 H 506.281 -2.0976 3.0831 0
M  V30 5241 N 508.466 -1.55915 -0.229846 0
M  V30 5242 C 509.376 -1.94891 -1.30593 0
M  V30 5243 C 510.392 -0.851604 -1.51736 0
M  V30 5244 O 511.568 -1.15447 -1.65027 0
M  V30 5245 C 508.633 -2.25052 -2.63728 0
M  V30 5246 C 507.694 -3.48306 -2.5096 0
M  V30 5247 C 506.927 -3.77019 -3.77747 0
M  V30 5248 O 507.15 -3.07534 -4.80395 0
M  V30 5249 O 506.084 -4.70523 -3.75356 0
M  V30 5250 H 509.91 -2.86581 -1.00525 0
M  V30 5251 H 507.495 -1.43017 -0.432025 0
M  V30 5252 H 509.377 -2.45682 -3.42372 0
M  V30 5253 H 508.052 -1.36538 -2.93495 0
M  V30 5254 H 506.959 -3.32964 -1.70546 0
M  V30 5255 H 508.292 -4.37177 -2.26136 0
M  V30 5256 N 509.944 0.496216 -1.49584 0
M  V30 5257 C 511.192 1.24756 -1.58998 0
M  V30 5258 C 511.513 1.92968 -0.280775 0
M  V30 5259 O 510.783 1.82959 0.700198 0
M  V30 5260 H 509.363 0.463471 -0.585836 0
M  V30 5261 H 512.025 0.574678 -1.86235 0
M  V30 5262 H 511.121 2.00895 -2.38847 0
M  V30 5263 N 511.423 1.38739 0.74761 0
M  V30 5264 C 512.386 1.36241 1.84312 0
M  V30 5265 C 513.386 0.261811 1.58654 0
M  V30 5266 O 514.576 0.519031 1.66288 0
M  V30 5267 C 511.708 1.12253 3.21888 0
M  V30 5268 H 512.901 2.33712 1.87933 0
M  V30 5269 H 510.454 1.2412 0.949946 0
M  V30 5270 H 511.189 0.154133 3.23934 0
M  V30 5271 H 510.974 1.91943 3.41907 0
M  V30 5272 H 512.464 1.13215 4.0196 0
M  V30 5273 N 512.901 -0.976442 1.23707 0
M  V30 5274 C 514.312 -1.53284 1.06587 0
M  V30 5275 C 514.663 -1.92765 -0.365526 0
M  V30 5276 O 513.788 -1.7645 -1.25277 0
M  V30 5277 C 514.383 -2.78548 1.92864 0
M  V30 5278 C 512.942 -3.30574 1.79994 0
M  V30 5279 C 512.089 -2.03538 1.88328 0
M  V30 5280 H 515.04 -0.795692 1.37311 0
M  V30 5281 H 515.061 -3.5155 1.45577 0
M  V30 5282 H 514.573 -2.49782 2.97037 0
M  V30 5283 H 512.674 -3.64211 0.786202 0
M  V30 5284 H 512.787 -4.00065 2.636 0
M  V30 5285 H 511.151 -2.17853 1.31954 0
M  V30 5286 H 511.934 -1.77149 2.94063 0
M  V30 5287 N 514.379 -1.04941 -1.1758 0
M  V30 5288 C 515.619 -0.766996 -1.89464 0
M  V30 5289 C 515.983 0.693123 -1.79053 0
M  V30 5290 O 517.184 1.08953 -2.45729 0
M  V30 5291 C 515.455 -1.23108 -3.35528 0
M  V30 5292 S 517.014 -1.07565 -4.25412 0
M  V30 5293 H 513.832 -0.278616 -0.654136 0
M  V30 5294 H 516.434 -1.34352 -1.4202 0
M  V30 5295 H 515.138 -2.28896 -3.40639 0
M  V30 5296 H 514.669 -0.648724 -3.88014 0
M  V30 5297 H 516.684 0.00169467 -4.962 0
M  V30 5298 N 515.857 1.33968 -0.830081 0
M  V30 5299 C 517.103 1.98357 -0.422191 0
M  V30 5300 C 517.436 1.65633 1.01387 0
M  V30 5301 O 516.711 0.931648 1.70735 0
M  V30 5302 C 516.994 3.54492 -0.633043 0
M  V30 5303 C 516.847 3.96934 -2.11574 0
M  V30 5304 C 518.166 4.40039 -0.0735584 0
M  V30 5305 H 515.285 0.720544 -0.154871 0
M  V30 5306 H 517.927 1.58749 -1.04397 0
M  V30 5307 H 516.077 3.88361 -0.103775 0
M  V30 5308 H 517.749 3.73363 -2.7092 0
M  V30 5309 H 515.992 3.46984 -2.60354 0
M  V30 5310 H 516.663 5.05651 -2.21406 0
M  V30 5311 H 519.139 4.12764 -0.52585 0
M  V30 5312 H 518.015 5.48327 -0.250841 0
M  V30 5313 H 518.276 4.30124 1.02202 0
M  V30 5314 N 517.335 0.585699 1.46312 0
M  V30 5315 C 518.582 0.0724211 2.0237 0
M  V30 5316 C 518.91 -1.28868 1.45683 0
M  V30 5317 O 518.165 -1.85853 0.612945 0
M  V30 5318 C 518.464 -0.0401312 3.57377 0
M  V30 5319 C 518.13 1.25376 4.33119 0
M  V30 5320 C 516.792 1.60824 4.5353 0
M  V30 5321 C 519.144 2.10987 4.76586 0
M  V30 5322 C 516.472 2.81676 5.14661 0
M  V30 5323 C 518.824 3.31068 5.39052 0
M  V30 5324 C 517.488 3.66794 5.5769 0
M  V30 5325 H 516.758 0.0265007 0.740526 0
M  V30 5326 H 519.405 0.762935 1.75646 0
M  V30 5327 H 517.71 -0.813791 3.83255 0
M  V30 5328 H 519.407 -0.453078 3.98432 0
M  V30 5329 H 515.997 0.967808 4.1753 0
M  V30 5330 H 520.181 1.84904 4.60569 0
M  V30 5331 H 515.437 3.0949 5.27282 0
M  V30 5332 H 519.611 3.97672 5.71691 0
M  V30 5333 H 517.238 4.60529 6.04828 0
M  V30 5334 N 518.813 -1.54241 0.323641 0
M  V30 5335 C 520.224 -1.85975 -0.164405 0
M  V30 5336 C 520.575 -1.24529 -1.51615 0
M  V30 5337 O 519.7 -0.551351 -2.09258 0
M  V30 5338 C 520.295 -3.37424 -0.305091 0
M  V30 5339 C 518.854 -3.69107 -0.737358 0
M  V30 5340 C 518.001 -2.76942 0.140884 0
M  V30 5341 H 520.952 -1.49088 0.543922 0
M  V30 5342 H 520.973 -3.63147 -1.13598 0
M  V30 5343 H 520.485 -3.82116 0.678876 0
M  V30 5344 H 518.586 -3.29947 -1.73107 0
M  V30 5345 H 518.699 -4.76035 -0.541053 0
M  V30 5346 H 517.063 -2.51795 -0.383572 0
M  V30 5347 H 517.846 -3.24461 1.12162 0
M  V30 5348 N 520.291 -0.0518155 -1.57515 0
M  V30 5349 C 521.538 0.621823 -1.92716 0
M  V30 5350 C 521.866 1.70813 -0.930229 0
M  V30 5351 O 521.121 1.95616 0.0573708 0
M  V30 5352 C 521.42 1.25607 -3.34601 0
M  V30 5353 C 521.086 0.297901 -4.49915 0
M  V30 5354 C 519.748 0.034243 -4.81188 0
M  V30 5355 C 522.1 -0.358738 -5.19964 0
M  V30 5356 C 519.428 -0.893479 -5.79857 0
M  V30 5357 C 521.78 -1.27466 -6.19625 0
M  V30 5358 C 520.444 -1.54698 -6.49326 0
M  V30 5359 H 519.714 0.227541 -0.705199 0
M  V30 5360 H 522.361 -0.118432 -1.91133 0
M  V30 5361 H 520.666 2.07161 -3.32553 0
M  V30 5362 H 522.363 1.78424 -3.59118 0
M  V30 5363 H 518.953 0.513581 -4.25512 0
M  V30 5364 H 523.137 -0.168133 -4.96015 0
M  V30 5365 H 518.393 -1.11193 -6.01204 0
M  V30 5366 H 522.567 -1.78953 -6.73015 0
M  V30 5367 H 520.194 -2.26748 -7.25596 0
M  V30 5368 N 521.769 1.56035 0.221574 0
M  V30 5369 C 522.997 1.8313 0.962864 0
M  V30 5370 C 523.412 0.630934 1.77946 0
M  V30 5371 O 522.769 -0.400519 1.78051 0
M  V30 5372 C 522.82 3.08742 1.88045 0
M  V30 5373 O 522.541 4.24147 1.09686 0
M  V30 5374 C 524.042 3.48824 2.73563 0
M  V30 5375 H 521.262 0.608775 0.282194 0
M  V30 5376 H 523.806 2.03124 0.23681 0
M  V30 5377 H 521.961 2.90723 2.56045 0
M  V30 5378 H 522.375 4.95505 1.71974 0
M  V30 5379 H 523.849 4.39752 3.3365 0
M  V30 5380 H 524.326 2.70575 3.45956 0
M  V30 5381 H 524.932 3.69282 2.10976 0
M  V30 5382 N 523.247 -0.488276 1.49845 0
M  V30 5383 C 524.494 -1.24157 1.59973 0
M  V30 5384 C 524.822 -1.92293 0.292182 0
M  V30 5385 O 524.077 -1.81942 -0.720813 0
M  V30 5386 C 524.376 -2.32152 2.71735 0
M  V30 5387 C 524.042 -1.81387 4.12807 0
M  V30 5388 C 522.704 -1.67262 4.51195 0
M  V30 5389 C 525.056 -1.43537 5.01045 0
M  V30 5390 C 522.384 -1.13685 5.7558 0
M  V30 5391 C 524.736 -0.914081 6.25961 0
M  V30 5392 C 523.4 -0.759327 6.63167 0
M  V30 5393 H 522.67 -0.454322 0.585383 0
M  V30 5394 H 525.317 -0.540261 1.83721 0
M  V30 5395 H 523.622 -3.08122 2.42008 0
M  V30 5396 H 525.319 -2.90164 2.76778 0
M  V30 5397 H 521.909 -1.93344 3.82513 0
M  V30 5398 H 526.093 -1.53292 4.72033 0
M  V30 5399 H 521.349 -1.00426 6.03096 0
M  V30 5400 H 525.523 -0.612066 6.93705 0
M  V30 5401 H 523.15 -0.342002 7.5943 0
M  V30 5402 N 524.725 -1.39134 -0.740242 0
M  V30 5403 C 525.655 -1.40165 -1.86751 0
M  V30 5404 C 526.636 -0.265708 -1.68012 0
M  V30 5405 O 527.821 -0.47076 -1.88408 0
M  V30 5406 C 524.951 -1.2392 -3.2444 0
M  V30 5407 C 523.905 -2.34858 -3.57807 0
M  V30 5408 C 523.231 -2.03707 -4.94376 0
M  V30 5409 C 524.531 -3.77159 -3.61315 0
M  V30 5410 H 526.225 -2.345 -1.86145 0
M  V30 5411 H 523.771 -1.12875 -0.89416 0
M  V30 5412 H 525.724 -1.23263 -4.02969 0
M  V30 5413 H 524.448 -0.26051 -3.25559 0
M  V30 5414 H 523.107 -2.34723 -2.81604 0
M  V30 5415 H 522.755 -1.04289 -4.9207 0
M  V30 5416 H 522.455 -2.78016 -5.17669 0
M  V30 5417 H 523.979 -2.04691 -5.75268 0
M  V30 5418 H 525.393 -3.79252 -4.29931 0
M  V30 5419 H 523.79 -4.50784 -3.96124 0
M  V30 5420 H 524.86 -4.08513 -2.61238 0
M  V30 5421 N 526.204 0.969867 -1.24223 0
M  V30 5422 C 527.452 1.70918 -1.0785 0
M  V30 5423 C 527.773 1.91186 0.383763 0
M  V30 5424 O 527.043 1.48806 1.27411 0
M  V30 5425 H 525.623 0.633334 -0.396103 0
M  V30 5426 H 528.285 1.16689 -1.56108 0
M  V30 5427 H 527.381 2.69455 -1.57482 0
M  V30 5428 N 527.682 1.05563 1.17022 0
M  V30 5429 C 528.63 0.653887 2.2322 0
M  V30 5430 C 529.624 -0.326642 1.66221 0
M  V30 5431 O 530.83 -0.192301 1.7897 0
M  V30 5432 H 527.205 0.193297 0.726733 0
M  V30 5433 H 529.176 1.5596 2.54399 0
M  V30 5434 C 527.925 0.0485434 3.47666 0
M  V30 5435 H 527.248 0.79413 3.91834 0
M  V30 5436 H 528.688 -0.195133 4.23551 0
M  V30 5437 C 527.147 -1.20583 3.14581 0
M  V30 5438 O 527.677 -2.29475 3.29703 0
M  V30 5439 N 525.883 -1.10493 2.68774 0
M  V30 5440 H 525.43 -0.218795 2.56669 0
M  V30 5441 H 525.388 -1.94507 2.47011 0
M  V30 5442 N 529.16 -1.33526 0.837174 0
M  V30 5443 C 530.107 -2.29248 0.267169 0
M  V30 5444 C 531.077 -1.54252 -0.616071 0
M  V30 5445 O 532.262 -1.82559 -0.554699 0
M  V30 5446 C 529.402 -3.40638 -0.553152 0
M  V30 5447 C 528.515 -4.30548 0.353921 0
M  V30 5448 C 527.65 -5.29051 -0.477339 0
M  V30 5449 C 526.689 -6.106 0.42823 0
M  V30 5450 N 525.826 -7.01152 -0.364801 0
M  V30 5451 H 530.666 -2.77398 1.08877 0
M  V30 5452 H 528.203 -1.36496 0.54838 0
M  V30 5453 H 530.161 -4.03921 -1.04422 0
M  V30 5454 H 528.791 -2.93685 -1.33973 0
M  V30 5455 H 527.843 -3.68001 0.963289 0
M  V30 5456 H 529.155 -4.87631 1.04964 0
M  V30 5457 H 528.309 -5.97853 -1.0323 0
M  V30 5458 H 527.048 -4.72541 -1.2065 0
M  V30 5459 H 526.053 -5.40718 0.995219 0
M  V30 5460 H 527.278 -6.69193 1.15573 0
M  V30 5461 H 525.224 -6.47092 -1.07738 0
M  V30 5462 H 525.141 -7.5551 0.272238 0
M  V30 5463 H 526.409 -7.74263 -0.902054 0
M  V30 5464 N 530.638 -0.59345 -1.46 0
M  V30 5465 C 531.868 -0.0889642 -2.06408 0
M  V30 5466 C 532.276 1.22597 -1.44106 0
M  V30 5467 O 531.619 1.75448 -0.544398 0
M  V30 5468 C 531.681 0.139902 -3.59228 0
M  V30 5469 C 531.345 -1.09107 -4.43784 0
M  V30 5470 C 532.342 -2.00577 -4.79651 0
M  V30 5471 C 530.027 -1.31593 -4.84756 0
M  V30 5472 C 532.021 -3.12873 -5.55328 0
M  V30 5473 C 529.708 -2.44192 -5.60191 0
M  V30 5474 C 530.706 -3.34661 -5.95392 0
M  V30 5475 O 530.394 -4.45302 -6.69299 0
M  V30 5476 H 530.126 -0.0594613 -0.67338 0
M  V30 5477 H 532.68 -0.817 -1.88452 0
M  V30 5478 H 530.91 0.922672 -3.75531 0
M  V30 5479 H 532.599 0.594228 -4.01527 0
M  V30 5480 H 533.365 -1.84425 -4.48567 0
M  V30 5481 H 529.244 -0.620801 -4.56801 0
M  V30 5482 H 532.788 -3.83511 -5.82722 0
M  V30 5483 H 528.685 -2.60303 -5.90688 0
M  V30 5484 H 529.453 -4.43805 -6.87735 0
M  V30 5485 N 532.116 1.54067 -0.331816 0
M  V30 5486 C 533.026 2.28322 0.539104 0
M  V30 5487 C 534.042 1.32985 1.1221 0
M  V30 5488 O 535.218 1.6601 1.1403 0
M  V30 5489 C 532.283 3.03277 1.68 0
M  V30 5490 C 531.344 4.14216 1.12798 0
M  V30 5491 C 530.577 4.85588 2.2145 0
M  V30 5492 O 530.8 4.56536 3.41952 0
M  V30 5493 O 529.734 5.72309 1.86404 0
M  V30 5494 H 533.56 3.03632 -0.0641692 0
M  V30 5495 H 531.145 1.49083 -0.0972365 0
M  V30 5496 H 533.027 3.50189 2.34405 0
M  V30 5497 H 531.702 2.30834 2.2693 0
M  V30 5498 H 530.609 3.71635 0.428782 0
M  V30 5499 H 531.942 4.88727 0.583698 0
M  V30 5500 N 533.594 0.0601682 1.57485 0
M  V30 5501 C 534.819 -0.624416 1.97777 0
M  V30 5502 C 535.244 -1.63051 0.937867 0
M  V30 5503 O 534.602 -1.81036 -0.0978845 0
M  V30 5504 C 534.65 -1.27979 3.37126 0
M  V30 5505 O 533.754 -2.39556 3.35688 0
M  V30 5506 H 533.095 -0.161581 0.64404 0
M  V30 5507 H 535.625 0.131237 2.04179 0
M  V30 5508 H 535.635 -1.62937 3.74053 0
M  V30 5509 H 534.31 -0.542501 4.12347 0
M  V30 5510 H 532.887 -2.06478 3.10517 0
M  V30 5511 N 535.072 -1.5615 -0.213296 0
M  V30 5512 C 536.312 -1.81325 -0.943435 0
M  V30 5513 C 536.676 -0.634934 -1.81198 0
M  V30 5514 O 537.877 -0.766166 -2.5765 0
M  V30 5515 C 536.148 -3.11437 -1.75334 0
M  V30 5516 S 537.707 -3.57955 -2.53799 0
M  V30 5517 H 534.525 -0.636538 -0.316766 0
M  V30 5518 H 537.127 -1.94387 -0.208313 0
M  V30 5519 H 535.831 -3.95228 -1.10556 0
M  V30 5520 H 535.362 -3.01204 -2.53061 0
M  V30 5521 H 537.377 -3.21947 -3.77577 0
M  V30 5522 N 536.55 0.480323 -1.50102 0
M  V30 5523 C 537.778 1.25657 -1.64371 0
M  V30 5524 C 538.193 1.86011 -0.323316 0
M  V30 5525 O 537.55 1.68803 0.693682 0
M  V30 5526 C 537.601 2.37197 -2.728 0
M  V30 5527 O 537.322 1.7932 -3.9972 0
M  V30 5528 C 538.823 3.2823 -2.9796 0
M  V30 5529 H 536.043 0.380369 -0.552775 0
M  V30 5530 H 538.587 0.574379 -1.96268 0
M  V30 5531 H 536.742 3.01208 -2.43623 0
M  V30 5532 H 537.156 2.52701 -4.59611 0
M  V30 5533 H 538.63 4.02725 -3.77513 0
M  V30 5534 H 539.107 3.86462 -2.08671 0
M  V30 5535 H 539.713 2.69964 -3.28633 0
M  V30 5536 N 538.028 1.39524 0.732853 0
M  V30 5537 C 539.253 1.40329 1.52717 0
M  V30 5538 C 539.678 0.000286574 1.881 0
M  V30 5539 O 539.036 -0.987262 1.52062 0
M  V30 5540 C 539.084 2.28464 2.78992 0
M  V30 5541 O 538.188 1.716 3.75003 0
M  V30 5542 H 537.529 0.47778 0.461109 0
M  V30 5543 H 540.059 1.83546 0.903996 0
M  V30 5544 H 540.069 2.43051 3.27705 0
M  V30 5545 H 538.744 3.30425 2.52572 0
M  V30 5546 H 537.321 1.66267 3.33781 0
M  V30 5547 N 539.506 -0.963266 1.24736 0
M  V30 5548 C 540.469 -2.04013 1.04457 0
M  V30 5549 C 541.469 -1.608 0.000335555 0
M  V30 5550 O 542.659 -1.72515 0.241719 0
M  V30 5551 C 539.791 -3.35858 0.584162 0
M  V30 5552 H 540.984 -2.23436 2.00041 0
M  V30 5553 H 538.537 -1.13914 1.07021 0
M  V30 5554 H 539.272 -3.22128 -0.374673 0
M  V30 5555 H 539.057 -3.68568 1.3379 0
M  V30 5556 H 540.547 -4.1502 0.463451 0
M  V30 5557 N 540.985 -1.06182 -1.16461 0
M  V30 5558 C 542.233 -0.776326 -1.86595 0
M  V30 5559 C 542.554 0.69921 -1.82033 0
M  V30 5560 O 541.824 1.50579 -1.2531 0
M  V30 5561 H 540.404 -0.284184 -0.690832 0
M  V30 5562 H 543.066 -1.34308 -1.41235 0
M  V30 5563 H 542.162 -1.10022 -2.92064 0
M  V30 5564 N 542.463 1.3308 -0.844243 0
M  V30 5565 C 543.879 1.50447 -0.532729 0
M  V30 5566 C 544.079 1.78292 0.938837 0
M  V30 5567 O 543.135 1.84635 1.72239 0
M  V30 5568 C 544.448 2.65555 -1.41072 0
M  V30 5569 C 545.996 2.7944 -1.41005 0
M  V30 5570 C 546.471 3.97616 -2.27301 0
M  V30 5571 N 547.962 4.0486 -2.2504 0
M  V30 5572 C 548.697 4.95508 -2.88547 0
M  V30 5573 N 548.193 5.91236 -3.61126 0
M  V30 5574 N 549.986 4.88548 -2.77989 0
M  V30 5575 H 542.137 1.13269 -1.79677 0
M  V30 5576 H 544.4 0.55734 -0.766861 0
M  V30 5577 H 544.106 2.51675 -2.45668 0
M  V30 5578 H 543.98 3.61089 -1.09061 0
M  V30 5579 H 546.367 2.92749 -0.371784 0
M  V30 5580 H 546.448 1.8465 -1.77026 0
M  V30 5581 H 546.092 3.85066 -3.3119 0
M  V30 5582 H 546.022 4.91661 -1.88619 0
M  V30 5583 H 548.513 3.36353 -1.72264 0
M  V30 5584 H 548.826 6.57079 -4.06776 0
M  V30 5585 H 547.171 5.91295 -3.65234 0
M  V30 5586 H 550.362 4.12729 -2.20846 0
M  V30 5587 H 550.535 5.58994 -3.27765 0
M  V30 5588 N 543.941 0.601185 1.45683 0
M  V30 5589 C 545.166 0.0982245 2.07167 0
M  V30 5590 C 545.591 -1.20546 1.44396 0
M  V30 5591 O 544.949 -1.73247 0.534347 0
M  V30 5592 C 544.997 -0.0346976 3.60583 0
M  V30 5593 O 544.101 -1.08657 3.97828 0
M  V30 5594 H 543.442 0.0711618 0.660176 0
M  V30 5595 H 545.972 0.829376 1.87036 0
M  V30 5596 H 545.982 -0.234969 4.07323 0
M  V30 5597 H 544.657 0.917265 4.05659 0
M  V30 5598 H 543.234 -0.863275 3.6277 0
M  V30 5599 N 545.419 -1.53889 0.339982 0
M  V30 5600 C 546.696 -1.93084 -0.312719 0
M  V30 5601 C 547.076 -1.2712 -1.68534 0
M  V30 5602 O 546.424 -0.420835 -2.24591 0
M  V30 5603 C 546.634 -3.4683 -0.388558 0
M  V30 5604 C 547.982 -4.19732 -0.641088 0
M  V30 5605 O 549.006 -3.53075 -0.470818 0
M  V30 5606 O 547.865 -5.3781 -0.970685 0
M  V30 5607 H 544.959 -0.806784 -0.18174 0
M  V30 5608 H 547.505 -1.65137 0.390898 0
M  V30 5609 H 546.277 -3.87055 0.574821 0
M  V30 5610 H 545.9 -3.80933 -1.1391 0
M  V30 5611 N 546.897 -0.0685191 -1.57451 0
M  V30 5612 C 548.145 0.60016 -1.92983 0
M  V30 5613 C 548.466 1.70348 -0.949028 0
M  V30 5614 O 547.736 1.959 0.00335647 0
M  V30 5615 H 546.316 0.224682 -0.712409 0
M  V30 5616 H 548.978 -0.125605 -1.94495 0
M  V30 5617 H 548.074 1.02759 -2.94698 0
M  V30 5618 N 548.375 1.56261 0.205012 0
M  V30 5619 C 549.322 1.93754 1.25411 0
M  V30 5620 C 550.292 0.796826 1.45739 0
M  V30 5621 O 551.477 1.05414 1.59036 0
M  V30 5622 C 548.617 2.27383 2.59598 0
M  V30 5623 C 547.73 3.5447 2.46931 0
M  V30 5624 C 546.865 3.77468 3.73753 0
M  V30 5625 C 545.904 4.98014 3.55877 0
M  V30 5626 N 545.041 5.17316 4.74688 0
M  V30 5627 H 549.881 2.83203 0.92737 0
M  V30 5628 H 547.418 1.40158 0.446574 0
M  V30 5629 H 549.376 2.44895 3.37761 0
M  V30 5630 H 548.006 1.41088 2.90335 0
M  V30 5631 H 547.058 3.45061 1.60116 0
M  V30 5632 H 548.37 4.42789 2.29651 0
M  V30 5633 H 547.524 3.95165 4.60358 0
M  V30 5634 H 546.263 2.87461 3.93976 0
M  V30 5635 H 545.268 4.80249 2.67657 0
M  V30 5636 H 546.493 5.8952 3.37109 0
M  V30 5637 H 544.439 4.30255 4.95194 0
M  V30 5638 H 544.356 5.99796 4.60197 0
M  V30 5639 H 545.624 5.39463 5.62672 0
M  V30 5640 N 549.853 -0.472356 1.50355 0
M  V30 5641 C 550.786 -1.58923 1.63764 0
M  V30 5642 C 551.764 -1.55173 0.485793 0
M  V30 5643 O 552.948 -1.74815 0.705132 0
M  V30 5644 C 550.075 -2.97497 1.61905 0
M  V30 5645 C 549.121 -3.19405 2.82635 0
M  V30 5646 S 549.954 -2.99441 4.43954 0
M  V30 5647 C 551.11 -4.40359 4.44786 0
M  V30 5648 H 551.343 -1.47309 2.58239 0
M  V30 5649 H 548.876 -0.659601 1.39602 0
M  V30 5650 H 550.834 -3.77389 1.61518 0
M  V30 5651 H 549.495 -3.06502 0.686683 0
M  V30 5652 H 548.688 -4.20636 2.77636 0
M  V30 5653 H 548.29 -2.47283 2.80583 0
M  V30 5654 H 550.582 -5.32969 4.1827 0
M  V30 5655 H 551.525 -4.50403 5.46391 0
M  V30 5656 H 551.933 -4.22378 3.74509 0
M  V30 5657 N 551.331 -1.39911 -0.725443 0
M  V30 5658 C 552.577 -1.38862 -1.48624 0
M  V30 5659 C 552.932 0.0125913 -1.92396 0
M  V30 5660 O 552.225 0.981046 -1.64578 0
M  V30 5661 C 552.419 -2.30368 -2.7325 0
M  V30 5662 C 552.248 -3.79247 -2.41665 0
M  V30 5663 C 551.018 -4.48119 -2.3349 0
M  V30 5664 C 553.216 -4.70988 -2.06579 0
M  V30 5665 N 551.198 -5.82282 -1.94476 0
M  V30 5666 C 552.569 -5.93873 -1.78087 0
M  V30 5667 C 554.624 -4.58917 -1.9313 0
M  V30 5668 C 553.327 -7.06036 -1.37499 0
M  V30 5669 C 555.353 -5.71012 -1.53946 0
M  V30 5670 C 554.715 -6.92976 -1.26345 0
M  V30 5671 H 550.814 -0.563394 -0.54232 0
M  V30 5672 H 553.398 -1.75542 -0.842213 0
M  V30 5673 H 551.569 -1.95831 -3.35417 0
M  V30 5674 H 553.301 -2.20245 -3.39521 0
M  V30 5675 H 550.056 -4.01677 -2.50904 0
M  V30 5676 H 550.48 -6.53307 -1.77535 0
M  V30 5677 H 555.122 -3.65149 -2.13134 0
M  V30 5678 H 552.84 -7.99697 -1.16237 0
M  V30 5679 H 556.426 -5.63664 -1.44132 0
M  V30 5680 H 555.306 -7.78243 -0.964787 0
M  V30 5681 N 552.809 0.956637 -1.25245 0
M  V30 5682 C 554.049 1.71585 -1.11076 0
M  V30 5683 C 554.413 1.88916 0.34277 0
M  V30 5684 O 555.614 2.61875 0.606227 0
M  V30 5685 C 553.885 3.06267 -1.84215 0
M  V30 5686 S 555.444 3.97469 -1.85914 0
M  V30 5687 H 552.262 0.589803 -0.397055 0
M  V30 5688 H 554.864 1.14114 -1.58739 0
M  V30 5689 H 553.568 2.91322 -2.89067 0
M  V30 5690 H 553.099 3.688 -1.36931 0
M  V30 5691 H 555.114 4.87316 -0.93474 0
M  V30 5692 N 554.287 1.06798 1.15896 0
M  V30 5693 C 555.25 0.687328 2.18651 0
M  V30 5694 C 556.25 -0.269559 1.58524 0
M  V30 5695 O 557.44 -0.0512627 1.74125 0
M  V30 5696 C 554.572 0.0121642 3.40898 0
M  V30 5697 H 555.765 1.59701 2.53842 0
M  V30 5698 H 553.318 0.863828 1.3026 0
M  V30 5699 H 554.053 -0.910025 3.1127 0
M  V30 5700 H 553.838 0.700309 3.85795 0
M  V30 5701 H 555.328 -0.239703 4.16911 0
M  V30 5702 N 555.766 -1.3263 0.851289 0
M  V30 5703 C 556.994 -2.01563 0.466899 0
M  V30 5704 C 557.409 -1.63996 -0.935447 0
M  V30 5705 O 556.766 -0.85957 -1.6099 0
M  V30 5706 C 556.817 -3.56613 0.592433 0
M  V30 5707 O 556.538 -3.92828 1.93954 0
M  V30 5708 C 558.039 -4.42818 0.206612 0
M  V30 5709 H 555.259 -0.645307 0.183902 0
M  V30 5710 H 557.803 -1.69285 1.1473 0
M  V30 5711 H 555.958 -3.87379 -0.0401936 0
M  V30 5712 H 556.372 -4.87545 1.9339 0
M  V30 5713 H 557.846 -5.50918 0.345462 0
M  V30 5714 H 558.323 -4.30844 -0.85264 0
M  V30 5715 H 558.929 -4.17434 0.814176 0
M  V30 5716 N 557.244 -0.608902 -1.45362 0
M  V30 5717 C 558.472 -0.111013 -2.06602 0
M  V30 5718 C 558.887 1.20516 -1.45332 0
M  V30 5719 O 558.244 1.73437 -0.567978 0
M  V30 5720 C 558.295 0.033688 -3.61484 0
M  V30 5721 O 558.016 -1.23041 -4.20467 0
M  V30 5722 C 559.517 0.562882 -4.39712 0
M  V30 5723 H 556.737 -0.0694453 -0.667397 0
M  V30 5724 H 559.281 -0.837008 -1.86586 0
M  V30 5725 H 557.436 0.710016 -3.80838 0
M  V30 5726 H 557.85 -1.06094 -5.13658 0
M  V30 5727 H 559.324 0.613213 -5.48583 0
M  V30 5728 H 559.801 1.58543 -4.09586 0
M  V30 5729 H 560.407 -0.0794454 -4.25226 0
M  V30 5730 N 558.722 1.53707 -0.348139 0
M  V30 5731 C 559.685 2.23812 0.494058 0
M  V30 5732 C 560.685 1.23989 1.02388 0
M  V30 5733 O 561.875 1.48395 0.912396 0
M  V30 5734 C 559.007 2.96133 1.68872 0
M  V30 5735 H 560.2 2.99663 -0.119141 0
M  V30 5736 H 557.753 1.55983 -0.0995539 0
M  V30 5737 H 558.488 2.24481 2.34049 0
M  V30 5738 H 558.273 3.69357 1.31596 0
M  V30 5739 H 559.763 3.49475 2.28597 0
M  V30 5740 N 560.2 0.0768682 1.57412 0
M  V30 5741 C 561.148 -0.906229 2.1422 0
M  V30 5742 C 562.142 -1.30477 1.08037 0
M  V30 5743 O 563.348 -1.28143 1.2641 0
M  V30 5744 H 559.723 -0.310207 0.685037 0
M  V30 5745 H 561.694 -0.402228 2.95677 0
M  V30 5746 C 560.443 -2.16245 2.72274 0
M  V30 5747 H 559.766 -1.86463 3.53655 0
M  V30 5748 H 561.206 -2.83134 3.15613 0
M  V30 5749 C 559.665 -2.92437 1.67279 0
M  V30 5750 O 560.195 -3.86322 1.10081 0
M  V30 5751 N 558.401 -2.55637 1.38195 0
M  V30 5752 H 557.948 -1.79363 1.84897 0
M  V30 5753 H 557.906 -3.06919 0.681787 0
M  V30 5754 N 561.678 -1.56367 -0.196722 0
M  V30 5755 C 562.908 -1.84371 -0.932254 0
M  V30 5756 C 563.316 -0.657013 -1.77426 0
M  V30 5757 O 562.659 0.383576 -1.79651 0
M  V30 5758 C 562.721 -3.06454 -1.87952 0
M  V30 5759 C 562.385 -4.40425 -1.21962 0
M  V30 5760 C 563.382 -5.16457 -0.597343 0
M  V30 5761 C 561.067 -4.8716 -1.22396 0
M  V30 5762 C 563.061 -6.37399 0.0117913 0
M  V30 5763 C 560.748 -6.08038 -0.610995 0
M  V30 5764 C 561.746 -6.83 0.00580487 0
M  V30 5765 O 561.434 -8.01589 0.609173 0
M  V30 5766 H 561.166 -0.616377 -0.277589 0
M  V30 5767 H 563.72 -2.04329 -0.209452 0
M  V30 5768 H 561.95 -2.82377 -2.64197 0
M  V30 5769 H 563.639 -3.21118 -2.48271 0
M  V30 5770 H 564.405 -4.81445 -0.586142 0
M  V30 5771 H 560.284 -4.2877 -1.69345 0
M  V30 5772 H 563.828 -6.9585 0.493836 0
M  V30 5773 H 559.725 -6.42519 -0.619693 0
M  V30 5774 H 560.493 -8.16935 0.505919 0
M  V30 5775 N 563.156 0.464375 -1.50603 0
M  V30 5776 C 564.433 1.22549 -1.5245 0
M  V30 5777 C 564.813 2.09327 -0.273035 0
M  V30 5778 O 564.161 2.16074 0.743242 0
M  V30 5779 C 564.371 2.05074 -2.82393 0
M  V30 5780 C 565.719 2.63036 -3.33313 0
M  V30 5781 O 566.743 2.1531 -2.8376 0
M  V30 5782 O 565.602 3.5001 -4.19709 0
M  V30 5783 H 562.696 0.556471 -0.611775 0
M  V30 5784 H 565.242 0.475648 -1.62898 0
M  V30 5785 H 564.014 1.41169 -3.64948 0
M  V30 5786 H 563.637 2.87179 -2.7498 0
M  V30 5787 N 564.634 1.40294 0.718013 0
M  V30 5788 C 565.911 1.2894 1.47084 0
M  V30 5789 C 566.291 -0.0933625 2.10893 0
M  V30 5790 O 565.639 -1.10598 1.99951 0
M  V30 5791 C 565.849 2.4264 2.50852 0
M  V30 5792 C 567.197 2.8276 3.16752 0
M  V30 5793 O 568.221 2.42215 2.61171 0
M  V30 5794 O 567.08 3.528 4.17366 0
M  V30 5795 H 564.174 0.506236 0.653952 0
M  V30 5796 H 566.72 1.52208 0.750394 0
M  V30 5797 H 565.492 3.35009 2.022 0
M  V30 5798 H 565.115 2.21129 3.30435 0
M  V30 5799 N 566.112 -0.949982 1.2575 0
M  V30 5800 C 567.389 -1.6718 1.01539 0
M  V30 5801 C 567.769 -2.06095 -0.456942 0
M  V30 5802 O 567.117 -1.77792 -1.43534 0
M  V30 5803 C 567.327 -2.8906 1.95564 0
M  V30 5804 C 568.675 -3.60909 2.23673 0
M  V30 5805 O 569.699 -2.9915 1.9336 0
M  V30 5806 O 568.558 -4.72127 2.75243 0
M  V30 5807 H 565.652 -0.731697 0.385419 0
M  V30 5808 H 568.198 -1.00249 1.36924 0
M  V30 5809 H 566.97 -2.57128 2.94959 0
M  V30 5810 H 566.593 -3.63719 1.60605 0
M  V30 5811 N 567.59 -1.07411 -1.15328 0
M  V30 5812 C 569.006 -0.799759 -1.38116 0
M  V30 5813 C 569.206 0.59572 -1.92493 0
M  V30 5814 O 568.262 1.35433 -2.13106 0
M  V30 5815 C 569.575 -1.87407 -2.35158 0
M  V30 5816 C 571.123 -1.89889 -2.48819 0
M  V30 5817 C 571.598 -2.96406 -3.49153 0
M  V30 5818 N 573.089 -2.95512 -3.56689 0
M  V30 5819 C 573.824 -3.74575 -4.34144 0
M  V30 5820 N 573.32 -4.63488 -5.14928 0
M  V30 5821 N 575.113 -3.62919 -4.29239 0
M  V30 5822 H 567.264 -1.97411 -0.78374 0
M  V30 5823 H 569.527 -0.856113 -0.407154 0
M  V30 5824 H 569.233 -2.8768 -2.0232 0
M  V30 5825 H 569.107 -1.73471 -3.34944 0
M  V30 5826 H 571.494 -0.902677 -2.80955 0
M  V30 5827 H 571.575 -2.07904 -1.49029 0
M  V30 5828 H 571.219 -3.96227 -3.17752 0
M  V30 5829 H 571.149 -2.75638 -4.48699 0
M  V30 5830 H 573.64 -2.31061 -2.99031 0
M  V30 5831 H 573.953 -5.20445 -5.71276 0
M  V30 5832 H 572.298 -4.67537 -5.14232 0
M  V30 5833 H 575.489 -2.92833 -3.65194 0
M  V30 5834 H 575.662 -4.24777 -4.89355 0
M  V30 5835 N 569.068 1.32177 -0.85831 0
M  V30 5836 C 570.015 2.28794 -0.303607 0
M  V30 5837 C 570.985 1.55213 0.591453 0
M  V30 5838 O 572.17 1.83418 0.525585 0
M  V30 5839 C 569.31 3.41475 0.49889 0
M  V30 5840 C 568.423 4.2993 -0.422373 0
M  V30 5841 C 567.558 5.29743 0.393111 0
M  V30 5842 C 566.597 6.09842 -0.525317 0
M  V30 5843 N 565.734 7.01643 0.253208 0
M  V30 5844 H 570.574 2.75631 -1.13276 0
M  V30 5845 H 568.111 1.35606 -0.570026 0
M  V30 5846 H 570.069 4.05531 0.979826 0
M  V30 5847 H 568.699 2.95779 1.29284 0
M  V30 5848 H 567.751 3.66422 -1.02171 0
M  V30 5849 H 569.063 4.85899 -1.12709 0
M  V30 5850 H 568.217 5.9942 0.937056 0
M  V30 5851 H 566.956 4.744 1.13117 0
M  V30 5852 H 565.961 5.39066 -1.08112 0
M  V30 5853 H 567.186 6.6727 -1.26205 0
M  V30 5854 H 565.132 6.48725 0.974295 0
M  V30 5855 H 565.049 7.54981 -0.392398 0
M  V30 5856 H 566.317 7.756 0.778761 0
M  V30 5857 N 570.547 0.616602 1.45037 0
M  V30 5858 C 571.793 0.123965 2.03022 0
M  V30 5859 C 572.148 -1.23508 1.47525 0
M  V30 5860 O 571.441 -1.80453 0.643981 0
M  V30 5861 C 571.635 0.0356829 3.57382 0
M  V30 5862 C 571.464 1.38462 4.27853 0
M  V30 5863 C 570.234 1.96766 4.65415 0
M  V30 5864 C 572.432 2.31536 4.59234 0
M  V30 5865 N 570.414 3.25046 5.20786 0
M  V30 5866 C 571.785 3.4442 5.15533 0
M  V30 5867 C 573.84 2.30796 4.41178 0
M  V30 5868 C 572.543 4.56742 5.55679 0
M  V30 5869 C 574.569 3.42171 4.82362 0
M  V30 5870 C 573.931 4.53778 5.38762 0
M  V30 5871 H 570.03 0.0889428 0.776925 0
M  V30 5872 H 572.614 0.816925 1.76733 0
M  V30 5873 H 570.785 -0.62652 3.83314 0
M  V30 5874 H 572.517 -0.464443 4.02026 0
M  V30 5875 H 569.272 1.4987 4.49261 0
M  V30 5876 H 569.696 3.90592 5.52962 0
M  V30 5877 H 574.338 1.45765 3.96878 0
M  V30 5878 H 572.056 5.42491 5.9894 0
M  V30 5879 H 575.642 3.42757 4.70116 0
M  V30 5880 H 574.522 5.38536 5.70043 0
M  V30 5881 N 572.025 -1.5352 0.356285 0
M  V30 5882 C 573.273 -2.00719 -0.235837 0
M  V30 5883 C 573.594 -1.24551 -1.5004 0
M  V30 5884 O 572.864 -0.356185 -1.92635 0
M  V30 5885 H 571.444 -0.741542 -0.0901366 0
M  V30 5886 H 574.106 -1.88887 0.480378 0
M  V30 5887 H 573.202 -3.08551 -0.469357 0
M  V30 5888 N 573.503 -0.0852151 -1.57369 0
M  V30 5889 C 574.75 0.580806 -1.93992 0
M  V30 5890 C 575.078 1.68801 -0.966252 0
M  V30 5891 O 574.333 1.95694 0.0158649 0
M  V30 5892 C 574.632 1.18482 -3.3719 0
M  V30 5893 C 574.298 0.2024 -4.50446 0
M  V30 5894 C 572.96 -0.0678318 -4.81152 0
M  V30 5895 C 575.312 -0.46895 -5.19086 0
M  V30 5896 C 572.64 -1.01627 -5.77831 0
M  V30 5897 C 574.992 -1.4058 -6.16782 0
M  V30 5898 C 573.656 -1.68436 -6.45899 0
M  V30 5899 H 572.926 0.212532 -0.709867 0
M  V30 5900 H 575.573 -0.158947 -1.90839 0
M  V30 5901 H 573.878 2.0006 -3.36873 0
M  V30 5902 H 575.575 1.70767 -3.62822 0
M  V30 5903 H 572.165 0.423208 -4.26505 0
M  V30 5904 H 576.349 -0.273307 -4.95547 0
M  V30 5905 H 571.605 -1.2392 -5.9871 0
M  V30 5906 H 575.779 -1.93188 -6.69068 0
M  V30 5907 H 573.406 -2.42088 -7.20623 0
M  V30 5908 N 574.981 1.5647 0.188427 0
M  V30 5909 C 576.221 1.82803 0.914469 0
M  V30 5910 C 576.585 0.663681 1.80165 0
M  V30 5911 O 577.786 0.807059 2.56398 0
M  V30 5912 C 576.057 3.14187 1.70357 0
M  V30 5913 S 577.616 3.61947 2.48072 0
M  V30 5914 H 574.434 0.641497 0.306599 0
M  V30 5915 H 577.036 1.94694 0.177361 0
M  V30 5916 H 575.74 3.96937 1.04255 0
M  V30 5917 H 575.271 3.05192 2.48237 0
M  V30 5918 H 577.286 3.27913 3.72407 0
M  V30 5919 N 576.459 -0.456382 1.50847 0
M  V30 5920 C 577.87 -1.03685 1.55262 0
M  V30 5921 C 578.221 -1.92779 0.364771 0
M  V30 5922 O 577.346 -2.10043 -0.52068 0
M  V30 5923 C 577.941 -1.88718 2.81374 0
M  V30 5924 C 576.5 -2.41847 2.88422 0
M  V30 5925 C 575.647 -1.20564 2.49719 0
M  V30 5926 H 578.598 -0.238399 1.56899 0
M  V30 5927 H 578.619 -2.73957 2.6406 0
M  V30 5928 H 578.131 -1.23847 3.67809 0
M  V30 5929 H 576.232 -3.10228 2.06372 0
M  V30 5930 H 576.345 -2.75947 3.9165 0
M  V30 5931 H 574.709 -1.54504 2.02486 0
M  V30 5932 H 575.492 -0.573326 3.38479 0
M  V30 5933 N 577.937 -1.40673 -0.710563 0
M  V30 5934 C 579.214 -1.29718 -1.46398 0
M  V30 5935 C 579.594 0.082177 -2.1094 0
M  V30 5936 O 578.942 1.09536 -2.00534 0
M  V30 5937 C 579.152 -2.43967 -2.49562 0
M  V30 5938 C 580.5 -2.84436 -3.15248 0
M  V30 5939 O 581.524 -2.43597 -2.59883 0
M  V30 5940 O 580.383 -3.55008 -4.1549 0
M  V30 5941 H 577.477 -0.509697 -0.651258 0
M  V30 5942 H 580.023 -1.52603 -0.742312 0
M  V30 5943 H 578.795 -3.36076 -2.0042 0
M  V30 5944 H 578.418 -2.22879 -3.29258 0
M  V30 5945 N 579.415 0.9433 -1.26252 0
M  V30 5946 C 580.347 2.04542 -1.03417 0
M  V30 5947 C 581.36 1.62799 0.0046911 0
M  V30 5948 O 582.549 1.76944 -0.235146 0
M  V30 5949 C 579.649 3.34511 -0.543671 0
M  V30 5950 C 578.822 4.05033 -1.65128 0
M  V30 5951 C 577.881 5.13273 -1.1592 0
M  V30 5952 O 576.907 5.38095 -1.85586 0
M  V30 5953 N 578.109 5.805 -0.00649279 0
M  V30 5954 H 580.874 2.24699 -1.98319 0
M  V30 5955 H 578.435 1.11264 -1.1761 0
M  V30 5956 H 580.427 4.04212 -0.198703 0
M  V30 5957 H 578.997 3.11042 0.311711 0
M  V30 5958 H 578.217 3.29275 -2.16729 0
M  V30 5959 H 579.505 4.48903 -2.39508 0
M  V30 5960 H 578.903 5.62767 0.575347 0
M  V30 5961 H 577.46 6.51201 0.279416 0
M  V30 5962 N 580.893 1.08022 1.14757 0
M  V30 5963 C 582.141 0.805913 1.85336 0
M  V30 5964 C 582.462 -0.670162 1.83122 0
M  V30 5965 O 581.732 -1.48567 1.2769 0
M  V30 5966 H 580.312 0.295138 0.686223 0
M  V30 5967 H 582.974 1.36538 1.3908 0
M  V30 5968 H 582.07 1.14655 2.90277 0
M  V30 5969 N 582.371 -1.3172 0.865308 0
M  V30 5970 C 583.601 -2.00765 0.487543 0
M  V30 5971 C 584.009 -1.65145 -0.92325 0
M  V30 5972 O 583.352 -0.874294 -1.61561 0
M  V30 5973 C 583.414 -3.55122 0.559369 0
M  V30 5974 C 583.078 -4.14202 1.93095 0
M  V30 5975 C 584.075 -4.3165 2.89784 0
M  V30 5976 C 581.76 -4.50036 2.23099 0
M  V30 5977 C 583.754 -4.84114 4.14623 0
M  V30 5978 C 581.441 -5.02203 3.48189 0
M  V30 5979 C 582.439 -5.19192 4.43767 0
M  V30 5980 O 582.127 -5.70241 5.6664 0
M  V30 5981 H 581.859 -0.649066 0.188915 0
M  V30 5982 H 584.413 -1.69032 1.16694 0
M  V30 5983 H 582.643 -3.86295 -0.176926 0
M  V30 5984 H 584.332 -4.05428 0.195694 0
M  V30 5985 H 585.098 -4.04288 2.6791 0
M  V30 5986 H 580.977 -4.36091 1.49485 0
M  V30 5987 H 584.521 -4.9729 4.89233 0
M  V30 5988 H 580.418 -5.28997 3.69908 0
M  V30 5989 H 581.186 -5.88617 5.68746 0
M  V30 5990 N 583.85 -0.624285 -1.44708 0
M  V30 5991 C 585.075 -0.131171 -2.06985 0
M  V30 5992 C 585.5 1.18234 -1.46295 0
M  V30 5993 O 584.858 1.72375 -0.561842 0
M  V30 5994 C 584.906 -0.0226724 -3.60593 0
M  V30 5995 O 584.01 1.02314 -3.99507 0
M  V30 5996 H 583.351 -0.0816556 -0.65896 0
M  V30 5997 H 585.88 -0.859027 -1.85693 0
M  V30 5998 H 585.891 0.170138 -4.07645 0
M  V30 5999 H 584.566 -0.981685 -4.04148 0
M  V30 6000 H 583.143 0.805452 -3.64097 0
M  V30 6001 N 585.328 1.53329 -0.364422 0
M  V30 6002 C 586.258 2.28627 0.474543 0
M  V30 6003 C 587.239 1.31009 1.08492 0
M  V30 6004 O 588.424 1.59878 1.10239 0
M  V30 6005 C 585.554 3.07465 1.61501 0
M  V30 6006 C 584.508 4.1276 1.13194 0
M  V30 6007 C 583.834 4.79674 2.36255 0
M  V30 6008 C 585.134 5.21847 0.217507 0
M  V30 6009 H 586.828 2.99005 -0.153656 0
M  V30 6010 H 584.374 1.43803 -0.0753406 0
M  V30 6011 H 586.327 3.58889 2.20855 0
M  V30 6012 H 585.051 2.34775 2.27042 0
M  V30 6013 H 583.71 3.62281 0.56109 0
M  V30 6014 H 583.358 4.03557 3.00251 0
M  V30 6015 H 583.058 5.50827 2.04606 0
M  V30 6016 H 584.582 5.33892 2.96297 0
M  V30 6017 H 585.996 5.6878 0.718493 0
M  V30 6018 H 584.393 6.00099 -0.00806408 0
M  V30 6019 H 585.463 4.7921 -0.740653 0
M  V30 6020 N 586.806 0.0935595 1.57322 0
M  V30 6021 C 588.053 -0.570509 1.94297 0
M  V30 6022 C 588.381 -1.68286 0.97519 0
M  V30 6023 O 587.636 -1.95699 -0.00548655 0
M  V30 6024 C 587.935 -1.16692 3.37813 0
M  V30 6025 C 587.601 -0.178509 4.50547 0
M  V30 6026 C 586.263 0.0933475 4.81109 0
M  V30 6027 C 588.615 0.496472 5.1883 0
M  V30 6028 C 585.943 1.0469 5.77284 0
M  V30 6029 C 588.295 1.43849 6.16028 0
M  V30 6030 C 586.959 1.71859 6.44997 0
M  V30 6031 H 586.229 -0.208764 0.710984 0
M  V30 6032 H 588.876 0.169066 1.90752 0
M  V30 6033 H 587.181 -1.98271 3.37929 0
M  V30 6034 H 588.878 -1.6884 3.63722 0
M  V30 6035 H 585.468 -0.400584 4.26724 0
M  V30 6036 H 589.652 0.299584 4.95395 0
M  V30 6037 H 584.908 1.27094 5.98044 0
M  V30 6038 H 589.082 1.96734 6.68034 0
M  V30 6039 H 586.709 2.45906 7.19329 0
M  V30 6040 N 588.284 -1.56567 -0.180126 0
M  V30 6041 C 589.214 -1.98753 -1.22553 0
M  V30 6042 C 590.195 -0.86175 -1.46656 0
M  V30 6043 O 591.38 -1.12719 -1.58139 0
M  V30 6044 C 588.51 -2.33988 -2.56645 0
M  V30 6045 C 587.464 -3.49445 -2.47128 0
M  V30 6046 C 586.79 -3.70397 -3.8563 0
M  V30 6047 C 588.09 -4.83171 -1.98352 0
M  V30 6048 H 589.784 -2.86332 -0.874896 0
M  V30 6049 H 587.33 -1.37757 -0.419414 0
M  V30 6050 H 589.283 -2.62097 -3.29974 0
M  V30 6051 H 588.007 -1.43309 -2.93479 0
M  V30 6052 H 586.666 -3.2145 -1.76254 0
M  V30 6053 H 586.314 -2.77023 -4.19842 0
M  V30 6054 H 586.014 -4.48077 -3.80132 0
M  V30 6055 H 587.538 -4.00897 -4.60558 0
M  V30 6056 H 588.952 -5.10213 -2.61449 0
M  V30 6057 H 587.349 -5.64425 -2.03823 0
M  V30 6058 H 588.419 -4.75753 -0.937402 0
M  V30 6059 N 589.762 0.448376 -1.51087 0
M  V30 6060 C 591.008 1.20049 -1.6345 0
M  V30 6061 C 591.341 1.91121 -0.344444 0
M  V30 6062 O 590.616 1.83125 0.655396 0
M  V30 6063 C 590.899 2.22624 -2.83038 0
M  V30 6064 C 590.752 1.55708 -4.21989 0
M  V30 6065 C 592.071 3.23718 -2.98152 0
M  V30 6066 H 589.19 0.435085 -0.59487 0
M  V30 6067 H 591.832 0.491183 -1.83541 0
M  V30 6068 H 589.982 2.83117 -2.66039 0
M  V30 6069 H 591.654 0.986367 -4.50631 0
M  V30 6070 H 589.897 0.859647 -4.25197 0
M  V30 6071 H 590.568 2.30357 -5.01637 0
M  V30 6072 H 593.044 2.73269 -3.13788 0
M  V30 6073 H 591.92 3.92795 -3.83411 0
M  V30 6074 H 592.181 3.89179 -2.09743 0
M  V30 6075 N 591.24 1.41047 0.703093 0
M  V30 6076 C 592.203 1.42036 1.79884 0
M  V30 6077 C 593.203 0.312153 1.57741 0
M  V30 6078 O 594.393 0.571672 1.64553 0
M  V30 6079 C 591.525 1.22437 3.18154 0
M  V30 6080 H 592.718 2.39572 1.80403 0
M  V30 6081 H 590.271 1.27079 0.909977 0
M  V30 6082 H 591.006 0.257112 3.23279 0
M  V30 6083 H 590.791 2.02723 3.35627 0
M  V30 6084 H 592.281 1.25946 3.98155 0
M  V30 6085 N 592.718 -0.936591 1.26751 0
M  V30 6086 C 593.681 -2.01752 1.08761 0
M  V30 6087 C 594.681 -1.60763 0.0344435 0
M  V30 6088 O 595.871 -1.71963 0.278258 0
M  V30 6089 C 593.003 -3.34543 0.655271 0
M  V30 6090 H 594.196 -2.19143 2.04735 0
M  V30 6091 H 591.749 -1.11618 1.09413 0
M  V30 6092 H 592.484 -3.22851 -0.30626 0
M  V30 6093 H 592.269 -3.65647 1.41578 0
M  V30 6094 H 593.759 -4.13944 0.551378 0
M  V30 6095 N 594.196 -1.08629 -1.14182 0
M  V30 6096 C 595.146 -0.687882 -2.17376 0
M  V30 6097 C 596.13 0.293632 -1.58198 0
M  V30 6098 O 597.322 0.105292 -1.76687 0
M  V30 6099 C 594.451 -0.101184 -3.43151 0
M  V30 6100 C 593.537 -1.10862 -4.09354 0
M  V30 6101 N 593.928 -2.29285 -4.50846 0
M  V30 6102 C 592.226 -0.944897 -4.35876 0
M  V30 6103 C 592.927 -2.93305 -5.02342 0
M  V30 6104 N 591.903 -2.20903 -4.96692 0
M  V30 6105 H 595.705 -1.58963 -2.472 0
M  V30 6106 H 593.219 -0.961329 -1.3089 0
M  V30 6107 H 595.216 0.202209 -4.16409 0
M  V30 6108 H 593.876 0.795522 -3.14804 0
M  V30 6109 H 594.887 -2.66927 -4.43813 0
M  V30 6110 H 591.564 -0.102186 -4.17375 0
M  V30 6111 H 592.954 -3.93932 -5.44304 0
M  V30 6112 N 595.674 1.31259 -0.872281 0
M  V30 6113 C 596.584 2.32221 -0.333255 0
M  V30 6114 C 597.6 1.6481 0.558013 0
M  V30 6115 O 598.776 1.96212 0.454175 0
M  V30 6116 C 595.841 3.43708 0.454479 0
M  V30 6117 C 594.902 4.26774 -0.465024 0
M  V30 6118 C 594.135 5.32937 0.28521 0
M  V30 6119 O 594.358 5.49968 1.513 0
M  V30 6120 O 593.292 6.00834 -0.358126 0
M  V30 6121 H 597.118 2.80252 -1.17016 0
M  V30 6122 H 594.703 1.352 -0.635724 0
M  V30 6123 H 596.585 4.11656 0.900963 0
M  V30 6124 H 595.26 2.97836 1.26789 0
M  V30 6125 H 594.167 3.61571 -0.960055 0
M  V30 6126 H 595.5 4.76217 -1.2441 0
M  V30 6127 N 597.152 0.631951 1.44375 0
M  V30 6128 C 598.399 0.136767 2.02038 0
M  V30 6129 C 598.727 -1.24168 1.49709 0
M  V30 6130 O 597.982 -1.83809 0.671763 0
M  V30 6131 C 598.281 0.0735861 3.57324 0
M  V30 6132 C 597.947 1.39092 4.28911 0
M  V30 6133 C 596.609 1.75171 4.48184 0
M  V30 6134 C 598.961 2.26042 4.69632 0
M  V30 6135 C 596.289 2.97907 5.05439 0
M  V30 6136 C 598.641 3.4805 5.28246 0
M  V30 6137 C 597.305 3.84351 5.45738 0
M  V30 6138 H 596.575 0.0500466 0.739308 0
M  V30 6139 H 599.222 0.818429 1.7313 0
M  V30 6140 H 597.527 -0.691449 3.8565 0
M  V30 6141 H 599.224 -0.326091 3.99672 0
M  V30 6142 H 595.814 1.10015 4.1424 0
M  V30 6143 H 599.998 1.99463 4.54454 0
M  V30 6144 H 595.254 3.26108 5.17169 0
M  V30 6145 H 599.428 4.15658 5.5875 0
M  V30 6146 H 597.055 4.79538 5.8987 0
M  V30 6147 N 598.631 -1.53133 0.372548 0
M  V30 6148 C 599.879 -2.00958 -0.214534 0
M  V30 6149 C 600.2 -1.26135 -1.48711 0
M  V30 6150 O 599.47 -0.376597 -1.92246 0
M  V30 6151 H 598.05 -0.742456 -0.0822664 0
M  V30 6152 H 600.712 -1.88367 0.500385 0
M  V30 6153 H 599.808 -3.09031 -0.436605 0
M  V30 6154 N 600.109 -0.101901 -1.5727 0
M  V30 6155 C 601.059 0.865346 -2.1094 0
M  V30 6156 C 602.043 1.2394 -1.02605 0
M  V30 6157 O 603.235 1.21334 -1.28868 0
M  V30 6158 C 600.364 2.12187 -2.69874 0
M  V30 6159 C 599.45 1.77295 -3.85263 0
M  V30 6160 N 599.841 1.12993 -4.93017 0
M  V30 6161 C 598.139 2.06862 -3.95126 0
M  V30 6162 C 598.84 0.968631 -5.73579 0
M  V30 6163 N 597.816 1.48814 -5.22834 0
M  V30 6164 H 601.618 0.364368 -2.91633 0
M  V30 6165 H 599.132 0.101104 -1.62085 0
M  V30 6166 H 601.129 2.82431 -3.06657 0
M  V30 6167 H 599.789 2.62844 -1.90639 0
M  V30 6168 H 600.8 0.795935 -5.11747 0
M  V30 6169 H 597.477 2.59686 -3.26909 0
M  V30 6170 H 598.867 0.465231 -6.70287 0
M  V30 6171 N 601.587 1.56661 0.17182 0
M  V30 6172 C 602.55 1.9549 1.19651 0
M  V30 6173 C 603.55 0.838501 1.37207 0
M  V30 6174 O 604.74 1.10556 1.34622 0
M  V30 6175 C 601.872 2.24927 2.56166 0
M  V30 6176 H 603.065 2.87184 0.864007 0
M  V30 6177 H 600.618 1.50711 0.41425 0
M  V30 6178 H 601.353 1.35944 2.94431 0
M  V30 6179 H 601.138 3.06301 2.4479 0
M  V30 6180 H 602.628 2.55891 3.30014 0
M  V30 6181 N 603.065 -0.440357 1.51323 0
M  V30 6182 C 603.998 -1.55414 1.67098 0
M  V30 6183 C 604.976 -1.54108 0.518599 0
M  V30 6184 O 606.16 -1.7328 0.742054 0
M  V30 6185 C 603.287 -2.93996 1.68179 0
M  V30 6186 C 602.333 -3.13338 2.89347 0
M  V30 6187 S 603.166 -2.89957 4.50206 0
M  V30 6188 C 604.322 -4.30826 4.54027 0
M  V30 6189 H 604.555 -1.41798 2.61306 0
M  V30 6190 H 602.088 -0.629841 1.40969 0
M  V30 6191 H 604.046 -3.73878 1.69487 0
M  V30 6192 H 602.707 -3.04976 0.751542 0
M  V30 6193 H 601.9 -4.14652 2.86495 0
M  V30 6194 H 601.502 -2.41276 2.85766 0
M  V30 6195 H 603.794 -5.23977 4.29481 0
M  V30 6196 H 604.737 -4.38712 5.55822 0
M  V30 6197 H 605.145 -4.1434 3.83384 0
M  V30 6198 N 604.543 -1.41418 -0.695603 0
M  V30 6199 C 605.791 -1.40496 -1.45277 0
M  V30 6200 C 606.112 -0.0149538 -1.94994 0
M  V30 6201 O 605.382 0.9432 -1.71699 0
M  V30 6202 H 603.962 -0.517147 -0.539044 0
M  V30 6203 H 606.624 -1.76656 -0.823321 0
M  V30 6204 H 605.72 -2.09214 -2.31595 0
M  V30 6205 N 606.021 0.929856 -1.27246 0
M  V30 6206 C 606.951 2.04722 -1.12299 0
M  V30 6207 C 607.932 1.70082 -0.0250464 0
M  V30 6208 O 609.117 1.93176 -0.199141 0
M  V30 6209 C 606.247 3.38721 -0.767145 0
M  V30 6210 C 605.201 3.87466 -1.81808 0
M  V30 6211 C 604.527 5.18246 -1.31626 0
M  V30 6212 C 605.827 4.11095 -3.22177 0
M  V30 6213 H 607.521 2.17485 -2.05769 0
M  V30 6214 H 605.067 1.04503 -0.990715 0
M  V30 6215 H 607.02 4.16366 -0.649413 0
M  V30 6216 H 605.744 3.25967 0.203259 0
M  V30 6217 H 604.403 3.12012 -1.92468 0
M  V30 6218 H 604.051 5.01881 -0.335378 0
M  V30 6219 H 603.751 5.51829 -2.01887 0
M  V30 6220 H 605.275 5.98462 -1.21143 0
M  V30 6221 H 606.689 4.79316 -3.1453 0
M  V30 6222 H 605.086 4.55982 -3.90129 0
M  V30 6223 H 606.156 3.16468 -3.67391 0
M  V30 6224 N 607.499 1.09233 1.13605 0
M  V30 6225 C 608.409 0.741939 2.22559 0
M  V30 6226 C 609.425 -0.255236 1.72118 0
M  V30 6227 O 610.601 -0.0970747 2.01166 0
M  V30 6228 C 607.666 0.165595 3.46304 0
M  V30 6229 C 606.727 1.21846 4.11645 0
M  V30 6230 C 605.96 0.669526 5.29484 0
M  V30 6231 O 606.183 -0.508228 5.68131 0
M  V30 6232 O 605.117 1.42361 5.84822 0
M  V30 6233 H 608.943 1.65107 2.54899 0
M  V30 6234 H 606.528 0.866584 1.21699 0
M  V30 6235 H 608.41 -0.152592 4.21124 0
M  V30 6236 H 607.085 -0.716573 3.15669 0
M  V30 6237 H 605.992 1.58931 3.38662 0
M  V30 6238 H 607.325 2.07321 4.46407 0
M  V30 6239 N 608.977 -1.30795 0.87923 0
M  V30 6240 C 609.927 -2.25838 0.313276 0
M  V30 6241 C 610.911 -1.51025 -0.55499 0
M  V30 6242 O 612.103 -1.72413 -0.400353 0
M  V30 6243 C 609.232 -3.39981 -0.476204 0
M  V30 6244 C 608.318 -4.22154 0.405826 0
M  V30 6245 N 608.709 -4.82934 1.50362 0
M  V30 6246 C 607.007 -4.45552 0.199909 0
M  V30 6247 C 607.708 -5.44444 2.0483 0
M  V30 6248 N 606.684 -5.26723 1.34403 0
M  V30 6249 H 610.486 -2.70374 1.15218 0
M  V30 6250 H 608 -1.45168 0.728003 0
M  V30 6251 H 609.997 -4.07108 -0.898251 0
M  V30 6252 H 608.657 -2.96986 -1.31261 0
M  V30 6253 H 609.668 -4.82319 1.8865 0
M  V30 6254 H 606.345 -4.13169 -0.599795 0
M  V30 6255 H 607.735 -6.02701 2.96986 0
M  V30 6256 N 610.455 -0.639598 -1.44038 0
M  V30 6257 C 611.68 -0.153117 -2.06834 0
M  V30 6258 C 612.105 1.16676 -1.47541 0
M  V30 6259 O 611.463 1.71769 -0.580093 0
M  V30 6260 C 611.511 -0.0609169 -3.60549 0
M  V30 6261 O 610.615 0.98071 -4.00569 0
M  V30 6262 H 609.956 -0.0886402 -0.658057 0
M  V30 6263 H 612.486 -0.878674 -1.84771 0
M  V30 6264 H 612.496 0.126892 -4.07803 0
M  V30 6265 H 611.171 -1.0245 -4.03084 0
M  V30 6266 H 609.748 0.766789 -3.64931 0
M  V30 6267 N 611.933 1.52934 -0.380664 0
M  V30 6268 C 612.865 2.23822 0.493581 0
M  V30 6269 C 613.878 1.25761 1.03383 0
M  V30 6270 O 615.067 1.5189 0.937633 0
M  V30 6271 C 612.167 2.9342 1.69582 0
M  V30 6272 C 611.34 4.18115 1.28445 0
M  V30 6273 C 610.399 4.70788 2.35042 0
M  V30 6274 O 609.425 5.34093 1.96807 0
M  V30 6275 N 610.627 4.49899 3.66839 0
M  V30 6276 H 613.392 2.99484 -0.11371 0
M  V30 6277 H 610.953 1.60577 -0.206587 0
M  V30 6278 H 612.945 3.2556 2.40401 0
M  V30 6279 H 611.515 2.21119 2.20965 0
M  V30 6280 H 610.735 3.92109 0.405503 0
M  V30 6281 H 612.023 4.99152 0.986132 0
M  V30 6282 H 611.421 3.99349 4.0067 0
M  V30 6283 H 609.978 4.86551 4.33718 0
M  V30 6284 N 613.412 0.11024 1.57214 0
M  V30 6285 C 614.689 -0.592956 1.86396 0
M  V30 6286 C 615.069 -1.85379 1.00985 0
M  V30 6287 O 614.417 -2.28337 0.0863592 0
M  V30 6288 C 614.627 -0.893816 3.3736 0
M  V30 6289 C 615.975 -1.25069 4.05762 0
M  V30 6290 O 616.999 -0.984356 3.42329 0
M  V30 6291 O 615.858 -1.75017 5.17718 0
M  V30 6292 H 612.952 -0.29828 0.771335 0
M  V30 6293 H 615.498 0.144083 1.69087 0
M  V30 6294 H 614.27 2.6031e-05 3.913 0
M  V30 6295 H 613.893 -1.68631 3.60068 0
M  V30 6296 N 614.89 -1.56749 -0.16351 0
M  V30 6297 C 616.301 -1.72039 -0.725216 0
M  V30 6298 C 616.652 -0.72202 -1.82432 0
M  V30 6299 O 615.777 0.114942 -2.16095 0
M  V30 6300 C 616.372 -3.11932 -1.32227 0
M  V30 6301 C 614.931 -3.28879 -1.83072 0
M  V30 6302 C 614.078 -2.67984 -0.712716 0
M  V30 6303 H 617.029 -1.58579 0.0619772 0
M  V30 6304 H 617.05 -3.11015 -2.19202 0
M  V30 6305 H 616.562 -3.84572 -0.522103 0
M  V30 6306 H 614.663 -2.61209 -2.65708 0
M  V30 6307 H 614.776 -4.36688 -1.97079 0
M  V30 6308 H 613.14 -2.28005 -1.13515 0
M  V30 6309 H 613.923 -3.43216 0.0757361 0
M  V30 6310 N 616.368 0.432326 -1.51554 0
M  V30 6311 C 617.616 1.17901 -1.64146 0
M  V30 6312 C 617.937 1.91604 -0.362367 0
M  V30 6313 O 617.207 1.85764 0.621968 0
M  V30 6314 H 615.787 0.438206 -0.604966 0
M  V30 6315 H 618.449 0.495172 -1.88505 0
M  V30 6316 H 617.545 1.90584 -2.47152 0
M  V30 6317 N 617.846 1.41785 0.688094 0
M  V30 6318 C 618.809 1.43936 1.78368 0
M  V30 6319 C 619.809 0.328866 1.57401 0
M  V30 6320 O 620.999 0.589093 1.63937 0
M  V30 6321 C 618.131 1.25804 3.16838 0
M  V30 6322 H 619.324 2.41472 1.77852 0
M  V30 6323 H 616.877 1.28037 0.896448 0
M  V30 6324 H 617.612 0.291386 3.22988 0
M  V30 6325 H 617.397 2.06272 3.33458 0
M  V30 6326 H 618.887 1.30162 3.96797 0
M  V30 6327 N 619.324 -0.923095 1.27737 0
M  V30 6328 C 620.254 -2.04124 1.13383 0
M  V30 6329 C 621.235 -1.70066 0.0340658 0
M  V30 6330 O 622.42 -1.93068 0.209383 0
M  V30 6331 C 619.55 -3.3831 0.785097 0
M  V30 6332 C 618.504 -3.86496 1.8386 0
M  V30 6333 C 617.83 -5.1754 1.34373 0
M  V30 6334 C 619.13 -4.09381 3.24353 0
M  V30 6335 H 620.824 -2.1639 2.06919 0
M  V30 6336 H 618.37 -1.03976 0.996243 0
M  V30 6337 H 620.323 -4.16016 0.671485 0
M  V30 6338 H 619.047 -3.2607 -0.185969 0
M  V30 6339 H 617.706 -3.10987 1.9412 0
M  V30 6340 H 617.354 -5.01696 0.361989 0
M  V30 6341 H 617.054 -5.50751 2.04811 0
M  V30 6342 H 618.578 -5.97811 1.24315 0
M  V30 6343 H 619.992 -4.77641 3.17067 0
M  V30 6344 H 618.389 -4.53906 3.92542 0
M  V30 6345 H 619.459 -3.14515 3.69064 0
M  V30 6346 N 620.802 -1.09834 -1.13024 0
M  V30 6347 C 621.735 -0.685453 -2.17662 0
M  V30 6348 C 622.713 0.310142 -1.59615 0
M  V30 6349 O 623.897 0.21052 -1.87321 0
M  V30 6350 C 621.024 -0.0104476 -3.38698 0
M  V30 6351 C 620.07 -0.968522 -4.15358 0
M  V30 6352 S 620.903 -2.48272 -4.74469 0
M  V30 6353 C 622.059 -1.82025 -5.98847 0
M  V30 6354 H 622.292 -1.57187 -2.52348 0
M  V30 6355 H 619.825 -0.914728 -1.24387 0
M  V30 6356 H 621.783 0.372694 -4.08805 0
M  V30 6357 H 620.444 0.852673 -3.02305 0
M  V30 6358 H 619.637 -0.443373 -5.02046 0
M  V30 6359 H 619.239 -1.29327 -3.50928 0
M  V30 6360 H 621.531 -1.14678 -6.67724 0
M  V30 6361 H 622.474 -2.66645 -6.55977 0
M  V30 6362 H 622.882 -1.2874 -5.49624 0
M  V30 6363 N 622.28 1.30327 -0.886154 0
M  V30 6364 C 623.243 2.26376 -0.358687 0
M  V30 6365 C 624.243 1.52845 0.499498 0
M  V30 6366 O 625.433 1.71483 0.306485 0
M  V30 6367 C 622.565 3.37379 0.488726 0
M  V30 6368 H 623.758 2.74547 -1.20681 0
M  V30 6369 H 621.311 1.41536 -0.663113 0
M  V30 6370 H 622.046 2.94526 1.35739 0
M  V30 6371 H 621.831 3.91897 -0.126003 0
M  V30 6372 H 623.321 4.08868 0.84952 0
M  V30 6373 N 623.758 0.647228 1.43697 0
M  V30 6374 C 625.169 0.238689 1.85168 0
M  V30 6375 C 625.52 -1.21345 1.54175 0
M  V30 6376 O 624.645 -1.92542 0.987743 0
M  V30 6377 C 625.24 0.426422 3.36106 0
M  V30 6378 C 623.799 0.0722541 3.76331 0
M  V30 6379 C 622.946 0.732153 2.6746 0
M  V30 6380 H 625.897 0.851309 1.33934 0
M  V30 6381 H 625.918 -0.32987 3.79067 0
M  V30 6382 H 625.43 1.48339 3.58632 0
M  V30 6383 H 623.531 -0.982355 3.59417 0
M  V30 6384 H 623.644 0.493541 4.76551 0
M  V30 6385 H 622.008 0.16594 2.54159 0
M  V30 6386 H 622.791 1.79204 2.92816 0
M  V30 6387 N 625.236 -1.5273 0.388769 0
M  V30 6388 C 626.485 -2.00757 -0.194833 0
M  V30 6389 C 626.798 -1.27951 -1.47946 0
M  V30 6390 O 628.004 -1.66686 -2.14308 0
M  V30 6391 C 626.46 -3.57695 -0.397762 0
M  V30 6392 C 626.068 -4.394 0.873583 0
M  V30 6393 C 627.812 -4.14012 -0.937759 0
M  V30 6394 C 625.719 -5.87938 0.638962 0
M  V30 6395 H 624.649 -0.750101 -0.0765845 0
M  V30 6396 H 627.3 -1.76239 0.511086 0
M  V30 6397 H 625.682 -3.7846 -1.16552 0
M  V30 6398 H 626.856 -4.30403 1.64591 0
M  V30 6399 H 625.171 -3.94301 1.33849 0
M  V30 6400 H 627.768 -5.22645 -1.12899 0
M  V30 6401 H 628.111 -3.7007 -1.90666 0
M  V30 6402 H 628.644 -3.97137 -0.229588 0
M  V30 6403 H 625.383 -6.36202 1.57885 0
M  V30 6404 H 624.903 -5.99726 -0.094443 0
M  V30 6405 H 626.582 -6.46423 0.273299 0
M  V30 6406 N 626.714 -0.118576 -1.57153 0
M  V30 6407 C 627.944 0.546466 -1.99242 0
M  V30 6408 C 628.352 1.60791 -0.997148 0
M  V30 6409 O 627.695 1.83691 0.0181745 0
M  V30 6410 C 627.757 1.23167 -3.37743 0
M  V30 6411 C 627.421 0.318226 -4.55891 0
M  V30 6412 C 628.418 -0.442988 -5.18009 0
M  V30 6413 C 626.103 0.229421 -5.01776 0
M  V30 6414 C 628.097 -1.28074 -6.244 0
M  V30 6415 C 625.784 -0.611966 -6.08028 0
M  V30 6416 C 626.782 -1.36568 -6.69207 0
M  V30 6417 O 626.47 -2.1931 -7.73407 0
M  V30 6418 H 626.202 0.149297 -0.659307 0
M  V30 6419 H 628.756 -0.201603 -2.04408 0
M  V30 6420 H 626.986 2.0268 -3.29329 0
M  V30 6421 H 628.675 1.79358 -3.64123 0
M  V30 6422 H 629.441 -0.38425 -4.83475 0
M  V30 6423 H 625.32 0.805771 -4.53903 0
M  V30 6424 H 628.864 -1.86952 -6.72082 0
M  V30 6425 H 624.761 -0.6721 -6.41991 0
M  V30 6426 H 625.529 -2.12247 -7.90502 0
M  V30 6427 N 628.193 1.56834 0.155195 0
M  V30 6428 C 629.421 1.87049 0.884326 0
M  V30 6429 C 629.836 0.705839 1.7511 0
M  V30 6430 O 629.193 -0.324641 1.79589 0
M  V30 6431 C 629.244 3.1644 1.74781 0
M  V30 6432 O 628.965 4.28417 0.915978 0
M  V30 6433 C 630.466 3.60113 2.58522 0
M  V30 6434 H 627.686 0.620196 0.25612 0
M  V30 6435 H 630.23 2.03946 0.150445 0
M  V30 6436 H 628.385 3.01321 2.43484 0
M  V30 6437 H 628.799 5.02353 1.50803 0
M  V30 6438 H 630.273 4.53508 3.14698 0
M  V30 6439 H 630.75 2.85005 3.34169 0
M  V30 6440 H 631.356 3.77898 1.95124 0
M  V30 6441 N 629.671 -0.424282 1.51781 0
M  V30 6442 C 630.901 -1.19297 1.68677 0
M  V30 6443 C 631.309 -1.85152 0.389258 0
M  V30 6444 O 630.652 -1.72067 -0.643311 0
M  V30 6445 C 630.714 -2.30929 2.75521 0
M  V30 6446 C 630.378 -1.85335 4.17732 0
M  V30 6447 C 631.375 -1.34951 5.0208 0
M  V30 6448 C 629.06 -1.92629 4.63896 0
M  V30 6449 C 631.054 -0.924636 6.30658 0
M  V30 6450 C 628.741 -1.49754 5.92467 0
M  V30 6451 C 629.739 -0.997543 6.75676 0
M  V30 6452 O 629.427 -0.57492 8.01842 0
M  V30 6453 H 629.159 -0.36512 0.568914 0
M  V30 6454 H 631.713 -0.507327 1.99036 0
M  V30 6455 H 629.943 -3.02811 2.40505 0
M  V30 6456 H 631.632 -2.92748 2.81165 0
M  V30 6457 H 632.398 -1.287 4.67612 0
M  V30 6458 H 628.277 -2.30491 3.99243 0
M  V30 6459 H 631.821 -0.533682 6.95556 0
M  V30 6460 H 627.718 -1.55679 6.26446 0
M  V30 6461 H 628.486 -0.699597 8.15505 0
M  V30 6462 N 631.149 -1.42148 -0.680565 0
M  V30 6463 C 632.377 -1.45696 -1.46902 0
M  V30 6464 C 632.792 -0.0665858 -1.88683 0
M  V30 6465 O 632.149 0.917436 -1.57764 0
M  V30 6466 C 632.2 -2.37898 -2.72188 0
M  V30 6467 O 631.921 -3.71526 -2.32163 0
M  V30 6468 C 633.422 -2.50407 -3.65802 0
M  V30 6469 H 630.642 -0.495729 -0.45221 0
M  V30 6470 H 633.186 -1.866 -0.836709 0
M  V30 6471 H 631.341 -2.00263 -3.31622 0
M  V30 6472 H 631.755 -4.20849 -3.13027 0
M  V30 6473 H 633.229 -3.19056 -4.50452 0
M  V30 6474 H 633.706 -1.5401 -4.11312 0
M  V30 6475 H 634.312 -2.8874 -3.12265 0
M  V30 6476 N 632.627 0.916307 -1.28225 0
M  V30 6477 C 633.574 2.01841 -1.11932 0
M  V30 6478 C 634.544 1.66091 -0.0171604 0
M  V30 6479 O 635.729 1.89934 -0.181617 0
M  V30 6480 C 632.869 3.36065 -0.784504 0
M  V30 6481 C 631.982 3.847 -1.96544 0
M  V30 6482 C 631.117 5.07423 -1.57149 0
M  V30 6483 C 630.156 5.48384 -2.71922 0
M  V30 6484 N 629.293 6.62298 -2.33037 0
M  V30 6485 H 634.133 2.1511 -2.06232 0
M  V30 6486 H 631.67 1.05366 -1.02647 0
M  V30 6487 H 633.628 4.13272 -0.571148 0
M  V30 6488 H 632.258 3.22571 0.121565 0
M  V30 6489 H 631.31 3.03673 -2.291 0
M  V30 6490 H 632.622 4.1102 -2.82603 0
M  V30 6491 H 631.776 5.92165 -1.32004 0
M  V30 6492 H 630.515 4.82906 -0.682153 0
M  V30 6493 H 629.52 4.62184 -2.97768 0
M  V30 6494 H 630.745 5.7489 -3.61494 0
M  V30 6495 H 628.691 6.39416 -1.4657 0
M  V30 6496 H 628.608 6.8833 -3.12631 0
M  V30 6497 H 629.876 7.50352 -2.11169 0
M  V30 6498 N 634.105 1.10431 1.1244 0
M  V30 6499 C 635.053 0.747974 2.20246 0
M  V30 6500 C 636.047 -0.255848 1.67457 0
M  V30 6501 O 637.253 -0.116221 1.79624 0
M  V30 6502 H 633.628 0.223946 0.71788 0
M  V30 6503 H 635.599 1.6661 2.47556 0
M  V30 6504 C 634.348 0.195957 3.47147 0
M  V30 6505 H 633.671 0.959606 3.88113 0
M  V30 6506 H 635.111 -0.0153154 4.23997 0
M  V30 6507 C 633.57 -1.07132 3.19413 0
M  V30 6508 O 634.1 -2.15284 3.3914 0
M  V30 6509 N 632.306 -0.98994 2.73219 0
M  V30 6510 H 631.853 -0.109736 2.57366 0
M  V30 6511 H 631.811 -1.83856 2.55038 0
M  V30 6512 N 635.583 -1.29855 0.893053 0
M  V30 6513 C 636.83 -1.95826 0.515585 0
M  V30 6514 C 637.158 -1.70451 -0.936842 0
M  V30 6515 O 636.413 -1.00657 -1.67829 0
M  V30 6516 C 636.712 -3.49515 0.746588 0
M  V30 6517 C 636.378 -3.94955 2.17535 0
M  V30 6518 C 635.04 -4.07073 2.56603 0
M  V30 6519 C 637.392 -4.18536 3.10607 0
M  V30 6520 C 634.72 -4.40138 3.87938 0
M  V30 6521 C 637.072 -4.53073 4.41484 0
M  V30 6522 C 635.736 -4.634 4.80434 0
M  V30 6523 H 635.006 -0.71658 0.188666 0
M  V30 6524 H 637.653 -1.54574 1.13045 0
M  V30 6525 H 635.958 -3.9177 0.0487551 0
M  V30 6526 H 637.655 -3.98644 0.434009 0
M  V30 6527 H 634.245 -3.86035 1.86212 0
M  V30 6528 H 638.429 -4.08646 2.81641 0
M  V30 6529 H 633.685 -4.46335 4.17846 0
M  V30 6530 H 637.859 -4.70269 5.13634 0
M  V30 6531 H 635.486 -4.88775 5.82239 0
M  V30 6532 N 637.061 -0.65484 -1.43351 0
M  V30 6533 C 638.477 -0.32255 -1.56307 0
M  V30 6534 C 638.677 1.17324 -1.63821 0
M  V30 6535 O 637.733 1.95813 -1.59417 0
M  V30 6536 C 639.046 -1.03533 -2.82314 0
M  V30 6537 C 640.594 -1.01574 -2.9606 0
M  V30 6538 C 641.069 -1.70945 -4.24902 0
M  V30 6539 N 642.56 -1.67716 -4.3177 0
M  V30 6540 C 643.295 -2.18265 -5.30234 0
M  V30 6541 N 642.791 -2.7711 -6.34966 0
M  V30 6542 N 644.584 -2.08756 -5.21898 0
M  V30 6543 H 636.735 -1.62549 -1.36717 0
M  V30 6544 H 638.998 -0.683676 -0.656727 0
M  V30 6545 H 638.704 -2.09045 -2.8283 0
M  V30 6546 H 638.578 -0.587913 -3.7259 0
M  V30 6547 H 640.965 0.0309834 -2.95084 0
M  V30 6548 H 641.046 -1.50186 -2.07069 0
M  V30 6549 H 640.69 -2.75574 -4.26639 0
M  V30 6550 H 640.62 -1.19797 -5.12793 0
M  V30 6551 H 643.111 -1.24777 -3.56706 0
M  V30 6552 H 643.424 -3.13353 -7.06421 0
M  V30 6553 H 641.769 -2.81171 -6.35585 0
M  V30 6554 H 644.96 -1.62488 -4.38994 0
M  V30 6555 H 645.133 -2.48459 -5.98475 0
M  V30 6556 N 638.539 1.52521 -0.396863 0
M  V30 6557 C 639.469 2.29582 0.425941 0
M  V30 6558 C 640.45 1.33281 1.05689 0
M  V30 6559 O 641.635 1.62181 1.06823 0
M  V30 6560 C 638.765 3.10821 1.54943 0
M  V30 6561 C 637.719 4.15069 1.04413 0
M  V30 6562 C 637.045 4.84578 2.26028 0
M  V30 6563 C 638.345 5.22191 0.106767 0
M  V30 6564 H 640.039 2.98612 -0.217045 0
M  V30 6565 H 637.585 1.43611 -0.105826 0
M  V30 6566 H 639.538 3.63492 2.13193 0
M  V30 6567 H 638.262 2.39538 2.22011 0
M  V30 6568 H 636.921 3.63389 0.484118 0
M  V30 6569 H 636.569 4.09835 2.91623 0
M  V30 6570 H 636.269 5.55043 1.92876 0
M  V30 6571 H 637.793 5.40056 2.84906 0
M  V30 6572 H 639.207 5.70176 0.597685 0
M  V30 6573 H 637.604 5.99947 -0.135352 0
M  V30 6574 H 638.674 4.77531 -0.842134 0
M  V30 6575 N 640.017 0.126909 1.57088 0
M  V30 6576 C 641.242 -0.53997 2.00248 0
M  V30 6577 C 641.667 -1.58927 1.00618 0
M  V30 6578 O 641.025 -1.81288 -0.0210131 0
M  V30 6579 C 641.073 -1.13565 3.4225 0
M  V30 6580 O 640.177 -2.25103 3.45547 0
M  V30 6581 H 639.518 -0.13412 0.650314 0
M  V30 6582 H 642.048 0.217718 2.03438 0
M  V30 6583 H 642.058 -1.46925 3.80627 0
M  V30 6584 H 640.733 -0.367122 4.14277 0
M  V30 6585 H 639.31 -1.93123 3.18995 0
M  V30 6586 N 641.495 -1.56914 -0.146875 0
M  V30 6587 C 642.427 -1.94878 -1.20645 0
M  V30 6588 C 643.44 -0.844633 -1.39175 0
M  V30 6589 O 644.629 -1.12304 -1.38744 0
M  V30 6590 C 641.729 -2.20769 -2.57127 0
M  V30 6591 C 640.902 -3.52053 -2.59572 0
M  V30 6592 C 639.961 -3.66482 -3.77594 0
M  V30 6593 O 638.987 -4.38873 -3.62462 0
M  V30 6594 N 640.189 -3.03156 -4.95052 0
M  V30 6595 H 642.954 -2.86374 -0.883757 0
M  V30 6596 H 640.515 -1.58366 -0.336436 0
M  V30 6597 H 642.507 -2.27664 -3.34591 0
M  V30 6598 H 641.077 -1.35538 -2.81688 0
M  V30 6599 H 640.297 -3.56598 -1.68023 0
M  V30 6600 H 641.585 -4.38396 -2.58238 0
M  V30 6601 H 640.983 -2.44258 -5.10249 0
M  V30 6602 H 639.54 -3.15611 -5.70292 0
M  V30 6603 N 642.974 0.416227 -1.52004 0
M  V30 6604 C 644.251 1.17637 -1.56272 0
M  V30 6605 C 644.631 2.08352 -0.339493 0
M  V30 6606 O 643.979 2.1833 0.674124 0
M  V30 6607 C 644.189 1.95986 -2.88774 0
M  V30 6608 C 645.537 2.52299 -3.41512 0
M  V30 6609 O 646.561 2.06174 -2.90467 0
M  V30 6610 O 645.42 3.3648 -4.30631 0
M  V30 6611 H 642.514 0.536726 -0.629169 0
M  V30 6612 H 645.06 0.423583 -1.64329 0
M  V30 6613 H 643.832 1.29487 -3.69254 0
M  V30 6614 H 643.455 2.78285 -2.83978 0
M  V30 6615 N 644.452 1.42507 0.673017 0
M  V30 6616 C 645.729 1.33554 1.42908 0
M  V30 6617 C 646.109 -0.0262211 2.11084 0
M  V30 6618 O 645.457 -1.04181 2.03368 0
M  V30 6619 C 645.667 2.50498 2.43006 0
M  V30 6620 C 647.015 2.92694 3.07596 0
M  V30 6621 O 648.039 2.50401 2.53333 0
M  V30 6622 O 646.898 3.65899 4.05931 0
M  V30 6623 H 643.992 0.526785 0.637516 0
M  V30 6624 H 646.538 1.54518 0.701591 0
M  V30 6625 H 645.31 3.41272 1.9144 0
M  V30 6626 H 644.933 2.3153 3.23233 0
M  V30 6627 N 645.93 -0.909495 1.28709 0
M  V30 6628 C 647.179 -1.65365 1.15487 0
M  V30 6629 C 647.492 -1.93364 -0.294941 0
M  V30 6630 O 648.698 -2.65905 -0.548338 0
M  V30 6631 C 647.154 -2.97923 2.01916 0
M  V30 6632 C 646.762 -2.77556 3.51663 0
M  V30 6633 C 648.506 -3.75814 1.97393 0
M  V30 6634 C 646.413 -4.0578 4.30229 0
M  V30 6635 H 645.343 -0.620323 0.42862 0
M  V30 6636 H 647.994 -1.00894 1.53273 0
M  V30 6637 H 646.376 -3.63552 1.5699 0
M  V30 6638 H 647.55 -2.2058 4.04575 0
M  V30 6639 H 645.865 -2.13072 3.57756 0
M  V30 6640 H 648.462 -4.70866 2.53357 0
M  V30 6641 H 648.805 -4.05277 0.951643 0
M  V30 6642 H 649.338 -3.1701 2.40311 0
M  V30 6643 H 646.077 -3.81488 5.33055 0
M  V30 6644 H 645.597 -4.62351 3.82089 0
M  V30 6645 H 647.276 -4.74004 4.40374 0
M  V30 6646 N 647.408 -1.11026 -1.11852 0
M  V30 6647 C 648.355 -0.764662 -2.17765 0
M  V30 6648 C 649.325 0.261854 -1.64023 0
M  V30 6649 O 650.51 0.139748 -1.90288 0
M  V30 6650 C 647.65 -0.209317 -3.44465 0
M  V30 6651 C 646.763 -1.29187 -4.12231 0
M  V30 6652 C 645.898 -0.697523 -5.266 0
M  V30 6653 C 644.937 -1.76023 -5.86244 0
M  V30 6654 N 644.074 -1.18569 -6.92016 0
M  V30 6655 H 648.914 -1.67202 -2.46673 0
M  V30 6656 H 646.451 -0.835065 -1.21099 0
M  V30 6657 H 648.409 0.130599 -4.16996 0
M  V30 6658 H 647.039 0.661251 -3.15955 0
M  V30 6659 H 646.091 -1.74881 -3.37818 0
M  V30 6660 H 647.403 -2.09607 -4.52622 0
M  V30 6661 H 646.557 -0.307412 -6.05921 0
M  V30 6662 H 645.296 0.138044 -4.87505 0
M  V30 6663 H 644.301 -2.1597 -5.05606 0
M  V30 6664 H 645.526 -2.59875 -6.27409 0
M  V30 6665 H 643.472 -0.371695 -6.54946 0
M  V30 6666 H 643.389 -1.92666 -7.31038 0
M  V30 6667 H 644.657 -0.82233 -7.7515 0
M  V30 6668 N 648.886 1.2938 -0.899927 0
M  V30 6669 C 650.134 1.95164 -0.524924 0
M  V30 6670 C 650.455 1.71292 0.931888 0
M  V30 6671 O 649.725 1.04481 1.65712 0
M  V30 6672 H 648.305 0.722133 -0.191135 0
M  V30 6673 H 650.967 1.57628 -1.14627 0
M  V30 6674 H 650.063 3.0397 -0.707711 0
M  V30 6675 N 650.364 0.662433 1.43002 0
M  V30 6676 C 651.613 0.176873 2.00923 0
M  V30 6677 C 651.926 -1.21954 1.52927 0
M  V30 6678 O 653.132 -1.80081 2.03182 0
M  V30 6679 C 651.588 0.265379 3.5892 0
M  V30 6680 C 651.196 1.66507 4.15908 0
M  V30 6681 C 652.94 -0.162103 4.2419 0
M  V30 6682 C 650.847 1.707 5.66229 0
M  V30 6683 H 649.777 0.0623627 0.751417 0
M  V30 6684 H 652.428 0.825813 1.63868 0
M  V30 6685 H 650.81 -0.451235 3.93421 0
M  V30 6686 H 651.984 2.40777 3.92891 0
M  V30 6687 H 650.299 2.03932 3.63044 0
M  V30 6688 H 652.896 -0.150745 5.34487 0
M  V30 6689 H 653.239 -1.19519 3.98774 0
M  V30 6690 H 653.772 0.503075 3.94606 0
M  V30 6691 H 650.511 2.7195 5.96426 0
M  V30 6692 H 650.031 1.00768 5.91275 0
M  V30 6693 H 651.71 1.45487 6.3043 0
M  V30 6694 N 651.842 -1.52309 0.404946 0
M  V30 6695 C 652.774 -2.24579 -0.45791 0
M  V30 6696 C 653.787 -1.2739 -1.01369 0
M  V30 6697 O 654.976 -1.53363 -0.91335 0
M  V30 6698 C 652.076 -2.9608 -1.64893 0
M  V30 6699 C 651.249 -4.20106 -1.21777 0
M  V30 6700 C 650.308 -4.74468 -2.27523 0
M  V30 6701 O 649.334 -5.37157 -1.88285 0
M  V30 6702 N 650.536 -4.55678 -3.59635 0
M  V30 6703 H 653.301 -2.99265 0.161341 0
M  V30 6704 H 650.862 -1.60228 0.232107 0
M  V30 6705 H 652.854 -3.29344 -2.35191 0
M  V30 6706 H 651.424 -2.24606 -2.17419 0
M  V30 6707 H 650.644 -3.92704 -0.343071 0
M  V30 6708 H 651.932 -5.00658 -0.906596 0
M  V30 6709 H 651.33 -4.05673 -3.94266 0
M  V30 6710 H 649.887 -4.9339 -4.25922 0
M  V30 6711 N 653.32 -0.135238 -1.57019 0
M  V30 6712 C 654.23 0.822226 -2.19719 0
M  V30 6713 C 655.246 1.28057 -1.17802 0
M  V30 6714 O 656.422 1.3402 -1.50335 0
M  V30 6715 C 653.487 2.0484 -2.79717 0
M  V30 6716 C 652.548 1.64042 -3.96723 0
M  V30 6717 C 651.781 2.80814 -4.53849 0
M  V30 6718 O 652.004 3.967 -4.0986 0
M  V30 6719 O 650.938 2.56963 -5.44292 0
M  V30 6720 H 654.764 0.318552 -3.02025 0
M  V30 6721 H 652.349 0.0912021 -1.49121 0
M  V30 6722 H 654.231 2.76622 -3.17897 0
M  V30 6723 H 652.906 2.54182 -2.00432 0
M  V30 6724 H 651.813 0.893182 -3.63281 0
M  V30 6725 H 653.146 1.19426 -4.77492 0
M  V30 6726 N 654.798 1.5699 0.138552 0
M  V30 6727 C 655.728 2.01933 1.17241 0
M  V30 6728 C 656.709 0.90033 1.44319 0
M  V30 6729 O 657.894 1.16872 1.55095 0
M  V30 6730 C 655.024 2.40711 2.50351 0
M  V30 6731 C 653.978 3.55874 2.37776 0
M  V30 6732 C 653.304 3.80491 3.75674 0
M  V30 6733 C 654.604 4.8826 1.85472 0
M  V30 6734 H 656.298 2.88551 0.798672 0
M  V30 6735 H 653.844 1.3882 0.382743 0
M  V30 6736 H 655.797 2.70754 3.22909 0
M  V30 6737 H 654.521 1.5104 2.89576 0
M  V30 6738 H 653.18 3.2601 1.67669 0
M  V30 6739 H 652.828 2.88057 4.12349 0
M  V30 6740 H 652.528 4.57998 3.68119 0
M  V30 6741 H 654.052 4.12967 4.49767 0
M  V30 6742 H 655.466 5.16965 2.4783 0
M  V30 6743 H 653.863 5.69631 1.88787 0
M  V30 6744 H 654.933 4.78071 0.810935 0
M  V30 6745 N 656.276 -0.40816 1.52223 0
M  V30 6746 C 657.506 -1.17501 1.69932 0
M  V30 6747 C 657.914 -1.84729 0.408874 0
M  V30 6748 O 657.257 -1.7274 -0.625025 0
M  V30 6749 C 657.319 -2.27994 2.77955 0
M  V30 6750 C 656.983 -1.80894 4.19674 0
M  V30 6751 C 657.98 -1.29618 5.03483 0
M  V30 6752 C 655.665 -1.87698 4.65913 0
M  V30 6753 C 657.659 -0.857695 6.31603 0
M  V30 6754 C 655.346 -1.43461 5.94022 0
M  V30 6755 C 656.344 -0.925822 6.76696 0
M  V30 6756 O 656.032 -0.489841 8.02406 0
M  V30 6757 H 655.764 -0.359065 0.572755 0
M  V30 6758 H 658.318 -0.486188 1.99563 0
M  V30 6759 H 656.548 -3.00243 2.43703 0
M  V30 6760 H 658.237 -2.89749 2.84254 0
M  V30 6761 H 659.003 -1.23733 4.68951 0
M  V30 6762 H 654.882 -2.26244 4.01665 0
M  V30 6763 H 658.426 -0.459879 6.96083 0
M  V30 6764 H 654.323 -1.49026 6.28062 0
M  V30 6765 H 655.091 -0.613062 8.16201 0
M  V30 6766 N 657.755 -1.42862 -0.66545 0
M  V30 6767 C 659.003 -1.43546 -1.42264 0
M  V30 6768 C 659.324 -0.0563116 -1.94919 0
M  V30 6769 O 658.594 0.906568 -1.73661 0
M  V30 6770 H 657.174 -0.528464 -0.527953 0
M  V30 6771 H 659.836 -1.78363 -0.785665 0
M  V30 6772 H 658.932 -2.14079 -2.27105 0
M  V30 6773 N 659.233 0.902656 -1.29189 0
M  V30 6774 C 660.196 1.98797 -1.14071 0
M  V30 6775 C 661.196 1.60615 -0.0770549 0
M  V30 6776 O 662.386 1.71165 -0.323753 0
M  V30 6777 C 659.518 3.32688 -0.743739 0
M  V30 6778 H 660.711 2.13637 -2.10473 0
M  V30 6779 H 658.264 1.08678 -1.12334 0
M  V30 6780 H 658.999 3.23549 0.220554 0
M  V30 6781 H 658.784 3.61765 -1.51223 0
M  V30 6782 H 660.274 4.12337 -0.660935 0
M  V30 6783 N 660.711 1.11618 1.11262 0
M  V30 6784 C 661.936 0.889013 1.8738 0
M  V30 6785 C 662.361 -0.555884 1.79698 0
M  V30 6786 O 661.719 -1.39272 1.16073 0
M  V30 6787 C 661.767 1.35759 3.34069 0
M  V30 6788 O 660.871 0.530499 4.08974 0
M  V30 6789 H 660.212 0.320082 0.581759 0
M  V30 6790 H 662.742 1.48611 1.40627 0
M  V30 6791 H 662.752 1.35291 3.84916 0
M  V30 6792 H 661.427 2.40973 3.38976 0
M  V30 6793 H 660.004 0.601439 3.68018 0
M  V30 6794 N 662.189 -1.289 0.906776 0
M  V30 6795 C 663.6 -1.77336 0.58384 0
M  V30 6796 C 663.951 -1.74304 -0.900697 0
M  V30 6797 O 663.076 -1.33335 -1.70443 0
M  V30 6798 C 663.671 -3.22019 1.05304 0
M  V30 6799 C 662.23 -3.68205 0.781148 0
M  V30 6800 C 661.377 -2.48837 1.22373 0
M  V30 6801 H 664.328 -1.15462 1.08877 0
M  V30 6802 H 664.349 -3.78481 0.391414 0
M  V30 6803 H 663.861 -3.24194 2.13353 0
M  V30 6804 H 661.962 -3.71497 -0.28643 0
M  V30 6805 H 662.075 -4.58675 1.384 0
M  V30 6806 H 660.439 -2.46461 0.642594 0
M  V30 6807 H 661.222 -2.53736 2.31242 0
M  V30 6808 N 663.667 -0.670007 -1.42649 0
M  V30 6809 C 664.944 -0.119451 -1.95235 0
M  V30 6810 C 665.324 1.36461 -1.61064 0
M  V30 6811 O 664.672 2.09843 -0.904329 0
M  V30 6812 C 664.882 -0.383498 -3.46887 0
M  V30 6813 C 666.23 -0.297431 -4.23557 0
M  V30 6814 O 667.254 -0.31698 -3.54787 0
M  V30 6815 O 666.113 -0.235507 -5.45992 0
M  V30 6816 H 663.207 -8.85474e-05 -0.827 0
M  V30 6817 H 665.753 -0.744406 -1.52501 0
M  V30 6818 H 664.525 -1.41174 -3.64946 0
M  V30 6819 H 664.148 0.273702 -3.96657 0
M  V30 6820 N 665.145 1.52092 -0.413018 0
M  V30 6821 C 666.394 2.01041 0.16287 0
M  V30 6822 C 666.707 1.30288 1.45892 0
M  V30 6823 O 667.913 1.70075 2.11629 0
M  V30 6824 C 666.369 3.58283 0.340806 0
M  V30 6825 C 665.977 4.37955 -0.943377 0
M  V30 6826 C 667.721 4.15452 0.871774 0
M  V30 6827 C 665.628 5.86847 -0.732417 0
M  V30 6828 H 664.558 0.751224 0.0646414 0
M  V30 6829 H 667.209 1.75404 -0.539059 0
M  V30 6830 H 665.591 3.80266 1.10516 0
M  V30 6831 H 666.765 4.2773 -1.71418 0
M  V30 6832 H 665.08 3.92122 -1.40105 0
M  V30 6833 H 667.677 5.24375 1.0457 0
M  V30 6834 H 668.02 3.73057 1.84755 0
M  V30 6835 H 668.553 3.97452 0.166377 0
M  V30 6836 H 665.292 6.33609 -1.67986 0
M  V30 6837 H 664.812 5.998 -0.000980058 0
M  V30 6838 H 666.491 6.45906 -0.376105 0
M  V30 6839 N 666.623 0.143563 1.56945 0
M  V30 6840 C 667.9 -0.553285 1.87612 0
M  V30 6841 C 668.28 -1.83195 1.04894 0
M  V30 6842 O 667.628 -2.28102 0.134773 0
M  V30 6843 C 667.838 -0.822055 3.3918 0
M  V30 6844 C 669.186 -1.16435 4.08324 0
M  V30 6845 O 670.21 -0.911522 3.4434 0
M  V30 6846 O 669.069 -1.63996 5.21313 0
M  V30 6847 H 666.163 -0.281851 0.777489 0
M  V30 6848 H 668.709 0.179916 1.68744 0
M  V30 6849 H 667.481 0.0830265 3.91212 0
M  V30 6850 H 667.104 -1.60956 3.63564 0
M  V30 6851 N 668.101 -1.57061 -0.130224 0
M  V30 6852 C 669.031 -2.02552 -1.16168 0
M  V30 6853 C 670.012 -0.907971 -1.4384 0
M  V30 6854 O 671.197 -1.17693 -1.54473 0
M  V30 6855 C 668.327 -2.42035 -2.49071 0
M  V30 6856 C 667.281 -3.5713 -2.35886 0
M  V30 6857 C 666.607 -3.82478 -3.7365 0
M  V30 6858 C 667.907 -4.89236 -1.8288 0
M  V30 6859 H 669.601 -2.8897 -0.783359 0
M  V30 6860 H 667.147 -1.39021 -0.375376 0
M  V30 6861 H 669.1 -2.72462 -3.21469 0
M  V30 6862 H 667.824 -1.52573 -2.88771 0
M  V30 6863 H 666.483 -3.26895 -1.65938 0
M  V30 6864 H 666.131 -2.9024 -4.10816 0
M  V30 6865 H 665.831 -4.59944 -3.65685 0
M  V30 6866 H 667.355 -4.15347 -4.47571 0
M  V30 6867 H 668.769 -5.18272 -2.45085 0
M  V30 6868 H 667.166 -5.70624 -1.85763 0
M  V30 6869 H 668.236 -4.78494 -0.785571 0
M  V30 6870 N 669.579 0.400081 -1.52437 0
M  V30 6871 C 670.827 1.14392 -1.6661 0
M  V30 6872 C 671.148 1.90792 -0.402927 0
M  V30 6873 O 670.418 1.87042 0.582425 0
M  V30 6874 H 668.998 0.425275 -0.614125 0
M  V30 6875 H 671.66 0.455076 -1.89513 0
M  V30 6876 H 670.756 1.85298 -2.51139 0
M  V30 6877 N 671.057 1.43213 0.657864 0
M  V30 6878 C 672.285 1.48015 1.44566 0
M  V30 6879 C 672.7 0.0965951 1.88553 0
M  V30 6880 O 672.057 -0.892221 1.59203 0
M  V30 6881 C 672.108 2.42199 2.68369 0
M  V30 6882 O 671.829 3.75173 2.26223 0
M  V30 6883 C 673.33 2.56195 3.61772 0
M  V30 6884 H 670.55 0.502861 0.444266 0
M  V30 6885 H 673.094 1.87907 0.806917 0
M  V30 6886 H 671.249 2.05514 3.28394 0
M  V30 6887 H 671.663 4.25776 3.06293 0
M  V30 6888 H 673.137 3.26182 4.4532 0
M  V30 6889 H 673.614 1.60534 4.0881 0
M  V30 6890 H 674.22 2.93671 3.07632 0
M  V30 6891 N 672.536 -0.895792 1.29666 0
M  V30 6892 C 673.784 -1.64339 1.17631 0
M  V30 6893 C 674.105 -1.93099 -0.271643 0
M  V30 6894 O 673.375 -1.55981 -1.18518 0
M  V30 6895 H 671.955 -0.609162 0.432354 0
M  V30 6896 H 674.617 -1.07389 1.62646 0
M  V30 6897 H 673.713 -2.59815 1.72924 0
M  V30 6898 N 674.014 -1.12206 -1.10668 0
M  V30 6899 C 675.425 -0.890657 -1.64086 0
M  V30 6900 C 675.776 0.575502 -1.8757 0
M  V30 6901 O 674.901 1.4394 -1.61587 0
M  V30 6902 C 675.496 -1.61029 -2.98085 0
M  V30 6903 C 674.055 -1.4251 -3.48379 0
M  V30 6904 C 673.202 -1.64778 -2.23033 0
M  V30 6905 H 676.153 -1.27718 -0.94201 0
M  V30 6906 H 676.174 -1.05993 -3.65439 0
M  V30 6907 H 675.686 -2.67735 -2.80962 0
M  V30 6908 H 673.787 -0.380497 -3.70652 0
M  V30 6909 H 673.9 -2.17959 -4.26651 0
M  V30 6910 H 672.264 -1.07171 -2.31055 0
M  V30 6911 H 673.047 -2.72776 -2.08443 0
M  V30 6912 N 675.492 1.28418 -0.913599 0
M  V30 6913 C 676.72 1.99106 -0.562536 0
M  V30 6914 C 677.135 1.68273 0.856137 0
M  V30 6915 O 676.492 0.935401 1.56705 0
M  V30 6916 C 676.543 3.5338 -0.761903 0
M  V30 6917 O 676.264 3.83127 -2.12475 0
M  V30 6918 C 677.765 4.41328 -0.417651 0
M  V30 6919 H 674.985 0.635798 -0.214481 0
M  V30 6920 H 677.529 1.63618 -1.22676 0
M  V30 6921 H 675.684 3.8713 -0.144676 0
M  V30 6922 H 676.098 4.77763 -2.16431 0
M  V30 6923 H 677.572 5.48642 -0.607919 0
M  V30 6924 H 678.049 4.34422 0.646108 0
M  V30 6925 H 678.655 4.13074 -1.01241 0
M  V30 6926 N 676.97 0.677563 1.42291 0
M  V30 6927 C 678.381 0.277912 1.8462 0
M  V30 6928 C 678.732 -1.18048 1.56714 0
M  V30 6929 O 677.857 -1.90404 1.02836 0
M  V30 6930 C 678.452 0.497619 3.35126 0
M  V30 6931 C 677.011 0.152063 3.76093 0
M  V30 6932 C 676.158 0.78872 2.65847 0
M  V30 6933 H 679.109 0.879527 1.32098 0
M  V30 6934 H 679.13 -0.24939 3.79682 0
M  V30 6935 H 678.642 1.55913 3.55405 0
M  V30 6936 H 676.743 -0.905896 3.6142 0
M  V30 6937 H 676.856 0.594514 4.75397 0
M  V30 6938 H 675.22 0.219813 2.5375 0
M  V30 6939 H 676.003 1.85374 2.88949 0
M  V30 6940 N 678.448 -1.51871 0.421078 0
M  V30 6941 C 679.676 -2.06356 -0.14994 0
M  V30 6942 C 680.091 -1.29006 -1.37851 0
M  V30 6943 O 679.448 -0.345139 -1.79207 0
M  V30 6944 C 679.499 -3.58185 -0.488454 0
M  V30 6945 O 679.22 -4.32611 0.691341 0
M  V30 6946 C 680.721 -4.29129 -1.11191 0
M  V30 6947 H 677.941 -0.67083 -0.0151186 0
M  V30 6948 H 680.485 -1.95638 0.595476 0
M  V30 6949 H 678.64 -3.68871 -1.18376 0
M  V30 6950 H 679.054 -5.22927 0.405906 0
M  V30 6951 H 680.528 -5.36501 -1.29889 0
M  V30 6952 H 681.005 -3.86371 -2.0884 0
M  V30 6953 H 681.611 -4.22843 -0.456458 0
M  V30 6954 N 679.926 -0.151884 -1.56866 0
M  V30 6955 C 680.856 0.781943 -2.20018 0
M  V30 6956 C 681.837 1.25347 -1.14987 0
M  V30 6957 O 683.022 1.31015 -1.43348 0
M  V30 6958 C 680.152 2.01928 -2.82564 0
M  V30 6959 C 679.106 1.68434 -3.93464 0
M  V30 6960 C 678.432 2.99472 -4.42968 0
M  V30 6961 C 679.732 0.927244 -5.14003 0
M  V30 6962 H 681.426 0.255607 -2.98307 0
M  V30 6963 H 678.972 0.121502 -1.43486 0
M  V30 6964 H 680.925 2.67741 -3.25411 0
M  V30 6965 H 679.649 2.56943 -2.01614 0
M  V30 6966 H 678.308 1.04998 -3.51242 0
M  V30 6967 H 677.956 3.52488 -3.58834 0
M  V30 6968 H 677.656 2.77823 -5.17772 0
M  V30 6969 H 679.18 3.66348 -4.88489 0
M  V30 6970 H 680.594 1.48756 -5.53665 0
M  V30 6971 H 678.991 0.810513 -5.94601 0
M  V30 6972 H 680.061 -0.0801163 -4.84834 0
M  V30 6973 N 681.404 1.57128 0.121893 0
M  V30 6974 C 682.652 1.84335 0.828548 0
M  V30 6975 C 682.973 0.736632 1.80551 0
M  V30 6976 O 682.243 -0.23962 1.94429 0
M  V30 6977 H 680.823 0.680108 0.30897 0
M  V30 6978 H 683.485 1.9459 0.109906 0
M  V30 6979 H 682.581 2.80152 1.37554 0
M  V30 6980 N 682.882 -0.391992 1.52647 0
M  V30 6981 C 684.293 -0.970064 1.5952 0
M  V30 6982 C 684.644 -1.91059 0.446207 0
M  V30 6983 O 683.769 -2.12062 -0.431125 0
M  V30 6984 C 684.364 -1.76614 2.89125 0
M  V30 6985 C 682.923 -2.29396 2.9842 0
M  V30 6986 C 682.07 -1.09864 2.54608 0
M  V30 6987 H 685.021 -0.171638 1.57769 0
M  V30 6988 H 685.042 -2.62511 2.75442 0
M  V30 6989 H 684.554 -1.08135 3.72731 0
M  V30 6990 H 682.655 -3.01196 2.19344 0
M  V30 6991 H 682.768 -2.59088 4.03002 0
M  V30 6992 H 681.132 -1.45777 2.08857 0
M  V30 6993 H 681.915 -0.429249 3.40606 0
M  V30 6994 N 684.36 -1.4356 -0.65026 0
M  V30 6995 C 685.606 -1.45549 -1.41221 0
M  V30 6996 C 685.939 -0.0805472 -1.94033 0
M  V30 6997 O 685.214 0.899043 -1.72475 0
M  V30 6998 C 685.497 -2.50028 -2.59148 0
M  V30 6999 C 685.35 -3.96808 -2.1181 0
M  V30 7000 C 686.669 -2.51212 -3.61359 0
M  V30 7001 H 683.788 -0.529967 -0.512156 0
M  V30 7002 H 686.43 -1.75127 -0.736933 0
M  V30 7003 H 684.58 -2.24937 -3.16758 0
M  V30 7004 H 686.252 -4.32966 -1.59178 0
M  V30 7005 H 684.495 -4.09498 -1.43156 0
M  V30 7006 H 685.166 -4.6553 -2.96625 0
M  V30 7007 H 687.642 -2.73583 -3.13515 0
M  V30 7008 H 686.518 -3.26252 -4.41419 0
M  V30 7009 H 686.779 -1.54701 -4.1415 0
M  V30 7010 N 685.838 0.888903 -1.30139 0
M  V30 7011 C 687.066 1.67358 -1.21651 0
M  V30 7012 C 687.481 1.87499 0.221246 0
M  V30 7013 O 686.838 1.41969 1.14677 0
M  V30 7014 C 686.889 3.05213 -1.93719 0
M  V30 7015 O 686.61 2.85984 -3.31881 0
M  V30 7016 C 688.111 3.9964 -1.9184 0
M  V30 7017 H 685.331 0.522365 -0.42116 0
M  V30 7018 H 687.875 1.11086 -1.71698 0
M  V30 7019 H 686.03 3.5823 -1.4748 0
M  V30 7020 H 686.444 3.73411 -3.68327 0
M  V30 7021 H 687.918 4.93749 -2.46811 0
M  V30 7022 H 688.395 4.29955 -0.896409 0
M  V30 7023 H 689.001 3.52558 -2.37872 0
M  V30 7024 N 687.317 1.12792 1.10072 0
M  V30 7025 C 688.728 0.899346 1.63611 0
M  V30 7026 C 689.079 -0.565547 1.87872 0
M  V30 7027 O 688.204 -1.43081 1.62348 0
M  V30 7028 C 688.799 1.62608 2.97227 0
M  V30 7029 C 687.358 1.44356 3.47618 0
M  V30 7030 C 686.505 1.65958 2.22156 0
M  V30 7031 H 689.456 1.28216 0.935223 0
M  V30 7032 H 689.477 1.0793 3.64872 0
M  V30 7033 H 688.989 2.69221 2.79538 0
M  V30 7034 H 687.09 0.400148 3.70445 0
M  V30 7035 H 687.203 2.20218 4.25489 0
M  V30 7036 H 685.567 1.08395 2.30484 0
M  V30 7037 H 686.35 2.73877 2.06993 0
M  V30 7038 N 688.795 -1.27931 0.920396 0
M  V30 7039 C 689.705 -2.30824 0.419212 0
M  V30 7040 C 690.721 -1.66767 -0.496461 0
M  V30 7041 O 691.897 -1.97763 -0.38104 0
M  V30 7042 C 688.962 -3.45158 -0.326601 0
M  V30 7043 C 688.023 -4.24754 0.623098 0
M  V30 7044 C 687.256 -5.33629 -0.0872172 0
M  V30 7045 O 687.479 -5.55204 -1.30784 0
M  V30 7046 O 686.413 -5.99091 0.580875 0
M  V30 7047 H 690.239 -2.75716 1.27337 0
M  V30 7048 H 687.824 -1.32747 0.685465 0
M  V30 7049 H 689.706 -4.14716 -0.747559 0
M  V30 7050 H 688.381 -3.02336 -1.15648 0
M  V30 7051 H 687.288 -3.57759 1.09359 0
M  V30 7052 H 688.621 -4.71272 1.41998 0
M  V30 7053 N 690.273 -0.685099 -1.4193 0
M  V30 7054 C 691.522 -0.208816 -2.00616 0
M  V30 7055 C 691.835 1.19506 -1.54847 0
M  V30 7056 O 693.041 1.76826 -2.06021 0
M  V30 7057 C 691.497 -0.322446 -3.58453 0
M  V30 7058 C 691.105 -1.73102 -4.13206 0
M  V30 7059 C 692.849 0.0945979 -4.24395 0
M  V30 7060 C 690.756 -1.79687 -5.63442 0
M  V30 7061 H 689.686 -0.0743092 -0.750329 0
M  V30 7062 H 692.337 -0.851778 -1.62533 0
M  V30 7063 H 690.719 0.388588 -3.94089 0
M  V30 7064 H 691.893 -2.46997 -3.8901 0
M  V30 7065 H 690.208 -2.09682 -3.59753 0
M  V30 7066 H 692.805 0.0656937 -5.3466 0
M  V30 7067 H 693.148 1.1316 -4.00625 0
M  V30 7068 H 693.681 -0.56579 -3.93756 0
M  V30 7069 H 690.42 -2.81404 -5.92024 0
M  V30 7070 H 689.94 -1.10162 -5.89597 0
M  V30 7071 H 691.619 -1.55498 -6.28036 0
M  V30 7072 N 691.751 1.51645 -0.429126 0
M  V30 7073 C 692.991 2.03924 0.139354 0
M  V30 7074 C 693.355 1.30673 1.40672 0
M  V30 7075 O 694.556 1.73282 2.05491 0
M  V30 7076 C 692.827 3.5557 0.361179 0
M  V30 7077 S 694.386 4.29591 0.894241 0
M  V30 7078 H 691.204 0.710103 0.0356986 0
M  V30 7079 H 693.806 1.86491 -0.586644 0
M  V30 7080 H 692.51 4.06455 -0.567686 0
M  V30 7081 H 692.041 3.77283 1.11449 0
M  V30 7082 H 694.056 4.46102 2.17272 0
M  V30 7083 N 693.229 0.160201 1.56784 0
M  V30 7084 C 694.176 -0.774416 2.1742 0
M  V30 7085 C 695.146 -1.23483 1.11091 0
M  V30 7086 O 696.331 -1.30499 1.39193 0
M  V30 7087 C 693.471 -2.00283 2.81035 0
M  V30 7088 C 692.584 -1.58701 4.01793 0
M  V30 7089 C 691.719 -2.76824 4.53367 0
M  V30 7090 C 690.758 -2.31679 5.66561 0
M  V30 7091 N 689.895 -3.42856 6.12694 0
M  V30 7092 H 694.735 -0.250542 2.96945 0
M  V30 7093 H 692.272 -0.111943 1.46673 0
M  V30 7094 H 694.23 -2.72316 3.16069 0
M  V30 7095 H 692.86 -2.5006 2.04132 0
M  V30 7096 H 691.912 -0.76384 3.72652 0
M  V30 7097 H 693.224 -1.21555 4.83762 0
M  V30 7098 H 692.378 -3.57029 4.90525 0
M  V30 7099 H 691.117 -3.17223 3.70433 0
M  V30 7100 H 690.122 -1.49917 5.28966 0
M  V30 7101 H 691.347 -1.9235 6.5129 0
M  V30 7102 H 689.293 -3.82852 5.32692 0
M  V30 7103 H 689.21 -3.09767 6.89624 0
M  V30 7104 H 690.478 -4.23379 6.545 0
M  V30 7105 N 694.707 -1.5719 -0.113559 0
M  V30 7106 C 695.639 -1.97393 -1.16484 0
M  V30 7107 C 696.652 -0.873964 -1.37352 0
M  V30 7108 O 697.841 -1.15222 -1.36331 0
M  V30 7109 C 694.941 -2.26174 -2.52386 0
M  V30 7110 C 694.114 -3.57479 -2.52046 0
M  V30 7111 C 693.173 -3.74409 -3.69735 0
M  V30 7112 O 692.199 -4.46463 -3.53071 0
M  V30 7113 N 693.401 -3.13588 -4.88511 0
M  V30 7114 H 696.166 -2.88184 -0.822814 0
M  V30 7115 H 693.727 -1.59044 -0.302769 0
M  V30 7116 H 695.719 -2.3471 -3.29687 0
M  V30 7117 H 694.289 -1.41483 -2.7875 0
M  V30 7118 H 693.509 -3.60081 -1.60421 0
M  V30 7119 H 694.797 -4.43775 -2.48881 0
M  V30 7120 H 694.195 -2.55026 -5.04953 0
M  V30 7121 H 692.752 -3.27637 -5.63469 0
M  V30 7122 N 696.185 0.383891 -1.52853 0
M  V30 7123 C 697.462 1.14296 -1.58732 0
M  V30 7124 C 697.842 2.07585 -0.383611 0
M  V30 7125 O 697.19 2.1971 0.627661 0
M  V30 7126 C 697.4 1.89816 -2.92867 0
M  V30 7127 C 698.748 2.44998 -3.46787 0
M  V30 7128 O 699.772 1.99966 -2.94774 0
M  V30 7129 O 698.631 3.2727 -4.37672 0
M  V30 7130 H 695.725 0.52326 -0.640413 0
M  V30 7131 H 698.271 0.388631 -1.6519 0
M  V30 7132 H 697.043 1.21626 -3.71918 0
M  V30 7133 H 696.666 2.72199 -2.89816 0
M  V30 7134 N 697.663 1.43903 0.642637 0
M  V30 7135 C 698.912 1.45362 1.39831 0
M  V30 7136 C 699.225 0.0856289 1.95412 0
M  V30 7137 O 700.431 -0.0222856 2.71491 0
M  V30 7138 C 698.887 2.55857 2.53111 0
M  V30 7139 C 698.495 3.98811 2.04092 0
M  V30 7140 C 700.239 2.66524 3.30402 0
M  V30 7141 C 698.146 5.00751 3.14647 0
M  V30 7142 H 697.076 0.540777 0.52543 0
M  V30 7143 H 699.727 1.69929 0.692559 0
M  V30 7144 H 698.109 2.2451 3.26207 0
M  V30 7145 H 699.283 4.3967 1.37938 0
M  V30 7146 H 697.598 3.92284 1.39651 0
M  V30 7147 H 700.195 3.39858 4.12796 0
M  V30 7148 H 700.538 1.71949 3.79129 0
M  V30 7149 H 701.071 2.97224 2.64392 0
M  V30 7150 H 697.81 5.96914 2.70876 0
M  V30 7151 H 697.33 4.64495 3.79479 0
M  V30 7152 H 699.009 5.23933 3.79609 0
M  V30 7153 N 699.141 -0.881989 1.30609 0
M  V30 7154 C 700.387 -1.63647 1.19781 0
M  V30 7155 C 700.72 -1.92632 -0.246265 0
M  V30 7156 O 699.995 -1.54938 -1.17577 0
M  V30 7157 C 700.278 -2.97437 2.02985 0
M  V30 7158 C 700.131 -2.75406 3.55628 0
M  V30 7159 C 701.45 -3.98397 1.86997 0
M  V30 7160 H 698.569 -0.593841 0.436488 0
M  V30 7161 H 701.211 -1.02041 1.60273 0
M  V30 7162 H 699.361 -3.50018 1.68581 0
M  V30 7163 H 701.033 -2.2959 4.00107 0
M  V30 7164 H 699.276 -2.09856 3.79662 0
M  V30 7165 H 699.947 -3.70552 4.09139 0
M  V30 7166 H 702.423 -3.54986 2.17081 0
M  V30 7167 H 701.299 -4.89916 2.47536 0
M  V30 7168 H 701.56 -4.3424 0.829943 0
M  V30 7169 N 700.619 -1.13374 -1.09472 0
M  V30 7170 C 701.866 -0.89519 -1.81639 0
M  V30 7171 C 702.194 0.57868 -1.85692 0
M  V30 7172 O 701.449 1.44426 -1.32059 0
M  V30 7173 C 701.748 -1.42759 -3.2765 0
M  V30 7174 C 701.414 -2.91822 -3.43731 0
M  V30 7175 C 700.076 -3.32521 -3.47827 0
M  V30 7176 C 702.428 -3.87727 -3.48307 0
M  V30 7177 C 699.756 -4.6781 -3.54078 0
M  V30 7178 C 702.108 -5.22859 -3.56091 0
M  V30 7179 C 700.772 -5.63086 -3.58456 0
M  V30 7180 H 700.042 -0.327573 -0.664663 0
M  V30 7181 H 702.689 -1.4156 -1.28969 0
M  V30 7182 H 700.994 -0.827871 -3.82954 0
M  V30 7183 H 702.691 -1.2191 -3.8202 0
M  V30 7184 H 699.281 -2.5935 -3.41226 0
M  V30 7185 H 703.465 -3.57371 -3.44383 0
M  V30 7186 H 698.721 -4.98353 -3.54195 0
M  V30 7187 H 702.895 -5.96989 -3.58577 0
M  V30 7188 H 700.522 -6.67905 -3.63052 0
M  V30 7189 N 702.098 1.27442 -0.927168 0
M  V30 7190 C 703.375 1.89473 -0.485742 0
M  V30 7191 C 703.755 1.83922 1.03614 0
M  V30 7192 O 703.103 1.28409 1.89007 0
M  V30 7193 C 703.313 3.33417 -1.03123 0
M  V30 7194 C 704.661 4.10333 -1.0914 0
M  V30 7195 O 705.685 3.4243 -0.98082 0
M  V30 7196 O 704.544 5.31737 -1.26165 0
M  V30 7197 H 701.638 0.812124 -0.156154 0
M  V30 7198 H 704.184 1.35713 -1.01882 0
M  V30 7199 H 702.956 3.31747 -2.07508 0
M  V30 7200 H 702.579 3.94695 -0.479767 0
M  V30 7201 N 703.576 0.692616 1.41565 0
M  V30 7202 C 704.824 0.221896 2.00878 0
M  V30 7203 C 705.145 -1.18164 1.5512 0
M  V30 7204 O 704.415 -1.79679 0.78054 0
M  V30 7205 H 702.995 0.0790463 0.742806 0
M  V30 7206 H 705.657 0.893115 1.73232 0
M  V30 7207 H 704.753 0.23702 3.11199 0
M  V30 7208 N 705.054 -1.51416 0.437162 0
M  V30 7209 C 706.303 -2.01275 -0.130865 0
M  V30 7210 C 706.616 -1.32593 -1.438 0
M  V30 7211 O 707.822 -1.7342 -2.08897 0
M  V30 7212 C 706.278 -3.5878 -0.283763 0
M  V30 7213 C 705.886 -4.36399 1.01293 0
M  V30 7214 C 707.63 -4.16786 -0.805569 0
M  V30 7215 C 705.537 -5.85608 0.825687 0
M  V30 7216 H 704.467 -0.752157 -0.0526818 0
M  V30 7217 H 707.118 -1.74524 0.566896 0
M  V30 7218 H 705.5 -3.81976 -1.04452 0
M  V30 7219 H 706.674 -4.24948 1.78201 0
M  V30 7220 H 704.989 -3.89843 1.46326 0
M  V30 7221 H 707.586 -5.25972 -0.962146 0
M  V30 7222 H 707.929 -3.75949 -1.78796 0
M  V30 7223 H 708.462 -3.97666 -0.103125 0
M  V30 7224 H 705.201 -6.30857 1.78045 0
M  V30 7225 H 704.721 -5.99723 0.0964029 0
M  V30 7226 H 706.4 -6.45226 0.478815 0
M  V30 7227 N 706.532 -0.168513 -1.56696 0
M  V30 7228 C 707.495 0.748928 -2.16619 0
M  V30 7229 C 708.495 1.16007 -1.11351 0
M  V30 7230 O 709.685 1.07748 -1.3688 0
M  V30 7231 C 706.817 2.01904 -2.74677 0
M  V30 7232 H 708.01 0.227317 -2.99037 0
M  V30 7233 H 705.563 0.0810372 -1.5609 0
M  V30 7234 H 706.298 2.58381 -1.95985 0
M  V30 7235 H 706.083 1.73323 -3.51712 0
M  V30 7236 H 707.573 2.67383 -3.20774 0
M  V30 7237 N 708.01 1.57248 0.105221 0
M  V30 7238 C 708.942 1.98008 1.15436 0
M  V30 7239 C 709.955 0.881236 1.36887 0
M  V30 7240 O 711.144 1.15943 1.35718 0
M  V30 7241 C 708.244 2.27509 2.51183 0
M  V30 7242 C 707.417 3.58811 2.50147 0
M  V30 7243 C 706.476 3.76365 3.67745 0
M  V30 7244 O 705.502 4.48329 3.50699 0
M  V30 7245 N 706.704 3.16174 4.86841 0
M  V30 7246 H 709.469 2.88616 0.807519 0
M  V30 7247 H 707.03 1.59202 0.29433 0
M  V30 7248 H 709.022 2.36455 3.28438 0
M  V30 7249 H 707.592 1.42959 2.77995 0
M  V30 7250 H 706.812 3.60927 1.5851 0
M  V30 7251 H 708.1 4.45088 2.46524 0
M  V30 7252 H 707.498 2.57701 5.03594 0
M  V30 7253 H 706.055 3.30621 5.61723 0
M  V30 7254 N 709.488 -0.375779 1.53054 0
M  V30 7255 C 710.737 -1.11674 1.67964 0
M  V30 7256 C 711.05 -1.90755 0.432655 0
M  V30 7257 O 712.256 -2.67538 0.462109 0
M  V30 7258 C 710.712 -2.0344 2.96884 0
M  V30 7259 C 710.32 -1.29719 4.28809 0
M  V30 7260 C 712.064 -2.7759 3.2116 0
M  V30 7261 C 709.971 -2.20327 5.48826 0
M  V30 7262 H 708.901 -0.420597 0.625791 0
M  V30 7263 H 711.552 -0.378499 1.79554 0
M  V30 7264 H 709.934 -2.80953 2.79072 0
M  V30 7265 H 711.108 -0.573394 4.57219 0
M  V30 7266 H 709.423 -0.674735 4.10897 0
M  V30 7267 H 712.02 -3.4559 4.0801 0
M  V30 7268 H 712.363 -3.42399 2.36789 0
M  V30 7269 H 712.896 -2.07164 3.396 0
M  V30 7270 H 709.635 -1.60113 6.35645 0
M  V30 7271 H 709.155 -2.90585 5.2471 0
M  V30 7272 H 710.834 -2.80116 5.83219 0
M  V30 7273 N 710.966 -1.44241 -0.634997 0
M  V30 7274 C 712.382 -1.28043 -0.952742 0
M  V30 7275 C 712.582 -0.21338 -2.00367 0
M  V30 7276 O 711.638 0.402042 -2.49279 0
M  V30 7277 C 712.951 -2.65076 -1.41968 0
M  V30 7278 C 714.499 -2.72755 -1.53537 0
M  V30 7279 C 714.974 -4.10249 -2.03616 0
M  V30 7280 N 716.465 -4.12406 -2.10892 0
M  V30 7281 C 717.2 -5.15641 -2.50803 0
M  V30 7282 N 716.696 -6.29239 -2.89879 0
M  V30 7283 N 718.489 -5.02995 -2.50903 0
M  V30 7284 H 710.64 -2.12315 0.060098 0
M  V30 7285 H 712.903 -0.947326 -0.0357325 0
M  V30 7286 H 712.609 -3.44213 -0.721804 0
M  V30 7287 H 712.483 -2.91704 -2.39141 0
M  V30 7288 H 714.87 -1.93939 -2.22422 0
M  V30 7289 H 714.951 -2.49872 -0.547496 0
M  V30 7290 H 714.595 -4.8954 -1.35327 0
M  V30 7291 H 714.525 -4.30507 -3.03268 0
M  V30 7292 H 717.016 -3.30417 -1.83393 0
M  V30 7293 H 717.329 -7.03827 -3.19135 0
M  V30 7294 H 715.674 -6.32683 -2.8764 0
M  V30 7295 H 718.865 -4.13306 -2.19763 0
M  V30 7296 H 719.038 -5.83574 -2.81683 0
M  V30 7297 N 712.444 0.87505 -1.31075 0
M  V30 7298 C 713.692 1.62447 -1.20231 0
M  V30 7299 C 714.013 1.93506 0.240888 0
M  V30 7300 O 713.283 1.57847 1.16022 0
M  V30 7301 H 711.863 0.602207 -0.441991 0
M  V30 7302 H 714.525 1.04788 -1.64334 0
M  V30 7303 H 713.621 2.57031 -1.77036 0
M  V30 7304 N 713.922 1.13953 1.08869 0
M  V30 7305 C 714.832 0.835666 2.19212 0
M  V30 7306 C 715.848 -0.182005 1.73045 0
M  V30 7307 O 717.024 -0.0116661 2.01397 0
M  V30 7308 C 714.089 0.312325 3.4529 0
M  V30 7309 C 713.15 1.39196 4.06107 0
M  V30 7310 C 712.383 0.893496 5.26168 0
M  V30 7311 O 712.606 -0.266807 5.69776 0
M  V30 7312 O 711.54 1.67037 5.78258 0
M  V30 7313 H 715.366 1.75769 2.47667 0
M  V30 7314 H 712.951 0.917421 1.17914 0
M  V30 7315 H 714.833 0.0261582 4.21392 0
M  V30 7316 H 713.508 -0.582042 3.18424 0
M  V30 7317 H 712.415 1.73152 3.31616 0
M  V30 7318 H 713.748 2.26068 4.37212 0
M  V30 7319 N 715.4 -1.26948 0.933913 0
M  V30 7320 C 716.649 -1.93378 0.573409 0
M  V30 7321 C 716.962 -1.74148 -0.890614 0
M  V30 7322 O 718.168 -2.34971 -1.36017 0
M  V30 7323 C 716.624 -3.46449 0.974747 0
M  V30 7324 C 716.232 -3.74425 2.45988 0
M  V30 7325 C 717.976 -4.18924 0.685791 0
M  V30 7326 C 715.883 -5.209 2.8003 0
M  V30 7327 H 714.813 -0.723952 0.210736 0
M  V30 7328 H 717.464 -1.44143 1.13557 0
M  V30 7329 H 715.846 -3.94528 0.341181 0
M  V30 7330 H 717.02 -3.37079 3.14188 0
M  V30 7331 H 715.335 -3.15167 2.72138 0
M  V30 7332 H 717.932 -5.26786 0.916546 0
M  V30 7333 H 718.275 -4.14587 -0.377217 0
M  V30 7334 H 718.808 -3.76687 1.27874 0
M  V30 7335 H 715.547 -5.30332 3.85264 0
M  V30 7336 H 715.067 -5.59369 2.16485 0
M  V30 7337 H 716.746 -5.88837 2.68105 0
M  V30 7338 N 716.879 -0.700114 -1.41195 0
M  V30 7339 C 718.126 -0.233006 -2.01155 0
M  V30 7340 C 718.454 1.16883 -1.55462 0
M  V30 7341 O 717.709 1.80395 -0.758695 0
M  V30 7342 C 718.008 -0.243986 -3.56566 0
M  V30 7343 C 717.674 -1.59397 -4.21786 0
M  V30 7344 C 716.336 -1.96355 -4.39316 0
M  V30 7345 C 718.688 -2.48192 -4.58312 0
M  V30 7346 C 716.016 -3.21683 -4.9065 0
M  V30 7347 C 718.368 -3.72857 -5.11039 0
M  V30 7348 C 717.032 -4.09951 -5.26779 0
M  V30 7349 H 716.302 -0.085263 -0.736078 0
M  V30 7350 H 718.949 -0.9001 -1.69028 0
M  V30 7351 H 717.254 0.506663 -3.8851 0
M  V30 7352 H 718.951 0.135031 -4.00773 0
M  V30 7353 H 715.541 -1.29654 -4.08519 0
M  V30 7354 H 719.725 -2.20918 -4.4442 0
M  V30 7355 H 714.981 -3.50412 -5.01021 0
M  V30 7356 H 719.155 -4.41844 -5.38282 0
M  V30 7357 H 716.782 -5.07136 -5.66319 0
M  V30 7358 N 718.357 1.51182 -0.445186 0
M  V30 7359 C 719.604 2.02152 0.118645 0
M  V30 7360 C 719.932 1.32888 1.42025 0
M  V30 7361 O 719.187 0.435041 1.90803 0
M  V30 7362 C 719.486 3.55408 0.376797 0
M  V30 7363 C 719.152 4.43008 -0.839945 0
M  V30 7364 C 717.814 4.66669 -1.17361 0
M  V30 7365 C 720.166 4.9435 -1.65127 0
M  V30 7366 C 717.494 5.38919 -2.31913 0
M  V30 7367 C 719.846 5.67857 -2.78786 0
M  V30 7368 C 718.51 5.89779 -3.12597 0
M  V30 7369 H 717.78 0.739727 0.0434152 0
M  V30 7370 H 720.427 1.82055 -0.593984 0
M  V30 7371 H 718.732 3.73879 1.1714 0
M  V30 7372 H 720.429 3.92388 0.826602 0
M  V30 7373 H 717.019 4.24793 -0.569958 0
M  V30 7374 H 721.203 4.75947 -1.4067 0
M  V30 7375 H 716.459 5.54105 -2.58413 0
M  V30 7376 H 720.633 6.06628 -3.42017 0
M  V30 7377 H 718.26 6.45542 -4.01471 0
M  V30 7378 N 719.835 0.176821 1.56605 0
M  V30 7379 C 721.082 -0.466715 1.97048 0
M  V30 7380 C 721.41 -1.6288 1.06302 0
M  V30 7381 O 720.665 -1.95453 0.0982571 0
M  V30 7382 C 720.964 -0.986208 3.43524 0
M  V30 7383 C 720.63 0.0605667 4.50859 0
M  V30 7384 C 719.292 0.348242 4.79938 0
M  V30 7385 C 721.644 0.770794 5.15469 0
M  V30 7386 C 718.972 1.35144 5.70923 0
M  V30 7387 C 721.324 1.76301 6.07537 0
M  V30 7388 C 719.988 2.05808 6.3498 0
M  V30 7389 H 719.258 -0.170783 0.721051 0
M  V30 7390 H 721.905 0.269942 1.89588 0
M  V30 7391 H 720.21 -1.80079 3.47964 0
M  V30 7392 H 721.907 -1.49323 3.72161 0
M  V30 7393 H 718.497 -0.173823 4.28247 0
M  V30 7394 H 722.681 0.56176 4.9311 0
M  V30 7395 H 717.937 1.58616 5.90467 0
M  V30 7396 H 722.111 2.31868 6.56666 0
M  V30 7397 H 719.738 2.8369 7.05283 0
M  V30 7398 N 721.313 -1.57302 -0.09688 0
M  V30 7399 C 722.26 -2.01933 -1.11766 0
M  V30 7400 C 723.23 -0.895329 -1.39904 0
M  V30 7401 O 724.415 -1.16119 -1.51397 0
M  V30 7402 C 721.555 -2.44726 -2.43317 0
M  V30 7403 C 720.668 -3.70639 -2.21925 0
M  V30 7404 C 719.803 -4.02318 -3.46862 0
M  V30 7405 C 718.842 -5.21346 -3.20725 0
M  V30 7406 N 717.979 -5.48787 -4.37924 0
M  V30 7407 H 722.819 -2.88919 -0.730075 0
M  V30 7408 H 720.356 -1.42901 -0.348962 0
M  V30 7409 H 722.314 -2.6758 -3.20088 0
M  V30 7410 H 720.944 -1.60753 -2.79926 0
M  V30 7411 H 719.996 -3.55271 -1.35965 0
M  V30 7412 H 721.308 -4.57557 -1.98603 0
M  V30 7413 H 720.462 -4.25939 -4.32042 0
M  V30 7414 H 719.201 -3.13918 -3.73238 0
M  V30 7415 H 718.206 -4.97547 -2.33938 0
M  V30 7416 H 719.431 -6.11343 -2.95697 0
M  V30 7417 H 717.377 -4.63346 -4.64378 0
M  V30 7418 H 717.294 -6.30073 -4.17785 0
M  V30 7419 H 718.562 -5.76943 -5.24173 0
M  V30 7420 N 722.791 0.367657 -1.53252 0
M  V30 7421 C 724.068 1.12606 -1.59935 0
M  V30 7422 C 724.448 2.07167 -0.405606 0
M  V30 7423 O 723.796 2.20364 0.604323 0
M  V30 7424 C 724.006 1.86699 -2.94863 0
M  V30 7425 C 725.354 2.41306 -3.49366 0
M  V30 7426 O 726.378 1.96828 -2.96879 0
M  V30 7427 O 725.237 3.2261 -4.41118 0
M  V30 7428 H 722.331 0.516438 -0.645926 0
M  V30 7429 H 724.877 0.371088 -1.65593 0
M  V30 7430 H 723.649 1.17674 -3.73187 0
M  V30 7431 H 723.272 2.6911 -2.92687 0
M  V30 7432 N 724.269 1.44576 0.627338 0
M  V30 7433 C 725.685 1.28546 0.945938 0
M  V30 7434 C 725.885 0.224003 2.00251 0
M  V30 7435 O 724.941 -0.388817 2.49488 0
M  V30 7436 C 726.254 2.65825 1.40561 0
M  V30 7437 C 727.802 2.73566 1.52088 0
M  V30 7438 C 728.277 4.11323 2.01438 0
M  V30 7439 N 729.768 4.13519 2.08702 0
M  V30 7440 C 730.503 5.16964 2.48065 0
M  V30 7441 N 729.999 6.30768 2.86538 0
M  V30 7442 N 731.792 5.04319 2.48232 0
M  V30 7443 H 723.943 2.1228 -0.0713567 0
M  V30 7444 H 726.206 0.947503 0.0307081 0
M  V30 7445 H 725.912 3.44591 0.703539 0
M  V30 7446 H 725.786 2.92969 2.37591 0
M  V30 7447 H 728.173 1.95116 2.21391 0
M  V30 7448 H 728.254 2.50159 0.534237 0
M  V30 7449 H 727.898 4.9025 1.32729 0
M  V30 7450 H 727.828 4.32109 3.0098 0
M  V30 7451 H 730.319 3.31385 1.81638 0
M  V30 7452 H 730.632 7.0551 3.15398 0
M  V30 7453 H 728.977 6.342 2.84281 0
M  V30 7454 H 732.168 4.14465 2.17569 0
M  V30 7455 H 732.341 5.85059 2.78585 0
M  V30 7456 N 725.747 -0.868086 1.31537 0
M  V30 7457 C 726.994 -1.62127 1.2133 0
M  V30 7458 C 727.322 -1.93158 -0.2281 0
M  V30 7459 O 726.577 -1.5632 -1.1774 0
M  V30 7460 C 726.876 -2.95889 2.0046 0
M  V30 7461 C 726.542 -2.84343 3.49943 0
M  V30 7462 C 725.204 -2.80901 3.90702 0
M  V30 7463 C 727.556 -2.71243 4.45058 0
M  V30 7464 C 724.884 -2.6222 5.24841 0
M  V30 7465 C 727.236 -2.54098 5.79325 0
M  V30 7466 C 725.9 -2.4904 6.19302 0
M  V30 7467 H 725.17 -0.593265 0.443979 0
M  V30 7468 H 727.817 -1.00803 1.62822 0
M  V30 7469 H 726.122 -3.61259 1.51655 0
M  V30 7470 H 727.819 -3.53161 1.89942 0
M  V30 7471 H 724.409 -2.8784 3.17563 0
M  V30 7472 H 728.593 -2.72956 4.14498 0
M  V30 7473 H 723.849 -2.56731 5.54887 0
M  V30 7474 H 728.023 -2.42938 6.52652 0
M  V30 7475 H 725.65 -2.34324 7.23185 0
M  V30 7476 N 727.225 -1.14528 -1.08264 0
M  V30 7477 C 728.474 -0.908992 -1.80056 0
M  V30 7478 C 728.787 0.565859 -1.87236 0
M  V30 7479 O 729.993 0.919454 -2.55457 0
M  V30 7480 C 728.449 -1.57681 -3.23519 0
M  V30 7481 C 728.057 -3.08803 -3.24569 0
M  V30 7482 C 729.801 -1.4217 -3.99985 0
M  V30 7483 C 727.708 -3.68414 -4.62629 0
M  V30 7484 H 726.638 -0.336432 -0.674781 0
M  V30 7485 H 729.289 -1.37437 -1.21587 0
M  V30 7486 H 727.671 -1.03911 -3.82124 0
M  V30 7487 H 728.845 -3.69252 -2.75663 0
M  V30 7488 H 727.16 -3.23968 -2.61598 0
M  V30 7489 H 729.757 -1.84106 -5.02005 0
M  V30 7490 H 730.1 -0.367989 -4.1467 0
M  V30 7491 H 730.633 -1.92984 -3.47853 0
M  V30 7492 H 727.372 -4.73644 -4.53147 0
M  V30 7493 H 726.892 -3.12746 -5.11811 0
M  V30 7494 H 728.571 -3.68793 -5.31602 0
M  V30 7495 N 728.703 1.26451 -0.940633 0
M  V30 7496 C 729.949 1.94401 -0.598303 0
M  V30 7497 C 730.304 1.72449 0.853178 0
M  V30 7498 O 729.597 1.0506 1.60228 0
M  V30 7499 C 729.791 3.46503 -0.875794 0
M  V30 7500 C 729.62 3.83247 -2.3527 0
M  V30 7501 C 728.39 4.06032 -3.00776 0
M  V30 7502 C 730.588 3.91841 -3.33114 0
M  V30 7503 N 728.57 4.29656 -4.38485 0
M  V30 7504 C 729.941 4.19991 -4.56078 0
M  V30 7505 C 731.996 3.74466 -3.28146 0
M  V30 7506 C 730.699 4.32574 -5.74693 0
M  V30 7507 C 732.725 3.88281 -4.46085 0
M  V30 7508 C 732.087 4.16829 -5.67831 0
M  V30 7509 H 728.186 0.734168 -0.269297 0
M  V30 7510 H 730.77 1.52541 -1.20992 0
M  V30 7511 H 728.941 3.87292 -0.293223 0
M  V30 7512 H 730.673 4.01664 -0.494788 0
M  V30 7513 H 727.428 4.01369 -2.51396 0
M  V30 7514 H 727.852 4.45501 -5.09762 0
M  V30 7515 H 732.494 3.51424 -2.35077 0
M  V30 7516 H 730.212 4.54438 -6.68215 0
M  V30 7517 H 733.798 3.76241 -4.43773 0
M  V30 7518 H 732.678 4.27284 -6.5757 0
M  V30 7519 N 730.181 0.707592 1.40822 0
M  V30 7520 C 731.597 0.38034 1.55002 0
M  V30 7521 C 731.797 -1.11163 1.68062 0
M  V30 7522 O 730.853 -1.89761 1.66574 0
M  V30 7523 C 732.166 1.1394 2.78277 0
M  V30 7524 C 733.714 1.12492 2.92087 0
M  V30 7525 C 734.189 1.86597 4.18265 0
M  V30 7526 N 735.68 1.83626 4.25248 0
M  V30 7527 C 736.415 2.37794 5.21768 0
M  V30 7528 N 735.911 3.00485 6.24244 0
M  V30 7529 N 737.704 2.27982 5.13791 0
M  V30 7530 H 729.855 1.67511 1.3059 0
M  V30 7531 H 732.118 0.707579 0.630901 0
M  V30 7532 H 731.824 2.19398 2.74877 0
M  V30 7533 H 731.698 0.725793 3.70151 0
M  V30 7534 H 734.085 0.0785564 2.94995 0
M  V30 7535 H 734.166 1.57768 2.01353 0
M  V30 7536 H 733.81 2.91219 4.16118 0
M  V30 7537 H 733.74 1.38746 5.07993 0
M  V30 7538 H 736.231 1.3793 3.51829 0
M  V30 7539 H 736.544 3.39355 6.94304 0
M  V30 7540 H 734.889 3.04567 6.24711 0
M  V30 7541 H 738.08 1.78669 4.3266 0
M  V30 7542 H 738.253 2.70499 5.88841 0
M  V30 7543 N 731.66 -1.50943 0.453197 0
M  V30 7544 C 732.888 -2.06628 -0.106135 0
M  V30 7545 C 733.303 -1.31901 -1.35084 0
M  V30 7546 O 732.66 -0.383074 -1.78434 0
M  V30 7547 C 732.711 -3.5914 -0.412368 0
M  V30 7548 O 732.432 -4.31047 0.782948 0
M  V30 7549 C 733.933 -4.31391 -1.02064 0
M  V30 7550 H 731.153 -0.670999 -0.000885896 0
M  V30 7551 H 733.697 -1.94331 0.63684 0
M  V30 7552 H 731.852 -3.71299 -1.10526 0
M  V30 7553 H 732.266 -5.21948 0.516736 0
M  V30 7554 H 733.74 -5.39135 -1.1848 0
M  V30 7555 H 734.217 -3.90714 -2.00598 0
M  V30 7556 H 734.823 -4.23716 -0.366664 0
M  V30 7557 N 733.138 -0.185124 -1.56509 0
M  V30 7558 C 734.384 0.456934 -1.97585 0
M  V30 7559 C 734.717 1.61957 -1.07161 0
M  V30 7560 O 733.992 1.9412 -0.121546 0
M  V30 7561 C 734.275 0.926666 -3.47973 0
M  V30 7562 C 734.128 -0.237097 -4.49175 0
M  V30 7563 C 735.447 1.79561 -4.01803 0
M  V30 7564 H 732.566 0.164619 -0.71838 0
M  V30 7565 H 735.208 -0.274039 -1.88013 0
M  V30 7566 H 733.358 1.54954 -3.56261 0
M  V30 7567 H 735.03 -0.87454 -4.52934 0
M  V30 7568 H 733.273 -0.890446 -4.24563 0
M  V30 7569 H 733.944 0.133924 -5.51838 0
M  V30 7570 H 736.42 1.27039 -3.96232 0
M  V30 7571 H 735.296 2.09327 -5.07418 0
M  V30 7572 H 735.557 2.74629 -3.46455 0
M  V30 7573 N 734.616 1.57351 0.0885366 0
M  V30 7574 C 735.844 1.90631 0.804196 0
M  V30 7575 C 736.259 0.779474 1.71958 0
M  V30 7576 O 735.616 -0.248179 1.80805 0
M  V30 7577 C 735.667 3.23568 1.61202 0
M  V30 7578 O 735.388 4.31917 0.733447 0
M  V30 7579 C 736.889 3.70753 2.43016 0
M  V30 7580 H 734.109 0.630501 0.229585 0
M  V30 7581 H 736.653 2.044 0.0638092 0
M  V30 7582 H 734.808 3.11377 2.30485 0
M  V30 7583 H 735.222 5.08297 1.29361 0
M  V30 7584 H 736.696 4.66447 2.9518 0
M  V30 7585 H 737.173 2.98922 3.2178 0
M  V30 7586 H 737.779 3.85834 1.7892 0
M  V30 7587 N 736.094 -0.359525 1.53444 0
M  V30 7588 C 737.505 -0.936009 1.61542 0
M  V30 7589 C 737.856 -1.90069 0.486633 0
M  V30 7590 O 736.981 -2.12929 -0.386047 0
M  V30 7591 C 737.576 -1.70441 2.92806 0
M  V30 7592 C 736.135 -2.23015 3.03218 0
M  V30 7593 C 735.282 -1.04438 2.56881 0
M  V30 7594 H 738.233 -0.138134 1.58098 0
M  V30 7595 H 738.254 -2.56609 2.80948 0
M  V30 7596 H 737.766 -1.00205 3.74941 0
M  V30 7597 H 735.867 -2.96475 2.25684 0
M  V30 7598 H 735.98 -2.50481 4.08407 0
M  V30 7599 H 734.344 -1.41314 2.11902 0
M  V30 7600 H 735.127 -0.356905 3.4144 0
M  V30 7601 N 737.572 -1.44907 -0.619662 0
M  V30 7602 C 738.988 -1.29046 -0.939107 0
M  V30 7603 C 739.188 -0.23462 -2.00129 0
M  V30 7604 O 738.244 0.37558 -2.49691 0
M  V30 7605 C 739.557 -2.66567 -1.39149 0
M  V30 7606 C 741.105 -2.74368 -1.50635 0
M  V30 7607 C 741.58 -4.12386 -1.99253 0
M  V30 7608 N 743.071 -4.1462 -2.06506 0
M  V30 7609 C 743.806 -5.18272 -2.4532 0
M  V30 7610 N 743.302 -6.32278 -2.83189 0
M  V30 7611 N 745.095 -5.05628 -2.45554 0
M  V30 7612 H 737.246 -2.12239 0.0826135 0
M  V30 7613 H 739.509 -0.947652 -0.0256829 0
M  V30 7614 H 739.215 -3.4496 -0.685254 0
M  V30 7615 H 739.089 -2.94224 -2.36034 0
M  V30 7616 H 741.476 -1.96287 -2.20353 0
M  V30 7617 H 741.557 -2.50439 -0.520963 0
M  V30 7618 H 741.201 -4.90947 -1.30127 0
M  V30 7619 H 741.131 -4.33699 -2.98684 0
M  V30 7620 H 743.622 -3.32343 -1.79878 0
M  V30 7621 H 743.935 -7.07172 -3.11652 0
M  V30 7622 H 742.28 -6.35699 -2.80913 0
M  V30 7623 H 745.471 -4.15613 -2.15367 0
M  V30 7624 H 745.644 -5.86529 -2.75478 0
M  V30 7625 N 739.05 0.861098 -1.31996 0
M  V30 7626 C 740.327 1.59788 -1.12814 0
M  V30 7627 C 740.707 2.08753 0.313882 0
M  V30 7628 O 740.055 1.87258 1.30946 0
M  V30 7629 C 740.265 2.74901 -2.15012 0
M  V30 7630 C 741.613 3.44643 -2.48004 0
M  V30 7631 O 742.637 2.85119 -2.13508 0
M  V30 7632 O 741.496 4.52044 -3.07113 0
M  V30 7633 H 738.59 0.703408 -0.434909 0
M  V30 7634 H 741.136 0.905788 -1.43505 0
M  V30 7635 H 739.908 2.36198 -3.11971 0
M  V30 7636 H 739.531 3.51792 -1.85279 0
M  V30 7637 N 740.528 1.15101 1.07655 0
M  V30 7638 C 741.475 0.844958 2.14777 0
M  V30 7639 C 742.445 -0.200798 1.64882 0
M  V30 7640 O 743.63 -0.0690278 1.90675 0
M  V30 7641 C 740.77 0.337018 3.4345 0
M  V30 7642 C 739.883 1.44398 4.07153 0
M  V30 7643 C 739.018 0.892487 5.23649 0
M  V30 7644 C 738.057 1.9766 5.79307 0
M  V30 7645 N 737.194 1.44171 6.87138 0
M  V30 7646 H 742.034 1.76242 2.40297 0
M  V30 7647 H 739.571 0.879435 1.17917 0
M  V30 7648 H 741.529 0.024256 4.17193 0
M  V30 7649 H 740.159 -0.543531 3.18191 0
M  V30 7650 H 739.211 1.87299 3.31094 0
M  V30 7651 H 740.523 2.26262 4.4453 0
M  V30 7652 H 739.677 0.532083 6.04362 0
M  V30 7653 H 738.416 0.0429854 4.87681 0
M  V30 7654 H 737.421 2.34586 4.97242 0
M  V30 7655 H 738.646 2.82982 6.17331 0
M  V30 7656 H 736.592 0.614518 6.53115 0
M  V30 7657 H 736.509 2.19665 7.23383 0
M  V30 7658 H 737.777 1.10945 7.71564 0
M  V30 7659 N 742.006 -1.2595 0.947325 0
M  V30 7660 C 743.417 -1.75389 0.639963 0
M  V30 7661 C 743.768 -1.77081 -0.844788 0
M  V30 7662 O 742.893 -1.3869 -1.66114 0
M  V30 7663 C 743.488 -3.18506 1.15496 0
M  V30 7664 C 742.047 -3.65534 0.897894 0
M  V30 7665 C 741.194 -2.44818 1.30228 0
M  V30 7666 H 744.145 -1.1194 1.12495 0
M  V30 7667 H 744.166 -3.77045 0.511627 0
M  V30 7668 H 743.678 -3.17243 2.23559 0
M  V30 7669 H 741.779 -3.72221 -0.168096 0
M  V30 7670 H 741.892 -4.54039 1.52922 0
M  V30 7671 H 740.256 -2.44291 0.720678 0
M  V30 7672 H 741.039 -2.46251 2.39198 0
M  V30 7673 N 743.484 -0.715051 -1.40445 0
M  V30 7674 C 744.417 -0.0112426 -2.28197 0
M  V30 7675 C 745.395 0.768211 -1.43308 0
M  V30 7676 O 746.579 0.754961 -1.72721 0
M  V30 7677 C 743.706 0.991453 -3.23864 0
M  V30 7678 C 742.752 0.302873 -4.25423 0
M  V30 7679 S 743.585 -0.968852 -5.26663 0
M  V30 7680 C 744.741 0.0317538 -6.25892 0
M  V30 7681 H 744.974 -0.755467 -2.87541 0
M  V30 7682 H 742.507 -0.506054 -1.45871 0
M  V30 7683 H 744.465 1.56475 -3.79507 0
M  V30 7684 H 743.126 1.70838 -2.63578 0
M  V30 7685 H 742.319 1.06086 -4.92709 0
M  V30 7686 H 741.921 -0.197853 -3.73476 0
M  V30 7687 H 744.213 0.878764 -6.71777 0
M  V30 7688 H 745.156 -0.607698 -7.05488 0
M  V30 7689 H 745.564 0.39524 -5.63115 0
M  V30 7690 N 744.962 1.50701 -0.461195 0
M  V30 7691 C 746.21 2.01867 0.0970051 0
M  V30 7692 C 746.531 1.34591 1.41104 0
M  V30 7693 O 745.801 0.488041 1.89723 0
M  V30 7694 H 744.381 0.74599 0.0388392 0
M  V30 7695 H 747.043 1.85129 -0.609357 0
M  V30 7696 H 746.139 3.11051 0.255688 0
M  V30 7697 N 746.441 0.193421 1.56409 0
M  V30 7698 C 747.852 -0.319471 1.83946 0
M  V30 7699 C 748.203 -1.61505 1.11403 0
M  V30 7700 O 747.328 -2.13139 0.374289 0
M  V30 7701 C 747.923 -0.586411 3.33686 0
M  V30 7702 C 746.482 -1.04368 3.61641 0
M  V30 7703 C 745.629 -0.0913834 2.77149 0
M  V30 7704 H 748.58 0.417242 1.53117 0
M  V30 7705 H 748.601 -1.43591 3.52366 0
M  V30 7706 H 748.113 0.356701 3.86457 0
M  V30 7707 H 746.214 -2.00113 3.14302 0
M  V30 7708 H 746.327 -0.937549 4.69837 0
M  V30 7709 H 744.691 -0.592954 2.47702 0
M  V30 7710 H 745.474 0.846142 3.32709 0
M  V30 7711 N 747.919 -1.57396 -0.0801906 0
M  V30 7712 C 748.849 -2.06145 -1.09665 0
M  V30 7713 C 749.83 -0.953273 -1.40878 0
M  V30 7714 O 751.015 -1.22548 -1.50651 0
M  V30 7715 C 748.145 -2.49836 -2.41245 0
M  V30 7716 C 747.099 -3.64454 -2.24405 0
M  V30 7717 C 746.425 -3.94172 -3.61293 0
M  V30 7718 C 747.725 -4.94807 -1.67223 0
M  V30 7719 H 749.419 -2.91316 -0.691028 0
M  V30 7720 H 746.965 -1.40145 -0.330957 0
M  V30 7721 H 748.918 -2.82552 -3.12638 0
M  V30 7722 H 747.642 -1.61683 -2.83771 0
M  V30 7723 H 746.301 -3.32008 -1.55454 0
M  V30 7724 H 745.949 -3.03163 -4.01374 0
M  V30 7725 H 745.649 -4.71345 -3.50867 0
M  V30 7726 H 747.173 -4.29376 -4.3413 0
M  V30 7727 H 748.587 -5.25807 -2.28472 0
M  V30 7728 H 746.984 -5.76245 -1.67515 0
M  V30 7729 H 748.054 -4.80751 -0.632944 0
M  V30 7730 N 749.397 0.351382 -1.53633 0
M  V30 7731 C 750.327 1.43688 -1.84055 0
M  V30 7732 C 751.308 1.55251 -0.695073 0
M  V30 7733 O 752.493 1.69587 -0.946257 0
M  V30 7734 C 749.623 2.80843 -2.04315 0
M  V30 7735 C 748.577 2.84094 -3.20117 0
M  V30 7736 C 747.903 4.2406 -3.25696 0
M  V30 7737 C 749.203 2.50334 -4.58399 0
M  V30 7738 H 750.897 1.18478 -2.74961 0
M  V30 7739 H 748.443 0.568509 -1.32303 0
M  V30 7740 H 750.396 3.56821 -2.2418 0
M  V30 7741 H 749.12 3.07471 -1.10132 0
M  V30 7742 H 747.779 2.10568 -3.00094 0
M  V30 7743 H 747.427 4.47785 -2.29123 0
M  V30 7744 H 747.127 4.27147 -4.03509 0
M  V30 7745 H 748.651 5.0189 -3.47762 0
M  V30 7746 H 750.065 3.16025 -4.78332 0
M  V30 7747 H 748.462 2.64717 -5.38558 0
M  V30 7748 H 749.532 1.45542 -4.62543 0
M  V30 7749 N 750.875 1.45233 0.611969 0
M  V30 7750 C 752.121 1.49242 1.37312 0
M  V30 7751 C 752.454 0.131963 1.93751 0
M  V30 7752 O 751.729 -0.852999 1.74798 0
M  V30 7753 C 752.012 2.56811 2.52428 0
M  V30 7754 C 751.865 4.02284 2.01215 0
M  V30 7755 C 753.184 2.60705 3.54572 0
M  V30 7756 H 750.303 0.54336 0.497925 0
M  V30 7757 H 752.945 1.77019 0.690242 0
M  V30 7758 H 751.095 2.33256 3.10683 0
M  V30 7759 H 752.767 4.37035 1.47643 0
M  V30 7760 H 751.01 4.1315 1.32248 0
M  V30 7761 H 751.681 4.7323 2.84178 0
M  V30 7762 H 754.157 2.81799 3.06151 0
M  V30 7763 H 753.033 3.37841 4.32614 0
M  V30 7764 H 753.294 1.65627 4.09903 0
M  V30 7765 N 752.353 -0.854086 1.3245 0
M  V30 7766 C 753.316 -1.94427 1.21371 0
M  V30 7767 C 754.316 -1.60219 0.136613 0
M  V30 7768 O 755.506 -1.69846 0.387057 0
M  V30 7769 C 752.638 -3.29698 0.866701 0
M  V30 7770 H 753.831 -2.05679 2.18257 0
M  V30 7771 H 751.384 -1.04434 1.1629 0
M  V30 7772 H 752.119 -3.24145 -0.100319 0
M  V30 7773 H 751.904 -3.55903 1.64545 0
M  V30 7774 H 753.394 -4.09599 0.813515 0
M  V30 7775 N 753.831 -1.1567 -1.07043 0
M  V30 7776 C 755.059 -0.957471 -1.83412 0
M  V30 7777 C 755.474 0.494271 -1.82215 0
M  V30 7778 O 754.831 1.34288 -1.23584 0
M  V30 7779 C 754.882 -1.46784 -3.30359 0
M  V30 7780 O 754.603 -2.86271 -3.31633 0
M  V30 7781 C 756.104 -1.31054 -4.23485 0
M  V30 7782 H 753.324 -0.33986 -0.578564 0
M  V30 7783 H 755.868 -1.53518 -1.35102 0
M  V30 7784 H 754.023 -0.932586 -3.76007 0
M  V30 7785 H 754.437 -3.0948 -4.23465 0
M  V30 7786 H 755.911 -1.71605 -5.24648 0
M  V30 7787 H 756.388 -0.255107 -4.38458 0
M  V30 7788 H 756.994 -1.83503 -3.83676 0
M  V30 7789 N 755.309 1.25446 -0.953992 0
M  V30 7790 C 756.556 1.93143 -0.608429 0
M  V30 7791 C 756.884 1.74727 0.854451 0
M  V30 7792 O 756.139 1.0855 1.62836 0
M  V30 7793 C 756.438 3.45555 -0.912496 0
M  V30 7794 C 756.104 3.84126 -2.36131 0
M  V30 7795 C 754.766 3.94367 -2.75732 0
M  V30 7796 C 757.118 4.0324 -3.30223 0
M  V30 7797 C 754.446 4.21127 -4.08496 0
M  V30 7798 C 756.798 4.31493 -4.62598 0
M  V30 7799 C 755.462 4.3995 -5.01996 0
M  V30 7800 H 754.732 0.706762 -0.22264 0
M  V30 7801 H 757.379 1.49005 -1.20291 0
M  V30 7802 H 755.684 3.91091 -0.235618 0
M  V30 7803 H 757.381 3.9612 -0.623714 0
M  V30 7804 H 753.971 3.76711 -2.04418 0
M  V30 7805 H 758.155 3.94744 -3.00817 0
M  V30 7806 H 753.411 4.2589 -4.38665 0
M  V30 7807 H 757.585 4.45227 -5.35486 0
M  V30 7808 H 755.212 4.60439 -6.04896 0
M  V30 7809 N 756.787 0.722489 1.40064 0
M  V30 7810 C 758.033 0.27422 2.01543 0
M  V30 7811 C 758.388 -1.12224 1.5628 0
M  V30 7812 O 757.681 -1.75179 0.776063 0
M  V30 7813 C 757.875 0.300682 3.56133 0
M  V30 7814 C 757.704 1.69818 4.16404 0
M  V30 7815 C 756.474 2.30747 4.49537 0
M  V30 7816 C 758.672 2.64962 4.40794 0
M  V30 7817 N 756.654 3.62781 4.9524 0
M  V30 7818 C 758.025 3.81712 4.88565 0
M  V30 7819 C 760.08 2.62885 4.22842 0
M  V30 7820 C 758.783 4.96703 5.20268 0
M  V30 7821 C 760.809 3.77009 4.55652 0
M  V30 7822 C 760.171 4.92492 5.03618 0
M  V30 7823 H 756.27 0.146328 0.768188 0
M  V30 7824 H 758.854 0.94577 1.70186 0
M  V30 7825 H 757.025 -0.340461 3.86905 0
M  V30 7826 H 758.757 -0.164951 4.04364 0
M  V30 7827 H 755.512 1.82783 4.36907 0
M  V30 7828 H 755.936 4.30533 5.22465 0
M  V30 7829 H 760.578 1.74803 3.84972 0
M  V30 7830 H 758.296 5.85425 5.57049 0
M  V30 7831 H 761.882 3.76685 4.43396 0
M  V30 7832 H 760.762 5.79336 5.28525 0
M  V30 7833 N 758.265 -1.50454 0.469181 0
M  V30 7834 C 759.676 -1.86695 0.0136034 0
M  V30 7835 C 760.027 -1.38413 -1.39055 0
M  V30 7836 O 759.152 -0.748294 -2.03051 0
M  V30 7837 C 759.747 -3.38795 0.0179098 0
M  V30 7838 C 758.306 -3.74455 -0.382191 0
M  V30 7839 C 757.453 -2.74338 0.404207 0
M  V30 7840 H 760.404 -1.43225 0.683547 0
M  V30 7841 H 760.425 -3.72321 -0.78468 0
M  V30 7842 H 759.937 -3.73906 1.04 0
M  V30 7843 H 758.038 -3.44944 -1.4087 0
M  V30 7844 H 758.151 -4.79025 -0.084862 0
M  V30 7845 H 756.515 -2.54305 -0.141829 0
M  V30 7846 H 757.298 -3.12293 1.42577 0
M  V30 7847 N 759.743 -0.201713 -1.56304 0
M  V30 7848 C 760.653 0.728296 -2.23009 0
M  V30 7849 C 761.669 1.22945 -1.23128 0
M  V30 7850 O 762.845 1.27523 -1.55884 0
M  V30 7851 C 759.91 1.92792 -2.88153 0
M  V30 7852 C 758.971 1.47068 -4.03323 0
M  V30 7853 C 758.204 2.61312 -4.65351 0
M  V30 7854 O 758.427 3.7896 -4.26317 0
M  V30 7855 O 757.361 2.33646 -5.54701 0
M  V30 7856 H 761.187 0.190166 -3.03104 0
M  V30 7857 H 758.772 0.0278725 -1.49374 0
M  V30 7858 H 760.654 2.6289 -3.29343 0
M  V30 7859 H 759.329 2.45452 -2.11033 0
M  V30 7860 H 758.236 0.738299 -3.66742 0
M  V30 7861 H 759.569 0.990666 -4.82127 0
M  V30 7862 N 761.222 1.57436 0.0718424 0
M  V30 7863 C 762.152 2.06724 1.08571 0
M  V30 7864 C 763.133 0.960731 1.40371 0
M  V30 7865 O 764.318 1.23345 1.49999 0
M  V30 7866 C 761.448 2.51112 2.39916 0
M  V30 7867 C 760.402 3.65639 2.22469 0
M  V30 7868 C 759.728 3.96082 3.59198 0
M  V30 7869 C 761.028 4.95687 1.64596 0
M  V30 7870 H 762.722 2.91679 0.675569 0
M  V30 7871 H 760.268 1.40319 0.32352 0
M  V30 7872 H 762.221 2.84206 3.11135 0
M  V30 7873 H 760.945 1.63186 2.8291 0
M  V30 7874 H 759.604 3.32828 1.53691 0
M  V30 7875 H 759.252 3.05287 3.99761 0
M  V30 7876 H 758.952 4.73199 3.48362 0
M  V30 7877 H 760.476 4.31672 4.31847 0
M  V30 7878 H 761.89 5.27011 2.25681 0
M  V30 7879 H 760.287 5.77126 1.64457 0
M  V30 7880 H 761.357 4.8108 0.60744 0
M  V30 7881 N 762.7 -0.34323 1.53817 0
M  V30 7882 C 764.111 -0.918823 1.62525 0
M  V30 7883 C 764.462 -1.89542 0.506765 0
M  V30 7884 O 763.587 -2.13326 -0.363441 0
M  V30 7885 C 764.182 -1.67326 2.94597 0
M  V30 7886 C 762.741 -2.19786 3.05567 0
M  V30 7887 C 761.888 -1.01708 2.57974 0
M  V30 7888 H 764.839 -0.121358 1.58235 0
M  V30 7889 H 764.86 -2.53615 2.83654 0
M  V30 7890 H 764.372 -0.962223 3.75983 0
M  V30 7891 H 762.473 -2.94065 2.28816 0
M  V30 7892 H 762.586 -2.46135 4.1104 0
M  V30 7893 H 760.95 -1.39058 2.13389 0
M  V30 7894 H 761.733 -0.320671 3.41799 0
M  V30 7895 N 764.178 -1.45556 -0.604258 0
M  V30 7896 C 765.088 -1.57025 -1.74299 0
M  V30 7897 C 766.104 -0.45456 -1.67958 0
M  V30 7898 O 767.28 -0.715711 -1.88254 0
M  V30 7899 C 764.345 -1.53702 -3.10768 0
M  V30 7900 C 763.406 -2.76335 -3.28538 0
M  V30 7901 C 762.639 -2.73161 -4.58496 0
M  V30 7902 O 762.862 -1.80678 -5.41028 0
M  V30 7903 O 761.796 -3.64409 -4.79051 0
M  V30 7904 H 765.622 -2.53284 -1.67573 0
M  V30 7905 H 763.207 -1.28104 -0.768745 0
M  V30 7906 H 765.089 -1.54468 -3.92068 0
M  V30 7907 H 763.764 -0.605957 -3.17978 0
M  V30 7908 H 762.671 -2.8113 -2.46813 0
M  V30 7909 H 764.004 -3.68578 -3.26207 0
M  V30 7910 N 765.656 0.84705 -1.32902 0
M  V30 7911 C 766.603 1.95624 -1.22473 0
M  V30 7912 C 767.573 1.65767 -0.105178 0
M  V30 7913 O 768.758 1.88704 -0.282042 0
M  V30 7914 C 765.898 3.31434 -0.961542 0
M  V30 7915 C 765.011 3.73741 -2.1666 0
M  V30 7916 C 764.146 4.98379 -1.83825 0
M  V30 7917 C 763.185 5.33199 -3.00609 0
M  V30 7918 N 762.322 6.49014 -2.67816 0
M  V30 7919 H 767.162 2.03875 -2.17345 0
M  V30 7920 H 764.699 0.997764 -1.08088 0
M  V30 7921 H 766.657 4.09663 -0.789411 0
M  V30 7922 H 765.287 3.22762 -0.0495938 0
M  V30 7923 H 764.339 2.91102 -2.44875 0
M  V30 7924 H 765.651 3.95462 -3.03993 0
M  V30 7925 H 764.805 5.84336 -1.63208 0
M  V30 7926 H 763.544 4.78611 -0.937172 0
M  V30 7927 H 762.549 4.4575 -3.21849 0
M  V30 7928 H 763.774 5.5492 -3.9146 0
M  V30 7929 H 761.72 6.30748 -1.80258 0
M  V30 7930 H 761.637 6.7079 -3.48679 0
M  V30 7931 H 762.905 7.38103 -2.50647 0
M  V30 7932 N 767.134 1.16236 1.06428 0
M  V30 7933 C 768.383 0.937523 1.78587 0
M  V30 7934 C 768.696 -0.536 1.88113 0
M  V30 7935 O 769.902 -0.878697 2.56887 0
M  V30 7936 C 768.358 1.62808 3.2097 0
M  V30 7937 C 767.966 3.13927 3.19615 0
M  V30 7938 C 769.71 1.48515 3.97673 0
M  V30 7939 C 767.617 3.75727 4.56709 0
M  V30 7940 H 766.547 0.347125 0.669343 0
M  V30 7941 H 769.198 1.39353 1.19385 0
M  V30 7942 H 767.58 1.09977 3.80422 0
M  V30 7943 H 768.754 3.7359 2.69753 0
M  V30 7944 H 767.069 3.28089 2.56411 0
M  V30 7945 H 769.666 1.92069 4.99013 0
M  V30 7946 H 770.009 0.433913 4.14032 0
M  V30 7947 H 770.542 1.98494 3.44739 0
M  V30 7948 H 767.281 4.80793 4.45554 0
M  V30 7949 H 766.801 3.20849 5.0677 0
M  V30 7950 H 768.48 3.77203 5.25668 0
M  V30 7951 N 768.612 -1.24939 0.960631 0
M  V30 7952 C 769.889 -1.88118 0.535807 0
M  V30 7953 C 770.269 -1.86605 -0.987009 0
M  V30 7954 O 769.617 -1.33375 -1.85536 0
M  V30 7955 C 769.827 -3.30565 1.11927 0
M  V30 7956 C 771.175 -4.07296 1.19981 0
M  V30 7957 O 772.199 -3.39709 1.07126 0
M  V30 7958 O 771.058 -5.28206 1.40218 0
M  V30 7959 H 768.152 -0.807698 0.177631 0
M  V30 7960 H 770.698 -1.32964 1.05445 0
M  V30 7961 H 769.47 -3.26128 2.16231 0
M  V30 7962 H 769.093 -3.93284 0.584245 0
M  V30 7963 N 770.09 -0.729906 -1.39679 0
M  V30 7964 C 771.053 -0.0951668 -2.29002 0
M  V30 7965 C 772.053 0.672471 -1.46063 0
M  V30 7966 O 773.243 0.502245 -1.66803 0
M  V30 7967 C 770.375 0.874631 -3.29489 0
M  V30 7968 H 771.568 -0.882062 -2.86635 0
M  V30 7969 H 769.121 -0.495424 -1.4824 0
M  V30 7970 H 769.856 1.68807 -2.76902 0
M  V30 7971 H 769.641 0.326893 -3.90735 0
M  V30 7972 H 771.131 1.31548 -3.96339 0
M  V30 7973 N 771.568 1.50203 -0.477153 0
M  V30 7974 C 772.814 2.02658 0.0758507 0
M  V30 7975 C 773.147 1.358 1.38824 0
M  V30 7976 O 772.422 0.485696 1.88338 0
M  V30 7977 C 772.705 3.59208 0.253339 0
M  V30 7978 C 772.558 4.36629 -1.0805 0
M  V30 7979 C 773.877 4.28469 1.00509 0
M  V30 7980 H 770.996 0.736538 0.0260921 0
M  V30 7981 H 773.638 1.79464 -0.623925 0
M  V30 7982 H 771.788 3.79101 0.849378 0
M  V30 7983 H 773.46 4.28292 -1.71358 0
M  V30 7984 H 771.703 4.0013 -1.67566 0
M  V30 7985 H 772.374 5.44449 -0.909883 0
M  V30 7986 H 774.85 4.13087 0.499818 0
M  V30 7987 H 773.726 5.37804 1.09808 0
M  V30 7988 H 773.987 3.92057 2.04314 0
M  V30 7989 N 773.046 0.209999 1.56195 0
M  V30 7990 C 774.276 -0.429373 2.02089 0
M  V30 7991 C 774.684 -1.54703 1.0892 0
M  V30 7992 O 774.027 -1.83485 0.0889535 0
M  V30 7993 C 774.089 -1.03266 3.44349 0
M  V30 7994 C 773.753 -0.0518873 4.56971 0
M  V30 7995 C 774.75 0.744249 5.14545 0
M  V30 7996 C 772.435 0.0635185 5.0226 0
M  V30 7997 C 774.429 1.64261 6.15871 0
M  V30 7998 C 772.116 0.965423 6.03426 0
M  V30 7999 C 773.114 1.75352 6.60106 0
M  V30 8000 O 772.802 2.64029 7.59305 0
M  V30 8001 H 772.534 -0.110604 0.66689 0
M  V30 8002 H 775.088 0.320436 2.02885 0
M  V30 8003 H 773.318 -1.83134 3.40586 0
M  V30 8004 H 775.007 -1.57823 3.73961 0
M  V30 8005 H 775.773 0.665476 4.80413 0
M  V30 8006 H 771.652 -0.539762 4.57829 0
M  V30 8007 H 775.196 2.25819 6.60039 0
M  V30 8008 H 771.093 1.04526 6.36981 0
M  V30 8009 H 771.861 2.57974 7.76783 0
M  V30 8010 N 774.524 -1.57472 -0.0634922 0
M  V30 8011 C 775.434 -2.07621 -1.09227 0
M  V30 8012 C 776.45 -1.00746 -1.41867 0
M  V30 8013 O 777.626 -1.32269 -1.51878 0
M  V30 8014 C 774.691 -2.51707 -2.38421 0
M  V30 8015 C 773.752 -3.72917 -2.12676 0
M  V30 8016 C 772.985 -4.14891 -3.3571 0
M  V30 8017 O 773.208 -3.56663 -4.45137 0
M  V30 8018 O 772.142 -5.07616 -3.23434 0
M  V30 8019 H 775.968 -2.95612 -0.696205 0
M  V30 8020 H 773.553 -1.46787 -0.27819 0
M  V30 8021 H 775.435 -2.80547 -3.14438 0
M  V30 8022 H 774.11 -1.66842 -2.77391 0
M  V30 8023 H 773.017 -3.49148 -1.34337 0
M  V30 8024 H 774.35 -4.5866 -1.78583 0
M  V30 8025 N 776.003 0.335068 -1.53997 0
M  V30 8026 C 776.966 1.39481 -1.81872 0
M  V30 8027 C 777.966 1.4524 -0.690078 0
M  V30 8028 O 779.156 1.45467 -0.958377 0
M  V30 8029 C 776.288 2.78329 -1.9684 0
M  V30 8030 H 777.481 1.16024 -2.76547 0
M  V30 8031 H 775.034 0.569926 -1.45539 0
M  V30 8032 H 775.769 3.07058 -1.04337 0
M  V30 8033 H 775.554 2.75544 -2.78958 0
M  V30 8034 H 777.044 3.55016 -2.19894 0
M  V30 8035 N 777.481 1.45874 0.596531 0
M  V30 8036 C 778.892 1.44798 1.17857 0
M  V30 8037 C 779.243 0.181443 1.95359 0
M  V30 8038 O 778.368 -0.716336 2.042 0
M  V30 8039 C 778.963 2.62333 2.14398 0
M  V30 8040 C 777.522 2.64342 2.67955 0
M  V30 8041 C 776.669 2.37244 1.43564 0
M  V30 8042 H 779.62 1.53954 0.385222 0
M  V30 8043 H 779.641 2.37063 2.97626 0
M  V30 8044 H 779.153 3.54499 1.57963 0
M  V30 8045 H 777.254 1.76213 3.28298 0
M  V30 8046 H 777.367 3.63897 3.11634 0
M  V30 8047 H 775.731 1.87022 1.72901 0
M  V30 8048 H 776.514 3.31568 0.889805 0
M  V30 8049 N 778.959 -0.83999 1.33349 0
M  V30 8050 C 779.891 -1.95678 1.19344 0
M  V30 8051 C 780.904 -1.62322 0.124692 0
M  V30 8052 O 782.093 -1.74516 0.375012 0
M  V30 8053 C 779.193 -3.29133 0.807771 0
M  V30 8054 C 778.366 -3.9063 1.96792 0
M  V30 8055 C 777.425 -5.02438 1.56341 0
M  V30 8056 O 776.451 -5.21646 2.27759 0
M  V30 8057 N 777.653 -5.78612 0.467767 0
M  V30 8058 H 780.418 -2.08229 2.15548 0
M  V30 8059 H 777.979 -1.01566 1.26079 0
M  V30 8060 H 779.971 -4.01355 0.519282 0
M  V30 8061 H 778.541 -3.12535 -0.063555 0
M  V30 8062 H 777.761 -3.11011 2.4221 0
M  V30 8063 H 779.049 -4.2845 2.74422 0
M  V30 8064 H 778.447 -5.65559 -0.126324 0
M  V30 8065 H 777.004 -6.51362 0.238945 0
M  V30 8066 N 780.437 -1.16799 -1.0581 0
M  V30 8067 C 781.347 -0.893492 -2.16919 0
M  V30 8068 C 782.363 0.136061 -1.73467 0
M  V30 8069 O 783.539 -0.0417348 -2.01357 0
M  V30 8070 C 780.604 -0.403763 -3.44341 0
M  V30 8071 C 779.665 -1.49914 -4.02274 0
M  V30 8072 C 778.898 -1.03269 -5.23614 0
M  V30 8073 O 779.121 0.115647 -5.70283 0
M  V30 8074 O 778.055 -1.8231 -5.73626 0
M  V30 8075 H 781.881 -1.82274 -2.42919 0
M  V30 8076 H 779.466 -0.948361 -1.1544 0
M  V30 8077 H 781.348 -0.137874 -4.21174 0
M  V30 8078 H 780.023 0.497413 -3.19855 0
M  V30 8079 H 778.93 -1.81883 -3.26909 0
M  V30 8080 H 780.263 -2.3758 -4.31064 0
M  V30 8081 N 781.915 1.24427 -0.967243 0
M  V30 8082 C 782.825 2.29109 -0.504592 0
M  V30 8083 C 783.841 1.68495 0.434224 0
M  V30 8084 O 785.017 1.99041 0.307379 0
M  V30 8085 C 782.082 3.46133 0.198273 0
M  V30 8086 C 781.143 4.22149 -0.780313 0
M  V30 8087 C 780.376 5.33585 -0.110896 0
M  V30 8088 O 780.599 5.59676 1.10088 0
M  V30 8089 O 779.533 5.96522 -0.802823 0
M  V30 8090 H 783.359 2.708 -1.37482 0
M  V30 8091 H 780.944 1.30111 -0.73426 0
M  V30 8092 H 782.826 4.17205 0.593124 0
M  V30 8093 H 781.501 3.0642 1.04347 0
M  V30 8094 H 780.408 3.53454 -1.22561 0
M  V30 8095 H 781.741 4.65677 -1.59392 0
M  V30 8096 N 783.393 0.737304 1.3929 0
M  V30 8097 C 784.34 0.0988364 2.30588 0
M  V30 8098 C 785.31 -0.727206 1.49335 0
M  V30 8099 O 786.495 -0.686694 1.78014 0
M  V30 8100 C 783.635 -0.800734 3.35682 0
M  V30 8101 C 782.748 0.0381731 4.31983 0
M  V30 8102 C 781.883 -0.862884 5.24145 0
M  V30 8103 C 780.922 -0.0193639 6.12097 0
M  V30 8104 N 780.059 -0.87648 6.96608 0
M  V30 8105 H 784.899 0.883031 2.84617 0
M  V30 8106 H 782.436 0.447111 1.4014 0
M  V30 8107 H 784.394 -1.33676 3.95205 0
M  V30 8108 H 783.024 -1.55088 2.83103 0
M  V30 8109 H 782.076 0.691641 3.74059 0
M  V30 8110 H 783.388 0.690294 4.94 0
M  V30 8111 H 782.542 -1.46667 5.88705 0
M  V30 8112 H 781.281 -1.54878 4.62454 0
M  V30 8113 H 780.286 0.597202 5.46547 0
M  V30 8114 H 781.511 0.663348 6.75852 0
M  V30 8115 H 779.457 -1.54762 6.37483 0
M  V30 8116 H 779.374 -0.280892 7.55478 0
M  V30 8117 H 780.642 -1.46575 7.65595 0
M  V30 8118 N 784.871 -1.49948 0.485112 0
M  V30 8119 C 785.834 -2.27351 -0.290546 0
M  V30 8120 C 786.834 -1.32704 -0.908087 0
M  V30 8121 O 788.024 -1.56007 -0.775085 0
M  V30 8122 C 785.156 -3.10135 -1.41524 0
M  V30 8123 H 786.349 -2.97374 0.388454 0
M  V30 8124 H 783.902 -1.54453 0.239586 0
M  V30 8125 H 784.637 -2.44641 -2.12888 0
M  V30 8126 H 784.422 -3.79705 -0.978074 0
M  V30 8127 H 785.912 -3.68638 -1.96204 0
M  V30 8128 N 786.349 -0.21828 -1.56081 0
M  V30 8129 C 787.595 0.414921 -1.9851 0
M  V30 8130 C 787.928 1.59648 -1.10573 0
M  V30 8131 O 787.203 1.93818 -0.162695 0
M  V30 8132 C 787.486 0.852647 -3.4986 0
M  V30 8133 C 787.339 -0.33232 -4.48571 0
M  V30 8134 C 788.658 1.70998 -4.05521 0
M  V30 8135 H 785.777 0.149344 -0.72171 0
M  V30 8136 H 788.419 -0.313858 -1.8739 0
M  V30 8137 H 786.569 1.47362 -3.59467 0
M  V30 8138 H 788.241 -0.970418 -4.50977 0
M  V30 8139 H 786.484 -0.980302 -4.22578 0
M  V30 8140 H 787.155 0.0168407 -5.51997 0
M  V30 8141 H 789.631 1.18606 -3.98838 0
M  V30 8142 H 788.507 1.98517 -5.11744 0
M  V30 8143 H 788.768 2.67219 -3.52202 0
M  V30 8144 N 787.827 1.57504 0.0551401 0
M  V30 8145 C 789.074 1.88055 0.751104 0
M  V30 8146 C 789.402 0.812231 1.76729 0
M  V30 8147 O 788.657 -0.189918 1.94776 0
M  V30 8148 C 788.956 3.25311 1.48013 0
M  V30 8149 C 788.622 4.46858 0.602375 0
M  V30 8150 C 787.284 4.79847 0.360536 0
M  V30 8151 C 789.636 5.212 -0.00524047 0
M  V30 8152 C 786.964 5.84582 -0.498127 0
M  V30 8153 C 789.316 6.26844 -0.851453 0
M  V30 8154 C 787.98 6.58324 -1.103 0
M  V30 8155 H 787.25 0.688142 0.274848 0
M  V30 8156 H 789.897 1.91497 0.0114795 0
M  V30 8157 H 788.202 3.17737 2.29239 0
M  V30 8158 H 789.899 3.46189 2.02371 0
M  V30 8159 H 786.489 4.21049 0.801007 0
M  V30 8160 H 790.673 4.96013 0.168682 0
M  V30 8161 H 785.929 6.07361 -0.701594 0
M  V30 8162 H 790.103 6.83603 -1.32893 0
M  V30 8163 H 787.73 7.39304 -1.77011 0
M  V30 8164 N 789.305 -0.326896 1.54172 0
M  V30 8165 C 790.552 -1.06523 1.72218 0
M  V30 8166 C 790.88 -1.88119 0.494114 0
M  V30 8167 O 790.135 -1.8855 -0.524147 0
M  V30 8168 C 790.434 -2.0208 2.94785 0
M  V30 8169 C 790.1 -1.36665 4.2969 0
M  V30 8170 C 788.762 -1.18556 4.66367 0
M  V30 8171 C 791.114 -0.896868 5.13425 0
M  V30 8172 C 788.442 -0.521113 5.84381 0
M  V30 8173 C 790.794 -0.246261 6.3212 0
M  V30 8174 C 789.458 -0.052987 6.67479 0
M  V30 8175 H 788.728 -0.389796 0.63019 0
M  V30 8176 H 791.375 -0.342725 1.88408 0
M  V30 8177 H 789.68 -2.8077 2.73268 0
M  V30 8178 H 791.377 -2.59231 3.05941 0
M  V30 8179 H 787.967 -1.51762 4.00832 0
M  V30 8180 H 792.151 -1.02458 4.85609 0
M  V30 8181 H 787.407 -0.36014 6.10338 0
M  V30 8182 H 791.581 0.125775 6.96286 0
M  V30 8183 H 789.208 0.463903 7.58783 0
M  V30 8184 N 790.784 -1.46188 -0.588786 0
M  V30 8185 C 791.747 -1.55882 -1.68029 0
M  V30 8186 C 792.747 -0.436515 -1.54762 0
M  V30 8187 O 793.937 -0.700626 -1.59489 0
M  V30 8188 C 791.069 -1.47332 -3.07418 0
M  V30 8189 H 792.262 -2.5315 -1.60795 0
M  V30 8190 H 789.815 -1.33908 -0.806116 0
M  V30 8191 H 790.55 -0.513193 -3.20214 0
M  V30 8192 H 790.335 -2.28753 -3.18456 0
M  V30 8193 H 791.825 -1.57187 -3.86887 0
M  V30 8194 N 792.262 0.832906 -1.33792 0
M  V30 8195 C 793.51 1.58539 -1.25338 0
M  V30 8196 C 793.831 1.94175 0.179204 0
M  V30 8197 O 793.101 1.61458 1.10941 0
M  V30 8198 H 791.681 0.58784 -0.460926 0
M  V30 8199 H 794.343 0.995064 -1.67584 0
M  V30 8200 H 793.439 2.51268 -1.85123 0
M  V30 8201 N 793.74 1.17359 1.05189 0
M  V30 8202 C 794.688 0.886527 2.15043 0
M  V30 8203 C 795.682 -0.148834 1.68745 0
M  V30 8204 O 796.888 -0.00175123 1.8 0
M  V30 8205 H 793.263 0.269147 0.702185 0
M  V30 8206 H 795.234 1.82016 2.36459 0
M  V30 8207 C 793.983 0.416333 3.45198 0
M  V30 8208 H 793.306 1.20449 3.81225 0
M  V30 8209 H 794.746 0.254362 4.23236 0
M  V30 8210 C 793.205 -0.866016 3.25579 0
M  V30 8211 O 793.735 -1.9328 3.52144 0
M  V30 8212 N 791.941 -0.814179 2.78961 0
M  V30 8213 H 791.488 0.0541618 2.57543 0
M  V30 8214 H 791.446 -1.67264 2.66214 0
M  V30 8215 N 795.218 -1.23913 0.973828 0
M  V30 8216 C 796.128 -2.28838 0.516735 0
M  V30 8217 C 797.144 -1.68723 -0.425282 0
M  V30 8218 O 798.32 -1.99201 -0.296819 0
M  V30 8219 C 795.385 -3.46233 -0.179914 0
M  V30 8220 C 794.446 -4.21729 0.80269 0
M  V30 8221 C 793.679 -5.33518 0.139191 0
M  V30 8222 O 793.902 -5.60252 -1.07118 0
M  V30 8223 O 792.836 -5.96088 0.834447 0
M  V30 8224 H 796.662 -2.70067 1.38916 0
M  V30 8225 H 794.247 -1.2972 0.74115 0
M  V30 8226 H 796.129 -4.17514 -0.570991 0
M  V30 8227 H 794.804 -3.06969 -1.02721 0
M  V30 8228 H 793.711 -3.52799 1.24434 0
M  V30 8229 H 795.044 -4.64825 1.61859 0
M  V30 8230 N 796.696 -0.74468 -1.38897 0
M  V30 8231 C 797.926 -0.306982 -2.04307 0
M  V30 8232 C 798.334 1.06652 -1.56275 0
M  V30 8233 O 797.677 1.68699 -0.72708 0
M  V30 8234 C 797.739 -0.241186 -3.5869 0
M  V30 8235 C 797.403 -1.55476 -4.2974 0
M  V30 8236 C 798.4 -2.50229 -4.55721 0
M  V30 8237 C 796.085 -1.82173 -4.68101 0
M  V30 8238 C 798.079 -3.69905 -5.19085 0
M  V30 8239 C 795.766 -3.02125 -5.31191 0
M  V30 8240 C 796.764 -3.95812 -5.56616 0
M  V30 8241 O 796.452 -5.13656 -6.18395 0
M  V30 8242 H 796.184 -0.130416 -0.663301 0
M  V30 8243 H 798.738 -1.01192 -1.78744 0
M  V30 8244 H 796.968 0.519925 -3.83189 0
M  V30 8245 H 798.657 0.165806 -4.05561 0
M  V30 8246 H 799.423 -2.30877 -4.26522 0
M  V30 8247 H 795.302 -1.10091 -4.47662 0
M  V30 8248 H 798.846 -4.43047 -5.38846 0
M  V30 8249 H 794.743 -3.21374 -5.59811 0
M  V30 8250 H 795.511 -5.14119 -6.36886 0
M  V30 8251 N 798.174 1.49689 -0.493057 0
M  V30 8252 C 799.42 2.03347 0.0463792 0
M  V30 8253 C 799.775 1.36671 1.35421 0
M  V30 8254 O 799.068 0.4907 1.8521 0
M  V30 8255 C 799.262 3.56427 0.263536 0
M  V30 8256 C 799.091 4.3794 -1.02169 0
M  V30 8257 C 797.861 4.8025 -1.57125 0
M  V30 8258 C 800.059 4.77 -1.9229 0
M  V30 8259 N 798.041 5.46162 -2.80321 0
M  V30 8260 C 799.412 5.42549 -3.00067 0
M  V30 8261 C 801.467 4.58945 -1.93064 0
M  V30 8262 C 800.17 5.91954 -4.08635 0
M  V30 8263 C 802.196 5.09306 -3.00602 0
M  V30 8264 C 801.558 5.74849 -4.07097 0
M  V30 8265 H 797.657 0.781644 -0.0236097 0
M  V30 8266 H 800.241 1.82949 -0.666151 0
M  V30 8267 H 798.412 3.76725 0.945118 0
M  V30 8268 H 800.144 3.96729 0.79927 0
M  V30 8269 H 796.899 4.60228 -1.11746 0
M  V30 8270 H 797.323 5.83711 -3.42944 0
M  V30 8271 H 801.965 4.07685 -1.12039 0
M  V30 8272 H 799.683 6.4224 -4.90463 0
M  V30 8273 H 803.269 4.97152 -3.0221 0
M  V30 8274 H 802.149 6.13113 -4.88939 0
M  V30 8275 N 799.652 0.226554 1.55963 0
M  V30 8276 C 800.901 -0.40417 1.97609 0
M  V30 8277 C 801.214 -1.60541 1.1174 0
M  V30 8278 O 802.42 -2.30598 1.43307 0
M  V30 8279 C 800.876 -0.770466 3.51556 0
M  V30 8280 C 800.484 0.408244 4.46136 0
M  V30 8281 C 802.228 -1.36651 4.01904 0
M  V30 8282 C 800.135 0.0192347 5.91397 0
M  V30 8283 H 799.065 -0.15478 0.737943 0
M  V30 8284 H 801.716 0.323558 1.80625 0
M  V30 8285 H 800.098 -1.55575 3.6416 0
M  V30 8286 H 801.272 1.18575 4.45283 0
M  V30 8287 H 799.587 0.917859 4.06158 0
M  V30 8288 H 802.184 -1.67055 5.07934 0
M  V30 8289 H 802.527 -2.28403 3.48049 0
M  V30 8290 H 803.06 -0.644556 3.92543 0
M  V30 8291 H 799.799 0.90336 6.49245 0
M  V30 8292 H 799.319 -0.722485 5.95433 0
M  V30 8293 H 800.998 -0.405711 6.45727 0
M  V30 8294 N 801.13 -1.57531 -0.0467866 0
M  V30 8295 C 802.36 -1.92417 -0.752279 0
M  V30 8296 C 802.768 -0.823134 -1.70356 0
M  V30 8297 O 802.111 0.210598 -1.82489 0
M  V30 8298 C 802.173 -3.22974 -1.57887 0
M  V30 8299 C 801.837 -4.50045 -0.794285 0
M  V30 8300 C 802.834 -5.19799 -0.102368 0
M  V30 8301 C 800.519 -4.96608 -0.754061 0
M  V30 8302 C 802.513 -6.34385 0.619267 0
M  V30 8303 C 800.2 -6.11093 -0.0286682 0
M  V30 8304 C 801.198 -6.79835 0.656772 0
M  V30 8305 O 800.886 -7.92133 1.37042 0
M  V30 8306 H 800.618 -0.640029 -0.217576 0
M  V30 8307 H 803.172 -2.05395 -0.0137438 0
M  V30 8308 H 801.402 -3.06273 -2.3608 0
M  V30 8309 H 803.091 -3.43319 -2.16533 0
M  V30 8310 H 803.857 -4.8484 -0.124589 0
M  V30 8311 H 799.736 -4.42958 -1.27706 0
M  V30 8312 H 803.28 -6.87975 1.15483 0
M  V30 8313 H 799.177 -6.455 -0.00446214 0
M  V30 8314 H 799.945 -8.08394 1.28227 0
M  V30 8315 N 802.608 0.318715 -1.54344 0
M  V30 8316 C 803.833 1.07987 -1.77069 0
M  V30 8317 C 804.258 1.80766 -0.520117 0
M  V30 8318 O 803.616 1.73424 0.528566 0
M  V30 8319 C 803.664 2.04987 -2.96669 0
M  V30 8320 O 802.768 3.12974 -2.68554 0
M  V30 8321 H 802.109 0.311109 -0.586606 0
M  V30 8322 H 804.639 0.361533 -2.0138 0
M  V30 8323 H 804.649 2.47771 -3.2415 0
M  V30 8324 H 803.324 1.51417 -3.87357 0
M  V30 8325 H 801.901 2.74831 -2.52037 0
M  V30 8326 N 804.086 1.46499 0.581025 0
M  V30 8327 C 805.049 1.5677 1.672 0
M  V30 8328 C 806.049 0.444716 1.54528 0
M  V30 8329 O 807.239 0.709074 1.59116 0
M  V30 8330 C 804.371 1.4896 3.06633 0
M  V30 8331 H 805.564 2.54 1.5945 0
M  V30 8332 H 803.117 1.34334 0.799003 0
M  V30 8333 H 803.852 0.530168 3.19937 0
M  V30 8334 H 803.637 2.30439 3.17239 0
M  V30 8335 H 805.127 1.59237 3.86048 0
M  V30 8336 N 805.565 -0.825799 1.34232 0
M  V30 8337 C 806.79 -1.61883 1.29648 0
M  V30 8338 C 807.215 -1.87669 -0.127295 0
M  V30 8339 O 806.573 -1.45016 -1.08813 0
M  V30 8340 C 806.621 -2.93846 2.09014 0
M  V30 8341 O 805.725 -3.85778 1.4577 0
M  V30 8342 H 805.066 -0.492454 0.445405 0
M  V30 8343 H 807.596 -1.02641 1.76992 0
M  V30 8344 H 807.606 -3.43435 2.20264 0
M  V30 8345 H 806.281 -2.74401 3.12533 0
M  V30 8346 H 804.858 -3.4429 1.43245 0
M  V30 8347 N 807.043 -1.17915 -1.04565 0
M  V30 8348 C 808.271 -0.99616 -1.8134 0
M  V30 8349 C 808.686 0.455509 -1.83223 0
M  V30 8350 O 808.043 1.31636 -1.26405 0
M  V30 8351 C 808.094 -1.53758 -3.27171 0
M  V30 8352 O 807.815 -2.93241 -3.25486 0
M  V30 8353 C 809.316 -1.40007 -4.2061 0
M  V30 8354 H 806.536 -0.352055 -0.571225 0
M  V30 8355 H 809.08 -1.56349 -1.31815 0
M  V30 8356 H 807.235 -1.01213 -3.73945 0
M  V30 8357 H 807.649 -3.18392 -4.16805 0
M  V30 8358 H 809.123 -1.82695 -5.2089 0
M  V30 8359 H 809.6 -0.348054 -4.37819 0
M  V30 8360 H 810.206 -1.916 -3.79697 0
M  V30 8361 N 808.521 1.23394 -0.980386 0
M  V30 8362 C 809.451 2.2717 -0.540024 0
M  V30 8363 C 810.432 1.64659 0.426787 0
M  V30 8364 O 811.617 1.91543 0.320153 0
M  V30 8365 C 808.747 3.46939 0.15836 0
M  V30 8366 C 807.701 4.21802 -0.725732 0
M  V30 8367 C 807.027 5.34597 0.104866 0
M  V30 8368 C 808.327 4.81802 -2.01654 0
M  V30 8369 H 810.021 2.64257 -1.40743 0
M  V30 8370 H 807.567 1.2703 -0.678193 0
M  V30 8371 H 809.52 4.18683 0.477737 0
M  V30 8372 H 808.244 3.08912 1.06022 0
M  V30 8373 H 806.903 3.51875 -1.02857 0
M  V30 8374 H 806.551 4.92812 1.00726 0
M  V30 8375 H 806.251 5.85607 -0.483557 0
M  V30 8376 H 807.775 6.09163 0.418624 0
M  V30 8377 H 809.189 5.45554 -1.76193 0
M  V30 8378 H 807.586 5.43098 -2.55273 0
M  V30 8379 H 808.656 4.02549 -2.70338 0
M  V30 8380 N 809.999 0.752036 1.385 0
M  V30 8381 C 810.909 0.125318 2.34265 0
M  V30 8382 C 811.925 -0.702437 1.59191 0
M  V30 8383 O 813.101 -0.626951 1.91393 0
M  V30 8384 C 810.166 -0.758486 3.38301 0
M  V30 8385 C 809.227 0.0834636 4.29219 0
M  V30 8386 C 808.46 -0.758252 5.28286 0
M  V30 8387 O 808.683 -1.99632 5.34325 0
M  V30 8388 O 807.617 -0.177878 6.01637 0
M  V30 8389 H 811.443 0.91617 2.89551 0
M  V30 8390 H 809.028 0.512911 1.4032 0
M  V30 8391 H 810.91 -1.26365 4.02007 0
M  V30 8392 H 809.585 -1.52786 2.85374 0
M  V30 8393 H 808.492 0.634545 3.68679 0
M  V30 8394 H 809.825 0.815455 4.85398 0
M  V30 8395 N 811.477 -1.49425 0.500989 0
M  V30 8396 C 812.893 -1.58826 0.156951 0
M  V30 8397 C 813.093 -1.50622 -1.33848 0
M  V30 8398 O 812.149 -1.38016 -2.11442 0
M  V30 8399 C 813.462 -2.91611 0.73374 0
M  V30 8400 C 815.01 -3.05076 0.699846 0
M  V30 8401 C 815.485 -4.40479 1.2547 0
M  V30 8402 N 816.976 -4.4697 1.2154 0
M  V30 8403 C 817.711 -5.50189 1.6149 0
M  V30 8404 N 817.207 -6.60512 2.09034 0
M  V30 8405 N 819 -5.40903 1.52907 0
M  V30 8406 H 811.151 -1.53001 1.47324 0
M  V30 8407 H 813.414 -0.724765 0.61108 0
M  V30 8408 H 813.12 -3.03182 1.78251 0
M  V30 8409 H 812.994 -3.767 0.19417 0
M  V30 8410 H 815.381 -2.93134 -0.340085 0
M  V30 8411 H 815.462 -2.2167 1.27656 0
M  V30 8412 H 815.106 -4.53172 2.29341 0
M  V30 8413 H 815.036 -5.22524 0.653921 0
M  V30 8414 H 817.527 -3.67819 0.867043 0
M  V30 8415 H 817.84 -7.35372 2.37588 0
M  V30 8416 H 816.185 -6.61553 2.13008 0
M  V30 8417 H 819.376 -4.53606 1.15583 0
M  V30 8418 H 819.549 -6.21219 1.84365 0
M  V30 8419 N 812.955 -0.234822 -1.55841 0
M  V30 8420 C 814.203 0.392483 -1.98252 0
M  V30 8421 C 814.524 1.59344 -1.12404 0
M  V30 8422 O 813.794 1.94834 -0.204055 0
M  V30 8423 H 812.374 0.147999 -0.732192 0
M  V30 8424 H 815.036 -0.330804 -1.92072 0
M  V30 8425 H 814.132 0.709829 -3.03921 0
M  V30 8426 N 814.433 1.57553 0.0384317 0
M  V30 8427 C 815.663 1.92813 0.742064 0
M  V30 8428 C 816.071 0.832157 1.69917 0
M  V30 8429 O 815.414 -0.200917 1.82598 0
M  V30 8430 C 815.476 3.23806 1.56172 0
M  V30 8431 C 815.14 4.50459 0.770407 0
M  V30 8432 C 816.137 5.19846 0.0748006 0
M  V30 8433 C 813.822 4.97001 0.727714 0
M  V30 8434 C 815.816 6.34047 -0.652902 0
M  V30 8435 C 813.503 6.111 -0.00373992 0
M  V30 8436 C 814.501 6.79477 -0.692816 0
M  V30 8437 O 814.189 7.91395 -1.41241 0
M  V30 8438 H 813.921 0.641174 0.214179 0
M  V30 8439 H 816.475 2.054 0.00285095 0
M  V30 8440 H 814.705 3.0752 2.34453 0
M  V30 8441 H 816.394 3.44463 2.14709 0
M  V30 8442 H 817.16 4.84899 0.098875 0
M  V30 8443 H 813.039 4.43629 1.25355 0
M  V30 8444 H 816.583 6.87353 -1.1913 0
M  V30 8445 H 812.48 6.45493 -0.0297703 0
M  V30 8446 H 813.248 8.07702 -1.32512 0
M  V30 8447 N 815.911 -0.310526 1.54511 0
M  V30 8448 C 817.322 -0.884142 1.64438 0
M  V30 8449 C 817.673 -1.88425 0.546855 0
M  V30 8450 O 816.798 -2.14049 -0.31811 0
M  V30 8451 C 817.393 -1.6104 2.9808 0
M  V30 8452 C 815.952 -2.13255 3.1016 0
M  V30 8453 C 815.099 -0.96213 2.60074 0
M  V30 8454 H 818.05 -0.0877666 1.58457 0
M  V30 8455 H 818.071 -2.47541 2.8897 0
M  V30 8456 H 817.583 -0.882255 3.77939 0
M  V30 8457 H 815.684 -2.89145 2.35002 0
M  V30 8458 H 815.797 -2.37361 4.16169 0
M  V30 8459 H 814.161 -1.34501 2.16291 0
M  V30 8460 H 814.944 -0.248098 3.42402 0
M  V30 8461 N 817.389 -1.46805 -0.573248 0
M  V30 8462 C 818.336 -1.58084 -1.68161 0
M  V30 8463 C 819.306 -0.424636 -1.6058 0
M  V30 8464 O 820.491 -0.642623 -1.79652 0
M  V30 8465 C 817.631 -1.58601 -3.06496 0
M  V30 8466 C 816.744 -2.85023 -3.24632 0
M  V30 8467 C 815.879 -2.76981 -4.53271 0
M  V30 8468 C 814.918 -3.983 -4.64783 0
M  V30 8469 N 814.055 -3.88589 -5.84759 0
M  V30 8470 H 818.895 -2.52755 -1.57858 0
M  V30 8471 H 816.432 -1.25385 -0.769218 0
M  V30 8472 H 818.39 -1.56885 -3.86579 0
M  V30 8473 H 817.02 -0.674553 -3.15673 0
M  V30 8474 H 816.072 -2.96678 -2.38089 0
M  V30 8475 H 817.384 -3.7491 -3.29004 0
M  V30 8476 H 816.538 -2.73424 -5.41594 0
M  V30 8477 H 815.277 -1.84751 -4.51352 0
M  V30 8478 H 814.282 -4.02179 -3.74876 0
M  V30 8479 H 815.507 -4.91639 -4.68474 0
M  V30 8480 H 813.453 -2.99151 -5.83819 0
M  V30 8481 H 813.37 -4.7214 -5.90441 0
M  V30 8482 H 814.638 -3.89022 -6.75486 0
M  V30 8483 N 818.867 0.818669 -1.34668 0
M  V30 8484 C 820.278 1.39177 -1.24446 0
M  V30 8485 C 820.629 1.9578 0.128268 0
M  V30 8486 O 819.754 1.90382 1.02877 0
M  V30 8487 C 820.349 2.53012 -2.25323 0
M  V30 8488 C 818.908 3.06218 -2.18878 0
M  V30 8489 C 818.055 1.79112 -2.11694 0
M  V30 8490 H 821.006 0.622709 -1.45973 0
M  V30 8491 H 821.027 3.31226 -1.8727 0
M  V30 8492 H 820.539 2.11784 -3.25221 0
M  V30 8493 H 818.64 3.51939 -1.22351 0
M  V30 8494 H 818.753 3.65019 -3.10319 0
M  V30 8495 H 817.117 2.0018 -1.57481 0
M  V30 8496 H 817.9 1.40053 -3.13433 0
M  V30 8497 N 820.346 1.18468 1.03938 0
M  V30 8498 C 821.276 0.936389 2.13902 0
M  V30 8499 C 822.257 -0.126381 1.6963 0
M  V30 8500 O 823.442 0.0264757 1.94182 0
M  V30 8501 C 820.572 0.462729 3.44204 0
M  V30 8502 C 819.526 1.46613 4.02105 0
M  V30 8503 C 818.852 0.84994 5.27902 0
M  V30 8504 C 820.152 2.84323 4.3813 0
M  V30 8505 H 821.846 1.85602 2.3493 0
M  V30 8506 H 819.392 0.893806 1.12903 0
M  V30 8507 H 821.345 0.276382 4.20493 0
M  V30 8508 H 820.069 -0.492477 3.22866 0
M  V30 8509 H 818.728 1.63944 3.27899 0
M  V30 8510 H 818.376 -0.112493 5.02874 0
M  V30 8511 H 818.076 1.51988 5.67603 0
M  V30 8512 H 819.6 0.674152 6.06867 0
M  V30 8513 H 821.014 2.70636 5.054 0
M  V30 8514 H 819.411 3.48012 4.88884 0
M  V30 8515 H 820.481 3.37776 3.47901 0
M  V30 8516 N 821.824 -1.22873 0.986916 0
M  V30 8517 C 823.052 -1.95487 0.677663 0
M  V30 8518 C 823.467 -1.72978 -0.756572 0
M  V30 8519 O 822.824 -1.02517 -1.50985 0
M  V30 8520 C 822.875 -3.48337 0.966638 0
M  V30 8521 O 822.596 -3.70087 2.34451 0
M  V30 8522 C 824.097 -4.38142 0.674248 0
M  V30 8523 H 821.317 -0.622211 0.251185 0
M  V30 8524 H 823.861 -1.56187 1.32007 0
M  V30 8525 H 822.016 -3.85628 0.370137 0
M  V30 8526 H 822.43 -4.64332 2.43918 0
M  V30 8527 H 823.904 -5.44165 0.926759 0
M  V30 8528 H 824.381 -4.3745 -0.391728 0
M  V30 8529 H 824.987 -4.06469 1.25152 0
M  V30 8530 N 823.302 -0.75937 -1.38099 0
M  V30 8531 C 824.527 -0.327859 -2.04792 0
M  V30 8532 C 824.952 1.03752 -1.56899 0
M  V30 8533 O 824.31 1.66235 -0.723581 0
M  V30 8534 C 824.358 -0.366264 -3.58735 0
M  V30 8535 O 823.462 0.637697 -4.0744 0
M  V30 8536 H 822.803 -0.144092 -0.648177 0
M  V30 8537 H 825.333 -1.03211 -1.7666 0
M  V30 8538 H 825.343 -0.219179 -4.07411 0
M  V30 8539 H 824.018 -1.36243 -3.92951 0
M  V30 8540 H 822.595 0.454749 -3.70117 0
M  V30 8541 N 824.78 1.49157 -0.508906 0
M  V30 8542 C 825.71 2.32109 0.254469 0
M  V30 8543 C 826.691 1.40754 0.955111 0
M  V30 8544 O 827.876 1.69658 0.944983 0
M  V30 8545 C 825.006 3.21458 1.3146 0
M  V30 8546 C 823.96 4.2167 0.733368 0
M  V30 8547 C 823.286 5.00009 1.8946 0
M  V30 8548 C 824.586 5.21544 -0.280875 0
M  V30 8549 H 826.28 2.9618 -0.43795 0
M  V30 8550 H 823.826 1.4243 -0.212062 0
M  V30 8551 H 825.779 3.78305 1.85643 0
M  V30 8552 H 824.503 2.55346 2.03632 0
M  V30 8553 H 823.162 3.65979 0.213231 0
M  V30 8554 H 822.81 4.30338 2.60419 0
M  V30 8555 H 822.51 5.67821 1.51173 0
M  V30 8556 H 824.034 5.59702 2.44061 0
M  V30 8557 H 825.448 5.73039 0.173095 0
M  V30 8558 H 823.845 5.97291 -0.580006 0
M  V30 8559 H 824.915 4.69969 -1.19404 0
M  V30 8560 N 826.258 0.243083 1.55714 0
M  V30 8561 C 827.506 -0.381964 1.98458 0
M  V30 8562 C 827.827 -1.58745 1.13247 0
M  V30 8563 O 827.097 -1.94723 0.214384 0
M  V30 8564 H 825.677 -0.144114 0.732967 0
M  V30 8565 H 828.339 0.340985 1.91894 0
M  V30 8566 H 827.435 -0.693702 3.04293 0
M  V30 8567 N 827.736 -1.57571 -0.0300757 0
M  V30 8568 C 828.666 -2.0953 -1.03051 0
M  V30 8569 C 829.647 -0.99761 -1.37774 0
M  V30 8570 O 830.832 -1.27279 -1.46676 0
M  V30 8571 C 827.962 -2.57385 -2.33174 0
M  V30 8572 C 826.916 -3.71409 -2.12696 0
M  V30 8573 C 826.242 -4.05467 -3.4857 0
M  V30 8574 C 827.542 -4.99877 -1.51396 0
M  V30 8575 H 829.236 -2.93367 -0.597999 0
M  V30 8576 H 826.782 -1.41127 -0.286203 0
M  V30 8577 H 828.735 -2.92355 -3.03491 0
M  V30 8578 H 827.459 -1.70629 -2.78484 0
M  V30 8579 H 826.118 -3.36786 -1.44813 0
M  V30 8580 H 825.766 -3.15779 -3.91526 0
M  V30 8581 H 825.466 -4.82269 -3.35694 0
M  V30 8582 H 826.99 -4.4297 -4.2025 0
M  V30 8583 H 828.404 -5.3281 -2.11629 0
M  V30 8584 H 826.801 -5.81283 -1.49098 0
M  V30 8585 H 827.871 -4.82522 -0.479676 0
M  V30 8586 N 829.214 0.302327 -1.54673 0
M  V30 8587 C 830.625 0.875409 -1.64904 0
M  V30 8588 C 830.976 1.88132 -0.55684 0
M  V30 8589 O 830.101 2.14215 0.306754 0
M  V30 8590 C 830.696 1.59457 -2.9893 0
M  V30 8591 C 829.255 2.11607 -3.11287 0
M  V30 8592 C 828.402 0.948324 -2.6058 0
M  V30 8593 H 831.353 0.079362 -1.58501 0
M  V30 8594 H 831.374 2.46005 -2.90279 0
M  V30 8595 H 830.886 0.8622 -3.78402 0
M  V30 8596 H 828.987 2.87895 -2.36532 0
M  V30 8597 H 829.1 2.35151 -4.17422 0
M  V30 8598 H 827.464 1.33352 -2.17001 0
M  V30 8599 H 828.247 0.229936 -3.42529 0
M  V30 8600 N 830.692 1.47107 0.565454 0
M  V30 8601 C 832.103 1.47266 1.1476 0
M  V30 8602 C 832.454 0.222841 1.9493 0
M  V30 8603 O 831.579 -0.672862 2.05673 0
M  V30 8604 C 832.174 2.66822 2.08785 0
M  V30 8605 C 830.733 2.69967 2.62288 0
M  V30 8606 C 829.88 2.40236 1.38499 0
M  V30 8607 H 832.831 1.54736 0.352479 0
M  V30 8608 H 832.852 2.43323 2.92531 0
M  V30 8609 H 832.364 3.5777 1.50408 0
M  V30 8610 H 830.465 1.83137 3.24487 0
M  V30 8611 H 830.578 3.70426 3.03845 0
M  V30 8612 H 828.942 1.90648 1.68895 0
M  V30 8613 H 829.725 3.33381 0.819274 0
M  V30 8614 N 832.17 -0.811516 1.35101 0
M  V30 8615 C 833.447 -1.55491 1.18667 0
M  V30 8616 C 833.827 -2.09775 -0.236189 0
M  V30 8617 O 833.175 -1.91989 -1.23905 0
M  V30 8618 C 833.385 -2.66732 2.25067 0
M  V30 8619 C 834.733 -3.35201 2.60625 0
M  V30 8620 O 835.757 -2.76998 2.23943 0
M  V30 8621 O 834.616 -4.40334 3.23679 0
M  V30 8622 H 831.71 -0.686783 0.460716 0
M  V30 8623 H 834.256 -0.851903 1.46768 0
M  V30 8624 H 833.028 -2.24457 3.20523 0
M  V30 8625 H 832.651 -3.44673 1.98208 0
M  V30 8626 N 833.648 -1.19017 -1.03309 0
M  V30 8627 C 834.894 -0.991681 -1.769 0
M  V30 8628 C 835.227 0.476813 -1.88255 0
M  V30 8629 O 834.502 1.35407 -1.39625 0
M  V30 8630 C 834.785 -1.65627 -3.19749 0
M  V30 8631 C 834.638 -3.19813 -3.1629 0
M  V30 8632 C 835.957 -1.37579 -4.18043 0
M  V30 8633 H 833.076 -0.361674 -0.642153 0
M  V30 8634 H 835.718 -1.46795 -1.20628 0
M  V30 8635 H 833.868 -1.25132 -3.67796 0
M  V30 8636 H 835.54 -3.69494 -2.76174 0
M  V30 8637 H 833.783 -3.51578 -2.54117 0
M  V30 8638 H 834.454 -3.61457 -4.17196 0
M  V30 8639 H 836.93 -1.72679 -3.78578 0
M  V30 8640 H 835.806 -1.86636 -5.16196 0
M  V30 8641 H 836.067 -0.300118 -4.4108 0
M  V30 8642 N 835.127 1.22348 -0.993418 0
M  V30 8643 C 836.059 2.23626 -0.502404 0
M  V30 8644 C 837.072 1.57739 0.402784 0
M  V30 8645 O 838.261 1.77321 0.204835 0
M  V30 8646 C 835.361 3.37647 0.291118 0
M  V30 8647 C 834.534 4.33121 -0.610332 0
M  V30 8648 C 833.593 5.26035 0.131572 0
M  V30 8649 O 832.619 5.67145 -0.483199 0
M  V30 8650 N 833.821 5.63023 1.41371 0
M  V30 8651 H 836.586 2.66385 -1.37329 0
M  V30 8652 H 834.147 1.36653 -0.868196 0
M  V30 8653 H 836.139 3.96792 0.796107 0
M  V30 8654 H 834.709 2.93967 1.0631 0
M  V30 8655 H 833.929 3.72287 -1.29598 0
M  V30 8656 H 835.217 4.93853 -1.22422 0
M  V30 8657 H 834.615 5.31596 1.93449 0
M  V30 8658 H 833.172 6.24582 1.86388 0
M  V30 8659 N 836.605 0.766683 1.37694 0
M  V30 8660 C 838.021 0.445739 1.53249 0
M  V30 8661 C 838.221 -1.03935 1.72626 0
M  V30 8662 O 837.277 -1.82525 1.74473 0
M  V30 8663 C 838.59 1.2564 2.73194 0
M  V30 8664 C 840.138 1.24779 2.87053 0
M  V30 8665 C 840.613 2.04169 4.09974 0
M  V30 8666 N 842.104 2.01497 4.17077 0
M  V30 8667 C 842.839 2.5971 5.11212 0
M  V30 8668 N 842.335 3.26691 6.10938 0
M  V30 8669 N 844.128 2.49568 5.03659 0
M  V30 8670 H 836.279 1.72899 1.23368 0
M  V30 8671 H 838.542 0.733701 0.600322 0
M  V30 8672 H 838.248 2.30859 2.65324 0
M  V30 8673 H 838.122 0.882133 3.6674 0
M  V30 8674 H 840.509 0.203603 2.94397 0
M  V30 8675 H 840.59 1.66166 1.9448 0
M  V30 8676 H 840.234 3.08606 4.03392 0
M  V30 8677 H 840.164 1.60167 5.01651 0
M  V30 8678 H 842.655 1.52728 3.45662 0
M  V30 8679 H 842.968 3.68497 6.79286 0
M  V30 8680 H 841.313 3.30789 6.11231 0
M  V30 8681 H 844.504 1.96859 4.24693 0
M  V30 8682 H 844.677 2.95231 5.76839 0
M  V30 8683 N 838.083 -1.48885 0.516809 0
M  V30 8684 C 839.329 -2.02788 -0.0220928 0
M  V30 8685 C 839.662 -1.39433 -1.35175 0
M  V30 8686 O 838.937 -0.535459 -1.86984 0
M  V30 8687 C 839.22 -3.59753 -0.158012 0
M  V30 8688 C 839.073 -4.33611 1.19588 0
M  V30 8689 C 840.392 -4.30984 -0.891133 0
M  V30 8690 H 837.511 -0.736971 -0.00655488 0
M  V30 8691 H 840.153 -1.77746 0.671287 0
M  V30 8692 H 838.303 -3.8122 -0.748568 0
M  V30 8693 H 839.975 -4.23598 1.82653 0
M  V30 8694 H 838.218 -3.95547 1.78116 0
M  V30 8695 H 838.889 -5.41846 1.05391 0
M  V30 8696 H 841.365 -4.14267 -0.39012 0
M  V30 8697 H 840.241 -5.40527 -0.955107 0
M  V30 8698 H 840.502 -3.97336 -1.93847 0
M  V30 8699 N 839.561 -0.251338 -1.55583 0
M  V30 8700 C 840.838 0.422729 -1.90977 0
M  V30 8701 C 841.218 1.75534 -1.17265 0
M  V30 8702 O 840.566 2.26632 -0.291588 0
M  V30 8703 C 840.776 0.586448 -3.44037 0
M  V30 8704 C 842.124 0.880294 -4.15375 0
M  V30 8705 O 843.148 0.672148 -3.49801 0
M  V30 8706 O 842.007 1.27694 -5.31372 0
M  V30 8707 H 839.101 0.227622 -0.795058 0
M  V30 8708 H 841.647 -0.295733 -1.67103 0
M  V30 8709 H 840.419 -0.352327 -3.89711 0
M  V30 8710 H 840.042 1.35528 -3.73789 0
M  V30 8711 N 841.039 1.57585 0.0217189 0
M  V30 8712 C 842.002 2.06004 1.00474 0
M  V30 8713 C 843.002 0.965461 1.2859 0
M  V30 8714 O 844.192 1.22884 1.23471 0
M  V30 8715 C 841.324 2.48319 2.33561 0
M  V30 8716 H 842.517 2.94112 0.586346 0
M  V30 8717 H 840.07 1.53973 0.268716 0
M  V30 8718 H 840.805 1.63389 2.80133 0
M  V30 8719 H 840.59 3.28239 2.1448 0
M  V30 8720 H 842.08 2.86181 3.04122 0
M  V30 8721 N 842.517 -0.29412 1.54831 0
M  V30 8722 C 843.48 -1.3461 1.85507 0
M  V30 8723 C 844.48 -1.43359 0.728343 0
M  V30 8724 O 845.67 -1.42875 0.996609 0
M  V30 8725 C 842.802 -2.73012 2.0415 0
M  V30 8726 H 843.995 -1.08651 2.79526 0
M  V30 8727 H 841.548 -0.531138 1.46999 0
M  V30 8728 H 842.283 -3.04183 1.12441 0
M  V30 8729 H 842.068 -2.68051 2.86166 0
M  V30 8730 H 843.558 -3.49061 2.29229 0
M  V30 8731 N 843.995 -1.47404 -0.557645 0
M  V30 8732 C 845.242 -1.54007 -1.31484 0
M  V30 8733 C 845.57 -0.202162 -1.93447 0
M  V30 8734 O 844.825 0.804901 -1.78381 0
M  V30 8735 C 845.124 -2.6061 -2.44575 0
M  V30 8736 C 844.79 -4.03896 -2.00446 0
M  V30 8737 C 843.452 -4.42901 -1.88127 0
M  V30 8738 C 845.804 -4.93804 -1.66754 0
M  V30 8739 C 843.132 -5.6965 -1.40411 0
M  V30 8740 C 845.484 -6.21016 -1.20509 0
M  V30 8741 C 844.148 -6.58903 -1.06786 0
M  V30 8742 H 843.418 -0.563552 -0.481134 0
M  V30 8743 H 846.065 -1.81001 -0.625375 0
M  V30 8744 H 844.37 -2.27371 -3.19076 0
M  V30 8745 H 846.067 -2.62941 -3.02759 0
M  V30 8746 H 842.657 -3.73077 -2.10977 0
M  V30 8747 H 846.841 -4.64369 -1.75144 0
M  V30 8748 H 842.097 -5.97755 -1.2845 0
M  V30 8749 H 846.271 -6.90095 -0.935001 0
M  V30 8750 H 843.898 -7.57008 -0.695891 0
M  V30 8751 N 845.473 0.80434 -1.35529 0
M  V30 8752 C 846.421 1.93769 -1.28671 0
M  V30 8753 C 847.415 1.68428 -0.181222 0
M  V30 8754 O 848.621 1.76617 -0.347338 0
M  V30 8755 H 844.996 0.636663 -0.400206 0
M  V30 8756 H 846.967 1.96673 -2.24415 0
M  V30 8757 C 845.716 3.30572 -1.07784 0
M  V30 8758 H 845.039 3.5063 -1.9209 0
M  V30 8759 H 846.479 4.1027 -1.07027 0
M  V30 8760 C 844.938 3.36193 0.218213 0
M  V30 8761 O 845.468 3.82941 1.21323 0
M  V30 8762 N 843.674 2.89455 0.257761 0
M  V30 8763 H 843.221 2.51604 -0.552562 0
M  V30 8764 H 843.179 2.93597 1.12465 0
M  V30 8765 N 846.951 1.19563 1.02676 0
M  V30 8766 C 848.197 1.01108 1.7649 0
M  V30 8767 C 848.552 -0.453152 1.86987 0
M  V30 8768 O 847.845 -1.33209 1.37717 0
M  V30 8769 C 848.039 1.61619 3.18769 0
M  V30 8770 C 847.868 3.13774 3.22142 0
M  V30 8771 C 846.638 3.82687 3.29968 0
M  V30 8772 C 848.836 4.11114 3.09014 0
M  V30 8773 N 846.818 5.2222 3.22737 0
M  V30 8774 C 848.189 5.37259 3.0944 0
M  V30 8775 C 850.244 4.02447 2.93157 0
M  V30 8776 C 848.947 6.55738 2.95636 0
M  V30 8777 C 850.973 5.20538 2.80703 0
M  V30 8778 C 850.335 6.45582 2.81785 0
M  V30 8779 H 846.434 0.424123 0.656996 0
M  V30 8780 H 849.018 1.5157 1.22207 0
M  V30 8781 H 847.189 1.13756 3.71368 0
M  V30 8782 H 848.921 1.36579 3.80957 0
M  V30 8783 H 845.676 3.3349 3.36275 0
M  V30 8784 H 846.1 5.95238 3.22523 0
M  V30 8785 H 850.742 3.0659 2.9114 0
M  V30 8786 H 848.46 7.51778 2.96403 0
M  V30 8787 H 852.046 5.15635 2.69466 0
M  V30 8788 H 850.926 7.35423 2.72254 0
M  V30 8789 N 848.429 -1.21819 0.999893 0
M  V30 8790 C 849.654 -1.95298 0.698094 0
M  V30 8791 C 850.079 -1.73273 -0.731982 0
M  V30 8792 O 849.437 -1.01634 -1.50134 0
M  V30 8793 C 849.485 -3.45922 1.01834 0
M  V30 8794 O 848.589 -4.12223 0.120801 0
M  V30 8795 H 847.93 -0.610729 0.260588 0
M  V30 8796 H 850.46 -1.5472 1.33876 0
M  V30 8797 H 850.47 -3.96471 0.963074 0
M  V30 8798 H 849.145 -3.61278 2.06037 0
M  V30 8799 H 847.722 -3.72177 0.232153 0
M  V30 8800 N 849.908 -0.773975 -1.37286 0
M  V30 8801 C 850.855 -0.159938 -2.30245 0
M  V30 8802 C 851.825 0.687356 -1.51211 0
M  V30 8803 O 853.01 0.639255 -1.79773 0
M  V30 8804 C 850.15 0.711452 -3.37687 0
M  V30 8805 C 849.263 -0.152692 -4.3173 0
M  V30 8806 C 848.398 0.723613 -5.26248 0
M  V30 8807 C 847.437 -0.14293 -6.11933 0
M  V30 8808 N 846.574 0.691479 -6.98687 0
M  V30 8809 H 851.414 -0.958182 -2.82175 0
M  V30 8810 H 848.951 -0.48411 -1.38906 0
M  V30 8811 H 850.909 1.2315 -3.9861 0
M  V30 8812 H 849.539 1.47528 -2.87116 0
M  V30 8813 H 848.591 -0.790574 -3.72094 0
M  V30 8814 H 849.903 -0.821027 -4.91997 0
M  V30 8815 H 849.057 1.31006 -5.92387 0
M  V30 8816 H 847.796 1.42562 -4.66398 0
M  V30 8817 H 846.801 -0.7419 -5.44771 0
M  V30 8818 H 848.026 -0.842305 -6.73856 0
M  V30 8819 H 845.972 1.37806 -6.41362 0
M  V30 8820 H 845.889 0.0804911 -7.55957 0
M  V30 8821 H 847.157 1.26225 -7.69212 0
M  V30 8822 N 851.386 1.48609 -0.524698 0
M  V30 8823 C 852.334 2.31205 0.254398 0
M  V30 8824 C 853.328 1.40894 0.940491 0
M  V30 8825 O 854.534 1.57827 0.865478 0
M  V30 8826 H 850.909 0.745199 0.100907 0
M  V30 8827 H 852.88 2.94804 -0.461876 0
M  V30 8828 C 851.629 3.2282 1.2916 0
M  V30 8829 H 850.952 3.92255 0.773074 0
M  V30 8830 H 852.392 3.83508 1.80825 0
M  V30 8831 C 850.851 2.4406 2.32242 0
M  V30 8832 O 851.381 2.16163 3.3858 0
M  V30 8833 N 849.587 2.05651 2.05319 0
M  V30 8834 H 849.134 2.28539 1.18861 0
M  V30 8835 H 849.092 1.53265 2.74513 0
M  V30 8836 N 852.864 0.259585 1.55447 0
M  V30 8837 C 853.811 -0.634578 2.21905 0
M  V30 8838 C 854.781 -1.16168 1.18719 0
M  V30 8839 O 855.966 -1.21383 1.4721 0
M  V30 8840 C 853.106 -1.82005 2.93203 0
M  V30 8841 C 852.219 -1.32828 4.11073 0
M  V30 8842 C 851.354 -2.47431 4.70055 0
M  V30 8843 C 850.393 -1.95179 5.80148 0
M  V30 8844 N 849.53 -3.03197 6.33258 0
M  V30 8845 H 854.37 -0.0611886 2.97937 0
M  V30 8846 H 851.907 -0.0184378 1.47088 0
M  V30 8847 H 853.865 -2.51664 3.32748 0
M  V30 8848 H 852.495 -2.36571 2.19622 0
M  V30 8849 H 851.547 -0.525301 3.76756 0
M  V30 8850 H 852.859 -0.905435 4.90513 0
M  V30 8851 H 852.013 -3.25111 5.12238 0
M  V30 8852 H 850.752 -2.93023 3.89857 0
M  V30 8853 H 849.757 -1.15974 5.37429 0
M  V30 8854 H 850.982 -1.50541 6.62204 0
M  V30 8855 H 848.928 -3.48199 5.55961 0
M  V30 8856 H 848.845 -2.65282 7.07928 0
M  V30 8857 H 850.113 -3.80898 6.80101 0
M  V30 8858 N 854.342 -1.57594 -0.0133615 0
M  V30 8859 C 855.289 -2.07574 -1.00905 0
M  V30 8860 C 856.259 -0.968231 -1.34961 0
M  V30 8861 O 857.444 -1.23981 -1.45028 0
M  V30 8862 C 854.584 -2.5728 -2.30002 0
M  V30 8863 C 853.697 -3.81881 -2.01967 0
M  V30 8864 C 852.832 -4.20139 -3.25049 0
M  V30 8865 C 851.871 -5.37614 -2.92639 0
M  V30 8866 N 851.008 -5.71229 -4.08218 0
M  V30 8867 H 855.848 -2.92382 -0.575899 0
M  V30 8868 H 853.385 -1.4455 -0.272722 0
M  V30 8869 H 855.343 -2.84171 -3.05454 0
M  V30 8870 H 853.973 -1.75365 -2.71011 0
M  V30 8871 H 853.025 -3.61979 -1.16942 0
M  V30 8872 H 854.337 -4.67441 -1.74069 0
M  V30 8873 H 853.491 -4.48242 -4.08857 0
M  V30 8874 H 852.23 -3.33262 -3.56073 0
M  V30 8875 H 851.235 -5.09248 -2.07235 0
M  V30 8876 H 852.46 -6.26157 -2.62876 0
M  V30 8877 H 850.406 -4.8731 -4.39164 0
M  V30 8878 H 850.323 -6.51333 -3.83799 0
M  V30 8879 H 851.591 -6.03917 -4.92854 0
M  V30 8880 N 855.82 0.285905 -1.54985 0
M  V30 8881 C 857.048 1.03776 -1.78992 0
M  V30 8882 C 857.463 1.80402 -0.556814 0
M  V30 8883 O 856.82 1.76242 0.473801 0
M  V30 8884 C 856.871 2.0065 -3.00702 0
M  V30 8885 O 856.592 1.27131 -4.19249 0
M  V30 8886 C 858.093 2.87753 -3.37214 0
M  V30 8887 H 855.313 0.307126 -0.596586 0
M  V30 8888 H 857.857 0.3206 -2.01971 0
M  V30 8889 H 856.012 2.67847 -2.79887 0
M  V30 8890 H 856.426 1.92316 -4.8797 0
M  V30 8891 H 857.9 3.51548 -4.2558 0
M  V30 8892 H 858.377 3.56848 -2.56039 0
M  V30 8893 H 858.983 2.26065 -3.60242 0
M  V30 8894 N 857.298 1.47698 0.54982 0
M  V30 8895 C 858.528 1.58101 1.32995 0
M  V30 8896 C 858.936 0.232939 1.87761 0
M  V30 8897 O 858.279 -0.785058 1.6608 0
M  V30 8898 C 858.341 2.55228 2.53178 0
M  V30 8899 C 858.005 4.00756 2.19645 0
M  V30 8900 C 859.002 4.89025 1.76496 0
M  V30 8901 C 856.687 4.46147 2.30777 0
M  V30 8902 C 858.681 6.20707 1.44919 0
M  V30 8903 C 856.368 5.77856 1.98812 0
M  V30 8904 C 857.366 6.64957 1.55952 0
M  V30 8905 O 857.054 7.94217 1.24396 0
M  V30 8906 H 856.786 0.536362 0.411451 0
M  V30 8907 H 859.34 1.94092 0.67212 0
M  V30 8908 H 857.57 2.14319 3.21876 0
M  V30 8909 H 859.259 2.55678 3.15251 0
M  V30 8910 H 860.025 4.55201 1.67383 0
M  V30 8911 H 855.904 3.78552 2.63096 0
M  V30 8912 H 859.448 6.88649 1.11392 0
M  V30 8913 H 855.345 6.11219 2.0756 0
M  V30 8914 H 856.113 8.06789 1.37964 0
M  V30 8915 N 858.776 -0.797141 1.35954 0
M  V30 8916 C 860.025 -1.54983 1.29086 0
M  V30 8917 C 860.338 -1.95167 -0.130003 0
M  V30 8918 O 861.544 -2.69596 -0.32101 0
M  V30 8919 C 860 -2.79738 2.26439 0
M  V30 8920 C 859.608 -2.46753 3.73921 0
M  V30 8921 C 861.352 -3.57733 2.28533 0
M  V30 8922 C 859.259 -3.67858 4.63071 0
M  V30 8923 H 858.189 -0.581766 0.479651 0
M  V30 8924 H 860.84 -0.87541 1.61273 0
M  V30 8925 H 859.222 -3.48939 1.87236 0
M  V30 8926 H 860.396 -1.85499 4.21814 0
M  V30 8927 H 858.711 -1.81985 3.74527 0
M  V30 8928 H 861.308 -4.47699 2.92351 0
M  V30 8929 H 861.651 -3.95754 1.29169 0
M  V30 8930 H 862.184 -2.95504 2.66313 0
M  V30 8931 H 858.923 -3.34939 5.63468 0
M  V30 8932 H 858.443 -4.28305 4.19898 0
M  V30 8933 H 860.122 -4.34977 4.78961 0
M  V30 8934 N 860.254 -1.20106 -1.0204 0
M  V30 8935 C 861.501 -1.00889 -1.75578 0
M  V30 8936 C 861.829 0.459415 -1.88996 0
M  V30 8937 O 861.084 1.35735 -1.40977 0
M  V30 8938 C 861.383 -1.63308 -3.17908 0
M  V30 8939 C 861.049 -3.13091 -3.24476 0
M  V30 8940 C 859.711 -3.53968 -3.25976 0
M  V30 8941 C 862.063 -4.09093 -3.22944 0
M  V30 8942 C 859.391 -4.89381 -3.2361 0
M  V30 8943 C 861.743 -5.44447 -3.22119 0
M  V30 8944 C 860.407 -5.84742 -3.2192 0
M  V30 8945 H 859.677 -0.36918 -0.642485 0
M  V30 8946 H 862.324 -1.49475 -1.19706 0
M  V30 8947 H 860.629 -1.06974 -3.76914 0
M  V30 8948 H 862.326 -1.45958 -3.73493 0
M  V30 8949 H 858.916 -2.80526 -3.24042 0
M  V30 8950 H 863.1 -3.78549 -3.20958 0
M  V30 8951 H 858.356 -5.1987 -3.21785 0
M  V30 8952 H 862.53 -6.18584 -3.19885 0
M  V30 8953 H 860.157 -6.89642 -3.19841 0
M  V30 8954 N 861.732 1.21287 -1.00634 0
M  V30 8955 C 862.695 2.21927 -0.572821 0
M  V30 8956 C 863.695 1.5691 0.351541 0
M  V30 8957 O 864.885 1.73623 0.141643 0
M  V30 8958 C 862.017 3.40501 0.164932 0
M  V30 8959 H 863.21 2.61795 -1.463 0
M  V30 8960 H 860.763 1.34571 -0.794998 0
M  V30 8961 H 861.498 3.06123 1.07049 0
M  V30 8962 H 861.283 3.88912 -0.498962 0
M  V30 8963 H 862.773 4.15103 0.455945 0
M  V30 8964 N 863.21 0.781244 1.36873 0
M  V30 8965 C 864.458 0.349198 1.9906 0
M  V30 8966 C 864.779 -1.0806 1.62321 0
M  V30 8967 O 864.049 -1.74351 0.893229 0
M  V30 8968 H 862.629 0.126126 0.736275 0
M  V30 8969 H 865.291 1.00148 1.67202 0
M  V30 8970 H 864.387 0.434451 3.09061 0
M  V30 8971 N 864.689 -1.48329 0.532571 0
M  V30 8972 C 865.966 -1.95492 -0.0650985 0
M  V30 8973 C 866.346 -1.47485 -1.51034 0
M  V30 8974 O 865.694 -0.702516 -2.17433 0
M  V30 8975 C 865.904 -3.48957 0.0548341 0
M  V30 8976 C 867.252 -4.24475 -0.103115 0
M  V30 8977 O 868.276 -3.56195 -0.0188343 0
M  V30 8978 O 867.135 -5.45781 -0.280164 0
M  V30 8979 H 864.229 -0.823327 -0.0778603 0
M  V30 8980 H 866.775 -1.58839 0.597353 0
M  V30 8981 H 865.547 -3.76628 1.06148 0
M  V30 8982 H 865.17 -3.92311 -0.64635 0
M  V30 8983 N 866.167 -0.267825 -1.55308 0
M  V30 8984 C 867.114 0.6228 -2.22238 0
M  V30 8985 C 868.084 1.15536 -1.19334 0
M  V30 8986 O 869.269 1.206 -1.47852 0
M  V30 8987 C 866.409 1.80447 -2.94164 0
M  V30 8988 C 865.522 1.30646 -4.11771 0
M  V30 8989 C 864.657 2.44935 -4.7136 0
M  V30 8990 C 863.696 1.92099 -5.81175 0
M  V30 8991 N 862.833 2.99834 -6.34857 0
M  V30 8992 H 867.673 0.0453874 -2.97965 0
M  V30 8993 H 865.21 0.0106371 -1.47096 0
M  V30 8994 H 867.168 2.49896 -3.34078 0
M  V30 8995 H 865.798 2.35403 -2.20874 0
M  V30 8996 H 864.85 0.505314 -3.77029 0
M  V30 8997 H 866.162 0.879409 -4.90987 0
M  V30 8998 H 865.316 3.2239 -5.13955 0
M  V30 8999 H 864.055 2.90951 -3.91406 0
M  V30 9000 H 863.06 1.13122 -5.38037 0
M  V30 9001 H 864.285 1.47027 -6.62993 0
M  V30 9002 H 862.231 3.45246 -5.578 0
M  V30 9003 H 862.148 2.61524 -7.09324 0
M  V30 9004 H 863.416 3.77286 -6.82111 0
M  V30 9005 N 867.645 1.57599 0.00500368 0
M  V30 9006 C 868.892 1.90349 0.690895 0
M  V30 9007 C 869.22 0.868045 1.74055 0
M  V30 9008 O 868.475 -0.127855 1.95282 0
M  V30 9009 C 868.774 3.29855 1.37588 0
M  V30 9010 C 868.44 4.48548 0.459906 0
M  V30 9011 C 867.102 4.80752 0.207693 0
M  V30 9012 C 869.454 5.20919 -0.171054 0
M  V30 9013 C 866.782 5.82701 -0.683855 0
M  V30 9014 C 869.134 6.23818 -1.05045 0
M  V30 9015 C 867.798 6.54481 -1.31189 0
M  V30 9016 H 867.068 0.696538 0.252816 0
M  V30 9017 H 869.715 1.91436 -0.0494495 0
M  V30 9018 H 868.02 3.24869 2.19015 0
M  V30 9019 H 869.717 3.52452 1.91255 0
M  V30 9020 H 866.307 4.23384 0.666648 0
M  V30 9021 H 870.491 4.96299 0.0107942 0
M  V30 9022 H 865.747 6.04822 -0.894467 0
M  V30 9023 H 869.921 6.79029 -1.54574 0
M  V30 9024 H 867.548 7.33299 -2.00442 0
M  V30 9025 N 869.123 -0.277682 1.55134 0
M  V30 9026 C 870.369 -1.00733 1.76704 0
M  V30 9027 C 870.724 -1.84107 0.55879 0
M  V30 9028 O 870.017 -1.86275 -0.448591 0
M  V30 9029 C 870.211 -1.92599 3.01065 0
M  V30 9030 C 870.04 -1.18266 4.3387 0
M  V30 9031 C 868.81 -0.900254 4.97216 0
M  V30 9032 C 871.008 -0.575419 5.11071 0
M  V30 9033 N 868.99 -0.129637 6.13763 0
M  V30 9034 C 870.361 0.0612637 6.1997 0
M  V30 9035 C 872.416 -0.482794 4.95554 0
M  V30 9036 C 871.119 0.781637 7.15041 0
M  V30 9037 C 873.145 0.223977 5.90976 0
M  V30 9038 C 872.507 0.849416 6.9926 0
M  V30 9039 H 868.606 -0.35075 0.698927 0
M  V30 9040 H 871.19 -0.283482 1.92625 0
M  V30 9041 H 869.361 -2.62214 2.86528 0
M  V30 9042 H 871.093 -2.5889 3.1106 0
M  V30 9043 H 867.848 -1.20434 4.58031 0
M  V30 9044 H 868.272 0.242865 6.76564 0
M  V30 9045 H 872.914 -0.952023 4.11942 0
M  V30 9046 H 870.632 1.26256 7.98176 0
M  V30 9047 H 874.218 0.2959 5.81047 0
M  V30 9048 H 873.098 1.3876 7.71826 0
M  V30 9049 N 870.601 -1.47988 -0.541979 0
M  V30 9050 C 872.017 -1.33843 -0.869383 0
M  V30 9051 C 872.217 -0.340374 -1.98604 0
M  V30 9052 O 871.273 0.242696 -2.51331 0
M  V30 9053 C 872.586 -2.73568 -1.24823 0
M  V30 9054 C 874.134 -2.81967 -1.3588 0
M  V30 9055 C 874.609 -4.22368 -1.77114 0
M  V30 9056 N 876.1 -4.24983 -1.84237 0
M  V30 9057 C 876.835 -5.30547 -2.17503 0
M  V30 9058 N 876.331 -6.46401 -2.49275 0
M  V30 9059 N 878.124 -5.17933 -2.18406 0
M  V30 9060 H 870.275 -2.11503 0.195001 0
M  V30 9061 H 872.538 -0.947681 0.0245862 0
M  V30 9062 H 872.244 -3.48107 -0.501435 0
M  V30 9063 H 872.118 -3.06322 -2.20106 0
M  V30 9064 H 874.505 -2.07692 -2.09638 0
M  V30 9065 H 874.586 -2.52848 -0.387478 0
M  V30 9066 H 874.23 -4.97155 -1.0392 0
M  V30 9067 H 874.16 -4.48922 -2.75275 0
M  V30 9068 H 876.651 -3.41411 -1.62009 0
M  V30 9069 H 876.964 -7.22698 -2.73729 0
M  V30 9070 H 875.309 -6.49696 -2.46821 0
M  V30 9071 H 878.5 -4.26445 -1.93034 0
M  V30 9072 H 878.673 -6.00307 -2.44 0
M  V30 9073 N 872.079 0.78992 -1.36375 0
M  V30 9074 C 873.309 1.57644 -1.33536 0
M  V30 9075 C 873.717 1.89007 0.0855075 0
M  V30 9076 O 873.06 1.50547 1.05267 0
M  V30 9077 C 873.122 2.92424 -2.09113 0
M  V30 9078 C 872.786 2.83793 -3.58205 0
M  V30 9079 C 873.783 2.56072 -4.52464 0
M  V30 9080 C 871.468 3.02386 -4.01084 0
M  V30 9081 C 873.462 2.47044 -5.87578 0
M  V30 9082 C 871.149 2.9298 -5.36289 0
M  V30 9083 C 872.147 2.65347 -6.29349 0
M  V30 9084 O 871.835 2.55935 -7.62071 0
M  V30 9085 H 871.567 0.495639 -0.459694 0
M  V30 9086 H 874.121 0.988354 -1.80058 0
M  V30 9087 H 872.351 3.53282 -1.57254 0
M  V30 9088 H 874.04 3.53693 -1.99139 0
M  V30 9089 H 874.806 2.4141 -4.2065 0
M  V30 9090 H 870.685 3.229 -3.29023 0
M  V30 9091 H 874.229 2.25396 -6.60184 0
M  V30 9092 H 870.126 3.07204 -5.67711 0
M  V30 9093 H 870.894 2.7142 -7.72187 0
M  V30 9094 N 873.557 1.20646 1.01402 0
M  V30 9095 C 874.505 0.954493 2.12114 0
M  V30 9096 C 875.499 -0.0950737 1.69133 0
M  V30 9097 O 876.705 0.0555153 1.79914 0
M  V30 9098 H 873.08 0.29135 0.693267 0
M  V30 9099 H 875.051 1.89447 2.30548 0
M  V30 9100 C 873.8 0.525944 3.43699 0
M  V30 9101 H 873.123 1.32516 3.772 0
M  V30 9102 H 874.563 0.388883 4.22213 0
M  V30 9103 C 873.022 -0.761997 3.28169 0
M  V30 9104 O 873.552 -1.81979 3.58115 0
M  V30 9105 N 871.758 -0.725017 2.8141 0
M  V30 9106 H 871.305 0.13607 2.5724 0
M  V30 9107 H 871.263 -1.5871 2.71401 0
M  V30 9108 N 875.035 -1.20752 1.01276 0
M  V30 9109 C 875.945 -2.27079 0.589277 0
M  V30 9110 C 876.961 -1.6999 -0.371389 0
M  V30 9111 O 878.137 -2.00044 -0.233294 0
M  V30 9112 C 875.202 -3.4663 -0.0696715 0
M  V30 9113 C 874.263 -4.18962 0.936454 0
M  V30 9114 C 873.496 -5.32806 0.308856 0
M  V30 9115 O 873.719 -5.63376 -0.8924 0
M  V30 9116 O 872.653 -5.93131 1.02367 0
M  V30 9117 H 876.479 -2.6551 1.47438 0
M  V30 9118 H 874.064 -1.27297 0.782045 0
M  V30 9119 H 875.946 -4.19119 -0.437873 0
M  V30 9120 H 874.621 -3.10082 -0.929029 0
M  V30 9121 H 873.528 -3.48661 1.35595 0
M  V30 9122 H 874.861 -4.59441 1.76565 0
M  V30 9123 N 876.513 -0.788492 -1.36457 0
M  V30 9124 C 877.759 -0.360995 -1.99561 0
M  V30 9125 C 878.092 1.06433 -1.62437 0
M  V30 9126 O 877.367 1.7352 -0.878705 0
M  V30 9127 C 877.65 -0.523735 -3.56271 0
M  V30 9128 C 877.503 -1.99268 -4.03252 0
M  V30 9129 C 878.822 0.0617908 -4.40057 0
M  V30 9130 H 875.941 -0.13264 -0.724966 0
M  V30 9131 H 878.583 -0.994659 -1.61884 0
M  V30 9132 H 876.733 0.0156979 -3.88497 0
M  V30 9133 H 878.405 -2.59311 -3.81518 0
M  V30 9134 H 876.648 -2.49561 -3.54826 0
M  V30 9135 H 877.319 -2.05752 -5.12221 0
M  V30 9136 H 879.795 -0.398674 -4.14186 0
M  V30 9137 H 878.671 -0.0821089 -5.48839 0
M  V30 9138 H 878.932 1.15381 -4.26778 0
M  V30 9139 N 877.991 1.48044 -0.54043 0
M  V30 9140 C 878.938 2.29781 0.216597 0
M  V30 9141 C 879.908 1.38021 0.924094 0
M  V30 9142 O 881.093 1.66985 0.923078 0
M  V30 9143 C 878.233 3.21623 1.2511 0
M  V30 9144 C 877.346 4.28467 0.551384 0
M  V30 9145 C 876.481 5.07477 1.56972 0
M  V30 9146 C 875.52 6.06113 0.854048 0
M  V30 9147 N 874.657 6.78143 1.81842 0
M  V30 9148 H 879.497 2.94001 -0.486578 0
M  V30 9149 H 877.034 1.44929 -0.251789 0
M  V30 9150 H 878.992 3.73279 1.8633 0
M  V30 9151 H 877.622 2.59305 1.92252 0
M  V30 9152 H 876.674 3.79997 -0.174982 0
M  V30 9153 H 877.986 4.98799 -0.0100542 0
M  V30 9154 H 877.14 5.63199 2.25592 0
M  V30 9155 H 875.879 4.37008 2.16507 0
M  V30 9156 H 874.884 5.49585 0.153838 0
M  V30 9157 H 876.109 6.78584 0.264675 0
M  V30 9158 H 874.055 6.10417 2.40265 0
M  V30 9159 H 873.972 7.44587 1.3087 0
M  V30 9160 H 875.24 7.38448 2.49628 0
M  V30 9161 N 879.47 0.276058 1.55163 0
M  V30 9162 C 880.417 -0.611006 2.22565 0
M  V30 9163 C 881.387 -1.14902 1.19945 0
M  V30 9164 O 882.572 -1.19815 1.48489 0
M  V30 9165 C 879.712 -1.78885 2.95117 0
M  V30 9166 C 878.825 -1.2846 4.12458 0
M  V30 9167 C 877.96 -2.42432 4.72652 0
M  V30 9168 C 876.999 -1.89015 5.82185 0
M  V30 9169 N 876.136 -2.96463 6.36439 0
M  V30 9170 H 880.976 -0.0295849 2.97985 0
M  V30 9171 H 878.513 -0.00283607 1.471 0
M  V30 9172 H 880.471 -2.48121 3.35398 0
M  V30 9173 H 879.101 -2.34229 2.22119 0
M  V30 9174 H 878.153 -0.485312 3.77292 0
M  V30 9175 H 879.465 -0.853358 4.91446 0
M  V30 9176 H 878.619 -3.19659 5.15658 0
M  V30 9177 H 877.358 -2.88872 3.92943 0
M  V30 9178 H 876.363 -1.10267 5.38629 0
M  V30 9179 H 877.588 -1.43509 6.63763 0
M  V30 9180 H 875.534 -3.42283 5.59623 0
M  V30 9181 H 875.451 -2.57759 7.10701 0
M  V30 9182 H 876.719 -3.73663 6.84103 0
M  V30 9183 N 880.948 -1.576 0.00335426 0
M  V30 9184 C 881.895 -2.08632 -0.986975 0
M  V30 9185 C 882.865 -0.982491 -1.33927 0
M  V30 9186 O 884.05 -1.25513 -1.43705 0
M  V30 9187 C 881.19 -2.59705 -2.27261 0
M  V30 9188 C 880.303 -3.84002 -1.97905 0
M  V30 9189 C 879.438 -4.23563 -3.20574 0
M  V30 9190 C 878.477 -5.40688 -2.8692 0
M  V30 9191 N 877.614 -5.75526 -4.02136 0
M  V30 9192 H 882.454 -2.92977 -0.544855 0
M  V30 9193 H 879.991 -1.44831 -0.257376 0
M  V30 9194 H 881.949 -2.87395 -3.02423 0
M  V30 9195 H 880.579 -1.7823 -2.69136 0
M  V30 9196 H 879.631 -3.63199 -1.13096 0
M  V30 9197 H 880.943 -4.69261 -1.69102 0
M  V30 9198 H 880.097 -4.52554 -4.04079 0
M  V30 9199 H 878.836 -3.37019 -3.52518 0
M  V30 9200 H 877.841 -5.11417 -2.01822 0
M  V30 9201 H 879.066 -6.2891 -2.5622 0
M  V30 9202 H 877.012 -4.9194 -4.33971 0
M  V30 9203 H 876.929 -6.55367 -3.76869 0
M  V30 9204 H 878.197 -6.0911 -4.8642 0
M  V30 9205 N 882.426 0.269451 -1.5528 0
M  V30 9206 C 883.359 1.3588 -1.83336 0
M  V30 9207 C 884.337 1.4739 -0.68666 0
M  V30 9208 O 885.521 1.63959 -0.930037 0
M  V30 9209 C 882.648 2.73483 -1.99812 0
M  V30 9210 C 881.694 2.79239 -3.22378 0
M  V30 9211 S 882.527 2.38125 -4.79642 0
M  V30 9212 C 883.683 3.77697 -4.99095 0
M  V30 9213 H 883.916 1.11878 -2.75446 0
M  V30 9214 H 881.449 0.469268 -1.47096 0
M  V30 9215 H 883.407 3.52725 -2.09989 0
M  V30 9216 H 882.068 2.94735 -1.08583 0
M  V30 9217 H 881.261 3.80243 -3.30804 0
M  V30 9218 H 880.863 2.08022 -3.1081 0
M  V30 9219 H 883.155 4.72999 -4.85055 0
M  V30 9220 H 884.098 3.7422 -6.01136 0
M  V30 9221 H 884.506 3.69164 -4.27058 0
M  V30 9222 N 883.904 1.48273 0.534124 0
M  V30 9223 C 885.181 1.46567 1.29528 0
M  V30 9224 C 885.561 0.17509 2.10373 0
M  V30 9225 O 884.909 -0.843228 2.12372 0
M  V30 9226 C 885.119 2.72519 2.18023 0
M  V30 9227 C 886.467 3.2068 2.78298 0
M  V30 9228 O 887.491 2.73408 2.28313 0
M  V30 9229 O 886.35 4.02924 3.69208 0
M  V30 9230 H 883.444 0.585151 0.584403 0
M  V30 9231 H 885.99 1.60502 0.551119 0
M  V30 9232 H 884.762 3.57965 1.5804 0
M  V30 9233 H 884.385 2.61285 2.99693 0
M  V30 9234 N 885.382 -0.782676 1.36792 0
M  V30 9235 C 886.793 -1.35828 1.28092 0
M  V30 9236 C 887.144 -1.96052 -0.076315 0
M  V30 9237 O 886.269 -1.93042 -0.977935 0
M  V30 9238 C 886.864 -2.46949 2.31952 0
M  V30 9239 C 885.423 -3.00307 2.2692 0
M  V30 9240 C 884.57 -1.73436 2.16368 0
M  V30 9241 H 887.521 -0.583788 1.47572 0
M  V30 9242 H 887.542 -3.26144 1.95986 0
M  V30 9243 H 887.054 -2.03087 3.30722 0
M  V30 9244 H 885.155 -3.48571 1.31639 0
M  V30 9245 H 885.268 -3.56663 3.19887 0
M  V30 9246 H 883.632 -1.95934 1.62733 0
M  V30 9247 H 884.415 -1.31693 3.17036 0
M  V30 9248 N 886.86 -1.21182 -1.00761 0
M  V30 9249 C 888.108 -1.02543 -1.74153 0
M  V30 9250 C 888.429 0.442372 -1.89916 0
M  V30 9251 O 887.699 1.31927 -1.44818 0
M  V30 9252 H 886.279 -0.37644 -0.645214 0
M  V30 9253 H 888.941 -1.52446 -1.21434 0
M  V30 9254 H 888.037 -1.49122 -2.7417 0
M  V30 9255 N 888.338 1.20213 -1.01915 0
M  V30 9256 C 889.585 1.89647 -0.709955 0
M  V30 9257 C 889.913 1.7901 0.760631 0
M  V30 9258 O 889.168 1.17028 1.56853 0
M  V30 9259 C 889.467 3.40232 -1.09438 0
M  V30 9260 C 889.133 3.7107 -2.5616 0
M  V30 9261 C 887.795 3.79196 -2.96249 0
M  V30 9262 C 890.147 3.85169 -3.51133 0
M  V30 9263 C 887.475 3.98882 -4.30244 0
M  V30 9264 C 889.827 4.06365 -4.8482 0
M  V30 9265 C 888.491 4.12722 -5.24611 0
M  V30 9266 H 887.761 0.693967 -0.259791 0
M  V30 9267 H 890.408 1.42419 -1.2802 0
M  V30 9268 H 888.713 3.89292 -0.442596 0
M  V30 9269 H 890.41 3.92257 -0.832811 0
M  V30 9270 H 887 3.65346 -2.24099 0
M  V30 9271 H 891.184 3.78243 -3.21319 0
M  V30 9272 H 886.44 4.02039 -4.60624 0
M  V30 9273 H 890.614 4.16216 -5.58334 0
M  V30 9274 H 888.241 4.27728 -6.28453 0
M  V30 9275 N 889.816 0.795718 1.36037 0
M  V30 9276 C 891.227 0.433379 1.816 0
M  V30 9277 C 891.578 -1.04341 1.66155 0
M  V30 9278 O 890.703 -1.81004 1.18603 0
M  V30 9279 C 891.298 0.77985 3.29703 0
M  V30 9280 C 889.857 0.470256 3.73451 0
M  V30 9281 C 889.004 1.01119 2.58206 0
M  V30 9282 H 891.955 0.988317 1.24169 0
M  V30 9283 H 891.976 0.0732898 3.80429 0
M  V30 9284 H 891.488 1.85473 3.40913 0
M  V30 9285 H 889.589 -0.596332 3.67797 0
M  V30 9286 H 889.702 0.995276 4.68648 0
M  V30 9287 H 888.066 0.434077 2.50974 0
M  V30 9288 H 888.849 2.09196 2.72198 0
M  V30 9289 N 891.294 -1.47756 0.548274 0
M  V30 9290 C 892.241 -2.29893 -0.204408 0
M  V30 9291 C 893.211 -1.38509 -0.916761 0
M  V30 9292 O 894.396 -1.67472 -0.91421 0
M  V30 9293 C 891.536 -3.22282 -1.23403 0
M  V30 9294 C 890.649 -4.28753 -0.528654 0
M  V30 9295 C 889.784 -5.08303 -1.54279 0
M  V30 9296 C 888.823 -6.06557 -0.821893 0
M  V30 9297 N 887.96 -6.79098 -1.78243 0
M  V30 9298 H 892.8 -2.93739 0.502163 0
M  V30 9299 H 890.337 -1.44793 0.259471 0
M  V30 9300 H 892.295 -3.74262 -1.84348 0
M  V30 9301 H 890.925 -2.6032 -1.90875 0
M  V30 9302 H 889.977 -3.79899 0.195132 0
M  V30 9303 H 891.289 -4.98787 0.0365066 0
M  V30 9304 H 890.443 -5.64388 -2.22602 0
M  V30 9305 H 889.182 -4.3815 -2.14186 0
M  V30 9306 H 888.187 -5.49659 -0.12469 0
M  V30 9307 H 889.412 -6.78715 -0.228685 0
M  V30 9308 H 887.358 -6.11682 -2.37025 0
M  V30 9309 H 887.275 -7.4527 -1.26919 0
M  V30 9310 H 888.543 -7.39762 -2.45709 0
M  V30 9311 N 892.772 -0.284283 -1.55015 0
M  V30 9312 C 893.702 0.592663 -2.25853 0
M  V30 9313 C 894.683 1.15151 -1.25197 0
M  V30 9314 O 895.868 1.18395 -1.53936 0
M  V30 9315 C 892.998 1.77254 -2.98661 0
M  V30 9316 C 891.952 1.34482 -4.06323 0
M  V30 9317 C 891.278 2.60853 -4.66754 0
M  V30 9318 C 892.578 0.488288 -5.20013 0
M  V30 9319 H 894.272 0.00187041 -2.994 0
M  V30 9320 H 891.818 -0.000540402 -1.44 0
M  V30 9321 H 893.771 2.39199 -3.46932 0
M  V30 9322 H 892.495 2.38931 -2.22664 0
M  V30 9323 H 891.154 0.748519 -3.58877 0
M  V30 9324 H 890.802 3.20808 -3.87416 0
M  V30 9325 H 890.502 2.32942 -5.39455 0
M  V30 9326 H 892.026 3.23631 -5.1778 0
M  V30 9327 H 893.44 1.01298 -5.6428 0
M  V30 9328 H 891.837 0.303669 -5.99331 0
M  V30 9329 H 892.907 -0.490727 -4.8241 0
M  V30 9330 N 894.251 1.57596 -0.0117121 0
M  V30 9331 C 895.5 1.9025 0.669921 0
M  V30 9332 C 895.813 0.887986 1.74282 0
M  V30 9333 O 897.019 1.10516 2.47989 0
M  V30 9334 C 895.475 3.37762 1.24277 0
M  V30 9335 C 895.083 4.47535 0.204076 0
M  V30 9336 C 896.827 3.79509 1.90192 0
M  V30 9337 C 894.734 5.86132 0.787577 0
M  V30 9338 H 893.664 0.709935 0.253984 0
M  V30 9339 H 896.315 1.8335 -0.0741718 0
M  V30 9340 H 894.697 3.39537 2.03791 0
M  V30 9341 H 895.871 4.57294 -0.56733 0
M  V30 9342 H 894.186 4.14881 -0.355305 0
M  V30 9343 H 896.783 4.80402 2.34773 0
M  V30 9344 H 897.126 3.13643 2.7374 0
M  V30 9345 H 897.659 3.80084 1.17394 0
M  V30 9346 H 894.398 6.55499 -0.00938418 0
M  V30 9347 H 893.918 5.80014 1.52787 0
M  V30 9348 H 895.597 6.34158 1.28265 0
M  V30 9349 N 895.729 -0.261212 1.5542 0
M  V30 9350 C 896.692 -1.30645 1.8832 0
M  V30 9351 C 897.692 -1.41782 0.758588 0
M  V30 9352 O 898.882 -1.40729 1.02669 0
M  V30 9353 C 896.014 -2.6862 2.09895 0
M  V30 9354 H 897.207 -1.02698 2.81768 0
M  V30 9355 H 894.76 -0.499838 1.48092 0
M  V30 9356 H 895.495 -3.0173 1.18868 0
M  V30 9357 H 895.28 -2.61921 2.91787 0
M  V30 9358 H 896.77 -3.44121 2.36581 0
M  V30 9359 N 897.207 -1.48554 -0.526253 0
M  V30 9360 C 898.484 -1.47252 -1.28748 0
M  V30 9361 C 898.864 -0.186245 -2.10277 0
M  V30 9362 O 898.212 0.831954 -2.12816 0
M  V30 9363 C 898.422 -2.73672 -2.16575 0
M  V30 9364 C 899.77 -3.22151 -2.76593 0
M  V30 9365 O 900.794 -2.74614 -2.2686 0
M  V30 9366 O 899.653 -4.04877 -3.67066 0
M  V30 9367 H 896.747 -0.588242 -0.581292 0
M  V30 9368 H 899.293 -1.60792 -0.5426 0
M  V30 9369 H 898.065 -3.58798 -1.56139 0
M  V30 9370 H 897.688 -2.6287 -2.98304 0
M  V30 9371 N 898.685 0.775411 -1.37205 0
M  V30 9372 C 899.648 1.8702 -1.325 0
M  V30 9373 C 900.648 1.5915 -0.229793 0
M  V30 9374 O 901.838 1.673 -0.485423 0
M  V30 9375 C 898.97 3.24085 -1.05745 0
M  V30 9376 H 900.163 1.92604 -2.29878 0
M  V30 9377 H 897.716 0.97476 -1.22181 0
M  V30 9378 H 898.451 3.24178 -0.0888371 0
M  V30 9379 H 898.236 3.45705 -1.85016 0
M  V30 9380 H 899.726 4.0416 -1.05094 0
M  V30 9381 N 900.163 1.21714 1.00117 0
M  V30 9382 C 901.409 1.04829 1.74306 0
M  V30 9383 C 901.764 -0.413387 1.87907 0
M  V30 9384 O 901.057 -1.30258 1.40512 0
M  V30 9385 C 901.251 1.68345 3.15269 0
M  V30 9386 C 901.08 3.20537 3.15414 0
M  V30 9387 C 899.85 3.896 3.21776 0
M  V30 9388 C 902.048 4.17576 3.00224 0
M  V30 9389 N 900.03 5.28949 3.11587 0
M  V30 9390 C 901.401 5.43701 2.97974 0
M  V30 9391 C 903.456 4.08575 2.84554 0
M  V30 9392 C 902.159 6.61861 2.8166 0
M  V30 9393 C 904.185 5.26375 2.69598 0
M  V30 9394 C 903.547 6.51414 2.68028 0
M  V30 9395 H 899.646 0.437964 0.647852 0
M  V30 9396 H 902.23 1.54128 1.18965 0
M  V30 9397 H 900.401 1.21607 3.68872 0
M  V30 9398 H 902.133 1.44629 3.77974 0
M  V30 9399 H 898.888 3.40548 3.29126 0
M  V30 9400 H 899.312 6.01945 3.09825 0
M  V30 9401 H 903.954 3.12696 2.84571 0
M  V30 9402 H 901.672 7.57896 2.8039 0
M  V30 9403 H 905.258 5.21235 2.58468 0
M  V30 9404 H 904.138 7.41033 2.56593 0
M  V30 9405 N 901.641 -1.19671 1.02551 0
M  V30 9406 C 902.589 -2.24812 0.596867 0
M  V30 9407 C 903.583 -1.65336 -0.368839 0
M  V30 9408 O 904.789 -1.78422 -0.237786 0
M  V30 9409 H 901.164 -0.731417 0.174739 0
M  V30 9410 H 903.135 -2.58286 1.49435 0
M  V30 9411 C 901.884 -3.47677 -0.0399514 0
M  V30 9412 H 901.207 -3.93728 0.694153 0
M  V30 9413 H 902.647 -4.22917 -0.302861 0
M  V30 9414 C 901.106 -3.11411 -1.2855 0
M  V30 9415 O 901.636 -3.23757 -2.37791 0
M  V30 9416 N 899.842 -2.65875 -1.17297 0
M  V30 9417 H 899.389 -2.56029 -0.284045 0
M  V30 9418 H 899.347 -2.41981 -2.00731 0
M  V30 9419 N 903.119 -0.802921 -1.35613 0
M  V30 9420 C 904.082 -0.216422 -2.28176 0
M  V30 9421 C 905.082 0.594101 -1.49422 0
M  V30 9422 O 906.272 0.41312 -1.6923 0
M  V30 9423 C 903.404 0.698746 -3.33662 0
M  V30 9424 H 904.597 -1.03276 -2.81557 0
M  V30 9425 H 902.15 -0.573307 -1.45406 0
M  V30 9426 H 902.885 1.53891 -2.85461 0
M  V30 9427 H 902.67 0.119314 -3.91918 0
M  V30 9428 H 904.16 1.10354 -4.02755 0
M  V30 9429 N 904.597 1.47463 -0.556102 0
M  V30 9430 C 905.846 2.01678 -0.029492 0
M  V30 9431 C 906.159 1.436 1.32809 0
M  V30 9432 O 907.365 1.89472 1.94455 0
M  V30 9433 C 905.821 3.599 -0.00223937 0
M  V30 9434 C 905.429 4.26969 -1.35651 0
M  V30 9435 C 907.173 4.2187 0.471822 0
M  V30 9436 C 905.08 5.77194 -1.28843 0
M  V30 9437 H 904.01 0.753965 -0.00725504 0
M  V30 9438 H 906.661 1.69467 -0.703789 0
M  V30 9439 H 905.043 3.89068 0.737682 0
M  V30 9440 H 906.217 4.09444 -2.11406 0
M  V30 9441 H 904.532 3.76983 -1.76842 0
M  V30 9442 H 907.129 5.31955 0.541139 0
M  V30 9443 H 907.472 3.88968 1.48356 0
M  V30 9444 H 908.005 3.97228 -0.213207 0
M  V30 9445 H 904.744 6.14713 -2.27613 0
M  V30 9446 H 904.264 5.9706 -0.572668 0
M  V30 9447 H 905.943 6.3938 -0.990031 0
M  V30 9448 N 906.075 0.2925 1.54862 0
M  V30 9449 C 907.486 -0.201841 1.85606 0
M  V30 9450 C 907.837 -1.54093 1.21449 0
M  V30 9451 O 906.962 -2.10327 0.509079 0
M  V30 9452 C 907.557 -0.373011 3.3674 0
M  V30 9453 C 906.116 -0.811574 3.67547 0
M  V30 9454 C 905.263 0.0850583 2.7717 0
M  V30 9455 H 908.214 0.513774 1.50153 0
M  V30 9456 H 908.235 -1.20892 3.60785 0
M  V30 9457 H 907.747 0.601751 3.83407 0
M  V30 9458 H 905.848 -1.79719 3.26392 0
M  V30 9459 H 905.961 -0.636853 4.74848 0
M  V30 9460 H 904.325 -0.434224 2.50971 0
M  V30 9461 H 905.108 1.05602 3.26654 0
M  V30 9462 N 907.553 -1.57587 0.0200696 0
M  V30 9463 C 908.83 -1.82696 -0.698677 0
M  V30 9464 C 909.21 -0.902082 -1.90855 0
M  V30 9465 O 908.558 0.0444834 -2.28457 0
M  V30 9466 C 908.768 -3.31691 -1.08546 0
M  V30 9467 C 910.116 -3.97938 -1.4809 0
M  V30 9468 O 911.14 -3.36133 -1.17869 0
M  V30 9469 O 909.999 -5.06851 -2.04364 0
M  V30 9470 H 907.093 -0.752997 -0.341942 0
M  V30 9471 H 909.639 -1.69635 0.04706 0
M  V30 9472 H 908.411 -3.90659 -0.223956 0
M  V30 9473 H 908.034 -3.49825 -1.88965 0
M  V30 9474 N 909.032 0.252966 -1.55557 0
M  V30 9475 C 909.98 1.33289 -1.90622 0
M  V30 9476 C 910.974 1.50133 -0.784638 0
M  V30 9477 O 912.18 1.51679 -0.969196 0
M  V30 9478 H 908.555 0.446196 -0.605321 0
M  V30 9479 H 910.526 1.00977 -2.80796 0
M  V30 9480 C 909.275 2.68254 -2.21213 0
M  V30 9481 H 908.598 2.5609 -3.07014 0
M  V30 9482 H 910.038 3.42707 -2.49656 0
M  V30 9483 C 908.497 3.20884 -1.02642 0
M  V30 9484 O 909.027 4.00783 -0.271292 0
M  V30 9485 N 907.233 2.7883 -0.818682 0
M  V30 9486 H 906.78 2.13966 -1.43444 0
M  V30 9487 H 906.738 3.14388 -0.0269989 0
M  V30 9488 N 910.51 1.48831 0.518367 0
M  V30 9489 C 911.44 1.67119 1.63075 0
M  V30 9490 C 912.421 0.519948 1.61958 0
M  V30 9491 O 913.606 0.753824 1.78972 0
M  V30 9492 C 910.736 1.72158 3.01627 0
M  V30 9493 C 909.69 2.86898 3.17606 0
M  V30 9494 C 909.016 2.77035 4.57335 0
M  V30 9495 C 910.316 4.28057 2.99274 0
M  V30 9496 H 912.01 2.60248 1.48025 0
M  V30 9497 H 909.556 1.2524 0.710694 0
M  V30 9498 H 911.509 1.83539 3.7933 0
M  V30 9499 H 910.233 0.756157 3.17726 0
M  V30 9500 H 908.892 2.75091 2.42323 0
M  V30 9501 H 908.54 1.78438 4.70286 0
M  V30 9502 H 908.24 3.54036 4.6897 0
M  V30 9503 H 909.764 2.904 5.37122 0
M  V30 9504 H 911.178 4.40636 3.6676 0
M  V30 9505 H 909.575 5.06145 3.22393 0
M  V30 9506 H 910.645 4.4371 1.95574 0
M  V30 9507 N 911.988 -0.768124 1.37614 0
M  V30 9508 C 913.265 -1.51637 1.23554 0
M  V30 9509 C 913.645 -2.1042 -0.169331 0
M  V30 9510 O 912.993 -1.95834 -1.17735 0
M  V30 9511 C 913.203 -2.59436 2.33439 0
M  V30 9512 C 914.551 -3.2674 2.71157 0
M  V30 9513 O 915.575 -2.69733 2.32642 0
M  V30 9514 O 914.434 -4.29814 3.37524 0
M  V30 9515 H 911.528 -0.671778 0.482332 0
M  V30 9516 H 914.074 -0.804779 1.49403 0
M  V30 9517 H 912.846 -2.14146 3.27502 0
M  V30 9518 H 912.469 -3.38192 2.09073 0
M  V30 9519 N 913.466 -1.22244 -0.994698 0
M  V30 9520 C 914.429 -0.992308 -2.06606 0
M  V30 9521 C 915.429 0.0405872 -1.60749 0
M  V30 9522 O 916.619 -0.197737 -1.73074 0
M  V30 9523 C 913.751 -0.498499 -3.37236 0
M  V30 9524 H 914.944 -1.9429 -2.28455 0
M  V30 9525 H 912.497 -1.04087 -1.166 0
M  V30 9526 H 913.232 0.456531 -3.21071 0
M  V30 9527 H 913.017 -1.24367 -3.71854 0
M  V30 9528 H 914.507 -0.35768 -4.16065 0
M  V30 9529 N 914.944 1.19125 -1.03184 0
M  V30 9530 C 916.19 1.89163 -0.731111 0
M  V30 9531 C 916.523 1.79604 0.738662 0
M  V30 9532 O 915.798 1.19037 1.53819 0
M  V30 9533 C 916.081 3.39986 -1.18666 0
M  V30 9534 C 915.934 3.58401 -2.71788 0
M  V30 9535 C 917.253 4.33316 -0.769772 0
M  V30 9536 H 914.372 0.686908 -0.267069 0
M  V30 9537 H 917.014 1.40205 -1.28229 0
M  V30 9538 H 915.164 3.81813 -0.717736 0
M  V30 9539 H 916.836 3.25727 -3.26649 0
M  V30 9540 H 915.079 3.01355 -3.12038 0
M  V30 9541 H 915.75 4.64189 -2.98719 0
M  V30 9542 H 918.226 3.9922 -1.17314 0
M  V30 9543 H 917.102 5.37427 -1.11637 0
M  V30 9544 H 917.363 4.40884 0.327681 0
M  V30 9545 N 916.422 0.810101 1.35185 0
M  V30 9546 C 917.668 0.392698 1.98962 0
M  V30 9547 C 918.001 -1.03835 1.64109 0
M  V30 9548 O 917.276 -1.721 0.9062 0
M  V30 9549 C 917.559 0.580349 3.55393 0
M  V30 9550 C 917.412 2.05658 4.00031 0
M  V30 9551 C 918.731 0.00822618 4.40099 0
M  V30 9552 H 915.85 0.144157 0.722764 0
M  V30 9553 H 918.492 1.02029 1.60281 0
M  V30 9554 H 916.642 0.0461106 3.88473 0
M  V30 9555 H 918.314 2.65348 3.77344 0
M  V30 9556 H 916.557 2.55174 3.50811 0
M  V30 9557 H 917.228 2.13875 5.08883 0
M  V30 9558 H 919.704 0.464517 4.13499 0
M  V30 9559 H 918.58 0.169414 5.48638 0
M  V30 9560 H 918.841 -1.08576 4.2856 0
M  V30 9561 N 917.9 -1.47166 0.563914 0
M  V30 9562 C 919.177 -1.95586 -0.0236172 0
M  V30 9563 C 919.557 -1.50655 -1.47872 0
M  V30 9564 O 918.905 -0.748479 -2.15894 0
M  V30 9565 C 919.115 -3.48762 0.128841 0
M  V30 9566 C 920.463 -4.24598 -0.0130544 0
M  V30 9567 O 921.487 -3.56155 0.0567242 0
M  V30 9568 O 920.346 -5.46253 -0.164332 0
M  V30 9569 H 917.44 -0.824793 -0.0603789 0
M  V30 9570 H 919.986 -1.57536 0.63091 0
M  V30 9571 H 918.758 -3.74291 1.14113 0
M  V30 9572 H 918.381 -3.93594 -0.56299 0
M  V30 9573 N 919.378 -0.300708 -1.54705 0
M  V30 9574 C 920.308 0.568675 -2.26469 0
M  V30 9575 C 921.289 1.13817 -1.26411 0
M  V30 9576 O 922.474 1.16756 -1.55183 0
M  V30 9577 C 919.604 1.74077 -3.00524 0
M  V30 9578 C 918.558 1.30165 -4.07727 0
M  V30 9579 C 917.884 2.55888 -4.69495 0
M  V30 9580 C 919.184 0.433106 -5.20501 0
M  V30 9581 H 920.878 -0.0298851 -2.99385 0
M  V30 9582 H 918.424 -0.0158135 -1.43991 0
M  V30 9583 H 920.377 2.35506 -3.49449 0
M  V30 9584 H 919.101 2.36556 -2.25186 0
M  V30 9585 H 917.76 0.710414 -3.59651 0
M  V30 9586 H 917.408 3.16681 -3.90797 0
M  V30 9587 H 917.108 2.27207 -5.41895 0
M  V30 9588 H 918.632 3.18121 -5.21183 0
M  V30 9589 H 920.046 0.95307 -5.65322 0
M  V30 9590 H 918.443 0.240085 -5.9962 0
M  V30 9591 H 919.513 -0.541866 -4.81863 0
M  V30 9592 N 920.856 1.57574 -0.0284266 0
M  V30 9593 C 921.788 2.07079 0.982391 0
M  V30 9594 C 922.801 0.994078 1.28926 0
M  V30 9595 O 923.99 1.27028 1.25404 0
M  V30 9596 C 921.09 2.47978 2.30998 0
M  V30 9597 C 920.263 3.7872 2.18838 0
M  V30 9598 C 919.322 4.06177 3.34524 0
M  V30 9599 O 918.348 4.76438 3.11441 0
M  V30 9600 N 919.55 3.56297 4.58293 0
M  V30 9601 H 922.315 2.94421 0.560011 0
M  V30 9602 H 919.876 1.61124 0.158347 0
M  V30 9603 H 921.868 2.63439 3.07216 0
M  V30 9604 H 920.438 1.66005 2.64879 0
M  V30 9605 H 919.658 3.73062 1.27351 0
M  V30 9606 H 920.946 4.6438 2.07915 0
M  V30 9607 H 920.344 2.99453 4.79942 0
M  V30 9608 H 918.901 3.77038 5.31682 0
M  V30 9609 N 922.334 -0.244713 1.55689 0
M  V30 9610 C 923.582 -0.970525 1.77272 0
M  V30 9611 C 923.903 -1.85771 0.592804 0
M  V30 9612 O 923.173 -1.91952 -0.391323 0
M  V30 9613 H 921.753 -0.361342 0.653789 0
M  V30 9614 H 924.415 -0.262134 1.93129 0
M  V30 9615 H 923.511 -1.59096 2.68505 0
M  V30 9616 N 923.813 -1.49104 -0.510467 0
M  V30 9617 C 925.061 -1.578 -1.26268 0
M  V30 9618 C 925.382 -0.262349 -1.93227 0
M  V30 9619 O 924.652 0.717624 -1.82283 0
M  V30 9620 H 923.232 -0.581387 -0.46904 0
M  V30 9621 H 925.894 -1.85678 -0.592423 0
M  V30 9622 H 924.99 -2.36919 -2.03165 0
M  V30 9623 N 925.291 0.760815 -1.38019 0
M  V30 9624 C 926.539 1.51673 -1.33566 0
M  V30 9625 C 926.86 1.94852 0.076024 0
M  V30 9626 O 926.13 1.67112 1.02227 0
M  V30 9627 H 924.71 0.562581 -0.491438 0
M  V30 9628 H 927.372 0.904832 -1.72623 0
M  V30 9629 H 926.468 2.41102 -1.98182 0
M  V30 9630 N 926.769 1.22769 0.988202 0
M  V30 9631 C 927.719 0.969202 2.06375 0
M  V30 9632 C 928.703 -0.0819274 1.60691 0
M  V30 9633 O 929.895 0.129201 1.76528 0
M  V30 9634 C 927.024 0.553919 3.38802 0
M  V30 9635 C 926.11 1.64003 3.91106 0
M  V30 9636 N 926.501 2.86872 4.16579 0
M  V30 9637 C 924.799 1.5128 4.1956 0
M  V30 9638 C 925.5 3.57137 4.5916 0
M  V30 9639 N 924.476 2.84624 4.63131 0
M  V30 9640 H 928.278 1.90247 2.24017 0
M  V30 9641 H 925.792 1.12592 1.17033 0
M  V30 9642 H 927.789 0.350033 4.15428 0
M  V30 9643 H 926.449 -0.37239 3.22558 0
M  V30 9644 H 927.46 3.23254 4.04632 0
M  V30 9645 H 924.137 0.653032 4.12361 0
M  V30 9646 H 925.527 4.62428 4.87452 0
M  V30 9647 N 928.247 -1.18576 1.03814 0
M  V30 9648 C 929.472 -1.92978 0.759873 0
M  V30 9649 C 929.897 -1.75514 -0.676486 0
M  V30 9650 O 929.255 -1.06359 -1.46824 0
M  V30 9651 C 929.303 -3.42507 1.12788 0
M  V30 9652 O 928.407 -4.1163 0.251886 0
M  V30 9653 H 927.748 -0.602129 0.279886 0
M  V30 9654 H 930.278 -1.50383 1.3873 0
M  V30 9655 H 930.288 -3.93206 1.08872 0
M  V30 9656 H 928.963 -3.5454 2.17427 0
M  V30 9657 H 927.54 -3.7125 0.350441 0
M  V30 9658 N 929.725 -0.817259 -1.34754 0
M  V30 9659 C 930.955 -0.414849 -2.02392 0
M  V30 9660 C 931.363 0.982186 -1.61709 0
M  V30 9661 O 930.706 1.64607 -0.815481 0
M  V30 9662 C 930.768 -0.430981 -3.56907 0
M  V30 9663 C 930.432 -1.78037 -4.20894 0
M  V30 9664 C 931.429 -2.74034 -4.41816 0
M  V30 9665 C 929.114 -2.0673 -4.57786 0
M  V30 9666 C 931.108 -3.96901 -4.98747 0
M  V30 9667 C 928.795 -3.29858 -5.14429 0
M  V30 9668 C 929.793 -4.24761 -5.34853 0
M  V30 9669 O 929.481 -5.45714 -5.90298 0
M  V30 9670 H 929.213 -0.165392 -0.655455 0
M  V30 9671 H 931.767 -1.10524 -1.73129 0
M  V30 9672 H 929.997 0.316074 -3.85406 0
M  V30 9673 H 931.686 -0.0494067 -4.0587 0
M  V30 9674 H 932.452 -2.53161 -4.13684 0
M  V30 9675 H 928.331 -1.33666 -4.41197 0
M  V30 9676 H 931.875 -4.70987 -5.14604 0
M  V30 9677 H 927.772 -3.50597 -5.41989 0
M  V30 9678 H 928.54 -5.47157 -6.08738 0
M  V30 9679 N 931.203 1.46865 -0.571711 0
M  V30 9680 C 932.45 2.0243 -0.0531071 0
M  V30 9681 C 932.778 1.44446 1.30252 0
M  V30 9682 O 932.033 0.595182 1.8643 0
M  V30 9683 C 932.332 3.57323 0.0742311 0
M  V30 9684 C 931.998 4.34295 -1.21237 0
M  V30 9685 C 930.66 4.55044 -1.56489 0
M  V30 9686 C 933.012 4.78577 -2.0643 0
M  V30 9687 C 930.34 5.17325 -2.76752 0
M  V30 9688 C 932.692 5.42186 -3.25909 0
M  V30 9689 C 931.356 5.61165 -3.61456 0
M  V30 9690 H 930.626 0.740745 -0.0194333 0
M  V30 9691 H 933.273 1.76366 -0.74614 0
M  V30 9692 H 931.578 3.82461 0.850325 0
M  V30 9693 H 933.275 3.97982 0.491077 0
M  V30 9694 H 929.865 4.18435 -0.927922 0
M  V30 9695 H 934.049 4.62313 -1.80501 0
M  V30 9696 H 929.305 5.30211 -3.04444 0
M  V30 9697 H 933.479 5.75459 -3.92198 0
M  V30 9698 H 931.106 6.09195 -4.54737 0
M  V30 9699 N 932.681 0.308908 1.54543 0
M  V30 9700 C 933.928 -0.298036 2.00295 0
M  V30 9701 C 934.256 -1.53285 1.19724 0
M  V30 9702 O 933.511 -1.93917 0.263551 0
M  V30 9703 C 933.81 -0.691522 3.50646 0
M  V30 9704 C 933.476 0.442454 4.48724 0
M  V30 9705 C 932.138 0.753739 4.7526 0
M  V30 9706 C 934.49 1.20488 5.07082 0
M  V30 9707 C 931.818 1.83044 5.57415 0
M  V30 9708 C 934.17 2.27156 5.90409 0
M  V30 9709 C 932.834 2.58882 6.15253 0
M  V30 9710 H 932.104 -0.109059 0.73293 0
M  V30 9711 H 934.751 0.429647 1.86618 0
M  V30 9712 H 933.056 -1.49941 3.61974 0
M  V30 9713 H 934.753 -1.17244 3.83477 0
M  V30 9714 H 931.343 0.189744 4.2818 0
M  V30 9715 H 935.527 0.977653 4.86575 0
M  V30 9716 H 930.783 2.08088 5.749 0
M  V30 9717 H 934.957 2.86687 6.34652 0
M  V30 9718 H 932.584 3.42443 6.78702 0
M  V30 9719 N 934.159 -1.57557 0.0367827 0
M  V30 9720 C 935.106 -2.10679 -0.942499 0
M  V30 9721 C 936.076 -1.01068 -1.31812 0
M  V30 9722 O 937.261 -1.28533 -1.41011 0
M  V30 9723 C 934.401 -2.64467 -2.21701 0
M  V30 9724 C 933.514 -3.88114 -1.89715 0
M  V30 9725 C 932.649 -4.30268 -3.11518 0
M  V30 9726 C 931.688 -5.46652 -2.75387 0
M  V30 9727 N 930.825 -5.83927 -3.89838 0
M  V30 9728 H 935.665 -2.94066 -0.482588 0
M  V30 9729 H 933.202 -1.45344 -0.226597 0
M  V30 9730 H 935.16 -2.93745 -2.96259 0
M  V30 9731 H 933.79 -1.83898 -2.65295 0
M  V30 9732 H 932.842 -3.65516 -1.05366 0
M  V30 9733 H 934.154 -4.72743 -1.5911 0
M  V30 9734 H 933.308 -4.61023 -3.94389 0
M  V30 9735 H 932.047 -3.44421 -3.4529 0
M  V30 9736 H 931.052 -5.15583 -1.90929 0
M  V30 9737 H 932.277 -6.34204 -2.42822 0
M  V30 9738 H 930.223 -5.01035 -4.23438 0
M  V30 9739 H 930.14 -6.63214 -3.62883 0
M  V30 9740 H 931.408 -6.19291 -4.73391 0
M  V30 9741 N 935.637 0.236453 -1.55816 0
M  V30 9742 C 936.885 0.96111 -1.77784 0
M  V30 9743 C 937.206 1.85454 -0.602648 0
M  V30 9744 O 936.476 1.92157 0.381137 0
M  V30 9745 H 935.056 0.35787 -0.655697 0
M  V30 9746 H 937.718 0.251888 -1.93265 0
M  V30 9747 H 936.814 1.5767 -2.69345 0
M  V30 9748 N 937.115 1.49373 0.502552 0
M  V30 9749 C 938.078 1.65413 1.58654 0
M  V30 9750 C 939.078 0.526003 1.51953 0
M  V30 9751 O 940.268 0.792421 1.55133 0
M  V30 9752 C 937.4 1.65005 2.98306 0
M  V30 9753 H 938.593 2.62095 1.45762 0
M  V30 9754 H 936.146 1.38381 0.726672 0
M  V30 9755 H 936.881 0.699014 3.16677 0
M  V30 9756 H 936.666 2.46931 3.04578 0
M  V30 9757 H 938.156 1.79477 3.77065 0
M  V30 9758 N 938.594 -0.753485 1.38421 0
M  V30 9759 C 939.824 -1.54049 1.37669 0
M  V30 9760 C 940.232 -1.89167 -0.0353656 0
M  V30 9761 O 939.575 -1.53285 -1.01239 0
M  V30 9762 C 939.637 -2.86777 2.16793 0
M  V30 9763 C 939.301 -2.74196 3.65603 0
M  V30 9764 C 940.298 -2.43985 4.59094 0
M  V30 9765 C 937.983 -2.91645 4.0896 0
M  V30 9766 C 939.977 -2.31379 5.93921 0
M  V30 9767 C 937.664 -2.78658 5.43868 0
M  V30 9768 C 938.662 -2.48568 6.36163 0
M  V30 9769 O 938.35 -2.3564 7.68589 0
M  V30 9770 H 938.082 -0.483276 0.472673 0
M  V30 9771 H 940.636 -0.940267 1.82615 0
M  V30 9772 H 938.866 -3.48988 1.66565 0
M  V30 9773 H 940.555 -3.48289 2.08446 0
M  V30 9774 H 941.321 -2.30172 4.26902 0
M  V30 9775 H 937.2 -3.14063 3.37469 0
M  V30 9776 H 940.744 -2.07813 6.65927 0
M  V30 9777 H 936.641 -2.92044 5.75656 0
M  V30 9778 H 937.409 -2.50851 7.79112 0
M  V30 9779 N 940.072 -1.23292 -0.981677 0
M  V30 9780 C 941.302 -1.0893 -1.7555 0
M  V30 9781 C 941.71 0.362219 -1.857 0
M  V30 9782 O 941.053 1.2624 -1.33451 0
M  V30 9783 C 941.115 -1.6389 -3.19969 0
M  V30 9784 C 940.779 -3.12632 -3.33332 0
M  V30 9785 C 941.776 -4.0994 -3.19758 0
M  V30 9786 C 939.461 -3.52314 -3.58022 0
M  V30 9787 C 941.455 -5.44915 -3.30676 0
M  V30 9788 C 939.142 -4.87434 -3.6858 0
M  V30 9789 C 940.14 -5.83544 -3.54916 0
M  V30 9790 O 939.828 -7.16209 -3.65102 0
M  V30 9791 H 939.56 -0.381901 -0.557788 0
M  V30 9792 H 942.114 -1.63586 -1.24213 0
M  V30 9793 H 940.344 -1.03653 -3.72549 0
M  V30 9794 H 942.033 -1.45023 -3.79108 0
M  V30 9795 H 942.799 -3.80625 -3.00582 0
M  V30 9796 H 938.678 -2.78022 -3.67729 0
M  V30 9797 H 942.222 -6.19913 -3.19928 0
M  V30 9798 H 938.119 -5.16426 -3.87265 0
M  V30 9799 H 938.887 -7.23941 -3.81905 0
M  V30 9800 N 941.55 1.18024 -1.04442 0
M  V30 9801 C 942.48 2.23988 -0.659683 0
M  V30 9802 C 943.461 1.6669 0.338904 0
M  V30 9803 O 944.646 1.92971 0.21817 0
M  V30 9804 C 941.776 3.4729 -0.0257672 0
M  V30 9805 C 940.73 4.17362 -0.948299 0
M  V30 9806 C 940.056 5.34401 -0.17866 0
M  V30 9807 C 941.356 4.70435 -2.26909 0
M  V30 9808 H 943.05 2.56425 -1.54553 0
M  V30 9809 H 940.596 1.23256 -0.744575 0
M  V30 9810 H 942.549 4.20627 0.255131 0
M  V30 9811 H 941.273 3.14098 0.894981 0
M  V30 9812 H 939.932 3.45928 -1.21364 0
M  V30 9813 H 939.58 4.97458 0.744614 0
M  V30 9814 H 939.28 5.8222 -0.793294 0
M  V30 9815 H 940.804 6.10526 0.0951315 0
M  V30 9816 H 942.218 5.35447 -2.04864 0
M  V30 9817 H 940.615 5.28803 -2.83703 0
M  V30 9818 H 941.685 3.87653 -2.91296 0
M  V30 9819 N 943.028 0.824394 1.34319 0
M  V30 9820 C 943.975 0.245282 2.29493 0
M  V30 9821 C 944.945 -0.630762 1.53657 0
M  V30 9822 O 946.13 -0.572094 1.82021 0
M  V30 9823 C 943.27 -0.585631 3.40095 0
M  V30 9824 C 942.383 0.312821 4.30866 0
M  V30 9825 C 941.518 -0.527801 5.28571 0
M  V30 9826 C 940.557 0.369946 6.10981 0
M  V30 9827 N 939.694 -0.43169 7.00772 0
M  V30 9828 H 944.534 1.06225 2.78425 0
M  V30 9829 H 942.071 0.53533 1.37013 0
M  V30 9830 H 944.029 -1.08271 4.02906 0
M  V30 9831 H 942.659 -1.3677 2.92393 0
M  V30 9832 H 941.711 0.928129 3.68904 0
M  V30 9833 H 943.023 1.00306 4.8861 0
M  V30 9834 H 942.177 -1.0893 5.96841 0
M  V30 9835 H 940.916 -1.25154 4.71368 0
M  V30 9836 H 939.921 0.943577 5.41643 0
M  V30 9837 H 941.146 1.09182 6.70266 0
M  V30 9838 H 939.092 -1.13908 6.46035 0
M  V30 9839 H 939.009 0.200133 7.55735 0
M  V30 9840 H 940.277 -0.975894 7.73367 0
M  V30 9841 N 944.506 -1.46559 0.579492 0
M  V30 9842 C 945.436 -2.33059 -0.143437 0
M  V30 9843 C 946.417 -1.4515 -0.886868 0
M  V30 9844 O 947.602 -1.73973 -0.862961 0
M  V30 9845 C 944.732 -3.27364 -1.15973 0
M  V30 9846 C 943.686 -4.24689 -0.531348 0
M  V30 9847 C 943.012 -5.08479 -1.65388 0
M  V30 9848 C 944.312 -5.1961 0.529391 0
M  V30 9849 H 946.006 -2.93753 0.578762 0
M  V30 9850 H 943.552 -1.41256 0.279775 0
M  V30 9851 H 945.505 -3.86732 -1.67382 0
M  V30 9852 H 944.229 -2.64771 -1.91217 0
M  V30 9853 H 942.888 -3.6658 -0.0383749 0
M  V30 9854 H 942.536 -4.42273 -2.3959 0
M  V30 9855 H 942.236 -5.74387 -1.23909 0
M  V30 9856 H 943.76 -5.70709 -2.17079 0
M  V30 9857 H 945.174 -5.73212 0.100506 0
M  V30 9858 H 943.571 -5.93843 0.86432 0
M  V30 9859 H 944.641 -4.63737 1.4169 0
M  V30 9860 N 945.984 -0.3171 -1.54377 0
M  V30 9861 C 946.894 0.560867 -2.27797 0
M  V30 9862 C 947.91 1.13473 -1.31908 0
M  V30 9863 O 949.086 1.15608 -1.64914 0
M  V30 9864 C 946.151 1.70886 -3.0166 0
M  V30 9865 C 945.212 1.16745 -4.13121 0
M  V30 9866 C 944.445 2.26073 -4.83453 0
M  V30 9867 O 944.668 3.46292 -4.53252 0
M  V30 9868 O 943.602 1.91856 -5.70504 0
M  V30 9869 H 947.428 -0.035193 -3.0368 0
M  V30 9870 H 945.013 -0.0830062 -1.49169 0
M  V30 9871 H 946.895 2.37736 -3.47936 0
M  V30 9872 H 945.57 2.29122 -2.28658 0
M  V30 9873 H 944.477 0.464224 -3.71209 0
M  V30 9874 H 945.81 0.630307 -4.88147 0
M  V30 9875 N 947.462 1.57535 -0.0451378 0
M  V30 9876 C 948.41 2.12351 0.949205 0
M  V30 9877 C 949.404 1.05386 1.32628 0
M  V30 9878 O 950.61 1.23802 1.30664 0
M  V30 9879 H 946.985 0.678648 0.323945 0
M  V30 9880 H 948.956 2.94806 0.461718 0
M  V30 9881 C 947.705 2.67862 2.21687 0
M  V30 9882 H 947.028 3.49826 1.93551 0
M  V30 9883 H 948.468 3.09844 2.89435 0
M  V30 9884 C 946.927 1.61353 2.95748 0
M  V30 9885 O 947.457 1.02276 3.88462 0
M  V30 9886 N 945.663 1.33017 2.5837 0
M  V30 9887 H 945.21 1.81246 1.83051 0
M  V30 9888 H 945.168 0.619812 3.0823 0
M  V30 9889 N 948.94 -0.228186 1.55939 0
M  V30 9890 C 949.872 -1.30605 1.88348 0
M  V30 9891 C 950.885 -1.43375 0.771198 0
M  V30 9892 O 952.074 -1.44391 1.04945 0
M  V30 9893 C 949.174 -2.68248 2.07115 0
M  V30 9894 C 948.347 -2.77509 3.38094 0
M  V30 9895 C 947.406 -3.96121 3.46373 0
M  V30 9896 O 946.432 -3.8477 4.19453 0
M  V30 9897 N 947.634 -5.10132 2.77031 0
M  V30 9898 H 950.399 -1.03132 2.81396 0
M  V30 9899 H 947.96 -0.418245 1.56404 0
M  V30 9900 H 949.952 -3.45966 2.09976 0
M  V30 9901 H 948.522 -2.88348 1.20723 0
M  V30 9902 H 947.742 -1.8632 3.47388 0
M  V30 9903 H 949.03 -2.80662 4.2439 0
M  V30 9904 H 948.428 -5.22249 2.17424 0
M  V30 9905 H 946.985 -5.85916 2.85561 0
M  V30 9906 N 950.418 -1.49637 -0.494624 0
M  V30 9907 C 951.643 -1.63431 -1.27691 0
M  V30 9908 C 952.068 -0.30813 -1.85559 0
M  V30 9909 O 951.426 0.725083 -1.66169 0
M  V30 9910 C 951.474 -2.71043 -2.3784 0
M  V30 9911 O 950.578 -2.3066 -3.41862 0
M  V30 9912 H 949.919 -0.546804 -0.376698 0
M  V30 9913 H 952.449 -1.95866 -0.591413 0
M  V30 9914 H 952.459 -2.93406 -2.83508 0
M  V30 9915 H 951.134 -3.67306 -1.95088 0
M  V30 9916 H 949.711 -2.18652 -3.02069 0
M  V30 9917 N 951.896 0.746133 -1.38819 0
M  V30 9918 C 952.826 1.87344 -1.39372 0
M  V30 9919 C 953.807 1.68123 -0.258583 0
M  V30 9920 O 954.992 1.88606 -0.462769 0
M  V30 9921 C 952.122 3.24962 -1.22543 0
M  V30 9922 C 951.076 3.58799 -2.33339 0
M  V30 9923 C 950.402 4.95235 -2.01609 0
M  V30 9924 C 951.702 3.62911 -3.75624 0
M  V30 9925 H 953.396 1.87138 -2.33709 0
M  V30 9926 H 950.942 0.898937 -1.12495 0
M  V30 9927 H 952.895 4.03488 -1.21554 0
M  V30 9928 H 951.619 3.25667 -0.246707 0
M  V30 9929 H 950.278 2.82596 -2.33527 0
M  V30 9930 H 949.926 4.92508 -1.02202 0
M  V30 9931 H 949.626 5.18843 -2.75819 0
M  V30 9932 H 951.15 5.76131 -2.02251 0
M  V30 9933 H 952.564 4.31535 -3.77426 0
M  V30 9934 H 950.961 3.98031 -4.491 0
M  V30 9935 H 952.031 2.62967 -4.07402 0
M  V30 9936 N 953.375 1.23811 0.975125 0
M  V30 9937 C 954.322 1.02394 2.06843 0
M  V30 9938 C 955.292 -0.060337 1.6599 0
M  V30 9939 O 956.477 0.0928187 1.90574 0
M  V30 9940 C 953.617 0.626882 3.39359 0
M  V30 9941 C 952.73 1.78385 3.9345 0
M  V30 9942 C 951.865 1.33307 5.14201 0
M  V30 9943 C 950.904 2.46045 5.60471 0
M  V30 9944 N 950.041 2.01888 6.72448 0
M  V30 9945 H 954.881 1.95973 2.24496 0
M  V30 9946 H 952.418 0.976206 1.10039 0
M  V30 9947 H 954.376 0.377742 4.15486 0
M  V30 9948 H 953.006 -0.271907 3.21653 0
M  V30 9949 H 952.058 2.14685 3.14029 0
M  V30 9950 H 953.37 2.63122 4.23755 0
M  V30 9951 H 952.524 1.04237 5.97678 0
M  V30 9952 H 951.263 0.456143 4.85562 0
M  V30 9953 H 950.268 2.75884 4.75571 0
M  V30 9954 H 951.493 3.34283 5.91127 0
M  V30 9955 H 949.439 1.16583 6.45558 0
M  V30 9956 H 949.356 2.80182 7.02164 0
M  V30 9957 H 950.624 1.75937 7.59386 0
M  V30 9958 N 954.853 -1.17469 1.05066 0
M  V30 9959 C 956.078 -1.92162 0.780298 0
M  V30 9960 C 956.503 -1.76222 -0.657832 0
M  V30 9961 O 955.861 -1.0791 -1.45688 0
M  V30 9962 C 955.909 -3.41292 1.16414 0
M  V30 9963 O 955.013 -4.1134 0.295531 0
M  V30 9964 H 954.354 -0.599127 0.286257 0
M  V30 9965 H 956.884 -1.48903 1.40318 0
M  V30 9966 H 956.894 -3.92029 1.13036 0
M  V30 9967 H 955.569 -3.52214 2.21175 0
M  V30 9968 H 954.146 -3.70857 0.389797 0
M  V30 9969 N 956.331 -0.831506 -1.3388 0
M  V30 9970 C 957.577 -0.424302 -1.98312 0
M  V30 9971 C 957.91 1.01211 -1.65741 0
M  V30 9972 O 957.185 1.70636 -0.933464 0
M  V30 9973 C 957.468 -0.636815 -3.54424 0
M  V30 9974 C 957.321 -2.11997 -3.96708 0
M  V30 9975 C 958.64 -0.0782411 -4.4003 0
M  V30 9976 H 955.759 -0.155637 -0.720379 0
M  V30 9977 H 958.401 -1.04566 -1.58638 0
M  V30 9978 H 956.551 -0.107907 -3.8835 0
M  V30 9979 H 958.223 -2.71317 -3.73075 0
M  V30 9980 H 956.466 -2.60723 -3.46707 0
M  V30 9981 H 957.137 -2.21944 -5.05416 0
M  V30 9982 H 959.613 -0.530243 -4.12708 0
M  V30 9983 H 958.489 -0.256676 -5.483 0
M  V30 9984 H 958.75 1.01745 -4.30233 0
M  V30 9985 N 957.809 1.4625 -0.587256 0
M  V30 9986 C 958.756 2.30354 0.143384 0
M  V30 9987 C 959.726 1.40891 0.879716 0
M  V30 9988 O 960.911 1.69837 0.869486 0
M  V30 9989 C 958.051 3.25441 1.14815 0
M  V30 9990 C 957.164 4.30004 0.414792 0
M  V30 9991 C 956.299 5.12214 1.40748 0
M  V30 9992 C 955.338 6.08523 0.660786 0
M  V30 9993 N 954.475 6.83585 1.60176 0
M  V30 9994 H 959.315 2.92304 -0.579866 0
M  V30 9995 H 956.852 1.44055 -0.29777 0
M  V30 9996 H 958.81 3.79018 1.7436 0
M  V30 9997 H 957.44 2.6529 1.83906 0
M  V30 9998 H 956.492 3.79248 -0.295787 0
M  V30 9999 H 957.804 4.98515 -0.168738 0
M  V30 10000 H 956.958 5.70091 2.0756 0
M  V30 10001 H 955.697 4.43675 2.02494 0
M  V30 10002 H 954.702 5.49796 -0.0210864 0
M  V30 10003 H 955.927 6.79083 0.0486551 0
M  V30 10004 H 953.873 6.17752 2.20724 0
M  V30 10005 H 953.79 7.48373 1.07115 0
M  V30 10006 H 955.058 7.46016 2.26009 0
M  V30 10007 N 959.287 0.325282 1.54207 0
M  V30 10008 C 960.534 -0.276775 2.006 0
M  V30 10009 C 960.862 -1.52007 1.21343 0
M  V30 10010 O 960.117 -1.93627 0.284104 0
M  V30 10011 C 960.416 -0.654292 3.5136 0
M  V30 10012 C 960.082 0.490023 4.48229 0
M  V30 10013 C 958.744 0.804104 4.74434 0
M  V30 10014 C 961.096 1.2586 5.05775 0
M  V30 10015 C 958.424 1.88945 5.55443 0
M  V30 10016 C 960.776 2.33405 5.87967 0
M  V30 10017 C 959.44 2.65393 6.12473 0
M  V30 10018 H 958.71 -0.101279 0.734046 0
M  V30 10019 H 961.357 0.449416 1.86152 0
M  V30 10020 H 959.662 -1.46093 3.63544 0
M  V30 10021 H 961.359 -1.13171 3.84699 0
M  V30 10022 H 957.949 0.235147 4.27954 0
M  V30 10023 H 962.133 1.02921 4.85511 0
M  V30 10024 H 957.389 2.14174 5.7266 0
M  V30 10025 H 961.563 2.93402 6.31576 0
M  V30 10026 H 959.19 3.49622 6.75032 0
M  V30 10027 N 960.765 -1.57509 0.0534917 0
M  V30 10028 C 962.013 -1.92402 -0.618548 0
M  V30 10029 C 962.334 -0.93273 -1.71246 0
M  V30 10030 O 961.604 0.0220495 -1.95888 0
M  V30 10031 H 960.184 -0.710233 -0.23147 0
M  V30 10032 H 962.846 -1.94606 0.10704 0
M  V30 10033 H 961.942 -2.93704 -1.05566 0
M  V30 10034 N 962.243 0.219913 -1.56058 0
M  V30 10035 C 963.468 0.965073 -1.83579 0
M  V30 10036 C 963.893 1.77092 -0.634024 0
M  V30 10037 O 963.251 1.76434 0.417205 0
M  V30 10038 C 963.299 1.85705 -3.09105 0
M  V30 10039 O 962.403 2.95261 -2.87914 0
M  V30 10040 H 961.744 0.273173 -0.605204 0
M  V30 10041 H 964.274 0.23273 -2.03272 0
M  V30 10042 H 964.284 2.26655 -3.39252 0
M  V30 10043 H 962.959 1.26476 -3.96203 0
M  V30 10044 H 961.536 2.58246 -2.69005 0
M  V30 10045 N 963.721 1.49897 0.486681 0
M  V30 10046 C 964.97 1.59349 1.23656 0
M  V30 10047 C 965.283 0.292024 1.93408 0
M  V30 10048 O 966.489 0.265258 2.70201 0
M  V30 10049 C 964.945 2.81215 2.24602 0
M  V30 10050 C 964.553 4.18177 1.60725 0
M  V30 10051 C 966.297 3.00004 3.00329 0
M  V30 10052 C 964.204 5.31247 2.59866 0
M  V30 10053 H 963.134 0.593363 0.465227 0
M  V30 10054 H 965.785 1.76306 0.508769 0
M  V30 10055 H 964.167 2.57783 3.00606 0
M  V30 10056 H 965.341 4.51802 0.90616 0
M  V30 10057 H 963.656 4.04864 0.973362 0
M  V30 10058 H 966.253 3.81649 3.74497 0
M  V30 10059 H 966.596 2.1112 3.58795 0
M  V30 10060 H 967.129 3.23544 2.3144 0
M  V30 10061 H 963.868 6.22236 2.06161 0
M  V30 10062 H 963.388 5.02059 3.28172 0
M  V30 10063 H 965.067 5.61177 3.22009 0
M  V30 10064 N 965.199 -0.738761 1.39212 0
M  V30 10065 C 966.146 -1.85273 1.37631 0
M  V30 10066 C 967.116 -1.64407 0.236572 0
M  V30 10067 O 968.301 -1.85866 0.431104 0
M  V30 10068 C 965.441 -3.22745 1.22188 0
M  V30 10069 C 964.554 -3.55342 2.45674 0
M  V30 10070 C 963.689 -4.82195 2.22847 0
M  V30 10071 C 962.728 -5.07625 3.42029 0
M  V30 10072 N 961.865 -6.25679 3.18543 0
M  V30 10073 H 966.705 -1.85959 2.32859 0
M  V30 10074 H 964.242 -0.908716 1.15675 0
M  V30 10075 H 966.2 -4.02095 1.11245 0
M  V30 10076 H 964.83 -3.21347 0.30592 0
M  V30 10077 H 963.882 -2.70722 2.67233 0
M  V30 10078 H 965.194 -3.70054 3.34457 0
M  V30 10079 H 964.348 -5.69518 2.09126 0
M  V30 10080 H 963.087 -4.6965 1.31454 0
M  V30 10081 H 962.092 -4.18765 3.56253 0
M  V30 10082 H 963.317 -5.22058 4.34319 0
M  V30 10083 H 961.263 -6.14429 2.2981 0
M  V30 10084 H 961.18 -6.40961 4.0088 0
M  V30 10085 H 962.448 -7.15851 3.08508 0
M  V30 10086 N 966.677 -1.24326 -0.968545 0
M  V30 10087 C 967.902 -1.1104 -1.75171 0
M  V30 10088 C 968.327 0.333109 -1.85127 0
M  V30 10089 O 967.685 1.24115 -1.32156 0
M  V30 10090 C 967.733 -1.75397 -3.15068 0
M  V30 10091 O 966.837 -1.02417 -3.9948 0
M  V30 10092 H 966.178 -0.388488 -0.538491 0
M  V30 10093 H 968.708 -1.64617 -1.215 0
M  V30 10094 H 968.718 -1.8112 -3.65595 0
M  V30 10095 H 967.393 -2.80427 -3.07138 0
M  V30 10096 H 965.97 -1.04475 -3.57966 0
M  V30 10097 N 968.156 1.1691 -1.05688 0
M  V30 10098 C 969.433 1.83266 -0.683601 0
M  V30 10099 C 969.813 1.93858 0.835602 0
M  V30 10100 O 969.161 1.47696 1.7435 0
M  V30 10101 C 969.371 3.20625 -1.37842 0
M  V30 10102 C 970.719 3.96473 -1.51967 0
M  V30 10103 O 971.743 3.30122 -1.33783 0
M  V30 10104 O 970.602 5.15393 -1.81749 0
M  V30 10105 H 967.696 0.791028 -0.241254 0
M  V30 10106 H 970.242 1.24165 -1.15677 0
M  V30 10107 H 969.014 3.07914 -2.41463 0
M  V30 10108 H 968.637 3.87398 -0.894921 0
M  V30 10109 N 969.634 0.838594 1.33437 0
M  V30 10110 C 970.88 0.444042 1.98494 0
M  V30 10111 C 971.235 -0.985759 1.65229 0
M  V30 10112 O 970.528 -1.67972 0.921736 0
M  V30 10113 C 970.722 0.601425 3.52303 0
M  V30 10114 C 970.551 2.04497 4.00513 0
M  V30 10115 C 969.321 2.68015 4.28364 0
M  V30 10116 C 971.519 3.01367 4.16752 0
M  V30 10117 N 969.501 4.03448 4.62713 0
M  V30 10118 C 970.872 4.21745 4.54457 0
M  V30 10119 C 972.927 2.97776 3.99041 0
M  V30 10120 C 971.63 5.39009 4.76301 0
M  V30 10121 C 973.656 4.14269 4.22061 0
M  V30 10122 C 973.018 5.33402 4.60067 0
M  V30 10123 H 969.117 0.210906 0.753022 0
M  V30 10124 H 971.701 1.0866 1.61558 0
M  V30 10125 H 969.872 -0.0113326 3.88398 0
M  V30 10126 H 971.604 0.178343 4.04307 0
M  V30 10127 H 968.359 2.19153 4.19844 0
M  V30 10128 H 968.783 4.73264 4.84098 0
M  V30 10129 H 973.425 2.06801 3.68773 0
M  V30 10130 H 971.143 6.30529 5.0543 0
M  V30 10131 H 974.729 4.12908 4.09876 0
M  V30 10132 H 973.609 6.22045 4.77525 0
M  V30 10133 N 971.112 -1.45937 0.595003 0
M  V30 10134 C 972.042 -2.33198 -0.11871 0
M  V30 10135 C 973.023 -1.46083 -0.871423 0
M  V30 10136 O 974.208 -1.74879 -0.844461 0
M  V30 10137 C 971.338 -3.28576 -1.12495 0
M  V30 10138 C 970.292 -4.25229 -0.486275 0
M  V30 10139 C 969.618 -5.10204 -1.59986 0
M  V30 10140 C 970.918 -5.19019 0.584473 0
M  V30 10141 H 972.612 -2.93122 0.609886 0
M  V30 10142 H 970.158 -1.40951 0.294742 0
M  V30 10143 H 972.111 -3.88485 -1.6327 0
M  V30 10144 H 970.835 -2.66784 -1.88398 0
M  V30 10145 H 969.494 -3.666 0.000507962 0
M  V30 10146 H 969.142 -4.44789 -2.34886 0
M  V30 10147 H 968.842 -5.75669 -1.1781 0
M  V30 10148 H 970.366 -5.7298 -2.11014 0
M  V30 10149 H 971.78 -5.73073 0.161297 0
M  V30 10150 H 970.177 -5.92893 0.927256 0
M  V30 10151 H 971.247 -4.62208 1.46601 0
M  V30 10152 N 972.59 -0.333456 -1.54032 0
M  V30 10153 C 973.838 0.265608 -2.00347 0
M  V30 10154 C 974.159 1.51873 -1.2231 0
M  V30 10155 O 973.429 1.93142 -0.327549 0
M  V30 10156 H 972.009 0.101135 -0.740122 0
M  V30 10157 H 974.671 -0.452285 -1.8958 0
M  V30 10158 H 973.767 0.51511 -3.0782 0
M  V30 10159 N 974.068 1.57479 -0.061844 0
M  V30 10160 C 975.308 1.94982 0.613309 0
M  V30 10161 C 975.672 0.940729 1.67375 0
M  V30 10162 O 976.873 1.20307 2.40374 0
M  V30 10163 C 975.144 3.37208 1.18429 0
M  V30 10164 S 976.703 3.96678 1.87596 0
M  V30 10165 H 973.521 0.681969 0.201096 0
M  V30 10166 H 976.123 1.95045 -0.133328 0
M  V30 10167 H 974.827 4.08441 0.400522 0
M  V30 10168 H 974.358 3.40665 1.96751 0
M  V30 10169 H 976.373 3.82772 3.15754 0
M  V30 10170 O 975.585 -0.0790267 1.61307 0
M  V30 10171 H 976.276 -0.705778 1.80384 0
M  V30 END ATOM
M  V30 BEGIN BOND
M  V30 END BOND
M  V30 END CTAB
M  END
$$$$
