drugbank_target|P23434 Glycine cleavage system H protein, mitochondrial (DB03187; DB03760)
 OpenBabel12092120083D

  0  0  0     0  0            999 V3000
M  V30 BEGIN CTAB
M  V30 COUNTS 2655 2680 0 0 0
M  V30 BEGIN ATOM
M  V30 1 H -0.908 1.98254 -0.117106 0
M  V30 2 N 0 1.576 0 0
M  V30 3 C 0.933 2.03868 1.02534 0
M  V30 4 C 1.911 0.928543 1.3348 0
M  V30 5 O 3.095 1.19667 1.45644 0
M  V30 6 C 0.222 2.43627 2.35294 0
M  V30 7 C -0.732 3.65373 2.2001 0
M  V30 8 S 0.101 5.13292 1.52614 0
M  V30 9 C 1.257 5.56322 2.86805 0
M  V30 10 H 1.49 2.90518 0.631377 0
M  V30 11 H -0.977 1.52953 0.210867 0
M  V30 12 H 0.981 2.67203 3.11629 0
M  V30 13 H -0.358 1.57376 2.7183 0
M  V30 14 H -1.165 3.90944 3.18086 0
M  V30 15 H -1.563 3.418 1.51819 0
M  V30 16 H 0.729 5.58782 3.83104 0
M  V30 17 H 1.672 6.56266 2.65933 0
M  V30 18 H 2.08 4.83886 2.90714 0
M  V30 19 N 1.4781 -0.272755 1.55222 0
M  V30 20 C 2.4411 -1.32041 1.87344 0
M  V30 21 C 3.4411 -1.42342 0.74803 0
M  V30 22 O 4.6311 -1.41488 1.0162 0
M  V30 23 C 1.7631 -2.70173 2.07893 0
M  V30 24 H 2.9561 -1.04789 2.80997 0
M  V30 25 H 0.5091 -0.51083 1.47717 0
M  V30 26 H 1.2441 -3.02605 1.16622 0
M  V30 27 H 1.0291 -2.64082 2.89833 0
M  V30 28 H 2.5191 -3.45869 2.34017 0
M  V30 29 N 2.9562 -1.48159 -0.537278 0
M  V30 30 C 3.8862 -1.65029 -1.6519 0
M  V30 31 C 4.8672 -0.499281 -1.62607 0
M  V30 32 O 6.0522 -0.730972 -1.79918 0
M  V30 33 C 3.1822 -1.68303 -3.03795 0
M  V30 34 C 2.1362 -2.8283 -3.21234 0
M  V30 35 C 1.4622 -2.71189 -4.60826 0
M  V30 36 C 2.7622 -4.24211 -3.04701 0
M  V30 37 H 4.4562 -2.58341 -1.51328 0
M  V30 38 H 2.0022 -1.24325 -0.726585 0
M  V30 39 H 3.9552 -1.78693 -3.81637 0
M  V30 40 H 2.6792 -0.715635 -3.18663 0
M  V30 41 H 1.3382 -2.71983 -2.45807 0
M  V30 42 H 0.9862 -1.72435 -4.7252 0
M  V30 43 H 0.6862 -3.48035 -4.7344 0
M  V30 44 H 2.2102 -2.83537 -5.40777 0
M  V30 45 H 3.6242 -4.3593 -3.72341 0
M  V30 46 H 2.0212 -5.01998 -3.28813 0
M  V30 47 H 3.0912 -4.41184 -2.01209 0
M  V30 48 N 4.4343 0.785586 -1.36625 0
M  V30 49 C 5.8503 1.08419 -1.17122 0
M  V30 50 C 6.0503 2.015 0.00208491 0
M  V30 51 O 5.1063 2.43551 0.666278 0
M  V30 52 C 6.4193 1.69498 -2.48377 0
M  V30 53 C 7.9673 1.81821 -2.54775 0
M  V30 54 C 8.4423 2.46315 -3.86126 0
M  V30 55 N 9.9333 2.53779 -3.87492 0
M  V30 56 C 10.6683 3.045 -4.85868 0
M  V30 57 N 10.1643 3.55499 -5.94637 0
M  V30 58 N 11.9573 3.03247 -4.73284 0
M  V30 59 H 4.1083 0.167264 -2.1174 0
M  V30 60 H 6.3713 0.13682 -0.938075 0
M  V30 61 H 6.0773 1.08571 -3.34522 0
M  V30 62 H 5.9513 2.6896 -2.64462 0
M  V30 63 H 8.3383 2.41884 -1.69045 0
M  V30 64 H 8.4193 0.811532 -2.42586 0
M  V30 65 H 8.0633 1.86895 -4.72263 0
M  V30 66 H 7.9933 3.47561 -3.95612 0
M  V30 67 H 10.4843 2.17672 -3.08913 0
M  V30 68 H 10.7973 3.92562 -6.65669 0
M  V30 69 H 9.1423 3.5364 -5.98301 0
M  V30 70 H 12.3333 2.62696 -3.87438 0
M  V30 71 H 12.5063 3.42467 -5.50109 0
M  V30 72 N 5.9124 1.20967 1.01018 0
M  V30 73 C 7.1584 1.02526 1.74975 0
M  V30 74 C 7.4914 -0.4408 1.89131 0
M  V30 75 O 6.7664 -1.32718 1.42184 0
M  V30 76 C 7.0494 1.71699 3.1653 0
M  V30 77 C 6.9024 3.25791 3.10129 0
M  V30 78 C 8.2214 1.45531 4.15342 0
M  V30 79 H 5.3404 0.373863 0.635134 0
M  V30 80 H 7.9824 1.49071 1.17805 0
M  V30 81 H 6.1324 1.32128 3.65341 0
M  V30 82 H 7.8044 3.74697 2.69072 0
M  V30 83 H 6.0474 3.56363 2.47362 0
M  V30 84 H 6.7184 3.69353 4.10222 0
M  V30 85 H 9.1944 1.79872 3.75213 0
M  V30 86 H 8.0704 1.96453 5.1254 0
M  V30 87 H 8.3314 0.384237 4.40427 0
M  V30 88 N 7.3905 -1.2043 1.01659 0
M  V30 89 C 8.6365 -1.90079 0.706963 0
M  V30 90 C 8.9695 -1.78648 -0.761474 0
M  V30 91 O 8.2445 -1.17069 -1.55323 0
M  V30 92 C 8.5275 -3.41469 1.14327 0
M  V30 93 C 8.3805 -3.61833 2.67201 0
M  V30 94 C 9.6995 -4.34261 0.714529 0
M  V30 95 H 6.8185 -0.690254 0.2583 0
M  V30 96 H 9.4605 -1.41826 1.26433 0
M  V30 97 H 7.6105 -3.82696 0.669056 0
M  V30 98 H 9.2825 -3.2986 3.22475 0
M  V30 99 H 7.5255 -3.05304 3.08175 0
M  V30 100 H 8.1965 -4.67955 2.92783 0
M  V30 101 H 10.6725 -4.00682 1.12221 0
M  V30 102 H 9.5485 -5.38806 1.04784 0
M  V30 103 H 9.8095 -4.40431 -0.383799 0
M  V30 104 N 8.8686 -0.792821 -1.36206 0
M  V30 105 C 10.2846 -0.474903 -1.52371 0
M  V30 106 C 10.4846 1.00622 -1.74578 0
M  V30 107 O 9.5406 1.79162 -1.77924 0
M  V30 108 C 10.8536 -1.3083 -2.70747 0
M  V30 109 C 12.4016 -1.30234 -2.84619 0
M  V30 110 C 12.8766 -2.11956 -4.06004 0
M  V30 111 N 14.3676 -2.09419 -4.13156 0
M  V30 112 C 15.1026 -2.69419 -5.06163 0
M  V30 113 N 14.5986 -3.3829 -6.04592 0
M  V30 114 N 16.3916 -2.59134 -4.98804 0
M  V30 115 H 8.5426 -1.75222 -1.20046 0
M  V30 116 H 10.8056 -0.745024 -0.586211 0
M  V30 117 H 10.5116 -2.35881 -2.6087 0
M  V30 118 H 10.3856 -0.95196 -3.6499 0
M  V30 119 H 12.7726 -0.259748 -2.93955 0
M  V30 120 H 12.8536 -1.69847 -1.91274 0
M  V30 121 H 12.4976 -3.16248 -3.97429 0
M  V30 122 H 12.4276 -1.69711 -4.98503 0
M  V30 123 H 14.9186 -1.59297 -3.42685 0
M  V30 124 H 15.2316 -3.81394 -6.7213 0
M  V30 125 H 13.5766 -3.42393 -6.04807 0
M  V30 126 H 16.7676 -2.04927 -4.20859 0
M  V30 127 H 16.9406 -3.06185 -5.711 0
M  V30 128 N 10.3467 1.47872 -0.545128 0
M  V30 129 C 11.5717 2.07391 -0.0190611 0
M  V30 130 C 11.9967 1.39688 1.25971 0
M  V30 131 O 11.3547 0.467816 1.7516 0
M  V30 132 C 11.4027 3.60188 0.172335 0
M  V30 133 O 10.5067 3.9339 1.23766 0
M  V30 134 H 9.8477 0.662411 -0.0459059 0
M  V30 135 H 12.3777 1.90066 -0.757365 0
M  V30 136 H 12.3877 4.06129 0.390305 0
M  V30 137 H 11.0627 4.08865 -0.761725 0
M  V30 138 H 9.6397 3.5921 1.00114 0
M  V30 139 N 11.8248 0.280983 1.55075 0
M  V30 140 C 13.0708 -0.33461 2.00021 0
M  V30 141 C 13.4038 -1.55063 1.16915 0
M  V30 142 O 12.6788 -1.93006 0.240646 0
M  V30 143 C 12.9618 -0.711007 3.53011 0
M  V30 144 C 12.8148 0.512766 4.46868 0
M  V30 145 C 14.1338 -1.54522 4.12081 0
M  V30 146 H 11.2528 -0.120147 0.727141 0
M  V30 147 H 13.8948 0.389097 1.85973 0
M  V30 148 H 12.0448 -1.32761 3.65112 0
M  V30 149 H 13.7168 1.15131 4.46702 0
M  V30 150 H 11.9598 1.14975 4.18286 0
M  V30 151 H 12.6308 0.205556 5.51617 0
M  V30 152 H 15.1068 -1.02442 4.03293 0
M  V30 153 H 13.9828 -1.77739 5.19327 0
M  V30 154 H 14.2438 -2.52813 3.62682 0
M  V30 155 N 13.3029 -1.57598 0.00835791 0
M  V30 156 C 14.7189 -1.55764 -0.347822 0
M  V30 157 C 14.9189 -1.01186 -1.74252 0
M  V30 158 O 13.9749 -0.649371 -2.44007 0
M  V30 159 C 15.2879 -2.99927 -0.215407 0
M  V30 160 C 16.8359 -3.11656 -0.289725 0
M  V30 161 C 17.3109 -4.57621 -0.18634 0
M  V30 162 N 18.8019 -4.62557 -0.243978 0
M  V30 163 C 19.5369 -5.73094 -0.18745 0
M  V30 164 N 19.0329 -6.92753 -0.0810331 0
M  V30 165 N 20.8259 -5.61588 -0.239925 0
M  V30 166 H 12.9769 -1.91411 0.92062 0
M  V30 167 H 15.2399 -0.879562 0.353659 0
M  V30 168 H 14.9459 -3.43729 0.744512 0
M  V30 169 H 14.8199 -3.63865 -0.994097 0
M  V30 170 H 17.2069 -2.67779 -1.24009 0
M  V30 171 H 17.2879 -2.5048 0.51898 0
M  V30 172 H 16.9319 -5.02174 0.760519 0
M  V30 173 H 16.8619 -5.16752 -1.01364 0
M  V30 174 H 19.3529 -3.76481 -0.327217 0
M  V30 175 H 19.6659 -7.72787 -0.0440241 0
M  V30 176 H 18.0109 -6.94984 -0.0465419 0
M  V30 177 H 21.2019 -4.66996 -0.321317 0
M  V30 178 H 21.3749 -6.47714 -0.192407 0
M  V30 179 N 14.781 0.264519 -1.55364 0
M  V30 180 C 15.744 1.31046 -1.88042 0
M  V30 181 C 16.744 1.41943 -0.755569 0
M  V30 182 O 17.934 1.40947 -1.02369 0
M  V30 183 C 15.066 2.69067 -2.09323 0
M  V30 184 H 16.259 1.03297 -2.81549 0
M  V30 185 H 13.812 0.502989 -1.47986 0
M  V30 186 H 14.547 3.01982 -1.18226 0
M  V30 187 H 14.332 2.62542 -2.91229 0
M  V30 188 H 15.822 3.44623 -2.35848 0
M  V30 189 N 16.2591 1.48442 0.529413 0
M  V30 190 C 17.1891 1.65902 1.64313 0
M  V30 191 C 18.1701 0.507897 1.6234 0
M  V30 192 O 19.3551 0.740503 1.79528 0
M  V30 193 C 16.4851 1.69911 3.02898 0
M  V30 194 C 15.4391 2.8453 3.19729 0
M  V30 195 C 14.7651 2.73629 4.59381 0
M  V30 196 C 16.0651 4.25821 3.02447 0
M  V30 197 H 17.7591 2.5914 1.49955 0
M  V30 198 H 15.3051 1.24709 0.719982 0
M  V30 199 H 17.2581 1.80715 3.80684 0
M  V30 200 H 15.9821 0.732524 3.18279 0
M  V30 201 H 14.6411 2.73283 2.44361 0
M  V30 202 H 14.2891 1.74938 4.71599 0
M  V30 203 H 13.9891 3.50541 4.71588 0
M  V30 204 H 15.5131 2.86401 5.39265 0
M  V30 205 H 16.9271 4.37898 3.70024 0
M  V30 206 H 15.3241 5.03735 3.26146 0
M  V30 207 H 16.3941 4.42244 1.98867 0
M  V30 208 N 17.7372 -0.778329 1.37039 0
M  V30 209 C 18.6672 -1.90546 1.34962 0
M  V30 210 C 19.6482 -1.68681 0.219274 0
M  V30 211 O 20.8332 -1.89634 0.418624 0
M  V30 212 C 17.9632 -3.27734 1.14925 0
M  V30 213 C 16.9172 -3.64147 2.24902 0
M  V30 214 C 16.2432 -4.99806 1.89996 0
M  V30 215 C 17.5432 -3.71579 3.67051 0
M  V30 216 H 19.2372 -1.92541 2.29277 0
M  V30 217 H 16.7832 -0.924948 1.10366 0
M  V30 218 H 18.7362 -4.06215 1.12104 0
M  V30 219 H 17.4602 -3.26154 0.170631 0
M  V30 220 H 16.1192 -2.8797 2.26868 0
M  V30 221 H 15.7672 -4.94759 0.906796 0
M  V30 222 H 15.4672 -5.25139 2.63634 0
M  V30 223 H 16.9912 -5.80694 1.88749 0
M  V30 224 H 18.4052 -4.40227 3.67251 0
M  V30 225 H 16.8022 -4.08405 4.39688 0
M  V30 226 H 17.8722 -2.72404 4.01154 0
M  V30 227 N 19.2153 -1.21501 -1.00376 0
M  V30 228 C 20.4553 -1.04444 -1.75701 0
M  V30 229 C 20.8193 0.414644 -1.87469 0
M  V30 230 O 22.0203 0.705763 -2.59369 0
M  V30 231 C 20.2913 -1.72389 -3.13077 0
M  V30 232 S 21.8503 -1.70604 -4.04277 0
M  V30 233 H 18.6683 -0.374249 -0.604532 0
M  V30 234 H 21.2703 -1.54267 -1.20091 0
M  V30 235 H 19.9743 -2.77734 -3.02146 0
M  V30 236 H 19.5053 -1.22751 -3.73759 0
M  V30 237 H 21.5203 -0.748012 -4.9053 0
M  V30 238 N 20.6934 1.19889 -1.02296 0
M  V30 239 C 21.9214 1.9339 -0.735399 0
M  V30 240 C 22.3364 1.75148 0.704887 0
M  V30 241 O 21.6934 1.06954 1.47875 0
M  V30 242 C 21.7444 3.45313 -1.06962 0
M  V30 243 O 21.4654 3.62964 -2.45334 0
M  V30 244 C 22.9664 4.35948 -0.804021 0
M  V30 245 H 20.1864 0.61448 -0.269546 0
M  V30 246 H 22.7304 1.522 -1.36585 0
M  V30 247 H 20.8854 3.84359 -0.484455 0
M  V30 248 H 21.2994 4.56886 -2.57595 0
M  V30 249 H 22.7734 5.41174 -1.0879 0
M  V30 250 H 23.2504 4.3842 0.261691 0
M  V30 251 H 23.8564 4.02574 -1.37164 0
M  V30 252 N 22.1715 0.800033 1.35784 0
M  V30 253 C 23.1015 0.220184 2.3246 0
M  V30 254 C 24.0825 -0.65073 1.57161 0
M  V30 255 O 25.2675 -0.582359 1.85263 0
M  V30 256 C 22.3975 -0.637353 3.41402 0
M  V30 257 C 21.3515 0.134531 4.27789 0
M  V30 258 C 20.6775 -0.844285 5.27992 0
M  V30 259 C 21.9775 1.32979 5.05088 0
M  V30 260 H 23.6715 1.02787 2.81203 0
M  V30 261 H 21.2175 0.495717 1.35199 0
M  V30 262 H 23.1705 -1.05302 4.08031 0
M  V30 263 H 21.8945 -1.47785 2.91251 0
M  V30 264 H 20.5535 0.531296 3.6273 0
M  V30 265 H 20.2015 -1.68011 4.74111 0
M  V30 266 H 19.9015 -0.332184 5.8666 0
M  V30 267 H 21.4255 -1.2583 5.97494 0
M  V30 268 H 22.8395 0.98934 5.64699 0
M  V30 269 H 21.2365 1.77593 5.7322 0
M  V30 270 H 22.3065 2.11978 4.36111 0
M  V30 271 N 23.6496 -1.47581 0.552962 0
M  V30 272 C 25.0656 -1.5818 0.212424 0
M  V30 273 C 25.2656 -1.55213 -1.28496 0
M  V30 274 O 24.3216 -1.45329 -2.06484 0
M  V30 275 C 25.6346 -2.88865 0.835318 0
M  V30 276 C 27.1826 -3.0244 0.806156 0
M  V30 277 C 27.6576 -4.35819 1.40804 0
M  V30 278 N 29.1486 -4.42444 1.37103 0
M  V30 279 C 29.8836 -5.44202 1.80641 0
M  V30 280 N 29.3796 -6.52795 2.32015 0
M  V30 281 N 31.1726 -5.35222 1.71738 0
M  V30 282 H 23.3236 -1.47753 1.52587 0
M  V30 283 H 25.5866 -0.702941 0.636064 0
M  V30 284 H 25.2926 -2.9676 1.88749 0
M  V30 285 H 25.1666 -3.7579 0.325848 0
M  V30 286 H 27.5536 -2.94144 -0.237317 0
M  V30 287 H 27.6346 -2.17068 1.35334 0
M  V30 288 H 27.2786 -4.44871 2.45056 0
M  V30 289 H 27.2086 -5.19916 0.836338 0
M  V30 290 H 29.6996 -3.6456 0.995202 0
M  V30 291 H 30.0126 -7.26609 2.63171 0
M  V30 292 H 28.3576 -6.53696 2.36023 0
M  V30 293 H 31.5486 -4.49284 1.31382 0
M  V30 294 H 31.7216 -6.14389 2.05987 0
M  V30 295 N 25.1277 -0.289203 -1.54924 0
M  V30 296 C 26.0907 0.579144 -2.21762 0
M  V30 297 C 27.0907 1.07047 -1.1999 0
M  V30 298 O 28.2807 0.968384 -1.44803 0
M  V30 299 C 25.4127 1.80055 -2.8947 0
M  V30 300 H 26.6057 -0.00464908 -2.999 0
M  V30 301 H 24.1587 -0.0399306 -1.56249 0
M  V30 302 H 24.8937 2.42449 -2.15381 0
M  V30 303 H 24.6787 1.45602 -3.64064 0
M  V30 304 H 26.1687 2.41773 -3.40493 0
M  V30 305 N 26.6058 1.57591 -0.0167156 0
M  V30 306 C 27.8518 1.91567 0.665582 0
M  V30 307 C 28.1848 0.892298 1.72487 0
M  V30 308 O 27.4598 -0.0867127 1.94307 0
M  V30 309 C 27.7428 3.36069 1.29342 0
M  V30 310 C 27.5958 4.49135 0.244541 0
M  V30 311 C 28.9148 3.803 2.21495 0
M  V30 312 H 26.0338 0.69666 0.240488 0
M  V30 313 H 28.6758 1.89866 -0.0714356 0
M  V30 314 H 26.8258 3.3765 1.92158 0
M  V30 315 H 28.4978 4.59689 -0.385228 0
M  V30 316 H 26.7408 4.3165 -0.431379 0
M  V30 317 H 27.4118 5.47242 0.723207 0
M  V30 318 H 29.8878 3.80377 1.68678 0
M  V30 319 H 28.7638 4.82127 2.62382 0
M  V30 320 H 29.0248 3.15104 3.101 0
M  V30 321 N 28.0839 -0.256276 1.55502 0
M  V30 322 C 29.4949 -0.826068 1.67431 0
M  V30 323 C 29.8459 -1.86396 0.612446 0
M  V30 324 O 28.9709 -2.15031 -0.243025 0
M  V30 325 C 29.5659 -1.50512 3.03532 0
M  V30 326 C 28.1249 -2.02273 3.17431 0
M  V30 327 C 27.2719 -0.870548 2.63281 0
M  V30 328 H 30.2229 -0.0322728 1.58667 0
M  V30 329 H 30.2439 -2.37279 2.97454 0
M  V30 330 H 29.7559 -0.749484 3.80794 0
M  V30 331 H 27.8569 -2.80746 2.44974 0
M  V30 332 H 27.9699 -2.22655 4.24219 0
M  V30 333 H 26.3339 -1.26851 2.20864 0
M  V30 334 H 27.1169 -0.128149 3.43061 0
M  V30 335 N 29.562 -1.4872 -0.521534 0
M  V30 336 C 30.787 -1.61101 -1.30618 0
M  V30 337 C 31.212 -0.274611 -1.86085 0
M  V30 338 O 30.57 0.754937 -1.64834 0
M  V30 339 C 30.618 -2.66709 -2.4269 0
M  V30 340 O 29.722 -2.24456 -3.45967 0
M  V30 341 H 29.063 -0.539921 -0.386499 0
M  V30 342 H 31.593 -1.94767 -0.626645 0
M  V30 343 H 31.603 -2.88245 -2.88754 0
M  V30 344 H 30.278 -3.63727 -2.01682 0
M  V30 345 H 28.855 -2.13168 -3.05964 0
M  V30 346 N 31.0401 0.771051 -1.3745 0
M  V30 347 C 32.4511 1.34737 -1.29239 0
M  V30 348 C 32.8021 1.96109 0.0596908 0
M  V30 349 O 31.9271 1.93865 0.961534 0
M  V30 350 C 32.5221 2.44973 -2.34037 0
M  V30 351 C 31.0811 2.98372 -2.29458 0
M  V30 352 C 30.2281 1.71595 -2.17831 0
M  V30 353 H 33.1791 0.571256 -1.48062 0
M  V30 354 H 33.2001 3.24471 -1.98744 0
M  V30 355 H 32.7121 2.00276 -3.32432 0
M  V30 356 H 30.8131 3.47443 -1.34589 0
M  V30 357 H 30.9261 3.53939 -3.229 0
M  V30 358 H 29.2901 1.94547 -1.64388 0
M  V30 359 H 30.0731 1.29001 -3.18141 0
M  V30 360 N 32.5182 1.22032 0.997298 0
M  V30 361 C 33.4812 0.987909 2.06816 0
M  V30 362 C 34.4812 -0.0440084 1.6074 0
M  V30 363 O 35.6712 0.194053 1.73116 0
M  V30 364 C 32.8032 0.49132 3.37341 0
M  V30 365 H 33.9962 1.93803 2.28868 0
M  V30 366 H 31.5492 1.03838 1.16822 0
M  V30 367 H 32.2842 -0.463364 3.20973 0
M  V30 368 H 32.0692 1.23575 3.72118 0
M  V30 369 H 33.5592 0.348824 4.16141 0
M  V30 370 N 33.9963 -1.19345 1.0293 0
M  V30 371 C 34.9593 -2.20793 0.615069 0
M  V30 372 C 35.9593 -1.57553 -0.321533 0
M  V30 373 O 37.1493 -1.73862 -0.108483 0
M  V30 374 C 34.2813 -3.40754 -0.0999222 0
M  V30 375 H 35.4743 -2.58955 1.51269 0
M  V30 376 H 33.0273 -1.3303 0.820534 0
M  V30 377 H 33.7623 -3.0811 -1.01187 0
M  V30 378 H 33.5473 -3.87889 0.57309 0
M  V30 379 H 35.0373 -4.15898 -0.376645 0
M  V30 380 N 35.4744 -0.807222 -1.35358 0
M  V30 381 C 36.8854 -0.44876 -1.81226 0
M  V30 382 C 37.2364 1.02929 -1.67033 0
M  V30 383 O 36.3614 1.79991 -1.20133 0
M  V30 384 C 36.9564 -0.807774 -3.2903 0
M  V30 385 C 35.5154 -0.501901 -3.73039 0
M  V30 386 C 34.6624 -1.03304 -2.57339 0
M  V30 387 H 37.6134 -0.998808 -1.23327 0
M  V30 388 H 37.6344 -0.10554 -3.80354 0
M  V30 389 H 37.1464 -1.88357 -3.39328 0
M  V30 390 H 35.2474 0.565128 -3.68289 0
M  V30 391 H 35.3604 -1.03497 -4.67787 0
M  V30 392 H 33.7244 -0.455339 -2.50597 0
M  V30 393 H 34.5074 -2.11496 -2.70415 0
M  V30 394 N 36.9525 1.47285 -0.560781 0
M  V30 395 C 38.1925 2.0436 -0.0404627 0
M  V30 396 C 38.5565 1.42534 1.28639 0
M  V30 397 O 39.7575 1.90677 1.89462 0
M  V30 398 C 38.0285 3.57369 0.0471856 0
M  V30 399 S 39.5875 4.3579 0.513109 0
M  V30 400 H 36.4055 0.710492 -0.0268674 0
M  V30 401 H 39.0075 1.80611 -0.748323 0
M  V30 402 H 37.7115 3.9989 -0.922817 0
M  V30 403 H 37.2425 3.8562 0.778491 0
M  V30 404 H 39.2575 4.63476 1.77212 0
M  V30 405 N 38.4306 0.297415 1.54768 0
M  V30 406 C 39.8416 -0.195947 1.85669 0
M  V30 407 C 40.1926 -1.53707 1.21937 0
M  V30 408 O 39.3176 -2.10164 0.515754 0
M  V30 409 C 39.9126 -0.362318 3.36857 0
M  V30 410 C 38.4716 -0.799901 3.67802 0
M  V30 411 C 37.6186 0.0938578 2.77141 0
M  V30 412 H 40.5696 0.518538 1.4999 0
M  V30 413 H 40.5906 -1.19745 3.61167 0
M  V30 414 H 40.1026 0.613921 3.83214 0
M  V30 415 H 38.2036 -1.78682 3.26961 0
M  V30 416 H 38.3166 -0.621773 4.75048 0
M  V30 417 H 36.6806 -0.426254 2.51108 0
M  V30 418 H 37.4636 1.06639 3.26318 0
M  V30 419 N 39.9087 -1.5758 0.0250728 0
M  V30 420 C 41.3197 -1.79476 -0.514323 0
M  V30 421 C 41.6707 -0.934956 -1.72491 0
M  V30 422 O 40.7957 -0.144245 -2.15919 0
M  V30 423 C 41.3907 -3.25503 -0.939842 0
M  V30 424 C 39.9497 -3.48408 -1.42438 0
M  V30 425 C 39.0967 -2.74583 -0.387201 0
M  V30 426 H 42.0477 -1.567 0.25113 0
M  V30 427 H 42.0687 -3.34992 -1.80445 0
M  V30 428 H 41.5807 -3.88056 -0.0585628 0
M  V30 429 H 39.6817 -2.91103 -2.32572 0
M  V30 430 H 39.7947 -4.57119 -1.43455 0
M  V30 431 H 38.1587 -2.39942 -0.854409 0
M  V30 432 H 38.9417 -3.39849 0.485543 0
M  V30 433 N 41.3868 0.248026 -1.55636 0
M  V30 434 C 42.8028 0.596483 -1.48035 0
M  V30 435 C 43.0028 1.88386 -0.715039 0
M  V30 436 O 42.0588 2.51319 -0.243944 0
M  V30 437 C 43.3718 0.700258 -2.92433 0
M  V30 438 C 44.9198 0.792659 -3.02797 0
M  V30 439 C 45.3948 0.928005 -4.485 0
M  V30 440 N 46.8858 0.992903 -4.52433 0
M  V30 441 C 47.6208 1.11687 -5.62418 0
M  V30 442 N 47.1168 1.20645 -6.82214 0
M  V30 443 N 48.9098 1.14994 -5.50212 0
M  V30 444 H 41.0608 -0.597109 -2.03834 0
M  V30 445 H 43.3238 -0.205925 -0.925364 0
M  V30 446 H 43.0298 -0.175658 -3.51261 0
M  V30 447 H 42.9038 1.57255 -3.42857 0
M  V30 448 H 45.2908 1.65903 -2.4405 0
M  V30 449 H 45.3718 -0.104762 -2.55585 0
M  V30 450 H 45.0158 0.0661971 -5.07857 0
M  V30 451 H 44.9458 1.84045 -4.93391 0
M  V30 452 H 47.4368 0.935064 -3.66149 0
M  V30 453 H 47.7498 1.30008 -7.61786 0
M  V30 454 H 46.0948 1.17605 -6.84977 0
M  V30 455 H 49.2858 1.07643 -4.55555 0
M  V30 456 H 49.4588 1.24311 -6.35965 0
M  V30 457 N 42.8649 1.48995 0.513639 0
M  V30 458 C 44.2759 1.5119 1.09537 0
M  V30 459 C 44.6269 0.290906 1.94031 0
M  V30 460 O 43.7519 -0.60049 2.07902 0
M  V30 461 C 44.3469 2.73964 1.99322 0
M  V30 462 C 42.9059 2.78978 2.52682 0
M  V30 463 C 42.0529 2.44934 1.30009 0
M  V30 464 H 45.0039 1.55875 0.298125 0
M  V30 465 H 45.0249 2.53409 2.83838 0
M  V30 466 H 44.5369 3.62813 1.37799 0
M  V30 467 H 42.6379 1.94378 3.1788 0
M  V30 468 H 42.7509 3.8083 2.90698 0
M  V30 469 H 41.1149 1.9644 1.62122 0
M  V30 470 H 41.8979 3.36043 0.702131 0
M  V30 471 N 44.343 -0.763751 1.37857 0
M  V30 472 C 45.589 -1.52396 1.3471 0
M  V30 473 C 45.944 -1.92288 -0.0656435 0
M  V30 474 O 45.237 -1.6181 -1.02606 0
M  V30 475 C 45.431 -2.79499 2.22745 0
M  V30 476 C 45.26 -2.52031 3.72438 0
M  V30 477 C 44.03 -2.45759 4.4151 0
M  V30 478 C 46.228 -2.19489 4.65112 0
M  V30 479 N 44.21 -2.1046 5.76697 0
M  V30 480 C 45.581 -1.94396 5.88736 0
M  V30 481 C 47.636 -2.05712 4.53417 0
M  V30 482 C 46.339 -1.56917 7.01975 0
M  V30 483 C 48.365 -1.69634 5.66549 0
M  V30 484 C 47.727 -1.45407 6.89229 0
M  V30 485 H 43.826 -0.55765 0.548225 0
M  V30 486 H 46.41 -0.890302 1.73152 0
M  V30 487 H 44.581 -3.4069 1.86507 0
M  V30 488 H 46.313 -3.45465 2.10798 0
M  V30 489 H 43.068 -2.61885 3.94605 0
M  V30 490 H 43.492 -1.95484 6.48163 0
M  V30 491 H 48.134 -2.23123 3.59133 0
M  V30 492 H 45.852 -1.38246 7.96187 0
M  V30 493 H 49.438 -1.59621 5.59475 0
M  V30 494 H 48.318 -1.17904 7.75286 0
M  V30 495 N 45.8211 -1.22559 -0.990812 0
M  V30 496 C 46.7531 -0.955325 -2.08342 0
M  V30 497 C 47.7661 0.0668408 -1.62663 0
M  V30 498 O 48.9551 -0.167421 -1.77713 0
M  V30 499 C 46.0551 -0.415566 -3.36342 0
M  V30 500 C 45.2281 -1.49544 -4.11042 0
M  V30 501 C 44.2871 -0.962399 -5.17324 0
M  V30 502 O 43.3131 -1.64907 -5.44788 0
M  V30 503 N 44.5151 0.215134 -5.80101 0
M  V30 504 H 47.2801 -1.89596 -2.32106 0
M  V30 505 H 44.8411 -1.13276 -1.15673 0
M  V30 506 H 46.8331 -0.0442386 -4.04676 0
M  V30 507 H 45.4031 0.430232 -3.09625 0
M  V30 508 H 44.6231 -2.04 -3.37309 0
M  V30 509 H 45.9111 -2.22195 -4.57719 0
M  V30 510 H 45.3091 0.789779 -5.6016 0
M  V30 511 H 43.8661 0.527826 -6.49659 0
M  V30 512 N 47.2992 1.18797 -1.03562 0
M  V30 513 C 48.2292 2.24472 -0.643019 0
M  V30 514 C 49.2102 1.66433 0.351283 0
M  V30 515 O 50.3952 1.92803 0.232505 0
M  V30 516 C 47.5252 3.473 4.24935e-05 0
M  V30 517 C 46.4792 4.18055 -0.917257 0
M  V30 518 C 45.8052 5.34519 -0.138941 0
M  V30 519 C 47.1052 4.72109 -2.23407 0
M  V30 520 H 48.7992 2.57566 -1.52643 0
M  V30 521 H 46.3452 1.23806 -0.735394 0
M  V30 522 H 48.2982 4.20426 0.286383 0
M  V30 523 H 47.0222 3.13424 0.918299 0
M  V30 524 H 45.6812 3.46821 -1.1879 0
M  V30 525 H 45.3292 4.96891 0.781562 0
M  V30 526 H 45.0292 5.82794 -0.750005 0
M  V30 527 H 46.5532 6.10438 0.1405 0
M  V30 528 H 47.9672 5.36955 -2.00879 0
M  V30 529 H 46.3642 5.30897 -2.79765 0
M  V30 530 H 47.4342 3.89807 -2.88407 0
M  V30 531 N 48.7773 0.814389 1.34928 0
M  V30 532 C 50.0253 0.397636 1.9815 0
M  V30 533 C 50.3463 -1.04069 1.64908 0
M  V30 534 O 49.6163 -1.72121 0.93548 0
M  V30 535 H 48.1963 0.144043 0.732981 0
M  V30 536 H 50.8583 1.04195 1.6471 0
M  V30 537 H 49.9543 0.509688 3.0791 0
M  V30 538 N 50.2554 -1.46986 0.568584 0
M  V30 539 C 51.5014 -2.02741 0.0488709 0
M  V30 540 C 51.8344 -1.44077 -1.30214 0
M  V30 541 O 51.1094 -0.600552 -1.84996 0
M  V30 542 C 51.3924 -3.60086 -0.032047 0
M  V30 543 C 51.2454 -4.29162 1.34686 0
M  V30 544 C 52.5644 -4.33838 -0.739798 0
M  V30 545 H 49.6834 -0.736749 0.0192338 0
M  V30 546 H 52.3254 -1.75289 0.733065 0
M  V30 547 H 50.4754 -3.83606 -0.61473 0
M  V30 548 H 52.1474 -4.16948 1.97362 0
M  V30 549 H 50.3904 -3.89073 1.91846 0
M  V30 550 H 51.0614 -5.37826 1.24285 0
M  V30 551 H 53.5374 -4.15378 -0.244939 0
M  V30 552 H 52.4134 -5.43537 -0.765406 0
M  V30 553 H 52.6744 -4.03875 -1.79827 0
M  V30 554 N 51.7335 -0.305618 -1.54608 0
M  V30 555 C 52.9815 0.301701 -1.99835 0
M  V30 556 C 53.3025 1.54054 -1.19551 0
M  V30 557 O 52.5725 1.93702 -0.292658 0
M  V30 558 H 51.1525 0.114468 -0.738178 0
M  V30 559 H 53.8145 -0.418016 -1.90364 0
M  V30 560 H 52.9105 0.570548 -3.06841 0
M  V30 561 N 53.2116 1.57565 -0.0334293 0
M  V30 562 C 54.1746 2.09393 0.932048 0
M  V30 563 C 55.1746 1.00986 1.25134 0
M  V30 564 O 56.3646 1.27129 1.19096 0
M  V30 565 C 53.4966 2.56338 2.2473 0
M  V30 566 H 54.6896 2.95984 0.483085 0
M  V30 567 H 52.2426 1.54819 0.21468 0
M  V30 568 H 52.9776 1.7309 2.74245 0
M  V30 569 H 52.7626 3.35542 2.02865 0
M  V30 570 H 54.2526 2.96646 2.93923 0
M  V30 571 N 54.6897 -0.239769 1.55765 0
M  V30 572 C 55.9357 -0.968234 1.78194 0
M  V30 573 C 56.2687 -1.84701 0.599938 0
M  V30 574 O 55.5437 -1.9031 -0.401524 0
M  V30 575 C 55.8267 -1.8227 3.10564 0
M  V30 576 C 55.6797 -0.971633 4.3918 0
M  V30 577 C 56.9987 -2.80388 3.39221 0
M  V30 578 H 54.1177 -0.350572 0.648281 0
M  V30 579 H 56.7597 -0.238259 1.885 0
M  V30 580 H 54.9097 -2.44507 3.01908 0
M  V30 581 H 56.5817 -0.367408 4.59835 0
M  V30 582 H 54.8247 -0.276276 4.32919 0
M  V30 583 H 55.4957 -1.60346 5.28198 0
M  V30 584 H 57.9717 -2.28287 3.47885 0
M  V30 585 H 56.8477 -3.3729 4.33044 0
M  V30 586 H 57.1087 -3.57212 2.60484 0
M  V30 587 N 56.1678 -1.49265 -0.50573 0
M  V30 588 C 57.5838 -1.35923 -0.836486 0
M  V30 589 C 57.7838 -0.388704 -1.97715 0
M  V30 590 O 56.8398 0.181336 -2.51848 0
M  V30 591 C 58.1528 -2.76531 -1.18115 0
M  V30 592 C 59.7008 -2.85197 -1.28964 0
M  V30 593 C 60.1758 -4.26561 -1.66761 0
M  V30 594 N 61.6668 -4.2935 -1.73819 0
M  V30 595 C 62.4018 -5.35693 -2.045 0
M  V30 596 N 61.8978 -6.52287 -2.33438 0
M  V30 597 N 63.6908 -5.23105 -2.05711 0
M  V30 598 H 55.8418 -2.10965 0.246519 0
M  V30 599 H 58.1048 -0.9468 0.0476887 0
M  V30 600 H 57.8108 -3.49226 -0.416398 0
M  V30 601 H 57.6848 -3.11599 -2.1257 0
M  V30 602 H 60.0718 -2.12742 -2.04511 0
M  V30 603 H 60.1528 -2.53718 -0.325704 0
M  V30 604 H 59.7968 -4.99541 -0.917656 0
M  V30 605 H 59.7268 -4.55502 -2.64246 0
M  V30 606 H 62.2178 -3.4526 -1.53635 0
M  V30 607 H 62.5308 -7.29158 -2.56024 0
M  V30 608 H 60.8758 -6.55521 -2.30905 0
M  V30 609 H 64.0668 -4.31026 -1.82577 0
M  V30 610 H 64.2398 -6.06078 -2.29289 0
M  V30 611 N 57.6459 0.756429 -1.3826 0
M  V30 612 C 58.8739 1.54565 -1.3754 0
M  V30 613 C 59.2889 1.88767 0.0355331 0
M  V30 614 O 58.6459 1.52572 1.0014 0
M  V30 615 C 58.6969 2.84654 -2.22833 0
M  V30 616 O 58.4179 2.51912 -3.5843 0
M  V30 617 C 59.9189 3.78807 -2.30261 0
M  V30 618 H 57.1389 0.478353 -0.470553 0
M  V30 619 H 59.6829 0.936381 -1.81803 0
M  V30 620 H 57.8379 3.41965 -1.8204 0
M  V30 621 H 58.2519 3.35325 -4.03308 0
M  V30 622 H 59.7259 4.67045 -2.94233 0
M  V30 623 H 60.2029 4.19038 -1.31545 0
M  V30 624 H 60.8089 3.2742 -2.71433 0
M  V30 625 N 59.124 1.23083 0.984299 0
M  V30 626 C 60.054 1.03292 2.09411 0
M  V30 627 C 61.035 -0.048923 1.7003 0
M  V30 628 O 62.22 0.114967 1.93859 0
M  V30 629 C 59.35 0.619155 3.41736 0
M  V30 630 C 58.304 1.64791 3.95004 0
M  V30 631 C 57.63 1.0897 5.23478 0
M  V30 632 C 58.93 3.03999 4.24714 0
M  V30 633 H 60.624 1.96119 2.26225 0
M  V30 634 H 58.17 0.944344 1.08711 0
M  V30 635 H 60.123 0.467777 4.18796 0
M  V30 636 H 58.847 -0.344786 3.24775 0
M  V30 637 H 57.506 1.78721 3.20085 0
M  V30 638 H 57.154 0.11686 5.02864 0
M  V30 639 H 56.854 1.77704 5.60085 0
M  V30 640 H 58.378 0.950093 6.03163 0
M  V30 641 H 59.792 2.93393 4.92538 0
M  V30 642 H 58.189 3.69936 4.72512 0
M  V30 643 H 59.259 3.53285 3.32142 0
M  V30 644 N 60.6021 -1.18246 1.0419 0
M  V30 645 C 62.0181 -1.40269 0.761366 0
M  V30 646 C 62.2181 -1.90777 -0.648578 0
M  V30 647 O 61.2741 -2.0929 -1.41258 0
M  V30 648 C 62.5871 -2.40237 1.8085 0
M  V30 649 C 64.1351 -2.53961 1.82955 0
M  V30 650 C 64.6101 -3.57194 2.86664 0
M  V30 651 N 66.1011 -3.64702 2.85563 0
M  V30 652 C 66.8361 -4.44309 3.6246 0
M  V30 653 N 66.3321 -5.27514 4.49111 0
M  V30 654 N 68.1251 -4.39084 3.50944 0
M  V30 655 H 60.2761 -0.837882 1.95175 0
M  V30 656 H 62.5391 -0.430608 0.84456 0
M  V30 657 H 62.2451 -2.10176 2.81991 0
M  V30 658 H 62.1191 -3.39601 1.64168 0
M  V30 659 H 64.5061 -2.83338 0.824855 0
M  V30 660 H 64.5871 -1.54706 2.03715 0
M  V30 661 H 64.2311 -3.28558 3.87314 0
M  V30 662 H 64.1611 -4.5613 2.6316 0
M  V30 663 H 66.6521 -3.05289 2.22727 0
M  V30 664 H 66.9651 -5.85411 5.04493 0
M  V30 665 H 65.3101 -5.2693 4.53178 0
M  V30 666 H 68.5011 -3.7313 2.82651 0
M  V30 667 H 68.6741 -5.00883 4.11121 0
M  V30 668 N 62.0802 -0.821533 -1.34494 0
M  V30 669 C 63.3082 -0.421884 -2.02553 0
M  V30 670 C 63.7232 0.971745 -1.61872 0
M  V30 671 O 63.0802 1.62864 -0.823496 0
M  V30 672 C 63.1312 -0.51285 -3.57844 0
M  V30 673 O 62.8522 -1.85155 -3.97051 0
M  V30 674 C 64.3532 -0.107921 -4.43169 0
M  V30 675 H 61.5732 -0.169482 -0.649243 0
M  V30 676 H 64.1172 -1.1093 -1.71798 0
M  V30 677 H 62.2722 0.126474 -3.87193 0
M  V30 678 H 62.6862 -1.82482 -4.91732 0
M  V30 679 H 64.1602 -0.222657 -5.51551 0
M  V30 680 H 64.6372 0.948401 -4.28838 0
M  V30 681 H 65.2432 -0.720989 -4.19144 0
M  V30 682 N 63.5583 1.46682 -0.576371 0
M  V30 683 C 64.8063 2.02013 -0.0594163 0
M  V30 684 C 65.1273 1.45101 1.30271 0
M  V30 685 O 64.3973 0.633317 1.8538 0
M  V30 686 H 62.9773 0.746759 -0.0189745 0
M  V30 687 H 65.6393 1.79862 -0.750717 0
M  V30 688 H 64.7353 3.12097 0.014345 0
M  V30 689 N 65.0364 0.313813 1.54444 0
M  V30 690 C 66.4474 -0.176243 1.85866 0
M  V30 691 C 66.7984 -1.52405 1.23561 0
M  V30 692 O 65.9234 -2.09605 0.538016 0
M  V30 693 C 66.5184 -0.32657 3.37222 0
M  V30 694 C 65.0774 -0.760846 3.6863 0
M  V30 695 C 64.2244 0.123247 2.77026 0
M  V30 696 H 67.1754 0.534418 1.49431 0
M  V30 697 H 67.1964 -1.15908 3.62416 0
M  V30 698 H 66.7084 0.654531 3.82541 0
M  V30 699 H 64.8094 -1.75204 3.28838 0
M  V30 700 H 64.9224 -0.571353 4.75681 0
M  V30 701 H 63.2864 -0.399597 2.51546 0
M  V30 702 H 64.0694 1.10094 3.25168 0
M  V30 703 N 66.5145 -1.57545 0.0417849 0
M  V30 704 C 67.4775 -2.09885 -0.92093 0
M  V30 705 C 68.4775 -1.01648 -1.24596 0
M  V30 706 O 69.6675 -1.27759 -1.1842 0
M  V30 707 C 66.7995 -2.57527 -2.23367 0
M  V30 708 H 67.9925 -2.96236 -0.467382 0
M  V30 709 H 65.5455 -1.5493 -0.206467 0
M  V30 710 H 66.2805 -1.74542 -2.73323 0
M  V30 711 H 66.0655 -3.36613 -2.01083 0
M  V30 712 H 67.5555 -2.98201 -2.92346 0
M  V30 713 N 67.9926 0.231505 -1.5589 0
M  V30 714 C 68.9226 1.29022 -1.94617 0
M  V30 715 C 69.9036 1.4941 -0.813067 0
M  V30 716 O 71.0886 1.6176 -1.07459 0
M  V30 717 C 68.2186 2.64199 -2.25424 0
M  V30 718 C 67.1726 2.58484 -3.41131 0
M  V30 719 C 66.4986 3.97599 -3.57518 0
M  V30 720 C 67.7986 2.1413 -4.76388 0
M  V30 721 H 69.4926 0.968563 -2.83301 0
M  V30 722 H 67.0386 0.464479 -1.36303 0
M  V30 723 H 68.9916 3.38413 -2.51107 0
M  V30 724 H 67.7156 2.98032 -1.33583 0
M  V30 725 H 66.3746 1.86727 -3.15481 0
M  V30 726 H 66.0226 4.28723 -2.6307 0
M  V30 727 H 65.7226 3.94659 -4.35337 0
M  V30 728 H 67.2466 4.7349 -3.85538 0
M  V30 729 H 68.6606 2.78083 -5.01341 0
M  V30 730 H 67.0576 2.2227 -5.57419 0
M  V30 731 H 68.1276 1.09331 -4.72414 0
M  V30 732 N 69.4707 1.49531 0.497807 0
M  V30 733 C 70.4007 1.6935 1.60757 0
M  V30 734 C 71.3817 0.542218 1.61227 0
M  V30 735 O 72.5667 0.778417 1.77917 0
M  V30 736 C 69.6967 1.76298 2.99226 0
M  V30 737 C 68.6507 2.91248 3.13622 0
M  V30 738 C 67.9767 2.83312 4.53474 0
M  V30 739 C 69.2767 4.3214 2.93346 0
M  V30 740 H 70.9707 2.62263 1.44425 0
M  V30 741 H 68.5167 1.26208 0.693367 0
M  V30 742 H 70.4697 1.88749 3.76765 0
M  V30 743 H 69.1937 0.799871 3.16654 0
M  V30 744 H 67.8527 2.78404 2.38509 0
M  V30 745 H 67.5007 1.84902 4.67782 0
M  V30 746 H 67.2007 3.60465 4.64046 0
M  V30 747 H 68.7247 2.97775 5.33069 0
M  V30 748 H 70.1387 4.45649 3.60652 0
M  V30 749 H 68.5357 5.1054 3.15387 0
M  V30 750 H 69.6057 4.46363 1.89441 0
M  V30 751 N 70.9488 -0.749086 1.3866 0
M  V30 752 C 72.1738 -1.54344 1.38538 0
M  V30 753 C 72.5988 -1.88088 -0.0216655 0
M  V30 754 O 71.9568 -1.50899 -1.00494 0
M  V30 755 C 72.0048 -2.8164 2.25192 0
M  V30 756 O 71.1088 -3.7698 1.67212 0
M  V30 757 H 70.4498 -0.466654 0.472367 0
M  V30 758 H 72.9798 -0.925355 1.82478 0
M  V30 759 H 72.9898 -3.30519 2.3921 0
M  V30 760 H 71.6648 -2.56411 3.27454 0
M  V30 761 H 70.2418 -3.35699 1.6236 0
M  V30 762 N 72.4269 -1.23603 -0.977757 0
M  V30 763 C 73.6729 -1.07129 -1.72195 0
M  V30 764 C 74.0059 0.390501 -1.90233 0
M  V30 765 O 73.2809 1.28902 -1.45653 0
M  V30 766 C 73.5639 -1.80031 -3.11867 0
M  V30 767 C 73.4169 -3.33899 -3.01383 0
M  V30 768 C 74.7359 -1.56492 -4.11337 0
M  V30 769 H 71.8549 -0.390571 -0.624999 0
M  V30 770 H 74.4969 -1.52142 -1.13811 0
M  V30 771 H 72.6469 -1.41768 -3.6171 0
M  V30 772 H 74.3189 -3.81699 -2.59043 0
M  V30 773 H 72.5619 -3.62796 -2.37827 0
M  V30 774 H 73.2329 -3.801 -4.00285 0
M  V30 775 H 75.7089 -1.89757 -3.70313 0
M  V30 776 H 74.5849 -2.09973 -5.07151 0
M  V30 777 H 74.8459 -0.500874 -4.39254 0
M  V30 778 N 73.905 1.17692 -1.04816 0
M  V30 779 C 75.321 1.39863 -0.768794 0
M  V30 780 C 75.521 1.91118 0.638451 0
M  V30 781 O 74.577 2.10036 1.40146 0
M  V30 782 C 75.89 2.39274 -1.82122 0
M  V30 783 C 77.438 2.52987 -1.843 0
M  V30 784 C 77.913 3.55669 -2.88555 0
M  V30 785 N 79.404 3.63183 -2.87493 0
M  V30 786 C 80.139 4.42381 -3.64811 0
M  V30 787 N 79.635 5.25125 -4.51903 0
M  V30 788 N 81.428 4.37217 -3.53267 0
M  V30 789 H 73.579 0.82752 -1.95617 0
M  V30 790 H 75.842 0.426123 -0.846831 0
M  V30 791 H 75.548 2.08678 -2.83102 0
M  V30 792 H 75.422 3.38725 -1.65967 0
M  V30 793 H 77.809 2.82896 -0.839869 0
M  V30 794 H 77.89 1.53623 -2.04532 0
M  V30 795 H 77.534 3.26499 -3.89051 0
M  V30 796 H 77.464 4.54728 -2.65575 0
M  V30 797 H 79.955 3.04103 -2.24343 0
M  V30 798 H 80.268 5.82728 -5.07591 0
M  V30 799 H 78.613 5.24519 -4.55966 0
M  V30 800 H 81.804 3.71626 -2.84625 0
M  V30 801 H 81.977 4.98696 -4.13771 0
M  V30 802 N 75.3831 0.828654 1.34056 0
M  V30 803 C 76.3301 0.252567 2.29414 0
M  V30 804 C 77.3001 -0.62588 1.53857 0
M  V30 805 O 78.4851 -0.566312 1.82202 0
M  V30 806 C 75.6251 -0.574831 3.40279 0
M  V30 807 C 74.7381 0.326499 4.30764 0
M  V30 808 C 73.8731 -0.511016 5.28736 0
M  V30 809 C 72.9121 0.389342 6.1086 0
M  V30 810 N 72.0491 -0.409439 7.00905 0
M  V30 811 H 76.8891 1.07108 2.78086 0
M  V30 812 H 74.4261 0.539677 1.36843 0
M  V30 813 H 76.3841 -1.06992 4.03248 0
M  V30 814 H 75.0141 -1.35841 2.92826 0
M  V30 815 H 74.0661 0.939837 3.68607 0
M  V30 816 H 75.3781 1.01857 4.88289 0
M  V30 817 H 74.5321 -1.07035 5.97184 0
M  V30 818 H 73.2711 -1.23657 4.71763 0
M  V30 819 H 72.2761 0.960769 5.4134 0
M  V30 820 H 73.5011 1.1131 6.69916 0
M  V30 821 H 71.4471 -1.11856 6.46393 0
M  V30 822 H 71.3641 0.224126 7.55668 0
M  V30 823 H 72.6321 -0.951336 7.73673 0
M  V30 824 N 76.8612 -1.46375 0.584142 0
M  V30 825 C 78.1082 -2.02378 0.0702675 0
M  V30 826 C 78.4362 -1.45545 -1.29023 0
M  V30 827 O 77.6912 -0.610967 -1.85918 0
M  V30 828 C 77.9902 -3.57373 -0.0439342 0
M  V30 829 C 77.6562 -4.33252 1.24915 0
M  V30 830 C 76.3182 -4.53701 1.60341 0
M  V30 831 C 78.6702 -4.7681 2.1048 0
M  V30 832 C 75.9982 -5.1496 2.81128 0
M  V30 833 C 78.3502 -5.39404 3.30494 0
M  V30 834 C 77.0142 -5.5808 3.66201 0
M  V30 835 H 76.2842 -0.740554 0.0257127 0
M  V30 836 H 78.9312 -1.75727 0.761065 0
M  V30 837 H 77.2362 -3.83169 -0.817869 0
M  V30 838 H 78.9332 -3.98384 -0.457318 0
M  V30 839 H 75.5232 -4.17633 0.963364 0
M  V30 840 H 79.7072 -4.60766 1.84414 0
M  V30 841 H 74.9632 -5.27611 3.08928 0
M  V30 842 H 79.1372 -5.72114 3.97063 0
M  V30 843 H 76.7642 -6.05318 4.59885 0
M  V30 844 N 78.3393 -0.321999 -1.54275 0
M  V30 845 C 79.5673 0.283052 -2.04955 0
M  V30 846 C 79.9823 1.45904 -1.19823 0
M  V30 847 O 79.3393 1.81063 -0.228545 0
M  V30 848 C 79.3903 0.719028 -3.54277 0
M  V30 849 O 79.1113 -0.410175 -4.36176 0
M  V30 850 C 80.6123 1.38705 -4.21041 0
M  V30 851 H 77.8323 0.0584616 -0.668448 0
M  V30 852 H 80.3763 -0.467734 -1.99079 0
M  V30 853 H 78.5313 1.41979 -3.60445 0
M  V30 854 H 78.9453 -0.0669416 -5.24457 0
M  V30 855 H 80.4193 1.64306 -5.2698 0
M  V30 856 H 80.8963 2.33385 -3.72059 0
M  V30 857 H 81.5023 0.728906 -4.19007 0
M  V30 858 N 79.8174 1.5752 -0.0501392 0
M  V30 859 C 80.7274 2.14952 0.939827 0
M  V30 860 C 81.7434 1.10706 1.34239 0
M  V30 861 O 82.9194 1.42869 1.41952 0
M  V30 862 C 79.9844 2.68232 2.19665 0
M  V30 863 C 79.0454 3.87272 1.85253 0
M  V30 864 C 78.2784 4.38002 3.04943 0
M  V30 865 O 78.5014 3.87811 4.18281 0
M  V30 866 O 77.4354 5.29602 2.86017 0
M  V30 867 H 81.2614 2.9986 0.481392 0
M  V30 868 H 78.8464 1.4841 0.171699 0
M  V30 869 H 80.7284 3.02475 2.93406 0
M  V30 870 H 79.4034 1.86395 2.64648 0
M  V30 871 H 78.3104 3.5792 1.0883 0
M  V30 872 H 79.6434 4.70336 1.4507 0
M  V30 873 N 81.2955 -0.223234 1.56011 0
M  V30 874 C 82.2425 -1.27664 1.92277 0
M  V30 875 C 83.2125 -1.46659 0.779763 0
M  V30 876 O 84.3975 -1.60256 1.03551 0
M  V30 877 C 81.5375 -2.62234 2.24338 0
M  V30 878 C 80.6505 -2.51051 3.51564 0
M  V30 879 C 79.7855 -3.78133 3.7308 0
M  V30 880 C 78.8245 -3.61665 4.93827 0
M  V30 881 N 77.9615 -4.80693 5.11741 0
M  V30 882 H 82.8015 -0.960358 2.82101 0
M  V30 883 H 80.3385 -0.462901 1.39627 0
M  V30 884 H 82.2965 -3.40596 2.40936 0
M  V30 885 H 80.9265 -2.91961 1.3769 0
M  V30 886 H 79.9785 -1.64132 3.43169 0
M  V30 887 H 81.2905 -2.34803 4.40079 0
M  V30 888 H 80.4445 -4.64938 3.89766 0
M  V30 889 H 79.1835 -3.97304 2.82844 0
M  V30 890 H 78.1885 -2.73244 4.77093 0
M  V30 891 H 79.4135 -3.43966 5.85546 0
M  V30 892 H 77.3595 -5.00181 4.24446 0
M  V30 893 H 77.2765 -4.67165 5.94384 0
M  V30 894 H 78.5445 -5.6893 5.3286 0
M  V30 895 N 82.7736 -1.49793 -0.48987 0
M  V30 896 C 83.7236 -1.63673 -1.5873 0
M  V30 897 C 84.7076 -0.491956 -1.53195 0
M  V30 898 O 85.8996 -0.745461 -1.60536 0
M  V30 899 C 83.0286 -1.71689 -2.97284 0
M  V30 900 C 82.1146 -2.91781 -3.07774 0
M  V30 901 N 82.5056 -4.15714 -2.88124 0
M  V30 902 C 80.8036 -2.89949 -3.38889 0
M  V30 903 C 81.5046 -4.965 -3.03088 0
M  V30 904 N 80.4806 -4.30083 -3.3246 0
M  V30 905 H 84.2826 -2.57204 -1.42208 0
M  V30 906 H 81.7966 -1.46719 -0.69623 0
M  V30 907 H 83.7936 -1.79732 -3.76168 0
M  V30 908 H 82.4536 -0.793024 -3.14867 0
M  V30 909 H 83.4646 -4.45515 -2.64077 0
M  V30 910 H 80.1416 -2.06987 -3.62578 0
M  V30 911 H 81.5316 -6.04991 -2.92294 0
M  V30 912 N 84.2517 0.741722 -1.39055 0
M  V30 913 C 85.1617 1.88621 -1.39496 0
M  V30 914 C 86.1777 1.71557 -0.290578 0
M  V30 915 O 87.3537 1.94275 -0.530954 0
M  V30 916 C 84.4187 3.24134 -1.23037 0
M  V30 917 C 83.4797 3.5364 -2.43387 0
M  V30 918 C 82.7127 4.82687 -2.27703 0
M  V30 919 O 82.9357 5.55922 -1.27696 0
M  V30 920 O 81.8697 5.1194 -3.16545 0
M  V30 921 H 85.6957 1.91203 -2.35956 0
M  V30 922 H 83.2807 0.888625 -1.20099 0
M  V30 923 H 85.1627 4.0513 -1.15964 0
M  V30 924 H 83.8377 3.22337 -0.296691 0
M  V30 925 H 82.7447 2.72758 -2.56035 0
M  V30 926 H 84.0777 3.60209 -3.35425 0
M  V30 927 N 85.7298 1.2412 0.971189 0
M  V30 928 C 86.9758 1.09048 1.71698 0
M  V30 929 C 87.3308 -0.367442 1.88859 0
M  V30 930 O 86.6238 -1.26792 1.43646 0
M  V30 931 C 86.8178 1.75983 3.11071 0
M  V30 932 C 86.6468 3.28133 3.07504 0
M  V30 933 C 85.4168 3.97331 3.1218 0
M  V30 934 C 87.6148 4.24773 2.89952 0
M  V30 935 N 85.5968 5.3639 2.98596 0
M  V30 936 C 86.9678 5.50806 2.84627 0
M  V30 937 C 89.0228 4.15392 2.74506 0
M  V30 938 C 87.7258 6.68533 2.65437 0
M  V30 939 C 89.7518 5.32793 2.56682 0
M  V30 940 C 89.1138 6.57756 2.52063 0
M  V30 941 H 85.2128 0.453632 0.636979 0
M  V30 942 H 87.7968 1.56983 1.15171 0
M  V30 943 H 85.9678 1.30566 3.65796 0
M  V30 944 H 87.6998 1.53803 3.74335 0
M  V30 945 H 84.4548 3.48473 3.20724 0
M  V30 946 H 84.8788 6.09321 2.95054 0
M  V30 947 H 89.5208 3.19543 2.76861 0
M  V30 948 H 87.2388 7.64509 2.61825 0
M  V30 949 H 90.8248 5.27383 2.4568 0
M  V30 950 H 89.7048 7.4707 2.38446 0
M  V30 951 N 87.2079 -1.17134 1.05439 0
M  V30 952 C 88.4539 -1.87733 0.767077 0
M  V30 953 C 88.7869 -1.8098 -0.704253 0
M  V30 954 O 88.0619 -1.21951 -1.5152 0
M  V30 955 C 88.3449 -3.37659 1.25133 0
M  V30 956 C 88.1979 -3.53149 2.78578 0
M  V30 957 C 89.5169 -4.31768 0.852324 0
M  V30 958 H 86.6359 -0.681687 0.280129 0
M  V30 959 H 89.2779 -1.37732 1.30881 0
M  V30 960 H 87.4279 -3.80373 0.790469 0
M  V30 961 H 89.0999 -3.19434 3.32806 0
M  V30 962 H 87.3429 -2.95345 3.17732 0
M  V30 963 H 88.0139 -4.58403 3.07523 0
M  V30 964 H 90.4899 -3.96909 1.24911 0
M  V30 965 H 89.3659 -5.35199 1.21873 0
M  V30 966 H 89.6269 -4.41429 -0.243485 0
M  V30 967 N 88.686 -0.835752 -1.33615 0
M  V30 968 C 89.914 -0.443344 -2.02094 0
M  V30 969 C 90.329 0.954522 -1.62894 0
M  V30 970 O 89.686 1.61982 -0.840723 0
M  V30 971 C 89.737 -0.550775 -3.5728 0
M  V30 972 O 89.458 -1.89356 -3.95065 0
M  V30 973 C 90.959 -0.154919 -4.43029 0
M  V30 974 H 88.179 -0.176359 -0.647409 0
M  V30 975 H 90.723 -1.12746 -1.70612 0
M  V30 976 H 88.878 0.0853997 -3.87306 0
M  V30 977 H 89.292 -1.87687 -4.89769 0
M  V30 978 H 90.766 -0.281144 -5.51284 0
M  V30 979 H 91.243 0.902863 -4.2982 0
M  V30 980 H 91.849 -0.765404 -4.18356 0
M  V30 981 N 90.1641 1.46063 -0.591896 0
M  V30 982 C 91.3921 2.06717 -0.0868936 0
M  V30 983 C 91.8071 1.43916 1.22203 0
M  V30 984 O 91.1641 0.547698 1.74088 0
M  V30 985 C 91.2151 3.6142 0.0758725 0
M  V30 986 O 90.9361 4.21874 -1.18126 0
M  V30 987 C 92.4371 4.39025 0.61416 0
M  V30 988 H 89.6571 0.668162 -0.0616518 0
M  V30 989 H 92.2011 1.8755 -0.815175 0
M  V30 990 H 90.3561 3.79983 0.754413 0
M  V30 991 H 90.7701 5.14861 -1.00092 0
M  V30 992 H 92.2441 5.4783 0.677193 0
M  V30 993 H 92.7211 4.07708 1.63312 0
M  V30 994 H 93.3271 4.2529 -0.0298142 0
M  V30 995 N 91.6422 0.330177 1.54103 0
M  V30 996 C 92.5522 -0.541534 2.28264 0
M  V30 997 C 93.5682 -1.12351 1.32866 0
M  V30 998 O 94.7442 -1.14206 1.65888 0
M  V30 999 C 91.8092 -1.68322 3.03098 0
M  V30 1000 C 90.8702 -1.13238 4.14096 0
M  V30 1001 C 90.1032 -2.21966 4.85352 0
M  V30 1002 O 90.3262 -3.42437 4.56172 0
M  V30 1003 O 89.2602 -1.87013 5.7211 0
M  V30 1004 H 93.0862 0.060938 3.03639 0
M  V30 1005 H 90.6712 0.09565 1.49093 0
M  V30 1006 H 92.5532 -2.34777 3.49939 0
M  V30 1007 H 91.2282 -2.27176 2.30593 0
M  V30 1008 H 90.1352 -0.432736 3.71589 0
M  V30 1009 H 91.4682 -0.588898 4.88664 0
M  V30 1010 N 93.1203 -1.57491 0.0584922 0
M  V30 1011 C 94.0683 -2.13148 -0.931168 0
M  V30 1012 C 95.0623 -1.06507 -1.31729 0
M  V30 1013 O 96.2683 -1.24906 -1.29609 0
M  V30 1014 H 92.6433 -0.68137 -0.31818 0
M  V30 1015 H 94.6143 -2.95187 -0.436707 0
M  V30 1016 C 93.3633 -2.69732 -2.19408 0
M  V30 1017 H 92.6863 -3.51454 -1.90578 0
M  V30 1018 H 94.1263 -3.12287 -2.86798 0
M  V30 1019 C 92.5853 -1.63855 -2.94369 0
M  V30 1020 O 93.1153 -1.05565 -3.87581 0
M  V30 1021 N 91.3213 -1.35202 -2.57233 0
M  V30 1022 H 90.8683 -1.82791 -1.81508 0
M  V30 1023 H 90.8263 -0.645922 -3.07693 0
M  V30 1024 N 94.5984 0.214957 -1.56127 0
M  V30 1025 C 95.8464 0.936518 -1.79091 0
M  V30 1026 C 96.1674 1.84606 -0.628148 0
M  V30 1027 O 95.4374 1.92664 0.35462 0
M  V30 1028 H 94.0174 0.3488 -0.660566 0
M  V30 1029 H 96.6794 0.22523 -1.93594 0
M  V30 1030 H 95.7754 1.53943 -2.71492 0
M  V30 1031 N 96.0765 1.50051 0.48192 0
M  V30 1032 C 97.3255 1.59741 1.23149 0
M  V30 1033 C 97.6385 0.298163 1.93314 0
M  V30 1034 O 98.8445 0.273835 2.70116 0
M  V30 1035 C 97.3005 2.81926 2.23708 0
M  V30 1036 C 96.9085 4.18685 1.59396 0
M  V30 1037 C 98.6525 3.00956 2.99375 0
M  V30 1038 C 96.5595 5.3207 2.58178 0
M  V30 1039 H 95.4895 0.594838 0.46334 0
M  V30 1040 H 98.1405 1.76467 0.503169 0
M  V30 1041 H 96.5225 2.58736 2.99786 0
M  V30 1042 H 97.6965 4.52088 0.891811 0
M  V30 1043 H 96.0115 4.05171 0.960503 0
M  V30 1044 H 98.6085 3.82836 3.73283 0
M  V30 1045 H 98.9515 2.12258 3.58123 0
M  V30 1046 H 99.4845 3.24277 2.30411 0
M  V30 1047 H 96.2235 6.22888 2.04184 0
M  V30 1048 H 95.7435 5.03098 3.26577 0
M  V30 1049 H 97.4225 5.62196 3.20225 0
M  V30 1050 N 97.5546 -0.734337 1.39446 0
M  V30 1051 C 98.8026 -1.49096 1.36436 0
M  V30 1052 C 99.1236 -1.94961 -0.0388255 0
M  V30 1053 O 98.3936 -1.69033 -0.990191 0
M  V30 1054 H 96.9736 -0.5531 0.502085 0
M  V30 1055 H 99.6356 -0.871725 1.74319 0
M  V30 1056 H 98.7316 -2.37276 2.02747 0
M  V30 1057 N 99.0327 -1.24633 -0.964593 0
M  V30 1058 C 100.261 -1.11501 -1.74285 0
M  V30 1059 C 100.676 0.332165 -1.85855 0
M  V30 1060 O 100.033 1.22903 -1.34911 0
M  V30 1061 C 100.084 -1.75258 -3.16175 0
M  V30 1062 O 99.8047 -3.14318 -3.05182 0
M  V30 1063 C 101.306 -1.67776 -4.10324 0
M  V30 1064 H 98.5257 -0.389407 -0.546446 0
M  V30 1065 H 101.07 -1.64801 -1.21083 0
M  V30 1066 H 99.2247 -1.25954 -3.66353 0
M  V30 1067 H 99.6387 -3.4551 -3.94618 0
M  V30 1068 H 101.113 -2.17064 -5.0753 0
M  V30 1069 H 101.59 -0.639584 -4.34518 0
M  V30 1070 H 102.196 -2.16522 -3.66058 0
M  V30 1071 N 100.511 1.16574 -1.06058 0
M  V30 1072 C 101.757 1.87324 -0.777022 0
M  V30 1073 C 102.09 1.81351 0.694645 0
M  V30 1074 O 101.365 1.22753 1.50871 0
M  V30 1075 C 101.648 3.36991 -1.26922 0
M  V30 1076 C 101.501 3.51667 -2.80447 0
M  V30 1077 C 102.82 4.3131 -0.87521 0
M  V30 1078 H 99.9388 0.680191 -0.28374 0
M  V30 1079 H 102.581 1.37036 -1.3161 0
M  V30 1080 H 100.731 3.79949 -0.81063 0
M  V30 1081 H 102.403 3.17664 -3.34495 0
M  V30 1082 H 100.646 2.93656 -3.19294 0
M  V30 1083 H 101.317 4.56766 -3.0995 0
M  V30 1084 H 103.793 3.9624 -1.27014 0
M  V30 1085 H 102.669 5.34545 -1.2471 0
M  V30 1086 H 102.93 4.41552 0.220071 0
M  V30 1087 N 101.989 0.842826 1.3317 0
M  V30 1088 C 103.237 0.439577 1.97262 0
M  V30 1089 C 103.558 -1.00548 1.67078 0
M  V30 1090 O 102.828 -1.70098 0.971779 0
M  V30 1091 H 101.408 0.159558 0.72976 0
M  V30 1092 H 104.07 1.07665 1.62463 0
M  V30 1093 H 103.166 0.574886 3.0676 0
M  V30 1094 N 103.467 -1.45747 0.599634 0
M  V30 1095 C 104.716 -2.01502 0.0893511 0
M  V30 1096 C 105.029 -1.4748 -1.28488 0
M  V30 1097 O 106.235 -1.95161 -1.88745 0
M  V30 1098 C 104.691 -3.59735 0.109082 0
M  V30 1099 C 104.299 -4.22754 1.48267 0
M  V30 1100 C 106.043 -4.23085 -0.346374 0
M  V30 1101 C 103.95 -5.73115 1.45921 0
M  V30 1102 H 102.88 -0.753417 0.0296347 0
M  V30 1103 H 105.531 -1.67303 0.753788 0
M  V30 1104 H 103.913 -3.91087 -0.621854 0
M  V30 1105 H 105.087 -4.02987 2.23468 0
M  V30 1106 H 103.402 -3.71567 1.87955 0
M  V30 1107 H 105.999 -5.33327 -0.38298 0
M  V30 1108 H 106.342 -3.93201 -1.36743 0
M  V30 1109 H 106.875 -3.9642 0.331038 0
M  V30 1110 H 103.614 -6.07685 2.45762 0
M  V30 1111 H 103.134 -5.95097 0.749665 0
M  V30 1112 H 104.813 -6.3616 1.17941 0
M  V30 1113 N 104.945 -0.338344 -1.53925 0
M  V30 1114 C 106.17 0.263987 -2.05713 0
M  V30 1115 C 106.595 1.43847 -1.21201 0
M  V30 1116 O 105.953 1.79904 -0.224535 0
M  V30 1117 C 106.001 0.662 -3.54471 0
M  V30 1118 O 105.105 1.76265 -3.72833 0
M  V30 1119 H 104.446 0.0448722 -0.662482 0
M  V30 1120 H 106.976 -0.491048 -1.9862 0
M  V30 1121 H 106.986 0.940594 -3.9701 0
M  V30 1122 H 105.661 -0.196937 -4.15433 0
M  V30 1123 H 104.238 1.48173 -3.42198 0
M  V30 1124 N 106.423 1.57458 -0.0668435 0
M  V30 1125 C 107.371 2.13639 0.919851 0
M  V30 1126 C 108.365 1.07204 1.31163 0
M  V30 1127 O 109.571 1.25591 1.28945 0
M  V30 1128 H 105.946 0.683048 0.314562 0
M  V30 1129 H 107.917 2.95415 0.421047 0
M  V30 1130 C 106.666 2.70892 2.17975 0
M  V30 1131 H 105.989 3.5246 1.88711 0
M  V30 1132 H 107.429 3.13803 2.85138 0
M  V30 1133 C 105.888 1.65414 2.93496 0
M  V30 1134 O 106.418 1.07619 3.87015 0
M  V30 1135 N 104.624 1.36564 2.56512 0
M  V30 1136 H 104.171 1.83751 1.80536 0
M  V30 1137 H 104.129 0.66223 3.07347 0
M  V30 1138 N 107.901 -0.206675 1.56239 0
M  V30 1139 C 109.148 -0.928842 1.79941 0
M  V30 1140 C 109.476 -1.83734 0.638131 0
M  V30 1141 O 108.731 -1.92039 -0.376746 0
M  V30 1142 C 109.03 -1.78675 3.09532 0
M  V30 1143 C 108.696 -1.03022 4.38973 0
M  V30 1144 C 107.358 -0.821302 4.74139 0
M  V30 1145 C 109.71 -0.497081 5.18824 0
M  V30 1146 C 107.038 -0.0675719 5.86661 0
M  V30 1147 C 109.39 0.24338 6.32132 0
M  V30 1148 C 108.054 0.463422 6.65889 0
M  V30 1149 H 107.324 -0.339887 0.658451 0
M  V30 1150 H 109.971 -0.195977 1.90495 0
M  V30 1151 H 108.276 -2.58794 2.94165 0
M  V30 1152 H 109.973 -2.34792 3.25075 0
M  V30 1153 H 106.563 -1.20306 4.11369 0
M  V30 1154 H 110.747 -0.645921 4.92079 0
M  V30 1155 H 106.003 0.112995 6.11296 0
M  V30 1156 H 110.177 0.66393 6.93228 0
M  V30 1157 H 107.804 1.04938 7.52922 0
M  V30 1158 N 109.379 -1.50304 -0.473955 0
M  V30 1159 C 110.342 -1.6841 -1.55469 0
M  V30 1160 C 111.342 -0.554905 -1.50922 0
M  V30 1161 O 112.532 -0.821882 -1.53593 0
M  V30 1162 C 109.664 -1.70667 -2.95102 0
M  V30 1163 H 110.857 -2.64828 -1.40733 0
M  V30 1164 H 108.41 -1.39742 -0.700132 0
M  V30 1165 H 109.145 -0.75932 -3.15285 0
M  V30 1166 H 108.93 -2.52698 -2.9981 0
M  V30 1167 H 110.42 -1.8664 -3.73571 0
M  V30 1168 N 110.857 0.726932 -1.39834 0
M  V30 1169 C 111.789 1.85147 -1.35104 0
M  V30 1170 C 112.802 1.60736 -0.258392 0
M  V30 1171 O 113.991 1.70821 -0.517931 0
M  V30 1172 C 111.091 3.21332 -1.07697 0
M  V30 1173 C 110.264 3.73033 -2.28396 0
M  V30 1174 C 109.323 4.87802 -1.97322 0
M  V30 1175 O 108.349 5.01043 -2.70083 0
M  V30 1176 N 109.551 5.72768 -0.944273 0
M  V30 1177 H 112.316 1.89706 -2.32017 0
M  V30 1178 H 109.877 0.908006 -1.3404 0
M  V30 1179 H 111.869 3.95691 -0.849144 0
M  V30 1180 H 110.439 3.11992 -0.194909 0
M  V30 1181 H 109.659 2.89934 -2.6708 0
M  V30 1182 H 110.947 4.0431 -3.08887 0
M  V30 1183 H 110.345 5.64669 -0.341427 0
M  V30 1184 H 108.902 6.4716 -0.776346 0
M  V30 1185 N 112.336 1.25143 0.95797 0
M  V30 1186 C 113.246 1.06968 2.08794 0
M  V30 1187 C 114.262 0.00773911 1.73998 0
M  V30 1188 O 115.438 0.207972 2.00323 0
M  V30 1189 C 112.503 0.68691 3.39827 0
M  V30 1190 C 111.564 1.82641 3.88511 0
M  V30 1191 C 110.797 1.46181 5.1329 0
M  V30 1192 O 111.02 0.355971 5.69288 0
M  V30 1193 O 109.954 2.29085 5.566 0
M  V30 1194 H 113.78 2.01723 2.27027 0
M  V30 1195 H 111.365 1.04051 1.07209 0
M  V30 1196 H 113.247 0.485417 4.18595 0
M  V30 1197 H 111.922 -0.231417 3.22872 0
M  V30 1198 H 110.829 2.08274 3.10762 0
M  V30 1199 H 112.162 2.72386 4.09959 0
M  V30 1200 N 113.814 -1.1601 1.06675 0
M  V30 1201 C 114.777 -2.18724 0.685001 0
M  V30 1202 C 115.777 -1.58496 -0.271246 0
M  V30 1203 O 116.967 -1.74119 -0.0531156 0
M  V30 1204 C 114.099 -3.40899 0.00853648 0
M  V30 1205 H 115.292 -2.54011 1.59431 0
M  V30 1206 H 112.845 -1.30352 0.862441 0
M  V30 1207 H 113.58 -3.11173 -0.913337 0
M  V30 1208 H 113.365 -3.8587 0.696204 0
M  V30 1209 H 114.855 -4.16886 -0.24414 0
M  V30 1210 N 115.292 -0.849877 -1.32721 0
M  V30 1211 C 116.222 -0.306308 -2.31482 0
M  V30 1212 C 117.203 0.591952 -1.59468 0
M  V30 1213 O 118.388 0.513199 -1.87296 0
M  V30 1214 C 115.518 0.510204 -3.43532 0
M  V30 1215 C 114.472 -0.293209 -4.26994 0
M  V30 1216 C 113.798 0.647743 -5.30762 0
M  V30 1217 C 115.098 -1.51634 -4.99804 0
M  V30 1218 H 116.792 -1.13153 -2.77195 0
M  V30 1219 H 114.338 -0.545553 -1.33266 0
M  V30 1220 H 116.291 0.900856 -4.11658 0
M  V30 1221 H 115.015 1.36874 -2.96535 0
M  V30 1222 H 113.674 -0.665555 -3.60508 0
M  V30 1223 H 113.322 1.50299 -4.8002 0
M  V30 1224 H 113.022 0.11422 -5.87489 0
M  V30 1225 H 114.546 1.03567 -6.01753 0
M  V30 1226 H 115.96 -1.19824 -5.60638 0
M  V30 1227 H 114.357 -1.98745 -5.66234 0
M  V30 1228 H 115.427 -2.28018 -4.27943 0
M  V30 1229 N 116.77 1.45427 -0.607355 0
M  V30 1230 C 118.018 2.01841 -0.102253 0
M  V30 1231 C 118.339 1.47832 1.27164 0
M  V30 1232 O 117.609 0.672497 1.83995 0
M  V30 1233 H 116.189 0.746188 -0.0348101 0
M  V30 1234 H 118.851 1.78229 -0.7887 0
M  V30 1235 H 117.947 3.12057 -0.0518585 0
M  V30 1236 N 118.248 0.346503 1.53744 0
M  V30 1237 C 119.525 -0.304532 1.93215 0
M  V30 1238 C 119.905 -1.67993 1.27834 0
M  V30 1239 O 119.253 -2.24411 0.430352 0
M  V30 1240 C 119.463 -0.373852 3.46992 0
M  V30 1241 C 120.811 -0.62329 4.2 0
M  V30 1242 O 121.835 -0.455847 3.53271 0
M  V30 1243 O 120.694 -0.947879 5.38217 0
M  V30 1244 H 117.788 -0.178318 0.807547 0
M  V30 1245 H 120.334 0.397895 1.64969 0
M  V30 1246 H 119.106 0.591224 3.86808 0
M  V30 1247 H 118.729 -1.12294 3.81413 0
M  V30 1248 N 119.726 -1.57421 0.075193 0
M  V30 1249 C 120.972 -1.93905 -0.594025 0
M  V30 1250 C 121.305 -0.955701 -1.69056 0
M  V30 1251 O 120.58 0.0145373 -1.94495 0
M  V30 1252 C 120.863 -3.40638 -1.1678 0
M  V30 1253 C 120.716 -4.49733 -0.0776792 0
M  V30 1254 C 122.035 -3.88259 -2.07228 0
M  V30 1255 H 119.154 -0.705105 -0.214466 0
M  V30 1256 H 121.796 -1.8947 0.141854 0
M  V30 1257 H 119.946 -3.44549 -1.79494 0
M  V30 1258 H 121.618 -4.57942 0.555573 0
M  V30 1259 H 119.861 -4.29751 0.591286 0
M  V30 1260 H 120.532 -5.49549 -0.519603 0
M  V30 1261 H 123.008 -3.86376 -1.54445 0
M  V30 1262 H 121.884 -4.91533 -2.44308 0
M  V30 1263 H 122.145 -3.26396 -2.98191 0
M  V30 1264 N 121.204 0.198386 -1.56346 0
M  V30 1265 C 122.45 0.920648 -1.80698 0
M  V30 1266 C 122.783 1.83045 -0.648697 0
M  V30 1267 O 122.058 1.91308 0.350925 0
M  V30 1268 C 122.341 1.73971 -3.15287 0
M  V30 1269 C 122.194 0.85485 -4.41602 0
M  V30 1270 C 123.513 2.71296 -3.46535 0
M  V30 1271 H 120.632 0.333261 -0.657348 0
M  V30 1272 H 123.274 0.188198 -1.89066 0
M  V30 1273 H 121.424 2.36416 -3.08285 0
M  V30 1274 H 123.096 0.245362 -4.60647 0
M  V30 1275 H 121.339 0.161398 -4.335 0
M  V30 1276 H 122.01 1.46286 -5.32264 0
M  V30 1277 H 124.486 2.18983 -3.53816 0
M  V30 1278 H 123.362 3.2569 -4.41834 0
M  V30 1279 H 123.623 3.5018 -2.69864 0
M  V30 1280 N 122.682 1.50554 0.465978 0
M  V30 1281 C 123.912 1.65323 1.23903 0
M  V30 1282 C 124.32 0.338051 1.86155 0
M  V30 1283 O 123.663 -0.690518 1.70228 0
M  V30 1284 C 123.725 2.69048 2.3844 0
M  V30 1285 C 123.389 4.12462 1.96784 0
M  V30 1286 C 124.386 4.98168 1.48745 0
M  V30 1287 C 122.071 4.58407 2.05349 0
M  V30 1288 C 124.065 6.27868 1.0982 0
M  V30 1289 C 121.752 5.88112 1.66035 0
M  V30 1290 C 122.75 6.72668 1.18349 0
M  V30 1291 O 122.438 7.99951 0.795825 0
M  V30 1292 H 122.17 0.558629 0.38067 0
M  V30 1293 H 124.724 1.97561 0.562022 0
M  V30 1294 H 122.954 2.32062 3.09328 0
M  V30 1295 H 124.643 2.72985 3.0039 0
M  V30 1296 H 125.409 4.63885 1.41546 0
M  V30 1297 H 121.288 3.92735 2.41414 0
M  V30 1298 H 124.832 6.93819 0.725293 0
M  V30 1299 H 120.729 6.21914 1.72895 0
M  V30 1300 H 121.497 8.13265 0.924222 0
M  V30 1301 N 124.16 -0.719506 1.40217 0
M  V30 1302 C 125.4 -1.49181 1.39729 0
M  V30 1303 C 125.764 -1.92 -0.00250614 0
M  V30 1304 O 126.965 -2.68473 -0.132479 0
M  V30 1305 C 125.236 -2.68767 2.35582 0
M  V30 1306 S 126.795 -3.58224 2.53418 0
M  V30 1307 H 123.613 -0.510091 0.495307 0
M  V30 1308 H 126.215 -0.841724 1.76452 0
M  V30 1309 H 124.919 -2.35475 3.36124 0
M  V30 1310 H 124.45 -3.38691 2.0013 0
M  V30 1311 H 126.465 -4.63033 1.78367 0
M  V30 1312 N 125.638 -1.25649 -0.95132 0
M  V30 1313 C 126.863 -1.13443 -1.73624 0
M  V30 1314 C 127.288 0.307565 -1.85568 0
M  V30 1315 O 126.646 1.22282 -1.33854 0
M  V30 1316 C 126.694 -1.79723 -3.12621 0
M  V30 1317 O 125.798 -1.07912 -3.98031 0
M  V30 1318 H 125.139 -0.395872 -0.533086 0
M  V30 1319 H 127.669 -1.66276 -1.1922 0
M  V30 1320 H 127.679 -1.86141 -3.63064 0
M  V30 1321 H 126.354 -2.84633 -3.03244 0
M  V30 1322 H 124.931 -1.09398 -3.56492 0
M  V30 1323 N 127.117 1.15442 -1.07289 0
M  V30 1324 C 128.047 2.22312 -0.714107 0
M  V30 1325 C 129.028 1.67467 0.298155 0
M  V30 1326 O 130.213 1.93445 0.171048 0
M  V30 1327 C 127.343 3.47124 -0.110448 0
M  V30 1328 C 126.297 4.14926 -1.04979 0
M  V30 1329 C 125.623 5.33807 -0.308924 0
M  V30 1330 C 126.923 4.64762 -2.38314 0
M  V30 1331 H 128.617 2.5258 -1.6076 0
M  V30 1332 H 126.163 1.21404 -0.77441 0
M  V30 1333 H 128.116 4.21124 0.152482 0
M  V30 1334 H 126.84 3.16187 0.81812 0
M  V30 1335 H 125.499 3.42866 -1.29764 0
M  V30 1336 H 125.147 4.99126 0.623084 0
M  V30 1337 H 124.847 5.80113 -0.935036 0
M  V30 1338 H 126.371 6.10576 -0.0537771 0
M  V30 1339 H 127.785 5.30292 -2.1786 0
M  V30 1340 H 126.182 5.21728 -2.96514 0
M  V30 1341 H 127.252 3.80434 -3.00663 0
M  V30 1342 N 128.595 0.856903 1.32268 0
M  V30 1343 C 130.006 0.515711 1.79436 0
M  V30 1344 C 130.357 -0.966586 1.70738 0
M  V30 1345 O 129.482 -1.75409 1.26731 0
M  V30 1346 C 130.077 0.929335 3.25805 0
M  V30 1347 C 128.636 0.640006 3.70919 0
M  V30 1348 C 127.783 1.12784 2.53328 0
M  V30 1349 H 130.734 1.04389 1.19535 0
M  V30 1350 H 130.755 0.246633 3.797 0
M  V30 1351 H 130.267 2.00821 3.32103 0
M  V30 1352 H 128.368 -0.428051 3.70133 0
M  V30 1353 H 128.481 1.20788 4.63624 0
M  V30 1354 H 126.845 0.548033 2.48734 0
M  V30 1355 H 127.628 2.21387 2.62379 0
M  V30 1356 N 130.073 -1.45103 0.615059 0
M  V30 1357 C 130.983 -2.34382 -0.101034 0
M  V30 1358 C 131.999 -1.51681 -0.852585 0
M  V30 1359 O 133.175 -1.8446 -0.808484 0
M  V30 1360 C 130.24 -3.29417 -1.08099 0
M  V30 1361 C 129.301 -4.28025 -0.330577 0
M  V30 1362 C 128.534 -5.1852 -1.26385 0
M  V30 1363 O 128.757 -5.12598 -2.50198 0
M  V30 1364 O 127.691 -5.97122 -0.756866 0
M  V30 1365 H 131.517 -2.97033 0.632855 0
M  V30 1366 H 129.102 -1.4461 0.375293 0
M  V30 1367 H 130.984 -3.87958 -1.6452 0
M  V30 1368 H 129.659 -2.69321 -1.79577 0
M  V30 1369 H 128.566 -3.73078 0.276283 0
M  V30 1370 H 129.899 -4.90997 0.343866 0
M  V30 1371 N 131.551 -0.354651 -1.53558 0
M  V30 1372 C 132.797 0.238797 -2.01389 0
M  V30 1373 C 133.13 1.49309 -1.2418 0
M  V30 1374 O 132.405 1.91638 -0.332457 0
M  V30 1375 C 132.688 0.541771 -3.56001 0
M  V30 1376 C 132.541 -0.725388 -4.43912 0
M  V30 1377 C 133.86 1.34685 -4.18984 0
M  V30 1378 H 130.979 0.0853177 -0.732045 0
M  V30 1379 H 133.621 -0.477384 -1.83905 0
M  V30 1380 H 131.771 1.15189 -3.71031 0
M  V30 1381 H 133.443 -1.36313 -4.407 0
M  V30 1382 H 131.686 -1.34801 -4.12324 0
M  V30 1383 H 132.357 -0.468505 -5.50008 0
M  V30 1384 H 134.833 0.830837 -4.07721 0
M  V30 1385 H 133.709 1.52759 -5.27215 0
M  V30 1386 H 133.97 2.35221 -3.74331 0
M  V30 1387 N 133.029 1.57378 -0.0835403 0
M  V30 1388 C 134.277 1.93547 0.581718 0
M  V30 1389 C 134.598 0.96524 1.69435 0
M  V30 1390 O 133.868 0.0153369 1.95894 0
M  V30 1391 H 132.448 0.714521 0.217874 0
M  V30 1392 H 135.11 1.94366 -0.144158 0
M  V30 1393 H 134.206 2.95665 0.999423 0
M  V30 1394 N 134.507 -0.190092 1.56449 0
M  V30 1395 C 135.735 -0.925772 1.85033 0
M  V30 1396 C 136.15 -1.76638 0.666658 0
M  V30 1397 O 135.507 -1.78822 -0.364565 0
M  V30 1398 C 135.558 -1.81786 3.12468 0
M  V30 1399 O 135.279 -1.01118 4.26271 0
M  V30 1400 C 136.78 -2.6648 3.54265 0
M  V30 1401 H 134 -0.269872 0.614337 0
M  V30 1402 H 136.544 -0.195837 2.0356 0
M  V30 1403 H 134.699 -2.50136 2.95822 0
M  V30 1404 H 135.113 -1.61956 4.98869 0
M  V30 1405 H 136.587 -3.24722 4.46385 0
M  V30 1406 H 137.064 -3.40434 2.77491 0
M  V30 1407 H 137.67 -2.03493 3.73458 0
M  V30 1408 N 135.985 -1.50799 -0.457987 0
M  V30 1409 C 136.932 -1.70617 -1.5543 0
M  V30 1410 C 137.902 -0.547562 -1.56815 0
M  V30 1411 O 139.087 -0.779647 -1.74144 0
M  V30 1412 C 136.227 -1.81831 -2.93311 0
M  V30 1413 C 135.34 -3.09278 -3.01615 0
M  V30 1414 C 134.475 -3.11209 -4.30491 0
M  V30 1415 C 133.514 -4.33055 -4.32585 0
M  V30 1416 N 132.651 -4.32652 -5.52952 0
M  V30 1417 H 137.491 -2.64207 -1.37836 0
M  V30 1418 H 135.028 -1.30959 -0.669937 0
M  V30 1419 H 136.986 -1.86314 -3.73287 0
M  V30 1420 H 135.616 -0.916685 -3.0951 0
M  V30 1421 H 134.668 -3.14203 -2.1443 0
M  V30 1422 H 135.98 -3.99233 -2.99022 0
M  V30 1423 H 135.134 -3.14494 -5.18824 0
M  V30 1424 H 133.873 -2.19106 -4.35711 0
M  V30 1425 H 132.878 -4.29969 -3.42647 0
M  V30 1426 H 134.103 -5.264 -4.29046 0
M  V30 1427 H 132.049 -3.43409 -5.58933 0
M  V30 1428 H 131.966 -5.16392 -5.52155 0
M  V30 1429 H 133.234 -4.40101 -6.43375 0
M  V30 1430 N 137.463 0.71206 -1.40597 0
M  V30 1431 C 138.393 1.83889 -1.43899 0
M  V30 1432 C 139.374 1.67442 -0.299504 0
M  V30 1433 O 140.559 1.87421 -0.508624 0
M  V30 1434 C 137.689 3.21877 -1.30431 0
M  V30 1435 C 136.643 3.53002 -2.42019 0
M  V30 1436 C 135.969 4.90172 -2.13626 0
M  V30 1437 C 137.269 3.53643 -3.84362 0
M  V30 1438 H 138.963 1.81383 -2.38203 0
M  V30 1439 H 136.509 0.871237 -1.14654 0
M  V30 1440 H 138.462 4.00404 -1.31357 0
M  V30 1441 H 137.186 3.24968 -0.326049 0
M  V30 1442 H 135.845 2.76818 -2.40349 0
M  V30 1443 H 135.493 4.89869 -1.14182 0
M  V30 1444 H 135.193 5.11962 -2.88389 0
M  V30 1445 H 136.717 5.71028 -2.1624 0
M  V30 1446 H 138.131 4.22203 -3.87837 0
M  V30 1447 H 136.528 3.86961 -4.58673 0
M  V30 1448 H 137.598 2.52954 -4.13693 0
M  V30 1449 N 138.941 1.26152 0.944643 0
M  V30 1450 C 139.889 1.07215 2.06417 0
M  V30 1451 C 140.883 9.2007e-05 1.694 0
M  V30 1452 O 142.089 0.1565 1.79318 0
M  V30 1453 H 138.464 0.329837 0.675805 0
M  V30 1454 H 140.435 2.02099 2.19541 0
M  V30 1455 C 139.184 0.718197 3.40202 0
M  V30 1456 H 138.507 1.53497 3.69159 0
M  V30 1457 H 139.947 0.625459 4.19361 0
M  V30 1458 C 138.406 -0.576435 3.31932 0
M  V30 1459 O 138.936 -1.61574 3.67773 0
M  V30 1460 N 137.142 -0.565781 2.85039 0
M  V30 1461 H 136.689 0.280367 2.5607 0
M  V30 1462 H 136.647 -1.43213 2.79888 0
M  V30 1463 N 140.419 -1.14872 1.07899 0
M  V30 1464 C 141.366 -2.19791 0.704319 0
M  V30 1465 C 142.336 -1.63238 -0.306987 0
M  V30 1466 O 143.521 -1.8983 -0.192171 0
M  V30 1467 C 140.661 -3.44911 0.114244 0
M  V30 1468 C 139.774 -4.15637 1.1777 0
M  V30 1469 C 138.909 -5.28324 0.552037 0
M  V30 1470 C 137.948 -5.90875 1.59789 0
M  V30 1471 N 137.085 -6.95022 0.994404 0
M  V30 1472 H 141.925 -2.5119 1.60336 0
M  V30 1473 H 139.462 -1.23356 0.801352 0
M  V30 1474 H 141.42 -4.16477 -0.245544 0
M  V30 1475 H 140.05 -3.14011 -0.74813 0
M  V30 1476 H 139.102 -3.42512 1.65499 0
M  V30 1477 H 140.414 -4.5823 1.97046 0
M  V30 1478 H 139.568 -6.06538 0.1402 0
M  V30 1479 H 138.307 -4.86939 -0.272431 0
M  V30 1480 H 137.312 -5.11369 2.01945 0
M  V30 1481 H 138.537 -6.34337 2.42474 0
M  V30 1482 H 136.483 -6.55722 0.190939 0
M  V30 1483 H 136.4 -7.36073 1.72432 0
M  V30 1484 H 137.668 -7.77123 0.608253 0
M  V30 1485 N 141.898 -0.863906 -1.31812 0
M  V30 1486 C 142.83 -0.272485 -2.27575 0
M  V30 1487 C 143.843 0.56104 -1.52827 0
M  V30 1488 O 145.032 0.384021 -1.7432 0
M  V30 1489 C 142.132 0.63283 -3.32939 0
M  V30 1490 C 141.305 -0.166902 -4.37081 0
M  V30 1491 C 140.364 0.665608 -5.21973 0
M  V30 1492 O 139.39 0.0958091 -5.69119 0
M  V30 1493 N 140.592 1.9787 -5.45736 0
M  V30 1494 H 143.357 -1.0954 -2.78964 0
M  V30 1495 H 140.918 -0.724791 -1.4477 0
M  V30 1496 H 142.91 1.19532 -3.86645 0
M  V30 1497 H 141.48 1.35642 -2.81638 0
M  V30 1498 H 140.7 -0.910838 -3.83533 0
M  V30 1499 H 141.988 -0.715874 -5.03739 0
M  V30 1500 H 141.386 2.46484 -5.09178 0
M  V30 1501 H 139.943 2.48911 -6.024 0
M  V30 1502 N 143.376 1.44774 -0.622745 0
M  V30 1503 C 144.653 1.95522 -0.0551974 0
M  V30 1504 C 145.033 1.5649 1.41683 0
M  V30 1505 O 144.381 0.834848 2.12703 0
M  V30 1506 C 144.591 3.4796 -0.269242 0
M  V30 1507 C 145.939 4.24306 -0.158014 0
M  V30 1508 O 146.963 3.55637 -0.200162 0
M  V30 1509 O 145.822 5.46471 -0.0558693 0
M  V30 1510 H 142.916 0.826556 0.0271015 0
M  V30 1511 H 145.462 1.54866 -0.693864 0
M  V30 1512 H 144.234 3.6939 -1.29099 0
M  V30 1513 H 143.857 3.95543 0.403966 0
M  V30 1514 N 144.854 0.36279 1.53368 0
M  V30 1515 C 145.764 -0.492994 2.29362 0
M  V30 1516 C 146.78 -1.09507 1.35219 0
M  V30 1517 O 147.956 -1.10662 1.68273 0
M  V30 1518 C 145.021 -1.61855 3.066 0
M  V30 1519 C 144.082 -1.04429 4.16405 0
M  V30 1520 C 143.315 -2.11621 4.89951 0
M  V30 1521 O 143.538 -3.32684 4.63333 0
M  V30 1522 O 142.472 -1.74835 5.75948 0
M  V30 1523 H 146.298 0.125331 3.03441 0
M  V30 1524 H 143.883 0.127253 1.48857 0
M  V30 1525 H 145.765 -2.27302 3.54841 0
M  V30 1526 H 144.44 -2.22233 2.3536 0
M  V30 1527 H 143.347 -0.353819 3.72423 0
M  V30 1528 H 144.68 -0.485113 4.89804 0
M  V30 1529 N 146.332 -1.57332 0.0918853 0
M  V30 1530 C 147.579 -1.94236 -0.572577 0
M  V30 1531 C 147.907 -0.973398 -1.6839 0
M  V30 1532 O 147.162 0.00756912 -1.95699 0
M  V30 1533 C 147.461 -3.37689 -1.17051 0
M  V30 1534 C 147.127 -4.50527 -0.183304 0
M  V30 1535 C 145.789 -4.81119 0.0882276 0
M  V30 1536 C 148.141 -5.18883 0.49095 0
M  V30 1537 C 145.469 -5.77395 1.04076 0
M  V30 1538 C 147.821 -6.1618 1.43193 0
M  V30 1539 C 146.485 -6.45179 1.71173 0
M  V30 1540 H 145.755 -0.710762 -0.209521 0
M  V30 1541 H 148.402 -1.9077 0.167036 0
M  V30 1542 H 146.707 -3.37718 -1.9863 0
M  V30 1543 H 148.404 -3.63543 -1.69227 0
M  V30 1544 H 144.994 -4.26681 -0.405124 0
M  V30 1545 H 149.178 -4.95427 0.294312 0
M  V30 1546 H 144.434 -5.98179 1.26457 0
M  V30 1547 H 148.608 -6.68243 1.96023 0
M  V30 1548 H 146.235 -7.1959 2.4514 0
M  V30 1549 N 147.81 0.181792 -1.56548 0
M  V30 1550 C 149.058 0.89832 -1.81038 0
M  V30 1551 C 149.379 1.83232 -0.667164 0
M  V30 1552 O 148.649 1.93372 0.313673 0
M  V30 1553 H 147.229 0.33471 -0.667816 0
M  V30 1554 H 149.891 0.184116 -1.94028 0
M  V30 1555 H 148.987 1.4815 -2.74696 0
M  V30 1556 N 149.288 1.51039 0.449983 0
M  V30 1557 C 150.251 1.70863 1.5277 0
M  V30 1558 C 151.251 0.578846 1.5002 0
M  V30 1559 O 152.441 0.846213 1.52266 0
M  V30 1560 C 149.573 1.75341 2.9235 0
M  V30 1561 H 150.766 2.67034 1.36502 0
M  V30 1562 H 148.319 1.40838 0.677812 0
M  V30 1563 H 149.054 0.809383 3.14037 0
M  V30 1564 H 148.839 2.57436 2.95752 0
M  V30 1565 H 150.329 1.92559 3.70555 0
M  V30 1566 N 150.766 -0.704594 1.40972 0
M  V30 1567 C 151.696 -1.83124 1.44872 0
M  V30 1568 C 152.677 -1.67281 0.30838 0
M  V30 1569 O 153.862 -1.87149 0.518556 0
M  V30 1570 C 150.992 -3.21181 1.32136 0
M  V30 1571 C 149.946 -3.51714 2.43888 0
M  V30 1572 C 149.272 -4.89032 2.16222 0
M  V30 1573 C 150.572 -3.516 3.86232 0
M  V30 1574 H 152.266 -1.80117 2.39161 0
M  V30 1575 H 149.812 -0.865145 1.15114 0
M  V30 1576 H 151.765 -3.99702 1.33479 0
M  V30 1577 H 150.489 -3.24791 0.343279 0
M  V30 1578 H 149.148 -2.75539 2.41813 0
M  V30 1579 H 148.796 -4.89256 1.16778 0
M  V30 1580 H 148.496 -5.10426 2.911 0
M  V30 1581 H 150.02 -5.69873 2.19265 0
M  V30 1582 H 151.434 -4.2014 3.9007 0
M  V30 1583 H 149.831 -3.84523 4.60719 0
M  V30 1584 H 150.901 -2.50757 4.15029 0
M  V30 1585 N 152.244 -1.26651 -0.937939 0
M  V30 1586 C 153.154 -1.10276 -2.07066 0
M  V30 1587 C 154.17 -0.0354197 -1.73964 0
M  V30 1588 O 155.346 -0.239816 -1.99967 0
M  V30 1589 C 152.411 -0.740887 -3.38691 0
M  V30 1590 C 151.472 -1.88799 -3.85556 0
M  V30 1591 C 150.705 -1.54329 -5.10899 0
M  V30 1592 O 150.928 -0.446494 -5.6865 0
M  V30 1593 O 149.862 -2.37911 -5.52885 0
M  V30 1594 H 153.688 -2.05309 -2.23789 0
M  V30 1595 H 151.273 -1.05743 -1.0554 0
M  V30 1596 H 153.155 -0.55195 -4.1777 0
M  V30 1597 H 151.83 0.180022 -3.23199 0
M  V30 1598 H 150.737 -2.13191 -3.07409 0
M  V30 1599 H 152.07 -2.78874 -4.05574 0
M  V30 1600 N 153.722 1.14298 -1.08507 0
M  V30 1601 C 154.947 1.8976 -0.837001 0
M  V30 1602 C 155.372 1.78097 0.605228 0
M  V30 1603 O 154.73 1.12188 1.4242 0
M  V30 1604 C 154.778 3.37685 -1.26495 0
M  V30 1605 O 153.882 4.10281 -0.417514 0
M  V30 1606 H 153.223 0.590365 -0.303917 0
M  V30 1607 H 155.753 1.44672 -1.44676 0
M  V30 1608 H 155.763 3.88501 -1.24625 0
M  V30 1609 H 154.438 3.45492 -2.31534 0
M  V30 1610 H 153.015 3.69536 -0.499722 0
M  V30 1611 N 155.201 0.870884 1.31352 0
M  V30 1612 C 156.447 0.482987 1.96965 0
M  V30 1613 C 156.78 -0.962462 1.68672 0
M  V30 1614 O 156.055 -1.6779 0.98371 0
M  V30 1615 C 156.338 0.741752 3.52378 0
M  V30 1616 C 156.191 2.2368 3.9024 0
M  V30 1617 C 157.51 0.208838 4.39604 0
M  V30 1618 H 154.629 0.176955 0.715441 0
M  V30 1619 H 157.271 1.09229 1.55464 0
M  V30 1620 H 155.421 0.223149 3.87859 0
M  V30 1621 H 157.093 2.82273 3.64856 0
M  V30 1622 H 155.336 2.70901 3.38814 0
M  V30 1623 H 156.007 2.3685 4.98604 0
M  V30 1624 H 158.483 0.652529 4.10952 0
M  V30 1625 H 157.359 0.419336 5.47296 0
M  V30 1626 H 157.62 -0.889275 4.33064 0
M  V30 1627 N 156.679 -1.44442 0.630414 0
M  V30 1628 C 157.626 -2.30678 -0.0749355 0
M  V30 1629 C 158.596 -1.4344 -0.837502 0
M  V30 1630 O 159.781 -1.72343 -0.818684 0
M  V30 1631 C 156.921 -3.28706 -1.05103 0
M  V30 1632 C 156.034 -4.31046 -0.286954 0
M  V30 1633 C 155.169 -5.16167 -1.2548 0
M  V30 1634 C 154.208 -6.10216 -0.479843 0
M  V30 1635 N 153.345 -6.88039 -1.39811 0
M  V30 1636 H 158.185 -2.90454 0.666386 0
M  V30 1637 H 155.722 -1.43107 0.340404 0
M  V30 1638 H 157.68 -3.84027 -1.63031 0
M  V30 1639 H 156.31 -2.70632 -1.75949 0
M  V30 1640 H 155.362 -3.78203 0.408243 0
M  V30 1641 H 156.674 -4.97794 0.316657 0
M  V30 1642 H 155.828 -5.76002 -1.90544 0
M  V30 1643 H 154.567 -4.49491 -1.89233 0
M  V30 1644 H 153.572 -5.49491 0.184295 0
M  V30 1645 H 154.797 -6.78928 0.152965 0
M  V30 1646 H 152.743 -6.24032 -2.02287 0
M  V30 1647 H 152.66 -7.51223 -0.848508 0
M  V30 1648 H 153.928 -7.52397 -2.03762 0
M  V30 1649 N 158.157 -0.370918 -1.53173 0
M  V30 1650 C 159.12 0.460778 -2.24521 0
M  V30 1651 C 160.12 1.00536 -1.25496 0
M  V30 1652 O 161.31 0.890266 -1.49733 0
M  V30 1653 C 158.442 1.64457 -2.98608 0
M  V30 1654 H 159.635 -0.163613 -2.99453 0
M  V30 1655 H 157.188 -0.122699 -1.55818 0
M  V30 1656 H 157.923 2.30691 -2.2793 0
M  V30 1657 H 157.708 1.26099 -3.7127 0
M  V30 1658 H 159.198 2.23384 -3.5283 0
M  V30 1659 N 159.635 1.57281 -0.100228 0
M  V30 1660 C 160.598 2.13158 0.842398 0
M  V30 1661 C 161.598 1.06202 1.20738 0
M  V30 1662 O 162.788 1.32066 1.13597 0
M  V30 1663 C 159.92 2.65639 2.13655 0
M  V30 1664 H 161.113 2.97766 0.357114 0
M  V30 1665 H 158.666 1.5559 0.148823 0
M  V30 1666 H 159.401 1.84566 2.66657 0
M  V30 1667 H 159.186 3.43844 1.88451 0
M  V30 1668 H 160.676 3.08846 2.81077 0
M  V30 1669 N 161.113 -0.173488 1.56642 0
M  V30 1670 C 162.338 -0.910149 1.86363 0
M  V30 1671 C 162.763 -1.75132 0.686318 0
M  V30 1672 O 162.121 -1.77595 -0.364643 0
M  V30 1673 C 162.169 -1.76447 3.14482 0
M  V30 1674 O 161.273 -2.86584 2.96553 0
M  V30 1675 H 160.614 -0.255086 0.613047 0
M  V30 1676 H 163.144 -0.172283 2.03873 0
M  V30 1677 H 163.154 -2.16483 3.45831 0
M  V30 1678 H 161.829 -1.14658 3.99783 0
M  V30 1679 H 160.406 -2.50146 2.76553 0
M  V30 1680 N 162.591 -1.51276 -0.441967 0
M  V30 1681 C 163.501 -1.75092 -1.56141 0
M  V30 1682 C 164.517 -0.634963 -1.62001 0
M  V30 1683 O 165.693 -0.916686 -1.79329 0
M  V30 1684 C 162.758 -1.86666 -2.92158 0
M  V30 1685 C 161.819 -3.10506 -2.96453 0
M  V30 1686 C 161.052 -3.21519 -4.25982 0
M  V30 1687 O 161.275 -2.38586 -5.18105 0
M  V30 1688 O 160.209 -4.14465 -4.36466 0
M  V30 1689 H 164.035 -2.70044 -1.38961 0
M  V30 1690 H 161.62 -1.35722 -0.624499 0
M  V30 1691 H 163.502 -1.96292 -3.72891 0
M  V30 1692 H 162.177 -0.949014 -3.09476 0
M  V30 1693 H 161.084 -3.06363 -2.14692 0
M  V30 1694 H 162.417 -4.01945 -2.84079 0
M  V30 1695 N 164.069 0.697108 -1.41344 0
M  V30 1696 C 164.999 1.82353 -1.45841 0
M  V30 1697 C 165.98 1.67115 -0.317247 0
M  V30 1698 O 167.165 1.86871 -0.528474 0
M  V30 1699 C 164.295 3.20476 -1.33838 0
M  V30 1700 C 163.249 3.50415 -2.4575 0
M  V30 1701 C 162.575 4.87878 -2.18813 0
M  V30 1702 C 163.875 3.49546 -3.88091 0
M  V30 1703 H 165.569 1.78846 -2.40113 0
M  V30 1704 H 163.115 0.859028 -1.15571 0
M  V30 1705 H 165.068 3.98988 -1.35596 0
M  V30 1706 H 163.792 3.24604 -0.360498 0
M  V30 1707 H 162.451 2.74253 -2.43271 0
M  V30 1708 H 162.099 4.8863 -1.19371 0
M  V30 1709 H 161.799 5.08875 -2.93803 0
M  V30 1710 H 163.323 5.68702 -2.22284 0
M  V30 1711 H 164.737 4.18066 -3.92293 0
M  V30 1712 H 163.134 3.82075 -4.62751 0
M  V30 1713 H 164.204 2.48552 -4.16353 0
M  V30 1714 N 165.547 1.27147 0.931209 0
M  V30 1715 C 166.777 1.15914 1.71019 0
M  V30 1716 C 167.185 -0.287112 1.87009 0
M  V30 1717 O 166.528 -1.20761 1.38429 0
M  V30 1718 C 166.59 1.76647 3.13107 0
M  V30 1719 C 166.254 3.25807 3.20467 0
M  V30 1720 C 167.251 4.22489 3.02983 0
M  V30 1721 C 164.936 3.66452 3.43538 0
M  V30 1722 C 166.93 5.57794 3.08454 0
M  V30 1723 C 164.617 5.01888 3.48643 0
M  V30 1724 C 165.615 5.97369 3.31119 0
M  V30 1725 O 165.303 7.30337 3.35952 0
M  V30 1726 H 165.035 0.404062 0.54195 0
M  V30 1727 H 167.589 1.68457 1.17521 0
M  V30 1728 H 165.819 1.18578 3.68071 0
M  V30 1729 H 167.508 1.60179 3.72958 0
M  V30 1730 H 168.274 3.92425 2.85004 0
M  V30 1731 H 164.153 2.92611 3.5623 0
M  V30 1732 H 167.697 6.32298 2.94694 0
M  V30 1733 H 163.594 5.31609 3.66145 0
M  V30 1734 H 164.362 7.38739 3.5243 0
M  V30 1735 N 167.025 -1.13721 1.09112 0
M  V30 1736 C 168.25 -1.89314 0.847053 0
M  V30 1737 C 168.675 -1.78416 -0.595774 0
M  V30 1738 O 168.033 -1.12942 -1.41823 0
M  V30 1739 C 168.081 -3.3701 1.28284 0
M  V30 1740 O 167.185 -4.10054 0.439267 0
M  V30 1741 H 166.526 -0.588745 0.307044 0
M  V30 1742 H 169.056 -1.43902 1.45442 0
M  V30 1743 H 169.066 -3.87834 1.26683 0
M  V30 1744 H 167.741 -3.4426 2.33363 0
M  V30 1745 H 166.318 -3.69266 0.519312 0
M  V30 1746 N 168.503 -0.877838 -1.30888 0
M  V30 1747 C 169.914 -0.544193 -1.78593 0
M  V30 1748 C 170.265 0.939301 -1.72254 0
M  V30 1749 O 169.39 1.7337 -1.29505 0
M  V30 1750 C 169.985 -0.98105 -3.24285 0
M  V30 1751 C 168.544 -0.698935 -3.69854 0
M  V30 1752 C 167.691 -1.168 -2.51502 0
M  V30 1753 H 170.642 -1.06278 -1.17859 0
M  V30 1754 H 170.663 -0.307009 -3.79259 0
M  V30 1755 H 170.175 -2.06079 -3.28866 0
M  V30 1756 H 168.276 0.369112 -3.70767 0
M  V30 1757 H 168.389 -1.28148 -4.61644 0
M  V30 1758 H 166.753 -0.587535 -2.47831 0
M  V30 1759 H 167.536 -2.25533 -2.58824 0
M  V30 1760 N 169.982 1.44106 -0.638065 0
M  V30 1761 C 170.912 2.33448 0.0494287 0
M  V30 1762 C 171.893 1.48606 0.827672 0
M  V30 1763 O 173.078 1.77308 0.792173 0
M  V30 1764 C 170.208 3.31771 1.02691 0
M  V30 1765 C 169.162 4.26485 0.359823 0
M  V30 1766 C 168.488 5.14729 1.44769 0
M  V30 1767 C 169.788 5.17056 -0.738296 0
M  V30 1768 H 171.482 2.91183 -0.696636 0
M  V30 1769 H 169.028 1.40014 -0.336456 0
M  V30 1770 H 170.981 3.93161 1.51666 0
M  V30 1771 H 169.705 2.7226 1.80395 0
M  V30 1772 H 168.364 3.66437 -0.10934 0
M  V30 1773 H 168.012 4.51566 2.21578 0
M  V30 1774 H 167.712 5.78913 1.00668 0
M  V30 1775 H 169.236 5.78991 1.93911 0
M  V30 1776 H 170.65 5.72342 -0.331354 0
M  V30 1777 H 169.047 5.89879 -1.10286 0
M  V30 1778 H 170.117 4.57652 -1.60258 0
M  V30 1779 N 171.46 0.379036 1.52974 0
M  V30 1780 C 172.685 -0.209353 2.06341 0
M  V30 1781 C 173.11 -1.40583 1.24972 0
M  V30 1782 O 172.468 -1.79246 0.272155 0
M  V30 1783 C 172.516 -0.567786 3.56102 0
M  V30 1784 O 171.62 -1.66318 3.77375 0
M  V30 1785 H 170.961 -0.0272919 0.663439 0
M  V30 1786 H 173.491 0.543536 1.97248 0
M  V30 1787 H 173.501 -0.835003 3.99364 0
M  V30 1788 H 172.176 0.307013 4.14765 0
M  V30 1789 H 170.753 -1.39048 3.46006 0
M  V30 1790 N 172.938 -1.57226 0.108567 0
M  V30 1791 C 174.186 -1.94448 -0.550853 0
M  V30 1792 C 174.507 -0.992074 -1.67878 0
M  V30 1793 O 173.777 -0.0465 -1.95845 0
M  V30 1794 H 172.357 -0.717897 -0.206479 0
M  V30 1795 H 175.019 -1.94112 0.175062 0
M  V30 1796 H 174.115 -2.97218 -0.952259 0
M  V30 1797 N 174.416 0.165178 -1.56732 0
M  V30 1798 C 175.326 1.22423 -2.00125 0
M  V30 1799 C 176.342 1.48084 -0.913619 0
M  V30 1800 O 177.518 1.60112 -1.22172 0
M  V30 1801 C 174.583 2.54197 -2.35764 0
M  V30 1802 C 173.644 2.36343 -3.58386 0
M  V30 1803 C 172.877 3.61834 -3.92316 0
M  V30 1804 O 173.1 4.67267 -3.27135 0
M  V30 1805 O 172.034 3.55579 -4.85641 0
M  V30 1806 H 175.86 0.885886 -2.90492 0
M  V30 1807 H 173.445 0.372518 -1.44681 0
M  V30 1808 H 175.327 3.3192 -2.59629 0
M  V30 1809 H 174.002 2.87598 -1.48557 0
M  V30 1810 H 172.909 1.56632 -3.39731 0
M  V30 1811 H 174.242 2.07865 -4.46154 0
M  V30 1812 N 175.894 1.51508 0.433938 0
M  V30 1813 C 177.14 1.64588 1.18484 0
M  V30 1814 C 177.473 0.362666 1.90784 0
M  V30 1815 O 176.748 -0.637892 1.83742 0
M  V30 1816 C 177.031 2.85149 2.19913 0
M  V30 1817 C 176.884 4.23456 1.51674 0
M  V30 1818 C 178.203 3.01227 3.20858 0
M  V30 1819 H 175.322 0.598994 0.429389 0
M  V30 1820 H 177.964 1.84002 0.473647 0
M  V30 1821 H 176.114 2.68729 2.80566 0
M  V30 1822 H 177.786 4.51552 0.943322 0
M  V30 1823 H 176.029 4.25998 0.819035 0
M  V30 1824 H 176.7 5.03812 2.2556 0
M  V30 1825 H 179.176 3.16382 2.70263 0
M  V30 1826 H 178.052 3.87141 3.89118 0
M  V30 1827 H 178.313 2.13447 3.8716 0
M  V30 1828 N 177.372 -0.689602 1.41712 0
M  V30 1829 C 178.6 -1.47827 1.44758 0
M  V30 1830 C 179.015 -1.88721 0.0545703 0
M  V30 1831 O 178.372 -1.57176 -0.927463 0
M  V30 1832 C 178.423 -2.73698 2.3616 0
M  V30 1833 O 178.144 -2.34524 3.7004 0
M  V30 1834 C 179.645 -3.67389 2.48072 0
M  V30 1835 H 176.865 -0.455357 0.49284 0
M  V30 1836 H 179.409 -0.848574 1.86063 0
M  V30 1837 H 177.564 -3.32891 1.98148 0
M  V30 1838 H 177.978 -3.15701 4.18847 0
M  V30 1839 H 179.452 -4.52475 3.16181 0
M  V30 1840 H 179.929 -4.12284 1.51388 0
M  V30 1841 H 180.535 -3.14097 2.86746 0
M  V30 1842 N 178.85 -1.27639 -0.924453 0
M  V30 1843 C 179.76 -1.12466 -2.05885 0
M  V30 1844 C 180.776 -0.053869 -1.73917 0
M  V30 1845 O 181.952 -0.261012 -1.99702 0
M  V30 1846 C 179.017 -0.776768 -3.37886 0
M  V30 1847 C 178.078 -1.92878 -3.83532 0
M  V30 1848 C 177.311 -1.59739 -5.09234 0
M  V30 1849 O 177.534 -0.506782 -5.68144 0
M  V30 1850 O 176.468 -2.43761 -5.50331 0
M  V30 1851 H 180.294 -2.07671 -2.21599 0
M  V30 1852 H 177.879 -1.06857 -1.04413 0
M  V30 1853 H 179.761 -0.596229 -4.17161 0
M  V30 1854 H 178.436 0.145732 -3.23372 0
M  V30 1855 H 177.343 -2.1644 -3.0513 0
M  V30 1856 H 178.676 -2.8316 -4.02593 0
M  V30 1857 N 180.328 1.1314 -1.09713 0
M  V30 1858 C 181.577 1.83838 -0.829851 0
M  V30 1859 C 181.89 1.84599 0.646728 0
M  V30 1860 O 183.096 2.51218 1.02965 0
M  V30 1861 C 181.552 3.30069 -1.43466 0
M  V30 1862 C 181.16 3.37688 -2.94399 0
M  V30 1863 C 182.904 4.05788 -1.24645 0
M  V30 1864 C 180.811 4.78209 -3.47952 0
M  V30 1865 H 179.741 0.68877 -0.306777 0
M  V30 1866 H 182.392 1.27448 -1.3202 0
M  V30 1867 H 180.774 3.8628 -0.871996 0
M  V30 1868 H 181.948 2.91456 -3.56918 0
M  V30 1869 H 180.263 2.75436 -3.12289 0
M  V30 1870 H 182.86 5.09535 -1.62107 0
M  V30 1871 H 183.203 4.15878 -0.187357 0
M  V30 1872 H 183.736 3.55915 -1.77678 0
M  V30 1873 H 180.475 4.73311 -4.53495 0
M  V30 1874 H 179.995 5.24924 -2.90198 0
M  V30 1875 H 181.674 5.47133 -3.45332 0
M  V30 1876 N 181.806 0.884767 1.30421 0
M  V30 1877 C 182.754 0.340869 2.30089 0
M  V30 1878 C 183.748 -0.55201 1.60154 0
M  V30 1879 O 184.954 -0.436467 1.74628 0
M  V30 1880 H 181.329 0.0915739 0.746404 0
M  V30 1881 H 183.3 1.19513 2.73421 0
M  V30 1882 C 182.049 -0.429779 3.45034 0
M  V30 1883 H 181.372 0.248024 3.9903 0
M  V30 1884 H 182.812 -0.775445 4.16849 0
M  V30 1885 C 181.271 -1.62677 2.95022 0
M  V30 1886 O 181.801 -2.72614 2.95033 0
M  V30 1887 N 180.007 -1.46387 2.51036 0
M  V30 1888 H 179.554 -0.569506 2.51226 0
M  V30 1889 H 179.512 -2.26612 2.17932 0
M  V30 1890 N 183.284 -1.43765 0.645699 0
M  V30 1891 C 184.194 -2.34544 -0.0512957 0
M  V30 1892 C 185.21 -1.53455 -0.82022 0
M  V30 1893 O 186.386 -1.86133 -0.769176 0
M  V30 1894 C 183.451 -3.31636 -1.01087 0
M  V30 1895 C 182.512 -4.2863 -0.239712 0
M  V30 1896 C 181.745 -5.21084 -1.15358 0
M  V30 1897 O 181.968 -5.1779 -2.39269 0
M  V30 1898 O 180.902 -5.98593 -0.630038 0
M  V30 1899 H 184.728 -2.95624 0.695718 0
M  V30 1900 H 182.313 -1.43781 0.405882 0
M  V30 1901 H 184.195 -3.9136 -1.56254 0
M  V30 1902 H 182.87 -2.73069 -1.73824 0
M  V30 1903 H 181.777 -3.72408 0.355356 0
M  V30 1904 H 183.11 -4.90157 0.447936 0
M  V30 1905 N 184.763 -0.387143 -1.52771 0
M  V30 1906 C 185.726 0.436939 -2.24997 0
M  V30 1907 C 186.726 0.991991 -1.26555 0
M  V30 1908 O 187.916 0.874335 -1.50669 0
M  V30 1909 C 185.048 1.61281 -3.00335 0
M  V30 1910 H 186.241 -0.195365 -2.99263 0
M  V30 1911 H 183.794 -0.139218 -1.55679 0
M  V30 1912 H 184.529 2.2826 -2.30364 0
M  V30 1913 H 184.314 1.22154 -3.72587 0
M  V30 1914 H 185.804 2.19629 -3.5518 0
M  V30 1915 N 186.241 1.57166 -0.116904 0
M  V30 1916 C 187.171 2.18222 0.830759 0
M  V30 1917 C 188.152 1.12167 1.27877 0
M  V30 1918 O 189.337 1.40394 1.34176 0
M  V30 1919 C 186.467 2.77996 2.08172 0
M  V30 1920 C 185.421 3.89614 1.77157 0
M  V30 1921 C 184.747 4.36187 3.09265 0
M  V30 1922 C 186.047 5.1181 1.04151 0
M  V30 1923 H 187.741 2.97664 0.321992 0
M  V30 1924 H 185.287 1.4318 0.153434 0
M  V30 1925 H 187.24 3.19366 2.74924 0
M  V30 1926 H 185.964 1.9584 2.6137 0
M  V30 1927 H 184.623 3.48816 1.12796 0
M  V30 1928 H 184.271 3.50893 3.60393 0
M  V30 1929 H 183.971 5.11455 2.89288 0
M  V30 1930 H 185.495 4.80207 3.77139 0
M  V30 1931 H 186.909 5.50214 1.61052 0
M  V30 1932 H 185.306 5.92648 0.942762 0
M  V30 1933 H 186.376 4.84892 0.0279022 0
M  V30 1934 N 187.719 -0.156864 1.56817 0
M  V30 1935 C 188.682 -1.17781 1.96622 0
M  V30 1936 C 189.682 -1.36401 0.851555 0
M  V30 1937 O 190.872 -1.33561 1.11836 0
M  V30 1938 C 188.004 -2.54008 2.27361 0
M  V30 1939 H 189.197 -0.836564 2.87996 0
M  V30 1940 H 186.75 -0.39985 1.51099 0
M  V30 1941 H 187.485 -2.9312 1.38748 0
M  V30 1942 H 187.27 -2.41856 3.08623 0
M  V30 1943 H 188.76 -3.27558 2.59029 0
M  V30 1944 N 189.197 -1.51736 -0.425897 0
M  V30 1945 C 190.107 -1.76738 -1.54275 0
M  V30 1946 C 191.123 -0.65211 -1.61318 0
M  V30 1947 O 192.299 -0.935654 -1.78346 0
M  V30 1948 C 189.364 -1.89755 -2.90162 0
M  V30 1949 C 188.425 -3.13633 -2.93143 0
M  V30 1950 C 187.658 -3.2602 -4.22548 0
M  V30 1951 O 187.881 -2.44067 -5.15546 0
M  V30 1952 O 186.815 -4.19071 -4.32046 0
M  V30 1953 H 190.641 -2.71502 -1.36089 0
M  V30 1954 H 188.226 -1.36376 -0.610069 0
M  V30 1955 H 190.108 -2.00236 -3.70788 0
M  V30 1956 H 188.783 -0.981785 -3.08452 0
M  V30 1957 H 187.69 -3.08622 -2.11431 0
M  V30 1958 H 189.023 -4.04936 -2.798 0
M  V30 1959 N 190.675 0.682077 -1.42076 0
M  V30 1960 C 191.623 1.81707 -1.45208 0
M  V30 1961 C 192.617 1.66183 -0.328591 0
M  V30 1962 O 193.823 1.7288 -0.501264 0
M  V30 1963 H 190.198 0.599014 -0.454628 0
M  V30 1964 H 192.169 1.76183 -2.40836 0
M  V30 1965 C 190.918 3.19816 -1.36428 0
M  V30 1966 H 190.241 3.32385 -2.22171 0
M  V30 1967 H 191.681 3.99272 -1.42681 0
M  V30 1968 C 190.14 3.36809 -0.078191 0
M  V30 1969 O 190.67 3.92124 0.87188 0
M  V30 1970 N 188.876 2.906 0.00229266 0
M  V30 1971 H 188.423 2.45772 -0.771616 0
M  V30 1972 H 188.381 3.02347 0.862179 0
M  V30 1973 N 192.153 1.28127 0.917671 0
M  V30 1974 C 193.564 1.13622 1.48145 0
M  V30 1975 C 193.915 -0.275207 1.9426 0
M  V30 1976 O 193.04 -1.1691 1.82102 0
M  V30 1977 C 193.635 2.05648 2.69248 0
M  V30 1978 C 192.194 1.95219 3.21818 0
M  V30 1979 C 191.341 1.97618 1.94532 0
M  V30 1980 H 194.292 1.40874 0.730772 0
M  V30 1981 H 194.313 1.61818 3.44377 0
M  V30 1982 H 193.825 3.08365 2.35653 0
M  V30 1983 H 191.926 0.955244 3.60147 0
M  V30 1984 H 192.039 2.81976 3.87333 0
M  V30 1985 H 190.403 1.41973 2.11461 0
M  V30 1986 H 191.186 3.02007 1.63238 0
M  V30 1987 N 193.631 -1.12557 1.10312 0
M  V30 1988 C 194.879 -1.83675 0.843091 0
M  V30 1989 C 195.2 -1.84435 -0.633131 0
M  V30 1990 O 194.47 -1.30657 -1.45964 0
M  V30 1991 H 193.05 -0.680138 0.308904 0
M  V30 1992 H 195.712 -1.36301 1.39313 0
M  V30 1993 H 194.808 -2.87908 1.2048 0
M  V30 1994 N 195.109 -0.891671 -1.2995 0
M  V30 1995 C 196.039 -0.379797 -2.30391 0
M  V30 1996 C 197.02 0.540919 -1.6127 0
M  V30 1997 O 198.205 0.453352 -1.88834 0
M  V30 1998 C 195.335 0.400654 -3.44981 0
M  V30 1999 C 194.289 -0.428905 -4.25846 0
M  V30 2000 C 193.615 0.478557 -5.32554 0
M  V30 2001 C 194.915 -1.67458 -4.94727 0
M  V30 2002 H 196.609 -1.21914 -2.73454 0
M  V30 2003 H 194.155 -0.587675 -1.31462 0
M  V30 2004 H 196.108 0.769434 -4.14316 0
M  V30 2005 H 194.832 1.27371 -3.0074 0
M  V30 2006 H 193.491 -0.779911 -3.58208 0
M  V30 2007 H 193.139 1.34951 -4.84559 0
M  V30 2008 H 192.839 -0.0727433 -5.87555 0
M  V30 2009 H 194.363 0.843705 -6.04743 0
M  V30 2010 H 195.777 -1.376 -5.56542 0
M  V30 2011 H 194.174 -2.16659 -5.59624 0
M  V30 2012 H 195.244 -2.41518 -4.20473 0
M  V30 2013 N 196.587 1.43421 -0.653314 0
M  V30 2014 C 197.833 2.02111 -0.166992 0
M  V30 2015 C 198.166 1.51423 1.21592 0
M  V30 2016 O 197.441 0.707389 1.8118 0
M  V30 2017 C 197.724 3.5966 -0.177948 0
M  V30 2018 C 197.577 4.20579 -1.59478 0
M  V30 2019 C 198.896 4.37413 0.4856 0
M  V30 2020 H 196.015 0.734374 -0.0621557 0
M  V30 2021 H 198.657 1.70717 -0.834016 0
M  V30 2022 H 196.807 3.86537 0.390032 0
M  V30 2023 H 198.479 4.04732 -2.21336 0
M  V30 2024 H 196.722 3.77226 -2.14204 0
M  V30 2025 H 197.393 5.29665 -1.5543 0
M  V30 2026 H 199.869 4.161 0.00234528 0
M  V30 2027 H 198.745 5.47075 0.447207 0
M  V30 2028 H 199.006 4.13672 1.55974 0
M  V30 2029 N 198.065 0.39524 1.52563 0
M  V30 2030 C 199.013 -0.451859 2.28169 0
M  V30 2031 C 200.007 -1.05792 1.32304 0
M  V30 2032 O 201.213 -0.997718 1.49818 0
M  V30 2033 H 197.588 -0.164481 0.733792 0
M  V30 2034 H 199.559 0.207199 2.9768 0
M  V30 2035 C 198.308 -1.56385 3.10546 0
M  V30 2036 H 197.631 -1.10682 3.84174 0
M  V30 2037 H 199.071 -2.13067 3.66577 0
M  V30 2038 C 197.53 -2.52328 2.23231 0
M  V30 2039 O 198.06 -3.5588 1.86312 0
M  V30 2040 N 196.266 -2.22209 1.87274 0
M  V30 2041 H 195.813 -1.38033 2.17496 0
M  V30 2042 H 195.771 -2.86652 1.29143 0
M  V30 2043 N 199.544 -1.57102 0.125237 0
M  V30 2044 C 200.491 -2.15641 -0.822655 0
M  V30 2045 C 201.461 -1.08313 -1.25927 0
M  V30 2046 O 202.646 -1.36251 -1.33567 0
M  V30 2047 C 199.786 -2.76504 -2.06494 0
M  V30 2048 C 198.899 -3.98158 -1.67612 0
M  V30 2049 C 198.034 -4.47088 -2.86854 0
M  V30 2050 C 197.073 -5.6126 -2.44242 0
M  V30 2051 N 196.21 -6.04905 -3.56419 0
M  V30 2052 H 201.05 -2.96313 -0.316625 0
M  V30 2053 H 198.587 -1.46388 -0.144588 0
M  V30 2054 H 200.545 -3.09925 -2.79289 0
M  V30 2055 H 199.175 -1.98512 -2.54545 0
M  V30 2056 H 198.227 -3.70858 -0.846661 0
M  V30 2057 H 199.539 -4.80934 -1.32301 0
M  V30 2058 H 198.693 -4.82451 -3.67867 0
M  V30 2059 H 197.432 -3.63275 -3.25396 0
M  V30 2060 H 196.437 -5.25495 -1.61663 0
M  V30 2061 H 197.662 -6.46843 -2.0681 0
M  V30 2062 H 195.608 -5.24032 -3.94623 0
M  V30 2063 H 195.525 -6.82552 -3.25051 0
M  V30 2064 H 196.793 -6.44907 -4.37853 0
M  V30 2065 N 201.022 0.148545 -1.56898 0
M  V30 2066 C 202.247 0.880385 -1.87787 0
M  V30 2067 C 202.672 1.74018 -0.714093 0
M  V30 2068 O 202.03 1.78153 0.336343 0
M  V30 2069 C 202.078 1.71422 -3.17249 0
M  V30 2070 O 201.182 2.8183 -3.01074 0
M  V30 2071 H 200.523 0.245301 -0.617028 0
M  V30 2072 H 203.053 0.139826 -2.04122 0
M  V30 2073 H 203.063 2.10954 -3.49231 0
M  V30 2074 H 201.738 1.08284 -4.01556 0
M  V30 2075 H 200.315 2.45715 -2.80497 0
M  V30 2076 N 202.5 1.5196 0.417844 0
M  V30 2077 C 203.74 1.67262 1.17486 0
M  V30 2078 C 204.104 0.38983 1.88001 0
M  V30 2079 O 205.305 0.418845 2.65517 0
M  V30 2080 C 203.576 2.85526 2.14965 0
M  V30 2081 S 205.135 3.21263 2.98891 0
M  V30 2082 H 201.953 0.589077 0.398132 0
M  V30 2083 H 204.555 1.89927 0.463452 0
M  V30 2084 H 203.259 3.77145 1.61833 0
M  V30 2085 H 202.79 2.65107 2.90657 0
M  V30 2086 H 204.805 2.69208 4.16823 0
M  V30 2087 N 203.978 -0.674533 1.42435 0
M  V30 2088 C 205.208 -1.46071 1.46105 0
M  V30 2089 C 205.616 -1.89067 0.0709605 0
M  V30 2090 O 204.959 -1.58731 -0.924677 0
M  V30 2091 C 205.021 -2.74145 2.32561 0
M  V30 2092 C 204.685 -2.53224 3.8043 0
M  V30 2093 C 205.682 -2.17809 4.72075 0
M  V30 2094 C 203.367 -2.6821 4.24698 0
M  V30 2095 C 205.361 -1.97648 6.05982 0
M  V30 2096 C 203.048 -2.47665 5.58664 0
M  V30 2097 C 204.046 -2.12437 6.49122 0
M  V30 2098 O 203.734 -1.9209 7.80613 0
M  V30 2099 H 203.466 -0.455959 0.499076 0
M  V30 2100 H 206.02 -0.836193 1.87609 0
M  V30 2101 H 204.25 -3.3908 1.85908 0
M  V30 2102 H 205.939 -3.36028 2.27683 0
M  V30 2103 H 206.705 -2.05826 4.39159 0
M  V30 2104 H 202.584 -2.94609 3.54579 0
M  V30 2105 H 206.128 -1.70075 6.7655 0
M  V30 2106 H 202.025 -2.59244 5.91154 0
M  V30 2107 H 202.793 -2.06686 7.91974 0
M  V30 2108 N 205.456 -1.28612 -0.910864 0
M  V30 2109 C 206.366 -1.14643 -2.0468 0
M  V30 2110 C 207.382 -0.0723121 -1.7385 0
M  V30 2111 O 208.558 -0.282178 -1.99413 0
M  V30 2112 C 205.623 -0.812561 -3.37044 0
M  V30 2113 C 204.684 -1.96935 -3.81465 0
M  V30 2114 C 203.917 -1.65131 -5.07511 0
M  V30 2115 O 204.14 -0.567013 -5.67575 0
M  V30 2116 O 203.074 -2.49585 -5.47714 0
M  V30 2117 H 206.9 -2.1001 -2.19384 0
M  V30 2118 H 204.485 -1.07958 -1.03274 0
M  V30 2119 H 206.367 -0.640441 -4.16505 0
M  V30 2120 H 205.042 0.111426 -3.23508 0
M  V30 2121 H 203.949 -2.19664 -3.02818 0
M  V30 2122 H 205.282 -2.87414 -3.99567 0
M  V30 2123 N 206.934 1.1197 -1.10907 0
M  V30 2124 C 208.211 1.79959 -0.766432 0
M  V30 2125 C 208.591 1.97466 0.746363 0
M  V30 2126 O 207.939 1.55491 1.67436 0
M  V30 2127 C 208.149 3.14009 -1.52314 0
M  V30 2128 C 209.497 3.89134 -1.69883 0
M  V30 2129 O 210.521 3.2368 -1.48692 0
M  V30 2130 O 209.38 5.06572 -2.05054 0
M  V30 2131 H 206.474 0.779208 -0.277062 0
M  V30 2132 H 209.02 1.18762 -1.21217 0
M  V30 2133 H 207.792 2.96587 -2.55249 0
M  V30 2134 H 207.415 3.82915 -1.07059 0
M  V30 2135 N 208.412 0.89855 1.29475 0
M  V30 2136 C 209.66 0.522847 1.9522 0
M  V30 2137 C 209.981 -0.93371 1.71192 0
M  V30 2138 O 209.251 -1.65823 1.04305 0
M  V30 2139 H 207.831 0.190366 0.722336 0
M  V30 2140 H 210.493 1.14459 1.5775 0
M  V30 2141 H 209.589 0.704476 3.04045 0
M  V30 2142 N 209.89 -1.43072 0.660911 0
M  V30 2143 C 211.136 -2.02545 0.186337 0
M  V30 2144 C 211.491 -1.51253 -1.18913 0
M  V30 2145 O 210.784 -0.699167 -1.78388 0
M  V30 2146 C 210.978 -3.57103 0.145563 0
M  V30 2147 C 210.807 -4.23393 1.51554 0
M  V30 2148 C 209.577 -4.59144 2.10984 0
M  V30 2149 C 211.775 -4.51897 2.45548 0
M  V30 2150 N 209.757 -5.10545 3.40907 0
M  V30 2151 C 211.128 -5.04698 3.6011 0
M  V30 2152 C 213.183 -4.33872 2.44253 0
M  V30 2153 C 211.886 -5.41371 4.73613 0
M  V30 2154 C 213.912 -4.71612 3.56842 0
M  V30 2155 C 213.274 -5.24553 4.70131 0
M  V30 2156 H 209.373 -0.773823 0.112792 0
M  V30 2157 H 211.957 -1.74137 0.870885 0
M  V30 2158 H 210.128 -3.85059 -0.508353 0
M  V30 2159 H 211.86 -4.03264 -0.340598 0
M  V30 2160 H 208.615 -4.4444 1.63615 0
M  V30 2161 H 209.039 -5.40689 4.07411 0
M  V30 2162 H 213.681 -3.92208 1.579 0
M  V30 2163 H 211.399 -5.81975 5.60652 0
M  V30 2164 H 214.985 -4.59354 3.57051 0
M  V30 2165 H 213.865 -5.53213 5.5581 0
M  V30 2166 N 211.368 -0.403325 -1.52352 0
M  V30 2167 C 212.298 0.416205 -2.29761 0
M  V30 2168 C 213.279 1.05123 -1.33728 0
M  V30 2169 O 214.464 1.06134 -1.62632 0
M  V30 2170 C 211.594 1.53624 -3.11475 0
M  V30 2171 C 210.548 1.02653 -4.15507 0
M  V30 2172 C 209.874 2.23971 -4.85532 0
M  V30 2173 C 211.174 0.08463 -5.22231 0
M  V30 2174 H 212.868 -0.229701 -2.98518 0
M  V30 2175 H 210.414 -0.111913 -1.43564 0
M  V30 2176 H 212.367 2.1165 -3.64393 0
M  V30 2177 H 211.091 2.20994 -2.40477 0
M  V30 2178 H 209.75 0.46871 -3.63591 0
M  V30 2179 H 209.398 2.89883 -4.11068 0
M  V30 2180 H 209.098 1.90521 -5.55856 0
M  V30 2181 H 210.622 2.82614 -5.41259 0
M  V30 2182 H 212.036 0.573509 -5.70424 0
M  V30 2183 H 210.433 -0.160783 -5.99885 0
M  V30 2184 H 211.503 -0.86237 -4.7717 0
M  V30 2185 N 212.846 1.57033 -0.133567 0
M  V30 2186 C 214.095 1.94861 0.520768 0
M  V30 2187 C 214.408 1.02012 1.66892 0
M  V30 2188 O 215.614 1.29365 2.38699 0
M  V30 2189 C 214.07 3.46362 0.977809 0
M  V30 2190 C 213.678 4.47773 -0.142674 0
M  V30 2191 C 215.422 3.93083 1.60269 0
M  V30 2192 C 213.329 5.90468 0.331883 0
M  V30 2193 H 212.259 0.727453 0.198315 0
M  V30 2194 H 214.91 1.82227 -0.215759 0
M  V30 2195 H 213.292 3.54282 1.7692 0
M  V30 2196 H 214.466 4.51536 -0.919317 0
M  V30 2197 H 212.781 4.10891 -0.675124 0
M  V30 2198 H 215.378 4.97121 1.96914 0
M  V30 2199 H 215.721 3.33876 2.48662 0
M  V30 2200 H 216.254 3.88025 0.876453 0
M  V30 2201 H 212.993 6.53463 -0.516341 0
M  V30 2202 H 212.513 5.90094 1.07469 0
M  V30 2203 H 214.192 6.42179 0.788332 0
M  V30 2204 N 214.325 -0.140222 1.56975 0
M  V30 2205 C 215.272 -1.17292 1.98774 0
M  V30 2206 C 216.242 -1.4232 0.856408 0
M  V30 2207 O 217.427 -1.54541 1.119 0
M  V30 2208 C 214.567 -2.49973 2.37923 0
M  V30 2209 C 213.68 -2.32062 3.64378 0
M  V30 2210 C 212.815 -3.57825 3.926 0
M  V30 2211 C 211.854 -3.3498 5.12303 0
M  V30 2212 N 210.991 -4.52891 5.36502 0
M  V30 2213 H 215.831 -0.809472 2.86795 0
M  V30 2214 H 213.368 -0.388237 1.41884 0
M  V30 2215 H 215.326 -3.27346 2.58652 0
M  V30 2216 H 213.956 -2.84252 1.52972 0
M  V30 2217 H 213.008 -1.45711 3.51387 0
M  V30 2218 H 214.32 -2.11145 4.51906 0
M  V30 2219 H 213.474 -4.43624 4.13863 0
M  V30 2220 H 212.213 -3.81753 3.03506 0
M  V30 2221 H 211.218 -2.4757 4.90906 0
M  V30 2222 H 212.443 -3.12444 6.02956 0
M  V30 2223 H 210.389 -4.76979 4.50363 0
M  V30 2224 H 210.306 -4.35001 6.18312 0
M  V30 2225 H 211.574 -5.39884 5.62268 0
M  V30 2226 N 215.803 -1.52179 -0.40978 0
M  V30 2227 C 216.736 -1.70196 -1.52015 0
M  V30 2228 C 217.714 -0.549542 -1.53032 0
M  V30 2229 O 218.898 -0.776815 -1.71749 0
M  V30 2230 C 216.025 -1.74069 -2.90547 0
M  V30 2231 C 215.071 -2.95601 -3.07445 0
M  V30 2232 S 215.904 -4.55956 -2.80827 0
M  V30 2233 C 217.06 -4.62614 -4.21591 0
M  V30 2234 H 217.293 -2.64109 -1.36504 0
M  V30 2235 H 214.826 -1.4221 -0.601312 0
M  V30 2236 H 216.784 -1.76985 -3.70387 0
M  V30 2237 H 215.445 -0.812835 -3.034 0
M  V30 2238 H 214.638 -2.94791 -4.08796 0
M  V30 2239 H 214.24 -2.90569 -2.35469 0
M  V30 2240 H 216.532 -4.39951 -5.15218 0
M  V30 2241 H 217.475 -5.64548 -4.27424 0
M  V30 2242 H 217.883 -3.91654 -4.06531 0
M  V30 2243 N 217.281 0.66697 -1.42791 0
M  V30 2244 C 218.509 1.45505 -1.47091 0
M  V30 2245 C 218.924 1.8861 -0.0845873 0
M  V30 2246 O 218.281 1.58632 0.90234 0
M  V30 2247 C 218.332 2.69906 -2.40485 0
M  V30 2248 O 218.053 2.28608 -3.73725 0
M  V30 2249 C 219.554 3.63396 -2.53886 0
M  V30 2250 H 216.774 0.447459 -0.500022 0
M  V30 2251 H 219.318 0.818866 -1.8739 0
M  V30 2252 H 217.473 3.29696 -2.03419 0
M  V30 2253 H 217.887 3.08997 -4.23817 0
M  V30 2254 H 219.361 4.47387 -3.2334 0
M  V30 2255 H 219.838 4.09824 -1.57927 0
M  V30 2256 H 220.444 3.09495 -2.91706 0
M  V30 2257 N 218.759 1.29093 0.90403 0
M  V30 2258 C 219.689 1.16401 2.02418 0
M  V30 2259 C 220.67 0.0593085 1.69997 0
M  V30 2260 O 221.855 0.238021 1.92736 0
M  V30 2261 C 218.985 0.835233 3.37107 0
M  V30 2262 C 217.939 1.89578 3.83724 0
M  V30 2263 C 217.265 1.42041 5.15489 0
M  V30 2264 C 218.565 3.30394 4.04521 0
M  V30 2265 H 220.259 2.10109 2.13295 0
M  V30 2266 H 217.805 1.01157 1.02486 0
M  V30 2267 H 219.758 0.733169 4.14973 0
M  V30 2268 H 218.482 -0.137543 3.2631 0
M  V30 2269 H 217.141 1.98715 3.08071 0
M  V30 2270 H 216.789 0.436426 5.01103 0
M  V30 2271 H 216.489 2.12964 5.4765 0
M  V30 2272 H 218.013 1.33176 5.959 0
M  V30 2273 H 219.427 3.24123 4.72882 0
M  V30 2274 H 217.824 3.99237 4.48029 0
M  V30 2275 H 218.894 3.73692 3.09002 0
M  V30 2276 N 220.237 -1.11381 1.11499 0
M  V30 2277 C 221.462 -1.87475 0.887019 0
M  V30 2278 C 221.887 -1.79639 -0.557796 0
M  V30 2279 O 221.245 -1.15924 -1.39396 0
M  V30 2280 C 221.293 -3.34213 1.35403 0
M  V30 2281 O 220.397 -4.0903 0.526146 0
M  V30 2282 H 219.738 -0.582099 0.319463 0
M  V30 2283 H 222.268 -1.40785 1.48461 0
M  V30 2284 H 222.278 -3.8506 1.34881 0
M  V30 2285 H 220.953 -3.39232 2.40612 0
M  V30 2286 H 219.53 -3.68082 0.597522 0
M  V30 2287 N 221.715 -0.905404 -1.28997 0
M  V30 2288 C 222.663 -0.377431 -2.29517 0
M  V30 2289 C 223.657 0.526461 -1.61012 0
M  V30 2290 O 224.863 0.40863 -1.753 0
M  V30 2291 H 221.238 -0.103437 -0.744852 0
M  V30 2292 H 223.209 -1.23848 -2.71485 0
M  V30 2293 C 221.958 0.374833 -3.45674 0
M  V30 2294 H 221.281 -0.311474 -3.98585 0
M  V30 2295 H 222.721 0.70903 -4.1803 0
M  V30 2296 C 221.18 1.57963 -2.97572 0
M  V30 2297 O 221.71 2.67886 -2.99333 0
M  V30 2298 N 219.916 1.42375 -2.53333 0
M  V30 2299 H 219.463 0.529466 -2.521 0
M  V30 2300 H 219.421 2.23117 -2.21509 0
M  V30 2301 N 223.193 1.4272 -0.668489 0
M  V30 2302 C 224.604 1.84793 -0.266151 0
M  V30 2303 C 224.955 1.55959 1.19043 0
M  V30 2304 O 224.08 1.01622 1.91055 0
M  V30 2305 C 224.675 3.35436 -0.476271 0
M  V30 2306 C 223.234 3.76182 -0.128113 0
M  V30 2307 C 222.381 2.66344 -0.771777 0
M  V30 2308 H 225.332 1.32656 -0.871098 0
M  V30 2309 H 225.353 3.79515 0.273561 0
M  V30 2310 H 224.865 3.5639 -1.53647 0
M  V30 2311 H 222.966 3.60836 0.928891 0
M  V30 2312 H 223.079 4.75766 -0.564231 0
M  V30 2313 H 221.443 2.53885 -0.203652 0
M  V30 2314 H 222.226 2.90123 -1.83531 0
M  V30 2315 N 224.671 0.411399 1.52136 0
M  V30 2316 C 225.896 -0.165538 2.06738 0
M  V30 2317 C 226.321 -1.379 1.27926 0
M  V30 2318 O 225.679 -1.78628 0.310114 0
M  V30 2319 C 225.727 -0.492124 3.57226 0
M  V30 2320 O 224.831 -1.58276 3.80818 0
M  V30 2321 H 224.172 -0.0132132 0.663869 0
M  V30 2322 H 226.702 0.585253 1.96051 0
M  V30 2323 H 226.712 -0.750104 4.01045 0
M  V30 2324 H 225.387 0.394922 4.14021 0
M  V30 2325 H 223.964 -1.31677 3.48877 0
M  V30 2326 N 226.149 -1.5696 0.141893 0
M  V30 2327 C 227.059 -2.20066 -0.812905 0
M  V30 2328 C 228.075 -1.18344 -1.27557 0
M  V30 2329 O 229.251 -1.50902 -1.33381 0
M  V30 2330 C 226.316 -2.80583 -2.03652 0
M  V30 2331 C 225.377 -3.97414 -1.62359 0
M  V30 2332 C 224.61 -4.55036 -2.78887 0
M  V30 2333 O 224.833 -4.11538 -3.94959 0
M  V30 2334 O 223.767 -5.45376 -2.54653 0
M  V30 2335 H 227.593 -3.02157 -0.305746 0
M  V30 2336 H 225.178 -1.49159 -0.0848799 0
M  V30 2337 H 227.06 -3.19067 -2.75272 0
M  V30 2338 H 225.735 -2.01508 -2.5333 0
M  V30 2339 H 224.642 -3.63656 -0.877775 0
M  V30 2340 H 225.975 -4.77994 -1.17401 0
M  V30 2341 N 227.627 0.131896 -1.57047 0
M  V30 2342 C 228.557 1.16384 -2.02428 0
M  V30 2343 C 229.538 1.43936 -0.90644 0
M  V30 2344 O 230.723 1.54599 -1.17528 0
M  V30 2345 C 227.853 2.49328 -2.4177 0
M  V30 2346 C 226.807 2.36266 -3.56879 0
M  V30 2347 C 226.133 3.74057 -3.8208 0
M  V30 2348 C 227.433 1.834 -4.89042 0
M  V30 2349 H 229.127 0.786433 -2.88887 0
M  V30 2350 H 226.673 0.376855 -1.38981 0
M  V30 2351 H 228.626 3.21759 -2.7212 0
M  V30 2352 H 227.35 2.88934 -1.52266 0
M  V30 2353 H 226.009 1.66286 -3.26718 0
M  V30 2354 H 225.657 4.11125 -2.89803 0
M  V30 2355 H 225.357 3.66174 -4.59554 0
M  V30 2356 H 226.881 4.48012 -4.1487 0
M  V30 2357 H 228.295 2.45636 -5.18011 0
M  V30 2358 H 226.692 1.8637 -5.70426 0
M  V30 2359 H 227.762 0.790662 -4.7841 0
M  V30 2360 N 229.106 1.52395 0.401703 0
M  V30 2361 C 230.383 1.57387 1.16141 0
M  V30 2362 C 230.763 0.359359 2.08019 0
M  V30 2363 O 230.111 -0.65326 2.18963 0
M  V30 2364 C 230.321 2.90631 1.93221 0
M  V30 2365 C 231.669 3.43904 2.49028 0
M  V30 2366 O 232.693 2.92421 2.03393 0
M  V30 2367 O 231.552 4.33823 3.32356 0
M  V30 2368 H 228.646 0.634262 0.530698 0
M  V30 2369 H 231.192 1.64725 0.407883 0
M  V30 2370 H 229.964 3.70473 1.25958 0
M  V30 2371 H 229.587 2.8662 2.75563 0
M  V30 2372 N 230.584 -0.659388 1.43143 0
M  V30 2373 C 231.494 -1.80167 1.50256 0
M  V30 2374 C 232.51 -1.69571 0.390106 0
M  V30 2375 O 233.686 -1.90849 0.643319 0
M  V30 2376 C 230.751 -3.16409 1.41725 0
M  V30 2377 C 229.812 -3.38848 2.63591 0
M  V30 2378 C 229.045 -4.68591 2.55458 0
M  V30 2379 O 229.268 -5.47532 1.59891 0
M  V30 2380 O 228.202 -4.92614 3.45854 0
M  V30 2381 H 232.028 -1.77121 2.46702 0
M  V30 2382 H 229.613 -0.817092 1.25076 0
M  V30 2383 H 231.495 -3.9768 1.39387 0
M  V30 2384 H 230.17 -3.20059 0.484118 0
M  V30 2385 H 229.077 -2.57366 2.71502 0
M  V30 2386 H 230.41 -3.4004 3.55856 0
M  V30 2387 N 232.062 -1.29571 -0.897171 0
M  V30 2388 C 232.992 -1.17473 -2.01798 0
M  V30 2389 C 233.973 -0.068323 -1.69963 0
M  V30 2390 O 235.158 -0.248239 -1.92607 0
M  V30 2391 C 232.288 -0.853099 -3.36659 0
M  V30 2392 C 231.242 -1.9161 -3.82713 0
M  V30 2393 C 230.568 -1.44773 -5.14728 0
M  V30 2394 C 231.868 -3.32535 -4.02763 0
M  V30 2395 H 233.562 -2.11237 -2.12177 0
M  V30 2396 H 231.108 -1.01699 -1.01948 0
M  V30 2397 H 233.061 -0.755165 -4.14578 0
M  V30 2398 H 231.785 0.120236 -3.26379 0
M  V30 2399 H 230.444 -2.00346 -3.07013 0
M  V30 2400 H 230.092 -0.462995 -5.00865 0
M  V30 2401 H 229.792 -2.15865 -5.46513 0
M  V30 2402 H 231.316 -1.36334 -5.95185 0
M  V30 2403 H 232.73 -3.26626 -4.71156 0
M  V30 2404 H 231.127 -4.01607 -4.45905 0
M  V30 2405 H 232.197 -3.75326 -3.07016 0
M  V30 2406 N 233.54 1.10788 -1.12088 0
M  V30 2407 C 234.473 2.16237 -0.729168 0
M  V30 2408 C 235.451 1.60207 0.277921 0
M  V30 2409 O 236.635 1.87707 0.172737 0
M  V30 2410 C 233.762 3.38609 -0.0786848 0
M  V30 2411 C 232.808 4.13322 -1.05201 0
M  V30 2412 S 233.641 4.69371 -2.57781 0
M  V30 2413 C 234.797 5.95058 -1.94053 0
M  V30 2414 H 235.03 2.4913 -1.62239 0
M  V30 2415 H 232.563 1.22519 -0.939603 0
M  V30 2416 H 234.521 4.09473 0.290254 0
M  V30 2417 H 233.182 3.03962 0.791593 0
M  V30 2418 H 232.375 5.01051 -0.544433 0
M  V30 2419 H 231.977 3.48251 -1.36371 0
M  V30 2420 H 234.269 6.65278 -1.28107 0
M  V30 2421 H 235.212 6.50472 -2.79807 0
M  V30 2422 H 235.62 5.46918 -1.39787 0
M  V30 2423 N 235.018 0.912232 1.28515 0
M  V30 2424 C 236.243 0.559774 1.99703 0
M  V30 2425 C 236.668 -0.851393 1.67729 0
M  V30 2426 O 236.026 -1.56875 0.908834 0
M  V30 2427 C 236.074 0.773874 3.52198 0
M  V30 2428 O 235.178 -0.167842 4.12058 0
M  V30 2429 H 234.519 0.21723 0.627461 0
M  V30 2430 H 237.049 1.22725 1.63706 0
M  V30 2431 H 237.059 0.683386 4.02236 0
M  V30 2432 H 235.734 1.80261 3.74805 0
M  V30 2433 H 234.311 -0.0287509 3.72889 0
M  V30 2434 N 236.496 -1.42363 0.676048 0
M  V30 2435 C 237.406 -2.346 -0.00153389 0
M  V30 2436 C 238.422 -1.5516 -0.787485 0
M  V30 2437 O 239.598 -1.87723 -0.729521 0
M  V30 2438 C 236.663 -3.33705 -0.940298 0
M  V30 2439 C 235.724 -4.29042 -0.148739 0
M  V30 2440 C 234.957 -5.23413 -1.04279 0
M  V30 2441 O 235.18 -5.22749 -2.28232 0
M  V30 2442 O 234.114 -5.99795 -0.502925 0
M  V30 2443 H 237.94 -2.94082 0.758268 0
M  V30 2444 H 235.525 -1.42888 0.436289 0
M  V30 2445 H 237.407 -3.94586 -1.47917 0
M  V30 2446 H 236.082 -2.76695 -1.67993 0
M  V30 2447 H 234.989 -3.71571 0.43427 0
M  V30 2448 H 236.322 -4.89097 0.551805 0
M  V30 2449 N 237.974 -0.419461 -1.51915 0
M  V30 2450 C 238.884 0.407528 -2.31033 0
M  V30 2451 C 239.9 1.04413 -1.3919 0
M  V30 2452 O 241.076 1.0434 -1.72265 0
M  V30 2453 C 238.141 1.50365 -3.12396 0
M  V30 2454 C 237.202 0.889029 -4.19994 0
M  V30 2455 C 236.435 1.93291 -4.97468 0
M  V30 2456 O 236.658 3.15259 -4.75361 0
M  V30 2457 O 235.592 1.53339 -5.8204 0
M  V30 2458 H 239.418 -0.237865 -3.02767 0
M  V30 2459 H 237.003 -0.182413 -1.48282 0
M  V30 2460 H 238.885 2.13975 -3.63032 0
M  V30 2461 H 237.56 2.13345 -2.43445 0
M  V30 2462 H 236.467 0.215353 -3.7348 0
M  V30 2463 H 237.8 0.302991 -4.91267 0
M  V30 2464 N 239.452 1.56882 -0.150215 0
M  V30 2465 C 240.415 2.1573 0.774157 0
M  V30 2466 C 241.415 1.0999 1.17298 0
M  V30 2467 O 242.605 1.35613 1.09338 0
M  V30 2468 C 239.737 2.72302 2.05096 0
M  V30 2469 H 240.93 2.98752 0.262201 0
M  V30 2470 H 238.483 1.55985 0.099248 0
M  V30 2471 H 239.218 1.92956 2.6065 0
M  V30 2472 H 239.003 3.49665 1.77416 0
M  V30 2473 H 240.493 3.17632 2.71109 0
M  V30 2474 N 240.93 -0.123565 1.57115 0
M  V30 2475 C 242.16 -0.845233 1.88519 0
M  V30 2476 C 242.568 -1.74168 0.739064 0
M  V30 2477 O 241.911 -1.81244 -0.299355 0
M  V30 2478 C 241.973 -1.73452 3.14888 0
M  V30 2479 C 241.637 -1.01285 4.45635 0
M  V30 2480 C 242.634 -0.355774 5.18681 0
M  V30 2481 C 240.319 -0.99538 4.92339 0
M  V30 2482 C 242.313 0.309114 6.3665 0
M  V30 2483 C 240 -0.32669 6.10226 0
M  V30 2484 C 240.998 0.324406 6.82229 0
M  V30 2485 O 240.686 0.982437 7.97874 0
M  V30 2486 H 240.418 -0.248534 0.628655 0
M  V30 2487 H 242.972 -0.113907 2.05084 0
M  V30 2488 H 241.202 -2.50737 2.94394 0
M  V30 2489 H 242.891 -2.33021 3.32349 0
M  V30 2490 H 243.657 -0.360918 4.83655 0
M  V30 2491 H 239.536 -1.49159 4.36202 0
M  V30 2492 H 243.08 0.8179 6.92789 0
M  V30 2493 H 238.977 -0.319294 6.4471 0
M  V30 2494 H 239.745 0.886454 8.13686 0
M  V30 2495 N 242.408 -1.52605 -0.393616 0
M  V30 2496 C 243.318 -1.79971 -1.50492 0
M  V30 2497 C 244.334 -0.686181 -1.59899 0
M  V30 2498 O 245.51 -0.973274 -1.76322 0
M  V30 2499 C 242.575 -1.95867 -2.86072 0
M  V30 2500 C 241.636 -3.19781 -2.86424 0
M  V30 2501 C 240.869 -3.34909 -4.15538 0
M  V30 2502 O 241.092 -2.54948 -5.10253 0
M  V30 2503 O 240.026 -4.28141 -4.23059 0
M  V30 2504 H 243.852 -2.74328 -1.30299 0
M  V30 2505 H 241.437 -1.3764 -0.581005 0
M  V30 2506 H 243.319 -2.08056 -3.66457 0
M  V30 2507 H 241.994 -1.04699 -3.063 0
M  V30 2508 H 240.901 -3.13038 -2.04837 0
M  V30 2509 H 242.234 -4.1078 -2.71147 0
M  V30 2510 N 243.887 0.651787 -1.4349 0
M  V30 2511 C 244.834 1.76462 -1.4876 0
M  V30 2512 C 245.804 1.62641 -0.337189 0
M  V30 2513 O 246.989 1.82864 -0.544544 0
M  V30 2514 C 244.129 3.14623 -1.41796 0
M  V30 2515 C 243.242 3.39568 -2.67053 0
M  V30 2516 C 242.377 4.67585 -2.52068 0
M  V30 2517 C 241.416 4.85639 -3.72587 0
M  V30 2518 N 240.553 6.04915 -3.56402 0
M  V30 2519 H 245.393 1.71293 -2.43849 0
M  V30 2520 H 242.93 0.835889 -1.21043 0
M  V30 2521 H 244.888 3.94496 -1.35753 0
M  V30 2522 H 243.518 3.18859 -0.50288 0
M  V30 2523 H 242.57 2.53783 -2.8337 0
M  V30 2524 H 243.882 3.48795 -3.56572 0
M  V30 2525 H 243.036 5.55586 -2.4374 0
M  V30 2526 H 241.775 4.60681 -1.60075 0
M  V30 2527 H 240.78 3.96073 -3.81321 0
M  V30 2528 H 242.005 4.94372 -4.65589 0
M  V30 2529 H 239.951 5.9914 -2.67146 0
M  V30 2530 H 239.868 6.15106 -4.39524 0
M  V30 2531 H 241.136 6.95533 -3.51929 0
M  V30 2532 N 245.365 1.30045 0.890287 0
M  V30 2533 C 246.595 1.21296 1.67245 0
M  V30 2534 C 247.003 -0.227471 1.87828 0
M  V30 2535 O 246.346 -1.16296 1.422 0
M  V30 2536 C 246.408 1.86519 3.07329 0
M  V30 2537 C 246.072 3.35837 3.09939 0
M  V30 2538 C 247.069 4.31915 2.89389 0
M  V30 2539 C 244.754 3.77196 3.31706 0
M  V30 2540 C 246.748 5.67325 2.90552 0
M  V30 2541 C 244.435 5.12725 3.32499 0
M  V30 2542 C 245.433 6.076 3.11947 0
M  V30 2543 O 245.121 7.40655 3.12547 0
M  V30 2544 H 244.853 0.4211 0.528821 0
M  V30 2545 H 247.407 1.72111 1.12103 0
M  V30 2546 H 245.637 1.30228 3.64112 0
M  V30 2547 H 247.326 1.71963 3.67673 0
M  V30 2548 H 248.092 4.01294 2.72375 0
M  V30 2549 H 243.971 3.03796 3.4674 0
M  V30 2550 H 247.515 6.41354 2.74429 0
M  V30 2551 H 243.412 5.42988 3.49047 0
M  V30 2552 H 244.18 7.49577 3.28749 0
M  V30 2553 N 246.843 -1.10192 1.12674 0
M  V30 2554 C 248.092 -1.81573 0.8783 0
M  V30 2555 C 248.405 -1.86249 -0.597557 0
M  V30 2556 O 249.611 -2.5386 -0.962681 0
M  V30 2557 C 248.067 -3.26149 1.52167 0
M  V30 2558 C 247.675 -3.29763 3.03249 0
M  V30 2559 C 249.419 -4.0234 1.3536 0
M  V30 2560 C 247.326 -4.68815 3.60508 0
M  V30 2561 H 246.256 -0.680394 0.324931 0
M  V30 2562 H 248.907 -1.23902 1.35353 0
M  V30 2563 H 247.289 -3.83832 0.974104 0
M  V30 2564 H 248.463 -2.8189 3.6452 0
M  V30 2565 H 246.778 -2.67059 3.19481 0
M  V30 2566 H 249.375 -5.05058 1.75559 0
M  V30 2567 H 249.718 -4.15235 0.297554 0
M  V30 2568 H 250.251 -3.51079 1.87052 0
M  V30 2569 H 246.99 -4.61121 4.65884 0
M  V30 2570 H 246.51 -5.17045 3.04014 0
M  V30 2571 H 248.189 -5.37785 3.59717 0
M  V30 2572 N 248.321 -0.919034 -1.28029 0
M  V30 2573 C 249.268 -0.410005 -2.27129 0
M  V30 2574 C 250.238 0.518405 -1.57803 0
M  V30 2575 O 251.423 0.439451 -1.8567 0
M  V30 2576 C 248.563 0.339054 -3.4343 0
M  V30 2577 C 247.676 -0.622468 -4.27492 0
M  V30 2578 C 246.811 0.145567 -5.31001 0
M  V30 2579 C 245.85 -0.809226 -6.06727 0
M  V30 2580 N 244.987 -0.0743728 -7.02061 0
M  V30 2581 H 249.827 -1.26011 -2.70047 0
M  V30 2582 H 247.364 -0.632663 -1.328 0
M  V30 2583 H 249.322 0.789586 -4.0966 0
M  V30 2584 H 247.952 1.15346 -3.01488 0
M  V30 2585 H 247.004 -1.19153 -3.61257 0
M  V30 2586 H 248.316 -1.35252 -4.80113 0
M  V30 2587 H 247.47 0.656417 -6.03139 0
M  V30 2588 H 246.209 0.908643 -4.79161 0
M  V30 2589 H 245.214 -1.3314 -5.33436 0
M  V30 2590 H 246.439 -1.57194 -6.60656 0
M  V30 2591 H 244.385 0.670616 -6.52563 0
M  V30 2592 H 244.302 -0.744157 -7.52329 0
M  V30 2593 H 245.57 0.416109 -7.78389 0
M  V30 2594 N 249.799 1.42003 -0.683588 0
M  V30 2595 C 251.024 2.06265 -0.216647 0
M  V30 2596 C 251.449 1.51059 1.12083 0
M  V30 2597 O 250.807 0.632638 1.69904 0
M  V30 2598 C 250.855 3.60191 -0.171759 0
M  V30 2599 O 249.959 4.03396 0.857069 0
M  V30 2600 H 249.3 0.65502 -0.108834 0
M  V30 2601 H 251.83 1.81982 -0.935077 0
M  V30 2602 H 251.84 4.08 0.0014303 0
M  V30 2603 H 250.515 3.99743 -1.14796 0
M  V30 2604 H 249.092 3.67117 0.654208 0
M  V30 2605 N 251.277 0.427512 1.51691 0
M  V30 2606 C 252.526 -0.143679 2.01188 0
M  V30 2607 C 252.839 -1.44642 1.31674 0
M  V30 2608 O 254.045 -2.09997 1.72086 0
M  V30 2609 C 252.501 -0.306602 3.58592 0
M  V30 2610 C 252.109 0.985125 4.37035 0
M  V30 2611 C 253.853 -0.832091 4.16265 0
M  V30 2612 C 251.76 0.788382 5.86122 0
M  V30 2613 H 250.69 -0.0574701 0.751807 0
M  V30 2614 H 253.341 0.555772 1.74881 0
M  V30 2615 H 251.723 -1.06882 3.81303 0
M  V30 2616 H 252.897 1.75492 4.26074 0
M  V30 2617 H 251.212 1.4384 3.90767 0
M  V30 2618 H 253.809 -0.995617 5.25349 0
M  V30 2619 H 254.152 -1.81186 3.74803 0
M  V30 2620 H 254.685 -0.128444 3.97593 0
M  V30 2621 H 251.424 1.74025 6.31978 0
M  V30 2622 H 250.944 0.0582143 5.99772 0
M  V30 2623 H 252.623 0.437722 6.45518 0
M  V30 2624 N 252.755 -1.56801 0.158532 0
M  V30 2625 C 253.665 -2.20916 -0.789518 0
M  V30 2626 C 254.681 -1.1969 -1.26294 0
M  V30 2627 O 255.857 -1.52308 -1.31773 0
M  V30 2628 C 252.922 -2.82727 -2.00665 0
M  V30 2629 C 251.983 -3.99114 -1.58134 0
M  V30 2630 C 251.216 -4.57968 -2.74045 0
M  V30 2631 O 251.439 -4.15704 -3.90572 0
M  V30 2632 O 250.373 -5.48047 -2.48855 0
M  V30 2633 H 254.199 -3.02464 -0.273681 0
M  V30 2634 H 251.784 -1.4924 -0.0690548 0
M  V30 2635 H 253.666 -3.21968 -2.71872 0
M  V30 2636 H 252.341 -2.04184 -2.51179 0
M  V30 2637 H 251.248 -3.64567 -0.839155 0
M  V30 2638 H 252.581 -4.79212 -1.12325 0
M  V30 2639 N 254.233 0.115231 -1.57178 0
M  V30 2640 C 255.143 1.15994 -2.03918 0
M  V30 2641 C 256.159 1.45103 -0.960268 0
M  V30 2642 O 257.335 1.56144 -1.27204 0
M  V30 2643 C 254.4 2.46568 -2.43732 0
M  V30 2644 C 253.461 2.24822 -3.65723 0
M  V30 2645 C 252.694 3.4917 -4.03629 0
M  V30 2646 O 252.917 4.56623 -3.41835 0
M  V30 2647 O 251.851 3.39949 -4.96708 0
M  V30 2648 H 255.677 0.793019 -2.93164 0
M  V30 2649 H 253.262 0.3263 -1.45793 0
M  V30 2650 H 255.144 3.23492 -2.70057 0
M  V30 2651 H 253.819 2.82726 -1.57631 0
M  V30 2652 H 252.726 1.45744 -3.44542 0
M  V30 2653 H 254.059 1.93566 -4.52541 0
M  V30 2654 O 255.75 1.59401 0.259507 0
M  V30 2655 H 256.441 1.71327 0.903706 0
M  V30 END ATOM
M  V30 BEGIN BOND
M  V30 END BOND
M  V30 END CTAB
M  END
$$$$
