drugbank_target|P06968 Deoxyuridine 5'-triphosphate nucleotidohydrolase (DB01965; DB02333; DB03413; DB03800)
 OpenBabel12092119533D

  0  0  0     0  0            999 V3000
M  V30 BEGIN CTAB
M  V30 COUNTS 2268 2290 0 0 0
M  V30 BEGIN ATOM
M  V30 1 H -0.908 1.98254 -0.117106 0
M  V30 2 N 0 1.576 0 0
M  V30 3 C 0.933 2.03868 1.02534 0
M  V30 4 C 1.911 0.928543 1.3348 0
M  V30 5 O 3.095 1.19667 1.45644 0
M  V30 6 C 0.222 2.43627 2.35294 0
M  V30 7 C -0.732 3.65373 2.2001 0
M  V30 8 S 0.101 5.13292 1.52614 0
M  V30 9 C 1.257 5.56322 2.86805 0
M  V30 10 H 1.49 2.90518 0.631377 0
M  V30 11 H -0.977 1.52953 0.210867 0
M  V30 12 H 0.981 2.67203 3.11629 0
M  V30 13 H -0.358 1.57376 2.7183 0
M  V30 14 H -1.165 3.90944 3.18086 0
M  V30 15 H -1.563 3.418 1.51819 0
M  V30 16 H 0.729 5.58782 3.83104 0
M  V30 17 H 1.672 6.56266 2.65933 0
M  V30 18 H 2.08 4.83886 2.90714 0
M  V30 19 N 1.4781 -0.272755 1.55222 0
M  V30 20 C 2.4251 -1.33716 1.88119 0
M  V30 21 C 3.3951 -1.49066 0.73271 0
M  V30 22 O 4.5801 -1.63469 0.984002 0
M  V30 23 C 1.7201 -2.69238 2.15882 0
M  V30 24 C 0.8331 -2.62108 3.43399 0
M  V30 25 C -0.0319 -3.89811 3.60861 0
M  V30 26 C -0.9929 -3.77193 4.8207 0
M  V30 27 N -1.8559 -4.9673 4.96189 0
M  V30 28 H 2.9841 -1.04962 2.78903 0
M  V30 29 H 0.5211 -0.507088 1.38083 0
M  V30 30 H 2.4791 -3.48089 2.29978 0
M  V30 31 H 1.1091 -2.96194 1.28331 0
M  V30 32 H 0.1611 -1.74967 3.37773 0
M  V30 33 H 1.4731 -2.48685 4.32386 0
M  V30 34 H 0.6271 -4.77103 3.74777 0
M  V30 35 H -0.6339 -4.06102 2.7006 0
M  V30 36 H -1.6289 -2.88284 4.68159 0
M  V30 37 H -0.4039 -3.62421 5.74307 0
M  V30 38 H -2.4579 -5.13431 4.08319 0
M  V30 39 H -2.5409 -4.85839 5.79221 0
M  V30 40 H -1.2729 -5.85594 5.1449 0
M  V30 41 N 2.9562 -1.48159 -0.537278 0
M  V30 42 C 3.9032 -1.62138 -1.64256 0
M  V30 43 C 4.8732 -0.463668 -1.59497 0
M  V30 44 O 6.0582 -0.686241 -1.78032 0
M  V30 45 C 3.1982 -1.66028 -3.02537 0
M  V30 46 C 2.3112 -2.92855 -3.17585 0
M  V30 47 C 1.4462 -2.87952 -4.46382 0
M  V30 48 C 0.4852 -4.09516 -4.54932 0
M  V30 49 N -0.3778 -4.02733 -5.75109 0
M  V30 50 H 4.4622 -2.56529 -1.51647 0
M  V30 51 H 1.9992 -1.27224 -0.738414 0
M  V30 52 H 3.9572 -1.66265 -3.82638 0
M  V30 53 H 2.5872 -0.751331 -3.13934 0
M  V30 54 H 1.6392 -3.02395 -2.30784 0
M  V30 55 H 2.9512 -3.82822 -3.19764 0
M  V30 56 H 2.1052 -2.8655 -5.34765 0
M  V30 57 H 0.8442 -1.95702 -4.46712 0
M  V30 58 H -0.1508 -4.11201 -3.64957 0
M  V30 59 H 1.0742 -5.02917 -4.56346 0
M  V30 60 H -0.9798 -3.13299 -5.76351 0
M  V30 61 H -1.0628 -4.86397 -5.78752 0
M  V30 62 H 0.2052 -4.05379 -6.65799 0
M  V30 63 N 4.4343 0.785586 -1.36625 0
M  V30 64 C 5.6833 1.53883 -1.30396 0
M  V30 65 C 5.9963 1.95271 0.113452 0
M  V30 66 O 7.2023 2.69858 0.298142 0
M  V30 67 C 5.6583 2.77808 -2.28802 0
M  V30 68 C 5.2663 2.43574 -3.75999 0
M  V30 69 C 7.0103 3.55783 -2.31558 0
M  V30 70 C 4.9173 3.63919 -4.66173 0
M  V30 71 H 3.8473 0.577678 -0.484566 0
M  V30 72 H 6.4983 0.861705 -1.62009 0
M  V30 73 H 4.8803 3.47339 -1.90188 0
M  V30 74 H 6.0543 1.81916 -4.23371 0
M  V30 75 H 4.3693 1.78803 -3.76056 0
M  V30 76 H 6.9663 4.45205 -2.96137 0
M  V30 77 H 7.3093 3.94644 -1.3252 0
M  V30 78 H 7.8423 2.93235 -2.68809 0
M  V30 79 H 4.5813 3.3015 -5.66287 0
M  V30 80 H 4.1013 4.2473 -4.23515 0
M  V30 81 H 5.7803 4.30901 -4.82632 0
M  V30 82 N 5.9124 1.20967 1.01018 0
M  V30 83 C 7.1894 0.93264 1.71934 0
M  V30 84 C 7.5694 -0.55692 2.03621 0
M  V30 85 O 6.9174 -1.52035 1.7058 0
M  V30 86 C 7.1274 1.81233 2.98254 0
M  V30 87 C 8.4754 2.05804 3.71389 0
M  V30 88 O 9.4994 1.78539 3.08225 0
M  V30 89 O 8.3584 2.51888 4.84989 0
M  V30 90 H 5.4524 0.349272 0.749625 0
M  V30 91 H 7.9984 1.31871 1.06808 0
M  V30 92 H 6.7704 2.82067 2.71208 0
M  V30 93 H 6.3934 1.42674 3.7112 0
M  V30 94 N 7.3905 -1.2043 1.01659 0
M  V30 95 C 8.6365 -1.90079 0.706963 0
M  V30 96 C 8.9695 -1.78648 -0.761474 0
M  V30 97 O 8.2445 -1.17069 -1.55323 0
M  V30 98 C 8.5275 -3.41469 1.14327 0
M  V30 99 C 8.3805 -3.61833 2.67201 0
M  V30 100 C 9.6995 -4.34261 0.714529 0
M  V30 101 H 6.8185 -0.690254 0.2583 0
M  V30 102 H 9.4605 -1.41826 1.26433 0
M  V30 103 H 7.6105 -3.82696 0.669056 0
M  V30 104 H 9.2825 -3.2986 3.22475 0
M  V30 105 H 7.5255 -3.05304 3.08175 0
M  V30 106 H 8.1965 -4.67955 2.92783 0
M  V30 107 H 10.6725 -4.00682 1.12221 0
M  V30 108 H 9.5485 -5.38806 1.04784 0
M  V30 109 H 9.8095 -4.40431 -0.383799 0
M  V30 110 N 8.8686 -0.792821 -1.36206 0
M  V30 111 C 9.8156 -0.191653 -2.30003 0
M  V30 112 C 10.7856 0.666453 -1.52143 0
M  V30 113 O 11.9706 0.61442 -1.80636 0
M  V30 114 C 9.1106 0.664848 -3.38635 0
M  V30 115 C 8.2236 -0.212175 -4.31479 0
M  V30 116 C 7.3586 0.651022 -5.27196 0
M  V30 117 C 6.3976 -0.227247 -6.11678 0
M  V30 118 N 5.5346 0.595127 -6.99573 0
M  V30 119 H 10.3746 -0.996978 -2.80828 0
M  V30 120 H 7.9116 -0.503206 -1.38225 0
M  V30 121 H 9.8696 1.17645 -4.00269 0
M  V30 122 H 8.4996 1.43557 -2.89122 0
M  V30 123 H 7.5516 -0.841777 -3.70969 0
M  V30 124 H 8.8636 -0.888751 -4.90818 0
M  V30 125 H 8.0176 1.2283 -5.94136 0
M  V30 126 H 6.7566 1.36121 -4.68319 0
M  V30 127 H 5.7616 -0.816904 -5.43697 0
M  V30 128 H 6.9866 -0.93509 -6.72631 0
M  V30 129 H 4.9326 1.28955 -6.432 0
M  V30 130 H 4.8496 -0.0236952 -7.55996 0
M  V30 131 H 6.1176 1.15613 -7.70879 0
M  V30 132 N 10.3467 1.47872 -0.545128 0
M  V30 133 C 11.5957 2.01695 -0.0145033 0
M  V30 134 C 11.9087 1.42609 1.33873 0
M  V30 135 O 13.1147 1.88021 1.95858 0
M  V30 136 C 11.5707 3.59892 0.0245068 0
M  V30 137 C 11.1787 4.27966 -1.32475 0
M  V30 138 C 12.9227 4.21507 0.50316 0
M  V30 139 C 10.8297 5.78136 -1.2455 0
M  V30 140 H 9.7597 0.753998 -0.00165172 0
M  V30 141 H 12.4107 1.69985 -0.691175 0
M  V30 142 H 10.7927 3.88509 0.766575 0
M  V30 143 H 11.9667 4.11003 -2.08357 0
M  V30 144 H 10.2817 3.78286 -1.74036 0
M  V30 145 H 12.8787 5.31538 0.580656 0
M  V30 146 H 13.2217 3.87855 1.51243 0
M  V30 147 H 13.7547 3.97376 -0.183681 0
M  V30 148 H 10.4937 6.16388 -2.23039 0
M  V30 149 H 10.0137 5.97469 -0.528282 0
M  V30 150 H 11.6927 6.40099 -0.942488 0
M  V30 151 N 11.8248 0.280983 1.55075 0
M  V30 152 C 12.7548 -0.597469 2.25727 0
M  V30 153 C 13.7358 -1.15417 1.24952 0
M  V30 154 O 14.9208 -1.18722 1.53684 0
M  V30 155 C 12.0508 -1.7789 2.98283 0
M  V30 156 C 11.0048 -1.35347 4.06036 0
M  V30 157 C 10.3308 -2.61846 4.66198 0
M  V30 158 C 11.6308 -0.499354 5.19907 0
M  V30 159 H 13.3248 -0.00824265 2.99399 0
M  V30 160 H 10.8708 -0.0025244 1.44 0
M  V30 161 H 12.8238 -2.39937 3.46422 0
M  V30 162 H 11.5478 -2.39405 2.22155 0
M  V30 163 H 10.2068 -0.756156 3.58717 0
M  V30 164 H 9.8548 -3.21632 3.86732 0
M  V30 165 H 9.5548 -2.3409 5.38958 0
M  V30 166 H 11.0788 -3.24732 5.1709 0
M  V30 167 H 12.4928 -1.02498 5.64063 0
M  V30 168 H 10.8898 -0.316424 5.99265 0
M  V30 169 H 11.9598 0.480459 4.82514 0
M  V30 170 N 13.3029 -1.57598 0.00835791 0
M  V30 171 C 14.5799 -1.82172 -0.712235 0
M  V30 172 C 14.9599 -0.887873 -1.9152 0
M  V30 173 O 14.3079 0.06146 -2.28417 0
M  V30 174 C 14.5179 -3.30875 -1.11008 0
M  V30 175 C 15.8659 -3.96826 -1.51044 0
M  V30 176 O 16.8899 -3.35248 -1.20364 0
M  V30 177 O 15.7489 -5.05318 -2.08125 0
M  V30 178 H 12.8429 -0.750435 -0.347529 0
M  V30 179 H 15.3889 -1.69665 0.0344523 0
M  V30 180 H 14.1609 -3.90481 -0.252982 0
M  V30 181 H 13.7839 -3.48412 -1.9156 0
M  V30 182 N 14.781 0.264519 -1.55364 0
M  V30 183 C 16.192 0.834936 -1.6699 0
M  V30 184 C 16.543 1.86718 -0.602552 0
M  V30 185 O 15.668 2.14899 0.254425 0
M  V30 186 C 16.263 1.5212 -3.02729 0
M  V30 187 C 14.822 2.03954 -3.16354 0
M  V30 188 C 13.969 0.884498 -2.62815 0
M  V30 189 H 16.92 0.0406869 -1.58648 0
M  V30 190 H 16.941 2.38853 -2.96191 0
M  V30 191 H 16.453 0.769668 -3.80392 0
M  V30 192 H 14.554 2.82041 -2.43482 0
M  V30 193 H 14.667 2.24902 -4.23032 0
M  V30 194 H 13.031 1.2802 -2.20188 0
M  V30 195 H 13.814 0.14634 -3.42988 0
M  V30 196 N 16.2591 1.48442 0.529413 0
M  V30 197 C 17.6751 1.34575 0.858004 0
M  V30 198 C 17.8751 0.3572 1.98309 0
M  V30 199 O 16.9311 -0.221379 2.51528 0
M  V30 200 C 18.2441 2.74617 1.22499 0
M  V30 201 C 19.7921 2.83109 1.33484 0
M  V30 202 C 20.2671 4.23854 1.73526 0
M  V30 203 N 21.7581 4.2653 1.80628 0
M  V30 204 C 22.4931 5.32372 2.12997 0
M  V30 205 N 21.9891 6.48491 2.43786 0
M  V30 206 N 23.7821 5.19766 2.14008 0
M  V30 207 H 15.9331 2.1133 -0.212925 0
M  V30 208 H 18.1961 0.947439 -0.0326199 0
M  V30 209 H 17.9021 3.4852 0.471905 0
M  V30 210 H 17.7761 3.08177 2.17501 0
M  V30 211 H 20.1631 2.09462 2.0787 0
M  V30 212 H 20.2441 2.53168 0.366027 0
M  V30 213 H 19.8881 4.98018 0.997013 0
M  V30 214 H 19.8181 4.5124 2.71459 0
M  V30 215 H 22.3091 3.42772 1.59108 0
M  V30 216 H 22.6221 7.24993 2.67592 0
M  V30 217 H 20.9671 6.51765 2.41304 0
M  V30 218 H 24.1581 4.28066 1.89412 0
M  V30 219 H 24.3311 6.02354 2.38902 0
M  V30 220 N 17.7372 -0.778329 1.37039 0
M  V30 221 C 18.9832 -1.53892 1.32079 0
M  V30 222 C 19.3162 -1.9396 -0.0965386 0
M  V30 223 O 18.5912 -1.63568 -1.05242 0
M  V30 224 C 18.8742 -2.80847 2.25382 0
M  V30 225 C 18.7272 -2.47076 3.75864 0
M  V30 226 C 20.0462 -3.82741 2.1725 0
M  V30 227 H 17.1652 -0.558303 0.48111 0
M  V30 228 H 19.8072 -0.893397 1.67685 0
M  V30 229 H 17.9572 -3.35931 1.95148 0
M  V30 230 H 19.6292 -1.97957 4.16666 0
M  V30 231 H 17.8722 -1.79863 3.94755 0
M  V30 232 H 18.5432 -3.37798 4.36574 0
M  V30 233 H 21.0192 -3.37133 2.43887 0
M  V30 234 H 19.8952 -4.69303 2.84686 0
M  V30 235 H 20.1562 -4.2652 1.16331 0
M  V30 236 N 19.2153 -1.21501 -1.00376 0
M  V30 237 C 20.4633 -1.03095 -1.73827 0
M  V30 238 C 20.7843 0.436341 -1.90055 0
M  V30 239 O 20.0543 1.31466 -1.45236 0
M  V30 240 H 18.6343 -0.378487 -0.644016 0
M  V30 241 H 21.2963 -1.52831 -1.20949 0
M  V30 242 H 20.3923 -1.49991 -2.73695 0
M  V30 243 N 20.6934 1.19889 -1.02296 0
M  V30 244 C 21.6404 2.22901 -0.598651 0
M  V30 245 C 22.6104 1.61588 0.384521 0
M  V30 246 O 23.7954 1.88697 0.282522 0
M  V30 247 C 20.9354 3.45063 0.0504476 0
M  V30 248 C 20.0484 4.20783 -0.978053 0
M  V30 249 C 19.1834 5.30356 -0.299338 0
M  V30 250 C 18.2224 5.97826 -1.31416 0
M  V30 251 N 17.3594 6.98975 -0.661667 0
M  V30 252 H 22.1994 2.58554 -1.48169 0
M  V30 253 H 19.7364 1.27039 -0.741584 0
M  V30 254 H 21.6944 4.14831 0.443971 0
M  V30 255 H 20.3244 3.10084 0.897097 0
M  V30 256 H 19.3764 3.50018 -1.48969 0
M  V30 257 H 20.6884 4.67109 -1.74958 0
M  V30 258 H 19.8424 6.06516 0.149347 0
M  V30 259 H 18.5814 4.85084 0.504445 0
M  V30 260 H 17.5864 5.20422 -1.77317 0
M  V30 261 H 18.8114 6.45183 -2.11933 0
M  V30 262 H 16.7574 6.55886 0.122132 0
M  V30 263 H 16.6744 7.43461 -1.37117 0
M  V30 264 H 17.9424 7.7914 -0.236785 0
M  V30 265 N 22.1715 0.800033 1.35784 0
M  V30 266 C 23.0815 0.207204 2.33683 0
M  V30 267 C 24.0975 -0.64631 1.61551 0
M  V30 268 O 25.2735 -0.559604 1.93469 0
M  V30 269 C 22.3385 -0.639659 3.40748 0
M  V30 270 C 21.3995 0.233585 4.28664 0
M  V30 271 C 20.6325 -0.572954 5.30616 0
M  V30 272 O 20.8555 -1.80816 5.40982 0
M  V30 273 O 19.7895 0.0327285 6.01891 0
M  V30 274 H 23.6155 1.01692 2.86169 0
M  V30 275 H 21.2005 0.561691 1.38439 0
M  V30 276 H 23.0825 -1.12223 4.06182 0
M  V30 277 H 21.7575 -1.42708 2.90544 0
M  V30 278 H 20.6645 0.763147 3.66233 0
M  V30 279 H 21.9975 0.984784 4.82248 0
M  V30 280 N 23.6496 -1.47581 0.552962 0
M  V30 281 C 24.8966 -2.02482 0.0273243 0
M  V30 282 C 25.2246 -1.42776 -1.32081 0
M  V30 283 O 24.4796 -0.571393 -1.87173 0
M  V30 284 C 24.7786 -3.57199 -0.119728 0
M  V30 285 C 24.4446 -4.35804 1.15697 0
M  V30 286 C 23.1066 -4.57 1.50681 0
M  V30 287 C 25.4586 -4.81167 2.00319 0
M  V30 288 C 22.7866 -5.20807 2.70142 0
M  V30 289 C 25.1386 -5.46293 3.18978 0
M  V30 290 C 23.8026 -5.65722 3.54281 0
M  V30 291 H 23.0726 -0.740933 0.00999866 0
M  V30 292 H 25.7196 -1.77302 0.72362 0
M  V30 293 H 24.0246 -3.81348 -0.89896 0
M  V30 294 H 25.7216 -3.97324 -0.541718 0
M  V30 295 H 22.3116 -4.19582 0.874561 0
M  V30 296 H 26.4956 -4.64574 1.74599 0
M  V30 297 H 21.7516 -5.34045 2.97668 0
M  V30 298 H 25.9256 -5.80407 3.84838 0
M  V30 299 H 23.5526 -6.14936 4.46942 0
M  V30 300 N 25.1277 -0.289203 -1.54924 0
M  V30 301 C 26.5387 0.205791 -1.85562 0
M  V30 302 C 26.8897 1.54351 -1.2112 0
M  V30 303 O 26.0147 2.10435 -0.504601 0
M  V30 304 C 26.6097 0.380177 -3.3666 0
M  V30 305 C 25.1687 0.819395 -3.67373 0
M  V30 306 C 24.3157 -0.079159 -2.77187 0
M  V30 307 H 27.2667 -0.510577 -1.50262 0
M  V30 308 H 27.2877 1.21659 -3.60526 0
M  V30 309 H 26.7997 -0.593589 -3.83534 0
M  V30 310 H 24.9007 1.80413 -3.26009 0
M  V30 311 H 25.0137 0.646957 -4.74712 0
M  V30 312 H 23.3777 0.439565 -2.50878 0
M  V30 313 H 24.1607 -1.04906 -3.26878 0
M  V30 314 N 26.6058 1.57591 -0.0167156 0
M  V30 315 C 27.5358 2.12496 0.967858 0
M  V30 316 C 28.5168 1.03807 1.34752 0
M  V30 317 O 29.7018 1.31577 1.42833 0
M  V30 318 C 26.8318 2.64194 2.25431 0
M  V30 319 C 25.7858 3.77559 2.01576 0
M  V30 320 C 25.1118 4.15636 3.36379 0
M  V30 321 C 26.4118 5.04151 1.36489 0
M  V30 322 H 28.1058 2.95013 0.510643 0
M  V30 323 H 25.6518 1.41915 0.244181 0
M  V30 324 H 27.6048 3.01236 2.94678 0
M  V30 325 H 26.3288 1.78821 2.73296 0
M  V30 326 H 24.9878 3.40937 1.34751 0
M  V30 327 H 24.6358 3.27263 3.81979 0
M  V30 328 H 24.3358 4.92022 3.21229 0
M  V30 329 H 25.8598 4.5525 4.06915 0
M  V30 330 H 27.2738 5.38857 1.95718 0
M  V30 331 H 25.6708 5.85453 1.31776 0
M  V30 332 H 26.7408 4.83733 0.336219 0
M  V30 333 N 28.0839 -0.256276 1.55502 0
M  V30 334 C 29.4949 -0.826068 1.67431 0
M  V30 335 C 29.8459 -1.86396 0.612446 0
M  V30 336 O 28.9709 -2.15031 -0.243025 0
M  V30 337 C 29.5659 -1.50512 3.03532 0
M  V30 338 C 28.1249 -2.02273 3.17431 0
M  V30 339 C 27.2719 -0.870548 2.63281 0
M  V30 340 H 30.2229 -0.0322728 1.58667 0
M  V30 341 H 30.2439 -2.37279 2.97454 0
M  V30 342 H 29.7559 -0.749484 3.80794 0
M  V30 343 H 27.8569 -2.80746 2.44974 0
M  V30 344 H 27.9699 -2.22655 4.24219 0
M  V30 345 H 26.3339 -1.26851 2.20864 0
M  V30 346 H 27.1169 -0.128149 3.43061 0
M  V30 347 N 29.562 -1.4872 -0.521534 0
M  V30 348 C 30.79 -1.60843 -1.30142 0
M  V30 349 C 31.205 -0.271897 -1.86832 0
M  V30 350 O 30.562 0.739969 -1.66825 0
M  V30 351 C 30.613 -2.66155 -2.4463 0
M  V30 352 O 30.334 -3.94623 -1.90275 0
M  V30 353 C 31.835 -2.88795 -3.36322 0
M  V30 354 H 29.055 -0.542075 -0.395468 0
M  V30 355 H 31.599 -1.94609 -0.628285 0
M  V30 356 H 29.754 -2.35224 -3.07812 0
M  V30 357 H 30.168 -4.52468 -2.65279 0
M  V30 358 H 31.642 -3.66264 -4.12983 0
M  V30 359 H 32.119 -1.97934 -3.9207 0
M  V30 360 H 32.725 -3.21063 -2.78924 0
M  V30 361 N 31.0401 0.771051 -1.3745 0
M  V30 362 C 32.2701 1.55789 -1.35696 0
M  V30 363 C 32.6781 1.89107 0.0594523 0
M  V30 364 O 32.0211 1.51984 1.03183 0
M  V30 365 C 32.0831 2.89515 -2.13123 0
M  V30 366 C 31.7471 2.78829 -3.62082 0
M  V30 367 C 32.7441 2.49812 -4.5595 0
M  V30 368 C 30.4291 2.9683 -4.05213 0
M  V30 369 C 32.4231 2.38923 -5.90927 0
M  V30 370 C 30.1101 2.85562 -5.40276 0
M  V30 371 C 31.1081 2.56649 -6.32946 0
M  V30 372 O 30.7961 2.45408 -7.65526 0
M  V30 373 H 30.5281 0.489257 -0.466481 0
M  V30 374 H 33.0821 0.963446 -1.81403 0
M  V30 375 H 31.3121 3.51081 -1.62107 0
M  V30 376 H 33.0011 3.50915 -2.03994 0
M  V30 377 H 33.7671 2.3559 -4.23937 0
M  V30 378 H 29.6461 3.18335 -3.33442 0
M  V30 379 H 33.1901 2.16277 -6.63227 0
M  V30 380 H 29.0871 2.99351 -5.71891 0
M  V30 381 H 29.8551 2.60753 -7.75855 0
M  V30 382 N 32.5182 1.22032 0.997298 0
M  V30 383 C 33.4812 0.987909 2.06816 0
M  V30 384 C 34.4812 -0.0440084 1.6074 0
M  V30 385 O 35.6712 0.194053 1.73116 0
M  V30 386 C 32.8032 0.49132 3.37341 0
M  V30 387 H 33.9962 1.93803 2.28868 0
M  V30 388 H 31.5492 1.03838 1.16822 0
M  V30 389 H 32.2842 -0.463364 3.20973 0
M  V30 390 H 32.0692 1.23575 3.72118 0
M  V30 391 H 33.5592 0.348824 4.16141 0
M  V30 392 N 33.9963 -1.19345 1.0293 0
M  V30 393 C 35.2243 -1.92997 0.745644 0
M  V30 394 C 35.6393 -1.75519 -0.695589 0
M  V30 395 O 34.9963 -1.07737 -1.47306 0
M  V30 396 C 35.0473 -3.44741 1.08792 0
M  V30 397 O 34.7683 -3.61658 2.47256 0
M  V30 398 C 36.2693 -4.35515 0.827129 0
M  V30 399 H 33.4893 -0.613042 0.272801 0
M  V30 400 H 36.0333 -1.51473 1.3739 0
M  V30 401 H 34.1883 -3.84097 0.504832 0
M  V30 402 H 34.6023 -4.55514 2.60015 0
M  V30 403 H 36.0763 -5.40589 1.11658 0
M  V30 404 H 36.5533 -4.38552 -0.238436 0
M  V30 405 H 37.1593 -4.01841 1.39297 0
M  V30 406 N 35.4744 -0.807222 -1.35358 0
M  V30 407 C 36.6994 -0.399309 -2.0352 0
M  V30 408 C 37.1244 0.981986 -1.60433 0
M  V30 409 O 36.4824 1.63601 -0.781299 0
M  V30 410 C 36.5304 -0.491552 -3.57234 0
M  V30 411 O 35.6344 0.494754 -4.09421 0
M  V30 412 H 34.9754 -0.166682 -0.642739 0
M  V30 413 H 37.5054 -1.09328 -1.72941 0
M  V30 414 H 37.5154 -0.361588 -4.06395 0
M  V30 415 H 36.1904 -1.49907 -3.87944 0
M  V30 416 H 34.7674 0.324977 -3.71481 0
M  V30 417 N 36.9525 1.47285 -0.560781 0
M  V30 418 C 38.2005 2.02064 -0.0379868 0
M  V30 419 C 38.5215 1.43711 1.31803 0
M  V30 420 O 37.7915 0.61362 1.86042 0
M  V30 421 H 36.3715 0.746918 -0.0110531 0
M  V30 422 H 39.0335 1.80648 -0.731598 0
M  V30 423 H 38.1295 3.12064 0.0474463 0
M  V30 424 N 38.4306 0.297415 1.54768 0
M  V30 425 C 39.6556 -0.318435 2.04941 0
M  V30 426 C 40.0806 -1.4701 1.17345 0
M  V30 427 O 39.4386 -1.80436 0.176758 0
M  V30 428 C 39.4866 -0.755749 3.52592 0
M  V30 429 O 38.5906 -1.86088 3.68028 0
M  V30 430 H 37.9316 -0.062421 0.661059 0
M  V30 431 H 40.4616 0.438215 1.99852 0
M  V30 432 H 40.4716 -1.04552 3.94376 0
M  V30 433 H 39.1466 0.0867233 4.1581 0
M  V30 434 H 37.7236 -1.57193 3.38149 0
M  V30 435 N 39.9087 -1.5758 0.0250728 0
M  V30 436 C 40.8717 -2.08896 -0.943139 0
M  V30 437 C 41.8717 -1.00321 -1.25668 0
M  V30 438 O 43.0617 -1.26495 -1.19769 0
M  V30 439 C 40.1937 -2.55143 -2.26086 0
M  V30 440 H 41.3867 -2.95723 -0.498775 0
M  V30 441 H 38.9397 -1.54703 -0.222888 0
M  V30 442 H 39.6747 -1.71633 -2.75159 0
M  V30 443 H 39.4597 -3.34461 -2.04641 0
M  V30 444 H 40.9497 -2.95083 -2.95492 0
M  V30 445 N 41.3868 0.248026 -1.55636 0
M  V30 446 C 42.6348 0.974295 -1.77065 0
M  V30 447 C 42.9558 1.85897 -0.588849 0
M  V30 448 O 42.2258 1.91868 0.395407 0
M  V30 449 H 40.8058 0.362733 -0.653019 0
M  V30 450 H 43.4678 0.266244 -1.93073 0
M  V30 451 H 42.5638 1.59667 -2.68166 0
M  V30 452 N 42.8649 1.48995 0.513639 0
M  V30 453 C 43.7949 1.67636 1.62544 0
M  V30 454 C 44.7759 0.525087 1.61793 0
M  V30 455 O 45.9609 0.759502 1.78732 0
M  V30 456 C 43.0909 1.73114 3.01079 0
M  V30 457 C 42.0449 2.87905 3.16693 0
M  V30 458 C 41.3709 2.78486 4.56453 0
M  V30 459 C 42.6709 4.29005 2.97913 0
M  V30 460 H 44.3649 2.60716 1.47198 0
M  V30 461 H 41.9109 1.25465 0.706714 0
M  V30 462 H 43.8639 1.84742 3.78746 0
M  V30 463 H 42.5879 0.766241 3.17484 0
M  V30 464 H 41.2469 2.75859 2.41448 0
M  V30 465 H 40.8949 1.7993 4.69717 0
M  V30 466 H 40.5949 3.55523 4.67843 0
M  V30 467 H 42.1189 2.92104 5.36197 0
M  V30 468 H 43.5329 4.41798 3.65359 0
M  V30 469 H 41.9299 5.07166 3.20785 0
M  V30 470 H 42.9999 4.44329 1.94165 0
M  V30 471 N 44.343 -0.763751 1.37857 0
M  V30 472 C 45.62 -1.51244 1.24035 0
M  V30 473 C 46 -2.10472 -0.162649 0
M  V30 474 O 45.348 -1.96206 -1.17112 0
M  V30 475 C 45.558 -2.58694 2.34261 0
M  V30 476 C 46.906 -3.25878 2.72193 0
M  V30 477 O 47.93 -2.68993 2.33497 0
M  V30 478 O 46.789 -4.2874 3.38887 0
M  V30 479 H 43.883 -0.670243 0.484462 0
M  V30 480 H 46.429 -0.800031 1.49658 0
M  V30 481 H 45.201 -2.13105 3.2818 0
M  V30 482 H 44.824 -3.37527 2.10146 0
M  V30 483 N 45.8211 -1.22559 -0.990812 0
M  V30 484 C 46.7511 -1.0218 -2.09956 0
M  V30 485 C 47.7321 0.0579394 -1.70001 0
M  V30 486 O 48.9171 -0.104684 -1.93918 0
M  V30 487 C 46.0471 -0.601023 -3.4206 0
M  V30 488 C 45.0011 -1.62694 -3.95872 0
M  V30 489 C 44.3271 -1.06193 -5.24049 0
M  V30 490 C 45.6271 -3.01743 -4.2632 0
M  V30 491 H 47.3211 -1.94916 -2.27262 0
M  V30 492 H 44.8671 -0.938566 -1.09211 0
M  V30 493 H 46.8201 -0.445561 -4.19038 0
M  V30 494 H 45.5441 0.362005 -3.24588 0
M  V30 495 H 44.2031 -1.77021 -3.21028 0
M  V30 496 H 43.8511 -0.0901903 -5.02919 0
M  V30 497 H 43.5511 -1.74732 -5.61019 0
M  V30 498 H 45.0751 -0.918092 -6.03658 0
M  V30 499 H 46.4891 -2.90777 -4.94087 0
M  V30 500 H 44.8861 -3.67425 -4.74467 0
M  V30 501 H 45.9561 -3.51518 -3.34011 0
M  V30 502 N 47.2992 1.18797 -1.03562 0
M  V30 503 C 48.7152 1.40671 -0.753917 0
M  V30 504 C 48.9152 1.9043 0.658686 0
M  V30 505 O 47.9712 2.08538 1.42366 0
M  V30 506 C 49.2842 2.41192 -1.79574 0
M  V30 507 C 50.8322 2.54928 -1.81606 0
M  V30 508 C 51.3072 3.58709 -2.84766 0
M  V30 509 N 52.7982 3.66212 -2.83625 0
M  V30 510 C 53.5332 4.46225 -3.60098 0
M  V30 511 N 53.0292 5.29888 -4.46308 0
M  V30 512 N 54.8222 4.40939 -3.4861 0
M  V30 513 H 46.9732 0.848221 -1.94728 0
M  V30 514 H 49.2362 0.435081 -0.842264 0
M  V30 515 H 48.9422 2.11669 -2.80872 0
M  V30 516 H 48.8162 3.40467 -1.62365 0
M  V30 517 H 51.2032 2.83771 -0.809817 0
M  V30 518 H 51.2842 1.55784 -2.02891 0
M  V30 519 H 50.9282 3.30607 -3.85566 0
M  V30 520 H 50.8582 4.57519 -2.60737 0
M  V30 521 H 53.3492 3.06466 -2.21105 0
M  V30 522 H 53.6622 5.88078 -5.01382 0
M  V30 523 H 52.0072 5.29326 -4.50377 0
M  V30 524 H 55.1982 3.74624 -2.80668 0
M  V30 525 H 55.3712 5.03056 -4.08459 0
M  V30 526 N 48.7773 0.814389 1.34928 0
M  V30 527 C 49.7403 0.235759 2.27984 0
M  V30 528 C 50.7403 -0.581412 1.49921 0
M  V30 529 O 51.9303 -0.398758 1.69575 0
M  V30 530 C 49.0623 -0.670433 3.34242 0
M  V30 531 H 50.2553 1.05659 2.80671 0
M  V30 532 H 47.8083 0.585614 1.44915 0
M  V30 533 H 48.5433 -1.51466 2.86755 0
M  V30 534 H 48.3283 -0.0860822 3.92005 0
M  V30 535 H 49.8183 -1.06935 4.03676 0
M  V30 536 N 50.2554 -1.46986 0.568584 0
M  V30 537 C 51.4954 -2.04336 0.0512999 0
M  V30 538 C 51.8594 -1.43214 -1.27881 0
M  V30 539 O 53.0604 -1.91679 -1.88448 0
M  V30 540 C 51.3314 -3.57389 -0.0282328 0
M  V30 541 S 52.8904 -4.36056 -0.489991 0
M  V30 542 H 49.7084 -0.71034 0.0306349 0
M  V30 543 H 52.3104 -1.80212 0.757891 0
M  V30 544 H 51.0144 -3.99395 0.944011 0
M  V30 545 H 50.5454 -3.86028 -0.75803 0
M  V30 546 H 52.5604 -4.6441 -1.74752 0
M  V30 547 N 51.7335 -0.305618 -1.54608 0
M  V30 548 C 52.6635 0.561482 -2.26649 0
M  V30 549 C 53.6445 1.13415 -1.26772 0
M  V30 550 O 54.8295 1.16262 -1.55553 0
M  V30 551 C 51.9595 1.73122 -3.01075 0
M  V30 552 C 50.9135 1.2887 -4.08138 0
M  V30 553 C 50.2395 2.54396 -4.70305 0
M  V30 554 C 51.5395 0.416578 -5.20636 0
M  V30 555 H 53.2335 -0.0393902 -2.99374 0
M  V30 556 H 50.7795 -0.020385 -1.43986 0
M  V30 557 H 52.7325 2.34396 -3.50195 0
M  V30 558 H 51.4565 2.3584 -2.25936 0
M  V30 559 H 50.1155 0.698991 -3.59875 0
M  V30 560 H 49.7635 3.15439 -3.918 0
M  V30 561 H 49.4635 2.25486 -5.42614 0
M  V30 562 H 50.9875 3.16464 -5.2219 0
M  V30 563 H 52.4015 0.935116 -5.65622 0
M  V30 564 H 50.7985 0.221046 -5.99693 0
M  V30 565 H 51.8685 -0.557162 -4.81688 0
M  V30 566 N 53.2116 1.57565 -0.0334293 0
M  V30 567 C 54.1596 2.1164 0.96496 0
M  V30 568 C 55.1536 1.04398 1.33407 0
M  V30 569 O 56.3596 1.22828 1.3158 0
M  V30 570 H 52.7346 0.676222 0.32898 0
M  V30 571 H 54.7056 2.94455 0.483614 0
M  V30 572 C 53.4546 2.66207 2.23672 0
M  V30 573 H 52.7776 3.48378 1.96145 0
M  V30 574 H 54.2176 3.07685 2.9173 0
M  V30 575 C 52.6766 1.59151 2.96939 0
M  V30 576 O 53.2066 0.993858 3.89211 0
M  V30 577 N 51.4126 1.31093 2.59351 0
M  V30 578 H 50.9596 1.7988 1.84393 0
M  V30 579 H 50.9176 0.596889 3.08682 0
M  V30 580 N 54.6897 -0.239769 1.55765 0
M  V30 581 C 55.9667 -0.990056 1.68693 0
M  V30 582 C 56.3467 -2.03107 0.5754 0
M  V30 583 O 55.6947 -2.24604 -0.42017 0
M  V30 584 C 55.9047 -1.61696 3.09282 0
M  V30 585 C 57.2527 -2.11613 3.6811 0
M  V30 586 O 58.2767 -1.71624 3.12127 0
M  V30 587 O 57.1357 -2.85057 4.66267 0
M  V30 588 H 54.2297 -0.461299 0.686391 0
M  V30 589 H 56.7757 -0.232991 1.68093 0
M  V30 590 H 55.5477 -0.864357 3.81634 0
M  V30 591 H 55.1707 -2.44005 3.13923 0
M  V30 592 N 56.1678 -1.49265 -0.50573 0
M  V30 593 C 57.1308 -1.65075 -1.59006 0
M  V30 594 C 58.1308 -0.522768 -1.52065 0
M  V30 595 O 59.3208 -0.789117 -1.55302 0
M  V30 596 C 56.4528 -1.64369 -2.98656 0
M  V30 597 H 57.6458 -2.61784 -1.46319 0
M  V30 598 H 55.1988 -1.38226 -0.729616 0
M  V30 599 H 55.9338 -0.692272 -3.16825 0
M  V30 600 H 55.7188 -2.46282 -3.05103 0
M  V30 601 H 57.2088 -1.78674 -3.77446 0
M  V30 602 N 57.6459 0.756429 -1.3826 0
M  V30 603 C 58.8919 1.51772 -1.34511 0
M  V30 604 C 59.2249 1.94089 0.0656691 0
M  V30 605 O 58.4999 1.65221 1.02626 0
M  V30 606 C 58.7829 2.77226 -2.29821 0
M  V30 607 C 58.6359 2.41065 -3.79747 0
M  V30 608 C 59.9549 3.79236 -2.23312 0
M  V30 609 H 57.0739 0.550578 -0.489931 0
M  V30 610 H 59.7159 0.866607 -1.69086 0
M  V30 611 H 57.8659 3.32784 -2.00467 0
M  V30 612 H 59.5379 1.91303 -4.19763 0
M  V30 613 H 57.7809 1.7356 -3.97567 0
M  V30 614 H 58.4519 3.3081 -4.41892 0
M  V30 615 H 60.9279 3.3321 -2.49219 0
M  V30 616 H 59.8039 4.64714 -2.92116 0
M  V30 617 H 60.0649 4.24615 -1.23102 0
M  V30 618 N 59.124 1.23083 0.984299 0
M  V30 619 C 60.034 1.02515 2.11016 0
M  V30 620 C 61.05 -0.0291702 1.73976 0
M  V30 621 O 62.226 0.165434 2.00719 0
M  V30 622 C 59.291 0.614673 3.41208 0
M  V30 623 C 58.352 1.74359 3.92297 0
M  V30 624 C 57.585 1.35261 5.16275 0
M  V30 625 O 57.808 0.235136 5.69915 0
M  V30 626 O 56.742 2.17227 5.61334 0
M  V30 627 H 60.568 1.96862 2.31255 0
M  V30 628 H 58.153 1.01753 1.09392 0
M  V30 629 H 60.035 0.396518 4.1953 0
M  V30 630 H 58.71 -0.299851 3.22308 0
M  V30 631 H 57.617 2.01635 3.1511 0
M  V30 632 H 58.95 2.63629 4.15645 0
M  V30 633 N 60.6021 -1.18246 1.0419 0
M  V30 634 C 61.5321 -2.24127 0.654914 0
M  V30 635 C 62.5131 -1.66617 -0.342451 0
M  V30 636 O 63.6981 -1.92924 -0.222277 0
M  V30 637 C 60.8281 -3.47295 0.0183757 0
M  V30 638 C 59.7821 -4.17563 0.939414 0
M  V30 639 C 59.1081 -5.34438 0.167286 0
M  V30 640 C 60.4081 -4.70917 2.25908 0
M  V30 641 H 62.1021 -2.56753 1.54007 0
M  V30 642 H 59.6481 -1.23414 0.74195 0
M  V30 643 H 61.6011 -4.20572 -0.264082 0
M  V30 644 H 60.3251 -3.13907 -0.901664 0
M  V30 645 H 58.9841 -3.46186 1.20628 0
M  V30 646 H 58.6321 -4.97298 -0.7552 0
M  V30 647 H 58.3321 -5.82388 0.780901 0
M  V30 648 H 59.8561 -6.10504 -0.108125 0
M  V30 649 H 61.2701 -5.35882 2.03724 0
M  V30 650 H 59.6671 -5.29406 2.82577 0
M  V30 651 H 60.7371 -3.88272 2.9047 0
M  V30 652 N 62.0802 -0.821533 -1.34494 0
M  V30 653 C 63.0432 -0.247847 -2.27856 0
M  V30 654 C 64.0432 0.573453 -1.50227 0
M  V30 655 O 65.2332 0.389759 -1.69784 0
M  V30 656 C 62.3652 0.652698 -3.34593 0
M  V30 657 H 63.5582 -1.07146 -2.80107 0
M  V30 658 H 61.1112 -0.593291 -1.44602 0
M  V30 659 H 61.8462 1.49943 -2.87555 0
M  V30 660 H 61.6312 0.065292 -3.92046 0
M  V30 661 H 63.1212 1.04793 -4.04238 0
M  V30 662 N 63.5583 1.46682 -0.576371 0
M  V30 663 C 64.9693 1.86112 -0.148091 0
M  V30 664 C 65.3203 1.48073 1.2872 0
M  V30 665 O 64.4453 0.892656 1.97131 0
M  V30 666 C 65.0403 3.37786 -0.261982 0
M  V30 667 C 63.5993 3.76235 0.111384 0
M  V30 668 C 62.7463 2.70713 -0.60083 0
M  V30 669 H 65.6973 1.37927 -0.78497 0
M  V30 670 H 65.7183 3.77007 0.514364 0
M  V30 671 H 65.2303 3.6544 -1.30671 0
M  V30 672 H 63.3313 3.54198 1.15649 0
M  V30 673 H 63.4443 4.78391 -0.26052 0
M  V30 674 H 61.8083 2.54666 -0.0417783 0
M  V30 675 H 62.5913 3.01208 -1.64708 0
M  V30 676 N 65.0364 0.313813 1.54444 0
M  V30 677 C 66.2844 -0.291099 1.99993 0
M  V30 678 C 66.6054 -1.53418 1.20366 0
M  V30 679 O 65.8754 -1.93544 0.302927 0
M  V30 680 H 64.4554 -0.110552 0.738774 0
M  V30 681 H 67.1174 0.428106 1.9014 0
M  V30 682 H 66.2134 -0.554268 3.07139 0
M  V30 683 N 66.5145 -1.57545 0.0417849 0
M  V30 684 C 67.7915 -1.83642 -0.673433 0
M  V30 685 C 68.1715 -0.928298 -1.89594 0
M  V30 686 O 67.5195 0.0129955 -2.28496 0
M  V30 687 C 67.7295 -3.33155 -1.03964 0
M  V30 688 C 69.0775 -3.99941 -1.42592 0
M  V30 689 O 70.1015 -3.37725 -1.13226 0
M  V30 690 O 68.9605 -5.09619 -1.9736 0
M  V30 691 H 66.0545 -0.757638 -0.331533 0
M  V30 692 H 68.6005 -1.69554 0.070433 0
M  V30 693 H 67.3725 -3.9093 -0.170098 0
M  V30 694 H 66.9955 -3.52396 -1.84126 0
M  V30 695 N 67.9926 0.231505 -1.5589 0
M  V30 696 C 69.2206 0.974505 -1.82513 0
M  V30 697 C 69.6356 1.78344 -0.619591 0
M  V30 698 O 68.9926 1.77792 0.411848 0
M  V30 699 C 69.0436 1.90007 -3.07538 0
M  V30 700 O 68.7646 1.12385 -4.2344 0
M  V30 701 C 70.2656 2.75779 -3.47075 0
M  V30 702 H 67.4856 0.286065 -0.606966 0
M  V30 703 H 70.0296 0.249739 -2.02969 0
M  V30 704 H 68.1846 2.57891 -2.89086 0
M  V30 705 H 68.5986 1.75125 -4.944 0
M  V30 706 H 70.0726 3.36443 -4.37619 0
M  V30 707 H 70.5496 3.47672 -2.68367 0
M  V30 708 H 71.1556 2.13323 -3.67931 0
M  V30 709 N 69.4707 1.49531 0.497807 0
M  V30 710 C 70.6987 1.62893 1.27567 0
M  V30 711 C 71.1137 0.301585 1.86376 0
M  V30 712 O 70.4707 -0.713335 1.67982 0
M  V30 713 C 70.5217 2.70013 2.40364 0
M  V30 714 O 70.2427 3.976 1.83972 0
M  V30 715 C 71.7437 2.94109 3.31685 0
M  V30 716 H 68.9637 0.548298 0.386794 0
M  V30 717 H 71.5077 1.95584 0.597245 0
M  V30 718 H 69.6627 2.40092 3.04031 0
M  V30 719 H 70.0767 4.56631 2.58047 0
M  V30 720 H 71.5507 3.72788 4.07104 0
M  V30 721 H 72.0277 2.04147 3.88871 0
M  V30 722 H 72.6337 3.2546 2.73781 0
M  V30 723 N 70.9488 -0.749086 1.3866 0
M  V30 724 C 71.8788 -1.8764 1.38973 0
M  V30 725 C 72.8598 -1.68178 0.255004 0
M  V30 726 O 74.0448 -1.88704 0.458754 0
M  V30 727 C 71.1748 -3.25222 1.21851 0
M  V30 728 C 70.1288 -3.59295 2.32575 0
M  V30 729 C 69.4548 -4.95663 2.00555 0
M  V30 730 C 70.7548 -3.63709 3.7485 0
M  V30 731 H 72.4488 -1.87635 2.3331 0
M  V30 732 H 69.9948 -0.901329 1.12303 0
M  V30 733 H 71.9478 -4.03746 1.20695 0
M  V30 734 H 70.6718 -3.25719 0.239775 0
M  V30 735 H 69.3308 -2.83093 2.32925 0
M  V30 736 H 68.9788 -4.92724 1.01154 0
M  V30 737 H 68.6788 -5.19429 2.74714 0
M  V30 738 H 70.2028 -5.7656 2.01024 0
M  V30 739 H 71.6168 -4.32338 3.76506 0
M  V30 740 H 70.0138 -3.98986 4.48252 0
M  V30 741 H 71.0838 -2.63834 4.06841 0
M  V30 742 N 72.4269 -1.23603 -0.977757 0
M  V30 743 C 73.6729 -1.07129 -1.72195 0
M  V30 744 C 74.0059 0.390501 -1.90233 0
M  V30 745 O 73.2809 1.28902 -1.45653 0
M  V30 746 C 73.5639 -1.80031 -3.11867 0
M  V30 747 C 73.4169 -3.33899 -3.01383 0
M  V30 748 C 74.7359 -1.56492 -4.11337 0
M  V30 749 H 71.8549 -0.390571 -0.624999 0
M  V30 750 H 74.4969 -1.52142 -1.13811 0
M  V30 751 H 72.6469 -1.41768 -3.6171 0
M  V30 752 H 74.3189 -3.81699 -2.59043 0
M  V30 753 H 72.5619 -3.62796 -2.37827 0
M  V30 754 H 73.2329 -3.801 -4.00285 0
M  V30 755 H 75.7089 -1.89757 -3.70313 0
M  V30 756 H 74.5849 -2.09973 -5.07151 0
M  V30 757 H 74.8459 -0.500874 -4.39254 0
M  V30 758 N 73.905 1.17692 -1.04816 0
M  V30 759 C 75.316 1.69501 -0.782698 0
M  V30 760 C 75.667 1.83456 0.695577 0
M  V30 761 O 74.792 1.51942 1.54086 0
M  V30 762 C 75.387 3.07874 -1.41419 0
M  V30 763 C 73.946 3.56864 -1.19686 0
M  V30 764 C 73.093 2.3322 -1.50012 0
M  V30 765 H 76.044 1.02262 -1.2136 0
M  V30 766 H 76.065 3.71528 -0.821428 0
M  V30 767 H 75.577 2.97685 -2.49009 0
M  V30 768 H 73.678 3.72337 -0.140043 0
M  V30 769 H 73.791 4.39851 -1.89916 0
M  V30 770 H 72.155 2.37501 -0.920071 0
M  V30 771 H 72.938 2.25644 -2.58727 0
M  V30 772 N 75.3831 0.828654 1.34056 0
M  V30 773 C 76.6111 0.43262 2.02326 0
M  V30 774 C 77.0261 -0.963147 1.62385 0
M  V30 775 O 76.3831 -1.62425 0.832121 0
M  V30 776 C 76.4341 0.53182 3.57567 0
M  V30 777 O 76.1551 1.87258 3.96063 0
M  V30 778 C 77.6561 0.131422 4.43105 0
M  V30 779 H 74.8761 0.172923 0.648335 0
M  V30 780 H 77.4201 1.1184 1.71208 0
M  V30 781 H 75.5751 -0.105938 3.87255 0
M  V30 782 H 75.9891 1.85087 4.90758 0
M  V30 783 H 77.4631 0.251904 5.51425 0
M  V30 784 H 77.9401 -0.925645 4.29335 0
M  V30 785 H 78.5461 0.743207 4.18756 0
M  V30 786 N 76.8612 -1.46375 0.584142 0
M  V30 787 C 78.1092 -2.01978 0.0701287 0
M  V30 788 C 78.4302 -1.4579 -1.295 0
M  V30 789 O 77.7002 -0.64314 -1.85042 0
M  V30 790 H 76.2802 -0.746648 0.0229345 0
M  V30 791 H 78.9422 -1.79461 0.760245 0
M  V30 792 H 78.0382 -3.121 0.0022064 0
M  V30 793 N 78.3393 -0.321999 -1.54275 0
M  V30 794 C 79.2693 0.537411 -2.27231 0
M  V30 795 C 80.2503 1.12064 -1.27968 0
M  V30 796 O 81.4353 1.14606 -1.56777 0
M  V30 797 C 78.5653 1.69919 -3.02894 0
M  V30 798 C 77.5193 1.24534 -4.09482 0
M  V30 799 C 76.8453 2.49394 -4.72977 0
M  V30 800 C 78.1453 0.361335 -5.21049 0
M  V30 801 H 79.8393 -0.0711406 -2.99315 0
M  V30 802 H 77.3853 -0.0356555 -1.43956 0
M  V30 803 H 79.3383 2.30668 -3.52662 0
M  V30 804 H 78.0623 2.33431 -2.28424 0
M  V30 805 H 76.7213 0.660782 -3.60596 0
M  V30 806 H 76.3693 3.11265 -3.95124 0
M  V30 807 H 76.0693 2.19718 -5.44975 0
M  V30 808 H 77.5933 3.10908 -5.25517 0
M  V30 809 H 79.0073 0.875072 -5.66582 0
M  V30 810 H 77.4043 0.157428 -5.99893 0
M  V30 811 H 78.4743 -0.60822 -4.8107 0
M  V30 812 N 79.8174 1.5752 -0.0501392 0
M  V30 813 C 80.7804 2.1037 0.909786 0
M  V30 814 C 81.7804 1.02308 1.24056 0
M  V30 815 O 82.9704 1.28385 1.17741 0
M  V30 816 C 80.1024 2.58708 2.21998 0
M  V30 817 H 81.2954 2.96479 0.451665 0
M  V30 818 H 78.8484 1.55038 0.198248 0
M  V30 819 H 79.5834 1.75989 2.72394 0
M  V30 820 H 79.3684 3.37675 1.99295 0
M  V30 821 H 80.8584 2.99747 2.9076 0
M  V30 822 N 81.2955 -0.223234 1.56011 0
M  V30 823 C 82.5445 -0.945912 1.78144 0
M  V30 824 C 82.8575 -1.85567 0.618396 0
M  V30 825 O 84.0635 -2.61688 0.723318 0
M  V30 826 C 82.5195 -1.73216 3.15475 0
M  V30 827 C 82.1275 -0.868619 4.39499 0
M  V30 828 C 83.8715 -2.44615 3.46935 0
M  V30 829 C 81.7785 -1.65212 5.67855 0
M  V30 830 H 80.7085 -0.356929 0.664167 0
M  V30 831 H 83.3595 -0.199845 1.82409 0
M  V30 832 H 81.7415 -2.52107 3.05382 0
M  V30 833 H 82.9155 -0.120366 4.60643 0
M  V30 834 H 81.2305 -0.26683 4.15544 0
M  V30 835 H 83.8275 -3.03732 4.40058 0
M  V30 836 H 84.1705 -3.17417 2.69355 0
M  V30 837 H 84.7035 -1.72715 3.58349 0
M  V30 838 H 81.4425 -0.967407 6.48322 0
M  V30 839 H 80.9625 -2.37503 5.50774 0
M  V30 840 H 82.6415 -2.21322 6.07968 0
M  V30 841 N 82.7736 -1.49793 -0.48987 0
M  V30 842 C 83.7236 -1.63673 -1.5873 0
M  V30 843 C 84.7076 -0.491956 -1.53195 0
M  V30 844 O 85.8996 -0.745461 -1.60536 0
M  V30 845 C 83.0286 -1.71689 -2.97284 0
M  V30 846 C 82.1146 -2.91781 -3.07774 0
M  V30 847 N 82.5056 -4.15714 -2.88124 0
M  V30 848 C 80.8036 -2.89949 -3.38889 0
M  V30 849 C 81.5046 -4.965 -3.03088 0
M  V30 850 N 80.4806 -4.30083 -3.3246 0
M  V30 851 H 84.2826 -2.57204 -1.42208 0
M  V30 852 H 81.7966 -1.46719 -0.69623 0
M  V30 853 H 83.7936 -1.79732 -3.76168 0
M  V30 854 H 82.4536 -0.793024 -3.14867 0
M  V30 855 H 83.4646 -4.45515 -2.64077 0
M  V30 856 H 80.1416 -2.06987 -3.62578 0
M  V30 857 H 81.5316 -6.04991 -2.92294 0
M  V30 858 N 84.2517 0.741722 -1.39055 0
M  V30 859 C 85.5007 1.49656 -1.35225 0
M  V30 860 C 85.8137 1.95533 0.0512708 0
M  V30 861 O 87.0197 2.7067 0.212138 0
M  V30 862 C 85.4757 2.70389 -2.37525 0
M  V30 863 C 85.0837 2.31489 -3.83558 0
M  V30 864 C 86.8277 3.48236 -2.42759 0
M  V30 865 C 84.7347 3.48903 -4.77515 0
M  V30 866 H 83.6647 0.56197 -0.502699 0
M  V30 867 H 86.3157 0.809727 -1.64668 0
M  V30 868 H 84.6977 3.41113 -2.01142 0
M  V30 869 H 85.8717 1.68354 -4.28945 0
M  V30 870 H 84.1867 1.66749 -3.81554 0
M  V30 871 H 86.7837 4.35558 -3.1015 0
M  V30 872 H 87.1267 3.90229 -1.45008 0
M  V30 873 H 87.6597 2.84535 -2.78002 0
M  V30 874 H 84.3987 3.11966 -5.76504 0
M  V30 875 H 83.9187 4.11041 -4.36813 0
M  V30 876 H 85.5977 4.15328 -4.96096 0
M  V30 877 N 85.7298 1.2412 0.971189 0
M  V30 878 C 86.6928 1.03156 2.04674 0
M  V30 879 C 87.6928 -0.00990322 1.60797 0
M  V30 880 O 88.8828 0.230729 1.72665 0
M  V30 881 C 86.0148 0.562765 3.36223 0
M  V30 882 H 87.2078 1.98614 2.24705 0
M  V30 883 H 84.7608 1.06293 1.14593 0
M  V30 884 H 85.4958 -0.395176 3.21883 0
M  V30 885 H 85.2808 1.31441 3.69413 0
M  V30 886 H 86.7708 0.437015 4.15307 0
M  V30 887 N 87.2079 -1.17134 1.05439 0
M  V30 888 C 88.4849 -1.83411 0.679699 0
M  V30 889 C 88.8649 -1.9368 -0.839726 0
M  V30 890 O 88.2129 -1.47325 -1.74664 0
M  V30 891 C 88.4229 -3.20918 1.37159 0
M  V30 892 C 89.7709 -3.96796 1.51123 0
M  V30 893 O 90.7949 -3.30406 1.3308 0
M  V30 894 O 89.6539 -5.15778 1.80651 0
M  V30 895 H 86.7479 -0.79154 0.239569 0
M  V30 896 H 89.2939 -1.24411 1.15413 0
M  V30 897 H 88.0659 -3.08428 2.40807 0
M  V30 898 H 87.6889 -3.87587 0.886674 0
M  V30 899 N 88.686 -0.835752 -1.33615 0
M  V30 900 C 90.097 -0.487099 -1.80234 0
M  V30 901 C 90.448 0.993627 -1.69179 0
M  V30 902 O 89.573 1.77403 -1.23924 0
M  V30 903 C 90.168 -0.877385 -3.27242 0
M  V30 904 C 88.727 -0.580915 -3.7189 0
M  V30 905 C 87.874 -1.0874 -2.5509 0
M  V30 906 H 90.825 -1.02474 -1.2118 0
M  V30 907 H 90.846 -0.186195 -3.80044 0
M  V30 908 H 90.358 -1.95512 -3.35256 0
M  V30 909 H 88.459 0.486881 -3.69405 0
M  V30 910 H 88.572 -1.13396 -4.65487 0
M  V30 911 H 86.936 -0.508392 -2.49575 0
M  V30 912 H 87.719 -2.17184 -2.65868 0
M  V30 913 N 90.1641 1.46063 -0.591896 0
M  V30 914 C 91.3891 2.07226 -0.0850314 0
M  V30 915 C 91.8141 1.43625 1.21463 0
M  V30 916 O 91.1721 0.523305 1.73583 0
M  V30 917 C 91.2201 3.60554 0.0576567 0
M  V30 918 O 90.3241 3.97128 1.11188 0
M  V30 919 H 89.6651 0.660615 -0.0669568 0
M  V30 920 H 92.1951 1.8756 -0.81745 0
M  V30 921 H 92.2051 4.07165 0.2609 0
M  V30 922 H 90.8801 4.06235 -0.891416 0
M  V30 923 H 89.4571 3.62213 0.886356 0
M  V30 924 N 91.6422 0.330177 1.54103 0
M  V30 925 C 92.5722 -0.525353 2.27513 0
M  V30 926 C 93.5532 -1.11383 1.2856 0
M  V30 927 O 94.7382 -1.13773 1.57383 0
M  V30 928 C 91.8682 -1.6831 3.03791 0
M  V30 929 C 90.8222 -1.2236 4.10137 0
M  V30 930 C 90.1482 -2.46882 4.74293 0
M  V30 931 C 91.4482 -0.333697 5.21233 0
M  V30 932 H 93.1422 0.087013 2.99274 0
M  V30 933 H 90.6882 0.0432893 1.43935 0
M  V30 934 H 92.6412 -2.28795 3.5388 0
M  V30 935 H 91.3652 -2.32216 2.29659 0
M  V30 936 H 90.0242 -0.64165 3.60941 0
M  V30 937 H 89.6722 -3.09165 3.96769 0
M  V30 938 H 89.3722 -2.16825 5.46133 0
M  V30 939 H 90.8962 -3.08117 5.27159 0
M  V30 940 H 92.3102 -0.845013 5.67038 0
M  V30 941 H 90.7072 -0.125612 5.99969 0
M  V30 942 H 91.7772 0.633724 4.80741 0
M  V30 943 N 93.1203 -1.57491 0.0584922 0
M  V30 944 C 94.0833 -2.1085 -0.898617 0
M  V30 945 C 95.0833 -1.02964 -1.23511 0
M  V30 946 O 96.2733 -1.29007 -1.17059 0
M  V30 947 C 93.4053 -2.59881 -2.20623 0
M  V30 948 H 94.5983 -2.96715 -0.435936 0
M  V30 949 H 92.1513 -1.55141 -0.190023 0
M  V30 950 H 92.8863 -1.77431 -2.71457 0
M  V30 951 H 92.6713 -3.38727 -1.97501 0
M  V30 952 H 94.1613 -3.01285 -2.89166 0
M  V30 953 N 94.5984 0.214957 -1.56127 0
M  V30 954 C 95.5614 1.24997 -1.92116 0
M  V30 955 C 96.5614 1.39467 -0.800344 0
M  V30 956 O 97.7514 1.37619 -1.06802 0
M  V30 957 C 94.8834 2.62271 -2.17777 0
M  V30 958 H 96.0764 0.942875 -2.84693 0
M  V30 959 H 93.6294 0.455654 -1.49511 0
M  V30 960 H 94.3644 2.98068 -1.27773 0
M  V30 961 H 94.1494 2.53143 -2.99434 0
M  V30 962 H 95.6394 3.36946 -2.46693 0
M  V30 963 N 96.0765 1.50051 0.48192 0
M  V30 964 C 97.0095 1.62749 1.59963 0
M  V30 965 C 97.9875 0.475903 1.5548 0
M  V30 966 O 99.1715 0.693986 1.7526 0
M  V30 967 C 96.2985 1.60008 2.98522 0
M  V30 968 C 95.3445 2.80596 3.21198 0
M  V30 969 S 96.1775 4.42038 3.02262 0
M  V30 970 C 97.3335 4.41973 4.43182 0
M  V30 971 H 97.5665 2.57296 1.4895 0
M  V30 972 H 95.0995 1.39179 0.668477 0
M  V30 973 H 97.0575 1.59112 3.78409 0
M  V30 974 H 95.7185 0.667153 3.06933 0
M  V30 975 H 94.9115 2.74952 4.22395 0
M  V30 976 H 94.5135 2.79003 2.49065 0
M  V30 977 H 96.8055 4.14868 5.35622 0
M  V30 978 H 97.7485 5.43512 4.53873 0
M  V30 979 H 98.1565 3.71812 4.24755 0
M  V30 980 N 97.5546 -0.734337 1.39446 0
M  V30 981 C 98.4876 -1.85715 1.32609 0
M  V30 982 C 99.4656 -1.6137 0.199636 0
M  V30 983 O 100.65 -1.84626 0.380195 0
M  V30 984 C 97.7766 -3.21709 1.05929 0
M  V30 985 C 96.8226 -3.64913 2.20773 0
M  V30 986 S 97.6556 -3.74203 3.83056 0
M  V30 987 C 98.8116 -5.12986 3.58603 0
M  V30 988 H 99.0446 -1.91232 2.27635 0
M  V30 989 H 96.5776 -0.899263 1.25509 0
M  V30 990 H 98.5356 -4.00236 0.912203 0
M  V30 991 H 97.1966 -3.13848 0.125883 0
M  V30 992 H 96.3896 -4.63606 1.97699 0
M  V30 993 H 95.9916 -2.93593 2.31688 0
M  V30 994 H 98.2836 -5.99339 3.15909 0
M  V30 995 H 99.2266 -5.41088 4.5676 0
M  V30 996 H 99.6346 -4.82694 2.9269 0
M  V30 997 N 99.0327 -1.24633 -0.964593 0
M  V30 998 C 99.9627 -1.06611 -2.07741 0
M  V30 999 C 100.944 0.0218666 -1.70086 0
M  V30 1000 O 102.129 -0.145793 -1.93652 0
M  V30 1001 C 99.2587 -0.673444 -3.40708 0
M  V30 1002 C 98.2127 -1.71054 -3.92332 0
M  V30 1003 C 97.5387 -1.17285 -5.21678 0
M  V30 1004 C 98.8387 -3.10718 -4.19824 0
M  V30 1005 H 100.533 -1.99693 -2.23076 0
M  V30 1006 H 98.0787 -0.96152 -1.07195 0
M  V30 1007 H 100.032 -0.534345 -4.17998 0
M  V30 1008 H 98.7557 0.293073 -3.25282 0
M  V30 1009 H 97.4147 -1.83791 -3.17201 0
M  V30 1010 H 97.0627 -0.196847 -5.02615 0
M  V30 1011 H 96.7627 -1.86592 -5.57187 0
M  V30 1012 H 98.2867 -1.04593 -6.01575 0
M  V30 1013 H 99.7007 -3.01192 -4.87808 0
M  V30 1014 H 98.0977 -3.77406 -4.66567 0
M  V30 1015 H 99.1677 -3.58524 -3.26479 0
M  V30 1016 N 100.511 1.16574 -1.06058 0
M  V30 1017 C 101.922 1.68662 -0.800632 0
M  V30 1018 C 102.273 1.84184 0.67608 0
M  V30 1019 O 101.398 1.53568 1.52466 0
M  V30 1020 C 101.993 3.06356 -1.44676 0
M  V30 1021 C 100.552 3.55575 -1.23465 0
M  V30 1022 C 99.6988 2.31616 -1.52477 0
M  V30 1023 H 102.65 1.00969 -1.22438 0
M  V30 1024 H 102.671 3.70636 -0.860788 0
M  V30 1025 H 102.183 2.95027 -2.52152 0
M  V30 1026 H 100.284 3.72167 -0.179527 0
M  V30 1027 H 100.397 4.37812 -1.94571 0
M  V30 1028 H 98.7608 2.36512 -0.945209 0
M  V30 1029 H 99.5438 2.22887 -2.61106 0
M  V30 1030 N 101.989 0.842826 1.3317 0
M  V30 1031 C 103.405 0.531128 1.50503 0
M  V30 1032 C 103.605 -0.940734 1.78192 0
M  V30 1033 O 102.661 -1.72436 1.84451 0
M  V30 1034 C 103.974 1.40789 2.65705 0
M  V30 1035 C 105.522 1.40708 2.79589 0
M  V30 1036 C 105.997 2.26878 3.97857 0
M  V30 1037 N 107.488 2.24609 4.05099 0
M  V30 1038 C 108.223 2.88019 4.95815 0
M  V30 1039 N 107.719 3.60496 5.9162 0
M  V30 1040 N 109.512 2.77469 4.88843 0
M  V30 1041 H 101.663 1.79557 1.1346 0
M  V30 1042 H 103.926 0.766267 0.558156 0
M  V30 1043 H 103.632 2.454 2.51936 0
M  V30 1044 H 103.506 1.08677 3.61205 0
M  V30 1045 H 105.893 0.368668 2.92788 0
M  V30 1046 H 105.974 1.76829 1.84838 0
M  V30 1047 H 105.618 3.3078 3.85418 0
M  V30 1048 H 105.548 1.88096 4.91861 0
M  V30 1049 H 108.039 1.71906 3.36536 0
M  V30 1050 H 108.352 4.06076 6.57512 0
M  V30 1051 H 106.697 3.64604 5.91683 0
M  V30 1052 H 109.888 2.20406 4.12963 0
M  V30 1053 H 110.061 3.2717 5.59342 0
M  V30 1054 N 103.467 -1.45747 0.599634 0
M  V30 1055 C 104.692 -2.07178 0.0960198 0
M  V30 1056 C 105.117 -1.44268 -1.207 0
M  V30 1057 O 104.475 -0.532503 -1.73303 0
M  V30 1058 C 104.523 -3.60579 -0.0385348 0
M  V30 1059 O 103.627 -3.97713 -1.0908 0
M  V30 1060 H 102.968 -0.660251 0.0704593 0
M  V30 1061 H 105.498 -1.87124 0.827385 0
M  V30 1062 H 105.508 -4.07298 -0.239304 0
M  V30 1063 H 104.183 -4.05756 0.912947 0
M  V30 1064 H 102.76 -3.62678 -0.867135 0
M  V30 1065 N 104.945 -0.338344 -1.53925 0
M  V30 1066 C 106.193 0.259245 -2.0043 0
M  V30 1067 C 106.514 1.51484 -1.22791 0
M  V30 1068 O 105.784 1.93037 -0.33368 0
M  V30 1069 H 104.364 0.0987845 -0.740439 0
M  V30 1070 H 107.026 -0.458302 -1.89435 0
M  V30 1071 H 106.122 0.505334 -3.07982 0
M  V30 1072 N 106.423 1.57458 -0.0668435 0
M  V30 1073 C 107.353 2.15468 0.899764 0
M  V30 1074 C 108.334 1.08042 1.31381 0
M  V30 1075 O 109.519 1.36054 1.38574 0
M  V30 1076 C 106.649 2.71232 2.16911 0
M  V30 1077 C 105.603 3.83781 1.89463 0
M  V30 1078 C 104.929 4.26127 3.22986 0
M  V30 1079 C 106.229 5.08238 1.20381 0
M  V30 1080 H 107.923 2.96488 0.416529 0
M  V30 1081 H 105.469 1.4262 0.198908 0
M  V30 1082 H 107.422 3.10458 2.84945 0
M  V30 1083 H 106.146 1.87426 2.67468 0
M  V30 1084 H 104.805 3.45051 1.23836 0
M  V30 1085 H 104.453 3.39249 3.71374 0
M  V30 1086 H 104.153 5.01993 3.05413 0
M  V30 1087 H 105.677 4.67966 3.92225 0
M  V30 1088 H 107.091 5.44811 1.78475 0
M  V30 1089 H 105.488 5.89349 1.13083 0
M  V30 1090 H 106.558 4.84558 0.182153 0
M  V30 1091 N 107.901 -0.206675 1.56239 0
M  V30 1092 C 109.149 -0.927007 1.79586 0
M  V30 1093 C 109.47 -1.8427 0.637929 0
M  V30 1094 O 108.74 -1.92849 -0.344398 0
M  V30 1095 H 107.32 -0.345292 0.662407 0
M  V30 1096 H 109.982 -0.21496 1.93711 0
M  V30 1097 H 109.078 -1.52501 2.72305 0
M  V30 1098 N 109.379 -1.50304 -0.473955 0
M  V30 1099 C 110.329 -1.65347 -1.56985 0
M  V30 1100 C 111.313 -0.508176 -1.52664 0
M  V30 1101 O 112.505 -0.762446 -1.59737 0
M  V30 1102 C 109.634 -1.74832 -2.95447 0
M  V30 1103 C 108.72 -2.95028 -3.04662 0
M  V30 1104 N 109.111 -4.18747 -2.83698 0
M  V30 1105 C 107.409 -2.93527 -3.35795 0
M  V30 1106 C 108.11 -4.99687 -2.97805 0
M  V30 1107 N 107.086 -4.33585 -3.2788 0
M  V30 1108 H 110.888 -2.58698 -1.39472 0
M  V30 1109 H 108.402 -1.47449 -0.680629 0
M  V30 1110 H 110.399 -1.83712 -3.7424 0
M  V30 1111 H 109.059 -0.826376 -3.14008 0
M  V30 1112 H 110.07 -4.48291 -2.59337 0
M  V30 1113 H 106.747 -2.10821 -3.60362 0
M  V30 1114 H 108.137 -6.08057 -2.85861 0
M  V30 1115 N 110.857 0.726932 -1.39834 0
M  V30 1116 C 111.804 1.841 -1.39197 0
M  V30 1117 C 112.774 1.642 -0.250502 0
M  V30 1118 O 113.959 1.85494 -0.446846 0
M  V30 1119 C 111.099 3.21697 -1.24919 0
M  V30 1120 C 110.212 3.53247 -2.48678 0
M  V30 1121 C 109.347 4.80289 -2.26928 0
M  V30 1122 C 108.386 5.04707 -3.4632 0
M  V30 1123 N 107.523 6.22956 -3.23836 0
M  V30 1124 H 112.363 1.83979 -2.34427 0
M  V30 1125 H 109.9 0.898876 -1.16442 0
M  V30 1126 H 111.858 4.01137 -1.1465 0
M  V30 1127 H 110.488 3.21076 -0.333153 0
M  V30 1128 H 109.54 2.68447 -2.69519 0
M  V30 1129 H 110.852 3.67205 -3.37582 0
M  V30 1130 H 110.006 5.67725 -2.13947 0
M  V30 1131 H 108.745 4.68519 -1.35431 0
M  V30 1132 H 107.75 4.1573 -3.5979 0
M  V30 1133 H 108.975 5.18357 -4.38729 0
M  V30 1134 H 106.921 6.12459 -2.35011 0
M  V30 1135 H 106.838 6.37539 -4.063 0
M  V30 1136 H 108.106 7.1321 -3.14566 0
M  V30 1137 N 112.336 1.25143 0.95797 0
M  V30 1138 C 113.286 1.01924 2.0395 0
M  V30 1139 C 114.27 -0.0427175 1.60843 0
M  V30 1140 O 115.462 0.17221 1.7616 0
M  V30 1141 C 112.591 0.636373 3.3735 0
M  V30 1142 C 111.677 1.73492 3.8699 0
M  V30 1143 N 112.068 2.96945 4.0946 0
M  V30 1144 C 110.366 1.61467 4.15746 0
M  V30 1145 C 111.067 3.68228 4.50315 0
M  V30 1146 N 110.043 2.95833 4.56053 0
M  V30 1147 H 113.845 1.95653 2.19311 0
M  V30 1148 H 111.359 1.15413 1.14253 0
M  V30 1149 H 113.356 0.451233 4.14451 0
M  V30 1150 H 112.016 -0.293621 3.2337 0
M  V30 1151 H 113.027 3.33025 3.96629 0
M  V30 1152 H 109.704 0.753394 4.10646 0
M  V30 1153 H 111.094 4.74178 4.76031 0
M  V30 1154 N 113.814 -1.1601 1.06675 0
M  V30 1155 C 115.062 -1.86264 0.784229 0
M  V30 1156 C 115.383 -1.82328 -0.691488 0
M  V30 1157 O 114.653 -1.25947 -1.50047 0
M  V30 1158 H 113.233 -0.689621 0.28711 0
M  V30 1159 H 115.895 -1.40664 1.34906 0
M  V30 1160 H 114.991 -2.91595 1.11259 0
M  V30 1161 N 115.292 -0.849877 -1.32721 0
M  V30 1162 C 116.541 -0.447175 -1.96681 0
M  V30 1163 C 116.854 1.00135 -1.68025 0
M  V30 1164 O 118.06 1.50926 -2.25685 0
M  V30 1165 C 116.516 -0.7487 -3.52026 0
M  V30 1166 C 116.124 -2.21264 -3.89546 0
M  V30 1167 C 117.868 -0.413487 -4.22481 0
M  V30 1168 C 115.775 -2.45763 -5.37917 0
M  V30 1169 H 114.705 -0.163486 -0.736063 0
M  V30 1170 H 117.356 -1.03999 -1.51183 0
M  V30 1171 H 115.738 -0.0853727 -3.95908 0
M  V30 1172 H 116.912 -2.91736 -3.56689 0
M  V30 1173 H 115.227 -2.5119 -3.32103 0
M  V30 1174 H 117.824 -0.574017 -5.3161 0
M  V30 1175 H 118.167 0.644492 -4.11281 0
M  V30 1176 H 118.7 -1.03251 -3.84167 0
M  V30 1177 H 115.439 -3.50168 -5.54132 0
M  V30 1178 H 114.959 -1.79864 -5.72197 0
M  V30 1179 H 116.638 -2.29471 -6.0494 0
M  V30 1180 N 116.77 1.45427 -0.607355 0
M  V30 1181 C 118.016 2.0254 -0.102607 0
M  V30 1182 C 118.349 1.47478 1.26348 0
M  V30 1183 O 117.624 0.64939 1.83339 0
M  V30 1184 C 117.907 3.60044 -0.0634347 0
M  V30 1185 C 117.76 4.2544 -1.46017 0
M  V30 1186 C 119.079 4.35646 0.624514 0
M  V30 1187 H 116.198 0.73598 -0.0387607 0
M  V30 1188 H 118.84 1.73284 -0.779282 0
M  V30 1189 H 116.99 3.85101 0.512808 0
M  V30 1190 H 118.662 4.11569 -2.08347 0
M  V30 1191 H 116.905 3.83849 -2.02094 0
M  V30 1192 H 117.576 5.34342 -1.385 0
M  V30 1193 H 120.052 4.15882 0.134723 0
M  V30 1194 H 118.928 5.45376 0.621028 0
M  V30 1195 H 119.189 4.08501 1.69055 0
M  V30 1196 N 118.248 0.346503 1.53744 0
M  V30 1197 C 119.178 -0.501193 2.28058 0
M  V30 1198 C 120.159 -1.10014 1.29734 0
M  V30 1199 O 121.344 -1.12097 1.58581 0
M  V30 1200 C 118.474 -1.65078 3.05559 0
M  V30 1201 C 117.428 -1.18003 4.11411 0
M  V30 1202 C 116.754 -2.41837 4.76884 0
M  V30 1203 C 118.054 -0.278394 5.21558 0
M  V30 1204 H 119.748 0.11875 2.99164 0
M  V30 1205 H 117.294 0.0585531 1.43881 0
M  V30 1206 H 119.247 -2.25028 3.56287 0
M  V30 1207 H 117.971 -2.29767 2.32109 0
M  V30 1208 H 116.63 -0.603331 3.61601 0
M  V30 1209 H 116.278 -3.0494 4.00026 0
M  V30 1210 H 115.978 -2.1102 5.48402 0
M  V30 1211 H 117.502 -3.02508 5.30397 0
M  V30 1212 H 118.916 -0.784823 5.67903 0
M  V30 1213 H 117.313 -0.0619707 6.00068 0
M  V30 1214 H 118.383 0.684677 4.80042 0
M  V30 1215 N 119.726 -1.57421 0.075193 0
M  V30 1216 C 120.974 -1.93236 -0.591974 0
M  V30 1217 C 121.295 -0.956241 -1.69944 0
M  V30 1218 O 120.565 -0.00494792 -1.95899 0
M  V30 1219 H 119.145 -0.713355 -0.22166 0
M  V30 1220 H 121.807 -1.9444 0.133848 0
M  V30 1221 H 120.903 -2.95131 -1.01509 0
M  V30 1222 N 121.204 0.198386 -1.56346 0
M  V30 1223 C 122.152 1.26538 -1.95169 0
M  V30 1224 C 123.146 1.47295 -0.836685 0
M  V30 1225 O 124.352 1.48195 -1.02167 0
M  V30 1226 H 120.727 0.424744 -0.620561 0
M  V30 1227 H 122.698 0.910904 -2.84157 0
M  V30 1228 C 121.447 2.6035 -2.30463 0
M  V30 1229 H 120.77 2.45192 -3.15786 0
M  V30 1230 H 122.21 3.33762 -2.61494 0
M  V30 1231 C 120.669 3.17096 -1.13806 0
M  V30 1232 O 121.199 3.99588 -0.41135 0
M  V30 1233 N 119.405 2.75795 -0.915736 0
M  V30 1234 H 118.952 2.08816 -1.50843 0
M  V30 1235 H 118.91 3.14101 -0.136979 0
M  V30 1236 N 122.682 1.50554 0.465978 0
M  V30 1237 C 123.612 1.72722 1.57128 0
M  V30 1238 C 124.593 0.576294 1.6004 0
M  V30 1239 O 125.778 0.81598 1.76225 0
M  V30 1240 C 122.908 1.82605 2.95419 0
M  V30 1241 C 121.862 2.97835 3.07373 0
M  V30 1242 C 121.188 2.92867 4.47363 0
M  V30 1243 C 122.488 4.38265 2.84114 0
M  V30 1244 H 124.182 2.65267 1.38829 0
M  V30 1245 H 121.728 1.2765 0.666441 0
M  V30 1246 H 123.681 1.96698 3.72677 0
M  V30 1247 H 122.405 0.866858 3.14886 0
M  V30 1248 H 121.064 2.83401 2.3255 0
M  V30 1249 H 120.712 1.94783 4.63755 0
M  V30 1250 H 120.412 3.70227 4.56296 0
M  V30 1251 H 121.936 3.09015 5.26633 0
M  V30 1252 H 123.35 4.53198 3.51118 0
M  V30 1253 H 121.747 5.17115 3.04487 0
M  V30 1254 H 122.817 4.50281 1.7993 0
M  V30 1255 N 124.16 -0.719506 1.40217 0
M  V30 1256 C 125.406 -1.48152 1.38488 0
M  V30 1257 C 125.739 -1.94195 -0.0141867 0
M  V30 1258 O 125.014 -1.67884 -0.982096 0
M  V30 1259 C 125.297 -2.71035 2.37091 0
M  V30 1260 C 125.15 -2.30912 3.86005 0
M  V30 1261 C 126.469 -3.73182 2.33288 0
M  V30 1262 H 123.588 -0.537395 0.504357 0
M  V30 1263 H 126.23 -0.821472 1.71324 0
M  V30 1264 H 124.38 -3.27352 2.0922 0
M  V30 1265 H 126.052 -1.80107 4.24687 0
M  V30 1266 H 124.295 -1.62958 4.02029 0
M  V30 1267 H 124.966 -3.18978 4.50508 0
M  V30 1268 H 127.442 -3.26485 2.57966 0
M  V30 1269 H 126.318 -4.56806 3.04334 0
M  V30 1270 H 126.579 -4.21202 1.34317 0
M  V30 1271 N 125.638 -1.25649 -0.95132 0
M  V30 1272 C 126.886 -1.10375 -1.69298 0
M  V30 1273 C 127.207 0.355339 -1.91735 0
M  V30 1274 O 126.477 1.25188 -1.50681 0
M  V30 1275 H 125.057 -0.405461 -0.627384 0
M  V30 1276 H 127.719 -1.57823 -1.14358 0
M  V30 1277 H 126.815 -1.61465 -2.67087 0
M  V30 1278 N 127.117 1.15442 -1.07289 0
M  V30 1279 C 128.047 2.22312 -0.714107 0
M  V30 1280 C 129.028 1.67467 0.298155 0
M  V30 1281 O 130.213 1.93445 0.171048 0
M  V30 1282 C 127.343 3.47124 -0.110448 0
M  V30 1283 C 126.297 4.14926 -1.04979 0
M  V30 1284 C 125.623 5.33807 -0.308924 0
M  V30 1285 C 126.923 4.64762 -2.38314 0
M  V30 1286 H 128.617 2.5258 -1.6076 0
M  V30 1287 H 126.163 1.21404 -0.77441 0
M  V30 1288 H 128.116 4.21124 0.152482 0
M  V30 1289 H 126.84 3.16187 0.81812 0
M  V30 1290 H 125.499 3.42866 -1.29764 0
M  V30 1291 H 125.147 4.99126 0.623084 0
M  V30 1292 H 124.847 5.80113 -0.935036 0
M  V30 1293 H 126.371 6.10576 -0.0537771 0
M  V30 1294 H 127.785 5.30292 -2.1786 0
M  V30 1295 H 126.182 5.21728 -2.96514 0
M  V30 1296 H 127.252 3.80434 -3.00663 0
M  V30 1297 N 128.595 0.856903 1.32268 0
M  V30 1298 C 129.844 0.457599 1.96441 0
M  V30 1299 C 130.157 -0.992426 1.68553 0
M  V30 1300 O 131.363 -1.49727 2.26482 0
M  V30 1301 C 129.819 0.767358 3.51624 0
M  V30 1302 C 129.427 2.23326 3.88367 0
M  V30 1303 C 131.171 0.435887 4.22256 0
M  V30 1304 C 129.078 2.48613 5.36606 0
M  V30 1305 H 128.008 0.167387 0.735185 0
M  V30 1306 H 130.659 1.048 1.5063 0
M  V30 1307 H 129.041 0.106367 3.95857 0
M  V30 1308 H 130.215 2.93623 3.55137 0
M  V30 1309 H 128.53 2.52948 3.30766 0
M  V30 1310 H 131.127 0.602202 5.31298 0
M  V30 1311 H 131.47 -0.622672 4.11617 0
M  V30 1312 H 132.003 1.05286 3.83614 0
M  V30 1313 H 128.742 3.53101 5.52268 0
M  V30 1314 H 128.262 1.82896 5.71235 0
M  V30 1315 H 129.941 2.32676 6.03714 0
M  V30 1316 N 130.073 -1.45103 0.615059 0
M  V30 1317 C 131.35 -1.95549 0.0448276 0
M  V30 1318 C 131.73 -1.55737 -1.4251 0
M  V30 1319 O 131.078 -0.823556 -2.13143 0
M  V30 1320 C 131.288 -3.48098 0.250785 0
M  V30 1321 C 132.636 -4.24384 0.135509 0
M  V30 1322 O 133.66 -3.55738 0.181299 0
M  V30 1323 O 132.519 -5.46493 0.0268878 0
M  V30 1324 H 129.613 -0.8264 -0.0314845 0
M  V30 1325 H 132.159 -1.55232 0.685642 0
M  V30 1326 H 130.931 -3.7007 1.27139 0
M  V30 1327 H 130.554 -3.95323 -0.424937 0
M  V30 1328 N 131.551 -0.354651 -1.53558 0
M  V30 1329 C 132.776 0.242153 -2.05981 0
M  V30 1330 C 133.201 1.42553 -1.2272 0
M  V30 1331 O 132.559 1.79656 -0.243604 0
M  V30 1332 C 132.607 0.624367 -3.55154 0
M  V30 1333 O 131.711 1.72301 -3.74681 0
M  V30 1334 H 131.052 0.0378432 -0.662921 0
M  V30 1335 H 133.582 -0.512087 -1.98088 0
M  V30 1336 H 133.592 0.898433 -3.97985 0
M  V30 1337 H 132.267 -0.240989 -4.15201 0
M  V30 1338 H 130.844 1.44535 -3.4375 0
M  V30 1339 N 133.029 1.57378 -0.0835403 0
M  V30 1340 C 134.306 1.85363 0.624507 0
M  V30 1341 C 134.686 0.978239 1.87066 0
M  V30 1342 O 134.034 0.0475908 2.2845 0
M  V30 1343 C 134.244 3.35795 0.950947 0
M  V30 1344 C 135.592 4.03581 1.31939 0
M  V30 1345 O 136.616 3.40609 1.04232 0
M  V30 1346 O 135.475 5.14672 1.83779 0
M  V30 1347 H 132.569 0.766162 0.311329 0
M  V30 1348 H 135.115 1.69307 -0.115362 0
M  V30 1349 H 133.887 3.91244 0.0663899 0
M  V30 1350 H 133.51 3.57154 1.74719 0
M  V30 1351 N 134.507 -0.190092 1.56449 0
M  V30 1352 C 135.737 -0.92443 1.84764 0
M  V30 1353 C 136.145 -1.77146 0.664529 0
M  V30 1354 O 135.488 -1.79812 -0.375957 0
M  V30 1355 C 135.55 -1.86651 3.07248 0
M  V30 1356 C 135.214 -1.20094 4.40938 0
M  V30 1357 C 136.211 -0.575445 5.16706 0
M  V30 1358 C 133.896 -1.2033 4.87674 0
M  V30 1359 C 135.89 0.0388111 6.37388 0
M  V30 1360 C 133.577 -0.585214 6.08291 0
M  V30 1361 C 134.575 0.0347578 6.82991 0
M  V30 1362 O 134.263 0.643147 8.01323 0
M  V30 1363 H 133.995 -0.274974 0.617548 0
M  V30 1364 H 136.549 -0.200788 2.04416 0
M  V30 1365 H 134.779 -2.62998 2.83494 0
M  V30 1366 H 136.468 -2.46907 3.22167 0
M  V30 1367 H 137.234 -0.565728 4.81689 0
M  V30 1368 H 133.113 -1.67526 4.29484 0
M  V30 1369 H 136.657 0.523329 6.95634 0
M  V30 1370 H 132.554 -0.592451 6.42775 0
M  V30 1371 H 133.322 0.540545 8.16713 0
M  V30 1372 N 135.985 -1.50799 -0.457987 0
M  V30 1373 C 136.917 -1.66786 -1.57211 0
M  V30 1374 C 137.93 -0.548962 -1.53265 0
M  V30 1375 O 139.119 -0.8226 -1.58416 0
M  V30 1376 C 136.219 -1.64834 -2.96113 0
M  V30 1377 C 135.392 -2.92971 -3.24787 0
M  V30 1378 C 134.451 -2.83485 -4.43309 0
M  V30 1379 O 133.477 -3.5744 -4.42973 0
M  V30 1380 N 134.679 -1.97929 -5.45714 0
M  V30 1381 H 137.444 -2.62889 -1.43909 0
M  V30 1382 H 135.005 -1.48427 -0.646617 0
M  V30 1383 H 136.997 -1.56084 -3.7339 0
M  V30 1384 H 135.567 -0.764118 -3.03117 0
M  V30 1385 H 134.787 -3.15749 -2.36 0
M  V30 1386 H 136.075 -3.77834 -3.40762 0
M  V30 1387 H 135.473 -1.37182 -5.48815 0
M  V30 1388 H 134.03 -1.95073 -6.21924 0
M  V30 1389 N 137.463 0.71206 -1.40597 0
M  V30 1390 C 138.711 1.46907 -1.38791 0
M  V30 1391 C 139.032 1.94998 0.00780391 0
M  V30 1392 O 138.302 1.70587 0.963174 0
M  V30 1393 H 136.882 0.545043 -0.51082 0
M  V30 1394 H 139.544 0.843882 -1.75683 0
M  V30 1395 H 138.64 2.34021 -2.06496 0
M  V30 1396 N 138.941 1.26152 0.944643 0
M  V30 1397 C 139.873 1.03199 2.04652 0
M  V30 1398 C 140.886 -0.00642356 1.62799 0
M  V30 1399 O 142.075 0.233263 1.76969 0
M  V30 1400 C 139.175 0.540111 3.34568 0
M  V30 1401 C 138.348 1.64697 4.05208 0
M  V30 1402 C 137.407 1.15374 5.13396 0
M  V30 1403 O 136.433 1.85013 5.38293 0
M  V30 1404 N 137.635 0.00031529 5.805 0
M  V30 1405 H 140.4 1.9808 2.2491 0
M  V30 1406 H 137.961 1.17491 1.11389 0
M  V30 1407 H 139.953 0.194401 4.04233 0
M  V30 1408 H 138.523 -0.315021 3.11009 0
M  V30 1409 H 137.743 2.16379 3.29506 0
M  V30 1410 H 139.031 2.3903 4.49157 0
M  V30 1411 H 138.429 -0.581336 5.62705 0
M  V30 1412 H 136.986 -0.286346 6.51171 0
M  V30 1413 N 140.419 -1.14872 1.07899 0
M  V30 1414 C 141.349 -2.2193 0.725887 0
M  V30 1415 C 142.33 -1.67622 -0.28927 0
M  V30 1416 O 143.515 -1.93533 -0.160787 0
M  V30 1417 C 140.645 -3.47061 0.128856 0
M  V30 1418 C 139.599 -4.14363 1.07178 0
M  V30 1419 C 138.925 -5.33636 0.337229 0
M  V30 1420 C 140.225 -4.63492 2.40775 0
M  V30 1421 H 141.919 -2.51724 1.62097 0
M  V30 1422 H 139.465 -1.20991 0.780838 0
M  V30 1423 H 141.418 -4.21199 -0.130147 0
M  V30 1424 H 140.142 -3.16617 -0.80134 0
M  V30 1425 H 138.801 -3.42173 1.3158 0
M  V30 1426 H 138.449 -4.99449 -0.596606 0
M  V30 1427 H 138.149 -5.79609 0.965788 0
M  V30 1428 H 139.673 -6.10539 0.0861567 0
M  V30 1429 H 141.087 -5.2913 2.20669 0
M  V30 1430 H 139.484 -5.20148 2.99276 0
M  V30 1431 H 140.554 -3.78834 3.02676 0
M  V30 1432 N 141.898 -0.863906 -1.31812 0
M  V30 1433 C 142.831 -0.259963 -2.26714 0
M  V30 1434 C 143.809 0.607392 -1.50829 0
M  V30 1435 O 144.993 0.562155 -1.79922 0
M  V30 1436 C 142.12 0.632456 -3.32743 0
M  V30 1437 C 141.166 -0.162743 -4.26189 0
M  V30 1438 S 141.999 -1.53726 -5.12961 0
M  V30 1439 C 143.155 -0.650803 -6.22507 0
M  V30 1440 H 143.388 -1.06445 -2.77591 0
M  V30 1441 H 140.921 -0.662071 -1.39485 0
M  V30 1442 H 142.879 1.14167 -3.94305 0
M  V30 1443 H 141.54 1.41083 -2.80632 0
M  V30 1444 H 140.733 0.517366 -5.01338 0
M  V30 1445 H 140.335 -0.60385 -3.69093 0
M  V30 1446 H 142.627 0.141134 -6.77353 0
M  V30 1447 H 143.57 -1.37322 -6.94657 0
M  V30 1448 H 143.978 -0.221041 -5.64067 0
M  V30 1449 N 143.376 1.44774 -0.622745 0
M  V30 1450 C 144.625 2.01334 -0.121397 0
M  V30 1451 C 144.938 1.49505 1.26125 0
M  V30 1452 O 146.144 1.98139 1.85616 0
M  V30 1453 C 144.6 3.59516 -0.166298 0
M  V30 1454 C 144.208 4.20342 -1.54974 0
M  V30 1455 C 145.952 4.23582 0.279021 0
M  V30 1456 C 143.859 5.70721 -1.55021 0
M  V30 1457 H 142.789 0.752851 -0.0416172 0
M  V30 1458 H 145.44 1.66083 -0.780309 0
M  V30 1459 H 143.822 3.92027 0.559557 0
M  V30 1460 H 144.996 3.99381 -2.29851 0
M  V30 1461 H 143.311 3.68529 -1.93843 0
M  V30 1462 H 145.908 5.33868 0.298083 0
M  V30 1463 H 146.251 3.95327 1.30471 0
M  V30 1464 H 146.784 3.95843 -0.394063 0
M  V30 1465 H 143.523 6.03698 -2.55399 0
M  V30 1466 H 143.043 5.93829 -0.844245 0
M  V30 1467 H 144.722 6.34203 -1.28047 0
M  V30 1468 N 144.854 0.36279 1.53368 0
M  V30 1469 C 146.079 -0.231226 2.06107 0
M  V30 1470 C 146.504 -1.419 1.23474 0
M  V30 1471 O 145.862 -1.79524 0.253128 0
M  V30 1472 C 145.91 -0.605523 3.5548 0
M  V30 1473 O 145.014 -1.70312 3.7559 0
M  V30 1474 H 144.355 -0.034327 0.663112 0
M  V30 1475 H 146.885 0.522584 1.97814 0
M  V30 1476 H 146.895 -0.877314 3.98456 0
M  V30 1477 H 145.57 0.263004 4.15068 0
M  V30 1478 H 144.147 -1.4271 3.44512 0
M  V30 1479 N 146.332 -1.57332 0.0918853 0
M  V30 1480 C 147.578 -1.94524 -0.573425 0
M  V30 1481 C 147.911 -0.973578 -1.68033 0
M  V30 1482 O 147.186 -0.00609226 -1.94499 0
M  V30 1483 C 147.469 -3.41858 -1.13161 0
M  V30 1484 C 147.322 -4.4979 -0.0299747 0
M  V30 1485 C 148.641 -3.90435 -2.03098 0
M  V30 1486 H 145.76 -0.70734 -0.206975 0
M  V30 1487 H 148.402 -1.89309 0.161942 0
M  V30 1488 H 146.552 -3.46433 -1.7583 0
M  V30 1489 H 148.224 -4.57327 0.604112 0
M  V30 1490 H 146.467 -4.291 0.636833 0
M  V30 1491 H 147.138 -5.50069 -0.461287 0
M  V30 1492 H 149.614 -3.87992 -1.50338 0
M  V30 1493 H 148.49 -4.94097 -2.39081 0
M  V30 1494 H 148.751 -3.29541 -2.94712 0
M  V30 1495 N 147.81 0.181792 -1.56548 0
M  V30 1496 C 149.056 0.896803 -1.82562 0
M  V30 1497 C 149.411 1.80324 -0.670908 0
M  V30 1498 O 148.704 1.8868 0.333235 0
M  V30 1499 C 148.898 1.73728 -3.12335 0
M  V30 1500 C 148.727 0.913714 -4.4032 0
M  V30 1501 C 147.497 0.592903 -5.01809 0
M  V30 1502 C 149.695 0.260164 -5.13642 0
M  V30 1503 N 147.677 -0.247901 -6.13399 0
M  V30 1504 C 149.048 -0.442256 -6.18421 0
M  V30 1505 C 151.103 0.177253 -4.97584 0
M  V30 1506 C 149.806 -1.21971 -7.08883 0
M  V30 1507 C 151.832 -0.586839 -5.88481 0
M  V30 1508 C 151.194 -1.27766 -6.92716 0
M  V30 1509 H 147.293 0.307122 -0.719166 0
M  V30 1510 H 149.877 0.164535 -1.94004 0
M  V30 1511 H 148.048 2.44105 -3.02105 0
M  V30 1512 H 149.78 2.39279 -3.26386 0
M  V30 1513 H 146.535 0.920502 -4.64568 0
M  V30 1514 H 146.959 -0.658304 -6.73792 0
M  V30 1515 H 151.601 0.696993 -4.17015 0
M  V30 1516 H 149.319 -1.75083 -7.88905 0
M  V30 1517 H 152.905 -0.652522 -5.78129 0
M  V30 1518 H 151.785 -1.85943 -7.61836 0
M  V30 1519 N 149.288 1.51039 0.449983 0
M  V30 1520 C 150.236 1.71995 1.5659 0
M  V30 1521 C 151.23 0.586029 1.5894 0
M  V30 1522 O 152.436 0.76709 1.62837 0
M  V30 1523 H 148.811 0.543233 0.520001 0
M  V30 1524 H 150.782 2.65562 1.36085 0
M  V30 1525 C 149.531 1.8506 2.9436 0
M  V30 1526 H 148.854 2.71712 2.93279 0
M  V30 1527 H 150.294 2.0374 3.71842 0
M  V30 1528 C 148.753 0.607277 3.31382 0
M  V30 1529 O 149.283 -0.243903 4.00959 0
M  V30 1530 N 147.489 0.455073 2.87015 0
M  V30 1531 H 147.036 1.14879 2.30566 0
M  V30 1532 H 146.994 -0.375611 3.12148 0
M  V30 1533 N 150.766 -0.704594 1.40972 0
M  V30 1534 C 152.182 -1.01406 1.23244 0
M  V30 1535 C 152.382 -2.01169 0.115399 0
M  V30 1536 O 151.438 -2.47021 -0.523147 0
M  V30 1537 C 152.751 -1.54728 2.57836 0
M  V30 1538 C 154.299 -1.66658 2.64942 0
M  V30 1539 C 154.774 -2.23383 3.9983 0
M  V30 1540 N 156.265 -2.30756 4.01629 0
M  V30 1541 C 157 -2.75655 5.02794 0
M  V30 1542 N 156.496 -3.20225 6.14352 0
M  V30 1543 N 158.289 -2.75138 4.90159 0
M  V30 1544 H 150.44 -0.0435285 2.12355 0
M  V30 1545 H 152.703 -0.0818951 0.944456 0
M  V30 1546 H 152.409 -0.888832 3.40283 0
M  V30 1547 H 152.283 -2.53084 2.79693 0
M  V30 1548 H 154.67 -2.31617 1.8286 0
M  V30 1549 H 154.751 -0.668717 2.46904 0
M  V30 1550 H 154.395 -1.59043 4.82357 0
M  V30 1551 H 154.325 -3.23904 4.15203 0
M  V30 1552 H 156.816 -1.99291 3.21079 0
M  V30 1553 H 157.129 -3.53084 6.87424 0
M  V30 1554 H 155.474 -3.18156 6.17901 0
M  V30 1555 H 158.665 -2.39661 4.02095 0
M  V30 1556 H 158.838 -3.09812 5.6914 0
M  V30 1557 N 152.244 -1.26651 -0.937939 0
M  V30 1558 C 153.492 -1.12165 -1.68118 0
M  V30 1559 C 153.813 0.334983 -1.92101 0
M  V30 1560 O 153.083 1.23583 -1.52 0
M  V30 1561 H 151.663 -0.412093 -0.623048 0
M  V30 1562 H 154.325 -1.59027 -1.12678 0
M  V30 1563 H 153.421 -1.64289 -2.6536 0
M  V30 1564 N 153.722 1.14298 -1.08507 0
M  V30 1565 C 154.654 2.1907 -0.673859 0
M  V30 1566 C 155.667 1.60381 0.279577 0
M  V30 1567 O 156.856 1.78374 0.0670754 0
M  V30 1568 C 153.956 3.38888 0.0290979 0
M  V30 1569 C 153.129 4.27103 -0.943494 0
M  V30 1570 C 152.188 5.25477 -0.275676 0
M  V30 1571 O 151.214 5.61709 -0.920401 0
M  V30 1572 N 152.416 5.7227 0.974013 0
M  V30 1573 H 155.181 2.54965 -1.57521 0
M  V30 1574 H 152.742 1.29528 -0.971287 0
M  V30 1575 H 154.734 4.01761 0.48683 0
M  V30 1576 H 153.304 3.01309 0.832555 0
M  V30 1577 H 152.524 3.61149 -1.58004 0
M  V30 1578 H 153.812 4.82905 -1.60251 0
M  V30 1579 H 153.21 5.44965 1.51755 0
M  V30 1580 H 151.767 6.37127 1.37522 0
M  V30 1581 N 155.201 0.870884 1.31352 0
M  V30 1582 C 156.478 0.402907 1.91405 0
M  V30 1583 C 156.858 -1.11512 1.79244 0
M  V30 1584 O 156.206 -1.94411 1.2007 0
M  V30 1585 C 156.416 0.885301 3.37585 0
M  V30 1586 C 157.764 0.911971 4.14691 0
M  V30 1587 O 158.788 0.831016 3.46371 0
M  V30 1588 O 157.647 1.02927 5.3672 0
M  V30 1589 H 154.741 0.120698 0.818145 0
M  V30 1590 H 157.287 0.958857 1.40014 0
M  V30 1591 H 156.059 1.92889 3.40455 0
M  V30 1592 H 155.682 0.307714 3.96407 0
M  V30 1593 N 156.679 -1.44442 0.630414 0
M  V30 1594 C 157.904 -2.06927 0.139944 0
M  V30 1595 C 158.329 -1.46795 -1.17613 0
M  V30 1596 O 157.687 -0.569144 -1.72135 0
M  V30 1597 C 157.735 -3.6058 0.0379581 0
M  V30 1598 O 156.839 -3.99937 -1.0062 0
M  V30 1599 H 156.18 -0.658608 0.0844483 0
M  V30 1600 H 158.71 -1.85327 0.866891 0
M  V30 1601 H 158.72 -4.07714 -0.152856 0
M  V30 1602 H 157.395 -4.03728 0.998809 0
M  V30 1603 H 155.972 -3.64436 -0.79001 0
M  V30 1604 N 158.157 -0.370918 -1.53173 0
M  V30 1605 C 159.404 0.217102 -2.01333 0
M  V30 1606 C 159.732 1.48338 -1.25802 0
M  V30 1607 O 158.987 1.92698 -0.34146 0
M  V30 1608 C 159.286 0.549696 -3.53147 0
M  V30 1609 C 158.952 -0.622872 -4.46577 0
M  V30 1610 C 157.614 -0.944595 -4.71838 0
M  V30 1611 C 159.966 -1.40819 -5.01816 0
M  V30 1612 C 157.294 -2.05351 -5.49589 0
M  V30 1613 C 159.646 -2.50757 -5.80778 0
M  V30 1614 C 158.31 -2.83458 -6.04324 0
M  V30 1615 H 157.58 0.0794431 -0.736729 0
M  V30 1616 H 160.227 -0.504481 -1.84736 0
M  V30 1617 H 158.532 1.35237 -3.6772 0
M  V30 1618 H 160.229 1.017 -3.87889 0
M  V30 1619 H 156.819 -0.36209 -4.27068 0
M  V30 1620 H 161.003 -1.17289 -4.82242 0
M  V30 1621 H 156.259 -2.3108 -5.6605 0
M  V30 1622 H 160.433 -3.12022 -6.22588 0
M  V30 1623 H 158.06 -3.69508 -6.64355 0
M  V30 1624 N 159.635 1.57281 -0.100228 0
M  V30 1625 C 160.863 1.98879 0.570509 0
M  V30 1626 C 161.278 0.979476 1.61405 0
M  V30 1627 O 160.635 -0.0302288 1.82475 0
M  V30 1628 C 160.686 3.4052 1.2136 0
M  V30 1629 O 160.407 4.37588 0.211786 0
M  V30 1630 C 161.908 3.97149 1.96945 0
M  V30 1631 H 159.128 0.653428 0.152555 0
M  V30 1632 H 161.672 2.03697 -0.18103 0
M  V30 1633 H 159.827 3.367 1.91603 0
M  V30 1634 H 160.241 5.20118 0.676607 0
M  V30 1635 H 161.715 4.98393 2.37294 0
M  V30 1636 H 162.192 3.3525 2.83733 0
M  V30 1637 H 162.798 4.04458 1.31506 0
M  V30 1638 N 161.113 -0.173488 1.56642 0
M  V30 1639 C 162.362 -0.888758 1.81063 0
M  V30 1640 C 162.675 -1.83506 0.67712 0
M  V30 1641 O 163.881 -2.59254 0.806206 0
M  V30 1642 C 162.337 -1.63091 3.20826 0
M  V30 1643 C 161.945 -0.728357 4.4204 0
M  V30 1644 C 163.689 -2.33454 3.54541 0
M  V30 1645 C 161.596 -1.47062 5.72823 0
M  V30 1646 H 160.526 -0.335618 0.675186 0
M  V30 1647 H 163.177 -0.141712 1.82952 0
M  V30 1648 H 161.559 -2.42263 3.13248 0
M  V30 1649 H 162.733 0.0262449 4.60793 0
M  V30 1650 H 161.048 -0.134492 4.16183 0
M  V30 1651 H 163.645 -2.89578 4.49498 0
M  V30 1652 H 163.988 -3.08687 2.79317 0
M  V30 1653 H 164.521 -1.61227 3.63663 0
M  V30 1654 H 161.26 -0.760658 6.51072 0
M  V30 1655 H 160.78 -2.1986 5.58052 0
M  V30 1656 H 162.459 -2.01868 6.14702 0
M  V30 1657 N 162.591 -1.51276 -0.441967 0
M  V30 1658 C 163.523 -1.68444 -1.55433 0
M  V30 1659 C 164.536 -0.565187 -1.52674 0
M  V30 1660 O 165.725 -0.839356 -1.57534 0
M  V30 1661 C 162.825 -1.67966 -2.94348 0
M  V30 1662 C 161.998 -2.964 -3.21661 0
M  V30 1663 C 161.057 -2.88171 -4.40277 0
M  V30 1664 O 160.083 -3.62119 -4.39157 0
M  V30 1665 N 161.285 -2.03706 -5.43584 0
M  V30 1666 H 164.05 -2.644 -1.41112 0
M  V30 1667 H 161.611 -1.49104 -0.630838 0
M  V30 1668 H 163.603 -1.60035 -3.71713 0
M  V30 1669 H 162.173 -0.796225 -3.0229 0
M  V30 1670 H 161.393 -3.18234 -2.32638 0
M  V30 1671 H 162.681 -3.81427 -3.36736 0
M  V30 1672 H 162.079 -1.42995 -5.47329 0
M  V30 1673 H 160.636 -2.01658 -6.1982 0
M  V30 1674 N 164.069 0.697108 -1.41344 0
M  V30 1675 C 165.48 1.27697 -1.36199 0
M  V30 1676 C 165.831 1.9615 -0.0443463 0
M  V30 1677 O 164.956 1.98689 0.857419 0
M  V30 1678 C 165.551 2.32223 -2.46694 0
M  V30 1679 C 164.11 2.8579 -2.44952 0
M  V30 1680 C 163.257 1.59807 -2.26621 0
M  V30 1681 H 166.208 0.491968 -1.50882 0
M  V30 1682 H 166.229 3.1348 -2.15664 0
M  V30 1683 H 165.741 1.82373 -3.42581 0
M  V30 1684 H 163.842 3.3982 -1.52817 0
M  V30 1685 H 163.955 3.36325 -3.41207 0
M  V30 1686 H 162.319 1.8556 -1.7447 0
M  V30 1687 H 163.102 1.11956 -3.24532 0
M  V30 1688 N 165.547 1.27147 0.931209 0
M  V30 1689 C 166.795 1.13055 1.6752 0
M  V30 1690 C 167.116 -0.324791 1.92276 0
M  V30 1691 O 166.386 -1.22775 1.52654 0
M  V30 1692 H 164.966 0.415391 0.620854 0
M  V30 1693 H 167.628 1.59623 1.11833 0
M  V30 1694 H 166.724 1.65694 2.64485 0
M  V30 1695 N 167.025 -1.13721 1.09112 0
M  V30 1696 C 167.935 -2.22638 0.73957 0
M  V30 1697 C 168.951 -1.72091 -0.257068 0
M  V30 1698 O 170.127 -2.01155 -0.0992154 0
M  V30 1699 C 167.192 -3.46322 0.16191 0
M  V30 1700 C 166.253 -4.11775 1.21408 0
M  V30 1701 C 165.486 -5.29555 0.663891 0
M  V30 1702 O 165.709 -5.68077 -0.514274 0
M  V30 1703 O 164.643 -5.84973 1.41738 0
M  V30 1704 H 168.469 -2.55074 1.64836 0
M  V30 1705 H 166.054 -1.21791 0.865289 0
M  V30 1706 H 167.936 -4.21107 -0.157073 0
M  V30 1707 H 166.611 -3.15593 -0.719932 0
M  V30 1708 H 165.518 -3.3883 1.58571 0
M  V30 1709 H 166.851 -4.46627 2.06845 0
M  V30 1710 N 168.503 -0.877838 -1.30888 0
M  V30 1711 C 169.919 -0.570844 -1.49042 0
M  V30 1712 C 170.119 0.893159 -1.80624 0
M  V30 1713 O 169.175 1.67485 -1.88958 0
M  V30 1714 C 170.488 -1.47784 -2.61878 0
M  V30 1715 C 172.036 -1.48071 -2.75761 0
M  V30 1716 C 172.511 -2.37347 -3.91702 0
M  V30 1717 N 174.002 -2.35271 -3.99001 0
M  V30 1718 C 174.737 -3.01063 -4.88004 0
M  V30 1719 N 174.233 -3.76055 -5.81854 0
M  V30 1720 N 176.026 -2.90332 -4.81315 0
M  V30 1721 H 168.177 -1.82502 -1.0866 0
M  V30 1722 H 170.44 -0.780797 -0.537644 0
M  V30 1723 H 170.146 -2.51993 -2.45341 0
M  V30 1724 H 170.02 -1.18215 -3.58197 0
M  V30 1725 H 172.407 -0.446166 -2.91708 0
M  V30 1726 H 172.488 -1.81668 -1.80085 0
M  V30 1727 H 172.132 -3.40883 -3.76512 0
M  V30 1728 H 172.062 -2.01071 -4.86701 0
M  V30 1729 H 174.553 -1.80768 -3.3186 0
M  V30 1730 H 174.866 -4.23366 -6.46514 0
M  V30 1731 H 173.211 -3.80163 -5.81808 0
M  V30 1732 H 176.402 -2.31278 -4.06974 0
M  V30 1733 H 176.575 -3.41885 -5.50471 0
M  V30 1734 N 169.982 1.44106 -0.638065 0
M  V30 1735 C 171.231 2.01194 -0.142744 0
M  V30 1736 C 171.544 1.50835 1.24532 0
M  V30 1737 O 172.75 2.00096 1.83504 0
M  V30 1738 C 171.206 3.59319 -0.20442 0
M  V30 1739 C 170.814 4.18674 -1.59423 0
M  V30 1740 C 172.558 4.23854 0.234079 0
M  V30 1741 C 170.465 5.69045 -1.61065 0
M  V30 1742 H 169.395 0.752367 -0.0495998 0
M  V30 1743 H 172.046 1.65246 -0.797881 0
M  V30 1744 H 170.428 3.92598 0.517946 0
M  V30 1745 H 171.602 3.96921 -2.34074 0
M  V30 1746 H 169.917 3.66453 -1.97741 0
M  V30 1747 H 172.514 5.34155 0.241443 0
M  V30 1748 H 172.857 3.96688 1.2627 0
M  V30 1749 H 173.39 3.95403 -0.436025 0
M  V30 1750 H 170.129 6.00956 -2.61787 0
M  V30 1751 H 169.649 5.929 -0.90718 0
M  V30 1752 H 171.328 6.32809 -1.34766 0
M  V30 1753 N 171.46 0.379036 1.52974 0
M  V30 1754 C 172.423 -0.448865 2.24762 0
M  V30 1755 C 173.423 -0.998689 1.26027 0
M  V30 1756 O 174.613 -0.882313 1.50203 0
M  V30 1757 C 171.745 -1.62872 2.99476 0
M  V30 1758 H 172.938 0.179491 2.99362 0
M  V30 1759 H 170.491 0.13096 1.5575 0
M  V30 1760 H 171.226 -2.29479 2.29151 0
M  V30 1761 H 171.011 -1.24128 3.71934 0
M  V30 1762 H 172.501 -2.2151 3.5401 0
M  V30 1763 N 172.938 -1.57226 0.108567 0
M  V30 1764 C 173.87 -2.11809 -0.875752 0
M  V30 1765 C 174.883 -1.05839 -1.23701 0
M  V30 1766 O 176.072 -1.33245 -1.18778 0
M  V30 1767 C 173.172 -2.59411 -2.18081 0
M  V30 1768 C 172.345 -3.89364 -1.99284 0
M  V30 1769 C 171.404 -4.22672 -3.13424 0
M  V30 1770 O 170.43 -4.91668 -2.86795 0
M  V30 1771 N 171.632 -3.79154 -4.3957 0
M  V30 1772 H 174.397 -2.9689 -0.409477 0
M  V30 1773 H 171.958 -1.61721 -0.076158 0
M  V30 1774 H 173.95 -2.7873 -2.93414 0
M  V30 1775 H 172.52 -1.79268 -2.5609 0
M  V30 1776 H 171.74 -3.79059 -1.08203 0
M  V30 1777 H 173.028 -4.74358 -1.84017 0
M  V30 1778 H 172.426 -3.23486 -4.64083 0
M  V30 1779 H 170.983 -4.03602 -5.11809 0
M  V30 1780 N 174.416 0.165178 -1.56732 0
M  V30 1781 C 175.349 1.23336 -1.91998 0
M  V30 1782 C 176.327 1.42476 -0.783531 0
M  V30 1783 O 177.511 1.57384 -1.03743 0
M  V30 1784 C 174.638 2.59533 -2.17625 0
M  V30 1785 C 173.684 2.57093 -3.40302 0
M  V30 1786 S 174.517 2.05571 -4.9447 0
M  V30 1787 C 175.673 3.43532 -5.23198 0
M  V30 1788 H 175.906 0.932387 -2.82301 0
M  V30 1789 H 173.439 0.370013 -1.49901 0
M  V30 1790 H 175.397 3.37918 -2.3307 0
M  V30 1791 H 174.058 2.86827 -1.28019 0
M  V30 1792 H 173.251 3.57308 -3.55453 0
M  V30 1793 H 172.853 1.86806 -3.24005 0
M  V30 1794 H 175.145 4.39559 -5.15552 0
M  V30 1795 H 176.088 3.33251 -6.2478 0
M  V30 1796 H 176.496 3.39828 -4.50752 0
M  V30 1797 N 175.894 1.51508 0.433938 0
M  V30 1798 C 177.143 1.63578 1.18005 0
M  V30 1799 C 177.456 0.359514 1.92268 0
M  V30 1800 O 178.662 0.359632 2.69108 0
M  V30 1801 C 177.118 2.88901 2.14626 0
M  V30 1802 C 176.726 4.23544 1.45995 0
M  V30 1803 C 178.47 3.10328 2.89649 0
M  V30 1804 C 176.377 5.40014 2.4112 0
M  V30 1805 H 175.307 0.609277 0.444182 0
M  V30 1806 H 177.958 1.77978 0.446773 0
M  V30 1807 H 176.34 2.68142 2.91403 0
M  V30 1808 H 177.514 4.54696 0.747532 0
M  V30 1809 H 175.829 4.08021 0.831115 0
M  V30 1810 H 178.426 3.94518 3.60915 0
M  V30 1811 H 178.769 2.23544 3.51189 0
M  V30 1812 H 179.302 3.31443 2.19978 0
M  V30 1813 H 176.041 6.29068 1.84264 0
M  V30 1814 H 175.561 5.13233 3.10406 0
M  V30 1815 H 177.24 5.72099 3.02177 0
M  V30 1816 N 177.372 -0.689602 1.41712 0
M  V30 1817 C 178.619 -1.44966 1.4139 0
M  V30 1818 C 178.947 -1.94484 0.025105 0
M  V30 1819 O 178.202 -1.70307 -0.964048 0
M  V30 1820 C 178.501 -2.67298 2.37247 0
M  V30 1821 C 178.167 -2.36405 3.83958 0
M  V30 1822 C 176.829 -2.27691 4.23923 0
M  V30 1823 C 179.181 -2.11043 4.76561 0
M  V30 1824 C 176.509 -1.91719 5.54492 0
M  V30 1825 C 178.861 -1.76578 6.07456 0
M  V30 1826 C 177.525 -1.66363 6.46436 0
M  V30 1827 H 176.795 -0.53047 0.517381 0
M  V30 1828 H 179.442 -0.787655 1.74552 0
M  V30 1829 H 177.747 -3.38461 1.9736 0
M  V30 1830 H 179.444 -3.25452 2.34269 0
M  V30 1831 H 176.034 -2.44085 3.52308 0
M  V30 1832 H 180.218 -2.16717 4.46483 0
M  V30 1833 H 175.474 -1.82367 5.83568 0
M  V30 1834 H 179.648 -1.55974 6.78708 0
M  V30 1835 H 177.275 -1.38258 7.47522 0
M  V30 1836 N 178.85 -1.27639 -0.924453 0
M  V30 1837 C 180.096 -1.14336 -1.67497 0
M  V30 1838 C 180.429 0.309465 -1.91718 0
M  V30 1839 O 179.704 1.22608 -1.50989 0
M  V30 1840 C 179.987 -1.93096 -3.0395 0
M  V30 1841 C 179.84 -3.46381 -2.8695 0
M  V30 1842 C 181.159 -1.73798 -4.0433 0
M  V30 1843 H 178.278 -0.416728 -0.607871 0
M  V30 1844 H 180.92 -1.56832 -1.07256 0
M  V30 1845 H 179.07 -1.56982 -3.55372 0
M  V30 1846 H 180.742 -3.92343 -2.42621 0
M  V30 1847 H 178.985 -3.72557 -2.22225 0
M  V30 1848 H 179.656 -3.96735 -3.83804 0
M  V30 1849 H 182.132 -2.05293 -3.61931 0
M  V30 1850 H 181.008 -2.31294 -4.97789 0
M  V30 1851 H 181.269 -0.686725 -4.36734 0
M  V30 1852 N 180.328 1.1314 -1.09713 0
M  V30 1853 C 181.739 1.66029 -0.853885 0
M  V30 1854 C 182.09 1.86241 0.617142 0
M  V30 1855 O 181.215 1.5834 1.47503 0
M  V30 1856 C 181.81 3.01599 -1.5435 0
M  V30 1857 C 180.369 3.51467 -1.34714 0
M  V30 1858 C 179.516 2.26648 -1.59769 0
M  V30 1859 H 182.467 0.970226 -1.25588 0
M  V30 1860 H 182.488 3.67709 -0.978267 0
M  V30 1861 H 182 2.86856 -2.6141 0
M  V30 1862 H 180.101 3.71408 -0.297838 0
M  V30 1863 H 180.214 4.314 -2.08401 0
M  V30 1864 H 178.578 2.33385 -1.01998 0
M  V30 1865 H 179.361 2.14467 -2.68065 0
M  V30 1866 N 181.806 0.884767 1.30421 0
M  V30 1867 C 183.052 0.503851 1.96441 0
M  V30 1868 C 183.385 -0.944518 1.69684 0
M  V30 1869 O 182.66 -1.66737 1.00145 0
M  V30 1870 C 182.943 0.779085 3.51571 0
M  V30 1871 C 182.796 2.27807 3.87846 0
M  V30 1872 C 184.115 0.255452 4.39358 0
M  V30 1873 H 181.234 0.184533 0.713524 0
M  V30 1874 H 183.876 1.10872 1.54297 0
M  V30 1875 H 182.026 0.264274 3.876 0
M  V30 1876 H 183.698 2.86127 3.61841 0
M  V30 1877 H 181.941 2.74479 3.35922 0
M  V30 1878 H 182.612 2.42125 4.96064 0
M  V30 1879 H 185.088 0.696079 4.10236 0
M  V30 1880 H 183.964 0.477361 5.4682 0
M  V30 1881 H 184.225 -0.843293 4.33983 0
M  V30 1882 N 183.284 -1.43765 0.645699 0
M  V30 1883 C 184.53 -2.02197 0.156271 0
M  V30 1884 C 184.863 -1.50776 -1.22393 0
M  V30 1885 O 184.138 -0.697771 -1.81553 0
M  V30 1886 C 184.421 -3.59749 0.158872 0
M  V30 1887 C 184.274 -4.21419 1.57245 0
M  V30 1888 C 185.593 -4.37149 -0.50879 0
M  V30 1889 H 182.712 -0.734694 0.0582602 0
M  V30 1890 H 185.354 -1.71157 0.824951 0
M  V30 1891 H 183.504 -3.86325 -0.410525 0
M  V30 1892 H 185.176 -4.059 2.19186 0
M  V30 1893 H 183.419 -3.78356 2.122 0
M  V30 1894 H 184.09 -5.30482 1.52619 0
M  V30 1895 H 186.566 -4.16093 -0.024412 0
M  V30 1896 H 185.442 -5.4683 -0.476213 0
M  V30 1897 H 185.703 -4.12839 -1.58165 0
M  V30 1898 N 184.763 -0.387143 -1.52771 0
M  V30 1899 C 185.695 0.484089 -2.2403 0
M  V30 1900 C 186.708 1.02849 -1.26198 0
M  V30 1901 O 187.897 0.931186 -1.52286 0
M  V30 1902 C 184.997 1.68337 -2.94136 0
M  V30 1903 C 184.17 1.26672 -4.18656 0
M  V30 1904 C 183.229 2.33045 -4.7178 0
M  V30 1905 O 182.255 1.94541 -5.34923 0
M  V30 1906 N 183.457 3.64929 -4.5145 0
M  V30 1907 H 186.222 -0.126404 -2.99433 0
M  V30 1908 H 183.783 -0.213392 -1.60488 0
M  V30 1909 H 185.775 2.39019 -3.26577 0
M  V30 1910 H 184.345 2.20025 -2.22053 0
M  V30 1911 H 183.565 0.388878 -3.92277 0
M  V30 1912 H 184.853 0.964964 -4.99566 0
M  V30 1913 H 184.251 3.98974 -4.01044 0
M  V30 1914 H 182.808 4.31651 -4.88386 0
M  V30 1915 N 186.241 1.57166 -0.116904 0
M  V30 1916 C 187.204 2.14039 0.819742 0
M  V30 1917 C 188.204 1.07477 1.19605 0
M  V30 1918 O 189.394 1.33263 1.1219 0
M  V30 1919 C 186.526 2.67891 2.10826 0
M  V30 1920 H 187.719 2.98128 0.325511 0
M  V30 1921 H 185.272 1.55739 0.132312 0
M  V30 1922 H 186.007 1.87384 2.64685 0
M  V30 1923 H 185.792 3.45823 1.84793 0
M  V30 1924 H 187.282 3.11809 2.77785 0
M  V30 1925 N 187.719 -0.156864 1.56817 0
M  V30 1926 C 188.629 -1.2136 2.00771 0
M  V30 1927 C 189.645 -1.47598 0.921459 0
M  V30 1928 O 190.821 -1.59462 1.2302 0
M  V30 1929 C 187.886 -2.52943 2.37109 0
M  V30 1930 C 186.947 -2.34439 3.59634 0
M  V30 1931 C 186.18 -3.59748 3.94229 0
M  V30 1932 O 186.403 -4.65526 3.29609 0
M  V30 1933 O 185.337 -3.52998 4.8752 0
M  V30 1934 H 189.163 -0.870468 2.90958 0
M  V30 1935 H 186.748 -0.36484 1.44877 0
M  V30 1936 H 188.63 -3.30538 2.61386 0
M  V30 1937 H 187.305 -2.86806 1.5008 0
M  V30 1938 H 186.212 -1.54828 3.40557 0
M  V30 1939 H 187.545 -2.05496 4.4725 0
M  V30 1940 N 189.197 -1.51736 -0.425897 0
M  V30 1941 C 190.444 -1.6497 -1.17436 0
M  V30 1942 C 190.772 -0.371445 -1.9092 0
M  V30 1943 O 190.027 0.644963 -1.84767 0
M  V30 1944 C 190.326 -2.81103 -2.20717 0
M  V30 1945 C 189.992 -4.19954 -1.64162 0
M  V30 1946 C 188.654 -4.57725 -1.48462 0
M  V30 1947 C 191.006 -5.06552 -1.22696 0
M  V30 1948 C 188.334 -5.79789 -0.897873 0
M  V30 1949 C 190.686 -6.29205 -0.654464 0
M  V30 1950 C 189.35 -6.6574 -0.484456 0
M  V30 1951 H 188.62 -0.603668 -0.429727 0
M  V30 1952 H 191.267 -1.85798 -0.463829 0
M  V30 1953 H 189.572 -2.54542 -2.97852 0
M  V30 1954 H 191.269 -2.8854 -2.78471 0
M  V30 1955 H 187.859 -3.90181 -1.77361 0
M  V30 1956 H 192.043 -4.77968 -1.33642 0
M  V30 1957 H 187.299 -6.06733 -0.75402 0
M  V30 1958 H 191.473 -6.95643 -0.324694 0
M  V30 1959 H 189.1 -7.60195 -0.0276833 0
M  V30 1960 N 190.675 0.682077 -1.42076 0
M  V30 1961 C 191.623 1.81707 -1.45208 0
M  V30 1962 C 192.617 1.66183 -0.328591 0
M  V30 1963 O 193.823 1.7288 -0.501264 0
M  V30 1964 H 190.198 0.599014 -0.454628 0
M  V30 1965 H 192.169 1.76183 -2.40836 0
M  V30 1966 C 190.918 3.19816 -1.36428 0
M  V30 1967 H 190.241 3.32385 -2.22171 0
M  V30 1968 H 191.681 3.99272 -1.42681 0
M  V30 1969 C 190.14 3.36809 -0.078191 0
M  V30 1970 O 190.67 3.92124 0.87188 0
M  V30 1971 N 188.876 2.906 0.00229266 0
M  V30 1972 H 188.423 2.45772 -0.771616 0
M  V30 1973 H 188.381 3.02347 0.862179 0
M  V30 1974 N 192.153 1.28127 0.917671 0
M  V30 1975 C 193.083 1.14248 2.03641 0
M  V30 1976 C 194.064 0.0412748 1.7005 0
M  V30 1977 O 195.249 0.217566 1.92977 0
M  V30 1978 C 192.379 0.799431 3.37974 0
M  V30 1979 C 191.333 1.85497 3.85713 0
M  V30 1980 C 190.659 1.36565 5.16966 0
M  V30 1981 C 191.959 3.26085 4.08002 0
M  V30 1982 H 193.653 2.07835 2.15511 0
M  V30 1983 H 191.199 1.00064 1.03553 0
M  V30 1984 H 193.152 0.689114 4.15727 0
M  V30 1985 H 191.876 -0.172145 3.26146 0
M  V30 1986 H 190.535 1.95437 3.10161 0
M  V30 1987 H 190.183 0.383253 5.01538 0
M  V30 1988 H 189.883 2.07143 5.49878 0
M  V30 1989 H 191.407 1.26848 5.97279 0
M  V30 1990 H 192.821 3.19089 4.76293 0
M  V30 1991 H 191.218 3.94462 4.52238 0
M  V30 1992 H 192.288 3.70394 3.12948 0
M  V30 1993 N 193.631 -1.12557 1.10312 0
M  V30 1994 C 194.877 -1.84311 0.846011 0
M  V30 1995 C 195.21 -1.83805 -0.626859 0
M  V30 1996 O 194.485 -1.28268 -1.46211 0
M  V30 1997 C 194.768 -3.32048 1.39341 0
M  V30 1998 C 194.621 -3.41016 2.93305 0
M  V30 1999 C 195.94 -4.27764 1.03468 0
M  V30 2000 H 193.059 -0.669192 0.30879 0
M  V30 2001 H 195.701 -1.32057 1.36605 0
M  V30 2002 H 193.851 -3.76678 0.951087 0
M  V30 2003 H 195.523 -3.05031 3.46055 0
M  V30 2004 H 193.766 -2.81603 3.29973 0
M  V30 2005 H 194.437 -4.44948 3.26689 0
M  V30 2006 H 196.913 -3.91253 1.41633 0
M  V30 2007 H 195.789 -5.29549 1.44463 0
M  V30 2008 H 196.05 -4.42064 -0.0560404 0
M  V30 2009 N 195.109 -0.891671 -1.2995 0
M  V30 2010 C 196.019 -0.367691 -2.31701 0
M  V30 2011 C 197.035 0.533486 -1.6562 0
M  V30 2012 O 198.211 0.424997 -1.96865 0
M  V30 2013 C 195.276 0.403406 -3.44345 0
M  V30 2014 C 194.337 -0.528328 -4.26037 0
M  V30 2015 C 193.57 0.206063 -5.33302 0
M  V30 2016 O 193.793 1.43119 -5.52153 0
M  V30 2017 O 192.727 -0.447281 -6.00236 0
M  V30 2018 H 196.553 -1.21163 -2.78484 0
M  V30 2019 H 194.138 -0.655725 -1.34241 0
M  V30 2020 H 196.02 0.839753 -4.12948 0
M  V30 2021 H 194.695 1.22354 -2.99685 0
M  V30 2022 H 193.602 -1.01362 -3.60106 0
M  V30 2023 H 194.935 -1.31465 -4.74318 0
M  V30 2024 N 196.587 1.43421 -0.653314 0
M  V30 2025 C 197.864 1.95361 -0.0966581 0
M  V30 2026 C 198.244 1.59461 1.38331 0
M  V30 2027 O 197.592 0.879777 2.10884 0
M  V30 2028 C 197.802 3.47311 -0.342988 0
M  V30 2029 C 199.15 4.23875 -0.24798 0
M  V30 2030 O 200.174 3.55133 -0.275553 0
M  V30 2031 O 199.033 5.4623 -0.171771 0
M  V30 2032 H 196.127 0.826945 0.00956291 0
M  V30 2033 H 198.673 1.5336 -0.726558 0
M  V30 2034 H 197.445 3.66569 -1.36906 0
M  V30 2035 H 197.068 3.9631 0.319975 0
M  V30 2036 N 198.065 0.39524 1.52563 0
M  V30 2037 C 199.312 -0.185044 2.01653 0
M  V30 2038 C 199.64 -1.46317 1.28146 0
M  V30 2039 O 198.895 -1.9213 0.372074 0
M  V30 2040 C 199.194 -0.493444 3.53977 0
M  V30 2041 C 198.86 0.69384 4.4553 0
M  V30 2042 C 197.522 1.01954 4.70275 0
M  V30 2043 C 199.874 1.48785 4.99512 0
M  V30 2044 C 197.202 2.14069 5.46252 0
M  V30 2045 C 199.554 2.59965 5.76716 0
M  V30 2046 C 198.218 2.93037 5.99738 0
M  V30 2047 H 197.488 -0.0677123 0.7379 0
M  V30 2048 H 200.135 0.533807 1.8391 0
M  V30 2049 H 198.44 -1.29369 3.69825 0
M  V30 2050 H 200.137 -0.955163 3.89458 0
M  V30 2051 H 196.727 0.429987 4.26438 0
M  V30 2052 H 200.911 1.24946 4.80315 0
M  V30 2053 H 196.167 2.40056 5.62302 0
M  V30 2054 H 200.341 3.21887 6.17545 0
M  V30 2055 H 197.968 3.8003 6.58393 0
M  V30 2056 N 199.544 -1.57102 0.125237 0
M  V30 2057 C 200.821 -1.86953 -0.575142 0
M  V30 2058 C 201.201 -1.02749 -1.84407 0
M  V30 2059 O 200.549 -0.108144 -2.28244 0
M  V30 2060 C 200.759 -3.38198 -0.861583 0
M  V30 2061 C 202.107 -4.06937 -1.21192 0
M  V30 2062 O 203.131 -3.43252 -0.951645 0
M  V30 2063 O 201.99 -5.19364 -1.70068 0
M  V30 2064 H 199.084 -0.774147 -0.290906 0
M  V30 2065 H 201.63 -1.68942 0.160211 0
M  V30 2066 H 200.402 -3.91282 0.0373647 0
M  V30 2067 H 200.025 -3.61661 -1.65188 0
M  V30 2068 N 201.022 0.148545 -1.56898 0
M  V30 2069 C 201.985 1.16736 -1.97244 0
M  V30 2070 C 202.985 1.35947 -0.858777 0
M  V30 2071 O 204.175 1.32966 -1.12542 0
M  V30 2072 C 201.307 2.52798 -2.28705 0
M  V30 2073 H 202.5 0.821279 -2.88435 0
M  V30 2074 H 200.053 0.391831 -1.51309 0
M  V30 2075 H 200.788 2.92381 -1.403 0
M  V30 2076 H 200.573 2.40216 -3.09901 0
M  V30 2077 H 202.063 3.26179 -2.60762 0
M  V30 2078 N 202.5 1.5196 0.417844 0
M  V30 2079 C 203.728 1.69426 1.18753 0
M  V30 2080 C 204.143 0.399955 1.84515 0
M  V30 2081 O 203.5 -0.623288 1.71527 0
M  V30 2082 C 203.551 2.82375 2.25714 0
M  V30 2083 O 203.272 4.06793 1.62638 0
M  V30 2084 C 204.773 3.11277 3.15628 0
M  V30 2085 H 201.993 0.568031 0.357186 0
M  V30 2086 H 204.537 1.98475 0.49273 0
M  V30 2087 H 202.692 2.5587 2.90877 0
M  V30 2088 H 203.106 4.69667 2.3348 0
M  V30 2089 H 204.58 3.93843 3.86771 0
M  V30 2090 H 205.057 2.24473 3.77503 0
M  V30 2091 H 205.663 3.39515 2.56144 0
M  V30 2092 N 203.978 -0.674533 1.42435 0
M  V30 2093 C 205.255 -1.4305 1.33402 0
M  V30 2094 C 205.635 -2.11081 -0.0284674 0
M  V30 2095 O 204.983 -2.03257 -1.04397 0
M  V30 2096 C 205.193 -2.43272 2.50239 0
M  V30 2097 C 206.541 -3.07907 2.92367 0
M  V30 2098 O 207.565 -2.53599 2.50132 0
M  V30 2099 O 206.424 -4.0632 3.65467 0
M  V30 2100 H 203.518 -0.638076 0.526106 0
M  V30 2101 H 206.064 -0.703235 1.54443 0
M  V30 2102 H 204.836 -1.91803 3.41068 0
M  V30 2103 H 204.459 -3.23479 2.31186 0
M  V30 2104 N 205.456 -1.28612 -0.910864 0
M  V30 2105 C 206.872 -1.06381 -1.18976 0
M  V30 2106 C 207.072 0.191998 -2.00583 0
M  V30 2107 O 206.128 0.892869 -2.36187 0
M  V30 2108 C 207.441 -2.31295 -1.92154 0
M  V30 2109 C 208.989 -2.36503 -2.05025 0
M  V30 2110 C 209.464 -3.61191 -2.81612 0
M  V30 2111 N 210.955 -3.61847 -2.89172 0
M  V30 2112 C 211.69 -4.55004 -3.4894 0
M  V30 2113 N 211.186 -5.58482 -4.09963 0
M  V30 2114 N 212.979 -4.42594 -3.46506 0
M  V30 2115 H 205.13 -2.09221 -0.366094 0
M  V30 2116 H 207.393 -0.921003 -0.224629 0
M  V30 2117 H 207.099 -3.228 -1.39618 0
M  V30 2118 H 206.973 -2.37934 -2.9269 0
M  V30 2119 H 209.36 -1.45494 -2.5674 0
M  V30 2120 H 209.441 -2.33857 -1.03657 0
M  V30 2121 H 209.085 -4.52545 -2.30576 0
M  V30 2122 H 209.015 -3.61092 -3.83302 0
M  V30 2123 H 211.506 -2.87022 -2.45819 0
M  V30 2124 H 211.819 -6.25704 -4.53557 0
M  V30 2125 H 210.164 -5.62305 -4.08459 0
M  V30 2126 H 213.355 -3.60953 -2.98045 0
M  V30 2127 H 213.528 -5.15381 -3.92793 0
M  V30 2128 N 206.934 1.1197 -1.10907 0
M  V30 2129 C 208.182 1.83225 -0.852819 0
M  V30 2130 C 208.503 1.84769 0.623341 0
M  V30 2131 O 207.773 1.3143 1.45269 0
M  V30 2132 H 206.353 0.67849 -0.312507 0
M  V30 2133 H 209.015 1.3556 -1.40033 0
M  V30 2134 H 208.111 2.87265 -1.22005 0
M  V30 2135 N 208.412 0.89855 1.29475 0
M  V30 2136 C 209.322 0.379974 2.31502 0
M  V30 2137 C 210.338 -0.524695 1.659 0
M  V30 2138 O 211.514 -0.414551 1.97087 0
M  V30 2139 C 208.579 -0.385138 3.44554 0
M  V30 2140 C 207.64 0.550914 4.2575 0
M  V30 2141 C 206.873 -0.177778 5.33404 0
M  V30 2142 O 207.096 -1.40189 5.52904 0
M  V30 2143 O 206.03 0.479106 5.9999 0
M  V30 2144 H 209.856 1.22639 2.77837 0
M  V30 2145 H 207.441 0.662834 1.33891 0
M  V30 2146 H 209.323 -0.817841 4.13388 0
M  V30 2147 H 207.998 -1.20763 3.0033 0
M  V30 2148 H 206.905 1.03271 3.59564 0
M  V30 2149 H 208.238 1.33979 4.73614 0
M  V30 2150 N 209.89 -1.43072 0.660911 0
M  V30 2151 C 211.138 -2.01323 0.177094 0
M  V30 2152 C 211.459 -1.5245 -1.2159 0
M  V30 2153 O 210.729 -0.740322 -1.81373 0
M  V30 2154 H 209.309 -0.744382 0.0624804 0
M  V30 2155 H 211.971 -1.75179 0.854305 0
M  V30 2156 H 211.067 -3.11649 0.167641 0
M  V30 2157 N 211.368 -0.403325 -1.52352 0
M  V30 2158 C 212.616 0.174003 -2.0135 0
M  V30 2159 C 212.937 1.46139 -1.29106 0
M  V30 2160 O 212.207 1.91448 -0.415253 0
M  V30 2161 H 210.787 0.0672911 -0.743963 0
M  V30 2162 H 213.449 -0.538235 -1.87321 0
M  V30 2163 H 212.545 0.374254 -3.09848 0
M  V30 2164 N 212.846 1.57033 -0.133567 0
M  V30 2165 C 214.093 1.95686 0.520877 0
M  V30 2166 C 214.421 1.0177 1.6575 0
M  V30 2167 O 213.676 0.0443195 1.9565 0
M  V30 2168 C 213.975 3.40674 1.08057 0
M  V30 2169 C 213.641 4.50855 0.0637899 0
M  V30 2170 C 212.303 4.80716 -0.215757 0
M  V30 2171 C 214.655 5.17398 -0.62835 0
M  V30 2172 C 211.983 5.74433 -1.19348 0
M  V30 2173 C 214.335 6.12167 -1.5948 0
M  V30 2174 C 212.999 6.40414 -1.88218 0
M  V30 2175 H 212.269 0.716067 0.190602 0
M  V30 2176 H 214.916 1.9026 -0.217556 0
M  V30 2177 H 213.221 3.42865 1.89606 0
M  V30 2178 H 214.918 3.67902 1.59529 0
M  V30 2179 H 211.508 4.27605 0.291855 0
M  V30 2180 H 215.692 4.94472 -0.425562 0
M  V30 2181 H 210.948 5.94616 -1.42272 0
M  V30 2182 H 215.122 6.6281 -2.13671 0
M  V30 2183 H 212.749 7.12838 -2.64133 0
M  V30 2184 N 214.325 -0.140222 1.56975 0
M  V30 2185 C 215.573 -0.850005 1.83356 0
M  V30 2186 C 215.894 -1.81399 0.71551 0
M  V30 2187 O 215.164 -1.94136 -0.262294 0
M  V30 2188 H 213.744 -0.316886 0.676456 0
M  V30 2189 H 216.406 -0.132608 1.94448 0
M  V30 2190 H 215.502 -1.40814 2.78528 0
M  V30 2191 N 215.803 -1.52179 -0.40978 0
M  V30 2192 C 216.753 -1.71857 -1.49831 0
M  V30 2193 C 217.737 -0.572469 -1.50372 0
M  V30 2194 O 218.929 -0.829509 -1.56359 0
M  V30 2195 C 216.058 -1.87206 -2.87765 0
M  V30 2196 C 215.144 -3.07685 -2.91875 0
M  V30 2197 N 215.535 -4.30403 -2.65683 0
M  V30 2198 C 213.833 -3.07505 -3.23043 0
M  V30 2199 C 214.534 -5.11868 -2.76344 0
M  V30 2200 N 213.51 -4.47101 -3.09195 0
M  V30 2201 H 217.312 -2.64381 -1.28375 0
M  V30 2202 H 214.826 -1.50203 -0.617479 0
M  V30 2203 H 216.823 -1.99419 -3.66111 0
M  V30 2204 H 215.483 -0.958814 -3.10221 0
M  V30 2205 H 216.494 -4.58887 -2.4009 0
M  V30 2206 H 213.171 -2.25915 -3.51096 0
M  V30 2207 H 214.561 -6.19634 -2.59814 0
M  V30 2208 N 217.281 0.66697 -1.42791 0
M  V30 2209 C 218.506 1.46004 -1.47301 0
M  V30 2210 C 218.931 1.87894 -0.0880317 0
M  V30 2211 O 218.289 1.56502 0.915253 0
M  V30 2212 C 218.337 2.68031 -2.41229 0
M  V30 2213 O 217.441 3.6659 -1.88906 0
M  V30 2214 H 216.782 0.43832 -0.49877 0
M  V30 2215 H 219.312 0.817391 -1.87563 0
M  V30 2216 H 219.322 3.1601 -2.58073 0
M  V30 2217 H 217.997 2.36883 -3.41847 0
M  V30 2218 H 216.574 3.25661 -1.81656 0
M  V30 2219 N 218.759 1.29093 0.90403 0
M  V30 2220 C 220.007 1.16583 1.65085 0
M  V30 2221 C 220.328 -0.283933 1.92922 0
M  V30 2222 O 219.598 -1.19509 1.55224 0
M  V30 2223 H 218.178 0.428467 0.611903 0
M  V30 2224 H 220.84 1.61959 1.08422 0
M  V30 2225 H 219.936 1.71266 2.6091 0
M  V30 2226 N 220.237 -1.11381 1.11499 0
M  V30 2227 C 221.653 -1.35143 0.849031 0
M  V30 2228 C 221.853 -1.94515 -0.525938 0
M  V30 2229 O 220.909 -2.1785 -1.27662 0
M  V30 2230 C 222.222 -2.28249 1.95762 0
M  V30 2231 C 223.77 -2.41812 1.98736 0
M  V30 2232 C 224.245 -3.3824 3.088 0
M  V30 2233 N 225.736 -3.45803 3.08179 0
M  V30 2234 C 226.471 -4.20358 3.89982 0
M  V30 2235 N 225.967 -4.97884 4.8175 0
M  V30 2236 N 227.76 -4.15877 3.78157 0
M  V30 2237 H 219.911 -0.712062 2.00109 0
M  V30 2238 H 222.174 -0.376025 0.870235 0
M  V30 2239 H 221.88 -1.91817 2.94787 0
M  V30 2240 H 221.754 -3.28473 1.85433 0
M  V30 2241 H 224.141 -2.77518 1.00338 0
M  V30 2242 H 224.222 -1.41437 2.13141 0
M  V30 2243 H 223.866 -3.03261 4.07425 0
M  V30 2244 H 223.796 -4.38471 2.91635 0
M  V30 2245 H 226.287 -2.90506 2.41691 0
M  V30 2246 H 226.6 -5.52142 5.40702 0
M  V30 2247 H 224.945 -4.97043 4.85771 0
M  V30 2248 H 228.136 -3.544 3.05808 0
M  V30 2249 H 228.309 -4.73723 4.42143 0
M  V30 2250 N 221.715 -0.905404 -1.28997 0
M  V30 2251 C 222.647 -0.344748 -2.26592 0
M  V30 2252 C 223.66 0.512135 -1.54535 0
M  V30 2253 O 224.849 0.328368 -1.75454 0
M  V30 2254 C 221.949 0.526587 -3.34784 0
M  V30 2255 C 221.122 -0.305871 -4.36329 0
M  V30 2256 C 220.181 0.499209 -5.23827 0
M  V30 2257 O 219.207 -0.0853004 -5.69136 0
M  V30 2258 N 220.409 1.80408 -5.51755 0
M  V30 2259 H 223.174 -1.18359 -2.75338 0
M  V30 2260 H 220.735 -0.770481 -1.42391 0
M  V30 2261 H 222.727 1.07171 -3.90252 0
M  V30 2262 H 221.297 1.26613 -2.85811 0
M  V30 2263 H 220.517 -1.0324 -3.80441 0
M  V30 2264 H 221.805 -0.875773 -5.01206 0
M  V30 2265 H 221.203 2.3016 -5.16762 0
M  V30 2266 H 219.76 2.29621 -6.10014 0
M  V30 2267 O 223.232 1.39848 -0.807758 0
M  V30 2268 H 223.923 1.89847 -0.38441 0
M  V30 END ATOM
M  V30 BEGIN BOND
M  V30 END BOND
M  V30 END CTAB
M  END
$$$$
