drugbank_target|P15104 Glutamine synthetase (DB00130; DB00142)
 OpenBabel12092120083D

  0  0  0     0  0            999 V3000
M  V30 BEGIN CTAB
M  V30 COUNTS 5783 5862 0 0 0
M  V30 BEGIN ATOM
M  V30 1 H -0.908 1.98254 -0.117106 0
M  V30 2 N 0 1.576 0 0
M  V30 3 C 0.933 2.03868 1.02534 0
M  V30 4 C 1.911 0.928543 1.3348 0
M  V30 5 O 3.095 1.19667 1.45644 0
M  V30 6 C 0.222 2.43627 2.35294 0
M  V30 7 C -0.732 3.65373 2.2001 0
M  V30 8 S 0.101 5.13292 1.52614 0
M  V30 9 C 1.257 5.56322 2.86805 0
M  V30 10 H 1.49 2.90518 0.631377 0
M  V30 11 H -0.977 1.52953 0.210867 0
M  V30 12 H 0.981 2.67203 3.11629 0
M  V30 13 H -0.358 1.57376 2.7183 0
M  V30 14 H -1.165 3.90944 3.18086 0
M  V30 15 H -1.563 3.418 1.51819 0
M  V30 16 H 0.729 5.58782 3.83104 0
M  V30 17 H 1.672 6.56266 2.65933 0
M  V30 18 H 2.08 4.83886 2.90714 0
M  V30 19 N 1.4781 -0.272755 1.55222 0
M  V30 20 C 2.7061 -1.02255 1.79865 0
M  V30 21 C 3.1211 -1.79924 0.572088 0
M  V30 22 O 2.4781 -1.76638 -0.458842 0
M  V30 23 C 2.5291 -1.98094 3.02392 0
M  V30 24 O 2.2501 -1.23572 4.20311 0
M  V30 25 C 3.7511 -2.84884 3.39641 0
M  V30 26 H 0.9711 -0.302057 0.599168 0
M  V30 27 H 3.5151 -0.303465 2.02236 0
M  V30 28 H 1.6701 -2.65465 2.82147 0
M  V30 29 H 2.0841 -1.88172 4.89583 0
M  V30 30 H 3.5581 -3.47927 4.28545 0
M  V30 31 H 4.0351 -3.54665 2.59055 0
M  V30 32 H 4.6411 -2.23003 3.62146 0
M  V30 33 N 2.9562 -1.48159 -0.537278 0
M  V30 34 C 4.1842 -1.59454 -1.31841 0
M  V30 35 C 4.5992 -0.252065 -1.8711 0
M  V30 36 O 3.9562 0.757621 -1.66031 0
M  V30 37 C 4.0072 -2.63546 -2.47439 0
M  V30 38 O 3.7282 -3.92583 -1.94449 0
M  V30 39 C 5.2292 -2.85212 -3.39366 0
M  V30 40 H 2.4492 -0.53785 -0.401196 0
M  V30 41 H 4.9932 -1.93932 -0.648891 0
M  V30 42 H 3.1482 -2.31946 -3.1029 0
M  V30 43 H 3.5622 -4.49629 -2.70063 0
M  V30 44 H 5.0362 -3.61863 -4.16844 0
M  V30 45 H 5.5132 -1.93765 -3.94147 0
M  V30 46 H 6.1192 -3.18086 -2.82314 0
M  V30 47 N 4.4343 0.785586 -1.36625 0
M  V30 48 C 5.6593 1.57963 -1.34397 0
M  V30 49 C 6.0843 1.87964 0.071526 0
M  V30 50 O 5.4423 1.48182 1.0446 0
M  V30 51 C 5.4903 2.87511 -2.17646 0
M  V30 52 O 4.5943 3.81281 -1.57158 0
M  V30 53 H 3.9353 0.479014 -0.459828 0
M  V30 54 H 6.4653 0.973411 -1.79961 0
M  V30 55 H 6.4753 3.36745 -2.30362 0
M  V30 56 H 5.1503 2.65002 -3.20541 0
M  V30 57 H 3.7273 3.39885 -1.53403 0
M  V30 58 N 5.9124 1.20967 1.01018 0
M  V30 59 C 6.8754 0.965918 2.07853 0
M  V30 60 C 7.8754 -0.0610545 1.60684 0
M  V30 61 O 9.0654 0.175681 1.73312 0
M  V30 62 C 6.1974 0.455513 3.37843 0
M  V30 63 H 7.3904 1.91365 2.3091 0
M  V30 64 H 4.9434 1.02594 1.17916 0
M  V30 65 H 5.6784 -0.497381 3.20463 0
M  V30 66 H 5.4634 1.19622 3.73407 0
M  V30 67 H 6.9534 0.304667 4.16487 0
M  V30 68 N 7.3905 -1.2043 1.01659 0
M  V30 69 C 8.6155 -1.94318 0.724942 0
M  V30 70 C 9.0405 -1.74266 -0.708034 0
M  V30 71 O 8.3985 -1.03694 -1.48719 0
M  V30 72 C 8.4465 -3.44486 1.06591 0
M  V30 73 O 7.5505 -4.12017 0.177599 0
M  V30 74 H 6.8915 -0.60708 0.26898 0
M  V30 75 H 9.4215 -1.52861 1.35995 0
M  V30 76 H 9.4315 -3.95106 1.01762 0
M  V30 77 H 8.1065 -3.58404 2.10997 0
M  V30 78 H 6.6835 -3.71821 0.283421 0
M  V30 79 N 8.8686 -0.792821 -1.36206 0
M  V30 80 C 10.0936 -0.377701 -2.03932 0
M  V30 81 C 10.5186 0.998947 -1.59382 0
M  V30 82 O 9.8766 1.64421 -0.763903 0
M  V30 83 C 9.9246 -0.453635 -3.57735 0
M  V30 84 O 9.0286 0.538151 -4.08874 0
M  V30 85 H 8.3696 -0.159855 -0.644471 0
M  V30 86 H 10.8996 -1.07488 -1.7409 0
M  V30 87 H 10.9096 -0.318464 -4.06755 0
M  V30 88 H 9.5846 -1.45784 -3.89512 0
M  V30 89 H 8.1616 0.364359 -3.71116 0
M  V30 90 N 10.3467 1.47872 -0.545128 0
M  V30 91 C 11.2967 2.26842 0.229456 0
M  V30 92 C 12.2807 1.33626 0.896267 0
M  V30 93 O 13.4727 1.58063 0.79657 0
M  V30 94 C 10.6017 3.19089 1.26638 0
M  V30 95 C 9.6877 4.19783 0.603598 0
M  V30 96 N 10.0787 5.0479 -0.319405 0
M  V30 97 C 8.3767 4.3765 0.858989 0
M  V30 98 C 9.0777 5.77433 -0.703241 0
M  V30 99 N 8.0537 5.43566 -0.0608309 0
M  V30 100 H 11.8557 2.89947 -0.480391 0
M  V30 101 H 9.3697 1.58263 -0.364209 0
M  V30 102 H 11.3667 3.74337 1.83515 0
M  V30 103 H 10.0267 2.5754 1.97745 0
M  V30 104 H 11.0377 5.13244 -0.692889 0
M  V30 105 H 7.7147 3.87281 1.55948 0
M  V30 106 H 9.1047 6.55824 -1.46098 0
M  V30 107 N 11.8248 0.280983 1.55075 0
M  V30 108 C 12.7548 -0.597469 2.25727 0
M  V30 109 C 13.7358 -1.15417 1.24952 0
M  V30 110 O 14.9208 -1.18722 1.53684 0
M  V30 111 C 12.0508 -1.7789 2.98283 0
M  V30 112 C 11.0048 -1.35347 4.06036 0
M  V30 113 C 10.3308 -2.61846 4.66198 0
M  V30 114 C 11.6308 -0.499354 5.19907 0
M  V30 115 H 13.3248 -0.00824265 2.99399 0
M  V30 116 H 10.8708 -0.0025244 1.44 0
M  V30 117 H 12.8238 -2.39937 3.46422 0
M  V30 118 H 11.5478 -2.39405 2.22155 0
M  V30 119 H 10.2068 -0.756156 3.58717 0
M  V30 120 H 9.8548 -3.21632 3.86732 0
M  V30 121 H 9.5548 -2.3409 5.38958 0
M  V30 122 H 11.0788 -3.24732 5.1709 0
M  V30 123 H 12.4928 -1.02498 5.64063 0
M  V30 124 H 10.8898 -0.316424 5.99265 0
M  V30 125 H 11.9598 0.480459 4.82514 0
M  V30 126 N 13.3029 -1.57598 0.00835791 0
M  V30 127 C 14.2509 -2.10078 -0.998508 0
M  V30 128 C 15.2449 -1.02262 -1.35051 0
M  V30 129 O 16.4509 -1.20719 -1.33518 0
M  V30 130 H 12.8259 -0.670903 -0.339696 0
M  V30 131 H 14.7969 -2.93648 -0.530398 0
M  V30 132 C 13.5459 -2.62615 -2.27879 0
M  V30 133 H 12.8689 -3.45213 -2.01662 0
M  V30 134 H 14.3089 -3.03004 -2.96588 0
M  V30 135 C 12.7679 -1.54407 -2.99433 0
M  V30 136 O 13.2979 -0.931812 -3.90743 0
M  V30 137 N 11.5039 -1.2695 -2.61404 0
M  V30 138 H 11.0509 -1.76924 -1.87232 0
M  V30 139 H 11.0089 -0.547704 -3.09593 0
M  V30 140 N 14.781 0.264519 -1.55364 0
M  V30 141 C 15.728 1.32717 -1.88825 0
M  V30 142 C 16.698 1.48675 -0.740605 0
M  V30 143 O 17.883 1.62945 -0.992657 0
M  V30 144 C 15.023 2.68089 -2.17307 0
M  V30 145 C 14.136 2.60284 -3.44785 0
M  V30 146 C 13.271 3.87892 -3.62924 0
M  V30 147 C 12.31 3.74631 -4.84064 0
M  V30 148 N 11.447 4.94092 -4.98816 0
M  V30 149 H 16.287 1.03481 -2.79456 0
M  V30 150 H 13.824 0.499757 -1.3835 0
M  V30 151 H 15.782 3.46864 -2.31821 0
M  V30 152 H 14.412 2.95509 -1.299 0
M  V30 153 H 13.464 1.73173 -3.38697 0
M  V30 154 H 14.776 2.46388 -4.33698 0
M  V30 155 H 13.93 4.75109 -3.77302 0
M  V30 156 H 12.669 4.04664 -2.7221 0
M  V30 157 H 11.674 2.85797 -4.69681 0
M  V30 158 H 12.899 3.5937 -5.76221 0
M  V30 159 H 10.845 5.11259 -4.11036 0
M  V30 160 H 10.762 4.8276 -5.81789 0
M  V30 161 H 12.03 5.82857 -5.17588 0
M  V30 162 N 16.2591 1.48442 0.529413 0
M  V30 163 C 17.5071 1.56179 1.28267 0
M  V30 164 C 17.8281 0.237721 1.93546 0
M  V30 165 O 17.0981 -0.740779 1.81354 0
M  V30 166 H 15.6781 0.575367 0.476405 0
M  V30 167 H 18.3401 1.84909 0.61602 0
M  V30 168 H 17.4361 2.34312 2.06165 0
M  V30 169 N 17.7372 -0.778329 1.37039 0
M  V30 170 C 18.9862 -1.53189 1.3121 0
M  V30 171 C 19.2992 -1.95328 -0.103095 0
M  V30 172 O 20.5052 -2.70012 -0.283826 0
M  V30 173 C 18.9612 -2.76591 2.30272 0
M  V30 174 C 18.5692 -2.41577 3.77286 0
M  V30 175 C 20.3132 -3.5455 2.33441 0
M  V30 176 C 18.2202 -3.61441 4.68096 0
M  V30 177 H 17.1502 -0.5751 0.487622 0
M  V30 178 H 19.8012 -0.853101 1.62464 0
M  V30 179 H 18.1832 -3.46326 1.92027 0
M  V30 180 H 19.3572 -1.79668 4.2433 0
M  V30 181 H 17.6722 -1.76806 3.76999 0
M  V30 182 H 20.2692 -4.43628 2.98493 0
M  V30 183 H 20.6122 -3.93936 1.34611 0
M  V30 184 H 21.1452 -2.91805 2.7036 0
M  V30 185 H 17.8842 -3.27142 5.6803 0
M  V30 186 H 17.4042 -4.22478 4.25761 0
M  V30 187 H 19.0832 -4.28335 4.8491 0
M  V30 188 N 19.2153 -1.21501 -1.00376 0
M  V30 189 C 20.1623 -0.975387 -2.09177 0
M  V30 190 C 21.1323 0.0990615 -1.65804 0
M  V30 191 O 22.3173 -0.0483147 -1.90739 0
M  V30 192 C 19.4573 -0.547507 -3.40729 0
M  V30 193 C 18.5703 -1.69153 -3.97506 0
M  V30 194 C 17.7053 -1.2127 -5.17172 0
M  V30 195 C 16.7443 -2.32897 -5.66061 0
M  V30 196 N 15.8813 -1.86138 -6.76976 0
M  V30 197 H 20.7213 -1.9068 -2.29009 0
M  V30 198 H 18.2583 -0.950257 -1.12288 0
M  V30 199 H 20.2163 -0.280667 -4.16255 0
M  V30 200 H 18.8463 0.346904 -3.20931 0
M  V30 201 H 17.8983 -2.07298 -3.18954 0
M  V30 202 H 19.2103 -2.5316 -4.29781 0
M  V30 203 H 18.3643 -0.902591 -5.99948 0
M  V30 204 H 17.1033 -0.342692 -4.86495 0
M  V30 205 H 16.1083 -2.64709 -4.81881 0
M  V30 206 H 17.3333 -3.20396 -5.98768 0
M  V30 207 H 15.2793 -1.01484 -6.48103 0
M  V30 208 H 15.1963 -2.63717 -7.08512 0
M  V30 209 H 16.4643 -1.58165 -7.63285 0
M  V30 210 N 20.6934 1.19889 -1.02296 0
M  V30 211 C 21.6254 2.22334 -0.556787 0
M  V30 212 C 22.6384 1.58674 0.364199 0
M  V30 213 O 23.8274 1.77768 0.161533 0
M  V30 214 C 20.9274 3.38257 0.208694 0
M  V30 215 C 20.1004 4.31504 -0.71577 0
M  V30 216 C 19.1594 5.262 0.00325597 0
M  V30 217 O 18.1854 5.65798 -0.621357 0
M  V30 218 N 19.3874 5.66303 1.27599 0
M  V30 219 H 22.1524 2.62957 -1.43784 0
M  V30 220 H 19.7134 1.34495 -0.901261 0
M  V30 221 H 21.7054 3.98616 0.699111 0
M  V30 222 H 20.2754 2.96472 0.991102 0
M  V30 223 H 19.4954 3.69016 -1.38638 0
M  V30 224 H 20.7834 4.9072 -1.34428 0
M  V30 225 H 20.1814 5.36155 1.80429 0
M  V30 226 H 18.7384 6.28942 1.71102 0
M  V30 227 N 22.1715 0.800033 1.35784 0
M  V30 228 C 23.4175 0.377901 1.99248 0
M  V30 229 C 23.7505 -1.05052 1.63333 0
M  V30 230 O 23.0255 -1.72768 0.893385 0
M  V30 231 C 23.3085 0.553922 3.55814 0
M  V30 232 C 23.1615 2.0268 4.01548 0
M  V30 233 C 24.4805 -0.0244802 4.40093 0
M  V30 234 H 21.5995 0.138782 0.723815 0
M  V30 235 H 24.2415 1.00835 1.61035 0
M  V30 236 H 22.3915 0.0172398 3.88496 0
M  V30 237 H 24.0635 2.62536 3.79305 0
M  V30 238 H 22.3065 2.5256 3.52698 0
M  V30 239 H 22.9775 2.10087 5.10458 0
M  V30 240 H 25.4535 0.433775 4.13833 0
M  V30 241 H 24.3295 0.128637 5.48749 0
M  V30 242 H 24.5905 -1.11758 4.27741 0
M  V30 243 N 23.6496 -1.47581 0.552962 0
M  V30 244 C 24.8796 -2.06575 0.0320091 0
M  V30 245 C 25.2876 -1.4067 -1.26525 0
M  V30 246 O 24.6306 -0.495808 -1.76883 0
M  V30 247 C 24.6926 -3.58705 -0.238913 0
M  V30 248 C 24.3566 -4.46625 0.968272 0
M  V30 249 C 25.3536 -4.85 1.87274 0
M  V30 250 C 23.0386 -4.88201 1.18175 0
M  V30 251 C 25.0326 -5.63745 2.9744 0
M  V30 252 C 22.7196 -5.66712 2.28651 0
M  V30 253 C 23.7176 -6.04394 3.18114 0
M  V30 254 O 23.4056 -6.81324 4.26676 0
M  V30 255 H 23.1376 -0.674763 0.0408689 0
M  V30 256 H 25.6916 -1.90634 0.764719 0
M  V30 257 H 23.9216 -3.72844 -1.02588 0
M  V30 258 H 25.6106 -3.99735 -0.704731 0
M  V30 259 H 26.3766 -4.53482 1.71984 0
M  V30 260 H 22.2556 -4.58339 0.494593 0
M  V30 261 H 25.7996 -5.93077 3.67296 0
M  V30 262 H 21.6966 -5.97642 2.43915 0
M  V30 263 H 22.4646 -6.99712 4.24671 0
M  V30 264 N 25.1277 -0.289203 -1.54924 0
M  V30 265 C 26.0607 0.633823 -2.19221 0
M  V30 266 C 27.0387 1.14174 -1.15772 0
M  V30 267 O 28.2227 1.21211 -1.44361 0
M  V30 268 C 25.3497 1.86592 -2.82668 0
M  V30 269 C 24.3957 1.49227 -3.99542 0
M  V30 270 S 25.2287 0.558312 -5.32582 0
M  V30 271 C 26.3847 1.79847 -5.99505 0
M  V30 272 H 26.6177 0.0875416 -2.97171 0
M  V30 273 H 24.1507 -0.0733899 -1.54225 0
M  V30 274 H 26.1087 2.57305 -3.19851 0
M  V30 275 H 24.7697 2.38335 -2.04585 0
M  V30 276 H 23.9627 2.40945 -4.42676 0
M  V30 277 H 23.5647 0.865193 -3.63855 0
M  V30 278 H 25.8567 2.7406 -6.19595 0
M  V30 279 H 26.7997 1.4099 -6.93922 0
M  V30 280 H 27.2077 1.96982 -5.29016 0
M  V30 281 N 26.6058 1.57591 -0.0167156 0
M  V30 282 C 27.8308 1.9598 0.67872 0
M  V30 283 C 28.2558 0.892546 1.65575 0
M  V30 284 O 27.6138 -0.147772 1.80697 0
M  V30 285 C 27.6618 3.33468 1.37227 0
M  V30 286 O 26.7658 3.28954 2.48722 0
M  V30 287 H 26.1068 0.639339 0.17928 0
M  V30 288 H 28.6368 2.04463 -0.0748802 0
M  V30 289 H 28.6468 3.69417 1.7319 0
M  V30 290 H 27.3218 4.10694 0.656007 0
M  V30 291 H 25.8988 3.04705 2.14963 0
M  V30 292 N 28.0839 -0.256276 1.55502 0
M  V30 293 C 29.0139 -1.32102 1.92539 0
M  V30 294 C 29.9949 -1.50684 0.789194 0
M  V30 295 O 31.1799 -1.63449 1.04872 0
M  V30 296 C 28.3099 -2.67752 2.21192 0
M  V30 297 C 27.2639 -2.63878 3.36975 0
M  V30 298 C 26.5899 -4.03236 3.51147 0
M  V30 299 C 27.8899 -2.21682 4.72921 0
M  V30 300 H 29.5839 -1.01351 2.81724 0
M  V30 301 H 27.1299 -0.486105 1.35547 0
M  V30 302 H 29.0829 -3.42365 2.45691 0
M  V30 303 H 27.8069 -3.0012 1.28824 0
M  V30 304 H 26.4659 -1.91722 3.12471 0
M  V30 305 H 26.1139 -4.32854 2.56216 0
M  V30 306 H 25.8139 -4.01535 4.29003 0
M  V30 307 H 27.3379 -4.79563 3.77957 0
M  V30 308 H 28.7519 -2.86023 4.96854 0
M  V30 309 H 27.1489 -2.3111 5.53812 0
M  V30 310 H 28.2189 -1.16833 4.70615 0
M  V30 311 N 29.562 -1.4872 -0.521534 0
M  V30 312 C 30.973 -1.50607 -1.10337 0
M  V30 313 C 31.324 -0.280612 -1.94183 0
M  V30 314 O 30.449 0.611507 -2.0758 0
M  V30 315 C 31.044 -2.72903 -2.00772 0
M  V30 316 C 29.603 -2.77634 -2.54158 0
M  V30 317 C 28.75 -2.44241 -1.31307 0
M  V30 318 H 31.701 -1.55714 -0.306388 0
M  V30 319 H 31.722 -2.519 -2.85178 0
M  V30 320 H 31.234 -3.62077 -1.39721 0
M  V30 321 H 29.335 -1.92689 -3.18907 0
M  V30 322 H 29.448 -3.79283 -2.92714 0
M  V30 323 H 27.812 -1.95577 -1.63161 0
M  V30 324 H 28.595 -3.35666 -0.719943 0
M  V30 325 N 31.0401 0.771051 -1.3745 0
M  V30 326 C 31.9721 1.89352 -1.29146 0
M  V30 327 C 32.9851 1.61477 -0.207124 0
M  V30 328 O 34.1741 1.72382 -0.463324 0
M  V30 329 C 31.2741 3.24596 -0.974195 0
M  V30 330 C 30.4471 3.80111 -2.16413 0
M  V30 331 C 29.5061 4.93832 -1.81703 0
M  V30 332 O 28.5321 5.09382 -2.54006 0
M  V30 333 N 29.7341 5.75483 -0.761573 0
M  V30 334 H 32.4991 1.96991 -2.25864 0
M  V30 335 H 30.0601 0.950191 -1.31084 0
M  V30 336 H 32.0521 3.98193 -0.722828 0
M  V30 337 H 30.6221 3.12454 -0.0955527 0
M  V30 338 H 29.8421 2.98284 -2.57721 0
M  V30 339 H 31.1301 4.13932 -2.95867 0
M  V30 340 H 30.5281 5.65469 -0.161609 0
M  V30 341 H 29.0851 6.49302 -0.570064 0
M  V30 342 N 32.5182 1.22032 0.997298 0
M  V30 343 C 33.7662 1.04016 1.73278 0
M  V30 344 C 34.0872 -0.426255 1.90284 0
M  V30 345 O 33.3572 -1.30694 1.45931 0
M  V30 346 H 31.9372 0.381897 0.642 0
M  V30 347 H 34.5992 1.5347 1.20137 0
M  V30 348 H 33.6952 1.51441 2.72896 0
M  V30 349 N 33.9963 -1.19345 1.0293 0
M  V30 350 C 34.9063 -2.26245 0.620515 0
M  V30 351 C 35.9223 -1.70486 -0.347928 0
M  V30 352 O 37.0983 -2.00347 -0.205704 0
M  V30 353 C 34.1633 -3.46693 -0.0218957 0
M  V30 354 C 33.2243 -4.17632 0.994102 0
M  V30 355 C 32.4573 -5.32329 0.382253 0
M  V30 356 O 32.6803 -5.64552 -0.814676 0
M  V30 357 O 31.6143 -5.91664 1.10531 0
M  V30 358 H 35.4403 -2.63453 1.51083 0
M  V30 359 H 33.0253 -1.26207 0.799513 0
M  V30 360 H 34.9073 -4.19683 -0.380072 0
M  V30 361 H 33.5823 -3.11333 -0.886209 0
M  V30 362 H 32.4893 -3.4676 1.40387 0
M  V30 363 H 33.8223 -4.56964 1.8288 0
M  V30 364 N 35.4744 -0.807222 -1.35358 0
M  V30 365 C 36.4214 -0.216037 -2.29787 0
M  V30 366 C 37.3914 0.650278 -1.52842 0
M  V30 367 O 38.5764 0.595227 -1.81278 0
M  V30 368 C 35.7164 0.628893 -3.39321 0
M  V30 369 C 34.8294 -0.257927 -4.31229 0
M  V30 370 C 33.9644 0.595069 -5.27856 0
M  V30 371 C 33.0034 -0.292111 -6.11403 0
M  V30 372 N 32.1404 0.520895 -7.00165 0
M  V30 373 H 36.9804 -1.02671 -2.79755 0
M  V30 374 H 34.5174 -0.517839 -1.37684 0
M  V30 375 H 36.4754 1.13393 -4.01494 0
M  V30 376 H 35.1054 1.40482 -2.90628 0
M  V30 377 H 34.1574 -0.881076 -3.70056 0
M  V30 378 H 35.4694 -0.940759 -4.89848 0
M  V30 379 H 34.6234 1.16522 -5.95405 0
M  V30 380 H 33.3624 1.31146 -4.69736 0
M  V30 381 H 32.3674 -0.874525 -5.428 0
M  V30 382 H 33.5924 -1.00638 -6.71602 0
M  V30 383 H 31.5384 1.22125 -6.44532 0
M  V30 384 H 31.4554 -0.103877 -7.55929 0
M  V30 385 H 32.7234 1.0743 -7.72062 0
M  V30 386 N 36.9525 1.47285 -0.560781 0
M  V30 387 C 38.1985 2.02764 -0.0381184 0
M  V30 388 C 38.5315 1.43384 1.30976 0
M  V30 389 O 37.8065 0.590733 1.85312 0
M  V30 390 C 38.0895 3.60064 0.0511427 0
M  V30 391 C 37.9425 4.2987 -1.32408 0
M  V30 392 C 39.2615 4.33439 0.762795 0
M  V30 393 H 36.3805 0.736841 -0.0153264 0
M  V30 394 H 39.0225 1.75675 -0.723759 0
M  V30 395 H 37.1725 3.83274 0.635065 0
M  V30 396 H 38.8445 4.17989 -1.95148 0
M  V30 397 H 37.0875 3.90085 -1.8978 0
M  V30 398 H 37.7585 5.38478 -1.21431 0
M  V30 399 H 40.2345 4.15243 0.266965 0
M  V30 400 H 39.1105 5.43124 0.794221 0
M  V30 401 H 39.3715 4.02915 1.81966 0
M  V30 402 N 38.4306 0.297415 1.54768 0
M  V30 403 C 39.3626 -0.613881 2.20826 0
M  V30 404 C 40.3756 -1.10032 1.19987 0
M  V30 405 O 41.5646 -1.01839 1.46598 0
M  V30 406 C 38.6646 -1.852 2.83821 0
M  V30 407 C 37.8376 -1.50865 4.10559 0
M  V30 408 C 36.8966 -2.60154 4.57391 0
M  V30 409 O 35.9226 -2.25398 5.2267 0
M  V30 410 N 37.1246 -3.90629 4.29406 0
M  V30 411 H 39.8896 -0.048389 2.99661 0
M  V30 412 H 37.4506 0.11946 1.61459 0
M  V30 413 H 39.4426 -2.57652 3.12086 0
M  V30 414 H 38.0126 -2.32597 2.08847 0
M  V30 415 H 37.2326 -0.616925 3.89343 0
M  V30 416 H 38.5206 -1.25458 4.9309 0
M  V30 417 H 37.9186 -4.21677 3.77101 0
M  V30 418 H 36.4756 -4.59391 4.62388 0
M  V30 419 N 39.9087 -1.5758 0.0250728 0
M  V30 420 C 40.8717 -2.08896 -0.943139 0
M  V30 421 C 41.8717 -1.00321 -1.25668 0
M  V30 422 O 43.0617 -1.26495 -1.19769 0
M  V30 423 C 40.1937 -2.55143 -2.26086 0
M  V30 424 H 41.3867 -2.95723 -0.498775 0
M  V30 425 H 38.9397 -1.54703 -0.222888 0
M  V30 426 H 39.6747 -1.71633 -2.75159 0
M  V30 427 H 39.4597 -3.34461 -2.04641 0
M  V30 428 H 40.9497 -2.95083 -2.95492 0
M  V30 429 N 41.3868 0.248026 -1.55636 0
M  V30 430 C 42.3198 1.3334 -1.85191 0
M  V30 431 C 43.2978 1.46429 -0.706906 0
M  V30 432 O 44.4818 1.62662 -0.952544 0
M  V30 433 C 41.6088 2.70703 -2.03562 0
M  V30 434 C 40.6548 2.7477 -3.26196 0
M  V30 435 S 41.4878 2.31493 -4.82878 0
M  V30 436 C 42.6438 3.70783 -5.04253 0
M  V30 437 H 42.8768 1.08072 -2.76962 0
M  V30 438 H 40.4098 0.448952 -1.47729 0
M  V30 439 H 42.3678 3.49798 -2.1483 0
M  V30 440 H 41.0288 2.9321 -1.12635 0
M  V30 441 H 40.2218 3.75648 -3.36013 0
M  V30 442 H 39.8238 2.03719 -3.13647 0
M  V30 443 H 42.1158 4.6627 -4.91527 0
M  V30 444 H 43.0588 3.65901 -6.06236 0
M  V30 445 H 43.4668 3.63244 -4.32105 0
M  V30 446 N 42.8649 1.48995 0.513639 0
M  V30 447 C 44.0949 1.61297 1.291 0
M  V30 448 C 44.5029 0.278656 1.87137 0
M  V30 449 O 43.8459 -0.744325 1.67945 0
M  V30 450 C 43.9079 2.61326 2.46879 0
M  V30 451 C 43.5719 4.05993 2.09807 0
M  V30 452 C 44.5689 4.93183 1.64519 0
M  V30 453 C 42.2539 4.51642 2.19829 0
M  V30 454 C 44.2479 6.24056 1.2974 0
M  V30 455 C 41.9349 5.82532 1.84662 0
M  V30 456 C 42.9329 6.68562 1.3969 0
M  V30 457 O 42.6209 7.97014 1.04992 0
M  V30 458 H 42.3529 0.546236 0.39825 0
M  V30 459 H 44.9069 1.95673 0.62459 0
M  V30 460 H 43.1369 2.22104 3.16554 0
M  V30 461 H 44.8259 2.6329 3.08923 0
M  V30 462 H 45.5919 4.59147 1.56233 0
M  V30 463 H 41.4709 3.84855 2.53786 0
M  V30 464 H 45.0149 6.91161 0.945659 0
M  V30 465 H 40.9119 6.16099 1.92594 0
M  V30 466 H 41.6799 8.09913 1.18249 0
M  V30 467 N 44.343 -0.763751 1.37857 0
M  V30 468 C 45.592 -1.51789 1.32827 0
M  V30 469 C 45.905 -1.95426 -0.0823719 0
M  V30 470 O 47.111 -2.70298 -0.255172 0
M  V30 471 C 45.567 -2.74133 2.33193 0
M  V30 472 C 45.175 -2.37562 3.79827 0
M  V30 473 C 46.919 -3.52054 2.37188 0
M  V30 474 C 44.826 -3.56456 4.71904 0
M  V30 475 H 43.756 -0.569896 0.493695 0
M  V30 476 H 46.407 -0.835822 1.63359 0
M  V30 477 H 44.789 -3.4427 1.9569 0
M  V30 478 H 45.963 -1.75157 4.26212 0
M  V30 479 H 44.278 -1.72798 3.78853 0
M  V30 480 H 46.875 -4.40437 3.03182 0
M  V30 481 H 47.218 -3.92486 1.38782 0
M  V30 482 H 47.751 -2.88921 2.7344 0
M  V30 483 H 44.49 -3.21099 5.71468 0
M  V30 484 H 44.01 -4.17938 4.30218 0
M  V30 485 H 45.689 -4.23168 4.89426 0
M  V30 486 N 45.8211 -1.22559 -0.990812 0
M  V30 487 C 47.0671 -1.06303 -1.73411 0
M  V30 488 C 47.4221 0.397442 -1.8825 0
M  V30 489 O 46.7151 1.29062 -1.41611 0
M  V30 490 C 46.9091 -1.71011 -3.13831 0
M  V30 491 C 46.7381 -3.232 -3.12685 0
M  V30 492 C 45.5081 -3.92314 -3.18461 0
M  V30 493 C 47.7061 -4.20107 -2.96673 0
M  V30 494 N 45.6881 -5.31571 -3.07091 0
M  V30 495 C 47.0591 -5.46208 -2.93354 0
M  V30 496 C 49.1141 -4.10973 -2.8108 0
M  V30 497 C 47.8171 -6.64225 -2.76039 0
M  V30 498 C 49.8431 -5.28642 -2.65126 0
M  V30 499 C 49.2051 -6.53663 -2.62496 0
M  V30 500 H 45.3041 -0.443441 -0.644115 0
M  V30 501 H 47.8881 -1.55131 -1.17654 0
M  V30 502 H 46.0591 -1.2473 -3.67827 0
M  V30 503 H 47.7911 -1.47828 -3.76735 0
M  V30 504 H 44.5461 -3.43326 -3.26227 0
M  V30 505 H 44.9701 -6.0455 -3.0471 0
M  V30 506 H 49.6121 -3.15098 -2.8191 0
M  V30 507 H 47.3301 -7.60246 -2.73954 0
M  V30 508 H 50.9161 -5.23407 -2.54039 0
M  V30 509 H 49.7961 -7.43182 -2.50302 0
M  V30 510 N 47.2992 1.18797 -1.03562 0
M  V30 511 C 48.5482 1.87978 -0.731235 0
M  V30 512 C 48.8612 1.80911 0.743671 0
M  V30 513 O 50.0672 2.45407 1.16137 0
M  V30 514 C 48.5232 3.3721 -1.25768 0
M  V30 515 C 48.1312 3.52818 -2.76085 0
M  V30 516 C 49.8752 4.11825 -1.0296 0
M  V30 517 C 47.7822 4.9598 -3.22114 0
M  V30 518 H 46.7122 0.704063 -0.269835 0
M  V30 519 H 49.3632 1.34266 -1.25079 0
M  V30 520 H 47.7452 3.90359 -0.666011 0
M  V30 521 H 48.9192 3.09965 -3.40966 0
M  V30 522 H 47.2342 2.91602 -2.97249 0
M  V30 523 H 49.8312 5.17411 -1.34869 0
M  V30 524 H 50.1742 4.16287 0.0333546 0
M  V30 525 H 50.7072 3.64833 -1.58562 0
M  V30 526 H 47.4462 4.96684 -4.27768 0
M  V30 527 H 46.9662 5.39569 -2.61965 0
M  V30 528 H 48.6452 5.6467 -3.15844 0
M  V30 529 N 48.7773 0.814389 1.34928 0
M  V30 530 C 50.0543 0.321363 1.92942 0
M  V30 531 C 50.4343 -1.19014 1.74353 0
M  V30 532 O 49.7823 -1.99328 1.11716 0
M  V30 533 C 49.9923 0.741323 3.41036 0
M  V30 534 C 51.3403 0.735266 4.18185 0
M  V30 535 O 52.3643 0.68336 3.49584 0
M  V30 536 O 51.2233 0.800703 5.40602 0
M  V30 537 H 48.3173 0.0858893 0.822528 0
M  V30 538 H 50.8633 0.898609 1.43955 0
M  V30 539 H 49.6353 1.78276 3.4833 0
M  V30 540 H 49.2583 0.139307 3.97356 0
M  V30 541 N 50.2554 -1.46986 0.568584 0
M  V30 542 C 51.5034 -2.02041 0.0487022 0
M  V30 543 C 51.8244 -1.44408 -1.31039 0
M  V30 544 O 51.0944 -0.623477 -1.85714 0
M  V30 545 H 49.6744 -0.746849 0.015014 0
M  V30 546 H 52.3364 -1.80257 0.741168 0
M  V30 547 H 51.4324 -3.12085 -0.0308961 0
M  V30 548 N 51.7335 -0.305618 -1.54608 0
M  V30 549 C 52.9615 0.304775 -2.04643 0
M  V30 550 C 53.3765 1.47167 -1.18268 0
M  V30 551 O 52.7335 1.81296 -0.209328 0
M  V30 552 C 52.7845 0.756564 -3.53495 0
M  V30 553 O 52.5055 -0.36389 -4.36586 0
M  V30 554 C 54.0065 1.43163 -4.19546 0
M  V30 555 H 51.2265 0.0655481 -0.667791 0
M  V30 556 H 53.7705 -0.446592 -1.99564 0
M  V30 557 H 51.9255 1.45794 -3.58919 0
M  V30 558 H 52.3395 -0.0113121 -5.24499 0
M  V30 559 H 53.8135 1.69886 -5.25207 0
M  V30 560 H 54.2905 2.37318 -3.69563 0
M  V30 561 H 54.8965 0.773307 -4.18211 0
M  V30 562 N 53.2116 1.57565 -0.0334293 0
M  V30 563 C 54.4596 1.91598 0.642999 0
M  V30 564 C 54.7806 0.910847 1.7242 0
M  V30 565 O 54.0506 -0.0469931 1.95844 0
M  V30 566 H 52.6306 0.707228 0.240496 0
M  V30 567 H 55.2926 1.94726 -0.0822488 0
M  V30 568 H 54.3886 2.92336 1.09298 0
M  V30 569 N 54.6897 -0.239769 1.55765 0
M  V30 570 C 55.5997 -1.31831 1.94056 0
M  V30 571 C 56.6157 -1.52275 0.841925 0
M  V30 572 O 57.7917 -1.65759 1.14394 0
M  V30 573 C 54.8567 -2.65156 2.23368 0
M  V30 574 C 53.9177 -2.53173 3.46701 0
M  V30 575 C 53.1507 -3.8014 3.74606 0
M  V30 576 O 53.3737 -4.82343 3.04469 0
M  V30 577 O 52.3077 -3.78344 4.68123 0
M  V30 578 H 56.1337 -1.02347 2.85935 0
M  V30 579 H 53.7187 -0.441123 1.42739 0
M  V30 580 H 55.6007 -3.43929 2.43497 0
M  V30 581 H 54.2757 -2.94358 1.34666 0
M  V30 582 H 53.1827 -1.72662 3.31871 0
M  V30 583 H 54.5157 -2.28915 4.35728 0
M  V30 584 N 56.1678 -1.49265 -0.50573 0
M  V30 585 C 57.4158 -1.582 -1.25766 0
M  V30 586 C 57.7368 -0.268482 -1.93143 0
M  V30 587 O 57.0068 0.711833 -1.8251 0
M  V30 588 H 55.5868 -0.582873 -0.467191 0
M  V30 589 H 58.2488 -1.85865 -0.586525 0
M  V30 590 H 57.3448 -2.37563 -2.02412 0
M  V30 591 N 57.6459 0.756429 -1.3826 0
M  V30 592 C 58.5759 1.88374 -1.37976 0
M  V30 593 C 59.5569 1.68311 -0.246082 0
M  V30 594 O 60.7419 1.88944 -0.44874 0
M  V30 595 C 57.8719 3.25864 -1.20125 0
M  V30 596 C 56.8259 3.60523 -2.30666 0
M  V30 597 C 56.1519 4.9672 -1.97923 0
M  V30 598 C 57.4519 3.65692 -3.72916 0
M  V30 599 H 59.1459 1.88869 -2.32312 0
M  V30 600 H 56.6919 0.907272 -1.11824 0
M  V30 601 H 58.6449 4.0438 -1.18552 0
M  V30 602 H 57.3689 3.25841 -0.222498 0
M  V30 603 H 56.0279 2.84324 -2.3142 0
M  V30 604 H 55.6759 4.93253 -0.985393 0
M  V30 605 H 55.3759 5.20878 -2.71955 0
M  V30 606 H 56.8999 5.77618 -1.97964 0
M  V30 607 H 58.3139 4.34328 -3.74208 0
M  V30 608 H 56.7109 4.01358 -4.4613 0
M  V30 609 H 57.7809 2.65987 -4.05436 0
M  V30 610 N 59.124 1.23083 0.984299 0
M  V30 611 C 60.54 0.992637 1.24975 0
M  V30 612 C 60.74 -0.308618 1.99123 0
M  V30 613 O 59.796 -1.02905 2.30579 0
M  V30 614 C 61.109 2.19698 2.05312 0
M  V30 615 C 62.657 2.24147 2.18465 0
M  V30 616 C 63.132 3.44157 3.02192 0
M  V30 617 N 64.623 3.44372 3.09777 0
M  V30 618 C 65.358 4.33886 3.74874 0
M  V30 619 N 64.854 5.3363 4.41827 0
M  V30 620 N 66.647 4.21639 3.71721 0
M  V30 621 H 58.798 2.06731 0.487453 0
M  V30 622 H 61.061 0.906339 0.277944 0
M  V30 623 H 60.767 3.1411 1.58201 0
M  V30 624 H 60.641 2.20465 3.06064 0
M  V30 625 H 63.028 1.30277 2.64786 0
M  V30 626 H 63.109 2.27415 1.17115 0
M  V30 627 H 62.753 4.38332 2.56568 0
M  V30 628 H 62.683 3.3813 4.03702 0
M  V30 629 H 65.174 2.72201 2.62135 0
M  V30 630 H 65.487 5.98196 4.89266 0
M  V30 631 H 63.832 5.37534 4.40548 0
M  V30 632 H 67.023 3.42962 3.18582 0
M  V30 633 H 67.196 4.91604 4.22173 0
M  V30 634 N 60.6021 -1.18246 1.0419 0
M  V30 635 C 61.8421 -1.89948 0.754916 0
M  V30 636 C 62.2061 -1.78608 -0.70451 0
M  V30 637 O 63.4071 -2.4503 -1.10516 0
M  V30 638 C 61.6781 -3.36305 1.20969 0
M  V30 639 S 63.2371 -4.26088 1.04854 0
M  V30 640 H 60.0551 -0.655897 0.274446 0
M  V30 641 H 62.6571 -1.42873 1.33445 0
M  V30 642 H 61.3611 -3.42089 2.26722 0
M  V30 643 H 60.8921 -3.8842 0.624004 0
M  V30 644 H 62.9071 -4.96189 -0.0332896 0
M  V30 645 N 62.0802 -0.821533 -1.34494 0
M  V30 646 C 63.0272 -0.240397 -2.29545 0
M  V30 647 C 63.9972 0.634031 -1.53523 0
M  V30 648 O 65.1822 0.575966 -1.81899 0
M  V30 649 C 62.3222 0.592869 -3.39969 0
M  V30 650 C 61.4352 -0.30365 -4.30932 0
M  V30 651 C 60.5702 0.539049 -5.28458 0
M  V30 652 C 59.6092 -0.356942 -6.11058 0
M  V30 653 N 58.7462 0.446603 -7.00678 0
M  V30 654 H 63.5862 -1.05632 -2.7865 0
M  V30 655 H 61.1232 -0.532413 -1.37127 0
M  V30 656 H 63.0812 1.09129 -4.02675 0
M  V30 657 H 61.7112 1.37392 -2.92102 0
M  V30 658 H 60.7632 -0.920276 -3.691 0
M  V30 659 H 62.0752 -0.992661 -4.88823 0
M  V30 660 H 61.2292 1.102 -5.96608 0
M  V30 661 H 59.9682 1.26157 -4.71101 0
M  V30 662 H 58.9732 -0.932047 -5.41842 0
M  V30 663 H 60.1982 -1.07755 -6.70497 0
M  V30 664 H 58.1442 1.15282 -6.45791 0
M  V30 665 H 58.0612 -0.184048 -7.55776 0
M  V30 666 H 59.3292 0.992352 -7.73158 0
M  V30 667 N 63.5583 1.46682 -0.576371 0
M  V30 668 C 64.7863 2.06798 -0.0649635 0
M  V30 669 C 65.2013 1.42612 1.23723 0
M  V30 670 O 64.5583 0.529203 1.74659 0
M  V30 671 C 64.6093 3.6132 0.114202 0
M  V30 672 O 64.3303 4.23104 -1.13644 0
M  V30 673 C 65.8313 4.38349 0.66069 0
M  V30 674 H 63.0513 0.668778 -0.0545616 0
M  V30 675 H 65.5953 1.88404 -0.795237 0
M  V30 676 H 63.7503 3.79162 0.794673 0
M  V30 677 H 64.1643 5.15894 -0.946253 0
M  V30 678 H 65.6383 5.47081 0.73526 0
M  V30 679 H 66.1153 4.05953 1.67627 0
M  V30 680 H 66.7213 4.25297 0.0152951 0
M  V30 681 N 65.0364 0.313813 1.54444 0
M  V30 682 C 66.4524 -0.0391619 1.59552 0
M  V30 683 C 66.6524 -1.51322 1.33056 0
M  V30 684 O 65.7084 -2.26782 1.11022 0
M  V30 685 C 67.0214 0.370302 2.98411 0
M  V30 686 C 68.5694 0.320139 3.11358 0
M  V30 687 C 69.0444 0.704617 4.52547 0
M  V30 688 N 70.5354 0.657645 4.58508 0
M  V30 689 C 71.2704 0.927453 5.6585 0
M  V30 690 N 70.7664 1.26389 6.81174 0
M  V30 691 N 72.5594 0.853662 5.5558 0
M  V30 692 H 64.7104 1.27433 1.69925 0
M  V30 693 H 66.9734 0.517511 0.794284 0
M  V30 694 H 66.6794 1.39694 3.22767 0
M  V30 695 H 66.5534 -0.269619 3.76235 0
M  V30 696 H 68.9404 -0.697275 2.86744 0
M  V30 697 H 69.0214 0.99486 2.35661 0
M  V30 698 H 68.6654 1.7199 4.77893 0
M  V30 699 H 68.5954 0.00768843 5.26599 0
M  V30 700 H 71.0864 0.409067 3.75679 0
M  V30 701 H 71.3994 1.4554 7.58972 0
M  V30 702 H 69.7444 1.30206 6.82694 0
M  V30 703 H 72.9354 0.590383 4.64362 0
M  V30 704 H 73.1084 1.0673 6.3915 0
M  V30 705 N 66.5145 -1.57545 0.0417849 0
M  V30 706 C 67.7425 -1.96624 -0.643928 0
M  V30 707 C 68.1575 -0.918897 -1.64929 0
M  V30 708 O 67.5145 0.0979323 -1.82237 0
M  V30 709 C 67.5655 -3.35781 -1.33914 0
M  V30 710 O 67.2865 -4.365 -0.374048 0
M  V30 711 C 68.7875 -3.89566 -2.1155 0
M  V30 712 H 66.0075 -0.647316 -0.176702 0
M  V30 713 H 68.5515 -2.04229 0.105304 0
M  V30 714 H 66.7065 -3.29357 -2.03968 0
M  V30 715 H 67.1205 -5.17248 -0.869179 0
M  V30 716 H 68.5945 -4.89242 -2.55628 0
M  V30 717 H 69.0715 -3.24488 -2.9598 0
M  V30 718 H 69.6775 -3.99298 -1.46427 0
M  V30 719 N 67.9926 0.231505 -1.5589 0
M  V30 720 C 68.9226 1.29022 -1.94617 0
M  V30 721 C 69.9036 1.4941 -0.813067 0
M  V30 722 O 71.0886 1.6176 -1.07459 0
M  V30 723 C 68.2186 2.64199 -2.25424 0
M  V30 724 C 67.1726 2.58484 -3.41131 0
M  V30 725 C 66.4986 3.97599 -3.57518 0
M  V30 726 C 67.7986 2.1413 -4.76388 0
M  V30 727 H 69.4926 0.968563 -2.83301 0
M  V30 728 H 67.0386 0.464479 -1.36303 0
M  V30 729 H 68.9916 3.38413 -2.51107 0
M  V30 730 H 67.7156 2.98032 -1.33583 0
M  V30 731 H 66.3746 1.86727 -3.15481 0
M  V30 732 H 66.0226 4.28723 -2.6307 0
M  V30 733 H 65.7226 3.94659 -4.35337 0
M  V30 734 H 67.2466 4.7349 -3.85538 0
M  V30 735 H 68.6606 2.78083 -5.01341 0
M  V30 736 H 67.0576 2.2227 -5.57419 0
M  V30 737 H 68.1276 1.09331 -4.72414 0
M  V30 738 N 69.4707 1.49531 0.497807 0
M  V30 739 C 70.7477 1.49682 1.25915 0
M  V30 740 C 71.1277 0.226339 2.09883 0
M  V30 741 O 70.4757 -0.791189 2.14365 0
M  V30 742 C 70.6857 2.77755 2.11313 0
M  V30 743 C 72.0337 3.27371 2.70395 0
M  V30 744 O 73.0577 2.78894 2.21578 0
M  V30 745 O 71.9167 4.11808 3.59272 0
M  V30 746 H 69.0107 0.599228 0.56996 0
M  V30 747 H 71.5567 1.61798 0.511816 0
M  V30 748 H 70.3287 3.61713 1.49264 0
M  V30 749 H 69.9517 2.68515 2.93233 0
M  V30 750 N 70.9488 -0.749086 1.3866 0
M  V30 751 C 72.1738 -1.54344 1.38538 0
M  V30 752 C 72.5988 -1.88088 -0.0216655 0
M  V30 753 O 71.9568 -1.50899 -1.00494 0
M  V30 754 C 72.0048 -2.8164 2.25192 0
M  V30 755 O 71.1088 -3.7698 1.67212 0
M  V30 756 H 70.4498 -0.466654 0.472367 0
M  V30 757 H 72.9798 -0.925355 1.82478 0
M  V30 758 H 72.9898 -3.30519 2.3921 0
M  V30 759 H 71.6648 -2.56411 3.27454 0
M  V30 760 H 70.2418 -3.35699 1.6236 0
M  V30 761 N 72.4269 -1.23603 -0.977757 0
M  V30 762 C 73.3369 -1.03632 -2.1047 0
M  V30 763 C 74.3529 0.0199435 -1.73989 0
M  V30 764 O 75.5289 -0.176076 -2.00629 0
M  V30 765 C 72.5939 -0.63276 -3.40877 0
M  V30 766 C 71.6549 -1.76437 -3.91367 0
M  V30 767 C 70.8879 -1.37997 -5.15551 0
M  V30 768 O 71.1109 -0.265357 -5.69782 0
M  V30 769 O 70.0449 -2.20201 -5.60174 0
M  V30 770 H 73.8709 -1.98086 -2.30208 0
M  V30 771 H 71.4559 -1.02332 -1.08851 0
M  V30 772 H 73.3379 -0.418761 -4.19314 0
M  V30 773 H 72.0129 0.282754 -3.22463 0
M  V30 774 H 70.9199 -2.03304 -3.14036 0
M  V30 775 H 72.2529 -2.6583 -4.14241 0
M  V30 776 N 73.905 1.17692 -1.04816 0
M  V30 777 C 75.316 1.69501 -0.782698 0
M  V30 778 C 75.667 1.83456 0.695577 0
M  V30 779 O 74.792 1.51942 1.54086 0
M  V30 780 C 75.387 3.07874 -1.41419 0
M  V30 781 C 73.946 3.56864 -1.19686 0
M  V30 782 C 73.093 2.3322 -1.50012 0
M  V30 783 H 76.044 1.02262 -1.2136 0
M  V30 784 H 76.065 3.71528 -0.821428 0
M  V30 785 H 75.577 2.97685 -2.49009 0
M  V30 786 H 73.678 3.72337 -0.140043 0
M  V30 787 H 73.791 4.39851 -1.89916 0
M  V30 788 H 72.155 2.37501 -0.920071 0
M  V30 789 H 72.938 2.25644 -2.58727 0
M  V30 790 N 75.3831 0.828654 1.34056 0
M  V30 791 C 76.3301 0.252567 2.29414 0
M  V30 792 C 77.3001 -0.62588 1.53857 0
M  V30 793 O 78.4851 -0.566312 1.82202 0
M  V30 794 C 75.6251 -0.574831 3.40279 0
M  V30 795 C 74.7381 0.326499 4.30764 0
M  V30 796 C 73.8731 -0.511016 5.28736 0
M  V30 797 C 72.9121 0.389342 6.1086 0
M  V30 798 N 72.0491 -0.409439 7.00905 0
M  V30 799 H 76.8891 1.07108 2.78086 0
M  V30 800 H 74.4261 0.539677 1.36843 0
M  V30 801 H 76.3841 -1.06992 4.03248 0
M  V30 802 H 75.0141 -1.35841 2.92826 0
M  V30 803 H 74.0661 0.939837 3.68607 0
M  V30 804 H 75.3781 1.01857 4.88289 0
M  V30 805 H 74.5321 -1.07035 5.97184 0
M  V30 806 H 73.2711 -1.23657 4.71763 0
M  V30 807 H 72.2761 0.960769 5.4134 0
M  V30 808 H 73.5011 1.1131 6.69916 0
M  V30 809 H 71.4471 -1.11856 6.46393 0
M  V30 810 H 71.3641 0.224126 7.55668 0
M  V30 811 H 72.6321 -0.951336 7.73673 0
M  V30 812 N 76.8612 -1.46375 0.584142 0
M  V30 813 C 78.1012 -2.0427 0.0729695 0
M  V30 814 C 78.4652 -1.44563 -1.26355 0
M  V30 815 O 79.6662 -1.93667 -1.86405 0
M  V30 816 C 77.9372 -3.57399 0.00967464 0
M  V30 817 S 79.4962 -4.36551 -0.443714 0
M  V30 818 H 76.3142 -0.709975 0.0381673 0
M  V30 819 H 78.9162 -1.79398 0.776962 0
M  V30 820 H 77.6202 -3.98372 0.986319 0
M  V30 821 H 77.1512 -3.8681 -0.717044 0
M  V30 822 H 79.1662 -4.66237 -1.69816 0
M  V30 823 N 78.3393 -0.321999 -1.54275 0
M  V30 824 C 79.5853 0.281461 -2.00837 0
M  V30 825 C 79.9183 1.51909 -1.20985 0
M  V30 826 O 79.1933 1.923 -0.291733 0
M  V30 827 C 79.4763 0.617162 -3.54772 0
M  V30 828 C 79.3293 -0.631064 -4.45351 0
M  V30 829 C 80.6483 1.43542 -4.16033 0
M  V30 830 H 77.7673 0.100826 -0.730071 0
M  V30 831 H 80.4093 -0.438268 -1.84876 0
M  V30 832 H 78.5593 1.23034 -3.68504 0
M  V30 833 H 80.2313 -1.26934 -4.43492 0
M  V30 834 H 78.4743 -1.26025 -4.15091 0
M  V30 835 H 79.1453 -0.351735 -5.50878 0
M  V30 836 H 81.6213 0.917134 -4.05867 0
M  V30 837 H 80.4973 1.63907 -5.23856 0
M  V30 838 H 80.7583 2.43108 -3.69257 0
M  V30 839 N 79.8174 1.5752 -0.0501392 0
M  V30 840 C 80.7274 2.14952 0.939827 0
M  V30 841 C 81.7434 1.10706 1.34239 0
M  V30 842 O 82.9194 1.42869 1.41952 0
M  V30 843 C 79.9844 2.68232 2.19665 0
M  V30 844 C 79.0454 3.87272 1.85253 0
M  V30 845 C 78.2784 4.38002 3.04943 0
M  V30 846 O 78.5014 3.87811 4.18281 0
M  V30 847 O 77.4354 5.29602 2.86017 0
M  V30 848 H 81.2614 2.9986 0.481392 0
M  V30 849 H 78.8464 1.4841 0.171699 0
M  V30 850 H 80.7284 3.02475 2.93406 0
M  V30 851 H 79.4034 1.86395 2.64648 0
M  V30 852 H 78.3104 3.5792 1.0883 0
M  V30 853 H 79.6434 4.70336 1.4507 0
M  V30 854 N 81.2955 -0.223234 1.56011 0
M  V30 855 C 82.2055 -1.29766 1.95443 0
M  V30 856 C 83.2215 -1.51373 0.858028 0
M  V30 857 O 84.3975 -1.64536 1.16146 0
M  V30 858 C 81.4625 -2.62772 2.26167 0
M  V30 859 C 80.5235 -2.49482 3.49367 0
M  V30 860 C 79.7565 -3.76145 3.78616 0
M  V30 861 O 79.9795 -4.79087 3.09568 0
M  V30 862 O 78.9135 -3.73358 4.72109 0
M  V30 863 H 82.7395 -0.99309 2.87004 0
M  V30 864 H 80.3245 -0.425958 1.43199 0
M  V30 865 H 82.2065 -3.41327 2.47131 0
M  V30 866 H 80.8815 -2.92913 1.37781 0
M  V30 867 H 79.7885 -1.69133 3.33684 0
M  V30 868 H 81.1215 -2.2428 4.38131 0
M  V30 869 N 82.7736 -1.49793 -0.48987 0
M  V30 870 C 83.7036 -1.70201 -1.59856 0
M  V30 871 C 84.6846 -0.55076 -1.60937 0
M  V30 872 O 85.8696 -0.787841 -1.77501 0
M  V30 873 C 82.9996 -1.77882 -2.98287 0
M  V30 874 C 81.9536 -2.92907 -3.12073 0
M  V30 875 C 81.2796 -2.85712 -4.51965 0
M  V30 876 C 82.5796 -4.3369 -2.91051 0
M  V30 877 H 84.2736 -2.63025 -1.43032 0
M  V30 878 H 81.8196 -1.26574 -0.686664 0
M  V30 879 H 83.7726 -1.90744 -3.75759 0
M  V30 880 H 82.4966 -0.816653 -3.16225 0
M  V30 881 H 81.1556 -2.79665 -2.37029 0
M  V30 882 H 80.8036 -1.8738 -4.66795 0
M  V30 883 H 80.5036 -3.62921 -4.62128 0
M  V30 884 H 82.0276 -3.00598 -5.31482 0
M  V30 885 H 83.4416 -4.47555 -3.58284 0
M  V30 886 H 81.8386 -5.12205 -3.12675 0
M  V30 887 H 82.9086 -4.47362 -1.87071 0
M  V30 888 N 84.2517 0.741722 -1.39055 0
M  V30 889 C 85.6627 1.31966 -1.32068 0
M  V30 890 C 86.0137 1.96192 0.0180797 0
M  V30 891 O 85.1387 1.95861 0.920196 0
M  V30 892 C 85.7337 2.39954 -2.39181 0
M  V30 893 C 84.2927 2.93438 -2.35735 0
M  V30 894 C 83.4397 1.66936 -2.21422 0
M  V30 895 H 86.3907 0.539721 -1.4924 0
M  V30 896 H 86.4117 3.20182 -2.05581 0
M  V30 897 H 85.9237 1.9318 -3.36605 0
M  V30 898 H 84.0247 3.4451 -1.41929 0
M  V30 899 H 84.1377 3.4701 -3.30335 0
M  V30 900 H 82.5017 1.91016 -1.68478 0
M  V30 901 H 83.2847 1.22224 -3.20806 0
M  V30 902 N 85.7298 1.2412 0.971189 0
M  V30 903 C 86.6398 1.04747 2.09917 0
M  V30 904 C 87.6558 -0.0107162 1.73997 0
M  V30 905 O 88.8318 0.186714 2.00533 0
M  V30 906 C 85.8968 0.650828 3.40537 0
M  V30 907 C 84.9578 1.7851 3.90426 0
M  V30 908 C 84.1908 1.40729 5.14812 0
M  V30 909 O 84.4138 0.29557 5.69634 0
M  V30 910 O 83.3478 2.23168 5.58999 0
M  V30 911 H 87.1738 1.99304 2.29154 0
M  V30 912 H 84.7588 1.02908 1.08307 0
M  V30 913 H 86.6408 0.440992 4.19086 0
M  V30 914 H 85.3158 -0.265649 3.22608 0
M  V30 915 H 84.2228 2.04966 3.12953 0
M  V30 916 H 85.5558 2.68023 4.12825 0
M  V30 917 N 87.2079 -1.17134 1.05439 0
M  V30 918 C 88.4539 -1.87979 0.776872 0
M  V30 919 C 88.8089 -1.7965 -0.688751 0
M  V30 920 O 88.1019 -1.19535 -1.4974 0
M  V30 921 C 88.2959 -3.36833 1.19491 0
M  V30 922 C 88.1249 -3.59653 2.69963 0
M  V30 923 C 86.8949 -3.76234 3.37307 0
M  V30 924 C 89.0929 -3.59091 3.68182 0
M  V30 925 N 87.0749 -3.86922 4.76618 0
M  V30 926 C 88.4459 -3.75659 4.93235 0
M  V30 927 C 90.5009 -3.42255 3.61616 0
M  V30 928 C 89.2039 -3.77133 6.12506 0
M  V30 929 C 91.2299 -3.45018 4.8033 0
M  V30 930 C 90.5919 -3.62096 6.04207 0
M  V30 931 H 86.6909 -0.705876 0.336546 0
M  V30 932 H 89.2749 -1.40602 1.34682 0
M  V30 933 H 87.4459 -3.82873 0.652884 0
M  V30 934 H 89.1779 -3.95305 0.866966 0
M  V30 935 H 85.9329 -3.76193 2.87708 0
M  V30 936 H 86.3569 -3.96055 5.49062 0
M  V30 937 H 90.9989 -3.27986 2.66805 0
M  V30 938 H 88.7169 -3.90186 7.07659 0
M  V30 939 H 92.3029 -3.33246 4.76905 0
M  V30 940 H 91.1829 -3.64142 6.94529 0
M  V30 941 N 88.686 -0.835752 -1.33615 0
M  V30 942 C 89.634 -0.255238 -2.31195 0
M  V30 943 C 90.628 0.61107 -1.57995 0
M  V30 944 O 91.834 0.500979 -1.72888 0
M  V30 945 H 88.209 -0.0638085 -0.749288 0
M  V30 946 H 90.18 -1.09283 -2.77669 0
M  V30 947 C 88.929 0.55754 -3.43201 0
M  V30 948 H 88.252 -0.0997553 -3.99676 0
M  V30 949 H 89.692 0.929622 -4.13683 0
M  V30 950 C 88.151 1.73515 -2.88781 0
M  V30 951 O 88.681 2.83376 -2.84712 0
M  V30 952 N 86.887 1.55603 -2.4543 0
M  V30 953 H 86.434 0.662354 -2.48939 0
M  V30 954 H 86.392 2.34545 -2.09371 0
M  V30 955 N 90.1641 1.46063 -0.591896 0
M  V30 956 C 91.4111 2.02338 -0.0809991 0
M  V30 957 C 91.7391 1.46228 1.28249 0
M  V30 958 O 90.9941 0.620818 1.85592 0
M  V30 959 C 91.2931 3.57391 0.0249813 0
M  V30 960 C 90.9591 4.32583 -1.27211 0
M  V30 961 C 89.6211 4.52844 -1.62745 0
M  V30 962 C 91.9731 4.75687 -2.13005 0
M  V30 963 C 89.3011 5.13462 -2.83855 0
M  V30 964 C 91.6531 5.37644 -3.3335 0
M  V30 965 C 90.3171 5.5613 -3.69155 0
M  V30 966 H 89.5871 0.740407 -0.0296397 0
M  V30 967 H 92.2341 1.75321 -0.770374 0
M  V30 968 H 90.5391 3.83597 0.797537 0
M  V30 969 H 92.2361 3.98621 0.436184 0
M  V30 970 H 88.8261 4.17116 -0.985499 0
M  V30 971 H 93.0101 4.59782 -1.86855 0
M  V30 972 H 88.2661 5.25965 -3.11722 0
M  V30 973 H 92.4401 5.7 -4.00092 0
M  V30 974 H 90.0671 6.0287 -4.63089 0
M  V30 975 N 91.6422 0.330177 1.54103 0
M  V30 976 C 92.9192 -0.325007 1.92881 0
M  V30 977 C 93.2992 -1.6934 1.26045 0
M  V30 978 O 92.6472 -2.24855 0.406526 0
M  V30 979 C 92.8572 -0.410634 3.46576 0
M  V30 980 C 94.2052 -0.667801 4.19316 0
M  V30 981 O 95.2292 -0.49329 3.52768 0
M  V30 982 O 94.0882 -1.00491 5.37181 0
M  V30 983 H 91.1822 -0.186873 0.80561 0
M  V30 984 H 93.7282 0.380376 1.65382 0
M  V30 985 H 92.5002 0.550164 3.87413 0
M  V30 986 H 92.1232 -1.16333 3.802 0
M  V30 987 N 93.1203 -1.57491 0.0584922 0
M  V30 988 C 94.3683 -1.92597 -0.612436 0
M  V30 989 C 94.6893 -0.938162 -1.70949 0
M  V30 990 O 93.9593 0.0158301 -1.95894 0
M  V30 991 H 92.5393 -0.710964 -0.229214 0
M  V30 992 H 95.2013 -1.94571 0.113218 0
M  V30 993 H 94.2973 -2.94038 -1.04633 0
M  V30 994 N 94.5984 0.214957 -1.56127 0
M  V30 995 C 95.8234 0.95924 -1.83884 0
M  V30 996 C 96.2484 1.7689 -0.639644 0
M  V30 997 O 95.6064 1.76566 0.411601 0
M  V30 998 C 95.6544 1.84723 -3.09693 0
M  V30 999 O 94.7584 2.94346 -2.8885 0
M  V30 1000 H 94.0994 0.27125 -0.606069 0
M  V30 1001 H 96.6294 0.226276 -2.03345 0
M  V30 1002 H 96.6394 2.25576 -3.39969 0
M  V30 1003 H 95.3144 1.25218 -3.96602 0
M  V30 1004 H 93.8914 2.57391 -2.69823 0
M  V30 1005 N 96.0765 1.50051 0.48192 0
M  V30 1006 C 97.3015 1.64508 1.26301 0
M  V30 1007 C 97.7265 0.323851 1.85291 0
M  V30 1008 O 97.0845 -0.710969 1.66778 0
M  V30 1009 C 97.1325 2.7305 2.35533 0
M  V30 1010 O 96.2365 2.3355 3.39895 0
M  V30 1011 H 95.5775 0.549978 0.372048 0
M  V30 1012 H 98.1075 1.9636 0.574786 0
M  V30 1013 H 98.1175 2.95799 2.8101 0
M  V30 1014 H 96.7925 3.68946 1.91967 0
M  V30 1015 H 95.3695 2.21205 3.00204 0
M  V30 1016 N 97.5546 -0.734337 1.39446 0
M  V30 1017 C 98.7826 -1.52358 1.39981 0
M  V30 1018 C 99.1976 -1.88799 -0.0054975 0
M  V30 1019 O 98.5546 -1.54146 -0.976998 0
M  V30 1020 C 98.6056 -2.81072 2.27333 0
M  V30 1021 O 98.3266 -2.46178 3.62392 0
M  V30 1022 C 99.8276 -3.75096 2.36259 0
M  V30 1023 H 97.0476 -0.470806 0.478103 0
M  V30 1024 H 99.5916 -0.907339 1.83269 0
M  V30 1025 H 97.7466 -3.39026 1.87457 0
M  V30 1026 H 98.1606 -3.28866 4.08592 0
M  V30 1027 H 99.6346 -4.62305 3.01626 0
M  V30 1028 H 100.112 -4.16892 1.38194 0
M  V30 1029 H 100.718 -3.23061 2.76608 0
M  V30 1030 N 99.0327 -1.24633 -0.964593 0
M  V30 1031 C 99.9627 -1.06611 -2.07741 0
M  V30 1032 C 100.944 0.0218666 -1.70086 0
M  V30 1033 O 102.129 -0.145793 -1.93652 0
M  V30 1034 C 99.2587 -0.673444 -3.40708 0
M  V30 1035 C 98.2127 -1.71054 -3.92332 0
M  V30 1036 C 97.5387 -1.17285 -5.21678 0
M  V30 1037 C 98.8387 -3.10718 -4.19824 0
M  V30 1038 H 100.533 -1.99693 -2.23076 0
M  V30 1039 H 98.0787 -0.96152 -1.07195 0
M  V30 1040 H 100.032 -0.534345 -4.17998 0
M  V30 1041 H 98.7557 0.293073 -3.25282 0
M  V30 1042 H 97.4147 -1.83791 -3.17201 0
M  V30 1043 H 97.0627 -0.196847 -5.02615 0
M  V30 1044 H 96.7627 -1.86592 -5.57187 0
M  V30 1045 H 98.2867 -1.04593 -6.01575 0
M  V30 1046 H 99.7007 -3.01192 -4.87808 0
M  V30 1047 H 98.0977 -3.77406 -4.66567 0
M  V30 1048 H 99.1677 -3.58524 -3.26479 0
M  V30 1049 N 100.511 1.16574 -1.06058 0
M  V30 1050 C 101.443 2.2045 -0.627239 0
M  V30 1051 C 102.456 1.59752 0.313534 0
M  V30 1052 O 103.645 1.78192 0.104896 0
M  V30 1053 C 100.745 3.3875 0.100974 0
M  V30 1054 C 99.9178 4.29008 -0.852687 0
M  V30 1055 C 98.9768 5.25944 -0.164152 0
M  V30 1056 O 98.0028 5.63535 -0.801047 0
M  V30 1057 N 99.2048 5.70075 1.09518 0
M  V30 1058 H 101.97 2.58249 -1.52077 0
M  V30 1059 H 99.5308 1.3156 -0.943594 0
M  V30 1060 H 101.523 4.00638 0.57194 0
M  V30 1061 H 100.093 2.99476 0.89628 0
M  V30 1062 H 99.3128 3.64419 -1.50308 0
M  V30 1063 H 100.601 4.86195 -1.49972 0
M  V30 1064 H 99.9988 5.41624 1.6328 0
M  V30 1065 H 98.5558 6.34067 1.51006 0
M  V30 1066 N 101.989 0.842826 1.3317 0
M  V30 1067 C 103.214 0.453129 2.02389 0
M  V30 1068 C 103.639 -0.939105 1.6298 0
M  V30 1069 O 102.997 -1.61472 0.8244 0
M  V30 1070 C 103.045 0.586094 3.55805 0
M  V30 1071 O 102.149 -0.386029 4.10589 0
M  V30 1072 H 101.49 0.183664 0.638094 0
M  V30 1073 H 104.02 1.13875 1.69981 0
M  V30 1074 H 104.03 0.469209 4.05293 0
M  V30 1075 H 102.705 1.6014 3.83833 0
M  V30 1076 H 101.282 -0.226371 3.72212 0
M  V30 1077 N 103.467 -1.45747 0.599634 0
M  V30 1078 C 104.377 -2.34262 -0.125888 0
M  V30 1079 C 105.393 -1.50768 -0.868625 0
M  V30 1080 O 106.569 -1.83592 -0.828003 0
M  V30 1081 C 103.634 -3.28252 -1.11587 0
M  V30 1082 C 102.695 -4.27651 -0.375956 0
M  V30 1083 C 101.928 -5.1715 -1.31877 0
M  V30 1084 O 102.151 -5.09916 -2.55621 0
M  V30 1085 O 101.085 -5.96286 -0.820157 0
M  V30 1086 H 104.911 -2.97688 0.601315 0
M  V30 1087 H 102.496 -1.44999 0.359934 0
M  V30 1088 H 104.378 -3.86191 -1.68626 0
M  V30 1089 H 103.053 -2.67401 -1.82424 0
M  V30 1090 H 101.96 -3.7335 0.236698 0
M  V30 1091 H 103.293 -4.91334 0.29177 0
M  V30 1092 N 104.945 -0.338344 -1.53925 0
M  V30 1093 C 106.193 0.259245 -2.0043 0
M  V30 1094 C 106.514 1.51484 -1.22791 0
M  V30 1095 O 105.784 1.93037 -0.33368 0
M  V30 1096 H 104.364 0.0987845 -0.740439 0
M  V30 1097 H 107.026 -0.458302 -1.89435 0
M  V30 1098 H 106.122 0.505334 -3.07982 0
M  V30 1099 N 106.423 1.57458 -0.0668435 0
M  V30 1100 C 107.648 1.9804 0.616027 0
M  V30 1101 C 108.073 0.944771 1.62652 0
M  V30 1102 O 107.431 -0.0902094 1.81075 0
M  V30 1103 C 107.479 3.37665 1.26549 0
M  V30 1104 O 106.583 3.36701 2.38131 0
M  V30 1105 H 105.924 0.644719 0.158849 0
M  V30 1106 H 108.454 2.04121 -0.139891 0
M  V30 1107 H 108.464 3.7474 1.6135 0
M  V30 1108 H 107.139 4.12573 0.525016 0
M  V30 1109 H 105.716 3.1139 2.0516 0
M  V30 1110 N 107.901 -0.206675 1.56239 0
M  V30 1111 C 108.849 -1.27571 1.94495 0
M  V30 1112 C 109.843 -1.47737 0.828862 0
M  V30 1113 O 111.049 -1.48735 1.0138 0
M  V30 1114 H 107.424 -0.428029 0.6183 0
M  V30 1115 H 109.395 -0.925961 2.8367 0
M  V30 1116 C 108.144 -2.61568 2.29079 0
M  V30 1117 H 107.467 -2.46863 3.14482 0
M  V30 1118 H 108.907 -3.35144 2.5972 0
M  V30 1119 C 107.366 -3.17695 1.12123 0
M  V30 1120 O 107.896 -3.99801 0.390153 0
M  V30 1121 N 106.102 -2.76276 0.901097 0
M  V30 1122 H 105.649 -2.09613 1.49733 0
M  V30 1123 H 105.607 -3.1417 0.120319 0
M  V30 1124 N 109.379 -1.50304 -0.473955 0
M  V30 1125 C 110.604 -1.65175 -1.25427 0
M  V30 1126 C 111.029 -0.333673 -1.85117 0
M  V30 1127 O 110.387 0.702114 -1.67153 0
M  V30 1128 C 110.435 -2.74295 -2.34082 0
M  V30 1129 O 109.539 -2.35349 -3.38651 0
M  V30 1130 H 108.88 -0.551944 -0.369126 0
M  V30 1131 H 111.41 -1.96662 -0.564364 0
M  V30 1132 H 111.42 -2.97285 -2.79438 0
M  V30 1133 H 110.095 -3.69959 -1.90008 0
M  V30 1134 H 108.672 -2.22794 -2.99027 0
M  V30 1135 N 110.857 0.726932 -1.39834 0
M  V30 1136 C 112.134 1.47902 -1.28001 0
M  V30 1137 C 112.514 2.1083 0.106789 0
M  V30 1138 O 111.862 1.99242 1.11869 0
M  V30 1139 C 112.072 2.52392 -2.41038 0
M  V30 1140 C 113.42 3.18546 -2.80737 0
M  V30 1141 O 114.444 2.62708 -2.40547 0
M  V30 1142 O 113.303 4.19604 -3.50135 0
M  V30 1143 H 110.397 0.657163 -0.502062 0
M  V30 1144 H 112.943 0.760071 -1.51727 0
M  V30 1145 H 111.715 2.04329 -3.33715 0
M  V30 1146 H 111.338 3.31837 -2.19021 0
M  V30 1147 N 112.336 1.25143 0.95797 0
M  V30 1148 C 113.269 0.995565 2.05338 0
M  V30 1149 C 114.247 -0.0740423 1.62431 0
M  V30 1150 O 115.431 0.0649212 1.88388 0
M  V30 1151 C 112.558 0.504298 3.34925 0
M  V30 1152 C 111.604 1.56393 3.96792 0
M  V30 1153 S 112.437 3.14815 4.33188 0
M  V30 1154 C 113.593 2.67415 5.65898 0
M  V30 1155 H 113.826 1.92309 2.26726 0
M  V30 1156 H 111.359 1.08635 1.09716 0
M  V30 1157 H 113.317 0.227497 4.09869 0
M  V30 1158 H 111.978 -0.402671 3.11508 0
M  V30 1159 H 111.171 1.17082 4.90212 0
M  V30 1160 H 110.773 1.79124 3.28315 0
M  V30 1161 H 113.065 2.10833 6.4386 0
M  V30 1162 H 114.008 3.59463 6.10076 0
M  V30 1163 H 114.416 2.07521 5.24972 0
M  V30 1164 N 113.814 -1.1601 1.06675 0
M  V30 1165 C 115.044 -1.90251 0.805497 0
M  V30 1166 C 115.452 -1.77891 -0.64431 0
M  V30 1167 O 114.795 -1.12383 -1.45313 0
M  V30 1168 C 114.857 -3.41419 1.12576 0
M  V30 1169 C 114.521 -3.77564 2.57477 0
M  V30 1170 C 115.518 -3.79161 3.55715 0
M  V30 1171 C 113.203 -4.08079 2.92877 0
M  V30 1172 C 115.197 -4.10767 4.8739 0
M  V30 1173 C 112.884 -4.39351 4.24751 0
M  V30 1174 C 113.882 -4.40675 5.21818 0
M  V30 1175 O 113.57 -4.71202 6.51325 0
M  V30 1176 H 113.302 -0.610018 0.291297 0
M  V30 1177 H 115.856 -1.47958 1.4247 0
M  V30 1178 H 114.086 -3.84079 0.449503 0
M  V30 1179 H 115.775 -3.9694 0.84814 0
M  V30 1180 H 116.541 -3.55693 3.29708 0
M  V30 1181 H 112.42 -4.06211 2.17976 0
M  V30 1182 H 115.964 -4.11715 5.63148 0
M  V30 1183 H 111.861 -4.62285 4.50514 0
M  V30 1184 H 112.629 -4.88996 6.56373 0
M  V30 1185 N 115.292 -0.849877 -1.32721 0
M  V30 1186 C 116.222 -0.306308 -2.31482 0
M  V30 1187 C 117.203 0.591952 -1.59468 0
M  V30 1188 O 118.388 0.513199 -1.87296 0
M  V30 1189 C 115.518 0.510204 -3.43532 0
M  V30 1190 C 114.472 -0.293209 -4.26994 0
M  V30 1191 C 113.798 0.647743 -5.30762 0
M  V30 1192 C 115.098 -1.51634 -4.99804 0
M  V30 1193 H 116.792 -1.13153 -2.77195 0
M  V30 1194 H 114.338 -0.545553 -1.33266 0
M  V30 1195 H 116.291 0.900856 -4.11658 0
M  V30 1196 H 115.015 1.36874 -2.96535 0
M  V30 1197 H 113.674 -0.665555 -3.60508 0
M  V30 1198 H 113.322 1.50299 -4.8002 0
M  V30 1199 H 113.022 0.11422 -5.87489 0
M  V30 1200 H 114.546 1.03567 -6.01753 0
M  V30 1201 H 115.96 -1.19824 -5.60638 0
M  V30 1202 H 114.357 -1.98745 -5.66234 0
M  V30 1203 H 115.427 -2.28018 -4.27943 0
M  V30 1204 N 116.77 1.45427 -0.607355 0
M  V30 1205 C 118.016 2.0254 -0.102607 0
M  V30 1206 C 118.349 1.47478 1.26348 0
M  V30 1207 O 117.624 0.64939 1.83339 0
M  V30 1208 C 117.907 3.60044 -0.0634347 0
M  V30 1209 C 117.76 4.2544 -1.46017 0
M  V30 1210 C 119.079 4.35646 0.624514 0
M  V30 1211 H 116.198 0.73598 -0.0387607 0
M  V30 1212 H 118.84 1.73284 -0.779282 0
M  V30 1213 H 116.99 3.85101 0.512808 0
M  V30 1214 H 118.662 4.11569 -2.08347 0
M  V30 1215 H 116.905 3.83849 -2.02094 0
M  V30 1216 H 117.576 5.34342 -1.385 0
M  V30 1217 H 120.052 4.15882 0.134723 0
M  V30 1218 H 118.928 5.45376 0.621028 0
M  V30 1219 H 119.189 4.08501 1.69055 0
M  V30 1220 N 118.248 0.346503 1.53744 0
M  V30 1221 C 119.659 -0.136779 1.86198 0
M  V30 1222 C 120.01 -1.49749 1.26766 0
M  V30 1223 O 119.135 -2.08417 0.582355 0
M  V30 1224 C 119.73 -0.254966 3.37839 0
M  V30 1225 C 118.289 -0.682482 3.70161 0
M  V30 1226 C 117.436 0.181981 2.76702 0
M  V30 1227 H 120.387 0.565994 1.48264 0
M  V30 1228 H 120.408 -1.08195 3.64793 0
M  V30 1229 H 119.92 0.735526 3.81066 0
M  V30 1230 H 118.021 -1.68189 3.3248 0
M  V30 1231 H 118.134 -0.470326 4.76786 0
M  V30 1232 H 116.498 -0.34615 2.52337 0
M  V30 1233 H 117.281 1.16966 3.2276 0
M  V30 1234 N 119.726 -1.57421 0.075193 0
M  V30 1235 C 120.689 -2.11791 -0.876203 0
M  V30 1236 C 121.689 -1.04268 -1.22412 0
M  V30 1237 O 122.879 -1.30242 -1.15684 0
M  V30 1238 C 120.011 -2.62207 -2.17854 0
M  V30 1239 H 121.204 -2.9716 -0.40444 0
M  V30 1240 H 118.757 -1.55333 -0.173557 0
M  V30 1241 H 119.492 -1.803 -2.6956 0
M  V30 1242 H 119.277 -3.40802 -1.93897 0
M  V30 1243 H 120.767 -3.04335 -2.85955 0
M  V30 1244 N 121.204 0.198386 -1.56346 0
M  V30 1245 C 122.167 1.22952 -1.93431 0
M  V30 1246 C 123.167 1.38611 -0.815092 0
M  V30 1247 O 124.357 1.36479 -1.08255 0
M  V30 1248 C 121.489 2.59946 -2.20546 0
M  V30 1249 H 122.682 0.912626 -2.85677 0
M  V30 1250 H 120.235 0.43977 -1.49986 0
M  V30 1251 H 120.97 2.96696 -1.30927 0
M  V30 1252 H 120.755 2.49953 -3.02102 0
M  V30 1253 H 122.245 3.3431 -2.50253 0
M  V30 1254 N 122.682 1.50554 0.465978 0
M  V30 1255 C 123.615 1.64436 1.58227 0
M  V30 1256 C 124.593 0.492367 1.54966 0
M  V30 1257 O 125.777 0.712536 1.74514 0
M  V30 1258 C 122.904 1.63165 2.96808 0
M  V30 1259 C 121.95 2.83987 3.18204 0
M  V30 1260 S 122.783 4.45219 2.97557 0
M  V30 1261 C 123.939 4.46649 4.3847 0
M  V30 1262 H 124.172 2.58861 1.46213 0
M  V30 1263 H 121.705 1.3988 0.653678 0
M  V30 1264 H 123.663 1.63116 3.76701 0
M  V30 1265 H 122.324 0.69967 3.06208 0
M  V30 1266 H 121.517 2.79416 4.19455 0
M  V30 1267 H 121.119 2.81629 2.46092 0
M  V30 1268 H 123.411 4.20526 5.31191 0
M  V30 1269 H 124.354 5.48295 4.48082 0
M  V30 1270 H 124.762 3.76296 4.20787 0
M  V30 1271 N 124.16 -0.719506 1.40217 0
M  V30 1272 C 125.407 -1.47933 1.38283 0
M  V30 1273 C 125.735 -1.94493 -0.0161536 0
M  V30 1274 O 124.99 -1.68224 -0.999956 0
M  V30 1275 C 125.289 -2.72271 2.31524 0
M  V30 1276 C 124.955 -2.44496 3.78857 0
M  V30 1277 C 123.617 -2.36631 4.18998 0
M  V30 1278 C 125.969 -2.21104 4.71977 0
M  V30 1279 C 123.297 -2.03437 5.503 0
M  V30 1280 C 125.649 -1.89423 6.03574 0
M  V30 1281 C 124.313 -1.80038 6.42762 0
M  V30 1282 H 123.583 -0.541325 0.506012 0
M  V30 1283 H 126.23 -0.824502 1.72842 0
M  V30 1284 H 124.535 -3.42572 1.90137 0
M  V30 1285 H 126.232 -3.30348 2.27313 0
M  V30 1286 H 122.822 -2.51503 3.47051 0
M  V30 1287 H 127.006 -2.26139 4.41786 0
M  V30 1288 H 122.262 -1.94705 5.79569 0
M  V30 1289 H 126.436 -1.70336 6.75247 0
M  V30 1290 H 124.063 -1.54083 7.44421 0
M  V30 1291 N 125.638 -1.25649 -0.95132 0
M  V30 1292 C 127.054 -1.02542 -1.223 0
M  V30 1293 C 127.254 0.255715 -1.99871 0
M  V30 1294 O 126.31 0.967558 -2.33226 0
M  V30 1295 C 127.623 -2.25065 -1.99415 0
M  V30 1296 C 129.171 -2.29861 -2.12446 0
M  V30 1297 C 129.646 -3.52048 -2.92961 0
M  V30 1298 N 131.137 -3.52465 -3.00538 0
M  V30 1299 C 131.872 -4.43672 -3.63239 0
M  V30 1300 N 131.368 -5.45157 -4.27523 0
M  V30 1301 N 133.161 -4.31346 -3.60412 0
M  V30 1302 H 125.312 -2.07951 -0.432471 0
M  V30 1303 H 127.575 -0.91339 -0.253816 0
M  V30 1304 H 127.281 -3.18194 -1.49817 0
M  V30 1305 H 127.155 -2.28502 -3.00111 0
M  V30 1306 H 129.542 -1.37252 -2.61239 0
M  V30 1307 H 129.623 -2.3044 -1.11044 0
M  V30 1308 H 129.267 -4.44981 -2.44856 0
M  V30 1309 H 129.197 -3.48715 -3.94596 0
M  V30 1310 H 131.688 -2.79056 -2.54826 0
M  V30 1311 H 132.001 -6.10958 -4.73234 0
M  V30 1312 H 130.346 -5.49025 -4.26141 0
M  V30 1313 H 133.537 -3.51288 -3.09377 0
M  V30 1314 H 133.71 -5.02624 -4.0899 0
M  V30 1315 N 127.117 1.15442 -1.07289 0
M  V30 1316 C 128.394 1.82306 -0.708792 0
M  V30 1317 C 128.774 1.94991 0.808807 0
M  V30 1318 O 128.122 1.50085 1.72298 0
M  V30 1319 C 128.332 3.18695 -1.42247 0
M  V30 1320 C 129.68 3.94341 -1.57417 0
M  V30 1321 O 130.704 3.28247 -1.38319 0
M  V30 1322 O 129.563 5.12839 -1.88834 0
M  V30 1323 H 126.657 0.787628 -0.252132 0
M  V30 1324 H 129.203 1.22559 -1.17377 0
M  V30 1325 H 127.975 3.04557 -2.45684 0
M  V30 1326 H 127.598 3.86128 -0.948223 0
M  V30 1327 N 128.595 0.856903 1.32268 0
M  V30 1328 C 130.006 0.515711 1.79436 0
M  V30 1329 C 130.357 -0.966586 1.70738 0
M  V30 1330 O 129.482 -1.75409 1.26731 0
M  V30 1331 C 130.077 0.929335 3.25805 0
M  V30 1332 C 128.636 0.640006 3.70919 0
M  V30 1333 C 127.783 1.12784 2.53328 0
M  V30 1334 H 130.734 1.04389 1.19535 0
M  V30 1335 H 130.755 0.246633 3.797 0
M  V30 1336 H 130.267 2.00821 3.32103 0
M  V30 1337 H 128.368 -0.428051 3.70133 0
M  V30 1338 H 128.481 1.20788 4.63624 0
M  V30 1339 H 126.845 0.548033 2.48734 0
M  V30 1340 H 127.628 2.21387 2.62379 0
M  V30 1341 N 130.073 -1.45103 0.615059 0
M  V30 1342 C 131.32 -2.02183 0.113179 0
M  V30 1343 C 131.648 -1.48249 -1.25906 0
M  V30 1344 O 130.903 -0.650265 -1.84581 0
M  V30 1345 C 131.202 -3.57386 0.0318797 0
M  V30 1346 C 130.868 -4.30505 1.34077 0
M  V30 1347 C 129.53 -4.50197 1.69929 0
M  V30 1348 C 131.882 -4.72238 2.20546 0
M  V30 1349 C 129.21 -5.08881 2.91988 0
M  V30 1350 C 131.562 -5.32272 3.41861 0
M  V30 1351 C 130.226 -5.50187 3.77956 0
M  V30 1352 H 129.496 -0.739842 0.0414151 0
M  V30 1353 H 132.143 -1.74073 0.798168 0
M  V30 1354 H 130.448 -3.84817 -0.736409 0
M  V30 1355 H 132.145 -3.99264 -0.372712 0
M  V30 1356 H 128.735 -4.15496 1.05173 0
M  V30 1357 H 132.919 -4.56751 1.94146 0
M  V30 1358 H 128.175 -5.20939 3.2005 0
M  V30 1359 H 132.349 -5.63563 4.09109 0
M  V30 1360 H 129.976 -5.95427 4.72622 0
M  V30 1361 N 131.551 -0.354651 -1.53558 0
M  V30 1362 C 132.967 -0.00315426 -1.596 0
M  V30 1363 C 133.167 1.47741 -1.37021 0
M  V30 1364 O 132.223 2.23759 -1.16996 0
M  V30 1365 C 133.536 -0.44929 -2.97325 0
M  V30 1366 C 135.084 -0.402578 -3.104 0
M  V30 1367 C 135.559 -0.824355 -4.5052 0
M  V30 1368 N 137.05 -0.778979 -4.56603 0
M  V30 1369 C 137.785 -1.07715 -5.63192 0
M  V30 1370 N 137.281 -1.44405 -6.77583 0
M  V30 1371 N 139.074 -1.00066 -5.53121 0
M  V30 1372 H 131.225 -1.31893 -1.66487 0
M  V30 1373 H 133.488 -0.538388 -0.780284 0
M  V30 1374 H 133.194 -1.48202 -3.1895 0
M  V30 1375 H 133.068 0.169772 -3.76818 0
M  V30 1376 H 135.455 0.621004 -2.88492 0
M  V30 1377 H 135.536 -1.05699 -2.32941 0
M  V30 1378 H 135.18 -1.846 -4.73165 0
M  V30 1379 H 135.11 -0.147304 -5.26394 0
M  V30 1380 H 137.601 -0.508528 -3.74463 0
M  V30 1381 H 137.914 -1.65612 -7.54846 0
M  V30 1382 H 136.259 -1.4826 -6.79002 0
M  V30 1383 H 139.45 -0.713293 -4.62633 0
M  V30 1384 H 139.623 -1.23638 -6.36096 0
M  V30 1385 N 133.029 1.57378 -0.0835403 0
M  V30 1386 C 133.976 2.13384 0.879539 0
M  V30 1387 C 134.946 1.04936 1.28754 0
M  V30 1388 O 136.131 1.32662 1.37133 0
M  V30 1389 C 133.271 2.70932 2.13752 0
M  V30 1390 C 132.384 3.93575 1.7811 0
M  V30 1391 C 131.519 4.39326 2.98607 0
M  V30 1392 C 130.558 5.54587 2.59037 0
M  V30 1393 N 129.695 5.95243 3.72331 0
M  V30 1394 H 134.535 2.9537 0.395076 0
M  V30 1395 H 132.072 1.45953 0.183349 0
M  V30 1396 H 134.03 3.02411 2.87408 0
M  V30 1397 H 132.66 1.91693 2.59718 0
M  V30 1398 H 131.712 3.68483 0.94469 0
M  V30 1399 H 133.024 4.77258 1.45005 0
M  V30 1400 H 132.178 4.72528 3.80529 0
M  V30 1401 H 130.917 3.5452 3.34913 0
M  V30 1402 H 129.922 5.21024 1.75539 0
M  V30 1403 H 131.147 6.41133 2.23887 0
M  V30 1404 H 129.093 5.13385 4.08378 0
M  V30 1405 H 129.01 6.73694 3.43034 0
M  V30 1406 H 130.278 6.33072 4.54797 0
M  V30 1407 N 134.507 -0.190092 1.56449 0
M  V30 1408 C 135.784 -0.935886 1.71757 0
M  V30 1409 C 136.164 -2.01173 0.639726 0
M  V30 1410 O 135.512 -2.25827 -0.348502 0
M  V30 1411 C 135.722 -1.51775 3.1427 0
M  V30 1412 C 137.07 -1.99794 3.74656 0
M  V30 1413 O 138.094 -1.61607 3.1743 0
M  V30 1414 O 136.953 -2.70079 4.751 0
M  V30 1415 H 134.047 -0.439229 0.700719 0
M  V30 1416 H 136.593 -0.179395 1.68749 0
M  V30 1417 H 135.365 -0.742505 3.84191 0
M  V30 1418 H 134.988 -2.33894 3.21527 0
M  V30 1419 N 135.985 -1.50799 -0.457987 0
M  V30 1420 C 137.396 -1.55152 -1.0385 0
M  V30 1421 C 137.747 -0.362719 -1.92818 0
M  V30 1422 O 136.872 0.522915 -2.09987 0
M  V30 1423 C 137.467 -2.81173 -1.89017 0
M  V30 1424 C 136.026 -2.88164 -2.42154 0
M  V30 1425 C 135.173 -2.49591 -1.20829 0
M  V30 1426 H 138.124 -1.56874 -0.240068 0
M  V30 1427 H 138.145 -2.63769 -2.74238 0
M  V30 1428 H 137.657 -3.67677 -1.24238 0
M  V30 1429 H 135.758 -2.06042 -3.10447 0
M  V30 1430 H 135.871 -3.91356 -2.76364 0
M  V30 1431 H 134.235 -2.02322 -1.54719 0
M  V30 1432 H 135.018 -3.38418 -0.576927 0
M  V30 1433 N 137.463 0.71206 -1.40597 0
M  V30 1434 C 138.411 1.84746 -1.41321 0
M  V30 1435 C 139.405 1.66842 -0.293268 0
M  V30 1436 O 140.611 1.73904 -0.464481 0
M  V30 1437 H 136.986 0.608522 -0.441819 0
M  V30 1438 H 138.957 1.81252 -2.37045 0
M  V30 1439 C 137.706 3.22638 -1.29614 0
M  V30 1440 H 137.029 3.37023 -2.15071 0
M  V30 1441 H 138.469 4.02209 -1.3418 0
M  V30 1442 C 136.928 3.36899 -0.00673121 0
M  V30 1443 O 137.458 3.90186 0.954859 0
M  V30 1444 N 135.664 2.9053 0.0639327 0
M  V30 1445 H 135.211 2.47353 -0.719311 0
M  V30 1446 H 135.169 3.0045 0.926118 0
M  V30 1447 N 138.941 1.26152 0.944643 0
M  V30 1448 C 139.888 1.07408 2.04285 0
M  V30 1449 C 140.858 -0.0198413 1.66088 0
M  V30 1450 O 142.043 0.139264 1.90291 0
M  V30 1451 C 139.183 0.70945 3.37729 0
M  V30 1452 C 138.296 1.87926 3.88983 0
M  V30 1453 C 137.431 1.45807 5.10797 0
M  V30 1454 C 136.47 2.5964 5.54305 0
M  V30 1455 N 135.607 2.18226 6.67324 0
M  V30 1456 H 140.447 2.01389 2.1965 0
M  V30 1457 H 137.984 1.00275 1.07626 0
M  V30 1458 H 139.942 0.478948 4.14442 0
M  V30 1459 H 138.572 -0.193389 3.2222 0
M  V30 1460 H 137.624 2.22279 3.08701 0
M  V30 1461 H 138.936 2.73377 4.17213 0
M  V30 1462 H 138.09 1.18781 5.94959 0
M  V30 1463 H 136.829 0.574414 4.84305 0
M  V30 1464 H 135.834 2.87399 4.68702 0
M  V30 1465 H 137.059 3.48599 5.828 0
M  V30 1466 H 135.005 1.3229 6.42523 0
M  V30 1467 H 134.922 2.97221 6.95123 0
M  V30 1468 H 136.19 1.94403 7.54869 0
M  V30 1469 N 140.419 -1.14872 1.07899 0
M  V30 1470 C 141.349 -2.2193 0.725887 0
M  V30 1471 C 142.33 -1.67622 -0.28927 0
M  V30 1472 O 143.515 -1.93533 -0.160787 0
M  V30 1473 C 140.645 -3.47061 0.128856 0
M  V30 1474 C 139.599 -4.14363 1.07178 0
M  V30 1475 C 138.925 -5.33636 0.337229 0
M  V30 1476 C 140.225 -4.63492 2.40775 0
M  V30 1477 H 141.919 -2.51724 1.62097 0
M  V30 1478 H 139.465 -1.20991 0.780838 0
M  V30 1479 H 141.418 -4.21199 -0.130147 0
M  V30 1480 H 140.142 -3.16617 -0.80134 0
M  V30 1481 H 138.801 -3.42173 1.3158 0
M  V30 1482 H 138.449 -4.99449 -0.596606 0
M  V30 1483 H 138.149 -5.79609 0.965788 0
M  V30 1484 H 139.673 -6.10539 0.0861567 0
M  V30 1485 H 141.087 -5.2913 2.20669 0
M  V30 1486 H 139.484 -5.20148 2.99276 0
M  V30 1487 H 140.554 -3.78834 3.02676 0
M  V30 1488 N 141.898 -0.863906 -1.31812 0
M  V30 1489 C 143.144 -0.472535 -1.97218 0
M  V30 1490 C 143.477 0.971394 -1.68159 0
M  V30 1491 O 142.752 1.68309 -0.974798 0
M  V30 1492 C 143.035 -0.723054 -3.52766 0
M  V30 1493 C 142.888 -2.21608 -3.91421 0
M  V30 1494 C 144.207 -0.185522 -4.39709 0
M  V30 1495 H 141.326 -0.173158 -0.71637 0
M  V30 1496 H 143.968 -1.08403 -1.56041 0
M  V30 1497 H 142.118 -0.202577 -3.87971 0
M  V30 1498 H 143.79 -2.80334 -3.66347 0
M  V30 1499 H 142.033 -2.691 -3.40246 0
M  V30 1500 H 142.704 -2.34203 -4.99853 0
M  V30 1501 H 145.18 -0.630726 -4.11292 0
M  V30 1502 H 144.056 -0.390306 -5.47511 0
M  V30 1503 H 144.317 0.912229 -4.32586 0
M  V30 1504 N 143.376 1.44774 -0.622745 0
M  V30 1505 C 144.306 2.33382 0.0741861 0
M  V30 1506 C 145.287 1.47719 0.843387 0
M  V30 1507 O 146.472 1.76458 0.810934 0
M  V30 1508 C 143.602 3.30663 1.06204 0
M  V30 1509 C 142.556 4.26079 0.405037 0
M  V30 1510 C 141.882 5.13165 1.5022 0
M  V30 1511 C 143.182 5.1781 -0.683414 0
M  V30 1512 H 144.876 2.91905 -0.665713 0
M  V30 1513 H 142.422 1.40363 -0.321587 0
M  V30 1514 H 144.375 3.9153 1.55827 0
M  V30 1515 H 143.099 2.70331 1.83272 0
M  V30 1516 H 141.758 3.66532 -0.0704683 0
M  V30 1517 H 141.406 4.49191 2.26355 0
M  V30 1518 H 141.106 5.77812 1.06803 0
M  V30 1519 H 142.63 5.76902 2.00041 0
M  V30 1520 H 144.044 5.72661 -0.270631 0
M  V30 1521 H 142.441 5.91015 -1.04023 0
M  V30 1522 H 143.511 4.59326 -1.55395 0
M  V30 1523 N 144.854 0.36279 1.53368 0
M  V30 1524 C 146.094 -0.227882 2.03126 0
M  V30 1525 C 146.458 -1.4622 1.24434 0
M  V30 1526 O 147.659 -2.12831 1.64184 0
M  V30 1527 C 145.93 -0.515427 3.53664 0
M  V30 1528 S 147.489 -1.08017 4.25297 0
M  V30 1529 H 144.307 -0.0665377 0.70788 0
M  V30 1530 H 146.909 0.50501 1.88865 0
M  V30 1531 H 145.613 0.390436 4.08539 0
M  V30 1532 H 145.144 -1.27747 3.72081 0
M  V30 1533 H 147.159 -2.36462 4.36234 0
M  V30 1534 N 146.332 -1.57332 0.0918853 0
M  V30 1535 C 147.242 -2.17368 -0.882505 0
M  V30 1536 C 148.258 -1.14226 -1.31257 0
M  V30 1537 O 149.434 -1.46582 -1.38115 0
M  V30 1538 C 146.499 -2.73962 -2.12476 0
M  V30 1539 C 145.56 -3.92048 -1.7492 0
M  V30 1540 C 144.793 -4.45933 -2.93223 0
M  V30 1541 O 145.016 -3.98764 -4.07852 0
M  V30 1542 O 143.95 -5.36999 -2.71875 0
M  V30 1543 H 147.776 -3.01031 -0.40172 0
M  V30 1544 H 145.361 -1.48813 -0.132291 0
M  V30 1545 H 147.243 -3.10147 -2.85283 0
M  V30 1546 H 145.918 -1.93347 -2.59613 0
M  V30 1547 H 144.825 -3.6068 -0.993025 0
M  V30 1548 H 146.158 -4.74017 -1.32548 0
M  V30 1549 N 147.81 0.181792 -1.56548 0
M  V30 1550 C 149.056 0.901431 -1.81665 0
M  V30 1551 C 149.389 1.82347 -0.668075 0
M  V30 1552 O 148.664 1.91669 0.330615 0
M  V30 1553 C 148.947 1.70618 -3.17115 0
M  V30 1554 C 148.8 0.807964 -4.42484 0
M  V30 1555 C 150.119 2.67605 -3.49393 0
M  V30 1556 H 147.238 0.32627 -0.660846 0
M  V30 1557 H 149.88 0.168134 -1.89255 0
M  V30 1558 H 148.03 2.33133 -3.10775 0
M  V30 1559 H 149.702 0.19649 -4.60881 0
M  V30 1560 H 147.945 0.115411 -4.33646 0
M  V30 1561 H 148.616 1.40632 -5.33785 0
M  V30 1562 H 151.092 2.15218 -3.56118 0
M  V30 1563 H 149.968 3.20985 -4.45264 0
M  V30 1564 H 150.229 3.47298 -2.73563 0
M  V30 1565 N 149.288 1.51039 0.449983 0
M  V30 1566 C 150.535 1.63081 1.20045 0
M  V30 1567 C 150.863 0.341024 1.91487 0
M  V30 1568 O 150.118 -0.674276 1.83717 0
M  V30 1569 C 150.417 2.77556 2.25161 0
M  V30 1570 C 150.083 4.17289 1.70823 0
M  V30 1571 C 148.745 4.55305 1.55725 0
M  V30 1572 C 151.097 5.04536 1.3074 0
M  V30 1573 C 148.425 5.78287 0.989999 0
M  V30 1574 C 150.777 6.28085 0.754482 0
M  V30 1575 C 149.441 6.64885 0.590308 0
M  V30 1576 H 148.711 0.596755 0.439277 0
M  V30 1577 H 151.358 1.85037 0.49333 0
M  V30 1578 H 149.663 2.49771 3.01863 0
M  V30 1579 H 151.36 2.84073 2.83026 0
M  V30 1580 H 147.95 3.8731 1.83546 0
M  V30 1581 H 152.134 4.75782 1.41229 0
M  V30 1582 H 147.39 6.05456 0.850451 0
M  V30 1583 H 151.564 6.95038 0.435324 0
M  V30 1584 H 149.191 7.60055 0.14862 0
M  V30 1585 N 150.766 -0.704594 1.40972 0
M  V30 1586 C 151.713 -1.81862 1.42109 0
M  V30 1587 C 152.683 -1.63781 0.276593 0
M  V30 1588 O 153.868 -1.84759 0.4763 0
M  V30 1589 C 151.008 -3.19669 1.30022 0
M  V30 1590 C 150.121 -3.49246 2.54267 0
M  V30 1591 C 149.256 -4.76618 2.3454 0
M  V30 1592 C 148.295 -4.99133 3.54306 0
M  V30 1593 N 147.432 -6.17726 3.33706 0
M  V30 1594 H 152.272 -1.80226 2.37324 0
M  V30 1595 H 149.809 -0.880238 1.17857 0
M  V30 1596 H 151.767 -3.99263 1.21018 0
M  V30 1597 H 150.397 -3.20506 0.384192 0
M  V30 1598 H 149.449 -2.64125 2.73756 0
M  V30 1599 H 150.761 -3.61788 3.43381 0
M  V30 1600 H 149.915 -5.64249 2.22952 0
M  V30 1601 H 148.654 -4.66305 1.42867 0
M  V30 1602 H 147.659 -4.09953 3.66359 0
M  V30 1603 H 148.884 -5.11311 4.4692 0
M  V30 1604 H 146.83 -6.08642 2.44725 0
M  V30 1605 H 146.747 -6.30995 4.16391 0
M  V30 1606 H 148.015 -7.08115 3.25873 0
M  V30 1607 N 152.244 -1.26651 -0.937939 0
M  V30 1608 C 153.474 -1.15006 -1.71631 0
M  V30 1609 C 153.882 0.297026 -1.86854 0
M  V30 1610 O 153.225 1.21493 -1.37786 0
M  V30 1611 C 153.287 -1.74984 -3.14039 0
M  V30 1612 C 152.951 -3.24103 -3.2219 0
M  V30 1613 C 153.948 -4.20877 -3.05219 0
M  V30 1614 C 151.633 -3.64625 -3.45476 0
M  V30 1615 C 153.627 -5.56151 -3.11408 0
M  V30 1616 C 151.314 -5.00032 -3.513 0
M  V30 1617 C 152.312 -5.95604 -3.34282 0
M  V30 1618 O 152 -7.28545 -3.3982 0
M  V30 1619 H 151.732 -0.401183 -0.544085 0
M  V30 1620 H 154.286 -1.67832 -1.18413 0
M  V30 1621 H 152.516 -1.16624 -3.68695 0
M  V30 1622 H 154.205 -1.58199 -3.73802 0
M  V30 1623 H 154.971 -3.90908 -2.87081 0
M  V30 1624 H 150.85 -2.90718 -3.57777 0
M  V30 1625 H 154.394 -6.30727 -2.98043 0
M  V30 1626 H 150.291 -5.29659 -3.68959 0
M  V30 1627 H 151.059 -7.3686 -3.56343 0
M  V30 1628 N 153.722 1.14298 -1.08507 0
M  V30 1629 C 154.67 2.21483 -0.710483 0
M  V30 1630 C 155.664 1.66998 0.284234 0
M  V30 1631 O 156.87 1.79401 0.146692 0
M  V30 1632 H 153.245 0.721578 -0.211729 0
M  V30 1633 H 155.216 2.50348 -1.62384 0
M  V30 1634 C 153.965 3.4743 -0.137007 0
M  V30 1635 H 153.288 3.89686 -0.893592 0
M  V30 1636 H 154.728 4.2391 0.0872789 0
M  V30 1637 C 153.187 3.17548 1.12538 0
M  V30 1638 O 153.717 3.35437 2.21009 0
M  V30 1639 N 151.923 2.71499 1.03617 0
M  V30 1640 H 151.47 2.57143 0.153403 0
M  V30 1641 H 151.428 2.51881 1.88158 0
M  V30 1642 N 155.201 0.870884 1.31352 0
M  V30 1643 C 156.617 0.562932 1.49343 0
M  V30 1644 C 156.817 -0.902725 1.80148 0
M  V30 1645 O 155.873 -1.68484 1.88067 0
M  V30 1646 C 157.186 1.46393 2.62659 0
M  V30 1647 C 158.734 1.46607 2.76542 0
M  V30 1648 C 159.209 2.35266 3.92955 0
M  V30 1649 N 160.7 2.33151 4.00243 0
M  V30 1650 C 161.435 2.98471 4.89594 0
M  V30 1651 N 160.931 3.72964 5.8384 0
M  V30 1652 N 162.724 2.87775 4.82848 0
M  V30 1653 H 154.875 1.81923 1.09626 0
M  V30 1654 H 157.138 0.777934 0.541777 0
M  V30 1655 H 156.844 2.50689 2.46674 0
M  V30 1656 H 156.718 1.16314 3.58819 0
M  V30 1657 H 159.105 0.43069 2.9194 0
M  V30 1658 H 159.186 1.8071 1.81046 0
M  V30 1659 H 158.83 3.38881 3.78315 0
M  V30 1660 H 158.76 1.98487 4.87761 0
M  V30 1661 H 161.251 1.79006 3.32814 0
M  V30 1662 H 161.564 4.19932 6.4875 0
M  V30 1663 H 159.909 3.77073 5.83816 0
M  V30 1664 H 163.1 2.29116 4.08195 0
M  V30 1665 H 163.273 3.38961 5.52277 0
M  V30 1666 N 156.679 -1.44442 0.630414 0
M  V30 1667 C 158.095 -1.56832 0.295973 0
M  V30 1668 C 158.295 -1.61806 -1.20088 0
M  V30 1669 O 157.351 -1.5607 -1.9849 0
M  V30 1670 C 158.664 -2.84031 0.987264 0
M  V30 1671 C 160.212 -2.97742 0.96534 0
M  V30 1672 C 160.687 -4.27743 1.63708 0
M  V30 1673 N 162.178 -4.34555 1.60364 0
M  V30 1674 C 162.913 -5.33862 2.09234 0
M  V30 1675 N 162.409 -6.39578 2.66292 0
M  V30 1676 N 164.202 -5.25366 1.99867 0
M  V30 1677 H 156.353 -1.39457 1.60205 0
M  V30 1678 H 158.616 -0.668237 0.672431 0
M  V30 1679 H 158.322 -2.86338 2.04215 0
M  V30 1680 H 158.196 -3.73534 0.524588 0
M  V30 1681 H 160.583 -2.94989 -0.0810639 0
M  V30 1682 H 160.664 -2.09589 1.4665 0
M  V30 1683 H 160.308 -4.31255 2.68293 0
M  V30 1684 H 160.238 -5.14752 1.11076 0
M  V30 1685 H 162.729 -3.58772 1.18705 0
M  V30 1686 H 163.042 -7.11637 3.01317 0
M  V30 1687 H 161.387 -6.40265 2.70343 0
M  V30 1688 H 164.578 -4.41688 1.55013 0
M  V30 1689 H 164.751 -6.02606 2.38265 0
M  V30 1690 N 158.157 -0.370918 -1.53173 0
M  V30 1691 C 159.568 0.107139 -1.86392 0
M  V30 1692 C 159.919 1.47714 -1.29132 0
M  V30 1693 O 159.044 2.07464 -0.615439 0
M  V30 1694 C 159.639 0.201187 -3.38202 0
M  V30 1695 C 158.198 0.623507 -3.712 0
M  V30 1696 C 157.345 -0.225978 -2.76378 0
M  V30 1697 H 160.296 -0.58951 -1.47345 0
M  V30 1698 H 160.317 1.02377 -3.66468 0
M  V30 1699 H 159.829 -0.796058 -3.79848 0
M  V30 1700 H 157.93 1.62879 -3.35114 0
M  V30 1701 H 158.043 0.394414 -4.77474 0
M  V30 1702 H 156.407 0.305962 -2.52856 0
M  V30 1703 H 157.19 -1.22086 -3.20858 0
M  V30 1704 N 159.635 1.57281 -0.100228 0
M  V30 1705 C 160.598 2.13158 0.842398 0
M  V30 1706 C 161.598 1.06202 1.20738 0
M  V30 1707 O 162.788 1.32066 1.13597 0
M  V30 1708 C 159.92 2.65639 2.13655 0
M  V30 1709 H 161.113 2.97766 0.357114 0
M  V30 1710 H 158.666 1.5559 0.148823 0
M  V30 1711 H 159.401 1.84566 2.66657 0
M  V30 1712 H 159.186 3.43844 1.88451 0
M  V30 1713 H 160.676 3.08846 2.81077 0
M  V30 1714 N 161.113 -0.173488 1.56642 0
M  V30 1715 C 162.023 -1.23482 1.99473 0
M  V30 1716 C 163.039 -1.48567 0.905752 0
M  V30 1717 O 164.215 -1.60758 1.21321 0
M  V30 1718 C 161.28 -2.55444 2.34413 0
M  V30 1719 C 160.341 -2.38241 3.57127 0
M  V30 1720 C 159.574 -3.63909 3.90392 0
M  V30 1721 O 159.797 -4.68996 3.24653 0
M  V30 1722 O 158.731 -3.58149 4.83749 0
M  V30 1723 H 162.557 -0.901279 2.90018 0
M  V30 1724 H 160.142 -0.380185 1.44482 0
M  V30 1725 H 162.024 -3.33292 2.57865 0
M  V30 1726 H 160.699 -2.88382 1.4703 0
M  V30 1727 H 159.606 -1.58431 3.38896 0
M  V30 1728 H 160.939 -2.10228 4.45045 0
M  V30 1729 N 162.591 -1.51276 -0.441967 0
M  V30 1730 C 163.819 -1.67516 -1.21434 0
M  V30 1731 C 164.234 -0.37055 -1.85128 0
M  V30 1732 O 163.591 0.650498 -1.70513 0
M  V30 1733 C 163.642 -2.78748 -2.30177 0
M  V30 1734 O 163.363 -4.04154 -1.69089 0
M  V30 1735 C 164.864 -3.06217 -3.20541 0
M  V30 1736 H 162.084 -0.562276 -0.366178 0
M  V30 1737 H 164.628 -1.97666 -0.524244 0
M  V30 1738 H 162.783 -2.5121 -2.94911 0
M  V30 1739 H 163.197 -4.65894 -2.40922 0
M  V30 1740 H 164.671 -3.8764 -3.92987 0
M  V30 1741 H 165.148 -2.18439 -3.81026 0
M  V30 1742 H 165.754 -3.35397 -2.61513 0
M  V30 1743 N 164.069 0.697108 -1.41344 0
M  V30 1744 C 165.017 1.83237 -1.43272 0
M  V30 1745 C 166.011 1.66522 -0.310947 0
M  V30 1746 O 167.217 1.73402 -0.482899 0
M  V30 1747 H 163.592 0.603802 -0.448249 0
M  V30 1748 H 165.563 1.78727 -2.38954 0
M  V30 1749 C 164.312 3.21245 -1.33029 0
M  V30 1750 H 163.635 3.34723 -2.18633 0
M  V30 1751 H 165.075 4.00763 -1.38439 0
M  V30 1752 C 163.534 3.36873 -0.0424635 0
M  V30 1753 O 164.064 3.91177 0.913421 0
M  V30 1754 N 162.27 2.90581 0.0331145 0
M  V30 1755 H 161.817 2.46577 -0.745506 0
M  V30 1756 H 161.775 3.01416 0.894199 0
M  V30 1757 N 165.547 1.27147 0.931209 0
M  V30 1758 C 166.477 1.12081 2.04842 0
M  V30 1759 C 167.458 0.0232364 1.70084 0
M  V30 1760 O 168.643 0.197085 1.93197 0
M  V30 1761 C 165.773 0.76354 3.38803 0
M  V30 1762 C 164.727 1.81396 3.87659 0
M  V30 1763 C 164.053 1.31075 5.18385 0
M  V30 1764 C 165.353 3.21739 4.11438 0
M  V30 1765 H 167.047 2.05537 2.17703 0
M  V30 1766 H 164.593 0.989603 1.04608 0
M  V30 1767 H 166.546 0.644982 4.16435 0
M  V30 1768 H 165.27 -0.206727 3.25945 0
M  V30 1769 H 163.929 1.92136 3.12217 0
M  V30 1770 H 163.577 0.330037 5.01916 0
M  V30 1771 H 163.277 2.013 5.52044 0
M  V30 1772 H 164.801 1.20506 5.98591 0
M  V30 1773 H 166.215 3.14019 4.79651 0
M  V30 1774 H 164.612 3.89644 4.56397 0
M  V30 1775 H 165.682 3.67054 3.16859 0
M  V30 1776 N 167.025 -1.13721 1.09112 0
M  V30 1777 C 168.441 -1.36914 0.820174 0
M  V30 1778 C 168.641 -1.93356 -0.567079 0
M  V30 1779 O 167.697 -2.15093 -1.32255 0
M  V30 1780 C 169.01 -2.3235 1.90877 0
M  V30 1781 C 170.558 -2.45973 1.93562 0
M  V30 1782 C 171.033 -3.44714 3.01556 0
M  V30 1783 N 172.524 -3.52263 3.00775 0
M  V30 1784 C 173.259 -4.28536 3.80978 0
M  V30 1785 N 172.755 -5.07991 4.71081 0
M  V30 1786 N 174.548 -4.23804 3.69251 0
M  V30 1787 H 166.699 -0.754348 1.98553 0
M  V30 1788 H 168.962 -0.3944 0.862063 0
M  V30 1789 H 168.668 -1.98027 2.90651 0
M  V30 1790 H 168.542 -3.32332 1.78424 0
M  V30 1791 H 170.929 -2.79584 0.944286 0
M  V30 1792 H 171.01 -1.45926 2.10093 0
M  V30 1793 H 170.654 -3.11835 4.00901 0
M  V30 1794 H 170.584 -4.44558 2.82269 0
M  V30 1795 H 173.075 -2.95567 2.35475 0
M  V30 1796 H 173.388 -5.63487 5.28869 0
M  V30 1797 H 171.733 -5.07235 4.75119 0
M  V30 1798 H 174.924 -3.60806 2.98222 0
M  V30 1799 H 175.097 -4.82995 4.31995 0
M  V30 1800 N 168.503 -0.877838 -1.30888 0
M  V30 1801 C 169.453 -0.310872 -2.25871 0
M  V30 1802 C 170.437 0.556596 -1.50966 0
M  V30 1803 O 171.629 0.402187 -1.7237 0
M  V30 1804 C 168.758 0.479821 -3.3993 0
M  V30 1805 C 167.844 -0.401333 -4.22197 0
M  V30 1806 N 168.235 -1.49848 -4.83093 0
M  V30 1807 C 166.533 -0.195167 -4.45573 0
M  V30 1808 C 167.234 -2.0425 -5.44662 0
M  V30 1809 N 166.21 -1.33843 -5.26865 0
M  V30 1810 H 170.012 -1.1493 -2.70496 0
M  V30 1811 H 167.526 -0.726458 -1.45246 0
M  V30 1812 H 169.523 0.902582 -4.07012 0
M  V30 1813 H 168.183 1.31577 -2.96846 0
M  V30 1814 H 169.194 -1.88137 -4.82519 0
M  V30 1815 H 165.871 0.604192 -4.13105 0
M  V30 1816 H 167.261 -2.96345 -6.03017 0
M  V30 1817 N 169.982 1.44106 -0.638065 0
M  V30 1818 C 171.21 2.06336 -0.152615 0
M  V30 1819 C 171.625 1.47731 1.17563 0
M  V30 1820 O 170.982 0.602806 1.72257 0
M  V30 1821 C 171.033 3.61479 -0.0391491 0
M  V30 1822 O 170.754 4.17903 -1.31487 0
M  V30 1823 C 172.255 4.40757 0.474176 0
M  V30 1824 H 169.475 0.665862 -0.0828776 0
M  V30 1825 H 172.019 1.84862 -0.87443 0
M  V30 1826 H 170.174 3.82191 0.633142 0
M  V30 1827 H 170.588 5.11416 -1.16421 0
M  V30 1828 H 172.062 5.49707 0.502562 0
M  V30 1829 H 172.539 4.12697 1.50258 0
M  V30 1830 H 173.145 4.24979 -0.165102 0
M  V30 1831 N 171.46 0.379036 1.52974 0
M  V30 1832 C 172.7 -0.206325 2.03356 0
M  V30 1833 C 173.064 -1.44892 1.25977 0
M  V30 1834 O 174.265 -2.11078 1.66432 0
M  V30 1835 C 172.536 -0.477887 3.54191 0
M  V30 1836 S 174.095 -1.035 4.26419 0
M  V30 1837 H 170.913 -0.0590259 0.708546 0
M  V30 1838 H 173.515 0.525013 1.88319 0
M  V30 1839 H 172.219 0.433745 4.08101 0
M  V30 1840 H 171.75 -1.23793 3.73415 0
M  V30 1841 H 173.765 -2.31821 4.38718 0
M  V30 1842 N 172.938 -1.57226 0.108567 0
M  V30 1843 C 173.885 -2.14756 -0.845481 0
M  V30 1844 C 174.855 -1.06971 -1.27068 0
M  V30 1845 O 176.04 -1.34827 -1.35005 0
M  V30 1846 C 173.18 -2.74298 -2.09415 0
M  V30 1847 C 172.293 -3.96358 -1.71826 0
M  V30 1848 C 171.428 -4.44021 -2.9158 0
M  V30 1849 C 170.467 -5.58637 -2.50181 0
M  V30 1850 N 169.604 -6.01091 -3.62814 0
M  V30 1851 H 174.444 -2.95961 -0.348035 0
M  V30 1852 H 171.981 -1.46226 -0.160106 0
M  V30 1853 H 173.939 -3.06945 -2.82561 0
M  V30 1854 H 172.569 -1.95801 -2.56636 0
M  V30 1855 H 171.621 -3.69939 -0.885947 0
M  V30 1856 H 172.933 -4.79504 -1.37394 0
M  V30 1857 H 172.087 -4.78522 -3.72963 0
M  V30 1858 H 170.826 -3.59803 -3.29231 0
M  V30 1859 H 169.831 -5.23751 -1.67228 0
M  V30 1860 H 171.056 -6.44613 -2.13659 0
M  V30 1861 H 169.002 -5.19817 -4.00158 0
M  V30 1862 H 168.919 -6.79066 -3.32273 0
M  V30 1863 H 170.187 -6.40227 -4.44668 0
M  V30 1864 N 174.416 0.165178 -1.56732 0
M  V30 1865 C 175.832 0.517174 -1.50988 0
M  V30 1866 C 176.032 1.84331 -0.813894 0
M  V30 1867 O 175.088 2.49672 -0.37682 0
M  V30 1868 C 176.401 0.544261 -2.95733 0
M  V30 1869 C 177.949 0.631039 -3.06573 0
M  V30 1870 C 178.424 0.68896 -4.52788 0
M  V30 1871 N 179.915 0.751683 -4.5706 0
M  V30 1872 C 180.65 0.817177 -5.67547 0
M  V30 1873 N 180.146 0.843129 -6.8765 0
M  V30 1874 N 181.939 0.856668 -5.55534 0
M  V30 1875 H 174.09 -0.704318 -2.00382 0
M  V30 1876 H 176.353 -0.254687 -0.913148 0
M  V30 1877 H 176.059 -0.361607 -3.49836 0
M  V30 1878 H 175.933 1.3886 -3.5071 0
M  V30 1879 H 178.32 1.52733 -2.52501 0
M  V30 1880 H 178.401 -0.240095 -2.54671 0
M  V30 1881 H 178.045 -0.2031 -5.07494 0
M  V30 1882 H 177.975 1.57633 -5.02454 0
M  V30 1883 H 180.466 0.739661 -3.70591 0
M  V30 1884 H 180.779 0.894448 -7.67606 0
M  V30 1885 H 179.124 0.811304 -6.90248 0
M  V30 1886 H 182.315 0.833437 -4.60621 0
M  V30 1887 H 182.488 0.904247 -6.4166 0
M  V30 1888 N 175.894 1.51508 0.433938 0
M  V30 1889 C 177.143 1.63578 1.18005 0
M  V30 1890 C 177.456 0.359514 1.92268 0
M  V30 1891 O 178.662 0.359632 2.69108 0
M  V30 1892 C 177.118 2.88901 2.14626 0
M  V30 1893 C 176.726 4.23544 1.45995 0
M  V30 1894 C 178.47 3.10328 2.89649 0
M  V30 1895 C 176.377 5.40014 2.4112 0
M  V30 1896 H 175.307 0.609277 0.444182 0
M  V30 1897 H 177.958 1.77978 0.446773 0
M  V30 1898 H 176.34 2.68142 2.91403 0
M  V30 1899 H 177.514 4.54696 0.747532 0
M  V30 1900 H 175.829 4.08021 0.831115 0
M  V30 1901 H 178.426 3.94518 3.60915 0
M  V30 1902 H 178.769 2.23544 3.51189 0
M  V30 1903 H 179.302 3.31443 2.19978 0
M  V30 1904 H 176.041 6.29068 1.84264 0
M  V30 1905 H 175.561 5.13233 3.10406 0
M  V30 1906 H 177.24 5.72099 3.02177 0
M  V30 1907 N 177.372 -0.689602 1.41712 0
M  V30 1908 C 178.305 -1.81403 1.3845 0
M  V30 1909 C 179.283 -1.60653 0.250874 0
M  V30 1910 O 180.467 -1.83323 0.43874 0
M  V30 1911 C 177.594 -3.18176 1.1611 0
M  V30 1912 C 176.64 -3.57705 2.3227 0
M  V30 1913 S 177.473 -3.61827 3.94767 0
M  V30 1914 C 178.629 -5.01318 3.74742 0
M  V30 1915 H 178.862 -1.83893 2.33603 0
M  V30 1916 H 176.395 -0.858878 1.28307 0
M  V30 1917 H 178.353 -3.97132 1.03907 0
M  V30 1918 H 177.014 -3.13288 0.225668 0
M  V30 1919 H 176.207 -4.57082 2.12349 0
M  V30 1920 H 175.809 -2.86073 2.40911 0
M  V30 1921 H 178.101 -5.88986 3.34817 0
M  V30 1922 H 179.044 -5.26283 4.73743 0
M  V30 1923 H 179.452 -4.73138 3.07898 0
M  V30 1924 N 178.85 -1.27639 -0.924453 0
M  V30 1925 C 180.127 -1.04887 -1.651 0
M  V30 1926 C 180.507 0.415327 -2.06974 0
M  V30 1927 O 179.855 1.39923 -1.80648 0
M  V30 1928 C 180.065 -2.01348 -2.85061 0
M  V30 1929 C 181.413 -2.30899 -3.56329 0
M  V30 1930 O 182.437 -1.99348 -2.95193 0
M  V30 1931 O 181.296 -2.84699 -4.66485 0
M  V30 1932 H 178.39 -0.400083 -0.723784 0
M  V30 1933 H 180.936 -1.38916 -0.974703 0
M  V30 1934 H 179.708 -3.0008 -2.51133 0
M  V30 1935 H 179.331 -1.679 -3.6041 0
M  V30 1936 N 180.328 1.1314 -1.09713 0
M  V30 1937 C 181.261 2.17735 -0.683137 0
M  V30 1938 C 182.239 1.59582 0.311841 0
M  V30 1939 O 183.423 1.87298 0.212514 0
M  V30 1940 C 180.55 3.38699 -0.00684324 0
M  V30 1941 C 179.596 4.1546 -0.964102 0
M  V30 1942 S 180.429 4.74733 -2.47767 0
M  V30 1943 C 181.585 5.9904 -1.81387 0
M  V30 1944 H 181.818 2.52515 -1.56918 0
M  V30 1945 H 179.351 1.24484 -0.913404 0
M  V30 1946 H 181.309 4.08765 0.377044 0
M  V30 1947 H 179.97 3.02214 0.85589 0
M  V30 1948 H 179.163 5.02093 -0.43803 0
M  V30 1949 H 178.765 3.51066 -1.28953 0
M  V30 1950 H 181.057 6.67846 -1.13967 0
M  V30 1951 H 182 6.56261 -2.65947 0
M  V30 1952 H 182.408 5.4976 -1.28155 0
M  V30 1953 N 181.806 0.884767 1.30421 0
M  V30 1954 C 183.052 0.503851 1.96441 0
M  V30 1955 C 183.385 -0.944518 1.69684 0
M  V30 1956 O 182.66 -1.66737 1.00145 0
M  V30 1957 C 182.943 0.779085 3.51571 0
M  V30 1958 C 182.796 2.27807 3.87846 0
M  V30 1959 C 184.115 0.255452 4.39358 0
M  V30 1960 H 181.234 0.184533 0.713524 0
M  V30 1961 H 183.876 1.10872 1.54297 0
M  V30 1962 H 182.026 0.264274 3.876 0
M  V30 1963 H 183.698 2.86127 3.61841 0
M  V30 1964 H 181.941 2.74479 3.35922 0
M  V30 1965 H 182.612 2.42125 4.96064 0
M  V30 1966 H 185.088 0.696079 4.10236 0
M  V30 1967 H 183.964 0.477361 5.4682 0
M  V30 1968 H 184.225 -0.843293 4.33983 0
M  V30 1969 N 183.284 -1.43765 0.645699 0
M  V30 1970 C 184.509 -2.06767 0.161883 0
M  V30 1971 C 184.934 -1.48034 -1.16049 0
M  V30 1972 O 184.292 -0.587369 -1.71522 0
M  V30 1973 C 184.34 -3.60519 0.0762003 0
M  V30 1974 O 183.444 -4.00982 -0.963721 0
M  V30 1975 H 182.785 -0.657675 0.091429 0
M  V30 1976 H 185.315 -1.84397 0.886499 0
M  V30 1977 H 185.325 -4.07853 -0.109604 0
M  V30 1978 H 184 -4.02646 1.04157 0
M  V30 1979 H 182.577 -3.65253 -0.751312 0
M  V30 1980 N 184.763 -0.387143 -1.52771 0
M  V30 1981 C 185.711 0.463953 -2.27926 0
M  V30 1982 C 186.705 1.06493 -1.31741 0
M  V30 1983 O 187.911 1.00565 -1.49287 0
M  V30 1984 H 184.286 0.16837 -0.732909 0
M  V30 1985 H 186.257 -0.19141 -2.97785 0
M  V30 1986 C 185.006 1.5803 -3.09713 0
M  V30 1987 H 184.329 1.12718 -3.83581 0
M  V30 1988 H 185.769 2.15008 -3.65442 0
M  V30 1989 C 184.228 2.53509 -2.2189 0
M  V30 1990 O 184.758 3.56863 -1.84422 0
M  V30 1991 N 182.964 2.23199 -1.86093 0
M  V30 1992 H 182.511 1.39185 -2.16761 0
M  V30 1993 H 182.469 2.87333 -1.27621 0
M  V30 1994 N 186.241 1.57166 -0.116904 0
M  V30 1995 C 187.173 2.12271 0.864507 0
M  V30 1996 C 188.186 1.06494 1.23138 0
M  V30 1997 O 189.375 1.33873 1.18069 0
M  V30 1998 C 186.475 2.60564 2.16702 0
M  V30 1999 C 185.648 3.90416 1.97216 0
M  V30 2000 C 184.707 4.24329 3.11178 0
M  V30 2001 O 183.733 4.93182 2.84184 0
M  V30 2002 N 184.935 3.8148 4.37554 0
M  V30 2003 H 187.7 2.97102 0.393726 0
M  V30 2004 H 185.261 1.61759 0.0675805 0
M  V30 2005 H 187.253 2.80282 2.91932 0
M  V30 2006 H 185.823 1.80623 2.55135 0
M  V30 2007 H 185.043 3.79627 1.06192 0
M  V30 2008 H 186.331 4.75327 1.81499 0
M  V30 2009 H 185.729 3.25943 4.62361 0
M  V30 2010 H 184.286 4.06311 5.09661 0
M  V30 2011 N 187.719 -0.156864 1.56817 0
M  V30 2012 C 188.669 -1.19891 1.93934 0
M  V30 2013 C 189.653 -1.39061 0.809372 0
M  V30 2014 O 190.845 -1.40789 1.07273 0
M  V30 2015 C 187.974 -2.53493 2.31508 0
M  V30 2016 C 187.06 -2.37957 3.51052 0
M  V30 2017 N 187.451 -1.92158 4.67877 0
M  V30 2018 C 185.749 -2.68739 3.55943 0
M  V30 2019 C 186.45 -1.8943 5.49992 0
M  V30 2020 N 185.426 -2.32375 4.91429 0
M  V30 2021 H 189.228 -0.836746 2.81737 0
M  V30 2022 H 186.742 -0.365012 1.58245 0
M  V30 2023 H 188.739 -3.28811 2.56299 0
M  V30 2024 H 187.399 -2.905 1.45051 0
M  V30 2025 H 188.41 -1.62274 4.91821 0
M  V30 2026 H 185.087 -3.09687 2.80001 0
M  V30 2027 H 186.477 -1.55596 6.53636 0
M  V30 2028 N 189.197 -1.51736 -0.425897 0
M  V30 2029 C 190.608 -1.5732 -1.00536 0
M  V30 2030 C 190.959 -0.403537 -1.92005 0
M  V30 2031 O 190.084 0.478256 -2.11049 0
M  V30 2032 C 190.679 -2.85119 -1.8301 0
M  V30 2033 C 189.238 -2.93236 -2.35987 0
M  V30 2034 C 188.385 -2.52098 -1.15508 0
M  V30 2035 H 191.336 -1.57348 -0.206739 0
M  V30 2036 H 191.357 -2.69526 -2.68581 0
M  V30 2037 H 190.869 -3.7023 -1.16411 0
M  V30 2038 H 188.97 -2.12581 -3.06007 0
M  V30 2039 H 189.083 -3.9713 -2.68001 0
M  V30 2040 H 187.447 -2.05558 -1.50393 0
M  V30 2041 H 188.23 -3.39565 -0.505014 0
M  V30 2042 N 190.675 0.682077 -1.42076 0
M  V30 2043 C 191.921 1.44283 -1.43366 0
M  V30 2044 C 192.276 1.92344 -0.0465775 0
M  V30 2045 O 191.569 1.67517 0.929973 0
M  V30 2046 C 191.763 2.66036 -2.38662 0
M  V30 2047 C 191.592 2.29889 -3.86499 0
M  V30 2048 C 190.362 2.19599 -4.55087 0
M  V30 2049 C 192.56 1.91999 -4.77117 0
M  V30 2050 N 190.542 1.76478 -5.87987 0
M  V30 2051 C 191.913 1.59741 -5.99068 0
M  V30 2052 C 193.968 1.78927 -4.64639 0
M  V30 2053 C 192.671 1.15723 -7.0993 0
M  V30 2054 C 194.697 1.36314 -5.75476 0
M  V30 2055 C 194.059 1.04975 -6.96534 0
M  V30 2056 H 190.158 0.524739 -0.579805 0
M  V30 2057 H 192.742 0.787834 -1.78048 0
M  V30 2058 H 190.913 3.29237 -2.06053 0
M  V30 2059 H 192.645 3.32588 -2.30581 0
M  V30 2060 H 189.4 2.38433 -4.09202 0
M  V30 2061 H 189.824 1.57362 -6.58458 0
M  V30 2062 H 194.466 2.01805 -3.7153 0
M  V30 2063 H 192.184 0.91591 -8.02893 0
M  V30 2064 H 195.77 1.26731 -5.6783 0
M  V30 2065 H 194.65 0.725017 -7.80841 0
M  V30 2066 N 192.153 1.28127 0.917671 0
M  V30 2067 C 193.4 1.15052 1.66641 0
M  V30 2068 C 193.728 -0.301677 1.92146 0
M  V30 2069 O 192.983 -1.23622 1.51711 0
M  V30 2070 C 193.282 1.89018 3.03327 0
M  V30 2071 C 192.948 3.38832 2.97496 0
M  V30 2072 C 191.61 3.79693 2.95613 0
M  V30 2073 C 193.962 4.34378 2.88036 0
M  V30 2074 C 191.29 5.14447 2.82066 0
M  V30 2075 C 193.642 5.69201 2.7603 0
M  V30 2076 C 192.306 6.09343 2.72502 0
M  V30 2077 H 191.576 0.421006 0.609783 0
M  V30 2078 H 194.223 1.58855 1.06945 0
M  V30 2079 H 192.528 1.37752 3.66785 0
M  V30 2080 H 194.225 1.76321 3.60156 0
M  V30 2081 H 190.815 3.06342 2.99754 0
M  V30 2082 H 194.999 4.03775 2.88581 0
M  V30 2083 H 190.255 5.44681 2.77728 0
M  V30 2084 H 194.429 6.42901 2.67678 0
M  V30 2085 H 192.056 7.13712 2.61762 0
M  V30 2086 N 193.631 -1.12557 1.10312 0
M  V30 2087 C 194.879 -1.83675 0.843091 0
M  V30 2088 C 195.2 -1.84435 -0.633131 0
M  V30 2089 O 194.47 -1.30657 -1.45964 0
M  V30 2090 H 193.05 -0.680138 0.308904 0
M  V30 2091 H 195.712 -1.36301 1.39313 0
M  V30 2092 H 194.808 -2.87908 1.2048 0
M  V30 2093 N 195.109 -0.891671 -1.2995 0
M  V30 2094 C 196.042 -0.307994 -2.26112 0
M  V30 2095 C 197.02 0.575262 -1.52084 0
M  V30 2096 O 198.204 0.523864 -1.81074 0
M  V30 2097 C 195.331 0.561734 -3.34009 0
M  V30 2098 C 194.377 -0.253107 -4.25748 0
M  V30 2099 S 195.21 -1.64572 -5.09584 0
M  V30 2100 C 196.366 -0.782699 -6.20987 0
M  V30 2101 H 196.599 -1.12309 -2.75271 0
M  V30 2102 H 194.132 -0.691509 -1.38049 0
M  V30 2103 H 196.09 1.05777 -3.96638 0
M  V30 2104 H 194.751 1.35099 -2.83561 0
M  V30 2105 H 193.944 0.410908 -5.02322 0
M  V30 2106 H 193.546 -0.682004 -3.67729 0
M  V30 2107 H 195.838 -0.00257476 -6.775 0
M  V30 2108 H 196.781 -1.52026 -6.91588 0
M  V30 2109 H 197.189 -0.340638 -5.63471 0
M  V30 2110 N 196.587 1.43421 -0.653314 0
M  V30 2111 C 197.497 2.34568 0.0388565 0
M  V30 2112 C 198.513 1.53888 0.81207 0
M  V30 2113 O 199.689 1.86539 0.759294 0
M  V30 2114 C 196.754 3.32167 0.993269 0
M  V30 2115 C 195.815 4.28751 0.216977 0
M  V30 2116 C 195.048 5.21688 1.12593 0
M  V30 2117 O 195.271 5.19052 2.36519 0
M  V30 2118 O 194.205 5.98919 0.598284 0
M  V30 2119 H 198.031 2.95251 -0.711386 0
M  V30 2120 H 195.616 1.43564 -0.413502 0
M  V30 2121 H 197.498 3.92183 1.54176 0
M  V30 2122 H 196.173 2.73987 1.72374 0
M  V30 2123 H 195.08 3.72215 -0.375101 0
M  V30 2124 H 196.413 4.89913 -0.473924 0
M  V30 2125 N 198.065 0.39524 1.52563 0
M  V30 2126 C 198.997 -0.472201 2.24283 0
M  V30 2127 C 200.01 -1.02178 1.26742 0
M  V30 2128 O 201.199 -0.923097 1.52778 0
M  V30 2129 C 198.299 -1.66775 2.95024 0
M  V30 2130 C 197.472 -1.2445 4.19322 0
M  V30 2131 C 196.531 -2.30539 4.7301 0
M  V30 2132 O 195.557 -1.91702 5.35947 0
M  V30 2133 N 196.759 -3.6253 4.53379 0
M  V30 2134 H 199.524 0.142282 2.99362 0
M  V30 2135 H 197.085 0.2219 1.60372 0
M  V30 2136 H 199.077 -2.37283 3.27839 0
M  V30 2137 H 197.647 -2.18845 2.23217 0
M  V30 2138 H 196.867 -0.368069 3.92478 0
M  V30 2139 H 198.155 -0.938457 5.0007 0
M  V30 2140 H 197.553 -3.96841 4.03154 0
M  V30 2141 H 196.11 -4.29055 4.90668 0
M  V30 2142 N 199.544 -1.57102 0.125237 0
M  V30 2143 C 200.454 -2.19191 -0.8362 0
M  V30 2144 C 201.47 -1.16985 -1.28805 0
M  V30 2145 O 202.646 -1.49479 -1.34974 0
M  V30 2146 C 199.711 -2.78407 -2.06617 0
M  V30 2147 C 198.772 -3.9567 -1.66565 0
M  V30 2148 C 198.005 -4.52052 -2.83698 0
M  V30 2149 O 198.228 -4.07326 -3.99302 0
M  V30 2150 O 197.162 -5.42645 -2.60423 0
M  V30 2151 H 200.988 -3.01816 -0.337776 0
M  V30 2152 H 198.573 -1.4906 -0.100695 0
M  V30 2153 H 200.455 -3.16129 -2.7864 0
M  V30 2154 H 199.13 -1.9881 -2.55453 0
M  V30 2155 H 198.037 -3.62705 -0.916296 0
M  V30 2156 H 199.37 -4.76722 -1.22464 0
M  V30 2157 N 201.022 0.148545 -1.56898 0
M  V30 2158 C 202.252 0.875118 -1.8715 0
M  V30 2159 C 202.66 1.75322 -0.711262 0
M  V30 2160 O 202.003 1.80745 0.328151 0
M  V30 2161 C 202.065 1.7844 -3.12089 0
M  V30 2162 C 201.729 1.08361 -4.43967 0
M  V30 2163 C 202.726 0.438247 -5.1805 0
M  V30 2164 C 200.411 1.07358 -4.90693 0
M  V30 2165 C 202.405 -0.20779 -6.37061 0
M  V30 2166 C 200.092 0.42373 -6.09629 0
M  V30 2167 C 201.09 -0.215829 -6.82659 0
M  V30 2168 O 200.778 -0.855378 -7.99336 0
M  V30 2169 H 200.51 0.258504 -0.624621 0
M  V30 2170 H 203.064 0.14652 -2.04877 0
M  V30 2171 H 201.294 2.55389 -2.90367 0
M  V30 2172 H 202.983 2.38279 -3.286 0
M  V30 2173 H 203.749 0.437817 -4.8302 0
M  V30 2174 H 199.628 1.5608 -4.33774 0
M  V30 2175 H 203.172 -0.70758 -6.94002 0
M  V30 2176 H 199.069 0.421822 -6.4412 0
M  V30 2177 H 199.837 -0.756892 -8.14993 0
M  V30 2178 N 202.5 1.5196 0.417844 0
M  V30 2179 C 203.728 1.69426 1.18753 0
M  V30 2180 C 204.143 0.399955 1.84515 0
M  V30 2181 O 203.5 -0.623288 1.71527 0
M  V30 2182 C 203.551 2.82375 2.25714 0
M  V30 2183 O 203.272 4.06793 1.62638 0
M  V30 2184 C 204.773 3.11277 3.15628 0
M  V30 2185 H 201.993 0.568031 0.357186 0
M  V30 2186 H 204.537 1.98475 0.49273 0
M  V30 2187 H 202.692 2.5587 2.90877 0
M  V30 2188 H 203.106 4.69667 2.3348 0
M  V30 2189 H 204.58 3.93843 3.86771 0
M  V30 2190 H 205.057 2.24473 3.77503 0
M  V30 2191 H 205.663 3.39515 2.56144 0
M  V30 2192 N 203.978 -0.674533 1.42435 0
M  V30 2193 C 204.908 -1.80009 1.48724 0
M  V30 2194 C 205.889 -1.6659 0.343793 0
M  V30 2195 O 207.074 -1.86007 0.558137 0
M  V30 2196 C 204.204 -3.18306 1.38919 0
M  V30 2197 C 203.158 -3.46461 2.51294 0
M  V30 2198 C 202.484 -4.84335 2.26547 0
M  V30 2199 C 203.784 -3.43328 3.93603 0
M  V30 2200 H 205.478 -1.75004 2.42928 0
M  V30 2201 H 203.024 -0.840533 1.16923 0
M  V30 2202 H 204.977 -3.9678 1.41927 0
M  V30 2203 H 203.701 -3.2399 0.412094 0
M  V30 2204 H 202.36 -2.70348 2.47604 0
M  V30 2205 H 202.008 -4.86669 1.2713 0
M  V30 2206 H 201.708 -5.04136 3.01861 0
M  V30 2207 H 203.232 -5.65094 2.31304 0
M  V30 2208 H 204.646 -4.11772 3.98894 0
M  V30 2209 H 203.043 -3.74664 4.68771 0
M  V30 2210 H 204.113 -2.41897 4.20255 0
M  V30 2211 N 205.456 -1.28612 -0.910864 0
M  V30 2212 C 206.389 -1.07109 -2.01502 0
M  V30 2213 C 207.367 0.013706 -1.62594 0
M  V30 2214 O 208.551 -0.134796 -1.88017 0
M  V30 2215 C 205.678 -0.628255 -3.32822 0
M  V30 2216 C 204.724 -1.71012 -3.90714 0
M  V30 2217 S 205.557 -3.30676 -4.21205 0
M  V30 2218 C 206.713 -2.88234 -5.55583 0
M  V30 2219 H 206.946 -2.00591 -2.19432 0
M  V30 2220 H 204.479 -1.12633 -1.05609 0
M  V30 2221 H 206.437 -0.37946 -4.08742 0
M  V30 2222 H 205.098 0.28678 -3.12788 0
M  V30 2223 H 204.291 -1.35195 -4.85529 0
M  V30 2224 H 203.893 -1.91186 -3.21441 0
M  V30 2225 H 206.185 -2.34584 -6.35591 0
M  V30 2226 H 207.128 -3.81857 -5.96314 0
M  V30 2227 H 207.536 -2.26862 -5.16908 0
M  V30 2228 N 206.934 1.1197 -1.10907 0
M  V30 2229 C 208.182 1.83225 -0.852819 0
M  V30 2230 C 208.503 1.84769 0.623341 0
M  V30 2231 O 207.773 1.3143 1.45269 0
M  V30 2232 H 206.353 0.67849 -0.312507 0
M  V30 2233 H 209.015 1.3556 -1.40033 0
M  V30 2234 H 208.111 2.87265 -1.22005 0
M  V30 2235 N 208.412 0.89855 1.29475 0
M  V30 2236 C 209.64 0.539261 1.99749 0
M  V30 2237 C 210.055 -0.875716 1.67262 0
M  V30 2238 O 209.412 -1.57786 0.917049 0
M  V30 2239 C 209.463 0.72061 3.54245 0
M  V30 2240 O 209.184 2.07989 3.8558 0
M  V30 2241 C 210.685 0.366118 4.41786 0
M  V30 2242 H 207.905 0.207047 0.638258 0
M  V30 2243 H 210.449 1.20758 1.65039 0
M  V30 2244 H 208.604 0.0994862 3.87272 0
M  V30 2245 H 209.018 2.10841 4.80257 0
M  V30 2246 H 210.492 0.543848 5.49314 0
M  V30 2247 H 210.969 -0.696763 4.33638 0
M  V30 2248 H 211.575 0.964135 4.14228 0
M  V30 2249 N 209.89 -1.43072 0.660911 0
M  V30 2250 C 211.167 -1.95307 0.107017 0
M  V30 2251 C 211.547 -1.60192 -1.37484 0
M  V30 2252 O 210.895 -0.890949 -2.10415 0
M  V30 2253 C 211.105 -3.47124 0.361402 0
M  V30 2254 C 212.453 -4.23738 0.270455 0
M  V30 2255 O 213.477 -3.54981 0.294382 0
M  V30 2256 O 212.336 -5.46131 0.200737 0
M  V30 2257 H 209.43 -0.826984 -0.00517729 0
M  V30 2258 H 211.976 -1.52972 0.734681 0
M  V30 2259 H 210.748 -3.65837 1.38848 0
M  V30 2260 H 210.371 -3.96475 -0.298953 0
M  V30 2261 N 211.368 -0.403325 -1.52352 0
M  V30 2262 C 212.616 0.174003 -2.0135 0
M  V30 2263 C 212.937 1.46139 -1.29106 0
M  V30 2264 O 212.207 1.91448 -0.415253 0
M  V30 2265 H 210.787 0.0672911 -0.743963 0
M  V30 2266 H 213.449 -0.538235 -1.87321 0
M  V30 2267 H 212.545 0.374254 -3.09848 0
M  V30 2268 N 212.846 1.57033 -0.133567 0
M  V30 2269 C 213.796 2.12641 0.822671 0
M  V30 2270 C 214.78 1.05081 1.21847 0
M  V30 2271 O 215.972 1.31287 1.18713 0
M  V30 2272 C 213.101 2.74094 2.06706 0
M  V30 2273 C 212.187 3.88757 1.69497 0
M  V30 2274 N 212.578 4.95194 1.03037 0
M  V30 2275 C 210.876 3.99213 1.98859 0
M  V30 2276 C 211.577 5.75414 0.852873 0
M  V30 2277 N 210.553 5.25726 1.3825 0
M  V30 2278 H 214.355 2.92308 0.305537 0
M  V30 2279 H 211.869 1.62256 0.0684276 0
M  V30 2280 H 213.866 3.12285 2.76195 0
M  V30 2281 H 212.526 1.95896 2.5895 0
M  V30 2282 H 213.537 5.13247 0.692669 0
M  V30 2283 H 210.214 3.32075 2.53047 0
M  V30 2284 H 211.604 6.71089 0.330091 0
M  V30 2285 N 214.325 -0.140222 1.56975 0
M  V30 2286 C 215.736 -0.699596 1.73097 0
M  V30 2287 C 216.087 -1.8134 0.749022 0
M  V30 2288 O 215.212 -2.16241 -0.0828503 0
M  V30 2289 C 215.807 -1.27582 3.1386 0
M  V30 2290 C 214.366 -1.78169 3.31561 0
M  V30 2291 C 213.513 -0.672855 2.69013 0
M  V30 2292 H 216.464 0.0855115 1.58469 0
M  V30 2293 H 216.485 -2.14561 3.14235 0
M  V30 2294 H 215.997 -0.464955 3.85305 0
M  V30 2295 H 214.098 -2.61801 2.65124 0
M  V30 2296 H 214.211 -1.90574 4.39566 0
M  V30 2297 H 212.575 -1.10118 2.29665 0
M  V30 2298 H 213.358 0.126679 3.43066 0
M  V30 2299 N 215.803 -1.52179 -0.40978 0
M  V30 2300 C 217.05 -1.66206 -1.15679 0
M  V30 2301 C 217.378 -0.391674 -1.90516 0
M  V30 2302 O 216.633 0.62533 -1.8544 0
M  V30 2303 C 216.932 -2.83428 -2.17723 0
M  V30 2304 C 216.598 -4.21672 -1.59699 0
M  V30 2305 C 215.26 -4.59274 -1.43599 0
M  V30 2306 C 217.612 -5.07825 -1.17317 0
M  V30 2307 C 214.94 -5.80709 -0.836328 0
M  V30 2308 C 217.292 -6.29864 -0.587691 0
M  V30 2309 C 215.956 -6.66216 -0.413818 0
M  V30 2310 H 215.226 -0.608192 -0.423301 0
M  V30 2311 H 217.873 -1.86279 -0.444097 0
M  V30 2312 H 216.178 -2.57687 -2.95135 0
M  V30 2313 H 217.875 -2.91477 -2.75394 0
M  V30 2314 H 214.465 -3.9204 -1.73213 0
M  V30 2315 H 218.649 -4.79359 -1.28565 0
M  V30 2316 H 213.905 -6.07498 -0.689626 0
M  V30 2317 H 218.079 -6.95948 -0.250894 0
M  V30 2318 H 215.706 -7.60182 0.0529471 0
M  V30 2319 N 217.281 0.66697 -1.42791 0
M  V30 2320 C 218.529 1.42417 -1.43394 0
M  V30 2321 C 218.85 1.94925 -0.0542373 0
M  V30 2322 O 218.12 1.73564 0.908415 0
M  V30 2323 H 216.7 0.528515 -0.527902 0
M  V30 2324 H 219.362 0.787562 -1.78279 0
M  V30 2325 H 218.458 2.27333 -2.13837 0
M  V30 2326 N 218.759 1.29093 0.90403 0
M  V30 2327 C 220.005 1.17996 1.65676 0
M  V30 2328 C 220.36 -0.266816 1.90541 0
M  V30 2329 O 219.653 -1.19 1.50165 0
M  V30 2330 C 219.847 1.92224 3.01305 0
M  V30 2331 C 219.676 3.43972 2.89678 0
M  V30 2332 C 218.446 4.1332 2.90679 0
M  V30 2333 C 220.644 4.39546 2.67028 0
M  V30 2334 N 218.626 5.51463 2.69743 0
M  V30 2335 C 219.997 5.65119 2.5503 0
M  V30 2336 C 222.052 4.29359 2.52101 0
M  V30 2337 C 220.755 6.81663 2.29626 0
M  V30 2338 C 222.781 5.4565 2.28079 0
M  V30 2339 C 222.143 6.70193 2.16843 0
M  V30 2340 H 218.242 0.486759 0.612037 0
M  V30 2341 H 220.826 1.62868 1.06688 0
M  V30 2342 H 218.997 1.49773 3.58361 0
M  V30 2343 H 220.729 1.73429 3.65656 0
M  V30 2344 H 217.484 3.64984 3.01801 0
M  V30 2345 H 217.908 6.24105 2.6234 0
M  V30 2346 H 222.55 3.33769 2.59534 0
M  V30 2347 H 220.268 7.77313 2.20932 0
M  V30 2348 H 223.854 5.39664 2.1738 0
M  V30 2349 H 222.734 7.58659 1.98511 0
M  V30 2350 N 220.237 -1.11381 1.11499 0
M  V30 2351 C 221.648 -1.6465 0.880191 0
M  V30 2352 C 221.999 -1.87199 -0.587434 0
M  V30 2353 O 221.124 -1.60667 -1.44966 0
M  V30 2354 C 221.719 -2.99105 1.59128 0
M  V30 2355 C 220.278 -3.49279 1.40289 0
M  V30 2356 C 219.425 -2.24077 1.63354 0
M  V30 2357 H 222.376 -0.950123 1.27116 0
M  V30 2358 H 222.397 -3.66107 1.03664 0
M  V30 2359 H 221.909 -2.82661 2.65941 0
M  V30 2360 H 220.01 -3.70887 0.356888 0
M  V30 2361 H 220.123 -4.2803 2.15238 0
M  V30 2362 H 218.487 -2.31733 1.05698 0
M  V30 2363 H 219.27 -2.10175 2.71443 0
M  V30 2364 N 221.715 -0.905404 -1.28997 0
M  V30 2365 C 222.94 -0.549175 -1.99997 0
M  V30 2366 C 223.365 0.860276 -1.67275 0
M  V30 2367 O 222.723 1.57355 -0.900502 0
M  V30 2368 C 222.771 -0.755185 -3.52604 0
M  V30 2369 O 221.875 0.189692 -4.11964 0
M  V30 2370 H 221.216 -0.213899 -0.628604 0
M  V30 2371 H 223.746 -1.21856 -1.64354 0
M  V30 2372 H 223.756 -0.662045 -4.02593 0
M  V30 2373 H 222.431 -1.78271 -3.75755 0
M  V30 2374 H 221.008 0.0485257 -3.72868 0
M  V30 2375 N 223.193 1.4272 -0.668489 0
M  V30 2376 C 224.141 2.32586 0.0254857 0
M  V30 2377 C 225.135 1.49471 0.797176 0
M  V30 2378 O 226.341 1.65583 0.705853 0
M  V30 2379 H 222.716 0.751514 0.0270339 0
M  V30 2380 H 224.687 2.88823 -0.749936 0
M  V30 2381 C 223.436 3.3397 0.967427 0
M  V30 2382 H 222.759 3.97961 0.383048 0
M  V30 2383 H 224.199 3.9945 1.42181 0
M  V30 2384 C 222.658 2.65744 2.0708 0
M  V30 2385 O 223.188 2.48454 3.15648 0
M  V30 2386 N 221.394 2.2487 1.8407 0
M  V30 2387 H 220.941 2.39132 0.95778 0
M  V30 2388 H 220.899 1.79552 2.58086 0
M  V30 2389 N 224.671 0.411399 1.52136 0
M  V30 2390 C 225.919 -0.163322 2.01439 0
M  V30 2391 C 226.24 -1.45453 1.29879 0
M  V30 2392 O 225.51 -1.91225 0.4254 0
M  V30 2393 H 224.09 -0.0633447 0.744309 0
M  V30 2394 H 226.752 0.548161 1.87033 0
M  V30 2395 H 225.848 -0.357817 3.10042 0
M  V30 2396 N 226.149 -1.5696 0.141893 0
M  V30 2397 C 227.396 -1.9596 -0.510492 0
M  V30 2398 C 227.724 -1.02648 -1.65208 0
M  V30 2399 O 226.979 -0.0546947 -1.95624 0
M  V30 2400 C 227.278 -3.41242 -1.06249 0
M  V30 2401 C 226.944 -4.50882 -0.0398791 0
M  V30 2402 C 225.606 -4.80595 0.241247 0
M  V30 2403 C 227.958 -5.17058 0.65578 0
M  V30 2404 C 225.286 -5.73792 1.22393 0
M  V30 2405 C 227.638 -6.11313 1.62724 0
M  V30 2406 C 226.302 -6.39407 1.91612 0
M  V30 2407 H 225.572 -0.717068 -0.186802 0
M  V30 2408 H 228.219 -1.90142 0.227643 0
M  V30 2409 H 226.524 -3.43866 -1.87785 0
M  V30 2410 H 228.221 -3.68742 -1.57576 0
M  V30 2411 H 224.811 -4.27754 -0.269174 0
M  V30 2412 H 228.995 -4.94239 0.451779 0
M  V30 2413 H 224.251 -5.93853 1.45424 0
M  V30 2414 H 228.425 -6.61668 2.17183 0
M  V30 2415 H 226.052 -7.11427 2.6791 0
M  V30 2416 N 227.627 0.131896 -1.57047 0
M  V30 2417 C 229.038 0.690407 -1.73465 0
M  V30 2418 C 229.389 1.8094 -0.758629 0
M  V30 2419 O 228.514 2.16282 0.0713813 0
M  V30 2420 C 229.109 1.25916 -3.14532 0
M  V30 2421 C 227.668 1.76409 -3.32501 0
M  V30 2422 C 226.815 0.658579 -2.69366 0
M  V30 2423 H 229.766 -0.0939144 -1.58422 0
M  V30 2424 H 229.787 2.12892 -3.15369 0
M  V30 2425 H 229.299 0.444515 -3.85546 0
M  V30 2426 H 227.4 2.60391 -2.66509 0
M  V30 2427 H 227.513 1.88241 -4.4057 0
M  V30 2428 H 225.877 1.08899 -2.30246 0
M  V30 2429 H 226.66 -0.14487 -3.42994 0
M  V30 2430 N 229.106 1.52395 0.401703 0
M  V30 2431 C 230.354 1.66488 1.14569 0
M  V30 2432 C 230.675 0.400897 1.90835 0
M  V30 2433 O 229.945 -0.584415 1.8698 0
M  V30 2434 H 228.525 0.613672 0.425929 0
M  V30 2435 H 231.187 1.89464 0.457093 0
M  V30 2436 H 230.283 2.50942 1.85566 0
M  V30 2437 N 230.584 -0.659388 1.43143 0
M  V30 2438 C 231.995 -1.24041 1.39537 0
M  V30 2439 C 232.346 -1.95963 0.0963364 0
M  V30 2440 O 231.471 -2.00892 -0.804438 0
M  V30 2441 C 232.066 -2.25601 2.52764 0
M  V30 2442 C 230.625 -2.79195 2.52443 0
M  V30 2443 C 229.772 -1.53743 2.30778 0
M  V30 2444 H 232.723 -0.451792 1.52133 0
M  V30 2445 H 232.744 -3.07651 2.23899 0
M  V30 2446 H 232.256 -1.73226 3.47296 0
M  V30 2447 H 230.357 -3.35649 1.61773 0
M  V30 2448 H 230.47 -3.2716 3.50004 0
M  V30 2449 H 228.834 -1.80869 1.79328 0
M  V30 2450 H 229.617 -1.03312 3.27386 0
M  V30 2451 N 232.062 -1.29571 -0.897171 0
M  V30 2452 C 232.994 -1.10724 -2.00681 0
M  V30 2453 C 234.007 -0.0540026 -1.6271 0
M  V30 2454 O 235.196 -0.298783 -1.75982 0
M  V30 2455 C 232.296 -0.663912 -3.32333 0
M  V30 2456 C 231.469 -1.79622 -3.98816 0
M  V30 2457 C 230.528 -1.34349 -5.0876 0
M  V30 2458 O 229.554 -2.04864 -5.31055 0
M  V30 2459 N 230.756 -0.215764 -5.80099 0
M  V30 2460 H 233.521 -2.06291 -2.17403 0
M  V30 2461 H 231.082 -1.21544 -1.06951 0
M  V30 2462 H 233.074 -0.344295 -4.03233 0
M  V30 2463 H 231.644 0.199375 -3.11964 0
M  V30 2464 H 230.864 -2.28459 -3.21248 0
M  V30 2465 H 232.152 -2.55535 -4.39976 0
M  V30 2466 H 231.55 0.372091 -5.64475 0
M  V30 2467 H 230.107 0.0444707 -6.51785 0
M  V30 2468 N 233.54 1.10788 -1.12088 0
M  V30 2469 C 234.788 1.8231 -0.872205 0
M  V30 2470 C 235.109 1.85419 0.603709 0
M  V30 2471 O 234.379 1.32963 1.43867 0
M  V30 2472 H 232.959 0.675137 -0.319686 0
M  V30 2473 H 235.621 1.34068 -1.41463 0
M  V30 2474 H 234.717 2.85955 -1.25045 0
M  V30 2475 N 235.018 0.912232 1.28515 0
M  V30 2476 C 236.429 0.591352 1.77087 0
M  V30 2477 C 236.78 -0.8933 1.74684 0
M  V30 2478 O 235.905 -1.69876 1.34056 0
M  V30 2479 C 236.5 1.06668 3.2157 0
M  V30 2480 C 235.059 0.79675 3.67871 0
M  V30 2481 C 234.206 1.23427 2.48316 0
M  V30 2482 H 237.157 1.09365 1.15 0
M  V30 2483 H 237.178 0.407455 3.78312 0
M  V30 2484 H 236.69 2.14726 3.23287 0
M  V30 2485 H 234.791 -0.270679 3.71616 0
M  V30 2486 H 234.904 1.40343 4.58084 0
M  V30 2487 H 233.268 0.653036 2.46186 0
M  V30 2488 H 234.051 2.32316 2.52753 0
M  V30 2489 N 236.496 -1.42363 0.676048 0
M  V30 2490 C 237.726 -2.05561 0.206967 0
M  V30 2491 C 238.134 -1.50887 -1.14148 0
M  V30 2492 O 237.477 -0.643933 -1.72044 0
M  V30 2493 C 237.539 -3.5944 0.0659508 0
M  V30 2494 C 237.203 -4.36812 1.34331 0
M  V30 2495 C 238.2 -4.67383 2.27704 0
M  V30 2496 C 235.885 -4.76429 1.59125 0
M  V30 2497 C 237.879 -5.36509 3.44147 0
M  V30 2498 C 235.566 -5.45294 2.75857 0
M  V30 2499 C 236.564 -5.75259 3.68193 0
M  V30 2500 O 236.252 -6.42712 4.82883 0
M  V30 2501 H 235.984 -0.668872 0.0979084 0
M  V30 2502 H 238.538 -1.83467 0.923531 0
M  V30 2503 H 236.768 -3.80197 -0.706204 0
M  V30 2504 H 238.457 -4.0427 -0.363418 0
M  V30 2505 H 239.223 -4.37275 2.09799 0
M  V30 2506 H 235.102 -4.52498 0.881258 0
M  V30 2507 H 238.646 -5.59814 4.16238 0
M  V30 2508 H 234.543 -5.7482 2.93688 0
M  V30 2509 H 235.311 -6.61204 4.82444 0
M  V30 2510 N 237.974 -0.419461 -1.51915 0
M  V30 2511 C 239.204 0.151915 -2.06041 0
M  V30 2512 C 239.612 1.38539 -1.28855 0
M  V30 2513 O 238.955 1.80592 -0.336463 0
M  V30 2514 C 239.017 0.557119 -3.55157 0
M  V30 2515 C 238.681 -0.567054 -4.53468 0
M  V30 2516 C 239.678 -1.43379 -4.99738 0
M  V30 2517 C 237.363 -0.742693 -4.96779 0
M  V30 2518 C 239.357 -2.46102 -5.87973 0
M  V30 2519 C 237.044 -1.77322 -5.84808 0
M  V30 2520 C 238.042 -2.63078 -6.30301 0
M  V30 2521 O 237.73 -3.64364 -7.16585 0
M  V30 2522 H 237.462 0.0193293 -0.675724 0
M  V30 2523 H 240.016 -0.592073 -1.96682 0
M  V30 2524 H 238.246 1.35355 -3.62238 0
M  V30 2525 H 239.935 1.05759 -3.9188 0
M  V30 2526 H 240.701 -1.30954 -4.66986 0
M  V30 2527 H 236.58 -0.0848307 -4.60922 0
M  V30 2528 H 240.124 -3.13071 -6.23404 0
M  V30 2529 H 236.021 -1.89773 -6.16974 0
M  V30 2530 H 236.789 -3.60731 -7.34721 0
M  V30 2531 N 239.452 1.56882 -0.150215 0
M  V30 2532 C 240.692 1.98119 0.502804 0
M  V30 2533 C 241.056 1.03327 1.61826 0
M  V30 2534 O 242.257 1.33621 2.33236 0
M  V30 2535 C 240.528 3.43329 0.992988 0
M  V30 2536 S 242.087 4.0659 1.65015 0
M  V30 2537 H 238.905 0.692189 0.162467 0
M  V30 2538 H 241.507 1.93988 -0.242689 0
M  V30 2539 H 240.211 4.10046 0.170436 0
M  V30 2540 H 239.742 3.5118 1.77303 0
M  V30 2541 H 241.757 3.99906 2.93752 0
M  V30 2542 N 240.93 -0.123565 1.57115 0
M  V30 2543 C 242.178 -0.83051 1.84247 0
M  V30 2544 C 242.499 -1.80629 0.73471 0
M  V30 2545 O 241.769 -1.94403 -0.241688 0
M  V30 2546 H 240.349 -0.309694 0.679778 0
M  V30 2547 H 243.011 -0.111976 1.94578 0
M  V30 2548 H 242.107 -1.37852 2.80006 0
M  V30 2549 N 242.408 -1.52605 -0.393616 0
M  V30 2550 C 243.654 -1.67672 -1.14079 0
M  V30 2551 C 243.987 -0.413121 -1.89755 0
M  V30 2552 O 243.262 0.588952 -1.85369 0
M  V30 2553 C 243.545 -2.9088 -2.12276 0
M  V30 2554 C 243.398 -4.27329 -1.40394 0
M  V30 2555 C 244.717 -3.09628 -3.12759 0
M  V30 2556 H 241.836 -0.610168 -0.413356 0
M  V30 2557 H 244.478 -1.85193 -0.424696 0
M  V30 2558 H 242.628 -2.76073 -2.73342 0
M  V30 2559 H 244.3 -4.53894 -0.82327 0
M  V30 2560 H 242.543 -4.2802 -0.705801 0
M  V30 2561 H 243.214 -5.09615 -2.12123 0
M  V30 2562 H 245.69 -3.23436 -2.61779 0
M  V30 2563 H 244.566 -3.97322 -3.78717 0
M  V30 2564 H 244.827 -2.23637 -3.81365 0
M  V30 2565 N 243.887 0.651787 -1.4349 0
M  V30 2566 C 245.135 1.40888 -1.44897 0
M  V30 2567 C 245.456 1.94856 -0.0749086 0
M  V30 2568 O 244.726 1.74518 0.889956 0
M  V30 2569 H 243.306 0.522887 -0.533478 0
M  V30 2570 H 245.968 0.768609 -1.79104 0
M  V30 2571 H 245.064 2.25052 -2.16236 0
M  V30 2572 N 245.365 1.30045 0.890287 0
M  V30 2573 C 246.328 1.15963 1.977 0
M  V30 2574 C 247.328 0.0923777 1.60534 0
M  V30 2575 O 248.518 0.340071 1.70848 0
M  V30 2576 C 245.65 0.775451 3.31963 0
M  V30 2577 H 246.843 2.12502 2.11619 0
M  V30 2578 H 244.396 1.13366 1.07601 0
M  V30 2579 H 245.131 -0.189671 3.23745 0
M  V30 2580 H 244.916 1.54668 3.60306 0
M  V30 2581 H 246.406 0.700251 4.11687 0
M  V30 2582 N 246.843 -1.10192 1.12674 0
M  V30 2583 C 248.12 -1.78717 0.794965 0
M  V30 2584 C 248.5 -1.98628 -0.714853 0
M  V30 2585 O 247.848 -1.58135 -1.64941 0
M  V30 2586 C 248.058 -3.11546 1.5729 0
M  V30 2587 C 249.406 -3.86382 1.76052 0
M  V30 2588 O 250.43 -3.21274 1.53823 0
M  V30 2589 O 249.289 -5.03246 2.13087 0
M  V30 2590 H 246.383 -0.774702 0.289423 0
M  V30 2591 H 248.929 -1.16819 1.23091 0
M  V30 2592 H 247.701 -2.92489 2.59935 0
M  V30 2593 H 247.324 -3.81164 1.13137 0
M  V30 2594 N 248.321 -0.919034 -1.28029 0
M  V30 2595 C 249.737 -0.617972 -1.4715 0
M  V30 2596 C 249.937 0.835242 -1.83374 0
M  V30 2597 O 248.993 1.61388 -1.94191 0
M  V30 2598 C 250.306 -1.56041 -2.57044 0
M  V30 2599 C 251.854 -1.56769 -2.7091 0
M  V30 2600 C 252.329 -2.49688 -3.83953 0
M  V30 2601 N 253.82 -2.47845 -3.91314 0
M  V30 2602 C 254.555 -3.16437 -4.78179 0
M  V30 2603 N 254.051 -3.94376 -5.69596 0
M  V30 2604 N 255.844 -3.05498 -4.71834 0
M  V30 2605 H 247.995 -1.85866 -1.02798 0
M  V30 2606 H 250.258 -0.797506 -0.512531 0
M  V30 2607 H 249.964 -2.59671 -2.372 0
M  V30 2608 H 249.838 -1.29551 -3.54255 0
M  V30 2609 H 252.225 -0.538745 -2.90141 0
M  V30 2610 H 252.306 -1.87305 -1.74214 0
M  V30 2611 H 251.95 -3.52688 -3.65477 0
M  V30 2612 H 251.88 -2.16453 -4.80058 0
M  V30 2613 H 254.371 -1.91234 -3.25941 0
M  V30 2614 H 254.684 -4.43721 -6.32718 0
M  V30 2615 H 253.029 -3.98481 -5.69419 0
M  V30 2616 H 256.22 -2.44108 -3.99411 0
M  V30 2617 H 256.393 -3.59225 -5.39316 0
M  V30 2618 N 249.799 1.42003 -0.683588 0
M  V30 2619 C 250.762 2.29191 -0.0198243 0
M  V30 2620 C 251.762 1.43773 0.72013 0
M  V30 2621 O 252.952 1.65061 0.556815 0
M  V30 2622 C 250.084 3.26435 0.982487 0
M  V30 2623 H 251.277 2.8938 -0.787345 0
M  V30 2624 H 248.83 1.49789 -0.446418 0
M  V30 2625 H 249.565 2.71203 1.77819 0
M  V30 2626 H 249.35 3.89449 0.455182 0
M  V30 2627 H 250.84 3.918 1.44508 0
M  V30 2628 N 251.277 0.427512 1.51691 0
M  V30 2629 C 252.507 -0.140986 2.06118 0
M  V30 2630 C 252.915 -1.37854 1.29588 0
M  V30 2631 O 252.258 -1.80411 0.346036 0
M  V30 2632 C 252.32 -0.538276 3.55447 0
M  V30 2633 C 251.984 0.591095 4.53161 0
M  V30 2634 C 252.981 1.46027 4.98971 0
M  V30 2635 C 250.666 0.769028 4.96378 0
M  V30 2636 C 252.66 2.49216 5.8666 0
M  V30 2637 C 250.347 1.80421 5.83859 0
M  V30 2638 C 251.345 2.66417 6.28897 0
M  V30 2639 O 251.033 3.68159 7.14643 0
M  V30 2640 H 250.765 -0.0157455 0.675817 0
M  V30 2641 H 253.319 0.602495 1.96365 0
M  V30 2642 H 251.549 -1.33432 3.6295 0
M  V30 2643 H 253.238 -1.0368 3.92435 0
M  V30 2644 H 254.004 1.33429 4.66285 0
M  V30 2645 H 249.883 0.109273 4.6087 0
M  V30 2646 H 253.427 3.16372 6.21735 0
M  V30 2647 H 249.324 1.93042 6.15959 0
M  V30 2648 H 250.092 3.64622 7.32798 0
M  V30 2649 N 252.755 -1.56801 0.158532 0
M  V30 2650 C 254.003 -1.96102 -0.488712 0
M  V30 2651 C 254.324 -1.04498 -1.64636 0
M  V30 2652 O 253.594 -0.108783 -1.95598 0
M  V30 2653 H 252.174 -0.724102 -0.183535 0
M  V30 2654 H 254.836 -1.93457 0.236728 0
M  V30 2655 H 253.932 -3.00097 -0.857219 0
M  V30 2656 N 254.233 0.115231 -1.57178 0
M  V30 2657 C 255.649 0.468877 -1.52557 0
M  V30 2658 C 255.849 1.81649 -0.872125 0
M  V30 2659 O 254.905 2.48347 -0.45606 0
M  V30 2660 C 256.218 0.4499 -2.97315 0
M  V30 2661 C 257.766 0.533185 -3.08425 0
M  V30 2662 C 258.241 0.54456 -4.54751 0
M  V30 2663 N 259.732 0.605892 -4.5922 0
M  V30 2664 C 260.467 0.636203 -5.6986 0
M  V30 2665 N 259.963 0.623931 -6.89985 0
M  V30 2666 N 261.756 0.679496 -5.57978 0
M  V30 2667 H 253.907 -0.767712 -1.9804 0
M  V30 2668 H 256.17 -0.283609 -0.904583 0
M  V30 2669 H 255.876 -0.472721 -3.48509 0
M  V30 2670 H 255.75 1.27632 -3.5495 0
M  V30 2671 H 258.137 1.44623 -2.57232 0
M  V30 2672 H 258.218 -0.320995 -2.53778 0
M  V30 2673 H 257.862 -0.364452 -5.06591 0
M  V30 2674 H 257.792 1.41568 -5.07214 0
M  V30 2675 H 260.283 0.621386 -3.72756 0
M  V30 2676 H 260.596 0.649787 -7.70063 0
M  V30 2677 H 258.941 0.591296 -6.9248 0
M  V30 2678 H 262.132 0.686472 -4.63039 0
M  V30 2679 H 262.305 0.69965 -6.44212 0
M  V30 2680 N 255.711 1.52812 0.385517 0
M  V30 2681 C 256.988 1.5861 1.14465 0
M  V30 2682 C 257.368 0.381402 2.07626 0
M  V30 2683 O 256.716 -0.629999 2.19643 0
M  V30 2684 C 256.926 2.92664 1.90128 0
M  V30 2685 C 258.274 3.46526 2.45367 0
M  V30 2686 O 259.298 2.94562 2.0028 0
M  V30 2687 O 258.157 4.37323 3.27736 0
M  V30 2688 H 255.251 0.639855 0.523941 0
M  V30 2689 H 257.797 1.65149 0.390389 0
M  V30 2690 H 256.569 3.71788 1.22022 0
M  V30 2691 H 256.192 2.89527 2.72507 0
M  V30 2692 N 257.189 -0.644168 1.43834 0
M  V30 2693 C 258.438 -1.39985 1.45214 0
M  V30 2694 C 258.751 -1.95421 0.0835494 0
M  V30 2695 O 259.957 -2.71488 -0.0251748 0
M  V30 2696 C 258.413 -2.53384 2.55587 0
M  V30 2697 C 258.021 -2.04517 3.98594 0
M  V30 2698 C 259.765 -3.30685 2.66172 0
M  V30 2699 C 257.672 -3.1518 5.00416 0
M  V30 2700 H 256.602 -0.526005 0.540218 0
M  V30 2701 H 259.253 -0.694367 1.69855 0
M  V30 2702 H 257.635 -3.26446 2.24163 0
M  V30 2703 H 258.809 -1.38405 4.39523 0
M  V30 2704 H 257.124 -1.40068 3.92135 0
M  V30 2705 H 259.721 -4.13158 3.39418 0
M  V30 2706 H 260.064 -3.79312 1.71546 0
M  V30 2707 H 260.597 -2.64708 2.96942 0
M  V30 2708 H 257.336 -2.71511 5.96625 0
M  V30 2709 H 256.856 -3.79974 4.64091 0
M  V30 2710 H 258.535 -3.80166 5.23529 0
M  V30 2711 N 258.668 -1.30515 -0.883378 0
M  V30 2712 C 259.914 -1.19607 -1.63774 0
M  V30 2713 C 260.247 0.248314 -1.92606 0
M  V30 2714 O 259.522 1.17742 -1.54813 0
M  V30 2715 C 259.805 -2.02669 -2.97653 0
M  V30 2716 C 259.658 -3.55335 -2.75784 0
M  V30 2717 C 260.977 -1.86573 -3.98596 0
M  V30 2718 H 258.096 -0.435856 -0.594305 0
M  V30 2719 H 260.738 -1.60165 -1.02212 0
M  V30 2720 H 258.888 -1.68208 -3.50197 0
M  V30 2721 H 260.56 -3.99863 -2.30016 0
M  V30 2722 H 258.803 -3.79438 -2.1026 0
M  V30 2723 H 259.474 -4.08745 -3.70988 0
M  V30 2724 H 261.95 -2.16703 -3.55217 0
M  V30 2725 H 260.826 -2.47014 -4.90179 0
M  V30 2726 H 261.087 -0.825321 -4.34328 0
M  V30 2727 N 260.146 1.09593 -1.13257 0
M  V30 2728 C 261.056 2.19739 -0.821691 0
M  V30 2729 C 262.072 1.72926 0.19302 0
M  V30 2730 O 263.248 2.01385 0.0244895 0
M  V30 2731 C 260.313 3.45482 -0.290333 0
M  V30 2732 C 259.374 4.06985 -1.36607 0
M  V30 2733 C 258.607 5.26726 -0.859975 0
M  V30 2734 O 258.83 5.69594 0.303082 0
M  V30 2735 O 257.764 5.7931 -1.63351 0
M  V30 2736 H 261.59 2.48781 -1.74189 0
M  V30 2737 H 259.175 1.18496 -0.909894 0
M  V30 2738 H 261.057 4.214 0.000674022 0
M  V30 2739 H 259.732 3.18047 0.602306 0
M  V30 2740 H 258.639 3.32712 -1.71037 0
M  V30 2741 H 259.972 4.38643 -2.23279 0
M  V30 2742 N 261.624 0.925811 1.2754 0
M  V30 2743 C 262.587 0.428129 2.25166 0
M  V30 2744 C 263.587 -0.452261 1.54309 0
M  V30 2745 O 264.777 -0.253608 1.72344 0
M  V30 2746 C 261.909 -0.384749 3.38722 0
M  V30 2747 H 263.102 1.29066 2.70706 0
M  V30 2748 H 260.655 0.706323 1.3943 0
M  V30 2749 H 261.39 -1.26618 2.98561 0
M  V30 2750 H 261.175 0.246454 3.91325 0
M  V30 2751 H 262.665 -0.723389 4.11287 0
M  V30 2752 N 263.102 -1.41638 0.69111 0
M  V30 2753 C 264.052 -2.28 -0.000107832 0
M  V30 2754 C 265.036 -1.41964 -0.757304 0
M  V30 2755 O 266.228 -1.65274 -0.633532 0
M  V30 2756 C 263.357 -3.30209 -0.938983 0
M  V30 2757 C 262.443 -4.23725 -0.17827 0
M  V30 2758 N 262.834 -4.99017 0.825563 0
M  V30 2759 C 261.132 -4.44071 -0.414392 0
M  V30 2760 C 261.833 -5.67431 1.28052 0
M  V30 2761 N 260.809 -5.40197 0.607304 0
M  V30 2762 H 264.611 -2.83644 0.769617 0
M  V30 2763 H 262.125 -1.53797 0.521562 0
M  V30 2764 H 264.122 -3.90898 -1.44929 0
M  V30 2765 H 262.782 -2.76126 -1.70836 0
M  V30 2766 H 263.793 -5.03671 1.20566 0
M  V30 2767 H 260.47 -4.01004 -1.162 0
M  V30 2768 H 261.86 -6.37801 2.11327 0
M  V30 2769 N 264.58 -0.43555 -1.51462 0
M  V30 2770 C 265.81 0.130053 -2.0619 0
M  V30 2771 C 266.218 1.37164 -1.30317 0
M  V30 2772 O 265.561 1.80225 -0.355598 0
M  V30 2773 C 265.623 0.519418 -3.55728 0
M  V30 2774 C 265.287 -0.615119 -4.52841 0
M  V30 2775 C 266.284 -1.48671 -4.9819 0
M  V30 2776 C 263.969 -0.795341 -4.95963 0
M  V30 2777 C 265.963 -2.52324 -5.8533 0
M  V30 2778 C 263.65 -1.83514 -5.82894 0
M  V30 2779 C 264.648 -2.69748 -6.27475 0
M  V30 2780 O 264.336 -3.71944 -7.1268 0
M  V30 2781 H 264.068 0.0121612 -0.675891 0
M  V30 2782 H 266.622 -0.6129 -1.96043 0
M  V30 2783 H 264.852 1.31505 -3.63653 0
M  V30 2784 H 266.541 1.01597 -3.92979 0
M  V30 2785 H 267.307 -1.359 -4.65571 0
M  V30 2786 H 263.186 -0.133713 -4.60806 0
M  V30 2787 H 266.73 -3.19665 -6.20048 0
M  V30 2788 H 262.627 -1.96306 -6.14926 0
M  V30 2789 H 263.395 -3.68503 -7.30854 0
M  V30 2790 N 266.058 1.56714 -0.166846 0
M  V30 2791 C 267.474 1.58473 0.189372 0
M  V30 2792 C 267.674 1.18201 1.63189 0
M  V30 2793 O 266.73 0.891528 2.36237 0
M  V30 2794 C 268.043 3.00573 -0.0873872 0
M  V30 2795 C 269.591 3.1299 -0.0252443 0
M  V30 2796 C 270.066 4.57174 -0.274934 0
M  V30 2797 N 271.557 4.62665 -0.222553 0
M  V30 2798 C 272.292 5.72072 -0.389985 0
M  V30 2799 N 271.788 6.90054 -0.616229 0
M  V30 2800 N 273.581 5.61153 -0.326202 0
M  V30 2801 H 265.732 1.8118 -1.10849 0
M  V30 2802 H 267.995 0.839525 -0.440342 0
M  V30 2803 H 267.701 3.34497 -1.0865 0
M  V30 2804 H 267.575 3.72019 0.623037 0
M  V30 2805 H 269.962 2.78895 0.96444 0
M  V30 2806 H 270.043 2.43989 -0.768309 0
M  V30 2807 H 269.687 4.91976 -1.26181 0
M  V30 2808 H 269.617 5.24328 0.48869 0
M  V30 2809 H 272.108 3.77863 -0.0531512 0
M  V30 2810 H 272.421 7.69311 -0.733559 0
M  V30 2811 H 270.766 6.91927 -0.652791 0
M  V30 2812 H 273.957 4.67859 -0.150072 0
M  V30 2813 H 274.13 6.46364 -0.460116 0
M  V30 2814 N 267.536 -0.106894 1.57237 0
M  V30 2815 C 268.499 -1.11466 2.0027 0
M  V30 2816 C 269.499 -1.33623 0.894519 0
M  V30 2817 O 270.689 -1.29935 1.16028 0
M  V30 2818 C 267.821 -2.46646 2.35327 0
M  V30 2819 H 269.014 -0.744516 2.90512 0
M  V30 2820 H 266.567 -0.351576 1.52295 0
M  V30 2821 H 267.302 -2.88558 1.48003 0
M  V30 2822 H 267.087 -2.31915 3.16161 0
M  V30 2823 H 268.577 -3.19151 2.69318 0
M  V30 2824 N 269.014 -1.53014 -0.377408 0
M  V30 2825 C 270.254 -1.70318 -1.1301 0
M  V30 2826 C 270.618 -0.439538 -1.86901 0
M  V30 2827 O 271.819 -0.489095 -2.64313 0
M  V30 2828 C 270.09 -2.91125 -2.07319 0
M  V30 2829 S 271.649 -3.29075 -2.90268 0
M  V30 2830 H 268.467 -0.599426 -0.382374 0
M  V30 2831 H 271.069 -1.91089 -0.412933 0
M  V30 2832 H 269.773 -3.81303 -1.51777 0
M  V30 2833 H 269.304 -2.7272 -2.83526 0
M  V30 2834 H 271.319 -2.80165 -4.09539 0
M  V30 2835 N 270.492 0.636531 -1.44174 0
M  V30 2836 C 271.422 1.76003 -1.53444 0
M  V30 2837 C 272.403 1.65619 -0.387841 0
M  V30 2838 O 273.588 1.84461 -0.607257 0
M  V30 2839 C 270.718 3.14511 -1.4731 0
M  V30 2840 C 269.672 3.39677 -2.60391 0
M  V30 2841 C 268.998 4.78159 -2.39308 0
M  V30 2842 C 270.298 3.32772 -4.02567 0
M  V30 2843 H 271.992 1.68501 -2.47483 0
M  V30 2844 H 269.538 0.809237 -1.19111 0
M  V30 2845 H 271.491 3.92878 -1.52397 0
M  V30 2846 H 270.215 3.22783 -0.49785 0
M  V30 2847 H 268.874 2.63688 -2.54684 0
M  V30 2848 H 268.522 4.83128 -1.39988 0
M  V30 2849 H 268.222 4.95956 -3.15122 0
M  V30 2850 H 269.746 5.58762 -2.46205 0
M  V30 2851 H 271.16 4.01051 -4.09672 0
M  V30 2852 H 269.557 3.62104 -4.7854 0
M  V30 2853 H 270.627 2.30669 -4.2652 0
M  V30 2854 N 271.97 1.30982 0.876444 0
M  V30 2855 C 273.2 1.23063 1.65949 0
M  V30 2856 C 273.608 -0.207537 1.88058 0
M  V30 2857 O 272.951 -1.14781 1.43426 0
M  V30 2858 C 273.013 1.89768 3.05333 0
M  V30 2859 C 272.677 3.39106 3.0636 0
M  V30 2860 C 273.674 4.3496 2.84791 0
M  V30 2861 C 271.359 3.80693 3.27686 0
M  V30 2862 C 273.353 5.70375 2.84519 0
M  V30 2863 C 271.04 5.16223 3.27043 0
M  V30 2864 C 272.038 6.10875 3.05485 0
M  V30 2865 O 271.726 7.43928 3.04674 0
M  V30 2866 H 271.458 0.426685 0.524324 0
M  V30 2867 H 274.012 1.7329 1.10271 0
M  V30 2868 H 272.242 1.34082 3.6271 0
M  V30 2869 H 273.931 1.75853 3.65829 0
M  V30 2870 H 274.697 4.0416 2.68103 0
M  V30 2871 H 270.576 3.07457 3.43499 0
M  V30 2872 H 274.12 6.44228 2.67611 0
M  V30 2873 H 270.017 5.4666 3.43269 0
M  V30 2874 H 270.785 7.53022 3.2078 0
M  V30 2875 N 273.449 -1.08991 1.13837 0
M  V30 2876 C 274.412 -2.13925 0.822715 0
M  V30 2877 C 275.412 -1.599 -0.1699 0
M  V30 2878 O 276.602 -1.74104 0.0577251 0
M  V30 2879 C 273.734 -3.40155 0.225318 0
M  V30 2880 H 274.927 -2.43358 1.75262 0
M  V30 2881 H 272.48 -1.24603 0.943594 0
M  V30 2882 H 273.215 -3.16352 -0.713594 0
M  V30 2883 H 273 -3.80661 0.940193 0
M  V30 2884 H 274.49 -4.17594 0.0214784 0
M  V30 2885 N 274.927 -0.932562 -1.27047 0
M  V30 2886 C 276.175 -0.574422 -1.93765 0
M  V30 2887 C 276.496 0.887993 -1.73608 0
M  V30 2888 O 275.766 1.62999 -1.08665 0
M  V30 2889 H 274.346 -0.209451 -0.717035 0
M  V30 2890 H 277.008 -1.18601 -1.5466 0
M  V30 2891 H 276.104 -0.784841 -3.02071 0
M  V30 2892 N 276.405 1.4127 -0.698611 0
M  V30 2893 C 277.651 2.01478 -0.231207 0
M  V30 2894 C 277.984 1.55215 1.16713 0
M  V30 2895 O 277.259 0.764672 1.78838 0
M  V30 2896 C 277.542 3.58912 -0.292281 0
M  V30 2897 C 277.395 4.15293 -1.72778 0
M  V30 2898 C 278.714 4.38736 0.346194 0
M  V30 2899 H 275.833 0.732025 -0.0854878 0
M  V30 2900 H 278.475 1.67977 -0.887906 0
M  V30 2901 H 276.625 3.87582 0.26686 0
M  V30 2902 H 278.297 3.97486 -2.341 0
M  V30 2903 H 276.54 3.7022 -2.26096 0
M  V30 2904 H 277.211 5.24452 -1.72202 0
M  V30 2905 H 279.687 4.15897 -0.130035 0
M  V30 2906 H 278.563 5.48221 0.272932 0
M  V30 2907 H 278.824 4.18425 1.42734 0
M  V30 2908 N 277.883 0.443576 1.51229 0
M  V30 2909 C 278.83 -0.364716 2.279 0
M  V30 2910 C 279.8 -1.0114 1.31757 0
M  V30 2911 O 280.985 -1.02912 1.60667 0
M  V30 2912 C 278.125 -1.45644 3.12861 0
M  V30 2913 C 277.238 -0.827269 4.24005 0
M  V30 2914 C 276.373 -1.89456 4.96266 0
M  V30 2915 C 275.412 -1.24416 5.99322 0
M  V30 2916 N 274.549 -2.25309 6.64966 0
M  V30 2917 H 279.389 0.295464 2.96532 0
M  V30 2918 H 276.926 0.157554 1.46254 0
M  V30 2919 H 278.884 -2.10076 3.6045 0
M  V30 2920 H 277.514 -2.08616 2.46331 0
M  V30 2921 H 276.566 -0.0710839 3.80334 0
M  V30 2922 H 277.878 -0.312481 4.9782 0
M  V30 2923 H 277.032 -2.61535 5.47434 0
M  V30 2924 H 275.771 -2.4431 4.22095 0
M  V30 2925 H 274.776 -0.508868 5.4744 0
M  V30 2926 H 276.001 -0.702882 6.75453 0
M  V30 2927 H 273.947 -2.79231 5.93604 0
M  V30 2928 H 273.864 -1.78739 7.34567 0
M  V30 2929 H 275.132 -2.96853 7.20763 0
M  V30 2930 N 279.361 -1.56624 0.175154 0
M  V30 2931 C 280.61 -1.96173 -0.468921 0
M  V30 2932 C 280.923 -1.06401 -1.64128 0
M  V30 2933 O 282.129 -1.35648 -2.35185 0
M  V30 2934 C 280.585 -3.48833 -0.885633 0
M  V30 2935 C 280.193 -4.47237 0.261343 0
M  V30 2936 C 281.937 -3.97194 -1.49791 0
M  V30 2937 C 279.844 -5.9114 -0.175214 0
M  V30 2938 H 278.774 -0.732455 -0.178958 0
M  V30 2939 H 281.425 -1.81591 0.263997 0
M  V30 2940 H 279.807 -3.58848 -1.67464 0
M  V30 2941 H 280.981 -4.4894 1.03871 0
M  V30 2942 H 279.296 -4.08956 0.783827 0
M  V30 2943 H 281.893 -5.02167 -1.83665 0
M  V30 2944 H 282.236 -3.40351 -2.39722 0
M  V30 2945 H 282.769 -3.90212 -0.773267 0
M  V30 2946 H 279.508 -6.51865 0.689414 0
M  V30 2947 H 279.028 -5.92735 -0.91786 0
M  V30 2948 H 280.707 -6.44044 -0.617792 0
M  V30 2949 N 280.839 0.0985539 -1.57292 0
M  V30 2950 C 281.802 1.10402 -2.00858 0
M  V30 2951 C 282.802 1.33146 -0.901593 0
M  V30 2952 O 283.992 1.29318 -1.16716 0
M  V30 2953 C 281.124 2.45394 -2.36632 0
M  V30 2954 H 282.317 0.729099 -2.90902 0
M  V30 2955 H 279.87 0.343495 -1.52479 0
M  V30 2956 H 280.605 2.87769 -1.49531 0
M  V30 2957 H 280.39 2.30235 -3.17387 0
M  V30 2958 H 281.88 3.17718 -2.71007 0
M  V30 2959 N 282.317 1.53212 0.369288 0
M  V30 2960 C 283.565 1.68881 1.11012 0
M  V30 2961 C 283.886 0.441285 1.89941 0
M  V30 2962 O 283.156 -0.544623 1.88177 0
M  V30 2963 H 281.736 0.622569 0.412816 0
M  V30 2964 H 284.398 1.90391 0.416802 0
M  V30 2965 H 283.494 2.54822 1.80201 0
M  V30 2966 N 283.795 -0.628877 1.44509 0
M  V30 2967 C 285.023 -1.41554 1.50897 0
M  V30 2968 C 285.438 -1.8832 0.134564 0
M  V30 2969 O 284.795 -1.60969 -0.859965 0
M  V30 2970 C 284.846 -2.63435 2.47556 0
M  V30 2971 O 284.567 -2.18619 3.79654 0
M  V30 2972 C 286.068 -3.56537 2.63431 0
M  V30 2973 H 283.288 -0.434044 0.511709 0
M  V30 2974 H 285.832 -0.768895 1.89495 0
M  V30 2975 H 283.987 -3.24187 2.12089 0
M  V30 2976 H 284.401 -2.97652 4.31861 0
M  V30 2977 H 285.875 -4.38657 3.35088 0
M  V30 2978 H 286.352 -4.05493 1.68738 0
M  V30 2979 H 286.958 -3.01653 2.9981 0
M  V30 2980 N 285.273 -1.31445 -0.869486 0
M  V30 2981 C 286.221 -1.19067 -1.99814 0
M  V30 2982 C 287.215 -0.0988569 -1.69111 0
M  V30 2983 O 288.421 -0.260781 -1.78101 0
M  V30 2984 H 284.796 -0.368677 -0.655425 0
M  V30 2985 H 286.767 -2.14555 -2.07385 0
M  V30 2986 C 285.516 -0.915323 -3.35436 0
M  V30 2987 H 284.839 -1.74759 -3.59582 0
M  V30 2988 H 286.279 -0.868895 -4.15001 0
M  V30 2989 C 284.738 0.381928 -3.34728 0
M  V30 2990 O 285.268 1.39857 -3.76567 0
M  V30 2991 N 283.474 0.398633 -2.87853 0
M  V30 2992 H 283.021 -0.429186 -2.54 0
M  V30 2993 H 282.979 1.26651 -2.87762 0
M  V30 2994 N 286.751 1.08385 -1.14413 0
M  V30 2995 C 287.714 2.13486 -0.834048 0
M  V30 2996 C 288.714 1.59988 0.161418 0
M  V30 2997 O 289.904 1.74071 -0.0669575 0
M  V30 2998 C 287.036 3.4003 -0.243354 0
M  V30 2999 H 288.229 2.42425 -1.7655 0
M  V30 3000 H 285.782 1.24101 -0.950189 0
M  V30 3001 H 286.517 3.16726 0.696807 0
M  V30 3002 H 286.302 3.80157 -0.960367 0
M  V30 3003 H 287.792 4.17577 -0.0436242 0
M  V30 3004 N 288.23 0.939286 1.26551 0
M  V30 3005 C 289.14 0.453432 2.30176 0
M  V30 3006 C 290.156 -0.471649 1.67486 0
M  V30 3007 O 291.332 -0.35164 1.98306 0
M  V30 3008 C 288.397 -0.275326 3.45605 0
M  V30 3009 C 287.458 0.686084 4.23782 0
M  V30 3010 C 286.691 -0.00798994 5.33699 0
M  V30 3011 O 286.914 -1.22528 5.57085 0
M  V30 3012 O 285.848 0.669746 5.98162 0
M  V30 3013 H 289.674 1.31416 2.73795 0
M  V30 3014 H 287.259 0.705095 1.31715 0
M  V30 3015 H 289.141 -0.685911 4.1578 0
M  V30 3016 H 287.816 -1.11147 3.0402 0
M  V30 3017 H 286.723 1.14658 3.56096 0
M  V30 3018 H 288.056 1.48979 4.69112 0
M  V30 3019 N 289.708 -1.40897 0.706093 0
M  V30 3020 C 290.954 -2.01352 0.241889 0
M  V30 3021 C 291.287 -1.55832 -1.15888 0
M  V30 3022 O 290.562 -0.774145 -1.7843 0
M  V30 3023 C 290.845 -3.58752 0.311311 0
M  V30 3024 C 290.698 -4.1437 1.74978 0
M  V30 3025 C 292.017 -4.38914 -0.322922 0
M  V30 3026 H 289.136 -0.731562 0.0893687 0
M  V30 3027 H 291.778 -1.67504 0.896802 0
M  V30 3028 H 289.928 -3.87718 -0.246302 0
M  V30 3029 H 291.6 -3.96239 2.36205 0
M  V30 3030 H 289.843 -3.69016 2.28057 0
M  V30 3031 H 290.514 -5.23532 1.74981 0
M  V30 3032 H 292.99 -4.15822 0.152089 0
M  V30 3033 H 291.866 -5.48358 -0.243855 0
M  V30 3034 H 292.127 -4.19176 -1.40513 0
M  V30 3035 N 291.186 -0.45159 -1.50991 0
M  V30 3036 C 292.119 0.398179 -2.24699 0
M  V30 3037 C 293.097 1.01276 -1.27208 0
M  V30 3038 O 294.281 1.05247 -1.56382 0
M  V30 3039 C 291.408 1.55618 -3.00833 0
M  V30 3040 C 290.454 1.0609 -4.13095 0
M  V30 3041 S 291.287 -0.00865136 -5.35499 0
M  V30 3042 C 292.443 1.15369 -6.15175 0
M  V30 3043 H 292.676 -0.227555 -2.96428 0
M  V30 3044 H 290.209 -0.236251 -1.52582 0
M  V30 3045 H 292.167 2.21997 -3.45293 0
M  V30 3046 H 290.828 2.15337 -2.28667 0
M  V30 3047 H 290.021 1.92726 -4.65696 0
M  V30 3048 H 289.623 0.47513 -3.7097 0
M  V30 3049 H 291.915 2.06925 -6.45126 0
M  V30 3050 H 292.858 0.667344 -7.04948 0
M  V30 3051 H 293.266 1.3987 -5.46897 0
M  V30 3052 N 292.664 1.56529 -0.183458 0
M  V30 3053 C 294.075 1.83739 0.331177 0
M  V30 3054 C 294.426 1.10373 1.62211 0
M  V30 3055 O 293.551 0.36071 2.13373 0
M  V30 3056 C 294.146 3.33306 0.607646 0
M  V30 3057 C 292.705 3.60969 1.06668 0
M  V30 3058 C 291.852 2.77086 0.109029 0
M  V30 3059 H 294.803 1.53379 -0.407484 0
M  V30 3060 H 294.824 3.51444 1.45832 0
M  V30 3061 H 294.336 3.86677 -0.332086 0
M  V30 3062 H 292.437 3.13021 2.0211 0
M  V30 3063 H 292.55 4.69231 0.967447 0
M  V30 3064 H 290.914 2.47319 0.608714 0
M  V30 3065 H 291.697 3.33241 -0.82494 0
M  V30 3066 N 294.142 -0.090211 1.57342 0
M  V30 3067 C 295.105 -1.09335 2.01441 0
M  V30 3068 C 296.105 -1.32666 0.908641 0
M  V30 3069 O 297.295 -1.28697 1.174 0
M  V30 3070 C 294.427 -2.44136 2.3793 0
M  V30 3071 H 295.62 -0.713662 2.91285 0
M  V30 3072 H 293.173 -0.335404 1.52659 0
M  V30 3073 H 293.908 -2.86972 1.51055 0
M  V30 3074 H 293.693 -2.28548 3.18603 0
M  V30 3075 H 295.183 -3.16277 2.72688 0
M  V30 3076 N 295.62 -1.53406 -0.361157 0
M  V30 3077 C 296.552 -1.76446 -1.46286 0
M  V30 3078 C 297.565 -0.645322 -1.49464 0
M  V30 3079 O 298.754 -0.921681 -1.52864 0
M  V30 3080 C 295.854 -1.83332 -2.85031 0
M  V30 3081 C 295.027 -3.13033 -3.05498 0
M  V30 3082 C 294.086 -3.11104 -4.24383 0
M  V30 3083 O 293.112 -3.84888 -4.19344 0
M  V30 3084 N 294.314 -2.32234 -5.32022 0
M  V30 3085 H 297.079 -2.71508 -1.26899 0
M  V30 3086 H 294.64 -1.52238 -0.550915 0
M  V30 3087 H 296.632 -1.79514 -3.62708 0
M  V30 3088 H 295.202 -0.955342 -2.97644 0
M  V30 3089 H 294.422 -3.30119 -2.15442 0
M  V30 3090 H 295.71 -3.9874 -3.16044 0
M  V30 3091 H 295.108 -1.71807 -5.38979 0
M  V30 3092 H 293.665 -2.3423 -6.08259 0
M  V30 3093 N 297.098 0.621204 -1.44841 0
M  V30 3094 C 298.344 1.38073 -1.49357 0
M  V30 3095 C 298.699 1.91973 -0.128115 0
M  V30 3096 O 297.992 1.71311 0.858087 0
M  V30 3097 C 298.186 2.55675 -2.4973 0
M  V30 3098 C 298.015 2.13289 -3.95901 0
M  V30 3099 C 296.785 2.001 -4.63991 0
M  V30 3100 C 298.983 1.7159 -4.84831 0
M  V30 3101 N 296.965 1.51381 -5.94943 0
M  V30 3102 C 298.336 1.34188 -6.05304 0
M  V30 3103 C 300.391 1.59059 -4.7181 0
M  V30 3104 C 299.094 0.855085 -7.14199 0
M  V30 3105 C 301.12 1.11784 -5.8074 0
M  V30 3106 C 300.482 0.753385 -7.0036 0
M  V30 3107 H 296.581 0.499675 -0.601539 0
M  V30 3108 H 299.165 0.711609 -1.8123 0
M  V30 3109 H 297.336 3.20201 -2.19832 0
M  V30 3110 H 299.068 3.22509 -2.4448 0
M  V30 3111 H 295.823 2.20863 -4.18947 0
M  V30 3112 H 296.247 1.29293 -6.64539 0
M  V30 3113 H 300.889 1.85865 -3.79755 0
M  V30 3114 H 298.607 0.574552 -8.06055 0
M  V30 3115 H 302.193 1.02533 -5.72694 0
M  V30 3116 H 301.073 0.393183 -7.83214 0
M  V30 3117 N 298.576 1.31904 0.862503 0
M  V30 3118 C 299.486 1.22161 2.00285 0
M  V30 3119 C 300.502 0.136785 1.73462 0
M  V30 3120 O 301.678 0.355994 1.98229 0
M  V30 3121 C 298.743 0.937093 3.33796 0
M  V30 3122 C 297.804 2.10957 3.73893 0
M  V30 3123 C 297.037 1.83853 5.01033 0
M  V30 3124 O 297.26 0.777274 5.65079 0
M  V30 3125 O 296.194 2.69741 5.38074 0
M  V30 3126 H 300.02 2.18008 2.11439 0
M  V30 3127 H 297.605 1.11716 0.991957 0
M  V30 3128 H 299.487 0.794583 4.13841 0
M  V30 3129 H 298.162 0.00871894 3.23699 0
M  V30 3130 H 297.069 2.30752 2.94456 0
M  V30 3131 H 298.402 3.02046 3.88625 0
M  V30 3132 N 300.054 -1.07777 1.14986 0
M  V30 3133 C 301.301 -1.8029 0.922056 0
M  V30 3134 C 301.629 -1.86531 -0.55105 0
M  V30 3135 O 300.884 -1.34189 -1.42449 0
M  V30 3136 C 301.183 -3.25495 1.47608 0
M  V30 3137 C 300.849 -3.39361 2.96893 0
M  V30 3138 C 299.511 -3.42852 3.37647 0
M  V30 3139 C 301.863 -3.42512 3.92854 0
M  V30 3140 C 299.191 -3.47094 4.73015 0
M  V30 3141 C 301.543 -3.4829 5.28088 0
M  V30 3142 C 300.207 -3.50058 5.68345 0
M  V30 3143 H 299.477 -0.659727 0.337404 0
M  V30 3144 H 302.124 -1.26854 1.43459 0
M  V30 3145 H 300.429 -3.81683 0.88463 0
M  V30 3146 H 302.126 -3.80168 1.27568 0
M  V30 3147 H 298.716 -3.37339 2.64387 0
M  V30 3148 H 302.9 -3.3904 3.62444 0
M  V30 3149 H 298.156 -3.46758 5.03556 0
M  V30 3150 H 302.33 -3.49675 6.02246 0
M  V30 3151 H 299.957 -3.53097 6.73221 0
M  V30 3152 N 301.532 -0.945985 -1.26051 0
M  V30 3153 C 302.464 -0.416662 -2.25381 0
M  V30 3154 C 303.477 0.462712 -1.56086 0
M  V30 3155 O 304.666 0.272383 -1.7641 0
M  V30 3156 C 301.766 0.419812 -3.3629 0
M  V30 3157 C 300.939 -0.444531 -4.35135 0
M  V30 3158 C 299.998 0.332305 -5.2515 0
M  V30 3159 O 299.024 -0.266324 -5.68577 0
M  V30 3160 N 300.226 1.62763 -5.57215 0
M  V30 3161 H 302.991 -1.27059 -2.71433 0
M  V30 3162 H 300.552 -0.815392 -1.39868 0
M  V30 3163 H 302.544 0.947013 -3.93464 0
M  V30 3164 H 301.114 1.17456 -2.89694 0
M  V30 3165 H 300.334 -1.15291 -3.76964 0
M  V30 3166 H 301.622 -1.03478 -4.98166 0
M  V30 3167 H 301.02 2.13603 -5.23823 0
M  V30 3168 H 299.577 2.10097 -6.17011 0
M  V30 3169 N 303.011 1.40521 -0.713556 0
M  V30 3170 C 304.26 2.00155 -0.249192 0
M  V30 3171 C 304.573 1.57224 1.16362 0
M  V30 3172 O 305.779 2.09542 1.72639 0
M  V30 3173 C 304.235 3.5773 -0.3946 0
M  V30 3174 C 303.843 4.09635 -1.81392 0
M  V30 3175 C 305.587 4.24499 0.00907364 0
M  V30 3176 C 303.494 5.59707 -1.91003 0
M  V30 3177 H 302.424 0.74868 -0.0894114 0
M  V30 3178 H 305.075 1.60784 -0.884352 0
M  V30 3179 H 303.457 3.94792 0.30911 0
M  V30 3180 H 304.631 3.83955 -2.54785 0
M  V30 3181 H 302.946 3.55456 -2.16888 0
M  V30 3182 H 305.543 5.34683 -0.0420404 0
M  V30 3183 H 305.886 4.02824 1.05065 0
M  V30 3184 H 306.419 3.92536 -0.645007 0
M  V30 3185 H 303.158 5.86234 -2.93275 0
M  V30 3186 H 302.678 5.87258 -1.22019 0
M  V30 3187 H 304.357 6.24776 -1.6812 0
M  V30 3188 N 304.489 0.459591 1.5075 0
M  V30 3189 C 305.737 -0.0991532 2.01857 0
M  V30 3190 C 306.058 -1.41247 1.34441 0
M  V30 3191 O 305.328 -1.89775 0.486022 0
M  V30 3192 H 303.908 -0.039633 0.745948 0
M  V30 3193 H 306.57 0.607387 1.85194 0
M  V30 3194 H 305.666 -0.258998 3.11023 0
M  V30 3195 N 305.967 -1.56429 0.191757 0
M  V30 3196 C 307.378 -1.83912 -0.321428 0
M  V30 3197 C 307.729 -1.11231 -1.61623 0
M  V30 3198 O 306.854 -0.37202 -2.13178 0
M  V30 3199 C 307.449 -3.33624 -0.589961 0
M  V30 3200 C 306.008 -3.6153 -1.04753 0
M  V30 3201 C 305.155 -2.7714 -0.0943327 0
M  V30 3202 H 308.106 -1.53161 0.415612 0
M  V30 3203 H 308.127 -3.52213 -1.43966 0
M  V30 3204 H 307.639 -3.86495 0.352588 0
M  V30 3205 H 305.74 -3.14089 -2.00447 0
M  V30 3206 H 305.853 -4.69737 -0.942549 0
M  V30 3207 H 304.217 -2.47638 -0.595589 0
M  V30 3208 H 305 -3.32799 0.842601 0
M  V30 3209 N 307.445 0.0818655 -1.57387 0
M  V30 3210 C 308.685 0.788375 -1.88584 0
M  V30 3211 C 309.049 1.75248 -0.784351 0
M  V30 3212 O 310.25 2.50334 -0.979105 0
M  V30 3213 C 308.521 1.48654 -3.25018 0
M  V30 3214 S 310.08 2.22951 -3.7794 0
M  V30 3215 H 306.898 0.262383 -0.660815 0
M  V30 3216 H 309.5 0.0448995 -1.95448 0
M  V30 3217 H 308.204 0.770919 -4.03094 0
M  V30 3218 H 307.735 2.26965 -3.21326 0
M  V30 3219 H 309.75 3.49309 -3.52417 0
M  V30 3220 N 308.923 1.53595 0.353017 0
M  V30 3221 C 309.833 1.83897 1.45667 0
M  V30 3222 C 310.849 0.728334 1.58023 0
M  V30 3223 O 312.025 1.01968 1.73679 0
M  V30 3224 C 309.09 2.03383 2.80778 0
M  V30 3225 C 308.151 3.27262 2.77845 0
M  V30 3226 C 307.384 3.45809 4.06512 0
M  V30 3227 O 307.607 2.68387 5.03314 0
M  V30 3228 O 306.541 4.39207 4.11559 0
M  V30 3229 H 310.367 2.77686 1.2298 0
M  V30 3230 H 307.952 1.39132 0.544308 0
M  V30 3231 H 309.834 2.17698 3.60812 0
M  V30 3232 H 308.509 1.12783 3.03417 0
M  V30 3233 H 307.416 3.18359 1.96465 0
M  V30 3234 H 308.749 4.17824 2.60161 0
M  V30 3235 N 310.401 -0.613514 1.45168 0
M  V30 3236 C 311.649 -1.36997 1.48581 0
M  V30 3237 C 311.97 -1.94589 0.126545 0
M  V30 3238 O 311.24 -1.76816 -0.843372 0
M  V30 3239 H 309.82 -0.508558 0.547154 0
M  V30 3240 H 312.482 -0.720853 1.81079 0
M  V30 3241 H 311.578 -2.1924 2.22127 0
M  V30 3242 N 311.879 -1.3236 -0.855495 0
M  V30 3243 C 313.128 -1.22226 -1.60448 0
M  V30 3244 C 313.441 0.214733 -1.94418 0
M  V30 3245 O 314.647 0.437917 -2.67945 0
M  V30 3246 C 313.103 -2.14063 -2.89318 0
M  V30 3247 C 312.711 -3.62839 -2.62777 0
M  V30 3248 C 314.455 -2.12764 -3.67331 0
M  V30 3249 C 312.362 -4.4664 -3.87643 0
M  V30 3250 H 311.292 -0.453904 -0.602069 0
M  V30 3251 H 313.943 -1.57314 -0.944698 0
M  V30 3252 H 312.325 -1.71889 -3.5675 0
M  V30 3253 H 313.499 -4.1335 -2.03662 0
M  V30 3254 H 311.814 -3.66261 -1.98096 0
M  V30 3255 H 314.411 -2.72611 -4.59987 0
M  V30 3256 H 314.754 -1.11841 -4.00995 0
M  V30 3257 H 315.287 -2.53214 -3.06802 0
M  V30 3258 H 312.026 -5.48373 -3.5912 0
M  V30 3259 H 311.546 -4.0088 -4.46156 0
M  V30 3260 H 313.225 -4.59597 -4.55389 0
M  V30 3261 N 313.357 1.07166 -1.15556 0
M  V30 3262 C 314.582 1.84053 -0.955988 0
M  V30 3263 C 315.007 1.81586 0.490739 0
M  V30 3264 O 314.365 1.21018 1.34997 0
M  V30 3265 C 314.413 3.28957 -1.47714 0
M  V30 3266 O 313.517 4.06795 -0.677593 0
M  V30 3267 H 312.858 0.569842 -0.340847 0
M  V30 3268 H 315.388 1.35178 -1.53584 0
M  V30 3269 H 315.398 3.79788 -1.4908 0
M  V30 3270 H 314.073 3.30068 -2.53037 0
M  V30 3271 H 312.65 3.6561 -0.733721 0
M  V30 3272 N 314.835 0.952656 1.25548 0
M  V30 3273 C 315.768 0.415525 2.24385 0
M  V30 3274 C 316.746 -0.502046 1.54655 0
M  V30 3275 O 317.93 -0.436875 1.83368 0
M  V30 3276 C 315.057 -0.401734 3.36309 0
M  V30 3277 C 314.103 0.455949 4.24056 0
M  V30 3278 S 314.936 1.88698 5.01152 0
M  V30 3279 C 316.092 1.07809 6.16545 0
M  V30 3280 H 316.325 1.25315 2.69599 0
M  V30 3281 H 313.858 0.756587 1.34592 0
M  V30 3282 H 315.816 -0.867329 4.01233 0
M  V30 3283 H 314.477 -1.21416 2.89684 0
M  V30 3284 H 313.67 -0.170776 5.03711 0
M  V30 3285 H 313.272 0.856675 3.64056 0
M  V30 3286 H 315.564 0.325816 6.76716 0
M  V30 3287 H 316.507 1.84849 6.83547 0
M  V30 3288 H 316.915 0.60909 5.61204 0
M  V30 3289 N 316.313 -1.40141 0.720998 0
M  V30 3290 C 317.561 -2.0039 0.262323 0
M  V30 3291 C 317.882 -1.57469 -1.15015 0
M  V30 3292 O 317.152 -0.816582 -1.78069 0
M  V30 3293 H 315.732 -0.741063 0.093996 0
M  V30 3294 H 318.394 -1.71398 0.927835 0
M  V30 3295 H 317.49 -3.10658 0.299671 0
M  V30 3296 N 317.792 -0.46758 -1.50504 0
M  V30 3297 C 319.069 0.15003 -1.95024 0
M  V30 3298 C 319.449 1.57304 -1.40779 0
M  V30 3299 O 318.797 2.20281 -0.607319 0
M  V30 3300 C 319.007 0.0969324 -3.48865 0
M  V30 3301 C 320.355 0.287565 -4.23625 0
M  V30 3302 O 321.379 0.173678 -3.55776 0
M  V30 3303 O 320.238 0.517186 -5.44047 0
M  V30 3304 H 317.332 0.113582 -0.819163 0
M  V30 3305 H 319.878 -0.52773 -1.61286 0
M  V30 3306 H 318.65 -0.896732 -3.80886 0
M  V30 3307 H 318.273 0.816303 -3.8913 0
M  V30 3308 N 319.27 1.56325 -0.20005 0
M  V30 3309 C 320.22 2.15939 0.731743 0
M  V30 3310 C 321.204 1.10154 1.17281 0
M  V30 3311 O 322.396 1.36203 1.13038 0
M  V30 3312 C 319.525 2.82614 1.94895 0
M  V30 3313 C 318.611 3.95596 1.52855 0
M  V30 3314 N 319.002 4.99118 0.819418 0
M  V30 3315 C 317.3 4.07288 1.81748 0
M  V30 3316 C 318.001 5.78513 0.608053 0
M  V30 3317 N 316.977 5.31117 1.15828 0
M  V30 3318 H 320.779 2.9334 0.181285 0
M  V30 3319 H 318.293 1.624 -0.000452172 0
M  V30 3320 H 320.29 3.23718 2.62702 0
M  V30 3321 H 318.95 2.06702 2.50408 0
M  V30 3322 H 319.961 5.15723 0.47436 0
M  V30 3323 H 316.638 3.42509 2.38734 0
M  V30 3324 H 318.028 6.71885 0.0451619 0
M  V30 3325 N 320.748 -0.0735177 1.57428 0
M  V30 3326 C 321.678 -1.0879 2.06608 0
M  V30 3327 C 322.659 -1.40473 0.959237 0
M  V30 3328 O 323.844 -1.5013 1.23185 0
M  V30 3329 C 320.974 -2.40183 2.50857 0
M  V30 3330 C 319.928 -2.22858 3.65402 0
M  V30 3331 C 319.254 -3.59619 3.957 0
M  V30 3332 C 320.554 -1.65123 4.95511 0
M  V30 3333 H 322.248 -0.678673 2.91607 0
M  V30 3334 H 319.794 -0.325013 1.40284 0
M  V30 3335 H 321.747 -3.11437 2.83874 0
M  V30 3336 H 320.471 -2.83083 1.62885 0
M  V30 3337 H 319.13 -1.54045 3.32664 0
M  V30 3338 H 318.778 -4.00086 3.04861 0
M  V30 3339 H 318.478 -3.48866 4.72828 0
M  V30 3340 H 320.002 -4.32306 4.31212 0
M  V30 3341 H 321.416 -2.26241 5.26771 0
M  V30 3342 H 319.813 -1.65071 5.7695 0
M  V30 3343 H 320.883 -0.612559 4.81015 0
M  V30 3344 N 322.226 -1.5378 -0.344866 0
M  V30 3345 C 323.472 -1.72158 -1.0832 0
M  V30 3346 C 323.827 -0.478218 -1.86362 0
M  V30 3347 O 323.12 0.529152 -1.84148 0
M  V30 3348 C 323.314 -2.92407 -2.05506 0
M  V30 3349 C 323.143 -4.28318 -1.37017 0
M  V30 3350 C 321.913 -4.92832 -1.11558 0
M  V30 3351 C 324.111 -5.08086 -0.797071 0
M  V30 3352 N 322.093 -6.12619 -0.396358 0
M  V30 3353 C 323.464 -6.1965 -0.208336 0
M  V30 3354 C 325.519 -4.92986 -0.697787 0
M  V30 3355 C 324.222 -7.17763 0.470023 0
M  V30 3356 C 326.248 -5.91391 -0.033171 0
M  V30 3357 C 325.61 -7.02292 0.544599 0
M  V30 3358 H 321.709 -0.683017 -0.380805 0
M  V30 3359 H 324.293 -1.91211 -0.366961 0
M  V30 3360 H 322.464 -2.74857 -2.74423 0
M  V30 3361 H 324.196 -2.9951 -2.72169 0
M  V30 3362 H 320.951 -4.52362 -1.40234 0
M  V30 3363 H 321.375 -6.7698 -0.0515119 0
M  V30 3364 H 326.017 -4.07414 -1.13022 0
M  V30 3365 H 323.735 -8.0291 0.914351 0
M  V30 3366 H 327.321 -5.81784 0.0430009 0
M  V30 3367 H 326.201 -7.77129 1.05073 0
M  V30 3368 N 323.704 0.605807 -1.45491 0
M  V30 3369 C 324.95 1.36679 -1.49823 0
M  V30 3370 C 325.283 1.93693 -0.140175 0
M  V30 3371 O 324.558 1.75158 0.845581 0
M  V30 3372 C 324.841 2.51337 -2.57879 0
M  V30 3373 C 324.694 1.99508 -4.03134 0
M  V30 3374 C 326.013 3.53463 -2.62205 0
M  V30 3375 H 323.132 0.495617 -0.545466 0
M  V30 3376 H 325.774 0.682732 -1.7731 0
M  V30 3377 H 323.924 3.09691 -2.34571 0
M  V30 3378 H 325.596 1.45789 -4.37656 0
M  V30 3379 H 323.839 1.30496 -4.13707 0
M  V30 3380 H 324.51 2.82169 -4.74431 0
M  V30 3381 H 326.986 3.04953 -2.83095 0
M  V30 3382 H 325.862 4.31178 -3.39672 0
M  V30 3383 H 326.123 4.09197 -1.67363 0
M  V30 3384 N 325.182 1.32811 0.848464 0
M  V30 3385 C 326.145 1.22194 1.9391 0
M  V30 3386 C 327.145 0.143404 1.60159 0
M  V30 3387 O 328.335 0.394253 1.6968 0
M  V30 3388 C 325.467 0.88067 3.29328 0
M  V30 3389 H 326.66 2.19127 2.04752 0
M  V30 3390 H 324.213 1.16731 1.0394 0
M  V30 3391 H 324.948 -0.0865776 3.24184 0
M  V30 3392 H 324.733 1.66052 3.55203 0
M  V30 3393 H 326.223 0.830871 4.09251 0
M  V30 3394 N 326.66 -1.06551 1.16123 0
M  V30 3395 C 328.076 -1.3142 0.905585 0
M  V30 3396 C 328.276 -1.96571 -0.442964 0
M  V30 3397 O 327.332 -2.23068 -1.18308 0
M  V30 3398 C 328.645 -2.19741 2.05267 0
M  V30 3399 C 330.193 -2.33165 2.08813 0
M  V30 3400 C 330.668 -3.24838 3.22868 0
M  V30 3401 N 332.159 -3.32421 3.22568 0
M  V30 3402 C 332.894 -4.0344 4.0746 0
M  V30 3403 N 332.39 -4.77003 5.02434 0
M  V30 3404 N 334.183 -3.99464 3.95456 0
M  V30 3405 H 326.334 -0.626548 2.02949 0
M  V30 3406 H 328.597 -0.338777 0.8854 0
M  V30 3407 H 328.303 -1.79142 3.02657 0
M  V30 3408 H 328.177 -3.20313 1.99198 0
M  V30 3409 H 330.564 -2.73013 1.12018 0
M  V30 3410 H 330.645 -1.3227 2.18948 0
M  V30 3411 H 330.289 -2.85708 4.19921 0
M  V30 3412 H 330.219 -4.25707 3.0997 0
M  V30 3413 H 332.71 -2.79994 2.53795 0
M  V30 3414 H 333.023 -5.28712 5.63634 0
M  V30 3415 H 331.368 -4.75992 5.06415 0
M  V30 3416 H 334.559 -3.4111 3.20564 0
M  V30 3417 H 334.732 -4.54544 4.61837 0
M  V30 3418 N 328.138 -0.959301 -1.25041 0
M  V30 3419 C 329.385 -0.616611 -1.92884 0
M  V30 3420 C 329.713 0.847036 -1.75087 0
M  V30 3421 O 328.968 1.62374 -1.09239 0
M  V30 3422 C 329.267 -0.927136 -3.45165 0
M  V30 3423 C 328.933 -2.37757 -3.83122 0
M  V30 3424 C 327.595 -2.77402 -3.93194 0
M  V30 3425 C 329.947 -3.31929 -4.01836 0
M  V30 3426 C 327.275 -4.10277 -4.19392 0
M  V30 3427 C 329.627 -4.64423 -4.29528 0
M  V30 3428 C 328.291 -5.03857 -4.37818 0
M  V30 3429 H 327.561 -0.225634 -0.705812 0
M  V30 3430 H 330.208 -1.20921 -1.48493 0
M  V30 3431 H 328.513 -0.252195 -3.90987 0
M  V30 3432 H 330.21 -0.6405 -3.95852 0
M  V30 3433 H 326.8 -2.06013 -3.75841 0
M  V30 3434 H 330.984 -3.02488 -3.93465 0
M  V30 3435 H 326.24 -4.40467 -4.24027 0
M  V30 3436 H 330.414 -5.37369 -4.42953 0
M  V30 3437 H 328.041 -6.06843 -4.57871 0
M  V30 3438 N 329.616 1.39756 -0.72842 0
M  V30 3439 C 330.865 1.99879 -0.270407 0
M  V30 3440 C 331.178 1.58449 1.14688 0
M  V30 3441 O 332.384 2.11362 1.70407 0
M  V30 3442 C 330.84 3.57292 -0.43252 0
M  V30 3443 C 330.448 4.07688 -1.85727 0
M  V30 3444 C 332.192 4.24485 -0.0359507 0
M  V30 3445 C 330.099 5.5765 -1.96928 0
M  V30 3446 H 329.029 0.747689 -0.0973472 0
M  V30 3447 H 331.68 1.59837 -0.901355 0
M  V30 3448 H 330.062 3.95097 0.267219 0
M  V30 3449 H 331.236 3.81231 -2.58843 0
M  V30 3450 H 329.551 3.53135 -2.20646 0
M  V30 3451 H 332.148 5.34609 -0.0987484 0
M  V30 3452 H 332.491 4.03915 1.00787 0
M  V30 3453 H 333.024 3.9183 -0.686604 0
M  V30 3454 H 329.763 5.8309 -2.99476 0
M  V30 3455 H 329.283 5.8593 -1.28241 0
M  V30 3456 H 330.962 6.22957 -1.74737 0
M  V30 3457 N 331.094 0.475555 1.50254 0
M  V30 3458 C 332.024 -0.30611 2.31485 0
M  V30 3459 C 333.005 -0.986228 1.38591 0
M  V30 3460 O 334.19 -0.982541 1.67511 0
M  V30 3461 C 331.32 -1.38588 3.1845 0
M  V30 3462 C 330.274 -0.827115 4.19932 0
M  V30 3463 C 329.6 -2.00551 4.95665 0
M  V30 3464 C 330.9 0.16463 5.2204 0
M  V30 3465 H 332.594 0.371866 2.97082 0
M  V30 3466 H 330.14 0.180282 1.42867 0
M  V30 3467 H 332.093 -1.94023 3.74076 0
M  V30 3468 H 330.817 -2.09269 2.50747 0
M  V30 3469 H 329.476 -0.294702 3.65414 0
M  V30 3470 H 329.124 -2.6994 4.2443 0
M  V30 3471 H 328.824 -1.63784 5.64313 0
M  V30 3472 H 330.348 -2.56468 5.54127 0
M  V30 3473 H 331.762 -0.300699 5.72511 0
M  V30 3474 H 330.159 0.446813 5.98434 0
M  V30 3475 H 331.229 1.08905 4.72512 0
M  V30 3476 N 332.573 -1.56217 0.208337 0
M  V30 3477 C 333.523 -2.16324 -0.720281 0
M  V30 3478 C 334.507 -1.10775 -1.16695 0
M  V30 3479 O 335.699 -1.36801 -1.12314 0
M  V30 3480 C 332.828 -2.83644 -1.93393 0
M  V30 3481 C 331.914 -3.96401 -1.50755 0
M  V30 3482 N 332.305 -4.99546 -0.792937 0
M  V30 3483 C 330.603 -4.08246 -1.79585 0
M  V30 3484 C 331.304 -5.78828 -0.577364 0
M  V30 3485 N 330.28 -5.31723 -1.1301 0
M  V30 3486 H 334.082 -2.93432 -0.165725 0
M  V30 3487 H 331.596 -1.62397 0.00906463 0
M  V30 3488 H 333.593 -3.25107 -2.60981 0
M  V30 3489 H 332.253 -2.08027 -2.49308 0
M  V30 3490 H 333.264 -5.15967 -0.447004 0
M  V30 3491 H 329.941 -3.4377 -2.36915 0
M  V30 3492 H 331.331 -6.71899 -0.00952956 0
M  V30 3493 N 334.051 0.0651679 -1.57465 0
M  V30 3494 C 335.467 0.420105 -1.53972 0
M  V30 3495 C 335.667 1.78782 -0.929474 0
M  V30 3496 O 334.723 2.46771 -0.534839 0
M  V30 3497 C 336.036 0.355084 -2.98596 0
M  V30 3498 C 337.584 0.434792 -3.09965 0
M  V30 3499 C 338.059 0.399609 -4.56253 0
M  V30 3500 N 339.55 0.459488 -4.60915 0
M  V30 3501 C 340.285 0.454584 -5.71595 0
M  V30 3502 N 339.781 0.404102 -6.9162 0
M  V30 3503 N 341.574 0.501635 -5.59857 0
M  V30 3504 H 333.725 -0.830328 -1.95498 0
M  V30 3505 H 335.988 -0.312244 -0.895102 0
M  V30 3506 H 335.694 -0.583357 -3.46828 0
M  V30 3507 H 335.568 1.16275 -3.58831 0
M  V30 3508 H 337.955 1.36366 -2.61703 0
M  V30 3509 H 338.036 -0.40157 -2.52628 0
M  V30 3510 H 337.68 -0.525436 -5.05175 0
M  V30 3511 H 337.61 1.25359 -5.11461 0
M  V30 3512 H 340.101 0.502482 -3.74544 0
M  V30 3513 H 340.414 0.404468 -7.71741 0
M  V30 3514 H 338.759 0.37069 -6.94011 0
M  V30 3515 H 341.95 0.538812 -4.64989 0
M  V30 3516 H 342.123 0.494345 -6.46112 0
M  V30 3517 N 335.529 1.53961 0.336706 0
M  V30 3518 C 336.775 1.7179 1.07777 0
M  V30 3519 C 337.108 0.483263 1.88091 0
M  V30 3520 O 336.383 -0.519747 1.87427 0
M  V30 3521 C 336.666 2.98558 2.01334 0
M  V30 3522 C 336.519 4.32245 1.24437 0
M  V30 3523 C 337.838 3.21023 3.01052 0
M  V30 3524 H 334.957 0.625089 0.390426 0
M  V30 3525 H 337.599 1.86641 0.35567 0
M  V30 3526 H 335.749 2.86028 2.62908 0
M  V30 3527 H 337.421 4.56637 0.654243 0
M  V30 3528 H 335.664 4.30344 0.546458 0
M  V30 3529 H 336.335 5.17137 1.93063 0
M  V30 3530 H 338.811 3.32929 2.49595 0
M  V30 3531 H 337.687 4.11104 3.6371 0
M  V30 3532 H 337.948 2.37637 3.72802 0
M  V30 3533 N 337.007 -0.598083 1.45811 0
M  V30 3534 C 338.247 -1.36802 1.5187 0
M  V30 3535 C 338.611 -1.9133 0.160224 0
M  V30 3536 O 339.812 -2.6863 0.0955302 0
M  V30 3537 C 338.083 -2.47835 2.57513 0
M  V30 3538 S 339.642 -3.35458 2.82866 0
M  V30 3539 H 336.46 -0.466278 0.536755 0
M  V30 3540 H 339.062 -0.689152 1.82951 0
M  V30 3541 H 337.766 -2.06141 3.54872 0
M  V30 3542 H 337.297 -3.20512 2.28114 0
M  V30 3543 H 339.312 -4.46251 2.16967 0
M  V30 3544 N 338.485 -1.33259 -0.841409 0
M  V30 3545 C 339.395 -1.25332 -1.98316 0
M  V30 3546 C 340.411 -0.164364 -1.73222 0
M  V30 3547 O 341.587 -0.387486 -1.97637 0
M  V30 3548 C 338.652 -0.990078 -3.32262 0
M  V30 3549 C 337.713 -2.16879 -3.70489 0
M  V30 3550 C 336.946 -1.91801 -4.98044 0
M  V30 3551 O 337.169 -0.867075 -5.63771 0
M  V30 3552 O 336.103 -2.78267 -5.33714 0
M  V30 3553 H 339.929 -2.21344 -2.07944 0
M  V30 3554 H 337.514 -1.1328 -0.974058 0
M  V30 3555 H 339.396 -0.860321 -4.12524 0
M  V30 3556 H 338.071 -0.0602155 -3.23644 0
M  V30 3557 H 336.978 -2.35407 -2.90748 0
M  V30 3558 H 338.311 -3.0819 -3.8377 0
M  V30 3559 N 339.963 1.05934 -1.16686 0
M  V30 3560 C 341.24 1.75643 -0.860747 0
M  V30 3561 C 341.62 2.01144 0.640641 0
M  V30 3562 O 340.968 1.64147 1.58959 0
M  V30 3563 C 341.178 3.05493 -1.68745 0
M  V30 3564 C 342.526 3.79581 -1.90271 0
M  V30 3565 O 343.55 3.15344 -1.65641 0
M  V30 3566 O 342.409 4.9499 -2.31618 0
M  V30 3567 H 339.503 0.763426 -0.317977 0
M  V30 3568 H 342.049 1.1217 -1.27342 0
M  V30 3569 H 340.821 2.8264 -2.70611 0
M  V30 3570 H 340.444 3.76702 -1.27206 0
M  V30 3571 N 341.441 0.965919 1.2453 0
M  V30 3572 C 342.688 0.626831 1.92554 0
M  V30 3573 C 343.016 -0.837739 1.75534 0
M  V30 3574 O 342.271 -1.61793 1.10098 0
M  V30 3575 C 342.57 0.945428 3.44669 0
M  V30 3576 C 342.236 2.39785 3.81856 0
M  V30 3577 C 340.898 2.79483 3.91718 0
M  V30 3578 C 343.25 3.34055 4.00071 0
M  V30 3579 C 340.578 4.12496 4.1721 0
M  V30 3580 C 342.93 4.66694 4.27059 0
M  V30 3581 C 341.594 5.06172 4.3514 0
M  V30 3582 H 340.864 0.229374 0.704605 0
M  V30 3583 H 343.511 1.21707 1.4785 0
M  V30 3584 H 341.816 0.272926 3.90848 0
M  V30 3585 H 343.513 0.661484 3.95507 0
M  V30 3586 H 340.103 2.08003 3.74743 0
M  V30 3587 H 344.287 3.04571 3.91855 0
M  V30 3588 H 339.543 4.42709 4.21685 0
M  V30 3589 H 343.717 5.3971 4.40097 0
M  V30 3590 H 341.344 6.09262 4.54646 0
M  V30 3591 N 342.919 -1.39368 0.735821 0
M  V30 3592 C 344.167 -2.00101 0.283562 0
M  V30 3593 C 344.488 -1.5868 -1.13338 0
M  V30 3594 O 343.758 -0.835423 -1.77193 0
M  V30 3595 H 342.338 -0.740024 0.101851 0
M  V30 3596 H 345 -1.70404 0.945962 0
M  V30 3597 H 344.096 -3.10323 0.332604 0
M  V30 3598 N 344.397 -0.483516 -1.5 0
M  V30 3599 C 345.643 0.0672592 -2.02688 0
M  V30 3600 C 345.976 1.38247 -1.36387 0
M  V30 3601 O 345.251 1.88131 -0.493675 0
M  V30 3602 C 345.534 0.238109 -3.59312 0
M  V30 3603 C 345.387 -1.099 -4.36168 0
M  V30 3604 C 346.706 0.986916 -4.28892 0
M  V30 3605 H 343.825 0.0229696 -0.736642 0
M  V30 3606 H 346.467 -0.631527 -1.79197 0
M  V30 3607 H 344.617 0.8333 -3.79458 0
M  V30 3608 H 346.289 -1.73172 -4.27562 0
M  V30 3609 H 344.532 -1.69261 -3.99416 0
M  V30 3610 H 345.203 -0.932954 -5.44059 0
M  V30 3611 H 347.679 0.482302 -4.13295 0
M  V30 3612 H 346.555 1.07527 -5.38265 0
M  V30 3613 H 346.816 2.0265 -3.92919 0
M  V30 3614 N 345.875 1.56104 -0.216619 0
M  V30 3615 C 347.124 1.97348 0.416744 0
M  V30 3616 C 347.437 1.10715 1.6125 0
M  V30 3617 O 348.643 1.41836 2.31506 0
M  V30 3618 C 347.099 3.51059 0.792835 0
M  V30 3619 C 346.707 4.46387 -0.379828 0
M  V30 3620 C 348.451 4.01026 1.39208 0
M  V30 3621 C 346.358 5.91397 0.0184223 0
M  V30 3622 H 345.288 0.736942 0.159475 0
M  V30 3623 H 347.939 1.80827 -0.31205 0
M  V30 3624 H 346.321 3.63162 1.57891 0
M  V30 3625 H 347.495 4.46029 -1.15737 0
M  V30 3626 H 345.81 4.06734 -0.891979 0
M  V30 3627 H 348.407 5.0686 1.70286 0
M  V30 3628 H 348.75 3.46587 2.30614 0
M  V30 3629 H 349.283 3.92125 0.669537 0
M  V30 3630 H 346.022 6.49807 -0.862002 0
M  V30 3631 H 345.542 5.94961 0.760384 0
M  V30 3632 H 347.221 6.45455 0.446818 0
M  V30 3633 N 347.353 -0.0568162 1.57498 0
M  V30 3634 C 348.316 -1.05038 2.03715 0
M  V30 3635 C 349.316 -1.30709 0.936577 0
M  V30 3636 O 350.506 -1.26178 1.20103 0
M  V30 3637 C 347.638 -2.39034 2.43055 0
M  V30 3638 H 348.831 -0.651715 2.92733 0
M  V30 3639 H 346.384 -0.302947 1.53336 0
M  V30 3640 H 347.119 -2.83703 1.57108 0
M  V30 3641 H 346.904 -2.21739 3.2338 0
M  V30 3642 H 348.394 -3.10421 2.79336 0
M  V30 3643 N 348.832 -1.54138 -0.328536 0
M  V30 3644 C 350.06 -1.76062 -1.08673 0
M  V30 3645 C 350.475 -0.506852 -1.81869 0
M  V30 3646 O 349.832 0.522223 -1.74869 0
M  V30 3647 C 349.883 -2.95054 -2.08866 0
M  V30 3648 O 349.604 -4.15583 -1.38644 0
M  V30 3649 C 351.105 -3.2915 -2.96943 0
M  V30 3650 H 348.325 -0.587889 -0.323461 0
M  V30 3651 H 350.869 -2.0101 -0.376175 0
M  V30 3652 H 349.024 -2.72394 -2.75464 0
M  V30 3653 H 349.438 -4.82481 -2.05699 0
M  V30 3654 H 350.912 -4.15723 -3.63151 0
M  V30 3655 H 351.389 -2.461 -3.63774 0
M  V30 3656 H 351.995 -3.53871 -2.35914 0
M  V30 3657 N 350.31 0.590341 -1.46126 0
M  V30 3658 C 351.557 1.34882 -1.5104 0
M  V30 3659 C 351.885 1.93849 -0.159021 0
M  V30 3660 O 351.14 1.76544 0.844436 0
M  V30 3661 C 351.439 2.5032 -2.55097 0
M  V30 3662 C 351.105 2.09394 -3.99331 0
M  V30 3663 C 349.767 1.97947 -4.38601 0
M  V30 3664 C 352.119 1.77712 -4.89967 0
M  V30 3665 C 349.447 1.53065 -5.66381 0
M  V30 3666 C 351.799 1.34312 -6.18177 0
M  V30 3667 C 350.463 1.21436 -6.56361 0
M  V30 3668 H 349.733 0.493568 -0.552695 0
M  V30 3669 H 352.38 0.665539 -1.79563 0
M  V30 3670 H 350.685 3.24062 -2.20207 0
M  V30 3671 H 352.382 3.08541 -2.56132 0
M  V30 3672 H 348.972 2.19235 -3.68285 0
M  V30 3673 H 353.156 1.85445 -4.60352 0
M  V30 3674 H 348.412 1.41733 -5.94745 0
M  V30 3675 H 352.586 1.08849 -6.87841 0
M  V30 3676 H 350.213 0.864345 -7.5527 0
M  V30 3677 N 351.788 1.33704 0.83433 0
M  V30 3678 C 353.065 1.16011 1.57483 0
M  V30 3679 C 353.445 -0.27176 2.09343 0
M  V30 3680 O 352.793 -1.27146 1.89858 0
M  V30 3681 C 353.003 2.20507 2.70514 0
M  V30 3682 C 354.351 2.54898 3.39577 0
M  V30 3683 O 355.375 2.19209 2.80759 0
M  V30 3684 O 354.234 3.16158 4.45765 0
M  V30 3685 H 351.328 0.448992 0.694503 0
M  V30 3686 H 353.874 1.453 0.876691 0
M  V30 3687 H 352.646 3.16667 2.29865 0
M  V30 3688 H 352.269 1.92329 3.47987 0
M  V30 3689 N 353.266 -1.05314 1.17247 0
M  V30 3690 C 354.677 -1.59753 0.96623 0
M  V30 3691 C 355.028 -1.9005 -0.487378 0
M  V30 3692 O 354.153 -1.68126 -1.36245 0
M  V30 3693 C 354.748 -2.90249 1.74759 0
M  V30 3694 C 353.307 -3.41352 1.58606 0
M  V30 3695 C 352.454 -2.15103 1.75002 0
M  V30 3696 H 355.405 -0.881406 1.31973 0
M  V30 3697 H 355.426 -3.60097 1.22925 0
M  V30 3698 H 354.938 -2.68166 2.8055 0
M  V30 3699 H 353.039 -3.68474 0.552985 0
M  V30 3700 H 353.152 -4.16019 2.37624 0
M  V30 3701 H 351.516 -2.25804 1.17833 0
M  V30 3702 H 352.299 -1.95491 2.82202 0
M  V30 3703 N 354.744 -0.972509 -1.24016 0
M  V30 3704 C 355.691 -0.505969 -2.25186 0
M  V30 3705 C 356.661 0.451009 -1.5986 0
M  V30 3706 O 357.846 0.360307 -1.87367 0
M  V30 3707 C 354.986 0.193089 -3.44559 0
M  V30 3708 C 354.099 -0.803222 -4.24467 0
M  V30 3709 C 353.234 -0.0797793 -5.3114 0
M  V30 3710 C 352.273 -1.06583 -6.02749 0
M  V30 3711 N 351.41 -0.372074 -7.01113 0
M  V30 3712 H 356.25 -1.37351 -2.64459 0
M  V30 3713 H 353.787 -0.688419 -1.29997 0
M  V30 3714 H 355.745 0.615125 -4.1264 0
M  V30 3715 H 354.375 1.02455 -3.06109 0
M  V30 3716 H 353.427 -1.34368 -3.55878 0
M  V30 3717 H 354.739 -1.55494 -4.73944 0
M  V30 3718 H 353.893 0.400015 -6.0538 0
M  V30 3719 H 352.632 0.704597 -4.82583 0
M  V30 3720 H 351.637 -1.55645 -5.27309 0
M  V30 3721 H 352.862 -1.85074 -6.53395 0
M  V30 3722 H 350.808 0.393238 -6.5482 0
M  V30 3723 H 350.725 -1.06258 -7.48495 0
M  V30 3724 H 351.993 0.0855932 -7.79453 0
M  V30 3725 N 356.222 1.38976 -0.743202 0
M  V30 3726 C 357.633 1.83123 -0.363732 0
M  V30 3727 C 357.984 1.6205 1.10609 0
M  V30 3728 O 357.109 1.11606 1.854 0
M  V30 3729 C 357.704 3.32439 -0.653408 0
M  V30 3730 C 356.263 3.74974 -0.327338 0
M  V30 3731 C 355.41 2.61878 -0.911875 0
M  V30 3732 H 358.361 1.27852 -0.940191 0
M  V30 3733 H 358.382 3.80432 0.0720031 0
M  V30 3734 H 357.894 3.47745 -1.72323 0
M  V30 3735 H 355.995 3.65252 0.736314 0
M  V30 3736 H 356.108 4.72106 -0.815631 0
M  V30 3737 H 354.472 2.52448 -0.337944 0
M  V30 3738 H 355.255 2.79987 -1.98651 0
M  V30 3739 N 357.7 0.491464 1.49741 0
M  V30 3740 C 358.949 -0.0582189 2.01616 0
M  V30 3741 C 359.262 -1.38927 1.3769 0
M  V30 3742 O 360.468 -2.02509 1.80838 0
M  V30 3743 C 358.924 -0.154235 3.59569 0
M  V30 3744 C 358.532 1.1696 4.32463 0
M  V30 3745 C 360.276 -0.65479 4.1942 0
M  V30 3746 C 358.183 1.03627 5.8225 0
M  V30 3747 H 357.113 -0.0255317 0.753568 0
M  V30 3748 H 359.764 0.629445 1.72367 0
M  V30 3749 H 358.146 -0.906138 3.85493 0
M  V30 3750 H 359.32 1.93405 4.18248 0
M  V30 3751 H 357.635 1.60285 3.84315 0
M  V30 3752 H 360.232 -0.771903 5.29099 0
M  V30 3753 H 360.575 -1.65127 3.8215 0
M  V30 3754 H 361.108 0.040304 3.9778 0
M  V30 3755 H 357.847 2.00672 6.24028 0
M  V30 3756 H 357.367 0.312546 5.98985 0
M  V30 3757 H 359.046 0.711114 6.4308 0
M  V30 3758 N 359.178 -1.55987 0.224894 0
M  V30 3759 C 360.589 -1.84553 -0.282345 0
M  V30 3760 C 360.94 -1.14634 -1.59227 0
M  V30 3761 O 360.065 -0.417155 -2.12341 0
M  V30 3762 C 360.66 -3.348 -0.519062 0
M  V30 3763 C 359.219 -3.63671 -0.970604 0
M  V30 3764 C 358.366 -2.77277 -0.0355261 0
M  V30 3765 H 361.317 -1.52245 0.448006 0
M  V30 3766 H 361.338 -3.55187 -1.36463 0
M  V30 3767 H 360.85 -3.8566 0.43449 0
M  V30 3768 H 358.951 -3.1827 -1.9374 0
M  V30 3769 H 359.064 -4.71631 -0.842698 0
M  V30 3770 H 357.428 -2.48846 -0.542927 0
M  V30 3771 H 358.211 -3.30937 0.913003 0
M  V30 3772 N 360.656 0.0484629 -1.57525 0
M  V30 3773 C 361.904 0.741657 -1.88 0
M  V30 3774 C 362.225 1.76918 -0.820054 0
M  V30 3775 O 361.495 1.95335 0.148661 0
M  V30 3776 H 360.075 0.276908 -0.69378 0
M  V30 3777 H 362.737 0.019013 -1.94891 0
M  V30 3778 H 361.833 1.24336 -2.86264 0
M  V30 3779 N 362.134 1.5431 0.320358 0
M  V30 3780 C 363.082 1.84647 1.4145 0
M  V30 3781 C 364.076 0.718624 1.53402 0
M  V30 3782 O 365.282 0.902335 1.5575 0
M  V30 3783 H 361.657 0.585349 0.472091 0
M  V30 3784 H 363.628 2.7614 1.13089 0
M  V30 3785 C 362.377 2.09341 2.77617 0
M  V30 3786 H 361.7 2.9559 2.69196 0
M  V30 3787 H 363.14 2.3452 3.53237 0
M  V30 3788 C 361.599 0.885939 3.25043 0
M  V30 3789 O 362.129 0.0967891 4.01583 0
M  V30 3790 N 360.335 0.696682 2.82125 0
M  V30 3791 H 359.882 1.34006 2.2 0
M  V30 3792 H 359.84 -0.109712 3.14209 0
M  V30 3793 N 363.613 -0.582584 1.46437 0
M  V30 3794 C 364.859 -1.34064 1.52965 0
M  V30 3795 C 365.214 -1.91566 0.178968 0
M  V30 3796 O 364.507 -1.73526 -0.812365 0
M  V30 3797 C 364.701 -2.48964 2.56421 0
M  V30 3798 C 364.53 -2.02717 4.01417 0
M  V30 3799 C 363.3 -1.87728 4.69134 0
M  V30 3800 C 365.498 -1.58675 4.8921 0
M  V30 3801 N 363.48 -1.35554 5.98747 0
M  V30 3802 C 364.851 -1.18093 6.08649 0
M  V30 3803 C 366.906 -1.46494 4.75861 0
M  V30 3804 C 365.609 -0.665427 7.16215 0
M  V30 3805 C 367.635 -0.96347 5.83499 0
M  V30 3806 C 366.997 -0.567432 7.02111 0
M  V30 3807 H 363.096 -0.483551 0.614575 0
M  V30 3808 H 365.68 -0.663309 1.83053 0
M  V30 3809 H 363.851 -3.1426 2.28244 0
M  V30 3810 H 365.583 -3.15913 2.52944 0
M  V30 3811 H 362.338 -2.09678 4.24655 0
M  V30 3812 H 362.762 -1.11628 6.67734 0
M  V30 3813 H 367.404 -1.75731 3.8455 0
M  V30 3814 H 365.122 -0.360639 8.07295 0
M  V30 3815 H 368.708 -0.873129 5.75211 0
M  V30 3816 H 367.588 -0.185389 7.83981 0
M  V30 3817 N 365.091 -1.34144 -0.827227 0
M  V30 3818 C 366.039 -1.25364 -1.95925 0
M  V30 3819 C 367.033 -0.152608 -1.68711 0
M  V30 3820 O 368.239 -0.317311 -1.77181 0
M  V30 3821 H 364.614 -0.389342 -0.643364 0
M  V30 3822 H 366.585 -2.21045 -2.00454 0
M  V30 3823 C 365.334 -1.02158 -3.32354 0
M  V30 3824 H 364.657 -1.86111 -3.5384 0
M  V30 3825 H 366.097 -1.00048 -4.12027 0
M  V30 3826 C 364.556 0.275244 -3.35774 0
M  V30 3827 O 365.086 1.27806 -3.80826 0
M  V30 3828 N 363.292 0.306853 -2.88975 0
M  V30 3829 H 362.839 -0.509777 -2.52506 0
M  V30 3830 H 362.797 1.17432 -2.91646 0
M  V30 3831 N 366.569 1.04691 -1.17803 0
M  V30 3832 C 367.817 1.7743 -0.967617 0
M  V30 3833 C 368.138 1.88359 0.504574 0
M  V30 3834 O 367.408 1.40402 1.36617 0
M  V30 3835 H 365.988 0.657242 -0.355024 0
M  V30 3836 H 368.65 1.2638 -1.48371 0
M  V30 3837 H 367.746 2.78924 -1.40027 0
M  V30 3838 N 368.047 0.979072 1.23499 0
M  V30 3839 C 369.01 0.523244 2.23147 0
M  V30 3840 C 370.01 -0.386406 1.56088 0
M  V30 3841 O 371.2 -0.180283 1.73265 0
M  V30 3842 C 368.332 -0.240739 3.40049 0
M  V30 3843 H 369.525 1.40432 2.64989 0
M  V30 3844 H 367.078 0.764824 1.36309 0
M  V30 3845 H 367.813 -1.13841 3.03662 0
M  V30 3846 H 367.598 0.412207 3.89927 0
M  V30 3847 H 369.088 -0.548297 4.13985 0
M  V30 3848 N 369.525 -1.3858 0.750561 0
M  V30 3849 C 370.773 -1.99789 0.30477 0
M  V30 3850 C 371.094 -1.59874 -1.11649 0
M  V30 3851 O 370.364 -0.85417 -1.76297 0
M  V30 3852 H 368.944 -0.738902 0.109694 0
M  V30 3853 H 371.606 -1.69391 0.963983 0
M  V30 3854 H 370.702 -3.09952 0.365499 0
M  V30 3855 N 371.003 -0.499398 -1.49478 0
M  V30 3856 C 372.243 0.0440751 -2.04352 0
M  V30 3857 C 372.607 1.34423 -1.37093 0
M  V30 3858 O 373.808 1.97184 -1.82679 0
M  V30 3859 C 372.079 0.194918 -3.56868 0
M  V30 3860 S 373.638 0.69287 -4.33295 0
M  V30 3861 H 370.456 0.00253458 -0.710995 0
M  V30 3862 H 373.058 -0.673 -1.83551 0
M  V30 3863 H 371.762 -0.756672 -4.03364 0
M  V30 3864 H 371.293 0.93728 -3.82071 0
M  V30 3865 H 373.308 1.96226 -4.55752 0
M  V30 3866 N 372.481 1.55866 -0.233164 0
M  V30 3867 C 373.431 2.17442 0.685774 0
M  V30 3868 C 374.415 1.12617 1.14918 0
M  V30 3869 O 375.607 1.3857 1.10124 0
M  V30 3870 C 372.736 2.86685 1.88856 0
M  V30 3871 C 371.822 3.98749 1.4443 0
M  V30 3872 N 372.213 5.00744 0.713364 0
M  V30 3873 C 370.511 4.11052 1.73068 0
M  V30 3874 C 371.212 5.79673 0.485205 0
M  V30 3875 N 370.188 5.33454 1.04536 0
M  V30 3876 H 373.99 2.93659 0.119022 0
M  V30 3877 H 371.504 1.62362 -0.0348995 0
M  V30 3878 H 373.501 3.29218 2.55776 0
M  V30 3879 H 372.161 2.11967 2.45967 0
M  V30 3880 H 373.172 5.16613 0.364861 0
M  V30 3881 H 369.849 3.47495 2.31416 0
M  V30 3882 H 371.239 6.71829 -0.097365 0
M  V30 3883 N 373.959 -0.0401083 1.57549 0
M  V30 3884 C 375.187 -0.745196 1.93014 0
M  V30 3885 C 375.602 -1.6948 0.831984 0
M  V30 3886 O 374.959 -1.81482 -0.192463 0
M  V30 3887 C 375.01 -1.51176 3.28372 0
M  V30 3888 O 374.731 -0.600284 4.33968 0
M  V30 3889 C 376.232 -2.315 3.78051 0
M  V30 3890 H 373.452 -0.210088 0.637263 0
M  V30 3891 H 375.996 -0.000924689 2.045 0
M  V30 3892 H 374.151 -2.20801 3.18317 0
M  V30 3893 H 374.565 -1.13669 5.12035 0
M  V30 3894 H 376.039 -2.80697 4.75303 0
M  V30 3895 H 376.516 -3.12436 3.08675 0
M  V30 3896 H 377.122 -1.66971 3.91153 0
M  V30 3897 N 375.437 -1.54477 -0.31217 0
M  V30 3898 C 376.385 -1.85395 -1.40469 0
M  V30 3899 C 377.379 -0.726749 -1.53019 0
M  V30 3900 O 378.585 -0.910582 -1.55269 0
M  V30 3901 H 374.96 -0.587845 -0.46898 0
M  V30 3902 H 376.931 -2.76736 -1.11623 0
M  V30 3903 C 375.68 -2.10811 -2.76503 0
M  V30 3904 H 375.003 -2.97014 -2.67625 0
M  V30 3905 H 376.443 -2.3639 -3.51988 0
M  V30 3906 C 374.902 -0.903165 -3.24568 0
M  V30 3907 O 375.432 -0.118085 -4.01526 0
M  V30 3908 N 373.638 -0.711634 -2.81752 0
M  V30 3909 H 373.185 -1.35171 -2.19286 0
M  V30 3910 H 373.143 0.0930473 -3.14262 0
M  V30 3911 N 376.915 0.57481 -1.46744 0
M  V30 3912 C 378.162 1.33272 -1.52462 0
M  V30 3913 C 378.49 1.93669 -0.179572 0
M  V30 3914 O 377.745 1.7743 0.825664 0
M  V30 3915 C 378.044 2.476 -2.57738 0
M  V30 3916 C 377.71 2.05146 -4.01529 0
M  V30 3917 C 376.372 1.93284 -4.40676 0
M  V30 3918 C 378.724 1.72506 -4.91824 0
M  V30 3919 C 376.052 1.47049 -5.67973 0
M  V30 3920 C 378.404 1.27748 -6.19567 0
M  V30 3921 C 377.068 1.14468 -6.57612 0
M  V30 3922 H 376.338 0.487678 -0.557899 0
M  V30 3923 H 378.985 0.646456 -1.80259 0
M  V30 3924 H 377.29 3.21708 -2.23632 0
M  V30 3925 H 378.987 3.05807 -2.5939 0
M  V30 3926 H 375.577 2.15316 -3.7059 0
M  V30 3927 H 379.761 1.80552 -4.62293 0
M  V30 3928 H 375.017 1.35417 -5.96215 0
M  V30 3929 H 379.191 1.01547 -6.88957 0
M  V30 3930 H 376.818 0.78419 -7.56145 0
M  V30 3931 N 378.394 1.34581 0.820102 0
M  V30 3932 C 379.619 1.30333 1.61332 0
M  V30 3933 C 380.044 -0.119339 1.87721 0
M  V30 3934 O 379.402 -1.08197 1.45475 0
M  V30 3935 C 379.45 2.10258 2.92957 0
M  V30 3936 O 378.554 1.47404 3.85157 0
M  V30 3937 H 377.895 0.447488 0.490561 0
M  V30 3938 H 380.425 1.77425 1.01889 0
M  V30 3939 H 380.435 2.21718 3.42498 0
M  V30 3940 H 379.11 3.13693 2.73074 0
M  V30 3941 H 377.687 1.44703 3.43679 0
M  V30 3942 N 379.872 -1.04064 1.18357 0
M  V30 3943 C 381.1 -1.80916 1.00384 0
M  V30 3944 C 381.515 -1.83414 -0.447738 0
M  V30 3945 O 380.872 -1.26962 -1.31099 0
M  V30 3946 C 380.923 -3.26516 1.55144 0
M  V30 3947 O 380.644 -3.2424 2.94618 0
M  V30 3948 C 382.145 -4.20013 1.41789 0
M  V30 3949 H 379.365 -0.569728 0.354474 0
M  V30 3950 H 381.909 -1.31151 1.56906 0
M  V30 3951 H 380.064 -3.73512 1.02798 0
M  V30 3952 H 380.478 -4.15452 3.20156 0
M  V30 3953 H 381.952 -5.20111 1.84901 0
M  V30 3954 H 382.429 -4.37667 0.36661 0
M  V30 3955 H 383.035 -3.78881 1.93207 0
M  V30 3956 N 381.35 -0.985608 -1.22978 0
M  V30 3957 C 382.297 -0.529825 -2.24636 0
M  V30 3958 C 383.267 0.434028 -1.60329 0
M  V30 3959 O 384.452 0.340414 -1.87739 0
M  V30 3960 C 381.592 0.156533 -3.44745 0
M  V30 3961 C 380.705 -0.848197 -4.23591 0
M  V30 3962 C 379.84 -0.136109 -5.31026 0
M  V30 3963 C 378.879 -1.1297 -6.01585 0
M  V30 3964 N 378.016 -0.446415 -7.00679 0
M  V30 3965 H 382.856 -1.40148 -2.62988 0
M  V30 3966 H 380.393 -0.702168 -1.29259 0
M  V30 3967 H 382.351 0.571324 -4.1327 0
M  V30 3968 H 380.981 0.992025 -3.07179 0
M  V30 3969 H 380.033 -1.38135 -3.54433 0
M  V30 3970 H 381.345 -1.60512 -4.72268 0
M  V30 3971 H 380.499 0.335784 -6.0577 0
M  V30 3972 H 379.238 0.653373 -4.83304 0
M  V30 3973 H 378.243 -1.6123 -5.25628 0
M  V30 3974 H 379.468 -1.91993 -6.51395 0
M  V30 3975 H 377.414 0.323763 -6.55201 0
M  V30 3976 H 377.331 -1.1419 -7.47326 0
M  V30 3977 H 378.599 0.00291697 -7.795 0
M  V30 3978 N 382.828 1.3818 -0.7579 0
M  V30 3979 C 383.791 2.28764 -0.141286 0
M  V30 3980 C 384.791 1.47388 0.642907 0
M  V30 3981 O 385.981 1.67781 0.468536 0
M  V30 3982 C 383.113 3.31184 0.808069 0
M  V30 3983 H 384.306 2.848 -0.939633 0
M  V30 3984 H 381.859 1.47212 -0.525191 0
M  V30 3985 H 382.594 2.80247 1.63193 0
M  V30 3986 H 382.379 3.91314 0.248104 0
M  V30 3987 H 383.869 3.98909 1.23536 0
M  V30 3988 N 384.306 0.507319 1.49211 0
M  V30 3989 C 385.239 -0.314509 2.26022 0
M  V30 3990 C 386.217 -0.964849 1.30879 0
M  V30 3991 O 387.401 -0.993707 1.6018 0
M  V30 3992 C 384.528 -1.44346 3.06402 0
M  V30 3993 C 383.574 -0.90685 4.16748 0
M  V30 3994 S 384.407 0.207392 5.35098 0
M  V30 3995 C 385.563 -0.924573 6.19033 0
M  V30 3996 H 385.796 0.337416 2.95379 0
M  V30 3997 H 383.329 0.292718 1.516 0
M  V30 3998 H 385.287 -2.09029 3.53295 0
M  V30 3999 H 383.948 -2.06702 2.36502 0
M  V30 4000 H 383.141 -1.75309 4.72528 0
M  V30 4001 H 382.743 -0.33712 3.72478 0
M  V30 4002 H 385.035 -1.82839 6.52362 0
M  V30 4003 H 385.978 -0.405248 7.06939 0
M  V30 4004 H 386.386 -1.19476 5.51712 0
M  V30 4005 N 385.784 -1.5574 0.241426 0
M  V30 4006 C 387.2 -1.59196 -0.113548 0
M  V30 4007 C 387.4 -1.25852 -1.57364 0
M  V30 4008 O 386.456 -1.00322 -2.31715 0
M  V30 4009 C 387.769 -2.99814 0.230695 0
M  V30 4010 C 389.317 -3.12513 0.174547 0
M  V30 4011 C 389.792 -4.55342 0.492744 0
M  V30 4012 N 391.283 -4.61076 0.443043 0
M  V30 4013 C 392.018 -5.6956 0.662484 0
M  V30 4014 N 391.514 -6.86328 0.944761 0
M  V30 4015 N 393.307 -5.58957 0.593564 0
M  V30 4016 H 385.458 -1.75685 1.19368 0
M  V30 4017 H 387.721 -0.81756 0.479896 0
M  V30 4018 H 387.427 -3.28932 1.24485 0
M  V30 4019 H 387.301 -3.74568 -0.444833 0
M  V30 4020 H 389.688 -2.83179 -0.830277 0
M  V30 4021 H 389.769 -2.40045 0.883845 0
M  V30 4022 H 389.413 -4.85396 1.4951 0
M  V30 4023 H 389.343 -5.26062 -0.23797 0
M  V30 4024 H 391.834 -3.77179 0.233374 0
M  V30 4025 H 392.147 -7.64935 1.09977 0
M  V30 4026 H 390.492 -6.88025 0.982175 0
M  V30 4027 H 393.683 -4.66611 0.373123 0
M  V30 4028 H 393.856 -6.43433 0.767981 0
M  V30 4029 N 387.262 0.0317525 -1.57568 0
M  V30 4030 C 388.172 1.05021 -2.0978 0
M  V30 4031 C 389.188 1.39809 -1.03583 0
M  V30 4032 O 390.364 1.49182 -1.35302 0
M  V30 4033 C 387.429 2.33301 -2.56459 0
M  V30 4034 C 386.49 2.0512 -3.77127 0
M  V30 4035 C 385.723 3.27283 -4.2157 0
M  V30 4036 O 385.946 4.37861 -3.65559 0
M  V30 4037 O 384.88 3.13141 -5.14029 0
M  V30 4038 H 388.706 0.636505 -2.96955 0
M  V30 4039 H 386.291 0.248559 -1.47318 0
M  V30 4040 H 388.173 3.08722 -2.86825 0
M  V30 4041 H 386.848 2.73973 -1.72397 0
M  V30 4042 H 385.755 1.27276 -3.51784 0
M  V30 4043 H 387.088 1.69305 -4.62165 0
M  V30 4044 N 388.74 1.54641 0.303973 0
M  V30 4045 C 389.65 1.88439 1.39743 0
M  V30 4046 C 390.666 0.778239 1.55626 0
M  V30 4047 O 391.842 1.07442 1.70347 0
M  V30 4048 C 388.907 2.12212 2.74166 0
M  V30 4049 C 387.968 3.35936 2.67293 0
M  V30 4050 C 387.201 3.58566 3.95305 0
M  V30 4051 O 387.424 2.84263 4.9452 0
M  V30 4052 O 386.358 4.52078 3.97378 0
M  V30 4053 H 390.184 2.81458 1.14083 0
M  V30 4054 H 387.769 1.40793 0.499768 0
M  V30 4055 H 389.651 2.29067 3.53704 0
M  V30 4056 H 388.326 1.22379 2.99675 0
M  V30 4057 H 387.233 3.24448 1.86237 0
M  V30 4058 H 388.566 4.2589 2.46736 0
M  V30 4059 N 390.218 -0.567019 1.47046 0
M  V30 4060 C 391.166 -1.69593 1.59188 0
M  V30 4061 C 392.16 -1.63046 0.459609 0
M  V30 4062 O 393.366 -1.6835 0.637058 0
M  V30 4063 H 389.741 -0.560993 0.500791 0
M  V30 4064 H 391.712 -1.56488 2.54075 0
M  V30 4065 C 390.461 -3.07964 1.61411 0
M  V30 4066 H 389.784 -3.13679 2.47881 0
M  V30 4067 H 391.224 -3.86671 1.73958 0
M  V30 4068 C 389.683 -3.35123 0.34559 0
M  V30 4069 O 390.213 -3.97812 -0.557521 0
M  V30 4070 N 388.419 -2.89699 0.22864 0
M  V30 4071 H 387.966 -2.38863 0.964479 0
M  V30 4072 H 387.924 -3.08242 -0.619192 0
M  V30 4073 N 391.696 -1.35014 -0.812953 0
M  V30 4074 C 392.944 -1.27678 -1.56661 0
M  V30 4075 C 393.265 0.150359 -1.94419 0
M  V30 4076 O 392.535 1.08532 -1.63088 0
M  V30 4077 H 391.115 -0.469602 -0.580933 0
M  V30 4078 H 393.777 -1.69043 -0.970076 0
M  V30 4079 H 392.873 -1.88833 -2.48492 0
M  V30 4080 N 393.175 1.03435 -1.18907 0
M  V30 4081 C 394.105 2.13503 -0.945448 0
M  V30 4082 C 395.086 1.69682 0.119189 0
M  V30 4083 O 396.271 1.94169 -0.034707 0
M  V30 4084 C 393.401 3.44004 -0.477316 0
M  V30 4085 C 392.355 4.0148 -1.48316 0
M  V30 4086 C 391.681 5.27537 -0.872311 0
M  V30 4087 C 392.981 4.36921 -2.86177 0
M  V30 4088 H 394.675 2.34141 -1.86597 0
M  V30 4089 H 392.221 1.12523 -0.898584 0
M  V30 4090 H 394.174 4.20372 -0.294204 0
M  V30 4091 H 392.898 3.23072 0.478786 0
M  V30 4092 H 391.557 3.27201 -1.65332 0
M  V30 4093 H 391.205 5.02917 0.0911752 0
M  V30 4094 H 390.905 5.66954 -1.54393 0
M  V30 4095 H 392.429 6.06576 -0.699871 0
M  V30 4096 H 393.843 5.04248 -2.72776 0
M  V30 4097 H 392.24 4.87405 -3.50081 0
M  V30 4098 H 393.31 3.46466 -3.39248 0
M  V30 4099 N 394.653 0.992116 1.22453 0
M  V30 4100 C 395.6 0.541731 2.24352 0
M  V30 4101 C 396.57 -0.425519 1.60557 0
M  V30 4102 O 397.755 -0.330453 1.87917 0
M  V30 4103 C 394.895 -0.138248 3.44823 0
M  V30 4104 C 394.008 0.870649 4.23136 0
M  V30 4105 C 393.143 0.164269 5.30946 0
M  V30 4106 C 392.182 1.16159 6.00977 0
M  V30 4107 N 391.319 0.483568 7.00433 0
M  V30 4108 H 396.159 1.41541 2.62241 0
M  V30 4109 H 393.696 0.709013 1.28885 0
M  V30 4110 H 395.654 -0.5494 4.13567 0
M  V30 4111 H 394.284 -0.975721 3.077 0
M  V30 4112 H 393.336 1.40013 3.53696 0
M  V30 4113 H 394.648 1.63014 4.7141 0
M  V30 4114 H 393.802 -0.303653 6.0594 0
M  V30 4115 H 392.541 -0.627733 4.83643 0
M  V30 4116 H 391.546 1.64015 5.24766 0
M  V30 4117 H 392.771 1.95445 6.50368 0
M  V30 4118 H 390.717 -0.289012 6.55363 0
M  V30 4119 H 390.634 1.18152 7.4671 0
M  V30 4120 H 391.902 0.0384219 7.79491 0
M  V30 4121 N 396.131 -1.37776 0.765217 0
M  V30 4122 C 397.361 -2.03828 0.337277 0
M  V30 4123 C 397.769 -1.57841 -1.04321 0
M  V30 4124 O 397.112 -0.752043 -1.67601 0
M  V30 4125 C 397.174 -3.58292 0.294407 0
M  V30 4126 C 396.838 -4.27384 1.61838 0
M  V30 4127 C 397.835 -4.51956 2.56967 0
M  V30 4128 C 395.52 -4.65345 1.89102 0
M  V30 4129 C 397.514 -5.13536 3.77571 0
M  V30 4130 C 395.201 -5.26647 3.09978 0
M  V30 4131 C 396.199 -5.50679 4.04032 0
M  V30 4132 O 395.887 -6.10702 5.2278 0
M  V30 4133 H 395.619 -0.661292 0.140248 0
M  V30 4134 H 398.173 -1.77222 1.03834 0
M  V30 4135 H 396.403 -3.83918 -0.462983 0
M  V30 4136 H 398.092 -4.05763 -0.105581 0
M  V30 4137 H 398.858 -4.23048 2.37183 0
M  V30 4138 H 394.737 -4.45978 1.16725 0
M  V30 4139 H 398.281 -5.3221 4.50997 0
M  V30 4140 H 394.178 -5.54979 3.29649 0
M  V30 4141 H 394.946 -6.29183 5.23517 0
M  V30 4142 N 397.609 -0.515225 -1.4894 0
M  V30 4143 C 398.858 0.0261361 -2.01683 0
M  V30 4144 C 399.171 1.36719 -1.39883 0
M  V30 4145 O 400.377 1.99606 -1.84037 0
M  V30 4146 C 398.833 0.0970111 -3.59769 0
M  V30 4147 C 398.441 -1.23825 -4.30548 0
M  V30 4148 C 400.185 0.587981 -4.20408 0
M  V30 4149 C 398.092 -1.12877 -5.80528 0
M  V30 4150 H 397.022 0.0135398 -0.753878 0
M  V30 4151 H 399.673 -0.656787 -1.71343 0
M  V30 4152 H 398.055 0.844694 -3.86886 0
M  V30 4153 H 399.229 -2.00034 -4.15118 0
M  V30 4154 H 397.544 -1.66379 -3.81716 0
M  V30 4155 H 400.141 0.68763 -5.3026 0
M  V30 4156 H 400.484 1.59026 -3.84729 0
M  V30 4157 H 401.017 -0.103582 -3.97665 0
M  V30 4158 H 397.756 -2.10575 -6.20756 0
M  V30 4159 H 397.276 -0.407799 -5.98412 0
M  V30 4160 H 398.955 -0.813332 -6.41868 0
M  V30 4161 N 399.087 1.5561 -0.249682 0
M  V30 4162 C 399.997 2.25143 0.659375 0
M  V30 4163 C 401.013 1.2685 1.19101 0
M  V30 4164 O 402.189 1.59732 1.22669 0
M  V30 4165 C 399.254 2.93945 1.8384 0
M  V30 4166 C 398.315 4.07655 1.34596 0
M  V30 4167 C 397.548 4.73167 2.46878 0
M  V30 4168 O 397.771 4.37768 3.65671 0
M  V30 4169 O 396.705 5.61623 2.16478 0
M  V30 4170 H 400.531 3.03545 0.0968698 0
M  V30 4171 H 398.116 1.49389 -0.018074 0
M  V30 4172 H 399.998 3.37271 2.52638 0
M  V30 4173 H 398.673 2.18481 2.38847 0
M  V30 4174 H 397.58 3.68839 0.625174 0
M  V30 4175 H 398.913 4.84946 0.841941 0
M  V30 4176 N 400.565 -0.0233959 1.57583 0
M  V30 4177 C 401.475 -1.03907 2.10334 0
M  V30 4178 C 402.491 -1.39257 1.04323 0
M  V30 4179 O 403.667 -1.48462 1.36091 0
M  V30 4180 C 400.732 -2.31938 2.57693 0
M  V30 4181 C 399.793 -2.03117 3.78209 0
M  V30 4182 C 399.026 -3.25043 4.233 0
M  V30 4183 O 399.249 -4.35916 3.67876 0
M  V30 4184 O 398.183 -3.10411 5.15683 0
M  V30 4185 H 402.009 -0.620748 2.97288 0
M  V30 4186 H 399.594 -0.240743 1.47448 0
M  V30 4187 H 401.476 -3.07196 2.88458 0
M  V30 4188 H 400.151 -2.73055 1.73847 0
M  V30 4189 H 399.058 -1.25408 3.52454 0
M  V30 4190 H 400.391 -1.66852 4.63056 0
M  V30 4191 N 402.043 -1.548 -0.295768 0
M  V30 4192 C 403.006 -1.85363 -1.34808 0
M  V30 4193 C 404.006 -0.726817 -1.43436 0
M  V30 4194 O 405.196 -0.995088 -1.42981 0
M  V30 4195 C 402.328 -2.03859 -2.73229 0
M  V30 4196 H 403.521 -2.7941 -1.08949 0
M  V30 4197 H 401.074 -1.46942 -0.532702 0
M  V30 4198 H 401.809 -1.12117 -3.04303 0
M  V30 4199 H 401.594 -2.8588 -2.68356 0
M  V30 4200 H 403.084 -2.28857 -3.49305 0
M  V30 4201 N 403.521 0.559213 -1.47345 0
M  V30 4202 C 404.77 1.31281 -1.53128 0
M  V30 4203 C 405.083 1.94602 -0.197344 0
M  V30 4204 O 406.289 2.71173 -0.133154 0
M  V30 4205 C 404.745 2.38051 -2.69925 0
M  V30 4206 C 404.353 1.8093 -4.0984 0
M  V30 4207 C 406.097 3.14604 -2.84999 0
M  V30 4208 C 404.004 2.85468 -5.1794 0
M  V30 4209 H 402.934 0.493614 -0.569966 0
M  V30 4210 H 405.585 0.594155 -1.73615 0
M  V30 4211 H 403.967 3.12822 -2.42814 0
M  V30 4212 H 405.141 1.12544 -4.46845 0
M  V30 4213 H 403.456 1.16967 -3.99634 0
M  V30 4214 H 406.053 3.92666 -3.62929 0
M  V30 4215 H 406.396 3.68665 -1.93369 0
M  V30 4216 H 406.929 2.46945 -3.1187 0
M  V30 4217 H 403.668 2.36264 -6.1144 0
M  V30 4218 H 403.188 3.52269 -4.85455 0
M  V30 4219 H 404.867 3.48996 -5.44803 0
M  V30 4220 N 404.999 1.35443 0.805782 0
M  V30 4221 C 405.909 1.30546 1.94923 0
M  V30 4222 C 406.925 0.210233 1.72725 0
M  V30 4223 O 408.101 0.43975 1.9654 0
M  V30 4224 C 405.166 1.07782 3.29521 0
M  V30 4225 C 404.227 2.26625 3.64609 0
M  V30 4226 C 403.46 2.04938 4.92784 0
M  V30 4227 O 403.683 1.01624 5.61274 0
M  V30 4228 O 402.617 2.9232 5.26149 0
M  V30 4229 H 406.443 2.26779 2.02002 0
M  V30 4230 H 404.028 1.15823 0.943682 0
M  V30 4231 H 405.91 0.969392 4.10098 0
M  V30 4232 H 404.585 0.146003 3.23371 0
M  V30 4233 H 403.492 2.43033 2.84404 0
M  V30 4234 H 404.825 3.18257 3.75464 0
M  V30 4235 N 406.477 -1.02803 1.19454 0
M  V30 4236 C 407.424 -2.11099 0.933046 0
M  V30 4237 C 408.394 -1.65571 -0.132447 0
M  V30 4238 O 409.579 -1.90797 0.00987576 0
M  V30 4239 C 406.719 -3.41763 0.478747 0
M  V30 4240 C 405.832 -4.00833 1.6111 0
M  V30 4241 C 404.967 -5.19511 1.10825 0
M  V30 4242 C 404.006 -5.70639 2.21445 0
M  V30 4243 N 403.143 -6.80589 1.72461 0
M  V30 4244 H 407.983 -2.32804 1.86028 0
M  V30 4245 H 405.52 -1.14179 0.927441 0
M  V30 4246 H 407.478 -4.16736 0.196745 0
M  V30 4247 H 406.108 -3.20166 -0.411493 0
M  V30 4248 H 405.16 -3.23066 2.00829 0
M  V30 4249 H 406.472 -4.34794 2.4445 0
M  V30 4250 H 405.626 -6.01645 0.781533 0
M  V30 4251 H 404.365 -4.87086 0.244606 0
M  V30 4252 H 403.37 -4.87116 2.54947 0
M  V30 4253 H 404.595 -6.05102 3.08267 0
M  V30 4254 H 402.541 -6.50016 0.884056 0
M  V30 4255 H 402.458 -7.13681 2.49389 0
M  V30 4256 H 403.726 -7.66317 1.42755 0
M  V30 4257 N 407.956 -0.998596 -1.21925 0
M  V30 4258 C 408.886 -0.573688 -2.26343 0
M  V30 4259 C 409.867 0.402296 -1.65274 0
M  V30 4260 O 411.052 0.291683 -1.91997 0
M  V30 4261 C 408.182 0.106839 -3.47136 0
M  V30 4262 C 407.136 -0.788269 -4.20678 0
M  V30 4263 C 406.462 0.0254927 -5.34694 0
M  V30 4264 C 407.762 -2.08784 -4.78755 0
M  V30 4265 H 409.456 -1.44651 -2.62138 0
M  V30 4266 H 407.002 -0.696975 -1.26009 0
M  V30 4267 H 408.955 0.415531 -4.19346 0
M  V30 4268 H 407.679 1.01424 -3.10452 0
M  V30 4269 H 406.338 -1.08069 -3.50309 0
M  V30 4270 H 405.986 0.933989 -4.94253 0
M  V30 4271 H 405.686 -0.570437 -5.84825 0
M  V30 4272 H 407.21 0.328147 -6.09718 0
M  V30 4273 H 408.624 -1.84272 -5.42878 0
M  V30 4274 H 407.021 -2.63307 -5.39249 0
M  V30 4275 H 408.091 -2.76284 -3.98491 0
M  V30 4276 N 409.434 1.37368 -0.772513 0
M  V30 4277 C 410.659 2.0447 -0.347386 0
M  V30 4278 C 411.084 1.57882 1.0225 0
M  V30 4279 O 410.442 0.73941 1.65537 0
M  V30 4280 C 410.49 3.58369 -0.400479 0
M  V30 4281 O 409.594 4.0803 0.598789 0
M  V30 4282 H 408.935 0.646773 -0.15027 0
M  V30 4283 H 411.465 1.75667 -1.04892 0
M  V30 4284 H 411.475 4.07183 -0.258045 0
M  V30 4285 H 410.15 3.91633 -1.39986 0
M  V30 4286 H 408.727 3.70534 0.419411 0
M  V30 4287 N 410.912 0.523116 1.48665 0
M  V30 4288 C 411.859 -0.243398 2.29513 0
M  V30 4289 C 412.829 -0.940139 1.36933 0
M  V30 4290 O 414.014 -0.942503 1.65896 0
M  V30 4291 C 411.154 -1.28855 3.20141 0
M  V30 4292 C 410.267 -0.60135 4.27794 0
M  V30 4293 C 409.402 -1.62884 5.05611 0
M  V30 4294 C 408.441 -0.924726 6.05075 0
M  V30 4295 N 407.578 -1.89744 6.75975 0
M  V30 4296 H 412.418 0.452234 2.94549 0
M  V30 4297 H 409.955 0.234858 1.45213 0
M  V30 4298 H 411.913 -1.90674 3.71079 0
M  V30 4299 H 410.543 -1.95266 2.57043 0
M  V30 4300 H 409.595 0.130623 3.80176 0
M  V30 4301 H 410.907 -0.0481585 4.98777 0
M  V30 4302 H 410.061 -2.32149 5.60528 0
M  V30 4303 H 408.8 -2.21592 4.34452 0
M  V30 4304 H 407.805 -0.217966 5.49368 0
M  V30 4305 H 409.03 -0.343851 6.78229 0
M  V30 4306 H 406.976 -2.47373 6.07571 0
M  V30 4307 H 406.893 -1.3955 7.43009 0
M  V30 4308 H 408.161 -2.58229 7.35485 0
M  V30 4309 N 412.39 -1.55475 0.257931 0
M  V30 4310 C 413.806 -1.59307 -0.0966563 0
M  V30 4311 C 414.006 -1.27514 -1.5602 0
M  V30 4312 O 413.062 -1.02774 -2.30637 0
M  V30 4313 C 414.375 -2.99552 0.262481 0
M  V30 4314 C 415.923 -3.1231 0.207683 0
M  V30 4315 C 416.398 -4.54793 0.541012 0
M  V30 4316 N 417.889 -4.6058 0.491921 0
M  V30 4317 C 418.624 -5.68825 0.722857 0
M  V30 4318 N 418.12 -6.85287 1.0175 0
M  V30 4319 N 419.913 -5.58296 0.652815 0
M  V30 4320 H 412.064 -1.74409 1.21224 0
M  V30 4321 H 414.327 -0.812424 0.48854 0
M  V30 4322 H 414.033 -3.27593 1.27967 0
M  V30 4323 H 413.907 -3.75019 -0.40508 0
M  V30 4324 H 416.294 -2.84044 -0.800195 0
M  V30 4325 H 416.375 -2.39095 0.909255 0
M  V30 4326 H 416.019 -4.83783 1.5465 0
M  V30 4327 H 415.949 -5.26285 -0.18216 0
M  V30 4328 H 418.44 -3.7691 0.273366 0
M  V30 4329 H 418.753 -7.63725 1.18084 0
M  V30 4330 H 417.098 -6.86945 1.05509 0
M  V30 4331 H 420.289 -4.66189 0.422592 0
M  V30 4332 H 420.462 -6.42582 0.836182 0
M  V30 4333 N 413.868 0.0150385 -1.57593 0
M  V30 4334 C 414.818 1.01943 -2.0394 0
M  V30 4335 C 415.802 1.31209 -0.931286 0
M  V30 4336 O 416.994 1.30559 -1.19513 0
M  V30 4337 C 414.123 2.31621 -2.53391 0
M  V30 4338 C 413.209 2.05384 -3.7105 0
M  V30 4339 N 413.6 1.49253 -4.83278 0
M  V30 4340 C 411.898 2.35601 -3.78693 0
M  V30 4341 C 412.599 1.39143 -5.64813 0
M  V30 4342 N 411.575 1.87187 -5.10355 0
M  V30 4343 H 415.377 0.57969 -2.88126 0
M  V30 4344 H 412.891 0.221056 -1.60888 0
M  V30 4345 H 414.888 3.044 -2.84862 0
M  V30 4346 H 413.548 2.76261 -1.70616 0
M  V30 4347 H 414.559 1.17334 -5.04433 0
M  V30 4348 H 411.236 2.8322 -3.06746 0
M  V30 4349 H 412.626 0.961153 -6.6499 0
M  V30 4350 N 415.346 1.54954 0.287554 0
M  V30 4351 C 416.278 1.83224 1.37701 0
M  V30 4352 C 417.291 0.715898 1.46215 0
M  V30 4353 O 418.48 0.993565 1.48292 0
M  V30 4354 C 415.58 1.96723 2.75959 0
M  V30 4355 C 414.753 3.27253 2.90215 0
M  V30 4356 C 413.812 3.30998 4.09056 0
M  V30 4357 O 412.838 4.04457 4.00503 0
M  V30 4358 N 414.04 2.57353 5.20336 0
M  V30 4359 H 416.805 2.77254 1.138 0
M  V30 4360 H 414.366 1.54694 0.477652 0
M  V30 4361 H 416.358 1.96615 3.5373 0
M  V30 4362 H 414.928 1.09626 2.92747 0
M  V30 4363 H 414.148 3.40022 1.99447 0
M  V30 4364 H 415.436 4.13365 2.96659 0
M  V30 4365 H 414.834 1.97327 5.30169 0
M  V30 4366 H 413.391 2.62984 5.96391 0
M  V30 4367 N 416.824 -0.551391 1.4764 0
M  V30 4368 C 418.054 -1.33163 1.57959 0
M  V30 4369 C 418.462 -1.87785 0.23094 0
M  V30 4370 O 417.805 -1.65996 -0.786825 0
M  V30 4371 C 417.867 -2.53449 2.54958 0
M  V30 4372 C 417.531 -2.20071 4.00522 0
M  V30 4373 C 418.528 -1.77017 4.88836 0
M  V30 4374 C 416.213 -2.31252 4.45901 0
M  V30 4375 C 418.207 -1.4558 6.20552 0
M  V30 4376 C 415.894 -1.99427 5.77644 0
M  V30 4377 C 416.892 -1.56659 6.64791 0
M  V30 4378 O 416.58 -1.25242 7.94084 0
M  V30 4379 H 416.312 -0.412022 0.535923 0
M  V30 4380 H 418.866 -0.674186 1.9402 0
M  V30 4381 H 417.096 -3.22104 2.13976 0
M  V30 4382 H 418.785 -3.15523 2.55343 0
M  V30 4383 H 419.551 -1.67867 4.55023 0
M  V30 4384 H 415.43 -2.63498 3.78272 0
M  V30 4385 H 418.974 -1.12125 6.8853 0
M  V30 4386 H 414.871 -2.08211 6.10998 0
M  V30 4387 H 415.639 -1.38822 8.06642 0
M  V30 4388 N 418.302 -1.35869 -0.798587 0
M  V30 4389 C 419.252 -1.25982 -1.90033 0
M  V30 4390 C 420.236 -0.153303 -1.60168 0
M  V30 4391 O 421.428 -0.38527 -1.72756 0
M  V30 4392 C 418.557 -1.04211 -3.27101 0
M  V30 4393 C 417.643 -2.19289 -3.63006 0
M  V30 4394 N 418.034 -3.44559 -3.70287 0
M  V30 4395 C 416.332 -2.10852 -3.93011 0
M  V30 4396 C 417.033 -4.20283 -4.02166 0
M  V30 4397 N 416.009 -3.49124 -4.16669 0
M  V30 4398 H 419.811 -2.20883 -1.93876 0
M  V30 4399 H 417.325 -1.28457 -0.993614 0
M  V30 4400 H 419.322 -0.952155 -4.05881 0
M  V30 4401 H 417.982 -0.102013 -3.2454 0
M  V30 4402 H 418.993 -3.7881 -3.53162 0
M  V30 4403 H 415.67 -1.24744 -3.98428 0
M  V30 4404 H 417.06 -5.28575 -4.14799 0
M  V30 4405 N 419.78 1.02168 -1.19998 0
M  V30 4406 C 421.029 1.75091 -1.0013 0
M  V30 4407 C 421.342 1.89923 0.467835 0
M  V30 4408 O 422.548 2.59888 0.785515 0
M  V30 4409 C 421.004 3.14892 -1.74273 0
M  V30 4410 C 420.612 3.0809 -3.25245 0
M  V30 4411 C 422.356 3.9206 -1.62755 0
M  V30 4412 C 420.263 4.42867 -3.91948 0
M  V30 4413 H 419.193 0.656394 -0.37103 0
M  V30 4414 H 421.844 1.14284 -1.43567 0
M  V30 4415 H 420.226 3.7621 -1.2362 0
M  V30 4416 H 421.4 2.5611 -3.83072 0
M  V30 4417 H 419.715 2.44416 -3.3712 0
M  V30 4418 H 422.312 4.91764 -2.09934 0
M  V30 4419 H 422.655 4.12199 -0.582894 0
M  V30 4420 H 423.188 3.37359 -2.10793 0
M  V30 4421 H 419.927 4.27931 -4.96543 0
M  V30 4422 H 419.447 4.94874 -3.3891 0
M  V30 4423 H 421.126 5.11728 -3.95909 0
M  V30 4424 N 421.258 1.00505 1.21394 0
M  V30 4425 C 422.674 0.717873 1.42544 0
M  V30 4426 C 422.874 -0.706936 1.88692 0
M  V30 4427 O 421.93 -1.47627 2.04847 0
M  V30 4428 C 423.243 1.73377 2.45684 0
M  V30 4429 C 424.791 1.75059 2.59467 0
M  V30 4430 C 425.266 2.75545 3.6584 0
M  V30 4431 N 426.757 2.74213 3.73311 0
M  V30 4432 C 427.492 3.48626 4.55245 0
M  V30 4433 N 426.988 4.32678 5.41075 0
M  V30 4434 N 428.781 3.37276 4.49668 0
M  V30 4435 H 420.932 1.92506 0.897503 0
M  V30 4436 H 423.195 0.830919 0.456375 0
M  V30 4437 H 422.901 2.75395 2.18748 0
M  V30 4438 H 422.775 1.53647 3.44489 0
M  V30 4439 H 425.162 0.737337 2.8574 0
M  V30 4440 H 425.243 1.98861 1.60897 0
M  V30 4441 H 424.887 3.77028 3.40313 0
M  V30 4442 H 424.817 2.49009 4.64007 0
M  V30 4443 H 427.308 2.13234 3.11993 0
M  V30 4444 H 427.621 4.86253 6.00648 0
M  V30 4445 H 425.966 4.3676 5.40616 0
M  V30 4446 H 429.157 2.71043 3.81646 0
M  V30 4447 H 429.33 3.95524 5.13288 0
M  V30 4448 N 422.737 -1.36956 0.779787 0
M  V30 4449 C 423.7 -2.2851 0.177662 0
M  V30 4450 C 424.7 -1.48393 -0.619377 0
M  V30 4451 O 425.89 -1.68505 -0.441785 0
M  V30 4452 C 423.022 -3.32428 -0.755279 0
M  V30 4453 H 424.215 -2.83269 0.984823 0
M  V30 4454 H 421.768 -1.46358 0.548544 0
M  V30 4455 H 422.503 -2.82808 -1.58714 0
M  V30 4456 H 422.288 -3.91659 -0.185817 0
M  V30 4457 H 423.778 -4.00824 -1.17174 0
M  V30 4458 N 424.215 -0.530993 -1.48385 0
M  V30 4459 C 425.445 -0.00133928 -2.066 0
M  V30 4460 C 425.853 1.28599 -1.38777 0
M  V30 4461 O 425.196 1.77599 -0.469495 0
M  V30 4462 C 425.258 0.292137 -3.58311 0
M  V30 4463 C 424.922 -0.901864 -4.48013 0
M  V30 4464 C 425.919 -1.80053 -4.87726 0
M  V30 4465 C 423.604 -1.10915 -4.89901 0
M  V30 4466 C 425.598 -2.89038 -5.68098 0
M  V30 4467 C 423.285 -2.20213 -5.70043 0
M  V30 4468 C 424.283 -3.09107 -6.0905 0
M  V30 4469 O 423.971 -4.16514 -6.87583 0
M  V30 4470 H 423.703 -0.0308475 -0.675296 0
M  V30 4471 H 426.257 -0.736335 -1.91748 0
M  V30 4472 H 424.487 1.08112 -3.7128 0
M  V30 4473 H 426.176 0.763994 -3.98645 0
M  V30 4474 H 426.942 -1.65234 -4.55986 0
M  V30 4475 H 422.821 -0.426498 -4.59023 0
M  V30 4476 H 426.365 -3.58451 -5.98464 0
M  V30 4477 H 422.262 -2.35016 -6.01197 0
M  V30 4478 H 423.03 -4.14237 -7.05939 0
M  V30 4479 N 425.693 1.55336 -0.266172 0
M  V30 4480 C 426.97 1.91372 0.404486 0
M  V30 4481 C 427.35 1.18935 1.74407 0
M  V30 4482 O 426.698 0.3132 2.26343 0
M  V30 4483 C 426.908 3.44581 0.553593 0
M  V30 4484 C 428.256 4.16196 0.840618 0
M  V30 4485 O 429.28 3.50426 0.638739 0
M  V30 4486 O 428.139 5.32567 1.22618 0
M  V30 4487 H 425.233 0.797194 0.220025 0
M  V30 4488 H 427.779 1.66813 -0.311664 0
M  V30 4489 H 426.551 3.89357 -0.389498 0
M  V30 4490 H 426.174 3.75065 1.31955 0
M  V30 4491 N 427.171 -0.0066808 1.57599 0
M  V30 4492 C 428.582 -0.550379 1.78403 0
M  V30 4493 C 428.933 -1.74339 0.900014 0
M  V30 4494 O 428.058 -2.16166 0.100713 0
M  V30 4495 C 428.653 -1.00523 3.23544 0
M  V30 4496 C 427.212 -1.49428 3.45468 0
M  V30 4497 C 426.359 -0.442444 2.73748 0
M  V30 4498 H 429.31 0.219508 1.57175 0
M  V30 4499 H 429.331 -1.87157 3.31289 0
M  V30 4500 H 428.843 -0.136735 3.87859 0
M  V30 4501 H 426.944 -2.3839 2.86358 0
M  V30 4502 H 427.057 -1.52635 4.54136 0
M  V30 4503 H 425.421 -0.902578 2.38171 0
M  V30 4504 H 426.204 0.416973 3.40758 0
M  V30 4505 N 428.649 -1.55105 -0.279332 0
M  V30 4506 C 429.596 -1.8755 -1.34513 0
M  V30 4507 C 430.566 -0.726384 -1.49375 0
M  V30 4508 O 431.751 -0.977063 -1.63884 0
M  V30 4509 C 428.891 -2.14738 -2.70151 0
M  V30 4510 C 428.004 -3.42285 -2.63562 0
M  V30 4511 C 427.139 -3.59206 -3.91337 0
M  V30 4512 C 426.178 -4.80467 -3.79233 0
M  V30 4513 N 425.315 -4.94079 -4.98829 0
M  V30 4514 H 430.155 -2.78456 -1.06143 0
M  V30 4515 H 427.692 -1.37867 -0.512936 0
M  V30 4516 H 429.65 -2.28501 -3.49061 0
M  V30 4517 H 428.28 -1.27075 -2.96735 0
M  V30 4518 H 427.332 -3.37029 -1.76397 0
M  V30 4519 H 428.644 -4.31328 -2.50515 0
M  V30 4520 H 427.798 -3.72751 -4.78687 0
M  V30 4521 H 426.537 -2.68337 -4.07243 0
M  V30 4522 H 425.542 -4.66932 -2.90266 0
M  V30 4523 H 426.767 -5.72765 -3.64852 0
M  V30 4524 H 424.713 -4.06139 -5.15158 0
M  V30 4525 H 424.63 -5.77156 -4.8829 0
M  V30 4526 H 425.898 -5.12003 -5.8777 0
M  V30 4527 N 430.127 0.543554 -1.4793 0
M  V30 4528 C 431.375 1.29752 -1.54948 0
M  V30 4529 C 431.696 1.93764 -0.219242 0
M  V30 4530 O 430.966 1.80639 0.75805 0
M  V30 4531 H 429.546 0.481874 -0.570795 0
M  V30 4532 H 432.208 0.633636 -1.84312 0
M  V30 4533 H 431.304 2.08392 -2.32334 0
M  V30 4534 N 431.605 1.3629 0.791371 0
M  V30 4535 C 432.853 1.30154 1.5461 0
M  V30 4536 C 433.174 -0.119409 1.94634 0
M  V30 4537 O 432.444 -1.05924 1.64794 0
M  V30 4538 H 431.024 0.478784 0.573389 0
M  V30 4539 H 433.686 1.70565 0.94306 0
M  V30 4540 H 432.782 1.92762 2.45457 0
M  V30 4541 N 433.083 -1.0153 1.20538 0
M  V30 4542 C 434.013 -2.11972 0.979295 0
M  V30 4543 C 434.994 -1.6985 -0.0921787 0
M  V30 4544 O 436.179 -1.94089 0.0655932 0
M  V30 4545 C 433.309 -3.43201 0.531984 0
M  V30 4546 C 432.263 -3.9907 1.54685 0
M  V30 4547 C 431.589 -5.26082 0.956127 0
M  V30 4548 C 432.889 -4.32313 2.93092 0
M  V30 4549 H 434.583 -2.31143 1.90298 0
M  V30 4550 H 432.129 -1.11079 0.916372 0
M  V30 4551 H 434.082 -4.1985 0.361044 0
M  V30 4552 H 432.806 -3.23792 -0.427327 0
M  V30 4553 H 431.465 -3.2453 1.70517 0
M  V30 4554 H 431.113 -5.02999 -0.0111538 0
M  V30 4555 H 430.813 -5.64426 1.63393 0
M  V30 4556 H 432.337 -6.05386 0.796284 0
M  V30 4557 H 433.751 -4.99845 2.80763 0
M  V30 4558 H 432.148 -4.81774 3.57791 0
M  V30 4559 H 433.218 -3.41025 3.44717 0
M  V30 4560 N 434.561 -1.01147 -1.20859 0
M  V30 4561 C 435.838 -0.613136 -1.85742 0
M  V30 4562 C 436.218 0.909004 -1.90526 0
M  V30 4563 O 435.566 1.79862 -1.40932 0
M  V30 4564 C 435.776 -1.255 -3.25654 0
M  V30 4565 C 437.124 -1.3672 -4.01986 0
M  V30 4566 O 438.148 -1.21082 -3.34989 0
M  V30 4567 O 437.007 -1.6194 -5.21956 0
M  V30 4568 H 434.101 -0.210878 -0.799662 0
M  V30 4569 H 436.647 -1.10853 -1.2849 0
M  V30 4570 H 435.419 -2.29532 -3.16908 0
M  V30 4571 H 435.042 -0.746369 -3.90532 0
M  V30 4572 N 436.039 1.36541 -0.78704 0
M  V30 4573 C 436.987 2.31965 -0.171724 0
M  V30 4574 C 437.981 1.55689 0.667631 0
M  V30 4575 O 439.187 1.70969 0.562981 0
M  V30 4576 H 435.562 0.751101 -0.0367545 0
M  V30 4577 H 437.533 2.81428 -0.992017 0
M  V30 4578 C 436.282 3.40968 0.680904 0
M  V30 4579 H 435.605 3.99775 0.0443961 0
M  V30 4580 H 437.045 4.10063 1.07815 0
M  V30 4581 C 435.504 2.82338 1.83813 0
M  V30 4582 O 436.034 2.74311 2.93456 0
M  V30 4583 N 434.24 2.39661 1.6435 0
M  V30 4584 H 433.787 2.46389 0.751668 0
M  V30 4585 H 433.745 2.00779 2.4194 0
M  V30 4586 N 437.518 0.538854 1.48102 0
M  V30 4587 C 438.481 -0.208395 2.28251 0
M  V30 4588 C 439.481 -0.859656 1.35892 0
M  V30 4589 O 440.671 -0.71834 1.58699 0
M  V30 4590 C 437.803 -1.30252 3.15035 0
M  V30 4591 H 438.996 0.495407 2.9578 0
M  V30 4592 H 436.549 0.295112 1.53489 0
M  V30 4593 H 437.284 -2.0393 2.52157 0
M  V30 4594 H 437.069 -0.840551 3.82985 0
M  V30 4595 H 438.559 -1.82787 3.75471 0
M  V30 4596 N 438.996 -1.55193 0.274407 0
M  V30 4597 C 440.412 -1.59401 -0.0797543 0
M  V30 4598 C 440.612 -1.29162 -1.54659 0
M  V30 4599 O 439.668 -1.05215 -2.29534 0
M  V30 4600 C 440.981 -2.99257 0.294238 0
M  V30 4601 C 442.529 -3.12072 0.240796 0
M  V30 4602 C 443.004 -4.54194 0.589218 0
M  V30 4603 N 444.495 -4.60033 0.540744 0
M  V30 4604 C 445.23 -5.68027 0.783147 0
M  V30 4605 N 444.726 -6.8417 1.09013 0
M  V30 4606 N 446.519 -5.57572 0.711993 0
M  V30 4607 H 438.67 -1.73113 1.23067 0
M  V30 4608 H 440.933 -0.807197 0.497129 0
M  V30 4609 H 440.639 -3.26217 1.31435 0
M  V30 4610 H 440.513 -3.75427 -0.365281 0
M  V30 4611 H 442.9 -2.84877 -0.770024 0
M  V30 4612 H 442.981 -2.38117 0.934563 0
M  V30 4613 H 442.625 -4.82115 1.59772 0
M  V30 4614 H 442.555 -5.26448 -0.126331 0
M  V30 4615 H 445.046 -3.76599 0.313327 0
M  V30 4616 H 445.359 -7.6243 1.26178 0
M  V30 4617 H 443.704 -6.85787 1.12789 0
M  V30 4618 H 446.895 -4.65714 0.472014 0
M  V30 4619 H 447.068 -6.41659 0.90429 0
M  V30 4620 N 440.474 -0.00167713 -1.576 0
M  V30 4621 C 441.89 0.354422 -1.55615 0
M  V30 4622 C 442.09 1.74679 -1.00447 0
M  V30 4623 O 441.146 2.4428 -0.639022 0
M  V30 4624 C 442.459 0.22812 -2.99833 0
M  V30 4625 C 444.007 0.302934 -3.11531 0
M  V30 4626 C 444.482 0.205737 -4.57538 0
M  V30 4627 N 445.973 0.263584 -4.62449 0
M  V30 4628 C 446.708 0.211742 -5.73009 0
M  V30 4629 N 446.204 0.110399 -6.92712 0
M  V30 4630 N 447.997 0.263729 -5.61481 0
M  V30 4631 H 440.148 -0.912498 -1.918 0
M  V30 4632 H 442.411 -0.349928 -0.881053 0
M  V30 4633 H 442.117 -0.729934 -3.44042 0
M  V30 4634 H 441.991 1.00951 -3.6344 0
M  V30 4635 H 444.378 1.25143 -2.67251 0
M  V30 4636 H 444.459 -0.508357 -2.50698 0
M  V30 4637 H 444.103 -0.739225 -5.02492 0
M  V30 4638 H 444.033 1.03554 -5.16318 0
M  V30 4639 H 446.524 0.343173 -3.76339 0
M  V30 4640 H 446.837 0.0767828 -7.72762 0
M  V30 4641 H 445.182 0.0760025 -6.94958 0
M  V30 4642 H 448.373 0.34111 -4.66855 0
M  V30 4643 H 448.546 0.219862 -6.47627 0
M  V30 4644 N 441.952 1.55251 0.271103 0
M  V30 4645 C 442.882 1.9127 1.33933 0
M  V30 4646 C 443.863 0.77478 1.5143 0
M  V30 4647 O 445.048 1.03307 1.64442 0
M  V30 4648 C 442.178 2.18627 2.69851 0
M  V30 4649 C 441.132 3.34442 2.67081 0
M  V30 4650 C 440.458 3.47284 4.06569 0
M  V30 4651 C 441.758 4.70784 2.26185 0
M  V30 4652 H 443.452 2.80744 1.04035 0
M  V30 4653 H 440.998 1.35077 0.499017 0
M  V30 4654 H 442.951 2.42413 3.44694 0
M  V30 4655 H 441.675 1.25955 3.01335 0
M  V30 4656 H 440.334 3.10627 1.94695 0
M  V30 4657 H 439.982 2.52074 4.35279 0
M  V30 4658 H 439.682 4.25152 4.0561 0
M  V30 4659 H 441.206 3.73363 4.83148 0
M  V30 4660 H 442.62 4.94102 2.90751 0
M  V30 4661 H 441.017 5.51582 2.36384 0
M  V30 4662 H 442.087 4.69478 1.21319 0
M  V30 4663 N 443.43 -0.535701 1.48216 0
M  V30 4664 C 444.658 -1.31671 1.59594 0
M  V30 4665 C 445.073 -1.87083 0.254056 0
M  V30 4666 O 444.43 -1.66112 -0.755854 0
M  V30 4667 C 444.481 -2.47158 2.63809 0
M  V30 4668 O 444.202 -1.94032 3.92789 0
M  V30 4669 C 445.703 -3.39062 2.85573 0
M  V30 4670 H 442.923 -0.400623 0.538277 0
M  V30 4671 H 445.467 -0.646827 1.94001 0
M  V30 4672 H 443.622 -3.10043 2.32276 0
M  V30 4673 H 444.036 -2.69585 4.49916 0
M  V30 4674 H 445.51 -4.16459 3.62306 0
M  V30 4675 H 445.987 -3.93941 1.94184 0
M  V30 4676 H 446.593 -2.81975 3.18387 0
M  V30 4677 N 444.908 -1.36708 -0.784132 0
M  V30 4678 C 446.156 -1.30972 -1.53918 0
M  V30 4679 C 446.477 0.109086 -1.94695 0
M  V30 4680 O 445.747 1.05048 -1.65353 0
M  V30 4681 H 444.327 -0.481819 -0.570841 0
M  V30 4682 H 446.989 -1.71063 -0.934002 0
M  V30 4683 H 446.085 -1.94061 -2.44431 0
M  V30 4684 N 446.386 1.0089 -1.21074 0
M  V30 4685 C 447.633 1.74607 -1.0256 0
M  V30 4686 C 447.961 1.89426 0.44136 0
M  V30 4687 O 447.216 1.42266 1.34384 0
M  V30 4688 C 447.515 3.16335 -1.66334 0
M  V30 4689 C 447.181 3.21474 -3.16173 0
M  V30 4690 C 445.843 3.22583 -3.57062 0
M  V30 4691 C 448.195 3.19025 -4.12156 0
M  V30 4692 C 445.523 3.18925 -4.92446 0
M  V30 4693 C 447.875 3.16909 -5.47496 0
M  V30 4694 C 446.539 3.16326 -5.87787 0
M  V30 4695 H 445.809 0.638933 -0.375294 0
M  V30 4696 H 448.456 1.18274 -1.50611 0
M  V30 4697 H 446.761 3.75876 -1.10566 0
M  V30 4698 H 448.458 3.72083 -1.49516 0
M  V30 4699 H 445.048 3.2135 -2.83605 0
M  V30 4700 H 449.232 3.17332 -3.81595 0
M  V30 4701 H 444.488 3.16809 -5.22917 0
M  V30 4702 H 448.662 3.13968 -6.21609 0
M  V30 4703 H 446.289 3.13246 -6.92662 0
M  V30 4704 N 447.864 1.01787 1.20321 0
M  V30 4705 C 448.814 0.559976 2.21016 0
M  V30 4706 C 449.798 -0.385366 1.56217 0
M  V30 4707 O 450.99 -0.208126 1.75772 0
M  V30 4708 C 448.119 -0.0990553 3.43157 0
M  V30 4709 C 447.205 0.86807 4.15121 0
M  V30 4710 N 447.596 2.0261 4.63447 0
M  V30 4711 C 445.894 0.689162 4.40643 0
M  V30 4712 C 446.595 2.63518 5.18588 0
M  V30 4713 N 445.571 1.91569 5.08726 0
M  V30 4714 H 449.373 1.44281 2.56048 0
M  V30 4715 H 446.887 0.883381 1.36272 0
M  V30 4716 H 448.884 -0.444643 4.14522 0
M  V30 4717 H 447.544 -0.977709 3.0963 0
M  V30 4718 H 448.555 2.40598 4.58621 0
M  V30 4719 H 445.232 -0.14133 4.17261 0
M  V30 4720 H 446.622 3.61527 5.66346 0
M  V30 4721 N 449.342 -1.36122 0.79427 0
M  V30 4722 C 450.252 -2.33769 0.197296 0
M  V30 4723 C 451.268 -1.61276 -0.653153 0
M  V30 4724 O 452.444 -1.9323 -0.5678 0
M  V30 4725 C 449.509 -3.40474 -0.654098 0
M  V30 4726 C 448.57 -4.28759 0.215411 0
M  V30 4727 C 447.803 -5.30368 -0.595443 0
M  V30 4728 O 448.026 -5.40211 -1.83107 0
M  V30 4729 O 446.96 -6.019 0.00721351 0
M  V30 4730 H 450.786 -2.86597 1.00478 0
M  V30 4731 H 448.371 -1.38676 0.555818 0
M  V30 4732 H 450.253 -4.05703 -1.13944 0
M  V30 4733 H 448.928 -2.89937 -1.43938 0
M  V30 4734 H 447.835 -3.66554 0.747615 0
M  V30 4735 H 449.168 -4.82661 0.964332 0
M  V30 4736 N 450.82 -0.546701 -1.47814 0
M  V30 4737 C 452.048 -0.0232857 -2.06887 0
M  V30 4738 C 452.463 1.26571 -1.4009 0
M  V30 4739 O 451.82 1.7569 -0.493906 0
M  V30 4740 C 451.871 0.186975 -3.61016 0
M  V30 4741 O 451.592 -1.05097 -4.25307 0
M  V30 4742 C 453.093 0.748872 -4.36929 0
M  V30 4743 H 450.313 -0.0410763 -0.669742 0
M  V30 4744 H 452.857 -0.757117 -1.89968 0
M  V30 4745 H 451.012 0.870903 -3.77484 0
M  V30 4746 H 451.426 -0.842121 -5.17695 0
M  V30 4747 H 452.9 0.845334 -5.45489 0
M  V30 4748 H 453.377 1.75772 -4.02493 0
M  V30 4749 H 453.983 0.100979 -4.2518 0
M  V30 4750 N 452.299 1.55045 -0.282633 0
M  V30 4751 C 453.524 2.04628 0.337977 0
M  V30 4752 C 453.949 1.15937 1.48123 0
M  V30 4753 O 453.307 0.159532 1.80597 0
M  V30 4754 C 453.355 3.51854 0.78936 0
M  V30 4755 O 452.459 3.66236 1.89592 0
M  V30 4756 H 451.8 0.660434 0.0687261 0
M  V30 4757 H 454.33 2.00261 -0.419124 0
M  V30 4758 H 454.34 3.93361 1.08311 0
M  V30 4759 H 453.015 4.15873 -0.0470419 0
M  V30 4760 H 451.592 3.36633 1.60413 0
M  V30 4761 N 453.777 0.010035 1.57597 0
M  V30 4762 C 454.725 -0.996272 2.10184 0
M  V30 4763 C 455.719 -1.34942 1.02406 0
M  V30 4764 O 456.925 -1.33389 1.20861 0
M  V30 4765 H 453.3 -0.338982 0.671264 0
M  V30 4766 H 455.271 -0.527272 2.93705 0
M  V30 4767 C 454.02 -2.27599 2.62857 0
M  V30 4768 H 453.343 -2.01295 3.45428 0
M  V30 4769 H 454.783 -2.96265 3.0332 0
M  V30 4770 C 453.242 -2.99269 1.54725 0
M  V30 4771 O 453.772 -3.90644 0.93597 0
M  V30 4772 N 451.978 -2.61269 1.27228 0
M  V30 4773 H 451.525 -1.87043 1.77123 0
M  V30 4774 H 451.483 -3.09534 0.550999 0
M  V30 4775 N 455.255 -1.55392 -0.262866 0
M  V30 4776 C 456.504 -1.75679 -0.990943 0
M  V30 4777 C 456.817 -0.57097 -1.87081 0
M  V30 4778 O 458.023 -0.656486 -2.63444 0
M  V30 4779 C 456.479 -3.10964 -1.81188 0
M  V30 4780 C 456.087 -4.37146 -0.980188 0
M  V30 4781 C 457.831 -3.40597 -2.53365 0
M  V30 4782 C 455.738 -5.63466 -1.7961 0
M  V30 4783 H 454.668 -0.654868 -0.373716 0
M  V30 4784 H 457.319 -1.81841 -0.246203 0
M  V30 4785 H 455.701 -2.98867 -2.59797 0
M  V30 4786 H 456.875 -4.60187 -0.237558 0
M  V30 4787 H 455.19 -4.14731 -0.372497 0
M  V30 4788 H 457.787 -4.32186 -3.14833 0
M  V30 4789 H 458.13 -2.6119 -3.24169 0
M  V30 4790 H 458.663 -3.53838 -1.81779 0
M  V30 4791 H 455.402 -6.4565 -1.13209 0
M  V30 4792 H 454.922 -5.44552 -2.51443 0
M  V30 4793 H 456.601 -6.02139 -2.36723 0
M  V30 4794 N 456.733 0.527833 -1.48498 0
M  V30 4795 C 457.681 1.65313 -1.63628 0
M  V30 4796 C 458.675 1.6177 -0.502676 0
M  V30 4797 O 459.881 1.66601 -0.681469 0
M  V30 4798 H 456.256 0.547518 -0.515488 0
M  V30 4799 H 458.227 1.49696 -2.58135 0
M  V30 4800 C 456.976 3.03576 -1.6952 0
M  V30 4801 H 456.299 3.06997 -2.56111 0
M  V30 4802 H 457.739 3.81923 -1.84149 0
M  V30 4803 C 456.198 3.34089 -0.43432 0
M  V30 4804 O 456.728 3.99151 0.451852 0
M  V30 4805 N 454.934 2.88991 -0.305368 0
M  V30 4806 H 454.481 2.36222 -1.02747 0
M  V30 4807 H 454.439 3.09776 0.537249 0
M  V30 4808 N 458.211 1.37122 0.776871 0
M  V30 4809 C 459.488 1.22586 1.52421 0
M  V30 4810 C 459.868 -0.182726 2.10308 0
M  V30 4811 O 459.216 -1.18979 1.9508 0
M  V30 4812 C 459.426 2.31782 2.60918 0
M  V30 4813 C 460.774 2.69071 3.2846 0
M  V30 4814 O 461.798 2.3092 2.71209 0
M  V30 4815 O 460.657 3.3478 4.31954 0
M  V30 4816 H 457.751 0.478045 0.674835 0
M  V30 4817 H 460.297 1.48888 0.814275 0
M  V30 4818 H 459.069 3.26131 2.16227 0
M  V30 4819 H 458.692 2.06916 3.39517 0
M  V30 4820 N 459.689 -1.00246 1.21608 0
M  V30 4821 C 460.936 -1.74061 1.03485 0
M  V30 4822 C 461.264 -1.89658 -0.431308 0
M  V30 4823 O 460.519 -1.42976 -1.33627 0
M  V30 4824 C 460.818 -3.15448 1.68009 0
M  V30 4825 C 460.484 -3.19792 3.17874 0
M  V30 4826 C 459.146 -3.20685 3.58768 0
M  V30 4827 C 461.498 -3.16835 4.13842 0
M  V30 4828 C 458.826 -3.16309 4.94131 0
M  V30 4829 C 461.178 -3.14001 5.49169 0
M  V30 4830 C 459.842 -3.13204 5.89457 0
M  V30 4831 H 459.112 -0.636934 0.378677 0
M  V30 4832 H 461.759 -1.17473 1.51236 0
M  V30 4833 H 460.064 -3.75284 1.12557 0
M  V30 4834 H 461.761 -3.71285 1.51487 0
M  V30 4835 H 458.351 -3.19842 2.85305 0
M  V30 4836 H 462.535 -3.15303 3.83272 0
M  V30 4837 H 457.791 -3.14032 5.24589 0
M  V30 4838 H 461.965 -3.10667 6.23265 0
M  V30 4839 H 459.592 -3.09568 6.94314 0
M  V30 4840 N 461.167 -1.02423 -1.1978 0
M  V30 4841 C 462.392 -0.7373 -1.93852 0
M  V30 4842 C 462.817 0.696923 -1.74713 0
M  V30 4843 O 462.175 1.48056 -1.04638 0
M  V30 4844 C 462.223 -1.08783 -3.438 0
M  V30 4845 O 461.327 -0.20383 -4.11896 0
M  V30 4846 H 460.668 -0.27284 -0.605355 0
M  V30 4847 H 463.198 -1.36966 -1.51992 0
M  V30 4848 H 463.208 -1.04276 -3.9445 0
M  V30 4849 H 461.883 -2.13274 -3.57053 0
M  V30 4850 H 460.46 -0.307091 -3.71633 0
M  V30 4851 N 462.645 1.35699 -0.801477 0
M  V30 4852 C 463.608 2.28199 -0.213994 0
M  V30 4853 C 464.608 1.49359 0.595691 0
M  V30 4854 O 465.798 1.69186 0.414921 0
M  V30 4855 C 462.93 3.33587 0.702297 0
M  V30 4856 H 464.123 2.81666 -1.02976 0
M  V30 4857 H 461.676 1.45467 -0.571759 0
M  V30 4858 H 462.411 2.85297 1.54195 0
M  V30 4859 H 462.196 3.91906 0.123484 0
M  V30 4860 H 463.686 4.02638 1.10783 0
M  V30 4861 N 464.123 0.554532 1.47522 0
M  V30 4862 C 465.371 0.0294208 2.02079 0
M  V30 4863 C 465.692 -1.32411 1.43151 0
M  V30 4864 O 464.962 -1.863 0.605728 0
M  V30 4865 H 463.542 0.00788672 0.746958 0
M  V30 4866 H 466.204 0.723934 1.80956 0
M  V30 4867 H 465.3 -0.0606745 3.12041 0
M  V30 4868 N 465.601 -1.54893 0.290851 0
M  V30 4869 C 466.847 -2.0023 -0.321867 0
M  V30 4870 C 467.18 -1.179 -1.54316 0
M  V30 4871 O 466.455 -0.25293 -1.92848 0
M  V30 4872 C 466.738 -3.53456 -0.688515 0
M  V30 4873 C 466.591 -4.46532 0.541209 0
M  V30 4874 C 467.91 -4.13057 -1.51895 0
M  V30 4875 H 465.029 -0.727891 -0.115515 0
M  V30 4876 H 467.671 -1.85722 0.400931 0
M  V30 4877 H 465.821 -3.6595 -1.30433 0
M  V30 4878 H 467.493 -4.4596 1.17973 0
M  V30 4879 H 465.736 -4.17545 1.17636 0
M  V30 4880 H 466.407 -5.51475 0.240675 0
M  V30 4881 H 468.883 -4.03937 -0.99872 0
M  V30 4882 H 467.759 -5.20448 -1.74429 0
M  V30 4883 H 468.02 -3.64284 -2.50498 0
M  V30 4884 N 467.08 -0.0183926 -1.57589 0
M  V30 4885 C 468.043 0.951986 -2.08494 0
M  V30 4886 C 469.043 1.26092 -0.997874 0
M  V30 4887 O 470.233 1.20304 -1.25987 0
M  V30 4888 C 467.365 2.27165 -2.54182 0
M  V30 4889 H 468.558 0.511307 -2.95509 0
M  V30 4890 H 466.111 0.229444 -1.54607 0
M  V30 4891 H 466.846 2.75884 -1.70465 0
M  V30 4892 H 466.631 2.06057 -3.33591 0
M  V30 4893 H 468.121 2.9674 -2.93828 0
M  V30 4894 N 468.558 1.5553 0.254621 0
M  V30 4895 C 469.506 1.9048 1.33492 0
M  V30 4896 C 470.5 0.78304 1.50216 0
M  V30 4897 O 471.706 0.967582 1.51782 0
M  V30 4898 H 468.081 0.604846 0.44684 0
M  V30 4899 H 470.052 2.80688 1.01275 0
M  V30 4900 C 468.801 2.20928 2.68489 0
M  V30 4901 H 468.124 3.06742 2.56417 0
M  V30 4902 H 469.564 2.49291 3.42972 0
M  V30 4903 C 468.023 1.023 3.20993 0
M  V30 4904 O 468.553 0.267027 4.00811 0
M  V30 4905 N 466.759 0.815714 2.78917 0
M  V30 4906 H 466.306 1.43217 2.14119 0
M  V30 4907 H 466.264 0.0236532 3.14391 0
M  V30 4908 N 470.036 -0.519951 1.48776 0
M  V30 4909 C 471.452 -0.849418 1.35119 0
M  V30 4910 C 471.652 -1.98077 0.36982 0
M  V30 4911 O 470.708 -2.51664 -0.205359 0
M  V30 4912 C 472.021 -1.20748 2.75391 0
M  V30 4913 C 473.569 -1.31679 2.83954 0
M  V30 4914 C 474.044 -1.70824 4.24951 0
M  V30 4915 N 475.535 -1.77908 4.27672 0
M  V30 4916 C 476.27 -2.09603 5.33717 0
M  V30 4917 N 475.766 -2.39652 6.5003 0
M  V30 4918 N 477.559 -2.10694 5.21119 0
M  V30 4919 H 469.71 0.226377 2.1119 0
M  V30 4920 H 471.973 0.0386519 0.947212 0
M  V30 4921 H 471.679 -0.449703 3.48813 0
M  V30 4922 H 471.553 -2.15534 3.09556 0
M  V30 4923 H 473.94 -2.06532 2.10781 0
M  V30 4924 H 474.021 -0.3499 2.53396 0
M  V30 4925 H 473.665 -0.965282 4.98643 0
M  V30 4926 H 473.595 -2.6858 4.52959 0
M  V30 4927 H 476.086 -1.56923 3.43779 0
M  V30 4928 H 476.399 -2.6297 7.26682 0
M  V30 4929 H 474.744 -2.37149 6.53288 0
M  V30 4930 H 477.935 -1.86682 4.29264 0
M  V30 4931 H 478.108 -2.35062 6.03863 0
M  V30 4932 N 471.514 -1.37532 -0.769588 0
M  V30 4933 C 472.739 -1.36231 -1.56384 0
M  V30 4934 C 473.164 0.0495849 -1.88035 0
M  V30 4935 O 472.522 1.02723 -1.49391 0
M  V30 4936 C 472.57 -2.20986 -2.84952 0
M  V30 4937 O 471.674 -1.61597 -3.79421 0
M  V30 4938 H 471.015 -0.465387 -0.473615 0
M  V30 4939 H 473.545 -1.81085 -0.952342 0
M  V30 4940 H 473.555 -2.34277 -3.34034 0
M  V30 4941 H 472.23 -3.23612 -2.61243 0
M  V30 4942 H 470.807 -1.57359 -3.38072 0
M  V30 4943 N 472.992 0.995999 -1.22138 0
M  V30 4944 C 473.955 2.06711 -0.990109 0
M  V30 4945 C 474.955 1.60744 0.0422978 0
M  V30 4946 O 476.145 1.73095 -0.195895 0
M  V30 4947 C 473.277 3.37288 -0.49491 0
M  V30 4948 H 474.47 2.28661 -1.94047 0
M  V30 4949 H 472.023 1.16711 -1.03963 0
M  V30 4950 H 472.758 3.21022 0.459948 0
M  V30 4951 H 472.543 3.71986 -1.23971 0
M  V30 4952 H 474.033 4.16103 -0.353253 0
M  V30 4953 N 474.47 1.03057 1.19235 0
M  V30 4954 C 475.695 0.74757 1.93458 0
M  V30 4955 C 476.12 -0.687648 1.7508 0
M  V30 4956 O 475.478 -1.47499 1.05422 0
M  V30 4957 C 475.526 1.10604 3.43219 0
M  V30 4958 O 474.63 0.225671 4.11782 0
M  V30 4959 H 473.971 0.276047 0.603899 0
M  V30 4960 H 476.501 1.3777 1.51263 0
M  V30 4961 H 476.511 1.06366 3.93891 0
M  V30 4962 H 475.186 2.15165 3.55917 0
M  V30 4963 H 473.763 0.326795 3.71465 0
M  V30 4964 N 475.948 -1.35272 0.808662 0
M  V30 4965 C 477.197 -1.97963 0.386483 0
M  V30 4966 C 477.51 -1.64866 -1.05255 0
M  V30 4967 O 478.716 -2.20937 -1.57794 0
M  V30 4968 C 477.172 -3.54162 0.640096 0
M  V30 4969 C 476.78 -3.96166 2.0918 0
M  V30 4970 C 478.524 -4.23553 0.283376 0
M  V30 4971 C 476.431 -5.4522 2.29106 0
M  V30 4972 H 475.361 -0.740742 0.140774 0
M  V30 4973 H 478.012 -1.5431 0.993012 0
M  V30 4974 H 476.394 -3.95983 -0.0364117 0
M  V30 4975 H 477.568 -3.65491 2.80629 0
M  V30 4976 H 475.883 -3.3967 2.40859 0
M  V30 4977 H 478.48 -5.33124 0.410273 0
M  V30 4978 H 478.823 -4.09105 -0.770659 0
M  V30 4979 H 479.356 -3.8716 0.913884 0
M  V30 4980 H 476.095 -5.64638 3.32962 0
M  V30 4981 H 475.615 -5.77457 1.62184 0
M  V30 4982 H 477.294 -6.1171 2.1076 0
M  V30 4983 N 477.426 -0.562348 -1.47226 0
M  V30 4984 C 478.842 -0.222492 -1.58042 0
M  V30 4985 C 479.042 1.27505 -1.56028 0
M  V30 4986 O 478.098 2.05555 -1.46641 0
M  V30 4987 C 479.411 -0.853694 -2.88327 0
M  V30 4988 C 480.959 -0.825397 -3.01921 0
M  V30 4989 C 481.434 -1.43576 -4.34914 0
M  V30 4990 N 482.925 -1.39918 -4.41562 0
M  V30 4991 C 483.66 -1.84103 -5.43041 0
M  V30 4992 N 483.156 -2.36167 -6.51304 0
M  V30 4993 N 484.949 -1.75142 -5.34118 0
M  V30 4994 H 477.1 -1.53525 -1.46778 0
M  V30 4995 H 479.363 -0.640527 -0.698877 0
M  V30 4996 H 479.069 -1.90635 -2.95552 0
M  V30 4997 H 478.943 -0.34977 -3.75575 0
M  V30 4998 H 481.33 0.218583 -2.94289 0
M  V30 4999 H 481.411 -1.36713 -2.16202 0
M  V30 5000 H 481.055 -2.47884 -4.43301 0
M  V30 5001 H 480.985 -0.869427 -5.19373 0
M  V30 5002 H 483.476 -1.0184 -3.63919 0
M  V30 5003 H 483.789 -2.67793 -7.24919 0
M  V30 5004 H 482.134 -2.40181 -6.52179 0
M  V30 5005 H 485.325 -1.34241 -4.48439 0
M  V30 5006 H 485.498 -2.09895 -6.13065 0
M  V30 5007 N 478.904 1.54736 -0.299062 0
M  V30 5008 C 480.153 1.99279 0.311549 0
M  V30 5009 C 480.466 1.19107 1.55154 0
M  V30 5010 O 481.672 1.53908 2.23662 0
M  V30 5011 C 480.128 3.54768 0.605632 0
M  V30 5012 C 479.736 4.43746 -0.615914 0
M  V30 5013 C 481.48 4.07841 1.17754 0
M  V30 5014 C 479.387 5.90663 -0.29509 0
M  V30 5015 H 478.317 0.744359 0.120187 0
M  V30 5016 H 480.968 1.78919 -0.407464 0
M  V30 5017 H 479.35 3.71021 1.38419 0
M  V30 5018 H 480.524 4.39267 -1.39218 0
M  V30 5019 H 478.839 4.01434 -1.10633 0
M  V30 5020 H 481.436 5.15174 1.43179 0
M  V30 5021 H 481.779 3.58324 2.11918 0
M  V30 5022 H 482.312 3.95123 0.460739 0
M  V30 5023 H 479.051 6.44325 -1.20524 0
M  V30 5024 H 478.571 5.98155 0.44394 0
M  V30 5025 H 480.25 6.46916 0.104048 0
M  V30 5026 N 480.382 0.0267497 1.57577 0
M  V30 5027 C 481.793 -0.512413 1.79531 0
M  V30 5028 C 482.144 -1.72391 0.936791 0
M  V30 5029 O 481.269 -2.15903 0.146543 0
M  V30 5030 C 481.864 -0.936378 3.25603 0
M  V30 5031 C 480.423 -1.42067 3.4856 0
M  V30 5032 C 479.57 -0.384278 2.74624 0
M  V30 5033 H 482.521 0.252797 1.56674 0
M  V30 5034 H 482.542 -1.80088 3.35184 0
M  V30 5035 H 482.054 -0.0544332 3.88062 0
M  V30 5036 H 480.155 -2.32262 2.9135 0
M  V30 5037 H 480.268 -1.42968 4.57271 0
M  V30 5038 H 478.632 -0.851855 2.40032 0
M  V30 5039 H 479.415 0.489159 3.39797 0
M  V30 5040 N 481.861 -1.55662 -0.24637 0
M  V30 5041 C 483.277 -1.48098 -0.594907 0
M  V30 5042 C 483.477 -0.717044 -1.8831 0
M  V30 5043 O 482.533 -0.246618 -2.51293 0
M  V30 5044 C 483.846 -2.92507 -0.697146 0
M  V30 5045 C 485.394 -3.02881 -0.789436 0
M  V30 5046 C 485.869 -4.48598 -0.923232 0
M  V30 5047 N 487.36 -4.52538 -0.988088 0
M  V30 5048 C 488.095 -5.62536 -1.11089 0
M  V30 5049 N 487.591 -6.82342 -1.19919 0
M  V30 5050 N 489.384 -5.50334 -1.14408 0
M  V30 5051 H 481.535 -2.0377 0.599278 0
M  V30 5052 H 483.798 -0.925145 0.20691 0
M  V30 5053 H 483.504 -3.51242 0.179396 0
M  V30 5054 H 483.378 -3.43024 -1.5689 0
M  V30 5055 H 485.765 -2.44226 -1.65643 0
M  V30 5056 H 485.846 -2.55574 0.107482 0
M  V30 5057 H 485.49 -5.07864 -0.0607927 0
M  V30 5058 H 485.42 -4.93587 -1.8352 0
M  V30 5059 H 487.911 -3.66248 -0.931167 0
M  V30 5060 H 488.224 -7.61924 -1.29197 0
M  V30 5061 H 486.569 -6.85102 -1.16876 0
M  V30 5062 H 489.76 -4.5567 -1.07158 0
M  V30 5063 H 489.933 -6.36096 -1.23634 0
M  V30 5064 N 483.339 0.512053 -1.4905 0
M  V30 5065 C 484.567 1.29116 -1.61669 0
M  V30 5066 C 484.982 1.86655 -0.283787 0
M  V30 5067 O 484.339 1.67293 0.729331 0
M  V30 5068 C 484.39 2.4293 -2.67707 0
M  V30 5069 O 484.111 1.87758 -3.95826 0
M  V30 5070 C 485.612 3.34476 -2.90931 0
M  V30 5071 H 482.832 0.392009 -0.544583 0
M  V30 5072 H 485.376 0.615881 -1.95006 0
M  V30 5073 H 483.531 3.06308 -2.37179 0
M  V30 5074 H 483.945 2.62393 -4.54148 0
M  V30 5075 H 485.419 4.10642 -3.68886 0
M  V30 5076 H 485.896 3.90801 -2.00427 0
M  V30 5077 H 486.502 2.76874 -3.22832 0
M  V30 5078 N 484.817 1.37938 0.762283 0
M  V30 5079 C 486.063 1.33866 1.52341 0
M  V30 5080 C 486.396 -0.0738961 1.94059 0
M  V30 5081 O 485.671 -1.03326 1.64785 0
M  V30 5082 C 485.954 2.28644 2.78197 0
M  V30 5083 C 485.807 3.78722 2.42672 0
M  V30 5084 C 487.126 2.21702 3.80179 0
M  V30 5085 H 484.245 0.487593 0.55265 0
M  V30 5086 H 486.887 1.68717 0.873767 0
M  V30 5087 H 485.037 1.99055 3.33631 0
M  V30 5088 H 486.709 4.18948 1.93081 0
M  V30 5089 H 484.952 3.96827 1.75244 0
M  V30 5090 H 485.623 4.40486 3.3268 0
M  V30 5091 H 488.099 2.47805 3.34263 0
M  V30 5092 H 486.975 2.90143 4.65949 0
M  V30 5093 H 487.236 1.21301 4.25133 0
M  V30 5094 N 486.295 -0.989507 1.22664 0
M  V30 5095 C 487.543 -1.72612 1.05117 0
M  V30 5096 C 487.864 -1.90552 -0.414131 0
M  V30 5097 O 487.134 -1.4676 -1.29762 0
M  V30 5098 H 485.714 -0.639555 0.385977 0
M  V30 5099 H 488.376 -1.19158 1.54232 0
M  V30 5100 H 487.472 -2.71926 1.53175 0
M  V30 5101 N 487.773 -1.03688 -1.18687 0
M  V30 5102 C 488.705 -0.582696 -2.21669 0
M  V30 5103 C 489.718 0.345656 -1.59088 0
M  V30 5104 O 490.907 0.140776 -1.77944 0
M  V30 5105 C 488.007 0.169204 -3.38477 0
M  V30 5106 C 487.18 -0.766079 -4.30639 0
M  V30 5107 C 486.239 -0.0581541 -5.26168 0
M  V30 5108 O 485.265 -0.687346 -5.65035 0
M  V30 5109 N 486.467 1.20981 -5.67753 0
M  V30 5110 H 489.232 -1.46843 -2.61261 0
M  V30 5111 H 486.793 -0.916896 -1.33434 0
M  V30 5112 H 488.785 0.652543 -3.99405 0
M  V30 5113 H 487.355 0.956435 -2.97609 0
M  V30 5114 H 486.575 -1.42935 -3.67373 0
M  V30 5115 H 487.863 -1.40146 -4.89118 0
M  V30 5116 H 487.261 1.74159 -5.38224 0
M  V30 5117 H 485.818 1.6375 -6.30896 0
M  V30 5118 N 489.251 1.34841 -0.815825 0
M  V30 5119 C 490.161 2.33425 -0.234462 0
M  V30 5120 C 491.177 1.62295 0.627413 0
M  V30 5121 O 492.353 1.94109 0.536987 0
M  V30 5122 C 489.418 3.41471 0.599849 0
M  V30 5123 C 488.479 4.28362 -0.283596 0
M  V30 5124 C 487.712 5.31248 0.51099 0
M  V30 5125 O 487.935 5.43056 1.7449 0
M  V30 5126 O 486.869 6.01812 -0.10297 0
M  V30 5127 H 490.695 2.84962 -1.05024 0
M  V30 5128 H 488.28 1.37774 -0.577809 0
M  V30 5129 H 490.162 4.07464 1.07475 0
M  V30 5130 H 488.837 2.9219 1.39308 0
M  V30 5131 H 487.744 3.65318 -0.805836 0
M  V30 5132 H 489.077 4.81066 -1.041 0
M  V30 5133 N 490.729 0.570148 1.46925 0
M  V30 5134 C 491.676 -0.170257 2.30171 0
M  V30 5135 C 492.646 -0.896099 1.39855 0
M  V30 5136 O 493.831 -0.889248 1.68811 0
M  V30 5137 C 490.971 -1.18605 3.24079 0
M  V30 5138 C 490.084 -0.464947 4.29491 0
M  V30 5139 C 489.219 -1.46716 5.10537 0
M  V30 5140 C 488.258 -0.731758 6.0771 0
M  V30 5141 N 487.395 -1.68142 6.81669 0
M  V30 5142 H 492.235 0.545713 2.92961 0
M  V30 5143 H 489.772 0.280938 1.44392 0
M  V30 5144 H 491.73 -1.78771 3.76957 0
M  V30 5145 H 490.36 -1.86989 2.63125 0
M  V30 5146 H 489.412 0.251506 3.79568 0
M  V30 5147 H 490.724 0.110548 4.98677 0
M  V30 5148 H 489.878 -2.14199 5.6763 0
M  V30 5149 H 488.617 -2.07658 4.41282 0
M  V30 5150 H 487.622 -0.0430787 5.49783 0
M  V30 5151 H 488.847 -0.127904 6.7898 0
M  V30 5152 H 486.793 -2.27918 6.15134 0
M  V30 5153 H 486.71 -1.15841 7.47072 0
M  V30 5154 H 487.978 -2.347 7.43328 0
M  V30 5155 N 492.207 -1.54576 0.307264 0
M  V30 5156 C 493.154 -2.23751 -0.56604 0
M  V30 5157 C 494.124 -1.22235 -1.12462 0
M  V30 5158 O 495.309 -1.50873 -1.16799 0
M  V30 5159 C 492.449 -2.98661 -1.72903 0
M  V30 5160 C 491.562 -4.14963 -1.20124 0
M  V30 5161 C 490.697 -4.77441 -2.3286 0
M  V30 5162 C 489.736 -5.85875 -1.77247 0
M  V30 5163 N 488.873 -6.42282 -2.8358 0
M  V30 5164 H 493.713 -2.97984 0.0304578 0
M  V30 5165 H 491.25 -1.47076 0.0268015 0
M  V30 5166 H 493.208 -3.40329 -2.41313 0
M  V30 5167 H 491.838 -2.26793 -2.29706 0
M  V30 5168 H 490.89 -3.78193 -0.409198 0
M  V30 5169 H 492.202 -4.93066 -0.754171 0
M  V30 5170 H 491.356 -5.21993 -3.09205 0
M  V30 5171 H 490.095 -3.98684 -2.80896 0
M  V30 5172 H 489.1 -5.40741 -0.993926 0
M  V30 5173 H 490.325 -6.6652 -1.30107 0
M  V30 5174 H 488.271 -5.66406 -3.30939 0
M  V30 5175 H 488.188 -7.1575 -2.43388 0
M  V30 5176 H 489.456 -6.91492 -3.59804 0
M  V30 5177 N 493.685 -0.035106 -1.57561 0
M  V30 5178 C 494.933 0.64096 -1.91667 0
M  V30 5179 C 495.254 1.72323 -0.912681 0
M  V30 5180 O 494.524 1.95849 0.0449089 0
M  V30 5181 H 493.104 0.239743 -0.707483 0
M  V30 5182 H 495.766 -0.084321 -1.94718 0
M  V30 5183 H 494.862 1.08987 -2.92452 0
M  V30 5184 N 495.163 1.55791 0.238111 0
M  V30 5185 C 496.393 1.81834 0.980809 0
M  V30 5186 C 496.801 0.609741 1.79106 0
M  V30 5187 O 496.144 -0.431073 1.78571 0
M  V30 5188 C 496.206 3.01363 1.96011 0
M  V30 5189 C 495.87 4.37037 1.33597 0
M  V30 5190 C 496.867 5.14692 0.734063 0
M  V30 5191 C 494.552 4.83743 1.3527 0
M  V30 5192 C 496.546 6.37206 0.157208 0
M  V30 5193 C 494.233 6.06204 0.77199 0
M  V30 5194 C 495.231 6.82775 0.175282 0
M  V30 5195 O 494.919 8.02922 -0.396432 0
M  V30 5196 H 494.651 0.6088 0.293834 0
M  V30 5197 H 497.205 2.03702 0.263552 0
M  V30 5198 H 495.435 2.75273 2.71591 0
M  V30 5199 H 497.124 3.14422 2.56697 0
M  V30 5200 H 497.89 4.79722 0.713582 0
M  V30 5201 H 493.769 4.24129 1.80653 0
M  V30 5202 H 497.313 6.96915 -0.30917 0
M  V30 5203 H 493.21 6.4065 0.789828 0
M  V30 5204 H 493.978 8.17989 -0.289145 0
M  V30 5205 N 496.642 -0.504142 1.49319 0
M  V30 5206 C 497.889 -1.25846 1.58647 0
M  V30 5207 C 498.217 -1.92592 0.27177 0
M  V30 5208 O 497.472 -1.81167 -0.74007 0
M  V30 5209 C 497.771 -2.35021 2.69258 0
M  V30 5210 C 497.437 -1.85755 4.1086 0
M  V30 5211 C 496.099 -1.72038 4.49395 0
M  V30 5212 C 498.451 -1.48844 4.99495 0
M  V30 5213 C 495.779 -1.19783 5.74342 0
M  V30 5214 C 498.131 -0.980422 6.24956 0
M  V30 5215 C 496.795 -0.829622 6.62324 0
M  V30 5216 H 496.065 -0.460505 0.580531 0
M  V30 5217 H 498.712 -0.559716 1.83138 0
M  V30 5218 H 497.017 -3.10672 2.38726 0
M  V30 5219 H 498.714 -2.93083 2.73685 0
M  V30 5220 H 495.304 -1.9739 3.80441 0
M  V30 5221 H 499.488 -1.5829 4.70381 0
M  V30 5222 H 494.744 -1.06817 6.01997 0
M  V30 5223 H 498.918 -0.685608 6.93017 0
M  V30 5224 H 496.545 -0.42253 7.59025 0
M  V30 5225 N 498.12 -1.38341 -0.754957 0
M  V30 5226 C 499.03 -1.3769 -1.89944 0
M  V30 5227 C 500.046 -0.274194 -1.71826 0
M  V30 5228 O 501.222 -0.512391 -1.94773 0
M  V30 5229 C 498.287 -1.19938 -3.25293 0
M  V30 5230 C 497.348 -2.40001 -3.55946 0
M  V30 5231 C 496.581 -2.23087 -4.84838 0
M  V30 5232 O 496.804 -1.22386 -5.57116 0
M  V30 5233 O 495.738 -3.11646 -5.14937 0
M  V30 5234 H 499.564 -2.3412 -1.93446 0
M  V30 5235 H 497.149 -1.19246 -0.900044 0
M  V30 5236 H 499.031 -1.12093 -4.06218 0
M  V30 5237 H 497.706 -0.265919 -3.22606 0
M  V30 5238 H 496.613 -2.53421 -2.75188 0
M  V30 5239 H 497.946 -3.31973 -3.63394 0
M  V30 5240 N 499.598 0.982988 -1.23187 0
M  V30 5241 C 500.875 1.69814 -0.970707 0
M  V30 5242 C 501.255 2.04811 0.511424 0
M  V30 5243 O 500.603 1.73924 1.48198 0
M  V30 5244 C 500.813 2.94143 -1.87831 0
M  V30 5245 C 502.161 3.66712 -2.14026 0
M  V30 5246 O 503.185 3.04171 -1.8536 0
M  V30 5247 O 502.044 4.79258 -2.62629 0
M  V30 5248 H 499.138 0.741659 -0.365884 0
M  V30 5249 H 501.684 1.03844 -1.34218 0
M  V30 5250 H 500.456 2.64858 -2.88038 0
M  V30 5251 H 500.079 3.6785 -1.50905 0
M  V30 5252 N 501.076 1.04316 1.18135 0
M  V30 5253 C 502.492 0.762858 1.40188 0
M  V30 5254 C 502.692 -0.646547 1.90846 0
M  V30 5255 O 501.748 -1.41036 2.0944 0
M  V30 5256 C 503.061 1.81106 2.40044 0
M  V30 5257 C 504.609 1.83226 2.53766 0
M  V30 5258 C 505.084 2.87044 3.56889 0
M  V30 5259 N 506.575 2.85951 3.64398 0
M  V30 5260 C 507.31 3.62932 4.43923 0
M  V30 5261 N 506.806 4.49672 5.27036 0
M  V30 5262 N 508.599 3.51411 4.38711 0
M  V30 5263 H 500.75 1.95264 0.835805 0
M  V30 5264 H 503.013 0.845017 0.429709 0
M  V30 5265 H 502.719 2.82214 2.09876 0
M  V30 5266 H 502.593 1.64529 3.39426 0
M  V30 5267 H 504.98 0.827869 2.8325 0
M  V30 5268 H 505.061 2.03879 1.54489 0
M  V30 5269 H 504.705 3.87663 3.28145 0
M  V30 5270 H 504.635 2.63645 4.5585 0
M  V30 5271 H 507.126 2.23051 3.05052 0
M  V30 5272 H 507.439 5.05116 5.84874 0
M  V30 5273 H 505.784 4.53738 5.26447 0
M  V30 5274 H 508.975 2.83047 3.72829 0
M  V30 5275 H 509.148 4.11654 5.00445 0
M  V30 5276 N 502.554 -1.34406 0.822964 0
M  V30 5277 C 503.97 -1.51275 0.508727 0
M  V30 5278 C 504.17 -1.76776 -0.967083 0
M  V30 5279 O 503.226 -1.81871 -1.75155 0
M  V30 5280 C 504.539 -2.67765 1.36829 0
M  V30 5281 C 506.087 -2.81647 1.36542 0
M  V30 5282 C 506.562 -4.01181 2.20947 0
M  V30 5283 N 508.053 -4.08388 2.18571 0
M  V30 5284 C 508.788 -5.00036 2.80627 0
M  V30 5285 N 508.284 -5.96906 3.51674 0
M  V30 5286 N 510.077 -4.92908 2.70181 0
M  V30 5287 H 502.228 -1.16113 1.77852 0
M  V30 5288 H 504.491 -0.56947 0.757897 0
M  V30 5289 H 504.197 -2.55551 2.41633 0
M  V30 5290 H 504.071 -3.62779 1.03303 0
M  V30 5291 H 506.458 -2.93303 0.325163 0
M  V30 5292 H 506.539 -1.87443 1.74066 0
M  V30 5293 H 506.183 -3.90286 3.25022 0
M  V30 5294 H 506.113 -4.94599 1.80774 0
M  V30 5295 H 508.604 -3.39051 1.66891 0
M  V30 5296 H 508.917 -6.63468 3.96271 0
M  V30 5297 H 507.262 -5.9703 3.5578 0
M  V30 5298 H 510.453 -4.1619 2.14251 0
M  V30 5299 H 510.626 -5.64137 3.18831 0
M  V30 5300 N 504.032 -0.577932 -1.46621 0
M  V30 5301 C 505.443 -0.150071 -1.86096 0
M  V30 5302 C 505.794 1.28563 -1.48209 0
M  V30 5303 O 504.919 1.97036 -0.894754 0
M  V30 5304 C 505.514 -0.265576 -3.37758 0
M  V30 5305 C 504.073 0.10738 -3.76247 0
M  V30 5306 C 503.22 -0.603711 -2.70649 0
M  V30 5307 H 506.171 -0.786438 -1.37844 0
M  V30 5308 H 506.192 0.510352 -3.77062 0
M  V30 5309 H 505.704 -1.3106 -3.65301 0
M  V30 5310 H 503.805 1.15272 -3.54321 0
M  V30 5311 H 503.918 -0.26561 -4.78363 0
M  V30 5312 H 502.282 -0.0444884 -2.54661 0
M  V30 5313 H 503.065 -1.65029 -3.01032 0
M  V30 5314 N 505.51 1.54411 -0.315457 0
M  V30 5315 C 506.735 2.05299 0.294496 0
M  V30 5316 C 507.16 1.19052 1.4563 0
M  V30 5317 O 506.518 0.197804 1.80218 0
M  V30 5318 C 506.566 3.5345 0.714549 0
M  V30 5319 O 505.67 3.70175 1.81781 0
M  V30 5320 H 505.011 0.661743 0.0547019 0
M  V30 5321 H 507.541 1.99327 -0.461508 0
M  V30 5322 H 507.551 3.9557 0.999426 0
M  V30 5323 H 506.226 4.1568 -0.135244 0
M  V30 5324 H 504.803 3.3996 1.53236 0
M  V30 5325 N 506.988 0.0434614 1.5754 0
M  V30 5326 C 507.951 -0.918696 2.09982 0
M  V30 5327 C 508.951 -1.24488 1.01781 0
M  V30 5328 O 510.141 -1.18284 1.27885 0
M  V30 5329 C 507.273 -2.23093 2.57764 0
M  V30 5330 H 508.466 -0.464229 2.96285 0
M  V30 5331 H 506.019 -0.204818 1.54952 0
M  V30 5332 H 506.754 -2.73137 1.74832 0
M  V30 5333 H 506.539 -2.00724 3.36827 0
M  V30 5334 H 508.029 -2.92028 2.98512 0
M  V30 5335 N 508.466 -1.55915 -0.229846 0
M  V30 5336 C 509.414 -1.9258 -1.30444 0
M  V30 5337 C 510.408 -0.806839 -1.48951 0
M  V30 5338 O 511.614 -0.991606 -1.50224 0
M  V30 5339 H 507.989 -0.611878 -0.437161 0
M  V30 5340 H 509.96 -2.82264 -0.96797 0
M  V30 5341 C 508.709 -2.25171 -2.6494 0
M  V30 5342 H 508.032 -3.10782 -2.51504 0
M  V30 5343 H 509.472 -2.54716 -3.38963 0
M  V30 5344 C 507.931 -1.07394 -3.19324 0
M  V30 5345 O 508.461 -0.330759 -4.00336 0
M  V30 5346 N 506.667 -0.859984 -2.77584 0
M  V30 5347 H 506.214 -1.46605 -2.11813 0
M  V30 5348 H 506.172 -0.0736671 -3.14314 0
M  V30 5349 N 509.944 0.496216 -1.49584 0
M  V30 5350 C 511.184 1.26015 -1.60933 0
M  V30 5351 C 511.548 1.89772 -0.291646 0
M  V30 5352 O 512.749 2.67334 -0.280357 0
M  V30 5353 C 511.02 2.29506 -2.73974 0
M  V30 5354 S 512.579 3.15175 -3.05303 0
M  V30 5355 H 509.397 0.428194 -0.567601 0
M  V30 5356 H 511.999 0.561484 -1.87263 0
M  V30 5357 H 510.703 1.81205 -3.68229 0
M  V30 5358 H 510.234 3.04036 -2.49651 0
M  V30 5359 H 512.249 4.30244 -2.47193 0
M  V30 5360 N 511.423 1.38739 0.74761 0
M  V30 5361 C 512.7 1.25791 1.49786 0
M  V30 5362 C 513.08 -0.138075 2.10648 0
M  V30 5363 O 512.428 -1.14815 1.9756 0
M  V30 5364 C 512.638 2.37265 2.55942 0
M  V30 5365 C 513.986 2.75978 3.22679 0
M  V30 5366 O 515.01 2.36621 2.6625 0
M  V30 5367 O 513.869 3.43867 4.24756 0
M  V30 5368 H 510.963 0.492251 0.664543 0
M  V30 5369 H 513.509 1.50582 0.782511 0
M  V30 5370 H 512.281 3.30644 2.0926 0
M  V30 5371 H 511.904 2.14071 3.35051 0
M  V30 5372 N 512.901 -0.976442 1.23707 0
M  V30 5373 C 514.312 -1.53284 1.06587 0
M  V30 5374 C 514.663 -1.92765 -0.365526 0
M  V30 5375 O 513.788 -1.7645 -1.25277 0
M  V30 5376 C 514.383 -2.78548 1.92864 0
M  V30 5377 C 512.942 -3.30574 1.79994 0
M  V30 5378 C 512.089 -2.03538 1.88328 0
M  V30 5379 H 515.04 -0.795692 1.37311 0
M  V30 5380 H 515.061 -3.5155 1.45577 0
M  V30 5381 H 514.573 -2.49782 2.97037 0
M  V30 5382 H 512.674 -3.64211 0.786202 0
M  V30 5383 H 512.787 -4.00065 2.636 0
M  V30 5384 H 511.151 -2.17853 1.31954 0
M  V30 5385 H 511.934 -1.77149 2.94063 0
M  V30 5386 N 514.379 -1.04941 -1.1758 0
M  V30 5387 C 515.626 -0.757989 -1.87779 0
M  V30 5388 C 515.954 0.714827 -1.80888 0
M  V30 5389 O 515.209 1.53824 -1.20982 0
M  V30 5390 C 515.508 -1.18062 -3.37337 0
M  V30 5391 C 515.174 -2.65521 -3.6443 0
M  V30 5392 C 513.836 -3.05804 -3.71534 0
M  V30 5393 C 516.188 -3.60822 -3.76108 0
M  V30 5394 C 513.516 -4.40256 -3.87803 0
M  V30 5395 C 515.868 -4.95005 -3.93895 0
M  V30 5396 C 514.532 -5.34945 -3.99237 0
M  V30 5397 H 513.802 -0.277368 -0.68713 0
M  V30 5398 H 516.449 -1.31603 -1.39115 0
M  V30 5399 H 514.754 -0.541525 -3.8804 0
M  V30 5400 H 516.451 -0.932368 -3.9001 0
M  V30 5401 H 513.041 -2.33324 -3.59524 0
M  V30 5402 H 517.225 -3.30841 -3.69943 0
M  V30 5403 H 512.481 -4.70707 -3.90186 0
M  V30 5404 H 516.655 -5.68746 -4.01872 0
M  V30 5405 H 514.282 -6.39135 -4.11596 0
M  V30 5406 N 515.857 1.33968 -0.830081 0
M  V30 5407 C 517.082 2.02813 -0.433796 0
M  V30 5408 C 517.507 1.62076 0.954614 0
M  V30 5409 O 516.865 0.808955 1.62252 0
M  V30 5410 C 516.913 3.56348 -0.552115 0
M  V30 5411 O 516.017 4.10202 0.425191 0
M  V30 5412 H 515.358 0.639817 -0.177567 0
M  V30 5413 H 517.888 1.7106 -1.12248 0
M  V30 5414 H 517.898 4.05722 -0.430513 0
M  V30 5415 H 516.573 3.85344 -1.56471 0
M  V30 5416 H 515.15 3.71979 0.261878 0
M  V30 5417 N 517.335 0.585699 1.46312 0
M  V30 5418 C 518.581 0.0725284 2.0267 0
M  V30 5419 C 518.914 -1.28523 1.45586 0
M  V30 5420 O 518.189 -1.84283 0.622101 0
M  V30 5421 C 518.472 0.0099788 3.60099 0
M  V30 5422 C 518.325 1.39685 4.27561 0
M  V30 5423 C 519.644 -0.689117 4.34671 0
M  V30 5424 H 516.763 0.0278307 0.736474 0
M  V30 5425 H 519.405 0.753472 1.74421 0
M  V30 5426 H 517.555 -0.56992 3.84297 0
M  V30 5427 H 519.227 2.02215 4.14617 0
M  V30 5428 H 517.47 1.96374 3.86807 0
M  V30 5429 H 518.141 1.30553 5.36339 0
M  V30 5430 H 520.617 -0.196446 4.15636 0
M  V30 5431 H 519.493 -0.701921 5.44393 0
M  V30 5432 H 519.754 -1.75101 4.05946 0
M  V30 5433 N 518.813 -1.54241 0.323641 0
M  V30 5434 C 520.041 -2.04985 -0.280871 0
M  V30 5435 C 520.456 -1.19978 -1.45777 0
M  V30 5436 O 519.813 -0.230471 -1.81039 0
M  V30 5437 C 519.864 -3.54353 -0.715258 0
M  V30 5438 O 519.585 -4.36132 0.414817 0
M  V30 5439 C 521.086 -4.21189 -1.38257 0
M  V30 5440 H 518.306 -0.66851 -0.0577502 0
M  V30 5441 H 520.85 -1.99029 0.469852 0
M  V30 5442 H 519.005 -3.60596 -1.41596 0
M  V30 5443 H 519.419 -5.2445 0.0725227 0
M  V30 5444 H 520.893 -5.27154 -1.63745 0
M  V30 5445 H 521.37 -3.72307 -2.32989 0
M  V30 5446 H 521.976 -4.19085 -0.724447 0
M  V30 5447 N 520.291 -0.0518155 -1.57515 0
M  V30 5448 C 521.201 0.937539 -2.15052 0
M  V30 5449 C 522.217 1.34121 -1.10849 0
M  V30 5450 O 523.393 1.418 -1.4302 0
M  V30 5451 C 520.458 2.19379 -2.68466 0
M  V30 5452 C 519.519 1.84841 -3.87469 0
M  V30 5453 C 518.752 3.04477 -4.38326 0
M  V30 5454 O 518.975 4.17868 -3.88256 0
M  V30 5455 O 517.909 2.85453 -5.29906 0
M  V30 5456 H 521.735 0.478201 -2.99912 0
M  V30 5457 H 519.32 0.17012 -1.48428 0
M  V30 5458 H 521.202 2.93084 -3.02787 0
M  V30 5459 H 519.877 2.64449 -1.86677 0
M  V30 5460 H 518.784 1.08449 -3.58036 0
M  V30 5461 H 520.117 1.44569 -4.7049 0
M  V30 5462 N 521.769 1.56035 0.221574 0
M  V30 5463 C 522.732 1.91584 1.2581 0
M  V30 5464 C 523.732 0.794425 1.39805 0
M  V30 5465 O 524.922 1.06217 1.38071 0
M  V30 5466 C 522.054 2.16663 2.63192 0
M  V30 5467 H 523.247 2.8429 0.954935 0
M  V30 5468 H 520.8 1.49316 0.461988 0
M  V30 5469 H 521.535 1.26508 2.98607 0
M  V30 5470 H 521.32 2.98358 2.5441 0
M  V30 5471 H 522.81 2.45262 3.37988 0
M  V30 5472 N 523.247 -0.488276 1.49845 0
M  V30 5473 C 524.177 -1.59675 1.70371 0
M  V30 5474 C 525.158 -1.60878 0.552473 0
M  V30 5475 O 526.343 -1.77417 0.78973 0
M  V30 5476 C 523.473 -2.98098 1.782 0
M  V30 5477 C 522.427 -3.11761 2.93239 0
M  V30 5478 C 521.753 -4.51661 2.86193 0
M  V30 5479 C 523.053 -2.90589 4.33999 0
M  V30 5480 H 524.747 -1.42752 2.63177 0
M  V30 5481 H 522.293 -0.685317 1.26647 0
M  V30 5482 H 524.246 -3.75555 1.91144 0
M  V30 5483 H 522.97 -3.16138 0.820018 0
M  V30 5484 H 521.629 -2.36732 2.79917 0
M  V30 5485 H 521.277 -4.66595 1.87877 0
M  V30 5486 H 520.977 -4.61742 3.63412 0
M  V30 5487 H 522.501 -5.31162 3.01163 0
M  V30 5488 H 523.915 -3.57807 4.47936 0
M  V30 5489 H 522.312 -3.1213 5.12538 0
M  V30 5490 H 523.382 -1.86595 4.4756 0
M  V30 5491 N 524.725 -1.39134 -0.740242 0
M  V30 5492 C 525.974 -1.35384 -1.49512 0
M  V30 5493 C 526.287 0.04919 -1.95538 0
M  V30 5494 O 527.493 0.209257 -2.70692 0
M  V30 5495 C 525.949 -2.37812 -2.70136 0
M  V30 5496 C 525.557 -3.83804 -2.31081 0
M  V30 5497 C 527.301 -2.4313 -3.47977 0
M  V30 5498 C 525.208 -4.77886 -3.48395 0
M  V30 5499 H 524.138 -0.503297 -0.561434 0
M  V30 5500 H 526.789 -1.64754 -0.807974 0
M  V30 5501 H 525.171 -2.01505 -3.40899 0
M  V30 5502 H 526.345 -4.29123 -1.67898 0
M  V30 5503 H 524.66 -3.81732 -1.66343 0
M  V30 5504 H 527.257 -3.10614 -4.35228 0
M  V30 5505 H 527.6 -1.45423 -3.90074 0
M  V30 5506 H 528.133 -2.78304 -2.84239 0
M  V30 5507 H 524.872 -5.76836 -3.11353 0
M  V30 5508 H 524.392 -4.3725 -4.10576 0
M  V30 5509 H 526.071 -4.96538 -4.148 0
M  V30 5510 N 526.204 0.969867 -1.24223 0
M  V30 5511 C 527.62 1.23809 -1.00716 0
M  V30 5512 C 527.82 1.99469 0.285358 0
M  V30 5513 O 526.876 2.31764 1.00207 0
M  V30 5514 C 528.189 2.02734 -2.2208 0
M  V30 5515 C 529.737 2.15834 -2.26681 0
M  V30 5516 C 530.212 2.98154 -3.47661 0
M  V30 5517 N 531.703 3.05737 -3.47964 0
M  V30 5518 C 532.438 3.69785 -4.38231 0
M  V30 5519 N 531.934 4.35569 -5.3875 0
M  V30 5520 N 533.727 3.66775 -4.25949 0
M  V30 5521 H 525.878 0.463294 -2.07286 0
M  V30 5522 H 528.141 0.267348 -0.909521 0
M  V30 5523 H 527.847 1.54524 -3.15935 0
M  V30 5524 H 527.721 3.0347 -2.24021 0
M  V30 5525 H 530.108 2.63248 -1.33359 0
M  V30 5526 H 530.189 1.14453 -2.28767 0
M  V30 5527 H 529.833 2.51435 -4.41297 0
M  V30 5528 H 529.763 3.99729 -3.42818 0
M  V30 5529 H 532.254 2.58941 -2.75242 0
M  V30 5530 H 532.567 4.82251 -6.03866 0
M  V30 5531 H 530.912 4.34244 -5.42639 0
M  V30 5532 H 534.103 3.14558 -3.46657 0
M  V30 5533 H 534.276 4.16407 -4.96497 0
M  V30 5534 N 527.682 1.05563 1.17022 0
M  V30 5535 C 528.91 0.78845 1.91288 0
M  V30 5536 C 529.325 -0.656318 1.77025 0
M  V30 5537 O 528.682 -1.44869 1.10992 0
M  V30 5538 C 528.733 1.16444 3.42232 0
M  V30 5539 O 528.454 2.5525 3.5606 0
M  V30 5540 C 529.955 0.923937 4.33565 0
M  V30 5541 H 527.175 0.286389 0.606813 0
M  V30 5542 H 529.719 1.4073 1.48375 0
M  V30 5543 H 527.874 0.590266 3.82877 0
M  V30 5544 H 528.288 2.70097 4.49609 0
M  V30 5545 H 529.762 1.23672 5.37968 0
M  V30 5546 H 530.239 -0.140688 4.38975 0
M  V30 5547 H 530.845 1.48214 3.98639 0
M  V30 5548 N 529.16 -1.33526 0.837174 0
M  V30 5549 C 530.4 -1.99649 0.438115 0
M  V30 5550 C 530.764 -1.64879 -0.983816 0
M  V30 5551 O 531.965 -2.23956 -1.48651 0
M  V30 5552 C 530.236 -3.51431 0.650461 0
M  V30 5553 S 531.795 -4.37431 0.346371 0
M  V30 5554 H 528.613 -0.69162 0.164872 0
M  V30 5555 H 531.215 -1.62556 1.08609 0
M  V30 5556 H 529.919 -3.74225 1.68475 0
M  V30 5557 H 529.45 -3.93398 -0.0117309 0
M  V30 5558 H 531.465 -4.89132 -0.834504 0
M  V30 5559 N 530.638 -0.59345 -1.46 0
M  V30 5560 C 531.568 0.121192 -2.33185 0
M  V30 5561 C 532.549 0.872977 -1.4599 0
M  V30 5562 O 533.734 0.846321 -1.74789 0
M  V30 5563 C 530.864 1.12844 -3.28456 0
M  V30 5564 C 529.818 0.4908 -4.25177 0
M  V30 5565 C 529.144 1.60529 -5.10034 0
M  V30 5566 C 530.444 -0.578949 -5.19081 0
M  V30 5567 H 532.138 -0.606767 -2.93187 0
M  V30 5568 H 529.684 -0.293242 -1.40983 0
M  V30 5569 H 531.637 1.63684 -3.88311 0
M  V30 5570 H 530.361 1.88681 -2.66584 0
M  V30 5571 H 529.02 0.00339328 -3.666 0
M  V30 5572 H 528.668 2.35359 -4.44539 0
M  V30 5573 H 528.368 1.18422 -5.75543 0
M  V30 5574 H 529.892 2.11623 -5.72755 0
M  V30 5575 H 531.306 -0.155199 -5.7309 0
M  V30 5576 H 529.703 -0.920947 -5.92991 0
M  V30 5577 H 530.773 -1.46109 -4.62364 0
M  V30 5578 N 532.116 1.54067 -0.331816 0
M  V30 5579 C 533.046 2.27569 0.522932 0
M  V30 5580 C 534.027 1.28679 1.11247 0
M  V30 5581 O 535.212 1.57504 1.13605 0
M  V30 5582 C 532.342 3.0397 1.67987 0
M  V30 5583 C 531.296 4.10267 1.21924 0
M  V30 5584 C 530.622 4.74555 2.46377 0
M  V30 5585 C 531.922 5.21268 0.32815 0
M  V30 5586 H 533.616 2.99264 -0.0901977 0
M  V30 5587 H 531.162 1.4393 -0.044821 0
M  V30 5588 H 533.115 3.54123 2.28418 0
M  V30 5589 H 531.839 2.29906 2.31971 0
M  V30 5590 H 530.498 3.61009 0.637809 0
M  V30 5591 H 530.146 3.97098 3.08743 0
M  V30 5592 H 529.846 5.46363 2.16243 0
M  V30 5593 H 531.37 5.27487 3.07555 0
M  V30 5594 H 532.784 5.67128 0.838978 0
M  V30 5595 H 531.181 5.99982 0.119228 0
M  V30 5596 H 532.251 4.80673 -0.638839 0
M  V30 5597 N 533.594 0.0601682 1.57485 0
M  V30 5598 C 534.542 -0.928899 2.13247 0
M  V30 5599 C 535.536 -1.31616 1.06647 0
M  V30 5600 O 536.742 -1.29476 1.25043 0
M  V30 5601 H 533.117 -0.317455 0.681708 0
M  V30 5602 H 535.088 -0.433566 2.95233 0
M  V30 5603 C 533.837 -2.19121 2.69965 0
M  V30 5604 H 533.16 -1.90204 3.51657 0
M  V30 5605 H 534.6 -2.86465 3.12592 0
M  V30 5606 C 533.059 -2.94195 1.64168 0
M  V30 5607 O 533.589 -3.87468 1.05978 0
M  V30 5608 N 531.795 -2.57089 1.35476 0
M  V30 5609 H 531.342 -1.81314 1.82984 0
M  V30 5610 H 531.3 -3.07624 0.649196 0
M  V30 5611 N 535.072 -1.5615 -0.213296 0
M  V30 5612 C 535.982 -1.96265 -1.28519 0
M  V30 5613 C 536.998 -0.86765 -1.50824 0
M  V30 5614 O 538.174 -1.17191 -1.63793 0
M  V30 5615 C 535.239 -2.27836 -2.61327 0
M  V30 5616 C 534.3 -3.50949 -2.47252 0
M  V30 5617 C 533.533 -3.81004 -3.73727 0
M  V30 5618 O 533.756 -3.12612 -4.77106 0
M  V30 5619 O 532.69 -4.74477 -3.70344 0
M  V30 5620 H 536.516 -2.87631 -0.974795 0
M  V30 5621 H 534.101 -1.43467 -0.416832 0
M  V30 5622 H 535.983 -2.49299 -3.39747 0
M  V30 5623 H 534.658 -1.39643 -2.9203 0
M  V30 5624 H 533.565 -3.34754 -1.67004 0
M  V30 5625 H 534.898 -4.39551 -2.21486 0
M  V30 5626 N 536.55 0.480323 -1.50102 0
M  V30 5627 C 537.778 1.25657 -1.64371 0
M  V30 5628 C 538.193 1.86011 -0.323316 0
M  V30 5629 O 537.55 1.68803 0.693682 0
M  V30 5630 C 537.601 2.37197 -2.728 0
M  V30 5631 O 537.322 1.7932 -3.9972 0
M  V30 5632 C 538.823 3.2823 -2.9796 0
M  V30 5633 H 536.043 0.380369 -0.552775 0
M  V30 5634 H 538.587 0.574379 -1.96268 0
M  V30 5635 H 536.742 3.01208 -2.43623 0
M  V30 5636 H 537.156 2.52701 -4.59611 0
M  V30 5637 H 538.63 4.02725 -3.77513 0
M  V30 5638 H 539.107 3.86462 -2.08671 0
M  V30 5639 H 539.713 2.69964 -3.28633 0
M  V30 5640 N 538.028 1.39524 0.732853 0
M  V30 5641 C 539.276 1.36594 1.48951 0
M  V30 5642 C 539.597 -0.0367507 1.94965 0
M  V30 5643 O 538.867 -0.988391 1.69138 0
M  V30 5644 H 537.447 0.502673 0.552566 0
M  V30 5645 H 540.109 1.74411 0.869869 0
M  V30 5646 H 539.205 2.03 2.3706 0
M  V30 5647 N 539.506 -0.963266 1.24736 0
M  V30 5648 C 540.783 -1.68248 0.9976 0
M  V30 5649 C 541.163 -2.05599 -0.478776 0
M  V30 5650 O 540.511 -1.7626 -1.45412 0
M  V30 5651 C 540.721 -2.91118 1.92487 0
M  V30 5652 C 542.069 -3.63261 2.19833 0
M  V30 5653 O 543.093 -3.01184 1.90176 0
M  V30 5654 O 541.952 -4.75019 2.7022 0
M  V30 5655 H 539.046 -0.735744 0.377637 0
M  V30 5656 H 541.592 -1.01696 1.35853 0
M  V30 5657 H 540.364 -2.60242 2.92215 0
M  V30 5658 H 539.987 -3.65402 1.56738 0
M  V30 5659 N 540.985 -1.06182 -1.16461 0
M  V30 5660 C 541.895 -0.682671 -2.24448 0
M  V30 5661 C 542.911 0.30078 -1.71381 0
M  V30 5662 O 544.087 0.150376 -2.00838 0
M  V30 5663 C 541.152 -0.0737202 -3.46622 0
M  V30 5664 C 540.213 -1.10889 -4.14731 0
M  V30 5665 C 539.446 -0.528908 -5.31073 0
M  V30 5666 O 539.669 0.65868 -5.66584 0
M  V30 5667 O 538.603 -1.26805 -5.88391 0
M  V30 5668 H 542.429 -1.58291 -2.59187 0
M  V30 5669 H 540.014 -0.834013 -1.23954 0
M  V30 5670 H 541.896 0.264192 -4.20571 0
M  V30 5671 H 540.571 0.800015 -3.13658 0
M  V30 5672 H 539.478 -1.49896 -3.42756 0
M  V30 5673 H 540.811 -1.95412 -4.51747 0
M  V30 5674 N 542.463 1.3308 -0.844243 0
M  V30 5675 C 543.874 1.7992 -0.498566 0
M  V30 5676 C 544.225 1.69808 0.982834 0
M  V30 5677 O 543.35 1.25051 1.7661 0
M  V30 5678 C 543.945 3.26677 -0.898204 0
M  V30 5679 C 542.504 3.71513 -0.604583 0
M  V30 5680 C 541.651 2.54393 -1.10362 0
M  V30 5681 H 544.602 1.20526 -1.03244 0
M  V30 5682 H 544.623 3.79918 -0.21039 0
M  V30 5683 H 544.135 3.34004 -1.97643 0
M  V30 5684 H 542.236 3.69708 0.46335 0
M  V30 5685 H 542.349 4.64755 -1.16358 0
M  V30 5686 H 540.713 2.49246 -0.524273 0
M  V30 5687 H 541.496 2.6448 -2.18873 0
M  V30 5688 N 543.941 0.601185 1.45683 0
M  V30 5689 C 545.188 0.0938811 2.02282 0
M  V30 5690 C 545.516 -1.27315 1.47041 0
M  V30 5691 O 544.771 -1.85193 0.632623 0
M  V30 5692 C 545.07 -0.00222425 3.574 0
M  V30 5693 C 544.736 1.29963 4.31764 0
M  V30 5694 C 543.398 1.65625 4.51798 0
M  V30 5695 C 545.75 2.1603 4.74321 0
M  V30 5696 C 543.078 2.87119 5.11644 0
M  V30 5697 C 545.43 3.36766 5.3551 0
M  V30 5698 C 544.094 3.72689 5.53768 0
M  V30 5699 H 543.364 0.0343535 0.740203 0
M  V30 5700 H 546.011 0.781522 1.74827 0
M  V30 5701 H 544.316 -0.773096 3.84097 0
M  V30 5702 H 546.013 -0.410794 3.9889 0
M  V30 5703 H 542.603 1.01204 4.1648 0
M  V30 5704 H 546.787 1.89778 4.58582 0
M  V30 5705 H 542.043 3.15065 5.2397 0
M  V30 5706 H 546.217 4.03713 5.67441 0
M  V30 5707 H 543.844 4.66918 5.99909 0
M  V30 5708 N 545.419 -1.53889 0.339982 0
M  V30 5709 C 546.351 -2.22435 -0.55275 0
M  V30 5710 C 547.364 -1.22975 -1.06681 0
M  V30 5711 O 548.553 -1.49351 -0.977575 0
M  V30 5712 C 545.653 -2.8882 -1.77302 0
M  V30 5713 C 544.826 -4.14563 -1.39486 0
M  V30 5714 C 543.885 -4.64391 -2.47442 0
M  V30 5715 O 542.911 -5.28687 -2.10899 0
M  V30 5716 N 544.113 -4.40015 -3.78639 0
M  V30 5717 H 546.878 -2.9968 0.0342669 0
M  V30 5718 H 544.439 -1.61068 0.16394 0
M  V30 5719 H 546.431 -3.19072 -2.48948 0
M  V30 5720 H 545.001 -2.15182 -2.26749 0
M  V30 5721 H 544.221 -3.90896 -0.509321 0
M  V30 5722 H 545.509 -4.96362 -1.11813 0
M  V30 5723 H 544.907 -3.88586 -4.11118 0
M  V30 5724 H 543.464 -4.74881 -4.46465 0
M  V30 5725 N 546.897 -0.0685191 -1.57451 0
M  V30 5726 C 548.127 0.609577 -1.97402 0
M  V30 5727 C 548.535 1.63882 -0.945489 0
M  V30 5728 O 547.878 1.8354 0.0766052 0
M  V30 5729 C 547.94 1.3385 -3.33653 0
M  V30 5730 C 547.604 0.463103 -4.54648 0
M  V30 5731 C 548.601 -0.277964 -5.19156 0
M  V30 5732 C 546.286 0.388941 -5.00792 0
M  V30 5733 C 548.28 -1.08145 -6.28159 0
M  V30 5734 C 545.967 -0.418217 -6.09667 0
M  V30 5735 C 546.965 -1.15208 -6.73213 0
M  V30 5736 O 546.653 -1.94594 -7.79993 0
M  V30 5737 H 546.385 0.170197 -0.654224 0
M  V30 5738 H 548.939 -0.13647 -2.04946 0
M  V30 5739 H 547.169 2.13055 -3.22714 0
M  V30 5740 H 548.858 1.90851 -3.58233 0
M  V30 5741 H 549.624 -0.230241 -4.84453 0
M  V30 5742 H 545.503 0.949769 -4.5111 0
M  V30 5743 H 549.047 -1.65476 -6.7769 0
M  V30 5744 H 544.944 -0.467515 -6.43805 0
M  V30 5745 H 545.712 -1.8699 -7.96854 0
M  V30 5746 N 548.375 1.56261 0.205012 0
M  V30 5747 C 549.322 1.93754 1.25411 0
M  V30 5748 C 550.292 0.796826 1.45739 0
M  V30 5749 O 551.477 1.05414 1.59036 0
M  V30 5750 C 548.617 2.27383 2.59598 0
M  V30 5751 C 547.73 3.5447 2.46931 0
M  V30 5752 C 546.865 3.77468 3.73753 0
M  V30 5753 C 545.904 4.98014 3.55877 0
M  V30 5754 N 545.041 5.17316 4.74688 0
M  V30 5755 H 549.881 2.83203 0.92737 0
M  V30 5756 H 547.418 1.40158 0.446574 0
M  V30 5757 H 549.376 2.44895 3.37761 0
M  V30 5758 H 548.006 1.41088 2.90335 0
M  V30 5759 H 547.058 3.45061 1.60116 0
M  V30 5760 H 548.37 4.42789 2.29651 0
M  V30 5761 H 547.524 3.95165 4.60358 0
M  V30 5762 H 546.263 2.87461 3.93976 0
M  V30 5763 H 545.268 4.80249 2.67657 0
M  V30 5764 H 546.493 5.8952 3.37109 0
M  V30 5765 H 544.439 4.30255 4.95194 0
M  V30 5766 H 544.356 5.99796 4.60197 0
M  V30 5767 H 545.624 5.39463 5.62672 0
M  V30 5768 N 549.853 -0.472356 1.50355 0
M  V30 5769 C 550.801 -1.59126 1.69651 0
M  V30 5770 C 551.795 -1.59793 0.56237 0
M  V30 5771 O 553.001 -1.63957 0.742832 0
M  V30 5772 H 549.376 -0.528008 0.535454 0
M  V30 5773 H 551.347 -1.40013 2.63513 0
M  V30 5774 C 550.096 -2.97075 1.8067 0
M  V30 5775 H 549.419 -2.9728 2.67329 0
M  V30 5776 H 550.859 -3.74825 1.98197 0
M  V30 5777 C 549.318 -3.32247 0.558016 0
M  V30 5778 O 549.848 -4.00553 -0.303399 0
M  V30 5779 N 548.054 -2.87659 0.412415 0
M  V30 5780 H 547.601 -2.32246 1.11443 0
M  V30 5781 H 547.559 -3.11556 -0.421908 0
M  V30 5782 O 551.37 -1.49213 -0.617887 0
M  V30 5783 H 552.061 -1.46058 -1.27227 0
M  V30 END ATOM
M  V30 BEGIN BOND
M  V30 END BOND
M  V30 END CTAB
M  END
$$$$
