drugbank_target|P37957 Lipase EstA (DB08475; DB08548)
 OpenBabel12092120513D

  0  0  0     0  0            999 V3000
M  V30 BEGIN CTAB
M  V30 COUNTS 3241 3269 0 0 0
M  V30 BEGIN ATOM
M  V30 1 H -0.908 1.98254 -0.117106 0
M  V30 2 N 0 1.576 0 0
M  V30 3 C 0.933 2.03868 1.02534 0
M  V30 4 C 1.911 0.928543 1.3348 0
M  V30 5 O 3.095 1.19667 1.45644 0
M  V30 6 C 0.222 2.43627 2.35294 0
M  V30 7 C -0.732 3.65373 2.2001 0
M  V30 8 S 0.101 5.13292 1.52614 0
M  V30 9 C 1.257 5.56322 2.86805 0
M  V30 10 H 1.49 2.90518 0.631377 0
M  V30 11 H -0.977 1.52953 0.210867 0
M  V30 12 H 0.981 2.67203 3.11629 0
M  V30 13 H -0.358 1.57376 2.7183 0
M  V30 14 H -1.165 3.90944 3.18086 0
M  V30 15 H -1.563 3.418 1.51819 0
M  V30 16 H 0.729 5.58782 3.83104 0
M  V30 17 H 1.672 6.56266 2.65933 0
M  V30 18 H 2.08 4.83886 2.90714 0
M  V30 19 N 1.4781 -0.272755 1.55222 0
M  V30 20 C 2.4251 -1.33716 1.88119 0
M  V30 21 C 3.3951 -1.49066 0.73271 0
M  V30 22 O 4.5801 -1.63469 0.984002 0
M  V30 23 C 1.7201 -2.69238 2.15882 0
M  V30 24 C 0.8331 -2.62108 3.43399 0
M  V30 25 C -0.0319 -3.89811 3.60861 0
M  V30 26 C -0.9929 -3.77193 4.8207 0
M  V30 27 N -1.8559 -4.9673 4.96189 0
M  V30 28 H 2.9841 -1.04962 2.78903 0
M  V30 29 H 0.5211 -0.507088 1.38083 0
M  V30 30 H 2.4791 -3.48089 2.29978 0
M  V30 31 H 1.1091 -2.96194 1.28331 0
M  V30 32 H 0.1611 -1.74967 3.37773 0
M  V30 33 H 1.4731 -2.48685 4.32386 0
M  V30 34 H 0.6271 -4.77103 3.74777 0
M  V30 35 H -0.6339 -4.06102 2.7006 0
M  V30 36 H -1.6289 -2.88284 4.68159 0
M  V30 37 H -0.4039 -3.62421 5.74307 0
M  V30 38 H -2.4579 -5.13431 4.08319 0
M  V30 39 H -2.5409 -4.85839 5.79221 0
M  V30 40 H -1.2729 -5.85594 5.1449 0
M  V30 41 N 2.9562 -1.48159 -0.537278 0
M  V30 42 C 4.2032 -1.55804 -1.29349 0
M  V30 43 C 4.5312 -0.228802 -1.9315 0
M  V30 44 O 3.7862 0.780242 -1.79473 0
M  V30 45 C 4.0852 -2.63956 -2.40961 0
M  V30 46 C 3.7512 -4.0662 -1.94861 0
M  V30 47 C 2.4132 -4.45452 -1.82006 0
M  V30 48 C 4.7652 -4.96055 -1.59933 0
M  V30 49 C 2.0932 -5.71531 -1.32547 0
M  V30 50 C 4.4452 -6.22617 -1.11939 0
M  V30 51 C 3.1092 -6.60312 -0.976951 0
M  V30 52 H 2.3792 -0.570129 -0.473322 0
M  V30 53 H 5.0262 -1.81845 -0.600372 0
M  V30 54 H 3.3312 -2.31747 -3.15912 0
M  V30 55 H 5.0282 -2.67089 -2.99107 0
M  V30 56 H 1.6182 -3.75949 -2.05815 0
M  V30 57 H 5.8022 -4.66738 -1.68728 0
M  V30 58 H 1.0582 -5.99468 -1.202 0
M  V30 59 H 5.2322 -6.91318 -0.839811 0
M  V30 60 H 2.8592 -7.57895 -0.591501 0
M  V30 61 N 4.4343 0.785586 -1.36625 0
M  V30 62 C 5.6803 1.54591 -1.31261 0
M  V30 63 C 6.0133 1.93906 0.106823 0
M  V30 64 O 5.2883 1.63007 1.06108 0
M  V30 65 C 5.5713 2.82038 -2.23889 0
M  V30 66 C 5.4243 2.49066 -3.74548 0
M  V30 67 C 6.7433 3.83887 -2.15217 0
M  V30 68 H 3.8623 0.560846 -0.478143 0
M  V30 69 H 6.5043 0.902278 -1.67209 0
M  V30 70 H 4.6543 3.36961 -1.93363 0
M  V30 71 H 6.3263 2.00164 -4.15611 0
M  V30 72 H 4.5693 1.81954 -3.93796 0
M  V30 73 H 5.2403 3.40109 -4.34776 0
M  V30 74 H 7.7163 3.38421 -2.42096 0
M  V30 75 H 6.5923 4.70806 -2.82193 0
M  V30 76 H 6.8533 4.27131 -1.14068 0
M  V30 77 N 5.9124 1.20967 1.01018 0
M  V30 78 C 6.8594 0.964281 2.09691 0
M  V30 79 C 7.8294 -0.107853 1.65749 0
M  V30 80 O 9.0144 0.0381987 1.90762 0
M  V30 81 C 6.1544 0.52943 3.41015 0
M  V30 82 C 5.2674 1.67043 3.98398 0
M  V30 83 C 4.4024 1.18525 5.17808 0
M  V30 84 C 3.4414 2.29892 5.67288 0
M  V30 85 N 2.5784 1.82546 6.77954 0
M  V30 86 H 7.4184 1.89463 2.30017 0
M  V30 87 H 4.9554 0.944289 1.1279 0
M  V30 88 H 6.9134 0.258588 4.16398 0
M  V30 89 H 5.5434 -0.363919 3.20742 0
M  V30 90 H 4.5954 2.05603 3.20049 0
M  V30 91 H 5.9074 2.50877 4.31117 0
M  V30 92 H 5.0614 0.870762 6.00419 0
M  V30 93 H 3.8004 0.316887 4.86669 0
M  V30 94 H 2.8054 2.6215 4.83278 0
M  V30 95 H 4.0304 3.17216 6.00459 0
M  V30 96 H 1.9764 0.980454 6.48632 0
M  V30 97 H 1.8934 2.59956 7.09901 0
M  V30 98 H 3.1614 1.54115 7.64113 0
M  V30 99 N 7.3905 -1.2043 1.01659 0
M  V30 100 C 8.8065 -1.41852 0.731442 0
M  V30 101 C 9.0065 -1.89358 -0.688898 0
M  V30 102 O 8.0625 -2.06247 -1.45666 0
M  V30 103 C 9.3755 -2.44019 1.75714 0
M  V30 104 C 10.9235 -2.57785 1.77527 0
M  V30 105 C 11.3985 -3.63194 2.79023 0
M  V30 106 N 12.8895 -3.70678 2.77763 0
M  V30 107 C 13.6245 -4.51897 3.52954 0
M  V30 108 N 13.1205 -5.36921 4.37821 0
M  V30 109 N 14.9135 -4.4643 3.41551 0
M  V30 110 H 7.0645 -0.879093 1.93354 0
M  V30 111 H 9.3275 -0.448425 0.835236 0
M  V30 112 H 9.0335 -2.1611 2.77469 0
M  V30 113 H 8.9075 -3.43007 1.56927 0
M  V30 114 H 11.2945 -2.85023 0.764569 0
M  V30 115 H 11.3755 -1.58992 2.00387 0
M  V30 116 H 11.0195 -3.36699 3.80258 0
M  V30 117 H 10.9495 -4.61609 2.53425 0
M  V30 118 H 13.4405 -3.09944 2.16201 0
M  V30 119 H 13.7535 -5.95981 4.91962 0
M  V30 120 H 12.0985 -5.36424 4.41899 0
M  V30 121 H 15.2895 -3.79042 2.74672 0
M  V30 122 H 15.4625 -5.09491 4.00404 0
M  V30 123 N 8.8686 -0.792821 -1.36206 0
M  V30 124 C 10.2846 -0.474903 -1.52371 0
M  V30 125 C 10.4846 1.00622 -1.74578 0
M  V30 126 O 9.5406 1.79162 -1.77924 0
M  V30 127 C 10.8536 -1.3083 -2.70747 0
M  V30 128 C 12.4016 -1.30234 -2.84619 0
M  V30 129 C 12.8766 -2.11956 -4.06004 0
M  V30 130 N 14.3676 -2.09419 -4.13156 0
M  V30 131 C 15.1026 -2.69419 -5.06163 0
M  V30 132 N 14.5986 -3.3829 -6.04592 0
M  V30 133 N 16.3916 -2.59134 -4.98804 0
M  V30 134 H 8.5426 -1.75222 -1.20046 0
M  V30 135 H 10.8056 -0.745024 -0.586211 0
M  V30 136 H 10.5116 -2.35881 -2.6087 0
M  V30 137 H 10.3856 -0.95196 -3.6499 0
M  V30 138 H 12.7726 -0.259748 -2.93955 0
M  V30 139 H 12.8536 -1.69847 -1.91274 0
M  V30 140 H 12.4976 -3.16248 -3.97429 0
M  V30 141 H 12.4276 -1.69711 -4.98503 0
M  V30 142 H 14.9186 -1.59297 -3.42685 0
M  V30 143 H 15.2316 -3.81394 -6.7213 0
M  V30 144 H 13.5766 -3.42393 -6.04807 0
M  V30 145 H 16.7676 -2.04927 -4.20859 0
M  V30 146 H 16.9406 -3.06185 -5.711 0
M  V30 147 N 10.3467 1.47872 -0.545128 0
M  V30 148 C 11.5957 2.01695 -0.0145033 0
M  V30 149 C 11.9087 1.42609 1.33873 0
M  V30 150 O 13.1147 1.88021 1.95858 0
M  V30 151 C 11.5707 3.59892 0.0245068 0
M  V30 152 C 11.1787 4.27966 -1.32475 0
M  V30 153 C 12.9227 4.21507 0.50316 0
M  V30 154 C 10.8297 5.78136 -1.2455 0
M  V30 155 H 9.7597 0.753998 -0.00165172 0
M  V30 156 H 12.4107 1.69985 -0.691175 0
M  V30 157 H 10.7927 3.88509 0.766575 0
M  V30 158 H 11.9667 4.11003 -2.08357 0
M  V30 159 H 10.2817 3.78286 -1.74036 0
M  V30 160 H 12.8787 5.31538 0.580656 0
M  V30 161 H 13.2217 3.87855 1.51243 0
M  V30 162 H 13.7547 3.97376 -0.183681 0
M  V30 163 H 10.4937 6.16388 -2.23039 0
M  V30 164 H 10.0137 5.97469 -0.528282 0
M  V30 165 H 11.6927 6.40099 -0.942488 0
M  V30 166 N 11.8248 0.280983 1.55075 0
M  V30 167 C 13.0738 -0.334784 1.98902 0
M  V30 168 C 13.3868 -1.56534 1.17288 0
M  V30 169 O 14.5928 -2.25443 1.51287 0
M  V30 170 C 13.0488 -0.646994 3.54037 0
M  V30 171 C 12.6568 0.564085 4.44435 0
M  V30 172 C 14.4008 -1.22506 4.06439 0
M  V30 173 C 12.3078 0.226137 5.90967 0
M  V30 174 H 11.2378 -0.128866 0.742906 0
M  V30 175 H 13.8888 0.386556 1.79382 0
M  V30 176 H 12.2708 -1.42739 3.6938 0
M  V30 177 H 13.4448 1.34082 4.40861 0
M  V30 178 H 11.7598 1.0594 4.02698 0
M  V30 179 H 14.3568 -1.49182 5.13468 0
M  V30 180 H 14.6998 -2.16085 3.55827 0
M  V30 181 H 15.2328 -0.50682 3.94558 0
M  V30 182 H 11.9718 1.12996 6.45687 0
M  V30 183 H 11.4918 -0.513717 5.97596 0
M  V30 184 H 13.1708 -0.179539 6.46751 0
M  V30 185 N 13.3029 -1.57598 0.00835791 0
M  V30 186 C 14.2659 -2.07884 -0.965242 0
M  V30 187 C 15.2659 -0.989825 -1.26725 0
M  V30 188 O 16.4559 -1.25218 -1.21104 0
M  V30 189 C 13.5879 -2.52731 -2.28779 0
M  V30 190 H 14.7809 -2.95178 -0.530112 0
M  V30 191 H 12.3339 -1.54458 -0.239283 0
M  V30 192 H 13.0689 -1.68705 -2.76964 0
M  V30 193 H 12.8539 -3.32272 -2.08177 0
M  V30 194 H 14.3439 -2.91933 -2.98605 0
M  V30 195 N 14.781 0.264519 -1.55364 0
M  V30 196 C 15.711 1.33121 -1.91836 0
M  V30 197 C 16.692 1.51101 -0.781192 0
M  V30 198 O 17.877 1.64003 -1.04003 0
M  V30 199 C 15.007 2.68921 -2.19769 0
M  V30 200 C 13.961 2.65661 -3.35571 0
M  V30 201 C 13.287 4.05093 -3.49004 0
M  V30 202 C 14.587 2.24187 -4.71739 0
M  V30 203 H 16.281 1.02844 -2.81182 0
M  V30 204 H 13.827 0.493286 -1.35287 0
M  V30 205 H 15.78 3.43663 -2.43872 0
M  V30 206 H 14.504 3.00799 -1.27231 0
M  V30 207 H 13.163 1.93377 -3.1145 0
M  V30 208 H 12.811 4.34206 -2.53917 0
M  V30 209 H 12.511 4.03804 -4.26868 0
M  V30 210 H 14.035 4.81561 -3.75408 0
M  V30 211 H 15.449 2.88654 -4.9533 0
M  V30 212 H 13.846 2.34044 -5.52579 0
M  V30 213 H 14.916 1.19327 -4.69988 0
M  V30 214 N 16.2591 1.48442 0.529413 0
M  V30 215 C 17.5051 1.5672 1.28711 0
M  V30 216 C 17.8381 0.2406 1.92704 0
M  V30 217 O 17.1131 -0.753454 1.79313 0
M  V30 218 C 17.3961 2.70587 2.37603 0
M  V30 219 C 17.2491 4.12953 1.78297 0
M  V30 220 C 18.5681 2.80212 3.39366 0
M  V30 221 H 15.6871 0.570474 0.466613 0
M  V30 222 H 18.3291 1.80617 0.589706 0
M  V30 223 H 16.4791 2.50342 2.97088 0
M  V30 224 H 18.1511 4.44639 1.22858 0
M  V30 225 H 16.3941 4.19927 1.0883 0
M  V30 226 H 17.0651 4.88448 2.57144 0
M  V30 227 H 19.5411 2.98553 2.89836 0
M  V30 228 H 18.4171 3.61611 4.12951 0
M  V30 229 H 18.6781 1.88393 3.99951 0
M  V30 230 N 17.7372 -0.778329 1.37039 0
M  V30 231 C 18.9652 -1.56734 1.35063 0
M  V30 232 C 19.3802 -1.88686 -0.0655597 0
M  V30 233 O 18.7372 -1.5096 -1.02554 0
M  V30 234 C 18.7882 -2.88163 2.18276 0
M  V30 235 O 18.5092 -2.57583 3.54376 0
M  V30 236 C 20.0102 -3.82422 2.24206 0
M  V30 237 H 17.2302 -0.485778 0.462883 0
M  V30 238 H 19.7742 -0.965185 1.8029 0
M  V30 239 H 17.9292 -3.44818 1.76576 0
M  V30 240 H 18.3432 -3.41699 3.97922 0
M  V30 241 H 19.8172 -4.71667 2.86765 0
M  V30 242 H 20.2942 -4.21078 1.24861 0
M  V30 243 H 20.9002 -3.31697 2.6619 0
M  V30 244 N 19.2153 -1.21501 -1.00376 0
M  V30 245 C 20.4643 -1.02718 -1.73586 0
M  V30 246 C 20.7773 0.439589 -1.90596 0
M  V30 247 O 21.9833 0.746848 -2.61026 0
M  V30 248 C 20.4393 -1.78929 -3.1227 0
M  V30 249 C 20.0473 -3.29783 -3.03228 0
M  V30 250 C 21.7913 -1.68557 -3.89601 0
M  V30 251 C 19.6983 -3.98479 -4.36999 0
M  V30 252 H 18.6283 -0.380733 -0.650814 0
M  V30 253 H 21.2793 -1.45248 -1.1214 0
M  V30 254 H 19.6613 -1.29192 -3.74333 0
M  V30 255 H 20.8353 -3.86832 -2.50395 0
M  V30 256 H 19.1503 -3.40711 -2.39385 0
M  V30 257 H 21.7473 -2.17211 -4.88593 0
M  V30 258 H 22.0903 -0.644021 -4.11288 0
M  V30 259 H 22.6233 -2.15778 -3.34193 0
M  V30 260 H 19.3623 -5.02841 -4.20513 0
M  V30 261 H 18.8823 -3.46219 -4.89788 0
M  V30 262 H 20.5613 -4.03462 -5.05794 0
M  V30 263 N 20.6934 1.19889 -1.02296 0
M  V30 264 C 21.6234 2.25141 -0.619174 0
M  V30 265 C 22.6044 1.66051 0.368915 0
M  V30 266 O 23.7894 1.92546 0.252941 0
M  V30 267 C 20.9194 3.4728 0.0368783 0
M  V30 268 C 19.8734 4.19005 -0.872865 0
M  V30 269 C 19.1994 5.34637 -0.0822402 0
M  V30 270 C 20.4994 4.74452 -2.18387 0
M  V30 271 H 22.1934 2.59171 -1.49903 0
M  V30 272 H 19.7394 1.24579 -0.722222 0
M  V30 273 H 21.6924 4.20098 0.330958 0
M  V30 274 H 20.4164 3.12433 0.95149 0
M  V30 275 H 19.0754 3.48061 -1.15105 0
M  V30 276 H 18.7234 4.96034 0.83422 0
M  V30 277 H 18.4234 5.83557 -0.688149 0
M  V30 278 H 19.9474 6.10255 0.205238 0
M  V30 279 H 21.3614 5.39055 -1.95172 0
M  V30 280 H 19.7584 5.33834 -2.74119 0
M  V30 281 H 20.8284 3.92844 -2.84257 0
M  V30 282 N 22.1715 0.800033 1.35784 0
M  V30 283 C 23.1045 0.151499 2.27697 0
M  V30 284 C 24.0825 -0.678663 1.4776 0
M  V30 285 O 25.2665 -0.647358 1.77035 0
M  V30 286 C 22.3935 -0.790492 3.29346 0
M  V30 287 C 21.4395 -0.0407832 4.26481 0
M  V30 288 S 22.2725 1.29077 5.19711 0
M  V30 289 C 23.4285 0.353055 6.24903 0
M  V30 290 H 23.6615 0.930796 2.82353 0
M  V30 291 H 21.1945 0.594767 1.42485 0
M  V30 292 H 23.1525 -1.3285 3.88409 0
M  V30 293 H 21.8135 -1.54312 2.73581 0
M  V30 294 H 21.0065 -0.755971 4.98298 0
M  V30 295 H 20.6085 0.427063 3.71554 0
M  V30 296 H 22.9005 -0.464147 6.75908 0
M  V30 297 H 23.8435 1.04023 7.00418 0
M  V30 298 H 24.2515 -0.0483344 5.64479 0
M  V30 299 N 23.6496 -1.47581 0.552962 0
M  V30 300 C 24.5796 -2.32762 -0.185451 0
M  V30 301 C 25.5606 -1.43527 -0.912905 0
M  V30 302 O 26.7456 -1.72388 -0.894201 0
M  V30 303 C 23.8756 -3.25219 -1.21859 0
M  V30 304 C 22.8296 -4.23661 -0.607864 0
M  V30 305 C 22.1556 -5.05413 -1.74533 0
M  V30 306 C 23.4556 -5.20481 0.435582 0
M  V30 307 H 25.1496 -2.94749 0.525684 0
M  V30 308 H 22.6956 -1.41738 0.254251 0
M  V30 309 H 24.6486 -3.8365 -1.7433 0
M  V30 310 H 23.3726 -2.61279 -1.95961 0
M  V30 311 H 22.0316 -3.66451 -0.104489 0
M  V30 312 H 21.6796 -4.3788 -2.47529 0
M  V30 313 H 21.3796 -5.72059 -1.34249 0
M  V30 314 H 22.9036 -5.66701 -2.27338 0
M  V30 315 H 24.3176 -5.733 -0.00290157 0
M  V30 316 H 22.7146 -5.95305 0.757067 0
M  V30 317 H 23.7846 -4.66217 1.33303 0
M  V30 318 N 25.1277 -0.289203 -1.54924 0
M  V30 319 C 26.3527 0.329299 -2.04769 0
M  V30 320 C 26.7777 1.4763 -1.16564 0
M  V30 321 O 26.1357 1.80527 -0.167186 0
M  V30 322 C 26.1837 0.774438 -3.52186 0
M  V30 323 O 25.2877 1.88038 -3.67036 0
M  V30 324 H 24.6287 0.0659259 -0.660719 0
M  V30 325 H 27.1587 -0.42761 -2.00082 0
M  V30 326 H 27.1687 1.06642 -3.93816 0
M  V30 327 H 25.8437 -0.0646707 -4.1585 0
M  V30 328 H 24.4207 1.58985 -3.3731 0
M  V30 329 N 26.6058 1.57591 -0.0167156 0
M  V30 330 C 27.8518 1.91567 0.665582 0
M  V30 331 C 28.1848 0.892298 1.72487 0
M  V30 332 O 27.4598 -0.0867127 1.94307 0
M  V30 333 C 27.7428 3.36069 1.29342 0
M  V30 334 C 27.5958 4.49135 0.244541 0
M  V30 335 C 28.9148 3.803 2.21495 0
M  V30 336 H 26.0338 0.69666 0.240488 0
M  V30 337 H 28.6758 1.89866 -0.0714356 0
M  V30 338 H 26.8258 3.3765 1.92158 0
M  V30 339 H 28.4978 4.59689 -0.385228 0
M  V30 340 H 26.7408 4.3165 -0.431379 0
M  V30 341 H 27.4118 5.47242 0.723207 0
M  V30 342 H 29.8878 3.80377 1.68678 0
M  V30 343 H 28.7638 4.82127 2.62382 0
M  V30 344 H 29.0248 3.15104 3.101 0
M  V30 345 N 28.0839 -0.256276 1.55502 0
M  V30 346 C 29.3119 -1.00342 1.8094 0
M  V30 347 C 29.7269 -1.79307 0.59114 0
M  V30 348 O 29.0839 -1.77114 -0.440081 0
M  V30 349 C 29.1349 -1.94875 3.04476 0
M  V30 350 O 28.8559 -1.19107 4.21598 0
M  V30 351 C 30.3569 -2.81266 3.42644 0
M  V30 352 H 27.5769 -0.295685 0.602338 0
M  V30 353 H 30.1209 -0.281998 2.02546 0
M  V30 354 H 28.2759 -2.62457 2.84947 0
M  V30 355 H 28.6899 -1.82969 4.91551 0
M  V30 356 H 30.1639 -3.43362 4.32211 0
M  V30 357 H 30.6409 -3.51897 2.62802 0
M  V30 358 H 31.2469 -2.1915 3.64491 0
M  V30 359 N 29.562 -1.4872 -0.521534 0
M  V30 360 C 30.787 -1.61101 -1.30618 0
M  V30 361 C 31.212 -0.274611 -1.86085 0
M  V30 362 O 30.57 0.754937 -1.64834 0
M  V30 363 C 30.618 -2.66709 -2.4269 0
M  V30 364 O 29.722 -2.24456 -3.45967 0
M  V30 365 H 29.063 -0.539921 -0.386499 0
M  V30 366 H 31.593 -1.94767 -0.626645 0
M  V30 367 H 31.603 -2.88245 -2.88754 0
M  V30 368 H 30.278 -3.63727 -2.01682 0
M  V30 369 H 28.855 -2.13168 -3.05964 0
M  V30 370 N 31.0401 0.771051 -1.3745 0
M  V30 371 C 31.9701 1.89827 -1.3597 0
M  V30 372 C 32.9511 1.68562 -0.228216 0
M  V30 373 O 34.1361 1.8941 -0.428675 0
M  V30 374 C 31.2661 3.2712 -1.16662 0
M  V30 375 C 30.2201 3.6295 -2.2683 0
M  V30 376 C 29.5461 4.98791 -1.92644 0
M  V30 377 C 30.8461 3.69627 -3.69017 0
M  V30 378 H 32.5401 1.91323 -2.30295 0
M  V30 379 H 30.0861 0.919082 -1.10855 0
M  V30 380 H 32.0391 4.05615 -1.14256 0
M  V30 381 H 30.7631 3.26059 -0.187926 0
M  V30 382 H 29.4221 2.86763 -2.28392 0
M  V30 383 H 29.0701 4.94271 -0.933021 0
M  V30 384 H 28.7701 5.23733 -2.66416 0
M  V30 385 H 30.2941 5.79685 -1.91826 0
M  V30 386 H 31.7081 4.38273 -3.69581 0
M  V30 387 H 30.1051 4.06067 -4.41848 0
M  V30 388 H 31.1751 2.70273 -4.02592 0
M  V30 389 N 32.5182 1.22032 0.997298 0
M  V30 390 C 33.7652 1.04222 1.73621 0
M  V30 391 C 34.0932 -0.423264 1.89839 0
M  V30 392 O 33.3482 -1.3302 1.43542 0
M  V30 393 C 33.6472 1.69345 3.14733 0
M  V30 394 C 33.3132 3.19226 3.18442 0
M  V30 395 C 31.9752 3.60124 3.19161 0
M  V30 396 C 34.3272 4.15181 3.15078 0
M  V30 397 C 31.6552 4.95467 3.14212 0
M  V30 398 C 34.0072 5.50495 3.1167 0
M  V30 399 C 32.6712 5.90779 3.10703 0
M  V30 400 H 31.9412 0.381374 0.635323 0
M  V30 401 H 34.5882 1.51732 1.16831 0
M  V30 402 H 32.8932 1.14147 3.74803 0
M  V30 403 H 34.5902 1.53059 3.7064 0
M  V30 404 H 31.1802 2.86659 3.18629 0
M  V30 405 H 35.3642 3.84605 3.13676 0
M  V30 406 H 30.6202 5.25916 3.11805 0
M  V30 407 H 34.7942 6.24576 3.08022 0
M  V30 408 H 32.4212 6.9562 3.06622 0
M  V30 409 N 33.9963 -1.19345 1.0293 0
M  V30 410 C 34.9593 -2.20793 0.615069 0
M  V30 411 C 35.9593 -1.57553 -0.321533 0
M  V30 412 O 37.1493 -1.73862 -0.108483 0
M  V30 413 C 34.2813 -3.40754 -0.0999222 0
M  V30 414 H 35.4743 -2.58955 1.51269 0
M  V30 415 H 33.0273 -1.3303 0.820534 0
M  V30 416 H 33.7623 -3.0811 -1.01187 0
M  V30 417 H 33.5473 -3.87889 0.57309 0
M  V30 418 H 35.0373 -4.15898 -0.376645 0
M  V30 419 N 35.4744 -0.807222 -1.35358 0
M  V30 420 C 36.4044 -0.232509 -2.3234 0
M  V30 421 C 37.3854 0.642386 -1.57504 0
M  V30 422 O 38.5704 0.572526 -1.85569 0
M  V30 423 C 35.7004 0.619238 -3.41735 0
M  V30 424 C 34.6544 -0.157215 -4.27711 0
M  V30 425 C 33.9804 0.816273 -5.28433 0
M  V30 426 C 35.2804 -1.35656 -5.04376 0
M  V30 427 H 36.9744 -1.04276 -2.80654 0
M  V30 428 H 34.5204 -0.50288 -1.34934 0
M  V30 429 H 36.4734 1.03137 -4.08584 0
M  V30 430 H 35.1974 1.46239 -2.92031 0
M  V30 431 H 33.8564 -0.550525 -3.62443 0
M  V30 432 H 33.5044 1.65494 -4.74996 0
M  V30 433 H 33.2044 0.301067 -5.86828 0
M  V30 434 H 34.7284 1.22659 -5.98153 0
M  V30 435 H 36.1424 -1.01927 -5.64166 0
M  V30 436 H 34.5394 -1.8063 -5.7227 0
M  V30 437 H 35.6094 -2.14288 -4.34981 0
M  V30 438 N 36.9525 1.47285 -0.560781 0
M  V30 439 C 37.8845 2.28118 0.222438 0
M  V30 440 C 38.8975 1.37219 0.876056 0
M  V30 441 O 40.0865 1.62011 0.749307 0
M  V30 442 C 37.1865 3.1159 1.33285 0
M  V30 443 C 36.3595 4.30473 0.77534 0
M  V30 444 C 35.4185 4.95513 1.77069 0
M  V30 445 O 34.4445 5.53792 1.31539 0
M  V30 446 N 35.6465 4.90531 3.10418 0
M  V30 447 H 38.4115 2.95976 -0.470958 0
M  V30 448 H 35.9725 1.56955 -0.39709 0
M  V30 449 H 37.9645 3.51967 1.99752 0
M  V30 450 H 36.5345 2.45951 1.92943 0
M  V30 451 H 35.7545 3.94144 -0.0662113 0
M  V30 452 H 37.0425 5.07362 0.382272 0
M  V30 453 H 36.4405 4.44389 3.5005 0
M  V30 454 H 34.9975 5.34917 3.72434 0
M  V30 455 N 38.4306 0.297415 1.54768 0
M  V30 456 C 39.8416 -0.195947 1.85669 0
M  V30 457 C 40.1926 -1.53707 1.21937 0
M  V30 458 O 39.3176 -2.10164 0.515754 0
M  V30 459 C 39.9126 -0.362318 3.36857 0
M  V30 460 C 38.4716 -0.799901 3.67802 0
M  V30 461 C 37.6186 0.0938578 2.77141 0
M  V30 462 H 40.5696 0.518538 1.4999 0
M  V30 463 H 40.5906 -1.19745 3.61167 0
M  V30 464 H 40.1026 0.613921 3.83214 0
M  V30 465 H 38.2036 -1.78682 3.26961 0
M  V30 466 H 38.3166 -0.621773 4.75048 0
M  V30 467 H 36.6806 -0.426254 2.51108 0
M  V30 468 H 37.4636 1.06639 3.26318 0
M  V30 469 N 39.9087 -1.5758 0.0250728 0
M  V30 470 C 41.1337 -1.96337 -0.668317 0
M  V30 471 C 41.5587 -0.901314 -1.651 0
M  V30 472 O 40.9167 0.138187 -1.80773 0
M  V30 473 C 40.9647 -3.34191 -1.35457 0
M  V30 474 O 40.0687 -3.30269 -2.46974 0
M  V30 475 H 39.4097 -0.640281 -0.175887 0
M  V30 476 H 41.9397 -2.0442 0.0857224 0
M  V30 477 H 41.9497 -3.70331 -1.71228 0
M  V30 478 H 40.6247 -4.11036 -0.634218 0
M  V30 479 H 39.2017 -3.05841 -2.13344 0
M  V30 480 N 41.3868 0.248026 -1.55636 0
M  V30 481 C 42.3498 1.29044 -1.89421 0
M  V30 482 C 43.3498 1.41134 -0.770581 0
M  V30 483 O 44.5398 1.39854 -1.03858 0
M  V30 484 C 41.6718 2.66831 -2.12165 0
M  V30 485 H 42.8648 1.00305 -2.82629 0
M  V30 486 H 40.4178 0.487265 -1.48511 0
M  V30 487 H 41.1528 3.00711 -1.21422 0
M  V30 488 H 40.9378 2.59438 -2.93997 0
M  V30 489 H 42.4278 3.42103 -2.3949 0
M  V30 490 N 42.8649 1.48995 0.513639 0
M  V30 491 C 43.8119 1.6473 1.61656 0
M  V30 492 C 44.7819 0.488984 1.58739 0
M  V30 493 O 45.9669 0.714478 1.76918 0
M  V30 494 C 43.1069 1.7082 2.99858 0
M  V30 495 C 42.2199 2.9787 3.12885 0
M  V30 496 C 41.3549 2.95017 4.41744 0
M  V30 497 C 40.3939 4.16702 4.48359 0
M  V30 498 N 39.5309 4.11832 5.68629 0
M  V30 499 H 44.3709 2.58909 1.47547 0
M  V30 500 H 41.9079 1.28382 0.71808 0
M  V30 501 H 43.8659 1.72331 3.79944 0
M  V30 502 H 42.4959 0.801181 3.12699 0
M  V30 503 H 41.5479 3.06029 2.25944 0
M  V30 504 H 42.8599 3.8786 3.13633 0
M  V30 505 H 42.0139 2.95021 5.30139 0
M  V30 506 H 40.7529 2.02784 4.43542 0
M  V30 507 H 39.7579 4.16955 3.58369 0
M  V30 508 H 40.9829 5.10113 4.48287 0
M  V30 509 H 38.9289 3.22428 5.71293 0
M  V30 510 H 38.8459 4.95543 5.7094 0
M  V30 511 H 40.1139 4.1592 6.59266 0
M  V30 512 N 44.343 -0.763751 1.37857 0
M  V30 513 C 45.306 -1.85889 1.34081 0
M  V30 514 C 46.306 -1.58949 0.243277 0
M  V30 515 O 47.496 -1.66882 0.499589 0
M  V30 516 C 44.628 -3.23176 1.08489 0
M  V30 517 H 45.821 -1.90648 2.31502 0
M  V30 518 H 43.374 -0.964367 1.23003 0
M  V30 519 H 44.109 -3.24091 0.116318 0
M  V30 520 H 43.894 -3.44124 1.8794 0
M  V30 521 H 45.384 -4.03254 1.08517 0
M  V30 522 N 45.8211 -1.22559 -0.990812 0
M  V30 523 C 46.7841 -0.998863 -2.0629 0
M  V30 524 C 47.7841 0.0354834 -1.60761 0
M  V30 525 O 48.9741 -0.203231 -1.7301 0
M  V30 526 C 46.1061 -0.509203 -3.37076 0
M  V30 527 H 47.2991 -1.95014 -2.27837 0
M  V30 528 H 44.8521 -1.04456 -1.16269 0
M  V30 529 H 45.5871 0.446335 -3.21214 0
M  V30 530 H 45.3721 -1.25547 -3.71457 0
M  V30 531 H 46.8621 -0.370888 -4.1595 0
M  V30 532 N 47.2992 1.18797 -1.03562 0
M  V30 533 C 48.2092 2.25913 -0.632505 0
M  V30 534 C 49.2252 1.70668 0.338882 0
M  V30 535 O 50.4012 2.00453 0.195076 0
M  V30 536 C 47.4662 3.467 0.00350942 0
M  V30 537 C 46.5272 4.17098 -1.01624 0
M  V30 538 C 45.7602 5.32119 -0.410478 0
M  V30 539 O 45.9832 5.64976 0.784725 0
M  V30 540 O 44.9172 5.9107 -1.13667 0
M  V30 541 H 48.7432 2.62648 -1.52478 0
M  V30 542 H 46.3282 1.25781 -0.806195 0
M  V30 543 H 48.2102 4.19878 0.35781 0
M  V30 544 H 46.8852 3.11798 0.869686 0
M  V30 545 H 45.7922 3.4601 -1.42224 0
M  V30 546 H 47.1252 4.55987 -1.85301 0
M  V30 547 N 48.7773 0.814389 1.34928 0
M  V30 548 C 49.7273 0.202752 2.27097 0
M  V30 549 C 50.7113 -0.62799 1.48139 0
M  V30 550 O 51.9033 -0.483969 1.70255 0
M  V30 551 C 49.0323 -0.64146 3.37254 0
M  V30 552 C 48.1183 0.19944 4.23631 0
M  V30 553 N 48.5093 1.26628 4.89693 0
M  V30 554 C 46.8073 -0.0176433 4.45997 0
M  V30 555 C 47.5083 1.78031 5.53787 0
M  V30 556 N 46.4843 1.08553 5.32651 0
M  V30 557 H 50.2863 1.01893 2.75672 0
M  V30 558 H 47.8003 0.656332 1.48546 0
M  V30 559 H 49.7973 -1.09575 4.02243 0
M  V30 560 H 48.4573 -1.4559 2.9023 0
M  V30 561 H 49.4683 1.64901 4.90946 0
M  V30 562 H 46.1453 -0.800601 4.09752 0
M  V30 563 H 47.5353 2.67236 6.16469 0
M  V30 564 N 50.2554 -1.46986 0.568584 0
M  V30 565 C 51.2034 -2.31858 -0.185649 0
M  V30 566 C 52.1974 -1.43624 -0.898249 0
M  V30 567 O 53.4034 -1.60327 -0.818242 0
M  V30 568 H 49.7784 -0.747866 -0.0787399 0
M  V30 569 H 51.7494 -2.93303 0.549191 0
M  V30 570 C 50.4984 -3.26513 -1.19519 0
M  V30 571 H 49.8214 -3.94377 -0.656285 0
M  V30 572 H 51.2614 -3.88707 -1.6936 0
M  V30 573 C 49.7204 -2.50847 -2.24894 0
M  V30 574 O 50.2504 -2.26119 -3.32014 0
M  V30 575 N 48.4564 -2.11656 -1.99124 0
M  V30 576 H 48.0034 -2.31966 -1.12024 0
M  V30 577 H 47.9614 -1.61347 -2.69842 0
M  V30 578 N 51.7335 -0.305618 -1.54608 0
M  V30 579 C 53.1445 0.186098 -1.8577 0
M  V30 580 C 53.4955 1.53058 -1.22751 0
M  V30 581 O 52.6205 2.09888 -0.526893 0
M  V30 582 C 53.2155 0.344449 -3.37044 0
M  V30 583 C 51.7745 0.780384 -3.68221 0
M  V30 584 C 50.9215 -0.108554 -2.77087 0
M  V30 585 H 53.8725 -0.526485 -1.49712 0
M  V30 586 H 53.8935 1.17828 -3.61796 0
M  V30 587 H 53.4055 -0.634235 -3.82883 0
M  V30 588 H 51.5065 1.76945 -3.27904 0
M  V30 589 H 51.6195 0.596572 -4.75371 0
M  V30 590 H 49.9835 0.412931 -2.5133 0
M  V30 591 H 50.7665 -1.08368 -3.25747 0
M  V30 592 N 53.2116 1.57565 -0.0334293 0
M  V30 593 C 54.4576 1.92262 0.645226 0
M  V30 594 C 54.7906 0.910543 1.71531 0
M  V30 595 O 54.0656 -0.066099 1.94388 0
M  V30 596 C 54.3486 3.37422 1.2577 0
M  V30 597 C 54.2016 4.49369 0.196891 0
M  V30 598 C 55.5206 3.82628 2.17449 0
M  V30 599 H 52.6396 0.699171 0.233085 0
M  V30 600 H 55.2816 1.89779 -0.0915694 0
M  V30 601 H 53.4316 3.39669 1.88566 0
M  V30 602 H 55.1036 4.59254 -0.433962 0
M  V30 603 H 53.3466 4.31168 -0.477137 0
M  V30 604 H 54.0176 5.47978 0.665124 0
M  V30 605 H 56.4936 3.82145 1.64634 0
M  V30 606 H 55.3696 4.84883 2.57254 0
M  V30 607 H 55.6306 3.18376 3.0674 0
M  V30 608 N 54.6897 -0.239769 1.55765 0
M  V30 609 C 55.9357 -0.968234 1.78194 0
M  V30 610 C 56.2687 -1.84701 0.599938 0
M  V30 611 O 55.5437 -1.9031 -0.401524 0
M  V30 612 C 55.8267 -1.8227 3.10564 0
M  V30 613 C 55.6797 -0.971633 4.3918 0
M  V30 614 C 56.9987 -2.80388 3.39221 0
M  V30 615 H 54.1177 -0.350572 0.648281 0
M  V30 616 H 56.7597 -0.238259 1.885 0
M  V30 617 H 54.9097 -2.44507 3.01908 0
M  V30 618 H 56.5817 -0.367408 4.59835 0
M  V30 619 H 54.8247 -0.276276 4.32919 0
M  V30 620 H 55.4957 -1.60346 5.28198 0
M  V30 621 H 57.9717 -2.28287 3.47885 0
M  V30 622 H 56.8477 -3.3729 4.33044 0
M  V30 623 H 57.1087 -3.57212 2.60484 0
M  V30 624 N 56.1678 -1.49265 -0.50573 0
M  V30 625 C 57.1008 -1.60183 -1.62532 0
M  V30 626 C 58.0788 -0.451107 -1.56217 0
M  V30 627 O 59.2628 -0.666016 -1.76342 0
M  V30 628 C 56.3898 -1.55238 -3.01029 0
M  V30 629 C 55.4358 -2.7545 -3.25621 0
M  V30 630 S 56.2688 -4.37174 -3.09256 0
M  V30 631 C 57.4248 -4.34866 -4.50158 0
M  V30 632 H 57.6578 -2.54894 -1.53025 0
M  V30 633 H 55.1908 -1.38098 -0.690535 0
M  V30 634 H 57.1488 -1.53071 -3.80893 0
M  V30 635 H 55.8098 -0.618238 -3.07956 0
M  V30 636 H 55.0028 -2.68197 -4.26716 0
M  V30 637 H 54.6048 -2.75005 -2.53472 0
M  V30 638 H 56.8968 -4.06295 -5.42154 0
M  V30 639 H 57.8398 -5.36223 -4.62462 0
M  V30 640 H 58.2478 -3.65007 -4.30616 0
M  V30 641 N 57.6459 0.756429 -1.3826 0
M  V30 642 C 58.8919 1.51772 -1.34511 0
M  V30 643 C 59.2249 1.94089 0.0656691 0
M  V30 644 O 58.4999 1.65221 1.02626 0
M  V30 645 C 58.7829 2.77226 -2.29821 0
M  V30 646 C 58.6359 2.41065 -3.79747 0
M  V30 647 C 59.9549 3.79236 -2.23312 0
M  V30 648 H 57.0739 0.550578 -0.489931 0
M  V30 649 H 59.7159 0.866607 -1.69086 0
M  V30 650 H 57.8659 3.32784 -2.00467 0
M  V30 651 H 59.5379 1.91303 -4.19763 0
M  V30 652 H 57.7809 1.7356 -3.97567 0
M  V30 653 H 58.4519 3.3081 -4.41892 0
M  V30 654 H 60.9279 3.3321 -2.49219 0
M  V30 655 H 59.8039 4.64714 -2.92116 0
M  V30 656 H 60.0649 4.24615 -1.23102 0
M  V30 657 N 59.124 1.23083 0.984299 0
M  V30 658 C 60.074 0.975749 2.06066 0
M  V30 659 C 61.058 -0.0768251 1.60716 0
M  V30 660 O 62.25 0.134805 1.76486 0
M  V30 661 C 59.379 0.564673 3.38624 0
M  V30 662 C 58.465 1.65244 3.90583 0
M  V30 663 N 58.856 2.88193 4.15666 0
M  V30 664 C 57.154 1.52612 4.19077 0
M  V30 665 C 57.855 3.58593 4.58024 0
M  V30 666 N 56.831 2.86093 4.62225 0
M  V30 667 H 60.633 1.90957 2.23411 0
M  V30 668 H 58.147 1.12963 1.16675 0
M  V30 669 H 60.144 0.36322 4.15315 0
M  V30 670 H 58.804 -0.362147 3.22674 0
M  V30 671 H 59.815 3.24537 4.03604 0
M  V30 672 H 56.492 0.666121 4.12152 0
M  V30 673 H 57.882 4.63974 4.85982 0
M  V30 674 N 60.6021 -1.18246 1.0419 0
M  V30 675 C 61.8501 -1.87886 0.744543 0
M  V30 676 C 62.1711 -1.8082 -0.730006 0
M  V30 677 O 61.4411 -1.22736 -1.52685 0
M  V30 678 H 60.0211 -0.695556 0.272417 0
M  V30 679 H 62.6831 -1.43494 1.31892 0
M  V30 680 H 61.7791 -2.9389 1.05049 0
M  V30 681 N 62.0802 -0.821533 -1.34494 0
M  V30 682 C 63.3292 -0.405355 -1.97585 0
M  V30 683 C 63.6422 1.03677 -1.65863 0
M  V30 684 O 64.8482 1.55679 -2.22433 0
M  V30 685 C 63.3042 -0.673861 -3.53535 0
M  V30 686 C 62.9122 -2.12951 -3.94152 0
M  V30 687 C 64.6562 -0.32378 -4.23263 0
M  V30 688 C 62.5632 -2.34298 -5.43009 0
M  V30 689 H 61.4932 -0.147836 -0.739365 0
M  V30 690 H 64.1442 -1.00769 -1.53355 0
M  V30 691 H 62.5262 -0.00137554 -3.96 0
M  V30 692 H 63.7002 -2.84104 -3.62797 0
M  V30 693 H 62.0152 -2.44089 -3.37356 0
M  V30 694 H 64.6122 -0.461126 -5.32708 0
M  V30 695 H 64.9552 0.731586 -4.09821 0
M  V30 696 H 65.4882 -0.950786 -3.8627 0
M  V30 697 H 62.2272 -3.38335 -5.61435 0
M  V30 698 H 61.7472 -1.67687 -5.75883 0
M  V30 699 H 63.4262 -2.16588 -6.09671 0
M  V30 700 N 63.5583 1.46682 -0.576371 0
M  V30 701 C 64.8063 2.02013 -0.0594163 0
M  V30 702 C 65.1273 1.45101 1.30271 0
M  V30 703 O 64.3973 0.633317 1.8538 0
M  V30 704 H 62.9773 0.746759 -0.0189745 0
M  V30 705 H 65.6393 1.79862 -0.750717 0
M  V30 706 H 64.7353 3.12097 0.014345 0
M  V30 707 N 65.0364 0.313813 1.54444 0
M  V30 708 C 66.2844 -0.291099 1.99993 0
M  V30 709 C 66.6054 -1.53418 1.20366 0
M  V30 710 O 65.8754 -1.93544 0.302927 0
M  V30 711 H 64.4554 -0.110552 0.738774 0
M  V30 712 H 67.1174 0.428106 1.9014 0
M  V30 713 H 66.2134 -0.554268 3.07139 0
M  V30 714 N 66.5145 -1.57545 0.0417849 0
M  V30 715 C 67.4775 -2.09885 -0.92093 0
M  V30 716 C 68.4775 -1.01648 -1.24596 0
M  V30 717 O 69.6675 -1.27759 -1.1842 0
M  V30 718 C 66.7995 -2.57527 -2.23367 0
M  V30 719 H 67.9925 -2.96236 -0.467382 0
M  V30 720 H 65.5455 -1.5493 -0.206467 0
M  V30 721 H 66.2805 -1.74542 -2.73323 0
M  V30 722 H 66.0655 -3.36613 -2.01083 0
M  V30 723 H 67.5555 -2.98201 -2.92346 0
M  V30 724 N 67.9926 0.231505 -1.5589 0
M  V30 725 C 69.2176 0.978689 -1.82856 0
M  V30 726 C 69.6426 1.77559 -0.620846 0
M  V30 727 O 69.0006 1.76119 0.430305 0
M  V30 728 C 69.0486 1.87997 -3.07716 0
M  V30 729 O 68.1526 2.97393 -2.85712 0
M  V30 730 H 67.4936 0.277663 -0.603158 0
M  V30 731 H 70.0236 0.24783 -2.03093 0
M  V30 732 H 70.0336 2.2917 -3.37558 0
M  V30 733 H 68.7086 1.29417 -3.95252 0
M  V30 734 H 67.2856 2.60238 -2.67078 0
M  V30 735 N 69.4707 1.49531 0.497807 0
M  V30 736 C 70.7177 1.59179 1.25173 0
M  V30 737 C 71.0457 0.279932 1.92475 0
M  V30 738 O 70.3007 -0.732383 1.81479 0
M  V30 739 C 70.5997 2.70252 2.33878 0
M  V30 740 C 70.2657 4.11644 1.84012 0
M  V30 741 C 68.9277 4.50121 1.70132 0
M  V30 742 C 71.2797 5.00121 1.46725 0
M  V30 743 C 68.6077 5.74845 1.17348 0
M  V30 744 C 70.9597 6.25366 0.95392 0
M  V30 745 C 69.6237 6.6267 0.801538 0
M  V30 746 H 68.8937 0.582478 0.45804 0
M  V30 747 H 71.5407 1.83373 0.551948 0
M  V30 748 H 69.8457 2.40041 3.09657 0
M  V30 749 H 71.5427 2.74925 2.9192 0
M  V30 750 H 68.1327 3.81274 1.95775 0
M  V30 751 H 72.3167 4.71048 1.56294 0
M  V30 752 H 67.5727 6.02444 1.04264 0
M  V30 753 H 71.7467 6.93301 0.656225 0
M  V30 754 H 69.3737 7.59197 0.390351 0
M  V30 755 N 70.9488 -0.749086 1.3866 0
M  V30 756 C 71.8968 -1.88428 1.36373 0
M  V30 757 C 72.8908 -1.67561 0.248929 0
M  V30 758 O 74.0968 -1.75074 0.41821 0
M  V30 759 H 70.4718 -0.620023 0.42553 0
M  V30 760 H 72.4428 -1.87473 2.32156 0
M  V30 761 C 71.1918 -3.25961 1.21014 0
M  V30 762 H 70.5148 -3.42607 2.06059 0
M  V30 763 H 71.9548 -4.05625 1.23469 0
M  V30 764 C 70.4138 -3.36799 -0.0825941 0
M  V30 765 O 70.9438 -3.87517 -1.05797 0
M  V30 766 N 69.1498 -2.90258 -0.140939 0
M  V30 767 H 68.6968 -2.49174 0.653477 0
M  V30 768 H 68.6548 -2.97889 -1.00545 0
M  V30 769 N 72.4269 -1.23603 -0.977757 0
M  V30 770 C 73.6739 -1.06971 -1.71941 0
M  V30 771 C 74.0019 0.393009 -1.90488 0
M  V30 772 O 73.2569 1.30719 -1.4564 0
M  V30 773 C 73.5559 -1.7433 -3.11999 0
M  V30 774 C 73.2219 -3.24252 -3.13323 0
M  V30 775 C 71.8839 -3.65156 -3.13392 0
M  V30 776 C 74.2359 -4.20141 -3.08433 0
M  V30 777 C 71.5639 -5.00403 -3.0629 0
M  V30 778 C 73.9159 -5.55384 -3.02873 0
M  V30 779 C 72.5799 -5.95647 -3.01265 0
M  V30 780 H 71.8499 -0.391433 -0.629175 0
M  V30 781 H 74.4969 -1.53572 -1.14403 0
M  V30 782 H 72.8019 -1.20096 -3.7294 0
M  V30 783 H 74.4989 -1.58936 -3.68158 0
M  V30 784 H 71.0889 -2.91692 -3.14029 0
M  V30 785 H 75.2729 -3.89547 -3.07517 0
M  V30 786 H 70.5289 -5.3081 -3.03399 0
M  V30 787 H 74.7029 -6.29398 -2.98046 0
M  V30 788 H 72.3299 -7.0041 -2.95516 0
M  V30 789 N 73.905 1.17692 -1.04816 0
M  V30 790 C 74.868 2.19787 -0.650117 0
M  V30 791 C 75.868 1.58044 0.296427 0
M  V30 792 O 77.058 1.74012 0.0808097 0
M  V30 793 C 74.19 3.40869 0.0456987 0
M  V30 794 H 75.383 2.56516 -1.5537 0
M  V30 795 H 72.936 1.31708 -0.841594 0
M  V30 796 H 73.671 3.09681 0.962726 0
M  V30 797 H 73.456 3.86928 -0.634727 0
M  V30 798 H 74.946 4.16445 0.310432 0
M  V30 799 N 75.3831 0.828654 1.34056 0
M  V30 800 C 76.6311 0.41863 1.97717 0
M  V30 801 C 76.9521 -1.02314 1.66002 0
M  V30 802 O 76.2221 -1.71119 0.953683 0
M  V30 803 H 74.8021 0.151809 0.731412 0
M  V30 804 H 77.4641 1.05936 1.63596 0
M  V30 805 H 76.5601 0.542318 3.07352 0
M  V30 806 N 76.8612 -1.46375 0.584142 0
M  V30 807 C 78.1102 -2.01585 0.0679741 0
M  V30 808 C 78.4232 -1.46109 -1.30045 0
M  V30 809 O 79.6292 -1.93148 -1.90804 0
M  V30 810 C 78.0852 -3.5983 0.0709207 0
M  V30 811 C 77.6932 -4.24303 1.43775 0
M  V30 812 C 79.4372 -4.22693 -0.391228 0
M  V30 813 C 77.3442 -5.74631 1.39834 0
M  V30 814 H 76.2742 -0.753689 0.0216421 0
M  V30 815 H 78.9252 -1.68093 0.736001 0
M  V30 816 H 77.3072 -3.90405 -0.663299 0
M  V30 817 H 78.4812 -4.05335 2.19181 0
M  V30 818 H 76.7962 -3.73539 1.84004 0
M  V30 819 H 79.3932 -5.3289 -0.439524 0
M  V30 820 H 79.7362 -3.91728 -1.40906 0
M  V30 821 H 80.2692 -3.96749 0.288974 0
M  V30 822 H 77.0082 -6.10258 2.39303 0
M  V30 823 H 76.5282 -5.95858 0.686505 0
M  V30 824 H 78.2072 -6.37375 1.11187 0
M  V30 825 N 78.3393 -0.321999 -1.54275 0
M  V30 826 C 79.2863 0.544664 -2.24281 0
M  V30 827 C 80.2563 1.1129 -1.23303 0
M  V30 828 O 81.4413 1.15354 -1.51981 0
M  V30 829 C 78.5813 1.70045 -3.00298 0
M  V30 830 C 77.6943 1.16159 -4.1609 0
M  V30 831 C 76.8293 2.28293 -4.79641 0
M  V30 832 C 75.8683 1.71648 -5.8754 0
M  V30 833 N 75.0053 2.77438 -6.44959 0
M  V30 834 H 79.8453 -0.0588907 -2.97942 0
M  V30 835 H 77.3823 -0.0408345 -1.47043 0
M  V30 836 H 79.3403 2.38054 -3.42616 0
M  V30 837 H 77.9703 2.27531 -2.28975 0
M  V30 838 H 77.0223 0.373092 -3.78566 0
M  V30 839 H 78.3343 0.707087 -4.93763 0
M  V30 840 H 77.4883 3.0421 -5.2492 0
M  V30 841 H 76.2273 2.77079 -4.01346 0
M  V30 842 H 75.2323 0.942282 -5.41665 0
M  V30 843 H 76.4573 1.23741 -6.67731 0
M  V30 844 H 74.4033 3.25519 -5.69538 0
M  V30 845 H 74.3203 2.36547 -7.1804 0
M  V30 846 H 75.5883 3.53189 -6.94894 0
M  V30 847 N 79.8174 1.5752 -0.0501392 0
M  V30 848 C 81.0424 1.97376 0.636997 0
M  V30 849 C 81.4674 0.927466 1.63645 0
M  V30 850 O 80.8254 -0.10941 1.8097 0
M  V30 851 C 80.8734 3.36304 1.30123 0
M  V30 852 O 79.9774 3.34156 2.41689 0
M  V30 853 H 79.3184 0.642998 0.165679 0
M  V30 854 H 81.8484 2.04258 -0.118233 0
M  V30 855 H 81.8584 3.73008 1.65315 0
M  V30 856 H 80.5334 4.11993 0.568746 0
M  V30 857 H 79.1104 3.09196 2.08451 0
M  V30 858 N 81.2955 -0.223234 1.56011 0
M  V30 859 C 82.5255 -0.963413 1.82762 0
M  V30 860 C 82.9335 -1.78516 0.626804 0
M  V30 861 O 82.2765 -1.78974 -0.414014 0
M  V30 862 C 82.3385 -1.93126 3.0322 0
M  V30 863 C 82.0025 -1.2942 4.38291 0
M  V30 864 C 82.9995 -0.684916 5.15369 0
M  V30 865 C 80.6845 -1.30647 4.85012 0
M  V30 866 C 82.6785 -0.0963971 6.37327 0
M  V30 867 C 80.3655 -0.71411 6.06913 0
M  V30 868 C 81.3635 -0.110123 6.82911 0
M  V30 869 O 81.0515 0.47303 8.02507 0
M  V30 870 H 80.7835 -0.288011 0.611576 0
M  V30 871 H 83.3375 -0.244103 2.03944 0
M  V30 872 H 81.5675 -2.68952 2.77852 0
M  V30 873 H 83.2565 -2.53685 3.16857 0
M  V30 874 H 84.0225 -0.667774 4.80381 0
M  V30 875 H 79.9015 -1.76598 4.25833 0
M  V30 876 H 83.4455 0.375657 6.96588 0
M  V30 877 H 79.3425 -0.728659 6.41374 0
M  V30 878 H 80.1105 0.367186 8.17676 0
M  V30 879 N 82.7736 -1.49793 -0.48987 0
M  V30 880 C 83.7036 -1.70201 -1.59856 0
M  V30 881 C 84.6846 -0.55076 -1.60937 0
M  V30 882 O 85.8696 -0.787841 -1.77501 0
M  V30 883 C 82.9996 -1.77882 -2.98287 0
M  V30 884 C 81.9536 -2.92907 -3.12073 0
M  V30 885 C 81.2796 -2.85712 -4.51965 0
M  V30 886 C 82.5796 -4.3369 -2.91051 0
M  V30 887 H 84.2736 -2.63025 -1.43032 0
M  V30 888 H 81.8196 -1.26574 -0.686664 0
M  V30 889 H 83.7726 -1.90744 -3.75759 0
M  V30 890 H 82.4966 -0.816653 -3.16225 0
M  V30 891 H 81.1556 -2.79665 -2.37029 0
M  V30 892 H 80.8036 -1.8738 -4.66795 0
M  V30 893 H 80.5036 -3.62921 -4.62128 0
M  V30 894 H 82.0276 -3.00598 -5.31482 0
M  V30 895 H 83.4416 -4.47555 -3.58284 0
M  V30 896 H 81.8386 -5.12205 -3.12675 0
M  V30 897 H 82.9086 -4.47362 -1.87071 0
M  V30 898 N 84.2517 0.741722 -1.39055 0
M  V30 899 C 85.4977 1.50336 -1.36113 0
M  V30 900 C 85.8307 1.94148 0.0450796 0
M  V30 901 O 85.1057 1.66301 1.00868 0
M  V30 902 C 85.3887 2.74773 -2.32749 0
M  V30 903 C 85.2417 2.37023 -3.82283 0
M  V30 904 C 86.5607 3.76846 -2.27322 0
M  V30 905 H 83.6797 0.545351 -0.495743 0
M  V30 906 H 86.3217 0.848624 -1.69995 0
M  V30 907 H 84.4717 3.30639 -2.03986 0
M  V30 908 H 86.1437 1.8684 -4.21768 0
M  V30 909 H 84.3867 1.69334 -3.99385 0
M  V30 910 H 85.0577 3.26104 -4.45376 0
M  V30 911 H 87.5337 3.30548 -2.5274 0
M  V30 912 H 86.4097 4.6159 -2.97028 0
M  V30 913 H 86.6707 4.23286 -1.27599 0
M  V30 914 N 85.7298 1.2412 0.971189 0
M  V30 915 C 86.9548 1.10667 1.75407 0
M  V30 916 C 87.3798 -0.337048 1.85056 0
M  V30 917 O 86.7378 -1.24396 1.31892 0
M  V30 918 C 86.7858 1.74726 3.15441 0
M  V30 919 O 85.8898 1.01566 3.99697 0
M  V30 920 H 85.2308 0.387341 0.539317 0
M  V30 921 H 87.7608 1.64358 1.2185 0
M  V30 922 H 87.7708 1.80341 3.6598 0
M  V30 923 H 86.4458 2.79773 3.07734 0
M  V30 924 H 85.0228 1.03713 3.58187 0
M  V30 925 N 87.2079 -1.17134 1.05439 0
M  V30 926 C 88.1399 -2.2078 0.615539 0
M  V30 927 C 89.1529 -1.59584 -0.322001 0
M  V30 928 O 90.3419 -1.78133 -0.114344 0
M  V30 929 C 87.4419 -3.38691 -0.118938 0
M  V30 930 C 86.6149 -4.29454 0.829924 0
M  V30 931 C 85.6739 -5.26024 0.136258 0
M  V30 932 O 84.6999 -5.63952 0.77115 0
M  V30 933 N 85.9019 -5.69487 -1.1254 0
M  V30 934 H 88.6669 -2.59052 1.50705 0
M  V30 935 H 86.2279 -1.32058 0.936603 0
M  V30 936 H 88.2199 -4.00329 -0.593179 0
M  V30 937 H 86.7899 -2.98996 -0.91215 0
M  V30 938 H 86.0099 -3.65211 1.48373 0
M  V30 939 H 87.2979 -4.86984 1.47392 0
M  V30 940 H 86.6959 -5.4075 -1.6615 0
M  V30 941 H 85.2529 -6.33257 -1.54366 0
M  V30 942 N 88.686 -0.835752 -1.33615 0
M  V30 943 C 89.934 -0.429109 -1.97492 0
M  V30 944 C 90.255 1.01433 -1.66543 0
M  V30 945 O 89.525 1.70611 -0.962744 0
M  V30 946 H 88.105 -0.155686 -0.730596 0
M  V30 947 H 90.767 -1.06802 -1.63031 0
M  V30 948 H 89.863 -0.55861 -3.0706 0
M  V30 949 N 90.1641 1.46063 -0.591896 0
M  V30 950 C 91.4101 2.03203 -0.0894879 0
M  V30 951 C 91.7651 1.45407 1.25994 0
M  V30 952 O 91.0581 0.61326 1.8152 0
M  V30 953 C 91.2521 3.57391 0.0249813 0
M  V30 954 C 91.0811 4.30142 -1.3118 0
M  V30 955 C 89.8511 4.68688 -1.88838 0
M  V30 956 C 92.0491 4.63098 -2.23708 0
M  V30 957 N 90.0311 5.26228 -3.1616 0
M  V30 958 C 91.4021 5.21305 -3.3562 0
M  V30 959 C 93.4571 4.45031 -2.23274 0
M  V30 960 C 92.1601 5.63351 -4.47245 0
M  V30 961 C 94.1861 4.881 -3.33935 0
M  V30 962 C 93.5481 5.46386 -4.44569 0
M  V30 963 H 89.6471 0.778323 -0.0757431 0
M  V30 964 H 92.2311 1.78094 -0.78681 0
M  V30 965 H 90.4021 3.82195 0.69149 0
M  V30 966 H 92.1341 4.0118 0.532613 0
M  V30 967 H 88.8891 4.5174 -1.42223 0
M  V30 968 H 89.3131 5.59512 -3.8115 0
M  V30 969 H 93.9551 3.99295 -1.39008 0
M  V30 970 H 91.6731 6.08061 -5.32247 0
M  V30 971 H 95.2591 4.75866 -3.34728 0
M  V30 972 H 94.1391 5.79102 -5.28782 0
M  V30 973 N 91.6422 0.330177 1.54103 0
M  V30 974 C 92.8672 -0.274893 2.0557 0
M  V30 975 C 93.2922 -1.44487 1.20437 0
M  V30 976 O 92.6502 -1.80021 0.214991 0
M  V30 977 C 92.6982 -0.68079 3.54115 0
M  V30 978 O 91.8022 -1.7824 3.71893 0
M  V30 979 H 91.1432 -0.0483849 0.662235 0
M  V30 980 H 93.6732 0.480508 1.98878 0
M  V30 981 H 93.6832 -0.961635 3.96505 0
M  V30 982 H 92.3582 0.174903 4.15532 0
M  V30 983 H 90.9352 -1.49985 3.41407 0
M  V30 984 N 93.1203 -1.57491 0.0584922 0
M  V30 985 C 94.5363 -1.56792 -0.298091 0
M  V30 986 C 94.7363 -1.06679 -1.70944 0
M  V30 987 O 93.7923 -0.726672 -2.41818 0
M  V30 988 C 95.1053 -3.00461 -0.119879 0
M  V30 989 C 96.6533 -3.1242 -0.190428 0
M  V30 990 C 97.1283 -4.57982 -0.0406567 0
M  V30 991 N 98.6193 -4.63099 -0.0966958 0
M  V30 992 C 99.3543 -5.734 -0.00502943 0
M  V30 993 N 98.8503 -6.9266 0.139402 0
M  V30 994 N 100.643 -5.62067 -0.0611391 0
M  V30 995 H 92.7943 -1.88386 0.98105 0
M  V30 996 H 95.0573 -0.867865 0.381463 0
M  V30 997 H 94.7633 -3.41187 0.85349 0
M  V30 998 H 94.6373 -3.66843 -0.877833 0
M  V30 999 H 97.0243 -2.71589 -1.15427 0
M  V30 1000 H 97.1053 -2.48702 0.598405 0
M  V30 1001 H 96.7493 -4.995 0.919897 0
M  V30 1002 H 96.6793 -5.19715 -0.848727 0
M  V30 1003 H 99.1703 -3.77331 -0.207277 0
M  V30 1004 H 99.4833 -7.72536 0.201855 0
M  V30 1005 H 97.8283 -6.94781 0.174586 0
M  V30 1006 H 101.019 -4.67782 -0.172583 0
M  V30 1007 H 101.192 -6.47999 0.0137562 0
M  V30 1008 N 94.5984 0.214957 -1.56127 0
M  V30 1009 C 95.8754 0.963093 -1.70247 0
M  V30 1010 C 96.2554 2.02166 -0.60764 0
M  V30 1011 O 95.6034 2.25244 0.384385 0
M  V30 1012 C 95.8134 1.56756 -3.11815 0
M  V30 1013 C 97.1614 2.0573 -3.7143 0
M  V30 1014 O 98.1854 1.66637 -3.14818 0
M  V30 1015 O 97.0444 2.77603 -4.70743 0
M  V30 1016 H 94.1384 0.450321 -0.693643 0
M  V30 1017 H 96.6844 0.206219 -1.68442 0
M  V30 1018 H 95.4564 0.803533 -3.82961 0
M  V30 1019 H 95.0794 2.3898 -3.17765 0
M  V30 1020 N 96.0765 1.50051 0.48192 0
M  V30 1021 C 97.0235 1.68122 1.58125 0
M  V30 1022 C 97.9935 0.522545 1.57666 0
M  V30 1023 O 99.1785 0.751844 1.75362 0
M  V30 1024 C 96.3185 1.77142 2.96167 0
M  V30 1025 C 95.4315 3.0444 3.06497 0
M  V30 1026 C 94.5665 3.04321 4.35387 0
M  V30 1027 C 93.6055 4.26118 4.3942 0
M  V30 1028 N 92.7425 4.238 5.59766 0
M  V30 1029 H 97.5825 2.6198 1.42022 0
M  V30 1030 H 95.1195 1.29877 0.690687 0
M  V30 1031 H 97.0775 1.80352 3.76203 0
M  V30 1032 H 95.7075 0.867329 3.1093 0
M  V30 1033 H 94.7595 3.10752 2.19402 0
M  V30 1034 H 96.0715 3.94426 3.05336 0
M  V30 1035 H 95.2255 3.062 5.23762 0
M  V30 1036 H 93.9645 2.12147 4.39141 0
M  V30 1037 H 92.9695 4.24463 3.49444 0
M  V30 1038 H 94.1945 5.19507 4.37366 0
M  V30 1039 H 92.1405 3.34474 5.64326 0
M  V30 1040 H 92.0575 5.07542 5.60301 0
M  V30 1041 H 93.3255 4.2981 6.50295 0
M  V30 1042 N 97.5546 -0.734337 1.39446 0
M  V30 1043 C 98.4846 -1.86155 1.40955 0
M  V30 1044 C 99.4656 -1.67898 0.272827 0
M  V30 1045 O 100.651 -1.88207 0.478743 0
M  V30 1046 C 97.7806 -3.23912 1.25294 0
M  V30 1047 C 96.7346 -3.56808 2.36373 0
M  V30 1048 C 96.0606 -4.93508 2.058 0
M  V30 1049 C 97.3606 -3.59713 3.78687 0
M  V30 1050 H 99.0546 -1.8515 2.35287 0
M  V30 1051 H 96.6006 -0.889367 1.13253 0
M  V30 1052 H 98.5536 -4.02443 1.2497 0
M  V30 1053 H 97.2776 -3.25446 0.274308 0
M  V30 1054 H 95.9366 -2.80606 2.35914 0
M  V30 1055 H 95.5846 -4.91623 1.06374 0
M  V30 1056 H 95.2846 -5.16486 2.80208 0
M  V30 1057 H 96.8086 -5.74396 2.07128 0
M  V30 1058 H 98.2226 -4.2832 3.81071 0
M  V30 1059 H 96.6196 -3.94209 4.52459 0
M  V30 1060 H 97.6896 -2.59504 4.09617 0
M  V30 1061 N 99.0327 -1.24633 -0.964593 0
M  V30 1062 C 100.263 -1.11339 -1.74032 0
M  V30 1063 C 100.671 0.336593 -1.86182 0
M  V30 1064 O 100.014 1.24389 -1.35178 0
M  V30 1065 C 100.076 -1.68284 -3.1768 0
M  V30 1066 C 99.7397 -3.17196 -3.28992 0
M  V30 1067 C 100.737 -4.14308 -3.14078 0
M  V30 1068 C 98.4217 -3.57215 -3.53133 0
M  V30 1069 C 100.416 -5.4942 -3.23135 0
M  V30 1070 C 98.1027 -4.92468 -3.61827 0
M  V30 1071 C 99.1007 -5.8838 -3.46841 0
M  V30 1072 O 98.7887 -7.21173 -3.55197 0
M  V30 1073 H 98.5207 -0.389551 -0.552472 0
M  V30 1074 H 101.075 -1.65282 -1.21946 0
M  V30 1075 H 99.3047 -1.08777 -3.71085 0
M  V30 1076 H 100.994 -1.50234 -3.77074 0
M  V30 1077 H 101.76 -3.84731 -2.95308 0
M  V30 1078 H 97.6387 -2.83063 -3.63863 0
M  V30 1079 H 101.183 -6.24263 -3.11355 0
M  V30 1080 H 97.0797 -5.21714 -3.80111 0
M  V30 1081 H 97.8477 -7.29135 -3.71892 0
M  V30 1082 N 100.511 1.16574 -1.06058 0
M  V30 1083 C 101.474 2.19085 -0.673392 0
M  V30 1084 C 102.474 1.5835 0.279648 0
M  V30 1085 O 103.664 1.74088 0.0623488 0
M  V30 1086 C 100.796 3.40899 0.00954234 0
M  V30 1087 H 101.989 2.54853 -1.58081 0
M  V30 1088 H 99.5418 1.30808 -0.855516 0
M  V30 1089 H 100.277 3.10684 0.929826 0
M  V30 1090 H 100.062 3.86233 -0.67573 0
M  V30 1091 H 101.552 4.1675 0.266245 0
M  V30 1092 N 101.989 0.842826 1.3317 0
M  V30 1093 C 103.235 0.441099 1.97945 0
M  V30 1094 C 103.568 -0.998024 1.66593 0
M  V30 1095 O 102.843 -1.69839 0.947898 0
M  V30 1096 C 103.126 0.666841 3.53872 0
M  V30 1097 C 102.979 2.15352 3.94897 0
M  V30 1098 C 104.298 0.115544 4.39948 0
M  V30 1099 H 101.417 0.161739 0.719034 0
M  V30 1100 H 104.059 1.05907 1.57746 0
M  V30 1101 H 102.209 0.140828 3.88245 0
M  V30 1102 H 103.881 2.7447 3.70761 0
M  V30 1103 H 102.124 2.63653 3.44484 0
M  V30 1104 H 102.795 2.26221 5.03516 0
M  V30 1105 H 105.271 0.565213 4.12243 0
M  V30 1106 H 104.147 0.303152 5.48062 0
M  V30 1107 H 104.408 -0.980935 4.3108 0
M  V30 1108 N 103.467 -1.45747 0.599634 0
M  V30 1109 C 104.744 -1.95585 0.0240846 0
M  V30 1110 C 105.124 -1.54217 -1.44154 0
M  V30 1111 O 104.472 -0.800903 -2.14004 0
M  V30 1112 C 104.682 -3.48344 0.21385 0
M  V30 1113 C 106.03 -4.24504 0.0904902 0
M  V30 1114 O 107.054 -3.55911 0.143558 0
M  V30 1115 O 105.913 -5.46491 -0.0310766 0
M  V30 1116 H 103.007 -0.82602 -0.0402478 0
M  V30 1117 H 105.553 -1.55951 0.669139 0
M  V30 1118 H 104.325 -3.71397 1.23206 0
M  V30 1119 H 103.948 -3.9485 -0.466842 0
M  V30 1120 N 104.945 -0.338344 -1.53925 0
M  V30 1121 C 106.192 0.259758 -2.00827 0
M  V30 1122 C 106.52 1.50973 -1.22628 0
M  V30 1123 O 105.775 1.93379 -0.300509 0
M  V30 1124 C 106.074 0.62448 -3.51902 0
M  V30 1125 C 105.74 -0.528006 -4.47798 0
M  V30 1126 C 104.402 -0.844298 -4.73735 0
M  V30 1127 C 106.754 -1.30143 -5.0469 0
M  V30 1128 C 104.082 -1.93648 -5.53821 0
M  V30 1129 C 106.434 -2.38382 -5.85967 0
M  V30 1130 C 105.098 -2.70576 -6.10201 0
M  V30 1131 H 104.368 0.0950523 -0.734878 0
M  V30 1132 H 107.015 -0.465182 -1.85764 0
M  V30 1133 H 105.32 1.43006 -3.64769 0
M  V30 1134 H 107.017 1.09905 -3.85645 0
M  V30 1135 H 103.607 -0.271421 -4.2774 0
M  V30 1136 H 107.791 -1.07033 -4.84621 0
M  V30 1137 H 103.047 -2.19021 -5.70824 0
M  V30 1138 H 107.221 -2.98746 -6.29066 0
M  V30 1139 H 104.848 -3.55333 -6.72044 0
M  V30 1140 N 106.423 1.57458 -0.0668435 0
M  V30 1141 C 107.669 1.94401 0.598316 0
M  V30 1142 C 108.024 0.946335 1.67518 0
M  V30 1143 O 107.317 -0.0321442 1.91573 0
M  V30 1144 C 107.511 3.35784 1.22409 0
M  V30 1145 C 107.34 4.49212 0.209367 0
M  V30 1146 C 106.11 5.04887 -0.204218 0
M  V30 1147 C 108.308 5.11335 -0.551431 0
M  V30 1148 N 106.29 6.01854 -1.21016 0
M  V30 1149 C 107.661 6.03754 -1.41 0
M  V30 1150 C 109.716 4.94173 -0.608038 0
M  V30 1151 C 108.419 6.80854 -2.32013 0
M  V30 1152 C 110.445 5.71912 -1.50566 0
M  V30 1153 C 109.807 6.63976 -2.35191 0
M  V30 1154 H 105.906 0.758538 0.190114 0
M  V30 1155 H 108.49 1.94175 -0.142832 0
M  V30 1156 H 106.661 3.36757 1.93518 0
M  V30 1157 H 108.393 3.59976 1.84931 0
M  V30 1158 H 105.148 4.73266 0.177908 0
M  V30 1159 H 105.572 6.55035 -1.71049 0
M  V30 1160 H 110.214 4.22788 0.032022 0
M  V30 1161 H 107.932 7.5152 -2.97057 0
M  V30 1162 H 111.518 5.60656 -1.55423 0
M  V30 1163 H 110.398 7.2308 -3.03522 0
M  V30 1164 N 107.901 -0.206675 1.56239 0
M  V30 1165 C 109.178 -0.954051 1.70755 0
M  V30 1166 C 109.558 -2.01841 0.618353 0
M  V30 1167 O 108.906 -2.25444 -0.372434 0
M  V30 1168 C 109.116 -1.551 3.12642 0
M  V30 1169 C 110.464 -2.03757 3.72516 0
M  V30 1170 O 111.488 -1.64965 3.15698 0
M  V30 1171 O 110.347 -2.75103 4.72208 0
M  V30 1172 H 107.441 -0.446636 0.696021 0
M  V30 1173 H 109.987 -0.197283 1.68549 0
M  V30 1174 H 108.759 -0.783212 3.83382 0
M  V30 1175 H 108.382 -2.37291 3.19028 0
M  V30 1176 N 109.379 -1.50304 -0.473955 0
M  V30 1177 C 110.326 -1.68959 -1.57231 0
M  V30 1178 C 111.296 -0.530899 -1.57387 0
M  V30 1179 O 112.481 -0.761133 -1.74961 0
M  V30 1180 C 109.621 -1.7871 -2.95223 0
M  V30 1181 C 108.734 -3.06061 -3.04878 0
M  V30 1182 C 107.869 -3.06626 -4.33767 0
M  V30 1183 C 106.908 -4.28443 -4.37154 0
M  V30 1184 N 106.045 -4.26763 -5.5751 0
M  V30 1185 H 110.885 -2.6273 -1.40631 0
M  V30 1186 H 108.422 -1.30241 -0.683789 0
M  V30 1187 H 110.38 -1.82344 -3.75242 0
M  V30 1188 H 109.01 -0.883806 -3.10465 0
M  V30 1189 H 108.062 -3.11911 -2.17751 0
M  V30 1190 H 109.374 -3.96039 -3.0324 0
M  V30 1191 H 108.528 -3.08973 -5.22131 0
M  V30 1192 H 107.267 -2.14473 -4.3801 0
M  V30 1193 H 106.272 -4.2631 -3.47188 0
M  V30 1194 H 107.497 -5.2182 -4.34605 0
M  V30 1195 H 105.443 -3.37462 -5.62544 0
M  V30 1196 H 105.36 -5.10507 -5.57601 0
M  V30 1197 H 106.628 -4.33253 -6.48006 0
M  V30 1198 N 110.857 0.726932 -1.39834 0
M  V30 1199 C 112.085 1.51613 -1.40787 0
M  V30 1200 C 112.5 1.88799 -0.00451505 0
M  V30 1201 O 111.857 1.54662 0.968809 0
M  V30 1202 C 111.908 2.79863 -2.28821 0
M  V30 1203 O 111.629 2.44253 -3.63692 0
M  V30 1204 C 113.13 3.73837 -2.38245 0
M  V30 1205 H 110.35 0.468264 -0.480593 0
M  V30 1206 H 112.894 0.897607 -1.83748 0
M  V30 1207 H 111.049 3.38027 -1.89252 0
M  V30 1208 H 111.463 3.26695 -4.1033 0
M  V30 1209 H 112.937 4.60699 -3.04073 0
M  V30 1210 H 113.414 4.16153 -1.40403 0
M  V30 1211 H 114.02 3.21589 -2.78317 0
M  V30 1212 N 112.336 1.25143 0.95797 0
M  V30 1213 C 113.584 1.09476 1.69881 0
M  V30 1214 C 113.905 -0.365502 1.91544 0
M  V30 1215 O 113.175 -1.25985 1.50015 0
M  V30 1216 H 111.755 0.402128 0.629525 0
M  V30 1217 H 114.417 1.57214 1.15194 0
M  V30 1218 H 113.513 1.60046 2.6794 0
M  V30 1219 N 113.814 -1.1601 1.06675 0
M  V30 1220 C 115.042 -1.90527 0.806667 0
M  V30 1221 C 115.457 -1.77643 -0.639396 0
M  V30 1222 O 114.814 -1.12369 -1.43803 0
M  V30 1223 C 114.865 -3.41106 1.19705 0
M  V30 1224 O 114.586 -3.53608 2.58636 0
M  V30 1225 C 116.087 -4.32663 0.965266 0
M  V30 1226 H 113.307 -0.604053 0.292166 0
M  V30 1227 H 115.851 -1.47026 1.4214 0
M  V30 1228 H 114.006 -3.82296 0.626774 0
M  V30 1229 H 114.42 -4.47011 2.74375 0
M  V30 1230 H 115.894 -5.36763 1.288 0
M  V30 1231 H 116.371 -4.39089 -0.0987936 0
M  V30 1232 H 116.977 -3.97206 1.52011 0
M  V30 1233 N 115.292 -0.849877 -1.32721 0
M  V30 1234 C 116.24 -0.279745 -2.30912 0
M  V30 1235 C 117.234 0.594278 -1.58634 0
M  V30 1236 O 118.44 0.482613 -1.73409 0
M  V30 1237 H 114.815 -0.0717521 -0.748569 0
M  V30 1238 H 116.786 -1.12222 -2.76494 0
M  V30 1239 C 115.535 0.521108 -3.43773 0
M  V30 1240 H 114.858 -0.142141 -3.99547 0
M  V30 1241 H 116.298 0.885693 -4.14646 0
M  V30 1242 C 114.757 1.70442 -2.90605 0
M  V30 1243 O 115.287 2.8034 -2.87702 0
M  V30 1244 N 113.493 1.52991 -2.47067 0
M  V30 1245 H 113.04 0.635914 -2.49628 0
M  V30 1246 H 112.998 2.32311 -2.11847 0
M  V30 1247 N 116.77 1.45427 -0.607355 0
M  V30 1248 C 118 2.06314 -0.108656 0
M  V30 1249 C 118.408 1.45269 1.21217 0
M  V30 1250 O 117.751 0.561115 1.74921 0
M  V30 1251 C 117.813 3.59345 0.105618 0
M  V30 1252 C 117.477 4.42723 -1.13337 0
M  V30 1253 C 118.474 4.77715 -2.05145 0
M  V30 1254 C 116.159 4.83478 -1.36213 0
M  V30 1255 C 118.153 5.52317 -3.18158 0
M  V30 1256 C 115.84 5.57835 -2.49527 0
M  V30 1257 C 116.838 5.92171 -3.40327 0
M  V30 1258 O 116.526 6.65019 -4.51669 0
M  V30 1259 H 116.258 0.672782 -0.0658842 0
M  V30 1260 H 118.812 1.87664 -0.834945 0
M  V30 1261 H 117.042 3.76394 0.886796 0
M  V30 1262 H 118.731 4.02076 0.555886 0
M  V30 1263 H 119.497 4.46787 -1.88697 0
M  V30 1264 H 115.376 4.56188 -0.664362 0
M  V30 1265 H 118.92 5.79036 -3.89054 0
M  V30 1266 H 114.817 5.88177 -2.65928 0
M  V30 1267 H 115.585 6.83469 -4.50348 0
M  V30 1268 N 118.248 0.346503 1.53744 0
M  V30 1269 C 119.196 -0.52422 2.26616 0
M  V30 1270 C 120.19 -1.09948 1.28871 0
M  V30 1271 O 121.396 -1.04488 1.46568 0
M  V30 1272 H 117.771 -0.187743 0.728187 0
M  V30 1273 H 119.742 0.11239 2.98188 0
M  V30 1274 C 118.491 -1.66186 3.05414 0
M  V30 1275 H 117.814 -1.22848 3.80458 0
M  V30 1276 H 119.254 -2.24622 3.59612 0
M  V30 1277 C 117.713 -2.59302 2.1509 0
M  V30 1278 O 118.243 -3.61628 1.74895 0
M  V30 1279 N 116.449 -2.28055 1.8011 0
M  V30 1280 H 115.996 -1.44883 2.12994 0
M  V30 1281 H 115.954 -2.90615 1.19958 0
M  V30 1282 N 119.726 -1.57421 0.075193 0
M  V30 1283 C 120.674 -2.14124 -0.908508 0
M  V30 1284 C 121.668 -1.07898 -1.30592 0
M  V30 1285 O 122.874 -1.26273 -1.28277 0
M  V30 1286 H 119.249 -0.684707 -0.310935 0
M  V30 1287 H 121.22 -2.95634 -0.405374 0
M  V30 1288 C 119.969 -2.72044 -2.16535 0
M  V30 1289 H 119.292 -3.53456 -1.86839 0
M  V30 1290 H 120.732 -3.15311 -2.83469 0
M  V30 1291 C 119.191 -1.66968 -2.92615 0
M  V30 1292 O 119.721 -1.0967 -3.86439 0
M  V30 1293 N 117.927 -1.37923 -2.55784 0
M  V30 1294 H 117.474 -1.84706 -1.79559 0
M  V30 1295 H 117.432 -0.67852 -3.06991 0
M  V30 1296 N 121.204 0.198386 -1.56346 0
M  V30 1297 C 122.452 0.91747 -1.80075 0
M  V30 1298 C 122.773 1.83929 -0.647692 0
M  V30 1299 O 122.043 1.93029 0.334166 0
M  V30 1300 H 120.623 0.341774 -0.664228 0
M  V30 1301 H 123.285 0.204684 -1.93822 0
M  V30 1302 H 122.381 1.51055 -2.7311 0
M  V30 1303 N 122.682 1.50554 0.465978 0
M  V30 1304 C 124.093 1.54599 1.04671 0
M  V30 1305 C 124.444 0.352488 1.93008 0
M  V30 1306 O 123.569 -0.534044 2.09707 0
M  V30 1307 C 124.164 2.80166 1.90505 0
M  V30 1308 C 122.723 2.86876 2.43678 0
M  V30 1309 C 121.87 2.48947 1.22151 0
M  V30 1310 H 124.821 1.56744 0.248384 0
M  V30 1311 H 124.842 2.62311 2.75633 0
M  V30 1312 H 124.354 3.67013 1.26186 0
M  V30 1313 H 122.455 2.04393 3.11536 0
M  V30 1314 H 122.568 3.89885 2.78436 0
M  V30 1315 H 120.932 2.01498 1.5579 0
M  V30 1316 H 121.715 3.38107 0.594866 0
M  V30 1317 N 124.16 -0.719506 1.40217 0
M  V30 1318 C 125.406 -1.48152 1.38488 0
M  V30 1319 C 125.739 -1.94195 -0.0141867 0
M  V30 1320 O 125.014 -1.67884 -0.982096 0
M  V30 1321 C 125.297 -2.71035 2.37091 0
M  V30 1322 C 125.15 -2.30912 3.86005 0
M  V30 1323 C 126.469 -3.73182 2.33288 0
M  V30 1324 H 123.588 -0.537395 0.504357 0
M  V30 1325 H 126.23 -0.821472 1.71324 0
M  V30 1326 H 124.38 -3.27352 2.0922 0
M  V30 1327 H 126.052 -1.80107 4.24687 0
M  V30 1328 H 124.295 -1.62958 4.02029 0
M  V30 1329 H 124.966 -3.18978 4.50508 0
M  V30 1330 H 127.442 -3.26485 2.57966 0
M  V30 1331 H 126.318 -4.56806 3.04334 0
M  V30 1332 H 126.579 -4.21202 1.34317 0
M  V30 1333 N 125.638 -1.25649 -0.95132 0
M  V30 1334 C 126.568 -1.08808 -2.06599 0
M  V30 1335 C 127.549 0.00382547 -1.701 0
M  V30 1336 O 128.734 -0.166325 -1.93486 0
M  V30 1337 C 125.864 -0.709542 -3.39975 0
M  V30 1338 C 124.818 -1.75206 -3.90496 0
M  V30 1339 C 124.144 -1.22811 -5.20405 0
M  V30 1340 C 125.444 -3.15153 -4.16504 0
M  V30 1341 H 127.138 -2.02048 -2.20946 0
M  V30 1342 H 124.684 -0.972835 -1.06169 0
M  V30 1343 H 126.637 -0.578649 -4.17408 0
M  V30 1344 H 125.361 0.258556 -3.25575 0
M  V30 1345 H 124.02 -1.87145 -3.15234 0
M  V30 1346 H 123.668 -0.250145 -5.02378 0
M  V30 1347 H 123.368 -1.92492 -5.55176 0
M  V30 1348 H 124.892 -1.10968 -6.00432 0
M  V30 1349 H 126.306 -3.06349 -4.84586 0
M  V30 1350 H 124.703 -3.82333 -4.62538 0
M  V30 1351 H 125.773 -3.61966 -3.22658 0
M  V30 1352 N 127.117 1.15442 -1.07289 0
M  V30 1353 C 128.342 1.90638 -0.816828 0
M  V30 1354 C 128.767 1.77445 0.624083 0
M  V30 1355 O 128.125 1.10671 1.43602 0
M  V30 1356 C 128.173 3.39008 -1.22906 0
M  V30 1357 O 127.277 4.10701 -0.373975 0
M  V30 1358 H 126.618 0.593555 -0.297638 0
M  V30 1359 H 129.148 1.46198 -1.43134 0
M  V30 1360 H 129.158 3.89801 -1.20497 0
M  V30 1361 H 127.833 3.47929 -2.27856 0
M  V30 1362 H 126.41 3.70046 -0.460499 0
M  V30 1363 N 128.595 0.856903 1.32268 0
M  V30 1364 C 130.011 0.547061 1.49931 0
M  V30 1365 C 130.211 -0.921781 1.7918 0
M  V30 1366 O 129.267 -1.70469 1.8627 0
M  V30 1367 C 130.58 1.43599 2.64196 0
M  V30 1368 C 132.128 1.43665 2.78081 0
M  V30 1369 C 132.603 2.31085 3.95428 0
M  V30 1370 N 134.094 2.28893 4.02694 0
M  V30 1371 C 134.829 2.93262 4.92732 0
M  V30 1372 N 134.325 3.66751 5.87763 0
M  V30 1373 N 136.118 2.82638 4.85873 0
M  V30 1374 H 128.269 1.8075 1.11549 0
M  V30 1375 H 130.532 0.772144 0.549997 0
M  V30 1376 H 130.238 2.48058 2.49319 0
M  V30 1377 H 130.112 1.12502 3.60032 0
M  V30 1378 H 132.499 0.399701 2.92381 0
M  V30 1379 H 132.58 1.7878 1.82952 0
M  V30 1380 H 132.224 3.34849 3.81888 0
M  V30 1381 H 132.154 1.93302 4.89839 0
M  V30 1382 H 134.645 1.75466 3.34694 0
M  V30 1383 H 134.958 4.13027 6.53168 0
M  V30 1384 H 133.303 3.70859 5.87783 0
M  V30 1385 H 136.494 2.24774 4.10602 0
M  V30 1386 H 136.667 3.33084 5.55841 0
M  V30 1387 N 130.073 -1.45103 0.615059 0
M  V30 1388 C 131.32 -2.02183 0.113179 0
M  V30 1389 C 131.648 -1.48249 -1.25906 0
M  V30 1390 O 130.903 -0.650265 -1.84581 0
M  V30 1391 C 131.202 -3.57386 0.0318797 0
M  V30 1392 C 130.868 -4.30505 1.34077 0
M  V30 1393 C 129.53 -4.50197 1.69929 0
M  V30 1394 C 131.882 -4.72238 2.20546 0
M  V30 1395 C 129.21 -5.08881 2.91988 0
M  V30 1396 C 131.562 -5.32272 3.41861 0
M  V30 1397 C 130.226 -5.50187 3.77956 0
M  V30 1398 H 129.496 -0.739842 0.0414151 0
M  V30 1399 H 132.143 -1.74073 0.798168 0
M  V30 1400 H 130.448 -3.84817 -0.736409 0
M  V30 1401 H 132.145 -3.99264 -0.372712 0
M  V30 1402 H 128.735 -4.15496 1.05173 0
M  V30 1403 H 132.919 -4.56751 1.94146 0
M  V30 1404 H 128.175 -5.20939 3.2005 0
M  V30 1405 H 132.349 -5.63563 4.09109 0
M  V30 1406 H 129.976 -5.95427 4.72622 0
M  V30 1407 N 131.551 -0.354651 -1.53558 0
M  V30 1408 C 132.797 0.238797 -2.01389 0
M  V30 1409 C 133.13 1.49309 -1.2418 0
M  V30 1410 O 132.405 1.91638 -0.332457 0
M  V30 1411 C 132.688 0.541771 -3.56001 0
M  V30 1412 C 132.541 -0.725388 -4.43912 0
M  V30 1413 C 133.86 1.34685 -4.18984 0
M  V30 1414 H 130.979 0.0853177 -0.732045 0
M  V30 1415 H 133.621 -0.477384 -1.83905 0
M  V30 1416 H 131.771 1.15189 -3.71031 0
M  V30 1417 H 133.443 -1.36313 -4.407 0
M  V30 1418 H 131.686 -1.34801 -4.12324 0
M  V30 1419 H 132.357 -0.468505 -5.50008 0
M  V30 1420 H 134.833 0.830837 -4.07721 0
M  V30 1421 H 133.709 1.52759 -5.27215 0
M  V30 1422 H 133.97 2.35221 -3.74331 0
M  V30 1423 N 133.029 1.57378 -0.0835403 0
M  V30 1424 C 133.961 2.10389 0.909338 0
M  V30 1425 C 134.974 1.03858 1.25369 0
M  V30 1426 O 136.163 1.31338 1.20882 0
M  V30 1427 C 133.263 2.55908 2.2218 0
M  V30 1428 C 132.436 3.86145 2.05453 0
M  V30 1429 C 131.495 4.17633 3.20108 0
M  V30 1430 O 130.521 4.87043 2.94581 0
M  V30 1431 N 131.723 3.72113 4.45547 0
M  V30 1432 H 134.488 2.962 0.456657 0
M  V30 1433 H 132.049 1.61579 0.101877 0
M  V30 1434 H 134.041 2.74027 2.97811 0
M  V30 1435 H 132.611 1.75171 2.58909 0
M  V30 1436 H 131.831 3.7729 1.1422 0
M  V30 1437 H 133.119 4.7137 1.91541 0
M  V30 1438 H 132.517 3.16062 4.69171 0
M  V30 1439 H 131.074 3.95409 5.18165 0
M  V30 1440 N 134.507 -0.190092 1.56449 0
M  V30 1441 C 135.454 -1.23557 1.94942 0
M  V30 1442 C 136.424 -1.44972 0.810696 0
M  V30 1443 O 137.609 -1.58023 1.06927 0
M  V30 1444 C 134.749 -2.57416 2.2985 0
M  V30 1445 C 133.862 -2.43537 3.5681 0
M  V30 1446 C 132.997 -3.70134 3.81017 0
M  V30 1447 C 132.036 -3.51109 5.01387 0
M  V30 1448 N 131.173 -4.6973 5.21822 0
M  V30 1449 H 136.013 -0.900304 2.84075 0
M  V30 1450 H 133.55 -0.43318 1.40577 0
M  V30 1451 H 135.508 -3.35409 2.48106 0
M  V30 1452 H 134.138 -2.88975 1.43852 0
M  V30 1453 H 133.19 -1.56816 3.46573 0
M  V30 1454 H 134.502 -2.25415 4.4496 0
M  V30 1455 H 133.656 -4.56566 3.9954 0
M  V30 1456 H 132.395 -3.91215 2.91207 0
M  V30 1457 H 131.4 -2.63063 4.82782 0
M  V30 1458 H 132.625 -3.31468 5.9271 0
M  V30 1459 H 130.571 -4.91065 4.34961 0
M  V30 1460 H 130.488 -4.54452 6.0416 0
M  V30 1461 H 131.756 -5.57499 5.44808 0
M  V30 1462 N 135.985 -1.50799 -0.457987 0
M  V30 1463 C 137.231 -1.62683 -1.21088 0
M  V30 1464 C 137.564 -0.332268 -1.91336 0
M  V30 1465 O 136.839 0.667043 -1.82704 0
M  V30 1466 C 137.122 -2.81615 -2.24422 0
M  V30 1467 C 136.975 -4.20989 -1.58392 0
M  V30 1468 C 138.294 -2.96085 -3.2561 0
M  V30 1469 H 135.413 -0.592087 -0.438864 0
M  V30 1470 H 138.055 -1.83225 -0.50286 0
M  V30 1471 H 136.205 -2.64231 -2.84806 0
M  V30 1472 H 137.877 -4.49994 -1.01504 0
M  V30 1473 H 136.12 -4.24641 -0.886704 0
M  V30 1474 H 136.791 -5.0016 -2.33547 0
M  V30 1475 H 139.267 -3.12042 -2.75262 0
M  V30 1476 H 138.143 -3.80902 -3.95228 0
M  V30 1477 H 138.404 -2.0726 -3.90507 0
M  V30 1478 N 137.463 0.71206 -1.40597 0
M  V30 1479 C 138.393 1.83889 -1.43899 0
M  V30 1480 C 139.374 1.67442 -0.299504 0
M  V30 1481 O 140.559 1.87421 -0.508624 0
M  V30 1482 C 137.689 3.21877 -1.30431 0
M  V30 1483 C 136.643 3.53002 -2.42019 0
M  V30 1484 C 135.969 4.90172 -2.13626 0
M  V30 1485 C 137.269 3.53643 -3.84362 0
M  V30 1486 H 138.963 1.81383 -2.38203 0
M  V30 1487 H 136.509 0.871237 -1.14654 0
M  V30 1488 H 138.462 4.00404 -1.31357 0
M  V30 1489 H 137.186 3.24968 -0.326049 0
M  V30 1490 H 135.845 2.76818 -2.40349 0
M  V30 1491 H 135.493 4.89869 -1.14182 0
M  V30 1492 H 135.193 5.11962 -2.88389 0
M  V30 1493 H 136.717 5.71028 -2.1624 0
M  V30 1494 H 138.131 4.22203 -3.87837 0
M  V30 1495 H 136.528 3.86961 -4.58673 0
M  V30 1496 H 137.598 2.52954 -4.13693 0
M  V30 1497 N 138.941 1.26152 0.944643 0
M  V30 1498 C 140.218 1.02247 1.66748 0
M  V30 1499 C 140.598 -0.448202 2.06287 0
M  V30 1500 O 139.946 -1.42779 1.78399 0
M  V30 1501 C 140.156 1.96788 2.88228 0
M  V30 1502 C 141.504 2.25201 3.59958 0
M  V30 1503 O 142.528 1.94626 2.98327 0
M  V30 1504 O 141.387 2.77242 4.70956 0
M  V30 1505 H 138.481 0.388517 0.730057 0
M  V30 1506 H 141.027 1.37348 0.99668 0
M  V30 1507 H 139.799 2.96047 2.55875 0
M  V30 1508 H 139.422 1.62145 3.63035 0
M  V30 1509 N 140.419 -1.14872 1.07899 0
M  V30 1510 C 141.329 -2.2341 0.715915 0
M  V30 1511 C 142.345 -1.71808 -0.275306 0
M  V30 1512 O 143.521 -2.01039 -0.120545 0
M  V30 1513 C 140.586 -3.46474 0.125168 0
M  V30 1514 C 139.647 -4.13039 1.17034 0
M  V30 1515 C 138.88 -5.30229 0.607688 0
M  V30 1516 O 139.103 -5.675 -0.574497 0
M  V30 1517 O 138.037 -5.86444 1.35526 0
M  V30 1518 H 141.863 -2.56808 1.62121 0
M  V30 1519 H 139.448 -1.22702 0.852322 0
M  V30 1520 H 141.33 -4.20917 -0.201729 0
M  V30 1521 H 140.005 -3.14811 -0.753364 0
M  V30 1522 H 138.912 -3.40493 1.54968 0
M  V30 1523 H 140.245 -4.48796 2.02097 0
M  V30 1524 N 141.898 -0.863906 -1.31812 0
M  V30 1525 C 143.126 -0.486111 -2.01108 0
M  V30 1526 C 143.541 0.919755 -1.64882 0
M  V30 1527 O 142.898 1.60162 -0.874893 0
M  V30 1528 C 142.949 -0.626435 -3.56031 0
M  V30 1529 O 142.67 -1.97693 -3.90959 0
M  V30 1530 C 144.171 -0.248857 -4.42601 0
M  V30 1531 H 141.391 -0.190052 -0.643523 0
M  V30 1532 H 143.935 -1.1634 -1.68182 0
M  V30 1533 H 142.09 0.00322717 -3.874 0
M  V30 1534 H 142.504 -1.98034 -4.85678 0
M  V30 1535 H 143.978 -0.398016 -5.50563 0
M  V30 1536 H 144.455 0.811489 -4.31638 0
M  V30 1537 H 145.061 -0.853971 -4.16638 0
M  V30 1538 N 143.376 1.44774 -0.622745 0
M  V30 1539 C 144.624 2.01721 -0.123655 0
M  V30 1540 C 144.945 1.49172 1.25589 0
M  V30 1541 O 144.215 0.691974 1.83272 0
M  V30 1542 H 142.795 0.745777 -0.0427225 0
M  V30 1543 H 145.457 1.77382 -0.807559 0
M  V30 1544 H 144.553 3.11984 -0.0849534 0
M  V30 1545 N 144.854 0.36279 1.53368 0
M  V30 1546 C 145.817 -0.472679 2.24273 0
M  V30 1547 C 146.817 -1.012 1.24961 0
M  V30 1548 O 148.007 -0.898194 1.49259 0
M  V30 1549 C 145.139 -1.66039 2.97731 0
M  V30 1550 H 146.332 0.14773 2.99536 0
M  V30 1551 H 143.885 0.114434 1.55881 0
M  V30 1552 H 144.62 -2.31896 2.26704 0
M  V30 1553 H 144.405 -1.28066 3.70596 0
M  V30 1554 H 145.895 -2.25252 3.51641 0
M  V30 1555 N 146.332 -1.57332 0.0918853 0
M  V30 1556 C 147.279 -2.13847 -0.868211 0
M  V30 1557 C 148.249 -1.05618 -1.28196 0
M  V30 1558 O 149.434 -1.33387 -1.36427 0
M  V30 1559 C 146.574 -2.72062 -2.12312 0
M  V30 1560 C 145.687 -3.94514 -1.7602 0
M  V30 1561 C 144.822 -4.40903 -2.96273 0
M  V30 1562 C 143.861 -5.55953 -2.56092 0
M  V30 1563 N 142.998 -5.97209 -3.69169 0
M  V30 1564 H 147.838 -2.95575 -0.379406 0
M  V30 1565 H 145.375 -1.46048 -0.175606 0
M  V30 1566 H 147.333 -3.03931 -2.858 0
M  V30 1567 H 145.963 -1.93068 -2.58698 0
M  V30 1568 H 145.015 -3.68979 -0.925135 0
M  V30 1569 H 146.327 -4.7802 -1.42472 0
M  V30 1570 H 145.481 -4.74539 -3.78018 0
M  V30 1571 H 144.22 -3.56291 -3.33029 0
M  V30 1572 H 143.225 -5.21948 -1.72773 0
M  V30 1573 H 144.45 -6.42311 -2.20484 0
M  V30 1574 H 142.396 -5.15543 -4.05649 0
M  V30 1575 H 142.313 -6.75504 -3.39456 0
M  V30 1576 H 143.581 -6.35475 -4.51434 0
M  V30 1577 N 147.81 0.181792 -1.56548 0
M  V30 1578 C 148.757 1.22521 -1.95595 0
M  V30 1579 C 149.727 1.4454 -0.818373 0
M  V30 1580 O 150.912 1.57454 -1.07763 0
M  V30 1581 C 148.052 2.56193 -2.31212 0
M  V30 1582 C 147.165 2.41641 -3.58097 0
M  V30 1583 C 146.3 3.68108 -3.82975 0
M  V30 1584 C 145.339 3.48445 -5.03242 0
M  V30 1585 N 144.476 4.66956 -5.24306 0
M  V30 1586 H 149.316 0.885226 -2.84548 0
M  V30 1587 H 146.853 0.425718 -1.40805 0
M  V30 1588 H 148.811 3.34088 -2.49882 0
M  V30 1589 H 147.441 2.88208 -1.45382 0
M  V30 1590 H 146.493 1.54976 -3.474 0
M  V30 1591 H 147.805 2.23052 -4.46149 0
M  V30 1592 H 146.959 4.54441 -4.01956 0
M  V30 1593 H 145.698 3.89666 -2.93278 0
M  V30 1594 H 144.703 2.60499 -4.8417 0
M  V30 1595 H 145.928 3.2832 -5.9446 0
M  V30 1596 H 143.874 4.88752 -4.37559 0
M  V30 1597 H 143.791 4.51242 -6.06561 0
M  V30 1598 H 145.059 5.54602 -5.47756 0
M  V30 1599 N 149.288 1.51039 0.449983 0
M  V30 1600 C 150.534 1.63322 1.20223 0
M  V30 1601 C 150.867 0.34241 1.91158 0
M  V30 1602 O 150.142 -0.657344 1.83055 0
M  V30 1603 C 150.425 2.82801 2.22925 0
M  V30 1604 C 150.278 4.21823 1.56157 0
M  V30 1605 C 151.597 2.97807 3.24035 0
M  V30 1606 H 148.716 0.594407 0.435718 0
M  V30 1607 H 151.358 1.83489 0.493136 0
M  V30 1608 H 149.508 2.65738 2.834 0
M  V30 1609 H 151.18 4.50526 0.991162 0
M  V30 1610 H 149.423 4.25105 0.864172 0
M  V30 1611 H 150.094 5.01391 2.30891 0
M  V30 1612 H 152.57 3.13497 2.73603 0
M  V30 1613 H 151.446 3.82992 3.93202 0
M  V30 1614 H 151.707 2.09328 3.89402 0
M  V30 1615 N 150.766 -0.704594 1.40972 0
M  V30 1616 C 152.043 -1.45847 1.30338 0
M  V30 1617 C 152.423 -2.10973 -0.0732344 0
M  V30 1618 O 151.771 -2.00997 -1.08685 0
M  V30 1619 C 151.981 -2.48525 2.45023 0
M  V30 1620 C 153.329 -3.1404 2.8577 0
M  V30 1621 O 154.353 -2.58848 2.44696 0
M  V30 1622 O 153.212 -4.13981 3.56766 0
M  V30 1623 H 150.306 -0.649092 0.512454 0
M  V30 1624 H 152.852 -0.735836 1.52917 0
M  V30 1625 H 151.624 -1.98994 3.36923 0
M  V30 1626 H 151.247 -3.2831 2.24272 0
M  V30 1627 N 152.244 -1.26651 -0.937939 0
M  V30 1628 C 153.493 -1.11775 -1.67897 0
M  V30 1629 C 153.806 0.33794 -1.92659 0
M  V30 1630 O 155.012 0.607434 -2.64618 0
M  V30 1631 C 153.468 -1.9523 -3.02346 0
M  V30 1632 C 153.076 -3.45393 -2.8532 0
M  V30 1633 C 154.82 -1.88972 -3.80118 0
M  V30 1634 C 152.727 -4.21083 -4.15263 0
M  V30 1635 H 151.657 -0.414696 -0.629717 0
M  V30 1636 H 154.308 -1.50988 -1.04283 0
M  V30 1637 H 152.69 -1.48853 -3.66959 0
M  V30 1638 H 153.864 -3.99561 -2.29537 0
M  V30 1639 H 152.179 -3.52921 -2.20988 0
M  V30 1640 H 154.776 -2.42805 -4.76392 0
M  V30 1641 H 155.119 -0.86113 -4.07296 0
M  V30 1642 H 155.652 -2.33189 -3.22285 0
M  V30 1643 H 152.391 -5.24425 -3.93267 0
M  V30 1644 H 151.911 -3.71695 -4.70747 0
M  V30 1645 H 153.59 -4.29706 -4.83696 0
M  V30 1646 N 153.722 1.14298 -1.08507 0
M  V30 1647 C 154.968 1.85633 -0.816581 0
M  V30 1648 C 155.301 1.82784 0.656021 0
M  V30 1649 O 154.576 1.25926 1.48233 0
M  V30 1650 C 154.859 3.34223 -1.34041 0
M  V30 1651 C 154.712 3.45639 -2.87843 0
M  V30 1652 C 156.031 4.29356 -0.9665 0
M  V30 1653 H 153.15 0.67402 -0.298104 0
M  V30 1654 H 155.792 1.34214 -1.34487 0
M  V30 1655 H 153.942 3.78144 -0.89104 0
M  V30 1656 H 155.614 3.10498 -3.41158 0
M  V30 1657 H 153.857 2.86817 -3.25451 0
M  V30 1658 H 154.528 4.50089 -3.19569 0
M  V30 1659 H 157.004 3.93457 -1.35391 0
M  V30 1660 H 155.88 5.3178 -1.3602 0
M  V30 1661 H 156.141 4.41919 0.126362 0
M  V30 1662 N 155.201 0.870884 1.31352 0
M  V30 1663 C 156.164 0.332243 2.26779 0
M  V30 1664 C 157.164 -0.517302 1.52252 0
M  V30 1665 O 158.354 -0.326477 1.71113 0
M  V30 1666 C 155.486 -0.528066 3.36785 0
M  V30 1667 H 156.679 1.17469 2.75937 0
M  V30 1668 H 154.232 0.64655 1.423 0
M  V30 1669 H 154.967 -1.39167 2.92922 0
M  V30 1670 H 154.752 0.0802582 3.92018 0
M  V30 1671 H 156.242 -0.897179 4.07849 0
M  V30 1672 N 156.679 -1.44442 0.630414 0
M  V30 1673 C 157.629 -2.27794 -0.0968103 0
M  V30 1674 C 158.613 -1.38624 -0.816834 0
M  V30 1675 O 159.805 -1.62438 -0.70306 0
M  V30 1676 C 156.934 -3.25929 -1.07819 0
M  V30 1677 C 156.02 -4.22588 -0.357826 0
M  V30 1678 N 156.411 -5.0207 0.613169 0
M  V30 1679 C 154.709 -4.41914 -0.602365 0
M  V30 1680 C 155.41 -5.72351 1.03871 0
M  V30 1681 N 154.386 -5.42287 0.377642 0
M  V30 1682 H 158.188 -2.86653 0.648621 0
M  V30 1683 H 155.702 -1.55871 0.455862 0
M  V30 1684 H 157.699 -3.84399 -1.61378 0
M  V30 1685 H 156.359 -2.68631 -1.82393 0
M  V30 1686 H 157.37 -5.08331 0.990947 0
M  V30 1687 H 154.047 -3.95714 -1.33103 0
M  V30 1688 H 155.437 -6.4619 1.84086 0
M  V30 1689 N 158.157 -0.370918 -1.53173 0
M  V30 1690 C 159.382 0.220293 -2.06227 0
M  V30 1691 C 159.807 1.41243 -1.24225 0
M  V30 1692 O 159.165 1.79387 -0.262645 0
M  V30 1693 C 159.213 0.586663 -3.55796 0
M  V30 1694 O 158.317 1.68317 -3.76488 0
M  V30 1695 H 157.658 0.0308099 -0.663285 0
M  V30 1696 H 160.188 -0.533068 -1.97534 0
M  V30 1697 H 160.198 0.85617 -3.98916 0
M  V30 1698 H 158.873 -0.285013 -4.14922 0
M  V30 1699 H 157.45 1.40881 -3.45264 0
M  V30 1700 N 159.635 1.57281 -0.100228 0
M  V30 1701 C 160.568 2.09976 0.893612 0
M  V30 1702 C 161.546 1.01155 1.27304 0
M  V30 1703 O 162.73 1.28687 1.37739 0
M  V30 1704 C 159.857 2.58098 2.19324 0
M  V30 1705 C 158.903 3.78626 1.96328 0
M  V30 1706 S 159.736 5.21959 1.19662 0
M  V30 1707 C 160.892 5.73435 2.50844 0
M  V30 1708 H 161.125 2.93946 0.44534 0
M  V30 1709 H 158.658 1.53985 0.113167 0
M  V30 1710 H 160.616 2.8648 2.94005 0
M  V30 1711 H 159.277 1.74344 2.61272 0
M  V30 1712 H 158.47 4.10382 2.92579 0
M  V30 1713 H 158.072 3.50763 1.29775 0
M  V30 1714 H 160.364 5.82015 3.46792 0
M  V30 1715 H 161.307 6.7185 2.23659 0
M  V30 1716 H 161.715 5.01395 2.59352 0
M  V30 1717 N 161.113 -0.173488 1.56642 0
M  V30 1718 C 162.361 -0.888706 1.81512 0
M  V30 1719 C 162.682 -1.82875 0.676872 0
M  V30 1720 O 161.952 -1.93536 -0.303414 0
M  V30 1721 H 160.532 -0.331164 0.669582 0
M  V30 1722 H 163.194 -0.173823 1.94123 0
M  V30 1723 H 162.29 -1.46691 2.75478 0
M  V30 1724 N 162.591 -1.51276 -0.441967 0
M  V30 1725 C 163.839 -1.63392 -1.18943 0
M  V30 1726 C 164.16 -0.350159 -1.9183 0
M  V30 1727 O 163.43 0.633784 -1.85364 0
M  V30 1728 H 162.01 -0.602164 -0.442049 0
M  V30 1729 H 164.672 -1.88186 -0.507165 0
M  V30 1730 H 163.768 -2.45934 -1.92154 0
M  V30 1731 N 164.069 0.697108 -1.41344 0
M  V30 1732 C 165.032 1.79281 -1.42797 0
M  V30 1733 C 166.032 1.57607 -0.318837 0
M  V30 1734 O 167.222 1.64309 -0.578642 0
M  V30 1735 C 164.354 3.17632 -1.23785 0
M  V30 1736 H 165.547 1.79385 -2.40335 0
M  V30 1737 H 163.1 0.904582 -1.27464 0
M  V30 1738 H 163.835 3.23167 -0.270814 0
M  V30 1739 H 163.62 3.34765 -2.04144 0
M  V30 1740 H 165.11 3.97617 -1.27633 0
M  V30 1741 N 165.547 1.27147 0.931209 0
M  V30 1742 C 166.495 1.09398 2.05268 0
M  V30 1743 C 167.489 0.0180591 1.6939 0
M  V30 1744 O 168.695 0.17551 1.79142 0
M  V30 1745 H 165.07 0.336986 0.672268 0
M  V30 1746 H 167.041 2.04416 2.17386 0
M  V30 1747 C 165.79 0.75424 3.39421 0
M  V30 1748 H 165.113 1.57404 3.67511 0
M  V30 1749 H 166.553 0.669903 4.18674 0
M  V30 1750 C 165.012 -0.541197 3.32525 0
M  V30 1751 O 165.542 -1.57664 3.69466 0
M  V30 1752 N 163.748 -0.535517 2.85623 0
M  V30 1753 H 163.295 0.307511 2.55758 0
M  V30 1754 H 163.253 -1.40236 2.81392 0
M  V30 1755 N 167.025 -1.13721 1.09112 0
M  V30 1756 C 168.253 -1.88773 0.846899 0
M  V30 1757 C 168.668 -1.7896 -0.601572 0
M  V30 1758 O 168.025 -1.15394 -1.41388 0
M  V30 1759 C 168.076 -3.3849 1.26913 0
M  V30 1760 O 167.797 -3.48043 2.66079 0
M  V30 1761 C 169.298 -4.30518 1.05682 0
M  V30 1762 H 166.518 -0.59772 0.304914 0
M  V30 1763 H 169.062 -1.43977 1.45227 0
M  V30 1764 H 167.217 -3.80881 0.707723 0
M  V30 1765 H 167.631 -4.4109 2.83795 0
M  V30 1766 H 169.105 -5.3391 1.40156 0
M  V30 1767 H 169.582 -4.392 -0.00563416 0
M  V30 1768 H 170.188 -3.93893 1.60402 0
M  V30 1769 N 168.503 -0.877838 -1.30888 0
M  V30 1770 C 169.433 -0.35534 -2.3078 0
M  V30 1771 C 170.414 0.557994 -1.60687 0
M  V30 1772 O 171.599 0.473355 -1.88343 0
M  V30 1773 C 168.729 0.437221 -3.44537 0
M  V30 1774 C 167.683 -0.383715 -4.26276 0
M  V30 1775 C 167.009 0.535014 -5.32017 0
M  V30 1776 C 168.309 -1.62201 -4.96476 0
M  V30 1777 H 170.003 -1.19007 -2.74732 0
M  V30 1778 H 167.549 -0.573698 -1.32078 0
M  V30 1779 H 169.502 0.813334 -4.13477 0
M  V30 1780 H 168.226 1.30553 -2.99372 0
M  V30 1781 H 166.885 -0.741874 -3.59015 0
M  V30 1782 H 166.533 1.40083 -4.831 0
M  V30 1783 H 166.233 -0.0104211 -5.87599 0
M  V30 1784 H 167.757 0.907799 -6.03814 0
M  V30 1785 H 169.171 -1.31689 -5.5797 0
M  V30 1786 H 167.568 -2.10711 -5.61891 0
M  V30 1787 H 168.638 -2.37044 -4.23011 0
M  V30 1788 N 169.982 1.44106 -0.638065 0
M  V30 1789 C 171.212 2.06037 -0.152394 0
M  V30 1790 C 171.62 1.47808 1.18108 0
M  V30 1791 O 170.963 0.598092 1.73691 0
M  V30 1792 C 171.025 3.59488 0.0293714 0
M  V30 1793 C 170.689 4.4022 -1.22702 0
M  V30 1794 C 171.686 4.73256 -2.15232 0
M  V30 1795 C 169.371 4.8048 -1.46437 0
M  V30 1796 C 171.365 5.45444 -3.29802 0
M  V30 1797 C 169.052 5.52417 -2.61303 0
M  V30 1798 C 170.05 5.84819 -3.52811 0
M  V30 1799 O 169.738 6.55289 -4.65673 0
M  V30 1800 H 169.47 0.671233 -0.0801401 0
M  V30 1801 H 172.024 1.85851 -0.874563 0
M  V30 1802 H 170.254 3.78191 0.806758 0
M  V30 1803 H 171.943 4.03164 0.470475 0
M  V30 1804 H 172.709 4.42684 -1.98131 0
M  V30 1805 H 168.588 4.54676 -0.760977 0
M  V30 1806 H 172.132 5.70653 -4.01249 0
M  V30 1807 H 168.029 5.82404 -2.78344 0
M  V30 1808 H 168.797 6.73762 -4.64744 0
M  V30 1809 N 171.46 0.379036 1.52974 0
M  V30 1810 C 172.69 -0.20649 2.05566 0
M  V30 1811 C 173.098 -1.41906 1.25137 0
M  V30 1812 O 172.441 -1.81421 0.288464 0
M  V30 1813 C 172.503 -0.651086 3.53555 0
M  V30 1814 C 172.167 0.446626 4.54812 0
M  V30 1815 C 173.164 1.30079 5.03364 0
M  V30 1816 C 170.849 0.610719 4.98573 0
M  V30 1817 C 172.843 2.30426 5.94292 0
M  V30 1818 C 170.53 1.61754 5.89304 0
M  V30 1819 C 171.528 2.46274 6.37054 0
M  V30 1820 O 171.216 3.45237 7.25994 0
M  V30 1821 H 170.948 -0.0372381 0.674974 0
M  V30 1822 H 173.502 0.539718 1.98182 0
M  V30 1823 H 171.732 -1.44911 3.58522 0
M  V30 1824 H 173.421 -1.16112 3.88938 0
M  V30 1825 H 174.187 1.18527 4.70294 0
M  V30 1826 H 170.066 -0.0374044 4.60985 0
M  V30 1827 H 173.61 2.96432 6.31485 0
M  V30 1828 H 169.507 1.73348 6.21788 0
M  V30 1829 H 170.275 3.41124 7.44027 0
M  V30 1830 N 172.938 -1.57226 0.108567 0
M  V30 1831 C 174.187 -1.94008 -0.551703 0
M  V30 1832 C 174.5 -0.993442 -1.68494 0
M  V30 1833 O 175.706 -1.25551 -2.40726 0
M  V30 1834 C 174.162 -3.44763 -1.03279 0
M  V30 1835 C 173.77 -4.47943 0.0714193 0
M  V30 1836 C 175.514 -3.90483 -1.66503 0
M  V30 1837 C 173.421 -5.89865 -0.425779 0
M  V30 1838 H 172.351 -0.724206 -0.209863 0
M  V30 1839 H 175.002 -1.82547 0.186741 0
M  V30 1840 H 173.384 -3.51422 -1.82533 0
M  V30 1841 H 174.558 -4.52942 0.847365 0
M  V30 1842 H 172.873 -4.11913 0.609669 0
M  V30 1843 H 175.47 -4.93925 -2.04798 0
M  V30 1844 H 175.813 -3.29877 -2.53942 0
M  V30 1845 H 176.346 -3.86581 -0.938074 0
M  V30 1846 H 173.085 -6.54202 0.412316 0
M  V30 1847 H 172.605 -5.88309 -1.16843 0
M  V30 1848 H 174.284 -6.40844 -0.890397 0
M  V30 1849 N 174.416 0.165178 -1.56732 0
M  V30 1850 C 175.363 1.2044 -1.96883 0
M  V30 1851 C 176.333 1.43664 -0.833657 0
M  V30 1852 O 177.518 1.56302 -1.09427 0
M  V30 1853 C 174.658 2.53727 -2.33916 0
M  V30 1854 C 173.771 2.3783 -3.6064 0
M  V30 1855 C 172.906 3.64026 -3.86857 0
M  V30 1856 C 171.945 3.43088 -5.06909 0
M  V30 1857 N 171.082 4.61369 -5.29229 0
M  V30 1858 H 175.922 0.854996 -2.85471 0
M  V30 1859 H 173.459 0.41076 -1.41249 0
M  V30 1860 H 175.417 3.31419 -2.53411 0
M  V30 1861 H 174.047 2.8665 -1.48431 0
M  V30 1862 H 173.099 1.51282 -3.49024 0
M  V30 1863 H 174.411 2.18308 -4.4849 0
M  V30 1864 H 173.565 4.50152 -4.06753 0
M  V30 1865 H 172.304 3.86533 -2.97394 0
M  V30 1866 H 171.309 2.55349 -4.86906 0
M  V30 1867 H 172.534 3.21997 -5.97909 0
M  V30 1868 H 170.48 4.84084 -4.42718 0
M  V30 1869 H 170.397 4.44783 -6.11313 0
M  V30 1870 H 171.665 5.48761 -5.53608 0
M  V30 1871 N 175.894 1.51508 0.433938 0
M  V30 1872 C 176.842 1.73646 1.54757 0
M  V30 1873 C 177.836 0.602854 1.5831 0
M  V30 1874 O 179.042 0.784318 1.62014 0
M  V30 1875 H 175.417 0.548718 0.51421 0
M  V30 1876 H 177.388 2.66991 1.33261 0
M  V30 1877 C 176.137 1.88172 2.92381 0
M  V30 1878 H 175.46 2.74808 2.90381 0
M  V30 1879 H 176.9 2.07672 3.6966 0
M  V30 1880 C 175.359 0.64239 3.30719 0
M  V30 1881 O 175.889 -0.201362 4.01195 0
M  V30 1882 N 174.095 0.485489 2.86516 0
M  V30 1883 H 173.642 1.17318 2.29334 0
M  V30 1884 H 173.6 -0.342482 3.12529 0
M  V30 1885 N 177.372 -0.689602 1.41712 0
M  V30 1886 C 178.302 -1.81577 1.46806 0
M  V30 1887 C 179.283 -1.66945 0.326105 0
M  V30 1888 O 180.468 -1.86588 0.538377 0
M  V30 1889 C 177.598 -3.19762 1.35535 0
M  V30 1890 C 176.552 -3.49107 2.47605 0
M  V30 1891 C 175.878 -4.86711 2.21397 0
M  V30 1892 C 177.178 -3.47483 3.89939 0
M  V30 1893 H 178.872 -1.7757 2.41058 0
M  V30 1894 H 176.418 -0.852887 1.16025 0
M  V30 1895 H 178.371 -3.98263 1.3771 0
M  V30 1896 H 177.095 -3.24409 0.377708 0
M  V30 1897 H 175.754 -2.72959 2.44722 0
M  V30 1898 H 175.402 -4.8799 1.21961 0
M  V30 1899 H 175.102 -5.0731 2.96497 0
M  V30 1900 H 176.626 -5.67515 2.25297 0
M  V30 1901 H 178.04 -4.1598 3.94505 0
M  V30 1902 H 176.437 -3.79615 4.64771 0
M  V30 1903 H 177.507 -2.46341 4.17665 0
M  V30 1904 N 178.85 -1.27639 -0.924453 0
M  V30 1905 C 180.127 -1.04887 -1.651 0
M  V30 1906 C 180.507 0.415327 -2.06974 0
M  V30 1907 O 179.855 1.39923 -1.80648 0
M  V30 1908 C 180.065 -2.01348 -2.85061 0
M  V30 1909 C 181.413 -2.30899 -3.56329 0
M  V30 1910 O 182.437 -1.99348 -2.95193 0
M  V30 1911 O 181.296 -2.84699 -4.66485 0
M  V30 1912 H 178.39 -0.400083 -0.723784 0
M  V30 1913 H 180.936 -1.38916 -0.974703 0
M  V30 1914 H 179.708 -3.0008 -2.51133 0
M  V30 1915 H 179.331 -1.679 -3.6041 0
M  V30 1916 N 180.328 1.1314 -1.09713 0
M  V30 1917 C 181.576 1.84119 -0.833338 0
M  V30 1918 C 181.897 1.84097 0.642904 0
M  V30 1919 O 181.167 1.29881 1.46655 0
M  V30 1920 H 179.747 0.681766 -0.305293 0
M  V30 1921 H 182.409 1.37038 -1.38588 0
M  V30 1922 H 181.505 2.88543 -1.18951 0
M  V30 1923 N 181.806 0.884767 1.30421 0
M  V30 1924 C 183.054 0.502112 1.95763 0
M  V30 1925 C 183.375 -0.951815 1.70192 0
M  V30 1926 O 182.645 -1.6692 1.0254 0
M  V30 1927 H 181.225 0.182694 0.724315 0
M  V30 1928 H 183.887 1.1278 1.58955 0
M  V30 1929 H 182.983 0.672188 3.04775 0
M  V30 1930 N 183.284 -1.43765 0.645699 0
M  V30 1931 C 184.232 -2.32516 -0.0624849 0
M  V30 1932 C 185.226 -1.48183 -0.820855 0
M  V30 1933 O 186.432 -1.64439 -0.732106 0
M  V30 1934 H 182.807 -0.750989 -0.0389864 0
M  V30 1935 H 184.778 -2.89979 0.703892 0
M  V30 1936 C 183.527 -3.32389 -1.02044 0
M  V30 1937 H 182.85 -3.97301 -0.446312 0
M  V30 1938 H 184.29 -3.97138 -1.48517 0
M  V30 1939 C 182.749 -2.62416 -2.11281 0
M  V30 1940 O 183.279 -2.434 -3.19561 0
M  V30 1941 N 181.485 -2.21913 -1.87624 0
M  V30 1942 H 181.032 -2.37578 -0.995703 0
M  V30 1943 H 180.99 -1.75424 -2.6091 0
M  V30 1944 N 184.763 -0.387143 -1.52771 0
M  V30 1945 C 185.71 0.449048 -2.26389 0
M  V30 1946 C 186.68 1.05961 -1.27912 0
M  V30 1947 O 187.865 1.08804 -1.56737 0
M  V30 1948 C 185.005 1.57155 -3.0724 0
M  V30 1949 C 184.118 0.984066 -4.20643 0
M  V30 1950 C 183.253 2.07745 -4.88892 0
M  V30 1951 C 182.292 1.46574 -5.94292 0
M  V30 1952 N 181.429 2.49834 -6.56146 0
M  V30 1953 H 186.269 -0.185205 -2.97424 0
M  V30 1954 H 183.806 -0.103164 -1.46738 0
M  V30 1955 H 185.764 2.23309 -3.52405 0
M  V30 1956 H 184.394 2.17615 -2.38419 0
M  V30 1957 H 183.446 0.212193 -3.79808 0
M  V30 1958 H 184.758 0.497029 -4.96318 0
M  V30 1959 H 183.912 2.81673 -5.3735 0
M  V30 1960 H 182.651 2.59807 -4.12737 0
M  V30 1961 H 181.656 0.711696 -5.45174 0
M  V30 1962 H 182.881 0.953088 -6.72379 0
M  V30 1963 H 180.827 3.0107 -5.82832 0
M  V30 1964 H 180.744 2.05879 -7.27427 0
M  V30 1965 H 182.012 3.23399 -7.09249 0
M  V30 1966 N 186.241 1.57166 -0.116904 0
M  V30 1967 C 187.487 1.95412 0.542405 0
M  V30 1968 C 187.82 1.00019 1.66463 0
M  V30 1969 O 187.095 0.0370346 1.94465 0
M  V30 1970 C 187.378 3.43615 1.07708 0
M  V30 1971 C 187.231 4.49781 -0.0415868 0
M  V30 1972 C 188.55 3.93616 1.96861 0
M  V30 1973 H 185.669 0.710543 0.195696 0
M  V30 1974 H 188.311 1.89027 -0.192038 0
M  V30 1975 H 186.461 3.49187 1.70296 0
M  V30 1976 H 188.133 4.56308 -0.676793 0
M  V30 1977 H 186.376 4.28033 -0.705019 0
M  V30 1978 H 187.047 5.50733 0.373717 0
M  V30 1979 H 189.523 3.90335 1.44146 0
M  V30 1980 H 188.399 4.97838 2.3119 0
M  V30 1981 H 188.66 3.34188 2.89432 0
M  V30 1982 N 187.719 -0.156864 1.56817 0
M  V30 1983 C 188.682 -1.17781 1.96622 0
M  V30 1984 C 189.682 -1.36401 0.851555 0
M  V30 1985 O 190.872 -1.33561 1.11836 0
M  V30 1986 C 188.004 -2.54008 2.27361 0
M  V30 1987 H 189.197 -0.836564 2.87996 0
M  V30 1988 H 186.75 -0.39985 1.51099 0
M  V30 1989 H 187.485 -2.9312 1.38748 0
M  V30 1990 H 187.27 -2.41856 3.08623 0
M  V30 1991 H 188.76 -3.27558 2.59029 0
M  V30 1992 N 189.197 -1.51736 -0.425897 0
M  V30 1993 C 190.145 -1.74464 -1.53834 0
M  V30 1994 C 191.139 -0.611241 -1.57988 0
M  V30 1995 O 192.345 -0.792899 -1.61596 0
M  V30 1996 H 188.72 -0.551437 -0.511293 0
M  V30 1997 H 190.691 -2.67694 -1.31843 0
M  V30 1998 C 189.44 -1.8972 -2.91379 0
M  V30 1999 H 188.763 -2.76344 -2.88919 0
M  V30 2000 H 190.203 -2.09629 -3.68553 0
M  V30 2001 C 188.662 -0.65992 -3.30374 0
M  V30 2002 O 189.192 0.180083 -4.01296 0
M  V30 2003 N 187.398 -0.500677 -2.86254 0
M  V30 2004 H 186.945 -1.18532 -2.28709 0
M  V30 2005 H 186.903 0.325903 -3.12706 0
M  V30 2006 N 190.675 0.682077 -1.42076 0
M  V30 2007 C 191.921 1.44428 -1.42367 0
M  V30 2008 C 192.254 1.94164 -0.0373056 0
M  V30 2009 O 191.529 1.70429 0.937239 0
M  V30 2010 C 191.812 2.64654 -2.44194 0
M  V30 2011 C 191.665 2.20596 -3.91991 0
M  V30 2012 C 192.984 3.66865 -2.431 0
M  V30 2013 H 190.103 0.523834 -0.518428 0
M  V30 2014 H 192.745 0.77576 -1.73442 0
M  V30 2015 H 190.895 3.2169 -2.17826 0
M  V30 2016 H 192.567 1.68783 -4.29313 0
M  V30 2017 H 190.81 1.52242 -4.06208 0
M  V30 2018 H 191.481 3.06921 -4.58807 0
M  V30 2019 H 193.957 3.19531 -2.66532 0
M  V30 2020 H 192.833 4.48577 -3.16339 0
M  V30 2021 H 193.094 4.17493 -1.45437 0
M  V30 2022 N 192.153 1.28127 0.917671 0
M  V30 2023 C 193.399 1.15223 1.66888 0
M  V30 2024 C 193.732 -0.299293 1.9188 0
M  V30 2025 O 193.007 -1.21805 1.51637 0
M  V30 2026 C 193.29 1.94706 3.02922 0
M  V30 2027 C 193.143 3.47898 2.85109 0
M  V30 2028 C 194.462 1.75939 4.03402 0
M  V30 2029 H 191.581 0.419946 0.605652 0
M  V30 2030 H 194.223 1.57398 1.06423 0
M  V30 2031 H 192.373 1.58864 3.54534 0
M  V30 2032 H 194.045 3.93624 2.40537 0
M  V30 2033 H 192.288 3.7373 2.20246 0
M  V30 2034 H 192.959 3.98765 3.81694 0
M  V30 2035 H 195.435 2.07209 3.60837 0
M  V30 2036 H 194.311 2.33931 4.96556 0
M  V30 2037 H 194.572 0.709877 4.36364 0
M  V30 2038 N 193.631 -1.12557 1.10312 0
M  V30 2039 C 194.859 -1.87864 0.866873 0
M  V30 2040 C 195.274 -1.79588 -0.582557 0
M  V30 2041 O 194.631 -1.16887 -1.40156 0
M  V30 2042 C 194.682 -3.37125 1.30496 0
M  V30 2043 O 194.403 -3.45201 2.69755 0
M  V30 2044 C 195.904 -4.29373 1.10243 0
M  V30 2045 H 193.124 -0.594452 0.311236 0
M  V30 2046 H 195.668 -1.42429 1.46745 0
M  V30 2047 H 193.823 -3.80109 0.748081 0
M  V30 2048 H 194.237 -4.38056 2.88457 0
M  V30 2049 H 195.711 -5.32394 1.45811 0
M  V30 2050 H 196.188 -4.39181 0.0409492 0
M  V30 2051 H 196.794 -3.92169 1.64571 0
M  V30 2052 N 195.109 -0.891671 -1.2995 0
M  V30 2053 C 196.039 -0.379797 -2.30391 0
M  V30 2054 C 197.02 0.540919 -1.6127 0
M  V30 2055 O 198.205 0.453352 -1.88834 0
M  V30 2056 C 195.335 0.400654 -3.44981 0
M  V30 2057 C 194.289 -0.428905 -4.25846 0
M  V30 2058 C 193.615 0.478557 -5.32554 0
M  V30 2059 C 194.915 -1.67458 -4.94727 0
M  V30 2060 H 196.609 -1.21914 -2.73454 0
M  V30 2061 H 194.155 -0.587675 -1.31462 0
M  V30 2062 H 196.108 0.769434 -4.14316 0
M  V30 2063 H 194.832 1.27371 -3.0074 0
M  V30 2064 H 193.491 -0.779911 -3.58208 0
M  V30 2065 H 193.139 1.34951 -4.84559 0
M  V30 2066 H 192.839 -0.0727433 -5.87555 0
M  V30 2067 H 194.363 0.843705 -6.04743 0
M  V30 2068 H 195.777 -1.376 -5.56542 0
M  V30 2069 H 194.174 -2.16659 -5.59624 0
M  V30 2070 H 195.244 -2.41518 -4.20473 0
M  V30 2071 N 196.587 1.43421 -0.653314 0
M  V30 2072 C 197.835 2.01414 -0.166415 0
M  V30 2073 C 198.156 1.51803 1.22397 0
M  V30 2074 O 197.426 0.730693 1.81763 0
M  V30 2075 H 196.006 0.744703 -0.0585319 0
M  V30 2076 H 198.668 1.75629 -0.845003 0
M  V30 2077 H 197.764 3.11734 -0.151111 0
M  V30 2078 N 198.065 0.39524 1.52563 0
M  V30 2079 C 199.313 -0.184678 2.01254 0
M  V30 2080 C 199.634 -1.46822 1.28329 0
M  V30 2081 O 198.904 -1.91666 0.405094 0
M  V30 2082 H 197.484 -0.0712355 0.743596 0
M  V30 2083 H 200.146 0.528293 1.87603 0
M  V30 2084 H 199.242 -0.390681 3.09645 0
M  V30 2085 N 199.544 -1.57102 0.125237 0
M  V30 2086 C 200.507 -2.14471 -0.80838 0
M  V30 2087 C 201.507 -1.0811 -1.19033 0
M  V30 2088 O 202.697 -1.33856 -1.11482 0
M  V30 2089 C 199.829 -2.69005 -2.09402 0
M  V30 2090 H 201.022 -2.98297 -0.309696 0
M  V30 2091 H 198.575 -1.55807 -0.124051 0
M  V30 2092 H 199.31 -1.88785 -2.63687 0
M  V30 2093 H 199.095 -3.46799 -1.82957 0
M  V30 2094 H 200.585 -3.13278 -2.76128 0
M  V30 2095 N 201.022 0.148545 -1.56898 0
M  V30 2096 C 201.97 1.20265 -1.99096 0
M  V30 2097 C 202.964 1.44559 -0.883123 0
M  V30 2098 O 204.17 1.4487 -1.0683 0
M  V30 2099 H 200.545 0.404786 -0.63376 0
M  V30 2100 H 202.516 0.82004 -2.86911 0
M  V30 2101 C 201.265 2.52886 -2.3863 0
M  V30 2102 H 200.588 2.35021 -3.23427 0
M  V30 2103 H 202.028 3.25274 -2.7198 0
M  V30 2104 C 200.487 3.13315 -1.23837 0
M  V30 2105 O 201.017 3.98077 -0.538268 0
M  V30 2106 N 199.223 2.72742 -1.00301 0
M  V30 2107 H 198.77 2.03912 -1.5741 0
M  V30 2108 H 198.728 3.13507 -0.236838 0
M  V30 2109 N 202.5 1.5196 0.417844 0
M  V30 2110 C 203.916 1.40569 0.755816 0
M  V30 2111 C 204.116 0.503316 1.95113 0
M  V30 2112 O 203.172 -0.0341925 2.52477 0
M  V30 2113 C 204.485 2.82947 1.01791 0
M  V30 2114 C 206.033 2.92231 1.12116 0
M  V30 2115 C 206.508 4.35559 1.41608 0
M  V30 2116 N 207.999 4.38753 1.48491 0
M  V30 2117 C 208.734 5.46705 1.7292 0
M  V30 2118 N 208.23 6.64788 1.95011 0
M  V30 2119 N 210.023 5.34209 1.74863 0
M  V30 2120 H 202.174 2.09168 -0.369098 0
M  V30 2121 H 204.437 0.942409 -0.102809 0
M  V30 2122 H 204.143 3.5106 0.212081 0
M  V30 2123 H 204.017 3.23462 1.94042 0
M  V30 2124 H 206.404 2.24304 1.9176 0
M  V30 2125 H 206.485 2.55185 0.177225 0
M  V30 2126 H 206.129 5.04042 0.624848 0
M  V30 2127 H 206.059 4.70133 2.37239 0
M  V30 2128 H 208.55 3.5363 1.33244 0
M  V30 2129 H 208.863 7.42845 2.13076 0
M  V30 2130 H 207.208 6.67869 1.92293 0
M  V30 2131 H 210.399 4.40937 1.57137 0
M  V30 2132 H 210.572 6.18415 1.93563 0
M  V30 2133 N 203.978 -0.674533 1.42435 0
M  V30 2134 C 204.908 -1.80009 1.48724 0
M  V30 2135 C 205.889 -1.6659 0.343793 0
M  V30 2136 O 207.074 -1.86007 0.558137 0
M  V30 2137 C 204.204 -3.18306 1.38919 0
M  V30 2138 C 203.158 -3.46461 2.51294 0
M  V30 2139 C 202.484 -4.84335 2.26547 0
M  V30 2140 C 203.784 -3.43328 3.93603 0
M  V30 2141 H 205.478 -1.75004 2.42928 0
M  V30 2142 H 203.024 -0.840533 1.16923 0
M  V30 2143 H 204.977 -3.9678 1.41927 0
M  V30 2144 H 203.701 -3.2399 0.412094 0
M  V30 2145 H 202.36 -2.70348 2.47604 0
M  V30 2146 H 202.008 -4.86669 1.2713 0
M  V30 2147 H 201.708 -5.04136 3.01861 0
M  V30 2148 H 203.232 -5.65094 2.31304 0
M  V30 2149 H 204.646 -4.11772 3.98894 0
M  V30 2150 H 203.043 -3.74664 4.68771 0
M  V30 2151 H 204.113 -2.41897 4.20255 0
M  V30 2152 N 205.456 -1.28612 -0.910864 0
M  V30 2153 C 206.684 -1.18792 -1.69399 0
M  V30 2154 C 207.099 0.253039 -1.87097 0
M  V30 2155 O 206.456 1.17071 -1.40003 0
M  V30 2156 C 206.507 -1.88511 -3.08457 0
M  V30 2157 O 206.228 -3.26979 -2.91576 0
M  V30 2158 C 207.729 -1.85029 -4.02839 0
M  V30 2159 H 204.949 -0.412233 -0.529438 0
M  V30 2160 H 207.493 -1.69788 -1.13984 0
M  V30 2161 H 205.648 -1.41379 -3.60681 0
M  V30 2162 H 206.062 -3.61936 -3.79608 0
M  V30 2163 H 207.536 -2.38395 -4.97867 0
M  V30 2164 H 208.013 -0.823303 -4.31414 0
M  V30 2165 H 208.619 -2.31853 -3.56545 0
M  V30 2166 N 206.934 1.1197 -1.10907 0
M  V30 2167 C 208.162 1.87402 -0.876824 0
M  V30 2168 C 208.577 1.79894 0.573025 0
M  V30 2169 O 207.934 1.17629 1.39534 0
M  V30 2170 C 207.985 3.36428 -1.32282 0
M  V30 2171 O 207.706 3.43765 -2.71582 0
M  V30 2172 C 209.207 4.28783 -1.12518 0
M  V30 2173 H 206.427 0.592793 -0.314384 0
M  V30 2174 H 208.971 1.41649 -1.47499 0
M  V30 2175 H 207.126 3.79706 -0.768229 0
M  V30 2176 H 207.54 4.3652 -2.90776 0
M  V30 2177 H 209.014 5.31613 -1.48633 0
M  V30 2178 H 209.491 4.39153 -0.0642394 0
M  V30 2179 H 210.097 3.91291 -1.66648 0
M  V30 2180 N 208.412 0.89855 1.29475 0
M  V30 2181 C 209.66 0.522847 1.9522 0
M  V30 2182 C 209.981 -0.93371 1.71192 0
M  V30 2183 O 209.251 -1.65823 1.04305 0
M  V30 2184 H 207.831 0.190366 0.722336 0
M  V30 2185 H 210.493 1.14459 1.5775 0
M  V30 2186 H 209.589 0.704476 3.04045 0
M  V30 2187 N 209.89 -1.43072 0.660911 0
M  V30 2188 C 210.837 -2.30785 -0.0259884 0
M  V30 2189 C 211.807 -1.45184 -0.806888 0
M  V30 2190 O 212.992 -1.74041 -0.781943 0
M  V30 2191 C 210.132 -3.30861 -0.981067 0
M  V30 2192 C 209.245 -4.31558 -0.195458 0
M  V30 2193 C 208.38 -5.18712 -1.14503 0
M  V30 2194 C 207.419 -6.11097 -0.350299 0
M  V30 2195 N 206.556 -6.90849 -1.25186 0
M  V30 2196 H 211.396 -2.88975 0.727846 0
M  V30 2197 H 208.933 -1.42353 0.370682 0
M  V30 2198 H 210.891 -3.87399 -1.54849 0
M  V30 2199 H 209.521 -2.74304 -1.70169 0
M  V30 2200 H 208.573 -3.77252 0.488374 0
M  V30 2201 H 209.885 -4.9701 0.422176 0
M  V30 2202 H 209.039 -5.79914 -1.78284 0
M  V30 2203 H 207.778 -4.53404 -1.79656 0
M  V30 2204 H 206.783 -5.48976 0.300808 0
M  V30 2205 H 208.008 -6.7845 0.296941 0
M  V30 2206 H 205.954 -6.28182 -1.89005 0
M  V30 2207 H 205.871 -7.52854 -0.688971 0
M  V30 2208 H 207.139 -7.5655 -1.87757 0
M  V30 2209 N 211.368 -0.403325 -1.52352 0
M  V30 2210 C 212.331 0.413051 -2.25447 0
M  V30 2211 C 213.331 0.978513 -1.276 0
M  V30 2212 O 214.521 0.858305 -1.51587 0
M  V30 2213 C 211.653 1.58087 -3.02029 0
M  V30 2214 H 212.846 -0.227094 -2.99039 0
M  V30 2215 H 210.399 -0.155722 -1.55522 0
M  V30 2216 H 211.134 2.25804 -2.32772 0
M  V30 2217 H 210.919 1.18195 -3.73861 0
M  V30 2218 H 212.409 2.1585 -3.57489 0
M  V30 2219 N 212.846 1.57033 -0.133567 0
M  V30 2220 C 213.776 2.1909 0.807567 0
M  V30 2221 C 214.757 1.13517 1.26681 0
M  V30 2222 O 215.942 1.41809 1.32679 0
M  V30 2223 C 213.072 2.80188 2.05212 0
M  V30 2224 C 212.026 3.91471 1.73015 0
M  V30 2225 C 211.352 4.39443 3.04622 0
M  V30 2226 C 212.652 5.12886 0.987168 0
M  V30 2227 H 214.346 2.97988 0.290403 0
M  V30 2228 H 211.892 1.43335 0.138239 0
M  V30 2229 H 213.845 3.22264 2.71521 0
M  V30 2230 H 212.569 1.98601 2.59278 0
M  V30 2231 H 211.228 3.49993 1.0909 0
M  V30 2232 H 210.876 3.54695 3.56651 0
M  V30 2233 H 210.576 5.14495 2.83847 0
M  V30 2234 H 212.1 4.8418 3.72024 0
M  V30 2235 H 213.514 5.51891 1.55208 0
M  V30 2236 H 211.911 5.93615 0.87985 0
M  V30 2237 H 212.981 4.84894 -0.0235286 0
M  V30 2238 N 214.325 -0.140222 1.56975 0
M  V30 2239 C 215.736 -0.699596 1.73097 0
M  V30 2240 C 216.087 -1.8134 0.749022 0
M  V30 2241 O 215.212 -2.16241 -0.0828503 0
M  V30 2242 C 215.807 -1.27582 3.1386 0
M  V30 2243 C 214.366 -1.78169 3.31561 0
M  V30 2244 C 213.513 -0.672855 2.69013 0
M  V30 2245 H 216.464 0.0855115 1.58469 0
M  V30 2246 H 216.485 -2.14561 3.14235 0
M  V30 2247 H 215.997 -0.464955 3.85305 0
M  V30 2248 H 214.098 -2.61801 2.65124 0
M  V30 2249 H 214.211 -1.90574 4.39566 0
M  V30 2250 H 212.575 -1.10118 2.29665 0
M  V30 2251 H 213.358 0.126679 3.43066 0
M  V30 2252 N 215.803 -1.52179 -0.40978 0
M  V30 2253 C 217.051 -1.65878 -1.15451 0
M  V30 2254 C 217.372 -0.390771 -1.91044 0
M  V30 2255 O 216.642 0.594323 -1.86667 0
M  V30 2256 H 215.222 -0.611405 -0.429177 0
M  V30 2257 H 217.884 -1.89219 -0.467134 0
M  V30 2258 H 216.98 -2.49954 -1.86894 0
M  V30 2259 N 217.281 0.66697 -1.42791 0
M  V30 2260 C 218.509 1.45505 -1.47091 0
M  V30 2261 C 218.924 1.8861 -0.0845873 0
M  V30 2262 O 218.281 1.58632 0.90234 0
M  V30 2263 C 218.332 2.69906 -2.40485 0
M  V30 2264 O 218.053 2.28608 -3.73725 0
M  V30 2265 C 219.554 3.63396 -2.53886 0
M  V30 2266 H 216.774 0.447459 -0.500022 0
M  V30 2267 H 219.318 0.818866 -1.8739 0
M  V30 2268 H 217.473 3.29696 -2.03419 0
M  V30 2269 H 217.887 3.08997 -4.23817 0
M  V30 2270 H 219.361 4.47387 -3.2334 0
M  V30 2271 H 219.838 4.09824 -1.57927 0
M  V30 2272 H 220.444 3.09495 -2.91706 0
M  V30 2273 N 218.759 1.29093 0.90403 0
M  V30 2274 C 220.036 1.075 1.63411 0
M  V30 2275 C 220.416 -0.382346 2.07609 0
M  V30 2276 O 219.764 -1.37031 1.82851 0
M  V30 2277 C 219.974 2.05858 2.81822 0
M  V30 2278 C 221.322 2.36539 3.52611 0
M  V30 2279 O 222.346 2.04019 2.91984 0
M  V30 2280 O 221.205 2.92085 4.61897 0
M  V30 2281 H 218.299 0.411547 0.717327 0
M  V30 2282 H 220.845 1.40449 0.952479 0
M  V30 2283 H 219.617 3.04037 2.46327 0
M  V30 2284 H 219.24 1.73613 3.57693 0
M  V30 2285 N 220.237 -1.11381 1.11499 0
M  V30 2286 C 221.648 -1.6465 0.880191 0
M  V30 2287 C 221.999 -1.87199 -0.587434 0
M  V30 2288 O 221.124 -1.60667 -1.44966 0
M  V30 2289 C 221.719 -2.99105 1.59128 0
M  V30 2290 C 220.278 -3.49279 1.40289 0
M  V30 2291 C 219.425 -2.24077 1.63354 0
M  V30 2292 H 222.376 -0.950123 1.27116 0
M  V30 2293 H 222.397 -3.66107 1.03664 0
M  V30 2294 H 221.909 -2.82661 2.65941 0
M  V30 2295 H 220.01 -3.70887 0.356888 0
M  V30 2296 H 220.123 -4.2803 2.15238 0
M  V30 2297 H 218.487 -2.31733 1.05698 0
M  V30 2298 H 219.27 -2.10175 2.71443 0
M  V30 2299 N 221.715 -0.905404 -1.28997 0
M  V30 2300 C 222.663 -0.377431 -2.29517 0
M  V30 2301 C 223.657 0.526461 -1.61012 0
M  V30 2302 O 224.863 0.40863 -1.753 0
M  V30 2303 H 221.238 -0.103437 -0.744852 0
M  V30 2304 H 223.209 -1.23848 -2.71485 0
M  V30 2305 C 221.958 0.374833 -3.45674 0
M  V30 2306 H 221.281 -0.311474 -3.98585 0
M  V30 2307 H 222.721 0.70903 -4.1803 0
M  V30 2308 C 221.18 1.57963 -2.97572 0
M  V30 2309 O 221.71 2.67886 -2.99333 0
M  V30 2310 N 219.916 1.42375 -2.53333 0
M  V30 2311 H 219.463 0.529466 -2.521 0
M  V30 2312 H 219.421 2.23117 -2.21509 0
M  V30 2313 N 223.193 1.4272 -0.668489 0
M  V30 2314 C 224.125 2.2914 0.052613 0
M  V30 2315 C 225.138 1.43339 0.771857 0
M  V30 2316 O 226.327 1.67123 0.627067 0
M  V30 2317 C 223.427 3.20618 1.09804 0
M  V30 2318 C 222.6 4.35039 0.45389 0
M  V30 2319 C 221.659 5.07282 1.39825 0
M  V30 2320 O 220.685 5.62024 0.900978 0
M  V30 2321 N 221.887 5.12206 2.73176 0
M  V30 2322 H 224.652 2.91668 -0.689209 0
M  V30 2323 H 222.213 1.53577 -0.512422 0
M  V30 2324 H 224.205 3.65815 1.73094 0
M  V30 2325 H 222.775 2.59585 1.74167 0
M  V30 2326 H 221.995 3.92567 -0.358396 0
M  V30 2327 H 223.283 5.088 0.00486972 0
M  V30 2328 H 222.681 4.6913 3.16122 0
M  V30 2329 H 221.238 5.61069 3.31729 0
M  V30 2330 N 224.671 0.411399 1.52136 0
M  V30 2331 C 225.618 -0.412975 2.27075 0
M  V30 2332 C 226.588 -1.03912 1.29582 0
M  V30 2333 O 227.773 -1.06296 1.58448 0
M  V30 2334 C 224.913 -1.52247 3.09701 0
M  V30 2335 C 224.026 -0.917021 4.22155 0
M  V30 2336 C 223.161 -1.9994 4.92135 0
M  V30 2337 C 222.2 -1.37101 5.96548 0
M  V30 2338 N 221.337 -2.39364 6.60038 0
M  V30 2339 H 226.177 0.232499 2.97092 0
M  V30 2340 H 223.714 0.126496 1.46555 0
M  V30 2341 H 225.672 -2.17674 3.55913 0
M  V30 2342 H 224.302 -2.13794 2.41851 0
M  V30 2343 H 223.354 -0.151742 3.80097 0
M  V30 2344 H 224.666 -0.418006 4.97045 0
M  V30 2345 H 223.82 -2.73088 5.41763 0
M  V30 2346 H 222.559 -2.53208 4.16818 0
M  V30 2347 H 221.564 -0.624873 5.46237 0
M  V30 2348 H 222.789 -0.845998 6.7381 0
M  V30 2349 H 220.735 -2.91759 5.87548 0
M  V30 2350 H 220.652 -1.9428 7.3061 0
M  V30 2351 H 221.92 -3.12074 7.14304 0
M  V30 2352 N 226.149 -1.5696 0.141893 0
M  V30 2353 C 227.398 -1.95135 -0.510427 0
M  V30 2354 C 227.711 -1.02896 -1.66348 0
M  V30 2355 O 228.917 -1.30629 -2.38009 0
M  V30 2356 C 227.373 -3.46876 -0.959427 0
M  V30 2357 C 226.981 -4.47691 0.166419 0
M  V30 2358 C 228.725 -3.93927 -1.58183 0
M  V30 2359 C 226.632 -5.90636 -0.300565 0
M  V30 2360 H 225.562 -0.728494 -0.194454 0
M  V30 2361 H 228.213 -1.8211 0.22542 0
M  V30 2362 H 226.595 -3.55215 -1.75038 0
M  V30 2363 H 227.769 -4.51043 0.94325 0
M  V30 2364 H 226.084 -4.10527 0.696905 0
M  V30 2365 H 228.681 -4.98158 -1.94275 0
M  V30 2366 H 229.024 -3.3519 -2.46888 0
M  V30 2367 H 229.557 -3.88484 -0.855863 0
M  V30 2368 H 226.296 -6.5318 0.550989 0
M  V30 2369 H 225.816 -5.90655 -1.04338 0
M  V30 2370 H 227.495 -6.42588 -0.754265 0
M  V30 2371 N 227.627 0.131896 -1.57047 0
M  V30 2372 C 228.557 1.16384 -2.02428 0
M  V30 2373 C 229.538 1.43936 -0.90644 0
M  V30 2374 O 230.723 1.54599 -1.17528 0
M  V30 2375 C 227.853 2.49328 -2.4177 0
M  V30 2376 C 226.807 2.36266 -3.56879 0
M  V30 2377 C 226.133 3.74057 -3.8208 0
M  V30 2378 C 227.433 1.834 -4.89042 0
M  V30 2379 H 229.127 0.786433 -2.88887 0
M  V30 2380 H 226.673 0.376855 -1.38981 0
M  V30 2381 H 228.626 3.21759 -2.7212 0
M  V30 2382 H 227.35 2.88934 -1.52266 0
M  V30 2383 H 226.009 1.66286 -3.26718 0
M  V30 2384 H 225.657 4.11125 -2.89803 0
M  V30 2385 H 225.357 3.66174 -4.59554 0
M  V30 2386 H 226.881 4.48012 -4.1487 0
M  V30 2387 H 228.295 2.45636 -5.18011 0
M  V30 2388 H 226.692 1.8637 -5.70426 0
M  V30 2389 H 227.762 0.790662 -4.7841 0
M  V30 2390 N 229.106 1.52395 0.401703 0
M  V30 2391 C 230.336 1.70429 1.1678 0
M  V30 2392 C 230.744 0.416702 1.84554 0
M  V30 2393 O 230.087 -0.617697 1.73003 0
M  V30 2394 C 230.149 2.78919 2.26814 0
M  V30 2395 C 229.813 4.20437 1.79113 0
M  V30 2396 C 230.81 5.04028 1.27482 0
M  V30 2397 C 228.495 4.66704 1.85722 0
M  V30 2398 C 230.489 6.31961 0.830913 0
M  V30 2399 C 228.176 5.94625 1.40942 0
M  V30 2400 C 229.174 6.77082 0.897128 0
M  V30 2401 O 228.862 8.02607 0.455822 0
M  V30 2402 H 228.594 0.574272 0.356634 0
M  V30 2403 H 231.148 1.99767 0.477724 0
M  V30 2404 H 229.378 2.44973 2.99207 0
M  V30 2405 H 231.067 2.8548 2.88541 0
M  V30 2406 H 231.833 4.69471 1.21744 0
M  V30 2407 H 227.712 4.0262 2.24539 0
M  V30 2408 H 231.256 6.96271 0.430368 0
M  V30 2409 H 227.153 6.28688 1.46362 0
M  V30 2410 H 227.921 8.16453 0.578457 0
M  V30 2411 N 230.584 -0.659388 1.43143 0
M  V30 2412 C 231.812 -1.44723 1.47861 0
M  V30 2413 C 232.227 -1.88563 0.0945886 0
M  V30 2414 O 231.584 -1.59108 -0.893915 0
M  V30 2415 C 231.635 -2.68627 2.41913 0
M  V30 2416 O 231.356 -2.26623 3.74932 0
M  V30 2417 C 232.857 -3.62045 2.55809 0
M  V30 2418 H 230.077 -0.444801 0.502387 0
M  V30 2419 H 232.621 -0.808916 1.87821 0
M  V30 2420 H 230.776 -3.28613 2.05164 0
M  V30 2421 H 231.19 -3.06745 4.2545 0
M  V30 2422 H 232.664 -4.45666 3.25708 0
M  V30 2423 H 233.141 -4.08981 1.60099 0
M  V30 2424 H 233.747 -3.07944 2.93344 0
M  V30 2425 N 232.062 -1.29571 -0.897171 0
M  V30 2426 C 233.287 -1.20705 -1.68656 0
M  V30 2427 C 233.712 0.228582 -1.86706 0
M  V30 2428 O 233.07 1.16494 -1.3892 0
M  V30 2429 C 233.118 -1.9282 -3.04717 0
M  V30 2430 O 232.222 -1.24697 -3.93096 0
M  V30 2431 H 231.563 -0.418126 -0.515816 0
M  V30 2432 H 234.093 -1.71183 -1.12061 0
M  V30 2433 H 234.103 -2.01372 -3.54843 0
M  V30 2434 H 232.778 -2.97239 -2.90899 0
M  V30 2435 H 231.355 -1.2442 -3.51531 0
M  V30 2436 N 233.54 1.10788 -1.12088 0
M  V30 2437 C 234.789 1.82036 -0.868659 0
M  V30 2438 C 235.102 1.85929 0.607426 0
M  V30 2439 O 236.308 2.53346 0.97613 0
M  V30 2440 C 234.764 3.26951 -1.50435 0
M  V30 2441 C 234.372 3.31367 -3.01496 0
M  V30 2442 C 236.116 4.03053 -1.33225 0
M  V30 2443 C 234.023 4.7072 -3.58017 0
M  V30 2444 H 232.953 0.682108 -0.321318 0
M  V30 2445 H 235.604 1.24618 -1.34694 0
M  V30 2446 H 233.986 3.84343 -0.953735 0
M  V30 2447 H 235.16 2.83819 -3.6302 0
M  V30 2448 H 233.475 2.6875 -3.18061 0
M  V30 2449 H 236.072 5.05981 -1.72878 0
M  V30 2450 H 236.415 4.15387 -0.275529 0
M  V30 2451 H 236.948 3.52066 -1.85188 0
M  V30 2452 H 233.687 4.63585 -4.63432 0
M  V30 2453 H 233.207 5.1865 -3.01268 0
M  V30 2454 H 234.886 5.39685 -3.56859 0
M  V30 2455 N 235.018 0.912232 1.28515 0
M  V30 2456 C 236.248 0.559604 1.98877 0
M  V30 2457 C 236.656 -0.863113 1.68366 0
M  V30 2458 O 235.999 -1.58304 0.931969 0
M  V30 2459 C 236.061 0.68703 3.52874 0
M  V30 2460 C 235.725 2.07901 4.06972 0
M  V30 2461 C 236.722 3.05157 4.20922 0
M  V30 2462 C 234.407 2.39178 4.417 0
M  V30 2463 C 236.401 4.31806 4.68852 0
M  V30 2464 C 234.088 3.66068 4.89324 0
M  V30 2465 C 235.086 4.62195 5.02856 0
M  V30 2466 O 234.774 5.86829 5.49442 0
M  V30 2467 H 234.506 0.212191 0.641834 0
M  V30 2468 H 237.06 1.22712 1.64715 0
M  V30 2469 H 235.29 -0.0375486 3.86682 0
M  V30 2470 H 236.979 0.341727 4.04459 0
M  V30 2471 H 237.745 2.82311 3.94367 0
M  V30 2472 H 233.624 1.65109 4.30418 0
M  V30 2473 H 237.168 5.06842 4.79329 0
M  V30 2474 H 233.065 3.88739 5.15318 0
M  V30 2475 H 233.833 5.89597 5.6773 0
M  V30 2476 N 236.496 -1.42363 0.676048 0
M  V30 2477 C 237.721 -2.06377 0.205705 0
M  V30 2478 C 238.146 -1.50463 -1.12883 0
M  V30 2479 O 237.504 -0.623619 -1.70237 0
M  V30 2480 C 237.552 -3.60277 0.152655 0
M  V30 2481 O 236.656 -4.02935 -0.87845 0
M  V30 2482 H 235.997 -0.655588 0.105359 0
M  V30 2483 H 238.527 -1.82475 0.925412 0
M  V30 2484 H 238.537 -4.07993 -0.0230675 0
M  V30 2485 H 237.212 -4.00346 1.12675 0
M  V30 2486 H 235.789 -3.66764 -0.673668 0
M  V30 2487 N 237.974 -0.419461 -1.51915 0
M  V30 2488 C 239.199 0.154572 -2.06823 0
M  V30 2489 C 239.624 1.3722 -1.28656 0
M  V30 2490 O 238.982 1.78461 -0.319583 0
M  V30 2491 C 239.03 0.473172 -3.57482 0
M  V30 2492 O 238.134 1.56255 -3.81652 0
M  V30 2493 H 237.475 0.0096924 -0.663929 0
M  V30 2494 H 240.005 -0.595642 -1.95738 0
M  V30 2495 H 240.015 0.728825 -4.01438 0
M  V30 2496 H 238.69 -0.416873 -4.13805 0
M  V30 2497 H 237.267 1.29825 -3.49571 0
M  V30 2498 N 239.452 1.56882 -0.150215 0
M  V30 2499 C 240.415 2.1573 0.774157 0
M  V30 2500 C 241.415 1.0999 1.17298 0
M  V30 2501 O 242.605 1.35613 1.09338 0
M  V30 2502 C 239.737 2.72302 2.05096 0
M  V30 2503 H 240.93 2.98752 0.262201 0
M  V30 2504 H 238.483 1.55985 0.099248 0
M  V30 2505 H 239.218 1.92956 2.6065 0
M  V30 2506 H 239.003 3.49665 1.77416 0
M  V30 2507 H 240.493 3.17632 2.71109 0
M  V30 2508 N 240.93 -0.123565 1.57115 0
M  V30 2509 C 242.207 -0.862196 1.75572 0
M  V30 2510 C 242.587 -1.98279 0.724475 0
M  V30 2511 O 241.935 -2.27102 -0.252407 0
M  V30 2512 C 242.145 -1.38309 3.20424 0
M  V30 2513 C 243.493 -1.83724 3.82793 0
M  V30 2514 O 244.517 -1.47999 3.23998 0
M  V30 2515 O 243.376 -2.49685 4.86127 0
M  V30 2516 H 240.47 -0.409113 0.718718 0
M  V30 2517 H 243.016 -0.107661 1.69358 0
M  V30 2518 H 241.788 -0.578889 3.86994 0
M  V30 2519 H 241.411 -2.20046 3.31158 0
M  V30 2520 N 242.408 -1.52605 -0.393616 0
M  V30 2521 C 243.341 -1.71798 -1.50202 0
M  V30 2522 C 244.319 -0.565743 -1.52441 0
M  V30 2523 O 245.503 -0.794987 -1.70916 0
M  V30 2524 C 242.63 -1.7714 -2.88685 0
M  V30 2525 C 241.676 -2.98845 -3.04292 0
M  V30 2526 S 242.509 -4.58909 -2.75976 0
M  V30 2527 C 243.665 -4.6706 -4.1666 0
M  V30 2528 H 243.898 -2.65542 -1.33696 0
M  V30 2529 H 241.431 -1.42839 -0.586195 0
M  V30 2530 H 243.389 -1.80903 -3.68489 0
M  V30 2531 H 242.05 -0.844969 -3.02521 0
M  V30 2532 H 241.243 -2.99111 -4.05646 0
M  V30 2533 H 240.845 -2.9305 -2.32374 0
M  V30 2534 H 243.137 -4.45391 -5.10523 0
M  V30 2535 H 244.08 -5.6905 -4.21412 0
M  V30 2536 H 244.488 -3.95944 -4.02354 0
M  V30 2537 N 243.887 0.651787 -1.4349 0
M  V30 2538 C 245.136 1.40754 -1.44469 0
M  V30 2539 C 245.449 1.95463 -0.0731845 0
M  V30 2540 O 246.655 2.71471 0.0395721 0
M  V30 2541 C 245.111 2.54735 -2.5424 0
M  V30 2542 C 244.719 2.06628 -3.97504 0
M  V30 2543 C 246.463 3.32092 -2.64414 0
M  V30 2544 C 244.37 3.17829 -4.98737 0
M  V30 2545 H 243.3 0.528862 -0.53742 0
M  V30 2546 H 245.951 0.703365 -1.69485 0
M  V30 2547 H 244.333 3.2763 -2.22428 0
M  V30 2548 H 245.507 1.40734 -4.38783 0
M  V30 2549 H 243.822 1.42146 -3.91387 0
M  V30 2550 H 246.419 4.14952 -3.37223 0
M  V30 2551 H 246.762 3.80217 -1.69532 0
M  V30 2552 H 247.295 2.66279 -2.95534 0
M  V30 2553 H 244.034 2.74671 -5.95177 0
M  V30 2554 H 243.554 3.82429 -4.62069 0
M  V30 2555 H 245.233 3.82937 -5.21505 0
M  V30 2556 N 245.365 1.30045 0.890287 0
M  V30 2557 C 246.611 1.18737 1.64406 0
M  V30 2558 C 246.944 -0.258525 1.92472 0
M  V30 2559 O 246.219 -1.18562 1.54186 0
M  V30 2560 C 246.502 2.01087 2.98724 0
M  V30 2561 C 246.355 3.53867 2.77665 0
M  V30 2562 C 247.674 1.84457 3.9958 0
M  V30 2563 H 244.793 0.432698 0.596608 0
M  V30 2564 H 247.435 1.5962 1.0306 0
M  V30 2565 H 245.585 1.66349 3.51084 0
M  V30 2566 H 247.257 3.98637 2.32133 0
M  V30 2567 H 245.5 3.78318 2.12269 0
M  V30 2568 H 246.171 4.06772 3.7315 0
M  V30 2569 H 248.647 2.14817 3.56361 0
M  V30 2570 H 247.523 2.44411 4.91482 0
M  V30 2571 H 247.784 0.802276 4.3476 0
M  V30 2572 N 246.843 -1.10192 1.12674 0
M  V30 2573 C 247.776 -2.15847 0.740625 0
M  V30 2574 C 248.754 -1.60352 -0.269421 0
M  V30 2575 O 249.938 -1.87796 -0.16278 0
M  V30 2576 C 247.065 -3.38562 0.096641 0
M  V30 2577 C 246.111 -4.12758 1.07391 0
M  V30 2578 S 246.944 -4.67997 2.60267 0
M  V30 2579 C 248.1 -5.94021 1.97206 0
M  V30 2580 H 248.333 -2.48266 1.63558 0
M  V30 2581 H 245.866 -1.22019 0.946087 0
M  V30 2582 H 247.824 -4.09621 -0.268535 0
M  V30 2583 H 246.485 -3.04377 -0.775462 0
M  V30 2584 H 245.678 -5.00755 0.570997 0
M  V30 2585 H 245.28 -3.47523 1.38216 0
M  V30 2586 H 247.572 -6.64589 1.31634 0
M  V30 2587 H 248.515 -6.48979 2.83253 0
M  V30 2588 H 248.923 -5.46169 1.42686 0
M  V30 2589 N 248.321 -0.919034 -1.28029 0
M  V30 2590 C 249.269 -0.401753 -2.29104 0
M  V30 2591 C 250.263 0.509354 -1.61561 0
M  V30 2592 O 251.469 0.390014 -1.75724 0
M  V30 2593 H 247.844 -0.111331 -0.743713 0
M  V30 2594 H 249.815 -1.2672 -2.70156 0
M  V30 2595 C 248.564 0.338148 -3.46052 0
M  V30 2596 H 247.887 -0.353732 -3.98232 0
M  V30 2597 H 249.327 0.664653 -4.18758 0
M  V30 2598 C 247.786 1.54798 -2.99231 0
M  V30 2599 O 248.316 2.64696 -3.02157 0
M  V30 2600 N 246.522 1.3968 -2.54829 0
M  V30 2601 H 246.069 0.502698 -2.52647 0
M  V30 2602 H 246.027 2.20755 -2.23863 0
M  V30 2603 N 249.799 1.42003 -0.683588 0
M  V30 2604 C 251.029 2.05448 -0.217866 0
M  V30 2605 C 251.437 1.51491 1.13346 0
M  V30 2606 O 250.78 0.653048 1.717 0
M  V30 2607 C 250.842 3.59399 -0.0850118 0
M  V30 2608 C 250.506 4.36093 -1.36645 0
M  V30 2609 C 251.503 4.66169 -2.30179 0
M  V30 2610 C 249.188 4.75578 -1.61649 0
M  V30 2611 C 251.182 5.34676 -3.46988 0
M  V30 2612 C 248.869 5.43824 -2.78745 0
M  V30 2613 C 249.867 5.73299 -3.71238 0
M  V30 2614 O 249.555 6.40142 -4.86285 0
M  V30 2615 H 249.287 0.668344 -0.101454 0
M  V30 2616 H 251.841 1.82974 -0.933248 0
M  V30 2617 H 250.071 3.80566 0.686031 0
M  V30 2618 H 251.76 4.04457 0.341973 0
M  V30 2619 H 252.526 4.36156 -2.12115 0
M  V30 2620 H 248.405 4.52025 -0.905243 0
M  V30 2621 H 251.949 5.57599 -4.19201 0
M  V30 2622 H 247.846 5.73254 -2.96732 0
M  V30 2623 H 248.614 6.58636 -4.85944 0
M  V30 2624 N 251.277 0.427512 1.51691 0
M  V30 2625 C 252.207 -0.3796 2.30394 0
M  V30 2626 C 253.188 -1.02982 1.35384 0
M  V30 2627 O 254.373 -1.03534 1.643 0
M  V30 2628 C 251.503 -1.48649 3.1388 0
M  V30 2629 C 250.457 -0.960294 4.17088 0
M  V30 2630 C 249.783 -2.16219 4.89033 0
M  V30 2631 C 251.083 -0.00153679 5.223 0
M  V30 2632 H 252.777 0.277164 2.98114 0
M  V30 2633 H 250.323 0.134739 1.43368 0
M  V30 2634 H 252.276 -2.05826 3.67714 0
M  V30 2635 H 251 -2.1714 2.43962 0
M  V30 2636 H 249.659 -0.410806 3.64291 0
M  V30 2637 H 249.307 -2.83307 4.15628 0
M  V30 2638 H 249.007 -1.81654 5.58816 0
M  V30 2639 H 250.531 -2.73968 5.45687 0
M  V30 2640 H 251.945 -0.482687 5.71264 0
M  V30 2641 H 250.342 0.256199 5.99553 0
M  V30 2642 H 251.412 0.938174 4.75738 0
M  V30 2643 N 252.755 -1.56801 0.158532 0
M  V30 2644 C 253.98 -2.01295 -0.499516 0
M  V30 2645 C 254.405 -1.03799 -1.56867 0
M  V30 2646 O 253.763 -0.0155162 -1.81293 0
M  V30 2647 C 253.811 -3.44469 -1.06647 0
M  V30 2648 O 252.915 -3.50012 -2.18095 0
M  V30 2649 H 252.256 -0.652884 -0.12099 0
M  V30 2650 H 254.786 -2.02958 0.258661 0
M  V30 2651 H 254.796 -3.8351 -1.39227 0
M  V30 2652 H 253.471 -4.14932 -0.283581 0
M  V30 2653 H 252.048 -3.22822 -1.86656 0
M  V30 2654 N 254.233 0.115231 -1.57178 0
M  V30 2655 C 255.649 0.468877 -1.52557 0
M  V30 2656 C 255.849 1.81649 -0.872125 0
M  V30 2657 O 254.905 2.48347 -0.45606 0
M  V30 2658 C 256.218 0.4499 -2.97315 0
M  V30 2659 C 257.766 0.533185 -3.08425 0
M  V30 2660 C 258.241 0.54456 -4.54751 0
M  V30 2661 N 259.732 0.605892 -4.5922 0
M  V30 2662 C 260.467 0.636203 -5.6986 0
M  V30 2663 N 259.963 0.623931 -6.89985 0
M  V30 2664 N 261.756 0.679496 -5.57978 0
M  V30 2665 H 253.907 -0.767712 -1.9804 0
M  V30 2666 H 256.17 -0.283609 -0.904583 0
M  V30 2667 H 255.876 -0.472721 -3.48509 0
M  V30 2668 H 255.75 1.27632 -3.5495 0
M  V30 2669 H 258.137 1.44623 -2.57232 0
M  V30 2670 H 258.218 -0.320995 -2.53778 0
M  V30 2671 H 257.862 -0.364452 -5.06591 0
M  V30 2672 H 257.792 1.41568 -5.07214 0
M  V30 2673 H 260.283 0.621386 -3.72756 0
M  V30 2674 H 260.596 0.649787 -7.70063 0
M  V30 2675 H 258.941 0.591296 -6.9248 0
M  V30 2676 H 262.132 0.686472 -4.63039 0
M  V30 2677 H 262.305 0.69965 -6.44212 0
M  V30 2678 N 255.711 1.52812 0.385517 0
M  V30 2679 C 256.641 1.80808 1.47752 0
M  V30 2680 C 257.622 0.660318 1.5676 0
M  V30 2681 O 258.807 0.908246 1.71652 0
M  V30 2682 C 255.937 1.98008 2.85324 0
M  V30 2683 C 254.891 3.13709 2.91154 0
M  V30 2684 C 254.217 3.16169 4.31209 0
M  V30 2685 C 255.517 4.52709 2.60483 0
M  V30 2686 H 257.211 2.72253 1.24573 0
M  V30 2687 H 254.757 1.31003 0.597839 0
M  V30 2688 H 256.71 2.16176 3.61726 0
M  V30 2689 H 255.434 1.03255 3.09848 0
M  V30 2690 H 254.093 2.95329 2.17201 0
M  V30 2691 H 253.741 2.19092 4.52778 0
M  V30 2692 H 253.441 3.93894 4.36029 0
M  V30 2693 H 254.965 3.36496 5.09512 0
M  V30 2694 H 256.379 4.71173 3.26602 0
M  V30 2695 H 254.776 5.32528 2.76648 0
M  V30 2696 H 255.846 4.59186 1.55809 0
M  V30 2697 N 257.189 -0.644168 1.43834 0
M  V30 2698 C 258.466 -1.40188 1.36406 0
M  V30 2699 C 258.846 -2.11094 0.0163124 0
M  V30 2700 O 258.194 -2.05426 -1.00062 0
M  V30 2701 C 258.404 -2.3791 2.55343 0
M  V30 2702 C 259.752 -3.01637 2.98832 0
M  V30 2703 O 260.776 -2.48237 2.55455 0
M  V30 2704 O 259.635 -3.98477 3.74003 0
M  V30 2705 H 256.729 -0.626773 0.539523 0
M  V30 2706 H 259.275 -0.670317 1.559 0
M  V30 2707 H 258.047 -1.84525 3.4506 0
M  V30 2708 H 257.67 -3.18503 2.37995 0
M  V30 2709 N 258.668 -1.30515 -0.883378 0
M  V30 2710 C 259.916 -1.19194 -1.63209 0
M  V30 2711 C 260.237 0.253205 -1.93349 0
M  V30 2712 O 259.507 1.17025 -1.57105 0
M  V30 2713 H 258.087 -0.438148 -0.605009 0
M  V30 2714 H 260.749 -1.63663 -1.05832 0
M  V30 2715 H 259.845 -1.75396 -2.58153 0
M  V30 2716 N 260.146 1.09593 -1.13257 0
M  V30 2717 C 261.109 2.14359 -0.811358 0
M  V30 2718 C 262.109 1.59808 0.178377 0
M  V30 2719 O 263.299 1.74132 -0.0484911 0
M  V30 2720 C 260.431 3.40269 -0.207276 0
M  V30 2721 H 261.624 2.44284 -1.73969 0
M  V30 2722 H 259.177 1.25102 -0.936973 0
M  V30 2723 H 259.912 3.15969 0.73036 0
M  V30 2724 H 259.697 3.81154 -0.919992 0
M  V30 2725 H 261.187 4.176 0.000667944 0
M  V30 2726 N 261.624 0.925811 1.2754 0
M  V30 2727 C 263.04 0.625767 1.46821 0
M  V30 2728 C 263.24 -0.825506 1.83814 0
M  V30 2729 O 262.296 -1.60356 1.95044 0
M  V30 2730 C 263.609 1.57402 2.56213 0
M  V30 2731 C 265.157 1.58204 2.70075 0
M  V30 2732 C 265.632 2.51721 3.82623 0
M  V30 2733 N 267.123 2.49917 3.89994 0
M  V30 2734 C 267.858 3.18968 4.76494 0
M  V30 2735 N 267.354 3.97391 5.67496 0
M  V30 2736 N 269.147 3.07996 4.70208 0
M  V30 2737 H 261.298 1.86409 1.01811 0
M  V30 2738 H 263.561 0.800213 0.508295 0
M  V30 2739 H 263.267 2.60925 2.35819 0
M  V30 2740 H 263.141 1.31428 3.53563 0
M  V30 2741 H 265.528 0.554124 2.89851 0
M  V30 2742 H 265.609 1.88226 1.73218 0
M  V30 2743 H 265.253 3.54622 3.63601 0
M  V30 2744 H 265.183 2.18996 4.78903 0
M  V30 2745 H 267.674 1.9296 3.24923 0
M  V30 2746 H 267.987 4.4707 6.30356 0
M  V30 2747 H 266.332 4.01495 5.67298 0
M  V30 2748 H 269.523 2.46223 3.9811 0
M  V30 2749 H 269.696 3.6208 5.37403 0
M  V30 2750 N 263.102 -1.41638 0.69111 0
M  V30 2751 C 264.05 -2.32597 0.0115199 0
M  V30 2752 C 265.044 -1.5072 -0.773296 0
M  V30 2753 O 266.25 -1.66685 -0.67942 0
M  V30 2754 H 262.625 -0.751849 -0.0150746 0
M  V30 2755 H 264.596 -2.87593 0.795791 0
M  V30 2756 C 263.345 -3.35467 -0.914172 0
M  V30 2757 H 262.668 -3.9852 -0.319687 0
M  V30 2758 H 264.108 -4.01662 -1.35808 0
M  V30 2759 C 262.567 -2.69004 -2.02826 0
M  V30 2760 O 263.097 -2.53444 -3.11655 0
M  V30 2761 N 261.303 -2.2777 -1.80469 0
M  V30 2762 H 260.85 -2.40626 -0.919615 0
M  V30 2763 H 260.808 -1.83635 -2.55197 0
M  V30 2764 N 264.58 -0.43555 -1.51462 0
M  V30 2765 C 265.826 0.131709 -2.02372 0
M  V30 2766 C 266.159 1.42516 -1.3192 0
M  V30 2767 O 265.434 1.89606 -0.433573 0
M  V30 2768 C 265.717 0.352301 -3.58373 0
M  V30 2769 C 265.57 -0.959676 -4.39443 0
M  V30 2770 C 266.889 1.12286 -4.25535 0
M  V30 2771 H 264.008 0.0463936 -0.735538 0
M  V30 2772 H 266.65 -0.574197 -1.81116 0
M  V30 2773 H 264.8 0.9536 -3.76615 0
M  V30 2774 H 266.472 -1.59482 -4.32855 0
M  V30 2775 H 264.715 -1.56468 -4.04599 0
M  V30 2776 H 265.386 -0.759394 -5.46752 0
M  V30 2777 H 267.862 0.613545 -4.11552 0
M  V30 2778 H 266.738 1.24598 -5.34571 0
M  V30 2779 H 266.999 2.15048 -3.86273 0
M  V30 2780 N 266.058 1.56714 -0.166846 0
M  V30 2781 C 266.99 2.14914 0.796537 0
M  V30 2782 C 268.003 1.10357 1.19688 0
M  V30 2783 O 269.192 1.37561 1.13751 0
M  V30 2784 C 266.292 2.67326 2.08303 0
M  V30 2785 C 265.465 3.96493 1.84696 0
M  V30 2786 C 264.524 4.34014 2.97521 0
M  V30 2787 O 263.55 5.01973 2.6835 0
M  V30 2788 N 264.752 3.95208 4.25196 0
M  V30 2789 H 267.517 2.98205 0.299006 0
M  V30 2790 H 265.078 1.61892 0.0160839 0
M  V30 2791 H 267.07 2.89428 2.82867 0
M  V30 2792 H 265.64 1.88649 2.4926 0
M  V30 2793 H 264.86 3.82814 0.940602 0
M  V30 2794 H 266.148 4.8086 1.66285 0
M  V30 2795 H 265.546 3.40487 4.51758 0
M  V30 2796 H 264.103 4.2232 4.96477 0
M  V30 2797 N 267.536 -0.106894 1.57237 0
M  V30 2798 C 268.785 -0.811163 1.8467 0
M  V30 2799 C 269.098 -1.80469 0.754342 0
M  V30 2800 O 270.304 -2.55601 0.915439 0
M  V30 2801 C 268.76 -1.49337 3.27454 0
M  V30 2802 C 268.368 -0.540217 4.44731 0
M  V30 2803 C 270.112 -2.18206 3.64124 0
M  V30 2804 C 268.019 -1.22634 5.78545 0
M  V30 2805 H 266.949 -0.306679 0.688813 0
M  V30 2806 H 269.6 -0.0639887 1.83388 0
M  V30 2807 H 267.982 -2.2876 3.23241 0
M  V30 2808 H 269.156 0.221659 4.60267 0
M  V30 2809 H 267.471 0.042146 4.16379 0
M  V30 2810 H 270.068 -2.70253 4.61376 0
M  V30 2811 H 270.411 -2.96562 2.92158 0
M  V30 2812 H 270.944 -1.45658 3.70174 0
M  V30 2813 H 267.683 -0.483832 6.53712 0
M  V30 2814 H 267.203 -1.95993 5.66874 0
M  V30 2815 H 268.882 -1.75615 6.2271 0
M  V30 2816 N 269.014 -1.53014 -0.377408 0
M  V30 2817 C 269.964 -1.74996 -1.46152 0
M  V30 2818 C 270.948 -0.604236 -1.49123 0
M  V30 2819 O 272.14 -0.862489 -1.54564 0
M  V30 2820 C 269.269 -1.93267 -2.8373 0
M  V30 2821 C 268.355 -3.13807 -2.85283 0
M  V30 2822 N 268.746 -4.35941 -2.56493 0
M  V30 2823 C 267.044 -3.14288 -3.16448 0
M  V30 2824 C 267.745 -5.17615 -2.65424 0
M  V30 2825 N 266.721 -4.53559 -2.99641 0
M  V30 2826 H 270.523 -2.67044 -1.22738 0
M  V30 2827 H 268.037 -1.51479 -0.585479 0
M  V30 2828 H 270.034 -2.0714 -3.61799 0
M  V30 2829 H 268.694 -1.0244 -3.08117 0
M  V30 2830 H 269.705 -4.63876 -2.30302 0
M  V30 2831 H 266.382 -2.33312 -3.46225 0
M  V30 2832 H 267.772 -6.25006 -2.46612 0
M  V30 2833 N 270.492 0.636531 -1.44174 0
M  V30 2834 C 271.74 1.39343 -1.46383 0
M  V30 2835 C 272.061 1.94766 -0.0955715 0
M  V30 2836 O 271.331 1.75452 0.871395 0
M  V30 2837 H 269.911 0.517199 -0.538994 0
M  V30 2838 H 272.573 0.74957 -1.7991 0
M  V30 2839 H 271.669 2.22746 -2.18611 0
M  V30 2840 N 271.97 1.30982 0.876444 0
M  V30 2841 C 273.216 1.20474 1.63138 0
M  V30 2842 C 273.549 -0.238096 1.92735 0
M  V30 2843 O 272.824 -1.1692 1.55435 0
M  V30 2844 C 273.107 2.04244 2.96574 0
M  V30 2845 C 272.96 3.56793 2.73896 0
M  V30 2846 C 274.279 1.88684 3.97601 0
M  V30 2847 H 271.398 0.439001 0.591985 0
M  V30 2848 H 274.04 1.60704 1.01361 0
M  V30 2849 H 272.19 1.70063 3.493 0
M  V30 2850 H 273.862 4.01077 2.27892 0
M  V30 2851 H 272.105 3.80548 2.08245 0
M  V30 2852 H 272.776 4.10706 3.68815 0
M  V30 2853 H 275.252 2.18584 3.54062 0
M  V30 2854 H 274.128 2.4961 4.88862 0
M  V30 2855 H 274.389 0.848343 4.33884 0
M  V30 2856 N 273.449 -1.08991 1.13837 0
M  V30 2857 C 274.697 -1.80899 0.901098 0
M  V30 2858 C 275.018 -1.86356 -0.574134 0
M  V30 2859 O 274.288 -1.35235 -1.41733 0
M  V30 2860 H 272.868 -0.669966 0.330386 0
M  V30 2861 H 275.53 -1.318 1.43578 0
M  V30 2862 H 274.626 -2.83929 1.29578 0
M  V30 2863 N 274.927 -0.932562 -1.27047 0
M  V30 2864 C 275.877 -0.406392 -2.24349 0
M  V30 2865 C 276.861 0.492066 -1.53191 0
M  V30 2866 O 278.053 0.328717 -1.73921 0
M  V30 2867 C 275.182 0.335214 -3.41659 0
M  V30 2868 C 274.268 -0.58004 -4.20115 0
M  V30 2869 N 274.659 -1.70203 -4.76303 0
M  V30 2870 C 272.957 -0.383974 -4.44344 0
M  V30 2871 C 273.658 -2.27167 -5.35509 0
M  V30 2872 N 272.634 -1.56068 -5.20715 0
M  V30 2873 H 276.436 -1.26299 -2.65378 0
M  V30 2874 H 273.95 -0.787408 -1.42034 0
M  V30 2875 H 275.947 0.729142 -4.10474 0
M  V30 2876 H 274.607 1.18868 -3.0216 0
M  V30 2877 H 275.618 -2.08433 -4.74106 0
M  V30 2878 H 272.295 0.428436 -4.15296 0
M  V30 2879 H 273.685 -3.21654 -5.89905 0
M  V30 2880 N 276.405 1.4127 -0.698611 0
M  V30 2881 C 277.654 2.00408 -0.227949 0
M  V30 2882 C 277.967 1.55981 1.18023 0
M  V30 2883 O 279.173 2.07699 1.74852 0
M  V30 2884 C 277.629 3.58129 -0.356636 0
M  V30 2885 C 277.237 4.11536 -1.77037 0
M  V30 2886 C 278.981 4.24466 0.0540969 0
M  V30 2887 C 276.888 5.61701 -1.85055 0
M  V30 2888 H 275.818 0.749586 -0.0814657 0
M  V30 2889 H 278.469 1.61713 -0.867249 0
M  V30 2890 H 276.851 3.94442 0.350965 0
M  V30 2891 H 278.025 3.86636 -2.50698 0
M  V30 2892 H 276.34 3.57736 -2.13105 0
M  V30 2893 H 278.937 5.34698 0.0146723 0
M  V30 2894 H 279.28 4.01687 1.09332 0
M  V30 2895 H 279.813 3.93198 -0.603337 0
M  V30 2896 H 276.552 5.89312 -2.8704 0
M  V30 2897 H 276.072 5.88519 -1.15783 0
M  V30 2898 H 277.751 6.26524 -1.61484 0
M  V30 2899 N 277.883 0.443576 1.51229 0
M  V30 2900 C 279.131 -0.120557 2.0174 0
M  V30 2901 C 279.452 -1.42665 1.32935 0
M  V30 2902 O 278.722 -1.9028 0.465866 0
M  V30 2903 H 277.302 -0.0475426 0.745486 0
M  V30 2904 H 279.964 0.587711 1.85828 0
M  V30 2905 H 279.06 -0.291972 3.10731 0
M  V30 2906 N 279.361 -1.56624 0.175154 0
M  V30 2907 C 280.291 -2.21155 -0.749195 0
M  V30 2908 C 281.272 -1.16836 -1.23626 0
M  V30 2909 O 282.457 -1.45277 -1.28873 0
M  V30 2910 C 279.587 -2.8553 -1.97711 0
M  V30 2911 C 278.541 -3.95921 -1.62575 0
M  V30 2912 C 277.867 -4.47365 -2.92864 0
M  V30 2913 C 279.167 -5.15323 -0.850838 0
M  V30 2914 H 280.861 -2.98653 -0.211295 0
M  V30 2915 H 278.407 -1.43651 -0.100188 0
M  V30 2916 H 280.36 -3.2935 -2.62881 0
M  V30 2917 H 279.084 -2.05406 -2.53921 0
M  V30 2918 H 277.743 -3.52762 -0.997719 0
M  V30 2919 H 277.391 -3.64027 -3.47122 0
M  V30 2920 H 277.091 -5.21839 -2.70106 0
M  V30 2921 H 278.615 -4.93873 -3.59056 0
M  V30 2922 H 280.029 -5.55812 -1.40521 0
M  V30 2923 H 278.426 -5.95739 -0.722154 0
M  V30 2924 H 279.496 -4.84661 0.152082 0
M  V30 2925 N 280.839 0.0985539 -1.57292 0
M  V30 2926 C 281.769 1.12064 -2.04851 0
M  V30 2927 C 282.75 1.41981 -0.936767 0
M  V30 2928 O 283.935 1.52071 -1.20781 0
M  V30 2929 C 281.065 2.44144 -2.47004 0
M  V30 2930 C 280.019 2.28643 -3.6181 0
M  V30 2931 C 279.345 3.65869 -3.89929 0
M  V30 2932 C 280.645 1.72986 -4.92822 0
M  V30 2933 H 282.339 0.724979 -2.9049 0
M  V30 2934 H 279.885 0.34729 -1.39749 0
M  V30 2935 H 281.838 3.15914 -2.78884 0
M  V30 2936 H 280.562 2.85639 -1.5836 0
M  V30 2937 H 279.221 1.59318 -3.30172 0
M  V30 2938 H 278.869 4.04885 -2.98458 0
M  V30 2939 H 278.569 3.56344 -4.67218 0
M  V30 2940 H 280.093 4.39112 -4.2428 0
M  V30 2941 H 281.507 2.34593 -5.23105 0
M  V30 2942 H 279.904 1.74229 -5.74251 0
M  V30 2943 H 280.974 0.689007 -4.7998 0
M  V30 2944 N 282.317 1.53212 0.369288 0
M  V30 2945 C 283.547 1.72868 1.13139 0
M  V30 2946 C 283.955 0.455754 1.83629 0
M  V30 2947 O 283.298 -0.580861 1.74275 0
M  V30 2948 C 283.36 2.83667 2.20847 0
M  V30 2949 C 283.024 4.24142 1.70155 0
M  V30 2950 C 284.021 5.06619 1.16763 0
M  V30 2951 C 281.706 4.70539 1.7578 0
M  V30 2952 C 283.7 6.33581 0.696678 0
M  V30 2953 C 281.387 5.97481 1.28297 0
M  V30 2954 C 282.385 6.78833 0.753307 0
M  V30 2955 O 282.073 8.03393 0.285475 0
M  V30 2956 H 281.805 0.581707 0.344373 0
M  V30 2957 H 284.359 2.00736 0.435243 0
M  V30 2958 H 282.589 2.51265 2.93944 0
M  V30 2959 H 284.278 2.91536 2.82421 0
M  V30 2960 H 285.044 4.71948 1.11758 0
M  V30 2961 H 280.923 4.07293 2.15949 0
M  V30 2962 H 284.467 6.97027 0.282581 0
M  V30 2963 H 280.364 6.31651 1.32994 0
M  V30 2964 H 281.132 8.17497 0.405145 0
M  V30 2965 N 283.795 -0.628877 1.44509 0
M  V30 2966 C 285.02 -1.42048 1.5112 0
M  V30 2967 C 285.445 -1.87594 0.137818 0
M  V30 2968 O 284.803 -1.58873 -0.873437 0
M  V30 2969 C 284.851 -2.61541 2.48251 0
M  V30 2970 O 283.955 -3.61453 1.98559 0
M  V30 2971 H 283.296 -0.424942 0.510216 0
M  V30 2972 H 285.826 -0.767374 1.89664 0
M  V30 2973 H 285.836 -3.09057 2.66361 0
M  V30 2974 H 284.511 -2.27736 3.48007 0
M  V30 2975 H 283.088 -3.20731 1.90227 0
M  V30 2976 N 285.273 -1.31445 -0.869486 0
M  V30 2977 C 286.498 -1.24256 -1.66058 0
M  V30 2978 C 286.923 0.188928 -1.87149 0
M  V30 2979 O 286.281 1.13522 -1.4136 0
M  V30 2980 C 286.329 -1.9924 -3.00559 0
M  V30 2981 O 285.433 -1.33007 -3.90362 0
M  V30 2982 H 284.774 -0.428973 -0.506831 0
M  V30 2983 H 287.304 -1.73521 -1.08404 0
M  V30 2984 H 287.314 -2.08854 -3.50491 0
M  V30 2985 H 285.989 -3.03342 -2.84528 0
M  V30 2986 H 284.566 -1.31848 -3.48813 0
M  V30 2987 N 286.751 1.08385 -1.14413 0
M  V30 2988 C 287.683 2.1519 -0.789036 0
M  V30 2989 C 288.696 1.61638 0.19417 0
M  V30 2990 O 289.885 1.78479 -0.0275711 0
M  V30 2991 C 286.985 3.38565 -0.15058 0
M  V30 2992 C 286.158 4.21501 -1.16857 0
M  V30 2993 C 285.217 5.23277 -0.553832 0
M  V30 2994 O 284.243 5.56041 -1.21686 0
M  V30 2995 N 285.445 5.76629 0.669296 0
M  V30 2996 H 288.21 2.46257 -1.70814 0
M  V30 2997 H 285.771 1.24198 -1.03858 0
M  V30 2998 H 287.763 4.03777 0.273181 0
M  V30 2999 H 286.333 3.05299 0.671667 0
M  V30 3000 H 285.553 3.52265 -1.76926 0
M  V30 3001 H 286.841 4.73731 -1.85624 0
M  V30 3002 H 286.239 5.52243 1.22654 0
M  V30 3003 H 284.796 6.43521 1.03556 0
M  V30 3004 N 288.23 0.939286 1.26551 0
M  V30 3005 C 289.476 0.586715 1.94128 0
M  V30 3006 C 289.809 -0.8717 1.73537 0
M  V30 3007 O 289.084 -1.62339 1.07127 0
M  V30 3008 C 289.367 0.927497 3.4795 0
M  V30 3009 C 289.22 2.44052 3.77834 0
M  V30 3010 C 290.539 0.441569 4.37879 0
M  V30 3011 H 287.658 0.21463 0.705055 0
M  V30 3012 H 290.3 1.17316 1.49455 0
M  V30 3013 H 288.45 0.428431 3.8613 0
M  V30 3014 H 290.122 3.01216 3.4938 0
M  V30 3015 H 288.365 2.8848 3.23978 0
M  V30 3016 H 289.036 2.62947 4.85348 0
M  V30 3017 H 291.512 0.869448 4.06915 0
M  V30 3018 H 290.388 0.708856 5.44304 0
M  V30 3019 H 290.649 -0.658467 4.37169 0
M  V30 3020 N 289.708 -1.40897 0.706093 0
M  V30 3021 C 290.656 -2.32572 0.0361893 0
M  V30 3022 C 291.65 -1.51532 -0.757266 0
M  V30 3023 O 292.856 -1.67396 -0.661703 0
M  V30 3024 H 289.231 -0.751966 -0.00709935 0
M  V30 3025 H 291.202 -2.86733 0.826249 0
M  V30 3026 C 289.951 -3.36418 -0.87854 0
M  V30 3027 H 289.274 -3.98836 -0.277401 0
M  V30 3028 H 290.714 -4.0308 -1.3154 0
M  V30 3029 C 289.173 -2.71141 -1.99961 0
M  V30 3030 O 289.703 -2.56735 -3.0895 0
M  V30 3031 N 287.909 -2.29671 -1.78043 0
M  V30 3032 H 287.456 -2.41588 -0.894042 0
M  V30 3033 H 287.414 -1.86332 -2.53235 0
M  V30 3034 N 291.186 -0.45159 -1.50991 0
M  V30 3035 C 292.411 0.110667 -2.07105 0
M  V30 3036 C 292.836 1.3446 -1.31538 0
M  V30 3037 O 292.194 1.77743 -0.357365 0
M  V30 3038 C 292.242 0.397238 -3.58405 0
M  V30 3039 O 291.346 1.48124 -3.84881 0
M  V30 3040 H 290.687 -0.00439271 -0.663985 0
M  V30 3041 H 293.217 -0.637026 -1.9443 0
M  V30 3042 H 293.227 0.64351 -4.02893 0
M  V30 3043 H 291.902 -0.504553 -4.12828 0
M  V30 3044 H 290.479 1.22381 -3.52246 0
M  V30 3045 N 292.664 1.56529 -0.183458 0
M  V30 3046 C 293.594 2.21549 0.737456 0
M  V30 3047 C 294.575 1.17489 1.23005 0
M  V30 3048 O 295.76 1.45959 1.281 0
M  V30 3049 C 292.89 2.86575 1.96194 0
M  V30 3050 C 291.844 3.96778 1.60473 0
M  V30 3051 C 291.17 4.48911 2.90487 0
M  V30 3052 C 292.47 5.15767 0.823497 0
M  V30 3053 H 294.164 2.98761 0.195453 0
M  V30 3054 H 291.71 1.43702 0.0925686 0
M  V30 3055 H 293.663 3.30739 2.61131 0
M  V30 3056 H 292.387 2.06749 2.52828 0
M  V30 3057 H 291.046 3.53286 0.978997 0
M  V30 3058 H 290.694 3.65862 3.45186 0
M  V30 3059 H 290.394 5.23265 2.67335 0
M  V30 3060 H 291.918 4.95771 3.56432 0
M  V30 3061 H 293.332 5.56549 1.37571 0
M  V30 3062 H 291.729 5.96114 0.690551 0
M  V30 3063 H 292.799 4.84574 -0.177782 0
M  V30 3064 N 294.142 -0.090211 1.57342 0
M  V30 3065 C 295.391 -0.791531 1.8552 0
M  V30 3066 C 295.704 -1.79659 0.773441 0
M  V30 3067 O 296.91 -2.54616 0.942497 0
M  V30 3068 C 295.366 -1.45856 3.2902 0
M  V30 3069 C 294.974 -0.493017 4.45279 0
M  V30 3070 C 296.718 -2.14332 3.66418 0
M  V30 3071 C 294.625 -1.16491 5.79814 0
M  V30 3072 H 293.555 -0.299356 0.692027 0
M  V30 3073 H 296.206 -0.0445343 1.83446 0
M  V30 3074 H 294.588 -2.25318 3.2565 0
M  V30 3075 H 295.762 0.270464 4.60006 0
M  V30 3076 H 294.077 0.0863061 4.16311 0
M  V30 3077 H 296.674 -2.65344 4.64216 0
M  V30 3078 H 297.017 -2.93447 2.95287 0
M  V30 3079 H 297.55 -1.41724 3.71698 0
M  V30 3080 H 294.289 -0.41447 6.54188 0
M  V30 3081 H 293.809 -1.8997 5.68921 0
M  V30 3082 H 295.488 -1.69001 6.24538 0
M  V30 3083 N 295.62 -1.53406 -0.361157 0
M  V30 3084 C 296.567 -1.80156 -1.44265 0
M  V30 3085 C 297.537 -0.646183 -1.53015 0
M  V30 3086 O 298.722 -0.888818 -1.68833 0
M  V30 3087 C 295.862 -2.00116 -2.81154 0
M  V30 3088 C 294.975 -3.27833 -2.81335 0
M  V30 3089 C 294.11 -3.37957 -4.09828 0
M  V30 3090 C 293.149 -4.59689 -4.04168 0
M  V30 3091 N 292.286 -4.66942 -5.24318 0
M  V30 3092 H 297.126 -2.72438 -1.20754 0
M  V30 3093 H 294.663 -1.34954 -0.585296 0
M  V30 3094 H 296.621 -2.09677 -3.60682 0
M  V30 3095 H 295.251 -1.11167 -3.03054 0
M  V30 3096 H 294.303 -3.27204 -1.94014 0
M  V30 3097 H 295.615 -4.17442 -2.73027 0
M  V30 3098 H 294.769 -3.46853 -4.97773 0
M  V30 3099 H 293.508 -2.46372 -4.20894 0
M  V30 3100 H 292.513 -4.50889 -3.14609 0
M  V30 3101 H 293.738 -5.5262 -3.947 0
M  V30 3102 H 291.684 -3.7826 -5.35962 0
M  V30 3103 H 291.601 -5.50462 -5.18197 0
M  V30 3104 H 292.869 -4.80127 -6.14084 0
M  V30 3105 N 297.098 0.621204 -1.44841 0
M  V30 3106 C 298.008 1.7612 -1.5498 0
M  V30 3107 C 299.024 1.68477 -0.434927 0
M  V30 3108 O 300.2 1.89076 -0.693693 0
M  V30 3109 C 297.265 3.1254 -1.50065 0
M  V30 3110 C 296.326 3.31741 -2.72482 0
M  V30 3111 C 295.559 4.61653 -2.67792 0
M  V30 3112 O 295.782 5.431 -1.74352 0
M  V30 3113 O 294.716 4.83271 -3.58794 0
M  V30 3114 H 298.542 1.70518 -2.51311 0
M  V30 3115 H 296.127 0.783643 -1.27198 0
M  V30 3116 H 298.009 3.93844 -1.49882 0
M  V30 3117 H 296.684 3.18663 -0.568806 0
M  V30 3118 H 295.591 2.50077 -2.7823 0
M  V30 3119 H 296.924 3.30486 -3.64746 0
M  V30 3120 N 298.576 1.31904 0.862503 0
M  V30 3121 C 299.824 1.21776 1.61292 0
M  V30 3122 C 300.145 -0.222413 1.93727 0
M  V30 3123 O 299.415 -1.1451 1.58947 0
M  V30 3124 H 297.995 0.447717 0.597962 0
M  V30 3125 H 300.657 1.65326 1.03215 0
M  V30 3126 H 299.753 1.7948 2.5533 0
M  V30 3127 N 300.054 -1.07777 1.14986 0
M  V30 3128 C 300.984 -2.16865 0.865557 0
M  V30 3129 C 301.965 -1.69123 -0.182083 0
M  V30 3130 O 303.15 -1.94164 -0.0373815 0
M  V30 3131 C 300.28 -3.45539 0.349313 0
M  V30 3132 C 299.234 -4.06708 1.33313 0
M  V30 3133 C 298.56 -5.30411 0.675918 0
M  V30 3134 C 299.86 -4.47241 2.69764 0
M  V30 3135 H 301.554 -2.40905 1.77778 0
M  V30 3136 H 299.1 -1.15781 0.856203 0
M  V30 3137 H 301.053 -4.21174 0.137983 0
M  V30 3138 H 299.777 -3.21072 -0.598362 0
M  V30 3139 H 298.436 -3.33112 1.53075 0
M  V30 3140 H 298.084 -5.02232 -0.277767 0
M  V30 3141 H 297.784 -5.72293 1.33244 0
M  V30 3142 H 299.308 -6.08755 0.474262 0
M  V30 3143 H 300.722 -5.14025 2.53873 0
M  V30 3144 H 299.119 -5.00062 3.3175 0
M  V30 3145 H 300.189 -3.58818 3.26156 0
M  V30 3146 N 301.532 -0.945985 -1.26051 0
M  V30 3147 C 302.48 -0.450259 -2.282 0
M  V30 3148 C 303.474 0.47497 -1.62605 0
M  V30 3149 O 304.68 0.352653 -1.76512 0
M  V30 3150 H 301.055 -0.127081 -0.741184 0
M  V30 3151 H 303.026 -1.32422 -2.67408 0
M  V30 3152 C 301.775 0.26467 -3.46691 0
M  V30 3153 H 301.098 -0.438123 -3.97392 0
M  V30 3154 H 302.538 0.575678 -4.20074 0
M  V30 3155 C 300.997 1.48416 -3.02447 0
M  V30 3156 O 301.527 2.58227 -3.07704 0
M  V30 3157 N 299.733 1.34243 -2.57735 0
M  V30 3158 H 299.28 0.448994 -2.53657 0
M  V30 3159 H 299.238 2.15957 -2.28495 0
M  V30 3160 N 303.011 1.40521 -0.713556 0
M  V30 3161 C 304.259 2.00527 -0.251692 0
M  V30 3162 C 304.58 1.56857 1.15848 0
M  V30 3163 O 303.85 0.807127 1.785 0
M  V30 3164 H 302.43 0.741551 -0.0900646 0
M  V30 3165 H 305.092 1.71887 -0.918733 0
M  V30 3166 H 304.188 3.10813 -0.283192 0
M  V30 3167 N 304.489 0.459591 1.5075 0
M  V30 3168 C 305.737 -0.0991532 2.01857 0
M  V30 3169 C 306.058 -1.41247 1.34441 0
M  V30 3170 O 305.328 -1.89775 0.486022 0
M  V30 3171 H 303.908 -0.039633 0.745948 0
M  V30 3172 H 306.57 0.607387 1.85194 0
M  V30 3173 H 305.666 -0.258998 3.11023 0
M  V30 3174 N 305.967 -1.56429 0.191757 0
M  V30 3175 C 307.215 -1.97095 -0.447006 0
M  V30 3176 C 307.536 -1.07967 -1.62383 0
M  V30 3177 O 306.806 -0.150248 -1.95323 0
M  V30 3178 H 305.386 -0.727832 -0.168135 0
M  V30 3179 H 308.048 -1.92911 0.27771 0
M  V30 3180 H 307.144 -3.01848 -0.793371 0
M  V30 3181 N 307.445 0.0818655 -1.57387 0
M  V30 3182 C 308.377 1.12484 -1.997 0
M  V30 3183 C 309.39 1.35564 -0.90146 0
M  V30 3184 O 310.579 1.33982 -1.17945 0
M  V30 3185 C 307.679 2.47778 -2.31213 0
M  V30 3186 C 306.852 2.44793 -3.62485 0
M  V30 3187 C 305.911 3.62117 -3.81782 0
M  V30 3188 O 304.937 3.44005 -4.53486 0
M  V30 3189 N 306.139 4.82094 -3.23367 0
M  V30 3190 H 308.904 0.764585 -2.89783 0
M  V30 3191 H 306.465 0.270664 -1.59621 0
M  V30 3192 H 308.457 3.24891 -2.41304 0
M  V30 3193 H 307.027 2.75843 -1.4707 0
M  V30 3194 H 306.247 1.53134 -3.6324 0
M  V30 3195 H 307.535 2.39889 -4.48699 0
M  V30 3196 H 306.933 4.99713 -2.65148 0
M  V30 3197 H 305.49 5.56753 -3.38923 0
M  V30 3198 N 308.923 1.53595 0.353017 0
M  V30 3199 C 309.871 1.81605 1.45335 0
M  V30 3200 C 310.865 0.685923 1.54892 0
M  V30 3201 O 312.071 0.869095 1.57628 0
M  V30 3202 H 308.446 0.575204 0.484401 0
M  V30 3203 H 310.417 2.73679 1.18921 0
M  V30 3204 C 309.166 2.03406 2.81995 0
M  V30 3205 H 308.489 2.89814 2.75405 0
M  V30 3206 H 309.929 2.26975 3.58132 0
M  V30 3207 C 308.388 0.816794 3.26849 0
M  V30 3208 O 308.918 0.0115856 4.01698 0
M  V30 3209 N 307.124 0.636682 2.8354 0
M  V30 3210 H 306.671 1.2931 2.22793 0
M  V30 3211 H 306.629 -0.176336 3.13905 0
M  V30 3212 N 310.401 -0.613514 1.45168 0
M  V30 3213 C 311.629 -1.39946 1.5239 0
M  V30 3214 C 312.044 -1.88167 0.154531 0
M  V30 3215 O 311.401 -1.61872 -0.842843 0
M  V30 3216 C 311.452 -2.60795 2.50337 0
M  V30 3217 O 311.173 -2.1458 3.81952 0
M  V30 3218 C 312.674 -3.53723 2.67198 0
M  V30 3219 H 309.894 -0.428593 0.516284 0
M  V30 3220 H 312.438 -0.748753 1.903 0
M  V30 3221 H 310.593 -3.21919 2.15515 0
M  V30 3222 H 311.007 -2.93055 4.34993 0
M  V30 3223 H 312.481 -4.35079 3.39721 0
M  V30 3224 H 312.958 -4.0368 1.73029 0
M  V30 3225 H 313.564 -2.98456 3.02992 0
M  V30 3226 N 311.879 -1.3236 -0.855495 0
M  V30 3227 C 312.827 -1.2118 -1.9854 0
M  V30 3228 C 313.821 -0.116788 -1.68997 0
M  V30 3229 O 315.027 -0.279657 -1.77814 0
M  V30 3230 H 311.402 -0.375608 -0.651477 0
M  V30 3231 H 313.373 -2.16743 -2.05098 0
M  V30 3232 C 312.122 -0.950849 -3.34446 0
M  V30 3233 H 311.445 -1.78563 -3.57708 0
M  V30 3234 H 312.885 -0.912863 -4.14057 0
M  V30 3235 C 311.344 0.346404 -3.35114 0
M  V30 3236 O 311.874 1.35855 -3.7803 0
M  V30 3237 N 310.08 0.36808 -2.88259 0
M  V30 3238 H 309.627 -0.456102 -2.5353 0
M  V30 3239 H 309.585 1.23591 -2.89089 0
M  V30 3240 O 313.396 0.992737 -1.27385 0
M  V30 3241 H 314.087 1.61512 -1.06928 0
M  V30 END ATOM
M  V30 BEGIN BOND
M  V30 END BOND
M  V30 END CTAB
M  END
$$$$
