drugbank_target|P00147 Cytochrome c' (DB01826)
 OpenBabel12092120223D

  0  0  0     0  0            999 V3000
M  V30 BEGIN CTAB
M  V30 COUNTS 1827 1839 0 0 0
M  V30 BEGIN ATOM
M  V30 1 H -0.908 1.98254 -0.117106 0
M  V30 2 N 0 1.576 0 0
M  V30 3 C 0.963 2.07369 0.976253 0
M  V30 4 C 1.963 0.98309 1.27248 0
M  V30 5 O 3.153 1.24574 1.21766 0
M  V30 6 C 0.285 2.51514 2.30116 0
M  V30 7 H 1.478 2.94892 0.545759 0
M  V30 8 H -0.969 1.54328 0.247471 0
M  V30 9 H -0.234 1.67234 2.77855 0
M  V30 10 H -0.449 3.31163 2.09937 0
M  V30 11 H 1.041 2.90345 3.00149 0
M  V30 12 N 1.4781 -0.272755 1.55222 0
M  V30 13 C 2.7551 -1.02562 1.66555 0
M  V30 14 C 3.1351 -2.04282 0.532189 0
M  V30 15 O 2.4831 -2.23662 -0.467717 0
M  V30 16 C 2.6931 -1.6822 3.05782 0
M  V30 17 C 4.0411 -2.19373 3.63539 0
M  V30 18 O 5.0651 -1.78206 3.08417 0
M  V30 19 O 3.9241 -2.94883 4.60115 0
M  V30 20 H 1.0181 -0.475755 0.676451 0
M  V30 21 H 3.5641 -0.268593 1.67561 0
M  V30 22 H 2.3361 -0.945112 3.79715 0
M  V30 23 H 1.9591 -2.50609 3.08676 0
M  V30 24 N 2.9562 -1.48159 -0.537278 0
M  V30 25 C 4.1842 -1.59454 -1.31841 0
M  V30 26 C 4.5992 -0.252065 -1.8711 0
M  V30 27 O 3.9562 0.757621 -1.66031 0
M  V30 28 C 4.0072 -2.63546 -2.47439 0
M  V30 29 O 3.7282 -3.92583 -1.94449 0
M  V30 30 C 5.2292 -2.85212 -3.39366 0
M  V30 31 H 2.4492 -0.53785 -0.401196 0
M  V30 32 H 4.9932 -1.93932 -0.648891 0
M  V30 33 H 3.1482 -2.31946 -3.1029 0
M  V30 34 H 3.5622 -4.49629 -2.70063 0
M  V30 35 H 5.0362 -3.61863 -4.16844 0
M  V30 36 H 5.5132 -1.93765 -3.94147 0
M  V30 37 H 6.1192 -3.18086 -2.82314 0
M  V30 38 N 4.4343 0.785586 -1.36625 0
M  V30 39 C 5.3813 1.89838 -1.31264 0
M  V30 40 C 6.3513 1.65115 -0.180633 0
M  V30 41 O 7.5363 1.87222 -0.36777 0
M  V30 42 C 4.6763 3.26706 -1.11163 0
M  V30 43 C 3.7893 3.63476 -2.33472 0
M  V30 44 C 2.9243 4.89481 -2.06353 0
M  V30 45 C 1.9633 5.18941 -3.24602 0
M  V30 46 N 1.1003 6.36131 -2.97123 0
M  V30 47 H 5.9403 1.93756 -2.26413 0
M  V30 48 H 3.4773 0.947454 -1.12524 0
M  V30 49 H 5.4353 4.05639 -0.975337 0
M  V30 50 H 4.0653 3.222 -0.196674 0
M  V30 51 H 3.1173 2.79636 -2.57891 0
M  V30 52 H 4.4293 3.81193 -3.21704 0
M  V30 53 H 3.5833 5.76288 -1.89675 0
M  V30 54 H 2.3223 4.73841 -1.15437 0
M  V30 55 H 1.3273 4.30615 -3.41834 0
M  V30 56 H 2.5523 5.36498 -4.16349 0
M  V30 57 H 0.4983 6.21875 -2.08823 0
M  V30 58 H 0.4153 6.54198 -3.78894 0
M  V30 59 H 1.6833 7.2591 -2.84033 0
M  V30 60 N 5.9124 1.20967 1.01018 0
M  V30 61 C 6.8224 0.980157 2.13143 0
M  V30 62 C 7.8384 -0.0660665 1.73875 0
M  V30 63 O 9.0144 0.122821 2.01025 0
M  V30 64 C 6.0794 0.54216 3.42435 0
M  V30 65 C 5.1404 1.65999 3.95908 0
M  V30 66 C 4.3734 1.2428 5.19028 0
M  V30 67 O 4.5964 0.114196 5.70286 0
M  V30 68 O 3.5304 2.05271 5.65816 0
M  V30 69 H 7.3564 1.91913 2.35379 0
M  V30 70 H 4.9414 0.994099 1.11526 0
M  V30 71 H 6.8234 0.30744 4.20277 0
M  V30 72 H 5.4984 -0.36815 3.216 0
M  V30 73 H 4.4054 1.94906 3.19316 0
M  V30 74 H 5.7384 2.54753 4.21143 0
M  V30 75 N 7.3905 -1.2043 1.01659 0
M  V30 76 C 8.6365 -1.90079 0.706963 0
M  V30 77 C 8.9695 -1.78648 -0.761474 0
M  V30 78 O 8.2445 -1.17069 -1.55323 0
M  V30 79 C 8.5275 -3.41469 1.14327 0
M  V30 80 C 8.3805 -3.61833 2.67201 0
M  V30 81 C 9.6995 -4.34261 0.714529 0
M  V30 82 H 6.8185 -0.690254 0.2583 0
M  V30 83 H 9.4605 -1.41826 1.26433 0
M  V30 84 H 7.6105 -3.82696 0.669056 0
M  V30 85 H 9.2825 -3.2986 3.22475 0
M  V30 86 H 7.5255 -3.05304 3.08175 0
M  V30 87 H 8.1965 -4.67955 2.92783 0
M  V30 88 H 10.6725 -4.00682 1.12221 0
M  V30 89 H 9.5485 -5.38806 1.04784 0
M  V30 90 H 9.8095 -4.40431 -0.383799 0
M  V30 91 N 8.8686 -0.792821 -1.36206 0
M  V30 92 C 9.7986 -0.207853 -2.32573 0
M  V30 93 C 10.7796 0.659055 -1.56813 0
M  V30 94 O 11.9646 0.592176 -1.84951 0
M  V30 95 C 9.0946 0.655449 -3.41059 0
M  V30 96 C 8.0486 -0.111842 -4.27854 0
M  V30 97 C 7.3746 0.872274 -5.27537 0
M  V30 98 C 8.6746 -1.30299 -5.05786 0
M  V30 99 H 10.3686 -1.01294 -2.81744 0
M  V30 100 H 7.9146 -0.48854 -1.3546 0
M  V30 101 H 9.8676 1.07464 -4.07467 0
M  V30 102 H 8.5916 1.49328 -2.90463 0
M  V30 103 H 7.2506 -0.512053 -3.63006 0
M  V30 104 H 6.8986 1.70523 -4.73214 0
M  V30 105 H 6.5986 0.363291 -5.86476 0
M  V30 106 H 8.1226 1.28996 -5.96818 0
M  V30 107 H 9.5366 -0.959379 -5.65216 0
M  V30 108 H 7.9336 -1.7455 -5.74154 0
M  V30 109 H 9.0036 -2.09663 -4.37229 0
M  V30 110 N 10.3467 1.47872 -0.545128 0
M  V30 111 C 11.2567 2.33633 0.212746 0
M  V30 112 C 12.2727 1.4744 0.923983 0
M  V30 113 O 13.4487 1.80393 0.895572 0
M  V30 114 C 10.5137 3.23884 1.23693 0
M  V30 115 C 9.5747 4.25961 0.534417 0
M  V30 116 C 8.8077 5.11899 1.5098 0
M  V30 117 O 9.0307 5.00077 2.7437 0
M  V30 118 O 7.9647 5.92831 1.0409 0
M  V30 119 H 11.7907 2.99714 -0.490416 0
M  V30 120 H 9.3757 1.46235 -0.305871 0
M  V30 121 H 11.2577 3.79666 1.82843 0
M  V30 122 H 9.9327 2.60446 1.92222 0
M  V30 123 H 8.8397 3.73972 -0.0979679 0
M  V30 124 H 10.1727 4.92079 -0.109213 0
M  V30 125 N 11.8248 0.280983 1.55075 0
M  V30 126 C 12.7878 -0.590896 2.21452 0
M  V30 127 C 13.7878 -1.07682 1.19421 0
M  V30 128 O 14.9778 -0.97605 1.44288 0
M  V30 129 C 12.1098 -1.81587 2.88511 0
M  V30 130 H 13.3028 -0.0112554 2.99898 0
M  V30 131 H 10.8558 0.0316438 1.56268 0
M  V30 132 H 11.5908 -2.43587 2.14093 0
M  V30 133 H 11.3758 -1.4753 3.63287 0
M  V30 134 H 12.8658 -2.43575 3.39206 0
M  V30 135 N 13.3029 -1.57598 0.00835791 0
M  V30 136 C 14.7189 -1.55764 -0.347822 0
M  V30 137 C 14.9189 -1.01186 -1.74252 0
M  V30 138 O 13.9749 -0.649371 -2.44007 0
M  V30 139 C 15.2879 -2.99927 -0.215407 0
M  V30 140 C 16.8359 -3.11656 -0.289725 0
M  V30 141 C 17.3109 -4.57621 -0.18634 0
M  V30 142 N 18.8019 -4.62557 -0.243978 0
M  V30 143 C 19.5369 -5.73094 -0.18745 0
M  V30 144 N 19.0329 -6.92753 -0.0810331 0
M  V30 145 N 20.8259 -5.61588 -0.239925 0
M  V30 146 H 12.9769 -1.91411 0.92062 0
M  V30 147 H 15.2399 -0.879562 0.353659 0
M  V30 148 H 14.9459 -3.43729 0.744512 0
M  V30 149 H 14.8199 -3.63865 -0.994097 0
M  V30 150 H 17.2069 -2.67779 -1.24009 0
M  V30 151 H 17.2879 -2.5048 0.51898 0
M  V30 152 H 16.9319 -5.02174 0.760519 0
M  V30 153 H 16.8619 -5.16752 -1.01364 0
M  V30 154 H 19.3529 -3.76481 -0.327217 0
M  V30 155 H 19.6659 -7.72787 -0.0440241 0
M  V30 156 H 18.0109 -6.94984 -0.0465419 0
M  V30 157 H 21.2019 -4.66996 -0.321317 0
M  V30 158 H 21.3749 -6.47714 -0.192407 0
M  V30 159 N 14.781 0.264519 -1.55364 0
M  V30 160 C 15.691 1.34902 -1.91934 0
M  V30 161 C 16.707 1.53595 -0.817593 0
M  V30 162 O 17.883 1.67558 -1.11742 0
M  V30 163 C 14.948 2.68676 -2.19121 0
M  V30 164 C 14.009 2.58657 -3.4263 0
M  V30 165 C 13.242 3.86051 -3.68511 0
M  V30 166 O 13.465 4.87126 -2.96757 0
M  V30 167 O 12.399 3.85744 -4.62045 0
M  V30 168 H 16.225 1.06883 -2.8427 0
M  V30 169 H 13.81 0.463775 -1.42019 0
M  V30 170 H 15.692 3.47759 -2.37995 0
M  V30 171 H 14.367 2.96463 -1.29966 0
M  V30 172 H 13.274 1.7792 -3.29082 0
M  V30 173 H 14.607 2.35818 -4.32031 0
M  V30 174 N 16.2591 1.48442 0.529413 0
M  V30 175 C 17.2221 1.62524 1.61612 0
M  V30 176 C 18.2221 0.498509 1.52877 0
M  V30 177 O 19.4121 0.76431 1.56537 0
M  V30 178 C 16.5441 1.59597 3.01233 0
M  V30 179 H 17.7371 2.59423 1.50465 0
M  V30 180 H 15.2901 1.37047 0.751514 0
M  V30 181 H 16.0251 0.641781 3.17886 0
M  V30 182 H 15.8101 2.41397 3.08982 0
M  V30 183 H 17.3001 1.72646 3.80241 0
M  V30 184 N 17.7372 -0.778329 1.37039 0
M  V30 185 C 18.9672 -1.56507 1.34868 0
M  V30 186 C 19.3752 -1.89072 -0.0694802 0
M  V30 187 O 18.7182 -1.51434 -1.03987 0
M  V30 188 C 18.7802 -2.90641 2.11585 0
M  V30 189 C 18.4442 -2.80746 3.60598 0
M  V30 190 C 19.4412 -2.52226 4.54618 0
M  V30 191 C 17.1262 -2.98974 4.03633 0
M  V30 192 C 19.1202 -2.42054 5.89651 0
M  V30 193 C 16.8072 -2.88423 5.38754 0
M  V30 194 C 17.8052 -2.60002 6.31576 0
M  V30 195 O 17.4932 -2.49465 7.64214 0
M  V30 196 H 17.2252 -0.491723 0.463879 0
M  V30 197 H 19.7792 -0.973053 1.80889 0
M  V30 198 H 18.0092 -3.51936 1.60243 0
M  V30 199 H 19.6982 -3.51992 2.0213 0
M  V30 200 H 20.4642 -2.37835 4.22681 0
M  V30 201 H 16.3432 -3.20099 3.31749 0
M  V30 202 H 19.8872 -2.19791 6.62071 0
M  V30 203 H 15.7842 -3.0238 5.70295 0
M  V30 204 H 16.5522 -2.64864 7.74461 0
M  V30 205 N 19.2153 -1.21501 -1.00376 0
M  V30 206 C 20.4623 -1.03299 -1.74171 0
M  V30 207 C 20.7903 0.433326 -1.89612 0
M  V30 208 O 20.0453 1.33779 -1.42834 0
M  V30 209 C 20.3443 -1.67673 -3.15627 0
M  V30 210 C 20.0103 -3.17533 -3.2013 0
M  V30 211 C 18.6723 -3.58427 -3.21067 0
M  V30 212 C 21.0243 -4.13504 -3.17275 0
M  V30 213 C 18.3523 -4.93794 -3.16835 0
M  V30 214 C 20.7043 -5.48834 -3.14585 0
M  V30 215 C 19.3683 -5.89123 -3.13831 0
M  V30 216 H 18.6383 -0.377999 -0.637336 0
M  V30 217 H 21.2853 -1.51111 -1.17634 0
M  V30 218 H 19.5903 -1.12158 -3.75404 0
M  V30 219 H 21.2873 -1.51091 -3.71446 0
M  V30 220 H 17.8773 -2.84965 -3.20145 0
M  V30 221 H 22.0613 -3.82936 -3.15711 0
M  V30 222 H 17.3173 -5.24255 -3.1459 0
M  V30 223 H 21.4913 -6.22934 -3.1133 0
M  V30 224 H 19.1183 -6.93984 -3.10307 0
M  V30 225 N 20.6934 1.19889 -1.02296 0
M  V30 226 C 21.6404 2.22901 -0.598651 0
M  V30 227 C 22.6104 1.61588 0.384521 0
M  V30 228 O 23.7954 1.88697 0.282522 0
M  V30 229 C 20.9354 3.45063 0.0504476 0
M  V30 230 C 20.0484 4.20783 -0.978053 0
M  V30 231 C 19.1834 5.30356 -0.299338 0
M  V30 232 C 18.2224 5.97826 -1.31416 0
M  V30 233 N 17.3594 6.98975 -0.661667 0
M  V30 234 H 22.1994 2.58554 -1.48169 0
M  V30 235 H 19.7364 1.27039 -0.741584 0
M  V30 236 H 21.6944 4.14831 0.443971 0
M  V30 237 H 20.3244 3.10084 0.897097 0
M  V30 238 H 19.3764 3.50018 -1.48969 0
M  V30 239 H 20.6884 4.67109 -1.74958 0
M  V30 240 H 19.8424 6.06516 0.149347 0
M  V30 241 H 18.5814 4.85084 0.504445 0
M  V30 242 H 17.5864 5.20422 -1.77317 0
M  V30 243 H 18.8114 6.45183 -2.11933 0
M  V30 244 H 16.7574 6.55886 0.122132 0
M  V30 245 H 16.6744 7.43461 -1.37117 0
M  V30 246 H 17.9424 7.7914 -0.236785 0
M  V30 247 N 22.1715 0.800033 1.35784 0
M  V30 248 C 23.3965 0.388511 2.03729 0
M  V30 249 C 23.8215 -0.990481 1.5991 0
M  V30 250 O 23.1795 -1.64013 0.772612 0
M  V30 251 C 23.2275 0.4726 3.5749 0
M  V30 252 O 22.3315 -0.51646 4.09153 0
M  V30 253 H 21.6725 0.163271 0.643614 0
M  V30 254 H 24.2025 1.0841 1.73518 0
M  V30 255 H 24.2125 0.34003 4.06581 0
M  V30 256 H 22.8875 1.47848 3.88734 0
M  V30 257 H 21.4645 -0.344673 3.71304 0
M  V30 258 N 23.6496 -1.47581 0.552962 0
M  V30 259 C 24.5796 -2.32762 -0.185451 0
M  V30 260 C 25.5606 -1.43527 -0.912905 0
M  V30 261 O 26.7456 -1.72388 -0.894201 0
M  V30 262 C 23.8756 -3.25219 -1.21859 0
M  V30 263 C 22.8296 -4.23661 -0.607864 0
M  V30 264 C 22.1556 -5.05413 -1.74533 0
M  V30 265 C 23.4556 -5.20481 0.435582 0
M  V30 266 H 25.1496 -2.94749 0.525684 0
M  V30 267 H 22.6956 -1.41738 0.254251 0
M  V30 268 H 24.6486 -3.8365 -1.7433 0
M  V30 269 H 23.3726 -2.61279 -1.95961 0
M  V30 270 H 22.0316 -3.66451 -0.104489 0
M  V30 271 H 21.6796 -4.3788 -2.47529 0
M  V30 272 H 21.3796 -5.72059 -1.34249 0
M  V30 273 H 22.9036 -5.66701 -2.27338 0
M  V30 274 H 24.3176 -5.733 -0.00290157 0
M  V30 275 H 22.7146 -5.95305 0.757067 0
M  V30 276 H 23.7846 -4.66217 1.33303 0
M  V30 277 N 25.1277 -0.289203 -1.54924 0
M  V30 278 C 26.3757 0.322879 -1.99504 0
M  V30 279 C 26.6967 1.55313 -1.1791 0
M  V30 280 O 25.9667 1.94001 -0.272097 0
M  V30 281 H 24.5467 0.122291 -0.736922 0
M  V30 282 H 27.2087 -0.397802 -1.90797 0
M  V30 283 H 26.3047 0.603061 -3.06218 0
M  V30 284 N 26.6058 1.57591 -0.0167156 0
M  V30 285 C 27.5528 2.09462 0.969251 0
M  V30 286 C 28.5228 0.99381 1.33089 0
M  V30 287 O 29.7078 1.26726 1.42636 0
M  V30 288 C 26.8478 2.61622 2.25051 0
M  V30 289 C 25.9608 3.85666 1.94642 0
M  V30 290 C 25.0958 4.26266 3.16972 0
M  V30 291 C 24.1348 5.43101 2.82326 0
M  V30 292 N 23.2718 5.78915 3.97243 0
M  V30 293 H 28.1118 2.93428 0.519997 0
M  V30 294 H 25.6488 1.45044 0.245087 0
M  V30 295 H 27.6068 2.89949 2.99976 0
M  V30 296 H 26.2368 1.80505 2.67615 0
M  V30 297 H 25.2888 3.64145 1.10013 0
M  V30 298 H 26.6008 4.70678 1.65117 0
M  V30 299 H 25.7548 4.55963 4.00228 0
M  V30 300 H 24.4938 3.39996 3.49648 0
M  V30 301 H 23.4988 5.1311 1.97479 0
M  V30 302 H 24.7238 6.3106 2.50879 0
M  V30 303 H 22.6698 4.95602 4.29785 0
M  V30 304 H 22.5868 6.58539 3.71299 0
M  V30 305 H 23.8548 6.13212 4.81239 0
M  V30 306 N 28.0839 -0.256276 1.55502 0
M  V30 307 C 29.3089 -1.00766 1.81276 0
M  V30 308 C 29.7339 -1.78524 0.59252 0
M  V30 309 O 29.0919 -1.75413 -0.45827 0
M  V30 310 C 29.1399 -1.92869 3.04687 0
M  V30 311 O 28.2439 -3.019 2.80945 0
M  V30 312 H 27.5849 -0.287224 0.598664 0
M  V30 313 H 30.1149 -0.280109 2.02674 0
M  V30 314 H 30.1249 -2.34511 3.33869 0
M  V30 315 H 28.7999 -1.35689 3.93143 0
M  V30 316 H 27.3769 -2.64454 2.62904 0
M  V30 317 N 29.562 -1.4872 -0.521534 0
M  V30 318 C 30.495 -1.58451 -1.64221 0
M  V30 319 C 31.473 -0.434513 -1.56687 0
M  V30 320 O 32.657 -0.647275 -1.77038 0
M  V30 321 C 29.784 -1.52037 -3.02659 0
M  V30 322 C 28.83 -2.71981 -3.28525 0
M  V30 323 S 29.663 -4.33869 -3.13876 0
M  V30 324 C 30.819 -4.30067 -4.54745 0
M  V30 325 H 31.052 -2.53256 -1.55719 0
M  V30 326 H 28.585 -1.37358 -0.705143 0
M  V30 327 H 30.543 -1.49023 -3.82495 0
M  V30 328 H 29.204 -0.585541 -3.08594 0
M  V30 329 H 28.397 -2.63656 -4.29536 0
M  V30 330 H 27.999 -2.72302 -2.56374 0
M  V30 331 H 30.291 -4.00521 -5.46433 0
M  V30 332 H 31.234 -5.31287 -4.68123 0
M  V30 333 H 31.642 -3.60419 -4.34463 0
M  V30 334 N 31.0401 0.771051 -1.3745 0
M  V30 335 C 31.9871 1.88435 -1.3327 0
M  V30 336 C 32.9571 1.64914 -0.198136 0
M  V30 337 O 34.1421 1.86821 -0.387606 0
M  V30 338 C 31.2821 3.25509 -1.14622 0
M  V30 339 C 30.3951 3.60979 -2.37314 0
M  V30 340 C 29.5301 4.87265 -2.11533 0
M  V30 341 C 28.5691 5.15469 -3.30088 0
M  V30 342 N 27.7061 6.32944 -3.03853 0
M  V30 343 H 32.5461 1.91344 -2.28455 0
M  V30 344 H 30.0831 0.935466 -1.13523 0
M  V30 345 H 32.0411 4.04582 -1.01831 0
M  V30 346 H 30.6711 3.21974 -0.230837 0
M  V30 347 H 29.7231 2.76885 -2.60842 0
M  V30 348 H 31.0351 3.77759 -3.25729 0
M  V30 349 H 30.1891 5.74244 -1.95777 0
M  V30 350 H 28.9281 4.7259 -1.20457 0
M  V30 351 H 27.9331 4.26966 -3.46382 0
M  V30 352 H 29.1581 5.32052 -4.22016 0
M  V30 353 H 27.1041 6.19625 -2.15407 0
M  V30 354 H 27.0211 6.50143 -3.85812 0
M  V30 355 H 28.2891 7.22857 -2.91716 0
M  V30 356 N 32.5182 1.22032 0.997298 0
M  V30 357 C 33.4812 0.987909 2.06816 0
M  V30 358 C 34.4812 -0.0440084 1.6074 0
M  V30 359 O 35.6712 0.194053 1.73116 0
M  V30 360 C 32.8032 0.49132 3.37341 0
M  V30 361 H 33.9962 1.93803 2.28868 0
M  V30 362 H 31.5492 1.03838 1.16822 0
M  V30 363 H 32.2842 -0.463364 3.20973 0
M  V30 364 H 32.0692 1.23575 3.72118 0
M  V30 365 H 33.5592 0.348824 4.16141 0
M  V30 366 N 33.9963 -1.19345 1.0293 0
M  V30 367 C 34.9293 -2.21347 0.555029 0
M  V30 368 C 35.9073 -1.57492 -0.404351 0
M  V30 369 O 37.0913 -1.85741 -0.321352 0
M  V30 370 C 34.2183 -3.38163 -0.19064 0
M  V30 371 C 33.2643 -4.20375 0.720236 0
M  V30 372 S 34.0973 -4.88371 2.19668 0
M  V30 373 C 35.2533 -6.08597 1.46153 0
M  V30 374 H 35.4863 -2.61235 1.41929 0
M  V30 375 H 33.0193 -1.29598 0.839272 0
M  V30 376 H 34.9773 -4.05871 -0.614724 0
M  V30 377 H 33.6383 -2.9671 -1.03063 0
M  V30 378 H 32.8313 -5.03793 0.14455 0
M  V30 379 H 32.4333 -3.57987 1.08266 0
M  V30 380 H 34.7253 -6.73354 0.748357 0
M  V30 381 H 35.6683 -6.7065 2.27233 0
M  V30 382 H 36.0763 -5.56297 0.958842 0
M  V30 383 N 35.4744 -0.807222 -1.35358 0
M  V30 384 C 36.7024 -0.400377 -2.02989 0
M  V30 385 C 37.1174 0.988859 -1.60832 0
M  V30 386 O 36.4744 1.63729 -0.806175 0
M  V30 387 C 36.5254 -0.474867 -3.58368 0
M  V30 388 O 36.2464 -1.80933 -3.98992 0
M  V30 389 C 37.7474 -0.0609112 -4.43258 0
M  V30 390 H 34.9674 -0.162587 -0.651004 0
M  V30 391 H 37.5114 -1.09102 -1.72965 0
M  V30 392 H 35.6664 0.167534 -3.87038 0
M  V30 393 H 36.0804 -1.77256 -4.9364 0
M  V30 394 H 37.5544 -0.164145 -5.51756 0
M  V30 395 H 38.0314 0.993831 -4.27808 0
M  V30 396 H 38.6374 -0.676492 -4.19885 0
M  V30 397 N 36.9525 1.47285 -0.560781 0
M  V30 398 C 38.2005 2.02064 -0.0379868 0
M  V30 399 C 38.5215 1.43711 1.31803 0
M  V30 400 O 37.7915 0.61362 1.86042 0
M  V30 401 H 36.3715 0.746918 -0.0110531 0
M  V30 402 H 39.0335 1.80648 -0.731598 0
M  V30 403 H 38.1295 3.12064 0.0474463 0
M  V30 404 N 38.4306 0.297415 1.54768 0
M  V30 405 C 39.6766 -0.313376 2.00364 0
M  V30 406 C 40.0096 -1.53815 1.18553 0
M  V30 407 O 39.2846 -1.92739 0.261103 0
M  V30 408 C 39.5676 -0.673525 3.53745 0
M  V30 409 C 39.4206 0.560133 4.46299 0
M  V30 410 C 40.7396 -1.50143 4.13697 0
M  V30 411 H 37.8586 -0.112428 0.728374 0
M  V30 412 H 40.5006 0.4088 1.8555 0
M  V30 413 H 38.6506 -1.28881 3.665 0
M  V30 414 H 40.3226 1.19863 4.45455 0
M  V30 415 H 38.5656 1.19405 4.17043 0
M  V30 416 H 39.2366 0.26405 5.51368 0
M  V30 417 H 41.7126 -0.981588 4.04356 0
M  V30 418 H 40.5886 -1.72221 5.21182 0
M  V30 419 H 40.8496 -2.48952 3.65343 0
M  V30 420 N 39.9087 -1.5758 0.0250728 0
M  V30 421 C 40.8717 -2.08896 -0.943139 0
M  V30 422 C 41.8717 -1.00321 -1.25668 0
M  V30 423 O 43.0617 -1.26495 -1.19769 0
M  V30 424 C 40.1937 -2.55143 -2.26086 0
M  V30 425 H 41.3867 -2.95723 -0.498775 0
M  V30 426 H 38.9397 -1.54703 -0.222888 0
M  V30 427 H 39.6747 -1.71633 -2.75159 0
M  V30 428 H 39.4597 -3.34461 -2.04641 0
M  V30 429 H 40.9497 -2.95083 -2.95492 0
M  V30 430 N 41.3868 0.248026 -1.55636 0
M  V30 431 C 42.3338 1.30707 -1.90222 0
M  V30 432 C 43.3038 1.47881 -0.756332 0
M  V30 433 O 44.4888 1.61883 -1.00988 0
M  V30 434 C 41.6288 2.65769 -2.20138 0
M  V30 435 C 40.7418 2.56612 -3.47526 0
M  V30 436 C 39.8768 3.8402 -3.67017 0
M  V30 437 C 38.9158 3.69476 -4.8801 0
M  V30 438 N 38.0528 4.88774 -5.04029 0
M  V30 439 H 42.8928 1.00512 -2.80538 0
M  V30 440 H 40.4298 0.485055 -1.38873 0
M  V30 441 H 42.3878 3.44386 -2.35487 0
M  V30 442 H 41.0178 2.94115 -1.33027 0
M  V30 443 H 40.0698 1.69571 -3.40514 0
M  V30 444 H 41.3818 2.41774 -4.36287 0
M  V30 445 H 40.5358 4.7108 -3.8232 0
M  V30 446 H 39.2748 4.01754 -2.76487 0
M  V30 447 H 38.2798 2.80799 -4.72686 0
M  V30 448 H 39.5048 3.53238 -5.8 0
M  V30 449 H 37.4508 5.0687 -4.16435 0
M  V30 450 H 37.3678 4.76562 -5.86877 0
M  V30 451 H 38.6358 5.77335 -5.23741 0
M  V30 452 N 42.8649 1.48995 0.513639 0
M  V30 453 C 44.0899 1.61792 1.29762 0
M  V30 454 C 44.5149 0.284475 1.85936 0
M  V30 455 O 43.8729 -0.746185 1.65232 0
M  V30 456 C 43.9209 2.67993 2.41272 0
M  V30 457 O 43.0249 2.26287 3.44772 0
M  V30 458 H 42.3659 0.541963 0.38363 0
M  V30 459 H 44.8959 1.95097 0.616307 0
M  V30 460 H 44.9059 2.89772 2.87221 0
M  V30 461 H 43.5809 3.64791 1.9975 0
M  V30 462 H 42.1579 2.14788 3.04829 0
M  V30 463 N 44.343 -0.763751 1.37857 0
M  V30 464 C 45.59 -1.52257 1.33506 0
M  V30 465 C 45.918 -1.94343 -0.078022 0
M  V30 466 O 45.173 -1.64958 -1.05297 0
M  V30 467 C 45.472 -2.79499 2.22745 0
M  V30 468 C 45.138 -2.56426 3.70886 0
M  V30 469 C 43.8 -2.49842 4.11257 0
M  V30 470 C 46.152 -2.36008 4.64704 0
M  V30 471 C 43.48 -2.20841 5.43549 0
M  V30 472 C 45.832 -2.0853 5.97242 0
M  V30 473 C 44.496 -2.00396 6.36709 0
M  V30 474 H 43.766 -0.557149 0.488534 0
M  V30 475 H 46.413 -0.879073 1.70131 0
M  V30 476 H 44.718 -3.48447 1.79142 0
M  V30 477 H 46.415 -3.37413 2.16688 0
M  V30 478 H 43.005 -2.62416 3.38874 0
M  V30 479 H 47.189 -2.40079 4.34368 0
M  V30 480 H 42.445 -2.13045 5.73081 0
M  V30 481 H 46.619 -1.91732 6.69486 0
M  V30 482 H 44.246 -1.77688 7.39142 0
M  V30 483 N 45.8211 -1.22559 -0.990812 0
M  V30 484 C 47.0981 -0.959875 -1.70428 0
M  V30 485 C 47.4781 0.524455 -2.04481 0
M  V30 486 O 46.8261 1.49302 -1.72977 0
M  V30 487 C 47.0361 -1.85955 -2.95333 0
M  V30 488 C 48.3841 -2.11687 -3.68068 0
M  V30 489 O 49.4081 -1.8342 -3.05345 0
M  V30 490 O 48.2671 -2.59572 -4.80921 0
M  V30 491 H 45.3611 -0.361154 -0.743974 0
M  V30 492 H 47.9071 -1.33554 -1.04697 0
M  V30 493 H 46.6791 -2.86346 -2.66687 0
M  V30 494 H 46.3021 -1.4856 -3.68803 0
M  V30 495 N 47.2992 1.18797 -1.03562 0
M  V30 496 C 48.2622 2.20464 -0.626769 0
M  V30 497 C 49.2622 1.57721 0.313173 0
M  V30 498 O 50.4522 1.73917 0.0992615 0
M  V30 499 C 47.5842 3.40802 0.0818498 0
M  V30 500 H 48.7772 2.58149 -1.5264 0
M  V30 501 H 46.3302 1.32593 -0.827578 0
M  V30 502 H 47.0652 3.08642 0.995518 0
M  V30 503 H 46.8502 3.8758 -0.593652 0
M  V30 504 H 48.3402 4.16092 0.354584 0
M  V30 505 N 48.7773 0.814389 1.34928 0
M  V30 506 C 49.6873 0.231978 2.3345 0
M  V30 507 C 50.7033 -0.629139 1.62228 0
M  V30 508 O 51.8793 -0.539052 1.94052 0
M  V30 509 C 48.9443 -0.603482 3.41407 0
M  V30 510 C 48.0053 0.279037 4.28392 0
M  V30 511 C 47.2383 -0.516643 5.31193 0
M  V30 512 O 47.4613 -1.75068 5.4287 0
M  V30 513 O 46.3953 0.0965652 6.01823 0
M  V30 514 H 50.2213 1.04721 2.85074 0
M  V30 515 H 47.8063 0.576343 1.37836 0
M  V30 516 H 49.6883 -1.07908 4.0735 0
M  V30 517 H 48.3633 -1.39618 2.92042 0
M  V30 518 H 47.2703 0.801948 3.65403 0
M  V30 519 H 48.6033 1.03588 4.81176 0
M  V30 520 N 50.2554 -1.46986 0.568584 0
M  V30 521 C 51.2184 -2.28624 -0.162366 0
M  V30 522 C 52.2184 -1.37596 -0.832103 0
M  V30 523 O 53.4084 -1.60115 -0.68622 0
M  V30 524 C 50.5404 -3.17596 -1.23878 0
M  V30 525 H 51.7334 -2.94722 0.554899 0
M  V30 526 H 49.2864 -1.52863 0.325976 0
M  V30 527 H 50.0214 -2.56214 -1.98808 0
M  V30 528 H 49.8064 -3.846 -0.763219 0
M  V30 529 H 51.2964 -3.79078 -1.75185 0
M  V30 530 N 51.7335 -0.305618 -1.54608 0
M  V30 531 C 52.6965 0.555591 -2.22364 0
M  V30 532 C 53.6965 1.05768 -1.21119 0
M  V30 533 O 54.8865 0.952972 -1.45822 0
M  V30 534 C 52.0185 1.76974 -2.91364 0
M  V30 535 H 53.2115 -0.0364572 -2.99878 0
M  V30 536 H 50.7645 -0.0565007 -1.56198 0
M  V30 537 H 51.4995 2.40151 -2.17941 0
M  V30 538 H 51.2845 1.41732 -3.65588 0
M  V30 539 H 52.7745 2.38148 -3.43038 0
M  V30 540 N 53.2116 1.57565 -0.0334293 0
M  V30 541 C 54.1586 2.10478 0.946981 0
M  V30 542 C 55.1286 1.00787 1.32027 0
M  V30 543 O 56.3136 1.28232 1.41284 0
M  V30 544 C 53.4536 2.63994 2.22263 0
M  V30 545 C 52.5666 3.87709 1.90541 0
M  V30 546 C 51.7016 4.29604 3.12433 0
M  V30 547 C 50.7406 5.46065 2.76549 0
M  V30 548 N 49.8776 5.83096 3.9108 0
M  V30 549 H 54.7176 2.93963 0.488846 0
M  V30 550 H 52.2546 1.45296 0.22969 0
M  V30 551 H 54.2126 2.93114 2.96884 0
M  V30 552 H 52.8426 1.83333 2.65685 0
M  V30 553 H 51.8946 3.65291 1.06144 0
M  V30 554 H 53.2066 4.72403 1.60116 0
M  V30 555 H 52.3606 4.60182 3.9537 0
M  V30 556 H 51.0996 3.43685 3.46023 0
M  V30 557 H 50.1046 5.15176 1.92026 0
M  V30 558 H 51.3296 6.33685 2.44171 0
M  V30 559 H 49.2756 5.00132 4.24504 0
M  V30 560 H 49.1926 6.6244 3.64293 0
M  V30 561 H 50.4606 6.18282 4.74708 0
M  V30 562 N 54.6897 -0.239769 1.55765 0
M  V30 563 C 55.6527 -1.28038 1.90103 0
M  V30 564 C 56.6527 -1.40723 0.778055 0
M  V30 565 O 57.8427 -1.39301 1.04599 0
M  V30 566 C 54.9747 -2.65702 2.13577 0
M  V30 567 H 56.1677 -0.988048 2.83157 0
M  V30 568 H 53.7207 -0.479382 1.48767 0
M  V30 569 H 54.4557 -3.00063 1.23015 0
M  V30 570 H 54.2407 -2.57875 2.95369 0
M  V30 571 H 55.7307 -3.40828 2.41301 0
M  V30 572 N 56.1678 -1.49265 -0.50573 0
M  V30 573 C 57.0778 -1.68312 -1.63427 0
M  V30 574 C 58.0938 -0.565682 -1.64548 0
M  V30 575 O 59.2698 -0.839801 -1.83055 0
M  V30 576 C 56.3348 -1.74107 -2.99813 0
M  V30 577 C 55.3958 -2.97653 -3.09356 0
M  V30 578 C 54.6288 -3.03163 -4.39236 0
M  V30 579 O 54.8518 -2.16396 -5.27758 0
M  V30 580 O 53.7858 -3.9558 -4.53652 0
M  V30 581 H 57.6118 -2.63907 -1.50289 0
M  V30 582 H 55.1968 -1.32951 -0.681502 0
M  V30 583 H 57.0788 -1.803 -3.80881 0
M  V30 584 H 55.7538 -0.816901 -3.13223 0
M  V30 585 H 54.6608 -2.96981 -2.27493 0
M  V30 586 H 55.9938 -3.89535 -3.00871 0
M  V30 587 N 57.6459 0.756429 -1.3826 0
M  V30 588 C 58.6089 1.85176 -1.35065 0
M  V30 589 C 59.6089 1.58818 -0.251703 0
M  V30 590 O 60.7989 1.66615 -0.508433 0
M  V30 591 C 57.9309 3.22596 -1.10201 0
M  V30 592 H 59.1239 1.89417 -2.3251 0
M  V30 593 H 56.6769 0.95783 -1.23512 0
M  V30 594 H 57.4119 3.24025 -0.133504 0
M  V30 595 H 57.1969 3.43122 -1.89762 0
M  V30 596 H 58.6869 4.02673 -1.10654 0
M  V30 597 N 59.124 1.23083 0.984299 0
M  V30 598 C 60.087 1.00979 2.05757 0
M  V30 599 C 61.087 -0.0269573 1.60777 0
M  V30 600 O 62.277 0.212403 1.729 0
M  V30 601 C 59.409 0.527072 3.36801 0
M  V30 602 H 60.602 1.9622 2.26799 0
M  V30 603 H 58.155 1.05072 1.15714 0
M  V30 604 H 58.89 -0.429294 3.21446 0
M  V30 605 H 58.675 1.27515 3.70786 0
M  V30 606 H 60.165 0.392942 4.15747 0
M  V30 607 N 60.6021 -1.18246 1.0419 0
M  V30 608 C 61.5651 -2.20128 0.638452 0
M  V30 609 C 62.5651 -1.57885 -0.304805 0
M  V30 610 O 63.7551 -1.73967 -0.0900369 0
M  V30 611 C 60.8871 -3.4084 -0.0637751 0
M  V30 612 H 62.0801 -2.57336 1.54007 0
M  V30 613 H 59.6331 -1.32152 0.834598 0
M  V30 614 H 60.3681 -3.09166 -0.979136 0
M  V30 615 H 60.1531 -3.8726 0.614198 0
M  V30 616 H 61.6431 -4.16274 -0.332512 0
M  V30 617 N 62.0802 -0.821533 -1.34494 0
M  V30 618 C 63.0102 -0.257138 -2.3208 0
M  V30 619 C 63.9912 0.625645 -1.58176 0
M  V30 620 O 65.1762 0.552811 -1.86166 0
M  V30 621 C 62.3062 0.582958 -3.42372 0
M  V30 622 C 61.2602 -0.202571 -4.2752 0
M  V30 623 C 60.5862 0.760179 -5.29269 0
M  V30 624 C 61.8862 -1.40998 -5.02908 0
M  V30 625 H 63.5802 -1.07247 -2.79532 0
M  V30 626 H 61.1262 -0.517163 -1.34393 0
M  V30 627 H 63.0792 0.987972 -4.09655 0
M  V30 628 H 61.8032 1.43133 -2.93565 0
M  V30 629 H 60.4622 -0.588936 -3.61838 0
M  V30 630 H 60.1102 1.60447 -4.76724 0
M  V30 631 H 59.8102 0.238809 -5.87115 0
M  V30 632 H 61.3342 1.16308 -5.9942 0
M  V30 633 H 62.7482 -1.07905 -5.63054 0
M  V30 634 H 61.1452 -1.86689 -5.70322 0
M  V30 635 H 62.2152 -2.1889 -4.32684 0
M  V30 636 N 63.5583 1.46682 -0.576371 0
M  V30 637 C 64.4683 2.34032 0.163141 0
M  V30 638 C 65.4843 1.49367 0.892501 0
M  V30 639 O 66.6603 1.82252 0.857106 0
M  V30 640 C 63.7253 3.26435 1.16795 0
M  V30 641 C 62.7863 4.26998 0.443944 0
M  V30 642 C 62.0193 5.14986 1.40088 0
M  V30 643 O 62.2423 5.05785 2.637 0
M  V30 644 O 61.1763 5.94906 0.914917 0
M  V30 645 H 65.0023 2.98607 -0.55388 0
M  V30 646 H 62.5873 1.45554 -0.336821 0
M  V30 647 H 64.4693 3.83459 1.74748 0
M  V30 648 H 63.1443 2.64465 1.86655 0
M  V30 649 H 62.0513 3.7368 -0.177271 0
M  V30 650 H 63.3843 4.91736 -0.213566 0
M  V30 651 N 65.0364 0.313813 1.54444 0
M  V30 652 C 65.9834 -0.55655 2.23989 0
M  V30 653 C 66.9534 -1.11943 1.22711 0
M  V30 654 O 68.1384 -1.16158 1.51367 0
M  V30 655 C 65.2784 -1.71635 2.99392 0
M  V30 656 C 64.3914 -1.18364 4.15468 0
M  V30 657 C 63.5264 -2.30834 4.78424 0
M  V30 658 C 62.5654 -1.74762 5.86622 0
M  V30 659 N 61.7024 -2.80855 6.43479 0
M  V30 660 H 66.5424 0.0430893 2.97969 0
M  V30 661 H 64.0794 0.0330359 1.47063 0
M  V30 662 H 66.0374 -2.39868 3.41349 0
M  V30 663 H 64.6674 -2.28742 2.27765 0
M  V30 664 H 63.7194 -0.393163 3.78363 0
M  V30 665 H 65.0314 -0.733262 4.93381 0
M  V30 666 H 64.1854 -3.0699 5.23299 0
M  V30 667 H 62.9244 -2.79204 3.99871 0
M  V30 668 H 61.9294 -0.970995 5.41158 0
M  V30 669 H 63.1544 -1.2728 6.67066 0
M  V30 670 H 61.1004 -3.28535 5.67804 0
M  V30 671 H 61.0174 -2.40351 7.16776 0
M  V30 672 H 62.2854 -3.5687 6.93011 0
M  V30 673 N 66.5145 -1.57545 0.0417849 0
M  V30 674 C 67.7635 -1.91494 -0.633492 0
M  V30 675 C 68.0765 -0.921084 -1.72556 0
M  V30 676 O 69.2825 -1.15228 -2.45835 0
M  V30 677 C 67.7385 -3.40072 -1.17808 0
M  V30 678 C 67.3465 -4.47843 -0.118633 0
M  V30 679 C 69.0905 -3.8307 -1.82915 0
M  V30 680 C 66.9975 -5.87529 -0.675578 0
M  V30 681 H 65.9275 -0.714653 -0.24039 0
M  V30 682 H 68.5785 -1.83175 0.109148 0
M  V30 683 H 66.9605 -3.43364 -1.97274 0
M  V30 684 H 68.1345 -4.56128 0.654494 0
M  V30 685 H 66.4495 -4.14128 0.434414 0
M  V30 686 H 69.0465 -4.84794 -2.25563 0
M  V30 687 H 69.3895 -3.1881 -2.67705 0
M  V30 688 H 69.9225 -3.82255 -1.10119 0
M  V30 689 H 66.6615 -6.55362 0.134475 0
M  V30 690 H 66.1815 -5.82824 -1.4169 0
M  V30 691 H 67.8605 -6.36491 -1.1614 0
M  V30 692 N 67.9926 0.231505 -1.5589 0
M  V30 693 C 68.9226 1.29022 -1.94617 0
M  V30 694 C 69.9036 1.4941 -0.813067 0
M  V30 695 O 71.0886 1.6176 -1.07459 0
M  V30 696 C 68.2186 2.64199 -2.25424 0
M  V30 697 C 67.1726 2.58484 -3.41131 0
M  V30 698 C 66.4986 3.97599 -3.57518 0
M  V30 699 C 67.7986 2.1413 -4.76388 0
M  V30 700 H 69.4926 0.968563 -2.83301 0
M  V30 701 H 67.0386 0.464479 -1.36303 0
M  V30 702 H 68.9916 3.38413 -2.51107 0
M  V30 703 H 67.7156 2.98032 -1.33583 0
M  V30 704 H 66.3746 1.86727 -3.15481 0
M  V30 705 H 66.0226 4.28723 -2.6307 0
M  V30 706 H 65.7226 3.94659 -4.35337 0
M  V30 707 H 67.2466 4.7349 -3.85538 0
M  V30 708 H 68.6606 2.78083 -5.01341 0
M  V30 709 H 67.0576 2.2227 -5.57419 0
M  V30 710 H 68.1276 1.09331 -4.72414 0
M  V30 711 N 69.4707 1.49531 0.497807 0
M  V30 712 C 70.4337 1.65916 1.58128 0
M  V30 713 C 71.4337 0.530825 1.51786 0
M  V30 714 O 72.6237 0.797342 1.54881 0
M  V30 715 C 69.7557 1.65951 2.9778 0
M  V30 716 H 70.9487 2.62556 1.44929 0
M  V30 717 H 68.5017 1.38611 0.722275 0
M  V30 718 H 69.2367 0.709065 3.16453 0
M  V30 719 H 69.0217 2.47897 3.03792 0
M  V30 720 H 70.5117 1.80673 3.76493 0
M  V30 721 N 70.9488 -0.749086 1.3866 0
M  V30 722 C 72.1768 -1.53834 1.38358 0
M  V30 723 C 72.5918 -1.88783 -0.0255219 0
M  V30 724 O 71.9488 -1.53101 -0.993292 0
M  V30 725 C 71.9998 -2.83468 2.2434 0
M  V30 726 O 71.7208 -2.50008 3.5976 0
M  V30 727 C 73.2218 -3.7758 2.32267 0
M  V30 728 H 70.4418 -0.47585 0.473083 0
M  V30 729 H 72.9858 -0.926726 1.82297 0
M  V30 730 H 71.1408 -3.40995 1.83851 0
M  V30 731 H 71.5548 -3.33182 4.05081 0
M  V30 732 H 73.0288 -4.65478 2.96706 0
M  V30 733 H 73.5058 -4.18334 1.33765 0
M  V30 734 H 74.1118 -3.25976 2.73166 0
M  V30 735 N 72.4269 -1.23603 -0.977757 0
M  V30 736 C 73.7039 -0.977897 -1.69401 0
M  V30 737 C 74.0839 0.502738 -2.05026 0
M  V30 738 O 73.4319 1.47459 -1.74551 0
M  V30 739 C 73.6419 -1.89077 -2.93345 0
M  V30 740 C 74.9899 -2.15579 -3.65802 0
M  V30 741 O 76.0139 -1.86648 -3.03383 0
M  V30 742 O 74.8729 -2.64658 -4.78141 0
M  V30 743 H 71.9669 -0.369025 -0.740101 0
M  V30 744 H 74.5129 -1.34657 -1.03274 0
M  V30 745 H 73.2849 -2.89158 -2.63634 0
M  V30 746 H 72.9079 -1.52463 -3.67207 0
M  V30 747 N 73.905 1.17692 -1.04816 0
M  V30 748 C 75.151 1.88137 -0.75711 0
M  V30 749 C 75.484 1.80604 0.713841 0
M  V30 750 O 74.759 1.21146 1.52164 0
M  V30 751 C 75.042 3.38318 -1.2334 0
M  V30 752 C 74.895 3.54622 -2.76701 0
M  V30 753 C 76.214 4.32214 -0.829415 0
M  V30 754 H 73.333 0.683163 -0.27651 0
M  V30 755 H 75.975 1.38424 -1.30149 0
M  V30 756 H 74.125 3.80787 -0.770286 0
M  V30 757 H 75.797 3.21194 -3.31107 0
M  V30 758 H 74.04 2.97026 -3.16161 0
M  V30 759 H 74.711 4.60028 -3.05088 0
M  V30 760 H 77.187 3.97565 -1.22805 0
M  V30 761 H 76.063 5.35838 -1.19033 0
M  V30 762 H 76.324 4.41294 0.266891 0
M  V30 763 N 75.3831 0.828654 1.34056 0
M  V30 764 C 76.3461 0.259927 2.27721 0
M  V30 765 C 77.3461 -0.565478 1.50529 0
M  V30 766 O 78.5361 -0.38075 1.69988 0
M  V30 767 C 75.6681 -0.634944 3.34935 0
M  V30 768 H 76.8611 1.0863 2.79534 0
M  V30 769 H 74.4141 0.600951 1.44285 0
M  V30 770 H 75.1491 -1.48416 2.88346 0
M  V30 771 H 74.9341 -0.0444999 3.92075 0
M  V30 772 H 76.4241 -1.02648 4.04788 0
M  V30 773 N 76.8612 -1.46375 0.584142 0
M  V30 774 C 78.2722 -1.86031 0.157959 0
M  V30 775 C 78.6232 -1.48753 -1.27933 0
M  V30 776 O 77.7482 -0.903098 -1.96655 0
M  V30 777 C 78.3432 -3.37642 0.279892 0
M  V30 778 C 76.9022 -3.76289 -0.09143 0
M  V30 779 C 76.0492 -2.7039 0.615178 0
M  V30 780 H 79.0002 -1.37509 0.792274 0
M  V30 781 H 79.0212 -3.77275 -0.494364 0
M  V30 782 H 78.5332 -3.64742 1.32607 0
M  V30 783 H 76.6342 -3.54806 -1.13769 0
M  V30 784 H 76.7472 -4.78246 0.285886 0
M  V30 785 H 75.1112 -2.5464 0.0552833 0
M  V30 786 H 75.8942 -3.0033 1.66303 0
M  V30 787 N 78.3393 -0.321999 -1.54275 0
M  V30 788 C 79.2693 0.537411 -2.27231 0
M  V30 789 C 80.2503 1.12064 -1.27968 0
M  V30 790 O 81.4353 1.14606 -1.56777 0
M  V30 791 C 78.5653 1.69919 -3.02894 0
M  V30 792 C 77.5193 1.24534 -4.09482 0
M  V30 793 C 76.8453 2.49394 -4.72977 0
M  V30 794 C 78.1453 0.361335 -5.21049 0
M  V30 795 H 79.8393 -0.0711406 -2.99315 0
M  V30 796 H 77.3853 -0.0356555 -1.43956 0
M  V30 797 H 79.3383 2.30668 -3.52662 0
M  V30 798 H 78.0623 2.33431 -2.28424 0
M  V30 799 H 76.7213 0.660782 -3.60596 0
M  V30 800 H 76.3693 3.11265 -3.95124 0
M  V30 801 H 76.0693 2.19718 -5.44975 0
M  V30 802 H 77.5933 3.10908 -5.25517 0
M  V30 803 H 79.0073 0.875072 -5.66582 0
M  V30 804 H 77.4043 0.157428 -5.99893 0
M  V30 805 H 78.4743 -0.60822 -4.8107 0
M  V30 806 N 79.8174 1.5752 -0.0501392 0
M  V30 807 C 81.0644 1.9265 0.623874 0
M  V30 808 C 81.3924 0.928411 1.70912 0
M  V30 809 O 80.6474 -0.0594525 1.9561 0
M  V30 810 C 80.9464 3.34467 1.25963 0
M  V30 811 C 80.6124 4.49883 0.302689 0
M  V30 812 C 79.2744 4.81184 0.0393636 0
M  V30 813 C 81.6264 5.20002 -0.353205 0
M  V30 814 C 78.9544 5.79951 -0.887308 0
M  V30 815 C 81.3064 6.1976 -1.26806 0
M  V30 816 C 79.9704 6.49491 -1.54007 0
M  V30 817 H 79.2404 0.704957 0.228292 0
M  V30 818 H 81.8874 1.91146 -0.116398 0
M  V30 819 H 80.1924 3.32333 2.07514 0
M  V30 820 H 81.8894 3.58928 1.78806 0
M  V30 821 H 78.4794 4.25457 0.518109 0
M  V30 822 H 82.6634 4.96033 -0.162854 0
M  V30 823 H 77.9194 6.01322 -1.10553 0
M  V30 824 H 82.0934 6.73205 -1.78236 0
M  V30 825 H 79.7204 7.25837 -2.25976 0
M  V30 826 N 81.2955 -0.223234 1.56011 0
M  V30 827 C 82.7065 -0.790368 1.69145 0
M  V30 828 C 83.0575 -1.85055 0.651845 0
M  V30 829 O 82.1825 -2.15498 -0.197359 0
M  V30 830 C 82.7775 -1.4404 3.06656 0
M  V30 831 C 81.3365 -1.95494 3.2165 0
M  V30 832 C 80.4835 -0.814506 2.65068 0
M  V30 833 H 83.4345 0.00139011 1.587 0
M  V30 834 H 83.4555 -2.30916 3.0242 0
M  V30 835 H 82.9675 -0.668543 3.82298 0
M  V30 836 H 81.0685 -2.75487 2.50874 0
M  V30 837 H 81.1815 -2.13607 4.28846 0
M  V30 838 H 79.5455 -1.22137 2.23505 0
M  V30 839 H 80.3285 -0.0553515 3.43255 0
M  V30 840 N 82.7736 -1.49793 -0.48987 0
M  V30 841 C 83.7366 -1.66752 -1.57246 0
M  V30 842 C 84.7366 -0.538867 -1.51502 0
M  V30 843 O 85.9266 -0.805545 -1.54456 0
M  V30 844 C 83.0586 -1.67528 -2.96896 0
M  V30 845 H 84.2516 -2.63321 -1.43534 0
M  V30 846 H 81.8046 -1.38992 -0.714914 0
M  V30 847 H 82.5396 -0.725837 -3.16073 0
M  V30 848 H 82.3246 -2.49504 -3.02473 0
M  V30 849 H 83.8146 -1.82667 -3.7553 0
M  V30 850 N 84.2517 0.741722 -1.39055 0
M  V30 851 C 85.4997 1.49818 -1.35643 0
M  V30 852 C 85.8207 1.94938 0.0491642 0
M  V30 853 O 85.0907 1.68505 0.999141 0
M  V30 854 H 83.6707 0.555755 -0.499144 0
M  V30 855 H 86.3327 0.880957 -1.73854 0
M  V30 856 H 85.4287 2.38348 -2.01486 0
M  V30 857 N 85.7298 1.2412 0.971189 0
M  V30 858 C 86.9578 1.10575 1.74874 0
M  V30 859 C 87.3728 -0.342017 1.85676 0
M  V30 860 O 86.7298 -1.23617 1.34258 0
M  V30 861 C 86.7808 1.73579 3.171 0
M  V30 862 O 86.5018 3.12695 3.06844 0
M  V30 863 C 88.0028 1.65598 4.11208 0
M  V30 864 H 85.2228 0.386504 0.548503 0
M  V30 865 H 87.7668 1.64156 1.21955 0
M  V30 866 H 85.9218 1.24009 3.67016 0
M  V30 867 H 86.3358 3.43412 3.96445 0
M  V30 868 H 87.8098 2.1437 5.08674 0
M  V30 869 H 88.2868 0.616532 4.34851 0
M  V30 870 H 88.8928 2.14578 3.67201 0
M  V30 871 N 87.2079 -1.17134 1.05439 0
M  V30 872 C 88.4329 -1.91913 0.786396 0
M  V30 873 C 88.8579 -1.7643 -0.652234 0
M  V30 874 O 88.2159 -1.08372 -1.45345 0
M  V30 875 C 88.2639 -3.40921 1.17497 0
M  V30 876 O 87.3679 -4.11244 0.308589 0
M  V30 877 H 86.7089 -0.598215 0.288158 0
M  V30 878 H 89.2389 -1.48457 1.4079 0
M  V30 879 H 89.2489 -3.91668 1.14281 0
M  V30 880 H 87.9239 -3.5151 2.22292 0
M  V30 881 H 86.5009 -3.70731 0.40157 0
M  V30 882 N 88.686 -0.835752 -1.33615 0
M  V30 883 C 89.911 -0.442389 -2.02627 0
M  V30 884 C 90.336 0.947735 -1.62479 0
M  V30 885 O 89.694 1.61907 -0.815826 0
M  V30 886 C 89.742 -0.567216 -3.56111 0
M  V30 887 O 88.846 0.407799 -4.10379 0
M  V30 888 H 88.187 -0.180278 -0.639059 0
M  V30 889 H 90.717 -1.12972 -1.70583 0
M  V30 890 H 90.727 -0.447708 -4.05536 0
M  V30 891 H 89.402 -1.58103 -3.84677 0
M  V30 892 H 87.979 0.246107 -3.72087 0
M  V30 893 N 90.1641 1.46063 -0.591896 0
M  V30 894 C 91.3921 2.06717 -0.0868936 0
M  V30 895 C 91.8071 1.43916 1.22203 0
M  V30 896 O 91.1641 0.547698 1.74088 0
M  V30 897 C 91.2151 3.6142 0.0758725 0
M  V30 898 O 90.9361 4.21874 -1.18126 0
M  V30 899 C 92.4371 4.39025 0.61416 0
M  V30 900 H 89.6571 0.668162 -0.0616518 0
M  V30 901 H 92.2011 1.8755 -0.815175 0
M  V30 902 H 90.3561 3.79983 0.754413 0
M  V30 903 H 90.7701 5.14861 -1.00092 0
M  V30 904 H 92.2441 5.4783 0.677193 0
M  V30 905 H 92.7211 4.07708 1.63312 0
M  V30 906 H 93.3271 4.2529 -0.0298142 0
M  V30 907 N 91.6422 0.330177 1.54103 0
M  V30 908 C 92.9192 -0.325007 1.92881 0
M  V30 909 C 93.2992 -1.6934 1.26045 0
M  V30 910 O 92.6472 -2.24855 0.406526 0
M  V30 911 C 92.8572 -0.410634 3.46576 0
M  V30 912 C 94.2052 -0.667801 4.19316 0
M  V30 913 O 95.2292 -0.49329 3.52768 0
M  V30 914 O 94.0882 -1.00491 5.37181 0
M  V30 915 H 91.1822 -0.186873 0.80561 0
M  V30 916 H 93.7282 0.380376 1.65382 0
M  V30 917 H 92.5002 0.550164 3.87413 0
M  V30 918 H 92.1232 -1.16333 3.802 0
M  V30 919 N 93.1203 -1.57491 0.0584922 0
M  V30 920 C 94.0503 -2.14988 -0.911178 0
M  V30 921 C 95.0313 -1.07343 -1.31952 0
M  V30 922 O 96.2163 -1.35318 -1.39294 0
M  V30 923 C 93.3463 -2.70078 -2.18347 0
M  V30 924 C 92.3003 -3.82771 -1.91495 0
M  V30 925 C 91.6263 -4.24408 -3.25241 0
M  V30 926 C 92.9263 -5.07592 -1.23075 0
M  V30 927 H 94.6203 -2.96263 -0.432246 0
M  V30 928 H 92.1663 -1.42512 -0.206469 0
M  V30 929 H 94.1193 -3.08943 -2.86587 0
M  V30 930 H 92.8433 -1.86005 -2.68458 0
M  V30 931 H 91.5023 -3.44389 -1.25664 0
M  V30 932 H 91.1503 -3.37275 -3.73168 0
M  V30 933 H 90.8503 -5.00366 -3.08071 0
M  V30 934 H 92.3743 -4.65879 -3.94701 0
M  V30 935 H 93.7883 -5.43857 -1.81362 0
M  V30 936 H 92.1853 -5.88741 -1.16207 0
M  V30 937 H 93.2553 -4.84454 -0.207847 0
M  V30 938 N 94.5984 0.214957 -1.56127 0
M  V30 939 C 96.0094 0.781386 -1.69562 0
M  V30 940 C 96.3604 1.84707 -0.66165 0
M  V30 941 O 95.4854 2.156 0.185927 0
M  V30 942 C 96.0804 1.42411 -3.07416 0
M  V30 943 C 94.6394 1.93786 -3.22683 0
M  V30 944 C 93.7864 0.800438 -2.65496 0
M  V30 945 H 96.7374 -0.00980633 -1.58697 0
M  V30 946 H 96.7584 2.29309 -3.0364 0
M  V30 947 H 96.2704 0.64826 -3.82648 0
M  V30 948 H 94.3714 2.74152 -2.52332 0
M  V30 949 H 94.4844 2.1133 -4.29973 0
M  V30 950 H 92.8484 1.2095 -2.2415 0
M  V30 951 H 93.6314 0.0371471 -3.4328 0
M  V30 952 N 96.0765 1.50051 0.48192 0
M  V30 953 C 97.3245 1.60181 1.23234 0
M  V30 954 C 97.6455 0.299176 1.92691 0
M  V30 955 O 96.9155 -0.682708 1.83619 0
M  V30 956 H 95.4955 0.590232 0.457859 0
M  V30 957 H 98.1575 1.86775 0.556881 0
M  V30 958 H 97.2535 2.40753 1.98607 0
M  V30 959 N 97.5546 -0.734337 1.39446 0
M  V30 960 C 98.4866 -1.85861 1.34121 0
M  V30 961 C 99.4996 -1.60871 0.249864 0
M  V30 962 O 100.689 -1.71093 0.508865 0
M  V30 963 C 97.7886 -3.21899 1.05991 0
M  V30 964 C 96.9616 -3.74239 2.26415 0
M  V30 965 C 96.0206 -4.88841 1.94733 0
M  V30 966 O 95.0466 -5.02468 2.67422 0
M  V30 967 N 96.2486 -5.73261 0.913884 0
M  V30 968 H 99.0136 -1.90934 2.31007 0
M  V30 969 H 96.5746 -0.915102 1.33557 0
M  V30 970 H 98.5666 -3.96136 0.828147 0
M  V30 971 H 97.1366 -3.12091 0.178361 0
M  V30 972 H 96.3566 -2.91347 2.65539 0
M  V30 973 H 97.6446 -4.05942 3.06738 0
M  V30 974 H 97.0426 -5.64842 0.311476 0
M  V30 975 H 95.5996 -6.47563 0.742015 0
M  V30 976 N 99.0327 -1.24633 -0.964593 0
M  V30 977 C 100.261 -1.11501 -1.74285 0
M  V30 978 C 100.676 0.332165 -1.85855 0
M  V30 979 O 100.033 1.22903 -1.34911 0
M  V30 980 C 100.084 -1.75258 -3.16175 0
M  V30 981 O 99.8047 -3.14318 -3.05182 0
M  V30 982 C 101.306 -1.67776 -4.10324 0
M  V30 983 H 98.5257 -0.389407 -0.546446 0
M  V30 984 H 101.07 -1.64801 -1.21083 0
M  V30 985 H 99.2247 -1.25954 -3.66353 0
M  V30 986 H 99.6387 -3.4551 -3.94618 0
M  V30 987 H 101.113 -2.17064 -5.0753 0
M  V30 988 H 101.59 -0.639584 -4.34518 0
M  V30 989 H 102.196 -2.16522 -3.66058 0
M  V30 990 N 100.511 1.16574 -1.06058 0
M  V30 991 C 101.421 2.2452 -0.680282 0
M  V30 992 C 102.437 1.71348 0.302604 0
M  V30 993 O 103.613 2.00822 0.152513 0
M  V30 994 C 100.678 3.46629 -0.0700315 0
M  V30 995 C 99.7388 4.14849 -1.10448 0
M  V30 996 C 98.9718 5.31129 -0.523256 0
M  V30 997 O 99.1948 5.66514 0.664709 0
M  V30 998 O 98.1288 5.88526 -1.26179 0
M  V30 999 H 101.955 2.59355 -1.58015 0
M  V30 1000 H 99.5398 1.24043 -0.832694 0
M  V30 1001 H 101.422 4.20543 0.268667 0
M  V30 1002 H 100.097 3.13573 0.803353 0
M  V30 1003 H 99.0038 3.42916 -1.49532 0
M  V30 1004 H 100.337 4.51954 -1.94931 0
M  V30 1005 N 101.989 0.842826 1.3317 0
M  V30 1006 C 102.952 0.284065 2.27433 0
M  V30 1007 C 103.952 -0.54948 1.5112 0
M  V30 1008 O 105.142 -0.362699 1.70382 0
M  V30 1009 C 102.274 -0.599384 3.35589 0
M  V30 1010 H 103.467 1.11589 2.78366 0
M  V30 1011 H 101.02 0.616221 1.4364 0
M  V30 1012 H 101.755 -1.45349 2.89904 0
M  V30 1013 H 101.54 -0.00291266 3.921 0
M  V30 1014 H 103.03 -0.983488 4.05854 0
M  V30 1015 N 103.467 -1.45747 0.599634 0
M  V30 1016 C 104.414 -2.30467 -0.123849 0
M  V30 1017 C 105.384 -1.41632 -0.86774 0
M  V30 1018 O 106.569 -1.70568 -0.855056 0
M  V30 1019 C 103.709 -3.26402 -1.12051 0
M  V30 1020 C 102.822 -4.3034 -0.37832 0
M  V30 1021 C 101.957 -5.13389 -1.364 0
M  V30 1022 C 100.996 -6.09061 -0.609171 0
M  V30 1023 N 100.133 -6.84918 -1.54374 0
M  V30 1024 H 104.973 -2.91802 0.604627 0
M  V30 1025 H 102.51 -1.43797 0.309972 0
M  V30 1026 H 104.468 -3.80482 -1.7114 0
M  V30 1027 H 103.098 -2.66839 -1.8165 0
M  V30 1028 H 102.15 -3.78984 0.327929 0
M  V30 1029 H 103.462 -4.98354 0.210997 0
M  V30 1030 H 102.616 -5.7183 -2.02719 0
M  V30 1031 H 101.355 -4.45376 -1.98725 0
M  V30 1032 H 100.36 -5.49758 0.0676979 0
M  V30 1033 H 101.585 -6.79099 0.00891991 0
M  V30 1034 H 99.531 -6.19601 -2.15478 0
M  V30 1035 H 99.448 -7.49254 -1.00766 0
M  V30 1036 H 100.716 -7.47906 -2.19676 0
M  V30 1037 N 104.945 -0.338344 -1.53925 0
M  V30 1038 C 105.908 0.508299 -2.23493 0
M  V30 1039 C 106.908 1.03175 -1.23335 0
M  V30 1040 O 108.098 0.921826 -1.47811 0
M  V30 1041 C 105.23 1.70754 -2.95052 0
M  V30 1042 H 106.423 -0.100058 -2.99733 0
M  V30 1043 H 103.976 -0.0896198 -1.56043 0
M  V30 1044 H 104.711 2.35474 -2.22986 0
M  V30 1045 H 104.496 1.33946 -3.68512 0
M  V30 1046 H 105.986 2.30818 -3.48013 0
M  V30 1047 N 106.423 1.57458 -0.0668435 0
M  V30 1048 C 107.386 2.11323 0.887422 0
M  V30 1049 C 108.386 1.03618 1.22964 0
M  V30 1050 O 109.576 1.29626 1.16373 0
M  V30 1051 C 106.708 2.61048 2.19242 0
M  V30 1052 H 107.901 2.96942 0.420194 0
M  V30 1053 H 105.454 1.55239 0.181793 0
M  V30 1054 H 106.189 1.78868 2.70512 0
M  V30 1055 H 105.974 3.39769 1.95702 0
M  V30 1056 H 107.464 3.02814 2.87565 0
M  V30 1057 N 107.901 -0.206675 1.56239 0
M  V30 1058 C 109.15 -0.926964 1.79138 0
M  V30 1059 C 109.463 -1.84901 0.638043 0
M  V30 1060 O 110.669 -2.60906 0.751033 0
M  V30 1061 C 109.125 -1.6986 3.17294 0
M  V30 1062 C 108.733 -0.821956 4.40395 0
M  V30 1063 C 110.477 -2.40922 3.4951 0
M  V30 1064 C 108.384 -1.59179 5.69575 0
M  V30 1065 H 107.314 -0.349864 0.667915 0
M  V30 1066 H 109.965 -0.180487 1.8261 0
M  V30 1067 H 108.347 -2.48853 3.08039 0
M  V30 1068 H 109.521 -0.0715019 4.60745 0
M  V30 1069 H 107.836 -0.222741 4.15804 0
M  V30 1070 H 110.433 -2.99047 4.43255 0
M  V30 1071 H 110.776 -3.14542 2.72707 0
M  V30 1072 H 111.309 -1.68905 3.60161 0
M  V30 1073 H 108.048 -0.898589 6.49312 0
M  V30 1074 H 107.568 -2.31648 5.53262 0
M  V30 1075 H 109.247 -2.14862 6.10281 0
M  V30 1076 N 109.379 -1.50304 -0.473955 0
M  V30 1077 C 110.625 -1.62358 -1.22521 0
M  V30 1078 C 110.98 -0.318555 -1.89745 0
M  V30 1079 O 110.273 0.683315 -1.79001 0
M  V30 1080 C 110.467 -2.73938 -2.29549 0
M  V30 1081 C 110.296 -4.15165 -1.72825 0
M  V30 1082 C 109.066 -4.81604 -1.52924 0
M  V30 1083 C 111.264 -4.99503 -1.22481 0
M  V30 1084 N 109.246 -6.07056 -0.91413 0
M  V30 1085 C 110.617 -6.15655 -0.732743 0
M  V30 1086 C 112.672 -4.85299 -1.11308 0
M  V30 1087 C 111.375 -7.19164 -0.139976 0
M  V30 1088 C 113.401 -5.88982 -0.534258 0
M  V30 1089 C 112.763 -7.0438 -0.0525562 0
M  V30 1090 H 108.862 -0.648286 -0.437321 0
M  V30 1091 H 111.446 -1.87413 -0.527692 0
M  V30 1092 H 109.617 -2.50611 -2.9673 0
M  V30 1093 H 111.349 -2.75366 -2.96573 0
M  V30 1094 H 108.104 -4.3885 -1.78067 0
M  V30 1095 H 108.528 -6.74108 -0.625071 0
M  V30 1096 H 113.17 -3.96369 -1.47144 0
M  V30 1097 H 110.888 -8.07771 0.230591 0
M  V30 1098 H 114.474 -5.80055 -0.450219 0
M  V30 1099 H 113.354 -7.83238 0.388324 0
M  V30 1100 N 110.857 0.726932 -1.39834 0
M  V30 1101 C 112.085 1.51613 -1.40787 0
M  V30 1102 C 112.5 1.88799 -0.00451505 0
M  V30 1103 O 111.857 1.54662 0.968809 0
M  V30 1104 C 111.908 2.79863 -2.28821 0
M  V30 1105 O 111.629 2.44253 -3.63692 0
M  V30 1106 C 113.13 3.73837 -2.38245 0
M  V30 1107 H 110.35 0.468264 -0.480593 0
M  V30 1108 H 112.894 0.897607 -1.83748 0
M  V30 1109 H 111.049 3.38027 -1.89252 0
M  V30 1110 H 111.463 3.26695 -4.1033 0
M  V30 1111 H 112.937 4.60699 -3.04073 0
M  V30 1112 H 113.414 4.16153 -1.40403 0
M  V30 1113 H 114.02 3.21589 -2.78317 0
M  V30 1114 N 112.336 1.25143 0.95797 0
M  V30 1115 C 113.284 1.05019 2.07542 0
M  V30 1116 C 114.278 -0.0178751 1.69391 0
M  V30 1117 O 115.484 0.137472 1.79474 0
M  V30 1118 H 111.859 0.32265 0.679265 0
M  V30 1119 H 113.83 1.99759 2.21673 0
M  V30 1120 C 112.579 0.682074 3.40944 0
M  V30 1121 H 111.902 1.49573 3.70767 0
M  V30 1122 H 113.342 0.580945 4.20001 0
M  V30 1123 C 111.801 -0.611608 3.31302 0
M  V30 1124 O 112.331 -1.65465 3.66038 0
M  V30 1125 N 110.537 -0.595982 2.84423 0
M  V30 1126 H 110.084 0.253192 2.56353 0
M  V30 1127 H 110.042 -1.46173 2.78354 0
M  V30 1128 N 113.814 -1.1601 1.06675 0
M  V30 1129 C 114.747 -2.1947 0.625168 0
M  V30 1130 C 115.725 -1.58699 -0.354041 0
M  V30 1131 O 116.909 -1.86669 -0.262098 0
M  V30 1132 C 114.036 -3.38598 -0.0829593 0
M  V30 1133 C 113.082 -4.1787 0.853611 0
M  V30 1134 S 113.915 -4.81135 2.35094 0
M  V30 1135 C 115.071 -6.03639 1.65441 0
M  V30 1136 H 115.304 -2.56587 1.50168 0
M  V30 1137 H 112.837 -1.26862 0.880078 0
M  V30 1138 H 114.795 -4.07621 -0.485288 0
M  V30 1139 H 113.456 -2.99839 -0.935716 0
M  V30 1140 H 112.649 -5.03078 0.304755 0
M  V30 1141 H 112.251 -3.54361 1.196 0
M  V30 1142 H 114.543 -6.70632 0.962201 0
M  V30 1143 H 115.486 -6.63081 2.48454 0
M  V30 1144 H 115.894 -5.52965 1.13534 0
M  V30 1145 N 115.292 -0.849877 -1.32721 0
M  V30 1146 C 116.255 -0.296122 -2.27279 0
M  V30 1147 C 117.255 0.541458 -1.5141 0
M  V30 1148 O 118.445 0.353658 -1.70572 0
M  V30 1149 C 115.577 0.581579 -3.35902 0
M  V30 1150 H 116.77 -1.13064 -2.77771 0
M  V30 1151 H 114.323 -0.62383 -1.43311 0
M  V30 1152 H 115.058 1.43809 -2.9067 0
M  V30 1153 H 114.843 -0.0178814 -3.92096 0
M  V30 1154 H 116.333 0.961951 -4.0637 0
M  V30 1155 N 116.77 1.45427 -0.607355 0
M  V30 1156 C 118.047 1.9557 -0.0344566 0
M  V30 1157 C 118.427 1.54979 1.43334 0
M  V30 1158 O 117.775 0.812241 2.13576 0
M  V30 1159 C 117.985 3.48226 -0.232321 0
M  V30 1160 C 119.333 4.2445 -0.113001 0
M  V30 1161 O 120.357 3.55829 -0.162431 0
M  V30 1162 O 119.216 5.465 0.00209442 0
M  V30 1163 H 116.31 0.826222 0.0358667 0
M  V30 1164 H 118.856 1.55594 -0.6774 0
M  V30 1165 H 117.628 3.70739 -1.25174 0
M  V30 1166 H 117.251 3.95092 0.445896 0
M  V30 1167 N 118.248 0.346503 1.53744 0
M  V30 1168 C 119.495 -0.249104 2.00962 0
M  V30 1169 C 119.823 -1.5032 1.23426 0
M  V30 1170 O 119.078 -1.93217 0.310761 0
M  V30 1171 C 119.377 -0.605809 3.52228 0
M  V30 1172 C 119.043 0.551747 4.47512 0
M  V30 1173 C 117.705 0.86941 4.73281 0
M  V30 1174 C 120.057 1.32818 5.03993 0
M  V30 1175 C 117.385 1.96582 5.52786 0
M  V30 1176 C 119.737 2.41486 5.84694 0
M  V30 1177 C 118.401 2.73808 6.08757 0
M  V30 1178 H 117.671 -0.0911538 0.735372 0
M  V30 1179 H 120.318 0.475027 1.85515 0
M  V30 1180 H 118.623 -1.4107 3.65522 0
M  V30 1181 H 120.32 -1.07858 3.86222 0
M  V30 1182 H 116.91 0.294102 4.2759 0
M  V30 1183 H 121.094 1.09602 4.84047 0
M  V30 1184 H 116.35 2.22045 5.69654 0
M  V30 1185 H 120.524 3.02078 6.27473 0
M  V30 1186 H 118.151 3.58892 6.7015 0
M  V30 1187 N 119.726 -1.57421 0.075193 0
M  V30 1188 C 120.974 -1.93236 -0.591974 0
M  V30 1189 C 121.295 -0.956241 -1.69944 0
M  V30 1190 O 120.565 -0.00494792 -1.95899 0
M  V30 1191 H 119.145 -0.713355 -0.22166 0
M  V30 1192 H 121.807 -1.9444 0.133848 0
M  V30 1193 H 120.903 -2.95131 -1.01509 0
M  V30 1194 N 121.204 0.198386 -1.56346 0
M  V30 1195 C 122.167 1.22952 -1.93431 0
M  V30 1196 C 123.167 1.38611 -0.815092 0
M  V30 1197 O 124.357 1.36479 -1.08255 0
M  V30 1198 C 121.489 2.59946 -2.20546 0
M  V30 1199 H 122.682 0.912626 -2.85677 0
M  V30 1200 H 120.235 0.43977 -1.49986 0
M  V30 1201 H 120.97 2.96696 -1.30927 0
M  V30 1202 H 120.755 2.49953 -3.02102 0
M  V30 1203 H 122.245 3.3431 -2.50253 0
M  V30 1204 N 122.682 1.50554 0.465978 0
M  V30 1205 C 123.629 1.6979 1.56333 0
M  V30 1206 C 124.599 0.539239 1.57103 0
M  V30 1207 O 125.784 0.770401 1.74555 0
M  V30 1208 C 122.924 1.80273 2.94271 0
M  V30 1209 C 122.037 3.07674 3.0325 0
M  V30 1210 C 121.172 3.08922 4.32135 0
M  V30 1211 C 120.211 4.30755 4.34875 0
M  V30 1212 N 119.348 4.29714 5.55239 0
M  V30 1213 H 124.188 2.63472 1.39235 0
M  V30 1214 H 121.725 1.30602 0.676873 0
M  V30 1215 H 123.683 1.84332 3.74269 0
M  V30 1216 H 122.313 0.900258 3.09992 0
M  V30 1217 H 121.365 3.13062 2.16094 0
M  V30 1218 H 122.677 3.97642 3.01135 0
M  V30 1219 H 121.831 3.11738 5.20485 0
M  V30 1220 H 120.57 2.16792 4.36866 0
M  V30 1221 H 119.575 4.28146 3.44922 0
M  V30 1222 H 120.8 5.24117 4.31831 0
M  V30 1223 H 118.746 3.4044 5.60746 0
M  V30 1224 H 118.663 5.13456 5.54886 0
M  V30 1225 H 119.931 4.36683 6.457 0
M  V30 1226 N 124.16 -0.719506 1.40217 0
M  V30 1227 C 125.408 -1.47641 1.3801 0
M  V30 1228 C 125.729 -1.94992 -0.018145 0
M  V30 1229 O 124.999 -1.70073 -0.972207 0
M  V30 1230 H 123.579 -0.547744 0.507923 0
M  V30 1231 H 126.241 -0.853187 1.75233 0
M  V30 1232 H 125.337 -2.35112 2.05253 0
M  V30 1233 N 125.638 -1.25649 -0.95132 0
M  V30 1234 C 126.585 -1.06323 -2.04851 0
M  V30 1235 C 127.555 0.0286491 -1.66075 0
M  V30 1236 O 128.74 -0.12917 -1.90362 0
M  V30 1237 C 125.88 -0.691529 -3.381 0
M  V30 1238 C 124.993 -1.85861 -3.89974 0
M  V30 1239 C 124.128 -1.43096 -5.11563 0
M  V30 1240 C 123.167 -2.56696 -5.55674 0
M  V30 1241 N 122.304 -2.14684 -6.68472 0
M  V30 1242 H 127.144 -2.00222 -2.20715 0
M  V30 1243 H 124.681 -0.997027 -1.08156 0
M  V30 1244 H 126.639 -0.456963 -4.1469 0
M  V30 1245 H 125.269 0.210474 -3.22113 0
M  V30 1246 H 124.321 -2.20639 -3.09875 0
M  V30 1247 H 125.633 -2.71161 -4.18657 0
M  V30 1248 H 124.787 -1.15624 -5.9558 0
M  V30 1249 H 123.526 -0.548722 -4.84603 0
M  V30 1250 H 122.531 -2.84909 -4.7022 0
M  V30 1251 H 123.756 -3.45503 -5.8464 0
M  V30 1252 H 121.702 -1.28881 -6.43215 0
M  V30 1253 H 121.619 -2.9353 -6.96689 0
M  V30 1254 H 122.887 -1.90397 -7.5589 0
M  V30 1255 N 127.117 1.15442 -1.07289 0
M  V30 1256 C 128.08 2.18358 -0.696591 0
M  V30 1257 C 129.08 1.58637 0.262837 0
M  V30 1258 O 130.27 1.74145 0.0438809 0
M  V30 1259 C 127.402 3.4089 -0.0266151 0
M  V30 1260 H 128.595 2.53162 -1.60776 0
M  V30 1261 H 126.148 1.29893 -0.869342 0
M  V30 1262 H 126.883 3.11653 0.896822 0
M  V30 1263 H 126.668 3.85495 -0.716657 0
M  V30 1264 H 128.158 4.17009 0.222028 0
M  V30 1265 N 128.595 0.856903 1.32268 0
M  V30 1266 C 129.528 0.247937 2.26849 0
M  V30 1267 C 130.506 -0.615382 1.50505 0
M  V30 1268 O 131.69 -0.571689 1.79622 0
M  V30 1269 C 128.817 -0.650093 3.32403 0
M  V30 1270 C 127.863 0.140138 4.2627 0
M  V30 1271 S 128.696 1.51004 5.13769 0
M  V30 1272 C 129.852 0.61778 6.22844 0
M  V30 1273 H 130.085 1.04971 2.78152 0
M  V30 1274 H 127.618 0.654665 1.39834 0
M  V30 1275 H 129.576 -1.16256 3.93694 0
M  V30 1276 H 128.237 -1.4257 2.7988 0
M  V30 1277 H 127.43 -0.543945 5.01056 0
M  V30 1278 H 127.032 0.584267 3.69408 0
M  V30 1279 H 129.324 -0.177053 6.77269 0
M  V30 1280 H 130.267 1.33636 6.95375 0
M  V30 1281 H 130.675 0.191124 5.64176 0
M  V30 1282 N 130.073 -1.45103 0.615059 0
M  V30 1283 C 131.021 -2.32331 -0.111791 0
M  V30 1284 C 132.015 -1.46409 -0.852102 0
M  V30 1285 O 133.221 -1.62849 -0.766821 0
M  V30 1286 H 129.596 -0.749993 -0.0549072 0
M  V30 1287 H 131.567 -2.91407 0.642225 0
M  V30 1288 C 130.316 -3.3015 -1.09071 0
M  V30 1289 H 129.639 -3.96265 -0.530485 0
M  V30 1290 H 131.079 -3.93898 -1.56908 0
M  V30 1291 C 129.538 -2.57875 -2.168 0
M  V30 1292 O 130.068 -2.36567 -3.24652 0
M  V30 1293 N 128.274 -2.17884 -1.92289 0
M  V30 1294 H 127.821 -2.35413 -1.04587 0
M  V30 1295 H 127.779 -1.6985 -2.64572 0
M  V30 1296 N 131.551 -0.354651 -1.53558 0
M  V30 1297 C 132.828 0.294281 -1.93374 0
M  V30 1298 C 133.208 1.67313 -1.28723 0
M  V30 1299 O 132.556 2.24179 -0.442247 0
M  V30 1300 C 132.766 0.355445 -3.47185 0
M  V30 1301 C 134.114 0.601007 -4.20325 0
M  V30 1302 O 135.138 0.437106 -3.53508 0
M  V30 1303 O 133.997 0.919322 -5.38712 0
M  V30 1304 H 131.091 0.174033 -0.808481 0
M  V30 1305 H 133.637 -0.406638 -1.64756 0
M  V30 1306 H 132.409 -0.611729 -3.86489 0
M  V30 1307 H 132.032 1.1027 -3.82003 0
M  V30 1308 N 133.029 1.57378 -0.0835403 0
M  V30 1309 C 133.992 2.12252 0.864959 0
M  V30 1310 C 134.992 1.04916 1.21858 0
M  V30 1311 O 136.182 1.30853 1.14991 0
M  V30 1312 C 133.314 2.63358 2.16461 0
M  V30 1313 H 134.507 2.97371 0.388676 0
M  V30 1314 H 132.06 1.55423 0.165317 0
M  V30 1315 H 132.795 1.81727 2.686 0
M  V30 1316 H 132.58 3.41826 1.92087 0
M  V30 1317 H 134.07 3.05847 2.84337 0
M  V30 1318 N 134.507 -0.190092 1.56449 0
M  V30 1319 C 135.755 -0.907908 1.80559 0
M  V30 1320 C 136.076 -1.83583 0.657438 0
M  V30 1321 O 135.346 -1.93203 -0.323924 0
M  V30 1322 H 133.926 -0.338247 0.666032 0
M  V30 1323 H 136.588 -0.194403 1.93928 0
M  V30 1324 H 135.684 -1.49604 2.73907 0
M  V30 1325 N 135.985 -1.50799 -0.457987 0
M  V30 1326 C 136.948 -1.7005 -1.53674 0
M  V30 1327 C 137.948 -0.570881 -1.50325 0
M  V30 1328 O 139.138 -0.838126 -1.52712 0
M  V30 1329 C 136.27 -1.73788 -2.93276 0
M  V30 1330 H 137.463 -2.66306 -1.37917 0
M  V30 1331 H 135.016 -1.40477 -0.685271 0
M  V30 1332 H 135.751 -0.792717 -3.14462 0
M  V30 1333 H 135.536 -2.55864 -2.97113 0
M  V30 1334 H 137.026 -1.90591 -3.71571 0
M  V30 1335 N 137.463 0.71206 -1.40597 0
M  V30 1336 C 138.373 1.8562 -1.43466 0
M  V30 1337 C 139.389 1.70902 -0.326902 0
M  V30 1338 O 140.565 1.93105 -0.572043 0
M  V30 1339 C 137.63 3.21451 -1.29884 0
M  V30 1340 C 136.691 3.48398 -2.50833 0
M  V30 1341 C 135.924 4.77749 -2.3789 0
M  V30 1342 O 136.147 5.53089 -1.39459 0
M  V30 1343 O 135.081 5.05111 -3.27333 0
M  V30 1344 H 138.907 1.86155 -2.39958 0
M  V30 1345 H 136.492 0.86295 -1.21957 0
M  V30 1346 H 138.374 4.02579 -1.24531 0
M  V30 1347 H 137.049 3.21636 -0.364997 0
M  V30 1348 H 135.956 2.67265 -2.61763 0
M  V30 1349 H 137.289 3.53014 -3.4299 0
M  V30 1350 N 138.941 1.26152 0.944643 0
M  V30 1351 C 140.187 1.11657 1.69294 0
M  V30 1352 C 140.52 -0.339926 1.91202 0
M  V30 1353 O 139.795 -1.24994 1.49019 0
M  V30 1354 C 140.078 1.88236 3.06984 0
M  V30 1355 C 139.931 3.41772 2.92424 0
M  V30 1356 C 141.25 1.67343 4.07043 0
M  V30 1357 H 138.369 0.407004 0.614424 0
M  V30 1358 H 141.011 1.55106 1.09737 0
M  V30 1359 H 139.161 1.51308 3.57824 0
M  V30 1360 H 140.833 3.88433 2.48832 0
M  V30 1361 H 139.076 3.68974 2.28124 0
M  V30 1362 H 139.747 3.90579 3.90067 0
M  V30 1363 H 142.223 1.99509 3.65151 0
M  V30 1364 H 141.099 2.23346 5.01406 0
M  V30 1365 H 141.36 0.617158 4.37771 0
M  V30 1366 N 140.419 -1.14872 1.07899 0
M  V30 1367 C 141.668 -1.85135 0.800499 0
M  V30 1368 C 141.981 -1.83547 -0.676014 0
M  V30 1369 O 143.187 -2.49548 -1.06948 0
M  V30 1370 C 141.643 -3.3231 1.38197 0
M  V30 1371 C 141.251 -3.42329 2.8899 0
M  V30 1372 C 142.995 -4.0772 1.18174 0
M  V30 1373 C 140.902 -4.83684 3.403 0
M  V30 1374 H 139.832 -0.693563 0.29578 0
M  V30 1375 H 142.483 -1.29532 1.29976 0
M  V30 1376 H 140.865 -3.87618 0.810431 0
M  V30 1377 H 142.039 -2.97097 3.52236 0
M  V30 1378 H 140.354 -2.80369 3.07867 0
M  V30 1379 H 142.951 -5.12049 1.5398 0
M  V30 1380 H 143.294 -4.16124 0.12117 0
M  V30 1381 H 143.827 -3.58696 1.71994 0
M  V30 1382 H 140.566 -4.80465 4.45907 0
M  V30 1383 H 140.086 -5.29474 2.81811 0
M  V30 1384 H 141.765 -5.52558 3.36584 0
M  V30 1385 N 141.898 -0.863906 -1.31812 0
M  V30 1386 C 142.861 -0.320212 -2.26952 0
M  V30 1387 C 143.861 0.525369 -1.51975 0
M  V30 1388 O 145.051 0.335547 -1.70938 0
M  V30 1389 C 142.183 0.545919 -3.365 0
M  V30 1390 H 143.376 -1.16004 -2.76556 0
M  V30 1391 H 140.929 -0.638995 -1.42641 0
M  V30 1392 H 141.664 1.40718 -2.92179 0
M  V30 1393 H 141.449 -0.0594674 -3.92055 0
M  V30 1394 H 142.939 0.918796 -4.07367 0
M  V30 1395 N 143.376 1.44774 -0.622745 0
M  V30 1396 C 144.339 2.29069 0.0774015 0
M  V30 1397 C 145.339 1.4059 0.780461 0
M  V30 1398 O 146.529 1.62551 0.626322 0
M  V30 1399 C 143.661 3.21974 1.12006 0
M  V30 1400 H 144.854 2.92459 -0.663901 0
M  V30 1401 H 142.407 1.51548 -0.382486 0
M  V30 1402 H 143.142 2.63417 1.89162 0
M  V30 1403 H 142.927 3.87168 0.619951 0
M  V30 1404 H 144.417 3.85318 1.60995 0
M  V30 1405 N 144.854 0.36279 1.53368 0
M  V30 1406 C 145.817 -0.472679 2.24273 0
M  V30 1407 C 146.817 -1.012 1.24961 0
M  V30 1408 O 148.007 -0.898194 1.49259 0
M  V30 1409 C 145.139 -1.66039 2.97731 0
M  V30 1410 H 146.332 0.14773 2.99536 0
M  V30 1411 H 143.885 0.114434 1.55881 0
M  V30 1412 H 144.62 -2.31896 2.26704 0
M  V30 1413 H 144.405 -1.28066 3.70596 0
M  V30 1414 H 145.895 -2.25252 3.51641 0
M  V30 1415 N 146.332 -1.57332 0.0918853 0
M  V30 1416 C 147.28 -2.15075 -0.885747 0
M  V30 1417 C 148.274 -1.09277 -1.29441 0
M  V30 1418 O 149.48 -1.27627 -1.26931 0
M  V30 1419 H 145.855 -0.687966 -0.303656 0
M  V30 1420 H 147.826 -2.96047 -0.373995 0
M  V30 1421 C 146.575 -2.74325 -2.13638 0
M  V30 1422 H 145.898 -3.55418 -1.8308 0
M  V30 1423 H 147.338 -3.183 -2.80109 0
M  V30 1424 C 145.797 -1.70062 -2.90827 0
M  V30 1425 O 146.327 -1.13763 -3.85254 0
M  V30 1426 N 144.533 -1.40628 -2.54307 0
M  V30 1427 H 144.08 -1.866 -1.7759 0
M  V30 1428 H 144.038 -0.711043 -3.06254 0
M  V30 1429 N 147.81 0.181792 -1.56548 0
M  V30 1430 C 148.773 1.20894 -1.94724 0
M  V30 1431 C 149.773 1.37738 -0.829747 0
M  V30 1432 O 150.963 1.35323 -1.09697 0
M  V30 1433 C 148.095 2.57593 -2.23291 0
M  V30 1434 H 149.288 0.882275 -2.86629 0
M  V30 1435 H 146.841 0.423838 -1.50444 0
M  V30 1436 H 147.576 2.95291 -1.34067 0
M  V30 1437 H 147.361 2.46735 -3.04736 0
M  V30 1438 H 148.851 3.31637 -2.53785 0
M  V30 1439 N 149.288 1.51039 0.449983 0
M  V30 1440 C 150.536 1.62759 1.19808 0
M  V30 1441 C 150.857 0.339981 1.92013 0
M  V30 1442 O 150.127 -0.643606 1.85026 0
M  V30 1443 H 148.707 0.599811 0.445237 0
M  V30 1444 H 151.369 1.87914 0.517138 0
M  V30 1445 H 150.465 2.44911 1.93455 0
M  V30 1446 N 150.766 -0.704594 1.40972 0
M  V30 1447 C 152.043 -1.45847 1.30338 0
M  V30 1448 C 152.423 -2.10973 -0.0732344 0
M  V30 1449 O 151.771 -2.00997 -1.08685 0
M  V30 1450 C 151.981 -2.48525 2.45023 0
M  V30 1451 C 153.329 -3.1404 2.8577 0
M  V30 1452 O 154.353 -2.58848 2.44696 0
M  V30 1453 O 153.212 -4.13981 3.56766 0
M  V30 1454 H 150.306 -0.649092 0.512454 0
M  V30 1455 H 152.852 -0.735836 1.52917 0
M  V30 1456 H 151.624 -1.98994 3.36923 0
M  V30 1457 H 151.247 -3.2831 2.24272 0
M  V30 1458 N 152.244 -1.26651 -0.937939 0
M  V30 1459 C 153.207 -1.08546 -2.01867 0
M  V30 1460 C 154.207 -0.0327327 -1.60767 0
M  V30 1461 O 155.397 -0.276427 -1.71993 0
M  V30 1462 C 152.529 -0.651711 -3.34613 0
M  V30 1463 H 153.722 -2.04502 -2.1936 0
M  V30 1464 H 151.275 -1.09294 -1.11734 0
M  V30 1465 H 152.01 0.309696 -3.22818 0
M  V30 1466 H 151.795 -1.41189 -3.65798 0
M  V30 1467 H 153.285 -0.546973 -4.14002 0
M  V30 1468 N 153.722 1.14298 -1.08507 0
M  V30 1469 C 154.95 1.89219 -0.836876 0
M  V30 1470 C 155.365 1.78638 0.611054 0
M  V30 1471 O 154.722 1.14643 1.41998 0
M  V30 1472 C 154.773 3.39158 -1.25116 0
M  V30 1473 O 154.494 3.49449 -2.64229 0
M  V30 1474 C 155.995 4.31073 -1.03398 0
M  V30 1475 H 153.215 0.599328 -0.301739 0
M  V30 1476 H 155.759 1.44746 -1.44461 0
M  V30 1477 H 153.914 3.81251 -0.687514 0
M  V30 1478 H 154.328 4.42589 -2.81452 0
M  V30 1479 H 155.802 5.34646 -1.37323 0
M  V30 1480 H 156.279 4.3919 0.0289259 0
M  V30 1481 H 156.885 3.94738 -1.58311 0
M  V30 1482 N 155.201 0.870884 1.31352 0
M  V30 1483 C 156.164 0.332243 2.26779 0
M  V30 1484 C 157.164 -0.517302 1.52252 0
M  V30 1485 O 158.354 -0.326477 1.71113 0
M  V30 1486 C 155.486 -0.528066 3.36785 0
M  V30 1487 H 156.679 1.17469 2.75937 0
M  V30 1488 H 154.232 0.64655 1.423 0
M  V30 1489 H 154.967 -1.39167 2.92922 0
M  V30 1490 H 154.752 0.0802582 3.92018 0
M  V30 1491 H 156.242 -0.897179 4.07849 0
M  V30 1492 N 156.679 -1.44442 0.630414 0
M  V30 1493 C 157.926 -2.02052 0.134617 0
M  V30 1494 C 158.254 -1.49576 -1.24327 0
M  V30 1495 O 157.509 -0.669806 -1.83881 0
M  V30 1496 C 157.808 -3.57332 0.0697835 0
M  V30 1497 C 157.474 -4.29058 1.38635 0
M  V30 1498 C 156.136 -4.4837 1.74694 0
M  V30 1499 C 158.488 -4.69872 2.25543 0
M  V30 1500 C 155.816 -5.05756 2.97369 0
M  V30 1501 C 158.168 -5.28616 3.47487 0
M  V30 1502 C 156.832 -5.46147 3.8377 0
M  V30 1503 H 156.102 -0.739361 0.0492598 0
M  V30 1504 H 158.749 -1.73217 0.816586 0
M  V30 1505 H 157.054 -3.85577 -0.695553 0
M  V30 1506 H 158.751 -3.99637 -0.330344 0
M  V30 1507 H 155.341 -4.14357 1.09574 0
M  V30 1508 H 159.525 -4.54666 1.98979 0
M  V30 1509 H 154.781 -5.17515 3.25558 0
M  V30 1510 H 158.955 -5.59192 4.15063 0
M  V30 1511 H 156.582 -5.9038 4.7891 0
M  V30 1512 N 158.157 -0.370918 -1.53173 0
M  V30 1513 C 159.405 0.216673 -2.00935 0
M  V30 1514 C 159.726 1.48845 -1.25977 0
M  V30 1515 O 158.996 1.92286 -0.374551 0
M  V30 1516 H 157.576 0.0830565 -0.742368 0
M  V30 1517 H 160.238 -0.49838 -1.8842 0
M  V30 1518 H 159.334 0.439893 -3.08984 0
M  V30 1519 N 159.635 1.57281 -0.100228 0
M  V30 1520 C 160.598 2.13158 0.842398 0
M  V30 1521 C 161.598 1.06202 1.20738 0
M  V30 1522 O 162.788 1.32066 1.13597 0
M  V30 1523 C 159.92 2.65639 2.13655 0
M  V30 1524 H 161.113 2.97766 0.357114 0
M  V30 1525 H 158.666 1.5559 0.148823 0
M  V30 1526 H 159.401 1.84566 2.66657 0
M  V30 1527 H 159.186 3.43844 1.88451 0
M  V30 1528 H 160.676 3.08846 2.81077 0
M  V30 1529 N 161.113 -0.173488 1.56642 0
M  V30 1530 C 162.076 -1.19859 1.95362 0
M  V30 1531 C 163.076 -1.37296 0.83704 0
M  V30 1532 O 164.266 -1.34739 1.10413 0
M  V30 1533 C 161.398 -2.56405 2.24654 0
M  V30 1534 H 162.591 -0.867062 2.87092 0
M  V30 1535 H 160.144 -0.415853 1.50666 0
M  V30 1536 H 160.879 -2.94576 1.35631 0
M  V30 1537 H 160.664 -2.45115 3.06041 0
M  V30 1538 H 162.154 -3.30287 2.5554 0
M  V30 1539 N 162.591 -1.51276 -0.441967 0
M  V30 1540 C 163.521 -1.752 -1.54361 0
M  V30 1541 C 164.502 -0.601682 -1.59103 0
M  V30 1542 O 165.687 -0.843913 -1.74905 0
M  V30 1543 C 162.817 -1.87282 -2.92477 0
M  V30 1544 C 161.771 -3.02687 -3.02596 0
M  V30 1545 C 161.097 -2.99947 -4.42647 0
M  V30 1546 C 162.397 -4.4273 -2.77106 0
M  V30 1547 H 164.091 -2.67442 -1.34592 0
M  V30 1548 H 161.637 -1.28694 -0.646048 0
M  V30 1549 H 163.59 -2.02602 -3.695 0
M  V30 1550 H 162.314 -0.916844 -3.13467 0
M  V30 1551 H 160.973 -2.87065 -2.28012 0
M  V30 1552 H 160.621 -2.02136 -4.60597 0
M  V30 1553 H 160.321 -3.77439 -4.50348 0
M  V30 1554 H 161.845 -3.17354 -5.2165 0
M  V30 1555 H 163.259 -4.58727 -3.43864 0
M  V30 1556 H 161.656 -5.21893 -2.96222 0
M  V30 1557 H 162.726 -4.53087 -1.72744 0
M  V30 1558 N 164.069 0.697108 -1.41344 0
M  V30 1559 C 165.001 1.8224 -1.39001 0
M  V30 1560 C 166.014 1.60152 -0.292428 0
M  V30 1561 O 167.203 1.69684 -0.554048 0
M  V30 1562 C 164.303 3.18976 -1.14489 0
M  V30 1563 C 163.476 3.68105 -2.36258 0
M  V30 1564 C 162.535 4.83506 -2.07625 0
M  V30 1565 O 161.561 4.95201 -2.8065 0
M  V30 1566 N 162.763 5.70637 -1.06555 0
M  V30 1567 H 165.528 1.84742 -2.35988 0
M  V30 1568 H 163.089 0.87937 -1.35936 0
M  V30 1569 H 165.081 3.93801 -0.932885 0
M  V30 1570 H 163.651 3.11508 -0.261043 0
M  V30 1571 H 162.871 2.84204 -2.7317 0
M  V30 1572 H 164.159 3.97667 -3.17393 0
M  V30 1573 H 163.557 5.63817 -0.461125 0
M  V30 1574 H 162.114 6.45368 -0.913444 0
M  V30 1575 N 165.547 1.27147 0.931209 0
M  V30 1576 C 166.494 1.09568 2.03134 0
M  V30 1577 C 167.464 -0.00222433 1.661 0
M  V30 1578 O 168.649 0.159439 1.90133 0
M  V30 1579 C 165.789 0.745231 3.36957 0
M  V30 1580 C 164.902 1.92041 3.86968 0
M  V30 1581 C 164.037 1.51216 5.09222 0
M  V30 1582 C 163.076 2.65504 5.5152 0
M  V30 1583 N 162.213 2.25291 6.64972 0
M  V30 1584 H 167.053 2.03708 2.17502 0
M  V30 1585 H 164.59 1.01411 1.06556 0
M  V30 1586 H 166.548 0.522878 4.1391 0
M  V30 1587 H 165.178 -0.159202 3.22407 0
M  V30 1588 H 164.23 2.25541 3.06326 0
M  V30 1589 H 165.542 2.77787 4.1429 0
M  V30 1590 H 164.696 1.25084 5.93666 0
M  V30 1591 H 163.435 0.625749 4.83669 0
M  V30 1592 H 162.44 2.92354 4.65628 0
M  V30 1593 H 163.665 3.54761 5.7907 0
M  V30 1594 H 161.611 1.39098 6.41083 0
M  V30 1595 H 161.528 3.04577 6.91931 0
M  V30 1596 H 162.796 2.02398 7.52765 0
M  V30 1597 N 167.025 -1.13721 1.09112 0
M  V30 1598 C 167.955 -2.21148 0.749385 0
M  V30 1599 C 168.936 -1.6792 -0.271475 0
M  V30 1600 O 170.121 -1.93693 -0.140251 0
M  V30 1601 C 167.251 -3.46905 0.165659 0
M  V30 1602 C 166.205 -4.13203 1.11567 0
M  V30 1603 C 165.531 -5.33248 0.393809 0
M  V30 1604 C 166.831 -4.60912 2.45678 0
M  V30 1605 H 168.525 -2.4999 1.64758 0
M  V30 1606 H 166.071 -1.20156 0.793626 0
M  V30 1607 H 168.024 -4.21313 -0.085466 0
M  V30 1608 H 166.748 -3.17449 -0.767714 0
M  V30 1609 H 165.407 -3.40758 1.35202 0
M  V30 1610 H 165.055 -5.00054 -0.543599 0
M  V30 1611 H 164.755 -5.78552 1.02721 0
M  V30 1612 H 166.279 -6.10413 0.150908 0
M  V30 1613 H 167.693 -5.26759 2.26269 0
M  V30 1614 H 166.09 -5.16944 3.04776 0
M  V30 1615 H 167.16 -3.75603 3.06677 0
M  V30 1616 N 168.503 -0.877838 -1.30888 0
M  V30 1617 C 169.751 -0.491723 -1.96027 0
M  V30 1618 C 170.072 0.960827 -1.69685 0
M  V30 1619 O 169.342 1.67462 -1.01654 0
M  V30 1620 H 167.922 -0.17885 -0.725273 0
M  V30 1621 H 170.584 -1.11935 -1.59551 0
M  V30 1622 H 169.68 -0.656016 -3.05128 0
M  V30 1623 N 169.982 1.44106 -0.638065 0
M  V30 1624 C 171.23 2.01579 -0.145043 0
M  V30 1625 C 171.551 1.50496 1.24 0
M  V30 1626 O 170.821 0.711374 1.82527 0
M  V30 1627 H 169.401 0.745282 -0.05063 0
M  V30 1628 H 172.063 1.76516 -0.826327 0
M  V30 1629 H 171.159 3.11877 -0.118039 0
M  V30 1630 N 171.46 0.379036 1.52974 0
M  V30 1631 C 172.688 -0.20679 2.05864 0
M  V30 1632 C 173.103 -1.41356 1.25155 0
M  V30 1633 O 172.46 -1.8009 0.295588 0
M  V30 1634 C 172.511 -0.587045 3.56702 0
M  V30 1635 O 172.232 0.571776 4.34353 0
M  V30 1636 C 173.733 -1.22983 4.25899 0
M  V30 1637 H 170.953 -0.0336123 0.670158 0
M  V30 1638 H 173.497 0.541298 1.97206 0
M  V30 1639 H 171.652 -1.28504 3.65466 0
M  V30 1640 H 172.066 0.261544 5.23847 0
M  V30 1641 H 173.54 -1.44635 5.32715 0
M  V30 1642 H 174.017 -2.19416 3.80465 0
M  V30 1643 H 174.623 -0.572892 4.21424 0
M  V30 1644 N 172.938 -1.57226 0.108567 0
M  V30 1645 C 174.178 -1.96717 -0.555155 0
M  V30 1646 C 174.542 -0.990003 -1.64508 0
M  V30 1647 O 175.743 -1.2739 -2.36696 0
M  V30 1648 C 174.014 -3.40575 -1.08367 0
M  V30 1649 S 175.573 -4.02072 -1.75737 0
M  V30 1650 H 172.391 -0.687638 -0.180762 0
M  V30 1651 H 174.993 -1.94563 0.191172 0
M  V30 1652 H 173.697 -4.0945 -0.279092 0
M  V30 1653 H 173.228 -3.46356 -1.86551 0
M  V30 1654 H 175.243 -3.91977 -3.04251 0
M  V30 1655 N 174.416 0.165178 -1.56732 0
M  V30 1656 C 175.363 1.2044 -1.96883 0
M  V30 1657 C 176.333 1.43664 -0.833657 0
M  V30 1658 O 177.518 1.56302 -1.09427 0
M  V30 1659 C 174.658 2.53727 -2.33916 0
M  V30 1660 C 173.771 2.3783 -3.6064 0
M  V30 1661 C 172.906 3.64026 -3.86857 0
M  V30 1662 C 171.945 3.43088 -5.06909 0
M  V30 1663 N 171.082 4.61369 -5.29229 0
M  V30 1664 H 175.922 0.854996 -2.85471 0
M  V30 1665 H 173.459 0.41076 -1.41249 0
M  V30 1666 H 175.417 3.31419 -2.53411 0
M  V30 1667 H 174.047 2.8665 -1.48431 0
M  V30 1668 H 173.099 1.51282 -3.49024 0
M  V30 1669 H 174.411 2.18308 -4.4849 0
M  V30 1670 H 173.565 4.50152 -4.06753 0
M  V30 1671 H 172.304 3.86533 -2.97394 0
M  V30 1672 H 171.309 2.55349 -4.86906 0
M  V30 1673 H 172.534 3.21997 -5.97909 0
M  V30 1674 H 170.48 4.84084 -4.42718 0
M  V30 1675 H 170.397 4.44783 -6.11313 0
M  V30 1676 H 171.665 5.48761 -5.53608 0
M  V30 1677 N 175.894 1.51508 0.433938 0
M  V30 1678 C 176.857 1.72473 1.50949 0
M  V30 1679 C 177.857 0.594725 1.49398 0
M  V30 1680 O 179.047 0.862315 1.5136 0
M  V30 1681 C 176.179 1.78431 2.90474 0
M  V30 1682 H 177.372 2.68467 1.33662 0
M  V30 1683 H 174.925 1.41549 0.662836 0
M  V30 1684 H 175.66 0.842645 3.13161 0
M  V30 1685 H 175.445 2.60558 2.93005 0
M  V30 1686 H 176.935 1.96479 3.68491 0
M  V30 1687 N 177.372 -0.689602 1.41712 0
M  V30 1688 C 178.612 -1.46184 1.42862 0
M  V30 1689 C 178.976 -1.91962 0.0382204 0
M  V30 1690 O 180.177 -2.68694 -0.0755019 0
M  V30 1691 C 178.448 -2.6371 2.4123 0
M  V30 1692 S 180.007 -3.52768 2.6096 0
M  V30 1693 H 176.825 -0.49947 0.506015 0
M  V30 1694 H 179.427 -0.804107 1.78198 0
M  V30 1695 H 178.131 -2.28293 3.41044 0
M  V30 1696 H 177.662 -3.3437 2.07269 0
M  V30 1697 H 179.677 -4.59146 1.88148 0
M  V30 1698 N 178.85 -1.27639 -0.924453 0
M  V30 1699 C 179.8 -1.07295 -2.01176 0
M  V30 1700 C 180.784 5.77352e-05 -1.609 0
M  V30 1701 O 181.976 -0.218855 -1.75642 0
M  V30 1702 C 179.105 -0.725592 -3.35544 0
M  V30 1703 C 178.191 -1.83691 -3.82254 0
M  V30 1704 N 178.582 -3.07697 -4.01443 0
M  V30 1705 C 176.88 -1.72433 -4.11319 0
M  V30 1706 C 177.581 -3.80037 -4.40394 0
M  V30 1707 N 176.557 -3.0782 -4.48049 0
M  V30 1708 H 180.359 -2.01399 -2.14046 0
M  V30 1709 H 177.873 -1.18401 -1.11153 0
M  V30 1710 H 179.87 -0.560959 -4.13109 0
M  V30 1711 H 178.53 0.207782 -3.24034 0
M  V30 1712 H 179.541 -3.43424 -3.8766 0
M  V30 1713 H 176.218 -0.862005 -4.08504 0
M  V30 1714 H 177.608 -4.86632 -4.63291 0
M  V30 1715 N 180.328 1.1314 -1.09713 0
M  V30 1716 C 181.605 1.80762 -0.747302 0
M  V30 1717 C 181.985 1.96663 0.767265 0
M  V30 1718 O 181.333 1.53706 1.69076 0
M  V30 1719 C 181.543 3.15606 -1.48975 0
M  V30 1720 C 182.891 3.90914 -1.65746 0
M  V30 1721 O 183.915 3.25239 -1.45251 0
M  V30 1722 O 182.774 5.08718 -1.9967 0
M  V30 1723 H 179.868 0.782103 -0.268782 0
M  V30 1724 H 182.414 1.20041 -1.19951 0
M  V30 1725 H 181.186 2.99278 -2.52088 0
M  V30 1726 H 180.809 3.84029 -1.02991 0
M  V30 1727 N 181.806 0.884767 1.30421 0
M  V30 1728 C 183.083 0.423185 1.90967 0
M  V30 1729 C 183.463 -1.09605 1.80416 0
M  V30 1730 O 182.811 -1.93126 1.22125 0
M  V30 1731 C 183.021 0.921056 3.36627 0
M  V30 1732 C 184.369 0.955903 4.137 0
M  V30 1733 O 185.393 0.867706 3.4547 0
M  V30 1734 O 184.252 1.08614 5.35598 0
M  V30 1735 H 181.346 0.129369 0.816819 0
M  V30 1736 H 183.892 0.973653 1.3899 0
M  V30 1737 H 182.664 1.96489 3.3839 0
M  V30 1738 H 182.287 0.349741 3.96059 0
M  V30 1739 N 183.284 -1.43765 0.645699 0
M  V30 1740 C 184.514 -2.05953 0.163318 0
M  V30 1741 C 184.922 -1.48432 -1.17322 0
M  V30 1742 O 184.265 -0.607295 -1.73371 0
M  V30 1743 C 184.327 -3.59499 -0.0103065 0
M  V30 1744 C 183.991 -4.39563 1.25035 0
M  V30 1745 C 184.988 -4.72108 2.17739 0
M  V30 1746 C 182.673 -4.79697 1.48983 0
M  V30 1747 C 184.667 -5.43688 3.3269 0
M  V30 1748 C 182.354 -5.51023 2.64229 0
M  V30 1749 C 183.352 -5.8294 3.55908 0
M  V30 1750 O 183.04 -6.5281 4.69142 0
M  V30 1751 H 182.772 -0.670798 0.0836986 0
M  V30 1752 H 185.326 -1.85384 0.884407 0
M  V30 1753 H 183.556 -3.78613 -0.78669 0
M  V30 1754 H 185.245 -4.03408 -0.449087 0
M  V30 1755 H 186.011 -4.41627 2.00476 0
M  V30 1756 H 181.89 -4.54266 0.785078 0
M  V30 1757 H 185.434 -5.68517 4.04269 0
M  V30 1758 H 181.331 -5.8092 2.81429 0
M  V30 1759 H 182.099 -6.71288 4.6831 0
M  V30 1760 N 184.763 -0.387143 -1.52771 0
M  V30 1761 C 186.179 -0.037007 -1.59557 0
M  V30 1762 C 186.379 1.44801 -1.40124 0
M  V30 1763 O 185.435 2.21227 -1.21716 0
M  V30 1764 C 186.748 -0.512256 -2.96305 0
M  V30 1765 C 188.296 -0.468328 -3.09476 0
M  V30 1766 C 188.771 -0.919731 -4.4867 0
M  V30 1767 N 190.262 -0.875656 -4.54848 0
M  V30 1768 C 190.997 -1.19637 -5.6078 0
M  V30 1769 N 190.493 -1.58745 -6.74368 0
M  V30 1770 N 192.286 -1.11776 -5.50874 0
M  V30 1771 H 184.437 -1.35395 -1.63652 0
M  V30 1772 H 186.7 -0.554818 -0.768688 0
M  V30 1773 H 186.406 -1.54935 -3.15734 0
M  V30 1774 H 186.28 0.089805 -3.77093 0
M  V30 1775 H 188.667 0.559671 -2.89744 0
M  V30 1776 H 188.748 -1.10616 -2.30646 0
M  V30 1777 H 188.392 -1.94595 -4.69143 0
M  V30 1778 H 188.322 -0.258927 -5.25963 0
M  V30 1779 H 190.813 -0.587843 -3.733 0
M  V30 1780 H 191.126 -1.81586 -7.51163 0
M  V30 1781 H 189.471 -1.6263 -6.75705 0
M  V30 1782 H 192.662 -0.811264 -4.61016 0
M  V30 1783 H 192.835 -1.37103 -6.3333 0
M  V30 1784 N 186.241 1.57166 -0.116904 0
M  V30 1785 C 187.151 2.18745 0.847812 0
M  V30 1786 C 188.167 1.163 1.29423 0
M  V30 1787 O 189.343 1.48761 1.35765 0
M  V30 1788 C 186.408 2.77307 2.0809 0
M  V30 1789 C 185.469 3.94781 1.68661 0
M  V30 1790 C 184.702 4.50541 2.86091 0
M  V30 1791 O 184.925 4.05202 4.01456 0
M  V30 1792 O 183.859 5.41256 2.63298 0
M  V30 1793 H 187.685 3.01632 0.353778 0
M  V30 1794 H 185.27 1.49005 0.108599 0
M  V30 1795 H 187.152 3.14647 2.80313 0
M  V30 1796 H 185.827 1.97452 2.56504 0
M  V30 1797 H 184.734 3.62214 0.935518 0
M  V30 1798 H 186.067 4.76065 1.24991 0
M  V30 1799 N 187.719 -0.156864 1.56817 0
M  V30 1800 C 188.629 -1.2136 2.00771 0
M  V30 1801 C 189.645 -1.47598 0.921459 0
M  V30 1802 O 190.821 -1.59462 1.2302 0
M  V30 1803 C 187.886 -2.52943 2.37109 0
M  V30 1804 C 186.947 -2.34439 3.59634 0
M  V30 1805 C 186.18 -3.59748 3.94229 0
M  V30 1806 O 186.403 -4.65526 3.29609 0
M  V30 1807 O 185.337 -3.52998 4.8752 0
M  V30 1808 H 189.163 -0.870468 2.90958 0
M  V30 1809 H 186.748 -0.36484 1.44877 0
M  V30 1810 H 188.63 -3.30538 2.61386 0
M  V30 1811 H 187.305 -2.86806 1.5008 0
M  V30 1812 H 186.212 -1.54828 3.40557 0
M  V30 1813 H 187.545 -2.05496 4.4725 0
M  V30 1814 N 189.197 -1.51736 -0.425897 0
M  V30 1815 C 190.474 -1.55519 -1.1863 0
M  V30 1816 C 190.854 -0.326219 -2.08564 0
M  V30 1817 O 190.202 0.688012 -2.17896 0
M  V30 1818 C 190.412 -2.87521 -1.9782 0
M  V30 1819 C 191.76 -3.39899 -2.54468 0
M  V30 1820 O 192.784 -2.89148 -2.08019 0
M  V30 1821 O 191.643 -4.2848 -3.39215 0
M  V30 1822 H 188.737 -0.625739 -0.540721 0
M  V30 1823 H 191.283 -1.64055 -0.434038 0
M  V30 1824 H 190.055 -3.68422 -1.31836 0
M  V30 1825 H 189.678 -2.822 -2.80088 0
M  V30 1826 O 190.714 0.571711 -1.51042 0
M  V30 1827 H 191.405 1.22676 -1.49901 0
M  V30 END ATOM
M  V30 BEGIN BOND
M  V30 END BOND
M  V30 END CTAB
M  END
$$$$
