drugbank_target|P05023 Sodium/potassium-transporting ATPase subunit alpha-1 (DB00390; DB00511; DB00774; DB00903; DB01021; DB01078; DB01092; DB01119; DB01158; DB01188; DB01244; DB01345; DB01370; DB01378; DB01396; DB01430; DB06157; DB13996; DB14498; DB14499; DB14500; DB14514; DB14515; DB14517; DB14518)
 OpenBabel12092119383D

  0  0  0     0  0            999 V3000
M  V30 BEGIN CTAB
M  V30 COUNTS 15919 16070 0 0 0
M  V30 BEGIN ATOM
M  V30 1 H -0.908 1.98254 -0.117106 0
M  V30 2 N 0 1.576 0 0
M  V30 3 C 0.933 2.03868 1.02534 0
M  V30 4 C 1.911 0.928543 1.3348 0
M  V30 5 O 3.095 1.19667 1.45644 0
M  V30 6 C 0.222 2.43627 2.35294 0
M  V30 7 C -0.732 3.65373 2.2001 0
M  V30 8 S 0.101 5.13292 1.52614 0
M  V30 9 C 1.257 5.56322 2.86805 0
M  V30 10 H 1.49 2.90518 0.631377 0
M  V30 11 H -0.977 1.52953 0.210867 0
M  V30 12 H 0.981 2.67203 3.11629 0
M  V30 13 H -0.358 1.57376 2.7183 0
M  V30 14 H -1.165 3.90944 3.18086 0
M  V30 15 H -1.563 3.418 1.51819 0
M  V30 16 H 0.729 5.58782 3.83104 0
M  V30 17 H 1.672 6.56266 2.65933 0
M  V30 18 H 2.08 4.83886 2.90714 0
M  V30 19 N 1.4781 -0.272755 1.55222 0
M  V30 20 C 2.7261 -1.00234 1.75492 0
M  V30 21 C 3.0471 -1.8681 0.5592 0
M  V30 22 O 2.3171 -1.91215 -0.425882 0
M  V30 23 H 0.8971 -0.373076 0.647166 0
M  V30 24 H 3.5591 -0.296926 1.92625 0
M  V30 25 H 2.6551 -1.63913 2.65592 0
M  V30 26 N 2.9562 -1.48159 -0.537278 0
M  V30 27 C 3.9032 -1.62138 -1.64256 0
M  V30 28 C 4.8732 -0.463668 -1.59497 0
M  V30 29 O 6.0582 -0.686241 -1.78032 0
M  V30 30 C 3.1982 -1.66028 -3.02537 0
M  V30 31 C 2.3112 -2.92855 -3.17585 0
M  V30 32 C 1.4462 -2.87952 -4.46382 0
M  V30 33 C 0.4852 -4.09516 -4.54932 0
M  V30 34 N -0.3778 -4.02733 -5.75109 0
M  V30 35 H 4.4622 -2.56529 -1.51647 0
M  V30 36 H 1.9992 -1.27224 -0.738414 0
M  V30 37 H 3.9572 -1.66265 -3.82638 0
M  V30 38 H 2.5872 -0.751331 -3.13934 0
M  V30 39 H 1.6392 -3.02395 -2.30784 0
M  V30 40 H 2.9512 -3.82822 -3.19764 0
M  V30 41 H 2.1052 -2.8655 -5.34765 0
M  V30 42 H 0.8442 -1.95702 -4.46712 0
M  V30 43 H -0.1508 -4.11201 -3.64957 0
M  V30 44 H 1.0742 -5.02917 -4.56346 0
M  V30 45 H -0.9798 -3.13299 -5.76351 0
M  V30 46 H -1.0628 -4.86397 -5.78752 0
M  V30 47 H 0.2052 -4.05379 -6.65799 0
M  V30 48 N 4.4343 0.785586 -1.36625 0
M  V30 49 C 5.6823 1.54057 -1.30808 0
M  V30 50 C 6.0033 1.94683 0.111157 0
M  V30 51 O 5.2733 1.65241 1.05224 0
M  V30 52 H 3.8533 0.571354 -0.481211 0
M  V30 53 H 6.5153 0.935821 -1.70963 0
M  V30 54 H 5.6113 2.44637 -1.93801 0
M  V30 55 N 5.9124 1.20967 1.01018 0
M  V30 56 C 7.1584 1.02526 1.74975 0
M  V30 57 C 7.4914 -0.4408 1.89131 0
M  V30 58 O 6.7664 -1.32718 1.42184 0
M  V30 59 C 7.0494 1.71699 3.1653 0
M  V30 60 C 6.9024 3.25791 3.10129 0
M  V30 61 C 8.2214 1.45531 4.15342 0
M  V30 62 H 5.3404 0.373863 0.635134 0
M  V30 63 H 7.9824 1.49071 1.17805 0
M  V30 64 H 6.1324 1.32128 3.65341 0
M  V30 65 H 7.8044 3.74697 2.69072 0
M  V30 66 H 6.0474 3.56363 2.47362 0
M  V30 67 H 6.7184 3.69353 4.10222 0
M  V30 68 H 9.1944 1.79872 3.75213 0
M  V30 69 H 8.0704 1.96453 5.1254 0
M  V30 70 H 8.3314 0.384237 4.40427 0
M  V30 71 N 7.3905 -1.2043 1.01659 0
M  V30 72 C 8.6385 -1.89423 0.704522 0
M  V30 73 C 8.9595 -1.79231 -0.768197 0
M  V30 74 O 8.2295 -1.1947 -1.55254 0
M  V30 75 H 6.8095 -0.701178 0.257602 0
M  V30 76 H 9.4715 -1.4626 1.28818 0
M  V30 77 H 8.5675 -2.96052 0.987916 0
M  V30 78 N 8.8686 -0.792821 -1.36206 0
M  V30 79 C 10.2846 -0.474903 -1.52371 0
M  V30 80 C 10.4846 1.00622 -1.74578 0
M  V30 81 O 9.5406 1.79162 -1.77924 0
M  V30 82 C 10.8536 -1.3083 -2.70747 0
M  V30 83 C 12.4016 -1.30234 -2.84619 0
M  V30 84 C 12.8766 -2.11956 -4.06004 0
M  V30 85 N 14.3676 -2.09419 -4.13156 0
M  V30 86 C 15.1026 -2.69419 -5.06163 0
M  V30 87 N 14.5986 -3.3829 -6.04592 0
M  V30 88 N 16.3916 -2.59134 -4.98804 0
M  V30 89 H 8.5426 -1.75222 -1.20046 0
M  V30 90 H 10.8056 -0.745024 -0.586211 0
M  V30 91 H 10.5116 -2.35881 -2.6087 0
M  V30 92 H 10.3856 -0.95196 -3.6499 0
M  V30 93 H 12.7726 -0.259748 -2.93955 0
M  V30 94 H 12.8536 -1.69847 -1.91274 0
M  V30 95 H 12.4976 -3.16248 -3.97429 0
M  V30 96 H 12.4276 -1.69711 -4.98503 0
M  V30 97 H 14.9186 -1.59297 -3.42685 0
M  V30 98 H 15.2316 -3.81394 -6.7213 0
M  V30 99 H 13.5766 -3.42393 -6.04807 0
M  V30 100 H 16.7676 -2.04927 -4.20859 0
M  V30 101 H 16.9406 -3.06185 -5.711 0
M  V30 102 N 10.3467 1.47872 -0.545128 0
M  V30 103 C 11.6237 1.9554 0.0485222 0
M  V30 104 C 12.0037 1.4876 1.49779 0
M  V30 105 O 11.3517 0.720925 2.16829 0
M  V30 106 C 11.5617 3.48898 -0.084417 0
M  V30 107 C 12.9097 4.24547 0.0671239 0
M  V30 108 O 13.9337 3.56198 -0.0113649 0
M  V30 109 O 12.7927 5.45999 0.233882 0
M  V30 110 H 9.8867 0.823957 0.0708773 0
M  V30 111 H 12.4327 1.58327 -0.610798 0
M  V30 112 H 11.2047 3.75714 -1.09337 0
M  V30 113 H 10.8277 3.92845 0.613066 0
M  V30 114 N 11.8248 0.280983 1.55075 0
M  V30 115 C 12.7718 -0.603937 2.22758 0
M  V30 116 C 13.7418 -1.1452 1.20309 0
M  V30 117 O 14.9268 -1.19343 1.48869 0
M  V30 118 C 12.0668 -1.77947 2.95684 0
M  V30 119 C 11.1798 -1.2715 4.12864 0
M  V30 120 C 10.3148 -2.4093 4.7342 0
M  V30 121 C 9.3538 -1.87165 5.82783 0
M  V30 122 N 8.4908 -2.94441 6.37377 0
M  V30 123 H 13.3308 -0.020124 2.97993 0
M  V30 124 H 10.8678 0.00183425 1.471 0
M  V30 125 H 12.8258 -2.47055 3.36184 0
M  V30 126 H 11.4558 -2.33522 2.22861 0
M  V30 127 H 10.5078 -0.473331 3.77444 0
M  V30 128 H 11.8198 -0.837751 4.91715 0
M  V30 129 H 10.9738 -3.18021 5.1667 0
M  V30 130 H 9.7128 -2.87623 3.93859 0
M  V30 131 H 8.7178 -1.08556 5.38976 0
M  V30 132 H 9.9428 -1.41401 6.64216 0
M  V30 133 H 7.8888 -3.40505 5.60707 0
M  V30 134 H 7.8058 -2.55501 7.11516 0
M  V30 135 H 9.0738 -3.71489 6.85285 0
M  V30 136 N 13.3029 -1.57598 0.00835791 0
M  V30 137 C 14.5329 -1.94931 -0.684496 0
M  V30 138 C 14.9409 -0.882233 -1.67372 0
M  V30 139 O 14.2839 0.146621 -1.83114 0
M  V30 140 C 14.3459 -3.283 -1.4649 0
M  V30 141 C 14.0099 -4.52548 -0.63634 0
M  V30 142 C 15.0069 -5.19839 0.0795586 0
M  V30 143 C 12.6919 -4.98942 -0.579849 0
M  V30 144 C 14.6859 -6.3183 0.840843 0
M  V30 145 C 12.3729 -6.10819 0.185155 0
M  V30 146 C 13.3709 -6.77121 0.894227 0
M  V30 147 O 13.0589 -7.86853 1.64673 0
M  V30 148 H 12.7909 -0.647249 -0.19505 0
M  V30 149 H 15.3449 -2.05318 0.0581272 0
M  V30 150 H 13.5749 -3.14345 -2.2522 0
M  V30 151 H 15.2639 -3.50685 -2.04389 0
M  V30 152 H 16.0299 -4.84979 0.0451202 0
M  V30 153 H 11.9089 -4.47155 -1.1213 0
M  V30 154 H 15.4529 -6.83513 1.39483 0
M  V30 155 H 11.3499 -6.4512 0.221384 0
M  V30 156 H 12.1179 -8.03412 1.56432 0
M  V30 157 N 14.781 0.264519 -1.55364 0
M  V30 158 C 15.691 1.34902 -1.91934 0
M  V30 159 C 16.707 1.53595 -0.817593 0
M  V30 160 O 17.883 1.67558 -1.11742 0
M  V30 161 C 14.948 2.68676 -2.19121 0
M  V30 162 C 14.009 2.58657 -3.4263 0
M  V30 163 C 13.242 3.86051 -3.68511 0
M  V30 164 O 13.465 4.87126 -2.96757 0
M  V30 165 O 12.399 3.85744 -4.62045 0
M  V30 166 H 16.225 1.06883 -2.8427 0
M  V30 167 H 13.81 0.463775 -1.42019 0
M  V30 168 H 15.692 3.47759 -2.37995 0
M  V30 169 H 14.367 2.96463 -1.29966 0
M  V30 170 H 13.274 1.7792 -3.29082 0
M  V30 171 H 14.607 2.35818 -4.32031 0
M  V30 172 N 16.2591 1.48442 0.529413 0
M  V30 173 C 17.6701 1.5002 1.11134 0
M  V30 174 C 18.0211 0.27031 1.94329 0
M  V30 175 O 17.1461 -0.622507 2.07253 0
M  V30 176 C 17.7411 2.71834 2.02217 0
M  V30 177 C 16.3001 2.76283 2.55627 0
M  V30 178 C 15.4471 2.43542 1.326 0
M  V30 179 H 18.3981 1.5555 0.314641 0
M  V30 180 H 18.4191 2.50384 2.8651 0
M  V30 181 H 17.9311 3.61331 1.41639 0
M  V30 182 H 16.0321 1.90995 3.19924 0
M  V30 183 H 16.1451 3.77725 2.94721 0
M  V30 184 H 14.5091 1.94709 1.64196 0
M  V30 185 H 15.2921 3.3528 0.737734 0
M  V30 186 N 17.7372 -0.778329 1.37039 0
M  V30 187 C 18.7002 -1.87301 1.32102 0
M  V30 188 C 19.7002 -1.59198 0.226405 0
M  V30 189 O 20.8902 -1.67403 0.481861 0
M  V30 190 C 18.0222 -3.24309 1.05055 0
M  V30 191 H 19.2152 -1.93093 2.29467 0
M  V30 192 H 16.7682 -0.977358 1.21973 0
M  V30 193 H 17.5032 -3.24196 0.0819373 0
M  V30 194 H 17.2882 -3.46098 1.84279 0
M  V30 195 H 18.7782 -4.04382 1.04234 0
M  V30 196 N 19.2153 -1.21501 -1.00376 0
M  V30 197 C 20.1783 -0.976927 -2.07337 0
M  V30 198 C 21.1783 0.0525322 -1.60714 0
M  V30 199 O 22.3683 -0.184869 -1.73216 0
M  V30 200 C 19.5003 -0.473423 -3.37597 0
M  V30 201 H 20.6933 -1.92587 -2.29892 0
M  V30 202 H 18.2463 -1.03217 -1.17371 0
M  V30 203 H 18.9813 0.480379 -3.20722 0
M  V30 204 H 18.7663 -1.216 -3.72768 0
M  V30 205 H 20.2563 -0.32675 -4.1632 0
M  V30 206 N 20.6934 1.19889 -1.02296 0
M  V30 207 C 21.9394 1.89701 -0.717033 0
M  V30 208 C 22.2724 1.7905 0.751989 0
M  V30 209 O 21.5474 1.17891 1.547 0
M  V30 210 C 21.8304 3.40858 -1.16136 0
M  V30 211 C 21.6834 3.60411 -2.69117 0
M  V30 212 C 23.0024 4.33876 -0.737549 0
M  V30 213 H 20.1214 0.688874 -0.261957 0
M  V30 214 H 22.7634 1.41154 -1.27183 0
M  V30 215 H 20.9134 3.82335 -0.689342 0
M  V30 216 H 22.5854 3.28145 -3.2422 0
M  V30 217 H 20.8284 3.03665 -3.0979 0
M  V30 218 H 21.4994 4.66396 -2.95261 0
M  V30 219 H 23.9754 4.00081 -1.14344 0
M  V30 220 H 22.8514 5.38242 -1.0764 0
M  V30 221 H 23.1124 4.40628 0.360436 0
M  V30 222 N 22.1715 0.800033 1.35784 0
M  V30 223 C 23.3965 0.388511 2.03729 0
M  V30 224 C 23.8215 -0.990481 1.5991 0
M  V30 225 O 23.1795 -1.64013 0.772612 0
M  V30 226 C 23.2275 0.4726 3.5749 0
M  V30 227 O 22.3315 -0.51646 4.09153 0
M  V30 228 H 21.6725 0.163271 0.643614 0
M  V30 229 H 24.2025 1.0841 1.73518 0
M  V30 230 H 24.2125 0.34003 4.06581 0
M  V30 231 H 22.8875 1.47848 3.88734 0
M  V30 232 H 21.4645 -0.344673 3.71304 0
M  V30 233 N 23.6496 -1.47581 0.552962 0
M  V30 234 C 24.5596 -2.33743 -0.200353 0
M  V30 235 C 25.5756 -1.47928 -0.916151 0
M  V30 236 O 26.7516 -1.80865 -0.885993 0
M  V30 237 C 23.8166 -3.24536 -1.21973 0
M  V30 238 C 22.8776 -4.26238 -0.511819 0
M  V30 239 C 22.1106 -5.12693 -1.48263 0
M  V30 240 O 22.3336 -5.01525 -2.71714 0
M  V30 241 O 21.2676 -5.93375 -1.00945 0
M  V30 242 H 25.0936 -2.9945 0.506304 0
M  V30 243 H 22.6786 -1.46071 0.313622 0
M  V30 244 H 24.5606 -3.80631 -1.80827 0
M  V30 245 H 23.2356 -2.61462 -1.90839 0
M  V30 246 H 22.1426 -3.73914 0.117799 0
M  V30 247 H 23.4756 -4.92014 0.135308 0
M  V30 248 N 25.1277 -0.289203 -1.54924 0
M  V30 249 C 26.0597 0.625583 -2.20497 0
M  V30 250 C 27.0727 1.10667 -1.19402 0
M  V30 251 O 28.2617 1.02615 -1.46056 0
M  V30 252 C 25.3617 1.86702 -2.82835 0
M  V30 253 C 24.5347 1.5304 -4.09753 0
M  V30 254 C 23.5937 2.62576 -4.56005 0
M  V30 255 O 22.6197 2.28167 -5.21468 0
M  V30 256 N 23.8217 3.92901 -4.27328 0
M  V30 257 H 26.5867 0.0642801 -2.99631 0
M  V30 258 H 24.1477 -0.110896 -1.6152 0
M  V30 259 H 26.1397 2.59304 -3.10715 0
M  V30 260 H 24.7097 2.33702 -2.07611 0
M  V30 261 H 23.9297 0.637564 -3.8901 0
M  V30 262 H 25.2177 1.28072 -4.92418 0
M  V30 263 H 24.6157 4.23671 -3.74859 0
M  V30 264 H 23.1727 4.61837 -4.59946 0
M  V30 265 N 26.6058 1.57591 -0.0167156 0
M  V30 266 C 27.8538 1.90906 0.663285 0
M  V30 267 C 28.1748 0.892509 1.73376 0
M  V30 268 O 27.4448 -0.0677623 1.95783 0
M  V30 269 H 26.0248 0.704637 0.247983 0
M  V30 270 H 28.6868 1.94803 -0.0615909 0
M  V30 271 H 27.7828 2.9116 1.12393 0
M  V30 272 N 28.0839 -0.256276 1.55502 0
M  V30 273 C 29.3609 -1.00789 1.67633 0
M  V30 274 C 29.7409 -2.03706 0.553826 0
M  V30 275 O 29.0889 -2.24145 -0.443969 0
M  V30 276 C 29.2989 -1.64968 3.07549 0
M  V30 277 C 30.6469 -2.15505 3.65845 0
M  V30 278 O 31.6709 -1.74925 3.1029 0
M  V30 279 O 30.5299 -2.89986 4.63217 0
M  V30 280 H 27.6239 -0.468553 0.681459 0
M  V30 281 H 30.1699 -0.250806 1.67836 0
M  V30 282 H 28.9419 -0.904785 3.80696 0
M  V30 283 H 28.5649 -2.47321 3.11317 0
M  V30 284 N 29.562 -1.4872 -0.521534 0
M  V30 285 C 30.509 -1.63871 -1.62527 0
M  V30 286 C 31.479 -0.480559 -1.58996 0
M  V30 287 O 32.664 -0.705085 -1.77294 0
M  V30 288 C 29.804 -1.69227 -3.00759 0
M  V30 289 C 28.917 -2.96207 -3.14461 0
M  V30 290 C 28.052 -2.92671 -4.43303 0
M  V30 291 C 27.091 -4.14318 -4.50563 0
M  V30 292 N 26.228 -4.0881 -5.70805 0
M  V30 293 H 31.068 -2.58123 -1.48918 0
M  V30 294 H 28.605 -1.28 -0.724878 0
M  V30 295 H 30.563 -1.70314 -3.80853 0
M  V30 296 H 29.193 -0.784586 -3.1312 0
M  V30 297 H 28.245 -3.04826 -2.27564 0
M  V30 298 H 29.557 -3.86192 -3.15686 0
M  V30 299 H 28.711 -2.92206 -5.31696 0
M  V30 300 H 27.45 -2.00429 -4.44612 0
M  V30 301 H 26.455 -4.15049 -3.60575 0
M  V30 302 H 27.68 -5.07729 -4.50986 0
M  V30 303 H 25.626 -3.19394 -5.72995 0
M  V30 304 H 25.543 -4.92509 -5.7356 0
M  V30 305 H 26.811 -4.12418 -6.61462 0
M  V30 306 N 31.0401 0.771051 -1.3745 0
M  V30 307 C 31.9871 1.88435 -1.3327 0
M  V30 308 C 32.9571 1.64914 -0.198136 0
M  V30 309 O 34.1421 1.86821 -0.387606 0
M  V30 310 C 31.2821 3.25509 -1.14622 0
M  V30 311 C 30.3951 3.60979 -2.37314 0
M  V30 312 C 29.5301 4.87265 -2.11533 0
M  V30 313 C 28.5691 5.15469 -3.30088 0
M  V30 314 N 27.7061 6.32944 -3.03853 0
M  V30 315 H 32.5461 1.91344 -2.28455 0
M  V30 316 H 30.0831 0.935466 -1.13523 0
M  V30 317 H 32.0411 4.04582 -1.01831 0
M  V30 318 H 30.6711 3.21974 -0.230837 0
M  V30 319 H 29.7231 2.76885 -2.60842 0
M  V30 320 H 31.0351 3.77759 -3.25729 0
M  V30 321 H 30.1891 5.74244 -1.95777 0
M  V30 322 H 28.9281 4.7259 -1.20457 0
M  V30 323 H 27.9331 4.26966 -3.46382 0
M  V30 324 H 29.1581 5.32052 -4.22016 0
M  V30 325 H 27.1041 6.19625 -2.15407 0
M  V30 326 H 27.0211 6.50143 -3.85812 0
M  V30 327 H 28.2891 7.22857 -2.91716 0
M  V30 328 N 32.5182 1.22032 0.997298 0
M  V30 329 C 33.7662 1.04016 1.73278 0
M  V30 330 C 34.0872 -0.426255 1.90284 0
M  V30 331 O 33.3572 -1.30694 1.45931 0
M  V30 332 H 31.9372 0.381897 0.642 0
M  V30 333 H 34.5992 1.5347 1.20137 0
M  V30 334 H 33.6952 1.51441 2.72896 0
M  V30 335 N 33.9963 -1.19345 1.0293 0
M  V30 336 C 34.9433 -2.2258 0.610464 0
M  V30 337 C 35.9133 -1.6179 -0.375946 0
M  V30 338 O 37.0983 -1.88844 -0.272511 0
M  V30 339 C 34.2383 -3.45085 -0.0321473 0
M  V30 340 C 33.3513 -4.20258 1.00035 0
M  V30 341 C 32.4863 -5.3019 0.32746 0
M  V30 342 C 31.5253 -5.97121 1.34584 0
M  V30 343 N 30.6623 -6.98615 0.698726 0
M  V30 344 H 35.5023 -2.57764 1.49538 0
M  V30 345 H 33.0393 -1.26644 0.748311 0
M  V30 346 H 34.9973 -4.15061 -0.421966 0
M  V30 347 H 33.6273 -3.10555 -0.88064 0
M  V30 348 H 32.6793 -3.49223 1.50823 0
M  V30 349 H 33.9913 -4.66175 1.77433 0
M  V30 350 H 33.1453 -6.06587 -0.11718 0
M  V30 351 H 31.8843 -4.85345 -0.478713 0
M  V30 352 H 30.8893 -5.19474 1.80074 0
M  V30 353 H 32.1143 -6.4405 2.15352 0
M  V30 354 H 30.0603 -6.55942 -0.0873471 0
M  V30 355 H 29.9773 -7.42724 1.41058 0
M  V30 356 H 31.2453 -7.79004 0.278102 0
M  V30 357 N 35.4744 -0.807222 -1.35358 0
M  V30 358 C 36.4214 -0.216037 -2.29787 0
M  V30 359 C 37.3914 0.650278 -1.52842 0
M  V30 360 O 38.5764 0.595227 -1.81278 0
M  V30 361 C 35.7164 0.628893 -3.39321 0
M  V30 362 C 34.8294 -0.257927 -4.31229 0
M  V30 363 C 33.9644 0.595069 -5.27856 0
M  V30 364 C 33.0034 -0.292111 -6.11403 0
M  V30 365 N 32.1404 0.520895 -7.00165 0
M  V30 366 H 36.9804 -1.02671 -2.79755 0
M  V30 367 H 34.5174 -0.517839 -1.37684 0
M  V30 368 H 36.4754 1.13393 -4.01494 0
M  V30 369 H 35.1054 1.40482 -2.90628 0
M  V30 370 H 34.1574 -0.881076 -3.70056 0
M  V30 371 H 35.4694 -0.940759 -4.89848 0
M  V30 372 H 34.6234 1.16522 -5.95405 0
M  V30 373 H 33.3624 1.31146 -4.69736 0
M  V30 374 H 32.3674 -0.874525 -5.428 0
M  V30 375 H 33.5924 -1.00638 -6.71602 0
M  V30 376 H 31.5384 1.22125 -6.44532 0
M  V30 377 H 31.4554 -0.103877 -7.55929 0
M  V30 378 H 32.7234 1.0743 -7.72062 0
M  V30 379 N 36.9525 1.47285 -0.560781 0
M  V30 380 C 38.2005 2.02064 -0.0379868 0
M  V30 381 C 38.5215 1.43711 1.31803 0
M  V30 382 O 37.7915 0.61362 1.86042 0
M  V30 383 H 36.3715 0.746918 -0.0110531 0
M  V30 384 H 39.0335 1.80648 -0.731598 0
M  V30 385 H 38.1295 3.12064 0.0474463 0
M  V30 386 N 38.4306 0.297415 1.54768 0
M  V30 387 C 39.3776 -0.580276 2.23386 0
M  V30 388 C 40.3476 -1.13238 1.21517 0
M  V30 389 O 41.5326 -1.17757 1.50126 0
M  V30 390 C 38.6726 -1.74801 2.97555 0
M  V30 391 C 37.7856 -1.22764 4.1419 0
M  V30 392 C 36.9206 -2.35895 4.75949 0
M  V30 393 C 35.9596 -1.80974 5.84735 0
M  V30 394 N 35.0966 -2.87664 6.40464 0
M  V30 395 H 39.9366 0.0114833 2.97998 0
M  V30 396 H 37.4736 0.0174361 1.4709 0
M  V30 397 H 39.4316 -2.43475 3.38786 0
M  V30 398 H 38.0616 -2.31145 2.25326 0
M  V30 399 H 37.1136 -0.433271 3.77924 0
M  V30 400 H 38.4256 -0.785551 4.92575 0
M  V30 401 H 37.5796 -3.12523 5.20014 0
M  V30 402 H 36.3186 -2.83429 3.96887 0
M  V30 403 H 35.3236 -1.02834 5.40097 0
M  V30 404 H 36.5486 -1.34348 6.65678 0
M  V30 405 H 34.4946 -3.34538 5.64287 0
M  V30 406 H 34.4116 -2.4794 7.14186 0
M  V30 407 H 35.6796 -3.642 6.89187 0
M  V30 408 N 39.9087 -1.5758 0.0250728 0
M  V30 409 C 40.8557 -2.09973 -0.958129 0
M  V30 410 C 41.8257 -1.00085 -1.3256 0
M  V30 411 O 43.0107 -1.27481 -1.41962 0
M  V30 412 C 40.1507 -2.62812 -2.2366 0
M  V30 413 C 39.2637 -3.86693 -1.92594 0
M  V30 414 C 38.3987 -4.27941 -3.14707 0
M  V30 415 C 37.4377 -5.44591 -2.79442 0
M  V30 416 N 36.5747 -5.81014 -3.94167 0
M  V30 417 H 41.4147 -2.937 -0.504428 0
M  V30 418 H 38.9517 -1.45172 -0.237392 0
M  V30 419 H 40.9097 -2.91536 -2.98434 0
M  V30 420 H 39.5397 -1.81922 -2.66654 0
M  V30 421 H 38.5917 -3.64723 -1.0808 0
M  V30 422 H 39.9037 -4.71547 -1.62619 0
M  V30 423 H 39.0577 -4.58079 -3.97804 0
M  V30 424 H 37.7967 -3.41845 -3.4784 0
M  V30 425 H 36.8017 -5.1415 -1.94755 0
M  V30 426 H 38.0267 -6.32382 -2.47528 0
M  V30 427 H 35.9727 -4.97874 -4.2715 0
M  V30 428 H 35.8897 -6.60498 -3.67801 0
M  V30 429 H 37.1577 -6.15756 -4.7798 0
M  V30 430 N 41.3868 0.248026 -1.55636 0
M  V30 431 C 42.6638 0.998988 -1.68165 0
M  V30 432 C 43.0438 2.03409 -0.564621 0
M  V30 433 O 42.3918 2.24378 0.432076 0
M  V30 434 C 42.6018 1.63334 -3.0842 0
M  V30 435 C 43.9498 2.13562 -3.66983 0
M  V30 436 O 44.9738 1.73277 -3.11213 0
M  V30 437 O 43.8328 2.87526 -4.64749 0
M  V30 438 H 40.9268 0.464933 -0.683935 0
M  V30 439 H 43.4728 0.241902 -1.67967 0
M  V30 440 H 42.2448 0.884583 -3.8117 0
M  V30 441 H 41.8678 2.45666 -3.12624 0
M  V30 442 N 42.8649 1.48995 0.513639 0
M  V30 443 C 44.2809 1.35478 0.843682 0
M  V30 444 C 44.4809 0.378213 1.97919 0
M  V30 445 O 43.5369 -0.194689 2.51748 0
M  V30 446 C 44.8499 2.75901 1.1958 0
M  V30 447 C 46.3979 2.84509 1.30474 0
M  V30 448 C 46.8729 4.25671 1.69021 0
M  V30 449 N 48.3639 4.28422 1.76094 0
M  V30 450 C 49.0989 5.34601 2.07338 0
M  V30 451 N 48.5949 6.5104 2.36894 0
M  V30 452 N 50.3879 5.22007 2.08483 0
M  V30 453 H 42.5389 2.11092 -0.235328 0
M  V30 454 H 44.8019 0.947039 -0.0426669 0
M  V30 455 H 44.5079 3.49001 0.434913 0
M  V30 456 H 44.3819 3.10467 2.1422 0
M  V30 457 H 46.7689 2.11655 2.05637 0
M  V30 458 H 46.8499 2.53542 0.339155 0
M  V30 459 H 46.4939 4.99048 0.944135 0
M  V30 460 H 46.4239 4.54094 2.66658 0
M  V30 461 H 48.9149 3.44441 1.55464 0
M  V30 462 H 49.2279 7.2779 2.59887 0
M  V30 463 H 47.5729 6.54287 2.34378 0
M  V30 464 H 50.7639 4.30051 1.84861 0
M  V30 465 H 50.9369 6.04854 2.325 0
M  V30 466 N 44.343 -0.763751 1.37857 0
M  V30 467 C 45.62 -1.51244 1.24035 0
M  V30 468 C 46 -2.10472 -0.162649 0
M  V30 469 O 45.348 -1.96206 -1.17112 0
M  V30 470 C 45.558 -2.58694 2.34261 0
M  V30 471 C 46.906 -3.25878 2.72193 0
M  V30 472 O 47.93 -2.68993 2.33497 0
M  V30 473 O 46.789 -4.2874 3.38887 0
M  V30 474 H 43.883 -0.670243 0.484462 0
M  V30 475 H 46.429 -0.800031 1.49658 0
M  V30 476 H 45.201 -2.13105 3.2818 0
M  V30 477 H 44.824 -3.37527 2.10146 0
M  V30 478 N 45.8211 -1.22559 -0.990812 0
M  V30 479 C 46.7541 -0.940773 -2.07905 0
M  V30 480 C 47.7321 0.117082 -1.62178 0
M  V30 481 O 48.9161 -0.0149506 -1.88494 0
M  V30 482 C 46.0431 -0.415321 -3.36144 0
M  V30 483 C 45.0891 -1.45818 -4.00799 0
M  V30 484 S 45.9221 -3.03219 -4.41382 0
M  V30 485 C 47.0781 -2.52317 -5.72789 0
M  V30 486 H 47.3111 -1.8623 -2.31745 0
M  V30 487 H 44.8441 -1.05688 -1.12558 0
M  V30 488 H 46.8021 -0.118747 -4.10328 0
M  V30 489 H 45.4631 0.485121 -3.10331 0
M  V30 490 H 44.6561 -1.04044 -4.93144 0
M  V30 491 H 44.2581 -1.70356 -3.32949 0
M  V30 492 H 46.5501 -1.93688 -6.49224 0
M  V30 493 H 47.4931 -3.43161 -6.19392 0
M  V30 494 H 47.9011 -1.93529 -5.30289 0
M  V30 495 N 47.2992 1.18797 -1.03562 0
M  V30 496 C 48.5762 1.84469 -0.650434 0
M  V30 497 C 48.9562 1.92319 0.870433 0
M  V30 498 O 48.3042 1.44528 1.76986 0
M  V30 499 C 48.5142 3.2306 -1.32036 0
M  V30 500 C 49.8622 3.9915 -1.44792 0
M  V30 501 O 50.8862 3.32481 -1.27806 0
M  V30 502 O 49.7452 5.18587 -1.72423 0
M  V30 503 H 46.8392 0.795251 -0.226946 0
M  V30 504 H 49.3852 1.26231 -1.13419 0
M  V30 505 H 48.1572 3.1222 -2.3587 0
M  V30 506 H 47.7802 3.88949 -0.8249 0
M  V30 507 N 48.7773 0.814389 1.34928 0
M  V30 508 C 49.6873 0.231978 2.3345 0
M  V30 509 C 50.7033 -0.629139 1.62228 0
M  V30 510 O 51.8793 -0.539052 1.94052 0
M  V30 511 C 48.9443 -0.603482 3.41407 0
M  V30 512 C 48.0053 0.279037 4.28392 0
M  V30 513 C 47.2383 -0.516643 5.31193 0
M  V30 514 O 47.4613 -1.75068 5.4287 0
M  V30 515 O 46.3953 0.0965652 6.01823 0
M  V30 516 H 50.2213 1.04721 2.85074 0
M  V30 517 H 47.8063 0.576343 1.37836 0
M  V30 518 H 49.6883 -1.07908 4.0735 0
M  V30 519 H 48.3633 -1.39618 2.92042 0
M  V30 520 H 47.2703 0.801948 3.65403 0
M  V30 521 H 48.6033 1.03588 4.81176 0
M  V30 522 N 50.2554 -1.46986 0.568584 0
M  V30 523 C 51.1854 -2.32946 -0.160753 0
M  V30 524 C 52.1664 -1.44487 -0.897631 0
M  V30 525 O 53.3514 -1.73327 -0.875867 0
M  V30 526 C 50.4814 -3.26494 -1.18403 0
M  V30 527 C 49.4354 -4.24282 -0.562895 0
M  V30 528 C 48.7614 -5.07236 -1.69163 0
M  V30 529 C 50.0614 -5.19989 0.490761 0
M  V30 530 H 51.7554 -2.94175 0.556916 0
M  V30 531 H 49.3014 -1.4146 0.26927 0
M  V30 532 H 51.2544 -3.85477 -1.70251 0
M  V30 533 H 49.9784 -2.63343 -1.93179 0
M  V30 534 H 48.6374 -3.66541 -0.0656164 0
M  V30 535 H 48.2854 -4.4048 -2.42871 0
M  V30 536 H 47.9854 -5.7345 -1.28174 0
M  V30 537 H 49.5094 -5.6908 -2.21314 0
M  V30 538 H 50.9234 -5.73271 0.0579047 0
M  V30 539 H 49.3204 -5.94469 0.820165 0
M  V30 540 H 50.3904 -4.64777 1.3824 0
M  V30 541 N 51.7335 -0.305618 -1.54608 0
M  V30 542 C 52.6805 0.568421 -2.23691 0
M  V30 543 C 53.6505 1.12592 -1.22116 0
M  V30 544 O 54.8355 1.16959 -1.50749 0
M  V30 545 C 51.9755 1.7322 -2.98477 0
M  V30 546 C 51.0885 1.20566 -4.14835 0
M  V30 547 C 50.2235 2.33368 -4.77193 0
M  V30 548 C 49.2625 1.7787 -5.85686 0
M  V30 549 N 48.3995 2.84263 -6.4198 0
M  V30 550 H 53.2395 -0.0272867 -2.97988 0
M  V30 551 H 50.7765 -0.0252363 -1.47078 0
M  V30 552 H 52.7345 2.41675 -3.40072 0
M  V30 553 H 51.3645 2.29947 -2.26548 0
M  V30 554 H 50.4165 0.413223 -3.78149 0
M  V30 555 H 51.7285 0.759417 -4.92985 0
M  V30 556 H 50.8825 3.09761 -5.21664 0
M  V30 557 H 49.6215 2.8132 -3.98385 0
M  V30 558 H 48.6265 0.99968 -5.40635 0
M  V30 559 H 49.8515 1.30816 -6.66381 0
M  V30 560 H 47.7975 3.31541 -5.66053 0
M  V30 561 H 47.7145 2.44149 -7.15491 0
M  V30 562 H 48.9825 3.6054 -6.91109 0
M  V30 563 N 53.2116 1.57565 -0.0334293 0
M  V30 564 C 54.1586 2.10478 0.946981 0
M  V30 565 C 55.1286 1.00787 1.32027 0
M  V30 566 O 56.3136 1.28232 1.41284 0
M  V30 567 C 53.4536 2.63994 2.22263 0
M  V30 568 C 52.5666 3.87709 1.90541 0
M  V30 569 C 51.7016 4.29604 3.12433 0
M  V30 570 C 50.7406 5.46065 2.76549 0
M  V30 571 N 49.8776 5.83096 3.9108 0
M  V30 572 H 54.7176 2.93963 0.488846 0
M  V30 573 H 52.2546 1.45296 0.22969 0
M  V30 574 H 54.2126 2.93114 2.96884 0
M  V30 575 H 52.8426 1.83333 2.65685 0
M  V30 576 H 51.8946 3.65291 1.06144 0
M  V30 577 H 53.2066 4.72403 1.60116 0
M  V30 578 H 52.3606 4.60182 3.9537 0
M  V30 579 H 51.0996 3.43685 3.46023 0
M  V30 580 H 50.1046 5.15176 1.92026 0
M  V30 581 H 51.3296 6.33685 2.44171 0
M  V30 582 H 49.2756 5.00132 4.24504 0
M  V30 583 H 49.1926 6.6244 3.64293 0
M  V30 584 H 50.4606 6.18282 4.74708 0
M  V30 585 N 54.6897 -0.239769 1.55765 0
M  V30 586 C 55.5997 -1.31831 1.94056 0
M  V30 587 C 56.6157 -1.52275 0.841925 0
M  V30 588 O 57.7917 -1.65759 1.14394 0
M  V30 589 C 54.8567 -2.65156 2.23368 0
M  V30 590 C 53.9177 -2.53173 3.46701 0
M  V30 591 C 53.1507 -3.8014 3.74606 0
M  V30 592 O 53.3737 -4.82343 3.04469 0
M  V30 593 O 52.3077 -3.78344 4.68123 0
M  V30 594 H 56.1337 -1.02347 2.85935 0
M  V30 595 H 53.7187 -0.441123 1.42739 0
M  V30 596 H 55.6007 -3.43929 2.43497 0
M  V30 597 H 54.2757 -2.94358 1.34666 0
M  V30 598 H 53.1827 -1.72662 3.31871 0
M  V30 599 H 54.5157 -2.28915 4.35728 0
M  V30 600 N 56.1678 -1.49265 -0.50573 0
M  V30 601 C 57.4138 -1.58748 -1.26202 0
M  V30 602 C 57.7468 -0.271227 -1.92297 0
M  V30 603 O 57.0218 0.724831 -1.80489 0
M  V30 604 C 57.3048 -2.74332 -2.33268 0
M  V30 605 C 57.1578 -4.15737 -1.71705 0
M  V30 606 C 58.4768 -2.85576 -3.34865 0
M  V30 607 H 55.5958 -0.577826 -0.457478 0
M  V30 608 H 58.2378 -1.81532 -0.560897 0
M  V30 609 H 56.3878 -2.55036 -2.93068 0
M  V30 610 H 58.0598 -4.46537 -1.15769 0
M  V30 611 H 56.3028 -4.21605 -1.02135 0
M  V30 612 H 56.9738 -4.92477 -2.49341 0
M  V30 613 H 59.4498 -3.03127 -2.8505 0
M  V30 614 H 58.3258 -3.68135 -4.07146 0
M  V30 615 H 58.5868 -1.94732 -3.96903 0
M  V30 616 N 57.6459 0.756429 -1.3826 0
M  V30 617 C 58.8709 1.55077 -1.37717 0
M  V30 618 C 59.2959 1.88073 0.03164 0
M  V30 619 O 58.6539 1.50364 1.01293 0
M  V30 620 C 58.7019 2.8283 -2.23695 0
M  V30 621 O 57.8059 3.77862 -1.6521 0
M  V30 622 H 57.1469 0.469152 -0.469885 0
M  V30 623 H 59.6769 0.935019 -1.81985 0
M  V30 624 H 59.6869 3.31783 -2.37453 0
M  V30 625 H 58.3619 2.58144 -3.2609 0
M  V30 626 H 56.9389 3.36555 -1.60578 0
M  V30 627 N 59.124 1.23083 0.984299 0
M  V30 628 C 60.057 0.951786 2.07404 0
M  V30 629 C 61.035 -0.10848 1.62238 0
M  V30 630 O 62.219 0.0249467 1.88483 0
M  V30 631 C 59.346 0.433142 3.35919 0
M  V30 632 C 58.392 1.47941 4.0002 0
M  V30 633 S 59.225 3.05556 4.39768 0
M  V30 634 C 60.381 2.55351 5.71442 0
M  V30 635 H 60.614 1.87456 2.30754 0
M  V30 636 H 58.147 1.06284 1.11996 0
M  V30 637 H 60.105 0.140506 4.10259 0
M  V30 638 H 58.766 -0.468656 3.10584 0
M  V30 639 H 57.959 1.06658 4.92585 0
M  V30 640 H 57.561 1.7212 3.3204 0
M  V30 641 H 59.853 1.97128 6.48187 0
M  V30 642 H 60.796 3.46441 6.17563 0
M  V30 643 H 61.204 1.96339 5.29255 0
M  V30 644 N 60.6021 -1.18246 1.0419 0
M  V30 645 C 61.8791 -1.84121 0.660208 0
M  V30 646 C 62.2591 -1.92778 -0.860221 0
M  V30 647 O 61.6071 -1.45464 -1.76217 0
M  V30 648 C 61.8171 -3.22355 1.33747 0
M  V30 649 C 63.1651 -3.98376 1.46906 0
M  V30 650 O 64.1891 -3.31799 1.29568 0
M  V30 651 O 63.0481 -5.17665 1.75171 0
M  V30 652 H 60.1421 -0.794036 0.231161 0
M  V30 653 H 62.6881 -1.25628 1.14087 0
M  V30 654 H 61.4601 -3.10964 2.37522 0
M  V30 655 H 61.0831 -3.88506 0.845515 0
M  V30 656 N 62.0802 -0.821533 -1.34494 0
M  V30 657 C 63.3572 -0.33159 -1.92769 0
M  V30 658 C 63.7372 1.18088 -1.74981 0
M  V30 659 O 63.0852 1.98733 -1.12772 0
M  V30 660 C 63.2952 -0.759398 -3.40638 0
M  V30 661 C 64.6432 -0.757433 -4.1779 0
M  V30 662 O 65.6672 -0.70189 -3.49216 0
M  V30 663 O 64.5262 -0.829361 -5.4017 0
M  V30 664 H 61.6202 -0.0902502 -0.822061 0
M  V30 665 H 64.1662 -0.906231 -1.43477 0
M  V30 666 H 62.9382 -1.8012 -3.47379 0
M  V30 667 H 62.5612 -0.160378 -3.97276 0
M  V30 668 N 63.5583 1.46682 -0.576371 0
M  V30 669 C 64.5083 2.27278 0.181288 0
M  V30 670 C 65.4923 1.35497 0.867721 0
M  V30 671 O 66.6843 1.59717 0.762863 0
M  V30 672 C 63.8133 3.21703 1.19841 0
M  V30 673 C 62.8993 4.20969 0.51442 0
M  V30 674 N 63.2903 5.03999 -0.426407 0
M  V30 675 C 61.5883 4.39373 0.765963 0
M  V30 676 C 62.2893 5.75812 -0.825565 0
M  V30 677 N 61.2653 5.43315 -0.176116 0
M  V30 678 H 65.0673 2.88863 -0.541785 0
M  V30 679 H 62.5813 1.57455 -0.397697 0
M  V30 680 H 64.5783 3.78145 1.75533 0
M  V30 681 H 63.2383 2.61677 1.92238 0
M  V30 682 H 64.2493 5.11659 -0.8016 0
M  V30 683 H 60.9263 3.90502 1.47698 0
M  V30 684 H 62.3163 6.52577 -1.59976 0
M  V30 685 N 65.0364 0.313813 1.54444 0
M  V30 686 C 65.9834 -0.55655 2.23989 0
M  V30 687 C 66.9534 -1.11943 1.22711 0
M  V30 688 O 68.1384 -1.16158 1.51367 0
M  V30 689 C 65.2784 -1.71635 2.99392 0
M  V30 690 C 64.3914 -1.18364 4.15468 0
M  V30 691 C 63.5264 -2.30834 4.78424 0
M  V30 692 C 62.5654 -1.74762 5.86622 0
M  V30 693 N 61.7024 -2.80855 6.43479 0
M  V30 694 H 66.5424 0.0430893 2.97969 0
M  V30 695 H 64.0794 0.0330359 1.47063 0
M  V30 696 H 66.0374 -2.39868 3.41349 0
M  V30 697 H 64.6674 -2.28742 2.27765 0
M  V30 698 H 63.7194 -0.393163 3.78363 0
M  V30 699 H 65.0314 -0.733262 4.93381 0
M  V30 700 H 64.1854 -3.0699 5.23299 0
M  V30 701 H 62.9244 -2.79204 3.99871 0
M  V30 702 H 61.9294 -0.970995 5.41158 0
M  V30 703 H 63.1544 -1.2728 6.67066 0
M  V30 704 H 61.1004 -3.28535 5.67804 0
M  V30 705 H 61.0174 -2.40351 7.16776 0
M  V30 706 H 62.2854 -3.5687 6.93011 0
M  V30 707 N 66.5145 -1.57545 0.0417849 0
M  V30 708 C 67.4445 -2.14009 -0.933929 0
M  V30 709 C 68.4255 -1.05938 -1.33083 0
M  V30 710 O 69.6105 -1.33833 -1.40721 0
M  V30 711 C 66.7405 -2.67747 -2.21199 0
M  V30 712 C 65.6945 -3.80718 -1.95544 0
M  V30 713 C 65.0205 -4.20935 -3.29724 0
M  V30 714 C 66.3205 -5.06258 -1.28452 0
M  V30 715 H 68.0145 -2.95788 -0.463645 0
M  V30 716 H 65.5605 -1.42285 -0.221573 0
M  V30 717 H 67.5135 -3.05886 -2.89848 0
M  V30 718 H 66.2375 -1.83147 -2.70416 0
M  V30 719 H 64.8965 -3.43037 -1.2931 0
M  V30 720 H 64.5445 -3.33298 -3.76724 0
M  V30 721 H 64.2445 -4.9707 -3.13361 0
M  V30 722 H 65.7685 -4.61666 -3.9962 0
M  V30 723 H 67.1825 -5.41903 -1.8712 0
M  V30 724 H 65.5795 -5.87475 -1.22445 0
M  V30 725 H 66.6495 -4.84207 -0.259219 0
M  V30 726 N 67.9926 0.231505 -1.5589 0
M  V30 727 C 69.2176 0.978689 -1.82856 0
M  V30 728 C 69.6426 1.77559 -0.620846 0
M  V30 729 O 69.0006 1.76119 0.430305 0
M  V30 730 C 69.0486 1.87997 -3.07716 0
M  V30 731 O 68.1526 2.97393 -2.85712 0
M  V30 732 H 67.4936 0.277663 -0.603158 0
M  V30 733 H 70.0236 0.24783 -2.03093 0
M  V30 734 H 70.0336 2.2917 -3.37558 0
M  V30 735 H 68.7086 1.29417 -3.95252 0
M  V30 736 H 67.2856 2.60238 -2.67078 0
M  V30 737 N 69.4707 1.49531 0.497807 0
M  V30 738 C 70.4007 1.6935 1.60757 0
M  V30 739 C 71.3817 0.542218 1.61227 0
M  V30 740 O 72.5667 0.778417 1.77917 0
M  V30 741 C 69.6967 1.76298 2.99226 0
M  V30 742 C 68.6507 2.91248 3.13622 0
M  V30 743 C 67.9767 2.83312 4.53474 0
M  V30 744 C 69.2767 4.3214 2.93346 0
M  V30 745 H 70.9707 2.62263 1.44425 0
M  V30 746 H 68.5167 1.26208 0.693367 0
M  V30 747 H 70.4697 1.88749 3.76765 0
M  V30 748 H 69.1937 0.799871 3.16654 0
M  V30 749 H 67.8527 2.78404 2.38509 0
M  V30 750 H 67.5007 1.84902 4.67782 0
M  V30 751 H 67.2007 3.60465 4.64046 0
M  V30 752 H 68.7247 2.97775 5.33069 0
M  V30 753 H 70.1387 4.45649 3.60652 0
M  V30 754 H 68.5357 5.1054 3.15387 0
M  V30 755 H 69.6057 4.46363 1.89441 0
M  V30 756 N 70.9488 -0.749086 1.3866 0
M  V30 757 C 72.2258 -1.4992 1.25632 0
M  V30 758 C 72.6058 -2.10633 -0.140317 0
M  V30 759 O 71.9538 -1.97437 -1.15025 0
M  V30 760 C 72.1638 -2.56195 2.36992 0
M  V30 761 C 73.5118 -3.22972 2.75634 0
M  V30 762 O 74.5358 -2.66502 2.36337 0
M  V30 763 O 73.3948 -4.25122 3.43415 0
M  V30 764 H 70.4888 -0.665067 0.491544 0
M  V30 765 H 73.0348 -0.784113 1.50498 0
M  V30 766 H 71.8068 -2.09612 3.30422 0
M  V30 767 H 71.4298 -3.35279 2.13714 0
M  V30 768 N 72.4269 -1.23603 -0.977757 0
M  V30 769 C 73.3369 -1.03632 -2.1047 0
M  V30 770 C 74.3529 0.0199435 -1.73989 0
M  V30 771 O 75.5289 -0.176076 -2.00629 0
M  V30 772 C 72.5939 -0.63276 -3.40877 0
M  V30 773 C 71.6549 -1.76437 -3.91367 0
M  V30 774 C 70.8879 -1.37997 -5.15551 0
M  V30 775 O 71.1109 -0.265357 -5.69782 0
M  V30 776 O 70.0449 -2.20201 -5.60174 0
M  V30 777 H 73.8709 -1.98086 -2.30208 0
M  V30 778 H 71.4559 -1.02332 -1.08851 0
M  V30 779 H 73.3379 -0.418761 -4.19314 0
M  V30 780 H 72.0129 0.282754 -3.22463 0
M  V30 781 H 70.9199 -2.03304 -3.14036 0
M  V30 782 H 72.2529 -2.6583 -4.14241 0
M  V30 783 N 73.905 1.17692 -1.04816 0
M  V30 784 C 74.835 2.23777 -0.666791 0
M  V30 785 C 75.816 1.66796 0.33361 0
M  V30 786 O 77.001 1.93039 0.212042 0
M  V30 787 C 74.131 3.47281 -0.0367933 0
M  V30 788 C 73.085 4.17059 -0.961546 0
M  V30 789 C 72.411 5.34342 -0.195626 0
M  V30 790 C 73.711 4.69713 -2.28402 0
M  V30 791 H 75.405 2.55933 -1.55367 0
M  V30 792 H 72.951 1.23019 -0.748484 0
M  V30 793 H 74.904 4.20706 0.241775 0
M  V30 794 H 73.628 3.14381 0.885004 0
M  V30 795 H 72.287 3.45541 -1.22462 0
M  V30 796 H 71.935 4.97692 0.728816 0
M  V30 797 H 71.635 5.81966 -0.811775 0
M  V30 798 H 73.159 6.10553 0.0757473 0
M  V30 799 H 74.573 5.34794 -2.06563 0
M  V30 800 H 72.97 5.279 -2.8538 0
M  V30 801 H 74.04 3.86726 -2.92525 0
M  V30 802 N 75.3831 0.828654 1.34056 0
M  V30 803 C 76.3331 0.226828 2.26869 0
M  V30 804 C 77.3171 -0.612243 1.48796 0
M  V30 805 O 78.5091 -0.465884 1.70759 0
M  V30 806 C 75.6381 -0.605654 3.37915 0
M  V30 807 C 74.7241 0.244361 4.23395 0
M  V30 808 N 75.1151 1.31815 4.88322 0
M  V30 809 C 73.4131 0.0296616 4.4599 0
M  V30 810 C 74.1141 1.83895 5.51867 0
M  V30 811 N 73.0901 1.14196 5.3147 0
M  V30 812 H 76.8921 1.04811 2.74576 0
M  V30 813 H 74.4061 0.67205 1.47842 0
M  V30 814 H 76.4031 -1.05302 4.03382 0
M  V30 815 H 75.0631 -1.42504 2.91758 0
M  V30 816 H 76.0741 1.70099 4.8917 0
M  V30 817 H 72.7511 -0.757097 4.10578 0
M  V30 818 H 74.1411 2.7376 6.136 0
M  V30 819 N 76.8612 -1.46375 0.584142 0
M  V30 820 C 78.2772 -1.57694 0.245929 0
M  V30 821 C 78.4772 -1.57903 -1.25175 0
M  V30 822 O 77.5332 -1.49676 -2.03355 0
M  V30 823 C 78.8462 -2.87028 0.896402 0
M  V30 824 C 80.3942 -3.00662 0.870127 0
M  V30 825 C 80.8692 -4.32734 1.50017 0
M  V30 826 N 82.3602 -4.39436 1.46458 0
M  V30 827 C 83.0952 -5.40248 1.92144 0
M  V30 828 N 82.5912 -6.47726 2.4581 0
M  V30 829 N 84.3842 -5.31459 1.83052 0
M  V30 830 H 76.5352 -1.44483 1.55687 0
M  V30 831 H 78.7982 -0.689291 0.650831 0
M  V30 832 H 78.5042 -2.9269 1.95002 0
M  V30 833 H 78.3782 -3.75014 0.405486 0
M  V30 834 H 80.7652 -2.94581 -0.174871 0
M  V30 835 H 80.8462 -2.14148 1.39908 0
M  V30 836 H 80.4902 -4.39573 2.54437 0
M  V30 837 H 80.4202 -5.18025 0.946432 0
M  V30 838 H 82.9112 -3.62367 1.07231 0
M  V30 839 H 83.2242 -7.20863 2.78525 0
M  V30 840 H 81.5692 -6.48542 2.49836 0
M  V30 841 H 84.7602 -4.46396 1.40883 0
M  V30 842 H 84.9332 -6.09881 2.18973 0
M  V30 843 N 78.3393 -0.321999 -1.54275 0
M  V30 844 C 79.2863 0.544664 -2.24281 0
M  V30 845 C 80.2563 1.1129 -1.23303 0
M  V30 846 O 81.4413 1.15354 -1.51981 0
M  V30 847 C 78.5813 1.70045 -3.00298 0
M  V30 848 C 77.6943 1.16159 -4.1609 0
M  V30 849 C 76.8293 2.28293 -4.79641 0
M  V30 850 C 75.8683 1.71648 -5.8754 0
M  V30 851 N 75.0053 2.77438 -6.44959 0
M  V30 852 H 79.8453 -0.0588907 -2.97942 0
M  V30 853 H 77.3823 -0.0408345 -1.47043 0
M  V30 854 H 79.3403 2.38054 -3.42616 0
M  V30 855 H 77.9703 2.27531 -2.28975 0
M  V30 856 H 77.0223 0.373092 -3.78566 0
M  V30 857 H 78.3343 0.707087 -4.93763 0
M  V30 858 H 77.4883 3.0421 -5.2492 0
M  V30 859 H 76.2273 2.77079 -4.01346 0
M  V30 860 H 75.2323 0.942282 -5.41665 0
M  V30 861 H 76.4573 1.23741 -6.67731 0
M  V30 862 H 74.4033 3.25519 -5.69538 0
M  V30 863 H 74.3203 2.36547 -7.1804 0
M  V30 864 H 75.5883 3.53189 -6.94894 0
M  V30 865 N 79.8174 1.5752 -0.0501392 0
M  V30 866 C 81.0474 1.96678 0.632573 0
M  V30 867 C 81.4554 0.926298 1.64974 0
M  V30 868 O 80.7984 -0.09802 1.83438 0
M  V30 869 C 80.8604 3.32068 1.37735 0
M  V30 870 C 80.5244 4.54076 0.516131 0
M  V30 871 C 81.5214 5.19445 -0.217357 0
M  V30 872 C 79.2064 5.00304 0.44736 0
M  V30 873 C 81.2004 6.29378 -1.00807 0
M  V30 874 C 78.8874 6.10114 -0.347038 0
M  V30 875 C 79.8854 6.74512 -1.07344 0
M  V30 876 O 79.5734 7.82211 -1.85477 0
M  V30 877 H 79.3054 0.652193 0.177821 0
M  V30 878 H 81.8594 2.05091 -0.112543 0
M  V30 879 H 80.0894 3.20206 2.16807 0
M  V30 880 H 81.7784 3.55981 1.95019 0
M  V30 881 H 82.5444 4.84689 -0.173688 0
M  V30 882 H 78.4234 4.49971 1.00235 0
M  V30 883 H 81.9674 6.79575 -1.57556 0
M  V30 884 H 77.8644 6.44307 -0.392349 0
M  V30 885 H 78.6324 7.98982 -1.77678 0
M  V30 886 N 81.2955 -0.223234 1.56011 0
M  V30 887 C 82.5435 -0.946003 1.78592 0
M  V30 888 C 82.8645 -1.84936 0.618349 0
M  V30 889 O 82.1345 -1.92473 -0.364833 0
M  V30 890 H 80.7145 -0.352298 0.658707 0
M  V30 891 H 83.3765 -0.235494 1.93472 0
M  V30 892 H 82.4725 -1.55381 2.70672 0
M  V30 893 N 82.7736 -1.49793 -0.48987 0
M  V30 894 C 84.0016 -1.63568 -1.26701 0
M  V30 895 C 84.4166 -0.311465 -1.86213 0
M  V30 896 O 83.7736 0.704416 -1.68357 0
M  V30 897 C 83.8246 -2.71284 -2.38929 0
M  V30 898 O 83.5456 -3.9857 -1.81861 0
M  V30 899 C 85.0466 -2.95864 -3.3012 0
M  V30 900 H 82.2666 -0.550342 -0.383881 0
M  V30 901 H 84.8106 -1.95898 -0.586864 0
M  V30 902 H 82.9656 -2.417 -3.02753 0
M  V30 903 H 83.3796 -4.57993 -2.55622 0
M  V30 904 H 84.8536 -3.74941 -4.05121 0
M  V30 905 H 85.3306 -2.06206 -3.87783 0
M  V30 906 H 85.9366 -3.26907 -2.72051 0
M  V30 907 N 84.2517 0.741722 -1.39055 0
M  V30 908 C 85.5287 1.49252 -1.26425 0
M  V30 909 C 85.9087 2.10705 0.129144 0
M  V30 910 O 85.2567 1.98045 1.13976 0
M  V30 911 C 85.4667 2.54934 -2.38347 0
M  V30 912 C 86.8147 3.21506 -2.77343 0
M  V30 913 O 87.8387 2.65245 -2.37747 0
M  V30 914 O 86.6977 4.23294 -3.45665 0
M  V30 915 H 83.7917 0.662451 -0.495064 0
M  V30 916 H 86.3377 0.776121 -1.50912 0
M  V30 917 H 85.1097 2.07857 -3.31529 0
M  V30 918 H 84.7327 3.34141 -2.15489 0
M  V30 919 N 85.7298 1.2412 0.971189 0
M  V30 920 C 86.6598 1.05508 2.08304 0
M  V30 921 C 87.6408 -0.0308864 1.70072 0
M  V30 922 O 88.8258 0.135521 1.93727 0
M  V30 923 C 85.9558 0.655365 3.4106 0
M  V30 924 C 84.9098 1.68971 3.93234 0
M  V30 925 C 84.2358 1.14516 5.22293 0
M  V30 926 C 85.5358 3.08487 4.21465 0
M  V30 927 H 87.2298 1.98507 2.24132 0
M  V30 928 H 84.7758 0.955821 1.07704 0
M  V30 929 H 86.7288 0.51217 4.18276 0
M  V30 930 H 85.4528 -0.31032 3.25122 0
M  V30 931 H 84.1118 1.82106 3.18171 0
M  V30 932 H 83.7598 0.170189 5.02712 0
M  V30 933 H 83.4598 1.83635 5.58168 0
M  V30 934 H 84.9838 1.01401 6.02121 0
M  V30 935 H 86.3978 2.98601 4.89398 0
M  V30 936 H 84.7948 3.74926 4.68562 0
M  V30 937 H 85.8648 3.56787 3.28376 0
M  V30 938 N 87.2079 -1.17134 1.05439 0
M  V30 939 C 88.4329 -1.91913 0.786396 0
M  V30 940 C 88.8579 -1.7643 -0.652234 0
M  V30 941 O 88.2159 -1.08372 -1.45345 0
M  V30 942 C 88.2639 -3.40921 1.17497 0
M  V30 943 O 87.3679 -4.11244 0.308589 0
M  V30 944 H 86.7089 -0.598215 0.288158 0
M  V30 945 H 89.2389 -1.48457 1.4079 0
M  V30 946 H 89.2489 -3.91668 1.14281 0
M  V30 947 H 87.9239 -3.5151 2.22292 0
M  V30 948 H 86.5009 -3.70731 0.40157 0
M  V30 949 N 88.686 -0.835752 -1.33615 0
M  V30 950 C 90.102 -0.523139 -1.50783 0
M  V30 951 C 90.302 0.950171 -1.77691 0
M  V30 952 O 89.358 1.73411 -1.83534 0
M  V30 953 C 90.671 -1.39378 -2.66448 0
M  V30 954 C 92.219 -1.39223 -2.80332 0
M  V30 955 C 92.694 -2.24765 -3.99055 0
M  V30 956 N 94.185 -2.22458 -4.06284 0
M  V30 957 C 94.92 -2.85386 -4.97336 0
M  V30 958 N 94.416 -3.57354 -5.93523 0
M  V30 959 N 96.209 -2.74872 -4.90308 0
M  V30 960 H 88.36 -1.78952 -1.14411 0
M  V30 961 H 90.623 -0.763297 -0.562212 0
M  V30 962 H 90.329 -2.44061 -2.53234 0
M  V30 963 H 90.203 -1.0676 -3.61776 0
M  V30 964 H 92.59 -0.353136 -2.92979 0
M  V30 965 H 92.671 -1.75846 -1.85773 0
M  V30 966 H 92.315 -3.28732 -3.87167 0
M  V30 967 H 92.245 -1.85485 -4.92852 0
M  V30 968 H 94.736 -1.70119 -3.37443 0
M  V30 969 H 95.049 -4.02584 -6.59656 0
M  V30 970 H 93.394 -3.61461 -5.93608 0
M  V30 971 H 96.585 -2.18213 -4.14126 0
M  V30 972 H 96.758 -3.24199 -5.61069 0
M  V30 973 N 90.1641 1.46063 -0.591896 0
M  V30 974 C 91.4121 2.01938 -0.0808391 0
M  V30 975 C 91.7331 1.46475 1.28725 0
M  V30 976 O 91.0031 0.652944 1.84698 0
M  V30 977 H 89.5831 0.746516 -0.0268938 0
M  V30 978 H 92.2451 1.79055 -0.769752 0
M  V30 979 H 91.3411 3.12094 -0.0187578 0
M  V30 980 N 91.6422 0.330177 1.54103 0
M  V30 981 C 92.5722 -0.525353 2.27513 0
M  V30 982 C 93.5532 -1.11383 1.2856 0
M  V30 983 O 94.7382 -1.13773 1.57383 0
M  V30 984 C 91.8682 -1.6831 3.03791 0
M  V30 985 C 90.8222 -1.2236 4.10137 0
M  V30 986 C 90.1482 -2.46882 4.74293 0
M  V30 987 C 91.4482 -0.333697 5.21233 0
M  V30 988 H 93.1422 0.087013 2.99274 0
M  V30 989 H 90.6882 0.0432893 1.43935 0
M  V30 990 H 92.6412 -2.28795 3.5388 0
M  V30 991 H 91.3652 -2.32216 2.29659 0
M  V30 992 H 90.0242 -0.64165 3.60941 0
M  V30 993 H 89.6722 -3.09165 3.96769 0
M  V30 994 H 89.3722 -2.16825 5.46133 0
M  V30 995 H 90.8962 -3.08117 5.27159 0
M  V30 996 H 92.3102 -0.845013 5.67038 0
M  V30 997 H 90.7072 -0.125612 5.99969 0
M  V30 998 H 91.7772 0.633724 4.80741 0
M  V30 999 N 93.1203 -1.57491 0.0584922 0
M  V30 1000 C 94.3483 -1.97296 -0.623037 0
M  V30 1001 C 94.7633 -0.936338 -1.63946 0
M  V30 1002 O 94.1203 0.0785981 -1.82331 0
M  V30 1003 C 94.1713 -3.37183 -1.30345 0
M  V30 1004 O 93.8923 -4.36872 -0.32773 0
M  V30 1005 C 95.3933 -3.91788 -2.07406 0
M  V30 1006 H 92.6133 -0.649153 -0.169826 0
M  V30 1007 H 95.1573 -2.04106 0.12696 0
M  V30 1008 H 93.3123 -3.31502 -2.00463 0
M  V30 1009 H 93.7263 -5.18141 -0.814269 0
M  V30 1010 H 95.2003 -4.91926 -2.50425 0
M  V30 1011 H 95.6773 -3.27609 -2.92521 0
M  V30 1012 H 96.2833 -4.00829 -1.42184 0
M  V30 1013 N 94.5984 0.214957 -1.56127 0
M  V30 1014 C 95.8234 0.95924 -1.83884 0
M  V30 1015 C 96.2484 1.7689 -0.639644 0
M  V30 1016 O 95.6064 1.76566 0.411601 0
M  V30 1017 C 95.6544 1.84723 -3.09693 0
M  V30 1018 O 94.7584 2.94346 -2.8885 0
M  V30 1019 H 94.0994 0.27125 -0.606069 0
M  V30 1020 H 96.6294 0.226276 -2.03345 0
M  V30 1021 H 96.6394 2.25576 -3.39969 0
M  V30 1022 H 95.3144 1.25218 -3.96602 0
M  V30 1023 H 93.8914 2.57391 -2.69823 0
M  V30 1024 N 96.0765 1.50051 0.48192 0
M  V30 1025 C 97.0395 1.67584 1.5636 0
M  V30 1026 C 98.0395 0.546894 1.51214 0
M  V30 1027 O 99.2295 0.813725 1.54026 0
M  V30 1028 C 96.3615 1.691 2.96003 0
M  V30 1029 H 97.5545 2.64078 1.42136 0
M  V30 1030 H 95.1075 1.39369 0.707533 0
M  V30 1031 H 95.8425 0.742589 3.15684 0
M  V30 1032 H 95.6275 2.51105 3.01146 0
M  V30 1033 H 97.1175 1.84656 3.74556 0
M  V30 1034 N 97.5546 -0.734337 1.39446 0
M  V30 1035 C 98.9706 -1.03997 1.21065 0
M  V30 1036 C 99.1706 -2.01369 0.0727019 0
M  V30 1037 O 98.2266 -2.45856 -0.575426 0
M  V30 1038 C 99.5396 -1.60163 2.54496 0
M  V30 1039 C 101.088 -1.7224 2.61347 0
M  V30 1040 C 101.563 -2.31814 3.95002 0
M  V30 1041 N 103.054 -2.39223 3.96644 0
M  V30 1042 C 103.789 -2.86258 4.96834 0
M  V30 1043 N 103.285 -3.33184 6.07421 0
M  V30 1044 N 105.078 -2.85473 4.84213 0
M  V30 1045 H 97.2286 -0.0885624 2.12215 0
M  V30 1046 H 99.4916 -0.10191 0.942506 0
M  V30 1047 H 99.1976 -0.960811 3.38321 0
M  V30 1048 H 99.0716 -2.5896 2.74262 0
M  V30 1049 H 101.459 -2.35443 1.77906 0
M  V30 1050 H 101.54 -0.720939 2.4543 0
M  V30 1051 H 101.184 -1.69238 4.78875 0
M  V30 1052 H 101.114 -3.32638 4.08239 0
M  V30 1053 H 103.605 -2.06057 3.16779 0
M  V30 1054 H 103.918 -3.67586 6.7978 0
M  V30 1055 H 102.263 -3.31191 6.11013 0
M  V30 1056 H 105.454 -2.48136 3.96921 0
M  V30 1057 H 105.627 -3.21814 5.62441 0
M  V30 1058 N 99.0327 -1.24633 -0.964593 0
M  V30 1059 C 99.9957 -1.0424 -2.04124 0
M  V30 1060 C 100.996 0.00137563 -1.608 0
M  V30 1061 O 102.186 -0.239883 -1.7254 0
M  V30 1062 C 99.3177 -0.580588 -3.3592 0
M  V30 1063 H 100.511 -1.99803 -2.23649 0
M  V30 1064 H 98.0637 -1.06899 -1.14027 0
M  V30 1065 H 98.7987 0.3781 -3.22088 0
M  V30 1066 H 98.5837 -1.33398 -3.6871 0
M  V30 1067 H 100.074 -0.459034 -4.15069 0
M  V30 1068 N 100.511 1.16574 -1.06058 0
M  V30 1069 C 101.474 2.19085 -0.673392 0
M  V30 1070 C 102.474 1.5835 0.279648 0
M  V30 1071 O 103.664 1.74088 0.0623488 0
M  V30 1072 C 100.796 3.40899 0.00954234 0
M  V30 1073 H 101.989 2.54853 -1.58081 0
M  V30 1074 H 99.5418 1.30808 -0.855516 0
M  V30 1075 H 100.277 3.10684 0.929826 0
M  V30 1076 H 100.062 3.86233 -0.67573 0
M  V30 1077 H 101.552 4.1675 0.266245 0
M  V30 1078 N 101.989 0.842826 1.3317 0
M  V30 1079 C 102.899 0.281444 2.32906 0
M  V30 1080 C 103.915 -0.594587 1.63526 0
M  V30 1081 O 105.091 -0.49777 1.95152 0
M  V30 1082 C 102.156 -0.530929 3.42611 0
M  V30 1083 C 101.217 0.369843 4.27704 0
M  V30 1084 C 100.45 -0.403853 5.3217 0
M  V30 1085 O 100.673 -1.63513 5.46461 0
M  V30 1086 O 99.6069 0.224199 6.01482 0
M  V30 1087 H 103.433 1.10744 2.82789 0
M  V30 1088 H 101.018 0.60545 1.36582 0
M  V30 1089 H 102.9 -0.992437 4.09547 0
M  V30 1090 H 101.575 -1.33392 2.94938 0
M  V30 1091 H 100.482 0.879275 3.6362 0
M  V30 1092 H 101.815 1.13771 4.78871 0
M  V30 1093 N 103.467 -1.45747 0.599634 0
M  V30 1094 C 104.716 -2.01502 0.0893511 0
M  V30 1095 C 105.029 -1.4748 -1.28488 0
M  V30 1096 O 106.235 -1.95161 -1.88745 0
M  V30 1097 C 104.691 -3.59735 0.109082 0
M  V30 1098 C 104.299 -4.22754 1.48267 0
M  V30 1099 C 106.043 -4.23085 -0.346374 0
M  V30 1100 C 103.95 -5.73115 1.45921 0
M  V30 1101 H 102.88 -0.753417 0.0296347 0
M  V30 1102 H 105.531 -1.67303 0.753788 0
M  V30 1103 H 103.913 -3.91087 -0.621854 0
M  V30 1104 H 105.087 -4.02987 2.23468 0
M  V30 1105 H 103.402 -3.71567 1.87955 0
M  V30 1106 H 105.999 -5.33327 -0.38298 0
M  V30 1107 H 106.342 -3.93201 -1.36743 0
M  V30 1108 H 106.875 -3.9642 0.331038 0
M  V30 1109 H 103.614 -6.07685 2.45762 0
M  V30 1110 H 103.134 -5.95097 0.749665 0
M  V30 1111 H 104.813 -6.3616 1.17941 0
M  V30 1112 N 104.945 -0.338344 -1.53925 0
M  V30 1113 C 105.875 0.51328 -2.27789 0
M  V30 1114 C 106.856 1.107 -1.29149 0
M  V30 1115 O 108.041 1.12937 -1.57984 0
M  V30 1116 C 105.171 1.66697 -3.04679 0
M  V30 1117 C 104.125 1.20183 -4.1078 0
M  V30 1118 C 103.451 2.44363 -4.75595 0
M  V30 1119 C 104.751 0.30605 -5.21403 0
M  V30 1120 H 106.445 -0.102883 -2.99223 0
M  V30 1121 H 103.991 -0.0509219 -1.4391 0
M  V30 1122 H 105.944 2.26915 -3.55088 0
M  V30 1123 H 104.668 2.30995 -2.30887 0
M  V30 1124 H 103.327 0.622499 -3.61276 0
M  V30 1125 H 102.975 3.07057 -3.98403 0
M  V30 1126 H 102.675 2.13925 -5.47275 0
M  V30 1127 H 104.199 3.05317 -5.28786 0
M  V30 1128 H 105.613 0.814929 -5.67478 0
M  V30 1129 H 104.01 0.0937929 -6.00027 0
M  V30 1130 H 105.08 -0.65921 -4.80398 0
M  V30 1131 N 106.423 1.57458 -0.0668435 0
M  V30 1132 C 107.386 2.11323 0.887422 0
M  V30 1133 C 108.386 1.03618 1.22964 0
M  V30 1134 O 109.576 1.29626 1.16373 0
M  V30 1135 C 106.708 2.61048 2.19242 0
M  V30 1136 H 107.901 2.96942 0.420194 0
M  V30 1137 H 105.454 1.55239 0.181793 0
M  V30 1138 H 106.189 1.78868 2.70512 0
M  V30 1139 H 105.974 3.39769 1.95702 0
M  V30 1140 H 107.464 3.02814 2.87565 0
M  V30 1141 N 107.901 -0.206675 1.56239 0
M  V30 1142 C 109.317 -0.557025 1.49564 0
M  V30 1143 C 109.517 -1.86424 0.764735 0
M  V30 1144 O 108.573 -2.50584 0.310491 0
M  V30 1145 C 109.886 -0.622478 2.94186 0
M  V30 1146 C 111.434 -0.712099 3.04792 0
M  V30 1147 C 111.909 -0.808767 4.50803 0
M  V30 1148 N 113.4 -0.8726 4.54907 0
M  V30 1149 C 114.135 -0.967365 5.65181 0
M  V30 1150 N 113.631 -1.02515 6.85173 0
M  V30 1151 N 115.424 -1.00366 5.53067 0
M  V30 1152 H 107.575 0.650943 2.02179 0
M  V30 1153 H 109.838 0.230387 0.919579 0
M  V30 1154 H 109.544 0.268727 3.50672 0
M  V30 1155 H 109.418 -1.4811 3.46905 0
M  V30 1156 H 111.805 -1.59374 2.48363 0
M  V30 1157 H 111.886 0.172489 2.55218 0
M  V30 1158 H 111.53 0.0684754 5.07854 0
M  V30 1159 H 111.46 -1.70899 4.98098 0
M  V30 1160 H 113.951 -0.837657 3.68499 0
M  V30 1161 H 114.264 -1.09765 7.64965 0
M  V30 1162 H 112.609 -0.994026 6.87855 0
M  V30 1163 H 115.8 -0.95527 4.58249 0
M  V30 1164 H 115.973 -1.07405 6.39037 0
M  V30 1165 N 109.379 -1.50304 -0.473955 0
M  V30 1166 C 110.656 -1.51667 -1.23518 0
M  V30 1167 C 111.036 -0.259701 -2.09496 0
M  V30 1168 O 110.384 0.756986 -2.15597 0
M  V30 1169 C 110.594 -2.81082 -2.06868 0
M  V30 1170 C 111.942 -3.31631 -2.65153 0
M  V30 1171 O 112.966 -2.82384 -2.17113 0
M  V30 1172 O 111.825 -4.17471 -3.52675 0
M  V30 1173 H 108.919 -0.60822 -0.560355 0
M  V30 1174 H 111.465 -1.62592 -0.486011 0
M  V30 1175 H 110.237 -3.64041 -1.4349 0
M  V30 1176 H 109.86 -2.73146 -2.88924 0
M  V30 1177 N 110.857 0.726932 -1.39834 0
M  V30 1178 C 112.105 1.4837 -1.37225 0
M  V30 1179 C 112.426 1.94979 0.0284857 0
M  V30 1180 O 111.696 1.69555 0.981213 0
M  V30 1181 H 110.276 0.55043 -0.505011 0
M  V30 1182 H 112.938 0.862468 -1.74778 0
M  V30 1183 H 112.034 2.36198 -2.04003 0
M  V30 1184 N 112.336 1.25143 0.95797 0
M  V30 1185 C 113.747 1.08851 1.51685 0
M  V30 1186 C 114.098 -0.33687 1.93286 0
M  V30 1187 O 113.223 -1.22644 1.7829 0
M  V30 1188 C 113.818 1.96978 2.75654 0
M  V30 1189 C 112.377 1.84881 3.27866 0
M  V30 1190 C 111.524 1.91329 2.0072 0
M  V30 1191 H 114.475 1.38478 0.77522 0
M  V30 1192 H 114.496 1.5078 3.4935 0
M  V30 1193 H 114.008 3.00712 2.45345 0
M  V30 1194 H 112.109 0.840182 3.63004 0
M  V30 1195 H 112.222 2.6951 3.96107 0
M  V30 1196 H 110.586 1.35174 2.15871 0
M  V30 1197 H 111.369 2.96661 1.72764 0
M  V30 1198 N 113.814 -1.1601 1.06675 0
M  V30 1199 C 114.762 -2.22586 0.675157 0
M  V30 1200 C 115.756 -1.66525 -0.310766 0
M  V30 1201 O 116.962 -1.79145 -0.175215 0
M  V30 1202 H 113.337 -0.724855 0.200223 0
M  V30 1203 H 115.308 -2.52899 1.58381 0
M  V30 1204 C 114.057 -3.47604 0.0817162 0
M  V30 1205 H 113.38 -3.91058 0.831484 0
M  V30 1206 H 114.82 -4.23718 -0.154708 0
M  V30 1207 C 113.279 -3.15718 -1.17576 0
M  V30 1208 O 113.809 -3.31878 -2.26318 0
M  V30 1209 N 112.015 -2.69816 -1.07923 0
M  V30 1210 H 111.562 -2.56866 -0.194293 0
M  V30 1211 H 111.52 -2.48855 -1.92141 0
M  V30 1212 N 115.292 -0.849877 -1.32721 0
M  V30 1213 C 116.255 -0.296122 -2.27279 0
M  V30 1214 C 117.255 0.541458 -1.5141 0
M  V30 1215 O 118.445 0.353658 -1.70572 0
M  V30 1216 C 115.577 0.581579 -3.35902 0
M  V30 1217 H 116.77 -1.13064 -2.77771 0
M  V30 1218 H 114.323 -0.62383 -1.43311 0
M  V30 1219 H 115.058 1.43809 -2.9067 0
M  V30 1220 H 114.843 -0.0178814 -3.92096 0
M  V30 1221 H 116.333 0.961951 -4.0637 0
M  V30 1222 N 116.77 1.45427 -0.607355 0
M  V30 1223 C 117.7 2.3329 0.0989352 0
M  V30 1224 C 118.681 1.46816 0.859007 0
M  V30 1225 O 119.866 1.75588 0.829604 0
M  V30 1226 C 116.996 3.29518 1.09705 0
M  V30 1227 C 115.95 4.25626 0.450206 0
M  V30 1228 C 115.276 5.11542 1.55655 0
M  V30 1229 C 116.576 5.18505 -0.628455 0
M  V30 1230 H 118.27 2.92595 -0.634716 0
M  V30 1231 H 115.816 1.40696 -0.306681 0
M  V30 1232 H 117.769 3.89855 1.59971 0
M  V30 1233 H 116.493 2.68372 1.86129 0
M  V30 1234 H 115.152 3.66586 -0.0315886 0
M  V30 1235 H 114.8 4.46765 2.31107 0
M  V30 1236 H 114.5 5.76647 1.12925 0
M  V30 1237 H 116.024 5.74748 2.06148 0
M  V30 1238 H 117.438 5.72916 -0.209877 0
M  V30 1239 H 115.835 5.92085 -0.977489 0
M  V30 1240 H 116.905 4.60948 -1.50514 0
M  V30 1241 N 118.248 0.346503 1.53744 0
M  V30 1242 C 119.476 -0.25041 2.05379 0
M  V30 1243 C 119.891 -1.43979 1.22129 0
M  V30 1244 O 119.248 -1.80677 0.257321 0
M  V30 1245 C 119.299 -0.662575 3.55376 0
M  V30 1246 O 119.02 0.479515 4.35468 0
M  V30 1247 C 120.521 -1.31989 4.23195 0
M  V30 1248 H 117.741 -0.0478198 0.669294 0
M  V30 1249 H 120.285 0.499346 1.9831 0
M  V30 1250 H 118.44 -1.36227 3.62658 0
M  V30 1251 H 118.854 0.15037 5.24284 0
M  V30 1252 H 120.328 -1.55902 5.29527 0
M  V30 1253 H 120.805 -2.27436 3.75725 0
M  V30 1254 H 121.411 -0.662154 4.20114 0
M  V30 1255 N 119.726 -1.57421 0.075193 0
M  V30 1256 C 121.137 -1.81021 -0.456964 0
M  V30 1257 C 121.488 -0.98936 -1.69429 0
M  V30 1258 O 120.613 -0.212865 -2.15351 0
M  V30 1259 C 121.208 -3.28329 -0.83581 0
M  V30 1260 C 119.767 -3.52764 -1.31281 0
M  V30 1261 C 118.914 -2.75676 -0.299648 0
M  V30 1262 H 121.865 -1.55822 0.300856 0
M  V30 1263 H 121.886 -3.40564 -1.69696 0
M  V30 1264 H 121.398 -3.88046 0.0649238 0
M  V30 1265 H 119.499 -2.98355 -2.23193 0
M  V30 1266 H 119.612 -4.61451 -1.28839 0
M  V30 1267 H 117.976 -2.42538 -0.777641 0
M  V30 1268 H 118.759 -3.38132 0.593417 0
M  V30 1269 N 121.204 0.198386 -1.56346 0
M  V30 1270 C 122.615 0.763358 -1.70381 0
M  V30 1271 C 122.966 1.83995 -0.681203 0
M  V30 1272 O 122.091 2.15785 0.16305 0
M  V30 1273 C 122.686 1.39143 -3.08909 0
M  V30 1274 C 121.245 1.90352 -3.2472 0
M  V30 1275 C 120.392 0.772233 -2.6633 0
M  V30 1276 H 123.343 -0.0266377 -1.58678 0
M  V30 1277 H 123.364 2.26076 -3.06055 0
M  V30 1278 H 122.876 0.607638 -3.83314 0
M  V30 1279 H 120.977 2.71461 -2.55225 0
M  V30 1280 H 121.09 2.06757 -4.3219 0
M  V30 1281 H 119.454 1.18566 -2.2542 0
M  V30 1282 H 120.237 0.00073556 -3.433 0
M  V30 1283 N 122.682 1.50554 0.465978 0
M  V30 1284 C 124.093 1.54599 1.04671 0
M  V30 1285 C 124.444 0.352488 1.93008 0
M  V30 1286 O 123.569 -0.534044 2.09707 0
M  V30 1287 C 124.164 2.80166 1.90505 0
M  V30 1288 C 122.723 2.86876 2.43678 0
M  V30 1289 C 121.87 2.48947 1.22151 0
M  V30 1290 H 124.821 1.56744 0.248384 0
M  V30 1291 H 124.842 2.62311 2.75633 0
M  V30 1292 H 124.354 3.67013 1.26186 0
M  V30 1293 H 122.455 2.04393 3.11536 0
M  V30 1294 H 122.568 3.89885 2.78436 0
M  V30 1295 H 120.932 2.01498 1.5579 0
M  V30 1296 H 121.715 3.38107 0.594866 0
M  V30 1297 N 124.16 -0.719506 1.40217 0
M  V30 1298 C 125.388 -1.50864 1.41589 0
M  V30 1299 C 125.803 -1.88794 0.0145275 0
M  V30 1300 O 125.16 -1.55174 -0.960594 0
M  V30 1301 C 125.211 -2.78646 2.30302 0
M  V30 1302 O 124.932 -2.42321 3.64983 0
M  V30 1303 C 126.433 -3.72569 2.40224 0
M  V30 1304 H 123.653 -0.465709 0.48307 0
M  V30 1305 H 126.197 -0.88785 1.84221 0
M  V30 1306 H 124.352 -3.37019 1.91042 0
M  V30 1307 H 124.766 -3.24514 4.12057 0
M  V30 1308 H 126.24 -4.5908 3.06512 0
M  V30 1309 H 126.717 -4.15403 1.42608 0
M  V30 1310 H 127.323 -3.20109 2.80019 0
M  V30 1311 N 125.638 -1.25649 -0.95132 0
M  V30 1312 C 126.866 -1.13343 -1.73092 0
M  V30 1313 C 127.281 0.312434 -1.86197 0
M  V30 1314 O 126.638 1.21465 -1.36207 0
M  V30 1315 C 126.689 -1.78602 -3.14299 0
M  V30 1316 O 126.41 -3.17537 -3.01831 0
M  V30 1317 C 127.911 -1.72119 -4.08522 0
M  V30 1318 H 125.131 -0.395181 -0.542285 0
M  V30 1319 H 127.675 -1.66076 -1.19328 0
M  V30 1320 H 125.83 -1.29832 -3.64996 0
M  V30 1321 H 126.244 -3.49676 -3.90931 0
M  V30 1322 H 127.718 -2.22435 -5.052 0
M  V30 1323 H 128.195 -0.685635 -4.33815 0
M  V30 1324 H 128.801 -2.20393 -3.63741 0
M  V30 1325 N 127.117 1.15442 -1.07289 0
M  V30 1326 C 128.528 1.67803 -0.818475 0
M  V30 1327 C 128.879 1.8489 0.656507 0
M  V30 1328 O 128.004 1.55176 1.50829 0
M  V30 1329 C 128.599 3.04805 -1.47917 0
M  V30 1330 C 127.158 3.54245 -1.27229 0
M  V30 1331 C 126.305 2.29986 -1.54925 0
M  V30 1332 H 129.256 0.996646 -1.23502 0
M  V30 1333 H 129.277 3.69702 -0.90005 0
M  V30 1334 H 128.789 2.92336 -2.55267 0
M  V30 1335 H 126.89 3.71956 -0.21899 0
M  V30 1336 H 127.003 4.35723 -1.99203 0
M  V30 1337 H 125.367 2.35496 -0.970242 0
M  V30 1338 H 126.15 2.20105 -2.63455 0
M  V30 1339 N 128.595 0.856903 1.32268 0
M  V30 1340 C 129.505 0.306131 2.32594 0
M  V30 1341 C 130.521 -0.577209 1.64147 0
M  V30 1342 O 131.697 -0.477043 1.95669 0
M  V30 1343 C 128.762 -0.494561 3.43154 0
M  V30 1344 C 127.823 0.415186 4.27288 0
M  V30 1345 C 127.056 -0.347387 5.32568 0
M  V30 1346 O 127.279 -1.57708 5.48165 0
M  V30 1347 O 126.213 0.287982 6.01211 0
M  V30 1348 H 130.039 1.13737 2.81598 0
M  V30 1349 H 127.624 0.619902 1.35932 0
M  V30 1350 H 129.506 -0.948944 4.10576 0
M  V30 1351 H 128.181 -1.30257 2.96336 0
M  V30 1352 H 127.088 0.917793 3.62667 0
M  V30 1353 H 128.421 1.18844 4.77637 0
M  V30 1354 N 130.073 -1.45103 0.615059 0
M  V30 1355 C 131.319 -2.03035 0.121804 0
M  V30 1356 C 131.674 -1.47393 -1.23665 0
M  V30 1357 O 130.967 -0.642061 -1.80522 0
M  V30 1358 C 131.161 -3.57386 0.0318797 0
M  V30 1359 C 130.99 -4.28 1.38007 0
M  V30 1360 C 129.76 -4.65624 1.9627 0
M  V30 1361 C 131.958 -4.5948 2.31047 0
M  V30 1362 N 129.94 -5.21132 3.24492 0
M  V30 1363 C 131.311 -5.159 3.43872 0
M  V30 1364 C 133.366 -4.41423 2.30326 0
M  V30 1365 C 132.069 -5.56165 4.5615 0
M  V30 1366 C 134.095 -4.82726 3.41658 0
M  V30 1367 C 133.457 -5.39245 4.53205 0
M  V30 1368 H 129.556 -0.77702 0.0881159 0
M  V30 1369 H 132.14 -1.76819 0.815044 0
M  V30 1370 H 130.311 -3.83247 -0.630599 0
M  V30 1371 H 132.043 -4.01976 -0.468721 0
M  V30 1372 H 128.798 -4.49421 1.49392 0
M  V30 1373 H 129.222 -5.53377 3.90004 0
M  V30 1374 H 133.864 -3.97033 1.45343 0
M  V30 1375 H 131.582 -5.99517 5.41854 0
M  V30 1376 H 135.168 -4.7048 3.42257 0
M  V30 1377 H 134.048 -5.70616 5.37929 0
M  V30 1378 N 131.551 -0.354651 -1.53558 0
M  V30 1379 C 132.8 0.239504 -2.00273 0
M  V30 1380 C 133.113 1.50759 -1.24623 0
M  V30 1381 O 134.319 2.17968 -1.61871 0
M  V30 1382 C 132.775 0.477341 -3.5672 0
M  V30 1383 C 132.383 -0.775488 -4.41237 0
M  V30 1384 C 134.127 1.02975 -4.11821 0
M  V30 1385 C 132.034 -0.507838 -5.89216 0
M  V30 1386 H 130.964 0.0932743 -0.748208 0
M  V30 1387 H 133.615 -0.471701 -1.77334 0
M  V30 1388 H 131.997 1.24953 -3.7577 0
M  V30 1389 H 133.171 -1.54963 -4.33962 0
M  V30 1390 H 131.486 -1.25033 -3.97185 0
M  V30 1391 H 134.083 1.24513 -5.2 0
M  V30 1392 H 134.426 1.98862 -3.65731 0
M  V30 1393 H 134.959 0.317994 -3.96527 0
M  V30 1394 H 131.698 -1.43674 -6.39561 0
M  V30 1395 H 131.218 0.228011 -5.99366 0
M  V30 1396 H 132.897 -0.129238 -6.46871 0
M  V30 1397 N 133.029 1.57378 -0.0835403 0
M  V30 1398 C 133.976 2.13384 0.879539 0
M  V30 1399 C 134.946 1.04936 1.28754 0
M  V30 1400 O 136.131 1.32662 1.37133 0
M  V30 1401 C 133.271 2.70932 2.13752 0
M  V30 1402 C 132.384 3.93575 1.7811 0
M  V30 1403 C 131.519 4.39326 2.98607 0
M  V30 1404 C 130.558 5.54587 2.59037 0
M  V30 1405 N 129.695 5.95243 3.72331 0
M  V30 1406 H 134.535 2.9537 0.395076 0
M  V30 1407 H 132.072 1.45953 0.183349 0
M  V30 1408 H 134.03 3.02411 2.87408 0
M  V30 1409 H 132.66 1.91693 2.59718 0
M  V30 1410 H 131.712 3.68483 0.94469 0
M  V30 1411 H 133.024 4.77258 1.45005 0
M  V30 1412 H 132.178 4.72528 3.80529 0
M  V30 1413 H 130.917 3.5452 3.34913 0
M  V30 1414 H 129.922 5.21024 1.75539 0
M  V30 1415 H 131.147 6.41133 2.23887 0
M  V30 1416 H 129.093 5.13385 4.08378 0
M  V30 1417 H 129.01 6.73694 3.43034 0
M  V30 1418 H 130.278 6.33072 4.54797 0
M  V30 1419 N 134.507 -0.190092 1.56449 0
M  V30 1420 C 135.754 -0.909705 1.80916 0
M  V30 1421 C 136.082 -1.83047 0.657583 0
M  V30 1422 O 135.337 -1.92428 -0.356356 0
M  V30 1423 C 135.636 -1.75382 3.1141 0
M  V30 1424 C 135.302 -0.983606 4.40041 0
M  V30 1425 C 133.964 -0.770967 4.74984 0
M  V30 1426 C 136.316 -0.442024 5.19322 0
M  V30 1427 C 133.644 -0.0053448 5.867 0
M  V30 1428 C 135.996 0.310412 6.31838 0
M  V30 1429 C 134.66 0.534023 6.6536 0
M  V30 1430 H 133.93 -0.332885 0.662019 0
M  V30 1431 H 136.577 -0.175762 1.90692 0
M  V30 1432 H 134.882 -2.55659 2.96893 0
M  V30 1433 H 136.579 -2.31331 3.27547 0
M  V30 1434 H 133.169 -1.15936 4.12622 0
M  V30 1435 H 137.353 -0.593693 4.92736 0
M  V30 1436 H 132.609 0.177825 6.11141 0
M  V30 1437 H 136.783 0.737419 6.92485 0
M  V30 1438 H 134.41 1.12918 7.51767 0
M  V30 1439 N 135.985 -1.50799 -0.457987 0
M  V30 1440 C 137.225 -1.64088 -1.21879 0
M  V30 1441 C 137.589 -0.339848 -1.88968 0
M  V30 1442 O 138.79 -0.348301 -2.66534 0
M  V30 1443 C 137.061 -2.79726 -2.2246 0
M  V30 1444 S 138.62 -3.13225 -3.07303 0
M  V30 1445 H 135.438 -0.578314 -0.41361 0
M  V30 1446 H 138.04 -1.88632 -0.513645 0
M  V30 1447 H 136.744 -3.72722 -1.71775 0
M  V30 1448 H 136.275 -2.57308 -2.97584 0
M  V30 1449 H 138.29 -2.58062 -4.23814 0
M  V30 1450 N 137.463 0.71206 -1.40597 0
M  V30 1451 C 138.879 1.02058 -1.22704 0
M  V30 1452 C 139.079 2.01228 -0.104729 0
M  V30 1453 O 138.135 2.4674 0.53624 0
M  V30 1454 C 139.448 1.56094 -2.57012 0
M  V30 1455 C 140.996 1.6806 -2.64054 0
M  V30 1456 C 141.471 2.25501 -3.9864 0
M  V30 1457 N 142.962 2.32882 -4.004 0
M  V30 1458 C 143.697 2.78317 -5.01325 0
M  V30 1459 N 143.193 3.23478 -6.12645 0
M  V30 1460 N 144.986 2.77733 -4.88693 0
M  V30 1461 H 137.137 0.0547896 -2.12329 0
M  V30 1462 H 139.4 0.0869027 -0.944008 0
M  V30 1463 H 139.106 0.906865 -3.39807 0
M  V30 1464 H 138.98 2.54564 -2.78347 0
M  V30 1465 H 141.367 2.32583 -1.81629 0
M  V30 1466 H 141.448 0.681802 -2.46546 0
M  V30 1467 H 141.092 1.61598 -4.81506 0
M  V30 1468 H 141.022 3.26102 -4.13479 0
M  V30 1469 H 143.513 2.00991 -3.20017 0
M  V30 1470 H 143.826 3.56725 -6.85542 0
M  V30 1471 H 142.171 3.21429 -6.16205 0
M  V30 1472 H 145.362 2.4179 -4.00818 0
M  V30 1473 H 145.535 3.12826 -5.67489 0
M  V30 1474 N 138.941 1.26152 0.944643 0
M  V30 1475 C 139.873 1.03199 2.04652 0
M  V30 1476 C 140.886 -0.00642356 1.62799 0
M  V30 1477 O 142.075 0.233263 1.76969 0
M  V30 1478 C 139.175 0.540111 3.34568 0
M  V30 1479 C 138.348 1.64697 4.05208 0
M  V30 1480 C 137.407 1.15374 5.13396 0
M  V30 1481 O 136.433 1.85013 5.38293 0
M  V30 1482 N 137.635 0.00031529 5.805 0
M  V30 1483 H 140.4 1.9808 2.2491 0
M  V30 1484 H 137.961 1.17491 1.11389 0
M  V30 1485 H 139.953 0.194401 4.04233 0
M  V30 1486 H 138.523 -0.315021 3.11009 0
M  V30 1487 H 137.743 2.16379 3.29506 0
M  V30 1488 H 139.031 2.3903 4.49157 0
M  V30 1489 H 138.429 -0.581336 5.62705 0
M  V30 1490 H 136.986 -0.286346 6.51171 0
M  V30 1491 N 140.419 -1.14872 1.07899 0
M  V30 1492 C 141.349 -2.2193 0.725887 0
M  V30 1493 C 142.33 -1.67622 -0.28927 0
M  V30 1494 O 143.515 -1.93533 -0.160787 0
M  V30 1495 C 140.645 -3.47061 0.128856 0
M  V30 1496 C 139.599 -4.14363 1.07178 0
M  V30 1497 C 138.925 -5.33636 0.337229 0
M  V30 1498 C 140.225 -4.63492 2.40775 0
M  V30 1499 H 141.919 -2.51724 1.62097 0
M  V30 1500 H 139.465 -1.20991 0.780838 0
M  V30 1501 H 141.418 -4.21199 -0.130147 0
M  V30 1502 H 140.142 -3.16617 -0.80134 0
M  V30 1503 H 138.801 -3.42173 1.3158 0
M  V30 1504 H 138.449 -4.99449 -0.596606 0
M  V30 1505 H 138.149 -5.79609 0.965788 0
M  V30 1506 H 139.673 -6.10539 0.0861567 0
M  V30 1507 H 141.087 -5.2913 2.20669 0
M  V30 1508 H 139.484 -5.20148 2.99276 0
M  V30 1509 H 140.554 -3.78834 3.02676 0
M  V30 1510 N 141.898 -0.863906 -1.31812 0
M  V30 1511 C 143.145 -0.471836 -1.96926 0
M  V30 1512 C 143.473 0.974578 -1.68322 0
M  V30 1513 O 142.728 1.7003 -0.968933 0
M  V30 1514 C 143.027 -0.668547 -3.51091 0
M  V30 1515 C 142.693 -2.08683 -3.99703 0
M  V30 1516 C 141.355 -2.47471 -4.12688 0
M  V30 1517 C 143.707 -3.01207 -4.25351 0
M  V30 1518 C 141.035 -3.78037 -4.4867 0
M  V30 1519 C 143.387 -4.31282 -4.62794 0
M  V30 1520 C 142.051 -4.69992 -4.73987 0
M  V30 1521 H 141.321 -0.172657 -0.720604 0
M  V30 1522 H 143.968 -1.09573 -1.57054 0
M  V30 1523 H 142.273 0.0385252 -3.91781 0
M  V30 1524 H 143.97 -0.345102 -3.99512 0
M  V30 1525 H 140.56 -1.77566 -3.90087 0
M  V30 1526 H 144.744 -2.72469 -4.14819 0
M  V30 1527 H 140 -4.078 -4.55532 0
M  V30 1528 H 144.174 -5.03031 -4.81594 0
M  V30 1529 H 141.801 -5.71207 -5.01624 0
M  V30 1530 N 143.376 1.44774 -0.622745 0
M  V30 1531 C 144.624 2.01721 -0.123655 0
M  V30 1532 C 144.945 1.49172 1.25589 0
M  V30 1533 O 144.215 0.691974 1.83272 0
M  V30 1534 H 142.795 0.745777 -0.0427225 0
M  V30 1535 H 145.457 1.77382 -0.807559 0
M  V30 1536 H 144.553 3.11984 -0.0849534 0
M  V30 1537 N 144.854 0.36279 1.53368 0
M  V30 1538 C 146.102 -0.227326 2.00817 0
M  V30 1539 C 146.423 -1.49511 1.25186 0
M  V30 1540 O 145.693 -1.92482 0.364348 0
M  V30 1541 H 144.273 -0.0869923 0.741917 0
M  V30 1542 H 146.935 0.488381 1.88682 0
M  V30 1543 H 146.031 -0.456273 3.08747 0
M  V30 1544 N 146.332 -1.57332 0.0918853 0
M  V30 1545 C 147.579 -1.94236 -0.572577 0
M  V30 1546 C 147.907 -0.973398 -1.6839 0
M  V30 1547 O 147.162 0.00756912 -1.95699 0
M  V30 1548 C 147.461 -3.37689 -1.17051 0
M  V30 1549 C 147.127 -4.50527 -0.183304 0
M  V30 1550 C 145.789 -4.81119 0.0882276 0
M  V30 1551 C 148.141 -5.18883 0.49095 0
M  V30 1552 C 145.469 -5.77395 1.04076 0
M  V30 1553 C 147.821 -6.1618 1.43193 0
M  V30 1554 C 146.485 -6.45179 1.71173 0
M  V30 1555 H 145.755 -0.710762 -0.209521 0
M  V30 1556 H 148.402 -1.9077 0.167036 0
M  V30 1557 H 146.707 -3.37718 -1.9863 0
M  V30 1558 H 148.404 -3.63543 -1.69227 0
M  V30 1559 H 144.994 -4.26681 -0.405124 0
M  V30 1560 H 149.178 -4.95427 0.294312 0
M  V30 1561 H 144.434 -5.98179 1.26457 0
M  V30 1562 H 148.608 -6.68243 1.96023 0
M  V30 1563 H 146.235 -7.1959 2.4514 0
M  V30 1564 N 147.81 0.181792 -1.56548 0
M  V30 1565 C 149.035 0.920019 -1.85877 0
M  V30 1566 C 149.46 1.75494 -0.677021 0
M  V30 1567 O 148.818 1.77399 0.374056 0
M  V30 1568 C 148.866 1.78112 -3.13542 0
M  V30 1569 O 147.97 2.88152 -2.95029 0
M  V30 1570 H 147.311 0.258334 -0.611686 0
M  V30 1571 H 149.841 0.183092 -2.03779 0
M  V30 1572 H 149.851 2.18314 -3.44678 0
M  V30 1573 H 148.526 1.16777 -3.99169 0
M  V30 1574 H 147.103 2.51609 -2.75222 0
M  V30 1575 N 149.288 1.51039 0.449983 0
M  V30 1576 C 150.221 1.66105 1.56474 0
M  V30 1577 C 151.199 0.508776 1.54435 0
M  V30 1578 O 152.383 0.731005 1.73749 0
M  V30 1579 C 149.51 1.66304 2.9506 0
M  V30 1580 C 148.556 2.87346 3.15174 0
M  V30 1581 S 149.389 4.4835 2.92818 0
M  V30 1582 C 150.545 4.51274 4.33708 0
M  V30 1583 H 150.778 2.60397 1.43459 0
M  V30 1584 H 148.311 1.40565 0.638805 0
M  V30 1585 H 150.269 1.67103 3.74949 0
M  V30 1586 H 148.93 0.732108 3.05449 0
M  V30 1587 H 148.123 2.83849 4.16468 0
M  V30 1588 H 147.725 2.84223 2.43091 0
M  V30 1589 H 150.017 4.26136 5.26701 0
M  V30 1590 H 150.96 5.53017 4.42242 0
M  V30 1591 H 151.368 3.80738 4.16772 0
M  V30 1592 N 150.766 -0.704594 1.40972 0
M  V30 1593 C 151.696 -1.83124 1.44872 0
M  V30 1594 C 152.677 -1.67281 0.30838 0
M  V30 1595 O 153.862 -1.87149 0.518556 0
M  V30 1596 C 150.992 -3.21181 1.32136 0
M  V30 1597 C 149.946 -3.51714 2.43888 0
M  V30 1598 C 149.272 -4.89032 2.16222 0
M  V30 1599 C 150.572 -3.516 3.86232 0
M  V30 1600 H 152.266 -1.80117 2.39161 0
M  V30 1601 H 149.812 -0.865145 1.15114 0
M  V30 1602 H 151.765 -3.99702 1.33479 0
M  V30 1603 H 150.489 -3.24791 0.343279 0
M  V30 1604 H 149.148 -2.75539 2.41813 0
M  V30 1605 H 148.796 -4.89256 1.16778 0
M  V30 1606 H 148.496 -5.10426 2.911 0
M  V30 1607 H 150.02 -5.69873 2.19265 0
M  V30 1608 H 151.434 -4.2014 3.9007 0
M  V30 1609 H 149.831 -3.84523 4.60719 0
M  V30 1610 H 150.901 -2.50757 4.15029 0
M  V30 1611 N 152.244 -1.26651 -0.937939 0
M  V30 1612 C 153.174 -1.10993 -2.05433 0
M  V30 1613 C 154.155 -0.0142161 -1.70094 0
M  V30 1614 O 155.34 -0.186837 -1.93299 0
M  V30 1615 C 152.47 -0.745561 -3.39203 0
M  V30 1616 C 151.424 -1.79337 -3.88616 0
M  V30 1617 C 150.75 -1.28324 -5.19073 0
M  V30 1618 C 152.05 -3.19553 -4.13138 0
M  V30 1619 H 153.744 -2.0438 -2.1879 0
M  V30 1620 H 151.29 -0.984041 -1.05131 0
M  V30 1621 H 153.243 -0.622888 -4.16771 0
M  V30 1622 H 151.967 0.22401 -3.25831 0
M  V30 1623 H 150.626 -1.90477 -3.13231 0
M  V30 1624 H 150.274 -0.303414 -5.02084 0
M  V30 1625 H 149.974 -1.98369 -5.53103 0
M  V30 1626 H 151.498 -1.1733 -5.99221 0
M  V30 1627 H 152.912 -3.11471 -4.81309 0
M  V30 1628 H 151.309 -3.87218 -4.58457 0
M  V30 1629 H 152.379 -3.65368 -3.18801 0
M  V30 1630 N 153.722 1.14298 -1.08507 0
M  V30 1631 C 154.968 1.85854 -0.826438 0
M  V30 1632 C 155.323 1.81413 0.640878 0
M  V30 1633 O 154.616 1.23463 1.46518 0
M  V30 1634 C 154.81 3.33547 -1.28379 0
M  V30 1635 C 154.639 3.52369 -2.79403 0
M  V30 1636 C 153.409 3.67159 -3.47164 0
M  V30 1637 C 155.607 3.49203 -3.77573 0
M  V30 1638 N 153.589 3.74149 -4.86709 0
M  V30 1639 C 154.96 3.6245 -5.03021 0
M  V30 1640 C 157.015 3.32547 -3.70563 0
M  V30 1641 C 155.718 3.60761 -6.2229 0
M  V30 1642 C 157.744 3.32162 -4.89308 0
M  V30 1643 C 157.106 3.45949 -6.13595 0
M  V30 1644 H 153.205 0.696705 -0.355143 0
M  V30 1645 H 155.789 1.36981 -1.38362 0
M  V30 1646 H 153.96 3.81008 -0.754166 0
M  V30 1647 H 155.692 3.92867 -0.971469 0
M  V30 1648 H 152.447 3.68433 -2.9758 0
M  V30 1649 H 152.871 3.81359 -5.5937 0
M  V30 1650 H 157.513 3.20797 -2.75407 0
M  V30 1651 H 155.231 3.71286 -7.17755 0
M  V30 1652 H 158.817 3.20485 -4.85573 0
M  V30 1653 H 157.697 3.456 -7.03939 0
M  V30 1654 N 155.201 0.870884 1.31352 0
M  V30 1655 C 156.45 0.478408 1.95944 0
M  V30 1656 C 156.763 -0.974493 1.69597 0
M  V30 1657 O 157.969 -1.47316 2.28058 0
M  V30 1658 C 156.425 0.804609 3.50791 0
M  V30 1659 C 156.033 2.27433 3.85977 0
M  V30 1660 C 157.777 0.480648 4.2177 0
M  V30 1661 C 155.684 2.5429 5.33939 0
M  V30 1662 H 154.614 0.175175 0.733369 0
M  V30 1663 H 157.265 1.06391 1.4951 0
M  V30 1664 H 155.647 0.148347 3.95722 0
M  V30 1665 H 156.821 2.97373 3.52002 0
M  V30 1666 H 155.136 2.56442 3.28065 0
M  V30 1667 H 157.733 0.658519 5.30629 0
M  V30 1668 H 158.076 -0.578979 4.12254 0
M  V30 1669 H 158.609 1.09349 3.82476 0
M  V30 1670 H 155.348 3.58939 5.48491 0
M  V30 1671 H 154.868 1.88945 5.69263 0
M  V30 1672 H 156.547 2.39066 6.01212 0
M  V30 1673 N 156.679 -1.44442 0.630414 0
M  V30 1674 C 157.927 -2.01653 0.134351 0
M  V30 1675 C 158.248 -1.49836 -1.24796 0
M  V30 1676 O 157.518 -0.701684 -1.82902 0
M  V30 1677 H 156.098 -0.74554 0.0466769 0
M  V30 1678 H 158.76 -1.76952 0.816955 0
M  V30 1679 H 157.856 -3.11935 0.101498 0
M  V30 1680 N 158.157 -0.370918 -1.53173 0
M  V30 1681 C 159.12 0.460778 -2.24521 0
M  V30 1682 C 160.12 1.00536 -1.25496 0
M  V30 1683 O 161.31 0.890266 -1.49733 0
M  V30 1684 C 158.442 1.64457 -2.98608 0
M  V30 1685 H 159.635 -0.163613 -2.99453 0
M  V30 1686 H 157.188 -0.122699 -1.55818 0
M  V30 1687 H 157.923 2.30691 -2.2793 0
M  V30 1688 H 157.708 1.26099 -3.7127 0
M  V30 1689 H 159.198 2.23384 -3.5283 0
M  V30 1690 N 159.635 1.57281 -0.100228 0
M  V30 1691 C 160.884 1.93713 0.561984 0
M  V30 1692 C 161.197 0.984492 1.69018 0
M  V30 1693 O 162.403 1.24273 2.41389 0
M  V30 1694 C 160.859 3.4421 1.05106 0
M  V30 1695 C 160.467 4.47975 -0.0476628 0
M  V30 1696 C 162.211 3.89595 1.68571 0
M  V30 1697 C 160.118 5.89631 0.457055 0
M  V30 1698 H 159.048 0.723082 0.2137 0
M  V30 1699 H 161.699 1.82644 -0.177057 0
M  V30 1700 H 160.081 3.50449 1.84395 0
M  V30 1701 H 161.255 4.53385 -0.823333 0
M  V30 1702 H 159.57 4.1223 -0.587816 0
M  V30 1703 H 162.167 4.92832 2.07414 0
M  V30 1704 H 162.51 3.28526 2.55688 0
M  V30 1705 H 163.043 3.86078 0.958562 0
M  V30 1706 H 159.782 6.54411 -0.377616 0
M  V30 1707 H 159.302 5.87681 1.19962 0
M  V30 1708 H 160.981 6.40363 0.92437 0
M  V30 1709 N 161.113 -0.173488 1.56642 0
M  V30 1710 C 162.043 -1.2171 1.99271 0
M  V30 1711 C 163.024 -1.46289 0.867959 0
M  V30 1712 O 164.209 -1.5766 1.13388 0
M  V30 1713 C 161.339 -2.55651 2.35074 0
M  V30 1714 C 160.293 -2.45645 3.50489 0
M  V30 1715 C 159.619 -3.84056 3.72028 0
M  V30 1716 C 160.919 -1.96302 4.84007 0
M  V30 1717 H 162.613 -0.86275 2.867 0
M  V30 1718 H 160.159 -0.413571 1.37933 0
M  V30 1719 H 162.112 -3.2886 2.63494 0
M  V30 1720 H 160.836 -2.92869 1.44552 0
M  V30 1721 H 159.495 -1.7489 3.22194 0
M  V30 1722 H 159.143 -4.18664 2.788 0
M  V30 1723 H 158.843 -3.7823 4.49684 0
M  V30 1724 H 160.367 -4.58854 4.02846 0
M  V30 1725 H 161.781 -2.59284 5.11317 0
M  V30 1726 H 160.178 -2.01429 5.65284 0
M  V30 1727 H 161.248 -0.917226 4.76146 0
M  V30 1728 N 162.591 -1.51276 -0.441967 0
M  V30 1729 C 163.831 -1.65372 -1.20132 0
M  V30 1730 C 164.195 -0.359871 -1.88597 0
M  V30 1731 O 165.396 -0.376551 -2.66149 0
M  V30 1732 C 163.667 -2.8207 -2.1948 0
M  V30 1733 S 165.226 -3.16467 -3.03964 0
M  V30 1734 H 162.044 -0.582669 -0.407453 0
M  V30 1735 H 164.646 -1.89166 -0.493609 0
M  V30 1736 H 163.35 -3.74523 -1.67812 0
M  V30 1737 H 162.881 -2.6045 -2.94838 0
M  V30 1738 H 164.896 -2.62543 -4.21053 0
M  V30 1739 N 164.069 0.697108 -1.41344 0
M  V30 1740 C 165.316 1.45714 -1.40619 0
M  V30 1741 C 165.644 1.94494 -0.0147907 0
M  V30 1742 O 164.899 1.69794 0.973066 0
M  V30 1743 C 165.198 2.68553 -2.35826 0
M  V30 1744 C 164.864 2.38438 -3.82698 0
M  V30 1745 C 163.526 2.29936 -4.22709 0
M  V30 1746 C 165.878 2.13567 -4.75435 0
M  V30 1747 C 163.206 1.94656 -5.53467 0
M  V30 1748 C 165.558 1.79797 -6.06511 0
M  V30 1749 C 164.222 1.69789 -6.45545 0
M  V30 1750 H 163.492 0.533206 -0.51456 0
M  V30 1751 H 166.139 0.796901 -1.74131 0
M  V30 1752 H 164.444 3.39503 -1.95563 0
M  V30 1753 H 166.141 3.2669 -2.32539 0
M  V30 1754 H 162.731 2.4595 -3.51008 0
M  V30 1755 H 166.915 2.19082 -4.45328 0
M  V30 1756 H 162.171 1.8546 -5.82593 0
M  V30 1757 H 166.345 1.59572 -6.77872 0
M  V30 1758 H 163.972 1.4222 -7.46778 0
M  V30 1759 N 165.547 1.27147 0.931209 0
M  V30 1760 C 166.477 1.12081 2.04842 0
M  V30 1761 C 167.458 0.0232364 1.70084 0
M  V30 1762 O 168.643 0.197085 1.93197 0
M  V30 1763 C 165.773 0.76354 3.38803 0
M  V30 1764 C 164.727 1.81396 3.87659 0
M  V30 1765 C 164.053 1.31075 5.18385 0
M  V30 1766 C 165.353 3.21739 4.11438 0
M  V30 1767 H 167.047 2.05537 2.17703 0
M  V30 1768 H 164.593 0.989603 1.04608 0
M  V30 1769 H 166.546 0.644982 4.16435 0
M  V30 1770 H 165.27 -0.206727 3.25945 0
M  V30 1771 H 163.929 1.92136 3.12217 0
M  V30 1772 H 163.577 0.330037 5.01916 0
M  V30 1773 H 163.277 2.013 5.52044 0
M  V30 1774 H 164.801 1.20506 5.98591 0
M  V30 1775 H 166.215 3.14019 4.79651 0
M  V30 1776 H 164.612 3.89644 4.56397 0
M  V30 1777 H 165.682 3.67054 3.16859 0
M  V30 1778 N 167.025 -1.13721 1.09112 0
M  V30 1779 C 167.988 -2.17222 0.731241 0
M  V30 1780 C 168.988 -1.59035 -0.237566 0
M  V30 1781 O 170.178 -1.74192 -0.0161704 0
M  V30 1782 C 167.31 -3.40804 0.0808443 0
M  V30 1783 H 168.503 -2.50573 1.64783 0
M  V30 1784 H 166.056 -1.28493 0.889897 0
M  V30 1785 H 166.791 -3.1304 -0.847127 0
M  V30 1786 H 166.576 -3.84306 0.777896 0
M  V30 1787 H 168.066 -4.1731 -0.155657 0
M  V30 1788 N 168.503 -0.877838 -1.30888 0
M  V30 1789 C 169.733 -0.506678 -2.00291 0
M  V30 1790 C 170.141 0.907449 -1.66018 0
M  V30 1791 O 169.484 1.60719 -0.88967 0
M  V30 1792 C 169.546 -0.59323 -3.54572 0
M  V30 1793 C 169.21 -1.97038 -4.12341 0
M  V30 1794 C 170.207 -2.93889 -4.28865 0
M  V30 1795 C 167.892 -2.27383 -4.47886 0
M  V30 1796 C 169.886 -4.19224 -4.80136 0
M  V30 1797 C 167.573 -3.52965 -4.98857 0
M  V30 1798 C 168.571 -4.48701 -5.14934 0
M  V30 1799 O 168.259 -5.72056 -5.64808 0
M  V30 1800 H 167.991 -0.1951 -0.647234 0
M  V30 1801 H 170.545 -1.18301 -1.6791 0
M  V30 1802 H 168.775 0.140057 -3.86446 0
M  V30 1803 H 170.464 -0.234372 -4.05223 0
M  V30 1804 H 171.23 -2.71756 -4.01714 0
M  V30 1805 H 167.109 -1.53639 -4.34645 0
M  V30 1806 H 170.653 -4.93956 -4.92599 0
M  V30 1807 H 166.55 -3.74939 -5.25443 0
M  V30 1808 H 167.318 -5.74337 -5.83163 0
M  V30 1809 N 169.982 1.44106 -0.638065 0
M  V30 1810 C 171.207 2.0685 -0.150916 0
M  V30 1811 C 171.632 1.47417 1.16833 0
M  V30 1812 O 170.99 0.578264 1.71831 0
M  V30 1813 C 171.038 3.60555 -0.05708 0
M  V30 1814 O 170.142 4.00465 0.984972 0
M  V30 1815 H 169.483 0.658151 -0.0879399 0
M  V30 1816 H 172.013 1.84865 -0.876707 0
M  V30 1817 H 172.023 4.07789 0.131232 0
M  V30 1818 H 170.698 4.03193 -1.02021 0
M  V30 1819 H 169.275 3.64849 0.770672 0
M  V30 1820 N 171.46 0.379036 1.52974 0
M  V30 1821 C 172.709 -0.207612 2.00629 0
M  V30 1822 C 173.022 -1.48758 1.27006 0
M  V30 1823 O 174.228 -2.15365 1.65318 0
M  V30 1824 C 172.684 -0.42053 3.57435 0
M  V30 1825 C 172.292 0.845587 4.39948 0
M  V30 1826 C 174.036 -0.964102 4.13407 0
M  V30 1827 C 171.943 0.601513 5.88333 0
M  V30 1828 H 170.873 -0.0813591 0.749598 0
M  V30 1829 H 173.524 0.499853 1.76561 0
M  V30 1830 H 171.906 -1.18959 3.7771 0
M  V30 1831 H 173.08 1.61848 4.31442 0
M  V30 1832 H 171.395 1.31336 3.95145 0
M  V30 1833 H 173.992 -1.16225 5.21916 0
M  V30 1834 H 174.335 -1.93019 3.68849 0
M  V30 1835 H 174.868 -0.25487 3.96983 0
M  V30 1836 H 171.607 1.53831 6.37194 0
M  V30 1837 H 171.127 -0.132628 5.99653 0
M  V30 1838 H 172.806 0.232134 6.46583 0
M  V30 1839 N 172.938 -1.57226 0.108567 0
M  V30 1840 C 173.87 -2.11809 -0.875752 0
M  V30 1841 C 174.883 -1.05839 -1.23701 0
M  V30 1842 O 176.072 -1.33245 -1.18778 0
M  V30 1843 C 173.172 -2.59411 -2.18081 0
M  V30 1844 C 172.345 -3.89364 -1.99284 0
M  V30 1845 C 171.404 -4.22672 -3.13424 0
M  V30 1846 O 170.43 -4.91668 -2.86795 0
M  V30 1847 N 171.632 -3.79154 -4.3957 0
M  V30 1848 H 174.397 -2.9689 -0.409477 0
M  V30 1849 H 171.958 -1.61721 -0.076158 0
M  V30 1850 H 173.95 -2.7873 -2.93414 0
M  V30 1851 H 172.52 -1.79268 -2.5609 0
M  V30 1852 H 171.74 -3.79059 -1.08203 0
M  V30 1853 H 173.028 -4.74358 -1.84017 0
M  V30 1854 H 172.426 -3.23486 -4.64083 0
M  V30 1855 H 170.983 -4.03602 -5.11809 0
M  V30 1856 N 174.416 0.165178 -1.56732 0
M  V30 1857 C 175.379 1.18822 -1.95995 0
M  V30 1858 C 176.379 1.3685 -0.84431 0
M  V30 1859 O 177.569 1.34152 -1.11126 0
M  V30 1860 C 174.701 2.5521 -2.26011 0
M  V30 1861 H 175.894 0.851825 -2.87548 0
M  V30 1862 H 173.447 0.407857 -1.50885 0
M  V30 1863 H 174.182 2.93852 -1.37191 0
M  V30 1864 H 173.967 2.43489 -3.07336 0
M  V30 1865 H 175.457 3.28927 -2.57288 0
M  V30 1866 N 175.894 1.51508 0.433938 0
M  V30 1867 C 176.857 1.72473 1.50949 0
M  V30 1868 C 177.857 0.594725 1.49398 0
M  V30 1869 O 179.047 0.862315 1.5136 0
M  V30 1870 C 176.179 1.78431 2.90474 0
M  V30 1871 H 177.372 2.68467 1.33662 0
M  V30 1872 H 174.925 1.41549 0.662836 0
M  V30 1873 H 175.66 0.842645 3.13161 0
M  V30 1874 H 175.445 2.60558 2.93005 0
M  V30 1875 H 176.935 1.96479 3.68491 0
M  V30 1876 N 177.372 -0.689602 1.41712 0
M  V30 1877 C 178.6 -1.47827 1.44758 0
M  V30 1878 C 179.015 -1.88721 0.0545703 0
M  V30 1879 O 178.372 -1.57176 -0.927463 0
M  V30 1880 C 178.423 -2.73698 2.3616 0
M  V30 1881 O 178.144 -2.34524 3.7004 0
M  V30 1882 C 179.645 -3.67389 2.48072 0
M  V30 1883 H 176.865 -0.455357 0.49284 0
M  V30 1884 H 179.409 -0.848574 1.86063 0
M  V30 1885 H 177.564 -3.32891 1.98148 0
M  V30 1886 H 177.978 -3.15701 4.18847 0
M  V30 1887 H 179.452 -4.52475 3.16181 0
M  V30 1888 H 179.929 -4.12284 1.51388 0
M  V30 1889 H 180.535 -3.14097 2.86746 0
M  V30 1890 N 178.85 -1.27639 -0.924453 0
M  V30 1891 C 179.76 -1.12466 -2.05885 0
M  V30 1892 C 180.776 -0.053869 -1.73917 0
M  V30 1893 O 181.952 -0.261012 -1.99702 0
M  V30 1894 C 179.017 -0.776768 -3.37886 0
M  V30 1895 C 178.078 -1.92878 -3.83532 0
M  V30 1896 C 177.311 -1.59739 -5.09234 0
M  V30 1897 O 177.534 -0.506782 -5.68144 0
M  V30 1898 O 176.468 -2.43761 -5.50331 0
M  V30 1899 H 180.294 -2.07671 -2.21599 0
M  V30 1900 H 177.879 -1.06857 -1.04413 0
M  V30 1901 H 179.761 -0.596229 -4.17161 0
M  V30 1902 H 178.436 0.145732 -3.23372 0
M  V30 1903 H 177.343 -2.1644 -3.0513 0
M  V30 1904 H 178.676 -2.8316 -4.02593 0
M  V30 1905 N 180.328 1.1314 -1.09713 0
M  V30 1906 C 181.238 2.22242 -0.751367 0
M  V30 1907 C 182.254 1.72224 0.247938 0
M  V30 1908 O 183.43 2.01205 0.0885463 0
M  V30 1909 C 180.495 3.46231 -0.180274 0
M  V30 1910 C 179.556 4.11125 -1.2359 0
M  V30 1911 C 178.789 5.29195 -0.691966 0
M  V30 1912 O 179.012 5.68342 0.48414 0
M  V30 1913 O 177.946 5.84214 -1.44838 0
M  V30 1914 H 181.772 2.54197 -1.66186 0
M  V30 1915 H 179.357 1.21331 -0.871735 0
M  V30 1916 H 181.239 4.21185 0.134739 0
M  V30 1917 H 179.914 3.1597 0.703185 0
M  V30 1918 H 178.821 3.37985 -1.60366 0
M  V30 1919 H 180.154 4.45524 -2.09211 0
M  V30 1920 N 181.806 0.884767 1.30421 0
M  V30 1921 C 182.716 0.355398 2.31892 0
M  V30 1922 C 183.732 -0.542261 1.65335 0
M  V30 1923 O 184.908 -0.435432 1.96637 0
M  V30 1924 C 181.973 -0.421661 3.44126 0
M  V30 1925 C 181.034 0.505727 4.26311 0
M  V30 1926 C 180.267 -0.234343 5.33185 0
M  V30 1927 O 180.49 -1.46045 5.51386 0
M  V30 1928 O 179.424 0.415443 6.00465 0
M  V30 1929 H 183.25 1.19685 2.79122 0
M  V30 1930 H 180.835 0.648596 1.34587 0
M  V30 1931 H 182.717 -0.861641 4.12497 0
M  V30 1932 H 181.392 -1.23942 2.99032 0
M  V30 1933 H 180.299 0.994513 3.60639 0
M  V30 1934 H 181.632 1.28948 4.75009 0
M  V30 1935 N 183.284 -1.43765 0.645699 0
M  V30 1936 C 184.695 -1.85193 0.236719 0
M  V30 1937 C 185.046 -1.54045 -1.21509 0
M  V30 1938 O 184.171 -0.985694 -1.92647 0
M  V30 1939 C 184.766 -3.36151 0.422845 0
M  V30 1940 C 183.325 -3.76338 0.0682492 0
M  V30 1941 C 182.472 -2.67538 0.729306 0
M  V30 1942 H 185.423 -1.34025 0.849883 0
M  V30 1943 H 185.444 -3.79032 -0.333904 0
M  V30 1944 H 184.956 -3.5879 1.47958 0
M  V30 1945 H 183.057 -3.59312 -0.986179 0
M  V30 1946 H 183.17 -4.76603 0.488469 0
M  V30 1947 H 181.534 -2.54176 0.163235 0
M  V30 1948 H 182.317 -2.93006 1.78892 0
M  V30 1949 N 184.763 -0.387143 -1.52771 0
M  V30 1950 C 185.695 0.484089 -2.2403 0
M  V30 1951 C 186.708 1.02849 -1.26198 0
M  V30 1952 O 187.897 0.931186 -1.52286 0
M  V30 1953 C 184.997 1.68337 -2.94136 0
M  V30 1954 C 184.17 1.26672 -4.18656 0
M  V30 1955 C 183.229 2.33045 -4.7178 0
M  V30 1956 O 182.255 1.94541 -5.34923 0
M  V30 1957 N 183.457 3.64929 -4.5145 0
M  V30 1958 H 186.222 -0.126404 -2.99433 0
M  V30 1959 H 183.783 -0.213392 -1.60488 0
M  V30 1960 H 185.775 2.39019 -3.26577 0
M  V30 1961 H 184.345 2.20025 -2.22053 0
M  V30 1962 H 183.565 0.388878 -3.92277 0
M  V30 1963 H 184.853 0.964964 -4.99566 0
M  V30 1964 H 184.251 3.98974 -4.01044 0
M  V30 1965 H 182.808 4.31651 -4.88386 0
M  V30 1966 N 186.241 1.57166 -0.116904 0
M  V30 1967 C 187.189 2.16457 0.851418 0
M  V30 1968 C 188.183 1.11323 1.27686 0
M  V30 1969 O 189.389 1.2963 1.24884 0
M  V30 1970 H 185.764 0.69271 0.292672 0
M  V30 1971 H 187.735 2.96605 0.32685 0
M  V30 1972 C 186.484 2.77689 2.09246 0
M  V30 1973 H 185.807 3.58285 1.77402 0
M  V30 1974 H 187.247 3.22716 2.7501 0
M  V30 1975 C 185.706 1.74667 2.88085 0
M  V30 1976 O 186.236 1.19877 3.83396 0
M  V30 1977 N 184.442 1.44656 2.52038 0
M  V30 1978 H 183.989 1.89402 1.74599 0
M  V30 1979 H 183.947 0.759675 3.05084 0
M  V30 1980 N 187.719 -0.156864 1.56817 0
M  V30 1981 C 188.996 -0.899244 1.73704 0
M  V30 1982 C 189.376 -1.99771 0.682254 0
M  V30 1983 O 188.724 -2.26515 -0.300522 0
M  V30 1984 C 188.934 -1.45075 3.17418 0
M  V30 1985 C 190.282 -1.91802 3.7881 0
M  V30 1986 O 191.306 -1.54838 3.20786 0
M  V30 1987 O 190.165 -2.5994 4.80722 0
M  V30 1988 H 187.259 -0.424267 0.709878 0
M  V30 1989 H 189.805 -0.143561 1.69092 0
M  V30 1990 H 188.577 -0.660846 3.85679 0
M  V30 1991 H 188.2 -2.27021 3.26416 0
M  V30 1992 N 189.197 -1.51736 -0.425897 0
M  V30 1993 C 190.145 -1.74464 -1.53834 0
M  V30 1994 C 191.139 -0.611241 -1.57988 0
M  V30 1995 O 192.345 -0.792899 -1.61596 0
M  V30 1996 H 188.72 -0.551437 -0.511293 0
M  V30 1997 H 190.691 -2.67694 -1.31843 0
M  V30 1998 C 189.44 -1.8972 -2.91379 0
M  V30 1999 H 188.763 -2.76344 -2.88919 0
M  V30 2000 H 190.203 -2.09629 -3.68553 0
M  V30 2001 C 188.662 -0.65992 -3.30374 0
M  V30 2002 O 189.192 0.180083 -4.01296 0
M  V30 2003 N 187.398 -0.500677 -2.86254 0
M  V30 2004 H 186.945 -1.18532 -2.28709 0
M  V30 2005 H 186.903 0.325903 -3.12706 0
M  V30 2006 N 190.675 0.682077 -1.42076 0
M  V30 2007 C 191.605 1.80796 -1.47767 0
M  V30 2008 C 192.586 1.6677 -0.334954 0
M  V30 2009 O 193.771 1.863 -0.548264 0
M  V30 2010 C 190.901 3.19038 -1.37229 0
M  V30 2011 C 189.855 3.47789 -2.49453 0
M  V30 2012 C 189.181 4.8553 -2.23975 0
M  V30 2013 C 190.481 3.45411 -3.91776 0
M  V30 2014 H 192.175 1.7629 -2.41997 0
M  V30 2015 H 189.721 0.846721 -1.16476 0
M  V30 2016 H 191.674 3.97528 -1.39821 0
M  V30 2017 H 190.398 3.24204 -0.394907 0
M  V30 2018 H 189.057 2.71657 -2.46166 0
M  V30 2019 H 188.705 4.87337 -1.24547 0
M  V30 2020 H 188.405 5.0573 -2.99184 0
M  V30 2021 H 189.929 5.66312 -2.28304 0
M  V30 2022 H 191.343 4.13882 -3.96705 0
M  V30 2023 H 189.74 3.77145 -4.66778 0
M  V30 2024 H 190.81 2.44122 -4.18966 0
M  V30 2025 N 192.153 1.28127 0.917671 0
M  V30 2026 C 193.383 1.17722 1.6978 0
M  V30 2027 C 193.791 -0.267261 1.87303 0
M  V30 2028 O 193.134 -1.19286 1.39702 0
M  V30 2029 C 193.196 1.79958 3.11216 0
M  V30 2030 C 192.86 3.29187 3.16993 0
M  V30 2031 C 193.857 4.25679 2.98485 0
M  V30 2032 C 191.542 3.70075 3.39632 0
M  V30 2033 C 193.536 5.61035 3.02521 0
M  V30 2034 C 191.223 5.05557 3.433 0
M  V30 2035 C 192.221 6.00847 3.24764 0
M  V30 2036 O 191.909 7.33859 3.28187 0
M  V30 2037 H 191.641 0.409788 0.537634 0
M  V30 2038 H 194.195 1.69694 1.15728 0
M  V30 2039 H 192.425 1.22475 3.66793 0
M  V30 2040 H 194.114 1.64125 3.71238 0
M  V30 2041 H 194.88 3.95426 2.80826 0
M  V30 2042 H 190.759 2.96373 3.53106 0
M  V30 2043 H 194.303 6.35388 2.87971 0
M  V30 2044 H 190.2 5.35462 3.60486 0
M  V30 2045 H 190.968 7.42436 3.44575 0
M  V30 2046 N 193.631 -1.12557 1.10312 0
M  V30 2047 C 194.561 -2.20341 0.772798 0
M  V30 2048 C 195.542 -1.68198 -0.25365 0
M  V30 2049 O 196.727 -1.93831 -0.119699 0
M  V30 2050 C 193.857 -3.46709 0.202443 0
M  V30 2051 C 192.811 -4.11996 1.15943 0
M  V30 2052 C 192.137 -5.328 0.450345 0
M  V30 2053 C 193.437 -4.5828 2.50552 0
M  V30 2054 H 195.131 -2.48229 1.674 0
M  V30 2055 H 192.677 -1.19308 0.806326 0
M  V30 2056 H 194.63 -4.2138 -0.0407752 0
M  V30 2057 H 193.354 -3.18245 -0.734001 0
M  V30 2058 H 192.013 -3.39305 1.38808 0
M  V30 2059 H 191.661 -5.00602 -0.490531 0
M  V30 2060 H 191.361 -5.7743 1.08851 0
M  V30 2061 H 192.885 -6.10219 0.215642 0
M  V30 2062 H 194.299 -5.2433 2.31843 0
M  V30 2063 H 192.696 -5.13683 3.10242 0
M  V30 2064 H 193.766 -3.72329 3.10643 0
M  V30 2065 N 195.109 -0.891671 -1.2995 0
M  V30 2066 C 196.357 -0.512486 -1.95494 0
M  V30 2067 C 196.678 0.942776 -1.70695 0
M  V30 2068 O 195.948 1.66374 -1.03424 0
M  V30 2069 H 194.528 -0.186533 -0.723336 0
M  V30 2070 H 197.19 -1.13621 -1.58355 0
M  V30 2071 H 196.286 -0.688342 -3.04415 0
M  V30 2072 N 196.587 1.43421 -0.653314 0
M  V30 2073 C 197.833 2.02111 -0.166992 0
M  V30 2074 C 198.166 1.51423 1.21592 0
M  V30 2075 O 197.441 0.707389 1.8118 0
M  V30 2076 C 197.724 3.5966 -0.177948 0
M  V30 2077 C 197.577 4.20579 -1.59478 0
M  V30 2078 C 198.896 4.37413 0.4856 0
M  V30 2079 H 196.015 0.734374 -0.0621557 0
M  V30 2080 H 198.657 1.70717 -0.834016 0
M  V30 2081 H 196.807 3.86537 0.390032 0
M  V30 2082 H 198.479 4.04732 -2.21336 0
M  V30 2083 H 196.722 3.77226 -2.14204 0
M  V30 2084 H 197.393 5.29665 -1.5543 0
M  V30 2085 H 199.869 4.161 0.00234528 0
M  V30 2086 H 198.745 5.47075 0.447207 0
M  V30 2087 H 199.006 4.13672 1.55974 0
M  V30 2088 N 198.065 0.39524 1.52563 0
M  V30 2089 C 199.311 -0.185318 2.01952 0
M  V30 2090 C 199.644 -1.45964 1.28095 0
M  V30 2091 O 198.919 -1.90689 0.38315 0
M  V30 2092 C 199.202 -0.447193 3.57312 0
M  V30 2093 C 199.055 0.842828 4.41833 0
M  V30 2094 C 200.374 -1.23529 4.22408 0
M  V30 2095 H 197.493 -0.0658788 0.73405 0
M  V30 2096 H 200.135 0.525975 1.82575 0
M  V30 2097 H 198.285 -1.05312 3.73954 0
M  V30 2098 H 199.957 1.4795 4.36931 0
M  V30 2099 H 198.2 1.45686 4.08605 0
M  V30 2100 H 198.871 0.614165 5.48573 0
M  V30 2101 H 201.347 -0.722445 4.0978 0
M  V30 2102 H 200.223 -1.38727 5.3108 0
M  V30 2103 H 200.484 -2.25213 3.80436 0
M  V30 2104 N 199.544 -1.57102 0.125237 0
M  V30 2105 C 200.474 -2.18659 -0.819174 0
M  V30 2106 C 201.455 -1.12843 -1.27281 0
M  V30 2107 O 202.64 -1.41104 -1.33429 0
M  V30 2108 C 199.77 -2.79096 -2.06695 0
M  V30 2109 C 198.724 -3.90548 -1.75088 0
M  V30 2110 C 198.05 -4.37821 -3.06948 0
M  V30 2111 C 199.35 -5.12356 -1.01435 0
M  V30 2112 H 201.044 -2.9783 -0.306202 0
M  V30 2113 H 198.59 -1.4326 -0.145839 0
M  V30 2114 H 200.543 -3.2082 -2.73226 0
M  V30 2115 H 199.267 -1.97223 -2.60328 0
M  V30 2116 H 197.926 -3.49409 -1.10944 0
M  V30 2117 H 197.574 -3.52799 -3.58527 0
M  V30 2118 H 197.274 -5.12982 -2.86571 0
M  V30 2119 H 198.798 -4.822 -3.74587 0
M  V30 2120 H 200.212 -5.5106 -1.58132 0
M  V30 2121 H 198.609 -5.9314 -0.911319 0
M  V30 2122 H 199.679 -4.849 -0.00218681 0
M  V30 2123 N 201.022 0.148545 -1.56898 0
M  V30 2124 C 202.247 0.880385 -1.87787 0
M  V30 2125 C 202.672 1.74018 -0.714093 0
M  V30 2126 O 202.03 1.78153 0.336343 0
M  V30 2127 C 202.078 1.71422 -3.17249 0
M  V30 2128 O 201.182 2.8183 -3.01074 0
M  V30 2129 H 200.523 0.245301 -0.617028 0
M  V30 2130 H 203.053 0.139826 -2.04122 0
M  V30 2131 H 203.063 2.10954 -3.49231 0
M  V30 2132 H 201.738 1.08284 -4.01556 0
M  V30 2133 H 200.315 2.45715 -2.80497 0
M  V30 2134 N 202.5 1.5196 0.417844 0
M  V30 2135 C 203.463 1.74065 1.49111 0
M  V30 2136 C 204.463 0.610537 1.48758 0
M  V30 2137 O 205.653 0.87832 1.50437 0
M  V30 2138 C 202.785 1.81502 2.88565 0
M  V30 2139 H 203.978 2.69869 1.30807 0
M  V30 2140 H 201.531 1.42244 0.647785 0
M  V30 2141 H 202.266 0.875813 3.1225 0
M  V30 2142 H 202.051 2.63651 2.90225 0
M  V30 2143 H 203.541 2.00376 3.66387 0
M  V30 2144 N 203.978 -0.674533 1.42435 0
M  V30 2145 C 205.224 -1.43671 1.43131 0
M  V30 2146 C 205.557 -1.94142 0.0476021 0
M  V30 2147 O 204.832 -1.70924 -0.928188 0
M  V30 2148 C 205.115 -2.63355 2.45594 0
M  V30 2149 C 204.968 -2.18514 3.93156 0
M  V30 2150 C 206.287 -3.65571 2.45043 0
M  V30 2151 H 203.406 -0.521077 0.521198 0
M  V30 2152 H 206.048 -0.766551 1.7385 0
M  V30 2153 H 204.198 -3.2053 2.19528 0
M  V30 2154 H 205.87 -1.66504 4.30202 0
M  V30 2155 H 204.113 -1.50086 4.07009 0
M  V30 2156 H 204.784 -3.04484 4.60428 0
M  V30 2157 H 207.26 -3.18113 2.68223 0
M  V30 2158 H 206.136 -4.46893 3.18713 0
M  V30 2159 H 206.397 -4.16716 1.47649 0
M  V30 2160 N 205.456 -1.28612 -0.910864 0
M  V30 2161 C 206.702 -1.16106 -1.66274 0
M  V30 2162 C 207.035 0.289113 -1.92036 0
M  V30 2163 O 206.31 1.21 -1.52281 0
M  V30 2164 C 206.593 -1.96309 -3.01885 0
M  V30 2165 C 206.446 -3.49405 -2.8326 0
M  V30 2166 C 207.765 -1.78076 -4.02463 0
M  V30 2167 H 204.884 -0.423152 -0.603417 0
M  V30 2168 H 207.526 -1.57961 -1.05586 0
M  V30 2169 H 205.676 -1.60742 -3.53687 0
M  V30 2170 H 207.348 -3.94894 -2.38446 0
M  V30 2171 H 205.591 -3.74893 -2.18261 0
M  V30 2172 H 206.262 -4.00784 -3.79574 0
M  V30 2173 H 208.738 -2.0912 -3.59733 0
M  V30 2174 H 207.614 -2.36561 -4.95308 0
M  V30 2175 H 207.875 -0.733008 -4.35981 0
M  V30 2176 N 206.934 1.1197 -1.10907 0
M  V30 2177 C 208.183 1.82947 -0.849302 0
M  V30 2178 C 208.496 1.85275 0.627112 0
M  V30 2179 O 209.702 2.52296 1.00295 0
M  V30 2180 C 208.158 3.28529 -1.46959 0
M  V30 2181 C 207.766 3.34546 -2.97965 0
M  V30 2182 C 209.51 4.04443 -1.28942 0
M  V30 2183 C 207.417 4.74491 -3.53004 0
M  V30 2184 H 206.347 0.685477 -0.314065 0
M  V30 2185 H 208.998 1.2604 -1.33365 0
M  V30 2186 H 207.38 3.85333 -0.912917 0
M  V30 2187 H 208.554 2.87654 -3.59989 0
M  V30 2188 H 206.869 2.72108 -3.15192 0
M  V30 2189 H 209.466 5.07787 -1.67502 0
M  V30 2190 H 209.809 4.15656 -0.231456 0
M  V30 2191 H 210.342 3.5401 -1.81443 0
M  V30 2192 H 207.081 4.68474 -4.58489 0
M  V30 2193 H 206.601 5.21816 -2.9575 0
M  V30 2194 H 208.28 5.4344 -3.51115 0
M  V30 2195 N 208.412 0.89855 1.29475 0
M  V30 2196 C 209.661 0.519863 1.94885 0
M  V30 2197 C 209.974 -0.9383 1.71625 0
M  V30 2198 O 211.18 -1.42445 2.31131 0
M  V30 2199 C 209.636 0.878836 3.49005 0
M  V30 2200 C 209.244 2.35569 3.81066 0
M  V30 2201 C 210.988 0.570004 4.20656 0
M  V30 2202 C 208.895 2.65558 5.28425 0
M  V30 2203 H 207.825 0.190692 0.729488 0
M  V30 2204 H 210.476 1.09539 1.47219 0
M  V30 2205 H 208.858 0.232253 3.95318 0
M  V30 2206 H 210.032 3.04773 3.45616 0
M  V30 2207 H 208.347 2.63343 3.22552 0
M  V30 2208 H 210.944 0.770925 5.29113 0
M  V30 2209 H 211.287 -0.491404 4.1339 0
M  V30 2210 H 211.82 1.17438 3.8007 0
M  V30 2211 H 208.559 3.70493 5.40754 0
M  V30 2212 H 208.079 2.00977 5.65127 0
M  V30 2213 H 209.758 2.51765 5.96006 0
M  V30 2214 N 209.89 -1.43072 0.660911 0
M  V30 2215 C 211.118 -2.06067 0.185422 0
M  V30 2216 C 211.533 -1.49582 -1.15198 0
M  V30 2217 O 210.89 -0.630134 -1.71276 0
M  V30 2218 C 210.941 -3.61371 0.0966523 0
M  V30 2219 O 210.662 -4.15758 1.38119 0
M  V30 2220 C 212.163 -4.41455 -0.403996 0
M  V30 2221 H 209.383 -0.664459 0.0934604 0
M  V30 2222 H 211.927 -1.83447 0.90373 0
M  V30 2223 H 210.082 -3.8315 -0.572259 0
M  V30 2224 H 210.496 -5.09499 1.24542 0
M  V30 2225 H 211.97 -5.50437 -0.415045 0
M  V30 2226 H 212.447 -4.15036 -1.43674 0
M  V30 2227 H 213.053 -4.24663 0.232691 0
M  V30 2228 N 211.368 -0.403325 -1.52352 0
M  V30 2229 C 212.616 0.174003 -2.0135 0
M  V30 2230 C 212.937 1.46139 -1.29106 0
M  V30 2231 O 212.207 1.91448 -0.415253 0
M  V30 2232 H 210.787 0.0672911 -0.743963 0
M  V30 2233 H 213.449 -0.538235 -1.87321 0
M  V30 2234 H 212.545 0.374254 -3.09848 0
M  V30 2235 N 212.846 1.57033 -0.133567 0
M  V30 2236 C 214.086 1.97575 0.523789 0
M  V30 2237 C 214.45 1.01605 1.62912 0
M  V30 2238 O 215.651 1.3114 2.3464 0
M  V30 2239 C 213.922 3.42256 1.02935 0
M  V30 2240 S 215.481 4.04817 1.69319 0
M  V30 2241 H 212.299 0.690427 0.169799 0
M  V30 2242 H 214.901 1.94234 -0.222101 0
M  V30 2243 H 213.605 4.09842 0.213917 0
M  V30 2244 H 213.136 3.4928 1.81017 0
M  V30 2245 H 215.151 3.96767 2.97977 0
M  V30 2246 N 214.325 -0.140222 1.56975 0
M  V30 2247 C 215.572 -0.851687 1.83719 0
M  V30 2248 C 215.9 -1.80862 0.715485 0
M  V30 2249 O 215.155 -1.93464 -0.294956 0
M  V30 2250 C 215.454 -1.65386 3.16832 0
M  V30 2251 C 215.12 -0.843112 4.42947 0
M  V30 2252 C 213.782 -0.619464 4.77196 0
M  V30 2253 C 216.134 -0.276582 5.20466 0
M  V30 2254 C 213.462 0.181312 5.8642 0
M  V30 2255 C 215.814 0.51127 6.30531 0
M  V30 2256 C 214.478 0.745432 6.63325 0
M  V30 2257 H 213.748 -0.311654 0.672274 0
M  V30 2258 H 216.395 -0.115006 1.91154 0
M  V30 2259 H 214.7 -2.46084 3.04877 0
M  V30 2260 H 216.397 -2.20793 3.34741 0
M  V30 2261 H 212.987 -1.0275 4.16101 0
M  V30 2262 H 217.171 -0.436632 4.94376 0
M  V30 2263 H 212.427 0.372165 6.10266 0
M  V30 2264 H 216.601 0.957354 6.89788 0
M  V30 2265 H 214.228 1.36778 7.47794 0
M  V30 2266 N 215.803 -1.52179 -0.40978 0
M  V30 2267 C 217.028 -1.70347 -1.18308 0
M  V30 2268 C 217.453 -0.411887 -1.83535 0
M  V30 2269 O 216.811 0.630587 -1.6998 0
M  V30 2270 C 216.859 -2.83977 -2.22238 0
M  V30 2271 O 215.963 -2.495 -3.28365 0
M  V30 2272 H 215.304 -0.567103 -0.345384 0
M  V30 2273 H 217.834 -1.98879 -0.480445 0
M  V30 2274 H 217.844 -3.0887 -2.66577 0
M  V30 2275 H 216.519 -3.77685 -1.74146 0
M  V30 2276 H 215.096 -2.35277 -2.89308 0
M  V30 2277 N 217.281 0.66697 -1.42791 0
M  V30 2278 C 218.511 1.45294 -1.46878 0
M  V30 2279 C 218.919 1.89027 -0.0809861 0
M  V30 2280 O 218.262 1.59219 0.916246 0
M  V30 2281 C 218.324 2.72908 -2.34012 0
M  V30 2282 C 217.988 2.51203 -3.81767 0
M  V30 2283 C 218.985 2.15302 -4.73224 0
M  V30 2284 C 216.67 2.65954 -4.26115 0
M  V30 2285 C 218.664 1.94431 -6.07022 0
M  V30 2286 C 216.351 2.44699 -5.59969 0
M  V30 2287 C 217.349 2.08992 -6.5024 0
M  V30 2288 O 217.037 1.87948 -7.81621 0
M  V30 2289 H 216.769 0.453306 -0.501487 0
M  V30 2290 H 219.323 0.826232 -1.88049 0
M  V30 2291 H 217.553 3.38089 -1.87703 0
M  V30 2292 H 219.242 3.34816 -2.29462 0
M  V30 2293 H 220.008 2.03495 -4.40244 0
M  V30 2294 H 215.887 2.92724 -3.56137 0
M  V30 2295 H 219.431 1.66484 -6.77443 0
M  V30 2296 H 215.328 2.56105 -5.9252 0
M  V30 2297 H 216.096 2.02483 -7.93059 0
M  V30 2298 N 218.759 1.29093 0.90403 0
M  V30 2299 C 219.989 1.19516 1.68522 0
M  V30 2300 C 220.397 -0.24738 1.87576 0
M  V30 2301 O 219.74 -1.17798 1.40959 0
M  V30 2302 C 219.802 1.83249 3.0929 0
M  V30 2303 C 219.466 3.32531 3.13484 0
M  V30 2304 C 220.463 4.28821 2.93953 0
M  V30 2305 C 218.148 3.73656 3.35688 0
M  V30 2306 C 220.142 5.64212 2.96553 0
M  V30 2307 C 217.829 5.0917 3.37919 0
M  V30 2308 C 218.827 6.04258 3.18373 0
M  V30 2309 O 218.515 7.37298 3.20385 0
M  V30 2310 H 218.247 0.415467 0.533257 0
M  V30 2311 H 220.801 1.70912 1.13922 0
M  V30 2312 H 219.031 1.26358 3.65473 0
M  V30 2313 H 220.72 1.68054 3.69476 0
M  V30 2314 H 221.486 3.98382 2.76616 0
M  V30 2315 H 217.365 3.00101 3.49943 0
M  V30 2316 H 220.909 6.38407 2.81216 0
M  V30 2317 H 216.806 5.39256 3.54787 0
M  V30 2318 H 217.574 7.46048 3.36681 0
M  V30 2319 N 220.237 -1.11381 1.11499 0
M  V30 2320 C 221.169 -2.17207 0.731704 0
M  V30 2321 C 222.182 -1.61066 -0.236957 0
M  V30 2322 O 223.371 -1.78489 -0.0197591 0
M  V30 2323 C 220.471 -3.38846 0.0607624 0
M  V30 2324 C 219.644 -4.24451 1.0564 0
M  V30 2325 C 218.703 -5.24562 0.4149 0
M  V30 2326 O 217.729 -5.59071 1.069 0
M  V30 2327 N 218.931 -5.74651 -0.821943 0
M  V30 2328 H 221.696 -2.50699 1.64225 0
M  V30 2329 H 219.257 -1.26908 1.00529 0
M  V30 2330 H 221.249 -4.02911 -0.380139 0
M  V30 2331 H 219.819 -3.03411 -0.752376 0
M  V30 2332 H 219.039 -3.56833 1.67524 0
M  V30 2333 H 220.327 -4.78486 1.72998 0
M  V30 2334 H 219.725 -5.48797 -1.37252 0
M  V30 2335 H 218.282 -6.40549 -1.20582 0
M  V30 2336 N 221.715 -0.905404 -1.28997 0
M  V30 2337 C 222.625 -0.392246 -2.31298 0
M  V30 2338 C 223.641 0.515889 -1.66176 0
M  V30 2339 O 224.817 0.404093 -1.97304 0
M  V30 2340 C 221.882 0.36686 -3.44754 0
M  V30 2341 C 220.943 -0.573485 -4.25452 0
M  V30 2342 C 220.176 0.149488 -5.33491 0
M  V30 2343 O 220.399 1.37255 -5.5364 0
M  V30 2344 O 219.333 -0.510919 -5.99728 0
M  V30 2345 H 223.159 -1.2411 -2.77183 0
M  V30 2346 H 220.744 -0.669926 -1.33538 0
M  V30 2347 H 222.626 0.795907 -4.13816 0
M  V30 2348 H 221.301 1.19169 -3.00966 0
M  V30 2349 H 220.208 -1.05176 -3.59011 0
M  V30 2350 H 221.541 -1.36489 -4.72897 0
M  V30 2351 N 223.193 1.4272 -0.668489 0
M  V30 2352 C 224.156 2.292 0.00448567 0
M  V30 2353 C 225.156 1.43001 0.735339 0
M  V30 2354 O 226.346 1.64461 0.57429 0
M  V30 2355 C 223.478 3.25375 1.01705 0
M  V30 2356 H 224.671 2.90199 -0.756608 0
M  V30 2357 H 222.224 1.50254 -0.430506 0
M  V30 2358 H 222.959 2.69301 1.80686 0
M  V30 2359 H 222.744 3.88944 0.496463 0
M  V30 2360 H 224.234 3.90245 1.48655 0
M  V30 2361 N 224.671 0.411399 1.52136 0
M  V30 2362 C 225.618 -0.412975 2.27075 0
M  V30 2363 C 226.588 -1.03912 1.29582 0
M  V30 2364 O 227.773 -1.06296 1.58448 0
M  V30 2365 C 224.913 -1.52247 3.09701 0
M  V30 2366 C 224.026 -0.917021 4.22155 0
M  V30 2367 C 223.161 -1.9994 4.92135 0
M  V30 2368 C 222.2 -1.37101 5.96548 0
M  V30 2369 N 221.337 -2.39364 6.60038 0
M  V30 2370 H 226.177 0.232499 2.97092 0
M  V30 2371 H 223.714 0.126496 1.46555 0
M  V30 2372 H 225.672 -2.17674 3.55913 0
M  V30 2373 H 224.302 -2.13794 2.41851 0
M  V30 2374 H 223.354 -0.151742 3.80097 0
M  V30 2375 H 224.666 -0.418006 4.97045 0
M  V30 2376 H 223.82 -2.73088 5.41763 0
M  V30 2377 H 222.559 -2.53208 4.16818 0
M  V30 2378 H 221.564 -0.624873 5.46237 0
M  V30 2379 H 222.789 -0.845998 6.7381 0
M  V30 2380 H 220.735 -2.91759 5.87548 0
M  V30 2381 H 220.652 -1.9428 7.3061 0
M  V30 2382 H 221.92 -3.12074 7.14304 0
M  V30 2383 N 226.149 -1.5696 0.141893 0
M  V30 2384 C 227.374 -2.00754 -0.520838 0
M  V30 2385 C 227.799 -1.0213 -1.57959 0
M  V30 2386 O 227.157 0.00371324 -1.813 0
M  V30 2387 C 227.205 -3.43318 -1.10294 0
M  V30 2388 O 226.309 -3.47679 -2.21795 0
M  V30 2389 H 225.65 -0.651564 -0.127908 0
M  V30 2390 H 228.18 -2.03221 0.23712 0
M  V30 2391 H 228.19 -3.82012 -1.43287 0
M  V30 2392 H 226.865 -4.14608 -0.327574 0
M  V30 2393 H 225.442 -3.20824 -1.9007 0
M  V30 2394 N 227.627 0.131896 -1.57047 0
M  V30 2395 C 228.852 0.860418 -1.8871 0
M  V30 2396 C 229.277 1.73251 -0.73251 0
M  V30 2397 O 228.635 1.785 0.317429 0
M  V30 2398 C 228.683 1.68047 -3.19049 0
M  V30 2399 O 227.787 2.7862 -3.04047 0
M  V30 2400 H 227.128 0.238743 -0.619595 0
M  V30 2401 H 229.658 0.118169 -2.04258 0
M  V30 2402 H 229.668 2.07238 -3.51449 0
M  V30 2403 H 228.343 1.04018 -4.02682 0
M  V30 2404 H 226.92 2.42726 -2.83088 0
M  V30 2405 N 229.106 1.52395 0.401703 0
M  V30 2406 C 230.053 1.76268 1.48991 0
M  V30 2407 C 231.023 0.605386 1.54675 0
M  V30 2408 O 232.208 0.843742 1.7113 0
M  V30 2409 C 229.348 1.92592 2.86361 0
M  V30 2410 C 228.461 3.20259 2.89928 0
M  V30 2411 C 227.596 3.26972 4.18644 0
M  V30 2412 C 226.635 4.48812 4.16214 0
M  V30 2413 N 225.772 4.52877 5.36514 0
M  V30 2414 H 230.612 2.6914 1.27935 0
M  V30 2415 H 228.149 1.33355 0.620871 0
M  V30 2416 H 230.107 2.0004 3.66115 0
M  V30 2417 H 228.737 1.03093 3.05895 0
M  V30 2418 H 227.789 3.21945 2.02621 0
M  V30 2419 H 229.101 4.10056 2.83999 0
M  V30 2420 H 228.255 3.33533 5.06794 0
M  V30 2421 H 226.994 2.35126 4.27278 0
M  V30 2422 H 225.999 4.4239 3.26453 0
M  V30 2423 H 227.224 5.41961 4.09213 0
M  V30 2424 H 225.17 3.63917 5.45802 0
M  V30 2425 H 225.087 5.36529 5.32609 0
M  V30 2426 H 226.355 4.63676 6.26597 0
M  V30 2427 N 230.584 -0.659388 1.43143 0
M  V30 2428 C 231.833 -1.41518 1.43721 0
M  V30 2429 C 232.146 -1.95499 0.0628176 0
M  V30 2430 O 233.352 -2.71446 -0.0539683 0
M  V30 2431 C 231.808 -2.5608 2.52885 0
M  V30 2432 C 231.416 -2.08733 3.96402 0
M  V30 2433 C 233.16 -3.3349 2.62649 0
M  V30 2434 C 231.067 -3.20469 4.97045 0
M  V30 2435 H 229.997 -0.531705 0.534608 0
M  V30 2436 H 232.648 -0.712343 1.69109 0
M  V30 2437 H 231.03 -3.28805 2.20688 0
M  V30 2438 H 232.204 -1.43059 4.3803 0
M  V30 2439 H 230.519 -1.44219 3.90627 0
M  V30 2440 H 233.116 -4.16734 3.35017 0
M  V30 2441 H 233.459 -3.8111 1.67513 0
M  V30 2442 H 233.992 -2.67842 2.94118 0
M  V30 2443 H 230.731 -2.77824 5.93712 0
M  V30 2444 H 230.251 -3.84874 4.60034 0
M  V30 2445 H 231.93 -3.85698 5.19467 0
M  V30 2446 N 232.062 -1.29571 -0.897171 0
M  V30 2447 C 232.995 -1.0924 -2.00354 0
M  V30 2448 C 233.973 -0.00354011 -1.626 0
M  V30 2449 O 235.157 -0.15473 -1.87864 0
M  V30 2450 C 232.284 -0.66352 -3.32137 0
M  V30 2451 C 231.33 -1.75146 -3.88878 0
M  V30 2452 S 232.163 -3.35124 -4.17674 0
M  V30 2453 C 233.319 -2.9411 -5.52494 0
M  V30 2454 H 233.552 -2.02907 -2.17292 0
M  V30 2455 H 231.085 -1.13746 -1.04408 0
M  V30 2456 H 233.043 -0.422791 -4.08317 0
M  V30 2457 H 231.704 0.253588 -3.13075 0
M  V30 2458 H 230.897 -1.40337 -4.84068 0
M  V30 2459 H 230.499 -1.94584 -3.19395 0
M  V30 2460 H 232.791 -2.41312 -6.33068 0
M  V30 2461 H 233.734 -3.88161 -5.9223 0
M  V30 2462 H 234.142 -2.32332 -5.14473 0
M  V30 2463 N 233.54 1.10788 -1.12088 0
M  V30 2464 C 234.45 2.20599 -0.798338 0
M  V30 2465 C 235.466 1.72712 0.21135 0
M  V30 2466 O 236.642 2.01348 0.0458477 0
M  V30 2467 C 233.707 3.45771 -0.253674 0
M  V30 2468 C 232.768 4.08411 -1.32283 0
M  V30 2469 C 232.001 5.27608 -0.80406 0
M  V30 2470 O 232.224 5.69241 0.363478 0
M  V30 2471 O 231.158 5.8101 -1.57198 0
M  V30 2472 H 234.984 2.50614 -1.7154 0
M  V30 2473 H 232.569 1.19454 -0.897275 0
M  V30 2474 H 234.451 4.21376 0.0453691 0
M  V30 2475 H 233.126 3.1739 0.636005 0
M  V30 2476 H 232.033 3.34507 -1.67499 0
M  V30 2477 H 233.366 4.40986 -2.18614 0
M  V30 2478 N 235.018 0.912232 1.28515 0
M  V30 2479 C 236.243 0.559774 1.99703 0
M  V30 2480 C 236.668 -0.851393 1.67729 0
M  V30 2481 O 236.026 -1.56875 0.908834 0
M  V30 2482 C 236.074 0.773874 3.52198 0
M  V30 2483 O 235.178 -0.167842 4.12058 0
M  V30 2484 H 234.519 0.21723 0.627461 0
M  V30 2485 H 237.049 1.22725 1.63706 0
M  V30 2486 H 237.059 0.683386 4.02236 0
M  V30 2487 H 235.734 1.80261 3.74805 0
M  V30 2488 H 234.311 -0.0287509 3.72889 0
M  V30 2489 N 236.496 -1.42363 0.676048 0
M  V30 2490 C 237.743 -2.01522 0.19883 0
M  V30 2491 C 238.071 -1.53456 -1.19505 0
M  V30 2492 O 237.326 -0.727967 -1.81657 0
M  V30 2493 C 237.625 -3.56929 0.183431 0
M  V30 2494 C 237.291 -4.24431 1.52215 0
M  V30 2495 C 235.953 -4.42585 1.8887 0
M  V30 2496 C 238.305 -4.62459 2.40377 0
M  V30 2497 C 235.633 -4.96039 3.13309 0
M  V30 2498 C 237.985 -5.17294 3.64129 0
M  V30 2499 C 236.649 -5.33661 4.00951 0
M  V30 2500 H 235.919 -0.737419 0.0727571 0
M  V30 2501 H 238.566 -1.70531 0.871281 0
M  V30 2502 H 236.871 -3.87594 -0.572532 0
M  V30 2503 H 238.568 -4.00486 -0.203035 0
M  V30 2504 H 235.158 -4.10661 1.22701 0
M  V30 2505 H 239.342 -4.48105 2.13343 0
M  V30 2506 H 234.598 -5.06896 3.41857 0
M  V30 2507 H 238.772 -5.45704 4.32644 0
M  V30 2508 H 236.399 -5.74845 4.9745 0
M  V30 2509 N 237.974 -0.419461 -1.51915 0
M  V30 2510 C 238.921 0.400927 -2.27291 0
M  V30 2511 C 239.891 1.03224 -1.30131 0
M  V30 2512 O 241.076 1.05455 -1.59009 0
M  V30 2513 C 238.216 1.50603 -3.10504 0
M  V30 2514 C 237.329 0.89462 -4.22635 0
M  V30 2515 C 236.464 1.97328 -4.93189 0
M  V30 2516 C 235.503 1.33935 -5.97267 0
M  V30 2517 N 234.64 2.3586 -6.61298 0
M  V30 2518 H 239.48 -0.248251 -2.96964 0
M  V30 2519 H 237.017 -0.134266 -1.46486 0
M  V30 2520 H 238.975 2.15783 -3.57062 0
M  V30 2521 H 237.605 2.12509 -2.42981 0
M  V30 2522 H 236.657 0.131583 -3.80172 0
M  V30 2523 H 237.969 0.391641 -4.9726 0
M  V30 2524 H 237.123 2.70211 -5.43204 0
M  V30 2525 H 235.862 2.50994 -4.18155 0
M  V30 2526 H 234.867 0.595896 -5.46561 0
M  V30 2527 H 236.092 0.810252 -6.74249 0
M  V30 2528 H 234.038 2.88639 -5.89087 0
M  V30 2529 H 233.955 1.90403 -7.3163 0
M  V30 2530 H 235.223 3.08282 -7.15949 0
M  V30 2531 N 239.452 1.56882 -0.150215 0
M  V30 2532 C 240.4 2.18214 0.805313 0
M  V30 2533 C 241.394 1.14006 1.25296 0
M  V30 2534 O 242.6 1.3225 1.22107 0
M  V30 2535 H 238.975 0.698762 0.277913 0
M  V30 2536 H 240.946 2.97231 0.263862 0
M  V30 2537 C 239.695 2.82065 2.03309 0
M  V30 2538 H 239.018 3.61968 1.69763 0
M  V30 2539 H 240.458 3.28477 2.68103 0
M  V30 2540 C 238.917 1.80739 2.84315 0
M  V30 2541 O 239.447 1.27983 3.80767 0
M  V30 2542 N 237.653 1.4997 2.48913 0
M  V30 2543 H 237.2 1.93062 1.70542 0
M  V30 2544 H 237.158 0.824217 3.03404 0
M  V30 2545 N 240.93 -0.123565 1.57115 0
M  V30 2546 C 241.863 -1.18202 1.95201 0
M  V30 2547 C 242.841 -1.40349 0.821031 0
M  V30 2548 O 244.025 -1.54578 1.07879 0
M  V30 2549 C 241.152 -2.53671 2.24429 0
M  V30 2550 C 240.198 -2.4798 3.46999 0
M  V30 2551 S 241.031 -1.92389 4.99747 0
M  V30 2552 C 242.187 -3.2954 5.32123 0
M  V30 2553 H 242.42 -0.857212 2.84674 0
M  V30 2554 H 239.953 -0.33014 1.50829 0
M  V30 2555 H 241.911 -3.3162 2.41947 0
M  V30 2556 H 240.572 -2.83332 1.35579 0
M  V30 2557 H 239.765 -3.47758 3.64801 0
M  V30 2558 H 239.367 -1.7815 3.28844 0
M  V30 2559 H 241.659 -4.25736 5.27025 0
M  V30 2560 H 242.602 -3.16569 6.33395 0
M  V30 2561 H 243.01 -3.27758 4.59603 0
M  V30 2562 N 242.408 -1.52605 -0.393616 0
M  V30 2563 C 243.654 -1.67672 -1.14079 0
M  V30 2564 C 243.987 -0.413121 -1.89755 0
M  V30 2565 O 243.262 0.588952 -1.85369 0
M  V30 2566 C 243.545 -2.9088 -2.12276 0
M  V30 2567 C 243.398 -4.27329 -1.40394 0
M  V30 2568 C 244.717 -3.09628 -3.12759 0
M  V30 2569 H 241.836 -0.610168 -0.413356 0
M  V30 2570 H 244.478 -1.85193 -0.424696 0
M  V30 2571 H 242.628 -2.76073 -2.73342 0
M  V30 2572 H 244.3 -4.53894 -0.82327 0
M  V30 2573 H 242.543 -4.2802 -0.705801 0
M  V30 2574 H 243.214 -5.09615 -2.12123 0
M  V30 2575 H 245.69 -3.23436 -2.61779 0
M  V30 2576 H 244.566 -3.97322 -3.78717 0
M  V30 2577 H 244.827 -2.23637 -3.81365 0
M  V30 2578 N 243.887 0.651787 -1.4349 0
M  V30 2579 C 245.298 1.233 -1.40193 0
M  V30 2580 C 245.649 1.9591 -0.106727 0
M  V30 2581 O 244.774 2.01316 0.793773 0
M  V30 2582 C 245.369 2.24257 -2.53957 0
M  V30 2583 C 243.928 2.77852 -2.5392 0
M  V30 2584 C 243.075 1.52517 -2.3159 0
M  V30 2585 H 246.026 0.443717 -1.52371 0
M  V30 2586 H 246.047 3.0646 -2.25528 0
M  V30 2587 H 245.559 1.71382 -3.4821 0
M  V30 2588 H 243.66 3.34786 -1.63551 0
M  V30 2589 H 243.773 3.25299 -3.51735 0
M  V30 2590 H 242.137 1.79915 -1.80285 0
M  V30 2591 H 242.92 1.01574 -3.27929 0
M  V30 2592 N 245.365 1.30045 0.890287 0
M  V30 2593 C 246.297 1.11786 2.00091 0
M  V30 2594 C 247.31 0.0626307 1.62679 0
M  V30 2595 O 248.499 0.308112 1.75821 0
M  V30 2596 C 245.599 0.681527 3.31977 0
M  V30 2597 C 244.772 1.81735 3.97858 0
M  V30 2598 C 243.831 1.37045 5.08041 0
M  V30 2599 O 242.857 2.07677 5.29961 0
M  V30 2600 N 244.059 0.246525 5.79976 0
M  V30 2601 H 246.824 2.07441 2.16306 0
M  V30 2602 H 244.385 1.2211 1.06305 0
M  V30 2603 H 246.377 0.365675 4.03045 0
M  V30 2604 H 244.947 -0.182828 3.12065 0
M  V30 2605 H 244.167 2.30159 3.20032 0
M  V30 2606 H 245.455 2.57865 4.38615 0
M  V30 2607 H 244.853 -0.34215 5.64664 0
M  V30 2608 H 243.41 -0.00990438 6.51799 0
M  V30 2609 N 246.843 -1.10192 1.12674 0
M  V30 2610 C 247.775 -2.16418 0.754701 0
M  V30 2611 C 248.788 -1.61309 -0.21986 0
M  V30 2612 O 249.977 -1.785 -0.000826841 0
M  V30 2613 C 247.077 -3.38762 0.096698 0
M  V30 2614 C 246.25 -4.23307 1.10136 0
M  V30 2615 C 245.309 -5.24092 0.470513 0
M  V30 2616 O 244.335 -5.57906 1.12824 0
M  V30 2617 N 245.537 -5.75491 -0.760948 0
M  V30 2618 H 248.302 -2.48943 1.66875 0
M  V30 2619 H 245.863 -1.25834 1.01869 0
M  V30 2620 H 247.855 -4.03291 -0.337384 0
M  V30 2621 H 246.425 -3.04192 -0.720153 0
M  V30 2622 H 245.645 -3.55036 1.71299 0
M  V30 2623 H 246.933 -4.76624 1.78064 0
M  V30 2624 H 246.331 -5.50222 -1.31424 0
M  V30 2625 H 244.888 -6.41792 -1.13781 0
M  V30 2626 N 248.321 -0.919034 -1.28029 0
M  V30 2627 C 249.284 -0.416182 -2.2539 0
M  V30 2628 C 250.284 0.460438 -1.54067 0
M  V30 2629 O 251.474 0.262744 -1.72207 0
M  V30 2630 C 248.606 0.402707 -3.38513 0
M  V30 2631 H 249.799 -1.27629 -2.71387 0
M  V30 2632 H 247.352 -0.698919 -1.39803 0
M  V30 2633 H 248.087 1.282 -2.97885 0
M  V30 2634 H 247.872 -0.225698 -3.9145 0
M  V30 2635 H 249.362 0.745191 -4.10897 0
M  V30 2636 N 249.799 1.42003 -0.683588 0
M  V30 2637 C 250.729 2.33487 -0.024866 0
M  V30 2638 C 251.71 1.51163 0.779975 0
M  V30 2639 O 252.895 1.79739 0.735362 0
M  V30 2640 C 250.025 3.3487 0.920836 0
M  V30 2641 C 248.979 4.27414 0.223958 0
M  V30 2642 C 248.305 5.19074 1.2832 0
M  V30 2643 C 249.605 5.14445 -0.90242 0
M  V30 2644 H 251.299 2.88819 -0.788921 0
M  V30 2645 H 248.845 1.38873 -0.38083 0
M  V30 2646 H 250.798 3.97787 1.39081 0
M  V30 2647 H 249.522 2.77861 1.71642 0
M  V30 2648 H 248.181 3.65904 -0.225864 0
M  V30 2649 H 247.829 4.58387 2.071 0
M  V30 2650 H 247.529 5.81822 0.821995 0
M  V30 2651 H 249.053 5.84867 1.75392 0
M  V30 2652 H 250.467 5.70998 -0.513272 0
M  V30 2653 H 248.864 5.86072 -1.28997 0
M  V30 2654 H 249.934 4.52322 -1.74737 0
M  V30 2655 N 251.277 0.427512 1.51691 0
M  V30 2656 C 252.523 -0.142439 2.02299 0
M  V30 2657 C 252.856 -1.43214 1.31162 0
M  V30 2658 O 252.131 -1.89833 0.423511 0
M  V30 2659 C 252.414 -0.371301 3.58181 0
M  V30 2660 C 252.267 0.936358 4.39946 0
M  V30 2661 C 253.586 -1.14542 4.24933 0
M  V30 2662 H 250.705 -0.0502937 0.735282 0
M  V30 2663 H 253.347 0.564584 1.81418 0
M  V30 2664 H 251.497 -0.973559 3.76104 0
M  V30 2665 H 253.169 1.57184 4.33694 0
M  V30 2666 H 251.412 1.5432 4.05423 0
M  V30 2667 H 252.083 0.730388 5.47147 0
M  V30 2668 H 254.559 -0.635362 4.11221 0
M  V30 2669 H 253.435 -1.27431 5.33903 0
M  V30 2670 H 253.696 -2.17093 3.85127 0
M  V30 2671 N 252.755 -1.56801 0.158532 0
M  V30 2672 C 254.004 -1.95665 -0.489702 0
M  V30 2673 C 254.317 -1.04654 -1.65248 0
M  V30 2674 O 255.523 -1.33146 -2.3661 0
M  V30 2675 C 253.979 -3.47874 -0.922582 0
M  V30 2676 C 253.587 -4.47489 0.213893 0
M  V30 2677 C 255.331 -3.95583 -1.53996 0
M  V30 2678 C 253.238 -5.90921 -0.237903 0
M  V30 2679 H 252.168 -0.730516 -0.186716 0
M  V30 2680 H 254.819 -1.81861 0.244722 0
M  V30 2681 H 253.201 -3.57051 -1.71261 0
M  V30 2682 H 254.375 -4.50017 0.991036 0
M  V30 2683 H 252.69 -4.09764 0.740407 0
M  V30 2684 H 255.287 -5.0019 -1.8898 0
M  V30 2685 H 255.63 -3.37789 -2.43319 0
M  V30 2686 H 256.163 -3.8937 -0.814611 0
M  V30 2687 H 252.902 -6.52559 0.620236 0
M  V30 2688 H 252.422 -5.91729 -0.980676 0
M  V30 2689 H 254.101 -6.43352 -0.686067 0
M  V30 2690 N 254.233 0.115231 -1.57178 0
M  V30 2691 C 255.649 0.468877 -1.52557 0
M  V30 2692 C 255.849 1.81649 -0.872125 0
M  V30 2693 O 254.905 2.48347 -0.45606 0
M  V30 2694 C 256.218 0.4499 -2.97315 0
M  V30 2695 C 257.766 0.533185 -3.08425 0
M  V30 2696 C 258.241 0.54456 -4.54751 0
M  V30 2697 N 259.732 0.605892 -4.5922 0
M  V30 2698 C 260.467 0.636203 -5.6986 0
M  V30 2699 N 259.963 0.623931 -6.89985 0
M  V30 2700 N 261.756 0.679496 -5.57978 0
M  V30 2701 H 253.907 -0.767712 -1.9804 0
M  V30 2702 H 256.17 -0.283609 -0.904583 0
M  V30 2703 H 255.876 -0.472721 -3.48509 0
M  V30 2704 H 255.75 1.27632 -3.5495 0
M  V30 2705 H 258.137 1.44623 -2.57232 0
M  V30 2706 H 258.218 -0.320995 -2.53778 0
M  V30 2707 H 257.862 -0.364452 -5.06591 0
M  V30 2708 H 257.792 1.41568 -5.07214 0
M  V30 2709 H 260.283 0.621386 -3.72756 0
M  V30 2710 H 260.596 0.649787 -7.70063 0
M  V30 2711 H 258.941 0.591296 -6.9248 0
M  V30 2712 H 262.132 0.686472 -4.63039 0
M  V30 2713 H 262.305 0.69965 -6.44212 0
M  V30 2714 N 255.711 1.52812 0.385517 0
M  V30 2715 C 256.659 1.78482 1.49155 0
M  V30 2716 C 257.653 0.652914 1.56312 0
M  V30 2717 O 258.859 0.835464 1.59436 0
M  V30 2718 H 255.234 0.5648 0.496493 0
M  V30 2719 H 257.205 2.71095 1.24699 0
M  V30 2720 C 255.954 1.97378 2.86247 0
M  V30 2721 H 255.277 2.83907 2.81491 0
M  V30 2722 H 256.717 2.19327 3.62866 0
M  V30 2723 C 255.176 0.74728 3.28508 0
M  V30 2724 O 255.706 -0.0736232 4.01633 0
M  V30 2725 N 253.912 0.576396 2.84826 0
M  V30 2726 H 253.459 1.24555 2.25486 0
M  V30 2727 H 253.417 -0.24288 3.1346 0
M  V30 2728 N 257.189 -0.644168 1.43834 0
M  V30 2729 C 258.437 -1.40117 1.45642 0
M  V30 2730 C 258.758 -1.94814 0.0852413 0
M  V30 2731 O 258.028 -1.74988 -0.880688 0
M  V30 2732 H 256.608 -0.52005 0.536243 0
M  V30 2733 H 259.27 -0.7591 1.7951 0
M  V30 2734 H 258.366 -2.23902 2.17427 0
M  V30 2735 N 258.668 -1.30515 -0.883378 0
M  V30 2736 C 259.578 -1.18959 -2.02203 0
M  V30 2737 C 260.594 -0.109172 -1.73657 0
M  V30 2738 O 261.77 -0.324413 -1.9877 0
M  V30 2739 C 258.835 -0.883871 -3.35244 0
M  V30 2740 C 257.896 -2.04982 -3.77201 0
M  V30 2741 C 257.129 -1.75859 -5.03894 0
M  V30 2742 O 257.352 -0.687276 -5.66244 0
M  V30 2743 O 256.286 -2.61146 -5.42297 0
M  V30 2744 H 260.112 -2.14616 -2.1488 0
M  V30 2745 H 257.697 -1.10124 -1.0096 0
M  V30 2746 H 259.579 -0.728644 -4.15053 0
M  V30 2747 H 258.254 0.0427798 -3.23672 0
M  V30 2748 H 257.161 -2.26038 -2.9809 0
M  V30 2749 H 258.494 -2.95825 -3.93381 0
M  V30 2750 N 260.146 1.09593 -1.13257 0
M  V30 2751 C 261.093 2.1618 -0.808381 0
M  V30 2752 C 262.063 1.64517 0.228754 0
M  V30 2753 O 263.248 1.9053 0.101381 0
M  V30 2754 C 260.388 3.43973 -0.278675 0
M  V30 2755 C 259.501 4.09545 -1.37466 0
M  V30 2756 C 258.636 5.25088 -0.803479 0
M  V30 2757 C 257.675 5.82579 -1.87799 0
M  V30 2758 N 256.812 6.89486 -1.32488 0
M  V30 2759 H 261.652 2.43254 -1.72138 0
M  V30 2760 H 259.189 1.19392 -0.859294 0
M  V30 2761 H 261.147 4.17174 0.0465583 0
M  V30 2762 H 259.777 3.17223 0.597459 0
M  V30 2763 H 258.829 3.34226 -1.81652 0
M  V30 2764 H 260.141 4.48307 -2.18684 0
M  V30 2765 H 259.295 6.05178 -0.429427 0
M  V30 2766 H 258.034 4.87684 0.0397956 0
M  V30 2767 H 257.039 5.01152 -2.26113 0
M  V30 2768 H 258.264 6.22045 -2.72463 0
M  V30 2769 H 256.21 6.54064 -0.503575 0
M  V30 2770 H 256.127 7.27007 -2.07355 0
M  V30 2771 H 257.395 7.73336 -0.978336 0
M  V30 2772 N 261.624 0.925811 1.2754 0
M  V30 2773 C 262.557 0.367836 2.25216 0
M  V30 2774 C 263.535 -0.534738 1.53556 0
M  V30 2775 O 264.719 -0.475672 1.824 0
M  V30 2776 C 261.846 -0.47298 3.35381 0
M  V30 2777 C 260.892 0.365898 4.24928 0
M  V30 2778 S 261.725 1.78025 5.05042 0
M  V30 2779 C 262.881 0.947068 6.18693 0
M  V30 2780 H 263.114 1.19568 2.72196 0
M  V30 2781 H 260.647 0.727867 1.36167 0
M  V30 2782 H 262.605 -0.952242 3.99303 0
M  V30 2783 H 261.266 -1.27533 2.87044 0
M  V30 2784 H 260.459 -0.277582 5.03235 0
M  V30 2785 H 260.061 0.779261 3.65792 0
M  V30 2786 H 262.353 0.182201 6.77255 0
M  V30 2787 H 263.296 1.70309 6.87314 0
M  V30 2788 H 263.704 0.489913 5.6237 0
M  V30 2789 N 263.102 -1.41638 0.69111 0
M  V30 2790 C 264.327 -2.06148 0.227583 0
M  V30 2791 C 264.752 -1.51652 -1.11281 0
M  V30 2792 O 264.11 -0.64164 -1.69566 0
M  V30 2793 C 264.158 -3.60095 0.190858 0
M  V30 2794 O 263.262 -4.03845 -0.835664 0
M  V30 2795 H 262.603 -0.654434 0.112306 0
M  V30 2796 H 265.133 -1.81484 0.944714 0
M  V30 2797 H 265.143 -4.07995 0.020207 0
M  V30 2798 H 263.818 -3.99129 1.16915 0
M  V30 2799 H 262.395 -3.67458 -0.63473 0
M  V30 2800 N 264.58 -0.43555 -1.51462 0
M  V30 2801 C 265.829 0.133007 -2.01261 0
M  V30 2802 C 266.142 1.43942 -1.32439 0
M  V30 2803 O 267.348 2.09081 -1.73198 0
M  V30 2804 C 265.804 0.287581 -3.58749 0
M  V30 2805 C 265.412 -1.00829 -4.36506 0
M  V30 2806 C 267.156 0.810004 -4.167 0
M  V30 2807 C 265.063 -0.819454 -5.85695 0
M  V30 2808 H 263.993 0.0534822 -0.752101 0
M  V30 2809 H 266.644 -0.565038 -1.74584 0
M  V30 2810 H 265.026 1.04859 -3.81865 0
M  V30 2811 H 266.2 -1.77749 -4.25138 0
M  V30 2812 H 264.515 -1.45911 -3.89999 0
M  V30 2813 H 267.112 0.967743 -5.2587 0
M  V30 2814 H 267.455 1.79196 -3.75758 0
M  V30 2815 H 267.988 0.107357 -3.97655 0
M  V30 2816 H 264.727 -1.77374 -6.31046 0
M  V30 2817 H 264.247 -0.0900208 -5.99732 0
M  V30 2818 H 265.926 -0.471949 -6.45276 0
M  V30 2819 N 266.058 1.56714 -0.166846 0
M  V30 2820 C 267.006 2.19056 0.782123 0
M  V30 2821 C 268 1.15328 1.24079 0
M  V30 2822 O 269.206 1.33537 1.20697 0
M  V30 2823 H 265.581 0.70167 0.270486 0
M  V30 2824 H 267.552 2.97494 0.232322 0
M  V30 2825 C 266.301 2.84206 2.00306 0
M  V30 2826 H 265.624 3.63748 1.65914 0
M  V30 2827 H 267.064 3.31302 2.64604 0
M  V30 2828 C 265.523 1.83744 2.82382 0
M  V30 2829 O 266.053 1.32014 3.79388 0
M  V30 2830 N 264.259 1.52601 2.47308 0
M  V30 2831 H 263.806 1.9486 1.68485 0
M  V30 2832 H 263.764 0.856351 3.02513 0
M  V30 2833 N 267.536 -0.106894 1.57237 0
M  V30 2834 C 268.499 -1.11466 2.0027 0
M  V30 2835 C 269.499 -1.33623 0.894519 0
M  V30 2836 O 270.689 -1.29935 1.16028 0
M  V30 2837 C 267.821 -2.46646 2.35327 0
M  V30 2838 H 269.014 -0.744516 2.90512 0
M  V30 2839 H 266.567 -0.351576 1.52295 0
M  V30 2840 H 267.302 -2.88558 1.48003 0
M  V30 2841 H 267.087 -2.31915 3.16161 0
M  V30 2842 H 268.577 -3.19151 2.69318 0
M  V30 2843 N 269.014 -1.53014 -0.377408 0
M  V30 2844 C 269.924 -1.81557 -1.48574 0
M  V30 2845 C 270.94 -0.703102 -1.59162 0
M  V30 2846 O 272.116 -0.99192 -1.75279 0
M  V30 2847 C 269.181 -1.9889 -2.83978 0
M  V30 2848 C 268.242 -3.22801 -2.83016 0
M  V30 2849 C 267.475 -3.39298 -4.11962 0
M  V30 2850 O 267.698 -2.60345 -5.0752 0
M  V30 2851 O 266.632 -4.32604 -4.18494 0
M  V30 2852 H 270.458 -2.75695 -1.27382 0
M  V30 2853 H 268.043 -1.38248 -0.566373 0
M  V30 2854 H 269.925 -2.11931 -3.6423 0
M  V30 2855 H 268.6 -1.07942 -3.05172 0
M  V30 2856 H 267.507 -3.15193 -2.01505 0
M  V30 2857 H 268.84 -4.13632 -2.66775 0
M  V30 2858 N 270.492 0.636531 -1.44174 0
M  V30 2859 C 271.402 1.77754 -1.53103 0
M  V30 2860 C 272.418 1.68928 -0.417034 0
M  V30 2861 O 273.594 1.89801 -0.6736 0
M  V30 2862 C 270.659 3.14115 -1.46741 0
M  V30 2863 C 269.72 3.34612 -2.68948 0
M  V30 2864 C 268.953 4.64467 -2.6288 0
M  V30 2865 O 269.176 5.44919 -1.68581 0
M  V30 2866 O 268.11 4.87049 -3.53648 0
M  V30 2867 H 271.936 1.73174 -2.49489 0
M  V30 2868 H 269.521 0.79709 -1.2636 0
M  V30 2869 H 271.403 3.95412 -1.45696 0
M  V30 2870 H 270.078 3.19249 -0.534975 0
M  V30 2871 H 268.985 2.53014 -2.75562 0
M  V30 2872 H 270.318 3.34336 -3.61221 0
M  V30 2873 N 271.97 1.30982 0.876444 0
M  V30 2874 C 273.216 1.20474 1.63138 0
M  V30 2875 C 273.549 -0.238096 1.92735 0
M  V30 2876 O 272.824 -1.1692 1.55435 0
M  V30 2877 C 273.107 2.04244 2.96574 0
M  V30 2878 C 272.96 3.56793 2.73896 0
M  V30 2879 C 274.279 1.88684 3.97601 0
M  V30 2880 H 271.398 0.439001 0.591985 0
M  V30 2881 H 274.04 1.60704 1.01361 0
M  V30 2882 H 272.19 1.70063 3.493 0
M  V30 2883 H 273.862 4.01077 2.27892 0
M  V30 2884 H 272.105 3.80548 2.08245 0
M  V30 2885 H 272.776 4.10706 3.68815 0
M  V30 2886 H 275.252 2.18584 3.54062 0
M  V30 2887 H 274.128 2.4961 4.88862 0
M  V30 2888 H 274.389 0.848343 4.33884 0
M  V30 2889 N 273.449 -1.08991 1.13837 0
M  V30 2890 C 274.695 -1.81526 0.90422 0
M  V30 2891 C 275.028 -1.85706 -0.568066 0
M  V30 2892 O 274.303 -1.32855 -1.42056 0
M  V30 2893 C 274.586 -3.27447 1.49835 0
M  V30 2894 C 274.439 -3.31512 3.04006 0
M  V30 2895 C 275.758 -4.24256 1.17025 0
M  V30 2896 H 272.877 -0.659029 0.329923 0
M  V30 2897 H 275.519 -1.27644 1.40737 0
M  V30 2898 H 273.669 -3.73462 1.07044 0
M  V30 2899 H 275.341 -2.93867 3.55584 0
M  V30 2900 H 273.584 -2.70963 3.38765 0
M  V30 2901 H 274.255 -4.34329 3.40679 0
M  V30 2902 H 276.731 -3.86549 1.54009 0
M  V30 2903 H 275.607 -5.24684 1.61237 0
M  V30 2904 H 275.868 -4.42019 0.0846274 0
M  V30 2905 N 274.927 -0.932562 -1.27047 0
M  V30 2906 C 276.173 -0.576412 -1.94436 0
M  V30 2907 C 276.506 0.880891 -1.73072 0
M  V30 2908 O 275.781 1.62905 -1.06264 0
M  V30 2909 C 276.064 -0.909031 -3.48437 0
M  V30 2910 C 275.917 -2.42044 -3.79123 0
M  V30 2911 C 277.236 -0.418341 -4.38107 0
M  V30 2912 H 274.355 -0.210888 -0.706184 0
M  V30 2913 H 276.997 -1.16522 -1.50075 0
M  V30 2914 H 275.147 -0.407947 -3.86352 0
M  V30 2915 H 276.819 -2.99359 -3.50973 0
M  V30 2916 H 275.062 -2.86758 -3.25503 0
M  V30 2917 H 275.733 -2.6037 -4.86736 0
M  V30 2918 H 278.209 -0.847856 -4.0737 0
M  V30 2919 H 277.085 -0.679981 -5.44672 0
M  V30 2920 H 277.346 0.681642 -4.36814 0
M  V30 2921 N 276.405 1.4127 -0.698611 0
M  V30 2922 C 277.653 2.00782 -0.230409 0
M  V30 2923 C 277.974 1.5562 1.17505 0
M  V30 2924 O 277.244 0.78815 1.79346 0
M  V30 2925 H 275.824 0.742464 -0.0821944 0
M  V30 2926 H 278.486 1.72852 -0.90045 0
M  V30 2927 H 277.582 3.11095 -0.25021 0
M  V30 2928 N 277.883 0.443576 1.51229 0
M  V30 2929 C 279.16 -0.181038 1.9476 0
M  V30 2930 C 279.54 -1.59523 1.38259 0
M  V30 2931 O 278.888 -2.2122 0.572198 0
M  V30 2932 C 279.098 -0.152422 3.48667 0
M  V30 2933 C 280.446 -0.354923 4.23114 0
M  V30 2934 O 281.47 -0.230257 3.55455 0
M  V30 2935 O 280.329 -0.603674 5.43156 0
M  V30 2936 H 277.423 -0.1266 0.817252 0
M  V30 2937 H 279.969 0.502004 1.62105 0
M  V30 2938 H 278.741 0.836022 3.82265 0
M  V30 2939 H 278.364 -0.878107 3.87782 0
M  V30 2940 N 279.361 -1.56624 0.175154 0
M  V30 2941 C 280.291 -2.21155 -0.749195 0
M  V30 2942 C 281.272 -1.16836 -1.23626 0
M  V30 2943 O 282.457 -1.45277 -1.28873 0
M  V30 2944 C 279.587 -2.8553 -1.97711 0
M  V30 2945 C 278.541 -3.95921 -1.62575 0
M  V30 2946 C 277.867 -4.47365 -2.92864 0
M  V30 2947 C 279.167 -5.15323 -0.850838 0
M  V30 2948 H 280.861 -2.98653 -0.211295 0
M  V30 2949 H 278.407 -1.43651 -0.100188 0
M  V30 2950 H 280.36 -3.2935 -2.62881 0
M  V30 2951 H 279.084 -2.05406 -2.53921 0
M  V30 2952 H 277.743 -3.52762 -0.997719 0
M  V30 2953 H 277.391 -3.64027 -3.47122 0
M  V30 2954 H 277.091 -5.21839 -2.70106 0
M  V30 2955 H 278.615 -4.93873 -3.59056 0
M  V30 2956 H 280.029 -5.55812 -1.40521 0
M  V30 2957 H 278.426 -5.95739 -0.722154 0
M  V30 2958 H 279.496 -4.84661 0.152082 0
M  V30 2959 N 280.839 0.0985539 -1.57292 0
M  V30 2960 C 282.085 0.803867 -1.86188 0
M  V30 2961 C 282.418 1.78549 -0.763794 0
M  V30 2962 O 281.693 1.93153 0.22855 0
M  V30 2963 C 281.976 1.53568 -3.25713 0
M  V30 2964 C 281.829 0.572277 -4.46145 0
M  V30 2965 C 283.148 2.48708 -3.63087 0
M  V30 2966 H 280.267 0.290781 -0.677211 0
M  V30 2967 H 282.909 0.0675783 -1.8988 0
M  V30 2968 H 281.059 2.16332 -3.22696 0
M  V30 2969 H 282.731 -0.0480894 -4.61275 0
M  V30 2970 H 280.974 -0.114618 -4.33649 0
M  V30 2971 H 281.645 1.12139 -5.40489 0
M  V30 2972 H 284.121 1.96039 -3.67026 0
M  V30 2973 H 282.997 2.96932 -4.61652 0
M  V30 2974 H 283.258 3.32309 -2.91588 0
M  V30 2975 N 282.317 1.53212 0.369288 0
M  V30 2976 C 283.227 1.82342 1.47609 0
M  V30 2977 C 284.243 0.711532 1.58787 0
M  V30 2978 O 285.419 1.0012 1.74751 0
M  V30 2979 C 282.484 2.00393 2.8292 0
M  V30 2980 C 281.545 3.24297 2.81301 0
M  V30 2981 C 280.778 3.41478 4.10157 0
M  V30 2982 O 281.001 2.63033 5.06132 0
M  V30 2983 O 279.935 4.34817 4.16194 0
M  V30 2984 H 283.761 2.76366 1.25918 0
M  V30 2985 H 281.346 1.38547 0.559034 0
M  V30 2986 H 283.228 2.13859 3.63101 0
M  V30 2987 H 281.903 1.09559 3.04596 0
M  V30 2988 H 280.81 3.16257 1.99831 0
M  V30 2989 H 282.143 4.15041 2.64578 0
M  V30 2990 N 283.795 -0.628877 1.44509 0
M  V30 2991 C 285.041 -1.39045 1.47629 0
M  V30 2992 C 285.374 -1.93892 0.109343 0
M  V30 2993 O 284.649 -1.7379 -0.87334 0
M  V30 2994 C 284.932 -2.55408 2.53848 0
M  V30 2995 C 284.785 -2.05896 3.99909 0
M  V30 2996 C 286.104 -3.5759 2.56549 0
M  V30 2997 H 283.223 -0.504232 0.537512 0
M  V30 2998 H 285.865 -0.710854 1.76201 0
M  V30 2999 H 284.015 -3.13384 2.29615 0
M  V30 3000 H 285.687 -1.52734 4.35282 0
M  V30 3001 H 283.93 -1.37061 4.11578 0
M  V30 3002 H 284.601 -2.89681 4.69882 0
M  V30 3003 H 287.077 -3.09419 2.78207 0
M  V30 3004 H 285.953 -4.36527 3.32769 0
M  V30 3005 H 286.214 -4.11808 1.60832 0
M  V30 3006 N 285.273 -1.31445 -0.869486 0
M  V30 3007 C 286.22 -1.19135 -1.97675 0
M  V30 3008 C 287.19 -0.0770266 -1.65921 0
M  V30 3009 O 288.375 -0.249972 -1.89155 0
M  V30 3010 C 285.515 -0.905149 -3.33018 0
M  V30 3011 C 284.628 -2.10285 -3.77365 0
M  V30 3012 C 283.763 -1.75339 -5.01427 0
M  V30 3013 C 282.802 -2.91515 -5.38224 0
M  V30 3014 N 281.939 -2.56762 -6.53466 0
M  V30 3015 H 286.779 -2.13853 -2.07535 0
M  V30 3016 H 284.316 -1.06379 -1.01597 0
M  V30 3017 H 286.274 -0.719765 -4.10944 0
M  V30 3018 H 284.904 0.00519624 -3.228 0
M  V30 3019 H 283.956 -2.39899 -2.95216 0
M  V30 3020 H 285.268 -2.97237 -4.00564 0
M  V30 3021 H 284.422 -1.53266 -5.87022 0
M  V30 3022 H 283.161 -0.855801 -4.80133 0
M  V30 3023 H 282.166 -3.14237 -4.51149 0
M  V30 3024 H 283.391 -3.81985 -5.61484 0
M  V30 3025 H 281.337 -1.69526 -6.33717 0
M  V30 3026 H 281.254 -3.37243 -6.76612 0
M  V30 3027 H 282.522 -2.38083 -7.42251 0
M  V30 3028 N 286.751 1.08385 -1.14413 0
M  V30 3029 C 287.999 1.80419 -0.910679 0
M  V30 3030 C 288.32 1.86658 0.564243 0
M  V30 3031 O 287.59 1.35985 1.41014 0
M  V30 3032 H 286.17 0.668204 -0.333934 0
M  V30 3033 H 288.832 1.31037 -1.44275 0
M  V30 3034 H 287.928 2.83238 -1.31082 0
M  V30 3035 N 288.23 0.939286 1.26551 0
M  V30 3036 C 289.478 0.58469 1.93457 0
M  V30 3037 C 289.799 -0.878774 1.74076 0
M  V30 3038 O 289.069 -1.62421 1.09528 0
M  V30 3039 H 287.649 0.21325 0.715914 0
M  V30 3040 H 290.311 1.1942 1.54029 0
M  V30 3041 H 289.407 0.800849 3.0165 0
M  V30 3042 N 289.708 -1.40897 0.706093 0
M  V30 3043 C 290.985 -1.94868 0.169099 0
M  V30 3044 C 291.365 -1.64485 -1.32318 0
M  V30 3045 O 290.713 -0.95744 -2.07474 0
M  V30 3046 C 290.923 -3.45798 0.471654 0
M  V30 3047 C 292.271 -4.22663 0.405127 0
M  V30 3048 O 293.295 -3.53865 0.407168 0
M  V30 3049 O 292.154 -5.45216 0.374383 0
M  V30 3050 H 289.248 -0.82673 0.0211352 0
M  V30 3051 H 291.794 -1.50558 0.782976 0
M  V30 3052 H 290.566 -3.61235 1.50416 0
M  V30 3053 H 290.189 -3.97225 -0.172666 0
M  V30 3054 N 291.186 -0.45159 -1.50991 0
M  V30 3055 C 292.602 -0.104647 -1.59257 0
M  V30 3056 C 292.802 1.38728 -1.4614 0
M  V30 3057 O 291.858 2.15866 -1.30989 0
M  V30 3058 C 293.171 -0.637468 -2.93865 0
M  V30 3059 C 294.719 -0.599166 -3.07212 0
M  V30 3060 C 295.194 -1.1092 -4.44366 0
M  V30 3061 N 296.685 -1.06778 -4.50725 0
M  V30 3062 C 297.42 -1.43314 -5.55201 0
M  V30 3063 N 296.916 -1.87204 -6.67028 0
M  V30 3064 N 298.709 -1.3504 -5.45638 0
M  V30 3065 H 290.86 -1.42214 -1.57762 0
M  V30 3066 H 293.123 -0.586921 -0.744465 0
M  V30 3067 H 292.829 -1.68187 -3.08879 0
M  V30 3068 H 292.703 -0.0702139 -3.77135 0
M  V30 3069 H 295.09 0.436277 -2.91857 0
M  V30 3070 H 295.171 -1.20299 -2.25747 0
M  V30 3071 H 294.815 -2.14318 -4.60467 0
M  V30 3072 H 294.745 -0.481773 -5.24392 0
M  V30 3073 H 297.236 -0.745643 -3.70471 0
M  V30 3074 H 297.549 -2.13282 -7.42786 0
M  V30 3075 H 295.894 -1.91142 -6.68199 0
M  V30 3076 H 299.085 -1.00607 -4.57161 0
M  V30 3077 H 299.258 -1.63841 -6.26945 0
M  V30 3078 N 292.664 1.56529 -0.183458 0
M  V30 3079 C 293.913 1.96419 0.458511 0
M  V30 3080 C 294.226 1.0727 1.63562 0
M  V30 3081 O 295.432 1.36893 2.34462 0
M  V30 3082 C 293.888 3.49298 0.867122 0
M  V30 3083 C 293.496 4.47092 -0.285057 0
M  V30 3084 C 295.24 3.97983 1.47683 0
M  V30 3085 C 293.147 5.91225 0.143862 0
M  V30 3086 H 292.077 0.733394 0.175071 0
M  V30 3087 H 294.728 1.81448 -0.273624 0
M  V30 3088 H 293.11 3.59731 1.65559 0
M  V30 3089 H 294.284 4.48383 -1.0625 0
M  V30 3090 H 292.599 4.08535 -0.805503 0
M  V30 3091 H 295.196 5.03134 1.80999 0
M  V30 3092 H 295.539 3.41618 2.37914 0
M  V30 3093 H 296.072 3.90617 0.752562 0
M  V30 3094 H 292.811 6.5149 -0.723974 0
M  V30 3095 H 292.331 5.93214 0.886413 0
M  V30 3096 H 294.01 6.44362 0.583628 0
M  V30 3097 N 294.142 -0.090211 1.57342 0
M  V30 3098 C 295.553 -0.644173 1.75235 0
M  V30 3099 C 295.904 -1.78865 0.806335 0
M  V30 3100 O 295.029 -2.16395 -0.0140128 0
M  V30 3101 C 295.624 -1.17532 3.1776 0
M  V30 3102 C 294.183 -1.67531 3.37061 0
M  V30 3103 C 293.33 -0.58693 2.71017 0
M  V30 3104 H 296.281 0.135884 1.58117 0
M  V30 3105 H 296.302 -2.04455 3.20902 0
M  V30 3106 H 295.814 -0.342138 3.86589 0
M  V30 3107 H 293.915 -2.53234 2.73319 0
M  V30 3108 H 294.028 -1.76493 4.45406 0
M  V30 3109 H 292.392 -1.02756 2.33052 0
M  V30 3110 H 293.175 0.235758 3.4249 0
M  V30 3111 N 295.62 -1.53406 -0.361157 0
M  V30 3112 C 296.583 -1.79479 -1.42548 0
M  V30 3113 C 297.583 -0.665327 -1.4639 0
M  V30 3114 O 298.773 -0.933549 -1.47073 0
M  V30 3115 C 295.905 -1.92087 -2.8163 0
M  V30 3116 H 297.098 -2.74538 -1.20701 0
M  V30 3117 H 294.651 -1.4455 -0.594546 0
M  V30 3118 H 295.386 -0.991099 -3.08784 0
M  V30 3119 H 295.171 -2.74241 -2.80239 0
M  V30 3120 H 296.661 -2.13836 -3.58697 0
M  V30 3121 N 297.098 0.621204 -1.44841 0
M  V30 3122 C 298.375 1.38 -1.38619 0
M  V30 3123 C 298.755 2.11041 -0.0498935 0
M  V30 3124 O 298.103 2.06992 0.967816 0
M  V30 3125 C 298.313 2.33817 -2.59096 0
M  V30 3126 C 299.661 2.96844 -3.03593 0
M  V30 3127 O 300.685 2.44141 -2.59371 0
M  V30 3128 O 299.544 3.92476 -3.80296 0
M  V30 3129 H 296.638 0.61811 -0.549426 0
M  V30 3130 H 299.184 0.645429 -1.56947 0
M  V30 3131 H 297.956 1.79012 -3.47952 0
M  V30 3132 H 297.579 3.14676 -2.43032 0
M  V30 3133 N 298.576 1.31904 0.862503 0
M  V30 3134 C 299.506 1.22782 1.98612 0
M  V30 3135 C 300.487 0.113362 1.69722 0
M  V30 3136 O 301.672 0.299218 1.91881 0
M  V30 3137 C 298.802 0.942058 3.34279 0
M  V30 3138 C 297.756 2.0169 3.77499 0
M  V30 3139 C 297.082 1.58369 5.10709 0
M  V30 3140 C 298.382 3.43096 3.93805 0
M  V30 3141 H 300.076 2.16788 2.06502 0
M  V30 3142 H 297.622 1.04366 0.992154 0
M  V30 3143 H 299.575 0.864818 4.1243 0
M  V30 3144 H 298.299 -0.0336603 3.26583 0
M  V30 3145 H 296.958 2.08416 3.01593 0
M  V30 3146 H 296.606 0.595628 4.99461 0
M  V30 3147 H 296.306 2.30279 5.40597 0
M  V30 3148 H 297.83 1.52067 5.91361 0
M  V30 3149 H 299.244 3.39003 4.62331 0
M  V30 3150 H 297.641 4.13288 4.35101 0
M  V30 3151 H 298.711 3.83334 2.96957 0
M  V30 3152 N 300.054 -1.07777 1.14986 0
M  V30 3153 C 301.47 -1.32373 0.891596 0
M  V30 3154 C 301.67 -1.9609 -0.463788 0
M  V30 3155 O 300.726 -2.21801 -1.20667 0
M  V30 3156 C 302.039 -2.21905 2.02925 0
M  V30 3157 C 303.587 -2.35367 2.06329 0
M  V30 3158 C 304.062 -3.28245 3.19405 0
M  V30 3159 N 305.553 -3.35824 3.19024 0
M  V30 3160 C 306.288 -4.07739 4.03158 0
M  V30 3161 N 305.784 -4.82306 4.97346 0
M  V30 3162 N 307.577 -4.03635 3.91197 0
M  V30 3163 H 299.728 -0.648039 2.02273 0
M  V30 3164 H 301.991 -0.348149 0.881757 0
M  V30 3165 H 301.697 -1.82342 3.0074 0
M  V30 3166 H 301.571 -3.22407 1.95789 0
M  V30 3167 H 303.958 -2.74186 1.09116 0
M  V30 3168 H 304.039 -1.34585 2.17533 0
M  V30 3169 H 303.683 -2.90146 4.16867 0
M  V30 3170 H 303.613 -4.28971 3.05437 0
M  V30 3171 H 306.104 -2.8267 2.50811 0
M  V30 3172 H 306.417 -5.34661 5.57994 0
M  V30 3173 H 304.762 -4.81337 5.01338 0
M  V30 3174 H 307.953 -3.44491 3.16928 0
M  V30 3175 H 308.126 -4.59417 4.5699 0
M  V30 3176 N 301.532 -0.945985 -1.26051 0
M  V30 3177 C 302.781 -0.591836 -1.92822 0
M  V30 3178 C 303.094 0.873956 -1.7499 0
M  V30 3179 O 304.3 1.33769 -2.36259 0
M  V30 3180 C 302.756 -1.00776 -3.45503 0
M  V30 3181 C 302.364 -2.4955 -3.7206 0
M  V30 3182 C 304.108 -0.725735 -4.1825 0
M  V30 3183 C 302.015 -2.84988 -5.18205 0
M  V30 3184 H 300.945 -0.217635 -0.721908 0
M  V30 3185 H 303.596 -1.14927 -1.43052 0
M  V30 3186 H 301.978 -0.378812 -3.94184 0
M  V30 3187 H 303.152 -3.1739 -3.34066 0
M  V30 3188 H 301.467 -2.75133 -3.12555 0
M  V30 3189 H 304.064 -0.966771 -5.25887 0
M  V30 3190 H 304.407 0.337639 -4.14929 0
M  V30 3191 H 304.94 -1.31463 -3.7545 0
M  V30 3192 H 301.679 -3.90307 -5.26631 0
M  V30 3193 H 301.199 -2.21813 -5.57278 0
M  V30 3194 H 302.878 -2.73712 -5.86252 0
M  V30 3195 N 303.011 1.40521 -0.713556 0
M  V30 3196 C 304.26 2.00155 -0.249192 0
M  V30 3197 C 304.573 1.57224 1.16362 0
M  V30 3198 O 305.779 2.09542 1.72639 0
M  V30 3199 C 304.235 3.5773 -0.3946 0
M  V30 3200 C 303.843 4.09635 -1.81392 0
M  V30 3201 C 305.587 4.24499 0.00907364 0
M  V30 3202 C 303.494 5.59707 -1.91003 0
M  V30 3203 H 302.424 0.74868 -0.0894114 0
M  V30 3204 H 305.075 1.60784 -0.884352 0
M  V30 3205 H 303.457 3.94792 0.30911 0
M  V30 3206 H 304.631 3.83955 -2.54785 0
M  V30 3207 H 302.946 3.55456 -2.16888 0
M  V30 3208 H 305.543 5.34683 -0.0420404 0
M  V30 3209 H 305.886 4.02824 1.05065 0
M  V30 3210 H 306.419 3.92536 -0.645007 0
M  V30 3211 H 303.158 5.86234 -2.93275 0
M  V30 3212 H 302.678 5.87258 -1.22019 0
M  V30 3213 H 304.357 6.24776 -1.6812 0
M  V30 3214 N 304.489 0.459591 1.5075 0
M  V30 3215 C 305.714 -0.0996819 2.0716 0
M  V30 3216 C 306.139 -1.33761 1.32249 0
M  V30 3217 O 305.497 -1.77551 0.366786 0
M  V30 3218 C 305.545 -0.378226 3.58611 0
M  V30 3219 O 304.649 -1.46081 3.85661 0
M  V30 3220 H 303.99 0.00791392 0.663953 0
M  V30 3221 H 306.52 0.647329 1.9409 0
M  V30 3222 H 306.53 -0.622135 4.03229 0
M  V30 3223 H 305.205 0.526439 4.12555 0
M  V30 3224 H 303.782 -1.20511 3.5289 0
M  V30 3225 N 305.967 -1.56429 0.191757 0
M  V30 3226 C 306.93 -2.17707 -0.716688 0
M  V30 3227 C 307.93 -1.13061 -1.14341 0
M  V30 3228 O 309.12 -1.38464 -1.05704 0
M  V30 3229 C 306.252 -2.77644 -1.97804 0
M  V30 3230 H 307.445 -2.99342 -0.1829 0
M  V30 3231 H 304.998 -1.56193 -0.0578566 0
M  V30 3232 H 305.733 -1.99799 -2.55443 0
M  V30 3233 H 305.518 -3.54246 -1.68083 0
M  V30 3234 H 307.008 -3.24708 -2.62592 0
M  V30 3235 N 307.445 0.0818655 -1.57387 0
M  V30 3236 C 308.393 1.11712 -2.04018 0
M  V30 3237 C 309.387 1.40683 -0.94364 0
M  V30 3238 O 310.593 1.40209 -1.12878 0
M  V30 3239 H 306.968 0.377542 -0.650358 0
M  V30 3240 H 308.939 0.697614 -2.90131 0
M  V30 3241 C 307.688 2.42537 -2.49141 0
M  V30 3242 H 307.011 2.21092 -3.33104 0
M  V30 3243 H 308.451 3.13446 -2.85531 0
M  V30 3244 C 306.91 3.0778 -1.37014 0
M  V30 3245 O 307.44 3.95436 -0.706621 0
M  V30 3246 N 305.646 2.68242 -1.11779 0
M  V30 3247 H 305.193 1.97052 -1.65917 0
M  V30 3248 H 305.151 3.1222 -0.369594 0
M  V30 3249 N 308.923 1.53595 0.353017 0
M  V30 3250 C 310.171 1.70049 1.09215 0
M  V30 3251 C 310.492 0.461406 1.89463 0
M  V30 3252 O 309.762 -0.524633 1.88744 0
M  V30 3253 H 308.342 0.626912 0.40619 0
M  V30 3254 H 311.004 1.90822 0.396585 0
M  V30 3255 H 310.1 2.56718 1.77488 0
M  V30 3256 N 310.401 -0.613514 1.45168 0
M  V30 3257 C 311.641 -1.38405 1.5041 0
M  V30 3258 C 312.005 -1.91489 0.139922 0
M  V30 3259 O 313.206 -2.68716 0.067033 0
M  V30 3260 C 311.477 -2.50552 2.5487 0
M  V30 3261 S 313.036 -3.38439 2.79292 0
M  V30 3262 H 309.854 -0.471945 0.531779 0
M  V30 3263 H 312.456 -0.708518 1.82209 0
M  V30 3264 H 311.16 -2.09894 3.52665 0
M  V30 3265 H 310.691 -3.22913 2.24701 0
M  V30 3266 H 312.706 -4.48527 2.12222 0
M  V30 3267 N 311.879 -1.3236 -0.855495 0
M  V30 3268 C 312.826 -1.21225 -1.964 0
M  V30 3269 C 313.796 -0.0946204 -1.6583 0
M  V30 3270 O 314.981 -0.27002 -1.8888 0
M  V30 3271 C 312.121 -0.940419 -3.32039 0
M  V30 3272 C 311.234 -2.14276 -3.75113 0
M  V30 3273 C 310.369 -1.80648 -4.9954 0
M  V30 3274 C 309.408 -2.97208 -5.35102 0
M  V30 3275 N 308.545 -2.63678 -6.50706 0
M  V30 3276 H 313.385 -2.16042 -2.05255 0
M  V30 3277 H 310.922 -1.07451 -1.00463 0
M  V30 3278 H 312.88 -0.763311 -4.10158 0
M  V30 3279 H 311.51 -0.0290413 -3.22787 0
M  V30 3280 H 310.562 -2.43017 -2.92655 0
M  V30 3281 H 311.874 -3.01468 -3.97389 0
M  V30 3282 H 311.028 -1.59484 -5.85363 0
M  V30 3283 H 309.767 -0.906678 -4.79198 0
M  V30 3284 H 308.772 -3.19004 -4.47791 0
M  V30 3285 H 309.997 -3.87918 -5.57401 0
M  V30 3286 H 307.943 -1.76238 -6.31883 0
M  V30 3287 H 307.86 -3.444 -6.72997 0
M  V30 3288 H 309.128 -2.45942 -7.39684 0
M  V30 3289 N 313.357 1.07166 -1.15556 0
M  V30 3290 C 314.603 1.80065 -0.932984 0
M  V30 3291 C 314.936 1.86586 0.53845 0
M  V30 3292 O 314.211 1.35098 1.39924 0
M  V30 3293 C 314.494 3.25022 -1.55025 0
M  V30 3294 C 314.347 3.26634 -3.09242 0
M  V30 3295 C 315.666 4.22341 -1.2376 0
M  V30 3296 H 312.785 0.653697 -0.340366 0
M  V30 3297 H 315.427 1.25389 -1.4275 0
M  V30 3298 H 313.577 3.71712 -1.12972 0
M  V30 3299 H 315.249 2.88173 -3.60214 0
M  V30 3300 H 313.492 2.65539 -3.43033 0
M  V30 3301 H 314.163 4.28854 -3.47546 0
M  V30 3302 H 316.639 3.8405 -1.60139 0
M  V30 3303 H 315.515 5.22053 -1.69564 0
M  V30 3304 H 315.776 4.41828 -0.154938 0
M  V30 3305 N 314.835 0.952656 1.25548 0
M  V30 3306 C 316.112 0.523818 1.88456 0
M  V30 3307 C 316.492 -0.998871 1.85973 0
M  V30 3308 O 315.84 -1.86381 1.3219 0
M  V30 3309 C 316.05 1.0982 3.31271 0
M  V30 3310 C 317.398 1.17385 4.08051 0
M  V30 3311 O 318.422 1.04961 3.40384 0
M  V30 3312 O 317.281 1.36852 5.29088 0
M  V30 3313 H 314.375 0.172485 0.808813 0
M  V30 3314 H 316.921 1.04596 1.33633 0
M  V30 3315 H 315.693 2.1415 3.27499 0
M  V30 3316 H 315.316 0.559191 3.93648 0
M  V30 3317 N 316.313 -1.40141 0.720998 0
M  V30 3318 C 317.261 -2.3252 0.0608547 0
M  V30 3319 C 318.255 -1.52326 -0.741152 0
M  V30 3320 O 319.461 -1.68089 -0.643911 0
M  V30 3321 H 315.836 -0.751999 0.000876664 0
M  V30 3322 H 317.807 -2.8584 0.856614 0
M  V30 3323 C 316.556 -3.37331 -0.842809 0
M  V30 3324 H 315.879 -3.99108 -0.235084 0
M  V30 3325 H 317.319 -4.04452 -1.27257 0
M  V30 3326 C 315.778 -2.73246 -1.97074 0
M  V30 3327 O 316.308 -2.59998 -3.06209 0
M  V30 3328 N 314.514 -2.31547 -1.75597 0
M  V30 3329 H 314.061 -2.42522 -0.868368 0
M  V30 3330 H 314.019 -1.89007 -2.51244 0
M  V30 3331 N 317.792 -0.46758 -1.50504 0
M  V30 3332 C 319.017 0.0886943 -2.0721 0
M  V30 3333 C 319.442 1.33057 -1.32956 0
M  V30 3334 O 318.8 1.77354 -0.376197 0
M  V30 3335 C 318.848 0.359202 -3.58806 0
M  V30 3336 O 317.952 1.44034 -3.8643 0
M  V30 3337 H 317.293 -0.0114349 -0.663902 0
M  V30 3338 H 319.823 -0.657613 -1.93744 0
M  V30 3339 H 319.833 0.600742 -4.03553 0
M  V30 3340 H 318.508 -0.548311 -4.1227 0
M  V30 3341 H 317.085 1.18638 -3.53524 0
M  V30 3342 N 319.27 1.56325 -0.20005 0
M  V30 3343 C 320.495 2.02548 0.44597 0
M  V30 3344 C 320.92 1.07922 1.5406 0
M  V30 3345 O 320.278 0.0635775 1.81188 0
M  V30 3346 C 320.326 3.47175 0.974761 0
M  V30 3347 O 319.43 3.55671 2.08739 0
M  V30 3348 H 318.771 0.655862 0.103638 0
M  V30 3349 H 321.301 2.02201 -0.312381 0
M  V30 3350 H 321.311 3.87067 1.2901 0
M  V30 3351 H 319.986 4.15538 0.17347 0
M  V30 3352 H 318.563 3.27657 1.78032 0
M  V30 3353 N 320.748 -0.0735177 1.57428 0
M  V30 3354 C 321.678 -1.0879 2.06608 0
M  V30 3355 C 322.659 -1.40473 0.959237 0
M  V30 3356 O 323.844 -1.5013 1.23185 0
M  V30 3357 C 320.974 -2.40183 2.50857 0
M  V30 3358 C 319.928 -2.22858 3.65402 0
M  V30 3359 C 319.254 -3.59619 3.957 0
M  V30 3360 C 320.554 -1.65123 4.95511 0
M  V30 3361 H 322.248 -0.678673 2.91607 0
M  V30 3362 H 319.794 -0.325013 1.40284 0
M  V30 3363 H 321.747 -3.11437 2.83874 0
M  V30 3364 H 320.471 -2.83083 1.62885 0
M  V30 3365 H 319.13 -1.54045 3.32664 0
M  V30 3366 H 318.778 -4.00086 3.04861 0
M  V30 3367 H 318.478 -3.48866 4.72828 0
M  V30 3368 H 320.002 -4.32306 4.31212 0
M  V30 3369 H 321.416 -2.26241 5.26771 0
M  V30 3370 H 319.813 -1.65071 5.7695 0
M  V30 3371 H 320.883 -0.612559 4.81015 0
M  V30 3372 N 322.226 -1.5378 -0.344866 0
M  V30 3373 C 323.454 -1.74899 -1.10534 0
M  V30 3374 C 323.869 -0.487534 -1.82397 0
M  V30 3375 O 323.226 0.540741 -1.74305 0
M  V30 3376 C 323.277 -2.92822 -2.11984 0
M  V30 3377 O 322.998 -4.14089 -1.43044 0
M  V30 3378 C 324.499 -3.25982 -3.00417 0
M  V30 3379 H 321.719 -0.584426 -0.329678 0
M  V30 3380 H 324.263 -2.006 -0.397474 0
M  V30 3381 H 322.418 -2.69457 -2.78338 0
M  V30 3382 H 322.832 -4.80272 -2.10805 0
M  V30 3383 H 324.306 -4.11848 -3.67539 0
M  V30 3384 H 324.783 -2.42228 -3.66363 0
M  V30 3385 H 325.389 -3.51349 -2.39654 0
M  V30 3386 N 323.704 0.605807 -1.45491 0
M  V30 3387 C 324.952 1.36207 -1.49305 0
M  V30 3388 C 325.273 1.94519 -0.136863 0
M  V30 3389 O 324.543 1.77261 0.833983 0
M  V30 3390 H 323.123 0.50565 -0.549843 0
M  V30 3391 H 325.785 0.711239 -1.81459 0
M  V30 3392 H 324.881 2.18058 -2.23287 0
M  V30 3393 N 325.182 1.32811 0.848464 0
M  V30 3394 C 326.092 1.24278 1.98978 0
M  V30 3395 C 327.108 0.155176 1.73307 0
M  V30 3396 O 328.284 0.376999 1.9784 0
M  V30 3397 C 325.349 0.972444 3.32783 0
M  V30 3398 C 324.41 2.14911 3.71634 0
M  V30 3399 C 323.643 1.89157 4.99054 0
M  V30 3400 O 323.866 0.837165 5.64223 0
M  V30 3401 O 322.8 2.75433 5.35183 0
M  V30 3402 H 326.626 2.20238 2.09115 0
M  V30 3403 H 324.211 1.12762 0.980052 0
M  V30 3404 H 326.093 0.838432 4.12975 0
M  V30 3405 H 324.768 0.043051 3.23671 0
M  V30 3406 H 323.675 2.33862 2.91992 0
M  V30 3407 H 325.008 3.06151 3.85399 0
M  V30 3408 N 326.66 -1.06551 1.16123 0
M  V30 3409 C 327.885 -1.83544 0.965735 0
M  V30 3410 C 328.31 -1.81843 -0.481102 0
M  V30 3411 O 327.668 -1.21732 -1.34354 0
M  V30 3412 C 327.716 -3.28169 1.49457 0
M  V30 3413 O 326.82 -4.0643 0.699157 0
M  V30 3414 H 326.161 -0.568026 0.343864 0
M  V30 3415 H 328.691 -1.34362 1.54299 0
M  V30 3416 H 328.701 -3.78992 1.51092 0
M  V30 3417 H 327.376 -3.28722 2.54784 0
M  V30 3418 H 325.953 -3.65216 0.7531 0
M  V30 3419 N 328.138 -0.959301 -1.25041 0
M  V30 3420 C 329.048 -0.489994 -2.29426 0
M  V30 3421 C 330.064 0.444944 -1.68215 0
M  V30 3422 O 331.24 0.320046 -1.98841 0
M  V30 3423 C 328.305 0.220309 -3.45999 0
M  V30 3424 C 327.366 -0.753418 -4.22637 0
M  V30 3425 C 326.599 -0.076918 -5.33645 0
M  V30 3426 O 326.822 1.13649 -5.58963 0
M  V30 3427 O 325.756 -0.764824 -5.97021 0
M  V30 3428 H 329.582 -1.35755 -2.71669 0
M  V30 3429 H 327.167 -0.725961 -1.30576 0
M  V30 3430 H 329.049 0.619677 -4.16819 0
M  V30 3431 H 327.724 1.06296 -3.0575 0
M  V30 3432 H 326.631 -1.20308 -3.54227 0
M  V30 3433 H 327.964 -1.56423 -4.66683 0
M  V30 3434 N 329.616 1.39756 -0.72842 0
M  V30 3435 C 331.027 1.83498 -0.344289 0
M  V30 3436 C 331.378 1.60868 1.12321 0
M  V30 3437 O 330.503 1.09634 1.86573 0
M  V30 3438 C 331.098 3.33114 -0.618112 0
M  V30 3439 C 329.657 3.753 -0.287549 0
M  V30 3440 C 328.804 2.62831 -0.884048 0
M  V30 3441 H 331.755 1.28842 -0.926578 0
M  V30 3442 H 331.776 3.80334 0.112349 0
M  V30 3443 H 331.288 3.49553 -1.68625 0
M  V30 3444 H 329.389 3.64451 0.775012 0
M  V30 3445 H 329.502 4.72945 -0.765512 0
M  V30 3446 H 327.866 2.52792 -0.311149 0
M  V30 3447 H 328.649 2.82078 -1.95671 0
M  V30 3448 N 331.094 0.475555 1.50254 0
M  V30 3449 C 332.026 -0.352649 2.26471 0
M  V30 3450 C 333.039 -0.953165 1.3198 0
M  V30 3451 O 334.228 -0.840815 1.57457 0
M  V30 3452 C 331.328 -1.50902 3.0345 0
M  V30 3453 C 330.501 -1.02047 4.25329 0
M  V30 3454 C 329.56 -2.05142 4.84565 0
M  V30 3455 O 328.586 -1.63023 5.45355 0
M  V30 3456 N 329.788 -3.37987 4.71959 0
M  V30 3457 H 332.553 0.300767 2.98187 0
M  V30 3458 H 330.114 0.306598 1.5897 0
M  V30 3459 H 332.106 -2.19572 3.39956 0
M  V30 3460 H 330.676 -2.06705 2.34504 0
M  V30 3461 H 329.896 -0.159507 3.93877 0
M  V30 3462 H 331.184 -0.672061 5.04342 0
M  V30 3463 H 330.582 -3.74913 4.23623 0
M  V30 3464 H 329.139 -4.02443 5.12721 0
M  V30 3465 N 332.573 -1.56217 0.208337 0
M  V30 3466 C 333.801 -2.02337 -0.43215 0
M  V30 3467 C 334.216 -1.08834 -1.54275 0
M  V30 3468 O 333.573 -0.0955462 -1.8225 0
M  V30 3469 C 333.624 -3.48072 -0.976138 0
M  V30 3470 O 333.345 -4.38007 0.0901621 0
M  V30 3471 C 334.846 -4.09773 -1.69119 0
M  V30 3472 H 332.066 -0.662385 -0.10718 0
M  V30 3473 H 334.61 -2.01966 0.320923 0
M  V30 3474 H 332.765 -3.49099 -1.67954 0
M  V30 3475 H 333.179 -5.23543 -0.316701 0
M  V30 3476 H 334.653 -5.13556 -2.02397 0
M  V30 3477 H 335.13 -3.53999 -2.59964 0
M  V30 3478 H 335.736 -4.12556 -1.03332 0
M  V30 3479 N 334.051 0.0651679 -1.57465 0
M  V30 3480 C 335.467 0.420105 -1.53972 0
M  V30 3481 C 335.667 1.78782 -0.929474 0
M  V30 3482 O 334.723 2.46771 -0.534839 0
M  V30 3483 C 336.036 0.355084 -2.98596 0
M  V30 3484 C 337.584 0.434792 -3.09965 0
M  V30 3485 C 338.059 0.399609 -4.56253 0
M  V30 3486 N 339.55 0.459488 -4.60915 0
M  V30 3487 C 340.285 0.454584 -5.71595 0
M  V30 3488 N 339.781 0.404102 -6.9162 0
M  V30 3489 N 341.574 0.501635 -5.59857 0
M  V30 3490 H 333.725 -0.830328 -1.95498 0
M  V30 3491 H 335.988 -0.312244 -0.895102 0
M  V30 3492 H 335.694 -0.583357 -3.46828 0
M  V30 3493 H 335.568 1.16275 -3.58831 0
M  V30 3494 H 337.955 1.36366 -2.61703 0
M  V30 3495 H 338.036 -0.40157 -2.52628 0
M  V30 3496 H 337.68 -0.525436 -5.05175 0
M  V30 3497 H 337.61 1.25359 -5.11461 0
M  V30 3498 H 340.101 0.502482 -3.74544 0
M  V30 3499 H 340.414 0.404468 -7.71741 0
M  V30 3500 H 338.759 0.37069 -6.94011 0
M  V30 3501 H 341.95 0.538812 -4.64989 0
M  V30 3502 H 342.123 0.494345 -6.46112 0
M  V30 3503 N 335.529 1.53961 0.336706 0
M  V30 3504 C 336.754 1.75797 1.10046 0
M  V30 3505 C 337.179 0.498985 1.81361 0
M  V30 3506 O 336.537 -0.548769 1.72795 0
M  V30 3507 C 336.585 2.94257 2.08436 0
M  V30 3508 O 335.689 2.64883 3.16087 0
M  V30 3509 H 335.03 0.582936 0.317934 0
M  V30 3510 H 337.56 2.00945 0.38501 0
M  V30 3511 H 337.57 3.21237 2.51537 0
M  V30 3512 H 336.245 3.85564 1.55927 0
M  V30 3513 H 334.822 2.48812 2.77753 0
M  V30 3514 N 337.007 -0.598083 1.45811 0
M  V30 3515 C 338.418 -1.18011 1.44673 0
M  V30 3516 C 338.769 -1.95378 0.179364 0
M  V30 3517 O 337.894 -2.04124 -0.718509 0
M  V30 3518 C 338.489 -2.14677 2.62105 0
M  V30 3519 C 337.048 -2.68236 2.64057 0
M  V30 3520 C 336.195 -1.43816 2.37091 0
M  V30 3521 H 339.146 -0.38686 1.53913 0
M  V30 3522 H 339.167 -2.97878 2.36746 0
M  V30 3523 H 338.679 -1.5834 3.5433 0
M  V30 3524 H 336.78 -3.28486 1.75864 0
M  V30 3525 H 336.893 -3.12021 3.63566 0
M  V30 3526 H 335.257 -1.731 1.86838 0
M  V30 3527 H 336.04 -0.893333 3.31473 0
M  V30 3528 N 338.485 -1.33259 -0.841409 0
M  V30 3529 C 339.762 -1.15174 -1.58096 0
M  V30 3530 C 340.142 0.282858 -2.09196 0
M  V30 3531 O 339.49 1.28151 -1.89181 0
M  V30 3532 C 339.7 -2.1907 -2.71679 0
M  V30 3533 C 341.048 -2.53093 -3.40924 0
M  V30 3534 O 342.072 -2.17717 -2.81918 0
M  V30 3535 O 340.931 -3.1379 -4.47435 0
M  V30 3536 H 338.025 -0.445303 -0.696875 0
M  V30 3537 H 340.571 -1.44833 -0.884385 0
M  V30 3538 H 339.343 -3.15443 -2.31541 0
M  V30 3539 H 338.966 -1.90481 -3.49002 0
M  V30 3540 N 339.963 1.05934 -1.16686 0
M  V30 3541 C 341.21 1.788 -0.950622 0
M  V30 3542 C 341.538 1.87384 0.521305 0
M  V30 3543 O 340.793 1.36438 1.40297 0
M  V30 3544 C 341.092 3.23105 -1.52767 0
M  V30 3545 C 340.758 3.34594 -3.02254 0
M  V30 3546 C 339.42 3.37437 -3.43059 0
M  V30 3547 C 341.772 3.36219 -3.98254 0
M  V30 3548 C 339.1 3.39525 -4.78477 0
M  V30 3549 C 341.452 3.39845 -5.33562 0
M  V30 3550 C 340.116 3.40971 -5.73842 0
M  V30 3551 H 339.386 0.654275 -0.347857 0
M  V30 3552 H 342.033 1.24555 -1.45459 0
M  V30 3553 H 340.338 3.80227 -0.94524 0
M  V30 3554 H 342.035 3.7809 -1.336 0
M  V30 3555 H 338.625 3.3309 -2.6972 0
M  V30 3556 H 342.809 3.33231 -3.67792 0
M  V30 3557 H 338.065 3.38703 -5.09009 0
M  V30 3558 H 342.239 3.4005 -6.07733 0
M  V30 3559 H 339.866 3.42342 -6.78753 0
M  V30 3560 N 341.441 0.965919 1.2453 0
M  V30 3561 C 342.669 0.644385 1.96609 0
M  V30 3562 C 343.084 -0.785823 1.71669 0
M  V30 3563 O 342.441 -1.52703 0.999399 0
M  V30 3564 C 342.492 0.907375 3.49927 0
M  V30 3565 O 342.213 2.28136 3.74013 0
M  V30 3566 C 343.714 0.599784 4.39224 0
M  V30 3567 H 340.934 0.240588 0.626385 0
M  V30 3568 H 343.478 1.29337 1.58405 0
M  V30 3569 H 341.633 0.304631 3.862 0
M  V30 3570 H 342.047 2.36002 4.68405 0
M  V30 3571 H 343.521 0.834263 5.45659 0
M  V30 3572 H 343.998 -0.465921 4.36722 0
M  V30 3573 H 344.604 1.18235 4.08535 0
M  V30 3574 N 342.919 -1.39368 0.735821 0
M  V30 3575 C 343.867 -2.32443 0.0855131 0
M  V30 3576 C 344.861 -1.53104 -0.724954 0
M  V30 3577 O 346.067 -1.68762 -0.626047 0
M  V30 3578 H 342.442 -0.751948 0.00885257 0
M  V30 3579 H 344.413 -2.84916 0.886883 0
M  V30 3580 C 343.162 -3.38206 -0.806983 0
M  V30 3581 H 342.485 -3.99335 -0.19274 0
M  V30 3582 H 343.925 -4.05779 -1.2296 0
M  V30 3583 C 342.384 -2.75321 -1.94165 0
M  V30 3584 O 342.914 -2.63231 -3.03435 0
M  V30 3585 N 341.12 -2.33396 -1.73132 0
M  V30 3586 H 340.667 -2.4343 -0.842596 0
M  V30 3587 H 340.625 -1.91661 -2.49225 0
M  V30 3588 N 344.397 -0.483516 -1.5 0
M  V30 3589 C 345.307 0.309172 -2.32554 0
M  V30 3590 C 346.323 0.984159 -1.43493 0
M  V30 3591 O 347.499 0.969399 -1.76535 0
M  V30 3592 C 344.564 1.36979 -3.18493 0
M  V30 3593 C 343.625 0.710095 -4.23387 0
M  V30 3594 C 342.858 1.72018 -5.05218 0
M  V30 3595 O 343.081 2.94813 -4.88305 0
M  V30 3596 O 342.015 1.28515 -5.8802 0
M  V30 3597 H 345.841 -0.366064 -3.01486 0
M  V30 3598 H 343.426 -0.24514 -1.47375 0
M  V30 3599 H 345.308 1.98385 -3.71781 0
M  V30 3600 H 343.983 2.02828 -2.52275 0
M  V30 3601 H 342.89 0.0567539 -3.74057 0
M  V30 3602 H 344.223 0.0943557 -4.9211 0
M  V30 3603 N 345.875 1.56104 -0.216619 0
M  V30 3604 C 346.823 2.21434 0.712036 0
M  V30 3605 C 347.817 1.19218 1.20348 0
M  V30 3606 O 349.023 1.3731 1.16387 0
M  V30 3607 H 345.398 0.70992 0.248026 0
M  V30 3608 H 347.369 2.98083 0.137558 0
M  V30 3609 C 346.118 2.90434 1.91163 0
M  V30 3610 H 345.441 3.68842 1.54258 0
M  V30 3611 H 346.881 3.39552 2.5393 0
M  V30 3612 C 345.34 1.92635 2.76394 0
M  V30 3613 O 345.87 1.44017 3.74996 0
M  V30 3614 N 344.076 1.60392 2.42328 0
M  V30 3615 H 343.623 2.00122 1.622 0
M  V30 3616 H 343.581 0.952159 2.99635 0
M  V30 3617 N 347.353 -0.0568162 1.57498 0
M  V30 3618 C 348.764 -0.606858 1.76562 0
M  V30 3619 C 349.115 -1.77114 0.844094 0
M  V30 3620 O 348.24 -2.16376 0.0318911 0
M  V30 3621 C 348.835 -1.10766 3.20182 0
M  V30 3622 C 347.394 -1.60344 3.40539 0
M  V30 3623 C 346.541 -0.529311 2.72201 0
M  V30 3624 H 349.492 0.169393 1.57793 0
M  V30 3625 H 349.513 -1.97602 3.25167 0
M  V30 3626 H 349.025 -0.26006 3.87228 0
M  V30 3627 H 347.126 -2.47379 2.78629 0
M  V30 3628 H 347.239 -1.67006 4.4905 0
M  V30 3629 H 345.603 -0.977893 2.35179 0
M  V30 3630 H 346.386 0.308352 3.41912 0
M  V30 3631 N 348.832 -1.54138 -0.328536 0
M  V30 3632 C 349.762 -1.86167 -1.40939 0
M  V30 3633 C 350.743 -0.718044 -1.54202 0
M  V30 3634 O 351.928 -0.971328 -1.68163 0
M  V30 3635 C 349.058 -2.08461 -2.77779 0
M  V30 3636 C 348.012 -3.24299 -2.7931 0
M  V30 3637 C 347.338 -3.31955 -4.19178 0
M  V30 3638 C 348.638 -4.62065 -2.43502 0
M  V30 3639 H 350.332 -2.76689 -1.14383 0
M  V30 3640 H 347.878 -1.33132 -0.548806 0
M  V30 3641 H 349.831 -2.29453 -3.53454 0
M  V30 3642 H 348.555 -1.14684 -3.05802 0
M  V30 3643 H 347.214 -3.03187 -2.0609 0
M  V30 3644 H 346.862 -2.35745 -4.44335 0
M  V30 3645 H 346.562 -4.09805 -4.2111 0
M  V30 3646 H 348.086 -3.55175 -4.96672 0
M  V30 3647 H 349.5 -4.8297 -3.08889 0
M  V30 3648 H 347.897 -5.42429 -2.56693 0
M  V30 3649 H 348.967 -4.64652 -1.38659 0
M  V30 3650 N 350.31 0.590341 -1.46126 0
M  V30 3651 C 351.22 1.72793 -1.58681 0
M  V30 3652 C 352.236 1.67516 -0.470566 0
M  V30 3653 O 353.412 1.87562 -0.733642 0
M  V30 3654 C 350.477 3.09287 -1.5666 0
M  V30 3655 C 349.538 3.25886 -2.79458 0
M  V30 3656 C 348.771 4.55869 -2.77524 0
M  V30 3657 O 348.994 5.3928 -1.85832 0
M  V30 3658 O 347.928 4.75552 -3.68964 0
M  V30 3659 H 351.754 1.65149 -2.54872 0
M  V30 3660 H 349.339 0.756486 -1.28832 0
M  V30 3661 H 351.221 3.90577 -1.58202 0
M  V30 3662 H 349.896 3.17385 -0.636271 0
M  V30 3663 H 348.803 2.44119 -2.83472 0
M  V30 3664 H 350.136 3.22675 -3.71674 0
M  V30 3665 N 351.788 1.33704 0.83433 0
M  V30 3666 C 353.016 1.28467 1.62185 0
M  V30 3667 C 353.431 -0.143526 1.88254 0
M  V30 3668 O 352.788 -1.08709 1.4659 0
M  V30 3669 C 352.839 2.06174 2.96942 0
M  V30 3670 O 352.56 3.43422 2.72016 0
M  V30 3671 C 354.061 2.08201 3.91366 0
M  V30 3672 H 351.281 0.4424 0.504503 0
M  V30 3673 H 353.825 1.76145 1.03891 0
M  V30 3674 H 351.98 1.62167 3.51825 0
M  V30 3675 H 352.394 3.83453 3.57861 0
M  V30 3676 H 353.868 2.67017 4.83121 0
M  V30 3677 H 354.345 1.07343 4.2588 0
M  V30 3678 H 354.951 2.52246 3.42421 0
M  V30 3679 N 353.266 -1.05314 1.17247 0
M  V30 3680 C 354.682 -1.30452 0.919473 0
M  V30 3681 C 354.882 -1.9703 -0.42209 0
M  V30 3682 O 353.938 -2.24311 -1.15935 0
M  V30 3683 C 355.251 -2.17551 2.07586 0
M  V30 3684 C 356.799 -2.30937 2.11275 0
M  V30 3685 C 357.274 -3.21396 3.26296 0
M  V30 3686 N 358.765 -3.28981 3.26076 0
M  V30 3687 C 359.5 -3.99095 4.11716 0
M  V30 3688 N 358.996 -4.71648 5.07465 0
M  V30 3689 N 360.789 -3.95247 3.9967 0
M  V30 3690 H 352.94 -0.604988 2.03602 0
M  V30 3691 H 355.203 -0.329368 0.888944 0
M  V30 3692 H 354.909 -1.75921 3.0454 0
M  V30 3693 H 354.783 -3.18182 2.02584 0
M  V30 3694 H 357.17 -2.71809 1.14907 0
M  V30 3695 H 357.251 -1.2994 2.20339 0
M  V30 3696 H 356.895 -2.81238 4.22927 0
M  V30 3697 H 356.825 -4.22395 3.14467 0
M  V30 3698 H 359.316 -2.77286 2.5675 0
M  V30 3699 H 359.629 -5.22705 5.6921 0
M  V30 3700 H 357.974 -4.70594 5.11435 0
M  V30 3701 H 361.165 -3.37691 3.24164 0
M  V30 3702 H 361.338 -4.4962 4.66632 0
M  V30 3703 N 354.744 -0.972509 -1.24016 0
M  V30 3704 C 355.692 -0.498562 -2.27194 0
M  V30 3705 C 356.686 0.440372 -1.63576 0
M  V30 3706 O 357.892 0.315133 -1.7722 0
M  V30 3707 H 354.267 -0.142775 -0.738322 0
M  V30 3708 H 356.238 -1.38065 -2.64539 0
M  V30 3709 C 354.987 0.191072 -3.47175 0
M  V30 3710 H 354.31 -0.522318 -3.96373 0
M  V30 3711 H 355.75 0.486445 -4.212 0
M  V30 3712 C 354.209 1.41967 -3.05527 0
M  V30 3713 O 354.739 2.51642 -3.13112 0
M  V30 3714 N 352.945 1.28746 -2.60524 0
M  V30 3715 H 352.492 0.395089 -2.54552 0
M  V30 3716 H 352.45 2.11061 -2.33025 0
M  V30 3717 N 356.222 1.38976 -0.743202 0
M  V30 3718 C 357.471 1.99581 -0.291592 0
M  V30 3719 C 357.784 1.59656 1.13001 0
M  V30 3720 O 358.99 2.13157 1.68156 0
M  V30 3721 C 357.446 3.56813 -0.470391 0
M  V30 3722 C 357.054 4.05695 -1.90041 0
M  V30 3723 C 358.798 4.24423 -0.0809709 0
M  V30 3724 C 356.705 5.5553 -2.02832 0
M  V30 3725 H 355.635 0.746615 -0.105272 0
M  V30 3726 H 358.286 1.58872 -0.918258 0
M  V30 3727 H 356.668 3.95359 0.225299 0
M  V30 3728 H 357.842 3.78464 -2.62872 0
M  V30 3729 H 356.157 3.50775 -2.24379 0
M  V30 3730 H 358.754 5.34474 -0.155445 0
M  V30 3731 H 359.097 4.04962 0.96497 0
M  V30 3732 H 359.63 3.9108 -0.728124 0
M  V30 3733 H 356.369 5.79881 -3.05643 0
M  V30 3734 H 355.889 5.84537 -1.34448 0
M  V30 3735 H 357.568 6.21069 -1.81335 0
M  V30 3736 N 357.7 0.491464 1.49741 0
M  V30 3737 C 358.663 -0.280906 2.27472 0
M  V30 3738 C 359.663 -0.902454 1.33088 0
M  V30 3739 O 360.853 -0.768465 1.56334 0
M  V30 3740 C 357.985 -1.40209 3.10732 0
M  V30 3741 H 359.178 0.401056 2.97206 0
M  V30 3742 H 356.731 0.246131 1.5435 0
M  V30 3743 H 357.466 -2.11849 2.45541 0
M  V30 3744 H 357.251 -0.961969 3.80117 0
M  V30 3745 H 358.741 -1.9464 3.69466 0
M  V30 3746 N 359.178 -1.55987 0.224894 0
M  V30 3747 C 360.425 -1.9839 -0.4059 0
M  V30 3748 C 360.753 -1.11261 -1.59535 0
M  V30 3749 O 360.008 -0.158314 -1.95059 0
M  V30 3750 C 360.307 -3.46394 -0.880106 0
M  V30 3751 C 359.973 -4.5046 0.19918 0
M  V30 3752 C 358.635 -4.7864 0.495661 0
M  V30 3753 C 360.987 -5.12855 0.928939 0
M  V30 3754 C 358.315 -5.66497 1.52636 0
M  V30 3755 C 360.667 -6.01828 1.949 0
M  V30 3756 C 359.331 -6.28351 2.25236 0
M  V30 3757 H 358.601 -0.725961 -0.148529 0
M  V30 3758 H 361.248 -1.88668 0.328113 0
M  V30 3759 H 359.553 -3.53337 -1.69294 0
M  V30 3760 H 361.25 -3.76577 -1.37808 0
M  V30 3761 H 357.84 -4.28579 -0.0420526 0
M  V30 3762 H 362.024 -4.9115 0.713129 0
M  V30 3763 H 357.28 -5.8531 1.76698 0
M  V30 3764 H 361.454 -6.49225 2.51951 0
M  V30 3765 H 359.081 -6.96226 3.05244 0
M  V30 3766 N 360.656 0.0484629 -1.57525 0
M  V30 3767 C 361.903 0.743125 -1.88372 0
M  V30 3768 C 362.231 1.76383 -0.819715 0
M  V30 3769 O 361.486 1.94855 0.181659 0
M  V30 3770 C 361.785 1.46632 -3.25935 0
M  V30 3771 C 361.451 0.583427 -4.4711 0
M  V30 3772 C 360.113 0.340191 -4.79996 0
M  V30 3773 C 362.465 -0.0273345 -5.21193 0
M  V30 3774 C 359.793 -0.522903 -5.84365 0
M  V30 3775 C 362.145 -0.878017 -6.26477 0
M  V30 3776 C 360.809 -1.1309 -6.5785 0
M  V30 3777 H 360.079 0.271929 -0.689301 0
M  V30 3778 H 362.726 0.00336166 -1.915 0
M  V30 3779 H 361.031 2.2789 -3.18706 0
M  V30 3780 H 362.728 2.00902 -3.47044 0
M  V30 3781 H 359.318 0.783151 -4.21384 0
M  V30 3782 H 363.502 0.147654 -4.9608 0
M  V30 3783 H 358.758 -0.727335 -6.07058 0
M  V30 3784 H 362.932 -1.35789 -6.83033 0
M  V30 3785 H 360.559 -1.80144 -7.38547 0
M  V30 3786 N 362.134 1.5431 0.320358 0
M  V30 3787 C 363.359 1.76954 1.08175 0
M  V30 3788 C 363.784 0.518193 1.80821 0
M  V30 3789 O 363.142 -0.530411 1.73368 0
M  V30 3790 C 363.19 2.96451 2.05303 0
M  V30 3791 O 362.294 2.68221 3.13259 0
M  V30 3792 H 361.635 0.586275 0.311733 0
M  V30 3793 H 364.165 2.01342 0.363676 0
M  V30 3794 H 364.175 3.23887 2.48116 0
M  V30 3795 H 362.85 3.87196 1.51829 0
M  V30 3796 H 361.427 2.51744 2.75099 0
M  V30 3797 N 363.613 -0.582584 1.46437 0
M  V30 3798 C 364.841 -1.36682 1.55324 0
M  V30 3799 C 365.256 -1.87796 0.194409 0
M  V30 3800 O 364.613 -1.63623 -0.808318 0
M  V30 3801 C 364.664 -2.55426 2.55812 0
M  V30 3802 O 364.385 -2.0643 3.86417 0
M  V30 3803 C 365.886 -3.47976 2.74641 0
M  V30 3804 H 363.106 -0.417545 0.525259 0
M  V30 3805 H 365.65 -0.708219 1.91845 0
M  V30 3806 H 363.805 -3.17275 2.22295 0
M  V30 3807 H 364.219 -2.83762 4.41111 0
M  V30 3808 H 365.693 -4.27775 3.48874 0
M  V30 3809 H 366.17 -3.99919 1.81553 0
M  V30 3810 H 366.776 -2.91962 3.09255 0
M  V30 3811 N 365.091 -1.34144 -0.827227 0
M  V30 3812 C 366.039 -1.25364 -1.95925 0
M  V30 3813 C 367.033 -0.152608 -1.68711 0
M  V30 3814 O 368.239 -0.317311 -1.77181 0
M  V30 3815 H 364.614 -0.389342 -0.643364 0
M  V30 3816 H 366.585 -2.21045 -2.00454 0
M  V30 3817 C 365.334 -1.02158 -3.32354 0
M  V30 3818 H 364.657 -1.86111 -3.5384 0
M  V30 3819 H 366.097 -1.00048 -4.12027 0
M  V30 3820 C 364.556 0.275244 -3.35774 0
M  V30 3821 O 365.086 1.27806 -3.80826 0
M  V30 3822 N 363.292 0.306853 -2.88975 0
M  V30 3823 H 362.839 -0.509777 -2.52506 0
M  V30 3824 H 362.797 1.17432 -2.91646 0
M  V30 3825 N 366.569 1.04691 -1.17803 0
M  V30 3826 C 367.809 1.79352 -0.980423 0
M  V30 3827 C 368.173 1.85853 0.481958 0
M  V30 3828 O 369.374 2.56656 0.798809 0
M  V30 3829 C 367.645 3.19088 -1.6099 0
M  V30 3830 S 369.204 4.10164 -1.55918 0
M  V30 3831 H 366.022 0.617631 -0.352211 0
M  V30 3832 H 368.624 1.25575 -1.49837 0
M  V30 3833 H 367.328 3.11962 -2.66661 0
M  V30 3834 H 366.859 3.77941 -1.09197 0
M  V30 3835 H 368.874 4.92907 -0.570685 0
M  V30 3836 N 368.047 0.979072 1.23499 0
M  V30 3837 C 369.293 0.648178 1.92163 0
M  V30 3838 C 369.626 -0.816049 1.76222 0
M  V30 3839 O 368.901 -1.58849 1.12237 0
M  V30 3840 C 369.184 1.03773 3.44824 0
M  V30 3841 C 369.037 2.55948 3.69879 0
M  V30 3842 C 370.356 0.580653 4.36253 0
M  V30 3843 H 367.475 0.236952 0.69787 0
M  V30 3844 H 370.117 1.22012 1.45647 0
M  V30 3845 H 368.267 0.551058 3.84572 0
M  V30 3846 H 369.939 3.12179 3.3962 0
M  V30 3847 H 368.182 2.98641 3.14636 0
M  V30 3848 H 368.853 2.78255 4.76737 0
M  V30 3849 H 371.329 0.998465 4.03943 0
M  V30 3850 H 370.205 0.881663 5.41773 0
M  V30 3851 H 370.466 -0.519052 4.39042 0
M  V30 3852 N 369.525 -1.3858 0.750561 0
M  V30 3853 C 370.435 -2.34278 0.122825 0
M  V30 3854 C 371.451 -1.59116 -0.704131 0
M  V30 3855 O 372.627 -1.91326 -0.628987 0
M  V30 3856 C 369.692 -3.38221 -0.762086 0
M  V30 3857 C 368.753 -4.29227 0.078896 0
M  V30 3858 C 367.986 -5.28205 -0.763874 0
M  V30 3859 O 368.209 -5.34112 -2.00201 0
M  V30 3860 O 367.143 -6.01618 -0.18428 0
M  V30 3861 H 370.969 -2.89649 0.913088 0
M  V30 3862 H 368.554 -1.40374 0.511417 0
M  V30 3863 H 370.436 -4.01872 -1.26793 0
M  V30 3864 H 369.111 -2.85211 -1.5309 0
M  V30 3865 H 368.018 -3.68747 0.630621 0
M  V30 3866 H 369.351 -4.85484 0.810289 0
M  V30 3867 N 371.003 -0.499398 -1.49478 0
M  V30 3868 C 372.251 0.0455996 -2.02049 0
M  V30 3869 C 372.572 1.37633 -1.38138 0
M  V30 3870 O 371.842 1.8842 -0.536166 0
M  V30 3871 H 370.422 0.0198416 -0.746736 0
M  V30 3872 H 373.084 -0.656274 -1.83519 0
M  V30 3873 H 372.18 0.176445 -3.11601 0
M  V30 3874 N 372.481 1.55866 -0.233164 0
M  V30 3875 C 373.709 2.02998 0.399905 0
M  V30 3876 C 374.124 1.11274 1.52524 0
M  V30 3877 O 373.481 0.124528 1.82075 0
M  V30 3878 C 373.532 3.4958 0.920639 0
M  V30 3879 O 373.253 4.37808 -0.159834 0
M  V30 3880 C 374.754 4.12411 1.62578 0
M  V30 3881 H 371.974 0.664006 0.0966281 0
M  V30 3882 H 374.518 2.0143 -0.353013 0
M  V30 3883 H 372.673 3.51727 1.62379 0
M  V30 3884 H 373.087 5.23981 0.23337 0
M  V30 3885 H 374.561 5.16711 1.94201 0
M  V30 3886 H 375.038 3.5809 2.54299 0
M  V30 3887 H 375.644 4.14148 0.967553 0
M  V30 3888 N 373.959 -0.0401083 1.57549 0
M  V30 3889 C 374.922 -1.02871 2.04817 0
M  V30 3890 C 375.922 -1.29708 0.950388 0
M  V30 3891 O 377.112 -1.24897 1.21435 0
M  V30 3892 C 374.244 -2.36443 2.45576 0
M  V30 3893 H 375.437 -0.620631 2.93408 0
M  V30 3894 H 372.99 -0.286667 1.53649 0
M  V30 3895 H 373.725 -2.82021 1.60108 0
M  V30 3896 H 373.51 -2.18296 3.25713 0
M  V30 3897 H 375 -3.07441 2.82612 0
M  V30 3898 N 375.437 -1.54477 -0.31217 0
M  V30 3899 C 376.853 -1.45442 -0.657185 0
M  V30 3900 C 377.053 -0.63653 -1.91182 0
M  V30 3901 O 376.109 -0.139815 -2.52113 0
M  V30 3902 C 377.422 -2.89287 -0.82058 0
M  V30 3903 C 378.97 -2.9926 -0.917188 0
M  V30 3904 C 379.445 -4.44279 -1.11267 0
M  V30 3905 N 380.936 -4.4794 -1.17914 0
M  V30 3906 C 381.671 -5.57318 -1.34848 0
M  V30 3907 N 381.167 -6.76642 -1.48752 0
M  V30 3908 N 382.96 -5.44986 -1.37647 0
M  V30 3909 H 375.111 -2.06129 0.512313 0
M  V30 3910 H 377.374 -0.933088 0.167485 0
M  V30 3911 H 377.08 -3.51687 0.0302604 0
M  V30 3912 H 376.954 -3.36061 -1.71298 0
M  V30 3913 H 379.341 -2.36981 -1.75852 0
M  V30 3914 H 379.422 -2.558 -0.00101257 0
M  V30 3915 H 379.066 -5.07149 -0.27614 0
M  V30 3916 H 378.996 -4.85359 -2.04289 0
M  V30 3917 H 381.487 -3.61969 -1.08567 0
M  V30 3918 H 381.8 -7.55758 -1.61397 0
M  V30 3919 H 380.145 -6.79529 -1.45828 0
M  V30 3920 H 383.336 -4.50715 -1.26388 0
M  V30 3921 H 383.509 -6.3028 -1.50501 0
M  V30 3922 N 376.915 0.57481 -1.46744 0
M  V30 3923 C 378.163 1.33009 -1.52161 0
M  V30 3924 C 378.484 1.94185 -0.178092 0
M  V30 3925 O 377.754 1.7899 0.796196 0
M  V30 3926 H 376.334 0.493873 -0.560445 0
M  V30 3927 H 378.996 0.672589 -1.82927 0
M  V30 3928 H 378.092 2.13273 -2.27862 0
M  V30 3929 N 378.394 1.34581 0.820102 0
M  V30 3930 C 379.643 1.26437 1.57151 0
M  V30 3931 C 379.956 -0.163111 1.94919 0
M  V30 3932 O 381.162 -0.366722 2.69012 0
M  V30 3933 C 379.618 2.21658 2.83541 0
M  V30 3934 C 379.226 3.69679 2.53065 0
M  V30 3935 C 380.97 2.22428 3.61561 0
M  V30 3936 C 378.877 4.56761 3.75664 0
M  V30 3937 H 377.807 0.469707 0.589823 0
M  V30 3938 H 380.458 1.59763 0.902656 0
M  V30 3939 H 378.84 1.81287 3.52067 0
M  V30 3940 H 380.014 4.18605 1.92631 0
M  V30 3941 H 378.329 3.71384 1.88316 0
M  V30 3942 H 380.926 2.8471 4.52597 0
M  V30 3943 H 381.269 1.22434 3.97889 0
M  V30 3944 H 381.802 2.61259 2.99981 0
M  V30 3945 H 378.541 5.57702 3.44454 0
M  V30 3946 H 378.061 4.12568 4.35371 0
M  V30 3947 H 379.74 4.71509 4.43044 0
M  V30 3948 N 379.872 -1.04064 1.18357 0
M  V30 3949 C 381.118 -1.77528 0.980397 0
M  V30 3950 C 381.451 -1.87948 -0.48879 0
M  V30 3951 O 380.726 -1.3876 -1.36293 0
M  V30 3952 C 381.009 -3.20797 1.63588 0
M  V30 3953 C 380.862 -3.1832 3.17793 0
M  V30 3954 C 382.181 -4.18911 1.34914 0
M  V30 3955 H 379.3 -0.644443 0.357578 0
M  V30 3956 H 381.942 -1.2156 1.46024 0
M  V30 3957 H 380.092 -3.68586 1.22788 0
M  V30 3958 H 381.764 -2.78521 3.67728 0
M  V30 3959 H 380.007 -2.56351 3.49952 0
M  V30 3960 H 380.678 -4.19489 3.58794 0
M  V30 3961 H 383.154 -3.7967 1.70265 0
M  V30 3962 H 382.03 -5.17374 1.83346 0
M  V30 3963 H 382.291 -4.41262 0.272027 0
M  V30 3964 N 381.35 -0.985608 -1.22978 0
M  V30 3965 C 382.596 -0.65836 -1.91816 0
M  V30 3966 C 382.929 0.806692 -1.76653 0
M  V30 3967 O 382.204 1.58252 -1.13078 0
M  V30 3968 C 382.487 -1.056 -3.44268 0
M  V30 3969 C 382.34 -2.57906 -3.68516 0
M  V30 3970 C 383.659 -0.603781 -4.35939 0
M  V30 3971 H 380.778 -0.24065 -0.696604 0
M  V30 3972 H 383.42 -1.22783 -1.44998 0
M  V30 3973 H 381.57 -0.571445 -3.84274 0
M  V30 3974 H 383.242 -3.13976 -3.3796 0
M  V30 3975 H 381.485 -3.00305 -3.13048 0
M  V30 3976 H 382.156 -2.80779 -4.75255 0
M  V30 3977 H 384.632 -1.01987 -4.03408 0
M  V30 3978 H 383.508 -0.910383 -5.41298 0
M  V30 3979 H 383.769 0.495761 -4.39312 0
M  V30 3980 N 382.828 1.3818 -0.7579 0
M  V30 3981 C 384.058 2.04004 -0.326463 0
M  V30 3982 C 384.466 1.57286 1.05156 0
M  V30 3983 O 383.809 0.743144 1.67997 0
M  V30 3984 C 383.871 3.58444 -0.275402 0
M  V30 3985 C 383.535 4.28237 -1.59569 0
M  V30 3986 C 384.532 4.53312 -2.54566 0
M  V30 3987 C 382.217 4.66341 -1.86631 0
M  V30 3988 C 384.211 5.15531 -3.74842 0
M  V30 3989 C 381.898 5.28283 -3.0718 0
M  V30 3990 C 382.896 5.52814 -4.01106 0
M  V30 3991 O 382.584 6.13465 -5.19534 0
M  V30 3992 H 382.316 0.662026 -0.136739 0
M  V30 3993 H 384.87 1.7777 -1.02893 0
M  V30 3994 H 383.1 3.83667 0.483337 0
M  V30 3995 H 384.789 4.05701 0.127099 0
M  V30 3996 H 385.555 4.24299 -2.34936 0
M  V30 3997 H 381.434 4.46591 -1.14358 0
M  V30 3998 H 384.978 5.34594 -4.48168 0
M  V30 3999 H 380.875 5.56719 -3.26702 0
M  V30 4000 H 381.643 6.31951 -5.20173 0
M  V30 4001 N 384.306 0.507319 1.49211 0
M  V30 4002 C 385.534 -0.0315749 2.06876 0
M  V30 4003 C 385.949 -1.30241 1.36685 0
M  V30 4004 O 385.306 -1.76937 0.447152 0
M  V30 4005 C 385.357 -0.282627 3.60393 0
M  V30 4006 O 385.078 0.937835 4.27944 0
M  V30 4007 C 386.579 -0.864453 4.3479 0
M  V30 4008 H 383.799 0.0233048 0.670595 0
M  V30 4009 H 386.343 0.706484 1.91909 0
M  V30 4010 H 384.498 -0.97068 3.75042 0
M  V30 4011 H 384.912 0.704567 5.19746 0
M  V30 4012 H 386.386 -0.989664 5.43056 0
M  V30 4013 H 386.863 -1.86382 3.97692 0
M  V30 4014 H 387.469 -0.213672 4.24763 0
M  V30 4015 N 385.784 -1.5574 0.241426 0
M  V30 4016 C 387.032 -1.98417 -0.384075 0
M  V30 4017 C 387.353 -1.13078 -1.58866 0
M  V30 4018 O 386.623 -0.212312 -1.94746 0
M  V30 4019 H 385.203 -0.732813 -0.144894 0
M  V30 4020 H 387.865 -1.9193 0.338943 0
M  V30 4021 H 386.961 -3.04219 -0.696939 0
M  V30 4022 N 387.262 0.0317525 -1.57568 0
M  V30 4023 C 388.539 0.758366 -1.803 0
M  V30 4024 C 388.919 1.93718 -0.838845 0
M  V30 4025 O 388.267 2.28187 0.119571 0
M  V30 4026 C 388.477 1.19392 -3.27943 0
M  V30 4027 C 389.825 1.61094 -3.92854 0
M  V30 4028 O 390.849 1.28857 -3.32076 0
M  V30 4029 O 389.708 2.20918 -4.99858 0
M  V30 4030 H 386.802 0.366514 -0.741348 0
M  V30 4031 H 389.348 0.00873765 -1.69698 0
M  V30 4032 H 388.12 0.352275 -3.89711 0
M  V30 4033 H 387.743 2.00365 -3.43424 0
M  V30 4034 N 388.74 1.54641 0.303973 0
M  V30 4035 C 390.156 1.45788 0.649463 0
M  V30 4036 C 390.356 0.64666 1.90842 0
M  V30 4037 O 389.412 0.153183 2.52035 0
M  V30 4038 C 390.725 2.89718 0.805227 0
M  V30 4039 C 392.273 2.99742 0.901305 0
M  V30 4040 C 392.748 4.44863 1.08909 0
M  V30 4041 N 394.239 4.48559 1.15536 0
M  V30 4042 C 394.974 5.58026 1.3189 0
M  V30 4043 N 394.47 6.77422 1.45161 0
M  V30 4044 N 396.263 5.45708 1.34755 0
M  V30 4045 H 388.414 2.05854 -0.523237 0
M  V30 4046 H 390.677 0.932186 -0.172431 0
M  V30 4047 H 390.383 3.51666 -0.0489108 0
M  V30 4048 H 390.257 3.36964 1.69513 0
M  V30 4049 H 392.644 2.3791 1.74593 0
M  V30 4050 H 392.725 2.55797 -0.0125531 0
M  V30 4051 H 392.369 5.07288 0.249241 0
M  V30 4052 H 392.299 4.86436 2.01713 0
M  V30 4053 H 394.79 3.6254 1.06646 0
M  V30 4054 H 395.103 7.56604 1.57387 0
M  V30 4055 H 393.448 6.80292 1.42223 0
M  V30 4056 H 396.639 4.51378 1.23996 0
M  V30 4057 H 396.812 6.3107 1.47157 0
M  V30 4058 N 390.218 -0.567019 1.47046 0
M  V30 4059 C 391.446 -1.35027 1.56765 0
M  V30 4060 C 391.861 -1.8758 0.214316 0
M  V30 4061 O 391.218 -1.64471 -0.790919 0
M  V30 4062 C 391.269 -2.52698 2.58507 0
M  V30 4063 O 390.99 -2.0232 3.88585 0
M  V30 4064 C 392.491 -3.45043 2.78316 0
M  V30 4065 H 389.711 -0.41195 0.529658 0
M  V30 4066 H 392.255 -0.687832 1.92585 0
M  V30 4067 H 390.41 -3.149 2.25648 0
M  V30 4068 H 390.824 -2.79068 4.44096 0
M  V30 4069 H 392.298 -4.2405 3.53391 0
M  V30 4070 H 392.775 -3.97971 1.85784 0
M  V30 4071 H 393.381 -2.88665 3.12334 0
M  V30 4072 N 391.696 -1.35014 -0.812953 0
M  V30 4073 C 392.942 -1.2812 -1.57204 0
M  V30 4074 C 393.275 0.145869 -1.93651 0
M  V30 4075 O 392.55 1.0937 -1.60836 0
M  V30 4076 C 392.833 -2.18162 -2.86492 0
M  V30 4077 C 392.686 -3.69454 -2.56561 0
M  V30 4078 C 394.005 -2.07439 -3.88145 0
M  V30 4079 H 391.124 -0.466746 -0.570366 0
M  V30 4080 H 393.766 -1.65357 -0.935783 0
M  V30 4081 H 391.916 -1.86535 -3.40789 0
M  V30 4082 H 393.588 -4.11493 -2.08497 0
M  V30 4083 H 391.831 -3.9005 -1.89851 0
M  V30 4084 H 392.502 -4.27835 -3.48799 0
M  V30 4085 H 394.978 -2.35228 -3.4323 0
M  V30 4086 H 393.854 -2.7265 -4.76396 0
M  V30 4087 H 394.115 -1.05439 -4.29343 0
M  V30 4088 N 393.175 1.03435 -1.18907 0
M  V30 4089 C 394.108 2.11162 -0.86521 0
M  V30 4090 C 395.086 1.6165 0.175473 0
M  V30 4091 O 396.27 1.88425 0.0530129 0
M  V30 4092 C 393.397 3.37423 -0.293868 0
M  V30 4093 C 392.443 4.05795 -1.31274 0
M  V30 4094 S 393.276 4.52027 -2.8711 0
M  V30 4095 C 394.432 5.81513 -2.31504 0
M  V30 4096 H 394.665 2.38308 -1.77754 0
M  V30 4097 H 392.198 1.16295 -1.01562 0
M  V30 4098 H 394.156 4.1049 0.0292572 0
M  V30 4099 H 392.817 3.0838 0.596682 0
M  V30 4100 H 392.01 4.96574 -0.86198 0
M  V30 4101 H 391.612 3.38874 -1.58242 0
M  V30 4102 H 393.904 6.55784 -1.70157 0
M  V30 4103 H 394.847 6.3136 -3.20608 0
M  V30 4104 H 395.255 5.36921 -1.74286 0
M  V30 4105 N 394.653 0.992116 1.22453 0
M  V30 4106 C 395.901 0.666215 1.90804 0
M  V30 4107 C 396.222 -0.804152 1.77647 0
M  V30 4108 O 395.492 -1.57629 1.16318 0
M  V30 4109 H 394.072 0.243423 0.706225 0
M  V30 4110 H 396.734 1.25845 1.48825 0
M  V30 4111 H 395.83 0.928069 2.97982 0
M  V30 4112 N 396.131 -1.37776 0.765217 0
M  V30 4113 C 397.547 -1.53297 0.444108 0
M  V30 4114 C 397.747 -1.72515 -1.04119 0
M  V30 4115 O 396.803 -1.74278 -1.82711 0
M  V30 4116 C 398.116 -2.73328 1.25349 0
M  V30 4117 C 399.664 -2.87185 1.24473 0
M  V30 4118 C 400.139 -4.10191 2.03733 0
M  V30 4119 N 401.63 -4.17291 2.01053 0
M  V30 4120 C 402.365 -5.11488 2.59166 0
M  V30 4121 N 401.861 -6.11285 3.26041 0
M  V30 4122 N 403.654 -5.03924 2.49032 0
M  V30 4123 H 395.805 -1.23552 1.72768 0
M  V30 4124 H 398.068 -0.601103 0.733062 0
M  V30 4125 H 397.774 -2.6557 2.30577 0
M  V30 4126 H 397.648 -3.66834 0.87823 0
M  V30 4127 H 400.035 -2.94418 0.20047 0
M  V30 4128 H 400.116 -1.94657 1.65959 0
M  V30 4129 H 399.76 -4.0372 3.08176 0
M  V30 4130 H 399.69 -5.01821 1.59633 0
M  V30 4131 H 402.181 -3.45825 1.5236 0
M  V30 4132 H 402.494 -6.79678 3.67774 0
M  V30 4133 H 400.839 -6.11583 3.30138 0
M  V30 4134 H 404.03 -4.24902 1.96407 0
M  V30 4135 H 404.203 -5.77152 2.94617 0
M  V30 4136 N 397.609 -0.515225 -1.4894 0
M  V30 4137 C 398.858 0.0261361 -2.01683 0
M  V30 4138 C 399.171 1.36719 -1.39883 0
M  V30 4139 O 400.377 1.99606 -1.84037 0
M  V30 4140 C 398.833 0.0970111 -3.59769 0
M  V30 4141 C 398.441 -1.23825 -4.30548 0
M  V30 4142 C 400.185 0.587981 -4.20408 0
M  V30 4143 C 398.092 -1.12877 -5.80528 0
M  V30 4144 H 397.022 0.0135398 -0.753878 0
M  V30 4145 H 399.673 -0.656787 -1.71343 0
M  V30 4146 H 398.055 0.844694 -3.86886 0
M  V30 4147 H 399.229 -2.00034 -4.15118 0
M  V30 4148 H 397.544 -1.66379 -3.81716 0
M  V30 4149 H 400.141 0.68763 -5.3026 0
M  V30 4150 H 400.484 1.59026 -3.84729 0
M  V30 4151 H 401.017 -0.103582 -3.97665 0
M  V30 4152 H 397.756 -2.10575 -6.20756 0
M  V30 4153 H 397.276 -0.407799 -5.98412 0
M  V30 4154 H 398.955 -0.813332 -6.41868 0
M  V30 4155 N 399.087 1.5561 -0.249682 0
M  V30 4156 C 400.05 2.20217 0.635394 0
M  V30 4157 C 401.05 1.17227 1.10066 0
M  V30 4158 O 402.24 1.42292 1.00492 0
M  V30 4159 C 399.372 2.84794 1.87363 0
M  V30 4160 H 400.565 2.99814 0.0716752 0
M  V30 4161 H 398.118 1.563 -0.000153234 0
M  V30 4162 H 398.853 2.09142 2.47851 0
M  V30 4163 H 398.638 3.60241 1.5482 0
M  V30 4164 H 400.128 3.3423 2.5036 0
M  V30 4165 N 400.565 -0.0233959 1.57583 0
M  V30 4166 C 401.793 -0.724682 1.93794 0
M  V30 4167 C 402.208 -1.68588 0.849912 0
M  V30 4168 O 401.565 -1.81676 -0.173204 0
M  V30 4169 C 401.616 -1.47684 3.29957 0
M  V30 4170 O 401.337 -0.554222 4.3458 0
M  V30 4171 C 402.838 -2.27477 3.80485 0
M  V30 4172 H 400.058 -0.203317 0.639455 0
M  V30 4173 H 402.602 0.0207653 2.04489 0
M  V30 4174 H 400.757 -2.17412 3.20641 0
M  V30 4175 H 401.171 -1.08232 5.13212 0
M  V30 4176 H 402.645 -2.7564 4.78254 0
M  V30 4177 H 403.122 -3.09144 3.11972 0
M  V30 4178 H 403.728 -1.62813 3.92902 0
M  V30 4179 N 402.043 -1.548 -0.295768 0
M  V30 4180 C 402.973 -1.89115 -1.36959 0
M  V30 4181 C 403.954 -0.75059 -1.52644 0
M  V30 4182 O 405.139 -1.00678 -1.66065 0
M  V30 4183 C 402.269 -2.14307 -2.73295 0
M  V30 4184 C 401.223 -3.30151 -2.72368 0
M  V30 4185 C 400.549 -3.40772 -4.12042 0
M  V30 4186 C 401.849 -4.67126 -2.33646 0
M  V30 4187 H 403.543 -2.79053 -1.08488 0
M  V30 4188 H 401.089 -1.34266 -0.520443 0
M  V30 4189 H 403.042 -2.36898 -3.48507 0
M  V30 4190 H 401.766 -1.21145 -3.03301 0
M  V30 4191 H 400.425 -3.0749 -1.99613 0
M  V30 4192 H 400.073 -2.45117 -4.39234 0
M  V30 4193 H 399.773 -4.18645 -4.12322 0
M  V30 4194 H 401.297 -3.6563 -4.89027 0
M  V30 4195 H 402.711 -4.89414 -2.98575 0
M  V30 4196 H 401.108 -5.47751 -2.45129 0
M  V30 4197 H 402.178 -4.67489 -1.28772 0
M  V30 4198 N 403.521 0.559213 -1.47345 0
M  V30 4199 C 404.484 1.64854 -1.59235 0
M  V30 4200 C 405.484 1.53851 -0.467607 0
M  V30 4201 O 406.674 1.58045 -0.732617 0
M  V30 4202 C 403.806 3.04388 -1.53496 0
M  V30 4203 H 404.999 1.55662 -2.56339 0
M  V30 4204 H 402.552 0.778973 -1.35505 0
M  V30 4205 H 403.287 3.19115 -0.577604 0
M  V30 4206 H 403.072 3.13783 -2.35123 0
M  V30 4207 H 404.562 3.83642 -1.6495 0
M  V30 4208 N 404.999 1.35443 0.805782 0
M  V30 4209 C 406.224 1.32037 1.59941 0
M  V30 4210 C 406.649 -0.0994215 1.87837 0
M  V30 4211 O 406.007 -1.06648 1.46615 0
M  V30 4212 C 406.055 2.13354 2.90711 0
M  V30 4213 O 405.159 1.5148 3.83572 0
M  V30 4214 H 404.5 0.452666 0.485787 0
M  V30 4215 H 407.03 1.78496 1.00002 0
M  V30 4216 H 407.04 2.25338 3.40128 0
M  V30 4217 H 405.715 3.16572 2.69732 0
M  V30 4218 H 404.292 1.4834 3.42125 0
M  V30 4219 N 406.477 -1.02803 1.19454 0
M  V30 4220 C 407.725 -1.75869 0.995722 0
M  V30 4221 C 408.046 -1.89138 -0.474543 0
M  V30 4222 O 407.316 -1.42558 -1.34366 0
M  V30 4223 H 405.896 -0.651511 0.365435 0
M  V30 4224 H 408.558 -1.24004 1.50363 0
M  V30 4225 H 407.654 -2.76661 1.44447 0
M  V30 4226 N 407.956 -0.998596 -1.21925 0
M  V30 4227 C 408.886 -0.573688 -2.26343 0
M  V30 4228 C 409.867 0.402296 -1.65274 0
M  V30 4229 O 411.052 0.291683 -1.91997 0
M  V30 4230 C 408.182 0.106839 -3.47136 0
M  V30 4231 C 407.136 -0.788269 -4.20678 0
M  V30 4232 C 406.462 0.0254927 -5.34694 0
M  V30 4233 C 407.762 -2.08784 -4.78755 0
M  V30 4234 H 409.456 -1.44651 -2.62138 0
M  V30 4235 H 407.002 -0.696975 -1.26009 0
M  V30 4236 H 408.955 0.415531 -4.19346 0
M  V30 4237 H 407.679 1.01424 -3.10452 0
M  V30 4238 H 406.338 -1.08069 -3.50309 0
M  V30 4239 H 405.986 0.933989 -4.94253 0
M  V30 4240 H 405.686 -0.570437 -5.84825 0
M  V30 4241 H 407.21 0.328147 -6.09718 0
M  V30 4242 H 408.624 -1.84272 -5.42878 0
M  V30 4243 H 407.021 -2.63307 -5.39249 0
M  V30 4244 H 408.091 -2.76284 -3.98491 0
M  V30 4245 N 409.434 1.37368 -0.772513 0
M  V30 4246 C 410.344 2.34053 -0.160081 0
M  V30 4247 C 411.36 1.60216 0.678728 0
M  V30 4248 O 412.536 1.92303 0.59847 0
M  V30 4249 C 409.601 3.3939 0.708182 0
M  V30 4250 C 408.662 4.29048 -0.147172 0
M  V30 4251 C 407.895 5.29354 0.679744 0
M  V30 4252 O 408.118 5.3723 1.91678 0
M  V30 4253 O 407.052 6.01835 0.0885444 0
M  V30 4254 H 410.878 2.88159 -0.959053 0
M  V30 4255 H 408.463 1.39543 -0.533685 0
M  V30 4256 H 410.345 4.03839 1.20384 0
M  V30 4257 H 409.02 2.8761 1.48533 0
M  V30 4258 H 407.927 3.67697 -0.689205 0
M  V30 4259 H 409.26 4.84134 -0.887423 0
M  V30 4260 N 410.912 0.523116 1.48665 0
M  V30 4261 C 412.16 -0.0134497 2.02096 0
M  V30 4262 C 412.481 -1.35418 1.40311 0
M  V30 4263 O 411.751 -1.87543 0.566074 0
M  V30 4264 H 410.331 -0.00795915 0.746958 0
M  V30 4265 H 412.993 0.685388 1.82451 0
M  V30 4266 H 412.089 -0.126849 3.11842 0
M  V30 4267 N 412.39 -1.55475 0.257931 0
M  V30 4268 C 413.638 -1.98813 -0.363009 0
M  V30 4269 C 413.959 -1.14757 -1.57657 0
M  V30 4270 O 413.229 -0.232956 -1.9451 0
M  V30 4271 H 411.809 -0.734308 -0.137113 0
M  V30 4272 H 414.471 -1.9156 0.359281 0
M  V30 4273 H 413.567 -3.04941 -0.664634 0
M  V30 4274 N 413.868 0.0150385 -1.57593 0
M  V30 4275 C 414.8 1.03912 -2.04291 0
M  V30 4276 C 415.813 1.31618 -0.958146 0
M  V30 4277 O 417.002 1.28859 -1.23522 0
M  V30 4278 C 414.102 2.37749 -2.41514 0
M  V30 4279 C 413.275 2.29198 -3.72541 0
M  V30 4280 C 412.334 3.45598 -3.96797 0
M  V30 4281 O 411.36 3.24461 -4.67668 0
M  V30 4282 N 412.562 4.67945 -3.43523 0
M  V30 4283 H 415.327 0.64099 -2.92765 0
M  V30 4284 H 412.888 0.20272 -1.60626 0
M  V30 4285 H 414.88 3.14364 -2.54867 0
M  V30 4286 H 413.45 2.69357 -1.58637 0
M  V30 4287 H 412.67 1.3759 -3.69408 0
M  V30 4288 H 413.958 2.20642 -4.5847 0
M  V30 4289 H 413.356 4.88017 -2.86104 0
M  V30 4290 H 411.913 5.41878 -3.62232 0
M  V30 4291 N 415.346 1.54954 0.287554 0
M  V30 4292 C 416.574 1.78881 1.03967 0
M  V30 4293 C 416.989 0.554894 1.80462 0
M  V30 4294 O 416.346 -0.475676 1.76192 0
M  V30 4295 C 416.397 3.00488 2.0097 0
M  V30 4296 O 416.118 4.19113 1.27577 0
M  V30 4297 C 417.619 3.36907 2.88112 0
M  V30 4298 H 414.839 0.596259 0.307761 0
M  V30 4299 H 417.383 2.01937 0.322749 0
M  V30 4300 H 415.538 2.79601 2.68145 0
M  V30 4301 H 415.952 4.87765 1.92835 0
M  V30 4302 H 417.426 4.25205 3.52001 0
M  V30 4303 H 417.903 2.55659 3.57121 0
M  V30 4304 H 418.509 3.60001 2.26449 0
M  V30 4305 N 416.824 -0.551391 1.4764 0
M  V30 4306 C 418.235 -1.13349 1.48354 0
M  V30 4307 C 418.586 -1.94709 0.241432 0
M  V30 4308 O 417.711 -2.06306 -0.653205 0
M  V30 4309 C 418.306 -2.0623 2.68802 0
M  V30 4310 C 416.865 -2.597 2.72457 0
M  V30 4311 C 416.012 -1.36201 2.41546 0
M  V30 4312 H 418.963 -0.337698 1.55065 0
M  V30 4313 H 418.984 -2.90196 2.46103 0
M  V30 4314 H 418.496 -1.46987 3.59188 0
M  V30 4315 H 416.597 -3.22724 1.86225 0
M  V30 4316 H 416.71 -3.00296 3.73308 0
M  V30 4317 H 415.074 -1.67068 1.9225 0
M  V30 4318 H 415.857 -0.787425 3.34147 0
M  V30 4319 N 418.302 -1.35869 -0.798587 0
M  V30 4320 C 419.551 -1.28921 -1.5512 0
M  V30 4321 C 419.864 0.13208 -1.95154 0
M  V30 4322 O 421.07 0.323879 -2.69561 0
M  V30 4323 C 419.526 -2.26141 -2.79979 0
M  V30 4324 C 419.134 -3.73658 -2.47151 0
M  V30 4325 C 420.878 -2.28152 -3.57976 0
M  V30 4326 C 418.785 -4.62679 -3.6835 0
M  V30 4327 H 417.715 -0.479031 -0.582276 0
M  V30 4328 H 420.366 -1.61179 -0.877125 0
M  V30 4329 H 418.748 -1.86865 -3.49138 0
M  V30 4330 H 419.922 -4.21616 -1.85947 0
M  V30 4331 H 418.237 -3.74333 -1.82383 0
M  V30 4332 H 420.834 -2.91875 -4.4801 0
M  V30 4333 H 421.177 -1.28748 -3.95891 0
M  V30 4334 H 421.71 -2.65998 -2.95787 0
M  V30 4335 H 418.449 -5.63111 -3.35538 0
M  V30 4336 H 417.969 -4.19442 -4.28752 0
M  V30 4337 H 419.648 -4.78498 -4.35487 0
M  V30 4338 N 419.78 1.02168 -1.19998 0
M  V30 4339 C 420.743 2.08765 -0.94604 0
M  V30 4340 C 421.743 1.60618 0.0763846 0
M  V30 4341 O 422.933 1.73472 -0.159135 0
M  V30 4342 C 420.065 3.38262 -0.423255 0
M  V30 4343 H 421.258 2.32726 -1.89153 0
M  V30 4344 H 418.811 1.1889 -1.01464 0
M  V30 4345 H 419.546 3.19974 0.527938 0
M  V30 4346 H 419.331 3.74532 -1.16053 0
M  V30 4347 H 420.821 4.16759 -0.264911 0
M  V30 4348 N 421.258 1.00505 1.21394 0
M  V30 4349 C 422.221 0.570459 2.21987 0
M  V30 4350 C 423.221 -0.353211 1.56873 0
M  V30 4351 O 424.411 -0.14349 1.73608 0
M  V30 4352 C 421.543 -0.168555 3.40483 0
M  V30 4353 H 422.736 1.46021 2.6195 0
M  V30 4354 H 420.289 0.793565 1.34656 0
M  V30 4355 H 421.024 -1.07374 3.06009 0
M  V30 4356 H 420.809 0.494823 3.88965 0
M  V30 4357 H 422.299 -0.460362 4.15055 0
M  V30 4358 N 422.737 -1.36956 0.779787 0
M  V30 4359 C 423.647 -2.33965 0.172491 0
M  V30 4360 C 424.663 -1.60574 -0.670222 0
M  V30 4361 O 425.839 -1.92617 -0.588263 0
M  V30 4362 C 422.904 -3.39761 -0.690173 0
M  V30 4363 C 421.965 -4.28964 0.169924 0
M  V30 4364 C 421.198 -5.29707 -0.651662 0
M  V30 4365 O 421.421 -5.38238 -1.88827 0
M  V30 4366 O 420.355 -6.01873 -0.0566264 0
M  V30 4367 H 424.181 -2.87647 0.974321 0
M  V30 4368 H 421.766 -1.39258 0.541078 0
M  V30 4369 H 423.648 -4.04471 -1.1824 0
M  V30 4370 H 422.323 -2.88394 -1.47006 0
M  V30 4371 H 421.23 -3.67326 0.708696 0
M  V30 4372 H 422.563 -4.83656 0.913085 0
M  V30 4373 N 424.215 -0.530993 -1.48385 0
M  V30 4374 C 425.464 0.00474348 -2.01699 0
M  V30 4375 C 425.777 1.35227 -1.41325 0
M  V30 4376 O 426.983 1.97643 -1.86144 0
M  V30 4377 C 425.439 0.0588473 -3.59852 0
M  V30 4378 C 425.047 -1.28385 -4.2921 0
M  V30 4379 C 426.791 0.543358 -4.21008 0
M  V30 4380 C 424.698 -1.19028 -5.79298 0
M  V30 4381 H 423.628 0.00554317 -0.75398 0
M  V30 4382 H 426.279 -0.674924 -1.70637 0
M  V30 4383 H 424.661 0.803612 -3.8776 0
M  V30 4384 H 425.835 -2.04426 -4.12973 0
M  V30 4385 H 424.15 -1.70418 -3.7993 0
M  V30 4386 H 426.747 0.631351 -5.3096 0
M  V30 4387 H 427.09 1.54937 -3.86394 0
M  V30 4388 H 427.623 -0.145754 -3.97533 0
M  V30 4389 H 424.362 -2.17147 -6.18488 0
M  V30 4390 H 423.882 -0.471246 -5.97946 0
M  V30 4391 H 425.561 -0.881365 -6.40969 0
M  V30 4392 N 425.693 1.55336 -0.266172 0
M  V30 4393 C 426.603 2.2583 0.635458 0
M  V30 4394 C 427.619 1.28106 1.17749 0
M  V30 4395 O 428.795 1.61024 1.20968 0
M  V30 4396 C 425.86 2.95879 1.80712 0
M  V30 4397 C 424.921 4.09059 1.30265 0
M  V30 4398 C 424.154 4.75759 2.41846 0
M  V30 4399 O 424.377 4.41622 3.61007 0
M  V30 4400 O 423.311 5.63888 2.1051 0
M  V30 4401 H 427.137 3.03631 0.0646693 0
M  V30 4402 H 424.722 1.49361 -0.0339177 0
M  V30 4403 H 426.604 3.39932 2.49047 0
M  V30 4404 H 425.279 2.21002 2.36516 0
M  V30 4405 H 424.186 3.69482 0.586019 0
M  V30 4406 H 425.519 4.85811 0.790458 0
M  V30 4407 N 427.171 -0.0066808 1.57599 0
M  V30 4408 C 428.121 -1.0086 2.04478 0
M  V30 4409 C 429.105 -1.30714 0.938231 0
M  V30 4410 O 430.297 -1.29924 1.20203 0
M  V30 4411 C 427.426 -2.30273 2.54615 0
M  V30 4412 C 426.512 -2.03413 3.72134 0
M  V30 4413 N 426.903 -1.46688 4.84062 0
M  V30 4414 C 425.201 -2.33589 3.79937 0
M  V30 4415 C 425.902 -1.36146 5.65543 0
M  V30 4416 N 424.878 -1.84477 5.1134 0
M  V30 4417 H 428.68 -0.564402 2.8843 0
M  V30 4418 H 426.194 -0.212521 1.61003 0
M  V30 4419 H 428.191 -3.02885 2.86472 0
M  V30 4420 H 426.851 -2.75352 1.72079 0
M  V30 4421 H 427.862 -1.14658 5.05049 0
M  V30 4422 H 424.539 -2.81589 3.08243 0
M  V30 4423 H 425.929 -0.925873 6.6549 0
M  V30 4424 N 428.649 -1.55105 -0.279332 0
M  V30 4425 C 429.896 -1.75412 -1.01177 0
M  V30 4426 C 430.224 -0.551728 -1.86511 0
M  V30 4427 O 429.479 0.465919 -1.90073 0
M  V30 4428 C 429.778 -3.0086 -1.92919 0
M  V30 4429 C 429.444 -4.33689 -1.23387 0
M  V30 4430 C 428.106 -4.69792 -1.04159 0
M  V30 4431 C 430.458 -5.15941 -0.738562 0
M  V30 4432 C 427.786 -5.85707 -0.341166 0
M  V30 4433 C 430.138 -6.32579 -0.0517636 0
M  V30 4434 C 428.802 -6.67326 0.152292 0
M  V30 4435 H 428.072 -0.641879 -0.370233 0
M  V30 4436 H 430.719 -1.89373 -0.284627 0
M  V30 4437 H 429.024 -2.81773 -2.72234 0
M  V30 4438 H 430.721 -3.13768 -2.49701 0
M  V30 4439 H 427.311 -4.05309 -1.39364 0
M  V30 4440 H 431.495 -4.8853 -0.874764 0
M  V30 4441 H 426.751 -6.11157 -0.172287 0
M  V30 4442 H 430.925 -6.9557 0.339828 0
M  V30 4443 H 428.552 -7.56998 0.697014 0
M  V30 4444 N 430.127 0.543554 -1.4793 0
M  V30 4445 C 431.376 1.29649 -1.54512 0
M  V30 4446 C 431.689 1.94382 -0.217973 0
M  V30 4447 O 432.895 2.71017 -0.161908 0
M  V30 4448 C 431.351 2.35175 -2.72435 0
M  V30 4449 C 430.959 1.76572 -4.11736 0
M  V30 4450 C 432.703 3.11564 -2.8832 0
M  V30 4451 C 430.61 2.79958 -5.20939 0
M  V30 4452 H 429.54 0.487541 -0.57517 0
M  V30 4453 H 432.191 0.575708 -1.74235 0
M  V30 4454 H 430.573 3.10229 -2.46118 0
M  V30 4455 H 431.747 1.07799 -4.48013 0
M  V30 4456 H 430.062 1.12722 -4.00852 0
M  V30 4457 H 432.659 3.88794 -3.67074 0
M  V30 4458 H 433.002 3.66594 -1.97268 0
M  V30 4459 H 433.535 2.43623 -3.14472 0
M  V30 4460 H 430.274 2.29766 -6.13912 0
M  V30 4461 H 429.794 3.47101 -4.89164 0
M  V30 4462 H 431.473 3.43198 -5.48474 0
M  V30 4463 N 431.605 1.3629 0.791371 0
M  V30 4464 C 432.555 1.26988 1.89362 0
M  V30 4465 C 433.539 0.161795 1.60084 0
M  V30 4466 O 434.731 0.394426 1.72549 0
M  V30 4467 C 431.86 1.05944 3.26544 0
M  V30 4468 C 430.946 2.21211 3.61838 0
M  V30 4469 N 431.337 3.46518 3.68455 0
M  V30 4470 C 429.635 2.12933 3.91887 0
M  V30 4471 C 430.336 4.2241 3.99931 0
M  V30 4472 N 429.312 3.51329 4.14812 0
M  V30 4473 H 433.114 2.21908 1.92702 0
M  V30 4474 H 430.628 1.28982 0.986787 0
M  V30 4475 H 432.625 0.973666 4.05371 0
M  V30 4476 H 431.285 0.119223 3.24481 0
M  V30 4477 H 432.296 3.80677 3.51148 0
M  V30 4478 H 428.973 1.26855 3.97761 0
M  V30 4479 H 430.363 5.30767 4.1199 0
M  V30 4480 N 433.083 -1.0153 1.20538 0
M  V30 4481 C 434.332 -1.74558 1.01057 0
M  V30 4482 C 434.645 -1.90168 -0.457756 0
M  V30 4483 O 435.851 -2.60301 -0.771722 0
M  V30 4484 C 434.307 -3.13963 1.75941 0
M  V30 4485 C 433.915 -3.06361 3.26875 0
M  V30 4486 C 435.659 -3.91191 1.64832 0
M  V30 4487 C 433.566 -4.40782 3.94291 0
M  V30 4488 H 432.496 -0.654417 0.374505 0
M  V30 4489 H 435.147 -1.13521 1.44171 0
M  V30 4490 H 433.529 -3.75549 1.25614 0
M  V30 4491 H 434.703 -2.54074 3.84425 0
M  V30 4492 H 433.018 -2.42625 3.38411 0
M  V30 4493 H 435.615 -4.90644 2.12539 0
M  V30 4494 H 435.958 -4.11884 0.604745 0
M  V30 4495 H 436.491 -3.36236 2.12579 0
M  V30 4496 H 433.23 -4.25292 4.98805 0
M  V30 4497 H 432.75 -4.9307 3.41529 0
M  V30 4498 H 434.429 -5.09621 3.98617 0
M  V30 4499 N 434.561 -1.01147 -1.20859 0
M  V30 4500 C 435.81 -0.693214 -1.89413 0
M  V30 4501 C 436.123 0.779969 -1.79376 0
M  V30 4502 O 437.329 1.21057 -2.43017 0
M  V30 4503 C 435.785 -1.18949 -3.39675 0
M  V30 4504 C 435.393 -2.68921 -3.58309 0
M  V30 4505 C 437.137 -0.94642 -4.13815 0
M  V30 4506 C 435.044 -3.12056 -5.0237 0
M  V30 4507 H 433.974 -0.255595 -0.709357 0
M  V30 4508 H 436.625 -1.22349 -1.36759 0
M  V30 4509 H 435.007 -0.587228 -3.91622 0
M  V30 4510 H 436.181 -3.34652 -3.16772 0
M  V30 4511 H 434.496 -2.91314 -2.97532 0
M  V30 4512 H 437.093 -1.24417 -5.20023 0
M  V30 4513 H 437.436 0.117219 -4.16135 0
M  V30 4514 H 437.969 -1.5118 -3.67953 0
M  V30 4515 H 434.708 -4.17674 -5.05202 0
M  V30 4516 H 434.228 -2.51041 -5.44737 0
M  V30 4517 H 435.907 -3.04403 -5.70918 0
M  V30 4518 N 436.039 1.36541 -0.78704 0
M  V30 4519 C 437.267 2.03561 -0.370199 0
M  V30 4520 C 437.682 1.59347 1.01263 0
M  V30 4521 O 437.039 0.781781 1.64907 0
M  V30 4522 C 437.09 3.59033 -0.421614 0
M  V30 4523 O 436.811 4.01634 -1.7499 0
M  V30 4524 C 438.312 4.433 0.00489763 0
M  V30 4525 H 435.532 0.653346 -0.152904 0
M  V30 4526 H 438.076 1.74566 -1.06522 0
M  V30 4527 H 436.231 3.86746 0.224971 0
M  V30 4528 H 436.645 4.96217 -1.69909 0
M  V30 4529 H 438.119 5.51939 -0.0822184 0
M  V30 4530 H 438.596 4.26285 1.05723 0
M  V30 4531 H 439.202 4.20843 -0.614085 0
M  V30 4532 N 437.518 0.538854 1.48102 0
M  V30 4533 C 438.766 0.00798599 2.02098 0
M  V30 4534 C 439.087 -1.33922 1.41739 0
M  V30 4535 O 438.357 -1.86932 0.585934 0
M  V30 4536 H 436.937 -3.62179e-05 0.747 0
M  V30 4537 H 439.599 0.7047 1.81714 0
M  V30 4538 H 438.695 -0.0937672 3.11959 0
M  V30 4539 N 438.996 -1.55193 0.274407 0
M  V30 4540 C 440.242 -1.99877 -0.343086 0
M  V30 4541 C 440.575 -1.16256 -1.55558 0
M  V30 4542 O 439.85 -0.232462 -1.93106 0
M  V30 4543 C 440.133 -3.52706 -0.725965 0
M  V30 4544 C 439.986 -4.47081 0.493818 0
M  V30 4545 C 441.305 -4.11422 -1.56268 0
M  V30 4546 H 438.424 -0.726625 -0.123229 0
M  V30 4547 H 441.066 -1.86136 0.38121 0
M  V30 4548 H 439.216 -3.64546 -1.34307 0
M  V30 4549 H 440.888 -4.47186 1.13237 0
M  V30 4550 H 439.131 -4.1877 1.13201 0
M  V30 4551 H 439.802 -5.51699 0.18217 0
M  V30 4552 H 442.278 -4.02855 -1.04151 0
M  V30 4553 H 441.154 -5.18568 -1.79939 0
M  V30 4554 H 441.415 -3.61607 -2.54348 0
M  V30 4555 N 440.474 -0.00167713 -1.576 0
M  V30 4556 C 441.437 0.974046 -2.07473 0
M  V30 4557 C 442.437 1.27143 -0.984444 0
M  V30 4558 O 443.627 1.21633 -1.24703 0
M  V30 4559 C 440.759 2.29849 -2.51759 0
M  V30 4560 H 441.952 0.54262 -2.9495 0
M  V30 4561 H 439.505 0.245829 -1.54355 0
M  V30 4562 H 440.24 2.77677 -1.67529 0
M  V30 4563 H 440.025 2.09584 -3.31386 0
M  V30 4564 H 441.515 2.9984 -2.90664 0
M  V30 4565 N 441.952 1.55251 0.271103 0
M  V30 4566 C 443.198 1.76207 1.00394 0
M  V30 4567 C 443.531 0.562604 1.85872 0
M  V30 4568 O 442.806 -0.439785 1.89463 0
M  V30 4569 C 443.089 3.06828 1.8849 0
M  V30 4570 C 442.942 4.37134 1.05992 0
M  V30 4571 C 444.261 3.33503 2.87165 0
M  V30 4572 H 441.38 0.641086 0.363562 0
M  V30 4573 H 444.022 1.87982 0.276189 0
M  V30 4574 H 442.172 2.96921 2.5054 0
M  V30 4575 H 443.844 4.59001 0.459978 0
M  V30 4576 H 442.087 4.32275 0.363443 0
M  V30 4577 H 442.758 5.2486 1.70955 0
M  V30 4578 H 445.234 3.43215 2.3525 0
M  V30 4579 H 444.11 4.2616 3.45946 0
M  V30 4580 H 444.371 2.53235 3.62387 0
M  V30 4581 N 443.43 -0.535701 1.48216 0
M  V30 4582 C 444.677 -1.29183 1.55942 0
M  V30 4583 C 445.005 -1.93125 0.230857 0
M  V30 4584 O 444.26 -1.79556 -0.778331 0
M  V30 4585 C 444.559 -2.4068 2.64212 0
M  V30 4586 C 444.225 -1.94428 4.06827 0
M  V30 4587 C 442.887 -1.81532 4.45645 0
M  V30 4588 C 445.239 -1.59405 4.96225 0
M  V30 4589 C 442.567 -1.31939 5.71672 0
M  V30 4590 C 444.919 -1.11276 6.22736 0
M  V30 4591 C 443.583 -0.969924 6.60416 0
M  V30 4592 H 442.853 -0.472715 0.570632 0
M  V30 4593 H 445.5 -0.598437 1.81909 0
M  V30 4594 H 443.805 -3.15666 2.32083 0
M  V30 4595 H 445.502 -2.98822 2.67407 0
M  V30 4596 H 442.092 -2.05415 3.76168 0
M  V30 4597 H 446.276 -1.68231 4.66917 0
M  V30 4598 H 441.532 -1.19562 5.99596 0
M  V30 4599 H 445.706 -0.832453 6.91407 0
M  V30 4600 H 443.333 -0.583436 7.57958 0
M  V30 4601 N 444.908 -1.36708 -0.784132 0
M  V30 4602 C 445.838 -1.34153 -1.91116 0
M  V30 4603 C 446.819 -0.212121 -1.68772 0
M  V30 4604 O 448.004 -0.410581 -1.8981 0
M  V30 4605 C 445.134 -1.13535 -3.28218 0
M  V30 4606 C 444.088 -2.23356 -3.65097 0
M  V30 4607 C 443.414 -1.87875 -5.00607 0
M  V30 4608 C 444.714 -3.65473 -3.73131 0
M  V30 4609 H 446.408 -2.28459 -1.93512 0
M  V30 4610 H 443.954 -1.09973 -0.929618 0
M  V30 4611 H 445.907 -1.10381 -4.06687 0
M  V30 4612 H 444.631 -0.156804 -3.26223 0
M  V30 4613 H 443.29 -2.25645 -2.88929 0
M  V30 4614 H 442.938 -0.885814 -4.95139 0
M  V30 4615 H 442.638 -2.61406 -5.26252 0
M  V30 4616 H 444.162 -1.86286 -5.81489 0
M  V30 4617 H 445.576 -3.65382 -4.41779 0
M  V30 4618 H 443.973 -4.37953 -4.10265 0
M  V30 4619 H 445.043 -3.99995 -2.74102 0
M  V30 4620 N 446.386 1.0089 -1.21074 0
M  V30 4621 C 447.634 1.74262 -1.02358 0
M  V30 4622 C 447.955 1.89869 0.444393 0
M  V30 4623 O 447.225 1.44677 1.32081 0
M  V30 4624 H 445.805 0.645615 -0.375754 0
M  V30 4625 H 448.467 1.21596 -1.52317 0
M  V30 4626 H 447.563 2.74328 -1.4883 0
M  V30 4627 N 447.864 1.01787 1.20321 0
M  V30 4628 C 449.11 0.708985 1.90003 0
M  V30 4629 C 449.443 -0.759572 1.78729 0
M  V30 4630 O 448.718 -1.55198 1.17234 0
M  V30 4631 C 449.001 1.1469 3.41348 0
M  V30 4632 C 448.854 2.67586 3.61549 0
M  V30 4633 C 450.173 0.71915 4.34185 0
M  V30 4634 H 447.292 0.259034 0.689978 0
M  V30 4635 H 449.934 1.26584 1.41692 0
M  V30 4636 H 448.084 0.673128 3.82624 0
M  V30 4637 H 449.756 3.22826 3.29517 0
M  V30 4638 H 447.999 3.085 3.04976 0
M  V30 4639 H 448.67 2.93281 4.67643 0
M  V30 4640 H 451.146 1.12647 4.00562 0
M  V30 4641 H 450.022 1.05358 5.38694 0
M  V30 4642 H 450.283 -0.379111 4.40472 0
M  V30 4643 N 449.342 -1.36122 0.79427 0
M  V30 4644 C 450.567 -2.03891 0.379871 0
M  V30 4645 C 450.992 -1.59488 -0.997251 0
M  V30 4646 O 450.35 -0.765652 -1.64339 0
M  V30 4647 C 450.398 -3.57687 0.457442 0
M  V30 4648 O 449.502 -4.08931 -0.5338 0
M  V30 4649 H 448.843 -0.6443 0.160541 0
M  V30 4650 H 451.373 -1.73976 1.07673 0
M  V30 4651 H 451.383 -4.06721 0.322792 0
M  V30 4652 H 450.058 -3.89357 1.46199 0
M  V30 4653 H 448.635 -3.71154 -0.360409 0
M  V30 4654 N 450.82 -0.546701 -1.47814 0
M  V30 4655 C 452.067 -0.0187407 -2.02491 0
M  V30 4656 C 452.395 1.32685 -1.42215 0
M  V30 4657 O 451.65 1.87413 -0.563454 0
M  V30 4658 C 451.949 0.134869 -3.57145 0
M  V30 4659 C 451.615 -1.13849 -4.3629 0
M  V30 4660 C 450.277 -1.48743 -4.57634 0
M  V30 4661 C 452.629 -1.98277 -4.82012 0
M  V30 4662 C 449.957 -2.67932 -5.21948 0
M  V30 4663 C 452.309 -3.16659 -5.4764 0
M  V30 4664 C 450.973 -3.51879 -5.67219 0
M  V30 4665 H 450.243 -0.0068577 -0.740968 0
M  V30 4666 H 452.89 -0.716097 -1.77607 0
M  V30 4667 H 451.195 0.915118 -3.80963 0
M  V30 4668 H 452.892 0.558556 -3.97091 0
M  V30 4669 H 449.482 -0.856767 -4.19949 0
M  V30 4670 H 453.666 -1.72628 -4.6531 0
M  V30 4671 H 448.922 -2.95401 -5.35302 0
M  V30 4672 H 453.096 -3.82374 -5.82033 0
M  V30 4673 H 450.723 -4.44331 -6.16825 0
M  V30 4674 N 452.299 1.55045 -0.282633 0
M  V30 4675 C 453.546 1.9976 0.33199 0
M  V30 4676 C 453.874 1.17105 1.55295 0
M  V30 4677 O 453.129 0.230599 1.94337 0
M  V30 4678 C 453.428 3.49422 0.750938 0
M  V30 4679 C 453.094 4.4941 -0.366228 0
M  V30 4680 C 451.756 4.76471 -0.672964 0
M  V30 4681 C 454.108 5.09054 -1.11864 0
M  V30 4682 C 451.436 5.60442 -1.73556 0
M  V30 4683 C 453.788 5.9418 -2.17102 0
M  V30 4684 C 452.452 6.19558 -2.48402 0
M  V30 4685 H 451.722 0.730974 0.121484 0
M  V30 4686 H 454.369 1.8732 -0.39791 0
M  V30 4687 H 452.674 3.59377 1.56063 0
M  V30 4688 H 454.371 3.81432 1.23736 0
M  V30 4689 H 450.961 4.2844 -0.117041 0
M  V30 4690 H 455.145 4.88165 -0.894925 0
M  V30 4691 H 450.401 5.78349 -1.983 0
M  V30 4692 H 454.575 6.39427 -2.75873 0
M  V30 4693 H 452.202 6.84417 -3.30874 0
M  V30 4694 N 453.777 0.010035 1.57597 0
M  V30 4695 C 455.026 -0.671945 1.90178 0
M  V30 4696 C 455.339 -1.74376 0.886131 0
M  V30 4697 O 456.545 -2.48107 1.10252 0
M  V30 4698 C 455.001 -1.24636 3.3763 0
M  V30 4699 C 454.609 -0.208838 4.47513 0
M  V30 4700 C 456.353 -1.90595 3.79307 0
M  V30 4701 C 454.26 -0.793814 5.86048 0
M  V30 4702 H 453.19 -0.25474 0.709665 0
M  V30 4703 H 455.841 0.0722206 1.83358 0
M  V30 4704 H 454.223 -2.04152 3.3932 0
M  V30 4705 H 455.397 0.562463 4.57354 0
M  V30 4706 H 453.712 0.350889 4.14919 0
M  V30 4707 H 456.309 -2.35284 4.80151 0
M  V30 4708 H 456.652 -2.74074 3.13352 0
M  V30 4709 H 457.185 -1.17798 3.79958 0
M  V30 4710 H 453.924 0.00240855 6.555 0
M  V30 4711 H 453.444 -1.53404 5.79851 0
M  V30 4712 H 455.123 -1.2894 6.34022 0
M  V30 4713 N 455.255 -1.55392 -0.262866 0
M  V30 4714 C 456.185 -1.91978 -1.32917 0
M  V30 4715 C 457.166 -0.7828 -1.51017 0
M  V30 4716 O 458.351 -1.04178 -1.63892 0
M  V30 4717 C 455.481 -2.20055 -2.68687 0
M  V30 4718 C 454.435 -3.35854 -2.65304 0
M  V30 4719 C 453.761 -3.49435 -4.04721 0
M  V30 4720 C 455.061 -4.71977 -2.23685 0
M  V30 4721 H 456.755 -2.81292 -1.02544 0
M  V30 4722 H 454.301 -1.3534 -0.491846 0
M  V30 4723 H 456.254 -2.44237 -3.43404 0
M  V30 4724 H 454.978 -1.27551 -3.00663 0
M  V30 4725 H 453.637 -3.11655 -1.93045 0
M  V30 4726 H 453.285 -2.54379 -4.33936 0
M  V30 4727 H 452.985 -4.27297 -4.0335 0
M  V30 4728 H 454.509 -3.7592 -4.81161 0
M  V30 4729 H 455.923 -4.95637 -2.88127 0
M  V30 4730 H 454.32 -5.52828 -2.33456 0
M  V30 4731 H 455.39 -4.70115 -1.18827 0
M  V30 4732 N 456.733 0.527833 -1.48498 0
M  V30 4733 C 457.958 1.313 -1.60546 0
M  V30 4734 C 458.383 1.86199 -0.26672 0
M  V30 4735 O 457.741 1.64513 0.761918 0
M  V30 4736 C 457.789 2.43818 -2.65678 0
M  V30 4737 O 456.893 3.46916 -2.22987 0
M  V30 4738 H 456.234 0.388784 -0.538277 0
M  V30 4739 H 458.764 0.634896 -1.945 0
M  V30 4740 H 458.774 2.89973 -2.87018 0
M  V30 4741 H 457.449 2.03222 -3.62869 0
M  V30 4742 H 456.026 3.06864 -2.11869 0
M  V30 4743 N 458.211 1.37122 0.776871 0
M  V30 4744 C 459.141 1.35164 1.90402 0
M  V30 4745 C 460.122 0.221069 1.68657 0
M  V30 4746 O 461.307 0.420642 1.8959 0
M  V30 4747 C 458.437 1.15274 3.27611 0
M  V30 4748 C 457.391 2.25289 3.63908 0
M  V30 4749 C 456.717 1.90527 4.99603 0
M  V30 4750 C 458.017 3.67446 3.71188 0
M  V30 4751 H 459.711 2.29482 1.92297 0
M  V30 4752 H 457.257 1.10465 0.923773 0
M  V30 4753 H 459.21 1.12536 4.06096 0
M  V30 4754 H 457.934 0.174102 3.26136 0
M  V30 4755 H 456.593 2.27174 2.87728 0
M  V30 4756 H 456.241 0.91206 4.94662 0
M  V30 4757 H 455.941 2.64193 5.24858 0
M  V30 4758 H 457.465 1.89367 5.80493 0
M  V30 4759 H 458.879 3.67719 4.39836 0
M  V30 4760 H 457.276 4.40123 4.07936 0
M  V30 4761 H 458.346 4.01443 2.71977 0
M  V30 4762 N 459.689 -1.00246 1.21608 0
M  V30 4763 C 460.938 -1.73476 1.02902 0
M  V30 4764 C 461.251 -1.90643 -0.437561 0
M  V30 4765 O 462.457 -2.61105 -0.74407 0
M  V30 4766 C 460.913 -3.12079 1.79261 0
M  V30 4767 C 460.521 -3.02877 3.30106 0
M  V30 4768 C 462.265 -3.89421 1.68972 0
M  V30 4769 C 460.172 -4.36575 3.98944 0
M  V30 4770 H 459.102 -0.650408 0.381425 0
M  V30 4771 H 461.753 -1.11985 1.45367 0
M  V30 4772 H 460.135 -3.74196 1.2959 0
M  V30 4773 H 461.309 -2.49983 3.87098 0
M  V30 4774 H 459.624 -2.39022 3.40965 0
M  V30 4775 H 462.221 -4.88362 2.17731 0
M  V30 4776 H 462.564 -4.1122 0.648397 0
M  V30 4777 H 463.097 -3.33963 2.16133 0
M  V30 4778 H 459.836 -4.19978 5.03288 0
M  V30 4779 H 459.356 -4.8942 3.4674 0
M  V30 4780 H 461.035 -5.05364 4.04 0
M  V30 4781 N 461.167 -1.02423 -1.1978 0
M  V30 4782 C 462.097 -0.62157 -2.25075 0
M  V30 4783 C 463.078 0.367148 -1.6609 0
M  V30 4784 O 464.263 0.250892 -1.92573 0
M  V30 4785 C 461.393 0.0331826 -3.47284 0
M  V30 4786 C 460.347 -0.877323 -4.18912 0
M  V30 4787 C 459.673 -0.0879296 -5.34628 0
M  V30 4788 C 460.973 -2.18892 -4.74219 0
M  V30 4789 H 462.667 -1.50179 -2.59011 0
M  V30 4790 H 460.213 -0.723547 -1.24502 0
M  V30 4791 H 462.166 0.326488 -4.20133 0
M  V30 4792 H 460.89 0.948164 -3.12534 0
M  V30 4793 H 459.549 -1.15475 -3.47938 0
M  V30 4794 H 459.197 0.828941 -4.96123 0
M  V30 4795 H 458.897 -0.694359 -5.83483 0
M  V30 4796 H 460.421 0.198743 -6.10276 0
M  V30 4797 H 461.835 -1.95746 -5.38847 0
M  V30 4798 H 460.232 -2.74686 -5.33542 0
M  V30 4799 H 461.302 -2.84674 -3.92541 0
M  V30 4800 N 462.645 1.35699 -0.801477 0
M  V30 4801 C 463.555 2.33661 -0.209691 0
M  V30 4802 C 464.571 1.6162 0.644591 0
M  V30 4803 O 465.747 1.93529 0.557545 0
M  V30 4804 C 462.812 3.40816 0.636033 0
M  V30 4805 C 461.873 4.28639 -0.238147 0
M  V30 4806 C 461.106 5.30676 0.567307 0
M  V30 4807 O 461.329 5.41174 1.8024 0
M  V30 4808 O 460.263 6.01887 -0.0391336 0
M  V30 4809 H 464.089 2.8606 -1.01996 0
M  V30 4810 H 461.674 1.38379 -0.563164 0
M  V30 4811 H 463.556 4.06301 1.11791 0
M  V30 4812 H 462.231 2.90696 1.42399 0
M  V30 4813 H 461.138 3.66152 -0.767044 0
M  V30 4814 H 462.471 4.82143 -0.989915 0
M  V30 4815 N 464.123 0.554532 1.47522 0
M  V30 4816 C 465.353 0.0342074 2.06572 0
M  V30 4817 C 465.761 -1.26375 1.40805 0
M  V30 4818 O 465.104 -1.7683 0.49769 0
M  V30 4819 C 465.166 -0.235096 3.5873 0
M  V30 4820 C 464.83 0.973024 4.46521 0
M  V30 4821 C 465.827 1.8779 4.848 0
M  V30 4822 C 463.512 1.18694 4.88075 0
M  V30 4823 C 465.506 2.98039 5.63428 0
M  V30 4824 C 463.193 2.29254 5.66468 0
M  V30 4825 C 464.191 3.18757 6.04055 0
M  V30 4826 O 463.879 4.27401 6.8087 0
M  V30 4827 H 463.611 0.041587 0.67472 0
M  V30 4828 H 466.165 0.766748 1.90552 0
M  V30 4829 H 464.395 -1.02191 3.72953 0
M  V30 4830 H 466.084 -0.700477 3.9981 0
M  V30 4831 H 466.85 1.72467 4.53299 0
M  V30 4832 H 462.729 0.49947 4.58286 0
M  V30 4833 H 466.273 3.67926 5.92685 0
M  V30 4834 H 462.17 2.4455 5.97382 0
M  V30 4835 H 462.938 4.25415 6.9926 0
M  V30 4836 N 465.601 -1.54893 0.290851 0
M  V30 4837 C 466.829 -2.04343 -0.324288 0
M  V30 4838 C 467.244 -1.16859 -1.48289 0
M  V30 4839 O 466.601 -0.192018 -1.81487 0
M  V30 4840 C 466.652 -3.52756 -0.79026 0
M  V30 4841 O 466.373 -4.36913 0.322213 0
M  V30 4842 C 467.874 -4.18161 -1.4716 0
M  V30 4843 H 465.094 -0.667135 -0.0719173 0
M  V30 4844 H 467.638 -1.99981 0.427529 0
M  V30 4845 H 465.793 -3.57511 -1.49213 0
M  V30 4846 H 466.207 -5.24486 -0.0387372 0
M  V30 4847 H 467.681 -5.23562 -1.7489 0
M  V30 4848 H 468.158 -3.67282 -2.40834 0
M  V30 4849 H 468.764 -4.17454 -0.813178 0
M  V30 4850 N 467.08 -0.0183926 -1.57589 0
M  V30 4851 C 468.326 0.657813 -1.92469 0
M  V30 4852 C 468.681 1.70349 -0.894375 0
M  V30 4853 O 467.974 1.91384 0.0910389 0
M  V30 4854 C 468.168 1.32676 -3.31861 0
M  V30 4855 C 467.997 0.347403 -4.48356 0
M  V30 4856 C 466.767 -0.0488653 -5.05276 0
M  V30 4857 C 468.965 -0.393931 -5.12789 0
M  V30 4858 N 466.947 -1.02451 -6.05291 0
M  V30 4859 C 468.318 -1.22367 -6.07804 0
M  V30 4860 C 470.373 -0.455789 -4.95809 0
M  V30 4861 C 469.076 -2.10966 -6.87667 0
M  V30 4862 C 471.102 -1.32908 -5.76272 0
M  V30 4863 C 470.464 -2.14662 -6.70894 0
M  V30 4864 H 466.563 0.21335 -0.752334 0
M  V30 4865 H 469.147 -0.0830547 -1.94523 0
M  V30 4866 H 467.318 2.03782 -3.30647 0
M  V30 4867 H 469.05 1.95913 -3.54119 0
M  V30 4868 H 465.805 0.323356 -4.72495 0
M  V30 4869 H 466.229 -1.50826 -6.59985 0
M  V30 4870 H 470.871 0.162017 -4.22489 0
M  V30 4871 H 468.589 -2.73807 -7.603 0
M  V30 4872 H 472.175 -1.38109 -5.6517 0
M  V30 4873 H 471.055 -2.81143 -7.32071 0
M  V30 4874 N 468.558 1.5553 0.254621 0
M  V30 4875 C 469.488 1.9268 1.31897 0
M  V30 4876 C 470.469 0.790797 1.506 0
M  V30 4877 O 471.654 1.05045 1.63337 0
M  V30 4878 C 468.784 2.21477 2.67517 0
M  V30 4879 C 467.738 3.37256 2.63519 0
M  V30 4880 C 467.064 3.51576 4.02862 0
M  V30 4881 C 468.364 4.73157 2.21179 0
M  V30 4882 H 470.058 2.81832 1.01051 0
M  V30 4883 H 467.604 1.35599 0.484662 0
M  V30 4884 H 469.557 2.46055 3.42104 0
M  V30 4885 H 468.281 1.29144 2.99982 0
M  V30 4886 H 466.94 3.12675 1.9139 0
M  V30 4887 H 466.588 2.56676 4.32581 0
M  V30 4888 H 466.288 4.2943 4.01078 0
M  V30 4889 H 467.812 3.78467 4.79161 0
M  V30 4890 H 469.226 4.97158 2.85494 0
M  V30 4891 H 467.623 5.54058 2.30521 0
M  V30 4892 H 468.693 4.70739 1.16332 0
M  V30 4893 N 470.036 -0.519951 1.48776 0
M  V30 4894 C 470.946 -1.65025 1.66745 0
M  V30 4895 C 471.962 -1.6508 0.549954 0
M  V30 4896 O 473.138 -1.83848 0.822295 0
M  V30 4897 C 470.203 -3.0146 1.71238 0
M  V30 4898 C 469.264 -3.12182 2.94688 0
M  V30 4899 C 468.497 -4.42109 2.98958 0
M  V30 4900 O 468.72 -5.29799 2.1135 0
M  V30 4901 O 467.654 -4.57406 3.91233 0
M  V30 4902 H 471.48 -1.52801 2.62461 0
M  V30 4903 H 469.065 -0.694157 1.32294 0
M  V30 4904 H 470.947 -3.82584 1.76657 0
M  V30 4905 H 469.622 -3.13988 0.786975 0
M  V30 4906 H 468.529 -2.30316 2.94797 0
M  V30 4907 H 469.862 -3.04574 3.86646 0
M  V30 4908 N 471.514 -1.37532 -0.769588 0
M  V30 4909 C 472.477 -1.33292 -1.86456 0
M  V30 4910 C 473.477 -0.236537 -1.59051 0
M  V30 4911 O 474.667 -0.492511 -1.67093 0
M  V30 4912 C 471.799 -1.07118 -3.23633 0
M  V30 4913 H 472.992 -2.30692 -1.91628 0
M  V30 4914 H 470.545 -1.22593 -0.969572 0
M  V30 4915 H 471.28 -0.102578 -3.24138 0
M  V30 4916 H 471.065 -1.86479 -3.44917 0
M  V30 4917 H 472.555 -1.06806 -4.03711 0
M  V30 4918 N 472.992 0.995999 -1.22138 0
M  V30 4919 C 474.238 1.73767 -1.04561 0
M  V30 4920 C 474.571 1.89633 0.418698 0
M  V30 4921 O 473.846 1.43723 1.3105 0
M  V30 4922 C 474.129 3.14505 -1.75382 0
M  V30 4923 C 473.982 3.06306 -3.29388 0
M  V30 4924 C 475.301 4.13615 -1.50369 0
M  V30 4925 H 472.42 0.630728 -0.38125 0
M  V30 4926 H 475.062 1.16057 -1.50435 0
M  V30 4927 H 473.212 3.63775 -1.36383 0
M  V30 4928 H 474.884 2.64681 -3.77812 0
M  V30 4929 H 473.127 2.43186 -3.59226 0
M  V30 4930 H 473.798 4.05884 -3.74116 0
M  V30 4931 H 476.274 3.73089 -1.84239 0
M  V30 4932 H 475.15 5.10212 -2.02421 0
M  V30 4933 H 475.411 4.39949 -0.435611 0
M  V30 4934 N 474.47 1.03057 1.19235 0
M  V30 4935 C 475.719 0.72326 1.88287 0
M  V30 4936 C 476.032 -0.751333 1.80594 0
M  V30 4937 O 477.238 -1.17176 2.44912 0
M  V30 4938 C 475.694 1.24338 3.3774 0
M  V30 4939 C 475.302 2.74587 3.53986 0
M  V30 4940 C 477.046 1.01213 4.12257 0
M  V30 4941 C 474.953 3.20009 4.97341 0
M  V30 4942 H 473.883 0.266848 0.705201 0
M  V30 4943 H 476.534 1.24509 1.34795 0
M  V30 4944 H 474.916 0.649457 3.90638 0
M  V30 4945 H 476.09 3.39649 3.11408 0
M  V30 4946 H 474.405 2.9601 2.9286 0
M  V30 4947 H 477.002 1.32675 5.17978 0
M  V30 4948 H 477.345 -0.051001 4.16269 0
M  V30 4949 H 477.878 1.57014 3.65501 0
M  V30 4950 H 474.617 4.25659 4.98493 0
M  V30 4951 H 474.137 2.59676 5.40674 0
M  V30 4952 H 475.816 3.13447 5.66003 0
M  V30 4953 N 475.948 -1.35272 0.808662 0
M  V30 4954 C 477.195 -1.98709 0.390003 0
M  V30 4955 C 477.523 -1.64148 -1.04335 0
M  V30 4956 O 476.778 -0.897797 -1.73891 0
M  V30 4957 C 477.077 -3.53556 0.522798 0
M  V30 4958 C 476.743 -4.0799 1.91977 0
M  V30 4959 C 475.405 -4.22568 2.30195 0
M  V30 4960 C 477.757 -4.37442 2.83361 0
M  V30 4961 C 475.085 -4.63918 3.59162 0
M  V30 4962 C 477.437 -4.80232 4.11776 0
M  V30 4963 C 476.101 -4.93016 4.49991 0
M  V30 4964 H 475.371 -0.727127 0.142712 0
M  V30 4965 H 478.018 -1.6145 1.02985 0
M  V30 4966 H 476.323 -3.91287 -0.200494 0
M  V30 4967 H 478.02 -4.00598 0.179608 0
M  V30 4968 H 474.61 -3.97096 1.61284 0
M  V30 4969 H 478.794 -4.25731 2.55083 0
M  V30 4970 H 474.05 -4.72005 3.88615 0
M  V30 4971 H 478.224 -5.01982 4.82687 0
M  V30 4972 H 475.851 -5.24814 5.49976 0
M  V30 4973 N 477.426 -0.562348 -1.47226 0
M  V30 4974 C 478.356 0.170627 -2.32876 0
M  V30 4975 C 479.337 0.903748 -1.44106 0
M  V30 4976 O 480.522 0.883206 -1.72954 0
M  V30 4977 C 477.652 1.19786 -3.25989 0
M  V30 4978 C 476.606 0.580875 -4.2404 0
M  V30 4979 C 475.932 1.71311 -5.06514 0
M  V30 4980 C 477.232 -0.468714 -5.20193 0
M  V30 4981 H 478.926 -0.544441 -2.94408 0
M  V30 4982 H 476.472 -0.263271 -1.41573 0
M  V30 4983 H 478.425 1.71884 -3.84752 0
M  V30 4984 H 477.149 1.94294 -2.62521 0
M  V30 4985 H 475.808 0.0811538 -3.6651 0
M  V30 4986 H 475.456 2.44736 -4.39447 0
M  V30 4987 H 475.156 1.30604 -5.72902 0
M  V30 4988 H 476.68 2.23725 -5.68137 0
M  V30 4989 H 478.094 -0.0336028 -5.7329 0
M  V30 4990 H 476.491 -0.794957 -5.94811 0
M  V30 4991 H 477.561 -1.36269 -4.65359 0
M  V30 4992 N 478.904 1.54736 -0.299062 0
M  V30 4993 C 480.153 1.99279 0.311549 0
M  V30 4994 C 480.466 1.19107 1.55154 0
M  V30 4995 O 481.672 1.53908 2.23662 0
M  V30 4996 C 480.128 3.54768 0.605632 0
M  V30 4997 C 479.736 4.43746 -0.615914 0
M  V30 4998 C 481.48 4.07841 1.17754 0
M  V30 4999 C 479.387 5.90663 -0.29509 0
M  V30 5000 H 478.317 0.744359 0.120187 0
M  V30 5001 H 480.968 1.78919 -0.407464 0
M  V30 5002 H 479.35 3.71021 1.38419 0
M  V30 5003 H 480.524 4.39267 -1.39218 0
M  V30 5004 H 478.839 4.01434 -1.10633 0
M  V30 5005 H 481.436 5.15174 1.43179 0
M  V30 5006 H 481.779 3.58324 2.11918 0
M  V30 5007 H 482.312 3.95123 0.460739 0
M  V30 5008 H 479.051 6.44325 -1.20524 0
M  V30 5009 H 478.571 5.98155 0.44394 0
M  V30 5010 H 480.25 6.46916 0.104048 0
M  V30 5011 N 480.382 0.0267497 1.57577 0
M  V30 5012 C 481.63 -0.651116 1.91324 0
M  V30 5013 C 481.951 -1.72804 0.90353 0
M  V30 5014 O 481.221 -1.95822 -0.0552946 0
M  V30 5015 H 479.801 -0.243491 0.706202 0
M  V30 5016 H 482.463 0.0739935 1.94759 0
M  V30 5017 H 481.559 -1.10536 2.9187 0
M  V30 5018 N 481.861 -1.55662 -0.24637 0
M  V30 5019 C 483.11 -1.7672 -0.972254 0
M  V30 5020 C 483.423 -0.59078 -1.86465 0
M  V30 5021 O 484.629 -0.684391 -2.62732 0
M  V30 5022 C 483.085 -3.12869 -1.7788 0
M  V30 5023 C 482.693 -4.38161 -0.933768 0
M  V30 5024 C 484.437 -3.43265 -2.49738 0
M  V30 5025 C 482.344 -5.6534 -1.73623 0
M  V30 5026 H 481.274 -0.658795 -0.366749 0
M  V30 5027 H 483.925 -1.82092 -0.226902 0
M  V30 5028 H 482.307 -3.01606 -2.56612 0
M  V30 5029 H 483.481 -4.60413 -0.188736 0
M  V30 5030 H 481.796 -4.15102 -0.328488 0
M  V30 5031 H 484.393 -4.35501 -3.10231 0
M  V30 5032 H 484.736 -2.64614 -3.2138 0
M  V30 5033 H 485.269 -3.55746 -1.78016 0
M  V30 5034 H 482.008 -6.46814 -1.06354 0
M  V30 5035 H 481.528 -5.47188 -2.45653 0
M  V30 5036 H 483.207 -6.04616 -2.30323 0
M  V30 5037 N 483.339 0.512053 -1.4905 0
M  V30 5038 C 484.588 1.26343 -1.57227 0
M  V30 5039 C 484.901 1.93876 -0.259155 0
M  V30 5040 O 486.107 2.70612 -0.219358 0
M  V30 5041 C 484.563 2.29343 -2.77362 0
M  V30 5042 C 484.171 1.67799 -4.15388 0
M  V30 5043 C 485.915 3.05378 -2.94864 0
M  V30 5044 C 483.822 2.68845 -5.2676 0
M  V30 5045 H 482.752 0.475231 -0.585382 0
M  V30 5046 H 485.403 0.53862 -1.75417 0
M  V30 5047 H 483.785 3.04938 -2.52643 0
M  V30 5048 H 484.959 0.982715 -4.50199 0
M  V30 5049 H 483.274 1.04194 -4.03153 0
M  V30 5050 H 485.871 3.80921 -3.75238 0
M  V30 5051 H 486.214 3.62327 -2.05 0
M  V30 5052 H 486.747 2.36898 -3.19569 0
M  V30 5053 H 483.486 2.16692 -6.18647 0
M  V30 5054 H 483.006 3.36647 -4.96416 0
M  V30 5055 H 484.685 3.31487 -5.5563 0
M  V30 5056 N 484.817 1.37938 0.762283 0
M  V30 5057 C 486.063 1.33866 1.52341 0
M  V30 5058 C 486.396 -0.0738961 1.94059 0
M  V30 5059 O 485.671 -1.03326 1.64785 0
M  V30 5060 C 485.954 2.28644 2.78197 0
M  V30 5061 C 485.807 3.78722 2.42672 0
M  V30 5062 C 487.126 2.21702 3.80179 0
M  V30 5063 H 484.245 0.487593 0.55265 0
M  V30 5064 H 486.887 1.68717 0.873767 0
M  V30 5065 H 485.037 1.99055 3.33631 0
M  V30 5066 H 486.709 4.18948 1.93081 0
M  V30 5067 H 484.952 3.96827 1.75244 0
M  V30 5068 H 485.623 4.40486 3.3268 0
M  V30 5069 H 488.099 2.47805 3.34263 0
M  V30 5070 H 486.975 2.90143 4.65949 0
M  V30 5071 H 487.236 1.21301 4.25133 0
M  V30 5072 N 486.295 -0.989507 1.22664 0
M  V30 5073 C 487.258 -2.06183 1.00106 0
M  V30 5074 C 488.258 -1.60765 -0.0337726 0
M  V30 5075 O 489.448 -1.72989 0.205072 0
M  V30 5076 C 486.58 -3.37021 0.51279 0
M  V30 5077 H 487.773 -2.27629 1.95256 0
M  V30 5078 H 485.326 -1.16158 1.0458 0
M  V30 5079 H 486.061 -3.21261 -0.442917 0
M  V30 5080 H 485.846 -3.71323 1.25942 0
M  V30 5081 H 487.336 -4.1591 0.375315 0
M  V30 5082 N 487.773 -1.03688 -1.18687 0
M  V30 5083 C 488.721 -0.618292 -2.24232 0
M  V30 5084 C 489.715 0.353045 -1.6568 0
M  V30 5085 O 490.921 0.220749 -1.78641 0
M  V30 5086 H 487.296 -0.181711 -0.729716 0
M  V30 5087 H 489.267 -1.51893 -2.56848 0
M  V30 5088 C 488.016 0.00677342 -3.47699 0
M  V30 5089 H 487.339 -0.731692 -3.93047 0
M  V30 5090 H 488.779 0.262492 -4.23187 0
M  V30 5091 C 487.238 1.25572 -3.12623 0
M  V30 5092 O 487.768 2.34691 -3.26011 0
M  V30 5093 N 485.974 1.14755 -2.66982 0
M  V30 5094 H 485.521 0.259601 -2.56289 0
M  V30 5095 H 485.479 1.98412 -2.43885 0
M  V30 5096 N 489.251 1.34841 -0.815825 0
M  V30 5097 C 490.497 1.98793 -0.401129 0
M  V30 5098 C 490.83 1.64548 1.03139 0
M  V30 5099 O 490.105 0.913487 1.71714 0
M  V30 5100 C 490.388 3.55143 -0.595409 0
M  V30 5101 C 490.241 3.99155 -2.07352 0
M  V30 5102 C 491.56 4.40092 -0.0268823 0
M  V30 5103 H 488.679 0.722146 -0.14722 0
M  V30 5104 H 491.321 1.59847 -1.02707 0
M  V30 5105 H 489.471 3.8845 -0.0625779 0
M  V30 5106 H 491.143 3.76216 -2.66945 0
M  V30 5107 H 489.386 3.49726 -2.56659 0
M  V30 5108 H 490.057 5.07971 -2.1603 0
M  V30 5109 H 492.533 4.13298 -0.482042 0
M  V30 5110 H 491.409 5.48562 -0.19267 0
M  V30 5111 H 491.67 4.29016 1.06759 0
M  V30 5112 N 490.729 0.570148 1.46925 0
M  V30 5113 C 492.14 0.1402 1.86173 0
M  V30 5114 C 492.491 -1.29347 1.47526 0
M  V30 5115 O 491.616 -1.97508 0.884292 0
M  V30 5116 C 492.211 0.247661 3.37894 0
M  V30 5117 C 490.77 -0.127332 3.76185 0
M  V30 5118 C 489.917 0.589349 2.70965 0
M  V30 5119 H 492.868 0.779117 1.38259 0
M  V30 5120 H 492.889 -0.530341 3.76786 0
M  V30 5121 H 492.401 1.29121 3.65991 0
M  V30 5122 H 490.502 -1.17149 3.53704 0
M  V30 5123 H 490.615 0.240238 4.78497 0
M  V30 5124 H 488.979 0.0309824 2.54681 0
M  V30 5125 H 489.762 1.6343 3.01903 0
M  V30 5126 N 492.207 -1.54576 0.307264 0
M  V30 5127 C 493.117 -2.27435 -0.57536 0
M  V30 5128 C 494.133 -1.31183 -1.14311 0
M  V30 5129 O 495.309 -1.64175 -1.16656 0
M  V30 5130 C 492.374 -3.00566 -1.72803 0
M  V30 5131 C 491.435 -4.12369 -1.19373 0
M  V30 5132 C 490.668 -4.82003 -2.29147 0
M  V30 5133 O 490.891 -4.51038 -3.49171 0
M  V30 5134 O 489.825 -5.69271 -1.95485 0
M  V30 5135 H 493.651 -3.03696 0.0158558 0
M  V30 5136 H 491.236 -1.49219 0.0735064 0
M  V30 5137 H 493.118 -3.46416 -2.39946 0
M  V30 5138 H 491.793 -2.27195 -2.30574 0
M  V30 5139 H 490.7 -3.70905 -0.487851 0
M  V30 5140 H 492.033 -4.87736 -0.661376 0
M  V30 5141 N 493.685 -0.035106 -1.57561 0
M  V30 5142 C 494.933 0.64096 -1.91667 0
M  V30 5143 C 495.254 1.72323 -0.912681 0
M  V30 5144 O 494.524 1.95849 0.0449089 0
M  V30 5145 H 493.104 0.239743 -0.707483 0
M  V30 5146 H 495.766 -0.084321 -1.94718 0
M  V30 5147 H 494.862 1.08987 -2.92452 0
M  V30 5148 N 495.163 1.55791 0.238111 0
M  V30 5149 C 496.093 1.94068 1.29846 0
M  V30 5150 C 497.074 0.806726 1.49753 0
M  V30 5151 O 498.259 1.06772 1.62214 0
M  V30 5152 C 495.389 2.24302 2.65153 0
M  V30 5153 C 494.343 3.40032 2.59927 0
M  V30 5154 C 493.669 3.55829 3.99111 0
M  V30 5155 C 494.969 4.75476 2.16148 0
M  V30 5156 H 496.663 2.82887 0.980563 0
M  V30 5157 H 494.209 1.36105 0.470253 0
M  V30 5158 H 496.162 2.4967 3.39475 0
M  V30 5159 H 494.886 1.32318 2.98596 0
M  V30 5160 H 493.545 3.14687 1.88063 0
M  V30 5161 H 493.193 2.6125 4.29834 0
M  V30 5162 H 492.893 4.3366 3.96501 0
M  V30 5163 H 494.417 3.83528 4.7512 0
M  V30 5164 H 495.831 5.00158 2.80205 0
M  V30 5165 H 494.228 5.56472 2.24631 0
M  V30 5166 H 495.298 4.71946 1.11333 0
M  V30 5167 N 496.642 -0.504142 1.49319 0
M  V30 5168 C 497.572 -1.61473 1.68667 0
M  V30 5169 C 498.553 -1.61455 0.535378 0
M  V30 5170 O 499.738 -1.78245 0.770868 0
M  V30 5171 C 496.868 -2.99971 1.75028 0
M  V30 5172 C 495.822 -3.14854 2.89916 0
M  V30 5173 C 495.148 -4.54671 2.81387 0
M  V30 5174 C 496.448 -2.95176 4.30893 0
M  V30 5175 H 498.142 -1.45535 2.61648 0
M  V30 5176 H 495.688 -0.698711 1.25913 0
M  V30 5177 H 497.641 -3.77562 1.8715 0
M  V30 5178 H 496.365 -3.1699 0.786441 0
M  V30 5179 H 495.024 -2.39687 2.77391 0
M  V30 5180 H 494.672 -4.68562 1.82917 0
M  V30 5181 H 494.372 -4.6557 3.58494 0
M  V30 5182 H 495.896 -5.34327 2.95512 0
M  V30 5183 H 497.31 -3.62538 4.44116 0
M  V30 5184 H 495.707 -3.17549 5.09198 0
M  V30 5185 H 496.777 -1.91332 4.45556 0
M  V30 5186 N 498.12 -1.38341 -0.754957 0
M  V30 5187 C 499.083 -1.35262 -1.85032 0
M  V30 5188 C 500.083 -0.253393 -1.58791 0
M  V30 5189 O 501.273 -0.510205 -1.66561 0
M  V30 5190 C 498.405 -1.10544 -3.22479 0
M  V30 5191 H 499.598 -2.32712 -1.8917 0
M  V30 5192 H 497.151 -1.23614 -0.956515 0
M  V30 5193 H 497.886 -0.136952 -3.24011 0
M  V30 5194 H 497.671 -1.90127 -3.4292 0
M  V30 5195 H 499.161 -1.11082 -4.02555 0
M  V30 5196 N 499.598 0.982988 -1.23187 0
M  V30 5197 C 500.826 1.75921 -1.08901 0
M  V30 5198 C 501.241 1.85341 0.359719 0
M  V30 5199 O 500.598 1.33072 1.24892 0
M  V30 5200 C 500.649 3.18742 -1.70545 0
M  V30 5201 O 500.37 3.09814 -3.09753 0
M  V30 5202 C 501.871 4.1277 -1.61667 0
M  V30 5203 H 499.091 0.552166 -0.381252 0
M  V30 5204 H 501.635 1.23516 -1.62985 0
M  V30 5205 H 499.79 3.68182 -1.20501 0
M  V30 5206 H 500.204 3.99703 -3.39614 0
M  V30 5207 H 501.678 5.10697 -2.09506 0
M  V30 5208 H 502.155 4.3542 -0.575009 0
M  V30 5209 H 502.761 3.69232 -2.11064 0
M  V30 5210 N 501.076 1.04316 1.18135 0
M  V30 5211 C 502.322 0.749128 1.88457 0
M  V30 5212 C 502.655 -0.72149 1.803 0
M  V30 5213 O 501.93 -1.52676 1.205 0
M  V30 5214 C 502.213 1.21905 3.38838 0
M  V30 5215 C 502.066 2.75195 3.55792 0
M  V30 5216 C 503.385 0.811085 4.32561 0
M  V30 5217 H 500.504 0.273611 0.684329 0
M  V30 5218 H 503.146 1.29561 1.38975 0
M  V30 5219 H 501.296 0.754137 3.8111 0
M  V30 5220 H 502.968 3.29743 3.22595 0
M  V30 5221 H 501.211 3.14899 2.98364 0
M  V30 5222 H 501.882 3.03135 4.61317 0
M  V30 5223 H 504.358 1.21118 3.98082 0
M  V30 5224 H 503.234 1.16761 5.36338 0
M  V30 5225 H 503.495 -0.285596 4.41177 0
M  V30 5226 N 502.554 -1.34406 0.822964 0
M  V30 5227 C 503.782 -2.02508 0.424039 0
M  V30 5228 C 504.197 -1.61975 -0.970022 0
M  V30 5229 O 503.554 -0.825228 -1.62777 0
M  V30 5230 C 503.605 -3.57789 0.516657 0
M  V30 5231 O 503.326 -3.96853 1.85577 0
M  V30 5232 C 504.827 -4.43157 0.112637 0
M  V30 5233 H 502.047 -0.649063 0.170173 0
M  V30 5234 H 504.591 -1.7168 1.11113 0
M  V30 5235 H 502.746 -3.87207 -0.122353 0
M  V30 5236 H 503.16 -4.91538 1.83005 0
M  V30 5237 H 504.634 -5.51527 0.228526 0
M  V30 5238 H 505.111 -4.28939 -0.943837 0
M  V30 5239 H 505.717 -4.19067 0.725449 0
M  V30 5240 N 504.032 -0.577932 -1.46621 0
M  V30 5241 C 505.278 -0.0617793 -2.02706 0
M  V30 5242 C 505.611 1.29294 -1.44903 0
M  V30 5243 O 504.886 1.8461 -0.61232 0
M  V30 5244 C 505.169 0.00911824 -3.60099 0
M  V30 5245 C 505.022 -1.37416 -4.28295 0
M  V30 5246 C 506.341 0.712159 -4.343 0
M  V30 5247 H 503.46 -0.0239246 -0.736612 0
M  V30 5248 H 506.102 -0.744211 -1.74818 0
M  V30 5249 H 504.252 0.590292 -3.83989 0
M  V30 5250 H 505.924 -2.00013 -4.15683 0
M  V30 5251 H 504.167 -1.94319 -3.87843 0
M  V30 5252 H 504.838 -1.27707 -5.37024 0
M  V30 5253 H 507.314 0.218486 -4.15526 0
M  V30 5254 H 506.19 0.730782 -5.44014 0
M  V30 5255 H 506.451 1.77251 -4.05012 0
M  V30 5256 N 505.51 1.54411 -0.315457 0
M  V30 5257 C 506.75 2.02329 0.290236 0
M  V30 5258 C 507.114 1.19878 1.49977 0
M  V30 5259 O 508.315 1.57562 2.17779 0
M  V30 5260 C 506.586 3.51912 0.623937 0
M  V30 5261 S 508.145 4.21775 1.21044 0
M  V30 5262 H 504.963 0.705499 0.0882739 0
M  V30 5263 H 507.565 1.90328 -0.446694 0
M  V30 5264 H 506.269 4.09546 -0.264624 0
M  V30 5265 H 505.8 3.67977 1.39128 0
M  V30 5266 H 507.815 4.28757 2.49764 0
M  V30 5267 N 506.988 0.0434614 1.5754 0
M  V30 5268 C 507.918 -0.931651 2.14109 0
M  V30 5269 C 508.899 -1.32971 1.06079 0
M  V30 5270 O 510.084 -1.40579 1.33982 0
M  V30 5271 C 507.214 -2.20914 2.67982 0
M  V30 5272 C 506.168 -1.95139 3.80926 0
M  V30 5273 C 505.494 -3.29276 4.21285 0
M  V30 5274 C 506.794 -1.27913 5.06395 0
M  V30 5275 H 508.488 -0.460497 2.95837 0
M  V30 5276 H 506.034 -0.220058 1.42309 0
M  V30 5277 H 507.987 -2.89522 3.06194 0
M  V30 5278 H 506.711 -2.70221 1.83434 0
M  V30 5279 H 505.37 -1.28945 3.43175 0
M  V30 5280 H 505.018 -3.76369 3.33699 0
M  V30 5281 H 504.718 -3.12831 4.97404 0
M  V30 5282 H 506.242 -3.99129 4.62091 0
M  V30 5283 H 507.656 -1.86544 5.42102 0
M  V30 5284 H 506.053 -1.2182 5.87605 0
M  V30 5285 H 507.123 -0.254066 4.84234 0
M  V30 5286 N 508.466 -1.55915 -0.229846 0
M  V30 5287 C 509.694 -1.82617 -0.972562 0
M  V30 5288 C 510.109 -0.621488 -1.78278 0
M  V30 5289 O 509.466 0.409956 -1.77836 0
M  V30 5290 C 509.517 -3.0774 -1.89679 0
M  V30 5291 O 509.238 -4.23559 -1.11934 0
M  V30 5292 C 510.739 -3.47368 -2.75409 0
M  V30 5293 H 507.959 -0.60727 -0.285419 0
M  V30 5294 H 510.503 -2.02996 -0.247579 0
M  V30 5295 H 508.658 -2.89361 -2.57583 0
M  V30 5296 H 509.072 -4.94586 -1.74599 0
M  V30 5297 H 510.546 -4.37977 -3.35977 0
M  V30 5298 H 511.023 -2.68737 -3.47386 0
M  V30 5299 H 511.629 -3.68158 -2.12931 0
M  V30 5300 N 509.944 0.496216 -1.49584 0
M  V30 5301 C 510.874 1.60576 -1.69521 0
M  V30 5302 C 511.855 1.61169 -0.543933 0
M  V30 5303 O 513.04 1.77834 -0.78031 0
M  V30 5304 C 510.17 2.99038 -1.76616 0
M  V30 5305 C 509.124 3.13312 -2.91581 0
M  V30 5306 C 508.45 4.53172 -2.83794 0
M  V30 5307 C 509.75 2.92886 -4.32452 0
M  V30 5308 H 511.444 1.44146 -2.62416 0
M  V30 5309 H 508.99 0.692024 -1.26282 0
M  V30 5310 H 510.943 3.76564 -1.8915 0
M  V30 5311 H 509.667 3.16568 -0.80324 0
M  V30 5312 H 508.326 2.38213 -2.78658 0
M  V30 5313 H 507.974 4.67585 -1.854 0
M  V30 5314 H 507.674 4.63662 -3.60958 0
M  V30 5315 H 509.198 5.32752 -2.98342 0
M  V30 5316 H 510.612 3.60178 -4.46032 0
M  V30 5317 H 509.009 3.14844 -5.10875 0
M  V30 5318 H 510.079 1.88966 -4.46565 0
M  V30 5319 N 511.423 1.38739 0.74761 0
M  V30 5320 C 512.651 1.38521 1.53686 0
M  V30 5321 C 513.066 -0.0235129 1.88785 0
M  V30 5322 O 512.423 -0.991662 1.53207 0
M  V30 5323 C 512.474 2.24641 2.83229 0
M  V30 5324 O 512.195 3.60026 2.49625 0
M  V30 5325 C 513.696 2.32669 3.77333 0
M  V30 5326 H 510.916 0.473589 0.475347 0
M  V30 5327 H 513.46 1.82395 0.924786 0
M  V30 5328 H 511.615 1.84213 3.40799 0
M  V30 5329 H 512.029 4.05435 3.3275 0
M  V30 5330 H 513.503 2.97201 4.65162 0
M  V30 5331 H 513.98 1.3421 4.18192 0
M  V30 5332 H 514.586 2.73512 3.25685 0
M  V30 5333 N 512.901 -0.976442 1.23707 0
M  V30 5334 C 513.864 -2.0511 1.02287 0
M  V30 5335 C 514.864 -1.60791 -0.0167195 0
M  V30 5336 O 516.054 -1.72761 0.223408 0
M  V30 5337 C 513.186 -3.36458 0.548507 0
M  V30 5338 H 514.379 -2.25545 1.9766 0
M  V30 5339 H 511.932 -1.15042 1.05806 0
M  V30 5340 H 512.667 -3.21713 -0.408818 0
M  V30 5341 H 512.452 -3.69967 1.29874 0
M  V30 5342 H 513.942 -4.15489 0.419406 0
M  V30 5343 N 514.379 -1.04941 -1.1758 0
M  V30 5344 C 515.326 -0.648155 -2.21512 0
M  V30 5345 C 516.296 0.348431 -1.62404 0
M  V30 5346 O 517.481 0.240419 -1.89279 0
M  V30 5347 C 514.621 -0.0264291 -3.4509 0
M  V30 5348 C 513.734 -1.07154 -4.185 0
M  V30 5349 C 512.869 -0.417403 -5.29558 0
M  V30 5350 C 511.908 -1.447 -5.94751 0
M  V30 5351 N 511.045 -0.817203 -6.97328 0
M  V30 5352 H 515.885 -1.53891 -2.55189 0
M  V30 5353 H 513.422 -0.769699 -1.25356 0
M  V30 5354 H 515.38 0.351456 -4.15717 0
M  V30 5355 H 514.01 0.827802 -3.12005 0
M  V30 5356 H 513.062 -1.56728 -3.46613 0
M  V30 5357 H 514.374 -1.8532 -4.63096 0
M  V30 5358 H 513.528 0.0142061 -6.06698 0
M  V30 5359 H 512.267 0.396265 -4.86087 0
M  V30 5360 H 511.272 -1.88865 -5.16343 0
M  V30 5361 H 512.497 -2.26252 -6.40302 0
M  V30 5362 H 510.443 -0.0239995 -6.55996 0
M  V30 5363 H 510.36 -1.53644 -7.40223 0
M  V30 5364 H 511.628 -0.410283 -7.7842 0
M  V30 5365 N 515.857 1.33968 -0.830081 0
M  V30 5366 C 517.273 1.51003 -0.516742 0
M  V30 5367 C 517.473 1.77286 0.957694 0
M  V30 5368 O 516.529 1.82797 1.74188 0
M  V30 5369 C 517.842 2.67036 -1.38247 0
M  V30 5370 C 519.39 2.80919 -1.38034 0
M  V30 5371 C 519.865 4.00004 -2.23071 0
M  V30 5372 N 521.356 4.07224 -2.20733 0
M  V30 5373 C 522.091 4.98541 -2.83275 0
M  V30 5374 N 521.587 5.95033 -3.54835 0
M  V30 5375 N 523.38 4.91469 -2.72791 0
M  V30 5376 H 515.531 1.15168 -1.78466 0
M  V30 5377 H 517.794 0.565443 -0.760906 0
M  V30 5378 H 517.5 2.54266 -2.42985 0
M  V30 5379 H 517.374 3.62226 -1.05225 0
M  V30 5380 H 519.761 2.93127 -0.340713 0
M  V30 5381 H 519.842 1.86517 -1.75057 0
M  V30 5382 H 519.486 3.88557 -3.27087 0
M  V30 5383 H 519.416 4.93634 -1.83394 0
M  V30 5384 H 521.907 3.38162 -1.68687 0
M  V30 5385 H 522.22 6.61357 -3.99784 0
M  V30 5386 H 520.565 5.95135 -3.58942 0
M  V30 5387 H 523.756 4.15048 -2.16456 0
M  V30 5388 H 523.929 5.62439 -3.21818 0
M  V30 5389 N 517.335 0.585699 1.46312 0
M  V30 5390 C 518.268 -0.194257 2.27372 0
M  V30 5391 C 519.246 -0.894116 1.3581 0
M  V30 5392 O 520.43 -0.907402 1.65222 0
M  V30 5393 C 517.557 -1.27901 3.13622 0
M  V30 5394 C 516.603 -0.684666 4.20969 0
M  V30 5395 S 517.436 0.490745 5.33247 0
M  V30 5396 C 518.592 -0.595137 6.23064 0
M  V30 5397 H 518.825 0.493515 2.93175 0
M  V30 5398 H 516.358 0.372666 1.49835 0
M  V30 5399 H 518.316 -1.90008 3.63878 0
M  V30 5400 H 516.977 -1.93875 2.47126 0
M  V30 5401 H 516.17 -1.50015 4.81156 0
M  V30 5402 H 515.772 -0.139204 3.73741 0
M  V30 5403 H 518.064 -1.48002 6.61137 0
M  V30 5404 H 519.007 -0.0299446 7.08094 0
M  V30 5405 H 519.415 -0.900627 5.57269 0
M  V30 5406 N 518.813 -1.54241 0.323641 0
M  V30 5407 C 519.776 -2.22997 -0.529602 0
M  V30 5408 C 520.776 -1.22345 -1.04347 0
M  V30 5409 O 521.966 -1.46924 -0.935889 0
M  V30 5410 C 519.098 -2.93409 -1.73562 0
M  V30 5411 H 520.291 -2.99815 0.0714518 0
M  V30 5412 H 517.844 -1.56121 0.0747258 0
M  V30 5413 H 518.579 -2.20729 -2.37591 0
M  V30 5414 H 518.364 -3.67217 -1.37456 0
M  V30 5415 H 519.854 -3.45794 -2.34128 0
M  V30 5416 N 520.291 -0.0518155 -1.57515 0
M  V30 5417 C 521.707 0.304735 -1.56664 0
M  V30 5418 C 521.907 1.71395 -1.05953 0
M  V30 5419 O 520.963 2.42123 -0.716414 0
M  V30 5420 C 522.276 0.132614 -3.00407 0
M  V30 5421 C 523.824 0.20367 -3.12337 0
M  V30 5422 C 524.299 0.0600706 -4.57961 0
M  V30 5423 N 525.79 0.116326 -4.63054 0
M  V30 5424 C 526.525 0.0293363 -5.73392 0
M  V30 5425 N 526.021 -0.110038 -6.92713 0
M  V30 5426 N 527.814 0.0849651 -5.62036 0
M  V30 5427 H 519.965 -0.973056 -1.888 0
M  V30 5428 H 522.228 -0.377781 -0.869474 0
M  V30 5429 H 521.934 -0.839019 -3.41546 0
M  V30 5430 H 521.808 0.893376 -3.66468 0
M  V30 5431 H 524.195 1.16578 -2.71097 0
M  V30 5432 H 524.276 -0.587857 -2.48954 0
M  V30 5433 H 523.92 -0.898715 -4.99886 0
M  V30 5434 H 523.85 0.87075 -5.19351 0
M  V30 5435 H 526.341 0.22327 -3.7724 0
M  V30 5436 H 526.654 -0.169104 -7.72615 0
M  V30 5437 H 524.999 -0.145132 -6.94848 0
M  V30 5438 H 528.19 0.192411 -4.67704 0
M  V30 5439 H 528.363 0.0137131 -6.47999 0
M  V30 5440 N 521.769 1.56035 0.221574 0
M  V30 5441 C 522.716 1.92413 1.27459 0
M  V30 5442 C 523.686 0.781323 1.46576 0
M  V30 5443 O 524.871 1.03721 1.60145 0
M  V30 5444 C 522.011 2.24617 2.61995 0
M  V30 5445 C 521.124 3.51831 2.50677 0
M  V30 5446 C 520.259 3.73482 3.77736 0
M  V30 5447 C 519.298 4.94211 3.6114 0
M  V30 5448 N 518.435 5.12252 4.80148 0
M  V30 5449 H 523.275 2.82203 0.957355 0
M  V30 5450 H 520.812 1.39676 0.461415 0
M  V30 5451 H 522.77 2.41298 3.40339 0
M  V30 5452 H 521.4 1.38 2.91815 0
M  V30 5453 H 520.452 3.43343 1.63767 0
M  V30 5454 H 521.764 4.40328 2.34334 0
M  V30 5455 H 520.918 3.9026 4.64523 0
M  V30 5456 H 519.657 2.83266 3.97003 0
M  V30 5457 H 518.662 4.77384 2.72736 0
M  V30 5458 H 519.887 5.85912 3.43343 0
M  V30 5459 H 517.833 4.24978 4.99729 0
M  V30 5460 H 517.75 5.94881 4.66532 0
M  V30 5461 H 519.018 5.33465 5.68362 0
M  V30 5462 N 523.247 -0.488276 1.49845 0
M  V30 5463 C 524.195 -1.60917 1.67954 0
M  V30 5464 C 525.189 -1.6038 0.54539 0
M  V30 5465 O 526.395 -1.64736 0.7254 0
M  V30 5466 H 522.77 -0.533658 0.529824 0
M  V30 5467 H 524.741 -1.428 2.62013 0
M  V30 5468 C 523.49 -2.98975 1.77509 0
M  V30 5469 H 522.813 -3.00099 2.6416 0
M  V30 5470 H 524.253 -3.76906 1.9421 0
M  V30 5471 C 522.712 -3.3282 0.522745 0
M  V30 5472 O 523.242 -4.00208 -0.345866 0
M  V30 5473 N 521.448 -2.8808 0.381882 0
M  V30 5474 H 520.995 -2.33415 1.08974 0
M  V30 5475 H 520.953 -3.11091 -0.454929 0
M  V30 5476 N 524.725 -1.39134 -0.740242 0
M  V30 5477 C 525.965 -1.37499 -1.51239 0
M  V30 5478 C 526.329 0.0310084 -1.91975 0
M  V30 5479 O 527.53 0.172319 -2.68247 0
M  V30 5480 C 525.801 -2.31566 -2.72235 0
M  V30 5481 S 527.36 -2.48073 -3.61947 0
M  V30 5482 H 524.178 -0.48768 -0.517387 0
M  V30 5483 H 526.78 -1.75183 -0.867826 0
M  V30 5484 H 525.484 -3.32592 -2.40439 0
M  V30 5485 H 525.015 -1.9508 -3.41625 0
M  V30 5486 H 527.03 -1.71473 -4.6563 0
M  V30 5487 N 526.204 0.969867 -1.24223 0
M  V30 5488 C 527.134 2.08191 -1.05729 0
M  V30 5489 C 528.115 1.70075 0.0290765 0
M  V30 5490 O 529.3 1.93712 -0.137583 0
M  V30 5491 C 526.43 3.40991 -0.658995 0
M  V30 5492 C 525.384 3.93054 -1.69389 0
M  V30 5493 C 524.71 5.22171 -1.15072 0
M  V30 5494 C 526.01 4.21137 -3.08935 0
M  V30 5495 H 527.704 2.23921 -1.98746 0
M  V30 5496 H 525.25 1.07602 -0.956967 0
M  V30 5497 H 527.203 4.18221 -0.51662 0
M  V30 5498 H 525.927 3.25155 0.30686 0
M  V30 5499 H 524.586 3.17977 -1.82444 0
M  V30 5500 H 524.234 5.02694 -0.175539 0
M  V30 5501 H 523.934 5.57973 -1.84229 0
M  V30 5502 H 525.458 6.02013 -1.02042 0
M  V30 5503 H 526.872 4.8908 -2.99121 0
M  V30 5504 H 525.269 4.68163 -3.75425 0
M  V30 5505 H 526.339 3.27996 -3.57137 0
M  V30 5506 N 527.682 1.05563 1.17022 0
M  V30 5507 C 528.928 0.769074 1.87652 0
M  V30 5508 C 529.261 -0.702326 1.81055 0
M  V30 5509 O 528.536 -1.5139 1.22112 0
M  V30 5510 C 528.819 1.25492 3.37526 0
M  V30 5511 C 528.672 2.78953 3.52853 0
M  V30 5512 C 529.991 0.856919 4.31677 0
M  V30 5513 H 527.11 0.280854 0.681388 0
M  V30 5514 H 529.752 1.31027 1.37593 0
M  V30 5515 H 527.902 0.794516 3.80289 0
M  V30 5516 H 529.574 3.33146 3.19079 0
M  V30 5517 H 527.817 3.18046 2.95007 0
M  V30 5518 H 528.488 3.08011 4.58076 0
M  V30 5519 H 530.964 1.25334 3.96775 0
M  V30 5520 H 529.84 1.22443 5.35069 0
M  V30 5521 H 530.101 -0.238787 4.41455 0
M  V30 5522 N 529.16 -1.33526 0.837174 0
M  V30 5523 C 530.107 -2.29248 0.267169 0
M  V30 5524 C 531.077 -1.54252 -0.616071 0
M  V30 5525 O 532.262 -1.82559 -0.554699 0
M  V30 5526 C 529.402 -3.40638 -0.553152 0
M  V30 5527 C 528.515 -4.30548 0.353921 0
M  V30 5528 C 527.65 -5.29051 -0.477339 0
M  V30 5529 C 526.689 -6.106 0.42823 0
M  V30 5530 N 525.826 -7.01152 -0.364801 0
M  V30 5531 H 530.666 -2.77398 1.08877 0
M  V30 5532 H 528.203 -1.36496 0.54838 0
M  V30 5533 H 530.161 -4.03921 -1.04422 0
M  V30 5534 H 528.791 -2.93685 -1.33973 0
M  V30 5535 H 527.843 -3.68001 0.963289 0
M  V30 5536 H 529.155 -4.87631 1.04964 0
M  V30 5537 H 528.309 -5.97853 -1.0323 0
M  V30 5538 H 527.048 -4.72541 -1.2065 0
M  V30 5539 H 526.053 -5.40718 0.995219 0
M  V30 5540 H 527.278 -6.69193 1.15573 0
M  V30 5541 H 525.224 -6.47092 -1.07738 0
M  V30 5542 H 525.141 -7.5551 0.272238 0
M  V30 5543 H 526.409 -7.74263 -0.902054 0
M  V30 5544 N 530.638 -0.59345 -1.46 0
M  V30 5545 C 531.586 0.146268 -2.3214 0
M  V30 5546 C 532.58 0.873743 -1.45128 0
M  V30 5547 O 533.786 0.790912 -1.61693 0
M  V30 5548 H 530.161 0.0660349 -0.749095 0
M  V30 5549 H 532.132 -0.598895 -2.92328 0
M  V30 5550 C 530.881 1.1396 -3.28494 0
M  V30 5551 H 530.204 0.589252 -3.95434 0
M  V30 5552 H 531.644 1.62738 -3.91526 0
M  V30 5553 C 530.103 2.20604 -2.54628 0
M  V30 5554 O 530.633 3.28128 -2.31722 0
M  V30 5555 N 528.839 1.95502 -2.15005 0
M  V30 5556 H 528.386 1.0807 -2.33834 0
M  V30 5557 H 528.344 2.67064 -1.65904 0
M  V30 5558 N 532.116 1.54067 -0.331816 0
M  V30 5559 C 533.046 2.27569 0.522932 0
M  V30 5560 C 534.027 1.28679 1.11247 0
M  V30 5561 O 535.212 1.57504 1.13605 0
M  V30 5562 C 532.342 3.0397 1.67987 0
M  V30 5563 C 531.296 4.10267 1.21924 0
M  V30 5564 C 530.622 4.74555 2.46377 0
M  V30 5565 C 531.922 5.21268 0.32815 0
M  V30 5566 H 533.616 2.99264 -0.0901977 0
M  V30 5567 H 531.162 1.4393 -0.044821 0
M  V30 5568 H 533.115 3.54123 2.28418 0
M  V30 5569 H 531.839 2.29906 2.31971 0
M  V30 5570 H 530.498 3.61009 0.637809 0
M  V30 5571 H 530.146 3.97098 3.08743 0
M  V30 5572 H 529.846 5.46363 2.16243 0
M  V30 5573 H 531.37 5.27487 3.07555 0
M  V30 5574 H 532.784 5.67128 0.838978 0
M  V30 5575 H 531.181 5.99982 0.119228 0
M  V30 5576 H 532.251 4.80673 -0.638839 0
M  V30 5577 N 533.594 0.0601682 1.57485 0
M  V30 5578 C 534.504 -0.926121 2.15546 0
M  V30 5579 C 535.52 -1.33532 1.11558 0
M  V30 5580 O 536.696 -1.4104 1.4377 0
M  V30 5581 C 533.761 -2.17952 2.69625 0
M  V30 5582 C 532.822 -1.82783 3.88444 0
M  V30 5583 C 532.055 -3.02148 4.39935 0
M  V30 5584 O 532.278 -4.15803 3.90466 0
M  V30 5585 O 531.212 -2.82639 5.31412 0
M  V30 5586 H 535.038 -0.462289 3.00161 0
M  V30 5587 H 532.623 -0.162246 1.48516 0
M  V30 5588 H 534.505 -2.91474 3.04337 0
M  V30 5589 H 533.18 -2.63456 1.88077 0
M  V30 5590 H 532.087 -1.06549 3.58606 0
M  V30 5591 H 533.42 -1.42072 4.7125 0
M  V30 5592 N 535.072 -1.5615 -0.213296 0
M  V30 5593 C 536.035 -1.92249 -1.24792 0
M  V30 5594 C 537.035 -0.801828 -1.39382 0
M  V30 5595 O 538.225 -1.06948 -1.37506 0
M  V30 5596 C 535.357 -2.18056 -2.62039 0
M  V30 5597 H 536.55 -2.84793 -0.939845 0
M  V30 5598 H 534.103 -1.49559 -0.454062 0
M  V30 5599 H 534.838 -1.2809 -2.97932 0
M  V30 5600 H 534.623 -2.99703 -2.52825 0
M  V30 5601 H 536.113 -2.47051 -3.36683 0
M  V30 5602 N 536.55 0.480323 -1.50102 0
M  V30 5603 C 537.796 1.23489 -1.60867 0
M  V30 5604 C 538.129 1.91809 -0.303827 0
M  V30 5605 O 537.404 1.81694 0.694092 0
M  V30 5606 C 537.687 2.28578 -2.78252 0
M  V30 5607 C 537.54 1.64624 -4.18592 0
M  V30 5608 C 538.859 3.2997 -2.91218 0
M  V30 5609 H 535.978 0.447605 -0.585507 0
M  V30 5610 H 538.62 0.530005 -1.82458 0
M  V30 5611 H 536.77 2.88697 -2.59974 0
M  V30 5612 H 538.442 1.08173 -4.48438 0
M  V30 5613 H 536.685 0.949645 -4.23278 0
M  V30 5614 H 537.356 2.40946 -4.96638 0
M  V30 5615 H 539.832 2.79864 -3.07921 0
M  V30 5616 H 538.708 4.00839 -3.74993 0
M  V30 5617 H 538.969 3.93541 -2.0144 0
M  V30 5618 N 538.028 1.39524 0.732853 0
M  V30 5619 C 538.938 1.40695 1.87729 0
M  V30 5620 C 539.954 0.301496 1.71368 0
M  V30 5621 O 541.13 0.543313 1.93933 0
M  V30 5622 C 538.195 1.25098 3.23344 0
M  V30 5623 C 537.256 2.45634 3.52083 0
M  V30 5624 C 536.489 2.30772 4.81228 0
M  V30 5625 O 536.712 1.31233 5.55098 0
M  V30 5626 O 535.646 3.19799 5.09914 0
M  V30 5627 H 539.472 2.37168 1.89697 0
M  V30 5628 H 537.057 1.20663 0.880959 0
M  V30 5629 H 538.939 1.18541 4.04383 0
M  V30 5630 H 537.614 0.317209 3.22142 0
M  V30 5631 H 536.521 2.57767 2.71122 0
M  V30 5632 H 537.854 3.37712 3.58066 0
M  V30 5633 N 539.506 -0.963266 1.24736 0
M  V30 5634 C 540.734 -1.74166 1.11686 0
M  V30 5635 C 541.149 -1.8589 -0.330187 0
M  V30 5636 O 540.506 -1.35042 -1.2276 0
M  V30 5637 C 540.557 -3.15989 1.75595 0
M  V30 5638 O 540.278 -3.04847 3.14642 0
M  V30 5639 C 541.779 -4.10145 1.68213 0
M  V30 5640 H 538.999 -0.546031 0.389989 0
M  V30 5641 H 541.543 -1.20907 1.64929 0
M  V30 5642 H 539.698 -3.66219 1.26343 0
M  V30 5643 H 540.112 -3.9425 3.4593 0
M  V30 5644 H 541.586 -5.07299 2.17604 0
M  V30 5645 H 542.063 -4.3445 0.644208 0
M  V30 5646 H 542.669 -3.65827 2.16912 0
M  V30 5647 N 540.985 -1.06182 -1.16461 0
M  V30 5648 C 541.915 -0.692861 -2.22984 0
M  V30 5649 C 542.896 0.314122 -1.67174 0
M  V30 5650 O 544.081 0.189499 -1.93273 0
M  V30 5651 C 541.211 -0.07732 -3.47214 0
M  V30 5652 C 540.165 -1.01015 -4.15909 0
M  V30 5653 C 539.491 -0.257973 -5.34077 0
M  V30 5654 C 540.791 -2.33868 -4.67015 0
M  V30 5655 H 542.485 -1.58343 -2.54102 0
M  V30 5656 H 540.031 -0.76279 -1.22137 0
M  V30 5657 H 541.984 0.19266 -4.20959 0
M  V30 5658 H 540.708 0.848254 -3.15392 0
M  V30 5659 H 539.367 -1.26486 -3.44088 0
M  V30 5660 H 539.015 0.670684 -4.98509 0
M  V30 5661 H 538.715 -0.879638 -5.80979 0
M  V30 5662 H 540.239 0.00448788 -6.106 0
M  V30 5663 H 541.653 -2.1279 -5.32347 0
M  V30 5664 H 540.05 -2.91522 -5.24533 0
M  V30 5665 H 541.12 -2.97019 -3.83286 0
M  V30 5666 N 542.463 1.3308 -0.844243 0
M  V30 5667 C 543.711 1.97215 -0.441676 0
M  V30 5668 C 544.032 1.67185 1.0037 0
M  V30 5669 O 543.302 0.973588 1.69994 0
M  V30 5670 H 541.882 0.72959 -0.160335 0
M  V30 5671 H 544.544 1.62348 -1.07838 0
M  V30 5672 H 543.64 3.06698 -0.57815 0
M  V30 5673 N 543.941 0.601185 1.45683 0
M  V30 5674 C 545.166 0.0982245 2.07167 0
M  V30 5675 C 545.591 -1.20546 1.44396 0
M  V30 5676 O 544.949 -1.73247 0.534347 0
M  V30 5677 C 544.997 -0.0346976 3.60583 0
M  V30 5678 O 544.101 -1.08657 3.97828 0
M  V30 5679 H 543.442 0.0711618 0.660176 0
M  V30 5680 H 545.972 0.829376 1.87036 0
M  V30 5681 H 545.982 -0.234969 4.07323 0
M  V30 5682 H 544.657 0.917265 4.05659 0
M  V30 5683 H 543.234 -0.863275 3.6277 0
M  V30 5684 N 545.419 -1.53889 0.339982 0
M  V30 5685 C 546.647 -2.05271 -0.259114 0
M  V30 5686 C 547.062 -1.21517 -1.44496 0
M  V30 5687 O 546.419 -0.24966 -1.80784 0
M  V30 5688 C 546.47 -3.55092 -0.677634 0
M  V30 5689 O 546.191 -4.35667 0.461051 0
M  V30 5690 C 547.692 -4.22631 -1.33782 0
M  V30 5691 H 544.912 -0.669085 -0.0506566 0
M  V30 5692 H 547.456 -1.9852 0.490935 0
M  V30 5693 H 545.611 -3.62077 -1.37763 0
M  V30 5694 H 546.025 -5.24343 0.128144 0
M  V30 5695 H 547.499 -5.28861 -1.58145 0
M  V30 5696 H 547.976 -3.74758 -2.29027 0
M  V30 5697 H 548.582 -4.19829 -0.679957 0
M  V30 5698 N 546.897 -0.0685191 -1.57451 0
M  V30 5699 C 548.122 0.613919 -1.98106 0
M  V30 5700 C 548.547 1.62551 -0.946501 0
M  V30 5701 O 547.905 1.81085 0.0882824 0
M  V30 5702 C 547.953 1.26189 -3.378 0
M  V30 5703 O 547.057 2.37773 -3.36954 0
M  V30 5704 H 546.398 0.158163 -0.644888 0
M  V30 5705 H 548.928 -0.142063 -2.04106 0
M  V30 5706 H 548.938 1.60951 -3.74912 0
M  V30 5707 H 547.613 0.520625 -4.12629 0
M  V30 5708 H 546.19 2.04829 -3.11608 0
M  V30 5709 N 548.375 1.56261 0.205012 0
M  V30 5710 C 549.603 1.84141 0.943386 0
M  V30 5711 C 550.018 0.649772 1.77266 0
M  V30 5712 O 549.375 -0.381612 1.78466 0
M  V30 5713 C 549.426 3.10719 1.84759 0
M  V30 5714 O 549.147 4.25286 1.05181 0
M  V30 5715 C 550.648 3.51706 2.69848 0
M  V30 5716 H 547.868 0.611734 0.275721 0
M  V30 5717 H 550.412 2.03364 0.215253 0
M  V30 5718 H 548.567 2.93422 2.52947 0
M  V30 5719 H 548.981 4.97301 1.66709 0
M  V30 5720 H 550.455 4.43266 3.28967 0
M  V30 5721 H 550.932 2.7423 3.43067 0
M  V30 5722 H 551.538 3.71499 2.07047 0
M  V30 5723 N 549.853 -0.472356 1.50355 0
M  V30 5724 C 551.102 -1.2213 1.60522 0
M  V30 5725 C 551.415 -1.9312 0.310466 0
M  V30 5726 O 552.621 -2.69936 0.291029 0
M  V30 5727 C 551.077 -2.21909 2.83345 0
M  V30 5728 C 550.685 -1.56727 4.19691 0
M  V30 5729 C 552.429 -2.97453 3.02856 0
M  V30 5730 C 550.336 -2.54785 5.33703 0
M  V30 5731 H 549.266 -0.459543 0.597776 0
M  V30 5732 H 551.917 -0.491922 1.76783 0
M  V30 5733 H 550.299 -2.98133 2.60639 0
M  V30 5734 H 551.473 -0.863007 4.52646 0
M  V30 5735 H 549.788 -0.934685 4.05774 0
M  V30 5736 H 552.385 -3.70838 3.85205 0
M  V30 5737 H 552.728 -3.56764 2.14534 0
M  V30 5738 H 553.261 -2.28342 3.25737 0
M  V30 5739 H 550 -2.00214 6.24175 0
M  V30 5740 H 549.52 -3.23367 5.05167 0
M  V30 5741 H 551.199 -3.16639 5.64224 0
M  V30 5742 N 551.331 -1.39911 -0.725443 0
M  V30 5743 C 552.571 -1.39096 -1.49772 0
M  V30 5744 C 552.935 0.0106452 -1.91997 0
M  V30 5745 O 554.136 0.143859 -2.68415 0
M  V30 5746 C 552.407 -2.34441 -2.69764 0
M  V30 5747 S 553.966 -2.51898 -3.59295 0
M  V30 5748 H 550.784 -0.49314 -0.512186 0
M  V30 5749 H 553.386 -1.76093 -0.849197 0
M  V30 5750 H 552.09 -3.35123 -2.36898 0
M  V30 5751 H 551.621 -1.98692 -3.39537 0
M  V30 5752 H 553.636 -1.76402 -4.63785 0
M  V30 5753 N 552.809 0.956637 -1.25245 0
M  V30 5754 C 554.034 1.74104 -1.12706 0
M  V30 5755 C 554.459 1.85436 0.315429 0
M  V30 5756 O 553.817 1.33334 1.22848 0
M  V30 5757 C 553.865 3.1338 -1.78396 0
M  V30 5758 O 552.969 3.98485 -1.06224 0
M  V30 5759 H 552.31 0.53476 -0.393609 0
M  V30 5760 H 554.84 1.19924 -1.65769 0
M  V30 5761 H 554.85 3.6385 -1.846 0
M  V30 5762 H 553.525 3.04448 -2.83345 0
M  V30 5763 H 552.102 3.56952 -1.07886 0
M  V30 5764 N 554.287 1.06798 1.15896 0
M  V30 5765 C 555.564 0.701057 1.82605 0
M  V30 5766 C 555.944 -0.817066 1.94646 0
M  V30 5767 O 555.292 -1.72933 1.49353 0
M  V30 5768 C 555.502 1.40895 3.19296 0
M  V30 5769 C 556.85 1.55744 3.95005 0
M  V30 5770 O 557.874 1.36927 3.28831 0
M  V30 5771 O 556.733 1.86658 5.13635 0
M  V30 5772 H 553.827 0.248791 0.78869 0
M  V30 5773 H 556.373 1.16857 1.23055 0
M  V30 5774 H 555.145 2.4439 3.05596 0
M  V30 5775 H 554.768 0.931847 3.86526 0
M  V30 5776 N 555.766 -1.3263 0.851289 0
M  V30 5777 C 556.713 -2.28952 0.291469 0
M  V30 5778 C 557.683 -1.54897 -0.599676 0
M  V30 5779 O 558.868 -1.83137 -0.535305 0
M  V30 5780 C 556.008 -3.41206 -0.516992 0
M  V30 5781 C 555.121 -4.30148 0.399566 0
M  V30 5782 C 554.256 -5.29527 -0.4212 0
M  V30 5783 C 553.295 -6.10112 0.492969 0
M  V30 5784 N 552.432 -7.01499 -0.290414 0
M  V30 5785 H 557.272 -2.76228 1.11813 0
M  V30 5786 H 554.809 -1.35907 0.562826 0
M  V30 5787 H 556.767 -4.05005 -1.00132 0
M  V30 5788 H 555.397 -2.9509 -1.30851 0
M  V30 5789 H 554.449 -3.66959 1.00227 0
M  V30 5790 H 555.761 -4.8649 1.1013 0
M  V30 5791 H 554.915 -5.98914 -0.968832 0
M  V30 5792 H 553.654 -4.73794 -1.15632 0
M  V30 5793 H 552.659 -5.39632 1.05251 0
M  V30 5794 H 553.884 -6.6793 1.22664 0
M  V30 5795 H 551.83 -6.48199 -1.00868 0
M  V30 5796 H 551.747 -7.55178 0.352354 0
M  V30 5797 H 553.015 -7.75176 -0.819882 0
M  V30 5798 N 557.244 -0.608902 -1.45362 0
M  V30 5799 C 558.472 -0.111013 -2.06602 0
M  V30 5800 C 558.887 1.20516 -1.45332 0
M  V30 5801 O 558.244 1.73437 -0.567978 0
M  V30 5802 C 558.295 0.033688 -3.61484 0
M  V30 5803 O 558.016 -1.23041 -4.20467 0
M  V30 5804 C 559.517 0.562882 -4.39712 0
M  V30 5805 H 556.737 -0.0694453 -0.667397 0
M  V30 5806 H 559.281 -0.837008 -1.86586 0
M  V30 5807 H 557.436 0.710016 -3.80838 0
M  V30 5808 H 557.85 -1.06094 -5.13658 0
M  V30 5809 H 559.324 0.613213 -5.48583 0
M  V30 5810 H 559.801 1.58543 -4.09586 0
M  V30 5811 H 560.407 -0.0794454 -4.25226 0
M  V30 5812 N 558.722 1.53707 -0.348139 0
M  V30 5813 C 559.97 2.00591 0.246478 0
M  V30 5814 C 560.291 1.23753 1.50699 0
M  V30 5815 O 559.561 0.345964 1.92821 0
M  V30 5816 H 558.141 0.741053 0.0940679 0
M  V30 5817 H 560.803 1.89139 -0.470354 0
M  V30 5818 H 559.899 3.08297 0.485714 0
M  V30 5819 N 560.2 0.0768682 1.57412 0
M  V30 5820 C 561.428 -0.59997 1.9801 0
M  V30 5821 C 561.843 -1.62842 0.955408 0
M  V30 5822 O 561.2 -1.8241 -0.057314 0
M  V30 5823 C 561.251 -1.26401 3.38681 0
M  V30 5824 O 560.972 -0.276723 4.37225 0
M  V30 5825 C 562.473 -2.0282 3.94182 0
M  V30 5826 H 559.693 -0.162239 0.651091 0
M  V30 5827 H 562.237 0.150771 2.03943 0
M  V30 5828 H 560.392 -1.96581 3.33819 0
M  V30 5829 H 560.806 -0.753744 5.19056 0
M  V30 5830 H 562.28 -2.44667 4.94815 0
M  V30 5831 H 562.757 -2.88678 3.31001 0
M  V30 5832 H 563.363 -1.37496 4.02461 0
M  V30 5833 N 561.678 -1.56367 -0.196722 0
M  V30 5834 C 562.608 -1.97442 -1.24655 0
M  V30 5835 C 563.589 -0.846147 -1.47561 0
M  V30 5836 O 564.774 -1.11035 -1.59326 0
M  V30 5837 C 561.904 -2.31253 -2.59112 0
M  V30 5838 C 560.858 -3.46804 -2.50821 0
M  V30 5839 C 560.184 -3.66286 -3.89536 0
M  V30 5840 C 561.484 -4.8104 -2.03465 0
M  V30 5841 H 563.178 -2.85388 -0.905216 0
M  V30 5842 H 560.724 -1.37304 -0.434002 0
M  V30 5843 H 562.677 -2.58583 -3.32736 0
M  V30 5844 H 561.401 -1.40188 -2.94983 0
M  V30 5845 H 560.06 -3.19563 -1.79653 0
M  V30 5846 H 559.708 -2.72555 -4.22756 0
M  V30 5847 H 559.408 -4.4402 -3.84864 0
M  V30 5848 H 560.932 -3.9599 -4.64784 0
M  V30 5849 H 562.346 -5.07411 -2.66846 0
M  V30 5850 H 560.743 -5.62232 -2.09798 0
M  V30 5851 H 561.813 -4.74732 -0.98781 0
M  V30 5852 N 563.156 0.464375 -1.50603 0
M  V30 5853 C 564.384 1.23907 -1.65695 0
M  V30 5854 C 564.799 1.85658 -0.343027 0
M  V30 5855 O 564.156 1.69529 0.675739 0
M  V30 5856 C 564.207 2.3429 -2.75301 0
M  V30 5857 O 563.928 1.7507 -4.01599 0
M  V30 5858 C 565.429 3.25051 -3.01424 0
M  V30 5859 H 562.649 0.374485 -0.556778 0
M  V30 5860 H 565.193 0.55353 -1.96866 0
M  V30 5861 H 563.348 2.98607 -2.46804 0
M  V30 5862 H 563.762 2.47812 -4.62266 0
M  V30 5863 H 565.236 3.98699 -3.81763 0
M  V30 5864 H 565.713 3.84227 -2.12758 0
M  V30 5865 H 566.319 2.66463 -3.31477 0
M  V30 5866 N 564.634 1.40294 0.718013 0
M  V30 5867 C 565.566 1.36281 1.84283 0
M  V30 5868 C 566.579 0.268621 1.60569 0
M  V30 5869 O 567.768 0.528798 1.70487 0
M  V30 5870 C 564.868 1.09741 3.2064 0
M  V30 5871 C 564.041 2.30767 3.71571 0
M  V30 5872 C 563.1 2.00424 4.86535 0
M  V30 5873 O 562.126 2.73268 4.99313 0
M  V30 5874 N 563.328 0.980724 5.72156 0
M  V30 5875 H 566.093 2.3322 1.88225 0
M  V30 5876 H 563.654 1.34616 0.899453 0
M  V30 5877 H 565.646 0.874322 3.95143 0
M  V30 5878 H 564.216 0.214771 3.11861 0
M  V30 5879 H 563.436 2.68921 2.88228 0
M  V30 5880 H 564.724 3.11455 4.02335 0
M  V30 5881 H 564.122 0.377375 5.6444 0
M  V30 5882 H 562.679 0.817538 6.46653 0
M  V30 5883 N 566.112 -0.949982 1.2575 0
M  V30 5884 C 567.06 -2.06869 1.06339 0
M  V30 5885 C 568.054 -1.69399 -0.00708901 0
M  V30 5886 O 569.26 -1.79383 0.148897 0
M  V30 5887 H 565.635 -0.677197 0.326969 0
M  V30 5888 H 567.606 -2.20396 2.01167 0
M  V30 5889 C 566.355 -3.40503 0.703769 0
M  V30 5890 H 565.678 -3.69807 1.51931 0
M  V30 5891 H 567.118 -4.19623 0.607677 0
M  V30 5892 C 565.577 -3.31685 -0.5905 0
M  V30 5893 O 566.107 -3.67085 -1.63131 0
M  V30 5894 N 564.313 -2.84797 -0.577859 0
M  V30 5895 H 563.86 -2.56186 0.26951 0
M  V30 5896 H 563.818 -2.79279 -1.44398 0
M  V30 5897 N 567.59 -1.07411 -1.15328 0
M  V30 5898 C 569.006 -0.799759 -1.38116 0
M  V30 5899 C 569.206 0.59572 -1.92493 0
M  V30 5900 O 568.262 1.35433 -2.13106 0
M  V30 5901 C 569.575 -1.87407 -2.35158 0
M  V30 5902 C 571.123 -1.89889 -2.48819 0
M  V30 5903 C 571.598 -2.96406 -3.49153 0
M  V30 5904 N 573.089 -2.95512 -3.56689 0
M  V30 5905 C 573.824 -3.74575 -4.34144 0
M  V30 5906 N 573.32 -4.63488 -5.14928 0
M  V30 5907 N 575.113 -3.62919 -4.29239 0
M  V30 5908 H 567.264 -1.97411 -0.78374 0
M  V30 5909 H 569.527 -0.856113 -0.407154 0
M  V30 5910 H 569.233 -2.8768 -2.0232 0
M  V30 5911 H 569.107 -1.73471 -3.34944 0
M  V30 5912 H 571.494 -0.902677 -2.80955 0
M  V30 5913 H 571.575 -2.07904 -1.49029 0
M  V30 5914 H 571.219 -3.96227 -3.17752 0
M  V30 5915 H 571.149 -2.75638 -4.48699 0
M  V30 5916 H 573.64 -2.31061 -2.99031 0
M  V30 5917 H 573.953 -5.20445 -5.71276 0
M  V30 5918 H 572.298 -4.67537 -5.14232 0
M  V30 5919 H 575.489 -2.92833 -3.65194 0
M  V30 5920 H 575.662 -4.24777 -4.89355 0
M  V30 5921 N 569.068 1.32177 -0.85831 0
M  V30 5922 C 570.001 2.26823 -0.25035 0
M  V30 5923 C 570.979 1.50571 0.61378 0
M  V30 5924 O 572.163 1.79682 0.569777 0
M  V30 5925 C 569.29 3.32472 0.646556 0
M  V30 5926 C 568.336 4.26255 -0.144675 0
M  V30 5927 S 569.169 5.13608 -1.5155 0
M  V30 5928 C 570.325 6.22778 -0.624408 0
M  V30 5929 H 570.558 2.7804 -1.05267 0
M  V30 5930 H 568.091 1.39764 -0.656152 0
M  V30 5931 H 570.049 3.93817 1.15837 0
M  V30 5932 H 568.71 2.80031 1.42272 0
M  V30 5933 H 567.903 5.01114 0.538613 0
M  V30 5934 H 567.505 3.69346 -0.588198 0
M  V30 5935 H 569.797 6.77287 0.169846 0
M  V30 5936 H 570.74 6.95233 -1.34376 0
M  V30 5937 H 571.148 5.64156 -0.197128 0
M  V30 5938 N 570.547 0.616602 1.45037 0
M  V30 5939 C 571.775 0.121968 2.0654 0
M  V30 5940 C 572.19 -1.19743 1.45969 0
M  V30 5941 O 571.547 -1.73133 0.577168 0
M  V30 5942 C 571.598 -0.0145171 3.61497 0
M  V30 5943 O 571.319 1.25269 4.19809 0
M  V30 5944 C 572.82 -0.539555 4.40004 0
M  V30 5945 H 570.04 0.0729837 0.667019 0
M  V30 5946 H 572.584 0.846891 1.8614 0
M  V30 5947 H 570.739 -0.689809 3.81209 0
M  V30 5948 H 571.153 1.08816 5.13088 0
M  V30 5949 H 572.627 -0.584112 5.48901 0
M  V30 5950 H 573.104 -1.56368 4.10421 0
M  V30 5951 H 573.71 0.101995 4.25178 0
M  V30 5952 N 572.025 -1.5352 0.356285 0
M  V30 5953 C 573.271 -2.01414 -0.236653 0
M  V30 5954 C 573.604 -1.24339 -1.49176 0
M  V30 5955 O 572.879 -0.334496 -1.91602 0
M  V30 5956 C 573.162 -3.56059 -0.537982 0
M  V30 5957 C 573.015 -4.43835 0.730112 0
M  V30 5958 C 574.334 -4.19127 -1.34239 0
M  V30 5959 H 571.453 -0.732135 -0.0845386 0
M  V30 5960 H 574.095 -1.83854 0.479341 0
M  V30 5961 H 572.245 -3.71153 -1.14795 0
M  V30 5962 H 573.917 -4.40555 1.36782 0
M  V30 5963 H 572.16 -4.1218 1.3524 0
M  V30 5964 H 572.831 -5.49958 0.474358 0
M  V30 5965 H 575.307 -4.07809 -0.826498 0
M  V30 5966 H 574.183 -5.27378 -1.52198 0
M  V30 5967 H 574.444 -3.74581 -2.34822 0
M  V30 5968 N 573.503 -0.0852151 -1.57369 0
M  V30 5969 C 574.466 0.8627 -2.12344 0
M  V30 5970 C 575.466 1.21746 -1.05046 0
M  V30 5971 O 576.656 1.14852 -1.30976 0
M  V30 5972 C 573.788 2.1618 -2.63589 0
M  V30 5973 H 574.981 0.385511 -2.97412 0
M  V30 5974 H 572.534 0.163663 -1.55441 0
M  V30 5975 H 573.269 2.68406 -1.82013 0
M  V30 5976 H 573.054 1.91723 -3.4203 0
M  V30 5977 H 574.544 2.84011 -3.06149 0
M  V30 5978 N 574.981 1.5647 0.188427 0
M  V30 5979 C 575.931 1.91479 1.23774 0
M  V30 5980 C 576.915 0.78119 1.40664 0
M  V30 5981 O 578.107 1.04414 1.42922 0
M  V30 5982 C 575.236 2.26354 2.58106 0
M  V30 5983 C 574.322 3.46186 2.44981 0
M  V30 5984 N 574.713 4.63911 2.01546 0
M  V30 5985 C 573.011 3.50456 2.75856 0
M  V30 5986 C 573.712 5.46064 2.00472 0
M  V30 5987 N 572.688 4.86648 2.42229 0
M  V30 5988 H 576.49 2.79994 0.893339 0
M  V30 5989 H 574.004 1.57477 0.39682 0
M  V30 5990 H 576.001 2.49622 3.33908 0
M  V30 5991 H 574.661 1.39168 2.93364 0
M  V30 5992 H 575.672 4.88451 1.7215 0
M  V30 5993 H 572.349 2.73704 3.15265 0
M  V30 5994 H 573.739 6.50368 1.68734 0
M  V30 5995 N 576.459 -0.456382 1.50847 0
M  V30 5996 C 577.392 -1.57177 1.65441 0
M  V30 5997 C 578.37 -1.54649 0.502224 0
M  V30 5998 O 579.554 -1.74057 0.723633 0
M  V30 5999 C 576.681 -2.95763 1.65052 0
M  V30 6000 C 575.727 -3.16389 2.86007 0
M  V30 6001 S 576.56 -2.94716 4.47105 0
M  V30 6002 C 577.716 -4.35617 4.49432 0
M  V30 6003 H 577.949 -1.44561 2.59787 0
M  V30 6004 H 575.482 -0.644758 1.40293 0
M  V30 6005 H 577.44 -3.75654 1.65512 0
M  V30 6006 H 576.101 -3.05756 0.719153 0
M  V30 6007 H 575.294 -4.17667 2.82081 0
M  V30 6008 H 574.896 -2.44293 2.8319 0
M  V30 6009 H 577.188 -5.28503 4.239 0
M  V30 6010 H 578.131 -4.44582 5.51137 0
M  V30 6011 H 578.539 -4.18382 3.78967 0
M  V30 6012 N 577.937 -1.40673 -0.710563 0
M  V30 6013 C 579.183 -1.4043 -1.47142 0
M  V30 6014 C 579.538 -0.00781557 -1.92398 0
M  V30 6015 O 578.831 0.963535 -1.6561 0
M  V30 6016 C 579.025 -2.33253 -2.70791 0
M  V30 6017 C 578.854 -3.81789 -2.37629 0
M  V30 6018 C 577.624 -4.5057 -2.28724 0
M  V30 6019 C 579.822 -4.73152 -2.01572 0
M  V30 6020 N 577.804 -5.84312 -1.88289 0
M  V30 6021 C 579.175 -5.95728 -1.71778 0
M  V30 6022 C 581.23 -4.6094 -1.88252 0
M  V30 6023 C 579.933 -7.07454 -1.30003 0
M  V30 6024 C 581.959 -5.72613 -1.47881 0
M  V30 6025 C 581.321 -6.94278 -1.18987 0
M  V30 6026 H 577.42 -0.569115 -0.536314 0
M  V30 6027 H 580.004 -1.76425 -0.823547 0
M  V30 6028 H 578.175 -1.99378 -3.33321 0
M  V30 6029 H 579.907 -2.23833 -3.37166 0
M  V30 6030 H 576.662 -4.04315 -2.46629 0
M  V30 6031 H 577.086 -6.55153 -1.70596 0
M  V30 6032 H 581.728 -3.67389 -2.09249 0
M  V30 6033 H 579.446 -8.00884 -1.07749 0
M  V30 6034 H 583.032 -5.65161 -1.38145 0
M  V30 6035 H 581.912 -7.79222 -0.88219 0
M  V30 6036 N 579.415 0.9433 -1.26252 0
M  V30 6037 C 580.662 1.68925 -1.11672 0
M  V30 6038 C 580.99 1.91499 0.340329 0
M  V30 6039 O 580.245 1.49189 1.26653 0
M  V30 6040 C 580.544 3.07073 -1.82868 0
M  V30 6041 C 580.21 3.04262 -3.32769 0
M  V30 6042 C 578.872 3.03203 -3.7366 0
M  V30 6043 C 581.224 2.96729 -4.28487 0
M  V30 6044 C 578.552 2.92373 -5.0866 0
M  V30 6045 C 580.904 2.87442 -5.63525 0
M  V30 6046 C 579.568 2.84724 -6.03729 0
M  V30 6047 H 578.838 0.618141 -0.408635 0
M  V30 6048 H 581.485 1.10124 -1.56668 0
M  V30 6049 H 579.79 3.69486 -1.30335 0
M  V30 6050 H 581.487 3.63635 -1.69029 0
M  V30 6051 H 578.077 3.05865 -3.00241 0
M  V30 6052 H 582.261 2.96658 -3.97879 0
M  V30 6053 H 577.517 2.88645 -5.38975 0
M  V30 6054 H 581.691 2.80576 -6.37377 0
M  V30 6055 H 579.318 2.76089 -7.08293 0
M  V30 6056 N 580.893 1.08022 1.14757 0
M  V30 6057 C 582.17 0.720386 1.81851 0
M  V30 6058 C 582.55 -0.796375 1.95502 0
M  V30 6059 O 581.898 -1.71339 1.51179 0
M  V30 6060 C 582.108 1.44273 3.17783 0
M  V30 6061 C 583.456 1.59925 3.93331 0
M  V30 6062 O 584.48 1.40407 3.2736 0
M  V30 6063 O 583.339 1.92096 5.11626 0
M  V30 6064 H 580.433 0.257142 0.786007 0
M  V30 6065 H 582.979 1.18155 1.21809 0
M  V30 6066 H 581.751 2.47618 3.02987 0
M  V30 6067 H 581.374 0.97279 3.85516 0
M  V30 6068 N 582.371 -1.3172 0.865308 0
M  V30 6069 C 583.319 -2.30569 0.306674 0
M  V30 6070 C 584.313 -1.59317 -0.575724 0
M  V30 6071 O 585.519 -1.73961 -0.462343 0
M  V30 6072 H 581.894 -0.747681 0.0804834 0
M  V30 6073 H 583.865 -2.75165 1.15441 0
M  V30 6074 C 582.614 -3.44358 -0.480952 0
M  V30 6075 H 581.937 -3.99354 0.18876 0
M  V30 6076 H 583.377 -4.15652 -0.837241 0
M  V30 6077 C 581.836 -2.92574 -1.67039 0
M  V30 6078 O 582.366 -2.90954 -2.76964 0
M  V30 6079 N 580.572 -2.48835 -1.50097 0
M  V30 6080 H 580.119 -2.50353 -0.606738 0
M  V30 6081 H 580.077 -2.14543 -2.29823 0
M  V30 6082 N 583.85 -0.624285 -1.44708 0
M  V30 6083 C 584.782 0.12305 -2.28869 0
M  V30 6084 C 585.795 0.81557 -1.40898 0
M  V30 6085 O 586.984 0.678162 -1.65116 0
M  V30 6086 C 584.084 1.19612 -3.1709 0
M  V30 6087 C 583.257 0.587452 -4.33437 0
M  V30 6088 C 582.316 1.55358 -5.02743 0
M  V30 6089 O 581.341 1.07338 -5.58988 0
M  V30 6090 N 582.543 2.88798 -5.03563 0
M  V30 6091 H 585.308 -0.599193 -2.93649 0
M  V30 6092 H 582.87 -0.464954 -1.5508 0
M  V30 6093 H 584.861 1.84261 -3.60319 0
M  V30 6094 H 583.432 1.82067 -2.54107 0
M  V30 6095 H 582.652 -0.237509 -3.93484 0
M  V30 6096 H 583.94 0.161326 -5.08544 0
M  V30 6097 H 583.338 3.30399 -4.59188 0
M  V30 6098 H 581.894 3.48826 -5.50603 0
M  V30 6099 N 585.328 1.53329 -0.364422 0
M  V30 6100 C 586.577 2.00421 0.226747 0
M  V30 6101 C 586.89 1.25581 1.49963 0
M  V30 6102 O 588.096 1.63256 2.16933 0
M  V30 6103 C 586.552 3.57017 0.454618 0
M  V30 6104 C 586.16 4.40734 -0.803568 0
M  V30 6105 C 587.904 4.12468 1.00351 0
M  V30 6106 C 585.811 5.8888 -0.545345 0
M  V30 6107 H 584.741 0.748787 0.0885082 0
M  V30 6108 H 587.392 1.7703 -0.482983 0
M  V30 6109 H 585.774 3.76558 1.22558 0
M  V30 6110 H 586.948 4.32967 -1.57723 0
M  V30 6111 H 585.263 3.96381 -1.27559 0
M  V30 6112 H 587.86 5.20783 1.212 0
M  V30 6113 H 588.203 3.6699 1.9653 0
M  V30 6114 H 588.736 3.96721 0.29274 0
M  V30 6115 H 585.475 6.38633 -1.47743 0
M  V30 6116 H 584.995 5.99499 0.189842 0
M  V30 6117 H 586.674 6.46776 -0.170425 0
M  V30 6118 N 586.806 0.0935595 1.57322 0
M  V30 6119 C 587.756 -0.876521 2.10478 0
M  V30 6120 C 588.74 -1.24482 1.01946 0
M  V30 6121 O 589.932 -1.22016 1.28223 0
M  V30 6122 C 587.061 -2.13615 2.68745 0
M  V30 6123 C 586.147 -1.79335 3.84317 0
M  V30 6124 N 586.538 -1.15606 4.92411 0
M  V30 6125 C 584.836 -2.08954 3.94023 0
M  V30 6126 C 585.537 -0.999036 5.73057 0
M  V30 6127 N 584.513 -1.51585 5.22037 0
M  V30 6128 H 588.315 -0.379829 2.91435 0
M  V30 6129 H 585.829 -0.109699 1.62029 0
M  V30 6130 H 587.826 -2.84053 3.05155 0
M  V30 6131 H 586.486 -2.63851 1.89242 0
M  V30 6132 H 587.497 -0.823063 5.11318 0
M  V30 6133 H 584.174 -2.61416 3.25527 0
M  V30 6134 H 585.564 -0.500772 6.70031 0
M  V30 6135 N 588.284 -1.56567 -0.180126 0
M  V30 6136 C 589.194 -1.98947 -1.24327 0
M  V30 6137 C 590.21 -0.899446 -1.4895 0
M  V30 6138 O 591.386 -1.20639 -1.61271 0
M  V30 6139 C 588.451 -2.33328 -2.56435 0
M  V30 6140 C 587.512 -3.56114 -2.39752 0
M  V30 6141 C 586.745 -3.88845 -3.65561 0
M  V30 6142 O 586.968 -3.22662 -4.70368 0
M  V30 6143 O 585.902 -4.82226 -3.60197 0
M  V30 6144 H 589.728 -2.89634 -0.913565 0
M  V30 6145 H 587.313 -1.44319 -0.386306 0
M  V30 6146 H 589.195 -2.5645 -3.34382 0
M  V30 6147 H 587.87 -1.45806 -2.89002 0
M  V30 6148 H 586.777 -3.38221 -1.59866 0
M  V30 6149 H 588.11 -4.4415 -2.12113 0
M  V30 6150 N 589.762 0.448376 -1.51087 0
M  V30 6151 C 590.725 1.52588 -1.71025 0
M  V30 6152 C 591.725 1.49958 -0.580442 0
M  V30 6153 O 592.915 1.52176 -0.847833 0
M  V30 6154 C 590.047 2.92163 -1.75652 0
M  V30 6155 H 591.24 1.36218 -2.67179 0
M  V30 6156 H 588.793 0.676313 -1.4091 0
M  V30 6157 H 589.528 3.13951 -0.812724 0
M  V30 6158 H 589.313 2.95478 -2.57751 0
M  V30 6159 H 590.803 3.70349 -1.92953 0
M  V30 6160 N 591.24 1.41047 0.703093 0
M  V30 6161 C 592.517 1.30493 1.45708 0
M  V30 6162 C 592.897 -0.0709892 2.10981 0
M  V30 6163 O 592.245 -1.08471 2.01113 0
M  V30 6164 C 592.455 2.45287 2.48265 0
M  V30 6165 C 593.803 2.86104 3.13735 0
M  V30 6166 O 594.827 2.44971 2.58587 0
M  V30 6167 O 593.686 3.57206 4.13601 0
M  V30 6168 H 590.78 0.513144 0.648546 0
M  V30 6169 H 593.326 1.52995 0.734208 0
M  V30 6170 H 592.098 3.37135 1.98635 0
M  V30 6171 H 591.721 2.24622 3.28071 0
M  V30 6172 N 592.718 -0.936591 1.26751 0
M  V30 6173 C 593.946 -1.71758 1.15355 0
M  V30 6174 C 594.361 -1.86549 -0.290683 0
M  V30 6175 O 593.718 -1.37616 -1.19868 0
M  V30 6176 C 593.769 -3.12193 1.82258 0
M  V30 6177 O 593.49 -2.98105 3.21038 0
M  V30 6178 C 594.991 -4.06485 1.76875 0
M  V30 6179 H 592.211 -0.537636 0.401483 0
M  V30 6180 H 594.755 -1.17382 1.67457 0
M  V30 6181 H 592.91 -3.63456 1.34083 0
M  V30 6182 H 593.324 -3.86824 3.54214 0
M  V30 6183 H 594.798 -5.02569 2.28316 0
M  V30 6184 H 595.275 -4.32986 0.736216 0
M  V30 6185 H 595.881 -3.61144 2.24623 0
M  V30 6186 N 594.196 -1.08629 -1.14182 0
M  V30 6187 C 595.424 -0.838889 -1.8913 0
M  V30 6188 C 595.839 0.609153 -1.78703 0
M  V30 6189 O 595.196 1.41876 -1.14794 0
M  V30 6190 C 595.247 -1.25477 -3.39025 0
M  V30 6191 O 594.968 -2.64601 -3.49167 0
M  V30 6192 C 596.469 -1.03856 -4.30963 0
M  V30 6193 H 593.689 -0.302377 -0.599007 0
M  V30 6194 H 596.233 -1.44615 -1.44592 0
M  V30 6195 H 594.388 -0.691571 -3.81177 0
M  V30 6196 H 594.802 -2.81922 -4.42289 0
M  V30 6197 H 596.276 -1.37892 -5.345 0
M  V30 6198 H 596.753 0.0242522 -4.39193 0
M  V30 6199 H 597.359 -1.58731 -3.94569 0
M  V30 6200 N 595.674 1.31259 -0.872281 0
M  V30 6201 C 596.584 2.32221 -0.333255 0
M  V30 6202 C 597.6 1.6481 0.558013 0
M  V30 6203 O 598.776 1.96212 0.454175 0
M  V30 6204 C 595.841 3.43708 0.454479 0
M  V30 6205 C 594.902 4.26774 -0.465024 0
M  V30 6206 C 594.135 5.32937 0.28521 0
M  V30 6207 O 594.358 5.49968 1.513 0
M  V30 6208 O 593.292 6.00834 -0.358126 0
M  V30 6209 H 597.118 2.80252 -1.17016 0
M  V30 6210 H 594.703 1.352 -0.635724 0
M  V30 6211 H 596.585 4.11656 0.900963 0
M  V30 6212 H 595.26 2.97836 1.26789 0
M  V30 6213 H 594.167 3.61571 -0.960055 0
M  V30 6214 H 595.5 4.76217 -1.2441 0
M  V30 6215 N 597.152 0.631951 1.44375 0
M  V30 6216 C 598.1 -0.0846693 2.32446 0
M  V30 6217 C 599.094 -0.834957 1.47393 0
M  V30 6218 O 600.3 -0.747764 1.63733 0
M  V30 6219 H 596.675 -0.0461508 0.750583 0
M  V30 6220 H 598.646 0.67619 2.90638 0
M  V30 6221 C 597.395 -1.05211 3.314 0
M  V30 6222 H 596.718 -0.484203 3.96857 0
M  V30 6223 H 598.158 -1.523 3.95703 0
M  V30 6224 C 596.617 -2.13776 2.60387 0
M  V30 6225 O 597.147 -3.21869 2.4034 0
M  V30 6226 N 595.353 -1.89733 2.20113 0
M  V30 6227 H 594.9 -1.01833 2.36618 0
M  V30 6228 H 594.858 -2.62572 1.72926 0
M  V30 6229 N 598.631 -1.53133 0.372548 0
M  V30 6230 C 599.563 -2.23557 -0.505444 0
M  V30 6231 C 600.576 -1.25211 -1.04049 0
M  V30 6232 O 601.765 -1.51391 -0.945675 0
M  V30 6233 C 598.865 -2.92516 -1.71136 0
M  V30 6234 C 598.038 -4.17428 -1.30661 0
M  V30 6235 C 597.097 -4.69535 -2.37536 0
M  V30 6236 O 596.123 -5.33042 -1.99637 0
M  V30 6237 N 597.325 -4.47947 -3.6922 0
M  V30 6238 H 600.09 -2.9954 0.0978259 0
M  V30 6239 H 597.651 -1.60684 0.198068 0
M  V30 6240 H 599.643 -3.24281 -2.42124 0
M  V30 6241 H 598.213 -2.19944 -2.22134 0
M  V30 6242 H 597.433 -3.91888 -0.426292 0
M  V30 6243 H 598.721 -4.98622 -1.01259 0
M  V30 6244 H 598.119 -3.97219 -4.02783 0
M  V30 6245 H 596.676 -4.84245 -4.36292 0
M  V30 6246 N 600.109 -0.101901 -1.5727 0
M  V30 6247 C 601.334 0.571759 -1.99363 0
M  V30 6248 C 601.759 1.60507 -0.980768 0
M  V30 6249 O 601.117 1.81231 0.0498517 0
M  V30 6250 C 601.165 1.18996 -3.404 0
M  V30 6251 O 600.269 2.30572 -3.41922 0
M  V30 6252 H 599.61 0.144449 -0.648098 0
M  V30 6253 H 602.14 -0.185325 -2.03759 0
M  V30 6254 H 602.15 1.52962 -3.78241 0
M  V30 6255 H 600.825 0.432984 -4.1364 0
M  V30 6256 H 599.402 1.98173 -3.15883 0
M  V30 6257 N 601.587 1.56661 0.17182 0
M  V30 6258 C 602.835 1.81606 0.886774 0
M  V30 6259 C 603.156 0.678818 1.82803 0
M  V30 6260 O 602.426 -0.301354 1.93568 0
M  V30 6261 H 601.006 0.669934 0.330451 0
M  V30 6262 H 603.668 1.94142 0.171757 0
M  V30 6263 H 602.764 2.75634 1.46398 0
M  V30 6264 N 603.065 -0.440357 1.51323 0
M  V30 6265 C 604.311 -1.19181 1.64085 0
M  V30 6266 C 604.644 -1.90936 0.354575 0
M  V30 6267 O 603.919 -1.8347 -0.645675 0
M  V30 6268 C 604.202 -2.2112 2.84215 0
M  V30 6269 C 604.055 -1.53468 4.22809 0
M  V30 6270 C 605.374 -3.22133 2.99864 0
M  V30 6271 H 602.493 -0.431924 0.597169 0
M  V30 6272 H 605.135 -0.481443 1.83799 0
M  V30 6273 H 603.285 -2.81703 2.67537 0
M  V30 6274 H 604.957 -0.962455 4.51148 0
M  V30 6275 H 603.2 -0.837086 4.25647 0
M  V30 6276 H 603.871 -2.27694 5.02852 0
M  V30 6277 H 606.347 -2.71601 3.15233 0
M  V30 6278 H 605.223 -3.90756 3.85488 0
M  V30 6279 H 605.484 -3.88061 2.11804 0
M  V30 6280 N 604.543 -1.41418 -0.695603 0
M  V30 6281 C 605.768 -1.44329 -1.48942 0
M  V30 6282 C 606.193 -0.0501579 -1.88033 0
M  V30 6283 O 605.551 0.946598 -1.54626 0
M  V30 6284 C 605.599 -2.3578 -2.72837 0
M  V30 6285 O 604.703 -1.81482 -3.70322 0
M  V30 6286 H 604.044 -0.489838 -0.44828 0
M  V30 6287 H 606.574 -1.85878 -0.855014 0
M  V30 6288 H 606.584 -2.51654 -3.21145 0
M  V30 6289 H 605.259 -3.37005 -2.43722 0
M  V30 6290 H 603.836 -1.75058 -3.29255 0
M  V30 6291 N 606.021 0.929856 -1.27246 0
M  V30 6292 C 607.268 1.67731 -1.13457 0
M  V30 6293 C 607.596 1.9185 0.319998 0
M  V30 6294 O 606.851 1.50524 1.25064 0
M  V30 6295 C 607.15 3.05116 -1.86115 0
M  V30 6296 C 606.816 3.00715 -3.35978 0
M  V30 6297 C 605.478 2.99222 -3.76855 0
M  V30 6298 C 607.83 2.92168 -4.3161 0
M  V30 6299 C 605.158 2.86962 -5.11732 0
M  V30 6300 C 607.51 2.81449 -5.66542 0
M  V30 6301 C 606.174 2.78305 -6.06715 0
M  V30 6302 H 605.444 0.613772 -0.415168 0
M  V30 6303 H 608.091 1.08456 -1.57827 0
M  V30 6304 H 606.396 3.68083 -1.34246 0
M  V30 6305 H 608.093 3.61822 -1.72876 0
M  V30 6306 H 604.683 3.02664 -3.03468 0
M  V30 6307 H 608.867 2.92421 -4.01003 0
M  V30 6308 H 604.123 2.82913 -5.42006 0
M  V30 6309 H 608.297 2.738 -6.40317 0
M  V30 6310 H 605.924 2.68561 -7.11181 0
M  V30 6311 N 607.499 1.09233 1.13605 0
M  V30 6312 C 608.776 0.739633 1.81077 0
M  V30 6313 C 609.156 -0.775595 1.96336 0
M  V30 6314 O 608.504 -1.69726 1.52988 0
M  V30 6315 C 608.714 1.47636 3.16235 0
M  V30 6316 C 610.062 1.64087 3.91613 0
M  V30 6317 O 611.086 1.43871 3.25852 0
M  V30 6318 O 609.945 1.97511 5.0956 0
M  V30 6319 H 607.039 0.265464 0.783236 0
M  V30 6320 H 609.585 1.19441 1.20549 0
M  V30 6321 H 608.357 2.50818 3.00344 0
M  V30 6322 H 607.98 1.01362 3.84462 0
M  V30 6323 N 608.977 -1.30795 0.87923 0
M  V30 6324 C 609.924 -2.28282 0.339968 0
M  V30 6325 C 610.894 -1.56134 -0.566685 0
M  V30 6326 O 612.079 -1.84231 -0.496338 0
M  V30 6327 C 609.219 -3.42225 -0.444501 0
M  V30 6328 C 608.332 -4.29204 0.490717 0
M  V30 6329 C 607.467 -5.30302 -0.308784 0
M  V30 6330 C 606.506 -6.08929 0.622272 0
M  V30 6331 N 605.643 -7.01957 -0.14155 0
M  V30 6332 H 610.483 -2.73794 1.17647 0
M  V30 6333 H 608.02 -1.34682 0.591527 0
M  V30 6334 H 609.978 -4.07038 -0.915186 0
M  V30 6335 H 608.608 -2.97799 -1.24562 0
M  V30 6336 H 607.66 -3.6475 1.07988 0
M  V30 6337 H 608.972 -4.84045 1.20425 0
M  V30 6338 H 608.126 -6.00835 -0.841575 0
M  V30 6339 H 606.865 -4.7614 -1.05556 0
M  V30 6340 H 605.87 -5.37278 1.16674 0
M  V30 6341 H 607.095 -6.65178 1.36804 0
M  V30 6342 H 605.041 -6.50192 -0.870966 0
M  V30 6343 H 604.958 -7.54261 0.51246 0
M  V30 6344 H 606.226 -7.76741 -0.655271 0
M  V30 6345 N 610.455 -0.639598 -1.44038 0
M  V30 6346 C 611.683 -0.154811 -2.0632 0
M  V30 6347 C 612.098 1.17406 -1.47856 0
M  V30 6348 O 611.455 1.72193 -0.604638 0
M  V30 6349 C 611.506 -0.0429958 -3.61474 0
M  V30 6350 O 611.227 -1.31932 -4.17763 0
M  V30 6351 C 612.728 0.469486 -4.40807 0
M  V30 6352 H 609.948 -0.0835862 -0.665773 0
M  V30 6353 H 612.492 -0.876397 -1.84769 0
M  V30 6354 H 610.647 0.629075 -3.82258 0
M  V30 6355 H 611.061 -1.16965 -5.11292 0
M  V30 6356 H 612.535 0.496712 -5.49761 0
M  V30 6357 H 613.012 1.49819 -4.12857 0
M  V30 6358 H 613.618 -0.169624 -4.24962 0
M  V30 6359 N 611.933 1.52934 -0.380664 0
M  V30 6360 C 613.158 2.06363 0.207157 0
M  V30 6361 C 613.583 1.25122 1.4045 0
M  V30 6362 O 612.941 0.274062 1.79217 0
M  V30 6363 C 612.989 3.56162 0.563996 0
M  V30 6364 O 612.093 3.77552 1.65917 0
M  V30 6365 H 611.434 0.663468 0.0265859 0
M  V30 6366 H 613.964 1.9719 -0.545635 0
M  V30 6367 H 613.974 3.99453 0.830752 0
M  V30 6368 H 612.649 4.14732 -0.311427 0
M  V30 6369 H 611.226 3.46154 1.3868 0
M  V30 6370 N 613.412 0.11024 1.57214 0
M  V30 6371 C 614.375 -0.828808 2.1369 0
M  V30 6372 C 615.375 -1.20059 1.06969 0
M  V30 6373 O 616.565 -1.12754 1.32786 0
M  V30 6374 C 613.697 -2.11959 2.66994 0
M  V30 6375 H 614.89 -0.338146 2.97988 0
M  V30 6376 H 612.443 -0.138913 1.55681 0
M  V30 6377 H 613.178 -2.65476 1.8626 0
M  V30 6378 H 612.963 -1.86258 3.45037 0
M  V30 6379 H 614.453 -2.79105 3.10629 0
M  V30 6380 N 614.89 -1.56749 -0.16351 0
M  V30 6381 C 616.118 -1.86577 -0.894233 0
M  V30 6382 C 616.533 -0.696543 -1.75481 0
M  V30 6383 O 615.89 0.334161 -1.79415 0
M  V30 6384 C 615.941 -3.15508 -1.76456 0
M  V30 6385 O 615.662 -4.27926 -0.938685 0
M  V30 6386 C 617.163 -3.58737 -2.60428 0
M  V30 6387 H 614.383 -0.618829 -0.259405 0
M  V30 6388 H 616.927 -2.03863 -0.161259 0
M  V30 6389 H 615.082 -3.00025 -2.45079 0
M  V30 6390 H 615.496 -5.01546 -1.53465 0
M  V30 6391 H 616.97 -4.51832 -3.17099 0
M  V30 6392 H 617.447 -2.83229 -3.35675 0
M  V30 6393 H 618.053 -3.76858 -1.97125 0
M  V30 6394 N 616.368 0.432326 -1.51554 0
M  V30 6395 C 617.614 1.17997 -1.65675 0
M  V30 6396 C 617.969 1.88794 -0.37076 0
M  V30 6397 O 617.262 1.80817 0.633692 0
M  V30 6398 C 617.456 2.21907 -2.80164 0
M  V30 6399 C 617.285 1.6131 -4.19773 0
M  V30 6400 C 616.055 1.39585 -4.85638 0
M  V30 6401 C 618.253 1.08659 -5.0269 0
M  V30 6402 N 616.235 0.746374 -6.09346 0
M  V30 6403 C 617.606 0.562685 -6.17441 0
M  V30 6404 C 619.661 0.978831 -4.88184 0
M  V30 6405 C 618.364 -0.0584015 -7.19276 0
M  V30 6406 C 620.39 0.371631 -5.90231 0
M  V30 6407 C 619.752 -0.141711 -7.04257 0
M  V30 6408 H 615.851 0.419277 -0.660099 0
M  V30 6409 H 618.435 0.475809 -1.88797 0
M  V30 6410 H 616.606 2.89706 -2.58698 0
M  V30 6411 H 618.338 2.88867 -2.8344 0
M  V30 6412 H 615.093 1.65897 -4.43593 0
M  V30 6413 H 615.517 0.438934 -6.75576 0
M  V30 6414 H 620.159 1.36157 -4.00276 0
M  V30 6415 H 617.877 -0.453262 -8.06828 0
M  V30 6416 H 621.463 0.290086 -5.81076 0
M  V30 6417 H 620.343 -0.60417 -7.81869 0
M  V30 6418 N 617.846 1.41785 0.688094 0
M  V30 6419 C 618.776 1.47 1.8142 0
M  V30 6420 C 619.757 0.327881 1.6691 0
M  V30 6421 O 620.942 0.540362 1.86531 0
M  V30 6422 C 618.072 1.35876 3.19617 0
M  V30 6423 C 617.026 2.47976 3.48844 0
M  V30 6424 C 616.352 2.21915 4.86475 0
M  V30 6425 C 617.652 3.90309 3.47068 0
M  V30 6426 H 619.346 2.41247 1.77314 0
M  V30 6427 H 616.892 1.16116 0.851651 0
M  V30 6428 H 618.845 1.38134 3.98117 0
M  V30 6429 H 617.569 0.38116 3.24368 0
M  V30 6430 H 616.228 2.45013 2.72698 0
M  V30 6431 H 615.876 1.2248 4.8786 0
M  V30 6432 H 615.576 2.97037 5.06994 0
M  V30 6433 H 617.1 2.25901 5.67275 0
M  V30 6434 H 618.514 3.94947 4.1556 0
M  V30 6435 H 616.911 4.65175 3.7912 0
M  V30 6436 H 617.981 4.17927 2.45896 0
M  V30 6437 N 619.324 -0.923095 1.27737 0
M  V30 6438 C 620.287 -2.00587 1.10894 0
M  V30 6439 C 621.287 -1.60718 0.0514927 0
M  V30 6440 O 622.477 -1.71658 0.296481 0
M  V30 6441 C 619.609 -3.33829 0.690717 0
M  V30 6442 H 620.802 -2.16959 2.07048 0
M  V30 6443 H 618.355 -1.10451 1.1059 0
M  V30 6444 H 619.09 -3.23157 -0.272 0
M  V30 6445 H 618.875 -3.64125 1.45448 0
M  V30 6446 H 620.365 -4.13336 0.595252 0
M  V30 6447 N 620.802 -1.09834 -1.13024 0
M  V30 6448 C 621.732 -0.763451 -2.20666 0
M  V30 6449 C 622.713 0.260778 -1.68089 0
M  V30 6450 O 623.898 0.127915 -1.93778 0
M  V30 6451 C 621.028 -0.187744 -3.46792 0
M  V30 6452 C 619.982 -1.14196 -4.12484 0
M  V30 6453 C 619.308 -0.427755 -5.32986 0
M  V30 6454 C 620.608 -2.48607 -4.59338 0
M  V30 6455 H 622.302 -1.66347 -2.48936 0
M  V30 6456 H 619.848 -0.801261 -1.19649 0
M  V30 6457 H 621.801 0.0586375 -4.21359 0
M  V30 6458 H 620.525 0.747485 -3.17931 0
M  V30 6459 H 619.184 -1.37369 -3.3989 0
M  V30 6460 H 618.832 0.511747 -5.0039 0
M  V30 6461 H 618.532 -1.06403 -5.77886 0
M  V30 6462 H 620.056 -0.189772 -6.10305 0
M  V30 6463 H 621.47 -2.29618 -5.25308 0
M  V30 6464 H 619.867 -3.08062 -5.14993 0
M  V30 6465 H 620.937 -3.09062 -3.73642 0
M  V30 6466 N 622.28 1.30327 -0.886154 0
M  V30 6467 C 623.505 2.0079 -0.519425 0
M  V30 6468 C 623.93 1.65979 0.885013 0
M  V30 6469 O 623.288 0.877043 1.58675 0
M  V30 6470 C 623.336 3.53686 -0.702758 0
M  V30 6471 O 622.44 4.11637 0.250828 0
M  V30 6472 H 621.781 0.63171 -0.204544 0
M  V30 6473 H 624.311 1.66145 -1.19402 0
M  V30 6474 H 624.321 4.03531 -0.602207 0
M  V30 6475 H 622.996 3.78361 -1.72673 0
M  V30 6476 H 621.573 3.72755 0.103873 0
M  V30 6477 N 623.758 0.647228 1.43697 0
M  V30 6478 C 625.174 0.314256 1.56476 0
M  V30 6479 C 625.374 -1.18191 1.63196 0
M  V30 6480 O 624.43 -1.96655 1.58376 0
M  V30 6481 C 625.743 1.02034 2.82859 0
M  V30 6482 C 627.291 1.00002 2.96595 0
M  V30 6483 C 627.766 1.68689 4.25803 0
M  V30 6484 N 629.257 1.65424 4.32654 0
M  V30 6485 C 629.992 2.1545 5.31384 0
M  V30 6486 N 629.488 2.73738 6.36427 0
M  V30 6487 N 631.281 2.05985 5.22998 0
M  V30 6488 H 623.432 1.61821 1.37578 0
M  V30 6489 H 625.695 0.680184 0.660344 0
M  V30 6490 H 625.401 2.07542 2.83935 0
M  V30 6491 H 625.275 0.568146 3.72897 0
M  V30 6492 H 627.662 -0.0466319 2.95063 0
M  V30 6493 H 627.743 1.49086 2.07863 0
M  V30 6494 H 627.387 2.73308 4.28095 0
M  V30 6495 H 627.317 1.17076 5.13421 0
M  V30 6496 H 629.808 1.22884 3.57363 0
M  V30 6497 H 630.121 3.09602 7.08072 0
M  V30 6498 H 628.466 2.77796 6.37067 0
M  V30 6499 H 631.657 1.60157 4.39849 0
M  V30 6500 H 631.83 2.45281 5.99784 0
M  V30 6501 N 625.236 -1.5273 0.388769 0
M  V30 6502 C 626.485 -2.00757 -0.194833 0
M  V30 6503 C 626.798 -1.27951 -1.47946 0
M  V30 6504 O 628.004 -1.66686 -2.14308 0
M  V30 6505 C 626.46 -3.57695 -0.397762 0
M  V30 6506 C 626.068 -4.394 0.873583 0
M  V30 6507 C 627.812 -4.14012 -0.937759 0
M  V30 6508 C 625.719 -5.87938 0.638962 0
M  V30 6509 H 624.649 -0.750101 -0.0765845 0
M  V30 6510 H 627.3 -1.76239 0.511086 0
M  V30 6511 H 625.682 -3.7846 -1.16552 0
M  V30 6512 H 626.856 -4.30403 1.64591 0
M  V30 6513 H 625.171 -3.94301 1.33849 0
M  V30 6514 H 627.768 -5.22645 -1.12899 0
M  V30 6515 H 628.111 -3.7007 -1.90666 0
M  V30 6516 H 628.644 -3.97137 -0.229588 0
M  V30 6517 H 625.383 -6.36202 1.57885 0
M  V30 6518 H 624.903 -5.99726 -0.094443 0
M  V30 6519 H 626.582 -6.46423 0.273299 0
M  V30 6520 N 626.714 -0.118576 -1.57153 0
M  V30 6521 C 627.677 0.817464 -2.14127 0
M  V30 6522 C 628.677 1.1949 -1.07604 0
M  V30 6523 O 629.867 1.12048 -1.33382 0
M  V30 6524 C 626.999 2.10541 -2.68115 0
M  V30 6525 H 628.192 0.322339 -2.98163 0
M  V30 6526 H 625.745 0.130655 -1.55753 0
M  V30 6527 H 626.48 2.64485 -1.87665 0
M  V30 6528 H 626.265 1.84425 -3.4602 0
M  V30 6529 H 627.755 2.77453 -3.12105 0
M  V30 6530 N 628.193 1.56834 0.155195 0
M  V30 6531 C 629.441 1.82536 0.867462 0
M  V30 6532 C 629.762 0.698168 1.82073 0
M  V30 6533 O 629.032 -0.280807 1.93877 0
M  V30 6534 H 627.612 0.673401 0.323327 0
M  V30 6535 H 630.274 1.94313 0.151156 0
M  V30 6536 H 629.37 2.77171 1.43466 0
M  V30 6537 N 629.671 -0.424282 1.51781 0
M  V30 6538 C 630.601 -1.52305 1.7699 0
M  V30 6539 C 631.582 -1.5839 0.620209 0
M  V30 6540 O 632.767 -1.73908 0.864268 0
M  V30 6541 C 629.897 -2.90271 1.90683 0
M  V30 6542 C 628.851 -2.99043 3.06198 0
M  V30 6543 C 628.177 -4.39116 3.05092 0
M  V30 6544 C 629.477 -2.7192 4.45934 0
M  V30 6545 H 631.171 -1.31461 2.68995 0
M  V30 6546 H 628.717 -0.630985 1.29439 0
M  V30 6547 H 630.67 -3.6711 2.06901 0
M  V30 6548 H 629.394 -3.12376 0.953365 0
M  V30 6549 H 628.053 -2.24646 2.89706 0
M  V30 6550 H 627.701 -4.58207 2.07498 0
M  V30 6551 H 627.401 -4.45912 3.82669 0
M  V30 6552 H 628.925 -5.17911 3.2342 0
M  V30 6553 H 630.339 -3.38487 4.62709 0
M  V30 6554 H 628.736 -2.90111 5.25315 0
M  V30 6555 H 629.806 -1.67445 4.55072 0
M  V30 6556 N 631.149 -1.42148 -0.680565 0
M  V30 6557 C 632.389 -1.4379 -1.45271 0
M  V30 6558 C 632.753 -0.0504426 -1.91934 0
M  V30 6559 O 633.954 0.0583916 -2.68737 0
M  V30 6560 C 632.225 -2.42904 -2.62168 0
M  V30 6561 S 633.784 -2.63201 -3.51099 0
M  V30 6562 H 630.602 -0.509185 -0.496237 0
M  V30 6563 H 633.204 -1.78706 -0.792744 0
M  V30 6564 H 631.908 -3.4249 -2.26116 0
M  V30 6565 H 631.439 -2.09394 -3.33043 0
M  V30 6566 H 633.454 -1.91068 -4.57938 0
M  V30 6567 N 632.627 0.916307 -1.28225 0
M  V30 6568 C 633.575 2.03977 -1.11786 0
M  V30 6569 C 634.569 1.69358 -0.0378265 0
M  V30 6570 O 635.775 1.78925 -0.196405 0
M  V30 6571 H 632.15 0.66829 -0.344809 0
M  V30 6572 H 634.121 2.14985 -2.06939 0
M  V30 6573 C 632.87 3.38518 -0.7938 0
M  V30 6574 H 632.193 3.65649 -1.61682 0
M  V30 6575 H 633.633 4.17864 -0.718719 0
M  V30 6576 C 632.092 3.33134 0.502353 0
M  V30 6577 O 632.622 3.71281 1.53341 0
M  V30 6578 N 630.828 2.86229 0.502147 0
M  V30 6579 H 630.375 2.55382 -0.337338 0
M  V30 6580 H 630.333 2.83009 1.36942 0
M  V30 6581 N 634.105 1.10431 1.1244 0
M  V30 6582 C 635.521 0.836096 1.35947 0
M  V30 6583 C 635.721 -0.544475 1.94004 0
M  V30 6584 O 634.777 -1.29735 2.16622 0
M  V30 6585 C 636.09 1.93575 2.30107 0
M  V30 6586 C 637.638 1.9642 2.43697 0
M  V30 6587 C 638.113 3.05559 3.41171 0
M  V30 6588 N 639.604 3.04865 3.48728 0
M  V30 6589 C 640.339 3.85954 4.24061 0
M  V30 6590 N 639.835 4.76977 5.02458 0
M  V30 6591 N 641.628 3.74172 4.19466 0
M  V30 6592 H 633.779 1.9942 0.731124 0
M  V30 6593 H 636.042 0.866607 0.384312 0
M  V30 6594 H 635.748 2.92943 1.94621 0
M  V30 6595 H 635.622 1.8229 3.30227 0
M  V30 6596 H 638.009 0.97685 2.78463 0
M  V30 6597 H 638.09 2.11782 1.43465 0
M  V30 6598 H 637.734 4.04513 3.07135 0
M  V30 6599 H 637.664 2.87438 4.41234 0
M  V30 6600 H 640.155 2.38908 2.92799 0
M  V30 6601 H 640.468 5.35409 5.57277 0
M  V30 6602 H 638.813 4.81006 5.01655 0
M  V30 6603 H 642.004 3.02412 3.57302 0
M  V30 6604 H 642.177 4.37602 4.77921 0
M  V30 6605 N 635.583 -1.29855 0.893053 0
M  V30 6606 C 636.546 -2.26183 0.370687 0
M  V30 6607 C 637.546 -1.53108 -0.491385 0
M  V30 6608 O 638.736 -1.71643 -0.297386 0
M  V30 6609 C 635.868 -3.37633 -0.470827 0
M  V30 6610 H 637.061 -2.73903 1.22135 0
M  V30 6611 H 634.614 -1.41183 0.67061 0
M  V30 6612 H 635.349 -2.95241 -1.34175 0
M  V30 6613 H 635.134 -3.91825 0.146784 0
M  V30 6614 H 636.624 -4.09313 -0.827825 0
M  V30 6615 N 637.061 -0.65484 -1.43351 0
M  V30 6616 C 638.307 -0.169142 -2.02093 0
M  V30 6617 C 638.64 1.21431 -1.51553 0
M  V30 6618 O 637.915 1.81105 -0.709317 0
M  V30 6619 C 638.198 -0.181775 -3.59641 0
M  V30 6620 C 638.051 -1.59926 -4.20409 0
M  V30 6621 C 639.37 0.480945 -4.37464 0
M  V30 6622 H 636.489 -0.0629371 -0.734308 0
M  V30 6623 H 639.131 -0.835833 -1.70628 0
M  V30 6624 H 637.281 0.385918 -3.86578 0
M  V30 6625 H 638.953 -2.21766 -4.04497 0
M  V30 6626 H 637.196 -2.14605 -3.76998 0
M  V30 6627 H 637.867 -1.55994 -5.295 0
M  V30 6628 H 640.343 -0.00208273 -4.161 0
M  V30 6629 H 639.219 0.441384 -5.47122 0
M  V30 6630 H 639.48 1.55533 -4.13838 0
M  V30 6631 N 638.539 1.52521 -0.396863 0
M  V30 6632 C 639.786 2.01672 0.182898 0
M  V30 6633 C 640.114 1.28302 1.46181 0
M  V30 6634 O 639.369 0.374118 1.92091 0
M  V30 6635 C 639.668 3.5403 0.489677 0
M  V30 6636 C 639.334 4.45456 -0.698581 0
M  V30 6637 C 637.996 4.70166 -1.02454 0
M  V30 6638 C 640.348 4.99354 -1.49316 0
M  V30 6639 C 637.676 5.46024 -2.1465 0
M  V30 6640 C 640.028 5.76439 -2.60579 0
M  V30 6641 C 638.692 5.99426 -2.93675 0
M  V30 6642 H 637.962 0.737971 0.066927 0
M  V30 6643 H 640.609 1.83853 -0.535764 0
M  V30 6644 H 638.914 3.69963 1.28976 0
M  V30 6645 H 640.611 3.8956 0.951018 0
M  V30 6646 H 637.201 4.26392 -0.434525 0
M  V30 6647 H 641.385 4.80182 -1.25457 0
M  V30 6648 H 636.641 5.62046 -2.40654 0
M  V30 6649 H 640.815 6.17202 -3.22544 0
M  V30 6650 H 638.442 6.57988 -3.80731 0
M  V30 6651 N 640.017 0.126909 1.57088 0
M  V30 6652 C 640.949 -0.850973 2.12817 0
M  V30 6653 C 641.962 -1.22457 1.07276 0
M  V30 6654 O 643.151 -1.17215 1.34622 0
M  V30 6655 C 640.251 -2.15039 2.61938 0
M  V30 6656 C 639.424 -1.94726 3.91664 0
M  V30 6657 C 638.483 -3.0847 4.26301 0
M  V30 6658 O 637.509 -2.81038 4.94981 0
M  V30 6659 N 638.711 -4.35116 3.84259 0
M  V30 6660 H 641.476 -0.3748 2.97347 0
M  V30 6661 H 639.037 -0.0572793 1.61799 0
M  V30 6662 H 641.029 -2.90141 2.82135 0
M  V30 6663 H 639.599 -2.5398 1.82244 0
M  V30 6664 H 638.819 -1.03772 3.80296 0
M  V30 6665 H 640.107 -1.78469 4.76473 0
M  V30 6666 H 639.505 -4.60276 3.2888 0
M  V30 6667 H 638.062 -5.07064 4.09548 0
M  V30 6668 N 641.495 -1.56914 -0.146875 0
M  V30 6669 C 642.458 -1.97368 -1.16526 0
M  V30 6670 C 643.458 -0.860223 -1.35856 0
M  V30 6671 O 644.648 -1.12684 -1.32846 0
M  V30 6672 C 641.78 -2.28974 -2.52555 0
M  V30 6673 H 642.973 -2.88523 -0.818209 0
M  V30 6674 H 640.526 -1.5135 -0.390221 0
M  V30 6675 H 641.261 -1.40611 -2.92231 0
M  V30 6676 H 641.046 -3.10157 -2.39886 0
M  V30 6677 H 642.536 -2.61109 -3.25902 0
M  V30 6678 N 642.974 0.416227 -1.52004 0
M  V30 6679 C 643.922 1.5272 -1.7544 0
M  V30 6680 C 644.916 1.57596 -0.621289 0
M  V30 6681 O 646.122 1.61087 -0.803172 0
M  V30 6682 H 642.497 0.507772 -0.554682 0
M  V30 6683 H 644.468 1.30136 -2.68528 0
M  V30 6684 C 643.217 2.90165 -1.91571 0
M  V30 6685 H 642.54 2.87154 -2.78178 0
M  V30 6686 H 643.98 3.67211 -2.11972 0
M  V30 6687 C 642.439 3.29947 -0.680942 0
M  V30 6688 O 642.969 4.01403 0.154527 0
M  V30 6689 N 641.175 2.8593 -0.518894 0
M  V30 6690 H 640.722 2.2795 -1.19986 0
M  V30 6691 H 640.68 3.12907 0.305985 0
M  V30 6692 N 644.452 1.42507 0.673017 0
M  V30 6693 C 645.384 1.42074 1.79854 0
M  V30 6694 C 646.397 0.319569 1.59633 0
M  V30 6695 O 647.586 0.582769 1.68719 0
M  V30 6696 C 644.686 1.19886 3.16987 0
M  V30 6697 C 643.859 2.42471 3.64042 0
M  V30 6698 C 642.918 2.15802 4.79913 0
M  V30 6699 O 641.944 2.89015 4.90366 0
M  V30 6700 N 643.146 1.16225 5.68746 0
M  V30 6701 H 645.911 2.3909 1.8071 0
M  V30 6702 H 643.472 1.37409 0.856171 0
M  V30 6703 H 645.464 0.999591 3.92161 0
M  V30 6704 H 644.034 0.313879 3.1102 0
M  V30 6705 H 643.254 2.77954 2.79526 0
M  V30 6706 H 644.542 3.24097 3.92223 0
M  V30 6707 H 643.94 0.556756 5.62954 0
M  V30 6708 H 642.497 1.02285 6.43724 0
M  V30 6709 N 645.93 -0.909495 1.28709 0
M  V30 6710 C 646.84 -2.04558 1.14861 0
M  V30 6711 C 647.856 -1.73842 0.0741621 0
M  V30 6712 O 649.032 -1.99383 0.2843 0
M  V30 6713 C 646.097 -3.36957 0.816148 0
M  V30 6714 C 645.158 -3.81255 1.97341 0
M  V30 6715 C 644.391 -5.07335 1.65671 0
M  V30 6716 O 644.614 -5.67514 0.573053 0
M  V30 6717 O 643.548 -5.47449 2.50167 0
M  V30 6718 H 647.374 -2.19161 2.10243 0
M  V30 6719 H 644.959 -1.03159 1.08068 0
M  V30 6720 H 646.841 -4.16436 0.644873 0
M  V30 6721 H 645.516 -3.2352 -0.107983 0
M  V30 6722 H 644.423 -3.02584 2.19986 0
M  V30 6723 H 645.756 -3.99261 2.87839 0
M  V30 6724 N 647.408 -1.11026 -1.11852 0
M  V30 6725 C 648.356 -0.759643 -2.19846 0
M  V30 6726 C 649.35 0.246964 -1.6759 0
M  V30 6727 O 650.556 0.106693 -1.79684 0
M  V30 6728 H 646.931 -0.22775 -0.716683 0
M  V30 6729 H 648.902 -1.6792 -2.46669 0
M  V30 6730 C 647.651 -0.214364 -3.47039 0
M  V30 6731 H 646.974 -0.980175 -3.87599 0
M  V30 6732 H 648.414 -0.00717047 -4.23999 0
M  V30 6733 C 646.873 1.05436 -3.19976 0
M  V30 6734 O 647.403 2.13483 -3.40276 0
M  V30 6735 N 645.609 0.975436 -2.7374 0
M  V30 6736 H 645.156 0.0960853 -2.57421 0
M  V30 6737 H 645.114 1.82501 -2.5601 0
M  V30 6738 N 648.886 1.2938 -0.899927 0
M  V30 6739 C 649.816 2.30144 -0.39446 0
M  V30 6740 C 650.797 1.61611 0.530639 0
M  V30 6741 O 651.982 1.89119 0.441319 0
M  V30 6742 C 649.112 3.45229 0.37868 0
M  V30 6743 C 648.066 4.25564 -0.456012 0
M  V30 6744 C 647.392 5.32848 0.444637 0
M  V30 6745 C 648.692 4.93651 -1.70605 0
M  V30 6746 H 650.386 2.72673 -1.23653 0
M  V30 6747 H 647.932 1.31086 -0.596034 0
M  V30 6748 H 649.885 4.14797 0.743037 0
M  V30 6749 H 648.609 3.01545 1.25453 0
M  V30 6750 H 647.268 3.57704 -0.802704 0
M  V30 6751 H 646.916 4.85408 1.31863 0
M  V30 6752 H 646.616 5.87497 -0.110154 0
M  V30 6753 H 648.14 6.05268 0.805182 0
M  V30 6754 H 649.554 5.55655 -1.41141 0
M  V30 6755 H 647.951 5.58233 -2.20217 0
M  V30 6756 H 649.021 4.18926 -2.4419 0
M  V30 6757 N 650.364 0.662433 1.43002 0
M  V30 6758 C 651.775 0.258315 1.84904 0
M  V30 6759 C 652.126 -1.19703 1.55453 0
M  V30 6760 O 651.251 -1.91484 1.00811 0
M  V30 6761 C 651.846 0.462047 3.35635 0
M  V30 6762 C 650.405 0.112165 3.76233 0
M  V30 6763 C 649.552 0.760479 2.66668 0
M  V30 6764 H 652.503 0.865467 1.33024 0
M  V30 6765 H 652.524 -0.289646 3.79396 0
M  V30 6766 H 652.036 1.52135 3.57039 0
M  V30 6767 H 650.137 -0.944179 3.60439 0
M  V30 6768 H 650.25 0.544058 4.76001 0
M  V30 6769 H 648.614 0.192887 2.53969 0
M  V30 6770 H 649.397 1.82299 2.90898 0
M  V30 6771 N 651.842 -1.52309 0.404946 0
M  V30 6772 C 653.091 -2.00952 -0.173529 0
M  V30 6773 C 653.404 -1.29512 -1.46581 0
M  V30 6774 O 654.61 -1.6895 -2.12528 0
M  V30 6775 C 653.066 -3.58097 -0.359801 0
M  V30 6776 C 652.674 -4.38449 0.920138 0
M  V30 6777 C 654.418 -4.14984 -0.893794 0
M  V30 6778 C 652.325 -5.87227 0.701285 0
M  V30 6779 H 651.255 -0.750871 -0.0686244 0
M  V30 6780 H 653.906 -1.75687 0.529749 0
M  V30 6781 H 652.288 -3.79675 -1.12531 0
M  V30 6782 H 653.462 -4.28633 1.69147 0
M  V30 6783 H 651.777 -3.92859 1.38024 0
M  V30 6784 H 654.374 -5.23813 -1.0735 0
M  V30 6785 H 654.717 -3.72072 -1.8673 0
M  V30 6786 H 655.25 -3.97358 -0.187453 0
M  V30 6787 H 651.989 -6.34491 1.64624 0
M  V30 6788 H 651.509 -5.99792 -0.0308288 0
M  V30 6789 H 653.188 -6.46096 0.341846 0
M  V30 6790 N 653.32 -0.135238 -1.57019 0
M  V30 6791 C 654.25 0.805235 -2.19176 0
M  V30 6792 C 655.231 1.2656 -1.13651 0
M  V30 6793 O 656.416 1.32528 -1.4195 0
M  V30 6794 C 653.546 2.04914 -2.80406 0
M  V30 6795 C 652.5 1.72598 -3.91655 0
M  V30 6796 C 651.826 3.04154 -4.39766 0
M  V30 6797 C 653.126 0.981709 -5.12991 0
M  V30 6798 H 654.82 0.287232 -2.98019 0
M  V30 6799 H 652.366 0.136714 -1.4335 0
M  V30 6800 H 654.319 2.71178 -3.22553 0
M  V30 6801 H 653.043 2.59067 -1.98877 0
M  V30 6802 H 651.702 1.08717 -3.50109 0
M  V30 6803 H 651.35 3.56274 -3.55075 0
M  V30 6804 H 651.05 2.83299 -5.14796 0
M  V30 6805 H 652.574 3.71509 -4.84576 0
M  V30 6806 H 653.988 1.5462 -5.52056 0
M  V30 6807 H 652.385 0.873533 -5.93708 0
M  V30 6808 H 653.455 -0.0286887 -4.84892 0
M  V30 6809 N 654.798 1.5699 0.138552 0
M  V30 6810 C 655.745 1.98899 1.17081 0
M  V30 6811 C 656.715 0.857922 1.42228 0
M  V30 6812 O 657.9 1.12065 1.54422 0
M  V30 6813 C 655.04 2.38189 2.4972 0
M  V30 6814 C 654.153 3.64624 2.31674 0
M  V30 6815 C 653.288 3.9298 3.57407 0
M  V30 6816 C 652.327 5.1266 3.34435 0
M  V30 6817 N 651.464 5.36983 4.5232 0
M  V30 6818 H 656.304 2.86881 0.80642 0
M  V30 6819 H 653.841 1.41925 0.386727 0
M  V30 6820 H 655.799 2.59 3.2707 0
M  V30 6821 H 654.429 1.53275 2.84089 0
M  V30 6822 H 653.481 3.51542 1.45337 0
M  V30 6823 H 654.793 4.52131 2.10664 0
M  V30 6824 H 653.947 4.14335 4.43183 0
M  V30 6825 H 652.686 3.03912 3.8143 0
M  V30 6826 H 651.691 4.9117 2.47048 0
M  V30 6827 H 652.916 6.03288 3.11802 0
M  V30 6828 H 650.862 4.50871 4.76499 0
M  V30 6829 H 650.779 6.18775 4.34343 0
M  V30 6830 H 652.047 5.62842 5.39285 0
M  V30 6831 N 656.276 -0.40816 1.52223 0
M  V30 6832 C 657.692 -0.74685 1.41047 0
M  V30 6833 C 657.892 -1.94788 0.51573 0
M  V30 6834 O 656.948 -2.52494 -0.0181156 0
M  V30 6835 C 658.261 -0.999878 2.83589 0
M  V30 6836 C 659.809 -1.10253 2.92939 0
M  V30 6837 C 660.284 -1.38832 4.36451 0
M  V30 6838 N 661.775 -1.45694 4.3969 0
M  V30 6839 C 662.51 -1.69435 5.47795 0
M  V30 6840 N 662.006 -1.90774 6.66016 0
M  V30 6841 N 663.799 -1.71458 5.35312 0
M  V30 6842 H 655.95 0.382409 2.08929 0
M  V30 6843 H 658.213 0.108807 0.941735 0
M  V30 6844 H 657.919 -0.189723 3.51188 0
M  V30 6845 H 657.793 -1.91978 3.24691 0
M  V30 6846 H 660.18 -1.90328 2.2552 0
M  V30 6847 H 660.261 -0.160973 2.55293 0
M  V30 6848 H 659.905 -0.592741 5.04429 0
M  V30 6849 H 659.835 -2.34241 4.71634 0
M  V30 6850 H 662.326 -1.3099 3.54472 0
M  V30 6851 H 662.639 -2.08342 7.44186 0
M  V30 6852 H 660.984 -1.88037 6.69079 0
M  V30 6853 H 664.175 -1.54326 4.41929 0
M  V30 6854 H 664.348 -1.89621 6.19635 0
M  V30 6855 N 657.755 -1.42862 -0.66545 0
M  V30 6856 C 658.718 -1.46756 -1.76055 0
M  V30 6857 C 659.718 -0.353866 -1.56858 0
M  V30 6858 O 660.908 -0.615099 -1.62979 0
M  V30 6859 C 658.04 -1.30829 -3.14796 0
M  V30 6860 H 659.233 -2.44271 -1.73987 0
M  V30 6861 H 656.786 -1.29447 -0.875965 0
M  V30 6862 H 657.521 -0.342733 -3.22484 0
M  V30 6863 H 657.306 -2.11551 -3.30134 0
M  V30 6864 H 658.796 -1.36458 -3.94676 0
M  V30 6865 N 659.233 0.902656 -1.29189 0
M  V30 6866 C 660.479 1.65532 -1.17163 0
M  V30 6867 C 660.812 1.92216 0.276879 0
M  V30 6868 O 660.087 1.53048 1.20027 0
M  V30 6869 C 660.37 3.00629 -1.98228 0
M  V30 6870 C 660.223 2.81029 -3.51202 0
M  V30 6871 C 661.542 4.01321 -1.80635 0
M  V30 6872 H 658.661 0.60071 -0.426985 0
M  V30 6873 H 661.303 1.04578 -1.5863 0
M  V30 6874 H 659.453 3.52656 -1.62991 0
M  V30 6875 H 661.125 2.35927 -3.96404 0
M  V30 6876 H 659.368 2.1587 -3.76275 0
M  V30 6877 H 660.039 3.77014 -4.03192 0
M  V30 6878 H 662.515 3.58394 -2.11406 0
M  V30 6879 H 661.391 4.93792 -2.3971 0
M  V30 6880 H 661.652 4.35505 -0.760754 0
M  V30 6881 N 660.711 1.11618 1.11262 0
M  V30 6882 C 661.674 0.779447 2.15539 0
M  V30 6883 C 662.674 -0.202081 1.59525 0
M  V30 6884 O 663.864 0.0226356 1.74185 0
M  V30 6885 C 660.996 0.15674 3.40539 0
M  V30 6886 H 662.189 1.70324 2.4684 0
M  V30 6887 H 659.742 0.918298 1.26479 0
M  V30 6888 H 660.477 -0.777186 3.1485 0
M  V30 6889 H 660.262 0.863308 3.82478 0
M  V30 6890 H 661.752 -0.062661 4.17553 0
M  V30 6891 N 662.189 -1.289 0.906776 0
M  V30 6892 C 663.437 -1.94883 0.535266 0
M  V30 6893 C 663.758 -1.71784 -0.922791 0
M  V30 6894 O 663.028 -1.05359 -1.65156 0
M  V30 6895 H 661.608 -0.721109 0.194962 0
M  V30 6896 H 664.27 -1.57018 1.15461 0
M  V30 6897 H 663.366 -3.03591 0.723821 0
M  V30 6898 N 663.667 -0.670007 -1.42649 0
M  V30 6899 C 664.944 -0.119451 -1.95235 0
M  V30 6900 C 665.324 1.36461 -1.61064 0
M  V30 6901 O 664.672 2.09843 -0.904329 0
M  V30 6902 C 664.882 -0.383498 -3.46887 0
M  V30 6903 C 666.23 -0.297431 -4.23557 0
M  V30 6904 O 667.254 -0.31698 -3.54787 0
M  V30 6905 O 666.113 -0.235507 -5.45992 0
M  V30 6906 H 663.207 -8.85474e-05 -0.827 0
M  V30 6907 H 665.753 -0.744406 -1.52501 0
M  V30 6908 H 664.525 -1.41174 -3.64946 0
M  V30 6909 H 664.148 0.273702 -3.96657 0
M  V30 6910 N 665.145 1.52092 -0.413018 0
M  V30 6911 C 666.108 2.25706 0.398687 0
M  V30 6912 C 667.108 1.28221 0.970368 0
M  V30 6913 O 668.298 1.52131 0.848635 0
M  V30 6914 C 665.43 3.03029 1.5616 0
M  V30 6915 H 666.623 2.98888 -0.246131 0
M  V30 6916 H 664.176 1.5542 -0.165622 0
M  V30 6917 H 664.911 2.34205 2.24317 0
M  V30 6918 H 664.696 3.74606 1.15812 0
M  V30 6919 H 666.186 3.58857 2.13569 0
M  V30 6920 N 666.623 0.143563 1.56945 0
M  V30 6921 C 667.848 -0.518701 2.00809 0
M  V30 6922 C 668.273 -1.5785 1.02298 0
M  V30 6923 O 667.631 -1.813 -0.0017839 0
M  V30 6924 C 667.679 -1.09929 3.43436 0
M  V30 6925 O 666.783 -2.21425 3.47915 0
M  V30 6926 H 666.124 -0.127215 0.6517 0
M  V30 6927 H 668.654 0.239283 2.03196 0
M  V30 6928 H 668.664 -1.4288 3.82164 0
M  V30 6929 H 667.339 -0.323162 4.14643 0
M  V30 6930 H 665.916 -1.89728 3.21026 0
M  V30 6931 N 668.101 -1.57061 -0.130224 0
M  V30 6932 C 669.011 -2.02802 -1.17934 0
M  V30 6933 C 670.027 -0.946378 -1.46013 0
M  V30 6934 O 671.203 -1.25708 -1.57351 0
M  V30 6935 C 668.268 -2.41368 -2.48882 0
M  V30 6936 C 667.329 -3.63561 -2.28301 0
M  V30 6937 C 666.562 -4.00279 -3.53005 0
M  V30 6938 O 666.785 -3.37463 -4.59864 0
M  V30 6939 O 665.719 -4.93441 -3.44673 0
M  V30 6940 H 669.545 -2.92394 -0.820958 0
M  V30 6941 H 667.13 -1.45475 -0.340197 0
M  V30 6942 H 669.012 -2.66958 -3.26054 0
M  V30 6943 H 667.687 -1.54926 -2.84217 0
M  V30 6944 H 666.594 -3.43136 -1.49025 0
M  V30 6945 H 667.927 -4.50673 -1.97875 0
M  V30 6946 N 669.579 0.400081 -1.52437 0
M  V30 6947 C 670.804 1.17221 -1.71096 0
M  V30 6948 C 671.229 1.83269 -0.423565 0
M  V30 6949 O 670.587 1.70378 0.619751 0
M  V30 6950 C 670.635 2.20425 -2.85386 0
M  V30 6951 O 669.739 3.26769 -2.51586 0
M  V30 6952 H 669.08 0.341766 -0.569291 0
M  V30 6953 H 671.61 0.467772 -1.99181 0
M  V30 6954 H 671.62 2.64605 -3.10561 0
M  V30 6955 H 670.295 1.71737 -3.78786 0
M  V30 6956 H 668.872 2.87804 -2.37114 0
M  V30 6957 N 671.057 1.43213 0.657864 0
M  V30 6958 C 672.02 1.47687 1.75275 0
M  V30 6959 C 673.02 0.362179 1.56668 0
M  V30 6960 O 674.21 0.623734 1.62651 0
M  V30 6961 C 671.342 1.32497 3.14098 0
M  V30 6962 H 672.535 2.4519 1.7269 0
M  V30 6963 H 670.088 1.2991 0.869087 0
M  V30 6964 H 670.823 0.359831 3.22298 0
M  V30 6965 H 670.608 2.13299 3.29008 0
M  V30 6966 H 672.098 1.38549 3.93946 0
M  V30 6967 N 672.536 -0.895792 1.29666 0
M  V30 6968 C 673.466 -2.01673 1.17688 0
M  V30 6969 C 674.447 -1.69955 0.0701317 0
M  V30 6970 O 675.632 -1.9258 0.250289 0
M  V30 6971 C 672.762 -3.36568 0.856681 0
M  V30 6972 C 671.716 -3.82509 1.92017 0
M  V30 6973 C 671.042 -5.14574 1.4532 0
M  V30 6974 C 672.342 -4.02409 3.32963 0
M  V30 6975 H 674.036 -2.11953 2.11463 0
M  V30 6976 H 671.582 -1.01839 1.01807 0
M  V30 6977 H 673.535 -4.14498 0.759577 0
M  V30 6978 H 672.259 -3.26391 -0.116763 0
M  V30 6979 H 670.918 -3.068 2.00673 0
M  V30 6980 H 670.566 -5.00815 0.468325 0
M  V30 6981 H 670.266 -5.46283 2.16447 0
M  V30 6982 H 671.79 -5.9504 1.36968 0
M  V30 6983 H 673.204 -4.70808 3.27127 0
M  V30 6984 H 671.601 -4.45478 4.02082 0
M  V30 6985 H 672.671 -3.06616 3.75652 0
M  V30 6986 N 674.014 -1.12206 -1.10668 0
M  V30 6987 C 674.944 -0.810086 -2.18997 0
M  V30 6988 C 675.925 0.225065 -1.68604 0
M  V30 6989 O 677.11 0.086783 -1.94006 0
M  V30 6990 C 674.24 -0.261262 -3.46316 0
M  V30 6991 C 673.194 -1.2292 -4.09969 0
M  V30 6992 C 672.52 -0.540713 -5.31959 0
M  V30 6993 C 673.82 -2.58295 -4.53962 0
M  V30 6994 H 675.514 -1.7159 -2.45352 0
M  V30 6995 H 673.06 -0.82646 -1.17922 0
M  V30 6996 H 675.013 -0.0307522 -4.21389 0
M  V30 6997 H 673.737 0.679879 -3.19445 0
M  V30 6998 H 672.396 -1.44548 -3.369 0
M  V30 6999 H 672.044 0.405492 -5.01363 0
M  V30 7000 H 671.744 -1.18637 -5.75499 0
M  V30 7001 H 673.268 -0.319184 -6.09765 0
M  V30 7002 H 674.682 -2.40709 -5.20319 0
M  V30 7003 H 673.079 -3.18916 -5.08343 0
M  V30 7004 H 674.149 -3.16918 -3.67002 0
M  V30 7005 N 675.492 1.28418 -0.913599 0
M  V30 7006 C 676.439 2.27301 -0.400373 0
M  V30 7007 C 677.409 1.57582 0.52509 0
M  V30 7008 O 678.594 1.85482 0.447318 0
M  V30 7009 C 675.734 3.43284 0.35361 0
M  V30 7010 C 674.847 4.27752 -0.604341 0
M  V30 7011 C 673.982 5.30934 0.168075 0
M  V30 7012 C 673.021 6.07065 -0.783499 0
M  V30 7013 N 672.158 7.02086 -0.0446112 0
M  V30 7014 H 676.998 2.70579 -1.24865 0
M  V30 7015 H 674.535 1.33067 -0.627028 0
M  V30 7016 H 676.493 4.09322 0.806945 0
M  V30 7017 H 675.123 3.00997 1.16623 0
M  V30 7018 H 674.175 3.61759 -1.17621 0
M  V30 7019 H 675.487 4.80682 -1.33216 0
M  V30 7020 H 674.641 6.02855 0.681979 0
M  V30 7021 H 673.38 4.78771 0.928947 0
M  V30 7022 H 672.385 5.33995 -1.30878 0
M  V30 7023 H 673.61 6.61317 -1.54392 0
M  V30 7024 H 671.556 6.52273 0.698272 0
M  V30 7025 H 671.473 7.52637 -0.712258 0
M  V30 7026 H 672.741 7.78205 0.449102 0
M  V30 7027 N 676.97 0.677563 1.42291 0
M  V30 7028 C 678.21 0.204894 2.0337 0
M  V30 7029 C 678.574 -1.16744 1.5243 0
M  V30 7030 O 679.775 -1.73492 2.05314 0
M  V30 7031 C 678.046 0.240742 3.56588 0
M  V30 7032 S 679.605 -0.16052 4.38506 0
M  V30 7033 H 676.423 0.0839932 0.706021 0
M  V30 7034 H 679.025 0.891332 1.73999 0
M  V30 7035 H 677.729 1.24184 3.91161 0
M  V30 7036 H 677.26 -0.465439 3.90637 0
M  V30 7037 H 679.275 -1.39315 4.76241 0
M  V30 7038 N 678.448 -1.51871 0.421078 0
M  V30 7039 C 679.697 -2.01125 -0.152206 0
M  V30 7040 C 680.01 -1.3106 -1.45199 0
M  V30 7041 O 681.216 -1.71195 -2.10724 0
M  V30 7042 C 679.672 -3.58458 -0.3218 0
M  V30 7043 C 679.28 -4.37448 0.96659 0
M  V30 7044 C 681.024 -4.15908 -0.84973 0
M  V30 7045 C 678.931 -5.86451 0.763529 0
M  V30 7046 H 677.861 -0.751556 -0.0606565 0
M  V30 7047 H 680.512 -1.75115 0.548354 0
M  V30 7048 H 678.894 -3.80847 -1.08498 0
M  V30 7049 H 680.068 -4.26814 1.73684 0
M  V30 7050 H 678.383 -3.91373 1.42183 0
M  V30 7051 H 680.98 -5.24922 -1.01788 0
M  V30 7052 H 681.323 -3.74031 -1.82774 0
M  V30 7053 H 681.856 -3.97535 -0.145297 0
M  V30 7054 H 678.595 -6.3271 1.71344 0
M  V30 7055 H 678.115 -5.99791 0.0327889 0
M  V30 7056 H 679.794 -6.45697 0.410354 0
M  V30 7057 N 679.926 -0.151884 -1.56866 0
M  V30 7058 C 680.836 0.798876 -2.20579 0
M  V30 7059 C 681.852 1.268 -1.19154 0
M  V30 7060 O 683.028 1.32418 -1.51748 0
M  V30 7061 C 680.093 2.01861 -2.81874 0
M  V30 7062 C 679.154 1.59825 -3.9844 0
M  V30 7063 C 678.387 2.75984 -4.56802 0
M  V30 7064 O 678.61 3.92331 -4.14044 0
M  V30 7065 O 677.544 2.51175 -5.46987 0
M  V30 7066 H 681.37 0.2865 -3.02346 0
M  V30 7067 H 678.955 0.0753806 -1.4921 0
M  V30 7068 H 680.837 2.73235 -3.20813 0
M  V30 7069 H 679.512 2.52042 -2.03117 0
M  V30 7070 H 678.419 0.854601 -3.64208 0
M  V30 7071 H 679.752 1.14355 -4.78731 0
M  V30 7072 N 681.404 1.57128 0.121893 0
M  V30 7073 C 682.334 2.03165 1.15092 0
M  V30 7074 C 683.315 0.915587 1.43356 0
M  V30 7075 O 684.5 1.1851 1.53847 0
M  V30 7076 C 681.63 2.43352 2.47784 0
M  V30 7077 C 680.584 3.58376 2.33989 0
M  V30 7078 C 679.91 3.84454 3.71617 0
M  V30 7079 C 681.21 4.90199 1.80283 0
M  V30 7080 H 682.904 2.89382 0.768023 0
M  V30 7081 H 680.45 1.39218 0.367998 0
M  V30 7082 H 682.403 2.74163 3.20019 0
M  V30 7083 H 681.127 1.54103 2.87958 0
M  V30 7084 H 679.786 3.2777 1.64202 0
M  V30 7085 H 679.434 2.92414 4.09271 0
M  V30 7086 H 679.134 4.61877 3.6324 0
M  V30 7087 H 680.658 4.17714 4.45362 0
M  V30 7088 H 682.072 5.19565 2.42333 0
M  V30 7089 H 680.469 5.71601 1.82735 0
M  V30 7090 H 681.539 4.78904 0.760184 0
M  V30 7091 N 682.882 -0.391992 1.52647 0
M  V30 7092 C 684.122 -1.1463 1.69232 0
M  V30 7093 C 684.486 -1.87312 0.421684 0
M  V30 7094 O 685.687 -2.64768 0.463852 0
M  V30 7095 C 683.958 -2.10088 2.89133 0
M  V30 7096 S 685.517 -2.93395 3.2629 0
M  V30 7097 H 682.335 -0.388076 0.59575 0
M  V30 7098 H 684.937 -0.431149 1.90687 0
M  V30 7099 H 683.641 -1.55408 3.79837 0
M  V30 7100 H 683.172 -2.86116 2.70003 0
M  V30 7101 H 685.187 -4.12193 2.76244 0
M  V30 7102 N 684.36 -1.4356 -0.65026 0
M  V30 7103 C 685.6 -1.46839 -1.42188 0
M  V30 7104 C 685.964 -0.0911433 -1.91784 0
M  V30 7105 O 687.165 0.00137545 -2.688 0
M  V30 7106 C 685.436 -2.48411 -2.56957 0
M  V30 7107 S 686.995 -2.70589 -3.45438 0
M  V30 7108 H 683.813 -0.519596 -0.485325 0
M  V30 7109 H 686.415 -1.80347 -0.75466 0
M  V30 7110 H 685.119 -3.47209 -2.18801 0
M  V30 7111 H 684.65 -2.16411 -3.28527 0
M  V30 7112 H 686.665 -2.00738 -4.53782 0
M  V30 7113 N 685.838 0.888903 -1.30139 0
M  V30 7114 C 687.086 1.63713 -1.18501 0
M  V30 7115 C 687.407 1.9324 0.261399 0
M  V30 7116 O 686.677 1.56608 1.17689 0
M  V30 7117 H 685.257 0.606861 -0.435579 0
M  V30 7118 H 687.919 1.06525 -1.63213 0
M  V30 7119 H 687.015 2.58894 -1.743 0
M  V30 7120 N 687.317 1.12792 1.10072 0
M  V30 7121 C 688.542 0.908838 1.86427 0
M  V30 7122 C 688.967 -0.536793 1.80278 0
M  V30 7123 O 688.325 -1.38033 1.17543 0
M  V30 7124 C 688.373 1.39295 3.3261 0
M  V30 7125 O 687.477 0.573846 4.08388 0
M  V30 7126 H 686.818 0.326234 0.578331 0
M  V30 7127 H 689.348 1.50094 1.39043 0
M  V30 7128 H 689.358 1.39366 3.83459 0
M  V30 7129 H 688.033 2.44555 3.36401 0
M  V30 7130 H 686.61 0.640438 3.67359 0
M  V30 7131 N 688.795 -1.27931 0.920396 0
M  V30 7132 C 690.041 -1.94977 0.557832 0
M  V30 7133 C 690.374 -1.72224 -0.897365 0
M  V30 7134 O 689.649 -1.04705 -1.63912 0
M  V30 7135 C 689.932 -3.49289 0.875741 0
M  V30 7136 C 689.785 -3.81416 2.38416 0
M  V30 7137 C 691.104 -4.38486 0.376517 0
M  V30 7138 H 688.223 -0.708164 0.20414 0
M  V30 7139 H 690.865 -1.5118 1.15085 0
M  V30 7140 H 689.015 -3.86724 0.371062 0
M  V30 7141 H 690.687 -3.53813 2.95997 0
M  V30 7142 H 688.93 -3.28225 2.83639 0
M  V30 7143 H 689.601 -4.89198 2.55713 0
M  V30 7144 H 692.077 -4.08161 0.808945 0
M  V30 7145 H 690.953 -5.45296 0.627976 0
M  V30 7146 H 691.214 -4.36143 -0.723293 0
M  V30 7147 N 690.273 -0.685099 -1.4193 0
M  V30 7148 C 691.22 -0.0131869 -2.30796 0
M  V30 7149 C 692.19 0.782129 -1.46533 0
M  V30 7150 O 693.375 0.75229 -1.75343 0
M  V30 7151 C 690.515 0.924768 -3.32479 0
M  V30 7152 C 689.628 0.122181 -4.31827 0
M  V30 7153 C 688.763 1.05682 -5.20581 0
M  V30 7154 C 687.802 0.246526 -6.11603 0
M  V30 7155 N 686.939 1.13442 -6.92875 0
M  V30 7156 H 691.779 -0.776789 -2.87698 0
M  V30 7157 H 689.316 -0.394791 -1.41703 0
M  V30 7158 H 691.274 1.48251 -3.89971 0
M  V30 7159 H 689.904 1.65488 -2.77152 0
M  V30 7160 H 688.956 -0.552335 -3.76369 0
M  V30 7161 H 690.268 -0.506473 -4.96222 0
M  V30 7162 H 689.422 1.68415 -5.82856 0
M  V30 7163 H 688.161 1.71935 -4.56388 0
M  V30 7164 H 687.166 -0.393944 -5.48387 0
M  V30 7165 H 688.391 -0.412053 -6.77849 0
M  V30 7166 H 686.337 1.78316 -6.313 0
M  V30 7167 H 686.254 0.561089 -7.53915 0
M  V30 7168 H 687.522 1.74889 -7.59628 0
M  V30 7169 N 691.751 1.51645 -0.429126 0
M  V30 7170 C 692.661 2.31288 0.392809 0
M  V30 7171 C 693.677 1.39852 1.03525 0
M  V30 7172 O 694.853 1.72926 1.03241 0
M  V30 7173 C 691.918 3.13347 1.48372 0
M  V30 7174 C 690.979 4.20551 0.862268 0
M  V30 7175 C 690.212 4.98688 1.9012 0
M  V30 7176 O 690.435 4.77359 3.12225 0
M  V30 7177 O 689.369 5.83005 1.4963 0
M  V30 7178 H 693.195 3.02609 -0.257138 0
M  V30 7179 H 690.78 1.48163 -0.191851 0
M  V30 7180 H 692.662 3.64387 2.1166 0
M  V30 7181 H 691.337 2.44799 2.1179 0
M  V30 7182 H 690.244 3.73609 0.191568 0
M  V30 7183 H 691.577 4.91449 0.271704 0
M  V30 7184 N 693.229 0.160201 1.56784 0
M  V30 7185 C 694.162 -0.812797 2.13234 0
M  V30 7186 C 695.14 -1.2335 1.05942 0
M  V30 7187 O 696.324 -1.32725 1.33852 0
M  V30 7188 C 693.451 -2.09311 2.66283 0
M  V30 7189 C 692.497 -1.8173 3.85845 0
M  V30 7190 S 693.33 -0.996473 5.26147 0
M  V30 7191 C 694.486 -2.28769 5.82594 0
M  V30 7192 H 694.719 -0.332794 2.95432 0
M  V30 7193 H 692.252 -0.0542971 1.54304 0
M  V30 7194 H 694.21 -2.82854 2.97496 0
M  V30 7195 H 692.871 -2.54425 1.84192 0
M  V30 7196 H 692.064 -2.76699 4.21253 0
M  V30 7197 H 691.666 -1.16289 3.55462 0
M  V30 7198 H 693.958 -3.24319 5.9483 0
M  V30 7199 H 694.901 -1.97846 6.79899 0
M  V30 7200 H 695.309 -2.40021 5.10931 0
M  V30 7201 N 694.707 -1.5719 -0.113559 0
M  V30 7202 C 696.123 -1.52607 -0.467253 0
M  V30 7203 C 696.323 -0.874058 -1.81556 0
M  V30 7204 O 695.379 -0.458703 -2.48299 0
M  V30 7205 C 696.692 -2.97363 -0.446736 0
M  V30 7206 C 698.24 -3.08482 -0.529903 0
M  V30 7207 C 698.715 -4.54809 -0.539721 0
M  V30 7208 N 700.206 -4.59284 -0.601005 0
M  V30 7209 C 700.941 -5.69927 -0.630138 0
M  V30 7210 N 700.437 -6.90051 -0.616589 0
M  V30 7211 N 702.23 -5.5805 -0.673558 0
M  V30 7212 H 694.381 -1.97958 0.769819 0
M  V30 7213 H 696.644 -0.90428 0.284572 0
M  V30 7214 H 696.35 -3.48458 0.47643 0
M  V30 7215 H 696.224 -3.55086 -1.27254 0
M  V30 7216 H 698.611 -2.57386 -1.44349 0
M  V30 7217 H 698.692 -2.53744 0.323695 0
M  V30 7218 H 698.336 -5.06552 0.369843 0
M  V30 7219 H 698.266 -5.07364 -1.41028 0
M  V30 7220 H 700.757 -3.72822 -0.617419 0
M  V30 7221 H 701.07 -7.70132 -0.641592 0
M  V30 7222 H 699.415 -6.92543 -0.583927 0
M  V30 7223 H 702.606 -4.63112 -0.681544 0
M  V30 7224 H 702.779 -6.44286 -0.692794 0
M  V30 7225 N 696.185 0.383891 -1.52853 0
M  V30 7226 C 697.095 1.49343 -1.80925 0
M  V30 7227 C 698.111 1.59458 -0.696348 0
M  V30 7228 O 699.287 1.75698 -0.984481 0
M  V30 7229 C 696.352 2.84819 -1.97684 0
M  V30 7230 C 695.413 2.84382 -3.21598 0
M  V30 7231 C 694.646 4.13397 -3.37548 0
M  V30 7232 O 694.869 5.08619 -2.58192 0
M  V30 7233 O 693.803 4.20325 -4.30826 0
M  V30 7234 H 697.629 1.2855 -2.75152 0
M  V30 7235 H 695.214 0.572229 -1.38007 0
M  V30 7236 H 697.096 3.65125 -2.10385 0
M  V30 7237 H 695.771 3.05627 -1.06647 0
M  V30 7238 H 694.678 2.0284 -3.14336 0
M  V30 7239 H 696.011 2.68526 -4.12498 0
M  V30 7240 N 697.663 1.43903 0.642637 0
M  V30 7241 C 699.079 1.27536 0.959519 0
M  V30 7242 C 699.279 0.202751 2.00477 0
M  V30 7243 O 698.335 -0.415256 2.49062 0
M  V30 7244 C 699.648 2.6432 1.43372 0
M  V30 7245 C 701.196 2.71937 1.54981 0
M  V30 7246 C 701.671 4.09164 2.05789 0
M  V30 7247 N 703.162 4.11282 2.13076 0
M  V30 7248 C 703.897 5.14303 2.53534 0
M  V30 7249 N 703.393 6.27693 2.93212 0
M  V30 7250 N 705.186 5.01657 2.53567 0
M  V30 7251 H 697.337 2.12344 -0.0488376 0
M  V30 7252 H 699.6 0.947124 0.0407559 0
M  V30 7253 H 699.306 3.43826 0.740048 0
M  V30 7254 H 699.18 2.90432 2.40685 0
M  V30 7255 H 701.567 1.92757 2.23448 0
M  V30 7256 H 701.648 2.49578 0.560739 0
M  V30 7257 H 701.292 4.88815 1.37921 0
M  V30 7258 H 701.222 4.28893 3.05546 0
M  V30 7259 H 703.713 3.2944 1.85143 0
M  V30 7260 H 704.026 7.02125 3.22863 0
M  V30 7261 H 702.371 6.31149 2.90991 0
M  V30 7262 H 705.562 4.12134 2.21952 0
M  V30 7263 H 705.735 5.82072 2.84774 0
M  V30 7264 N 699.141 -0.881989 1.30609 0
M  V30 7265 C 700.371 -1.66469 1.22359 0
M  V30 7266 C 700.779 -1.87969 -0.215507 0
M  V30 7267 O 700.122 -1.42938 -1.15388 0
M  V30 7268 C 700.184 -3.06135 1.88472 0
M  V30 7269 C 699.848 -3.07795 3.37804 0
M  V30 7270 C 700.845 -2.86633 4.33749 0
M  V30 7271 C 698.53 -3.29297 3.793 0
M  V30 7272 C 700.524 -2.86934 5.69164 0
M  V30 7273 C 698.211 -3.29228 5.14832 0
M  V30 7274 C 699.209 -3.08071 6.09574 0
M  V30 7275 O 698.897 -3.07824 7.4263 0
M  V30 7276 H 698.629 -0.526129 0.424458 0
M  V30 7277 H 701.183 -1.11004 1.72821 0
M  V30 7278 H 699.413 -3.63276 1.32543 0
M  V30 7279 H 701.102 -3.66571 1.74301 0
M  V30 7280 H 701.868 -2.69814 4.0302 0
M  V30 7281 H 697.747 -3.44799 3.05998 0
M  V30 7282 H 701.291 -2.70339 6.43088 0
M  V30 7283 H 697.188 -3.45583 5.452 0
M  V30 7284 H 697.956 -3.2397 7.51656 0
M  V30 7285 N 700.619 -1.13374 -1.09472 0
M  V30 7286 C 701.582 -0.813639 -2.14272 0
M  V30 7287 C 702.582 0.176677 -1.59826 0
M  V30 7288 O 703.772 -0.0503441 -1.74127 0
M  V30 7289 C 700.904 -0.210897 -3.40247 0
M  V30 7290 H 702.097 -1.74229 -2.44099 0
M  V30 7291 H 699.65 -0.938304 -1.25002 0
M  V30 7292 H 700.385 0.726998 -3.16046 0
M  V30 7293 H 700.17 -0.924048 -3.81056 0
M  V30 7294 H 701.66 -0.00377603 -4.176 0
M  V30 7295 N 702.098 1.27442 -0.927168 0
M  V30 7296 C 703.045 2.26863 -0.424459 0
M  V30 7297 C 704.015 1.5813 0.508346 0
M  V30 7298 O 705.2 1.85946 0.42762 0
M  V30 7299 C 702.34 3.43639 0.31718 0
M  V30 7300 C 701.453 4.27087 -0.649675 0
M  V30 7301 C 700.588 5.31082 0.111753 0
M  V30 7302 C 699.627 6.062 -0.847843 0
M  V30 7303 N 698.764 7.01999 -0.119074 0
M  V30 7304 H 703.604 2.69239 -1.27728 0
M  V30 7305 H 701.141 1.32394 -0.641106 0
M  V30 7306 H 703.099 4.10155 0.763486 0
M  V30 7307 H 701.729 3.02217 1.13424 0
M  V30 7308 H 700.781 3.60491 -1.21451 0
M  V30 7309 H 702.093 4.79242 -1.38307 0
M  V30 7310 H 701.247 6.03544 0.618 0
M  V30 7311 H 699.986 4.7973 0.878114 0
M  V30 7312 H 698.991 5.32577 -1.36534 0
M  V30 7313 H 700.216 6.59642 -1.61398 0
M  V30 7314 H 698.162 6.52977 0.629051 0
M  V30 7315 H 698.079 7.5184 -0.792046 0
M  V30 7316 H 699.347 7.78638 0.366537 0
M  V30 7317 N 703.576 0.692616 1.41565 0
M  V30 7318 C 704.825 0.219452 2.00503 0
M  V30 7319 C 705.138 -1.18683 1.55479 0
M  V30 7320 O 706.344 -1.75731 2.06956 0
M  V30 7321 C 704.8 0.341451 3.58277 0
M  V30 7322 C 704.408 1.75291 4.12283 0
M  V30 7323 C 706.152 -0.0720899 4.24439 0
M  V30 7324 C 704.059 1.82673 5.62481 0
M  V30 7325 H 702.989 0.0782874 0.749925 0
M  V30 7326 H 705.64 0.860386 1.62079 0
M  V30 7327 H 704.022 -0.367683 3.94289 0
M  V30 7328 H 705.196 2.49057 3.87695 0
M  V30 7329 H 703.511 2.11587 3.58636 0
M  V30 7330 H 706.108 -0.0373385 5.34687 0
M  V30 7331 H 706.451 -1.11034 4.0122 0
M  V30 7332 H 706.984 0.586663 3.9345 0
M  V30 7333 H 703.723 2.84539 5.90523 0
M  V30 7334 H 703.243 1.13288 5.89004 0
M  V30 7335 H 704.922 1.58827 6.27203 0
M  V30 7336 N 705.054 -1.51416 0.437162 0
M  V30 7337 C 706.3 -2.02386 -0.129555 0
M  V30 7338 C 706.633 -1.32071 -1.42376 0
M  V30 7339 O 705.908 -0.43559 -1.8956 0
M  V30 7340 C 706.191 -3.5841 -0.348487 0
M  V30 7341 C 706.044 -4.39341 0.964352 0
M  V30 7342 C 707.363 -4.25654 -1.11834 0
M  V30 7343 H 704.482 -0.735587 -0.0456109 0
M  V30 7344 H 707.124 -1.81055 0.576124 0
M  V30 7345 H 705.274 -3.76716 -0.949592 0
M  V30 7346 H 706.946 -4.32685 1.59942 0
M  V30 7347 H 705.189 -4.04432 1.56898 0
M  V30 7348 H 705.86 -5.4667 0.765212 0
M  V30 7349 H 708.336 -4.11617 -0.609165 0
M  V30 7350 H 707.212 -5.34704 -1.24029 0
M  V30 7351 H 707.473 -3.86502 -2.14636 0
M  V30 7352 N 706.532 -0.168513 -1.56696 0
M  V30 7353 C 707.442 0.775435 -2.21414 0
M  V30 7354 C 708.458 1.25529 -1.20492 0
M  V30 7355 O 709.634 1.30801 -1.53144 0
M  V30 7356 C 706.699 1.9886 -2.83999 0
M  V30 7357 C 705.76 1.5559 -4.00113 0
M  V30 7358 C 704.993 2.71124 -4.59704 0
M  V30 7359 O 705.216 3.87917 -4.18182 0
M  V30 7360 O 704.15 2.4536 -5.4962 0
M  V30 7361 H 707.976 0.254416 -3.02632 0
M  V30 7362 H 705.561 0.0595507 -1.49281 0
M  V30 7363 H 707.443 2.69816 -3.23693 0
M  V30 7364 H 706.118 2.49874 -2.05779 0
M  V30 7365 H 705.025 0.815924 -3.65094 0
M  V30 7366 H 706.358 1.09271 -4.79917 0
M  V30 7367 N 708.01 1.57248 0.105221 0
M  V30 7368 C 709.259 1.84756 0.809198 0
M  V30 7369 C 709.572 0.756262 1.80389 0
M  V30 7370 O 710.778 0.918158 2.55504 0
M  V30 7371 C 709.234 3.27613 1.48989 0
M  V30 7372 C 708.842 4.44788 0.535484 0
M  V30 7373 C 710.586 3.64356 2.17819 0
M  V30 7374 C 708.493 5.78676 1.22019 0
M  V30 7375 H 707.423 0.689139 0.305946 0
M  V30 7376 H 710.074 1.83395 0.0620371 0
M  V30 7377 H 708.456 3.23485 2.28415 0
M  V30 7378 H 709.63 4.60243 -0.226557 0
M  V30 7379 H 707.945 4.16374 -0.0465769 0
M  V30 7380 H 710.542 4.61663 2.69761 0
M  V30 7381 H 710.885 2.92474 2.96251 0
M  V30 7382 H 711.418 3.70328 1.45264 0
M  V30 7383 H 708.157 6.53763 0.476875 0
M  V30 7384 H 707.677 5.67083 1.9539 0
M  V30 7385 H 709.356 6.22897 1.74952 0
M  V30 7386 N 709.488 -0.375779 1.53054 0
M  V30 7387 C 710.899 -0.95309 1.6054 0
M  V30 7388 C 711.25 -1.90575 0.466446 0
M  V30 7389 O 710.375 -2.12507 -0.408609 0
M  V30 7390 C 710.97 -1.73537 2.90982 0
M  V30 7391 C 709.529 -2.26218 3.00836 0
M  V30 7392 C 708.676 -1.07157 2.55759 0
M  V30 7393 H 711.627 -0.154895 1.57942 0
M  V30 7394 H 711.648 -2.59574 2.78211 0
M  V30 7395 H 711.16 -1.04176 3.73857 0
M  V30 7396 H 709.261 -2.98852 2.22527 0
M  V30 7397 H 709.374 -2.54799 4.05727 0
M  V30 7398 H 707.738 -1.43553 2.10391 0
M  V30 7399 H 708.521 -0.393099 3.41042 0
M  V30 7400 N 710.966 -1.44241 -0.634997 0
M  V30 7401 C 712.213 -1.46821 -1.39463 0
M  V30 7402 C 712.541 -0.0993362 -1.94246 0
M  V30 7403 O 711.796 0.898325 -1.73864 0
M  V30 7404 C 712.095 -2.47279 -2.58046 0
M  V30 7405 C 711.761 -3.92703 -2.21574 0
M  V30 7406 C 710.423 -4.32306 -2.1134 0
M  V30 7407 C 712.775 -4.84271 -1.92695 0
M  V30 7408 C 710.103 -5.61407 -1.70409 0
M  V30 7409 C 712.455 -6.13755 -1.53258 0
M  V30 7410 C 711.119 -6.52316 -1.41562 0
M  V30 7411 H 710.389 -0.537256 -0.51033 0
M  V30 7412 H 713.036 -1.77431 -0.720441 0
M  V30 7413 H 711.341 -2.10138 -3.3068 0
M  V30 7414 H 713.038 -2.46523 -3.16271 0
M  V30 7415 H 709.628 -3.61369 -2.30456 0
M  V30 7416 H 713.812 -4.54432 -1.99513 0
M  V30 7417 H 709.068 -5.90105 -1.59955 0
M  V30 7418 H 713.242 -6.84168 -1.29949 0
M  V30 7419 H 710.869 -7.52255 -1.09619 0
M  V30 7420 N 712.444 0.87505 -1.31075 0
M  V30 7421 C 713.392 2.00317 -1.18219 0
M  V30 7422 C 714.386 1.69152 -0.0916872 0
M  V30 7423 O 715.592 1.7821 -0.253229 0
M  V30 7424 H 711.967 0.656981 -0.365895 0
M  V30 7425 H 713.938 2.08293 -2.13674 0
M  V30 7426 C 712.687 3.35821 -0.901095 0
M  V30 7427 H 712.01 3.6032 -1.73233 0
M  V30 7428 H 713.45 4.15366 -0.851295 0
M  V30 7429 C 711.909 3.34563 0.396114 0
M  V30 7430 O 712.439 3.75971 1.41452 0
M  V30 7431 N 710.645 2.87681 0.410832 0
M  V30 7432 H 710.192 2.54179 -0.418415 0
M  V30 7433 H 710.15 2.87223 1.27869 0
M  V30 7434 N 713.922 1.13953 1.08869 0
M  V30 7435 C 715.147 0.928559 1.85452 0
M  V30 7436 C 715.572 -0.517642 1.80837 0
M  V30 7437 O 714.93 -1.36779 1.19001 0
M  V30 7438 C 714.978 1.42814 3.31114 0
M  V30 7439 O 714.082 0.617129 4.07756 0
M  V30 7440 H 713.423 0.33235 0.574839 0
M  V30 7441 H 715.953 1.5156 1.37443 0
M  V30 7442 H 715.963 1.43425 3.8196 0
M  V30 7443 H 714.638 2.48109 3.33788 0
M  V30 7444 H 713.215 0.679365 3.66659 0
M  V30 7445 N 715.4 -1.26948 0.933913 0
M  V30 7446 C 716.628 -1.98186 0.59414 0
M  V30 7447 C 717.043 -1.69614 -0.829257 0
M  V30 7448 O 716.4 -0.960213 -1.55197 0
M  V30 7449 C 716.451 -3.52123 0.818026 0
M  V30 7450 O 716.172 -3.79698 2.18543 0
M  V30 7451 C 717.673 -4.40608 0.48781 0
M  V30 7452 H 714.893 -0.632305 0.224569 0
M  V30 7453 H 717.437 -1.61646 1.25263 0
M  V30 7454 H 715.592 -3.86851 0.206246 0
M  V30 7455 H 716.006 -4.7426 2.24005 0
M  V30 7456 H 717.48 -5.47606 0.695126 0
M  V30 7457 H 717.957 -4.35394 -0.576913 0
M  V30 7458 H 718.563 -4.11411 1.078 0
M  V30 7459 N 716.879 -0.700114 -1.41195 0
M  V30 7460 C 717.827 -0.0263301 -2.32585 0
M  V30 7461 C 718.821 0.763683 -1.51209 0
M  V30 7462 O 720.027 0.668793 -1.67114 0
M  V30 7463 H 716.402 0.0102869 -0.75193 0
M  V30 7464 H 718.373 -0.814087 -2.8708 0
M  V30 7465 C 717.122 0.892793 -3.36042 0
M  V30 7466 H 716.445 0.294306 -3.98715 0
M  V30 7467 H 717.885 1.33247 -4.02518 0
M  V30 7468 C 716.344 2.01109 -2.7029 0
M  V30 7469 O 716.874 3.10035 -2.55423 0
M  V30 7470 N 715.08 1.79015 -2.28915 0
M  V30 7471 H 714.627 0.904275 -2.41207 0
M  V30 7472 H 714.585 2.54022 -1.85257 0
M  V30 7473 N 718.357 1.51182 -0.445186 0
M  V30 7474 C 719.304 2.27939 0.362291 0
M  V30 7475 C 720.274 1.31864 1.01 0
M  V30 7476 O 721.459 1.60776 1.02741 0
M  V30 7477 C 718.599 3.13016 1.45311 0
M  V30 7478 C 717.712 4.24093 0.822757 0
M  V30 7479 C 716.847 4.96467 1.88928 0
M  V30 7480 C 715.886 5.99454 1.23778 0
M  V30 7481 N 715.023 6.65206 2.24602 0
M  V30 7482 H 719.863 2.965 -0.29862 0
M  V30 7483 H 717.4 1.46237 -0.15911 0
M  V30 7484 H 719.358 3.60673 2.09692 0
M  V30 7485 H 717.988 2.46553 2.08354 0
M  V30 7486 H 717.04 3.80341 0.0670364 0
M  V30 7487 H 718.352 4.97853 0.307184 0
M  V30 7488 H 717.506 5.47712 2.60953 0
M  V30 7489 H 716.245 4.22355 2.4386 0
M  V30 7490 H 715.25 5.47494 0.503042 0
M  V30 7491 H 716.475 6.75527 0.695694 0
M  V30 7492 H 714.421 5.93901 2.78599 0
M  V30 7493 H 714.338 7.34756 1.77958 0
M  V30 7494 H 715.606 7.21078 2.96085 0
M  V30 7495 N 719.835 0.176821 1.56605 0
M  V30 7496 C 721.065 -0.472142 2.01133 0
M  V30 7497 C 721.473 -1.56979 1.05614 0
M  V30 7498 O 720.816 -1.83632 0.0500137 0
M  V30 7499 C 720.878 -1.10547 3.42081 0
M  V30 7500 C 720.542 -0.148806 4.56758 0
M  V30 7501 C 721.539 0.634939 5.16008 0
M  V30 7502 C 719.224 -0.0430325 5.02282 0
M  V30 7503 C 721.218 1.5116 6.19217 0
M  V30 7504 C 718.905 0.83721 6.05338 0
M  V30 7505 C 719.903 1.61311 6.63677 0
M  V30 7506 O 719.591 2.47863 7.64735 0
M  V30 7507 H 719.323 -0.124725 0.664394 0
M  V30 7508 H 721.877 0.277329 2.03519 0
M  V30 7509 H 720.107 -1.90318 3.36625 0
M  V30 7510 H 721.796 -1.6572 3.70529 0
M  V30 7511 H 722.562 0.563424 4.81716 0
M  V30 7512 H 718.441 -0.636753 4.56581 0
M  V30 7513 H 721.985 2.11767 6.64681 0
M  V30 7514 H 717.882 0.909908 6.39055 0
M  V30 7515 H 718.65 2.4144 7.8208 0
M  V30 7516 N 721.313 -1.57302 -0.09688 0
M  V30 7517 C 722.245 -1.98618 -1.14384 0
M  V30 7518 C 723.258 -0.888483 -1.36418 0
M  V30 7519 O 724.447 -1.16661 -1.35101 0
M  V30 7520 C 721.547 -2.28838 -2.49973 0
M  V30 7521 C 720.72 -3.60132 -2.48241 0
M  V30 7522 C 719.779 -3.7831 -3.65743 0
M  V30 7523 O 718.805 -4.50183 -3.48316 0
M  V30 7524 N 720.007 -3.18752 -4.85157 0
M  V30 7525 H 722.772 -2.8904 -0.792202 0
M  V30 7526 H 720.333 -1.59356 -0.285883 0
M  V30 7527 H 722.325 -2.38193 -3.27179 0
M  V30 7528 H 720.895 -1.44431 -2.77233 0
M  V30 7529 H 720.115 -3.61763 -1.56593 0
M  V30 7530 H 721.403 -4.46389 -2.4416 0
M  V30 7531 H 720.801 -2.60368 -5.0222 0
M  V30 7532 H 719.358 -3.33595 -5.59962 0
M  V30 7533 N 722.791 0.367657 -1.53252 0
M  V30 7534 C 723.721 1.45632 -1.8252 0
M  V30 7535 C 724.702 1.55979 -0.678568 0
M  V30 7536 O 725.887 1.70581 -0.928217 0
M  V30 7537 C 723.017 2.82994 -2.01325 0
M  V30 7538 C 721.971 2.87473 -3.17086 0
M  V30 7539 C 721.297 4.2749 -3.21179 0
M  V30 7540 C 722.597 2.55182 -4.55719 0
M  V30 7541 H 724.291 1.21387 -2.73689 0
M  V30 7542 H 721.837 0.58251 -1.31692 0
M  V30 7543 H 723.79 3.59179 -2.20383 0
M  V30 7544 H 722.514 3.08622 -1.06864 0
M  V30 7545 H 721.173 2.13739 -2.97844 0
M  V30 7546 H 720.821 4.5019 -2.24361 0
M  V30 7547 H 720.521 4.31403 -3.98955 0
M  V30 7548 H 722.045 5.0555 -3.42419 0
M  V30 7549 H 723.459 3.21081 -4.74953 0
M  V30 7550 H 721.856 2.70414 -5.3572 0
M  V30 7551 H 722.926 1.5044 -4.60973 0
M  V30 7552 N 724.269 1.44576 0.627338 0
M  V30 7553 C 725.494 1.51271 1.41887 0
M  V30 7554 C 725.919 0.139814 1.8758 0
M  V30 7555 O 725.277 -0.871746 1.58966 0
M  V30 7556 C 725.325 2.48529 2.61277 0
M  V30 7557 O 724.429 1.98944 3.61241 0
M  V30 7558 H 723.77 0.510668 0.424399 0
M  V30 7559 H 726.3 1.89746 0.765356 0
M  V30 7560 H 726.31 2.66689 3.08773 0
M  V30 7561 H 724.985 3.48249 2.27366 0
M  V30 7562 H 723.562 1.90568 3.20528 0
M  V30 7563 N 725.747 -0.868086 1.31537 0
M  V30 7564 C 726.996 -1.61607 1.20689 0
M  V30 7565 C 727.309 -1.94204 -0.233275 0
M  V30 7566 O 728.515 -2.67515 -0.463465 0
M  V30 7567 C 726.971 -2.91348 2.11292 0
M  V30 7568 C 726.579 -2.66227 3.60315 0
M  V30 7569 C 728.323 -3.69344 2.09249 0
M  V30 7570 C 726.23 -3.91887 4.42921 0
M  V30 7571 H 725.16 -0.606373 0.448138 0
M  V30 7572 H 727.811 -0.959666 1.56405 0
M  V30 7573 H 726.193 -3.58374 1.68477 0
M  V30 7574 H 727.367 -2.07597 4.11388 0
M  V30 7575 H 725.682 -2.01582 3.64354 0
M  V30 7576 H 728.279 -4.62567 2.68209 0
M  V30 7577 H 728.622 -4.02044 1.0801 0
M  V30 7578 H 729.155 -3.09205 2.50274 0
M  V30 7579 H 725.894 -3.64336 5.44922 0
M  V30 7580 H 725.414 -4.49961 3.96605 0
M  V30 7581 H 727.093 -4.59754 4.55231 0
M  V30 7582 N 727.225 -1.14528 -1.08264 0
M  V30 7583 C 728.175 -0.802141 -2.13424 0
M  V30 7584 C 729.159 0.209362 -1.59532 0
M  V30 7585 O 730.351 0.0114859 -1.76996 0
M  V30 7586 C 727.48 -0.282938 -3.42132 0
M  V30 7587 C 726.566 -1.32405 -4.02902 0
M  V30 7588 N 726.957 -2.52861 -4.38058 0
M  V30 7589 C 725.255 -1.17462 -4.30254 0
M  V30 7590 C 725.956 -3.1952 -4.86088 0
M  V30 7591 N 724.932 -2.46921 -4.84284 0
M  V30 7592 H 728.734 -1.71843 -2.38426 0
M  V30 7593 H 726.248 -1.02936 -1.2561 0
M  V30 7594 H 728.245 -0.0188053 -4.16896 0
M  V30 7595 H 726.905 0.627533 -3.18578 0
M  V30 7596 H 727.916 -2.90078 -4.2904 0
M  V30 7597 H 724.593 -0.323283 -4.16246 0
M  V30 7598 H 725.983 -4.2223 -5.22658 0
M  V30 7599 N 728.703 1.26451 -0.940633 0
M  V30 7600 C 729.65 2.264 -0.448497 0
M  V30 7601 C 730.62 1.5866 0.491546 0
M  V30 7602 O 731.805 1.86389 0.407874 0
M  V30 7603 C 728.945 3.43956 0.280715 0
M  V30 7604 C 728.058 4.26374 -0.694937 0
M  V30 7605 C 727.193 5.31171 0.0554186 0
M  V30 7606 C 726.232 6.05266 -0.912091 0
M  V30 7607 N 725.369 7.01833 -0.193524 0
M  V30 7608 H 730.209 2.67869 -1.30576 0
M  V30 7609 H 727.746 1.31707 -0.655112 0
M  V30 7610 H 729.704 4.10941 0.71994 0
M  V30 7611 H 728.334 3.03403 1.10212 0
M  V30 7612 H 727.386 3.59183 -1.25267 0
M  V30 7613 H 728.698 4.77748 -1.43382 0
M  V30 7614 H 727.852 6.04166 0.553951 0
M  V30 7615 H 726.591 4.80634 0.827183 0
M  V30 7616 H 725.596 5.31099 -1.42175 0
M  V30 7617 H 726.821 6.57893 -1.68385 0
M  V30 7618 H 724.767 6.53607 0.559758 0
M  V30 7619 H 724.684 7.50957 -0.871744 0
M  V30 7620 H 725.952 7.78983 0.283932 0
M  V30 7621 N 730.181 0.707592 1.40822 0
M  V30 7622 C 731.129 0.0386643 2.32568 0
M  V30 7623 C 732.123 -0.755653 1.51612 0
M  V30 7624 O 733.329 -0.659921 1.67467 0
M  V30 7625 H 729.704 -0.00629912 0.751974 0
M  V30 7626 H 731.675 0.8293 2.86645 0
M  V30 7627 C 730.424 -0.87496 3.36511 0
M  V30 7628 H 729.747 -0.273157 3.98866 0
M  V30 7629 H 731.187 -1.31111 4.03219 0
M  V30 7630 C 729.646 -1.99672 2.71353 0
M  V30 7631 O 730.176 -3.08676 2.57064 0
M  V30 7632 N 728.382 -1.77799 2.29861 0
M  V30 7633 H 727.929 -0.89147 2.41683 0
M  V30 7634 H 727.887 -2.53036 1.86601 0
M  V30 7635 N 731.66 -1.50943 0.453197 0
M  V30 7636 C 733.071 -1.86699 -0.00619892 0
M  V30 7637 C 733.422 -1.3693 -1.40515 0
M  V30 7638 O 732.547 -0.726715 -2.03833 0
M  V30 7639 C 733.142 -3.38795 -0.018025 0
M  V30 7640 C 731.701 -3.74028 -0.421885 0
M  V30 7641 C 730.848 -2.74752 0.375087 0
M  V30 7642 H 733.799 -1.43942 0.668317 0
M  V30 7643 H 733.82 -3.71468 -0.824125 0
M  V30 7644 H 733.332 -3.74988 1.00028 0
M  V30 7645 H 731.433 -3.43431 -1.44521 0
M  V30 7646 H 731.546 -4.78908 -0.135664 0
M  V30 7647 H 729.91 -2.5414 -0.168794 0
M  V30 7648 H 730.693 -3.13787 1.39256 0
M  V30 7649 N 733.138 -0.185124 -1.56509 0
M  V30 7650 C 734.086 0.756505 -2.19954 0
M  V30 7651 C 735.08 1.22725 -1.16769 0
M  V30 7652 O 736.286 1.1913 -1.34937 0
M  V30 7653 H 732.661 0.262279 -0.704779 0
M  V30 7654 H 734.632 0.197587 -2.97745 0
M  V30 7655 C 733.381 1.96975 -2.86524 0
M  V30 7656 H 732.704 1.61658 -3.65659 0
M  V30 7657 H 734.144 2.60719 -3.34367 0
M  V30 7658 C 732.603 2.80219 -1.87027 0
M  V30 7659 O 733.133 3.77821 -1.36433 0
M  V30 7660 N 731.339 2.4551 -1.55477 0
M  V30 7661 H 730.886 1.66199 -1.96813 0
M  V30 7662 H 730.844 3.01493 -0.891597 0
M  V30 7663 N 734.616 1.57351 0.0885366 0
M  V30 7664 C 735.844 1.90631 0.804196 0
M  V30 7665 C 736.259 0.779474 1.71958 0
M  V30 7666 O 735.616 -0.248179 1.80805 0
M  V30 7667 C 735.667 3.23568 1.61202 0
M  V30 7668 O 735.388 4.31917 0.733447 0
M  V30 7669 C 736.889 3.70753 2.43016 0
M  V30 7670 H 734.109 0.630501 0.229585 0
M  V30 7671 H 736.653 2.044 0.0638092 0
M  V30 7672 H 734.808 3.11377 2.30485 0
M  V30 7673 H 735.222 5.08297 1.29361 0
M  V30 7674 H 736.696 4.66447 2.9518 0
M  V30 7675 H 737.173 2.98922 3.2178 0
M  V30 7676 H 737.779 3.85834 1.7892 0
M  V30 7677 N 736.094 -0.359525 1.53444 0
M  V30 7678 C 737.319 -1.12644 1.74144 0
M  V30 7679 C 737.744 -1.82082 0.472007 0
M  V30 7680 O 737.102 -1.71962 -0.57436 0
M  V30 7681 C 737.15 -2.12781 2.9113 0
M  V30 7682 O 736.254 -3.19984 2.60162 0
M  V30 7683 H 735.595 -0.326553 0.578152 0
M  V30 7684 H 738.125 -0.414798 2.00351 0
M  V30 7685 H 738.135 -2.56278 3.17467 0
M  V30 7686 H 736.81 -1.61634 3.83207 0
M  V30 7687 H 735.387 -2.81417 2.44661 0
M  V30 7688 N 737.572 -1.44907 -0.619662 0
M  V30 7689 C 738.482 -1.55168 -1.75955 0
M  V30 7690 C 739.498 -0.43672 -1.6843 0
M  V30 7691 O 740.674 -0.695704 -1.89002 0
M  V30 7692 C 737.739 -1.50397 -3.12381 0
M  V30 7693 C 736.8 -2.72835 -3.31451 0
M  V30 7694 C 736.033 -2.68283 -4.61368 0
M  V30 7695 O 736.256 -1.74929 -5.42914 0
M  V30 7696 O 735.19 -3.59308 -4.82889 0
M  V30 7697 H 739.016 -2.51493 -1.7025 0
M  V30 7698 H 736.601 -1.27282 -0.782289 0
M  V30 7699 H 738.483 -1.50301 -3.93685 0
M  V30 7700 H 737.158 -0.572197 -3.18603 0
M  V30 7701 H 736.065 -2.78496 -2.49781 0
M  V30 7702 H 737.398 -3.65098 -3.30098 0
M  V30 7703 N 739.05 0.861098 -1.31996 0
M  V30 7704 C 740.461 1.43065 -1.19955 0
M  V30 7705 C 740.812 1.95273 0.190489 0
M  V30 7706 O 739.937 1.87012 1.08882 0
M  V30 7707 C 740.532 2.60052 -2.1716 0
M  V30 7708 C 739.091 3.13026 -2.09026 0
M  V30 7709 C 738.238 1.85756 -2.05888 0
M  V30 7710 H 741.189 0.668834 -1.43918 0
M  V30 7711 H 741.21 3.37016 -1.76637 0
M  V30 7712 H 740.722 2.22024 -3.18319 0
M  V30 7713 H 738.823 3.55653 -1.11092 0
M  V30 7714 H 738.936 3.74707 -2.98549 0
M  V30 7715 H 737.3 2.05088 -1.51033 0
M  V30 7716 H 738.083 1.49954 -3.08818 0
M  V30 7717 N 740.528 1.15101 1.07655 0
M  V30 7718 C 741.46 0.802722 2.14684 0
M  V30 7719 C 742.473 -0.183874 1.61758 0
M  V30 7720 O 743.662 0.0389349 1.78458 0
M  V30 7721 C 740.762 0.172135 3.38463 0
M  V30 7722 C 739.935 1.19538 4.20749 0
M  V30 7723 C 738.994 0.58714 5.22914 0
M  V30 7724 O 738.02 1.25224 5.55255 0
M  V30 7725 N 739.222 -0.632566 5.77043 0
M  V30 7726 H 741.987 1.72379 2.45164 0
M  V30 7727 H 739.548 1.04647 1.23534 0
M  V30 7728 H 741.54 -0.247465 4.03943 0
M  V30 7729 H 740.11 -0.652214 3.0572 0
M  V30 7730 H 739.33 1.79165 3.51132 0
M  V30 7731 H 740.618 1.88636 4.7254 0
M  V30 7732 H 740.016 -1.19135 5.53013 0
M  V30 7733 H 738.573 -0.994566 6.44167 0
M  V30 7734 N 742.006 -1.2595 0.947325 0
M  V30 7735 C 742.956 -2.23859 0.432547 0
M  V30 7736 C 743.94 -1.53755 -0.474154 0
M  V30 7737 O 745.132 -1.74293 -0.308397 0
M  V30 7738 C 742.261 -3.42027 -0.295318 0
M  V30 7739 C 741.347 -4.19409 0.62903 0
M  V30 7740 N 741.738 -4.74284 1.7575 0
M  V30 7741 C 740.036 -4.43866 0.435805 0
M  V30 7742 C 740.737 -5.32821 2.33401 0
M  V30 7743 N 739.713 -5.18858 1.62135 0
M  V30 7744 H 743.515 -2.63886 1.29388 0
M  V30 7745 H 741.029 -1.41105 0.80393 0
M  V30 7746 H 743.026 -4.11297 -0.681188 0
M  V30 7747 H 741.686 -3.03526 -1.15334 0
M  V30 7748 H 742.697 -4.71641 2.13952 0
M  V30 7749 H 739.374 -4.15768 -0.37994 0
M  V30 7750 H 740.764 -5.86111 3.28517 0
M  V30 7751 N 743.484 -0.715051 -1.40445 0
M  V30 7752 C 744.414 -0.0768699 -2.33373 0
M  V30 7753 C 745.395 0.746109 -1.52863 0
M  V30 7754 O 746.58 0.695142 -1.81332 0
M  V30 7755 C 743.71 0.846014 -3.36838 0
M  V30 7756 C 742.664 0.128694 -4.27806 0
M  V30 7757 C 741.99 1.16726 -5.21804 0
M  V30 7758 C 743.29 -1.01679 -5.12307 0
M  V30 7759 H 744.984 -0.853061 -2.8699 0
M  V30 7760 H 742.53 -0.41167 -1.3799 0
M  V30 7761 H 744.483 1.30185 -4.00786 0
M  V30 7762 H 743.207 1.6541 -2.81615 0
M  V30 7763 H 741.866 -0.307314 -3.6531 0
M  V30 7764 H 741.514 1.96838 -4.62887 0
M  V30 7765 H 741.214 0.692188 -5.83509 0
M  V30 7766 H 742.738 1.62321 -5.88629 0
M  V30 7767 H 744.152 -0.640337 -5.69713 0
M  V30 7768 H 742.549 -1.4202 -5.83053 0
M  V30 7769 H 743.619 -1.84769 -4.48317 0
M  V30 7770 N 744.962 1.50701 -0.461195 0
M  V30 7771 C 745.892 2.31182 0.328184 0
M  V30 7772 C 746.873 1.37644 0.999408 0
M  V30 7773 O 748.058 1.66565 0.99848 0
M  V30 7774 C 745.188 3.17113 1.41621 0
M  V30 7775 C 744.142 4.19124 0.867148 0
M  V30 7776 C 743.468 4.93728 2.05272 0
M  V30 7777 C 744.768 5.22174 -0.114808 0
M  V30 7778 H 746.462 2.97423 -0.343501 0
M  V30 7779 H 744.008 1.43033 -0.166641 0
M  V30 7780 H 745.961 3.72208 1.97584 0
M  V30 7781 H 744.685 2.48739 2.11652 0
M  V30 7782 H 743.344 3.65116 0.329557 0
M  V30 7783 H 742.992 4.21835 2.73978 0
M  V30 7784 H 742.692 5.62724 1.69161 0
M  V30 7785 H 744.216 5.51654 2.61744 0
M  V30 7786 H 745.63 5.72198 0.355316 0
M  V30 7787 H 744.027 5.98833 -0.389689 0
M  V30 7788 H 745.097 4.7353 -1.04391 0
M  V30 7789 N 746.441 0.193421 1.56409 0
M  V30 7790 C 747.687 -0.446449 1.97825 0
M  V30 7791 C 748.02 -1.61386 1.08019 0
M  V30 7792 O 747.295 -1.94053 0.131839 0
M  V30 7793 C 747.578 -0.908199 3.48459 0
M  V30 7794 C 747.431 0.260914 4.49043 0
M  V30 7795 C 748.75 -1.77428 4.0275 0
M  V30 7796 H 745.869 -0.160807 0.719243 0
M  V30 7797 H 748.511 0.284006 1.87865 0
M  V30 7798 H 746.661 -1.53062 3.57077 0
M  V30 7799 H 748.333 0.898548 4.52464 0
M  V30 7800 H 746.576 0.912949 4.24085 0
M  V30 7801 H 747.247 -0.104657 5.51901 0
M  V30 7802 H 749.723 -1.24936 3.96901 0
M  V30 7803 H 748.599 -2.06633 5.08521 0
M  V30 7804 H 748.86 -2.72788 3.47907 0
M  V30 7805 N 747.919 -1.57396 -0.0801906 0
M  V30 7806 C 748.852 -1.98386 -1.12774 0
M  V30 7807 C 749.83 -0.859423 -1.38031 0
M  V30 7808 O 751.014 -1.12101 -1.51544 0
M  V30 7809 C 748.141 -2.3134 -2.47386 0
M  V30 7810 C 747.187 -3.53706 -2.38316 0
M  V30 7811 S 748.02 -5.04862 -1.78534 0
M  V30 7812 C 749.176 -5.41008 -3.1474 0
M  V30 7813 H 749.409 -2.86929 -0.778382 0
M  V30 7814 H 746.942 -1.51682 -0.28842 0
M  V30 7815 H 748.9 -2.51 -3.24822 0
M  V30 7816 H 747.561 -1.4334 -2.79486 0
M  V30 7817 H 746.754 -3.74253 -3.37566 0
M  V30 7818 H 746.356 -3.33632 -1.69014 0
M  V30 7819 H 748.648 -5.38565 -4.1104 0
M  V30 7820 H 749.591 -6.41885 -2.98981 0
M  V30 7821 H 749.999 -4.68467 -3.14958 0
M  V30 7822 N 749.397 0.351382 -1.53633 0
M  V30 7823 C 750.344 1.43115 -1.81071 0
M  V30 7824 C 751.314 1.52601 -0.655913 0
M  V30 7825 O 752.499 1.68264 -0.89955 0
M  V30 7826 C 749.639 2.79874 -2.01903 0
M  V30 7827 C 748.752 2.79242 -3.29618 0
M  V30 7828 C 747.887 4.07667 -3.40559 0
M  V30 7829 C 746.926 4.01233 -4.62254 0
M  V30 7830 N 746.063 5.21334 -4.70271 0
M  V30 7831 H 750.903 1.19017 -2.73201 0
M  V30 7832 H 748.44 0.576691 -1.35324 0
M  V30 7833 H 750.398 3.5934 -2.11969 0
M  V30 7834 H 749.028 3.0234 -1.13094 0
M  V30 7835 H 748.08 1.91927 -3.28433 0
M  V30 7836 H 749.392 2.70363 -4.19172 0
M  V30 7837 H 748.546 4.95555 -3.50015 0
M  V30 7838 H 747.285 4.19317 -2.49047 0
M  V30 7839 H 746.29 3.11732 -4.52884 0
M  V30 7840 H 747.515 3.91173 -5.55122 0
M  V30 7841 H 745.461 5.33543 -3.81665 0
M  V30 7842 H 745.378 5.14681 -5.5375 0
M  V30 7843 H 746.646 6.11014 -4.84027 0
M  V30 7844 N 750.875 1.45233 0.611969 0
M  V30 7845 C 752.123 1.48727 1.36838 0
M  V30 7846 C 752.444 0.128616 1.94575 0
M  V30 7847 O 751.714 -0.84149 1.76906 0
M  V30 7848 H 750.294 0.547695 0.507976 0
M  V30 7849 H 752.956 1.81156 0.718925 0
M  V30 7850 H 752.052 2.2236 2.19003 0
M  V30 7851 N 752.353 -0.854086 1.3245 0
M  V30 7852 C 753.316 -1.94427 1.21371 0
M  V30 7853 C 754.316 -1.60219 0.136613 0
M  V30 7854 O 755.506 -1.69846 0.387057 0
M  V30 7855 C 752.638 -3.29698 0.866701 0
M  V30 7856 H 753.831 -2.05679 2.18257 0
M  V30 7857 H 751.384 -1.04434 1.1629 0
M  V30 7858 H 752.119 -3.24145 -0.100319 0
M  V30 7859 H 751.904 -3.55903 1.64545 0
M  V30 7860 H 753.394 -4.09599 0.813515 0
M  V30 7861 N 753.831 -1.1567 -1.07043 0
M  V30 7862 C 755.242 -0.942408 -1.61169 0
M  V30 7863 C 755.593 0.515537 -1.89306 0
M  V30 7864 O 754.718 1.38726 -1.66084 0
M  V30 7865 C 755.313 -1.70431 -2.92812 0
M  V30 7866 C 753.872 -1.53521 -3.43669 0
M  V30 7867 C 753.019 -1.7179 -2.17678 0
M  V30 7868 H 755.97 -1.3065 -0.9009 0
M  V30 7869 H 755.991 -1.17566 -3.61882 0
M  V30 7870 H 755.503 -2.76538 -2.72302 0
M  V30 7871 H 753.604 -0.498224 -3.69254 0
M  V30 7872 H 753.717 -2.31422 -4.19501 0
M  V30 7873 H 752.081 -1.14468 -2.27529 0
M  V30 7874 H 752.864 -2.79269 -1.99659 0
M  V30 7875 N 755.309 1.25446 -0.953992 0
M  V30 7876 C 756.219 2.29632 -0.480264 0
M  V30 7877 C 757.235 1.68025 0.452071 0
M  V30 7878 O 758.411 1.98703 0.328472 0
M  V30 7879 C 755.476 3.45903 0.234974 0
M  V30 7880 C 754.537 4.22953 -0.735495 0
M  V30 7881 C 753.77 5.33672 -0.0542957 0
M  V30 7882 O 753.993 5.58477 1.16018 0
M  V30 7883 O 752.927 5.9734 -0.739509 0
M  V30 7884 H 756.753 2.72242 -1.34602 0
M  V30 7885 H 754.338 1.30883 -0.720419 0
M  V30 7886 H 756.22 4.16552 0.637341 0
M  V30 7887 H 754.895 3.05296 1.07592 0
M  V30 7888 H 753.802 3.54734 -1.18806 0
M  V30 7889 H 755.135 4.67341 -1.54444 0
M  V30 7890 N 756.787 0.722489 1.40064 0
M  V30 7891 C 758.203 0.396758 1.5459 0
M  V30 7892 C 758.403 -1.09375 1.69232 0
M  V30 7893 O 757.459 -1.87984 1.68578 0
M  V30 7894 C 758.772 1.16885 2.77053 0
M  V30 7895 C 760.32 1.15583 2.90877 0
M  V30 7896 C 760.795 1.91023 4.16262 0
M  V30 7897 N 762.286 1.88126 4.23276 0
M  V30 7898 C 763.021 2.43315 5.19216 0
M  V30 7899 N 762.517 3.07089 6.21022 0
M  V30 7900 N 764.31 2.33418 5.11344 0
M  V30 7901 H 756.461 1.68887 1.28806 0
M  V30 7902 H 758.724 0.714231 0.62336 0
M  V30 7903 H 758.43 2.22301 2.72534 0
M  V30 7904 H 758.304 0.765011 3.69361 0
M  V30 7905 H 760.691 0.10984 2.94896 0
M  V30 7906 H 760.772 1.59895 1.99668 0
M  V30 7907 H 760.416 2.95616 4.13006 0
M  V30 7908 H 760.346 1.44126 5.06493 0
M  V30 7909 H 762.837 1.41654 3.50346 0
M  V30 7910 H 763.15 3.467 6.90666 0
M  V30 7911 H 761.495 3.11175 6.21446 0
M  V30 7912 H 764.686 1.83248 4.30741 0
M  V30 7913 H 764.859 2.7673 5.85939 0
M  V30 7914 N 758.265 -1.50454 0.469181 0
M  V30 7915 C 759.514 -2.01507 -0.0881425 0
M  V30 7916 C 759.827 -1.35613 -1.40956 0
M  V30 7917 O 761.033 -1.77812 -2.05171 0
M  V30 7918 C 759.489 -3.59301 -0.207596 0
M  V30 7919 C 759.097 -4.34152 1.10527 0
M  V30 7920 C 760.841 -4.18401 -0.716981 0
M  V30 7921 C 758.748 -5.83725 0.949717 0
M  V30 7922 H 757.678 -0.753106 -0.0367156 0
M  V30 7923 H 760.329 -1.73282 0.603788 0
M  V30 7924 H 758.711 -3.84106 -0.963265 0
M  V30 7925 H 759.885 -4.21073 1.87175 0
M  V30 7926 H 758.2 -3.86652 1.54562 0
M  V30 7927 H 760.797 -5.27895 -0.850363 0
M  V30 7928 H 761.14 -3.79657 -1.70782 0
M  V30 7929 H 761.673 -3.97796 -0.0187511 0
M  V30 7930 H 758.412 -6.26938 1.91387 0
M  V30 7931 H 757.932 -5.99383 0.223591 0
M  V30 7932 H 759.611 -6.44065 0.61557 0
M  V30 7933 N 759.743 -0.201713 -1.56304 0
M  V30 7934 C 760.673 0.71155 -2.22394 0
M  V30 7935 C 761.654 1.21625 -1.18917 0
M  V30 7936 O 762.839 1.26388 -1.47444 0
M  V30 7937 C 759.969 1.92837 -2.88845 0
M  V30 7938 C 758.923 1.55831 -3.98623 0
M  V30 7939 C 758.249 2.85228 -4.52271 0
M  V30 7940 C 759.549 0.763249 -5.16693 0
M  V30 7941 H 761.243 0.160573 -2.98969 0
M  V30 7942 H 758.789 0.0757916 -1.438 0
M  V30 7943 H 760.742 2.57253 -3.33764 0
M  V30 7944 H 759.466 2.50398 -2.09686 0
M  V30 7945 H 758.125 0.9377 -3.54405 0
M  V30 7946 H 757.773 3.40893 -3.69866 0
M  V30 7947 H 757.473 2.6121 -5.26349 0
M  V30 7948 H 758.997 3.50622 -4.99897 0
M  V30 7949 H 760.411 1.31066 -5.58117 0
M  V30 7950 H 758.808 0.620935 -5.96879 0
M  V30 7951 H 759.878 -0.234322 -4.84334 0
M  V30 7952 N 761.222 1.57436 0.0718424 0
M  V30 7953 C 762.499 1.78312 0.804006 0
M  V30 7954 C 762.879 0.789273 1.9579 0
M  V30 7955 O 762.227 -0.177605 2.27809 0
M  V30 7956 C 762.437 3.24798 1.277 0
M  V30 7957 C 763.785 3.88627 1.71039 0
M  V30 7958 O 764.809 3.28689 1.37266 0
M  V30 7959 O 763.668 4.94073 2.33567 0
M  V30 7960 H 760.762 0.73178 0.385262 0
M  V30 7961 H 763.308 1.69621 0.0519219 0
M  V30 7962 H 762.08 3.88688 0.45134 0
M  V30 7963 H 761.703 3.38213 2.0904 0
M  V30 7964 N 762.7 -0.34323 1.53817 0
M  V30 7965 C 764.116 -0.686355 1.44088 0
M  V30 7966 C 764.316 -1.92426 0.597882 0
M  V30 7967 O 763.372 -2.52343 0.0889918 0
M  V30 7968 C 764.685 -0.878698 2.87575 0
M  V30 7969 C 766.233 -0.977296 2.97352 0
M  V30 7970 C 766.708 -1.20195 4.41947 0
M  V30 7971 N 768.199 -1.26915 4.45474 0
M  V30 7972 C 768.934 -1.46049 5.54488 0
M  V30 7973 N 768.43 -1.62354 6.73508 0
M  V30 7974 N 770.223 -1.48599 5.42102 0
M  V30 7975 H 762.374 0.470679 2.07119 0
M  V30 7976 H 764.637 0.148652 0.936273 0
M  V30 7977 H 764.343 -0.040602 3.51677 0
M  V30 7978 H 764.217 -1.78034 3.32541 0
M  V30 7979 H 766.604 -1.80591 2.3339 0
M  V30 7980 H 766.685 -0.0525498 2.55746 0
M  V30 7981 H 766.329 -0.378262 5.06489 0
M  V30 7982 H 766.259 -2.14027 4.81145 0
M  V30 7983 H 768.75 -1.15837 3.59708 0
M  V30 7984 H 769.063 -1.76591 7.52353 0
M  V30 7985 H 767.408 -1.5949 6.76453 0
M  V30 7986 H 770.599 -1.35443 4.48077 0
M  V30 7987 H 770.772 -1.6317 6.2712 0
M  V30 7988 N 764.178 -1.45556 -0.604258 0
M  V30 7989 C 765.418 -1.51289 -1.37445 0
M  V30 7990 C 765.782 -0.152112 -1.91397 0
M  V30 7991 O 766.983 -0.0841419 -2.68668 0
M  V30 7992 C 765.254 -2.5646 -2.48924 0
M  V30 7993 S 766.813 -2.81442 -3.36654 0
M  V30 7994 H 763.631 -0.534774 -0.468549 0
M  V30 7995 H 766.233 -1.82657 -0.696902 0
M  V30 7996 H 764.937 -3.53995 -2.07644 0
M  V30 7997 H 764.468 -2.26753 -3.21476 0
M  V30 7998 H 766.483 -2.15074 -4.47166 0
M  V30 7999 N 765.656 0.84705 -1.32902 0
M  V30 8000 C 766.881 1.63925 -1.27056 0
M  V30 8001 C 767.306 1.87443 0.157136 0
M  V30 8002 O 766.664 1.43266 1.11106 0
M  V30 8003 C 766.712 2.97134 -2.04313 0
M  V30 8004 O 765.816 3.88049 -1.39614 0
M  V30 8005 H 765.157 0.499477 -0.437514 0
M  V30 8006 H 767.687 1.05443 -1.75336 0
M  V30 8007 H 767.697 3.46896 -2.14772 0
M  V30 8008 H 766.372 2.79339 -3.08128 0
M  V30 8009 H 764.949 3.46525 -1.3775 0
M  V30 8010 N 767.134 1.16236 1.06428 0
M  V30 8011 C 768.359 0.967688 1.83441 0
M  V30 8012 C 768.784 -0.479167 1.81894 0
M  V30 8013 O 768.142 -1.34224 1.21875 0
M  V30 8014 C 768.19 1.49806 3.2801 0
M  V30 8015 O 767.294 0.703481 4.06356 0
M  V30 8016 H 766.635 0.344468 0.56766 0
M  V30 8017 H 769.165 1.54442 1.34197 0
M  V30 8018 H 769.175 1.51495 3.78831 0
M  V30 8019 H 767.85 2.55133 3.2845 0
M  V30 8020 H 766.427 0.756986 3.65136 0
M  V30 8021 N 768.612 -1.24939 0.960631 0
M  V30 8022 C 769.861 -1.92118 0.614298 0
M  V30 8023 C 770.174 -1.75998 -0.853474 0
M  V30 8024 O 771.38 -2.37804 -1.31003 0
M  V30 8025 C 769.836 -3.44303 1.04801 0
M  V30 8026 C 769.444 -3.69123 2.53875 0
M  V30 8027 C 771.188 -4.17375 0.774497 0
M  V30 8028 C 769.095 -5.14843 2.91016 0
M  V30 8029 H 768.025 -0.719319 0.226045 0
M  V30 8030 H 770.676 -1.41701 1.16589 0
M  V30 8031 H 769.058 -3.93715 0.42479 0
M  V30 8032 H 770.232 -3.30339 3.21267 0
M  V30 8033 H 768.547 -3.09323 2.78762 0
M  V30 8034 H 771.144 -5.24723 1.02808 0
M  V30 8035 H 771.487 -4.15294 -0.289192 0
M  V30 8036 H 772.02 -3.7389 1.35835 0
M  V30 8037 H 768.759 -5.2204 3.96427 0
M  V30 8038 H 768.279 -5.54652 2.28302 0
M  V30 8039 H 769.958 -5.83017 2.80535 0
M  V30 8040 N 770.09 -0.729906 -1.39679 0
M  V30 8041 C 771.02 -0.101618 -2.33279 0
M  V30 8042 C 772.001 0.729854 -1.53646 0
M  V30 8043 O 773.186 0.67587 -1.82059 0
M  V30 8044 C 770.316 0.81024 -3.37716 0
M  V30 8045 C 769.27 0.0833126 -4.27919 0
M  V30 8046 C 768.596 1.11185 -5.23012 0
M  V30 8047 C 769.896 -1.07107 -5.112 0
M  V30 8048 H 771.59 -0.883452 -2.86069 0
M  V30 8049 H 769.136 -0.426283 -1.37546 0
M  V30 8050 H 771.089 1.25927 -4.02145 0
M  V30 8051 H 769.813 1.62413 -2.83354 0
M  V30 8052 H 768.472 -0.346043 -3.64963 0
M  V30 8053 H 768.12 1.91917 -4.64948 0
M  V30 8054 H 767.82 0.63026 -5.8421 0
M  V30 8055 H 769.344 1.56068 -5.90318 0
M  V30 8056 H 770.758 -0.700726 -5.69002 0
M  V30 8057 H 769.155 -1.48196 -5.81514 0
M  V30 8058 H 770.225 -1.89513 -4.46332 0
M  V30 8059 N 771.568 1.50203 -0.477153 0
M  V30 8060 C 772.498 2.31517 0.303646 0
M  V30 8061 C 773.479 1.38696 0.984753 0
M  V30 8062 O 774.664 1.67615 0.980758 0
M  V30 8063 C 771.794 3.18598 1.38249 0
M  V30 8064 C 770.748 4.2002 0.822645 0
M  V30 8065 C 770.074 4.95878 2.00024 0
M  V30 8066 C 771.374 5.22023 -0.170185 0
M  V30 8067 H 773.068 2.97042 -0.375027 0
M  V30 8068 H 770.614 1.42848 -0.181802 0
M  V30 8069 H 772.567 3.74282 1.93625 0
M  V30 8070 H 771.291 2.5097 2.09002 0
M  V30 8071 H 769.95 3.65445 0.290813 0
M  V30 8072 H 769.598 4.24717 2.69489 0
M  V30 8073 H 769.298 5.64487 1.63183 0
M  V30 8074 H 770.822 5.54399 2.55878 0
M  V30 8075 H 772.236 5.72543 0.294606 0
M  V30 8076 H 770.633 5.98386 -0.453181 0
M  V30 8077 H 771.703 4.72396 -1.09408 0
M  V30 8078 N 773.046 0.209999 1.56195 0
M  V30 8079 C 773.996 -0.717978 2.164 0
M  V30 8080 C 774.98 -1.16577 1.10899 0
M  V30 8081 O 776.172 -1.12169 1.3692 0
M  V30 8082 C 773.301 -1.93091 2.8385 0
M  V30 8083 C 772.387 -1.50333 3.96561 0
M  V30 8084 N 772.778 -0.787621 4.9963 0
M  V30 8085 C 771.076 -1.79151 4.08437 0
M  V30 8086 C 771.777 -0.571204 5.78889 0
M  V30 8087 N 770.753 -1.12444 5.31843 0
M  V30 8088 H 774.555 -0.162603 2.9345 0
M  V30 8089 H 772.069 0.0107928 1.62396 0
M  V30 8090 H 774.066 -2.60635 3.25384 0
M  V30 8091 H 772.726 -2.49087 2.08293 0
M  V30 8092 H 773.737 -0.441513 5.16015 0
M  V30 8093 H 770.414 -2.36549 3.44022 0
M  V30 8094 H 771.804 -0.00237941 6.719 0
M  V30 8095 N 774.524 -1.57472 -0.0634922 0
M  V30 8096 C 775.772 -1.87283 -0.759563 0
M  V30 8097 C 776.093 -0.803135 -1.77693 0
M  V30 8098 O 775.363 0.167293 -1.95184 0
M  V30 8099 H 773.943 -0.691106 -0.283516 0
M  V30 8100 H 776.605 -1.94864 -0.0376091 0
M  V30 8101 H 775.701 -2.85064 -1.27062 0
M  V30 8102 N 776.003 0.335068 -1.53997 0
M  V30 8103 C 776.95 1.41187 -1.82579 0
M  V30 8104 C 777.92 1.51897 -0.672061 0
M  V30 8105 O 779.105 1.673 -0.917346 0
M  V30 8106 C 776.245 2.77717 -2.0486 0
M  V30 8107 C 775.358 2.7573 -3.32561 0
M  V30 8108 C 774.493 4.04032 -3.44864 0
M  V30 8109 C 773.532 3.96308 -4.66483 0
M  V30 8110 N 772.669 5.16317 -4.75774 0
M  V30 8111 H 777.509 1.16113 -2.74448 0
M  V30 8112 H 775.046 0.562305 -1.35928 0
M  V30 8113 H 777.004 3.57071 -2.15768 0
M  V30 8114 H 775.634 3.01124 -1.16294 0
M  V30 8115 H 774.686 1.88432 -3.3045 0
M  V30 8116 H 775.998 2.65902 -4.22016 0
M  V30 8117 H 775.152 4.91814 -3.55251 0
M  V30 8118 H 773.891 4.16652 -2.53481 0
M  V30 8119 H 772.896 3.06911 -4.56164 0
M  V30 8120 H 774.121 3.85263 -5.5924 0
M  V30 8121 H 772.067 5.29464 -3.87303 0
M  V30 8122 H 771.984 5.08779 -5.59178 0
M  V30 8123 H 773.252 6.05846 -4.9048 0
M  V30 8124 N 777.481 1.45874 0.596531 0
M  V30 8125 C 778.391 1.57947 1.73464 0
M  V30 8126 C 779.407 0.463461 1.67714 0
M  V30 8127 O 780.583 0.725685 1.87872 0
M  V30 8128 C 777.648 1.55348 3.09948 0
M  V30 8129 C 776.709 2.78074 3.27068 0
M  V30 8130 C 775.942 2.75589 4.57041 0
M  V30 8131 O 776.165 1.83545 5.40063 0
M  V30 8132 O 775.099 3.66945 4.77111 0
M  V30 8133 H 778.925 2.54169 1.66228 0
M  V30 8134 H 776.51 1.2851 0.76194 0
M  V30 8135 H 778.392 1.56545 3.91244 0
M  V30 8136 H 777.067 0.622811 3.17652 0
M  V30 8137 H 775.974 2.82435 2.45319 0
M  V30 8138 H 777.307 3.70303 3.24248 0
M  V30 8139 N 778.959 -0.83999 1.33349 0
M  V30 8140 C 779.891 -1.95678 1.19344 0
M  V30 8141 C 780.904 -1.62322 0.124692 0
M  V30 8142 O 782.093 -1.74516 0.375012 0
M  V30 8143 C 779.193 -3.29133 0.807771 0
M  V30 8144 C 778.366 -3.9063 1.96792 0
M  V30 8145 C 777.425 -5.02438 1.56341 0
M  V30 8146 O 776.451 -5.21646 2.27759 0
M  V30 8147 N 777.653 -5.78612 0.467767 0
M  V30 8148 H 780.418 -2.08229 2.15548 0
M  V30 8149 H 777.979 -1.01566 1.26079 0
M  V30 8150 H 779.971 -4.01355 0.519282 0
M  V30 8151 H 778.541 -3.12535 -0.063555 0
M  V30 8152 H 777.761 -3.11011 2.4221 0
M  V30 8153 H 779.049 -4.2845 2.74422 0
M  V30 8154 H 778.447 -5.65559 -0.126324 0
M  V30 8155 H 777.004 -6.51362 0.238945 0
M  V30 8156 N 780.437 -1.16799 -1.0581 0
M  V30 8157 C 781.848 -0.95945 -1.60161 0
M  V30 8158 C 782.199 0.49543 -1.89842 0
M  V30 8159 O 781.324 1.36957 -1.67546 0
M  V30 8160 C 781.919 -1.73527 -2.90987 0
M  V30 8161 C 780.478 -1.57158 -3.42021 0
M  V30 8162 C 779.625 -1.74089 -2.15843 0
M  V30 8163 H 782.576 -1.31598 -0.886992 0
M  V30 8164 H 782.597 -1.21397 -3.60615 0
M  V30 8165 H 782.109 -2.79411 -2.69353 0
M  V30 8166 H 780.21 -0.537361 -3.68705 0
M  V30 8167 H 780.323 -2.35858 -4.17022 0
M  V30 8168 H 778.687 -1.16874 -2.26302 0
M  V30 8169 H 779.47 -2.81371 -1.96686 0
M  V30 8170 N 781.915 1.24427 -0.967243 0
M  V30 8171 C 782.845 2.2773 -0.515899 0
M  V30 8172 C 783.826 1.64197 0.444227 0
M  V30 8173 O 785.011 1.91193 0.340451 0
M  V30 8174 C 782.141 3.46751 0.195149 0
M  V30 8175 C 781.095 4.22548 -0.680953 0
M  V30 8176 C 780.421 5.34456 0.161561 0
M  V30 8177 C 781.721 4.83914 -1.96532 0
M  V30 8178 H 783.415 2.65735 -1.37933 0
M  V30 8179 H 780.961 1.27742 -0.664681 0
M  V30 8180 H 782.914 4.18153 0.522117 0
M  V30 8181 H 781.638 3.07771 1.09292 0
M  V30 8182 H 780.297 3.52946 -0.991186 0
M  V30 8183 H 779.945 4.91716 1.05947 0
M  V30 8184 H 779.645 5.86087 -0.421418 0
M  V30 8185 H 781.169 6.08685 0.483211 0
M  V30 8186 H 782.583 5.47392 -1.70396 0
M  V30 8187 H 780.98 5.45775 -2.49499 0
M  V30 8188 H 782.05 4.05393 -2.66053 0
M  V30 8189 N 783.393 0.737304 1.3929 0
M  V30 8190 C 784.67 0.212464 1.94443 0
M  V30 8191 C 785.05 -1.28621 1.67391 0
M  V30 8192 O 784.398 -2.0529 1.00342 0
M  V30 8193 C 784.608 0.548565 3.44662 0
M  V30 8194 C 785.956 0.499177 4.21656 0
M  V30 8195 O 786.98 0.485892 3.5287 0
M  V30 8196 O 785.839 0.495739 5.44247 0
M  V30 8197 H 782.933 0.0395457 0.826054 0
M  V30 8198 H 785.479 0.816319 1.48776 0
M  V30 8199 H 784.251 1.58426 3.57795 0
M  V30 8200 H 783.874 -0.0841399 3.97511 0
M  V30 8201 N 784.871 -1.49948 0.485112 0
M  V30 8202 C 785.781 -2.32587 -0.306697 0
M  V30 8203 C 786.797 -1.43598 -0.982632 0
M  V30 8204 O 787.973 -1.76638 -0.967519 0
M  V30 8205 C 785.038 -3.18638 -1.3664 0
M  V30 8206 C 784.099 -4.23462 -0.705589 0
M  V30 8207 C 783.332 -5.05401 -1.7148 0
M  V30 8208 O 783.555 -4.88618 -2.94293 0
M  V30 8209 O 782.489 -5.88157 -1.27889 0
M  V30 8210 H 786.315 -3.01447 0.369272 0
M  V30 8211 H 783.9 -1.47349 0.246709 0
M  V30 8212 H 785.782 -3.71992 -1.9799 0
M  V30 8213 H 784.457 -2.52491 -2.02559 0
M  V30 8214 H 783.364 -3.74063 -0.0527733 0
M  V30 8215 H 784.697 -4.92119 -0.0891187 0
M  V30 8216 N 786.349 -0.21828 -1.56081 0
M  V30 8217 C 787.259 0.704602 -2.23769 0
M  V30 8218 C 788.275 1.21633 -1.24425 0
M  V30 8219 O 789.451 1.25862 -1.57228 0
M  V30 8220 C 786.516 1.89725 -2.90182 0
M  V30 8221 C 785.577 1.42782 -4.0486 0
M  V30 8222 C 784.81 2.56361 -4.68097 0
M  V30 8223 O 785.033 3.74417 -4.30312 0
M  V30 8224 O 783.967 2.2775 -5.57148 0
M  V30 8225 H 787.793 0.158007 -3.03289 0
M  V30 8226 H 785.378 0.0120279 -1.49395 0
M  V30 8227 H 787.26 2.59382 -3.32113 0
M  V30 8228 H 785.935 2.432 -2.13624 0
M  V30 8229 H 784.842 0.699359 -3.67505 0
M  V30 8230 H 786.175 0.939474 -4.83151 0
M  V30 8231 N 787.827 1.57504 0.0551401 0
M  V30 8232 C 788.757 2.07864 1.06372 0
M  V30 8233 C 789.738 0.975565 1.39344 0
M  V30 8234 O 790.923 1.24929 1.48682 0
M  V30 8235 C 788.053 2.53643 2.3724 0
M  V30 8236 C 787.007 3.67978 2.18578 0
M  V30 8237 C 786.333 3.9987 3.54976 0
M  V30 8238 C 787.633 4.97405 1.59329 0
M  V30 8239 H 789.327 2.92379 0.644595 0
M  V30 8240 H 786.873 1.40654 0.308619 0
M  V30 8241 H 788.826 2.8749 3.08103 0
M  V30 8242 H 787.55 1.66177 2.81163 0
M  V30 8243 H 786.209 3.3444 1.50152 0
M  V30 8244 H 785.857 3.0951 3.965 0
M  V30 8245 H 785.557 4.76867 3.43324 0
M  V30 8246 H 787.081 4.36228 4.27244 0
M  V30 8247 H 788.495 5.29375 2.20078 0
M  V30 8248 H 786.892 5.78837 1.58327 0
M  V30 8249 H 787.962 4.81697 0.55638 0
M  V30 8250 N 789.305 -0.326896 1.54172 0
M  V30 8251 C 790.252 -1.40216 1.83325 0
M  V30 8252 C 791.222 -1.51538 0.680107 0
M  V30 8253 O 792.407 -1.66811 0.926206 0
M  V30 8254 C 789.547 -2.76626 2.0633 0
M  V30 8255 C 788.66 -2.73963 3.34019 0
M  V30 8256 C 787.795 -4.02198 3.47002 0
M  V30 8257 C 786.834 -3.93828 4.68578 0
M  V30 8258 N 785.971 -5.13787 4.78506 0
M  V30 8259 H 790.811 -1.14656 2.7506 0
M  V30 8260 H 788.348 -0.555089 1.36225 0
M  V30 8261 H 790.306 -3.55922 2.17659 0
M  V30 8262 H 788.936 -3.00503 1.1789 0
M  V30 8263 H 787.988 -1.86677 3.31445 0
M  V30 8264 H 789.3 -2.6366 4.2342 0
M  V30 8265 H 788.454 -4.89923 3.57855 0
M  V30 8266 H 787.193 -4.15302 2.55687 0
M  V30 8267 H 786.198 -3.04487 4.57786 0
M  V30 8268 H 787.423 -3.82292 5.61275 0
M  V30 8269 H 785.369 -5.27403 3.90105 0
M  V30 8270 H 785.286 -5.05807 5.61868 0
M  V30 8271 H 786.554 -6.03236 4.93686 0
M  V30 8272 N 790.784 -1.46188 -0.588786 0
M  V30 8273 C 792.061 -1.41659 -1.34878 0
M  V30 8274 C 792.441 -0.0968913 -2.10878 0
M  V30 8275 O 791.789 0.921468 -2.09096 0
M  V30 8276 C 791.999 -2.6424 -2.27988 0
M  V30 8277 C 793.347 -3.1013 -2.90008 0
M  V30 8278 O 794.371 -2.64745 -2.38303 0
M  V30 8279 O 793.23 -3.88944 -3.83908 0
M  V30 8280 H 790.324 -0.563058 -0.605718 0
M  V30 8281 H 792.87 -1.58346 -0.610309 0
M  V30 8282 H 791.642 -3.51853 -1.71217 0
M  V30 8283 H 791.265 -2.49982 -3.09184 0
M  V30 8284 N 792.262 0.832906 -1.33792 0
M  V30 8285 C 793.225 1.92471 -1.24449 0
M  V30 8286 C 794.225 1.59981 -0.162085 0
M  V30 8287 O 795.415 1.69208 -0.414029 0
M  V30 8288 C 792.547 3.28278 -0.919044 0
M  V30 8289 H 793.74 2.0218 -2.21502 0
M  V30 8290 H 791.293 1.0257 -1.17936 0
M  V30 8291 H 792.028 3.24263 0.048738 0
M  V30 8292 H 791.813 3.53241 -1.70187 0
M  V30 8293 H 793.303 4.08253 -0.878576 0
M  V30 8294 N 793.74 1.17359 1.05189 0
M  V30 8295 C 794.987 0.961987 1.78191 0
M  V30 8296 C 795.315 -0.509363 1.87712 0
M  V30 8297 O 794.57 -1.39425 1.37329 0
M  V30 8298 C 794.869 1.54821 3.22126 0
M  V30 8299 C 794.535 3.04378 3.32663 0
M  V30 8300 C 793.197 3.45201 3.35246 0
M  V30 8301 C 795.549 4.00387 3.33677 0
M  V30 8302 C 792.877 4.80629 3.36471 0
M  V30 8303 C 795.229 5.35715 3.36441 0
M  V30 8304 C 793.893 5.76002 3.37311 0
M  V30 8305 H 793.163 0.352016 0.652047 0
M  V30 8306 H 795.81 1.46249 1.23627 0
M  V30 8307 H 794.115 0.969432 3.79617 0
M  V30 8308 H 795.812 1.36004 3.77232 0
M  V30 8309 H 792.402 2.71836 3.31366 0
M  V30 8310 H 796.586 3.69906 3.30882 0
M  V30 8311 H 791.842 5.11155 3.35455 0
M  V30 8312 H 796.016 6.09886 3.36173 0
M  V30 8313 H 793.643 6.80919 3.38013 0
M  V30 8314 N 795.218 -1.23913 0.973828 0
M  V30 8315 C 796.15 -2.24397 0.466763 0
M  V30 8316 C 797.163 -1.57078 -0.427828 0
M  V30 8317 O 798.352 -1.76973 -0.233019 0
M  V30 8318 C 795.452 -3.37141 -0.344798 0
M  V30 8319 C 794.625 -4.34037 0.541349 0
M  V30 8320 C 793.684 -5.2576 -0.215243 0
M  V30 8321 O 792.71 -5.67842 0.39291 0
M  V30 8322 N 793.912 -5.60702 -1.5031 0
M  V30 8323 H 796.677 -2.68536 1.33074 0
M  V30 8324 H 794.238 -1.38017 0.846346 0
M  V30 8325 H 796.23 -3.95476 -0.859133 0
M  V30 8326 H 794.8 -2.92239 -1.10974 0
M  V30 8327 H 794.02 -3.74302 1.23659 0
M  V30 8328 H 795.308 -4.95738 1.1455 0
M  V30 8329 H 794.706 -5.28451 -2.01882 0
M  V30 8330 H 793.263 -6.21538 -1.96301 0
M  V30 8331 N 796.696 -0.74468 -1.38897 0
M  V30 8332 C 797.644 -0.100312 -2.32384 0
M  V30 8333 C 798.638 0.715191 -1.53562 0
M  V30 8334 O 799.844 0.615288 -1.69157 0
M  V30 8335 H 796.219 -0.0136403 -0.751876 0
M  V30 8336 H 798.19 -0.905007 -2.84345 0
M  V30 8337 C 796.939 0.785432 -3.38713 0
M  V30 8338 H 796.262 0.167308 -3.9945 0
M  V30 8339 H 797.702 1.20374 -4.06554 0
M  V30 8340 C 796.161 1.92408 -2.76552 0
M  V30 8341 O 796.691 3.01752 -2.65157 0
M  V30 8342 N 794.897 1.71642 -2.34494 0
M  V30 8343 H 794.444 0.827079 -2.43961 0
M  V30 8344 H 794.402 2.48 -1.93244 0
M  V30 8345 N 798.174 1.49689 -0.493057 0
M  V30 8346 C 799.137 2.27502 0.278485 0
M  V30 8347 C 800.137 1.33184 0.901037 0
M  V30 8348 O 801.327 1.56415 0.766801 0
M  V30 8349 C 798.459 3.10881 1.39878 0
M  V30 8350 H 799.652 2.97163 -0.404219 0
M  V30 8351 H 797.205 1.54324 -0.247774 0
M  V30 8352 H 797.94 2.45767 2.11587 0
M  V30 8353 H 797.725 3.80219 0.957924 0
M  V30 8354 H 799.215 3.69673 1.94247 0
M  V30 8355 N 799.652 0.226554 1.55963 0
M  V30 8356 C 800.882 -0.407915 2.02533 0
M  V30 8357 C 801.29 -1.53539 1.10554 0
M  V30 8358 O 800.633 -1.8338 0.108409 0
M  V30 8359 C 800.695 -0.996081 3.45425 0
M  V30 8360 C 800.359 -0.00341651 4.57 0
M  V30 8361 C 801.356 0.798782 5.13727 0
M  V30 8362 C 799.041 0.116786 5.02164 0
M  V30 8363 C 801.035 1.70784 6.14094 0
M  V30 8364 C 798.722 1.02937 6.02368 0
M  V30 8365 C 799.72 1.82344 6.5821 0
M  V30 8366 O 799.408 2.72067 7.56462 0
M  V30 8367 H 799.14 -0.103524 0.668026 0
M  V30 8368 H 801.694 0.341937 2.02534 0
M  V30 8369 H 799.924 -1.79512 3.42509 0
M  V30 8370 H 801.613 -1.53848 3.75614 0
M  V30 8371 H 802.379 0.716393 4.7968 0
M  V30 8372 H 798.258 -0.491172 4.58376 0
M  V30 8373 H 801.802 2.32807 6.57607 0
M  V30 8374 H 797.699 1.11276 6.35836 0
M  V30 8375 H 798.467 2.66199 7.74003 0
M  V30 8376 N 801.13 -1.57531 -0.0467866 0
M  V30 8377 C 802.06 -2.08425 -1.05268 0
M  V30 8378 C 803.041 -0.982941 -1.38825 0
M  V30 8379 O 804.226 -1.25716 -1.48018 0
M  V30 8380 C 801.356 -2.54897 -2.35891 0
M  V30 8381 C 800.31 -3.69132 -2.16623 0
M  V30 8382 C 799.636 -4.01747 -3.52851 0
M  V30 8383 C 800.936 -4.98243 -1.56689 0
M  V30 8384 H 802.63 -2.92716 -0.62908 0
M  V30 8385 H 800.176 -1.40816 -0.301156 0
M  V30 8386 H 802.129 -2.8912 -3.06574 0
M  V30 8387 H 800.853 -1.67666 -2.80278 0
M  V30 8388 H 799.512 -3.35231 -1.48377 0
M  V30 8389 H 799.16 -3.11608 -3.94853 0
M  V30 8390 H 798.86 -4.78681 -3.4079 0
M  V30 8391 H 800.384 -4.38487 -4.24925 0
M  V30 8392 H 801.798 -5.30535 -2.17268 0
M  V30 8393 H 800.195 -5.79669 -1.55255 0
M  V30 8394 H 801.265 -4.81986 -0.530827 0
M  V30 8395 N 802.608 0.318715 -1.54344 0
M  V30 8396 C 803.518 1.41535 -1.87097 0
M  V30 8397 C 804.534 1.56361 -0.763353 0
M  V30 8398 O 805.71 1.71365 -1.05811 0
M  V30 8399 C 802.775 2.76178 -2.09587 0
M  V30 8400 C 801.836 2.70486 -3.3337 0
M  V30 8401 C 801.069 3.98708 -3.54778 0
M  V30 8402 O 801.292 4.9721 -2.79532 0
M  V30 8403 O 800.226 4.01674 -4.48266 0
M  V30 8404 H 804.052 1.16764 -2.80357 0
M  V30 8405 H 801.637 0.51318 -1.4031 0
M  V30 8406 H 803.519 3.55873 -2.25682 0
M  V30 8407 H 802.194 3.00829 -1.19514 0
M  V30 8408 H 801.101 1.89325 -3.22656 0
M  V30 8409 H 802.434 2.50789 -4.23516 0
M  V30 8410 N 804.086 1.46499 0.581025 0
M  V30 8411 C 805.016 1.60052 1.70017 0
M  V30 8412 C 805.997 0.450788 1.64018 0
M  V30 8413 O 807.182 0.677237 1.82009 0
M  V30 8414 C 804.312 1.5921 3.08658 0
M  V30 8415 C 803.266 2.73169 3.29488 0
M  V30 8416 C 802.592 2.57389 4.68674 0
M  V30 8417 C 803.892 4.14978 3.1716 0
M  V30 8418 H 805.586 2.53735 1.5893 0
M  V30 8419 H 803.132 1.22113 0.763173 0
M  V30 8420 H 805.085 1.67285 3.86773 0
M  V30 8421 H 803.809 0.620718 3.20647 0
M  V30 8422 H 802.468 2.64566 2.53773 0
M  V30 8423 H 802.116 1.58331 4.77431 0
M  V30 8424 H 801.816 3.33826 4.83564 0
M  V30 8425 H 803.34 2.67358 5.48956 0
M  V30 8426 H 804.754 4.24684 3.85119 0
M  V30 8427 H 803.151 4.92016 3.4357 0
M  V30 8428 H 804.221 4.35016 2.14218 0
M  V30 8429 N 805.565 -0.825799 1.34232 0
M  V30 8430 C 806.813 -1.57873 1.26177 0
M  V30 8431 C 807.134 -1.94267 -0.168904 0
M  V30 8432 O 806.404 -1.62045 -1.10084 0
M  V30 8433 H 804.984 -0.585388 0.464037 0
M  V30 8434 H 807.646 -0.986163 1.6811 0
M  V30 8435 H 806.742 -2.50283 1.86453 0
M  V30 8436 N 807.043 -1.17915 -1.04565 0
M  V30 8437 C 808.291 -0.969505 -1.77327 0
M  V30 8438 C 808.612 0.502569 -1.88412 0
M  V30 8439 O 807.882 1.36467 -1.40547 0
M  V30 8440 H 806.462 -0.355723 -0.656864 0
M  V30 8441 H 809.124 -1.48506 -1.26223 0
M  V30 8442 H 808.22 -1.40324 -2.78775 0
M  V30 8443 N 808.521 1.23394 -0.980386 0
M  V30 8444 C 809.451 2.2717 -0.540024 0
M  V30 8445 C 810.432 1.64659 0.426787 0
M  V30 8446 O 811.617 1.91543 0.320153 0
M  V30 8447 C 808.747 3.46939 0.15836 0
M  V30 8448 C 807.701 4.21802 -0.725732 0
M  V30 8449 C 807.027 5.34597 0.104866 0
M  V30 8450 C 808.327 4.81802 -2.01654 0
M  V30 8451 H 810.021 2.64257 -1.40743 0
M  V30 8452 H 807.567 1.2703 -0.678193 0
M  V30 8453 H 809.52 4.18683 0.477737 0
M  V30 8454 H 808.244 3.08912 1.06022 0
M  V30 8455 H 806.903 3.51875 -1.02857 0
M  V30 8456 H 806.551 4.92812 1.00726 0
M  V30 8457 H 806.251 5.85607 -0.483557 0
M  V30 8458 H 807.775 6.09163 0.418624 0
M  V30 8459 H 809.189 5.45554 -1.76193 0
M  V30 8460 H 807.586 5.43098 -2.55273 0
M  V30 8461 H 808.656 4.02549 -2.70338 0
M  V30 8462 N 809.999 0.752036 1.385 0
M  V30 8463 C 811.247 0.306895 1.99756 0
M  V30 8464 C 811.568 -1.11478 1.59992 0
M  V30 8465 O 810.838 -1.76206 0.856045 0
M  V30 8466 H 809.418 0.11048 0.738785 0
M  V30 8467 H 812.08 0.965785 1.69289 0
M  V30 8468 H 811.176 0.368797 3.09913 0
M  V30 8469 N 811.477 -1.49425 0.500989 0
M  V30 8470 C 812.387 -2.32899 -0.282011 0
M  V30 8471 C 813.403 -1.44632 -0.967346 0
M  V30 8472 O 814.579 -1.77654 -0.94873 0
M  V30 8473 C 811.644 -3.20069 -1.33253 0
M  V30 8474 C 810.705 -4.24186 -0.660636 0
M  V30 8475 C 809.938 -5.07191 -1.6611 0
M  V30 8476 O 810.161 -4.91712 -2.89094 0
M  V30 8477 O 809.095 -5.8948 -1.21643 0
M  V30 8478 H 812.921 -3.01038 0.401224 0
M  V30 8479 H 810.506 -1.47079 0.262323 0
M  V30 8480 H 812.388 -3.74071 -1.94033 0
M  V30 8481 H 811.063 -2.54625 -1.9987 0
M  V30 8482 H 809.97 -3.74098 -0.0130959 0
M  V30 8483 H 811.303 -4.92186 -0.0369179 0
M  V30 8484 N 812.955 -0.234822 -1.55841 0
M  V30 8485 C 814.371 0.120295 -1.59146 0
M  V30 8486 C 814.571 1.57896 -1.25184 0
M  V30 8487 O 813.627 2.32138 -0.993393 0
M  V30 8488 C 814.94 -0.217984 -2.99909 0
M  V30 8489 C 816.488 -0.161298 -3.12584 0
M  V30 8490 C 816.963 -0.473438 -4.55546 0
M  V30 8491 N 818.454 -0.423494 -4.6126 0
M  V30 8492 C 819.189 -0.638334 -5.69836 0
M  V30 8493 N 818.685 -0.915659 -6.86722 0
M  V30 8494 N 820.478 -0.569864 -5.59204 0
M  V30 8495 H 812.629 -1.18622 -1.76189 0
M  V30 8496 H 814.892 -0.476426 -0.819587 0
M  V30 8497 H 814.598 -1.2309 -3.29457 0
M  V30 8498 H 814.472 0.460707 -3.74376 0
M  V30 8499 H 816.859 0.842274 -2.82825 0
M  V30 8500 H 816.94 -0.873661 -2.40418 0
M  V30 8501 H 816.584 -1.47451 -4.86025 0
M  V30 8502 H 816.514 0.260268 -5.25956 0
M  V30 8503 H 819.005 -0.217383 -3.77274 0
M  V30 8504 H 819.318 -1.06734 -7.65394 0
M  V30 8505 H 817.663 -0.953 -6.88435 0
M  V30 8506 H 820.854 -0.35334 -4.66765 0
M  V30 8507 H 821.027 -0.740698 -6.43753 0
M  V30 8508 N 814.433 1.57553 0.0384317 0
M  V30 8509 C 815.679 1.89121 0.732199 0
M  V30 8510 C 816.012 0.831404 1.75503 0
M  V30 8511 O 815.287 -0.154642 1.93884 0
M  V30 8512 C 815.57 3.31338 1.41021 0
M  V30 8513 C 815.423 4.48004 0.401532 0
M  V30 8514 C 816.742 3.72318 2.34665 0
M  V30 8515 H 813.861 0.687819 0.264715 0
M  V30 8516 H 816.503 1.89999 -0.00496279 0
M  V30 8517 H 814.653 3.3072 2.03854 0
M  V30 8518 H 816.325 4.60755 -0.224159 0
M  V30 8519 H 814.568 4.32895 -0.280092 0
M  V30 8520 H 815.239 5.44377 0.91423 0
M  V30 8521 H 817.715 3.74243 1.81883 0
M  V30 8522 H 816.591 4.72652 2.7909 0
M  V30 8523 H 816.852 3.04062 3.20934 0
M  V30 8524 N 815.911 -0.310526 1.54511 0
M  V30 8525 C 816.841 -1.38757 1.878 0
M  V30 8526 C 817.822 -1.53353 0.735991 0
M  V30 8527 O 819.007 -1.67018 0.990887 0
M  V30 8528 C 816.137 -2.75327 2.11689 0
M  V30 8529 C 815.091 -2.75506 3.27537 0
M  V30 8530 C 814.417 -4.15275 3.36824 0
M  V30 8531 C 815.717 -2.38093 4.64875 0
M  V30 8532 H 817.411 -1.11146 2.78005 0
M  V30 8533 H 814.957 -0.533232 1.33763 0
M  V30 8534 H 816.91 -3.50752 2.33562 0
M  V30 8535 H 815.634 -3.04443 1.18245 0
M  V30 8536 H 814.293 -2.02538 3.05572 0
M  V30 8537 H 813.941 -4.41553 2.40915 0
M  V30 8538 H 813.641 -4.16299 4.14692 0
M  V30 8539 H 815.165 -4.92493 3.60947 0
M  V30 8540 H 816.579 -3.03232 4.86542 0
M  V30 8541 H 814.976 -2.50345 5.45387 0
M  V30 8542 H 816.046 -1.33227 4.66239 0
M  V30 8543 N 817.389 -1.46805 -0.573248 0
M  V30 8544 C 818.637 -1.52302 -1.32847 0
M  V30 8545 C 818.958 -0.180159 -1.94166 0
M  V30 8546 O 818.228 0.794291 -1.79075 0
M  V30 8547 H 816.808 -0.56097 -0.493276 0
M  V30 8548 H 819.47 -1.82998 -0.670642 0
M  V30 8549 H 818.566 -2.28089 -2.13031 0
M  V30 8550 N 818.867 0.818669 -1.34668 0
M  V30 8551 C 820.114 1.57512 -1.27264 0
M  V30 8552 C 820.442 1.93871 0.156254 0
M  V30 8553 O 819.697 1.60582 1.11857 0
M  V30 8554 C 819.996 2.88245 -2.11304 0
M  V30 8555 C 819.662 2.71159 -3.60255 0
M  V30 8556 C 818.324 2.66207 -4.00858 0
M  V30 8557 C 820.676 2.54538 -4.54819 0
M  V30 8558 C 818.004 2.4256 -5.34211 0
M  V30 8559 C 820.356 2.32421 -5.88356 0
M  V30 8560 C 819.02 2.25884 -6.28118 0
M  V30 8561 H 818.29 0.576378 -0.465692 0
M  V30 8562 H 820.937 0.9469 -1.66451 0
M  V30 8563 H 819.242 3.55381 -1.64958 0
M  V30 8564 H 820.939 3.45869 -2.02919 0
M  V30 8565 H 817.529 2.75856 -3.28027 0
M  V30 8566 H 821.713 2.57384 -4.24343 0
M  V30 8567 H 816.969 2.35959 -5.64033 0
M  V30 8568 H 821.143 2.18548 -6.61218 0
M  V30 8569 H 818.77 2.07322 -7.31383 0
M  V30 8570 N 820.346 1.18468 1.03938 0
M  V30 8571 C 821.586 0.991823 1.78724 0
M  V30 8572 C 821.95 -0.470115 1.86156 0
M  V30 8573 O 823.151 -0.782451 2.5716 0
M  V30 8574 C 821.422 1.63018 3.18056 0
M  V30 8575 S 822.981 1.58527 4.09163 0
M  V30 8576 H 819.799 0.356137 0.615376 0
M  V30 8577 H 822.401 1.50634 1.24618 0
M  V30 8578 H 821.105 2.68642 3.10258 0
M  V30 8579 H 820.636 1.11601 3.77238 0
M  V30 8580 H 822.651 0.602059 4.92534 0
M  V30 8581 N 821.824 -1.22873 0.986916 0
M  V30 8582 C 822.774 -2.2237 0.503547 0
M  V30 8583 C 823.758 -1.55186 -0.424998 0
M  V30 8584 O 824.95 -1.75186 -0.252791 0
M  V30 8585 C 822.079 -3.42794 -0.186355 0
M  V30 8586 C 821.165 -4.17196 0.762143 0
M  V30 8587 N 821.556 -4.68453 1.9075 0
M  V30 8588 C 819.854 -4.42255 0.576797 0
M  V30 8589 C 820.555 -5.25126 2.50235 0
M  V30 8590 N 819.531 -5.13437 1.7856 0
M  V30 8591 H 823.333 -2.59636 1.37718 0
M  V30 8592 H 820.847 -1.38476 0.848415 0
M  V30 8593 H 822.844 -4.13256 -0.549993 0
M  V30 8594 H 821.504 -3.07042 -1.05619 0
M  V30 8595 H 822.515 -4.64595 2.28848 0
M  V30 8596 H 819.192 -4.16766 -0.247474 0
M  V30 8597 H 820.582 -5.75363 3.46997 0
M  V30 8598 N 823.302 -0.75937 -1.38099 0
M  V30 8599 C 824.232 -0.151077 -2.33011 0
M  V30 8600 C 825.213 0.697099 -1.5516 0
M  V30 8601 O 826.398 0.637101 -1.83452 0
M  V30 8602 C 823.528 0.738423 -3.39359 0
M  V30 8603 C 822.482 -0.0074741 -4.27999 0
M  V30 8604 C 821.808 1.00066 -5.25253 0
M  V30 8605 C 823.108 -1.17926 -5.08813 0
M  V30 8606 H 824.802 -0.943933 -2.84131 0
M  V30 8607 H 822.348 -0.455362 -1.36611 0
M  V30 8608 H 824.301 1.17369 -4.04725 0
M  V30 8609 H 823.025 1.56366 -2.86735 0
M  V30 8610 H 821.684 -0.423379 -3.64147 0
M  V30 8611 H 821.332 1.82012 -4.68914 0
M  V30 8612 H 821.032 0.506199 -5.85416 0
M  V30 8613 H 822.556 1.43512 -5.93495 0
M  V30 8614 H 823.97 -0.821262 -5.67387 0
M  V30 8615 H 822.367 -1.60497 -5.78239 0
M  V30 8616 H 823.437 -1.98938 -4.42212 0
M  V30 8617 N 824.78 1.49157 -0.508906 0
M  V30 8618 C 826.027 2.02473 0.0327983 0
M  V30 8619 C 826.355 1.38792 1.36261 0
M  V30 8620 O 825.61 0.515576 1.88786 0
M  V30 8621 C 825.909 3.56687 0.225717 0
M  V30 8622 C 825.575 4.39046 -1.02708 0
M  V30 8623 C 824.237 4.61271 -1.37048 0
M  V30 8624 C 826.589 4.86902 -1.85946 0
M  V30 8625 C 823.917 5.28598 -2.54562 0
M  V30 8626 C 826.269 5.55521 -3.0262 0
M  V30 8627 C 824.933 5.7599 -3.3733 0
M  V30 8628 H 824.203 0.740903 0.0120017 0
M  V30 8629 H 826.85 1.79372 -0.670665 0
M  V30 8630 H 825.155 3.78511 1.01177 0
M  V30 8631 H 826.852 3.95541 0.659433 0
M  V30 8632 H 823.442 4.21994 -0.749615 0
M  V30 8633 H 827.626 4.69553 -1.6073 0
M  V30 8634 H 822.882 5.42646 -2.81682 0
M  V30 8635 H 827.056 5.91576 -3.67438 0
M  V30 8636 H 824.683 6.27934 -4.2849 0
M  V30 8637 N 826.258 0.243083 1.55714 0
M  V30 8638 C 827.188 -0.652336 2.24203 0
M  V30 8639 C 828.169 -1.1843 1.221 0
M  V30 8640 O 829.354 -1.22435 1.50743 0
M  V30 8641 C 826.484 -1.85111 2.93856 0
M  V30 8642 C 825.438 -1.45208 4.02615 0
M  V30 8643 C 824.764 -2.73137 4.59674 0
M  V30 8644 C 826.064 -0.625988 5.18535 0
M  V30 8645 H 827.758 -0.0812504 2.9929 0
M  V30 8646 H 825.304 -0.0376388 1.43951 0
M  V30 8647 H 827.257 -2.48314 3.40468 0
M  V30 8648 H 825.981 -2.44751 2.16251 0
M  V30 8649 H 824.64 -0.843406 3.56766 0
M  V30 8650 H 824.288 -3.30967 3.78774 0
M  V30 8651 H 823.988 -2.47163 5.33089 0
M  V30 8652 H 825.512 -3.37245 5.09017 0
M  V30 8653 H 826.926 -1.16223 5.61396 0
M  V30 8654 H 825.323 -0.462465 5.98315 0
M  V30 8655 H 826.393 0.362652 4.83542 0
M  V30 8656 N 827.736 -1.57571 -0.0300757 0
M  V30 8657 C 829.147 -1.77567 -0.576802 0
M  V30 8658 C 829.498 -0.874034 -1.75656 0
M  V30 8659 O 828.623 -0.0686124 -2.16291 0
M  V30 8660 C 829.218 -3.22016 -1.05315 0
M  V30 8661 C 827.777 -3.43212 -1.5454 0
M  V30 8662 C 826.924 -2.73061 -0.483033 0
M  V30 8663 H 829.875 -1.57483 0.196151 0
M  V30 8664 H 829.896 -3.28474 -1.92055 0
M  V30 8665 H 829.408 -3.87613 -0.194298 0
M  V30 8666 H 827.509 -2.82788 -2.42615 0
M  V30 8667 H 827.622 -4.5182 -1.5936 0
M  V30 8668 H 825.986 -2.36805 -0.937835 0
M  V30 8669 H 826.769 -3.4134 0.366341 0
M  V30 8670 N 829.214 0.302327 -1.54673 0
M  V30 8671 C 830.491 1.05721 -1.64567 0
M  V30 8672 C 830.871 2.0526 -0.493108 0
M  V30 8673 O 830.219 2.22729 0.510315 0
M  V30 8674 C 830.429 1.74025 -3.02517 0
M  V30 8675 C 831.777 2.26271 -3.59286 0
M  V30 8676 O 832.801 1.8406 -3.0496 0
M  V30 8677 O 831.66 3.0361 -4.54404 0
M  V30 8678 H 828.754 0.488577 -0.667249 0
M  V30 8679 H 831.3 0.300521 -1.67018 0
M  V30 8680 H 830.072 1.0174 -3.77842 0
M  V30 8681 H 829.695 2.56454 -3.03838 0
M  V30 8682 N 830.692 1.47107 0.565454 0
M  V30 8683 C 831.602 1.61591 1.70075 0
M  V30 8684 C 832.618 0.498931 1.66693 0
M  V30 8685 O 833.794 0.765372 1.8629 0
M  V30 8686 C 830.859 1.61887 3.06583 0
M  V30 8687 C 829.92 2.84949 3.21096 0
M  V30 8688 C 829.153 2.85221 4.51093 0
M  V30 8689 O 829.376 1.94959 5.36048 0
M  V30 8690 O 828.31 3.76982 4.69221 0
M  V30 8691 H 832.136 2.57638 1.60799 0
M  V30 8692 H 829.721 1.30097 0.73451 0
M  V30 8693 H 831.603 1.64809 3.87835 0
M  V30 8694 H 830.278 0.69005 3.16259 0
M  V30 8695 H 829.185 2.87575 2.39273 0
M  V30 8696 H 830.518 3.77098 3.1632 0
M  V30 8697 N 832.17 -0.811516 1.35101 0
M  V30 8698 C 833.102 -1.93102 1.23468 0
M  V30 8699 C 834.115 -1.62021 0.159095 0
M  V30 8700 O 835.304 -1.73682 0.411945 0
M  V30 8701 C 832.404 -3.27345 0.877404 0
M  V30 8702 C 831.577 -3.86368 2.05033 0
M  V30 8703 C 830.636 -4.99009 1.66963 0
M  V30 8704 O 829.662 -5.16698 2.38772 0
M  V30 8705 N 830.864 -5.7749 0.590394 0
M  V30 8706 H 833.629 -2.0361 2.19916 0
M  V30 8707 H 831.19 -0.988687 1.28205 0
M  V30 8708 H 833.182 -4.00163 0.604298 0
M  V30 8709 H 831.752 -3.126 0.00275267 0
M  V30 8710 H 830.972 -3.05804 2.48752 0
M  V30 8711 H 832.26 -4.22533 2.83449 0
M  V30 8712 H 831.658 -5.657 -0.00633259 0
M  V30 8713 H 830.215 -6.50708 0.377055 0
M  V30 8714 N 833.648 -1.19017 -1.03309 0
M  V30 8715 C 834.895 -0.990214 -1.76638 0
M  V30 8716 C 835.223 0.479435 -1.88498 0
M  V30 8717 O 834.478 1.37223 -1.39529 0
M  V30 8718 C 834.777 -1.59927 -3.19622 0
M  V30 8719 C 834.443 -3.09632 -3.27779 0
M  V30 8720 C 833.105 -3.50491 -3.29712 0
M  V30 8721 C 835.457 -4.05644 -3.27264 0
M  V30 8722 C 832.785 -4.85921 -3.28782 0
M  V30 8723 C 835.137 -5.41 -3.27875 0
M  V30 8724 C 833.801 -5.81295 -3.28104 0
M  V30 8725 H 833.071 -0.362345 -0.646364 0
M  V30 8726 H 835.718 -1.48197 -1.21284 0
M  V30 8727 H 834.023 -1.0297 -3.78027 0
M  V30 8728 H 835.72 -1.41989 -3.7502 0
M  V30 8729 H 832.31 -2.77073 -3.26999 0
M  V30 8730 H 836.494 -3.75124 -3.24955 0
M  V30 8731 H 831.75 -5.16427 -3.27281 0
M  V30 8732 H 835.924 -6.15157 -3.26428 0
M  V30 8733 H 833.551 -6.86211 -3.27138 0
M  V30 8734 N 835.127 1.22348 -0.993418 0
M  V30 8735 C 836.538 1.72893 -0.704616 0
M  V30 8736 C 836.889 1.80095 0.778483 0
M  V30 8737 O 836.014 1.4476 1.60853 0
M  V30 8738 C 836.609 3.14 -1.27237 0
M  V30 8739 C 835.168 3.61949 -1.03294 0
M  V30 8740 C 834.315 2.39816 -1.39225 0
M  V30 8741 H 837.266 1.07688 -1.16572 0
M  V30 8742 H 837.287 3.74886 -0.651212 0
M  V30 8743 H 836.799 3.08727 -2.3518 0
M  V30 8744 H 834.9 3.72588 0.0298329 0
M  V30 8745 H 835.013 4.48051 -1.69668 0
M  V30 8746 H 833.377 2.41448 -0.810849 0
M  V30 8747 H 834.16 2.37203 -2.48172 0
M  V30 8748 N 836.605 0.766683 1.37694 0
M  V30 8749 C 837.515 0.150158 2.34119 0
M  V30 8750 C 838.531 -0.685513 1.59927 0
M  V30 8751 O 839.707 -0.606616 1.92047 0
M  V30 8752 C 836.772 -0.722562 3.39087 0
M  V30 8753 C 835.833 0.128983 4.29106 0
M  V30 8754 C 835.066 -0.702178 5.29061 0
M  V30 8755 O 835.289 -1.93954 5.36412 0
M  V30 8756 O 834.223 -0.114056 6.01792 0
M  V30 8757 H 838.049 0.946829 2.88563 0
M  V30 8758 H 835.634 0.527765 1.39768 0
M  V30 8759 H 837.516 -1.22095 4.03325 0
M  V30 8760 H 836.191 -1.49751 2.86978 0
M  V30 8761 H 835.098 0.673612 3.67985 0
M  V30 8762 H 836.431 0.866892 4.84506 0
M  V30 8763 N 838.083 -1.48885 0.516809 0
M  V30 8764 C 839.331 -2.02088 -0.0220166 0
M  V30 8765 C 839.652 -1.39735 -1.36011 0
M  V30 8766 O 838.922 -0.558119 -1.87781 0
M  V30 8767 H 837.502 -0.746917 -0.0111255 0
M  V30 8768 H 840.164 -1.8274 0.677647 0
M  V30 8769 H 839.26 -3.11786 -0.140067 0
M  V30 8770 N 839.561 -0.251338 -1.55583 0
M  V30 8771 C 840.808 0.372169 -1.99051 0
M  V30 8772 C 841.136 1.57623 -1.13953 0
M  V30 8773 O 840.391 1.94762 -0.191398 0
M  V30 8774 C 840.69 0.821186 -3.47838 0
M  V30 8775 C 840.356 -0.275608 -4.50057 0
M  V30 8776 C 839.018 -0.57683 -4.7773 0
M  V30 8777 C 841.37 -1.01585 -5.11204 0
M  V30 8778 C 838.698 -1.62229 -5.63825 0
M  V30 8779 C 841.05 -2.05087 -5.98433 0
M  V30 8780 C 839.714 -2.35869 -6.24437 0
M  V30 8781 H 838.984 0.136186 -0.728378 0
M  V30 8782 H 841.631 -0.360089 -1.88084 0
M  V30 8783 H 839.936 1.63272 -3.56159 0
M  V30 8784 H 841.633 1.31396 -3.78861 0
M  V30 8785 H 838.223 -0.030697 -4.28589 0
M  V30 8786 H 842.407 -0.79639 -4.89869 0
M  V30 8787 H 837.663 -1.86607 -5.82226 0
M  V30 8788 H 841.837 -2.62934 -6.44855 0
M  V30 8789 H 839.464 -3.17017 -6.90944 0
M  V30 8790 N 841.039 1.57585 0.0217189 0
M  V30 8791 C 841.971 2.03849 1.04777 0
M  V30 8792 C 842.984 0.952558 1.32023 0
M  V30 8793 O 844.173 1.22974 1.29381 0
M  V30 8794 C 841.273 2.40504 2.3877 0
M  V30 8795 C 840.446 3.71566 2.30775 0
M  V30 8796 C 839.505 3.95329 3.47277 0
M  V30 8797 O 838.531 4.66289 3.26441 0
M  V30 8798 N 839.733 3.41536 4.69397 0
M  V30 8799 H 842.498 2.92491 0.653395 0
M  V30 8800 H 840.059 1.60538 0.209527 0
M  V30 8801 H 842.051 2.53532 3.15442 0
M  V30 8802 H 840.621 1.57494 2.70027 0
M  V30 8803 H 839.841 3.68822 1.39155 0
M  V30 8804 H 841.129 4.5753 2.22584 0
M  V30 8805 H 840.527 2.84033 4.89226 0
M  V30 8806 H 839.084 3.59932 5.43408 0
M  V30 8807 N 842.517 -0.29412 1.54831 0
M  V30 8808 C 843.764 -1.02846 1.74439 0
M  V30 8809 C 844.092 -1.87029 0.533905 0
M  V30 8810 O 843.347 -1.8962 -0.484035 0
M  V30 8811 C 843.646 -1.95782 2.99006 0
M  V30 8812 C 843.312 -1.2752 4.32492 0
M  V30 8813 C 841.974 -1.08637 4.68777 0
M  V30 8814 C 844.326 -0.787761 5.15212 0
M  V30 8815 C 841.654 -0.39704 5.85355 0
M  V30 8816 C 844.006 -0.112123 6.32501 0
M  V30 8817 C 842.67 0.0886071 6.67441 0
M  V30 8818 H 841.94 -0.376341 0.638317 0
M  V30 8819 H 844.587 -0.302684 1.89093 0
M  V30 8820 H 842.892 -2.74911 2.79162 0
M  V30 8821 H 844.589 -2.52684 3.11371 0
M  V30 8822 H 841.179 -1.43226 4.03961 0
M  V30 8823 H 845.363 -0.921341 4.87673 0
M  V30 8824 H 840.619 -0.230597 6.10965 0
M  V30 8825 H 844.793 0.27344 6.95863 0
M  V30 8826 H 842.42 0.624748 7.57628 0
M  V30 8827 N 843.995 -1.47404 -0.557645 0
M  V30 8828 C 845.272 -1.44488 -1.31843 0
M  V30 8829 C 845.652 -0.1416 -2.10625 0
M  V30 8830 O 845 0.876908 -2.11004 0
M  V30 8831 C 845.21 -2.69016 -2.22331 0
M  V30 8832 C 846.558 -3.16212 -2.83364 0
M  V30 8833 O 847.582 -2.69741 -2.32634 0
M  V30 8834 O 846.441 -3.96999 -3.75571 0
M  V30 8835 H 843.535 -0.57578 -0.593639 0
M  V30 8836 H 846.081 -1.59605 -0.576584 0
M  V30 8837 H 844.853 -3.55406 -1.63715 0
M  V30 8838 H 844.476 -2.56484 -3.03812 0
M  V30 8839 N 845.473 0.80434 -1.35529 0
M  V30 8840 C 846.701 1.59283 -1.32048 0
M  V30 8841 C 847.116 1.88527 0.101556 0
M  V30 8842 O 846.473 1.48975 1.05417 0
M  V30 8843 C 846.524 2.92276 -2.12737 0
M  V30 8844 O 846.245 2.64299 -3.49396 0
M  V30 8845 C 847.746 3.86631 -2.16867 0
M  V30 8846 H 844.966 0.494523 -0.453528 0
M  V30 8847 H 847.51 0.999415 -1.78415 0
M  V30 8848 H 845.665 3.48125 -1.69964 0
M  V30 8849 H 846.079 3.4923 -3.91329 0
M  V30 8850 H 847.553 4.77053 -2.77712 0
M  V30 8851 H 848.03 4.23384 -1.16803 0
M  V30 8852 H 848.636 3.36717 -2.59811 0
M  V30 8853 N 846.951 1.19563 1.02676 0
M  V30 8854 C 848.228 0.908857 1.73203 0
M  V30 8855 C 848.608 -0.584928 2.02834 0
M  V30 8856 O 847.956 -1.54372 1.68469 0
M  V30 8857 C 848.166 1.77105 3.00724 0
M  V30 8858 C 849.514 2.00667 3.7419 0
M  V30 8859 O 850.538 1.74274 3.10656 0
M  V30 8860 O 849.397 2.4518 4.88415 0
M  V30 8861 H 846.491 0.338909 0.754367 0
M  V30 8862 H 849.037 1.30387 1.08616 0
M  V30 8863 H 847.809 2.78303 2.7507 0
M  V30 8864 H 847.432 1.37546 3.73051 0
M  V30 8865 N 848.429 -1.21819 0.999893 0
M  V30 8866 C 849.706 -1.86318 0.595384 0
M  V30 8867 C 850.086 -1.8965 -0.927143 0
M  V30 8868 O 849.434 -1.3921 -1.81199 0
M  V30 8869 C 849.644 -3.26837 1.22387 0
M  V30 8870 C 850.992 -4.03272 1.32878 0
M  V30 8871 O 852.016 -3.36129 1.1788 0
M  V30 8872 O 850.875 -5.23477 1.56952 0
M  V30 8873 H 847.969 -0.801638 0.203238 0
M  V30 8874 H 850.515 -1.29542 1.09622 0
M  V30 8875 H 849.287 -3.19084 2.26497 0
M  V30 8876 H 848.91 -3.91226 0.709069 0
M  V30 8877 N 849.908 -0.773975 -1.37286 0
M  V30 8878 C 851.154 -0.339809 -1.99933 0
M  V30 8879 C 851.487 1.0815 -1.61299 0
M  V30 8880 O 850.762 1.74442 -0.860252 0
M  V30 8881 C 851.045 -0.485919 -3.56806 0
M  V30 8882 C 850.898 -1.9498 -4.05343 0
M  V30 8883 C 852.217 0.108461 -4.39966 0
M  V30 8884 H 849.336 -0.124944 -0.726332 0
M  V30 8885 H 851.978 -0.977433 -1.6293 0
M  V30 8886 H 850.128 0.0569023 -3.88458 0
M  V30 8887 H 851.8 -2.5525 -3.84246 0
M  V30 8888 H 850.043 -2.45784 -3.57453 0
M  V30 8889 H 850.714 -2.00308 -5.14374 0
M  V30 8890 H 853.19 -0.354722 -4.14585 0
M  V30 8891 H 852.066 -0.0238926 -5.48895 0
M  V30 8892 H 852.327 1.19901 -4.25531 0
M  V30 8893 N 851.386 1.48609 -0.524698 0
M  V30 8894 C 852.334 2.31205 0.254398 0
M  V30 8895 C 853.328 1.40894 0.940491 0
M  V30 8896 O 854.534 1.57827 0.865478 0
M  V30 8897 H 850.909 0.745199 0.100907 0
M  V30 8898 H 852.88 2.94804 -0.461876 0
M  V30 8899 C 851.629 3.2282 1.2916 0
M  V30 8900 H 850.952 3.92255 0.773074 0
M  V30 8901 H 852.392 3.83508 1.80825 0
M  V30 8902 C 850.851 2.4406 2.32242 0
M  V30 8903 O 851.381 2.16163 3.3858 0
M  V30 8904 N 849.587 2.05651 2.05319 0
M  V30 8905 H 849.134 2.28539 1.18861 0
M  V30 8906 H 849.092 1.53265 2.74513 0
M  V30 8907 N 852.864 0.259585 1.55447 0
M  V30 8908 C 854.111 -0.361607 1.99245 0
M  V30 8909 C 854.439 -1.57017 1.14787 0
M  V30 8910 O 853.694 -1.94658 0.201724 0
M  V30 8911 C 853.993 -0.802727 3.48269 0
M  V30 8912 C 853.659 0.299472 4.49904 0
M  V30 8913 C 852.321 0.602157 4.77418 0
M  V30 8914 C 854.673 1.04295 5.10658 0
M  V30 8915 C 852.001 1.65217 5.62957 0
M  V30 8916 C 854.353 2.08257 5.97337 0
M  V30 8917 C 853.017 2.39177 6.23178 0
M  V30 8918 H 852.287 -0.132322 0.72909 0
M  V30 8919 H 854.934 0.370059 1.8789 0
M  V30 8920 H 853.239 -1.61381 3.5702 0
M  V30 8921 H 854.936 -1.29385 3.79553 0
M  V30 8922 H 851.526 0.0534256 4.28567 0
M  V30 8923 H 855.71 0.822358 4.89439 0
M  V30 8924 H 850.966 1.89692 5.81229 0
M  V30 8925 H 855.14 2.6635 6.43452 0
M  V30 8926 H 852.767 3.20677 6.89253 0
M  V30 8927 N 854.342 -1.57594 -0.0133615 0
M  V30 8928 C 855.753 -1.78168 -0.557937 0
M  V30 8929 C 856.104 -0.892616 -1.74719 0
M  V30 8930 O 855.229 -0.0915491 -2.16206 0
M  V30 8931 C 855.824 -3.23115 -1.01894 0
M  V30 8932 C 854.383 -3.44831 -1.50892 0
M  V30 8933 C 853.53 -2.73558 -0.454044 0
M  V30 8934 H 856.481 -1.57266 0.212843 0
M  V30 8935 H 856.502 -3.30493 -1.8856 0
M  V30 8936 H 856.014 -3.87798 -0.153175 0
M  V30 8937 H 854.115 -2.85345 -2.39602 0
M  V30 8938 H 854.228 -4.53485 -1.54559 0
M  V30 8939 H 852.592 -2.37787 -0.912666 0
M  V30 8940 H 853.375 -3.40932 0.402524 0
M  V30 8941 N 855.82 0.285905 -1.54985 0
M  V30 8942 C 857.069 1.01691 -1.74189 0
M  V30 8943 C 857.382 1.87908 -0.543135 0
M  V30 8944 O 858.588 2.64389 -0.617305 0
M  V30 8945 C 857.044 1.85785 -3.0824 0
M  V30 8946 C 856.652 1.04497 -4.35642 0
M  V30 8947 C 858.396 2.58393 -3.36798 0
M  V30 8948 C 856.303 1.87955 -5.60738 0
M  V30 8949 H 855.233 0.383396 -0.649248 0
M  V30 8950 H 857.884 0.27317 -1.81455 0
M  V30 8951 H 856.266 2.64205 -2.94978 0
M  V30 8952 H 857.44 0.305847 -4.59784 0
M  V30 8953 H 855.755 0.434023 -4.14132 0
M  V30 8954 H 858.352 3.21214 -4.27464 0
M  V30 8955 H 858.695 3.28011 -2.56349 0
M  V30 8956 H 859.228 1.87012 -3.511 0
M  V30 8957 H 855.967 1.22781 -6.43898 0
M  V30 8958 H 855.487 2.59499 -5.40759 0
M  V30 8959 H 857.166 2.45636 -5.98558 0
M  V30 8960 N 857.298 1.47698 0.54982 0
M  V30 8961 C 858.575 1.45185 1.31075 0
M  V30 8962 C 858.955 0.152768 2.10547 0
M  V30 8963 O 858.303 -0.865706 2.11466 0
M  V30 8964 C 858.513 2.70192 2.20902 0
M  V30 8965 C 859.861 3.1771 2.81683 0
M  V30 8966 O 860.885 2.70971 2.312 0
M  V30 8967 O 859.744 3.98986 3.7346 0
M  V30 8968 H 856.838 0.57892 0.590577 0
M  V30 8969 H 859.384 1.59908 0.568112 0
M  V30 8970 H 858.156 3.56269 1.61828 0
M  V30 8971 H 857.779 2.58091 3.02448 0
M  V30 8972 N 858.776 -0.797141 1.35954 0
M  V30 8973 C 859.724 -1.93084 1.29697 0
M  V30 8974 C 860.718 -1.68329 0.190152 0
M  V30 8975 O 861.924 -1.7643 0.3567 0
M  V30 8976 H 858.299 -0.634531 0.403577 0
M  V30 8977 H 860.27 -1.95481 2.25455 0
M  V30 8978 C 859.019 -3.29996 1.09536 0
M  V30 8979 H 858.342 -3.49607 1.93946 0
M  V30 8980 H 859.782 -4.09696 1.09202 0
M  V30 8981 C 858.241 -3.36304 -0.200381 0
M  V30 8982 O 858.771 -3.83579 -1.19291 0
M  V30 8983 N 856.977 -2.89587 -0.242406 0
M  V30 8984 H 856.524 -2.51307 0.565897 0
M  V30 8985 H 856.482 -2.94189 -1.10906 0
M  V30 8986 N 860.254 -1.20106 -1.0204 0
M  V30 8987 C 861.184 -0.970301 -2.12385 0
M  V30 8988 C 862.165 0.099378 -1.69809 0
M  V30 8989 O 863.35 -0.057365 -1.94115 0
M  V30 8990 C 860.48 -0.517431 -3.43424 0
M  V30 8991 C 859.434 -1.52992 -3.99722 0
M  V30 8992 C 858.76 -0.933817 -5.26483 0
M  V30 8993 C 860.06 -2.91257 -4.33551 0
M  V30 8994 H 861.754 -1.89316 -2.31948 0
M  V30 8995 H 859.3 -0.911655 -1.11467 0
M  V30 8996 H 861.253 -0.343243 -4.2 0
M  V30 8997 H 859.977 0.441049 -3.23608 0
M  V30 8998 H 858.636 -1.6914 -3.2525 0
M  V30 8999 H 858.284 0.0324763 -5.0299 0
M  V30 9000 H 857.984 -1.60999 -5.65113 0
M  V30 9001 H 859.508 -0.770614 -6.05718 0
M  V30 9002 H 860.922 -2.78642 -5.0103 0
M  V30 9003 H 859.319 -3.55745 -4.83286 0
M  V30 9004 H 860.389 -3.43269 -3.42483 0
M  V30 9005 N 861.732 1.21287 -1.00634 0
M  V30 9006 C 862.972 1.92106 -0.698194 0
M  V30 9007 C 863.336 1.76437 0.757222 0
M  V30 9008 O 864.537 2.41641 1.17741 0
M  V30 9009 C 862.808 3.39748 -1.10932 0
M  V30 9010 S 864.367 4.29013 -0.921586 0
M  V30 9011 H 861.185 0.663755 -0.254853 0
M  V30 9012 H 863.787 1.46772 -1.29145 0
M  V30 9013 H 862.491 3.48669 -2.16467 0
M  V30 9014 H 862.022 3.90101 -0.508419 0
M  V30 9015 H 864.037 4.95871 0.180578 0
M  V30 9016 N 863.21 0.781244 1.36873 0
M  V30 9017 C 864.457 0.349889 1.99454 0
M  V30 9018 C 864.785 -1.07621 1.62013 0
M  V30 9019 O 864.04 -1.75665 0.86258 0
M  V30 9020 C 864.339 0.45146 3.54537 0
M  V30 9021 C 864.005 1.83718 4.11775 0
M  V30 9022 C 862.667 2.21634 4.2712 0
M  V30 9023 C 865.019 2.7449 4.43063 0
M  V30 9024 C 862.347 3.49742 4.7106 0
M  V30 9025 C 864.699 4.02017 4.88431 0
M  V30 9026 C 863.363 4.39967 5.01982 0
M  V30 9027 H 862.633 0.128033 0.729855 0
M  V30 9028 H 865.28 0.997117 1.63493 0
M  V30 9029 H 863.585 -0.279288 3.90803 0
M  V30 9030 H 865.282 0.0988609 4.00878 0
M  V30 9031 H 861.872 1.53251 4.00265 0
M  V30 9032 H 866.056 2.46453 4.30783 0
M  V30 9033 H 861.312 3.79026 4.79738 0
M  V30 9034 H 865.486 4.72475 5.11605 0
M  V30 9035 H 863.113 5.39291 5.35788 0
M  V30 9036 N 864.689 -1.48329 0.532571 0
M  V30 9037 C 865.935 -2.028 -0.000583219 0
M  V30 9038 C 866.268 -1.40858 -1.33688 0
M  V30 9039 O 865.543 -0.555261 -1.86406 0
M  V30 9040 C 865.826 -3.59901 -0.119846 0
M  V30 9041 C 865.679 -4.32318 1.2418 0
M  V30 9042 C 866.998 -4.31904 -0.845372 0
M  V30 9043 H 864.117 -0.736999 0.00126205 0
M  V30 9044 H 866.759 -1.77024 0.690102 0
M  V30 9045 H 864.909 -3.81993 -0.708092 0
M  V30 9046 H 866.581 -4.21637 1.87136 0
M  V30 9047 H 864.824 -3.93635 1.82301 0
M  V30 9048 H 865.495 -5.40697 1.11132 0
M  V30 9049 H 867.971 -4.14658 -0.346159 0
M  V30 9050 H 866.847 -5.41509 -0.897723 0
M  V30 9051 H 867.108 -3.99369 -1.89622 0
M  V30 9052 N 866.167 -0.267825 -1.55308 0
M  V30 9053 C 867.415 0.350343 -1.9904 0
M  V30 9054 C 867.736 1.56924 -1.15758 0
M  V30 9055 O 867.006 1.94358 -0.245336 0
M  V30 9056 H 865.586 0.132435 -0.735167 0
M  V30 9057 H 868.248 -0.371471 -1.91327 0
M  V30 9058 H 867.344 0.645203 -3.05358 0
M  V30 9059 N 867.645 1.57599 0.00500368 0
M  V30 9060 C 868.575 2.11143 0.99705 0
M  V30 9061 C 869.556 1.0194 1.3617 0
M  V30 9062 O 870.741 1.29596 1.44632 0
M  V30 9063 C 867.871 2.61062 2.2905 0
M  V30 9064 C 866.825 3.74745 2.0676 0
M  V30 9065 C 866.151 4.10961 3.42075 0
M  V30 9066 C 867.451 5.02222 1.43424 0
M  V30 9067 H 869.145 2.94281 0.551251 0
M  V30 9068 H 866.691 1.41565 0.263715 0
M  V30 9069 H 868.644 2.97146 2.98801 0
M  V30 9070 H 867.368 1.75038 2.75734 0
M  V30 9071 H 866.027 3.39047 1.39436 0
M  V30 9072 H 865.675 3.21968 3.86453 0
M  V30 9073 H 865.375 4.87549 3.27979 0
M  V30 9074 H 866.899 4.49599 4.1315 0
M  V30 9075 H 868.313 5.36109 2.03125 0
M  V30 9076 H 866.71 5.83581 1.39831 0
M  V30 9077 H 867.78 4.83224 0.40285 0
M  V30 9078 N 869.123 -0.277682 1.55134 0
M  V30 9079 C 870.372 -1.00766 1.74726 0
M  V30 9080 C 870.685 -1.87617 0.553092 0
M  V30 9081 O 871.891 -2.64058 0.631318 0
M  V30 9082 C 870.347 -1.84147 3.09221 0
M  V30 9083 C 869.955 -1.02186 4.3619 0
M  V30 9084 C 871.699 -2.56604 3.38164 0
M  V30 9085 C 869.606 -1.84978 5.61727 0
M  V30 9086 H 868.536 -0.379948 0.651273 0
M  V30 9087 H 871.187 -0.263543 1.81598 0
M  V30 9088 H 869.569 -2.62637 2.96375 0
M  V30 9089 H 870.743 -0.281459 4.5994 0
M  V30 9090 H 869.058 -0.412054 4.14356 0
M  V30 9091 H 871.655 -3.18942 4.29162 0
M  V30 9092 H 871.998 -3.26647 2.58085 0
M  V30 9093 H 872.531 -1.85147 3.52087 0
M  V30 9094 H 869.27 -1.19365 6.4454 0
M  V30 9095 H 868.79 -2.56628 5.42128 0
M  V30 9096 H 870.469 -2.42458 5.99853 0
M  V30 9097 N 870.601 -1.47988 -0.541979 0
M  V30 9098 C 871.826 -1.59286 -1.32826 0
M  V30 9099 C 872.251 -0.24894 -1.86445 0
M  V30 9100 O 871.609 0.777581 -1.63778 0
M  V30 9101 C 871.657 -2.6334 -2.46343 0
M  V30 9102 O 870.761 -2.19667 -3.49028 0
M  V30 9103 H 870.102 -0.534543 -0.393903 0
M  V30 9104 H 872.632 -1.93885 -0.653427 0
M  V30 9105 H 872.642 -2.84238 -2.92699 0
M  V30 9106 H 871.317 -3.60913 -2.06675 0
M  V30 9107 H 869.894 -2.08932 -3.08872 0
M  V30 9108 N 872.079 0.78992 -1.36375 0
M  V30 9109 C 873.012 1.90907 -1.25019 0
M  V30 9110 C 873.99 1.62043 -0.134463 0
M  V30 9111 O 875.174 1.86008 -0.305506 0
M  V30 9112 C 872.301 3.25716 -0.928822 0
M  V30 9113 C 871.347 3.73511 -2.05892 0
M  V30 9114 S 872.18 3.89332 -3.6767 0
M  V30 9115 C 873.336 5.27017 -3.37645 0
M  V30 9116 H 873.569 2.00247 -2.19746 0
M  V30 9117 H 871.102 0.949097 -1.21785 0
M  V30 9118 H 873.06 4.03586 -0.750219 0
M  V30 9119 H 871.721 3.141 0.000658424 0
M  V30 9120 H 870.914 4.71195 -1.78862 0
M  V30 9121 H 870.516 3.02688 -2.19672 0
M  V30 9122 H 872.808 6.1158 -2.91507 0
M  V30 9123 H 873.751 5.5905 -4.3459 0
M  V30 9124 H 874.159 4.94093 -2.73006 0
M  V30 9125 N 873.557 1.20646 1.01402 0
M  V30 9126 C 874.806 1.01242 1.7445 0
M  V30 9127 C 875.119 -0.455732 1.90217 0
M  V30 9128 O 876.325 -0.768951 2.60383 0
M  V30 9129 C 874.781 1.76275 3.13776 0
M  V30 9130 C 874.389 3.27201 3.06013 0
M  V30 9131 C 876.133 1.65248 3.91016 0
M  V30 9132 C 874.04 3.9476 4.40362 0
M  V30 9133 H 872.97 0.375202 0.654018 0
M  V30 9134 H 875.621 1.44292 1.13367 0
M  V30 9135 H 874.003 1.26013 3.75415 0
M  V30 9136 H 875.177 3.84695 2.53665 0
M  V30 9137 H 873.492 3.38669 2.42265 0
M  V30 9138 H 876.089 2.13061 4.90417 0
M  V30 9139 H 876.432 0.609128 4.1182 0
M  V30 9140 H 876.965 2.12937 3.3601 0
M  V30 9141 H 873.704 4.99258 4.24761 0
M  V30 9142 H 873.224 3.42054 4.92706 0
M  V30 9143 H 874.903 3.99159 5.09196 0
M  V30 9144 N 875.035 -1.20752 1.01276 0
M  V30 9145 C 876.312 -1.85676 0.615112 0
M  V30 9146 C 876.692 -1.90623 -0.906976 0
M  V30 9147 O 876.04 -1.41124 -1.79712 0
M  V30 9148 C 876.25 -3.2552 1.25847 0
M  V30 9149 C 877.598 -4.0184 1.37148 0
M  V30 9150 O 878.622 -3.3486 1.21438 0
M  V30 9151 O 877.481 -5.21783 1.62495 0
M  V30 9152 H 874.575 -0.799437 0.211729 0
M  V30 9153 H 877.121 -1.28372 1.10989 0
M  V30 9154 H 875.893 -3.16664 2.29869 0
M  V30 9155 H 875.516 -3.90452 0.750524 0
M  V30 9156 N 876.513 -0.788492 -1.36457 0
M  V30 9157 C 877.924 -0.423742 -1.81828 0
M  V30 9158 C 878.275 1.05221 -1.65599 0
M  V30 9159 O 877.4 1.8163 -1.17641 0
M  V30 9160 C 877.995 -0.762354 -3.30112 0
M  V30 9161 C 876.554 -0.450445 -3.73695 0
M  V30 9162 C 875.701 -0.997482 -2.58738 0
M  V30 9163 H 878.652 -0.981718 -1.24692 0
M  V30 9164 H 878.673 -0.0531136 -3.80463 0
M  V30 9165 H 878.185 -1.83662 -3.41891 0
M  V30 9166 H 876.286 0.615829 -3.67476 0
M  V30 9167 H 876.399 -0.970408 -4.69169 0
M  V30 9168 H 874.763 -0.420761 -2.51201 0
M  V30 9169 H 875.546 -2.07749 -2.73304 0
M  V30 9170 N 877.991 1.48044 -0.54043 0
M  V30 9171 C 879.402 1.86418 -0.102662 0
M  V30 9172 C 879.753 1.4489 1.32293 0
M  V30 9173 O 878.878 0.844319 1.99249 0
M  V30 9174 C 879.473 3.38324 -0.179533 0
M  V30 9175 C 878.032 3.75852 0.203098 0
M  V30 9176 C 877.179 2.72097 -0.534637 0
M  V30 9177 H 880.13 1.398 -0.751103 0
M  V30 9178 H 880.151 3.75641 0.606147 0
M  V30 9179 H 879.663 3.68518 -1.21721 0
M  V30 9180 H 877.764 3.51272 1.24252 0
M  V30 9181 H 877.877 4.78884 -0.143784 0
M  V30 9182 H 876.241 2.54692 0.0203358 0
M  V30 9183 H 877.024 3.05135 -1.57314 0
M  V30 9184 N 879.47 0.276058 1.55163 0
M  V30 9185 C 880.886 -0.0780579 1.59409 0
M  V30 9186 C 881.086 -1.54521 1.29327 0
M  V30 9187 O 880.142 -2.29422 1.05459 0
M  V30 9188 C 881.455 0.297422 2.99225 0
M  V30 9189 C 883.003 0.244117 3.12047 0
M  V30 9190 C 883.478 0.594051 4.54131 0
M  V30 9191 N 884.969 0.54564 4.59975 0
M  V30 9192 C 885.704 0.789192 5.67943 0
M  V30 9193 N 885.2 1.09741 6.84053 0
M  V30 9194 N 886.993 0.717926 5.57496 0
M  V30 9195 H 879.144 1.23251 1.72982 0
M  V30 9196 H 881.407 0.497988 0.806667 0
M  V30 9197 H 881.113 1.31782 3.26077 0
M  V30 9198 H 880.987 -0.361286 3.75466 0
M  V30 9199 H 883.374 -0.766992 2.84958 0
M  V30 9200 H 883.455 0.937097 2.38017 0
M  V30 9201 H 883.099 1.60285 4.81945 0
M  V30 9202 H 883.029 -0.120728 5.26462 0
M  V30 9203 H 885.52 0.317334 3.76565 0
M  V30 9204 H 885.833 1.26989 7.62295 0
M  V30 9205 H 884.178 1.13519 6.85666 0
M  V30 9206 H 887.369 0.47697 4.65664 0
M  V30 9207 H 887.542 0.911118 6.41563 0
M  V30 9208 N 880.948 -1.576 0.00335426 0
M  V30 9209 C 881.911 -2.07576 -0.971838 0
M  V30 9210 C 882.911 -0.985796 -1.27038 0
M  V30 9211 O 884.101 -1.24833 -1.21501 0
M  V30 9212 C 881.233 -2.52003 -2.29581 0
M  V30 9213 H 882.426 -2.95008 -0.539481 0
M  V30 9214 H 879.979 -1.54381 -0.244186 0
M  V30 9215 H 880.714 -1.67825 -2.77498 0
M  V30 9216 H 880.499 -3.31609 -2.09231 0
M  V30 9217 H 881.989 -2.90983 -2.99531 0
M  V30 9218 N 882.426 0.269451 -1.5528 0
M  V30 9219 C 883.389 1.31642 -1.87625 0
M  V30 9220 C 884.389 1.42182 -0.751058 0
M  V30 9221 O 885.579 1.41272 -1.01921 0
M  V30 9222 C 882.711 2.6973 -2.08467 0
M  V30 9223 H 883.904 1.0419 -2.81219 0
M  V30 9224 H 881.457 0.507685 -1.47825 0
M  V30 9225 H 882.192 3.02356 -1.17266 0
M  V30 9226 H 881.977 2.63465 -2.90394 0
M  V30 9227 H 883.467 3.4537 -2.34753 0
M  V30 9228 N 883.904 1.48273 0.534124 0
M  V30 9229 C 885.15 1.56311 1.29208 0
M  V30 9230 C 885.483 0.234481 1.92779 0
M  V30 9231 O 884.758 -0.759143 1.79073 0
M  V30 9232 C 885.041 2.69831 2.3846 0
M  V30 9233 C 884.894 4.12385 1.79608 0
M  V30 9234 C 886.213 2.79133 3.40254 0
M  V30 9235 H 883.332 0.56899 0.468422 0
M  V30 9236 H 885.974 1.80429 0.595438 0
M  V30 9237 H 884.124 2.49397 2.97881 0
M  V30 9238 H 885.796 4.44246 1.24269 0
M  V30 9239 H 884.039 4.19579 1.10162 0
M  V30 9240 H 884.71 4.87629 2.58693 0
M  V30 9241 H 887.186 2.97632 2.90783 0
M  V30 9242 H 886.062 3.60298 4.14097 0
M  V30 9243 H 886.323 1.87122 4.00547 0
M  V30 9244 N 885.382 -0.782676 1.36792 0
M  V30 9245 C 886.793 -1.35828 1.28092 0
M  V30 9246 C 887.144 -1.96052 -0.076315 0
M  V30 9247 O 886.269 -1.93042 -0.977935 0
M  V30 9248 C 886.864 -2.46949 2.31952 0
M  V30 9249 C 885.423 -3.00307 2.2692 0
M  V30 9250 C 884.57 -1.73436 2.16368 0
M  V30 9251 H 887.521 -0.583788 1.47572 0
M  V30 9252 H 887.542 -3.26144 1.95986 0
M  V30 9253 H 887.054 -2.03087 3.30722 0
M  V30 9254 H 885.155 -3.48571 1.31639 0
M  V30 9255 H 885.268 -3.56663 3.19887 0
M  V30 9256 H 883.632 -1.95934 1.62733 0
M  V30 9257 H 884.415 -1.31693 3.17036 0
M  V30 9258 N 886.86 -1.21182 -1.00761 0
M  V30 9259 C 888.137 -0.936297 -1.71735 0
M  V30 9260 C 888.517 0.552585 -2.03739 0
M  V30 9261 O 887.865 1.51672 -1.70903 0
M  V30 9262 C 888.075 -1.81867 -2.97868 0
M  V30 9263 C 889.423 -2.06594 -3.7095 0
M  V30 9264 O 890.447 -1.79194 -3.07844 0
M  V30 9265 O 889.306 -2.5292 -4.84452 0
M  V30 9266 H 886.4 -0.350867 -0.74888 0
M  V30 9267 H 888.946 -1.32098 -1.06527 0
M  V30 9268 H 887.718 -2.82643 -2.70607 0
M  V30 9269 H 887.341 -1.43463 -3.70815 0
M  V30 9270 N 888.338 1.20213 -1.01915 0
M  V30 9271 C 889.301 2.21307 -0.596327 0
M  V30 9272 C 890.301 1.57274 0.334879 0
M  V30 9273 O 891.491 1.73764 0.12322 0
M  V30 9274 C 888.623 3.40657 0.128808 0
M  V30 9275 H 889.816 2.60228 -1.49068 0
M  V30 9276 H 887.369 1.33721 -0.809226 0
M  V30 9277 H 888.104 3.07241 1.03796 0
M  V30 9278 H 887.889 3.88361 -0.540183 0
M  V30 9279 H 889.379 4.15564 0.411892 0
M  V30 9280 N 889.816 0.795718 1.36037 0
M  V30 9281 C 891.062 0.371574 1.99367 0
M  V30 9282 C 891.395 -1.0557 1.62999 0
M  V30 9283 O 890.67 -1.73051 0.887895 0
M  V30 9284 C 890.953 0.542622 3.55988 0
M  V30 9285 C 890.806 2.01404 4.0219 0
M  V30 9286 C 892.125 -0.0384527 4.40083 0
M  V30 9287 H 889.244 0.136483 0.724252 0
M  V30 9288 H 891.886 1.00323 1.61355 0
M  V30 9289 H 890.036 0.0049053 3.885 0
M  V30 9290 H 891.708 2.6133 3.80137 0
M  V30 9291 H 889.951 2.51439 3.53498 0
M  V30 9292 H 890.622 2.08466 5.11122 0
M  V30 9293 H 893.098 0.420634 4.13968 0
M  V30 9294 H 891.974 0.111214 5.48787 0
M  V30 9295 H 892.235 -1.13116 4.27384 0
M  V30 9296 N 891.294 -1.47756 0.548274 0
M  V30 9297 C 892.542 -2.02089 0.0208542 0
M  V30 9298 C 892.863 -1.42589 -1.33017 0
M  V30 9299 O 892.133 -0.597825 -1.86555 0
M  V30 9300 H 890.713 -0.746985 0.00472023 0
M  V30 9301 H 893.375 -1.81262 0.716257 0
M  V30 9302 H 892.471 -3.12012 -0.0739016 0
M  V30 9303 N 892.772 -0.284283 -1.55015 0
M  V30 9304 C 893.719 0.599194 -2.22886 0
M  V30 9305 C 894.689 1.14264 -1.20553 0
M  V30 9306 O 895.874 1.19025 -1.49123 0
M  V30 9307 C 893.014 1.77317 -2.96062 0
M  V30 9308 C 892.127 1.26271 -4.13134 0
M  V30 9309 C 891.262 2.39922 -4.73931 0
M  V30 9310 C 890.301 1.85925 -5.8318 0
M  V30 9311 N 889.438 2.93084 -6.38002 0
M  V30 9312 H 894.278 0.0137816 -2.97997 0
M  V30 9313 H 891.815 -0.00496503 -1.47099 0
M  V30 9314 H 893.773 2.46339 -3.36709 0
M  V30 9315 H 892.403 2.33047 -2.23358 0
M  V30 9316 H 891.455 0.465296 -3.77544 0
M  V30 9317 H 892.767 0.827284 -4.91892 0
M  V30 9318 H 891.921 3.1692 -5.17346 0
M  V30 9319 H 890.66 2.86784 -3.9447 0
M  V30 9320 H 889.665 1.07409 -5.39206 0
M  V30 9321 H 890.89 1.39987 -6.64515 0
M  V30 9322 H 888.836 3.3931 -5.61431 0
M  V30 9323 H 888.753 2.53986 -7.12058 0
M  V30 9324 H 890.021 3.7003 -6.86075 0
M  V30 9325 N 894.251 1.57596 -0.0117121 0
M  V30 9326 C 895.491 1.92932 0.675031 0
M  V30 9327 C 895.855 0.887004 1.70283 0
M  V30 9328 O 897.056 1.12599 2.4408 0
M  V30 9329 C 895.327 3.3327 1.29098 0
M  V30 9330 S 896.886 3.90509 2.00121 0
M  V30 9331 H 893.704 0.675226 0.22269 0
M  V30 9332 H 896.306 1.9537 -0.071208 0
M  V30 9333 H 895.01 4.0696 0.530262 0
M  V30 9334 H 894.541 3.34233 2.0749 0
M  V30 9335 H 896.556 3.72532 3.27771 0
M  V30 9336 N 895.729 -0.261212 1.5542 0
M  V30 9337 C 897.145 -0.609012 1.47524 0
M  V30 9338 C 897.345 -1.88986 0.699042 0
M  V30 9339 O 896.401 -2.51517 0.222628 0
M  V30 9340 C 897.714 -0.725025 2.91828 0
M  V30 9341 C 899.262 -0.818302 3.02114 0
M  V30 9342 C 899.737 -0.965996 4.47697 0
M  V30 9343 N 901.228 -1.03123 4.51575 0
M  V30 9344 C 901.963 -1.16451 5.6145 0
M  V30 9345 N 901.459 -1.26425 6.81167 0
M  V30 9346 N 903.252 -1.19655 5.49217 0
M  V30 9347 H 895.403 0.579807 2.04333 0
M  V30 9348 H 897.666 0.198072 0.927077 0
M  V30 9349 H 897.372 0.145871 3.51397 0
M  V30 9350 H 897.246 -1.60156 3.41511 0
M  V30 9351 H 899.633 -1.67966 2.42634 0
M  V30 9352 H 899.714 0.0830895 2.55665 0
M  V30 9353 H 899.358 -0.109251 5.07782 0
M  V30 9354 H 899.288 -1.88221 4.91813 0
M  V30 9355 H 901.779 -0.966072 3.65343 0
M  V30 9356 H 902.092 -1.36462 7.60656 0
M  V30 9357 H 900.437 -1.23408 6.83956 0
M  V30 9358 H 903.628 -1.11501 4.54626 0
M  V30 9359 H 903.801 -1.29698 6.34888 0
M  V30 9360 N 897.207 -1.48554 -0.526253 0
M  V30 9361 C 898.432 -1.60686 -1.31129 0
M  V30 9362 C 898.857 -0.268701 -1.86171 0
M  V30 9363 O 898.215 0.760167 -1.64594 0
M  V30 9364 C 898.263 -2.65938 -2.43536 0
M  V30 9365 O 897.367 -2.23356 -3.46678 0
M  V30 9366 H 896.708 -0.538691 -0.388211 0
M  V30 9367 H 899.238 -1.94567 -0.632826 0
M  V30 9368 H 899.248 -2.87327 -2.89668 0
M  V30 9369 H 897.923 -3.63085 -2.02835 0
M  V30 9370 H 896.5 -2.12196 -3.06639 0
M  V30 9371 N 898.685 0.775411 -1.37205 0
M  V30 9372 C 899.648 1.8702 -1.325 0
M  V30 9373 C 900.648 1.5915 -0.229793 0
M  V30 9374 O 901.838 1.673 -0.485423 0
M  V30 9375 C 898.97 3.24085 -1.05745 0
M  V30 9376 H 900.163 1.92604 -2.29878 0
M  V30 9377 H 897.716 0.97476 -1.22181 0
M  V30 9378 H 898.451 3.24178 -0.0888371 0
M  V30 9379 H 898.236 3.45705 -1.85016 0
M  V30 9380 H 899.726 4.0416 -1.05094 0
M  V30 9381 N 900.163 1.21714 1.00117 0
M  V30 9382 C 901.411 1.03465 1.73607 0
M  V30 9383 C 901.732 -0.432295 1.90148 0
M  V30 9384 O 901.002 -1.31157 1.45515 0
M  V30 9385 H 899.582 0.379857 0.643209 0
M  V30 9386 H 902.244 1.53088 1.20624 0
M  V30 9387 H 901.34 1.50574 2.73375 0
M  V30 9388 N 901.641 -1.19671 1.02551 0
M  V30 9389 C 902.89 -1.88591 0.715272 0
M  V30 9390 C 903.203 -1.80274 -0.758982 0
M  V30 9391 O 904.409 -2.44413 -1.18213 0
M  V30 9392 C 902.865 -3.38264 1.22905 0
M  V30 9393 C 902.473 -3.55146 2.73084 0
M  V30 9394 C 904.217 -4.12683 0.994649 0
M  V30 9395 C 902.124 -4.98693 3.17897 0
M  V30 9396 H 901.054 -0.706326 0.263857 0
M  V30 9397 H 903.705 -1.35322 1.23936 0
M  V30 9398 H 902.087 -3.9091 0.632892 0
M  V30 9399 H 903.261 -3.12845 3.38326 0
M  V30 9400 H 901.576 -2.94112 2.94766 0
M  V30 9401 H 904.173 -5.18536 1.30478 0
M  V30 9402 H 904.516 -4.16243 -0.0686466 0
M  V30 9403 H 905.049 -3.66164 1.55464 0
M  V30 9404 H 901.788 -5.00293 4.23542 0
M  V30 9405 H 901.308 -5.4177 2.57381 0
M  V30 9406 H 902.987 -5.67327 3.11045 0
M  V30 9407 N 903.119 -0.802921 -1.35613 0
M  V30 9408 C 904.066 -0.20874 -2.29854 0
M  V30 9409 C 905.036 0.655128 -1.52634 0
M  V30 9410 O 906.221 0.600979 -1.81088 0
M  V30 9411 C 903.361 0.639663 -3.3912 0
M  V30 9412 C 902.474 -0.244234 -4.31309 0
M  V30 9413 C 901.609 0.611825 -5.27665 0
M  V30 9414 C 900.648 -0.272698 -6.11492 0
M  V30 9415 N 899.785 0.543122 -6.99996 0
M  V30 9416 H 904.625 -1.01782 -2.80079 0
M  V30 9417 H 902.162 -0.513465 -1.37848 0
M  V30 9418 H 904.12 1.14668 -4.01132 0
M  V30 9419 H 902.75 1.41404 -2.9018 0
M  V30 9420 H 901.802 -0.869322 -3.70334 0
M  V30 9421 H 903.114 -0.925202 -4.90144 0
M  V30 9422 H 902.268 1.18412 -5.95032 0
M  V30 9423 H 901.007 1.32637 -4.69317 0
M  V30 9424 H 900.012 -0.857287 -5.43075 0
M  V30 9425 H 901.237 -0.985051 -6.71918 0
M  V30 9426 H 899.183 1.24171 -6.44141 0
M  V30 9427 H 899.1 -0.0798767 -7.55958 0
M  V30 9428 H 900.368 1.09881 -7.71717 0
M  V30 9429 N 904.597 1.47463 -0.556102 0
M  V30 9430 C 905.843 2.02775 -0.0316806 0
M  V30 9431 C 906.176 1.42967 1.3143 0
M  V30 9432 O 905.451 0.584847 1.85499 0
M  V30 9433 C 905.734 3.60046 0.0625742 0
M  V30 9434 C 905.587 4.30288 -1.31043 0
M  V30 9435 C 906.906 4.33195 0.776553 0
M  V30 9436 H 904.025 0.736886 -0.0129869 0
M  V30 9437 H 906.667 1.75904 -0.718177 0
M  V30 9438 H 904.817 3.83071 0.647231 0
M  V30 9439 H 906.489 4.18607 -1.9382 0
M  V30 9440 H 904.732 3.90685 -1.8854 0
M  V30 9441 H 905.403 5.38861 -1.1972 0
M  V30 9442 H 907.879 4.15156 0.280147 0
M  V30 9443 H 906.755 5.42869 0.81146 0
M  V30 9444 H 907.016 4.02336 1.83244 0
M  V30 9445 N 906.075 0.2925 1.54862 0
M  V30 9446 C 907.324 -0.319994 1.99146 0
M  V30 9447 C 907.637 -1.55658 1.18448 0
M  V30 9448 O 908.843 -2.24312 1.52959 0
M  V30 9449 C 907.299 -0.620665 3.54508 0
M  V30 9450 C 906.907 0.597098 4.44003 0
M  V30 9451 C 908.651 -1.19482 4.07338 0
M  V30 9452 C 906.558 0.270049 5.90783 0
M  V30 9453 H 905.488 -0.123342 0.743843 0
M  V30 9454 H 908.139 0.399876 1.7909 0
M  V30 9455 H 906.521 -1.3999 3.7043 0
M  V30 9456 H 907.695 1.37354 4.39853 0
M  V30 9457 H 906.01 1.0893 4.019 0
M  V30 9458 H 908.607 -1.45362 5.14562 0
M  V30 9459 H 908.95 -2.13435 3.57423 0
M  V30 9460 H 909.483 -0.477485 3.94924 0
M  V30 9461 H 906.222 1.17791 6.4483 0
M  V30 9462 H 905.742 -0.469292 5.97961 0
M  V30 9463 H 907.421 -0.131471 6.46866 0
M  V30 9464 N 907.553 -1.57587 0.0200696 0
M  V30 9465 C 908.486 -2.05157 -0.999295 0
M  V30 9466 C 909.464 -0.945466 -1.32286 0
M  V30 9467 O 910.648 -1.21512 -1.44108 0
M  V30 9468 C 907.775 -2.46604 -2.32173 0
M  V30 9469 C 906.821 -3.68146 -2.15339 0
M  V30 9470 S 907.654 -5.15194 -1.46065 0
M  V30 9471 C 908.81 -5.59929 -2.79697 0
M  V30 9472 H 909.043 -2.91299 -0.59433 0
M  V30 9473 H 906.576 -1.53209 -0.191372 0
M  V30 9474 H 908.534 -2.7115 -3.08201 0
M  V30 9475 H 907.195 -1.60825 -2.69804 0
M  V30 9476 H 906.388 -3.94963 -3.13082 0
M  V30 9477 H 905.99 -3.43705 -1.47454 0
M  V30 9478 H 908.282 -5.63615 -3.75957 0
M  V30 9479 H 909.225 -6.59599 -2.57555 0
M  V30 9480 H 909.633 -4.87549 -2.84528 0
M  V30 9481 N 909.032 0.252966 -1.55557 0
M  V30 9482 C 910.278 0.983306 -1.77367 0
M  V30 9483 C 910.611 1.85203 -0.584258 0
M  V30 9484 O 909.886 1.89963 0.417644 0
M  V30 9485 C 910.169 1.84896 -3.09007 0
M  V30 9486 C 910.022 1.00883 -4.38341 0
M  V30 9487 C 911.341 2.83254 -3.36831 0
M  V30 9488 H 908.46 0.356056 -0.645286 0
M  V30 9489 H 911.102 0.254232 -1.88291 0
M  V30 9490 H 909.252 2.47058 -2.99825 0
M  V30 9491 H 910.924 0.40638 -4.59507 0
M  V30 9492 H 909.167 0.31297 -4.3267 0
M  V30 9493 H 909.838 1.64818 -5.2682 0
M  V30 9494 H 912.314 2.31228 -3.45937 0
M  V30 9495 H 911.19 3.40949 -4.30169 0
M  V30 9496 H 911.451 3.59407 -2.57447 0
M  V30 9497 N 910.51 1.48831 0.518367 0
M  V30 9498 C 911.738 1.6112 1.298 0
M  V30 9499 C 912.153 0.275872 1.86774 0
M  V30 9500 O 911.51 -0.736416 1.66983 0
M  V30 9501 C 911.561 2.66675 2.44063 0
M  V30 9502 O 911.282 3.95027 1.89434 0
M  V30 9503 C 912.783 2.8951 3.35706 0
M  V30 9504 H 910.003 0.542916 0.394314 0
M  V30 9505 H 912.547 1.94743 0.624142 0
M  V30 9506 H 910.702 2.35879 3.07311 0
M  V30 9507 H 911.116 4.53031 2.64316 0
M  V30 9508 H 912.59 3.67142 4.12202 0
M  V30 9509 H 913.067 1.98768 3.91648 0
M  V30 9510 H 913.673 3.21656 2.7824 0
M  V30 9511 N 911.988 -0.768124 1.37614 0
M  V30 9512 C 913.236 -1.52379 1.3276 0
M  V30 9513 C 913.557 -1.94809 -0.0863564 0
M  V30 9514 O 912.827 -1.66568 -1.03112 0
M  V30 9515 H 911.407 -0.565179 0.488448 0
M  V30 9516 H 914.069 -0.913974 1.72141 0
M  V30 9517 H 913.165 -2.4215 1.96901 0
M  V30 9518 N 913.466 -1.22244 -0.994698 0
M  V30 9519 C 914.743 -0.954459 -1.70732 0
M  V30 9520 C 915.123 0.530945 -2.04314 0
M  V30 9521 O 914.471 1.49851 -1.72502 0
M  V30 9522 C 914.681 -1.85016 -2.95922 0
M  V30 9523 C 916.029 -2.10517 -3.68738 0
M  V30 9524 O 917.053 -1.82449 -3.05926 0
M  V30 9525 O 915.912 -2.58044 -4.81742 0
M  V30 9526 H 913.006 -0.35879 -0.745116 0
M  V30 9527 H 915.552 -1.33221 -1.0512 0
M  V30 9528 H 914.324 -2.85498 -2.67594 0
M  V30 9529 H 913.947 -1.47388 -3.69273 0
M  V30 9530 N 914.944 1.19125 -1.03184 0
M  V30 9531 C 915.894 2.20348 -0.585731 0
M  V30 9532 C 916.878 1.56656 0.367109 0
M  V30 9533 O 918.07 1.76003 0.187598 0
M  V30 9534 C 915.199 3.43249 0.0590006 0
M  V30 9535 C 914.285 4.1408 -0.916457 0
M  V30 9536 N 914.676 4.61051 -2.08005 0
M  V30 9537 C 912.974 4.39809 -0.74054 0
M  V30 9538 C 913.675 5.15477 -2.69552 0
M  V30 9539 N 912.651 5.06456 -1.97493 0
M  V30 9540 H 916.453 2.54346 -1.47259 0
M  V30 9541 H 913.967 1.35232 -0.899225 0
M  V30 9542 H 915.964 4.15013 0.396236 0
M  V30 9543 H 914.624 3.1075 0.941507 0
M  V30 9544 H 915.635 4.55782 -2.45934 0
M  V30 9545 H 912.312 4.17397 0.0926238 0
M  V30 9546 H 913.702 5.62088 -3.68112 0
M  V30 9547 N 916.422 0.810101 1.35185 0
M  V30 9548 C 917.833 0.452616 1.81131 0
M  V30 9549 C 918.184 -1.02573 1.67252 0
M  V30 9550 O 917.309 -1.79735 1.20516 0
M  V30 9551 C 917.904 0.814775 3.28857 0
M  V30 9552 C 916.463 0.509839 3.72931 0
M  V30 9553 C 915.61 1.03852 2.57119 0
M  V30 9554 H 918.561 1.00143 1.23114 0
M  V30 9555 H 918.582 0.113635 3.8033 0
M  V30 9556 H 918.094 1.89078 3.38926 0
M  V30 9557 H 916.195 -0.557289 3.68409 0
M  V30 9558 H 916.308 1.04493 4.67566 0
M  V30 9559 H 914.672 0.460671 2.50499 0
M  V30 9560 H 915.455 2.12071 2.69964 0
M  V30 9561 N 917.9 -1.47166 0.563914 0
M  V30 9562 C 919.149 -2.0166 0.0401871 0
M  V30 9563 C 919.462 -1.44303 -1.32046 0
M  V30 9564 O 920.668 -1.905 -1.93448 0
M  V30 9565 C 919.124 -3.59894 0.0213257 0
M  V30 9566 C 918.732 -4.26244 1.37914 0
M  V30 9567 C 920.476 -4.22114 -0.449442 0
M  V30 9568 C 918.383 -5.76503 1.31902 0
M  V30 9569 H 917.313 -0.753916 0.0112534 0
M  V30 9570 H 919.964 -1.69091 0.712766 0
M  V30 9571 H 918.346 -3.89454 -0.717038 0
M  V30 9572 H 919.52 -4.08317 2.13574 0
M  V30 9573 H 917.835 -3.76039 1.78839 0
M  V30 9574 H 920.432 -5.32234 -0.51292 0
M  V30 9575 H 920.775 -3.89749 -1.46291 0
M  V30 9576 H 921.308 -3.9711 0.23427 0
M  V30 9577 H 918.047 -6.13498 2.3087 0
M  V30 9578 H 917.567 -5.96748 0.604324 0
M  V30 9579 H 919.246 -6.38846 1.02392 0
M  V30 9580 N 919.378 -0.300708 -1.54705 0
M  V30 9581 C 920.606 0.31127 -2.04545 0
M  V30 9582 C 921.021 1.47542 -1.178 0
M  V30 9583 O 920.378 1.81361 -0.203571 0
M  V30 9584 C 920.429 0.767783 -3.53253 0
M  V30 9585 O 920.15 -0.350027 -4.36699 0
M  V30 9586 C 921.651 1.44494 -4.1909 0
M  V30 9587 H 918.871 0.067668 -0.667579 0
M  V30 9588 H 921.415 -0.440254 -1.99705 0
M  V30 9589 H 919.57 1.46933 -3.58454 0
M  V30 9590 H 919.984 0.00534038 -5.245 0
M  V30 9591 H 921.458 1.71553 -5.24665 0
M  V30 9592 H 921.935 2.3849 -3.68808 0
M  V30 9593 H 922.541 0.786581 -4.17963 0
M  V30 9594 N 920.856 1.57574 -0.0284266 0
M  V30 9595 C 921.819 2.09096 0.938691 0
M  V30 9596 C 922.819 1.00588 1.25454 0
M  V30 9597 O 924.009 1.2675 1.19499 0
M  V30 9598 C 921.141 2.55624 2.25542 0
M  V30 9599 H 922.334 2.95829 0.49248 0
M  V30 9600 H 919.887 1.5475 0.219594 0
M  V30 9601 H 920.622 1.72218 2.74793 0
M  V30 9602 H 920.407 3.34896 2.03929 0
M  V30 9603 H 921.897 2.95712 2.94863 0
M  V30 9604 N 922.334 -0.244713 1.55689 0
M  V30 9605 C 923.281 -1.30301 1.905 0
M  V30 9606 C 924.251 -1.4772 0.759478 0
M  V30 9607 O 925.436 -1.61667 1.01333 0
M  V30 9608 C 922.576 -2.653 2.20703 0
M  V30 9609 C 921.689 -2.55872 3.48071 0
M  V30 9610 C 920.824 -3.83238 3.67834 0
M  V30 9611 C 919.863 -3.68436 4.88796 0
M  V30 9612 N 919 -4.877 5.05068 0
M  V30 9613 H 923.84 -0.999143 2.80751 0
M  V30 9614 H 921.377 -0.482099 1.38976 0
M  V30 9615 H 923.335 -3.43884 2.36219 0
M  V30 9616 H 921.965 -2.93831 1.33653 0
M  V30 9617 H 921.017 -1.68846 3.40874 0
M  V30 9618 H 922.329 -2.40845 4.36801 0
M  V30 9619 H 921.483 -4.70266 3.83321 0
M  V30 9620 H 920.222 -4.01165 2.77341 0
M  V30 9621 H 919.227 -2.79793 4.73282 0
M  V30 9622 H 920.452 -3.52003 5.8075 0
M  V30 9623 H 918.398 -5.05983 4.17513 0
M  V30 9624 H 918.315 -4.75312 5.8789 0
M  V30 9625 H 919.583 -5.76219 5.24969 0
M  V30 9626 N 923.813 -1.49104 -0.510467 0
M  V30 9627 C 924.776 -1.64569 -1.59529 0
M  V30 9628 C 925.776 -0.517937 -1.5223 0
M  V30 9629 O 926.966 -0.784183 -1.55551 0
M  V30 9630 C 924.098 -1.6342 -2.99177 0
M  V30 9631 H 925.291 -2.61318 -1.4715 0
M  V30 9632 H 922.844 -1.37993 -0.734001 0
M  V30 9633 H 923.579 -0.68221 -3.17043 0
M  V30 9634 H 923.364 -2.45312 -3.05883 0
M  V30 9635 H 924.854 -1.77474 -3.78011 0
M  V30 9636 N 925.291 0.760815 -1.38019 0
M  V30 9637 C 926.54 1.51506 -1.3315 0
M  V30 9638 C 926.853 1.95444 0.0782124 0
M  V30 9639 O 928.059 2.70352 0.249418 0
M  V30 9640 C 926.515 2.73636 -2.33776 0
M  V30 9641 C 926.123 2.36753 -3.80332 0
M  V30 9642 C 927.867 3.51548 -2.37937 0
M  V30 9643 C 925.774 3.55451 -4.72661 0
M  V30 9644 H 924.704 0.568844 -0.494907 0
M  V30 9645 H 927.355 0.832343 -1.63537 0
M  V30 9646 H 925.737 3.43852 -1.96422 0
M  V30 9647 H 926.911 1.7425 -4.26584 0
M  V30 9648 H 925.226 1.71991 -3.7922 0
M  V30 9649 H 927.823 4.39791 -3.04119 0
M  V30 9650 H 928.166 3.9219 -1.39617 0
M  V30 9651 H 928.699 2.88339 -2.74054 0
M  V30 9652 H 925.438 3.19882 -5.7215 0
M  V30 9653 H 924.958 4.17022 -4.31107 0
M  V30 9654 H 926.637 4.22125 -4.90326 0
M  V30 9655 N 926.769 1.22769 0.988202 0
M  V30 9656 C 927.732 1.00325 2.06076 0
M  V30 9657 C 928.732 -0.0320618 1.60768 0
M  V30 9658 O 929.922 0.206912 1.72967 0
M  V30 9659 C 927.054 0.516376 3.36966 0
M  V30 9660 H 928.247 1.95499 2.27421 0
M  V30 9661 H 925.8 1.04704 1.16047 0
M  V30 9662 H 926.535 -0.439498 3.21308 0
M  V30 9663 H 926.32 1.26337 3.71189 0
M  V30 9664 H 927.81 0.37974 4.1587 0
M  V30 9665 N 928.247 -1.18576 1.03814 0
M  V30 9666 C 929.194 -2.2212 0.626988 0
M  V30 9667 C 930.164 -1.62064 -0.363912 0
M  V30 9668 O 931.349 -1.89041 -0.258469 0
M  V30 9669 C 928.489 -3.45099 -0.00650133 0
M  V30 9670 C 927.602 -4.19503 1.03156 0
M  V30 9671 C 926.737 -5.29932 0.366852 0
M  V30 9672 C 925.776 -5.96104 1.39018 0
M  V30 9673 N 924.913 -6.98076 0.750625 0
M  V30 9674 H 929.753 -2.56646 1.51449 0
M  V30 9675 H 927.29 -1.26084 0.757702 0
M  V30 9676 H 929.248 -4.15363 -0.391108 0
M  V30 9677 H 927.878 -3.11201 -0.857536 0
M  V30 9678 H 926.93 -3.48092 1.53414 0
M  V30 9679 H 928.242 -4.64843 1.80893 0
M  V30 9680 H 927.396 -6.06657 -0.0720979 0
M  V30 9681 H 926.135 -4.85687 -0.442631 0
M  V30 9682 H 925.14 -5.18122 1.8393 0
M  V30 9683 H 926.365 -6.42432 2.20132 0
M  V30 9684 H 924.311 -6.55989 -0.0385981 0
M  V30 9685 H 924.228 -7.41655 1.46574 0
M  V30 9686 H 925.496 -7.78776 0.335986 0
M  V30 9687 N 929.725 -0.817259 -1.34754 0
M  V30 9688 C 930.973 -0.401852 -1.98065 0
M  V30 9689 C 931.294 1.03718 -1.65129 0
M  V30 9690 O 930.564 1.71921 -0.939141 0
M  V30 9691 H 929.144 -0.145603 -0.732672 0
M  V30 9692 H 931.806 -1.04545 -1.64488 0
M  V30 9693 H 930.902 -0.516241 -3.07801 0
M  V30 9694 N 931.203 1.46865 -0.571711 0
M  V30 9695 C 932.449 2.0273 -0.0531858 0
M  V30 9696 C 932.782 1.44353 1.29907 0
M  V30 9697 O 932.057 0.604488 1.84868 0
M  V30 9698 C 932.34 3.60092 0.0243831 0
M  V30 9699 C 932.193 4.28874 -1.35599 0
M  V30 9700 C 933.512 4.33994 0.730563 0
M  V30 9701 H 930.631 0.736706 -0.0208018 0
M  V30 9702 H 933.273 1.75132 -0.736794 0
M  V30 9703 H 931.423 3.83736 0.606565 0
M  V30 9704 H 933.095 4.16527 -1.98249 0
M  V30 9705 H 931.338 3.88664 -1.92674 0
M  V30 9706 H 932.009 5.37561 -1.25429 0
M  V30 9707 H 934.485 4.1543 0.236098 0
M  V30 9708 H 933.361 5.43699 0.753836 0
M  V30 9709 H 933.622 4.04257 1.78967 0
M  V30 9710 N 932.681 0.308908 1.54543 0
M  V30 9711 C 933.929 -0.297447 1.99899 0
M  V30 9712 C 934.25 -1.53799 1.19878 0
M  V30 9713 O 933.52 -1.93639 0.29678 0
M  V30 9714 H 932.1 -0.112897 0.738419 0
M  V30 9715 H 934.762 0.422067 1.90275 0
M  V30 9716 H 933.858 -0.564016 3.06961 0
M  V30 9717 N 934.159 -1.57557 0.0367827 0
M  V30 9718 C 935.408 -1.91291 -0.639569 0
M  V30 9719 C 935.721 -0.915601 -1.72847 0
M  V30 9720 O 936.927 -1.14447 -2.46199 0
M  V30 9721 C 935.383 -3.39697 -1.18888 0
M  V30 9722 C 934.991 -4.47803 -0.132851 0
M  V30 9723 C 936.735 -3.82487 -1.8413 0
M  V30 9724 C 934.642 -5.87311 -0.694229 0
M  V30 9725 H 933.572 -0.713886 -0.242658 0
M  V30 9726 H 936.223 -1.83209 0.103332 0
M  V30 9727 H 934.605 -3.42736 -1.98363 0
M  V30 9728 H 935.779 -4.56334 0.640009 0
M  V30 9729 H 934.094 -4.14264 0.421264 0
M  V30 9730 H 936.691 -4.84076 -2.27101 0
M  V30 9731 H 937.034 -3.17959 -2.68716 0
M  V30 9732 H 937.567 -3.81903 -1.11332 0
M  V30 9733 H 934.306 -6.55401 0.113667 0
M  V30 9734 H 933.826 -5.82371 -1.4354 0
M  V30 9735 H 935.505 -6.36119 -1.1816 0
M  V30 9736 N 935.637 0.236453 -1.55816 0
M  V30 9737 C 936.886 0.960981 -1.77336 0
M  V30 9738 C 937.199 1.86085 -0.602641 0
M  V30 9739 O 938.405 2.62291 -0.701106 0
M  V30 9740 C 936.861 1.75884 -3.13995 0
M  V30 9741 C 936.469 0.905849 -4.38746 0
M  V30 9742 C 938.213 2.47548 -3.44848 0
M  V30 9743 C 936.12 1.7002 -5.66434 0
M  V30 9744 H 935.05 0.362547 -0.661117 0
M  V30 9745 H 937.701 0.215303 -1.82233 0
M  V30 9746 H 936.083 2.54687 -3.03234 0
M  V30 9747 H 937.257 0.159415 -4.60524 0
M  V30 9748 H 935.572 0.30205 -4.15303 0
M  V30 9749 H 938.169 3.07452 -4.37467 0
M  V30 9750 H 938.512 3.19689 -2.66655 0
M  V30 9751 H 939.045 1.75747 -3.56872 0
M  V30 9752 H 935.784 1.02234 -6.47479 0
M  V30 9753 H 935.304 2.42164 -5.48741 0
M  V30 9754 H 936.983 2.26469 -6.0607 0
M  V30 9755 N 937.115 1.49373 0.502552 0
M  V30 9756 C 938.34 1.62752 1.28556 0
M  V30 9757 C 938.765 0.298285 1.8572 0
M  V30 9758 O 938.123 -0.733885 1.65782 0
M  V30 9759 C 938.171 2.69778 2.39274 0
M  V30 9760 O 937.275 2.28843 3.43081 0
M  V30 9761 H 936.616 0.544799 0.379592 0
M  V30 9762 H 939.146 1.9555 0.601792 0
M  V30 9763 H 939.156 2.91899 2.8506 0
M  V30 9764 H 937.831 3.66266 1.97033 0
M  V30 9765 H 936.408 2.17047 3.03224 0
M  V30 9766 N 938.594 -0.753485 1.38421 0
M  V30 9767 C 939.504 -1.89797 1.37892 0
M  V30 9768 C 940.52 -1.71797 0.276023 0
M  V30 9769 O 941.696 -1.94718 0.514464 0
M  V30 9770 C 938.761 -3.25166 1.20284 0
M  V30 9771 C 937.822 -3.55691 2.4038 0
M  V30 9772 C 937.055 -4.84601 2.23602 0
M  V30 9773 O 937.278 -5.56985 1.22979 0
M  V30 9774 O 936.212 -5.14605 3.12194 0
M  V30 9775 H 940.038 -1.93197 2.34326 0
M  V30 9776 H 937.623 -0.898775 1.19342 0
M  V30 9777 H 939.505 -4.06099 1.12525 0
M  V30 9778 H 938.18 -3.22577 0.269352 0
M  V30 9779 H 937.087 -2.74919 2.53714 0
M  V30 9780 H 938.42 -3.6304 3.32359 0
M  V30 9781 N 940.072 -1.23292 -0.981677 0
M  V30 9782 C 941.32 -1.06214 -1.71939 0
M  V30 9783 C 941.641 0.401989 -1.90812 0
M  V30 9784 O 940.911 1.28825 -1.47584 0
M  V30 9785 H 939.491 -0.390042 -0.637084 0
M  V30 9786 H 942.153 -1.54988 -1.18173 0
M  V30 9787 H 941.249 -1.54904 -2.70945 0
M  V30 9788 N 941.55 1.18024 -1.04442 0
M  V30 9789 C 942.498 2.23834 -0.632557 0
M  V30 9790 C 943.492 1.65902 0.342488 0
M  V30 9791 O 944.698 1.78778 0.20937 0
M  V30 9792 H 941.073 0.728544 -0.186353 0
M  V30 9793 H 943.044 2.55876 -1.53526 0
M  V30 9794 C 941.793 3.47697 -0.0153661 0
M  V30 9795 H 941.116 3.92574 -0.756704 0
M  V30 9796 H 942.556 4.23345 0.235541 0
M  V30 9797 C 941.015 3.13416 1.23579 0
M  V30 9798 O 941.545 3.27499 2.3261 0
M  V30 9799 N 939.751 2.67708 1.13053 0
M  V30 9800 H 939.298 2.56449 0.243277 0
M  V30 9801 H 939.256 2.45143 1.96855 0
M  V30 9802 N 943.028 0.824394 1.34319 0
M  V30 9803 C 943.938 0.24932 2.33271 0
M  V30 9804 C 944.954 -0.617066 1.62691 0
M  V30 9805 O 946.13 -0.524616 1.94447 0
M  V30 9806 C 943.195 -0.578094 3.41846 0
M  V30 9807 C 942.256 0.310866 4.28173 0
M  V30 9808 C 941.489 -0.477153 5.31563 0
M  V30 9809 O 941.712 -1.71028 5.44156 0
M  V30 9810 O 940.646 0.141287 6.01734 0
M  V30 9811 H 944.472 1.06837 2.84288 0
M  V30 9812 H 942.057 0.58657 1.37403 0
M  V30 9813 H 943.939 -1.04878 4.0814 0
M  V30 9814 H 942.614 -1.37444 2.93071 0
M  V30 9815 H 941.521 0.829081 3.64797 0
M  V30 9816 H 942.854 1.07161 4.80393 0
M  V30 9817 N 944.506 -1.46559 0.579492 0
M  V30 9818 C 945.734 -2.06784 0.0693648 0
M  V30 9819 C 946.149 -1.42875 -1.23419 0
M  V30 9820 O 945.506 -0.532919 -1.74546 0
M  V30 9821 C 945.557 -3.61343 -0.106511 0
M  V30 9822 O 945.278 -4.22861 1.14545 0
M  V30 9823 C 946.779 -4.38489 -0.651359 0
M  V30 9824 H 943.999 -0.66866 0.0559848 0
M  V30 9825 H 946.543 -1.88235 0.799245 0
M  V30 9826 H 944.698 -3.7933 -0.786601 0
M  V30 9827 H 945.112 -5.15691 0.95723 0
M  V30 9828 H 946.586 -5.47237 -0.723615 0
M  V30 9829 H 947.063 -4.06309 -1.66763 0
M  V30 9830 H 947.669 -4.253 -0.0062433 0
M  V30 9831 N 945.984 -0.3171 -1.54377 0
M  V30 9832 C 947.23 0.287836 -2.00747 0
M  V30 9833 C 947.563 1.52292 -1.20502 0
M  V30 9834 O 946.838 1.92391 -0.285626 0
M  V30 9835 C 947.121 0.628423 -3.54574 0
M  V30 9836 C 946.974 -0.616922 -4.45549 0
M  V30 9837 C 948.293 1.44862 -4.15575 0
M  V30 9838 H 945.412 0.103144 -0.729747 0
M  V30 9839 H 948.054 -0.432396 -1.85014 0
M  V30 9840 H 946.204 1.24203 -3.68111 0
M  V30 9841 H 947.876 -1.25526 -4.43893 0
M  V30 9842 H 946.119 -1.24706 -4.15489 0
M  V30 9843 H 946.79 -0.334243 -5.50987 0
M  V30 9844 H 949.266 0.930015 -4.05574 0
M  V30 9845 H 948.142 1.6557 -5.23333 0
M  V30 9846 H 948.403 2.44279 -3.68484 0
M  V30 9847 N 947.462 1.57535 -0.0451378 0
M  V30 9848 C 948.372 2.14653 0.946646 0
M  V30 9849 C 949.388 1.10279 1.3459 0
M  V30 9850 O 950.564 1.42417 1.42405 0
M  V30 9851 C 947.629 2.67533 2.20515 0
M  V30 9852 C 946.69 3.86682 1.86481 0
M  V30 9853 C 945.923 4.37031 3.06332 0
M  V30 9854 O 946.146 3.86481 4.1951 0
M  V30 9855 O 945.08 5.28691 2.87697 0
M  V30 9856 H 948.906 2.99706 0.49091 0
M  V30 9857 H 946.491 1.48355 0.17641 0
M  V30 9858 H 948.373 3.01542 2.94365 0
M  V30 9859 H 947.048 1.85554 2.65238 0
M  V30 9860 H 945.955 3.57573 1.09966 0
M  V30 9861 H 947.288 4.69873 1.46562 0
M  V30 9862 N 948.94 -0.228186 1.55939 0
M  V30 9863 C 950.217 -0.977492 1.69424 0
M  V30 9864 C 950.597 -2.02674 0.590479 0
M  V30 9865 O 949.945 -2.2491 -0.403467 0
M  V30 9866 C 950.155 -1.59394 3.10475 0
M  V30 9867 C 951.503 -2.08871 3.69673 0
M  V30 9868 O 952.527 -1.693 3.13394 0
M  V30 9869 O 951.386 -2.81584 4.68372 0
M  V30 9870 H 948.48 -0.456185 0.6898 0
M  V30 9871 H 951.026 -0.220492 1.68261 0
M  V30 9872 H 949.798 -0.835971 3.82266 0
M  V30 9873 H 949.421 -2.41665 3.15727 0
M  V30 9874 N 950.418 -1.49637 -0.494624 0
M  V30 9875 C 951.667 -1.58691 -1.24499 0
M  V30 9876 C 951.98 -0.281763 -1.9356 0
M  V30 9877 O 953.186 -0.250925 -2.70338 0
M  V30 9878 C 951.642 -2.8002 -2.26091 0
M  V30 9879 C 951.25 -4.17318 -1.6294 0
M  V30 9880 C 952.994 -2.98407 -3.01916 0
M  V30 9881 C 950.901 -5.29862 -2.62679 0
M  V30 9882 H 949.831 -0.590888 -0.468367 0
M  V30 9883 H 952.482 -1.76034 -0.518112 0
M  V30 9884 H 950.864 -2.56185 -3.01969 0
M  V30 9885 H 952.038 -4.51315 -0.930108 0
M  V30 9886 H 950.353 -4.04342 -0.994819 0
M  V30 9887 H 952.95 -3.79658 -3.76516 0
M  V30 9888 H 953.293 -2.09214 -3.5991 0
M  V30 9889 H 953.826 -3.22312 -2.33152 0
M  V30 9890 H 950.565 -6.21134 -2.09458 0
M  V30 9891 H 950.085 -5.00311 -3.3083 0
M  V30 9892 H 951.764 -5.59461 -3.2498 0
M  V30 9893 N 951.896 0.746133 -1.38819 0
M  V30 9894 C 952.859 1.84167 -1.36437 0
M  V30 9895 C 953.859 1.58626 -0.263499 0
M  V30 9896 O 955.049 1.66233 -0.520801 0
M  V30 9897 C 952.181 3.21769 -1.12596 0
M  V30 9898 H 953.374 1.87684 -2.33912 0
M  V30 9899 H 950.927 0.948625 -1.24221 0
M  V30 9900 H 951.662 3.23917 -0.15758 0
M  V30 9901 H 951.447 3.41702 -1.92307 0
M  V30 9902 H 952.937 4.0184 -1.13643 0
M  V30 9903 N 953.375 1.23811 0.975125 0
M  V30 9904 C 954.338 1.02505 2.05001 0
M  V30 9905 C 955.338 -0.0150084 1.60793 0
M  V30 9906 O 956.528 0.225246 1.72738 0
M  V30 9907 C 953.66 0.552087 3.364 0
M  V30 9908 H 954.853 1.979 2.25335 0
M  V30 9909 H 952.406 1.05929 1.1493 0
M  V30 9910 H 953.141 -0.405394 3.21756 0
M  V30 9911 H 952.926 1.30267 3.69828 0
M  V30 9912 H 954.416 0.423828 4.15444 0
M  V30 9913 N 954.853 -1.17469 1.05066 0
M  V30 9914 C 956.269 -1.39699 0.771769 0
M  V30 9915 C 956.469 -1.91253 -0.634382 0
M  V30 9916 O 955.525 -2.10334 -1.39699 0
M  V30 9917 C 956.838 -2.38886 1.82631 0
M  V30 9918 C 958.386 -2.52595 1.84838 0
M  V30 9919 C 958.861 -3.55054 2.89311 0
M  V30 9920 N 960.352 -3.6257 2.88266 0
M  V30 9921 C 961.087 -4.41603 3.65752 0
M  V30 9922 N 960.583 -5.24162 4.53019 0
M  V30 9923 N 962.376 -4.36464 3.54197 0
M  V30 9924 H 954.527 -0.823355 1.95792 0
M  V30 9925 H 956.79 -0.42432 0.847736 0
M  V30 9926 H 956.496 -2.08075 2.83545 0
M  V30 9927 H 956.37 -3.38371 1.66687 0
M  V30 9928 H 958.757 -2.82717 0.845888 0
M  V30 9929 H 958.838 -1.53188 2.04859 0
M  V30 9930 H 958.482 -3.2567 3.89745 0
M  V30 9931 H 958.412 -4.54162 2.66542 0
M  V30 9932 H 960.903 -3.03625 2.24989 0
M  V30 9933 H 961.216 -5.81646 5.0883 0
M  V30 9934 H 959.561 -5.23547 4.57081 0
M  V30 9935 H 962.752 -3.7102 2.85416 0
M  V30 9936 H 962.925 -4.97814 4.14832 0
M  V30 9937 N 956.331 -0.831506 -1.3388 0
M  V30 9938 C 957.261 -0.274378 -2.31882 0
M  V30 9939 C 958.242 0.613872 -1.58637 0
M  V30 9940 O 959.427 0.538961 -1.86571 0
M  V30 9941 C 956.557 0.557498 -3.42796 0
M  V30 9942 C 955.511 -0.234337 -4.27358 0
M  V30 9943 C 954.837 0.720825 -5.29819 0
M  V30 9944 C 956.137 -1.44732 -5.01847 0
M  V30 9945 H 957.831 -1.09322 -2.78728 0
M  V30 9946 H 955.377 -0.527136 -1.34005 0
M  V30 9947 H 957.33 0.957501 -4.10378 0
M  V30 9948 H 956.054 1.40947 -2.94621 0
M  V30 9949 H 954.713 -0.61581 -3.61391 0
M  V30 9950 H 954.361 1.569 -4.77903 0
M  V30 9951 H 954.061 0.195171 -5.87276 0
M  V30 9952 H 955.585 1.1185 -6.00268 0
M  V30 9953 H 956.999 -1.12087 -5.62236 0
M  V30 9954 H 955.396 -1.90923 -5.68919 0
M  V30 9955 H 956.466 -2.22099 -4.31045 0
M  V30 9956 N 957.809 1.4625 -0.587256 0
M  V30 9957 C 958.757 2.32076 0.156108 0
M  V30 9958 C 959.751 1.44756 0.879887 0
M  V30 9959 O 960.957 1.61356 0.797759 0
M  V30 9960 H 957.332 0.748808 0.0692098 0
M  V30 9961 H 959.303 2.9258 -0.586497 0
M  V30 9962 C 958.052 3.28008 1.15352 0
M  V30 9963 H 957.375 3.9518 0.60601 0
M  V30 9964 H 958.815 3.90832 1.64396 0
M  V30 9965 C 957.274 2.53691 2.21681 0
M  V30 9966 O 957.804 2.30329 3.29107 0
M  V30 9967 N 956.01 2.14174 1.96412 0
M  V30 9968 H 955.557 2.33374 1.09061 0
M  V30 9969 H 955.515 1.6477 2.67765 0
M  V30 9970 N 959.287 0.325282 1.54207 0
M  V30 9971 C 960.536 -0.27768 1.99779 0
M  V30 9972 C 960.849 -1.5311 1.21723 0
M  V30 9973 O 962.055 -2.21017 1.57682 0
M  V30 9974 C 960.511 -0.545329 3.55745 0
M  V30 9975 C 960.119 0.691143 4.42637 0
M  V30 9976 C 961.863 -1.10815 4.09781 0
M  V30 9977 C 959.77 0.395302 5.90077 0
M  V30 9978 H 958.7 -0.107536 0.746292 0
M  V30 9979 H 961.351 0.437773 1.78202 0
M  V30 9980 H 959.733 -1.32101 3.73317 0
M  V30 9981 H 960.907 1.46653 4.3684 0
M  V30 9982 H 959.222 1.1743 3.99499 0
M  V30 9983 H 961.819 -1.34414 5.1753 0
M  V30 9984 H 962.162 -2.05806 3.6187 0
M  V30 9985 H 962.695 -0.393608 3.95848 0
M  V30 9986 H 959.434 1.31443 6.42186 0
M  V30 9987 H 958.954 -0.34235 5.98822 0
M  V30 9988 H 960.633 0.00576877 6.47 0
M  V30 9989 N 960.765 -1.57509 0.0534917 0
M  V30 9990 C 962.176 -1.80374 -0.481867 0
M  V30 9991 C 962.527 -0.965917 -1.70776 0
M  V30 9992 O 961.652 -0.183167 -2.15623 0
M  V30 9993 C 962.247 -3.27146 -0.880978 0
M  V30 9994 C 960.806 -3.50921 -1.3613 0
M  V30 9995 C 959.953 -2.75237 -0.337611 0
M  V30 9996 H 962.904 -1.56222 0.279353 0
M  V30 9997 H 962.925 -3.38193 -1.74373 0
M  V30 9998 H 962.437 -3.88098 0.011441 0
M  V30 9999 H 960.538 -2.95251 -2.27283 0
M  V30 10000 H 960.651 -4.59632 -1.35186 0
M  V30 10001 H 959.015 -2.41444 -0.810991 0
M  V30 10002 H 959.798 -3.38918 0.546763 0
M  V30 10003 N 962.243 0.219913 -1.56058 0
M  V30 10004 C 963.489 0.945463 -1.79412 0
M  V30 10005 C 963.822 1.83922 -0.62341 0
M  V30 10006 O 963.097 1.90806 0.377256 0
M  V30 10007 C 963.38 1.783 -3.1286 0
M  V30 10008 C 963.233 0.915626 -4.40382 0
M  V30 10009 C 964.552 2.76045 -3.42764 0
M  V30 10010 H 961.671 0.342288 -0.652693 0
M  V30 10011 H 964.313 0.214235 -1.88788 0
M  V30 10012 H 962.463 2.40642 -3.04998 0
M  V30 10013 H 964.135 0.30882 -4.60265 0
M  V30 10014 H 962.378 0.221124 -4.33236 0
M  V30 10015 H 963.049 1.53607 -5.30197 0
M  V30 10016 H 965.525 2.23838 -3.50764 0
M  V30 10017 H 964.401 3.31748 -4.37304 0
M  V30 10018 H 964.662 3.53866 -2.65012 0
M  V30 10019 N 963.721 1.49897 0.486681 0
M  V30 10020 C 964.946 1.64106 1.26823 0
M  V30 10021 C 965.371 0.317967 1.85393 0
M  V30 10022 O 964.729 -0.71626 1.66551 0
M  V30 10023 C 964.777 2.72301 2.36399 0
M  V30 10024 O 963.881 2.32469 3.40634 0
M  V30 10025 H 963.222 0.548794 0.373793 0
M  V30 10026 H 965.752 1.96177 0.581017 0
M  V30 10027 H 965.762 2.94906 2.81948 0
M  V30 10028 H 964.437 3.68335 1.93137 0
M  V30 10029 H 963.014 2.20251 3.00905 0
M  V30 10030 N 965.199 -0.738761 1.39212 0
M  V30 10031 C 966.131 -1.86286 1.3353 0
M  V30 10032 C 967.144 -1.6095 0.244755 0
M  V30 10033 O 968.333 -1.71254 0.50343 0
M  V30 10034 C 965.433 -3.22234 1.04969 0
M  V30 10035 C 964.606 -3.74956 2.25226 0
M  V30 10036 C 963.665 -4.89457 1.9318 0
M  V30 10037 O 962.691 -5.03314 2.65826 0
M  V30 10038 N 963.893 -5.73548 0.895679 0
M  V30 10039 H 966.658 -1.91666 2.304 0
M  V30 10040 H 964.219 -0.919338 1.33266 0
M  V30 10041 H 966.211 -3.96397 0.815566 0
M  V30 10042 H 964.781 -3.12146 0.168451 0
M  V30 10043 H 964.001 -2.92188 2.64612 0
M  V30 10044 H 965.289 -4.06914 3.05448 0
M  V30 10045 H 964.687 -5.64938 0.293541 0
M  V30 10046 H 963.244 -6.47795 0.721451 0
M  V30 10047 N 966.677 -1.24326 -0.968545 0
M  V30 10048 C 967.923 -1.08406 -1.71394 0
M  V30 10049 C 968.256 0.376353 -1.90518 0
M  V30 10050 O 967.531 1.27816 -1.46606 0
M  V30 10051 C 967.814 -1.82344 -3.1052 0
M  V30 10052 C 967.667 -3.3613 -2.98893 0
M  V30 10053 C 968.986 -1.59545 -4.10163 0
M  V30 10054 H 966.105 -0.395205 -0.622079 0
M  V30 10055 H 968.747 -1.52983 -1.12677 0
M  V30 10056 H 966.897 -1.44452 -3.60646 0
M  V30 10057 H 968.569 -3.83614 -2.56199 0
M  V30 10058 H 966.812 -3.64553 -2.35124 0
M  V30 10059 H 967.483 -3.83064 -3.97449 0
M  V30 10060 H 969.959 -1.92504 -3.68892 0
M  V30 10061 H 968.835 -2.13736 -5.05577 0
M  V30 10062 H 969.096 -0.533503 -4.38869 0
M  V30 10063 N 968.156 1.1691 -1.05688 0
M  V30 10064 C 969.104 2.2315 -0.656262 0
M  V30 10065 C 970.098 1.66256 0.324873 0
M  V30 10066 O 971.304 1.7899 0.190397 0
M  V30 10067 H 967.679 0.726527 -0.19407 0
M  V30 10068 H 969.65 2.54233 -1.56231 0
M  V30 10069 C 968.399 3.47661 -0.0522431 0
M  V30 10070 H 967.722 3.91749 -0.798299 0
M  V30 10071 H 969.162 4.23571 0.190626 0
M  V30 10072 C 967.621 3.14709 1.20248 0
M  V30 10073 O 968.151 3.29947 2.29124 0
M  V30 10074 N 966.357 2.68892 1.10207 0
M  V30 10075 H 965.904 2.56692 0.216063 0
M  V30 10076 H 965.862 2.47218 1.94244 0
M  V30 10077 N 969.634 0.838594 1.33437 0
M  V30 10078 C 971.045 0.490934 1.8013 0
M  V30 10079 C 971.396 -0.990024 1.6939 0
M  V30 10080 O 970.521 -1.77139 1.24302 0
M  V30 10081 C 971.116 0.884347 3.27055 0
M  V30 10082 C 969.675 0.588829 3.71766 0
M  V30 10083 C 968.822 1.09282 2.54858 0
M  V30 10084 H 971.773 1.02732 1.20962 0
M  V30 10085 H 971.794 0.194283 3.80004 0
M  V30 10086 H 971.306 1.96225 3.34839 0
M  V30 10087 H 969.407 -0.479018 3.69508 0
M  V30 10088 H 969.52 1.14387 4.65245 0
M  V30 10089 H 967.884 0.513702 2.49466 0
M  V30 10090 H 968.667 2.1775 2.65405 0
M  V30 10091 N 971.112 -1.45937 0.595003 0
M  V30 10092 C 972.528 -1.57507 0.257641 0
M  V30 10093 C 972.728 -1.58829 -1.23998 0
M  V30 10094 O 971.784 -1.51183 -2.02237 0
M  V30 10095 C 973.097 -2.86354 0.917708 0
M  V30 10096 C 974.645 -3.00007 0.892446 0
M  V30 10097 C 975.12 -4.31607 1.53229 0
M  V30 10098 N 976.611 -4.38336 1.49719 0
M  V30 10099 C 977.346 -5.38805 1.96154 0
M  V30 10100 N 976.842 -6.45882 2.50617 0
M  V30 10101 N 978.635 -5.30084 1.86997 0
M  V30 10102 H 970.786 -1.43322 1.56756 0
M  V30 10103 H 973.049 -0.684436 0.655936 0
M  V30 10104 H 972.755 -2.91233 1.97171 0
M  V30 10105 H 972.629 -3.74703 0.433344 0
M  V30 10106 H 975.016 -2.94703 -0.152975 0
M  V30 10107 H 975.097 -2.13103 1.41495 0
M  V30 10108 H 974.741 -4.3767 2.57697 0
M  V30 10109 H 974.671 -5.17308 0.984903 0
M  V30 10110 H 977.162 -3.6156 1.09921 0
M  V30 10111 H 977.475 -7.18774 2.83874 0
M  V30 10112 H 975.82 -6.46668 2.54649 0
M  V30 10113 H 979.011 -4.45337 1.44196 0
M  V30 10114 H 979.184 -6.08237 2.23499 0
M  V30 10115 N 972.59 -0.333456 -1.54032 0
M  V30 10116 C 973.867 0.320902 -1.9295 0
M  V30 10117 C 974.247 1.69071 -1.26405 0
M  V30 10118 O 973.595 2.24768 -0.411311 0
M  V30 10119 C 973.805 0.403257 -3.46662 0
M  V30 10120 C 975.153 0.658875 -4.19457 0
M  V30 10121 O 976.177 0.485781 -3.52872 0
M  V30 10122 O 975.036 0.993475 -5.37394 0
M  V30 10123 H 972.13 0.185158 -0.806006 0
M  V30 10124 H 974.676 -0.383895 -1.65301 0
M  V30 10125 H 973.448 -0.558409 -3.87295 0
M  V30 10126 H 973.071 1.15524 -3.80447 0
M  V30 10127 N 974.068 1.57479 -0.061844 0
M  V30 10128 C 975.031 2.1104 0.894127 0
M  V30 10129 C 976.031 1.03227 1.23292 0
M  V30 10130 O 977.221 1.29256 1.16784 0
M  V30 10131 C 974.353 2.6035 2.20069 0
M  V30 10132 H 975.546 2.96807 0.429619 0
M  V30 10133 H 973.099 1.55181 0.18672 0
M  V30 10134 H 973.834 1.78008 2.71079 0
M  V30 10135 H 973.619 3.39146 1.9678 0
M  V30 10136 H 975.109 3.019 2.88525 0
M  V30 10137 N 975.546 -0.211634 1.56173 0
M  V30 10138 C 976.493 -1.26231 1.93221 0
M  V30 10139 C 977.463 -1.46076 0.790641 0
M  V30 10140 O 978.648 -1.59482 1.04739 0
M  V30 10141 C 975.788 -2.60559 2.26281 0
M  V30 10142 C 974.901 -2.48431 3.5342 0
M  V30 10143 C 974.036 -3.7535 3.7588 0
M  V30 10144 C 973.075 -3.57985 4.96501 0
M  V30 10145 N 972.212 -4.76877 5.15299 0
M  V30 10146 H 977.052 -0.939367 2.82807 0
M  V30 10147 H 974.589 -0.452511 1.39967 0
M  V30 10148 H 976.547 -3.38796 2.43461 0
M  V30 10149 H 975.177 -2.9093 1.39855 0
M  V30 10150 H 974.229 -1.61577 3.44379 0
M  V30 10151 H 975.541 -2.31526 4.41811 0
M  V30 10152 H 974.695 -4.62029 3.9321 0
M  V30 10153 H 973.434 -3.95191 2.85788 0
M  V30 10154 H 972.439 -2.69691 4.79111 0
M  V30 10155 H 973.664 -3.39605 5.88086 0
M  V30 10156 H 971.61 -4.97013 4.28152 0
M  V30 10157 H 971.527 -4.62735 5.9784 0
M  V30 10158 H 972.795 -5.64954 5.37073 0
M  V30 10159 N 977.024 -1.50153 -0.478725 0
M  V30 10160 C 977.987 -1.67916 -1.56003 0
M  V30 10161 C 978.987 -0.550111 -1.51097 0
M  V30 10162 O 980.177 -0.817001 -1.53853 0
M  V30 10163 C 977.309 -1.6973 -2.95643 0
M  V30 10164 H 978.502 -2.6438 -1.41573 0
M  V30 10165 H 976.055 -1.39519 -0.704565 0
M  V30 10166 H 976.79 -0.749306 -3.15525 0
M  V30 10167 H 976.575 -2.51745 -3.00611 0
M  V30 10168 H 978.065 -1.85453 -3.74162 0
M  V30 10169 N 978.502 0.731368 -1.39602 0
M  V30 10170 C 979.742 1.5036 -1.3846 0
M  V30 10171 C 980.106 1.91991 0.018784 0
M  V30 10172 O 981.307 2.68351 0.155236 0
M  V30 10173 C 979.578 2.70755 -2.33295 0
M  V30 10174 S 981.137 3.6036 -2.50372 0
M  V30 10175 H 977.955 0.514271 -0.490964 0
M  V30 10176 H 980.557 0.856654 -1.75732 0
M  V30 10177 H 979.261 2.38316 -3.34116 0
M  V30 10178 H 978.792 3.40376 -1.97251 0
M  V30 10179 H 980.807 4.64529 -1.74435 0
M  V30 10180 N 979.98 1.24838 0.961938 0
M  V30 10181 C 981.226 1.09313 1.70817 0
M  V30 10182 C 981.559 -0.366244 1.90715 0
M  V30 10183 O 980.834 -1.27036 1.47282 0
M  V30 10184 C 981.117 1.83988 3.09549 0
M  V30 10185 C 980.97 3.3771 2.97106 0
M  V30 10186 C 982.289 1.61718 4.09311 0
M  V30 10187 H 979.408 0.398498 0.619974 0
M  V30 10188 H 982.05 1.53579 1.11864 0
M  V30 10189 H 980.2 1.46363 3.59875 0
M  V30 10190 H 981.872 3.84967 2.54161 0
M  V30 10191 H 980.115 3.65795 2.33187 0
M  V30 10192 H 980.786 3.85166 3.95412 0
M  V30 10193 H 983.262 1.94458 3.67866 0
M  V30 10194 H 982.138 2.16415 5.04436 0
M  V30 10195 H 982.399 0.55677 4.3858 0
M  V30 10196 N 981.458 -1.16348 1.06306 0
M  V30 10197 C 982.704 -1.87158 0.781007 0
M  V30 10198 C 983.037 -1.81499 -0.690784 0
M  V30 10199 O 982.312 -1.23074 -1.50609 0
M  V30 10200 C 982.595 -3.3672 1.27639 0
M  V30 10201 C 982.448 -3.51069 2.81194 0
M  V30 10202 C 983.767 -4.31122 0.884388 0
M  V30 10203 H 980.886 -0.679586 0.285187 0
M  V30 10204 H 983.528 -1.36756 1.31901 0
M  V30 10205 H 981.678 -3.79775 0.818715 0
M  V30 10206 H 983.35 -3.16952 3.35171 0
M  V30 10207 H 981.593 -2.92976 3.19918 0
M  V30 10208 H 982.264 -4.56105 3.10921 0
M  V30 10209 H 984.74 -3.95969 1.27858 0
M  V30 10210 H 983.616 -5.34279 1.25847 0
M  V30 10211 H 983.877 -4.41598 -0.210673 0
M  V30 10212 N 982.937 -0.845659 -1.3299 0
M  V30 10213 C 983.887 -0.2557 -2.26562 0
M  V30 10214 C 984.871 0.593245 -1.49564 0
M  V30 10215 O 986.063 0.444101 -1.71338 0
M  V30 10216 C 983.192 0.562573 -3.38659 0
M  V30 10217 C 982.278 -0.298259 -4.2305 0
M  V30 10218 N 982.669 -1.38023 -4.86604 0
M  V30 10219 C 980.967 -0.0864539 -4.45916 0
M  V30 10220 C 981.668 -1.90907 -5.49481 0
M  V30 10221 N 980.644 -1.20955 -5.29973 0
M  V30 10222 H 984.446 -1.083 -2.73219 0
M  V30 10223 H 981.96 -0.690823 -1.46974 0
M  V30 10224 H 983.957 1.00157 -4.0469 0
M  V30 10225 H 982.617 1.38777 -2.93549 0
M  V30 10226 H 983.628 -1.76314 -4.86964 0
M  V30 10227 H 980.305 0.70475 -4.11509 0
M  V30 10228 H 981.695 -2.81552 -6.10064 0
M  V30 10229 N 984.415 1.45619 -0.602734 0
M  V30 10230 C 985.663 2.01873 -0.095844 0
M  V30 10231 C 985.984 1.47427 1.27633 0
M  V30 10232 O 985.254 0.666652 1.84208 0
M  V30 10233 H 983.834 0.746295 -0.0324408 0
M  V30 10234 H 986.496 1.78478 -0.783037 0
M  V30 10235 H 985.592 3.12072 -0.0419507 0
M  V30 10236 N 985.893 0.34162 1.53853 0
M  V30 10237 C 987.118 -0.259608 2.05769 0
M  V30 10238 C 987.543 -1.43588 1.21507 0
M  V30 10239 O 986.901 -1.79856 0.228364 0
M  V30 10240 C 986.949 -0.654455 3.54611 0
M  V30 10241 O 986.053 -1.75472 3.73207 0
M  V30 10242 H 985.394 -0.0434621 0.662576 0
M  V30 10243 H 987.924 0.495274 1.98515 0
M  V30 10244 H 987.934 -0.932142 3.97209 0
M  V30 10245 H 986.609 0.205779 4.15391 0
M  V30 10246 H 985.186 -1.47444 3.42512 0
M  V30 10247 N 987.371 -1.57444 0.0701946 0
M  V30 10248 C 988.648 -1.84826 -0.6402 0
M  V30 10249 C 989.028 -0.962344 -1.87889 0
M  V30 10250 O 988.376 -0.0282209 -2.28483 0
M  V30 10251 C 988.586 -3.34976 -0.979382 0
M  V30 10252 C 989.934 -4.02448 -1.35355 0
M  V30 10253 O 990.958 -3.39713 -1.07116 0
M  V30 10254 O 989.817 -5.13096 -1.88136 0
M  V30 10255 H 986.911 -0.763494 -0.317813 0
M  V30 10256 H 989.457 -1.69399 0.101004 0
M  V30 10257 H 988.229 -3.91173 -0.0995576 0
M  V30 10258 H 987.852 -3.5566 -1.7774 0
M  V30 10259 N 988.849 0.203349 -1.56283 0
M  V30 10260 C 989.779 1.2549 -1.96912 0
M  V30 10261 C 990.76 1.47919 -0.839884 0
M  V30 10262 O 991.945 1.59795 -1.10359 0
M  V30 10263 C 989.075 2.6009 -2.30153 0
M  V30 10264 C 988.029 2.52289 -3.45738 0
M  V30 10265 C 987.355 3.91086 -3.64632 0
M  V30 10266 C 988.655 2.05503 -4.80173 0
M  V30 10267 H 990.349 0.917306 -2.85002 0
M  V30 10268 H 987.895 0.439818 -1.37119 0
M  V30 10269 H 989.848 3.33829 -2.5717 0
M  V30 10270 H 988.572 2.95574 -1.38937 0
M  V30 10271 H 987.231 1.81006 -3.18798 0
M  V30 10272 H 986.879 4.23908 -2.7076 0
M  V30 10273 H 986.579 3.86742 -4.42385 0
M  V30 10274 H 988.103 4.66459 -3.94016 0
M  V30 10275 H 989.517 2.68995 -5.06275 0
M  V30 10276 H 987.914 2.1218 -5.61337 0
M  V30 10277 H 988.984 1.00793 -4.74309 0
M  V30 10278 N 990.327 1.50405 0.470755 0
M  V30 10279 C 991.274 1.69293 1.56871 0
M  V30 10280 C 992.244 0.534248 1.57274 0
M  V30 10281 O 993.429 0.764855 1.74799 0
M  V30 10282 C 990.569 1.79338 2.94842 0
M  V30 10283 C 989.682 3.06709 3.04226 0
M  V30 10284 C 988.817 3.07548 4.33114 0
M  V30 10285 C 987.856 4.29372 4.36241 0
M  V30 10286 N 986.993 4.27949 5.56601 0
M  V30 10287 H 991.833 2.63029 1.40071 0
M  V30 10288 H 989.37 1.30386 0.681016 0
M  V30 10289 H 991.328 1.83143 3.74853 0
M  V30 10290 H 989.958 0.890411 3.10277 0
M  V30 10291 H 989.01 3.12374 2.17086 0
M  V30 10292 H 990.322 3.96684 3.02396 0
M  V30 10293 H 989.476 3.10084 5.21472 0
M  V30 10294 H 988.215 2.15404 4.37553 0
M  V30 10295 H 987.22 4.27048 3.4628 0
M  V30 10296 H 988.445 5.22743 4.33493 0
M  V30 10297 H 986.391 3.38658 5.61824 0
M  V30 10298 H 986.308 5.11692 5.56513 0
M  V30 10299 H 987.576 4.34631 6.47083 0
M  V30 10300 N 991.805 -0.723954 1.39988 0
M  V30 10301 C 993.082 -1.4763 1.28316 0
M  V30 10302 C 993.462 -2.10852 -0.102302 0
M  V30 10303 O 992.81 -1.9948 -1.11445 0
M  V30 10304 C 993.02 -2.51878 2.41574 0
M  V30 10305 C 994.368 -3.17948 2.81415 0
M  V30 10306 O 995.392 -2.62195 2.41106 0
M  V30 10307 O 994.251 -4.18858 3.51027 0
M  V30 10308 H 991.345 -0.656092 0.50346 0
M  V30 10309 H 993.891 -0.75684 1.51888 0
M  V30 10310 H 992.663 -2.03618 3.34149 0
M  V30 10311 H 992.286 -3.3137 2.19727 0
M  V30 10312 N 993.283 -1.25346 -0.955304 0
M  V30 10313 C 994.216 -0.999933 -2.05126 0
M  V30 10314 C 995.194 0.070585 -1.62447 0
M  V30 10315 O 996.378 -0.0689306 -1.88374 0
M  V30 10316 C 993.505 -0.511425 -3.34817 0
M  V30 10317 C 992.551 -1.57237 -3.96458 0
M  V30 10318 S 993.384 -3.15736 -4.32517 0
M  V30 10319 C 994.54 -2.68619 -5.65327 0
M  V30 10320 H 994.773 -1.92791 -2.26316 0
M  V30 10321 H 992.306 -1.08869 -1.09485 0
M  V30 10322 H 994.264 -0.236219 -4.0982 0
M  V30 10323 H 992.925 0.39604 -3.11593 0
M  V30 10324 H 992.118 -1.18125 -4.89962 0
M  V30 10325 H 991.72 -1.79822 -3.27933 0
M  V30 10326 H 994.012 -2.12203 -6.4341 0
M  V30 10327 H 994.955 -3.6076 -6.09309 0
M  V30 10328 H 995.363 -2.08638 -5.24529 0
M  V30 10329 N 994.761 1.15782 -1.06922 0
M  V30 10330 C 995.989 1.90355 -0.81072 0
M  V30 10331 C 996.404 1.77779 0.635614 0
M  V30 10332 O 995.761 1.12675 1.43564 0
M  V30 10333 C 995.812 3.4085 -1.2043 0
M  V30 10334 O 995.533 3.53057 -2.59388 0
M  V30 10335 C 997.034 4.32457 -0.974473 0
M  V30 10336 H 994.254 0.60343 -0.293451 0
M  V30 10337 H 996.798 1.46723 -1.42452 0
M  V30 10338 H 994.953 3.82162 -0.634909 0
M  V30 10339 H 995.367 4.46426 -2.75326 0
M  V30 10340 H 996.841 5.36488 -1.29942 0
M  V30 10341 H 997.318 4.39109 0.0894481 0
M  V30 10342 H 997.924 3.96882 -1.52856 0
M  V30 10343 N 996.239 0.8527 1.3254 0
M  V30 10344 C 997.464 0.468157 2.02047 0
M  V30 10345 C 997.889 -0.926967 1.63673 0
M  V30 10346 O 997.247 -1.60855 0.836378 0
M  V30 10347 C 997.295 0.612519 3.5536 0
M  V30 10348 O 996.399 -0.355506 4.10865 0
M  V30 10349 H 995.74 0.188401 0.636711 0
M  V30 10350 H 998.27 1.15135 1.6913 0
M  V30 10351 H 998.28 0.499315 4.04933 0
M  V30 10352 H 996.955 1.62988 3.82632 0
M  V30 10353 H 995.532 -0.198703 3.7237 0
M  V30 10354 N 997.718 -1.45297 0.610449 0
M  V30 10355 C 998.628 -2.34349 -0.108475 0
M  V30 10356 C 999.644 -1.51409 -0.857397 0
M  V30 10357 O 1000.82 -1.84202 -0.814337 0
M  V30 10358 C 997.885 -3.29072 -1.09144 0
M  V30 10359 C 996.946 -4.27918 -0.344165 0
M  V30 10360 C 996.179 -5.18116 -1.28031 0
M  V30 10361 O 996.402 -5.11802 -2.51824 0
M  V30 10362 O 995.336 -5.96879 -0.775821 0
M  V30 10363 H 999.162 -2.97232 0.623421 0
M  V30 10364 H 996.747 -1.44728 0.3707 0
M  V30 10365 H 998.629 -3.87433 -1.65751 0
M  V30 10366 H 997.304 -2.68749 -1.80431 0
M  V30 10367 H 996.211 -3.73164 0.264437 0
M  V30 10368 H 997.544 -4.91104 0.328275 0
M  V30 10369 N 999.196 -0.349774 -1.5367 0
M  V30 10370 C 1000.13 0.538575 -2.22782 0
M  V30 10371 C 1001.14 1.05896 -1.23652 0
M  V30 10372 O 1002.33 0.968045 -1.4997 0
M  V30 10373 C 999.43 1.7546 -2.89943 0
M  V30 10374 C 998.603 1.36843 -4.15443 0
M  V30 10375 C 997.662 2.4448 -4.65957 0
M  V30 10376 O 996.688 2.07528 -5.3002 0
M  V30 10377 N 997.89 3.75829 -4.42417 0
M  V30 10378 H 1000.65 -0.053348 -2.99653 0
M  V30 10379 H 998.216 -0.174193 -1.6096 0
M  V30 10380 H 1000.21 2.46911 -3.20651 0
M  V30 10381 H 998.778 2.25375 -2.16622 0
M  V30 10382 H 997.998 0.484421 -3.91212 0
M  V30 10383 H 999.286 1.0865 -4.97064 0
M  V30 10384 H 998.684 4.08635 -3.91196 0
M  V30 10385 H 997.241 4.43432 -4.77714 0
M  V30 10386 N 1000.67 1.57404 -0.0785433 0
M  V30 10387 C 1001.6 2.16131 0.883726 0
M  V30 10388 C 1002.58 1.09015 1.30575 0
M  V30 10389 O 1003.77 1.3708 1.37559 0
M  V30 10390 C 1000.9 2.72836 2.1489 0
M  V30 10391 C 999.854 3.85178 1.86605 0
M  V30 10392 C 999.18 4.28516 3.1981 0
M  V30 10393 C 1000.48 5.09118 1.16601 0
M  V30 10394 H 1002.17 2.9679 0.394484 0
M  V30 10395 H 999.72 1.42763 0.188304 0
M  V30 10396 H 1001.67 3.12567 2.8263 0
M  V30 10397 H 1000.4 1.89408 2.66068 0
M  V30 10398 H 999.056 3.45962 1.21268 0
M  V30 10399 H 998.704 3.42 3.68843 0
M  V30 10400 H 998.404 5.04249 3.01674 0
M  V30 10401 H 999.928 4.70868 3.88737 0
M  V30 10402 H 1001.34 5.46123 1.74422 0
M  V30 10403 H 999.739 5.90173 1.087 0
M  V30 10404 H 1000.81 4.8468 0.146138 0
M  V30 10405 N 1002.15 -0.195058 1.56388 0
M  V30 10406 C 1003.43 -0.941335 1.71459 0
M  V30 10407 C 1003.81 -2.01375 0.633336 0
M  V30 10408 O 1003.16 -2.25715 -0.35567 0
M  V30 10409 C 1003.37 -1.52772 3.13786 0
M  V30 10410 C 1004.71 -2.00983 3.7402 0
M  V30 10411 O 1005.74 -1.62614 3.16915 0
M  V30 10412 O 1004.6 -2.71586 4.7424 0
M  V30 10413 H 1001.69 -0.441451 0.699321 0
M  V30 10414 H 1004.24 -0.184752 1.68691 0
M  V30 10415 H 1003.01 -0.754699 3.83953 0
M  V30 10416 H 1002.63 -2.34914 3.20782 0
M  V30 10417 N 1003.63 -1.50653 -0.462772 0
M  V30 10418 C 1004.91 -1.5258 -1.22387 0
M  V30 10419 C 1005.29 -0.275263 -2.09298 0
M  V30 10420 O 1004.63 0.740943 -2.16153 0
M  V30 10421 C 1004.84 -2.82611 -2.04773 0
M  V30 10422 C 1006.19 -3.33592 -2.62681 0
M  V30 10423 O 1007.22 -2.83989 -2.15008 0
M  V30 10424 O 1006.08 -4.20081 -3.49563 0
M  V30 10425 H 1003.17 -0.612367 -0.55582 0
M  V30 10426 H 1005.72 -1.62948 -0.473914 0
M  V30 10427 H 1004.49 -3.65098 -1.40781 0
M  V30 10428 H 1004.11 -2.75286 -2.86886 0
M  V30 10429 N 1005.11 0.71652 -1.4037 0
M  V30 10430 C 1006.36 1.47193 -1.37903 0
M  V30 10431 C 1006.67 1.95593 0.0159939 0
M  V30 10432 O 1007.88 2.71009 0.163282 0
M  V30 10433 C 1006.33 2.6606 -2.42363 0
M  V30 10434 C 1005.94 2.24533 -3.87671 0
M  V30 10435 C 1007.68 3.438 -2.49001 0
M  V30 10436 C 1005.59 3.40234 -4.8373 0
M  V30 10437 H 1004.52 0.552811 -0.512753 0
M  V30 10438 H 1007.17 0.779894 -1.66102 0
M  V30 10439 H 1005.55 3.37429 -2.07262 0
M  V30 10440 H 1006.73 1.6059 -4.31911 0
M  V30 10441 H 1005.04 1.59839 -3.845 0
M  V30 10442 H 1007.64 4.29893 -3.17956 0
M  V30 10443 H 1007.98 3.8755 -1.52023 0
M  V30 10444 H 1008.52 2.79474 -2.83088 0
M  V30 10445 H 1005.26 3.01517 -5.82037 0
M  V30 10446 H 1004.78 4.03095 -4.44156 0
M  V30 10447 H 1006.45 4.06312 -5.03507 0
M  V30 10448 N 1006.59 1.25851 0.948643 0
M  V30 10449 C 1007.52 1.09248 2.06367 0
M  V30 10450 C 1008.5 -0.000205168 1.701 0
M  V30 10451 O 1009.68 0.170442 1.93451 0
M  V30 10452 C 1006.81 0.716777 3.39823 0
M  V30 10453 C 1005.77 1.76036 3.90122 0
M  V30 10454 C 1005.09 1.23918 5.20143 0
M  V30 10455 C 1006.39 3.16039 4.15833 0
M  V30 10456 H 1008.09 2.02518 2.20515 0
M  V30 10457 H 1005.63 0.975093 1.05962 0
M  V30 10458 H 1007.59 0.587531 4.17284 0
M  V30 10459 H 1006.31 -0.251626 3.25629 0
M  V30 10460 H 1004.97 1.87815 3.14835 0
M  V30 10461 H 1004.62 0.260836 5.02323 0
M  V30 10462 H 1004.32 1.93673 5.54765 0
M  V30 10463 H 1005.84 1.12245 6.00194 0
M  V30 10464 H 1007.25 3.0738 4.83933 0
M  V30 10465 H 1005.65 3.83317 4.61723 0
M  V30 10466 H 1006.72 3.62652 3.21887 0
M  V30 10467 N 1008.06 -1.15214 1.07534 0
M  V30 10468 C 1009.01 -2.20013 0.697337 0
M  V30 10469 C 1009.98 -1.6314 -0.312168 0
M  V30 10470 O 1011.17 -1.89768 -0.198196 0
M  V30 10471 C 1008.31 -3.44945 0.103293 0
M  V30 10472 C 1007.42 -4.16009 1.1645 0
M  V30 10473 C 1006.55 -5.28496 0.535261 0
M  V30 10474 C 1005.59 -5.9138 1.57912 0
M  V30 10475 N 1004.73 -6.95335 0.972332 0
M  V30 10476 H 1009.57 -2.51698 1.59538 0
M  V30 10477 H 1007.11 -1.2361 0.797431 0
M  V30 10478 H 1009.07 -4.16397 -0.258766 0
M  V30 10479 H 1007.7 -3.13772 -0.758096 0
M  V30 10480 H 1006.75 -3.43035 1.64411 0
M  V30 10481 H 1008.06 -4.58853 1.9559 0
M  V30 10482 H 1007.21 -6.06579 0.120942 0
M  V30 10483 H 1005.95 -4.8685 -0.287889 0
M  V30 10484 H 1004.96 -5.12008 2.0032 0
M  V30 10485 H 1006.18 -6.35103 2.40459 0
M  V30 10486 H 1004.13 -6.55779 0.170119 0
M  V30 10487 H 1004.05 -7.36616 1.70095 0
M  V30 10488 H 1005.31 -7.77312 0.583577 0
M  V30 10489 N 1009.54 -0.859717 -1.32086 0
M  V30 10490 C 1010.77 -0.479028 -2.0097 0
M  V30 10491 C 1011.18 0.930242 -1.64752 0
M  V30 10492 O 1010.52 1.6193 -0.867437 0
M  V30 10493 C 1010.59 -0.54431 -3.55355 0
M  V30 10494 C 1010.25 -1.91337 -4.15017 0
M  V30 10495 C 1011.25 -2.87951 -4.32874 0
M  V30 10496 C 1008.93 -2.21189 -4.50977 0
M  V30 10497 C 1010.93 -4.12567 -4.85867 0
M  V30 10498 C 1008.61 -3.46057 -5.03674 0
M  V30 10499 C 1009.61 -4.41562 -5.21068 0
M  V30 10500 O 1009.3 -5.64218 -5.72637 0
M  V30 10501 H 1009.03 -0.186161 -0.649861 0
M  V30 10502 H 1011.58 -1.15976 -1.69525 0
M  V30 10503 H 1009.81 0.1933 -3.86217 0
M  V30 10504 H 1011.5 -0.178506 -4.05507 0
M  V30 10505 H 1012.27 -2.66194 -4.05421 0
M  V30 10506 H 1008.15 -1.47635 -4.36721 0
M  V30 10507 H 1011.69 -4.8712 -4.99359 0
M  V30 10508 H 1007.59 -3.67662 -5.30561 0
M  V30 10509 H 1008.36 -5.66246 -5.91023 0
M  V30 10510 N 1011.02 1.44971 -0.618145 0
M  V30 10511 C 1011.97 2.27704 0.116119 0
M  V30 10512 C 1012.95 1.37927 0.828558 0
M  V30 10513 O 1014.15 1.61836 0.716806 0
M  V30 10514 C 1011.28 3.25004 1.10578 0
M  V30 10515 C 1010.36 4.22269 0.39364 0
M  V30 10516 N 1010.75 5.02571 -0.570581 0
M  V30 10517 C 1009.05 4.41387 0.639809 0
M  V30 10518 C 1009.75 5.73211 -0.990144 0
M  V30 10519 N 1008.73 5.42587 -0.331653 0
M  V30 10520 H 1012.53 2.87193 -0.624295 0
M  V30 10521 H 1010.04 1.56252 -0.442631 0
M  V30 10522 H 1012.04 3.83017 1.64631 0
M  V30 10523 H 1010.7 2.67075 1.84664 0
M  V30 10524 H 1011.71 5.09153 -0.947814 0
M  V30 10525 H 1008.39 3.94572 1.36453 0
M  V30 10526 H 1009.78 6.47728 -1.78601 0
M  V30 10527 N 1012.5 0.357919 1.53482 0
M  V30 10528 C 1013.73 -0.23514 2.05559 0
M  V30 10529 C 1014.14 -1.43068 1.23195 0
M  V30 10530 O 1013.5 -1.80481 0.270741 0
M  V30 10531 C 1013.55 -0.636147 3.55859 0
M  V30 10532 O 1013.27 0.511864 4.35099 0
M  V30 10533 C 1014.77 -1.28841 4.24164 0
M  V30 10534 H 1011.99 -0.0428446 0.669631 0
M  V30 10535 H 1014.54 0.51407 1.97933 0
M  V30 10536 H 1012.69 -1.33528 3.63661 0
M  V30 10537 H 1013.1 0.189328 5.24158 0
M  V30 10538 H 1014.58 -1.51962 5.30671 0
M  V30 10539 H 1015.06 -2.24638 3.77405 0
M  V30 10540 H 1015.66 -0.630914 4.20594 0
M  V30 10541 N 1013.98 -1.5736 0.0868897 0
M  V30 10542 C 1014.89 -2.17087 -0.889402 0
M  V30 10543 C 1015.9 -1.13809 -1.31619 0
M  V30 10544 O 1017.08 -1.46143 -1.38579 0
M  V30 10545 C 1014.14 -2.73286 -2.13344 0
M  V30 10546 C 1013.2 -3.91491 -1.76164 0
M  V30 10547 C 1012.44 -4.45 -2.94637 0
M  V30 10548 O 1012.66 -3.97467 -4.09116 0
M  V30 10549 O 1011.59 -5.36133 -2.73579 0
M  V30 10550 H 1015.42 -3.00902 -0.411275 0
M  V30 10551 H 1013.01 -1.4877 -0.137015 0
M  V30 10552 H 1014.89 -3.0924 -2.86266 0
M  V30 10553 H 1013.56 -1.92521 -2.60225 0
M  V30 10554 H 1012.47 -3.60363 -1.00447 0
M  V30 10555 H 1013.8 -4.73593 -1.34053 0
M  V30 10556 N 1015.45 0.186762 -1.56489 0
M  V30 10557 C 1016.7 0.904077 -1.80303 0
M  V30 10558 C 1017.02 1.84073 -0.661538 0
M  V30 10559 O 1018.22 2.59928 -0.784197 0
M  V30 10560 C 1016.68 1.65806 -3.19432 0
M  V30 10561 C 1016.29 0.765807 -4.41406 0
M  V30 10562 C 1018.03 2.36451 -3.52549 0
M  V30 10563 C 1015.94 1.51913 -5.71556 0
M  V30 10564 H 1014.87 0.34133 -0.672317 0
M  V30 10565 H 1017.52 0.157218 -1.82825 0
M  V30 10566 H 1015.9 2.44911 -3.11183 0
M  V30 10567 H 1017.07 0.0128225 -4.60798 0
M  V30 10568 H 1015.39 0.169772 -4.16054 0
M  V30 10569 H 1017.99 2.93378 -4.47027 0
M  V30 10570 H 1018.33 3.11044 -2.7669 0
M  V30 10571 H 1018.86 1.64305 -3.62283 0
M  V30 10572 H 1015.6 0.815829 -6.50403 0
M  V30 10573 H 1015.12 2.24583 -5.56168 0
M  V30 10574 H 1016.8 2.07073 -6.12968 0
M  V30 10575 N 1016.93 1.50896 0.454776 0
M  V30 10576 C 1018.18 1.6294 1.20741 0
M  V30 10577 C 1018.51 0.336339 1.91265 0
M  V30 10578 O 1017.79 -0.663153 1.82846 0
M  V30 10579 C 1018.07 2.82092 2.23822 0
M  V30 10580 C 1017.92 4.21326 1.57495 0
M  V30 10581 C 1019.24 2.96777 3.24979 0
M  V30 10582 H 1016.36 0.59302 0.437603 0
M  V30 10583 H 1019 1.83331 0.498959 0
M  V30 10584 H 1017.15 2.64837 2.84243 0
M  V30 10585 H 1018.82 4.50209 1.00546 0
M  V30 10586 H 1017.07 4.24829 0.877664 0
M  V30 10587 H 1017.74 5.00656 2.32482 0
M  V30 10588 H 1020.21 3.12627 2.74597 0
M  V30 10589 H 1019.09 3.81742 3.94416 0
M  V30 10590 H 1019.35 2.08091 3.90065 0
M  V30 10591 N 1018.41 -0.709066 1.40748 0
M  V30 10592 C 1019.66 -1.46901 1.39378 0
M  V30 10593 C 1019.99 -1.945 -0.0016993 0
M  V30 10594 O 1019.24 -1.68963 -0.987426 0
M  V30 10595 C 1019.54 -2.70543 2.33541 0
M  V30 10596 C 1019.21 -2.41674 3.80663 0
M  V30 10597 C 1017.87 -2.33511 4.20745 0
M  V30 10598 C 1020.22 -2.1759 4.73607 0
M  V30 10599 C 1017.55 -1.99342 5.51797 0
M  V30 10600 C 1019.9 -1.84933 6.04965 0
M  V30 10601 C 1018.56 -1.75256 6.44082 0
M  V30 10602 H 1017.83 -0.537549 0.510021 0
M  V30 10603 H 1020.48 -0.811635 1.7345 0
M  V30 10604 H 1018.79 -3.41149 1.92677 0
M  V30 10605 H 1020.48 -3.2865 2.29761 0
M  V30 10606 H 1017.07 -2.48917 3.4891 0
M  V30 10607 H 1021.26 -2.22849 4.43454 0
M  V30 10608 H 1016.51 -1.90392 5.81 0
M  V30 10609 H 1020.69 -1.65313 6.76494 0
M  V30 10610 H 1018.31 -1.48547 7.45545 0
M  V30 10611 N 1019.89 -1.26353 -0.941956 0
M  V30 10612 C 1020.85 -1.07904 -2.02211 0
M  V30 10613 C 1021.85 -0.0276283 -1.60776 0
M  V30 10614 O 1023.04 -0.270965 -1.7208 0
M  V30 10615 C 1020.17 -0.641084 -3.34818 0
M  V30 10616 H 1021.37 -2.03804 -2.20009 0
M  V30 10617 H 1018.92 -1.08939 -1.12081 0
M  V30 10618 H 1019.66 0.319943 -3.22718 0
M  V30 10619 H 1019.44 -1.40027 -3.66244 0
M  V30 10620 H 1020.93 -0.533826 -4.14174 0
M  V30 10621 N 1021.37 1.14642 -1.08144 0
M  V30 10622 C 1022.78 1.37604 -0.808537 0
M  V30 10623 C 1022.98 1.92868 0.583452 0
M  V30 10624 O 1022.04 2.13964 1.34073 0
M  V30 10625 C 1023.35 2.3396 -1.889 0
M  V30 10626 C 1024.9 2.47605 -1.9147 0
M  V30 10627 C 1025.38 3.47258 -2.98623 0
M  V30 10628 N 1026.87 3.548 -2.97777 0
M  V30 10629 C 1027.6 4.31751 -3.77331 0
M  V30 10630 N 1027.1 5.11966 -4.66757 0
M  V30 10631 N 1028.89 4.2692 -3.65645 0
M  V30 10632 H 1021.04 0.771154 -1.97906 0
M  V30 10633 H 1023.3 0.401694 -0.858688 0
M  V30 10634 H 1023.01 2.00484 -2.88962 0
M  V30 10635 H 1022.88 3.33833 -1.756 0
M  V30 10636 H 1025.27 2.80375 -0.920548 0
M  V30 10637 H 1025.35 1.47702 -2.08848 0
M  V30 10638 H 1025 3.15223 -3.98243 0
M  V30 10639 H 1024.93 4.46935 -2.7849 0
M  V30 10640 H 1027.42 2.97553 -2.3296 0
M  V30 10641 H 1027.73 5.67951 -5.24072 0
M  V30 10642 H 1026.08 5.11245 -4.70801 0
M  V30 10643 H 1029.27 3.63322 -2.95152 0
M  V30 10644 H 1029.44 4.8664 -4.27885 0
M  V30 10645 N 1022.85 0.866709 1.31628 0
M  V30 10646 C 1024.07 0.49039 2.01004 0
M  V30 10647 C 1024.49 -0.916244 1.65077 0
M  V30 10648 O 1023.85 -1.59975 0.8783 0
M  V30 10649 C 1023.9 0.634011 3.55897 0
M  V30 10650 O 1023.62 1.98525 3.90537 0
M  V30 10651 C 1025.12 0.258277 4.42547 0
M  V30 10652 H 1022.34 0.191421 0.643117 0
M  V30 10653 H 1024.88 1.16698 1.67934 0
M  V30 10654 H 1023.04 0.00501801 3.874 0
M  V30 10655 H 1023.45 1.99067 4.85255 0
M  V30 10656 H 1024.93 0.409733 5.50477 0
M  V30 10657 H 1025.4 -0.802301 4.3181 0
M  V30 10658 H 1026.01 0.862837 4.16456 0
M  V30 10659 N 1024.32 -1.44642 0.625825 0
M  V30 10660 C 1025.55 -2.06971 0.133373 0
M  V30 10661 C 1025.97 -1.46421 -1.18078 0
M  V30 10662 O 1025.33 -0.563676 -1.72315 0
M  V30 10663 C 1025.38 -3.6059 0.0265097 0
M  V30 10664 O 1024.48 -3.99615 -1.01889 0
M  V30 10665 H 1023.82 -0.658873 0.0823568 0
M  V30 10666 H 1026.35 -1.85601 0.861002 0
M  V30 10667 H 1026.36 -4.07663 -0.1658 0
M  V30 10668 H 1025.04 -4.04043 0.985986 0
M  V30 10669 H 1023.62 -3.64183 -0.801577 0
M  V30 10670 N 1025.8 -0.366053 -1.5329 0
M  V30 10671 C 1027.21 0.113056 -1.86357 0
M  V30 10672 C 1027.56 1.48123 -1.28662 0
M  V30 10673 O 1026.69 2.07658 -0.608849 0
M  V30 10674 C 1027.28 0.211923 -3.38137 0
M  V30 10675 C 1025.84 0.635289 -3.71 0
M  V30 10676 C 1024.99 -0.217203 -2.76448 0
M  V30 10677 H 1027.94 -0.584829 -1.47531 0
M  V30 10678 H 1027.96 1.0354 -3.66142 0
M  V30 10679 H 1027.47 -0.783994 -3.80099 0
M  V30 10680 H 1025.57 1.63942 -3.34595 0
M  V30 10681 H 1025.69 0.409571 -4.77346 0
M  V30 10682 H 1024.05 0.313988 -2.52757 0
M  V30 10683 H 1024.83 -1.21067 -3.21244 0
M  V30 10684 N 1027.28 1.57312 -0.0952337 0
M  V30 10685 C 1028.21 2.11059 0.893678 0
M  V30 10686 C 1029.22 1.04787 1.24594 0
M  V30 10687 O 1030.41 1.32233 1.19903 0
M  V30 10688 C 1027.51 2.57552 2.20272 0
M  V30 10689 C 1026.69 3.87661 2.02578 0
M  V30 10690 C 1025.75 4.2 3.16996 0
M  V30 10691 O 1024.77 4.89219 2.90953 0
M  V30 10692 N 1025.97 3.75414 4.42769 0
M  V30 10693 H 1028.74 2.96532 0.434632 0
M  V30 10694 H 1026.3 1.6165 0.0898661 0
M  V30 10695 H 1028.29 2.76232 2.95766 0
M  V30 10696 H 1026.86 1.7709 2.576 0
M  V30 10697 H 1026.08 3.78128 1.11413 0
M  V30 10698 H 1027.37 4.7278 1.88032 0
M  V30 10699 H 1026.77 3.1954 4.66809 0
M  V30 10700 H 1025.32 3.99249 5.15212 0
M  V30 10701 N 1028.76 -0.17846 1.56586 0
M  V30 10702 C 1029.69 -1.24547 1.92408 0
M  V30 10703 C 1030.7 -1.40849 0.816421 0
M  V30 10704 O 1031.89 -1.40979 1.09486 0
M  V30 10705 C 1028.99 -2.61523 2.15544 0
M  V30 10706 C 1028.16 -2.66613 3.46751 0
M  V30 10707 C 1027.22 -3.84901 3.588 0
M  V30 10708 O 1026.25 -3.71231 4.31482 0
M  V30 10709 N 1027.45 -5.0106 2.9312 0
M  V30 10710 H 1030.22 -0.941275 2.84535 0
M  V30 10711 H 1027.78 -0.368275 1.57656 0
M  V30 10712 H 1029.77 -3.3911 2.20876 0
M  V30 10713 H 1028.34 -2.84362 1.29835 0
M  V30 10714 H 1027.56 -1.75174 3.5314 0
M  V30 10715 H 1028.85 -2.67018 4.33104 0
M  V30 10716 H 1028.25 -5.15067 2.33928 0
M  V30 10717 H 1026.8 -5.76535 3.04057 0
M  V30 10718 N 1030.24 -1.51135 -0.446768 0
M  V30 10719 C 1031.18 -1.71767 -1.54158 0
M  V30 10720 C 1032.15 -0.559201 -1.56404 0
M  V30 10721 O 1033.34 -0.792567 -1.7356 0
M  V30 10722 C 1030.48 -1.84006 -2.91952 0
M  V30 10723 C 1029.59 -3.11511 -2.99308 0
M  V30 10724 C 1028.73 -3.144 -4.28166 0
M  V30 10725 C 1027.76 -4.36258 -4.29355 0
M  V30 10726 N 1026.9 -4.3675 -5.49722 0
M  V30 10727 H 1031.74 -2.65224 -1.35869 0
M  V30 10728 H 1029.28 -1.31453 -0.660186 0
M  V30 10729 H 1031.24 -1.89083 -3.71892 0
M  V30 10730 H 1029.87 -0.939661 -3.08821 0
M  V30 10731 H 1028.92 -3.15788 -2.12089 0
M  V30 10732 H 1030.23 -4.01445 -2.96047 0
M  V30 10733 H 1029.38 -3.18341 -5.16473 0
M  V30 10734 H 1028.12 -2.22338 -4.3407 0
M  V30 10735 H 1027.13 -4.32503 -3.39442 0
M  V30 10736 H 1028.35 -5.29574 -4.25122 0
M  V30 10737 H 1026.3 -3.47554 -5.56365 0
M  V30 10738 H 1026.22 -5.20481 -5.48302 0
M  V30 10739 H 1027.48 -4.4487 -6.40086 0
M  V30 10740 N 1031.71 0.701592 -1.41122 0
M  V30 10741 C 1032.64 1.82815 -1.45262 0
M  V30 10742 C 1033.62 1.67215 -0.311939 0
M  V30 10743 O 1034.81 1.87038 -0.522538 0
M  V30 10744 C 1031.94 3.20899 -1.32819 0
M  V30 10745 C 1030.89 3.51194 -2.44636 0
M  V30 10746 C 1030.22 4.8857 -2.17263 0
M  V30 10747 C 1031.52 3.50777 -3.86979 0
M  V30 10748 H 1033.21 1.79608 -2.39544 0
M  V30 10749 H 1030.76 0.862693 -1.15298 0
M  V30 10750 H 1032.71 3.99417 -1.34329 0
M  V30 10751 H 1031.44 3.24717 -0.350191 0
M  V30 10752 H 1030.1 2.75024 -2.42399 0
M  V30 10753 H 1029.74 4.89007 -1.17819 0
M  V30 10754 H 1029.44 5.09805 -2.92186 0
M  V30 10755 H 1030.97 5.69405 -2.20478 0
M  V30 10756 H 1032.38 4.19309 -3.90964 0
M  V30 10757 H 1030.78 3.83542 -4.61536 0
M  V30 10758 H 1031.85 2.49873 -4.15562 0
M  V30 10759 N 1033.19 1.2685 0.935242 0
M  V30 10760 C 1034.44 1.12132 1.67658 0
M  V30 10761 C 1034.75 -0.333839 1.9273 0
M  V30 10762 O 1035.96 -0.601801 2.64746 0
M  V30 10763 C 1034.42 1.95873 3.0193 0
M  V30 10764 C 1034.02 3.46 2.84584 0
M  V30 10765 C 1035.77 1.89781 3.79715 0
M  V30 10766 C 1033.67 4.21966 4.14365 0
M  V30 10767 H 1032.6 0.416035 0.628833 0
M  V30 10768 H 1035.26 1.51209 1.03962 0
M  V30 10769 H 1033.64 1.49633 3.66641 0
M  V30 10770 H 1034.81 4.00049 2.28687 0
M  V30 10771 H 1033.13 3.53391 2.20236 0
M  V30 10772 H 1035.72 2.43819 4.75875 0
M  V30 10773 H 1036.07 0.869797 4.07112 0
M  V30 10774 H 1036.6 2.33875 3.21788 0
M  V30 10775 H 1033.34 5.2526 3.9215 0
M  V30 10776 H 1032.86 3.72696 4.69955 0
M  V30 10777 H 1034.54 4.30734 4.82781 0
M  V30 10778 N 1034.67 -1.14067 1.0875 0
M  V30 10779 C 1035.92 -1.84535 0.814235 0
M  V30 10780 C 1036.23 -1.84044 -0.662355 0
M  V30 10781 O 1037.44 -2.50336 -1.05091 0
M  V30 10782 C 1035.89 -3.31273 1.40663 0
M  V30 10783 C 1035.5 -3.40171 2.91526 0
M  V30 10784 C 1037.25 -4.0683 1.21201 0
M  V30 10785 C 1035.15 -4.81141 3.43885 0
M  V30 10786 H 1034.08 -0.691346 0.300926 0
M  V30 10787 H 1036.73 -1.28562 1.30935 0
M  V30 10788 H 1035.12 -3.87005 0.839215 0
M  V30 10789 H 1036.29 -2.94471 3.54434 0
M  V30 10790 H 1034.61 -2.78073 3.09942 0
M  V30 10791 H 1037.2 -5.10891 1.57781 0
M  V30 10792 H 1037.55 -4.16022 0.152092 0
M  V30 10793 H 1038.08 -3.57408 1.74655 0
M  V30 10794 H 1034.82 -4.77138 4.49466 0
M  V30 10795 H 1034.34 -5.27365 2.85738 0
M  V30 10796 H 1036.02 -5.50042 3.40681 0
M  V30 10797 N 1036.15 -0.873678 -1.31166 0
M  V30 10798 C 1037.39 -0.487178 -1.96861 0
M  V30 10799 C 1037.73 0.95887 -1.68877 0
M  V30 10800 O 1037 1.6758 -0.987279 0
M  V30 10801 C 1037.29 -0.74925 -3.52219 0
M  V30 10802 C 1037.14 -2.2451 -3.89763 0
M  V30 10803 C 1038.46 -0.218194 -4.39559 0
M  V30 10804 H 1035.58 -0.178477 -0.715063 0
M  V30 10805 H 1038.22 -1.0956 -1.55231 0
M  V30 10806 H 1036.37 -0.231403 -3.8781 0
M  V30 10807 H 1038.04 -2.83049 -3.64254 0
M  V30 10808 H 1036.28 -2.71621 -3.38237 0
M  V30 10809 H 1036.95 -2.37911 -4.98099 0
M  V30 10810 H 1039.43 -0.661274 -4.10812 0
M  V30 10811 H 1038.31 -0.430983 -5.47205 0
M  V30 10812 H 1038.57 0.880056 -4.33252 0
M  V30 10813 N 1037.63 1.44308 -0.633487 0
M  V30 10814 C 1038.54 2.34492 0.0711787 0
M  V30 10815 C 1039.55 1.52754 0.8332 0
M  V30 10816 O 1040.73 1.85475 0.784929 0
M  V30 10817 C 1037.79 3.30767 1.03895 0
M  V30 10818 C 1036.85 4.28412 0.276043 0
M  V30 10819 C 1036.09 5.20087 1.19772 0
M  V30 10820 O 1036.31 5.15743 2.4365 0
M  V30 10821 O 1035.24 5.98038 0.680764 0
M  V30 10822 H 1039.07 2.96203 -0.67063 0
M  V30 10823 H 1036.66 1.4412 -0.393678 0
M  V30 10824 H 1038.54 3.90021 1.59566 0
M  V30 10825 H 1037.21 2.71586 1.76133 0
M  V30 10826 H 1036.12 3.72696 -0.32377 0
M  V30 10827 H 1037.45 4.9052 -0.406364 0
M  V30 10828 N 1039.1 0.374177 1.53094 0
M  V30 10829 C 1040.35 -0.212396 2.00981 0
M  V30 10830 C 1040.67 -1.48576 1.26293 0
M  V30 10831 O 1039.94 -1.92206 0.378642 0
M  V30 10832 H 1038.52 -0.0814763 0.742543 0
M  V30 10833 H 1041.19 0.502389 1.88314 0
M  V30 10834 H 1040.28 -0.433316 3.09077 0
M  V30 10835 N 1040.58 -1.57259 0.103575 0
M  V30 10836 C 1041.82 -1.96539 -0.561398 0
M  V30 10837 C 1042.19 -0.984775 -1.64822 0
M  V30 10838 O 1043.39 -1.26638 -2.371 0
M  V30 10839 C 1041.66 -3.40229 -1.09447 0
M  V30 10840 S 1043.22 -4.01512 -1.77013 0
M  V30 10841 H 1040.04 -0.687061 -0.182944 0
M  V30 10842 H 1042.64 -1.94623 0.184993 0
M  V30 10843 H 1041.34 -4.09359 -0.292091 0
M  V30 10844 H 1040.87 -3.45762 -1.8765 0
M  V30 10845 H 1042.89 -3.91009 -3.05494 0
M  V30 10846 N 1042.06 0.170153 -1.56679 0
M  V30 10847 C 1042.99 1.23525 -1.93066 0
M  V30 10848 C 1044.01 1.40414 -0.823879 0
M  V30 10849 O 1045.19 1.40396 -1.10232 0
M  V30 10850 C 1042.29 2.60376 -2.16928 0
M  V30 10851 C 1041.47 2.6477 -3.4816 0
M  V30 10852 C 1040.53 3.82993 -3.60837 0
M  V30 10853 O 1039.55 3.68937 -4.33444 0
M  V30 10854 N 1040.75 4.99498 -2.95773 0
M  V30 10855 H 1043.52 0.926172 -2.8503 0
M  V30 10856 H 1041.08 0.359909 -1.57849 0
M  V30 10857 H 1043.07 3.37934 -2.22672 0
M  V30 10858 H 1041.64 2.83669 -1.31342 0
M  V30 10859 H 1040.86 1.73298 -3.54064 0
M  V30 10860 H 1042.15 2.64717 -4.34514 0
M  V30 10861 H 1041.55 5.13819 -2.36657 0
M  V30 10862 H 1040.11 5.74914 -3.07111 0
M  V30 10863 N 1043.54 1.5137 0.438746 0
M  V30 10864 C 1044.95 1.39514 0.775116 0
M  V30 10865 C 1045.15 0.47638 1.95788 0
M  V30 10866 O 1044.21 -0.0689832 2.52406 0
M  V30 10867 C 1045.52 2.81517 1.05681 0
M  V30 10868 C 1047.07 2.90658 1.16133 0
M  V30 10869 C 1047.55 4.33566 1.47597 0
M  V30 10870 N 1049.04 4.36665 1.54524 0
M  V30 10871 C 1049.77 5.4427 1.80438 0
M  V30 10872 N 1049.27 6.62037 2.04154 0
M  V30 10873 N 1051.06 5.31749 1.82208 0
M  V30 10874 H 1043.21 2.09657 -0.340237 0
M  V30 10875 H 1045.48 0.943736 -0.0898115 0
M  V30 10876 H 1045.18 3.50734 0.260441 0
M  V30 10877 H 1045.06 3.20757 1.98481 0
M  V30 10878 H 1047.44 2.2164 1.94833 0
M  V30 10879 H 1047.52 2.54917 0.212376 0
M  V30 10880 H 1047.17 5.03133 0.694251 0
M  V30 10881 H 1047.1 4.66819 2.43696 0
M  V30 10882 H 1049.59 3.51761 1.38105 0
M  V30 10883 H 1049.9 7.39838 2.23293 0
M  V30 10884 H 1048.25 6.65155 2.01479 0
M  V30 10885 H 1051.44 4.3873 1.63198 0
M  V30 10886 H 1051.61 6.15689 2.02067 0
M  V30 10887 N 1045.02 -0.694098 1.41492 0
M  V30 10888 C 1045.95 -1.81943 1.39389 0
M  V30 10889 C 1046.96 -1.6009 0.295836 0
M  V30 10890 O 1048.15 -1.69565 0.557658 0
M  V30 10891 C 1045.25 -3.18731 1.15167 0
M  V30 10892 C 1044.42 -3.67601 2.37041 0
M  V30 10893 C 1043.48 -4.83063 2.08654 0
M  V30 10894 O 1042.51 -4.94603 2.81704 0
M  V30 10895 N 1043.71 -5.70409 1.0777 0
M  V30 10896 H 1046.48 -1.84239 2.36381 0
M  V30 10897 H 1044.04 -0.876475 1.36123 0
M  V30 10898 H 1046.03 -3.93602 0.941264 0
M  V30 10899 H 1044.6 -3.11452 0.267673 0
M  V30 10900 H 1043.82 -2.83622 2.73774 0
M  V30 10901 H 1045.11 -3.96991 3.18239 0
M  V30 10902 H 1044.5 -5.63718 0.473123 0
M  V30 10903 H 1043.06 -6.45172 0.927177 0
M  V30 10904 N 1046.49 -1.27344 -0.928501 0
M  V30 10905 C 1047.74 -1.13411 -1.67279 0
M  V30 10906 C 1048.06 0.320698 -1.92345 0
M  V30 10907 O 1047.33 1.2245 -1.52915 0
M  V30 10908 H 1045.91 -0.416712 -0.619968 0
M  V30 10909 H 1048.58 -1.5986 -1.11493 0
M  V30 10910 H 1047.67 -1.66256 -2.64131 0
M  V30 10911 N 1047.97 1.13488 -1.09353 0
M  V30 10912 C 1048.94 2.17066 -0.735863 0
M  V30 10913 C 1049.94 1.59086 0.234181 0
M  V30 10914 O 1051.13 1.74196 0.012463 0
M  V30 10915 C 1048.26 3.40786 -0.0880975 0
M  V30 10916 H 1049.45 2.50221 -1.65316 0
M  V30 10917 H 1047 1.28304 -0.89263 0
M  V30 10918 H 1047.74 3.1322 0.840462 0
M  V30 10919 H 1047.52 3.8414 -0.786073 0
M  V30 10920 H 1049.01 4.17342 0.146775 0
M  V30 10921 N 1049.45 0.880621 1.30701 0
M  V30 10922 C 1050.7 0.492957 1.95583 0
M  V30 10923 C 1051.01 -0.961863 1.70316 0
M  V30 10924 O 1052.22 -1.45617 2.29146 0
M  V30 10925 C 1050.68 0.830656 3.50183 0
M  V30 10926 C 1050.28 2.30295 3.84276 0
M  V30 10927 C 1052.03 0.511979 4.21401 0
M  V30 10928 C 1049.93 2.58251 5.32034 0
M  V30 10929 H 1048.86 0.18062 0.732047 0
M  V30 10930 H 1051.52 1.075 1.48715 0
M  V30 10931 H 1049.9 0.177752 3.95601 0
M  V30 10932 H 1051.07 2.99981 3.49783 0
M  V30 10933 H 1049.39 2.58873 3.2615 0
M  V30 10934 H 1051.98 0.697935 5.30125 0
M  V30 10935 H 1052.33 -0.548327 4.12673 0
M  V30 10936 H 1052.86 1.12189 3.81652 0
M  V30 10937 H 1049.6 3.63005 5.45809 0
M  V30 10938 H 1049.12 1.9317 5.67843 0
M  V30 10939 H 1050.8 2.43527 5.99419 0
M  V30 10940 N 1050.93 -1.4397 0.641131 0
M  V30 10941 C 1052.18 -2.02246 0.14985 0
M  V30 10942 C 1052.51 -1.50387 -1.22871 0
M  V30 10943 O 1051.78 -0.692003 -1.81773 0
M  V30 10944 C 1052.07 -3.59798 0.147449 0
M  V30 10945 C 1051.92 -4.21916 1.55907 0
M  V30 10946 C 1053.24 -4.36985 -0.522667 0
M  V30 10947 H 1050.36 -0.734875 0.0559274 0
M  V30 10948 H 1053 -1.71418 0.819513 0
M  V30 10949 H 1051.15 -3.86193 -0.422789 0
M  V30 10950 H 1052.82 -4.06594 2.17896 0
M  V30 10951 H 1051.06 -3.79028 2.10998 0
M  V30 10952 H 1051.74 -5.30964 1.50934 0
M  V30 10953 H 1054.21 -4.16083 -0.0376226 0
M  V30 10954 H 1053.09 -5.46676 -0.493572 0
M  V30 10955 H 1053.35 -4.12335 -1.59475 0
M  V30 10956 N 1052.41 -0.382291 -1.52893 0
M  V30 10957 C 1053.37 0.44408 -2.24857 0
M  V30 10958 C 1054.37 0.996004 -1.26239 0
M  V30 10959 O 1055.56 0.879114 -1.5039 0
M  V30 10960 C 1052.69 1.62234 -2.99822 0
M  V30 10961 H 1053.89 -0.185862 -2.99324 0
M  V30 10962 H 1051.44 -0.134275 -1.55722 0
M  V30 10963 H 1052.17 2.28991 -2.29638 0
M  V30 10964 H 1051.96 1.23336 -3.72197 0
M  V30 10965 H 1053.45 2.20756 -3.54481 0
M  V30 10966 N 1053.89 1.57202 -0.111913 0
M  V30 10967 C 1055.13 1.95239 0.548607 0
M  V30 10968 C 1055.46 0.994897 1.6678 0
M  V30 10969 O 1054.74 0.0308603 1.94476 0
M  V30 10970 C 1055.02 3.43271 1.08798 0
M  V30 10971 C 1054.88 4.49792 -0.0273064 0
M  V30 10972 C 1056.19 3.92989 1.98109 0
M  V30 10973 H 1053.31 0.709919 0.197951 0
M  V30 10974 H 1055.96 1.89087 -0.186036 0
M  V30 10975 H 1054.11 3.48644 1.71404 0
M  V30 10976 H 1055.78 4.56521 -0.662302 0
M  V30 10977 H 1054.02 4.28254 -0.691426 0
M  V30 10978 H 1054.69 5.50612 0.391201 0
M  V30 10979 H 1057.17 3.89875 1.45385 0
M  V30 10980 H 1056.04 4.97101 2.32769 0
M  V30 10981 H 1056.3 3.33267 2.90492 0
M  V30 10982 N 1055.36 -0.161842 1.56767 0
M  V30 10983 C 1056.59 -0.892247 1.86672 0
M  V30 10984 C 1057.01 -1.75407 0.69841 0
M  V30 10985 O 1056.36 -1.7945 -0.332251 0
M  V30 10986 C 1056.41 -1.7612 3.15696 0
M  V30 10987 O 1056.14 -0.934131 4.28025 0
M  V30 10988 C 1057.64 -2.60046 3.59014 0
M  V30 10989 H 1054.86 -0.258747 0.619105 0
M  V30 10990 H 1057.4 -0.159089 2.0388 0
M  V30 10991 H 1055.56 -2.44759 3.00286 0
M  V30 10992 H 1055.97 -1.52931 5.01709 0
M  V30 10993 H 1057.44 -3.16618 4.5217 0
M  V30 10994 H 1057.92 -3.35374 2.83586 0
M  V30 10995 H 1058.53 -1.96724 3.77067 0
M  V30 10996 N 1056.84 -1.516 -0.430713 0
M  V30 10997 C 1058.09 -1.64271 -1.17726 0
M  V30 10998 C 1058.41 -0.364406 -1.91565 0
M  V30 10999 O 1057.68 0.619991 -1.8583 0
M  V30 11000 H 1056.26 -0.605432 -0.437562 0
M  V30 11001 H 1058.92 -1.88557 -0.493166 0
M  V30 11002 H 1058.02 -2.47355 -1.90321 0
M  V30 11003 N 1058.32 0.686584 -1.41858 0
M  V30 11004 C 1059.6 1.44176 -1.32185 0
M  V30 11005 C 1059.98 2.11049 0.046362 0
M  V30 11006 O 1059.32 2.02365 1.06117 0
M  V30 11007 C 1059.53 2.45385 -2.48168 0
M  V30 11008 C 1060.88 3.10375 -2.89746 0
M  V30 11009 O 1061.91 2.55711 -2.47973 0
M  V30 11010 O 1060.77 4.09404 -3.62009 0
M  V30 11011 H 1057.86 0.642513 -0.520678 0
M  V30 11012 H 1060.41 0.716303 -1.53841 0
M  V30 11013 H 1059.18 1.94687 -3.3943 0
M  V30 11014 H 1058.8 3.25428 -2.28435 0
M  V30 11015 N 1059.8 1.27835 0.921735 0
M  V30 11016 C 1061.05 1.14296 1.66676 0
M  V30 11017 C 1061.37 -0.310493 1.92512 0
M  V30 11018 O 1060.64 -1.21637 1.53562 0
M  V30 11019 H 1059.22 0.419994 0.617749 0
M  V30 11020 H 1061.88 1.60449 1.10644 0
M  V30 11021 H 1060.97 1.67654 2.63246 0
M  V30 11022 N 1061.28 -1.12907 1.09954 0
M  V30 11023 C 1062.52 -1.84579 0.840155 0
M  V30 11024 C 1062.85 -1.83605 -0.632692 0
M  V30 11025 O 1062.13 -1.27803 -1.46617 0
M  V30 11026 C 1062.41 -3.32489 1.38286 0
M  V30 11027 C 1062.27 -3.41946 2.92221 0
M  V30 11028 C 1063.58 -4.28091 1.0211 0
M  V30 11029 H 1060.7 -0.670169 0.306663 0
M  V30 11030 H 1063.35 -1.3249 1.36185 0
M  V30 11031 H 1061.5 -3.76978 0.939123 0
M  V30 11032 H 1063.17 -3.06128 3.45085 0
M  V30 11033 H 1061.41 -2.8265 3.29077 0
M  V30 11034 H 1062.08 -4.45983 3.25274 0
M  V30 11035 H 1064.56 -3.91701 1.4039 0
M  V30 11036 H 1063.43 -5.30005 1.42781 0
M  V30 11037 H 1063.69 -4.42044 -0.0700753 0
M  V30 11038 N 1062.75 -0.88754 -1.30232 0
M  V30 11039 C 1063.7 -0.345765 -2.30016 0
M  V30 11040 C 1064.7 0.5486 -1.60271 0
M  V30 11041 O 1065.9 0.43275 -1.74721 0
M  V30 11042 H 1062.28 -0.0931623 -0.746207 0
M  V30 11043 H 1064.25 -1.20095 -2.73166 0
M  V30 11044 C 1063 0.422435 -3.45124 0
M  V30 11045 H 1062.32 -0.256516 -3.98976 0
M  V30 11046 H 1063.76 0.766572 -4.17013 0
M  V30 11047 C 1062.22 1.62049 -2.95367 0
M  V30 11048 O 1062.75 2.71985 -2.95613 0
M  V30 11049 N 1060.95 1.45852 -2.51347 0
M  V30 11050 H 1060.5 0.564158 -2.51346 0
M  V30 11051 H 1060.46 2.26148 -2.18413 0
M  V30 11052 N 1064.23 1.43628 -0.648757 0
M  V30 11053 C 1065.51 1.95391 -0.0904551 0
M  V30 11054 C 1065.89 1.59021 1.38837 0
M  V30 11055 O 1065.24 0.873078 2.11163 0
M  V30 11056 C 1065.45 3.47418 -0.33196 0
M  V30 11057 C 1066.8 4.23952 -0.234521 0
M  V30 11058 O 1067.82 3.55218 -0.264276 0
M  V30 11059 O 1066.68 5.46282 -0.154428 0
M  V30 11060 H 1063.77 0.82691 0.0121884 0
M  V30 11061 H 1066.32 1.5359 -0.721685 0
M  V30 11062 H 1065.09 3.67001 -1.35741 0
M  V30 11063 H 1064.71 3.96207 0.332556 0
M  V30 11064 N 1065.71 0.390394 1.52688 0
M  V30 11065 C 1066.94 -0.194013 2.06491 0
M  V30 11066 C 1067.36 -1.3965 1.26014 0
M  V30 11067 O 1066.72 -1.79038 0.285468 0
M  V30 11068 C 1066.77 -0.541306 3.56514 0
M  V30 11069 O 1065.87 -1.63509 3.78601 0
M  V30 11070 H 1065.21 -0.0223608 0.663623 0
M  V30 11071 H 1067.74 0.558179 1.96839 0
M  V30 11072 H 1067.75 -0.805301 3.99974 0
M  V30 11073 H 1066.43 0.337828 4.14526 0
M  V30 11074 H 1065 -1.36473 3.4703 0
M  V30 11075 N 1067.19 -1.57141 0.120249 0
M  V30 11076 C 1068.6 -1.82256 -0.404931 0
M  V30 11077 C 1068.95 -1.03748 -1.66526 0
M  V30 11078 O 1068.08 -0.274456 -2.14653 0
M  V30 11079 C 1068.67 -3.30588 -0.741431 0
M  V30 11080 C 1067.23 -3.56379 -1.21124 0
M  V30 11081 C 1066.38 -2.76421 -0.220569 0
M  V30 11082 H 1069.33 -1.54897 0.345361 0
M  V30 11083 H 1069.35 -3.45284 -1.59872 0
M  V30 11084 H 1068.86 -3.87701 0.176036 0
M  V30 11085 H 1066.96 -3.04625 -2.14556 0
M  V30 11086 H 1067.07 -4.64952 -1.1557 0
M  V30 11087 H 1065.44 -2.44666 -0.707857 0
M  V30 11088 H 1066.22 -3.36294 0.690018 0
M  V30 11089 N 1068.67 0.153526 -1.5685 0
M  V30 11090 C 1069.63 1.17362 -1.96873 0
M  V30 11091 C 1070.63 1.36219 -0.854456 0
M  V30 11092 O 1071.82 1.33322 -1.1212 0
M  V30 11093 C 1068.95 2.53523 -2.27901 0
M  V30 11094 H 1070.14 0.830432 -2.88173 0
M  V30 11095 H 1067.7 0.396633 -1.51184 0
M  V30 11096 H 1068.43 2.92824 -1.39371 0
M  V30 11097 H 1068.22 2.41198 -3.09137 0
M  V30 11098 H 1069.71 3.27006 -2.59725 0
M  V30 11099 N 1070.14 1.51827 0.422667 0
M  V30 11100 C 1071.07 1.77152 1.52117 0
M  V30 11101 C 1072.06 0.621895 1.58324 0
M  V30 11102 O 1073.24 0.866118 1.73816 0
M  V30 11103 C 1070.37 1.90991 2.90068 0
M  V30 11104 C 1069.32 3.06516 2.98717 0
M  V30 11105 C 1068.65 3.05559 4.38791 0
M  V30 11106 C 1069.95 4.46223 2.71445 0
M  V30 11107 H 1071.64 2.69135 1.31175 0
M  V30 11108 H 1069.19 1.29507 0.629607 0
M  V30 11109 H 1071.14 2.07291 3.6689 0
M  V30 11110 H 1069.87 0.956688 3.12274 0
M  V30 11111 H 1068.53 2.89945 2.24338 0
M  V30 11112 H 1068.17 2.07985 4.57986 0
M  V30 11113 H 1067.87 3.83144 4.45505 0
M  V30 11114 H 1069.4 3.23971 5.17566 0
M  V30 11115 H 1070.81 4.63069 3.37994 0
M  V30 11116 H 1069.21 5.25623 2.89552 0
M  V30 11117 H 1070.28 4.5525 1.6696 0
M  V30 11118 N 1071.62 -0.679052 1.4222 0
M  V30 11119 C 1072.57 -1.79269 1.45366 0
M  V30 11120 C 1073.54 -1.63255 0.306089 0
M  V30 11121 O 1074.72 -1.8387 0.509548 0
M  V30 11122 C 1071.86 -3.17272 1.35766 0
M  V30 11123 C 1070.98 -3.44603 2.60525 0
M  V30 11124 C 1070.11 -4.7231 2.43098 0
M  V30 11125 C 1069.15 -4.92661 3.63251 0
M  V30 11126 N 1068.29 -6.11606 3.44794 0
M  V30 11127 H 1073.13 -1.75916 2.40536 0
M  V30 11128 H 1070.67 -0.858836 1.19425 0
M  V30 11129 H 1072.62 -3.97015 1.282 0
M  V30 11130 H 1071.25 -3.1976 0.441939 0
M  V30 11131 H 1070.31 -2.59144 2.78475 0
M  V30 11132 H 1071.62 -3.55536 3.49851 0
M  V30 11133 H 1070.77 -5.60136 2.33093 0
M  V30 11134 H 1069.51 -4.63652 1.51255 0
M  V30 11135 H 1068.52 -4.03278 3.73693 0
M  V30 11136 H 1069.74 -5.03167 4.5607 0
M  V30 11137 H 1067.69 -6.04129 2.55663 0
M  V30 11138 H 1067.6 -6.23381 4.27705 0
M  V30 11139 H 1068.87 -7.02122 3.38592 0
M  V30 11140 N 1073.1 -1.28322 -0.914942 0
M  V30 11141 C 1074.05 -1.12146 -2.01722 0
M  V30 11142 C 1075.02 -0.0189279 -1.66089 0
M  V30 11143 O 1076.2 -0.183638 -1.89914 0
M  V30 11144 C 1073.34 -0.78808 -3.35981 0
M  V30 11145 C 1072.46 -1.96954 -3.84491 0
M  V30 11146 C 1071.59 -1.57688 -5.07255 0
M  V30 11147 C 1070.63 -2.72506 -5.48094 0
M  V30 11148 N 1069.77 -2.33741 -6.62049 0
M  V30 11149 H 1074.61 -2.06461 -2.1489 0
M  V30 11150 H 1072.14 -1.0276 -1.05256 0
M  V30 11151 H 1074.1 -0.575546 -4.13211 0
M  V30 11152 H 1072.73 0.118132 -3.22584 0
M  V30 11153 H 1071.78 -2.29423 -3.03429 0
M  V30 11154 H 1073.1 -2.8304 -4.10719 0
M  V30 11155 H 1072.25 -1.32634 -5.92025 0
M  V30 11156 H 1070.99 -0.687291 -4.82833 0
M  V30 11157 H 1069.99 -2.9826 -4.61867 0
M  V30 11158 H 1071.22 -3.62106 -5.74505 0
M  V30 11159 H 1069.16 -1.4725 -6.3926 0
M  V30 11160 H 1069.08 -3.13364 -6.87997 0
M  V30 11161 H 1070.35 -2.11968 -7.50127 0
M  V30 11162 N 1074.58 1.12322 -1.10551 0
M  V30 11163 C 1075.54 2.16273 -0.758844 0
M  V30 11164 C 1076.54 1.59325 0.217294 0
M  V30 11165 O 1077.73 1.74199 -0.00601346 0
M  V30 11166 C 1074.86 3.40674 -0.124238 0
M  V30 11167 H 1076.06 2.48454 -1.6796 0
M  V30 11168 H 1073.61 1.2735 -0.906188 0
M  V30 11169 H 1074.34 3.14094 0.807194 0
M  V30 11170 H 1074.13 3.83284 -0.826772 0
M  V30 11171 H 1075.62 4.17474 0.102502 0
M  V30 11172 N 1076.06 0.894434 1.2976 0
M  V30 11173 C 1077.33 0.437365 1.90648 0
M  V30 11174 C 1077.71 -1.08261 1.81226 0
M  V30 11175 O 1077.06 -1.92213 1.23557 0
M  V30 11176 C 1077.27 0.946047 3.35933 0
M  V30 11177 C 1078.62 0.986621 4.12978 0
M  V30 11178 O 1079.64 0.893356 3.44815 0
M  V30 11179 O 1078.5 1.12591 5.34776 0
M  V30 11180 H 1075.6 0.135436 0.815835 0
M  V30 11181 H 1078.14 0.983955 1.38262 0
M  V30 11182 H 1076.91 1.98998 3.3692 0
M  V30 11183 H 1076.54 0.379164 3.95788 0
M  V30 11184 N 1077.53 -1.43282 0.656365 0
M  V30 11185 C 1078.78 -2.00996 0.168354 0
M  V30 11186 C 1079.1 -1.52408 -1.22601 0
M  V30 11187 O 1080.3 -2.02417 -1.80941 0
M  V30 11188 C 1078.76 -3.5903 0.250161 0
M  V30 11189 C 1078.37 -4.1661 1.64742 0
M  V30 11190 C 1080.11 -4.24118 -0.180084 0
M  V30 11191 C 1078.02 -5.66948 1.68299 0
M  V30 11192 H 1076.95 -0.751674 0.0591769 0
M  V30 11193 H 1079.6 -1.64216 0.818859 0
M  V30 11194 H 1077.98 -3.93226 -0.467908 0
M  V30 11195 H 1079.15 -3.93908 2.3911 0
M  V30 11196 H 1077.47 -3.63905 2.02391 0
M  V30 11197 H 1080.07 -5.34419 -0.173401 0
M  V30 11198 H 1080.41 -3.98264 -1.21208 0
M  V30 11199 H 1080.94 -3.94816 0.486343 0
M  V30 11200 H 1077.68 -5.97573 2.69419 0
M  V30 11201 H 1077.2 -5.91697 0.98261 0
M  V30 11202 H 1078.88 -6.31041 1.42813 0
M  V30 11203 N 1079.01 -0.398486 -1.52479 0
M  V30 11204 C 1080.26 0.180394 -2.01293 0
M  V30 11205 C 1080.58 1.46548 -1.28641 0
M  V30 11206 O 1079.85 1.91579 -0.409173 0
M  V30 11207 H 1078.43 0.0696528 -0.743746 0
M  V30 11208 H 1081.09 -0.532285 -1.87491 0
M  V30 11209 H 1080.19 0.38409 -3.09728 0
M  V30 11210 N 1080.49 1.57075 -0.12858 0
M  V30 11211 C 1081.74 1.9581 0.527868 0
M  V30 11212 C 1082.07 1.01253 1.65715 0
M  V30 11213 O 1081.35 0.0514853 1.94432 0
M  V30 11214 C 1081.63 3.44406 1.05151 0
M  V30 11215 C 1081.48 4.49737 -0.0750113 0
M  V30 11216 C 1082.8 3.95069 1.9393 0
M  V30 11217 H 1079.92 0.711978 0.19041 0
M  V30 11218 H 1082.56 1.88879 -0.206081 0
M  V30 11219 H 1080.71 3.50443 1.67697 0
M  V30 11220 H 1082.38 4.55793 -0.710685 0
M  V30 11221 H 1080.63 4.27497 -0.736809 0
M  V30 11222 H 1081.3 5.50996 0.332779 0
M  V30 11223 H 1083.77 3.91395 1.41241 0
M  V30 11224 H 1082.65 4.99542 2.27484 0
M  V30 11225 H 1082.91 3.36329 2.86941 0
M  V30 11226 N 1081.97 -0.145205 1.5693 0
M  V30 11227 C 1082.93 -1.16316 1.97492 0
M  V30 11228 C 1083.93 -1.35764 0.861668 0
M  V30 11229 O 1085.12 -1.32726 1.12825 0
M  V30 11230 C 1082.25 -2.52311 2.29242 0
M  V30 11231 H 1083.45 -0.815138 2.8861 0
M  V30 11232 H 1081 -0.38861 1.51392 0
M  V30 11233 H 1081.74 -2.92081 1.40922 0
M  V30 11234 H 1081.52 -2.39555 3.10412 0
M  V30 11235 H 1083.01 -3.25624 2.61456 0
M  V30 11236 N 1083.45 -1.52049 -0.414609 0
M  V30 11237 C 1084.38 -1.69712 -1.52555 0
M  V30 11238 C 1085.36 -0.544681 -1.53206 0
M  V30 11239 O 1086.54 -0.771358 -1.71995 0
M  V30 11240 C 1083.67 -1.73145 -2.91099 0
M  V30 11241 C 1082.72 -2.94624 -3.08382 0
M  V30 11242 S 1083.55 -4.55062 -2.82274 0
M  V30 11243 C 1084.7 -4.61274 -4.23057 0
M  V30 11244 H 1084.94 -2.63675 -1.37342 0
M  V30 11245 H 1082.47 -1.42018 -0.605824 0
M  V30 11246 H 1084.43 -1.75808 -3.70947 0
M  V30 11247 H 1083.09 -0.803198 -3.03657 0
M  V30 11248 H 1082.28 -2.93492 -4.0973 0
M  V30 11249 H 1081.88 -2.8982 -2.36391 0
M  V30 11250 H 1084.18 -4.38313 -5.16612 0
M  V30 11251 H 1085.12 -5.63188 -4.29214 0
M  V30 11252 H 1085.53 -3.90361 -4.07773 0
M  V30 11253 N 1084.93 0.6715 -1.42579 0
M  V30 11254 C 1086.17 1.42871 -1.42941 0
M  V30 11255 C 1086.49 1.94941 -0.0480483 0
M  V30 11256 O 1085.76 1.73275 0.913921 0
M  V30 11257 H 1084.34 0.530189 -0.526221 0
M  V30 11258 H 1087.01 0.793219 -1.78028 0
M  V30 11259 H 1086.1 2.2801 -2.13114 0
M  V30 11260 N 1086.4 1.28806 0.908124 0
M  V30 11261 C 1087.65 1.15663 1.65242 0
M  V30 11262 C 1087.97 -0.292883 1.93395 0
M  V30 11263 O 1089.17 -0.545509 2.65963 0
M  V30 11264 C 1087.63 2.02233 2.97707 0
M  V30 11265 C 1087.24 3.51958 2.77181 0
M  V30 11266 C 1088.98 1.97792 3.75604 0
M  V30 11267 C 1086.89 4.3066 4.05322 0
M  V30 11268 H 1085.82 0.42928 0.619867 0
M  V30 11269 H 1088.47 1.5338 1.00731 0
M  V30 11270 H 1086.85 1.57377 3.63385 0
M  V30 11271 H 1088.02 4.0481 2.20149 0
M  V30 11272 H 1086.34 3.57983 2.12691 0
M  V30 11273 H 1088.94 2.53858 4.70596 0
M  V30 11274 H 1089.28 0.955956 4.05175 0
M  V30 11275 H 1089.81 2.40648 3.16755 0
M  V30 11276 H 1086.55 5.3346 3.8092 0
M  V30 11277 H 1086.07 3.8258 4.61944 0
M  V30 11278 H 1087.75 4.40878 4.73535 0
M  V30 11279 N 1087.88 -1.11734 1.11145 0
M  V30 11280 C 1088.84 -2.15868 0.770303 0
M  V30 11281 C 1089.84 -1.59438 -0.208842 0
M  V30 11282 O 1091.03 -1.74193 0.0152516 0
M  V30 11283 C 1088.17 -3.40603 0.142303 0
M  V30 11284 H 1089.36 -2.4756 1.69276 0
M  V30 11285 H 1086.91 -1.26867 0.912929 0
M  V30 11286 H 1087.65 -3.14517 -0.790526 0
M  V30 11287 H 1087.43 -3.8284 0.847087 0
M  V30 11288 H 1088.92 -4.17523 -0.0803608 0
M  V30 11289 N 1089.36 -0.901303 -1.29284 0
M  V30 11290 C 1090.61 -0.527 -1.95108 0
M  V30 11291 C 1090.93 0.930065 -1.71391 0
M  V30 11292 O 1090.2 1.65601 -1.04658 0
M  V30 11293 H 1088.78 -0.191903 -0.721929 0
M  V30 11294 H 1091.44 -1.14795 -1.57506 0
M  V30 11295 H 1090.54 -0.710945 -3.03895 0
M  V30 11296 N 1090.84 1.42931 -0.663954 0
M  V30 11297 C 1092.06 2.06544 -0.188201 0
M  V30 11298 C 1092.49 1.495 1.14155 0
M  V30 11299 O 1091.85 0.609164 1.7076 0
M  V30 11300 C 1091.89 3.60393 -0.122105 0
M  V30 11301 O 1091 4.02176 0.91258 0
M  V30 11302 H 1090.34 0.656458 -0.0997967 0
M  V30 11303 H 1092.87 1.83253 -0.909909 0
M  V30 11304 H 1092.88 4.07959 0.0576568 0
M  V30 11305 H 1091.55 4.01287 -1.09276 0
M  V30 11306 H 1090.13 3.6618 0.704738 0
M  V30 11307 N 1092.32 0.406567 1.52266 0
M  V30 11308 C 1093.59 -0.228477 1.94261 0
M  V30 11309 C 1093.97 -1.62848 1.34328 0
M  V30 11310 O 1093.32 -2.22549 0.518082 0
M  V30 11311 C 1093.53 -0.237401 3.48192 0
M  V30 11312 C 1094.88 -0.457997 4.22123 0
M  V30 11313 O 1095.9 -0.316868 3.54788 0
M  V30 11314 O 1094.76 -0.735946 5.41522 0
M  V30 11315 H 1091.86 -0.146492 0.813922 0
M  V30 11316 H 1094.4 0.462325 1.63281 0
M  V30 11317 H 1093.17 0.742556 3.8419 0
M  V30 11318 H 1092.8 -0.972408 3.85526 0
M  V30 11319 N 1093.79 -1.57004 0.136909 0
M  V30 11320 C 1095.04 -1.96087 -0.517477 0
M  V30 11321 C 1095.37 -1.0213 -1.65176 0
M  V30 11322 O 1094.65 -0.0617958 -1.94402 0
M  V30 11323 C 1094.93 -3.44958 -1.03323 0
M  V30 11324 C 1094.78 -4.49691 0.0988609 0
M  V30 11325 C 1096.1 -3.96091 -1.91832 0
M  V30 11326 H 1093.22 -0.712978 -0.186632 0
M  V30 11327 H 1095.86 -1.88767 0.216095 0
M  V30 11328 H 1094.01 -3.51327 -1.65836 0
M  V30 11329 H 1095.69 -4.55409 0.734847 0
M  V30 11330 H 1093.93 -4.271 0.75947 0
M  V30 11331 H 1094.6 -5.51165 -0.303554 0
M  V30 11332 H 1097.08 -3.92139 -1.39164 0
M  V30 11333 H 1095.95 -5.00742 -2.24831 0
M  V30 11334 H 1096.21 -3.37846 -2.85153 0
M  V30 11335 N 1095.27 0.136881 -1.57004 0
M  V30 11336 C 1096.5 0.866405 -1.88436 0
M  V30 11337 C 1096.92 1.73483 -0.727006 0
M  V30 11338 O 1096.28 1.78398 0.323094 0
M  V30 11339 C 1096.33 1.69059 -3.18514 0
M  V30 11340 O 1095.43 2.79584 -3.03161 0
M  V30 11341 H 1094.77 0.240709 -0.618834 0
M  V30 11342 H 1097.3 0.124653 -2.0422 0
M  V30 11343 H 1097.31 2.08353 -3.50789 0
M  V30 11344 H 1095.99 1.05296 -4.0235 0
M  V30 11345 H 1094.57 2.43623 -2.82315 0
M  V30 11346 N 1096.75 1.52266 0.40654 0
M  V30 11347 C 1097.7 1.75794 1.4955 0
M  V30 11348 C 1098.67 0.600472 1.54866 0
M  V30 11349 O 1099.85 0.838305 1.71397 0
M  V30 11350 C 1096.99 1.91682 2.86971 0
M  V30 11351 C 1096.11 3.19337 2.90943 0
M  V30 11352 C 1095.24 3.25641 4.1968 0
M  V30 11353 C 1094.28 4.47488 4.17637 0
M  V30 11354 N 1093.42 4.51171 5.37949 0
M  V30 11355 H 1098.26 2.68733 1.28789 0
M  V30 11356 H 1095.79 1.33157 0.625102 0
M  V30 11357 H 1097.75 1.98877 3.66748 0
M  V30 11358 H 1096.38 1.02121 3.06221 0
M  V30 11359 H 1095.43 3.21301 2.03642 0
M  V30 11360 H 1096.75 4.09153 2.85299 0
M  V30 11361 H 1095.9 3.31922 5.07851 0
M  V30 11362 H 1094.64 2.33769 4.28023 0
M  V30 11363 H 1093.64 4.41351 3.27856 0
M  V30 11364 H 1094.87 5.40659 4.10932 0
M  V30 11365 H 1092.81 3.62182 5.46955 0
M  V30 11366 H 1092.73 5.34835 5.3431 0
M  V30 11367 H 1094 4.61685 6.28066 0
M  V30 11368 N 1098.23 -0.663929 1.42933 0
M  V30 11369 C 1099.16 -1.78946 1.43217 0
M  V30 11370 C 1100.17 -1.59426 0.329727 0
M  V30 11371 O 1101.36 -1.68344 0.5935 0
M  V30 11372 C 1098.46 -3.16217 1.21902 0
M  V30 11373 C 1097.64 -3.6249 2.44785 0
M  V30 11374 C 1096.69 -4.78529 2.18853 0
M  V30 11375 O 1095.72 -4.88516 2.92131 0
M  V30 11376 N 1096.92 -5.67994 1.19845 0
M  V30 11377 H 1099.69 -1.79184 2.40236 0
M  V30 11378 H 1097.25 -0.847404 1.37952 0
M  V30 11379 H 1099.24 -3.91517 1.02454 0
M  V30 11380 H 1097.81 -3.10814 0.333676 0
M  V30 11381 H 1097.03 -2.77751 2.79729 0
M  V30 11382 H 1098.32 -3.90151 3.26588 0
M  V30 11383 H 1097.72 -5.62588 0.59259 0
M  V30 11384 H 1096.27 -6.4306 1.06382 0
M  V30 11385 N 1099.71 -1.29285 -0.901281 0
M  V30 11386 C 1100.67 -1.14283 -1.98676 0
M  V30 11387 C 1101.67 -0.0787641 -1.60607 0
M  V30 11388 O 1102.86 -0.325574 -1.71131 0
M  V30 11389 C 1099.99 -0.747279 -3.32609 0
M  V30 11390 H 1101.18 -2.10701 -2.13413 0
M  V30 11391 H 1098.74 -1.12449 -1.08558 0
M  V30 11392 H 1099.47 0.217111 -3.23572 0
M  V30 11393 H 1099.26 -1.51608 -3.61604 0
M  V30 11394 H 1100.75 -0.665322 -4.12266 0
M  V30 11395 N 1101.18 1.11143 -1.11736 0
M  V30 11396 C 1102.15 2.15456 -0.78174 0
M  V30 11397 C 1103.15 1.59547 0.200383 0
M  V30 11398 O 1104.34 1.74183 -0.0244893 0
M  V30 11399 C 1101.47 3.40523 -0.160364 0
M  V30 11400 H 1102.66 2.46658 -1.70586 0
M  V30 11401 H 1100.22 1.26381 -0.919644 0
M  V30 11402 H 1100.95 3.14932 0.773835 0
M  V30 11403 H 1100.74 3.82386 -0.867378 0
M  V30 11404 H 1102.23 4.17559 0.0582175 0
M  V30 11405 N 1102.66 0.908147 1.28804 0
M  V30 11406 C 1103.94 0.457561 1.90173 0
M  V30 11407 C 1104.32 -1.06333 1.82364 0
M  V30 11408 O 1103.67 -1.90892 1.25589 0
M  V30 11409 C 1103.88 0.981624 3.34911 0
M  V30 11410 C 1105.23 1.03037 4.11908 0
M  V30 11411 O 1106.25 0.929878 3.43848 0
M  V30 11412 O 1105.11 1.18257 5.33552 0
M  V30 11413 H 1102.2 0.144081 0.814352 0
M  V30 11414 H 1104.75 0.998565 1.37211 0
M  V30 11415 H 1103.52 2.02561 3.34791 0
M  V30 11416 H 1103.14 0.421122 3.95364 0
M  V30 11417 N 1104.14 -1.42577 0.671525 0
M  V30 11418 C 1105.07 -2.28124 -0.0589347 0
M  V30 11419 C 1106.05 -1.40878 -0.811915 0
M  V30 11420 O 1107.24 -1.70318 -0.807717 0
M  V30 11421 C 1104.36 -3.20662 -1.09057 0
M  V30 11422 C 1103.41 -4.24291 -0.43355 0
M  V30 11423 S 1104.24 -5.29393 0.806442 0
M  V30 11424 C 1105.4 -6.25498 -0.224204 0
M  V30 11425 H 1105.63 -2.89728 0.666689 0
M  V30 11426 H 1103.16 -1.47359 0.460959 0
M  V30 11427 H 1105.12 -3.74516 -1.68071 0
M  V30 11428 H 1103.78 -2.582 -1.78862 0
M  V30 11429 H 1102.98 -4.89213 -1.21186 0
M  V30 11430 H 1102.58 -3.73908 0.0829136 0
M  V30 11431 H 1104.87 -6.68757 -1.08492 0
M  V30 11432 H 1105.81 -7.07023 0.390469 0
M  V30 11433 H 1106.22 -5.61633 -0.568214 0
M  V30 11434 N 1105.62 -0.414636 -1.52048 0
M  V30 11435 C 1106.87 0.16073 -2.01059 0
M  V30 11436 C 1107.18 1.45753 -1.30443 0
M  V30 11437 O 1108.39 2.11448 -1.703 0
M  V30 11438 C 1106.84 0.336993 -3.58319 0
M  V30 11439 C 1106.45 -0.948037 -4.37854 0
M  V30 11440 C 1108.19 0.867353 -4.15545 0
M  V30 11441 C 1106.1 -0.738662 -5.86769 0
M  V30 11442 H 1105.03 0.0638419 -0.751292 0
M  V30 11443 H 1107.68 -0.540925 -1.75346 0
M  V30 11444 H 1106.06 1.10111 -3.80383 0
M  V30 11445 H 1107.24 -1.71873 -4.27547 0
M  V30 11446 H 1105.55 -1.40522 -3.91972 0
M  V30 11447 H 1108.15 1.04012 -5.24486 0
M  V30 11448 H 1108.49 1.84358 -3.73253 0
M  V30 11449 H 1109.03 0.162148 -3.97469 0
M  V30 11450 H 1105.77 -1.6866 -6.3343 0
M  V30 11451 H 1105.29 -0.00736294 -5.998 0
M  V30 11452 H 1106.96 -0.382978 -6.45866 0
M  V30 11453 N 1107.1 1.56929 -0.145233 0
M  V30 11454 C 1108.03 2.19685 0.791263 0
M  V30 11455 C 1109.01 1.14455 1.25833 0
M  V30 11456 O 1110.19 1.42791 1.31622 0
M  V30 11457 C 1107.32 2.81705 2.03124 0
M  V30 11458 C 1106.28 3.92746 1.70101 0
M  V30 11459 C 1105.6 4.41694 3.01347 0
M  V30 11460 C 1106.9 5.13606 0.949025 0
M  V30 11461 H 1108.6 2.98196 0.26825 0
M  V30 11462 H 1106.14 1.43434 0.127584 0
M  V30 11463 H 1108.1 3.24273 2.69119 0
M  V30 11464 H 1106.82 2.00523 2.57795 0
M  V30 11465 H 1105.48 3.50794 1.06486 0
M  V30 11466 H 1105.13 3.57336 3.54006 0
M  V30 11467 H 1104.83 5.1659 2.80016 0
M  V30 11468 H 1106.35 4.86931 3.68416 0
M  V30 11469 H 1107.76 5.53029 1.51102 0
M  V30 11470 H 1106.16 5.94252 0.835711 0
M  V30 11471 H 1107.23 4.84863 -0.0595631 0
M  V30 11472 N 1108.58 -0.128553 1.57075 0
M  V30 11473 C 1109.51 -1.15953 2.02675 0
M  V30 11474 C 1110.49 -1.43743 0.909501 0
M  V30 11475 O 1111.67 -1.54348 1.17857 0
M  V30 11476 C 1108.8 -2.48813 2.423 0
M  V30 11477 C 1107.76 -2.35506 3.57381 0
M  V30 11478 C 1107.08 -3.73243 3.82875 0
M  V30 11479 C 1108.38 -1.82359 4.89431 0
M  V30 11480 H 1110.08 -0.780283 2.89054 0
M  V30 11481 H 1107.62 -0.373896 1.39061 0
M  V30 11482 H 1109.57 -3.21179 2.72804 0
M  V30 11483 H 1108.3 -2.88609 1.52881 0
M  V30 11484 H 1106.96 -1.6559 3.27071 0
M  V30 11485 H 1106.61 -4.10507 2.90677 0
M  V30 11486 H 1106.31 -3.65195 4.60333 0
M  V30 11487 H 1107.83 -4.47128 4.15823 0
M  V30 11488 H 1109.24 -2.44533 5.18533 0
M  V30 11489 H 1107.64 -1.85156 5.70822 0
M  V30 11490 H 1108.71 -0.780478 4.78578 0
M  V30 11491 N 1110.05 -1.5248 -0.398459 0
M  V30 11492 C 1111.33 -1.57634 -1.15805 0
M  V30 11493 C 1111.71 -0.363785 -2.07942 0
M  V30 11494 O 1111.06 0.648598 -2.19101 0
M  V30 11495 C 1111.27 -2.91042 -1.92602 0
M  V30 11496 C 1112.62 -3.44433 -2.48296 0
M  V30 11497 O 1113.64 -2.92853 -2.0277 0
M  V30 11498 O 1112.5 -4.34529 -3.31432 0
M  V30 11499 H 1109.59 -0.63539 -0.529347 0
M  V30 11500 H 1112.14 -1.64812 -0.404376 0
M  V30 11501 H 1110.91 -3.7074 -1.25169 0
M  V30 11502 H 1110.53 -2.87206 -2.74952 0
M  V30 11503 N 1111.53 0.65634 -1.43283 0
M  V30 11504 C 1112.81 1.41339 -1.35213 0
M  V30 11505 C 1113.19 2.111 0.00158494 0
M  V30 11506 O 1112.54 2.0457 1.018 0
M  V30 11507 C 1112.75 2.40066 -2.53317 0
M  V30 11508 C 1114.09 3.04159 -2.96264 0
M  V30 11509 O 1115.12 2.50393 -2.53341 0
M  V30 11510 O 1113.98 4.01633 -3.70612 0
M  V30 11511 H 1111.07 0.631325 -0.534189 0
M  V30 11512 H 1113.62 0.68351 -1.55326 0
M  V30 11513 H 1112.39 1.87444 -3.43483 0
M  V30 11514 H 1112.01 3.20509 -2.35287 0
M  V30 11515 N 1113.01 1.29761 0.894412 0
M  V30 11516 C 1113.96 1.15232 2.0205 0
M  V30 11517 C 1114.95 0.0665664 1.69269 0
M  V30 11518 O 1116.16 0.226746 1.78566 0
M  V30 11519 H 1112.53 0.356102 0.662341 0
M  V30 11520 H 1114.5 2.10559 2.11442 0
M  V30 11521 C 1113.25 0.851143 3.37121 0
M  V30 11522 H 1112.58 1.67865 3.62852 0
M  V30 11523 H 1114.02 0.78954 4.16584 0
M  V30 11524 C 1112.47 -0.445737 3.33938 0
M  V30 11525 O 1113 -1.47017 3.7383 0
M  V30 11526 N 1111.21 -0.453493 2.8704 0
M  V30 11527 H 1110.76 0.380636 2.54772 0
M  V30 11528 H 1110.72 -1.32119 2.85293 0
M  V30 11529 N 1114.49 -1.10549 1.12324 0
M  V30 11530 C 1115.73 -1.82485 0.877817 0
M  V30 11531 C 1116.06 -1.85131 -0.596373 0
M  V30 11532 O 1115.32 -1.30675 -1.45679 0
M  V30 11533 C 1115.62 -3.28997 1.39626 0
M  V30 11534 C 1115.28 -3.465 2.88529 0
M  V30 11535 C 1113.94 -3.50984 3.29186 0
M  V30 11536 C 1116.3 -3.51991 3.84385 0
M  V30 11537 C 1113.62 -3.58525 4.6441 0
M  V30 11538 C 1115.98 -3.61065 5.19437 0
M  V30 11539 C 1114.64 -3.63813 5.5964 0
M  V30 11540 H 1113.91 -0.667758 0.321216 0
M  V30 11541 H 1116.56 -1.30314 1.40323 0
M  V30 11542 H 1114.86 -3.83726 0.791291 0
M  V30 11543 H 1116.56 -3.83165 1.18259 0
M  V30 11544 H 1113.15 -3.43686 2.56082 0
M  V30 11545 H 1117.33 -3.47777 3.54069 0
M  V30 11546 H 1112.59 -3.58934 4.94951 0
M  V30 11547 H 1116.76 -3.64257 5.9354 0
M  V30 11548 H 1114.39 -3.69409 6.6441 0
M  V30 11549 N 1115.97 -0.914965 -1.28321 0
M  V30 11550 C 1116.93 -0.409024 -2.25521 0
M  V30 11551 C 1117.93 0.465327 -1.5392 0
M  V30 11552 O 1119.12 0.26821 -1.72123 0
M  V30 11553 C 1116.25 0.413452 -3.38383 0
M  V30 11554 H 1117.44 -1.26767 -2.71791 0
M  V30 11555 H 1115 -0.694477 -1.40024 0
M  V30 11556 H 1115.73 1.29145 -2.97476 0
M  V30 11557 H 1115.52 -0.213268 -3.9152 0
M  V30 11558 H 1117.01 0.758232 -4.10659 0
M  V30 11559 N 1117.44 1.42219 -0.679077 0
M  V30 11560 C 1118.67 2.06333 -0.210097 0
M  V30 11561 C 1119.09 1.50703 1.12562 0
M  V30 11562 O 1118.45 0.627241 1.70104 0
M  V30 11563 C 1118.5 3.60243 -0.160322 0
M  V30 11564 O 1117.6 4.03122 0.869872 0
M  V30 11565 H 1116.94 0.655362 -0.106754 0
M  V30 11566 H 1119.47 1.82278 -0.929294 0
M  V30 11567 H 1119.48 4.07997 0.014384 0
M  V30 11568 H 1118.16 4.00106 -1.13526 0
M  V30 11569 H 1116.74 3.66907 0.66586 0
M  V30 11570 N 1118.92 0.422693 1.51826 0
M  V30 11571 C 1120.17 -0.150066 2.01141 0
M  V30 11572 C 1120.48 -1.45059 1.31214 0
M  V30 11573 O 1121.69 -2.10542 1.71419 0
M  V30 11574 C 1120.15 -0.317985 3.58492 0
M  V30 11575 C 1119.75 0.971244 4.37345 0
M  V30 11576 C 1121.5 -0.845303 4.15999 0
M  V30 11577 C 1119.4 0.769769 5.86369 0
M  V30 11578 H 1118.33 -0.0598567 0.75162 0
M  V30 11579 H 1120.99 0.550217 1.75057 0
M  V30 11580 H 1119.37 -1.08092 3.80962 0
M  V30 11581 H 1120.54 1.74138 4.26629 0
M  V30 11582 H 1118.86 1.42599 3.91222 0
M  V30 11583 H 1121.45 -1.01229 5.2503 0
M  V30 11584 H 1121.8 -1.82375 3.74226 0
M  V30 11585 H 1122.33 -0.141067 3.9755 0
M  V30 11586 H 1119.07 1.72017 6.32527 0
M  V30 11587 H 1118.59 0.0391717 5.99787 0
M  V30 11588 H 1120.27 0.417225 6.45653 0
M  V30 11589 N 1120.4 -1.5685 0.153553 0
M  V30 11590 C 1121.65 -1.96625 -0.49665 0
M  V30 11591 C 1121.98 -1.03877 -1.64083 0
M  V30 11592 O 1121.25 -0.0824112 -1.94325 0
M  V30 11593 C 1121.54 -3.46035 -0.996585 0
M  V30 11594 C 1121.39 -4.49561 0.146551 0
M  V30 11595 C 1122.71 -3.98104 -1.8762 0
M  V30 11596 H 1119.83 -0.714917 -0.179059 0
M  V30 11597 H 1122.47 -1.88527 0.236104 0
M  V30 11598 H 1120.62 -3.53066 -1.621 0
M  V30 11599 H 1122.29 -4.54604 0.783108 0
M  V30 11600 H 1120.53 -4.26271 0.804727 0
M  V30 11601 H 1121.21 -5.51456 -0.245078 0
M  V30 11602 H 1123.68 -3.93593 -1.34997 0
M  V30 11603 H 1122.56 -5.03098 -2.19508 0
M  V30 11604 H 1122.82 -3.40852 -2.81554 0
M  V30 11605 N 1121.88 0.120221 -1.57141 0
M  V30 11606 C 1123.11 0.842441 -1.88972 0
M  V30 11607 C 1123.52 1.73494 -0.744671 0
M  V30 11608 O 1122.88 1.80268 0.284557 0
M  V30 11609 C 1122.93 1.67688 -3.20254 0
M  V30 11610 O 1122.65 0.820319 -4.30351 0
M  V30 11611 C 1124.15 2.50436 -3.65782 0
M  V30 11612 H 1121.37 0.242241 -0.625748 0
M  V30 11613 H 1123.91 0.104978 -2.0423 0
M  V30 11614 H 1122.07 2.36712 -3.0667 0
M  V30 11615 H 1122.48 1.39575 -5.05588 0
M  V30 11616 H 1123.96 3.04518 -4.60405 0
M  V30 11617 H 1124.43 3.27737 -2.92378 0
M  V30 11618 H 1125.04 1.86657 -3.82151 0
M  V30 11619 N 1123.36 1.52689 0.390367 0
M  V30 11620 C 1124.6 1.67335 1.13329 0
M  V30 11621 C 1124.93 0.415068 1.90531 0
M  V30 11622 O 1124.2 -0.570504 1.87409 0
M  V30 11623 H 1122.78 0.616821 0.421356 0
M  V30 11624 H 1125.44 1.89799 0.443 0
M  V30 11625 H 1124.53 2.52314 1.83696 0
M  V30 11626 N 1124.83 -0.648732 1.43629 0
M  V30 11627 C 1126.08 -1.41066 1.45699 0
M  V30 11628 C 1126.41 -1.94024 0.082612 0
M  V30 11629 O 1125.69 -1.7257 -0.897207 0
M  V30 11630 C 1125.97 -2.58882 2.50304 0
M  V30 11631 C 1125.82 -2.11387 3.97033 0
M  V30 11632 C 1127.14 -3.61092 2.51597 0
M  V30 11633 H 1124.26 -0.511591 0.530512 0
M  V30 11634 H 1126.9 -0.735069 1.75205 0
M  V30 11635 H 1125.05 -3.16518 2.25274 0
M  V30 11636 H 1126.73 -1.58718 4.33136 0
M  V30 11637 H 1124.97 -1.4272 4.0965 0
M  V30 11638 H 1125.64 -2.96129 4.65845 0
M  V30 11639 H 1128.12 -3.13223 2.73917 0
M  V30 11640 H 1126.99 -4.41071 3.26722 0
M  V30 11641 H 1127.25 -4.13985 1.55141 0
M  V30 11642 N 1126.31 -1.30234 -0.887518 0
M  V30 11643 C 1127.22 -1.18316 -2.02579 0
M  V30 11644 C 1128.24 -0.103658 -1.73691 0
M  V30 11645 O 1129.41 -0.3181 -1.98872 0
M  V30 11646 C 1126.48 -0.873222 -3.35523 0
M  V30 11647 C 1125.54 -2.03783 -3.7785 0
M  V30 11648 C 1124.77 -1.74258 -5.0445 0
M  V30 11649 O 1125 -0.669295 -5.6646 0
M  V30 11650 O 1123.93 -2.59423 -5.43124 0
M  V30 11651 H 1127.76 -2.13933 -2.15561 0
M  V30 11652 H 1125.34 -1.09803 -1.0131 0
M  V30 11653 H 1127.22 -0.715463 -4.15282 0
M  V30 11654 H 1125.9 0.053056 -3.23657 0
M  V30 11655 H 1124.81 -2.2509 -2.98806 0
M  V30 11656 H 1126.14 -2.94574 -3.94318 0
M  V30 11657 N 1127.79 1.09952 -1.12909 0
M  V30 11658 C 1128.7 2.19999 -0.81471 0
M  V30 11659 C 1129.72 1.72864 0.19851 0
M  V30 11660 O 1130.89 2.01376 0.0308832 0
M  V30 11661 C 1127.96 3.45573 -0.279363 0
M  V30 11662 C 1127.02 4.07417 -1.35314 0
M  V30 11663 C 1126.25 5.26996 -0.843247 0
M  V30 11664 O 1126.47 5.69495 0.321164 0
M  V30 11665 O 1125.41 5.79826 -1.61511 0
M  V30 11666 H 1129.23 2.49333 -1.73398 0
M  V30 11667 H 1126.82 1.18784 -0.906128 0
M  V30 11668 H 1128.7 4.21398 0.0140531 0
M  V30 11669 H 1127.38 3.17854 0.612401 0
M  V30 11670 H 1126.28 3.33253 -1.6998 0
M  V30 11671 H 1127.62 4.39349 -2.21885 0
M  V30 11672 N 1129.27 0.921757 1.27833 0
M  V30 11673 C 1130.52 0.557974 1.94245 0
M  V30 11674 C 1130.84 -0.90268 1.72849 0
M  V30 11675 O 1130.11 -1.63915 1.07279 0
M  V30 11676 H 1128.69 0.203364 0.718785 0
M  V30 11677 H 1131.35 1.17286 1.5566 0
M  V30 11678 H 1130.45 0.759202 3.02725 0
M  V30 11679 N 1130.75 -1.41857 0.686609 0
M  V30 11680 C 1132.16 -1.55549 0.357288 0
M  V30 11681 C 1132.36 -1.66394 -1.13646 0
M  V30 11682 O 1131.42 -1.63739 -1.92213 0
M  V30 11683 C 1132.73 -2.79938 1.09796 0
M  V30 11684 C 1134.28 -2.93724 1.08143 0
M  V30 11685 C 1134.75 -4.20989 1.80367 0
M  V30 11686 N 1136.25 -4.27927 1.77293 0
M  V30 11687 C 1136.98 -5.2524 2.30022 0
M  V30 11688 N 1136.48 -6.28636 2.91185 0
M  V30 11689 N 1138.27 -5.17118 2.20329 0
M  V30 11690 H 1130.42 -1.33063 1.65554 0
M  V30 11691 H 1132.68 -0.641335 0.698135 0
M  V30 11692 H 1132.39 -2.78104 2.15293 0
M  V30 11693 H 1132.26 -3.71188 0.670763 0
M  V30 11694 H 1134.65 -2.9508 0.0347554 0
M  V30 11695 H 1134.73 -2.03673 1.54761 0
M  V30 11696 H 1134.38 -4.20395 2.85009 0
M  V30 11697 H 1134.31 -5.09997 1.3119 0
M  V30 11698 H 1136.8 -3.53838 1.32692 0
M  V30 11699 H 1137.11 -6.99265 3.29011 0
M  V30 11700 H 1135.45 -6.29164 2.95259 0
M  V30 11701 H 1138.65 -4.35265 1.72226 0
M  V30 11702 H 1138.82 -5.92792 2.61728 0
M  V30 11703 N 1132.22 -0.430739 -1.51599 0
M  V30 11704 C 1133.15 0.374695 -2.30474 0
M  V30 11705 C 1134.14 1.02694 -1.35602 0
M  V30 11706 O 1135.32 1.03184 -1.6452 0
M  V30 11707 C 1132.45 1.47981 -3.14196 0
M  V30 11708 C 1131.4 0.951415 -4.17291 0
M  V30 11709 C 1130.73 2.15177 -4.89492 0
M  V30 11710 C 1132.03 -0.00957951 -5.22299 0
M  V30 11711 H 1133.72 -0.283508 -2.98055 0
M  V30 11712 H 1131.27 -0.13779 -1.43339 0
M  V30 11713 H 1133.22 2.05043 -3.68151 0
M  V30 11714 H 1131.95 2.16621 -2.44424 0
M  V30 11715 H 1130.61 0.403052 -3.64378 0
M  V30 11716 H 1130.25 2.82421 -4.1623 0
M  V30 11717 H 1129.95 1.80464 -5.59202 0
M  V30 11718 H 1131.48 2.72806 -5.46269 0
M  V30 11719 H 1132.89 0.470527 -5.71366 0
M  V30 11720 H 1131.29 -0.268959 -5.99497 0
M  V30 11721 H 1132.36 -0.948297 -4.75537 0
M  V30 11722 N 1133.7 1.56767 -0.161869 0
M  V30 11723 C 1134.95 1.95769 0.485536 0
M  V30 11724 C 1135.26 1.05006 1.65025 0
M  V30 11725 O 1136.47 1.33649 2.36326 0
M  V30 11726 C 1134.93 3.4807 0.915176 0
M  V30 11727 C 1134.53 4.47443 -0.223416 0
M  V30 11728 C 1136.28 3.95909 1.53153 0
M  V30 11729 C 1134.19 5.90971 0.225325 0
M  V30 11730 H 1133.12 0.730911 0.185161 0
M  V30 11731 H 1135.77 1.81808 -0.248592 0
M  V30 11732 H 1134.15 3.57415 1.705 0
M  V30 11733 H 1135.32 4.49805 -1.00061 0
M  V30 11734 H 1133.64 4.09606 -0.749127 0
M  V30 11735 H 1136.23 5.00592 1.87915 0
M  V30 11736 H 1136.58 3.38307 2.42599 0
M  V30 11737 H 1137.11 3.89542 0.806322 0
M  V30 11738 H 1133.85 6.52426 -0.634124 0
M  V30 11739 H 1133.37 5.91936 0.96808 0
M  V30 11740 H 1135.05 6.43497 0.672373 0
M  V30 11741 N 1135.18 -0.111886 1.57202 0
M  V30 11742 C 1136.43 -0.818411 1.85225 0
M  V30 11743 C 1136.76 -1.79542 0.747991 0
M  V30 11744 O 1136.01 -1.93965 -0.260013 0
M  V30 11745 C 1136.31 -1.59644 3.19763 0
M  V30 11746 C 1135.98 -0.76308 4.44396 0
M  V30 11747 C 1134.64 -0.53329 4.78236 0
M  V30 11748 C 1136.99 -0.18266 5.2088 0
M  V30 11749 C 1134.32 0.287056 5.85997 0
M  V30 11750 C 1136.67 0.624916 6.29506 0
M  V30 11751 C 1135.33 0.864955 6.61872 0
M  V30 11752 H 1134.6 -0.299478 0.677786 0
M  V30 11753 H 1137.25 -0.0805082 1.91331 0
M  V30 11754 H 1135.56 -2.40545 3.09266 0
M  V30 11755 H 1137.25 -2.1472 3.38669 0
M  V30 11756 H 1133.84 -0.952278 4.17887 0
M  V30 11757 H 1138.03 -0.34739 4.95083 0
M  V30 11758 H 1133.28 0.482179 6.09496 0
M  V30 11759 H 1137.46 1.08162 6.87949 0
M  V30 11760 H 1135.08 1.50244 7.45205 0
M  V30 11761 N 1136.66 -1.52894 -0.382264 0
M  V30 11762 C 1137.94 -1.58853 -1.14127 0
M  V30 11763 C 1138.32 -0.38582 -2.07544 0
M  V30 11764 O 1137.66 0.625323 -2.19777 0
M  V30 11765 C 1137.87 -2.93068 -1.89504 0
M  V30 11766 C 1139.22 -3.47048 -2.44629 0
M  V30 11767 O 1140.25 -2.94987 -1.99652 0
M  V30 11768 O 1139.1 -4.3802 -3.26804 0
M  V30 11769 H 1136.2 -0.640969 -0.522578 0
M  V30 11770 H 1138.74 -1.65231 -0.386873 0
M  V30 11771 H 1137.52 -3.72047 -1.2123 0
M  V30 11772 H 1137.14 -2.90106 -2.7189 0
M  V30 11773 N 1138.14 0.641106 -1.43971 0
M  V30 11774 C 1139.09 1.77474 -1.50352 0
M  V30 11775 C 1140.08 1.65173 -0.376052 0
M  V30 11776 O 1141.29 1.71373 -0.550572 0
M  V30 11777 H 1137.66 0.585747 -0.471597 0
M  V30 11778 H 1139.63 1.69213 -2.45784 0
M  V30 11779 C 1138.38 3.15778 -1.45532 0
M  V30 11780 H 1137.7 3.25886 -2.316 0
M  V30 11781 H 1139.14 3.95022 -1.54058 0
M  V30 11782 C 1137.6 3.36447 -0.174624 0
M  V30 11783 O 1138.13 3.9446 0.759215 0
M  V30 11784 N 1136.34 2.90487 -0.0809383 0
M  V30 11785 H 1135.89 2.43461 -0.841691 0
M  V30 11786 H 1135.84 3.04693 0.775231 0
M  V30 11787 N 1139.62 1.30703 0.880598 0
M  V30 11788 C 1140.55 1.20033 2.00286 0
M  V30 11789 C 1141.53 0.0899614 1.69862 0
M  V30 11790 O 1142.71 0.272747 1.92275 0
M  V30 11791 C 1139.84 0.895902 3.35546 0
M  V30 11792 C 1138.8 1.96468 3.80242 0
M  V30 11793 C 1138.12 1.51316 5.12843 0
M  V30 11794 C 1139.42 3.37637 3.98496 0
M  V30 11795 H 1141.12 2.13922 2.0947 0
M  V30 11796 H 1138.66 1.02989 1.00644 0
M  V30 11797 H 1140.61 0.807899 4.13583 0
M  V30 11798 H 1139.34 -0.0786636 3.26505 0
M  V30 11799 H 1138 2.0424 3.04437 0
M  V30 11800 H 1137.65 0.52674 5.00234 0
M  V30 11801 H 1137.35 2.22807 5.43719 0
M  V30 11802 H 1138.87 1.43903 5.93401 0
M  V30 11803 H 1140.28 3.326 4.66959 0
M  V30 11804 H 1138.68 4.07253 4.40755 0
M  V30 11805 H 1139.75 3.79205 3.02211 0
M  V30 11806 N 1141.09 -1.09351 1.1349 0
M  V30 11807 C 1142.04 -2.16008 0.812981 0
M  V30 11808 C 1143.01 -1.64566 -0.225252 0
M  V30 11809 O 1144.2 -1.90552 -0.0973261 0
M  V30 11810 C 1141.34 -3.43913 0.285996 0
M  V30 11811 C 1140.45 -4.09251 1.38338 0
M  V30 11812 C 1139.58 -5.24916 0.814652 0
M  V30 11813 C 1138.62 -5.82178 1.89038 0
M  V30 11814 N 1137.76 -6.89203 1.33955 0
M  V30 11815 H 1142.6 -2.42887 1.72655 0
M  V30 11816 H 1140.14 -1.19209 0.861833 0
M  V30 11817 H 1142.09 -4.17183 -0.0376794 0
M  V30 11818 H 1140.72 -3.17349 -0.590707 0
M  V30 11819 H 1139.78 -3.33838 1.82363 0
M  V30 11820 H 1141.09 -4.4784 2.19638 0
M  V30 11821 H 1140.24 -6.05086 0.442306 0
M  V30 11822 H 1138.98 -4.87691 -0.029416 0
M  V30 11823 H 1137.99 -5.00669 2.27179 0
M  V30 11824 H 1139.21 -6.21464 2.73787 0
M  V30 11825 H 1137.16 -6.53956 0.517494 0
M  V30 11826 H 1137.07 -7.26565 2.08902 0
M  V30 11827 H 1138.34 -7.73126 0.994793 0
M  V30 11828 N 1142.57 -0.928524 -1.27343 0
M  V30 11829 C 1143.52 -0.426873 -2.26818 0
M  V30 11830 C 1144.49 0.506663 -1.58184 0
M  V30 11831 O 1145.67 0.425641 -1.85992 0
M  V30 11832 C 1142.81 0.313523 -3.43673 0
M  V30 11833 C 1141.93 -0.65422 -4.27018 0
M  V30 11834 C 1141.06 0.106102 -5.31094 0
M  V30 11835 C 1140.1 -0.854293 -6.06109 0
M  V30 11836 N 1139.24 -0.126545 -7.01986 0
M  V30 11837 H 1144.08 -1.28014 -2.69103 0
M  V30 11838 H 1141.61 -0.642515 -1.32326 0
M  V30 11839 H 1143.57 0.75912 -4.10236 0
M  V30 11840 H 1142.2 1.13102 -3.02337 0
M  V30 11841 H 1141.25 -1.21834 -3.60362 0
M  V30 11842 H 1142.57 -1.38817 -4.79094 0
M  V30 11843 H 1141.72 0.611577 -6.0361 0
M  V30 11844 H 1140.46 0.873009 -4.79823 0
M  V30 11845 H 1139.46 -1.37101 -5.32432 0
M  V30 11846 H 1140.69 -1.621 -6.5947 0
M  V30 11847 H 1138.64 0.622102 -6.53044 0
M  V30 11848 H 1138.55 -0.800046 -7.51755 0
M  V30 11849 H 1139.82 0.358251 -7.78676 0
M  V30 11850 N 1144.05 1.41491 -0.694123 0
M  V30 11851 C 1145.27 2.06099 -0.23197 0
M  V30 11852 C 1145.7 1.51888 1.10958 0
M  V30 11853 O 1145.06 0.645247 1.69429 0
M  V30 11854 C 1145.11 3.60053 -0.198522 0
M  V30 11855 O 1144.21 4.04021 0.827067 0
M  V30 11856 H 1143.55 0.654193 -0.113699 0
M  V30 11857 H 1146.08 1.81282 -0.948575 0
M  V30 11858 H 1146.09 4.0799 -0.0288904 0
M  V30 11859 H 1144.77 3.98879 -1.17764 0
M  V30 11860 H 1143.34 3.67593 0.626908 0
M  V30 11861 N 1145.53 0.438773 1.51369 0
M  V30 11862 C 1146.78 -0.128723 2.01289 0
M  V30 11863 C 1147.09 -1.43659 1.32745 0
M  V30 11864 O 1148.3 -2.08712 1.73642 0
M  V30 11865 C 1146.75 -0.279945 3.5881 0
M  V30 11866 C 1146.36 1.01758 4.3629 0
M  V30 11867 C 1148.1 -0.801133 4.16872 0
M  V30 11868 C 1146.01 0.831918 5.85519 0
M  V30 11869 H 1144.94 -0.0518814 0.752213 0
M  V30 11870 H 1147.59 0.568753 1.74463 0
M  V30 11871 H 1145.97 -1.04046 3.82087 0
M  V30 11872 H 1147.15 1.78653 4.24758 0
M  V30 11873 H 1145.46 1.46741 3.89687 0
M  V30 11874 H 1148.06 -0.956548 5.26074 0
M  V30 11875 H 1148.4 -1.78396 3.76139 0
M  V30 11876 H 1148.94 -0.0988934 3.97677 0
M  V30 11877 H 1145.67 1.78716 6.30667 0
M  V30 11878 H 1145.19 0.102785 5.99712 0
M  V30 11879 H 1146.87 0.485681 6.45174 0
M  V30 11880 N 1147.01 -1.56678 0.170181 0
M  V30 11881 C 1147.97 -2.16698 -0.746622 0
M  V30 11882 C 1148.97 -1.11475 -1.15888 0
M  V30 11883 O 1150.16 -1.36994 -1.07602 0
M  V30 11884 C 1147.29 -2.74892 -2.01612 0
M  V30 11885 H 1148.48 -2.99061 -0.224135 0
M  V30 11886 H 1146.04 -1.56098 -0.0793761 0
M  V30 11887 H 1146.77 -1.96259 -2.58172 0
M  V30 11888 H 1146.56 -3.51896 -1.72949 0
M  V30 11889 H 1148.05 -3.21058 -2.67042 0
M  V30 11890 N 1148.48 0.103547 -1.57259 0
M  V30 11891 C 1149.71 0.821158 -1.8958 0
M  V30 11892 C 1150.12 1.73213 -0.761184 0
M  V30 11893 O 1149.46 1.81611 0.27625 0
M  V30 11894 C 1149.53 1.69428 -3.17072 0
M  V30 11895 C 1149.19 0.956014 -4.46889 0
M  V30 11896 C 1150.19 0.289694 -5.19092 0
M  V30 11897 C 1147.87 0.932602 -4.93566 0
M  V30 11898 C 1149.87 -0.390164 -6.36205 0
M  V30 11899 C 1147.55 0.248954 -6.10593 0
M  V30 11900 C 1148.55 -0.411259 -6.81761 0
M  V30 11901 O 1148.24 -1.08396 -7.96559 0
M  V30 11902 H 1147.97 0.240508 -0.631769 0
M  V30 11903 H 1150.53 0.0877817 -2.05212 0
M  V30 11904 H 1148.76 2.46968 -2.97563 0
M  V30 11905 H 1150.44 2.28769 -3.3529 0
M  V30 11906 H 1151.21 0.299297 -4.84076 0
M  V30 11907 H 1147.09 1.43592 -4.38067 0
M  V30 11908 H 1150.63 -0.906057 -6.91691 0
M  V30 11909 H 1146.53 0.237168 -6.45064 0
M  V30 11910 H 1147.3 -0.990002 -8.12491 0
M  V30 11911 N 1149.96 1.53094 0.37415 0
M  V30 11912 C 1151.19 1.72758 1.13852 0
M  V30 11913 C 1151.6 0.452638 1.83294 0
M  V30 11914 O 1150.96 -0.573906 1.73241 0
M  V30 11915 C 1151.01 2.88724 2.17534 0
M  V30 11916 O 1150.73 4.11284 1.5092 0
M  V30 11917 C 1152.23 3.2019 3.06584 0
M  V30 11918 H 1149.45 0.578028 0.340771 0
M  V30 11919 H 1152 1.99805 0.435683 0
M  V30 11920 H 1150.15 2.64096 2.83429 0
M  V30 11921 H 1150.57 4.76162 2.19932 0
M  V30 11922 H 1152.04 4.04759 3.75332 0
M  V30 11923 H 1152.52 2.35193 3.70919 0
M  V30 11924 H 1153.12 3.46712 2.46315 0
M  V30 11925 N 1151.44 -0.633461 1.44309 0
M  V30 11926 C 1152.37 -1.75676 1.53819 0
M  V30 11927 C 1153.35 -1.65537 0.391365 0
M  V30 11928 O 1154.54 -1.84332 0.611181 0
M  V30 11929 C 1151.67 -3.14197 1.47979 0
M  V30 11930 C 1150.62 -3.39122 2.61113 0
M  V30 11931 C 1149.95 -4.77648 2.40325 0
M  V30 11932 C 1151.25 -3.31914 4.03274 0
M  V30 11933 H 1152.94 -1.67974 2.47841 0
M  V30 11934 H 1150.49 -0.8067 1.19283 0
M  V30 11935 H 1152.44 -3.92553 1.53233 0
M  V30 11936 H 1151.16 -3.22677 0.504718 0
M  V30 11937 H 1149.82 -2.63145 2.55245 0
M  V30 11938 H 1149.47 -4.82829 1.41016 0
M  V30 11939 H 1149.17 -4.95284 3.16177 0
M  V30 11940 H 1150.69 -5.58237 2.47394 0
M  V30 11941 H 1152.11 -4.00178 4.10524 0
M  V30 11942 H 1150.5 -3.61085 4.7931 0
M  V30 11943 H 1151.57 -2.29761 4.2701 0
M  V30 11944 N 1152.92 -1.31168 -0.873655 0
M  V30 11945 C 1154.15 -1.23595 -1.65927 0
M  V30 11946 C 1154.56 0.199349 -1.87745 0
M  V30 11947 O 1153.92 1.13013 -1.43298 0
M  V30 11948 C 1153.97 -1.97268 -3.02932 0
M  V30 11949 O 1153.69 -3.35196 -2.82091 0
M  V30 11950 C 1155.19 -1.9649 -3.97374 0
M  V30 11951 H 1152.41 -0.427228 -0.517414 0
M  V30 11952 H 1154.96 -1.72983 -1.09074 0
M  V30 11953 H 1153.11 -1.51651 -3.56484 0
M  V30 11954 H 1153.52 -3.7266 -3.69087 0
M  V30 11955 H 1155 -2.52557 -4.90835 0
M  V30 11956 H 1155.48 -0.946525 -4.28879 0
M  V30 11957 H 1156.08 -2.4197 -3.49758 0
M  V30 11958 N 1154.4 1.08748 -1.14068 0
M  V30 11959 C 1155.62 1.85353 -0.930532 0
M  V30 11960 C 1156.05 1.80892 0.515717 0
M  V30 11961 O 1155.4 1.19146 1.36652 0
M  V30 11962 C 1155.45 3.30962 -1.43167 0
M  V30 11963 O 1154.56 4.0769 -0.621468 0
M  V30 11964 H 1153.9 0.574485 -0.332962 0
M  V30 11965 H 1156.43 1.37282 -1.51707 0
M  V30 11966 H 1156.44 3.81807 -1.43832 0
M  V30 11967 H 1155.11 3.33524 -2.48464 0
M  V30 11968 H 1153.69 3.66587 -0.683267 0
M  V30 11969 N 1155.87 0.935264 1.26849 0
M  V30 11970 C 1156.82 0.430895 2.28574 0
M  V30 11971 C 1157.82 -0.488739 1.62196 0
M  V30 11972 O 1159.02 -0.367605 1.76206 0
M  V30 11973 H 1155.4 0.120793 0.742235 0
M  V30 11974 H 1157.37 1.3015 2.68521 0
M  V30 11975 C 1156.12 -0.294053 3.46454 0
M  V30 11976 H 1155.44 0.404416 3.97749 0
M  V30 11977 H 1156.88 -0.611272 4.19571 0
M  V30 11978 C 1155.34 -1.50975 3.01178 0
M  V30 11979 O 1155.87 -2.60826 3.05504 0
M  V30 11980 N 1154.08 -1.36423 2.56587 0
M  V30 11981 H 1153.62 -0.470483 2.53267 0
M  V30 11982 H 1153.58 -2.17886 2.26656 0
M  V30 11983 N 1157.35 -1.41121 0.701616 0
M  V30 11984 C 1158.6 -2.00359 0.232214 0
M  V30 11985 C 1158.91 -1.56231 -1.17691 0
M  V30 11986 O 1160.12 -2.08071 -1.74409 0
M  V30 11987 C 1158.58 -3.58052 0.364257 0
M  V30 11988 C 1158.18 -4.11158 1.77913 0
M  V30 11989 C 1159.93 -4.24476 -0.0450628 0
M  V30 11990 C 1157.84 -5.61306 1.8625 0
M  V30 11991 H 1156.77 -0.749411 0.0830609 0
M  V30 11992 H 1159.42 -1.61528 0.870689 0
M  V30 11993 H 1157.8 -3.94515 -0.342569 0
M  V30 11994 H 1158.97 -3.86101 2.5152 0
M  V30 11995 H 1157.29 -3.57282 2.13866 0
M  V30 11996 H 1159.88 -5.347 -0.00329209 0
M  V30 11997 H 1160.23 -4.01919 -1.08477 0
M  V30 11998 H 1160.76 -3.93069 0.611704 0
M  V30 11999 H 1157.5 -5.88699 2.88294 0
M  V30 12000 H 1157.02 -5.88271 1.17036 0
M  V30 12001 H 1158.7 -6.26179 1.62817 0
M  V30 12002 N 1158.83 -0.446794 -1.51134 0
M  V30 12003 C 1160.24 0.0141132 -1.86695 0
M  V30 12004 C 1160.59 1.41095 -1.36333 0
M  V30 12005 O 1159.72 2.04139 -0.718068 0
M  V30 12006 C 1160.31 0.0323866 -3.38785 0
M  V30 12007 C 1158.87 0.437737 -3.73846 0
M  V30 12008 C 1158.02 -0.363436 -2.74908 0
M  V30 12009 H 1160.97 -0.66221 -1.44224 0
M  V30 12010 H 1160.99 0.839865 -3.71115 0
M  V30 12011 H 1160.5 -0.984374 -3.75409 0
M  V30 12012 H 1158.6 1.45975 -3.42815 0
M  V30 12013 H 1158.72 0.155964 -4.78846 0
M  V30 12014 H 1157.08 0.179566 -2.54066 0
M  V30 12015 H 1157.86 -1.37925 -3.14375 0
M  V30 12016 N 1160.31 1.56586 -0.178487 0
M  V30 12017 C 1161.22 2.21903 0.761321 0
M  V30 12018 C 1162.23 1.21289 1.2476 0
M  V30 12019 O 1163.41 1.53974 1.29823 0
M  V30 12020 C 1160.48 2.85259 1.97048 0
M  V30 12021 C 1159.54 4.01095 1.53039 0
M  V30 12022 C 1158.77 4.61421 2.68191 0
M  V30 12023 O 1158.99 4.20644 3.85247 0
M  V30 12024 O 1157.93 5.51171 2.41855 0
M  V30 12025 H 1161.75 3.02788 0.235141 0
M  V30 12026 H 1159.34 1.49316 0.0500442 0
M  V30 12027 H 1161.22 3.25404 2.6775 0
M  V30 12028 H 1159.89 2.07366 2.48558 0
M  V30 12029 H 1158.8 3.65606 0.792661 0
M  V30 12030 H 1160.13 4.80603 1.06213 0
M  V30 12031 N 1161.79 -0.095206 1.57312 0
M  V30 12032 C 1163.04 -0.797417 1.85268 0
M  V30 12033 C 1163.35 -1.79903 0.767733 0
M  V30 12034 O 1164.55 -2.54914 0.934409 0
M  V30 12035 C 1163.01 -1.469 3.28555 0
M  V30 12036 C 1162.62 -0.507152 4.4512 0
M  V30 12037 C 1164.36 -2.15494 3.65735 0
M  V30 12038 C 1162.27 -1.18331 5.79441 0
M  V30 12039 H 1161.2 -0.301552 0.691074 0
M  V30 12040 H 1163.85 -0.0503584 1.83431 0
M  V30 12041 H 1162.23 -2.26351 3.24933 0
M  V30 12042 H 1163.41 0.255858 4.60089 0
M  V30 12043 H 1161.72 0.0730882 4.16336 0
M  V30 12044 H 1164.32 -2.66816 4.63371 0
M  V30 12045 H 1164.66 -2.94383 2.94354 0
M  V30 12046 H 1165.19 -1.42903 3.71246 0
M  V30 12047 H 1161.93 -0.435238 6.54053 0
M  V30 12048 H 1161.45 -1.91775 5.68315 0
M  V30 12049 H 1163.13 -1.70983 6.23998 0
M  V30 12050 N 1163.26 -1.53291 -0.366026 0
M  V30 12051 C 1164.49 -1.73359 -1.12934 0
M  V30 12052 C 1164.91 -0.462352 -1.83051 0
M  V30 12053 O 1164.26 0.564711 -1.73543 0
M  V30 12054 C 1164.32 -2.89873 -2.15999 0
M  V30 12055 O 1164.04 -4.12079 -1.48737 0
M  V30 12056 C 1165.54 -3.21811 -3.04881 0
M  V30 12057 H 1162.76 -0.579827 -0.337701 0
M  V30 12058 H 1165.3 -2.00033 -0.425081 0
M  V30 12059 H 1163.46 -2.65595 -2.82025 0
M  V30 12060 H 1163.87 -4.77322 -2.17404 0
M  V30 12061 H 1165.34 -4.06744 -3.7318 0
M  V30 12062 H 1165.82 -2.37156 -3.69667 0
M  V30 12063 H 1166.43 -3.48013 -2.44473 0
M  V30 12064 N 1164.74 0.6258 -1.44643 0
M  V30 12065 C 1166.15 1.20751 -1.42394 0
M  V30 12066 C 1166.5 1.95685 -0.142047 0
M  V30 12067 O 1165.63 2.02715 0.757332 0
M  V30 12068 C 1166.22 2.1964 -2.57961 0
M  V30 12069 C 1164.78 2.73227 -2.5889 0
M  V30 12070 C 1163.93 1.48315 -2.34303 0
M  V30 12071 H 1166.88 0.416162 -1.53146 0
M  V30 12072 H 1166.9 3.02342 -2.31019 0
M  V30 12073 H 1166.41 1.65073 -3.51244 0
M  V30 12074 H 1164.52 3.31782 -1.69563 0
M  V30 12075 H 1164.63 3.18902 -3.57545 0
M  V30 12076 H 1162.99 1.76634 -1.83501 0
M  V30 12077 H 1163.78 0.956427 -3.29708 0
M  V30 12078 N 1166.22 1.31629 0.866686 0
M  V30 12079 C 1167.47 1.21503 1.61998 0
M  V30 12080 C 1167.8 -0.226044 1.93182 0
M  V30 12081 O 1167.05 -1.17573 1.56445 0
M  V30 12082 C 1167.35 2.00775 2.95676 0
M  V30 12083 C 1167.02 3.50245 2.83971 0
M  V30 12084 C 1165.68 3.91 2.80485 0
M  V30 12085 C 1168.03 4.45347 2.70769 0
M  V30 12086 C 1165.36 5.25119 2.61661 0
M  V30 12087 C 1167.71 5.79595 2.53481 0
M  V30 12088 C 1166.37 6.19567 2.48381 0
M  V30 12089 H 1165.64 0.44461 0.592792 0
M  V30 12090 H 1168.29 1.62929 1.00629 0
M  V30 12091 H 1166.6 1.52039 3.61097 0
M  V30 12092 H 1168.29 1.90318 3.52959 0
M  V30 12093 H 1164.88 3.17869 2.87502 0
M  V30 12094 H 1169.07 4.14789 2.72514 0
M  V30 12095 H 1164.32 5.5516 2.5614 0
M  V30 12096 H 1168.5 6.5291 2.42243 0
M  V30 12097 H 1166.12 7.23434 2.33554 0
M  V30 12098 N 1167.7 -1.08142 1.14644 0
M  V30 12099 C 1168.63 -2.17139 0.858667 0
M  V30 12100 C 1169.61 -1.69064 -0.187452 0
M  V30 12101 O 1170.8 -1.94151 -0.0435458 0
M  V30 12102 C 1167.93 -3.45648 0.33834 0
M  V30 12103 C 1166.88 -4.07129 1.32021 0
M  V30 12104 C 1166.21 -5.30623 0.659075 0
M  V30 12105 C 1167.51 -4.48095 2.68343 0
M  V30 12106 H 1169.2 -2.41468 1.77012 0
M  V30 12107 H 1166.75 -1.16052 0.852523 0
M  V30 12108 H 1168.7 -4.21216 0.124611 0
M  V30 12109 H 1167.42 -3.2088 -0.608553 0
M  V30 12110 H 1166.08 -3.33596 1.52016 0
M  V30 12111 H 1165.73 -5.02142 -0.293711 0
M  V30 12112 H 1165.43 -5.72714 1.31427 0
M  V30 12113 H 1166.95 -6.08903 0.454933 0
M  V30 12114 H 1168.37 -5.14828 2.5224 0
M  V30 12115 H 1166.76 -5.01113 3.30161 0
M  V30 12116 H 1167.83 -3.59852 3.25015 0
M  V30 12117 N 1169.18 -0.941978 -1.26351 0
M  V30 12118 C 1170.43 -0.585711 -1.93009 0
M  V30 12119 C 1170.74 0.879507 -1.74711 0
M  V30 12120 O 1171.95 1.34518 -2.35833 0
M  V30 12121 C 1170.4 -0.996787 -3.45821 0
M  V30 12122 C 1170.01 -2.48367 -3.72851 0
M  V30 12123 C 1171.75 -0.712452 -4.18479 0
M  V30 12124 C 1169.66 -2.83341 -5.19107 0
M  V30 12125 H 1168.59 -0.215342 -0.722595 0
M  V30 12126 H 1171.24 -1.14472 -1.43417 0
M  V30 12127 H 1169.62 -0.366295 -3.94302 0
M  V30 12128 H 1170.8 -3.16328 -3.35072 0
M  V30 12129 H 1169.11 -2.74139 -3.13427 0
M  V30 12130 H 1171.71 -0.95007 -5.26192 0
M  V30 12131 H 1172.05 0.350811 -4.14819 0
M  V30 12132 H 1172.59 -1.3027 -3.75865 0
M  V30 12133 H 1169.32 -3.88633 -5.27868 0
M  V30 12134 H 1168.84 -2.20043 -5.5798 0
M  V30 12135 H 1170.52 -2.71849 -5.87118 0
M  V30 12136 N 1170.66 1.40747 -0.709091 0
M  V30 12137 C 1171.9 2.01003 -0.24581 0
M  V30 12138 C 1172.23 1.56203 1.15891 0
M  V30 12139 O 1171.49 0.770166 1.79908 0
M  V30 12140 C 1171.78 3.56404 -0.266685 0
M  V30 12141 C 1171.45 4.20762 -1.6208 0
M  V30 12142 C 1170.11 4.38056 -1.99148 0
M  V30 12143 C 1172.46 4.56723 -2.51105 0
M  V30 12144 C 1169.79 4.88591 -3.248 0
M  V30 12145 C 1172.14 5.08654 -3.76103 0
M  V30 12146 C 1170.81 5.24158 -4.13297 0
M  V30 12147 H 1170.08 0.73552 -0.0899481 0
M  V30 12148 H 1172.73 1.68451 -0.910844 0
M  V30 12149 H 1171.03 3.88825 0.481915 0
M  V30 12150 H 1172.73 4.0085 0.109509 0
M  V30 12151 H 1169.32 4.07685 -1.32252 0
M  V30 12152 H 1173.5 4.43004 -2.23744 0
M  V30 12153 H 1168.76 4.98779 -3.53595 0
M  V30 12154 H 1172.93 5.35457 -4.45262 0
M  V30 12155 H 1170.56 5.63079 -5.10731 0
M  V30 12156 N 1172.13 0.454803 1.50895 0
M  V30 12157 C 1173.38 -0.107367 2.01414 0
M  V30 12158 C 1173.7 -1.42243 1.34262 0
M  V30 12159 O 1174.9 -2.06858 1.75846 0
M  V30 12160 C 1173.36 -0.241872 3.59086 0
M  V30 12161 C 1172.97 1.06379 4.35187 0
M  V30 12162 C 1174.71 -0.756873 4.17698 0
M  V30 12163 C 1172.62 0.893973 5.84604 0
M  V30 12164 H 1171.55 -0.0439003 0.752721 0
M  V30 12165 H 1174.2 0.587225 1.7385 0
M  V30 12166 H 1172.58 -0.999873 3.83169 0
M  V30 12167 H 1173.75 1.83148 4.2284 0
M  V30 12168 H 1172.07 1.50865 3.88109 0
M  V30 12169 H 1174.67 -0.900697 5.27059 0
M  V30 12170 H 1175.01 -1.74397 3.7801 0
M  V30 12171 H 1175.54 -0.0567088 3.9776 0
M  V30 12172 H 1172.28 1.85395 6.28736 0
M  V30 12173 H 1171.8 0.166387 5.99569 0
M  V30 12174 H 1173.48 0.554084 6.44623 0
M  V30 12175 N 1173.61 -1.56489 0.186789 0
M  V30 12176 C 1174.86 -1.96517 -0.45433 0
M  V30 12177 C 1175.17 -1.07618 -1.63333 0
M  V30 12178 O 1176.38 -1.37392 -2.3417 0
M  V30 12179 C 1174.84 -3.49482 -0.859685 0
M  V30 12180 C 1174.44 -4.47031 0.294572 0
M  V30 12181 C 1176.19 -3.98296 -1.46835 0
M  V30 12182 C 1174.09 -5.91254 -0.131279 0
M  V30 12183 H 1173.02 -0.733765 -0.17351 0
M  V30 12184 H 1175.68 -1.8139 0.277485 0
M  V30 12185 H 1174.06 -3.60082 -1.64793 0
M  V30 12186 H 1175.23 -4.48156 1.07205 0
M  V30 12187 H 1173.55 -4.08362 0.814197 0
M  V30 12188 H 1176.14 -5.03518 -1.79928 0
M  V30 12189 H 1176.49 -3.42123 -2.37186 0
M  V30 12190 H 1177.02 -3.90776 -0.744247 0
M  V30 12191 H 1173.76 -6.51334 0.737839 0
M  V30 12192 H 1173.28 -5.93401 -0.873786 0
M  V30 12193 H 1174.96 -6.44485 -0.569913 0
M  V30 12194 N 1175.09 0.086862 -1.5736 0
M  V30 12195 C 1176.05 1.08906 -2.01673 0
M  V30 12196 C 1177.05 1.32473 -0.911463 0
M  V30 12197 O 1178.24 1.28447 -1.17673 0
M  V30 12198 C 1175.37 2.43629 -2.38449 0
M  V30 12199 H 1176.57 0.707461 -2.91436 0
M  V30 12200 H 1174.12 0.332154 -1.5273 0
M  V30 12201 H 1174.86 2.8665 -1.51665 0
M  V30 12202 H 1174.64 2.2787 -3.19089 0
M  V30 12203 H 1176.13 3.15695 -2.73361 0
M  V30 12204 N 1176.57 1.53483 0.357892 0
M  V30 12205 C 1177.52 1.81143 1.45911 0
M  V30 12206 C 1178.51 0.681002 1.55109 0
M  V30 12207 O 1179.72 0.864086 1.57904 0
M  V30 12208 H 1176.09 0.573663 0.486225 0
M  V30 12209 H 1178.06 2.733 1.19789 0
M  V30 12210 C 1176.81 2.02509 2.8264 0
M  V30 12211 H 1176.13 2.88938 2.76324 0
M  V30 12212 H 1177.57 2.25837 3.58851 0
M  V30 12213 C 1176.03 0.806412 3.27106 0
M  V30 12214 O 1176.56 -0.00116809 4.017 0
M  V30 12215 N 1174.77 0.627677 2.8374 0
M  V30 12216 H 1174.32 1.28601 2.23203 0
M  V30 12217 H 1174.27 -0.186301 3.13848 0
M  V30 12218 N 1178.05 -0.61812 1.44973 0
M  V30 12219 C 1179.29 -1.37343 1.47715 0
M  V30 12220 C 1179.61 -1.95239 0.118784 0
M  V30 12221 O 1180.81 -2.7149 0.0237981 0
M  V30 12222 C 1179.27 -2.48732 2.60116 0
M  V30 12223 C 1178.88 -1.97294 4.02218 0
M  V30 12224 C 1180.62 -3.25831 2.72093 0
M  V30 12225 C 1178.53 -3.06102 5.06019 0
M  V30 12226 H 1177.46 -0.516175 0.549617 0
M  V30 12227 H 1180.11 -0.663617 1.7108 0
M  V30 12228 H 1178.49 -3.2235 2.30014 0
M  V30 12229 H 1179.67 -1.30455 4.41948 0
M  V30 12230 H 1177.98 -1.32972 3.94598 0
M  V30 12231 H 1180.58 -4.06968 3.46815 0
M  V30 12232 H 1180.92 -3.76156 1.7836 0
M  V30 12233 H 1181.45 -2.59309 3.01668 0
M  V30 12234 H 1178.19 -2.60706 6.01426 0
M  V30 12235 H 1177.71 -3.71541 4.70869 0
M  V30 12236 H 1179.39 -3.70662 5.30301 0
M  V30 12237 N 1179.52 -1.32087 -0.859693 0
M  V30 12238 C 1180.93 -1.20107 -1.42938 0
M  V30 12239 C 1181.29 0.188411 -1.95293 0
M  V30 12240 O 1180.41 1.08683 -1.87128 0
M  V30 12241 C 1181.01 -2.17436 -2.59821 0
M  V30 12242 C 1179.56 -2.09359 -3.12803 0
M  V30 12243 C 1178.71 -2.06086 -1.85537 0
M  V30 12244 H 1181.66 -1.43989 -0.667302 0
M  V30 12245 H 1181.68 -1.76996 -3.36828 0
M  V30 12246 H 1181.2 -3.18555 -2.21685 0
M  V30 12247 H 1179.3 -1.1147 -3.55535 0
M  V30 12248 H 1179.41 -2.98947 -3.74389 0
M  V30 12249 H 1177.77 -1.51251 -2.04928 0
M  V30 12250 H 1178.56 -3.08978 -1.49625 0
M  V30 12251 N 1181 1.07532 -1.15215 0
M  V30 12252 C 1181.93 2.1668 -0.870171 0
M  V30 12253 C 1182.91 1.69161 0.178483 0
M  V30 12254 O 1184.1 1.94172 0.0332489 0
M  V30 12255 C 1181.23 3.45464 -0.356666 0
M  V30 12256 C 1180.18 4.06424 -1.34179 0
M  V30 12257 C 1179.51 5.30266 -0.687206 0
M  V30 12258 C 1180.81 4.46666 -2.70715 0
M  V30 12259 H 1182.5 2.40526 -1.7829 0
M  V30 12260 H 1180.05 1.15598 -0.858665 0
M  V30 12261 H 1182 4.21144 -0.146947 0
M  V30 12262 H 1180.72 3.21199 0.591527 0
M  V30 12263 H 1179.38 3.32786 -1.53783 0
M  V30 12264 H 1179.03 5.0229 0.267077 0
M  V30 12265 H 1178.73 5.72009 -1.34462 0
M  V30 12266 H 1180.26 6.08653 -0.487218 0
M  V30 12267 H 1181.67 5.13483 -2.54966 0
M  V30 12268 H 1180.07 4.99355 -3.32813 0
M  V30 12269 H 1181.14 3.58123 -3.26919 0
M  V30 12270 N 1182.48 0.948665 1.2585 0
M  V30 12271 C 1183.89 0.641829 1.75321 0
M  V30 12272 C 1184.24 -0.842903 1.77171 0
M  V30 12273 O 1183.37 -1.65967 1.38867 0
M  V30 12274 C 1183.96 1.15835 3.18383 0
M  V30 12275 C 1182.52 0.901784 3.65438 0
M  V30 12276 C 1181.67 1.30489 2.44679 0
M  V30 12277 H 1184.62 1.12614 1.1182 0
M  V30 12278 H 1184.64 0.515639 3.7699 0
M  V30 12279 H 1184.15 2.23897 3.17004 0
M  V30 12280 H 1182.25 -0.164135 3.72238 0
M  V30 12281 H 1182.37 1.53405 4.53876 0
M  V30 12282 H 1180.73 0.723278 2.44215 0
M  V30 12283 H 1181.51 2.3946 2.45996 0
M  V30 12284 N 1183.96 -1.40369 0.716545 0
M  V30 12285 C 1184.89 -2.33365 0.0793533 0
M  V30 12286 C 1185.87 -1.52943 -0.744482 0
M  V30 12287 O 1187.05 -1.81406 -0.693212 0
M  V30 12288 C 1184.18 -3.36928 -0.842429 0
M  V30 12289 C 1183.14 -4.2782 -0.124142 0
M  V30 12290 C 1182.46 -5.21928 -1.1617 0
M  V30 12291 C 1183.76 -5.12199 1.02224 0
M  V30 12292 H 1185.46 -2.86899 0.856115 0
M  V30 12293 H 1183 -1.37946 0.413138 0
M  V30 12294 H 1184.96 -4.00925 -1.29759 0
M  V30 12295 H 1183.68 -2.81791 -1.6511 0
M  V30 12296 H 1182.34 -3.65277 0.311201 0
M  V30 12297 H 1181.99 -4.63096 -1.96345 0
M  V30 12298 H 1181.69 -5.83582 -0.685978 0
M  V30 12299 H 1183.21 -5.88802 -1.61694 0
M  V30 12300 H 1184.63 -5.69644 0.646399 0
M  V30 12301 H 1183.02 -5.82901 1.4264 0
M  V30 12302 H 1184.09 -4.4812 1.85246 0
M  V30 12303 N 1185.44 -0.462799 -1.50652 0
M  V30 12304 C 1186.68 0.0948568 -2.01877 0
M  V30 12305 C 1187.01 1.4096 -1.34741 0
M  V30 12306 O 1186.28 1.89671 -0.49006 0
M  V30 12307 H 1184.86 0.0380453 -0.746031 0
M  V30 12308 H 1187.52 -0.611327 -1.85064 0
M  V30 12309 H 1186.61 0.252378 -3.11078 0
M  V30 12310 N 1186.91 1.56388 -0.195085 0
M  V30 12311 C 1188.14 2.01963 0.449289 0
M  V30 12312 C 1188.56 1.07522 1.55192 0
M  V30 12313 O 1187.91 0.0800915 1.82324 0
M  V30 12314 C 1187.97 3.47231 1.00561 0
M  V30 12315 O 1187.69 4.38068 -0.0530241 0
M  V30 12316 C 1189.19 4.08324 1.72587 0
M  V30 12317 H 1186.41 0.661452 0.112792 0
M  V30 12318 H 1188.95 2.02231 -0.303788 0
M  V30 12319 H 1187.11 3.47663 1.70907 0
M  V30 12320 H 1187.52 5.23256 0.361076 0
M  V30 12321 H 1188.99 5.11821 2.06744 0
M  V30 12322 H 1189.47 3.51782 2.62956 0
M  V30 12323 H 1190.08 4.11665 1.06826 0
M  V30 12324 N 1188.39 -0.0785156 1.57404 0
M  V30 12325 C 1189.64 -0.780092 1.87196 0
M  V30 12326 C 1189.97 -1.77562 0.78647 0
M  V30 12327 O 1189.25 -1.93428 -0.203935 0
M  V30 12328 C 1189.53 -1.49408 3.27642 0
M  V30 12329 C 1189.38 -0.515416 4.46837 0
M  V30 12330 C 1190.7 -2.44064 3.66225 0
M  V30 12331 H 1187.82 -0.282134 0.680859 0
M  V30 12332 H 1190.46 -0.0433926 1.8995 0
M  V30 12333 H 1188.61 -2.12205 3.25425 0
M  V30 12334 H 1190.28 0.106827 4.61176 0
M  V30 12335 H 1188.53 0.169832 4.33467 0
M  V30 12336 H 1189.2 -1.05247 5.41874 0
M  V30 12337 H 1191.67 -1.91349 3.69493 0
M  V30 12338 H 1190.55 -2.91029 4.65396 0
M  V30 12339 H 1190.81 -3.28569 2.95796 0
M  V30 12340 N 1189.87 -1.5367 -0.349747 0
M  V30 12341 C 1191.1 -1.74547 -1.11089 0
M  V30 12342 C 1191.51 -0.481741 -1.82551 0
M  V30 12343 O 1190.87 0.546272 -1.74132 0
M  V30 12344 C 1190.92 -2.92148 -2.12913 0
M  V30 12345 O 1190.64 -4.13633 -1.44358 0
M  V30 12346 C 1192.14 -3.25027 -3.01451 0
M  V30 12347 H 1189.36 -0.583376 -0.331532 0
M  V30 12348 H 1191.91 -2.00473 -0.403841 0
M  V30 12349 H 1190.06 -2.68572 -2.79192 0
M  V30 12350 H 1190.48 -4.79601 -2.12329 0
M  V30 12351 H 1191.95 -4.10679 -3.68845 0
M  V30 12352 H 1192.43 -2.41064 -3.67131 0
M  V30 12353 H 1193.03 -3.50586 -2.40768 0
M  V30 12354 N 1191.35 0.610423 -1.45298 0
M  V30 12355 C 1192.6 1.36558 -1.48441 0
M  V30 12356 C 1192.91 1.95173 -0.129137 0
M  V30 12357 O 1194.12 2.71473 -0.0381956 0
M  V30 12358 C 1192.57 2.47349 -2.61431 0
M  V30 12359 C 1192.18 1.95158 -4.03258 0
M  V30 12360 C 1193.92 3.24383 -2.73817 0
M  V30 12361 C 1191.83 3.03414 -5.07635 0
M  V30 12362 H 1190.76 0.513253 -0.552347 0
M  V30 12363 H 1193.41 0.654535 -1.7143 0
M  V30 12364 H 1191.79 3.21125 -2.31721 0
M  V30 12365 H 1192.97 1.2811 -4.42634 0
M  V30 12366 H 1191.28 1.30878 -3.95297 0
M  V30 12367 H 1193.88 4.05123 -3.48969 0
M  V30 12368 H 1194.22 3.75205 -1.80352 0
M  V30 12369 H 1194.76 2.57705 -3.03039 0
M  V30 12370 H 1191.5 2.57512 -6.028 0
M  V30 12371 H 1191.02 3.69039 -4.72833 0
M  V30 12372 H 1192.69 3.67844 -5.32259 0
M  V30 12373 N 1192.83 1.32541 0.852676 0
M  V30 12374 C 1193.76 1.24254 1.97694 0
M  V30 12375 C 1194.74 0.125971 1.69633 0
M  V30 12376 O 1195.92 0.31347 1.91653 0
M  V30 12377 C 1193.05 0.966874 3.3357 0
M  V30 12378 C 1192.01 2.0449 3.75989 0
M  V30 12379 C 1191.33 1.6216 5.09518 0
M  V30 12380 C 1192.63 3.46013 3.91244 0
M  V30 12381 H 1194.33 2.18317 2.04886 0
M  V30 12382 H 1191.87 1.05101 0.984371 0
M  V30 12383 H 1193.83 0.895444 4.11776 0
M  V30 12384 H 1192.55 -0.0093893 3.26599 0
M  V30 12385 H 1191.21 2.10651 3.00036 0
M  V30 12386 H 1190.86 0.632729 4.99005 0
M  V30 12387 H 1190.56 2.3429 5.38871 0
M  V30 12388 H 1192.08 1.56457 5.90215 0
M  V30 12389 H 1193.49 3.4243 4.59799 0
M  V30 12390 H 1191.89 4.1651 4.32017 0
M  V30 12391 H 1192.96 3.8553 2.941 0
M  V30 12392 N 1194.3 -1.0692 1.15784 0
M  V30 12393 C 1195.54 -1.8119 0.946018 0
M  V30 12394 C 1195.91 -1.84899 -0.517338 0
M  V30 12395 O 1197.11 -2.55085 -0.847643 0
M  V30 12396 C 1195.38 -3.22102 1.54871 0
M  V30 12397 S 1196.94 -4.13065 1.48063 0
M  V30 12398 H 1193.76 -0.62424 0.340361 0
M  V30 12399 H 1196.36 -1.28411 1.47414 0
M  V30 12400 H 1195.06 -3.16994 2.60659 0
M  V30 12401 H 1194.59 -3.79956 1.01965 0
M  V30 12402 H 1196.61 -4.93907 0.476517 0
M  V30 12403 N 1195.78 -0.955326 -1.25345 0
M  V30 12404 C 1197.03 -0.606149 -1.92377 0
M  V30 12405 C 1197.34 0.860927 -1.75634 0
M  V30 12406 O 1198.55 1.3201 -2.37246 0
M  V30 12407 C 1197.01 -1.03341 -3.44744 0
M  V30 12408 C 1196.61 -2.52308 -3.70196 0
M  V30 12409 C 1198.36 -0.756797 -4.17699 0
M  V30 12410 C 1196.27 -2.88831 -5.16072 0
M  V30 12411 H 1195.2 -0.222994 -0.720271 0
M  V30 12412 H 1197.85 -1.15987 -1.42194 0
M  V30 12413 H 1196.23 -0.408096 -3.93892 0
M  V30 12414 H 1197.4 -3.19864 -3.31698 0
M  V30 12415 H 1195.72 -2.77448 -3.10502 0
M  V30 12416 H 1198.31 -1.00583 -5.25154 0
M  V30 12417 H 1198.66 0.306794 -4.15168 0
M  V30 12418 H 1199.19 -1.34249 -3.74462 0
M  V30 12419 H 1195.93 -3.9421 -5.23716 0
M  V30 12420 H 1195.45 -2.25948 -5.55614 0
M  V30 12421 H 1197.13 -2.78061 -5.84201 0
M  V30 12422 N 1197.26 1.39987 -0.723979 0
M  V30 12423 C 1198.54 1.94637 -0.1939 0
M  V30 12424 C 1198.92 1.66156 1.30212 0
M  V30 12425 O 1198.27 0.983783 2.06238 0
M  V30 12426 C 1198.48 3.4517 -0.515652 0
M  V30 12427 C 1199.82 4.22113 -0.458919 0
M  V30 12428 O 1200.85 3.53318 -0.452198 0
M  V30 12429 O 1199.71 5.44695 -0.443783 0
M  V30 12430 H 1196.8 0.826394 -0.0316615 0
M  V30 12431 H 1199.35 1.49548 -0.802085 0
M  V30 12432 H 1198.12 3.5929 -1.55004 0
M  V30 12433 H 1197.74 3.97413 0.122067 0
M  V30 12434 N 1198.74 0.470782 1.50404 0
M  V30 12435 C 1199.67 -0.313458 2.31386 0
M  V30 12436 C 1200.65 -0.990623 1.38278 0
M  V30 12437 O 1201.84 -0.987854 1.67198 0
M  V30 12438 C 1198.97 -1.39599 3.18009 0
M  V30 12439 C 1197.92 -0.840443 4.19667 0
M  V30 12440 C 1197.25 -2.02124 4.95025 0
M  V30 12441 C 1198.55 0.148055 5.2209 0
M  V30 12442 H 1200.24 0.362432 2.97198 0
M  V30 12443 H 1197.79 0.175745 1.42924 0
M  V30 12444 H 1199.74 -1.9521 3.73458 0
M  V30 12445 H 1198.46 -2.10064 2.50081 0
M  V30 12446 H 1197.12 -0.306302 3.65318 0
M  V30 12447 H 1196.77 -2.71286 4.23571 0
M  V30 12448 H 1196.47 -1.65574 5.6379 0
M  V30 12449 H 1197.99 -2.58226 5.5331 0
M  V30 12450 H 1199.41 -0.318874 5.72413 0
M  V30 12451 H 1197.8 0.427811 5.98573 0
M  V30 12452 H 1198.87 1.07404 4.72855 0
M  V30 12453 N 1200.22 -1.56282 0.203376 0
M  V30 12454 C 1201.47 -1.97421 -0.432346 0
M  V30 12455 C 1201.79 -1.0917 -1.61576 0
M  V30 12456 O 1201.06 -0.164759 -1.95206 0
M  V30 12457 H 1199.64 -0.729062 -0.162721 0
M  V30 12458 H 1202.3 -1.927 0.292039 0
M  V30 12459 H 1201.39 -3.02429 -0.770918 0
M  V30 12460 N 1201.7 0.070167 -1.57444 0
M  V30 12461 C 1202.92 0.781894 -1.91557 0
M  V30 12462 C 1203.34 1.71037 -0.799489 0
M  V30 12463 O 1202.7 1.81082 0.227062 0
M  V30 12464 C 1202.75 1.57415 -3.25427 0
M  V30 12465 O 1202.47 0.682991 -4.32743 0
M  V30 12466 C 1203.97 2.38673 -3.73564 0
M  V30 12467 H 1201.19 0.222211 -0.633138 0
M  V30 12468 H 1203.73 0.0399504 -2.04461 0
M  V30 12469 H 1201.89 2.26835 -3.14045 0
M  V30 12470 H 1202.3 1.2342 -5.09772 0
M  V30 12471 H 1203.78 2.89716 -4.6986 0
M  V30 12472 H 1204.25 3.18269 -3.02657 0
M  V30 12473 H 1204.86 1.74405 -3.87896 0
M  V30 12474 N 1203.17 1.53854 0.341593 0
M  V30 12475 C 1204.45 1.61823 1.09875 0
M  V30 12476 C 1204.83 0.440711 2.06448 0
M  V30 12477 O 1204.18 -0.566833 2.21358 0
M  V30 12478 C 1204.39 2.9799 1.81668 0
M  V30 12479 C 1205.74 3.53411 2.35341 0
M  V30 12480 O 1206.76 3.00177 1.91761 0
M  V30 12481 O 1205.62 4.4653 3.15076 0
M  V30 12482 H 1202.71 0.654599 0.5054 0
M  V30 12483 H 1205.26 1.66199 0.342929 0
M  V30 12484 H 1204.03 3.7513 1.11323 0
M  V30 12485 H 1203.65 2.97213 2.64103 0
M  V30 12486 N 1204.65 -0.602709 1.4562 0
M  V30 12487 C 1205.58 -1.72705 1.49159 0
M  V30 12488 C 1206.56 -1.58843 0.347494 0
M  V30 12489 O 1207.75 -1.80337 0.548716 0
M  V30 12490 C 1204.87 -3.10579 1.35125 0
M  V30 12491 C 1203.92 -3.43016 2.53461 0
M  V30 12492 S 1204.75 -3.37311 4.1591 0
M  V30 12493 C 1205.91 -4.77757 4.0435 0
M  V30 12494 H 1206.14 -1.69441 2.44289 0
M  V30 12495 H 1203.67 -0.779776 1.33262 0
M  V30 12496 H 1205.63 -3.90127 1.27715 0
M  V30 12497 H 1204.29 -3.11352 0.414568 0
M  V30 12498 H 1203.49 -4.43415 2.39581 0
M  V30 12499 H 1203.09 -2.70993 2.57757 0
M  V30 12500 H 1205.38 -5.67677 3.69796 0
M  V30 12501 H 1206.32 -4.96694 5.04679 0
M  V30 12502 H 1206.73 -4.53667 3.35926 0
M  V30 12503 N 1206.13 -1.32992 -0.845635 0
M  V30 12504 C 1207.38 -1.24249 -1.60281 0
M  V30 12505 C 1207.71 0.193049 -1.93238 0
M  V30 12506 O 1206.98 1.1326 -1.58122 0
M  V30 12507 C 1207.27 -2.1111 -2.91727 0
M  V30 12508 C 1207.12 -3.63088 -2.65494 0
M  V30 12509 C 1208.44 -1.97913 -3.93089 0
M  V30 12510 H 1205.56 -0.452698 -0.581578 0
M  V30 12511 H 1208.2 -1.63026 -0.975828 0
M  V30 12512 H 1206.35 -1.78169 -3.45236 0
M  V30 12513 H 1208.02 -4.06287 -2.18469 0
M  V30 12514 H 1206.26 -3.85304 -1.99306 0
M  V30 12515 H 1206.94 -4.19202 -3.59129 0
M  V30 12516 H 1209.41 -2.26788 -3.48864 0
M  V30 12517 H 1208.29 -2.60952 -4.82903 0
M  V30 12518 H 1208.55 -0.949378 -4.31786 0
M  V30 12519 N 1207.61 1.06304 -1.1635 0
M  V30 12520 C 1209.02 1.60566 -0.952652 0
M  V30 12521 C 1209.37 1.8963 0.503473 0
M  V30 12522 O 1208.49 1.66964 1.37666 0
M  V30 12523 C 1209.09 2.9172 -1.72292 0
M  V30 12524 C 1207.65 3.42684 -1.55707 0
M  V30 12525 C 1206.8 2.16579 -1.73172 0
M  V30 12526 H 1209.75 0.892563 -1.31221 0
M  V30 12527 H 1209.77 3.61126 -1.19868 0
M  V30 12528 H 1209.28 2.70535 -2.78267 0
M  V30 12529 H 1207.38 3.68929 -0.521726 0
M  V30 12530 H 1207.49 4.18018 -2.34088 0
M  V30 12531 H 1205.86 2.26795 -1.15914 0
M  V30 12532 H 1206.64 1.97877 -2.80535 0
M  V30 12533 N 1209.09 0.96196 1.24836 0
M  V30 12534 C 1210.05 0.492443 2.23847 0
M  V30 12535 C 1211.05 -0.40788 1.55541 0
M  V30 12536 O 1212.24 -0.204143 1.73 0
M  V30 12537 C 1209.37 -0.287578 3.39685 0
M  V30 12538 H 1210.56 1.36767 2.66899 0
M  V30 12539 H 1208.12 0.745967 1.3735 0
M  V30 12540 H 1208.85 -1.18015 3.02064 0
M  V30 12541 H 1208.64 0.358431 3.90458 0
M  V30 12542 H 1210.13 -0.605297 4.1319 0
M  V30 12543 N 1210.56 -1.39601 0.731392 0
M  V30 12544 C 1211.81 -1.99821 0.274661 0
M  V30 12545 C 1212.13 -1.58693 -1.1435 0
M  V30 12546 O 1213.33 -2.11724 -1.69957 0
M  V30 12547 C 1211.79 -3.57199 0.440124 0
M  V30 12548 C 1211.4 -4.07292 1.86594 0
M  V30 12549 C 1213.14 -4.24476 0.0449851 0
M  V30 12550 C 1211.05 -5.57229 1.98115 0
M  V30 12551 H 1209.98 -0.747481 0.0989383 0
M  V30 12552 H 1212.63 -1.59645 0.904755 0
M  V30 12553 H 1211.01 -3.95153 -0.25881 0
M  V30 12554 H 1212.18 -3.80679 2.59654 0
M  V30 12555 H 1210.5 -3.52665 2.21397 0
M  V30 12556 H 1213.1 -5.34587 0.110126 0
M  V30 12557 H 1213.44 -4.04129 -0.999269 0
M  V30 12558 H 1213.97 -3.91683 0.694942 0
M  V30 12559 H 1210.71 -5.82452 3.00716 0
M  V30 12560 H 1210.23 -5.85656 1.29487 0
M  V30 12561 H 1211.91 -6.22584 1.76063 0
M  V30 12562 N 1212.04 -0.478751 -1.50152 0
M  V30 12563 C 1213.27 0.0732929 -2.0727 0
M  V30 12564 C 1213.69 1.32066 -1.33941 0
M  V30 12565 O 1213.05 1.7707 -0.389367 0
M  V30 12566 C 1213.1 0.332528 -3.59064 0
M  V30 12567 O 1212.2 1.41158 -3.8749 0
M  V30 12568 H 1211.54 -0.0163684 -0.663798 0
M  V30 12569 H 1214.07 -0.671993 -1.9325 0
M  V30 12570 H 1214.08 0.570735 -4.03988 0
M  V30 12571 H 1212.76 -0.578934 -4.11851 0
M  V30 12572 H 1211.34 1.16008 -3.54396 0
M  V30 12573 N 1213.52 1.56172 -0.211661 0
M  V30 12574 C 1214.45 2.22843 0.697375 0
M  V30 12575 C 1215.43 1.19689 1.20866 0
M  V30 12576 O 1216.62 1.48245 1.25447 0
M  V30 12577 C 1213.75 2.90067 1.90993 0
M  V30 12578 C 1212.7 3.99608 1.5329 0
M  V30 12579 C 1212.03 4.54078 2.82343 0
M  V30 12580 C 1213.33 5.17169 0.730333 0
M  V30 12581 H 1215.02 2.99065 0.141533 0
M  V30 12582 H 1212.57 1.43846 0.0666337 0
M  V30 12583 H 1214.52 3.35396 2.55123 0
M  V30 12584 H 1213.24 2.11276 2.49058 0
M  V30 12585 H 1211.9 3.54995 0.915115 0
M  V30 12586 H 1211.55 3.72029 3.38531 0
M  V30 12587 H 1211.25 5.28001 2.57853 0
M  V30 12588 H 1212.77 5.02119 3.47432 0
M  V30 12589 H 1214.19 5.5894 1.2751 0
M  V30 12590 H 1212.59 5.97262 0.582916 0
M  V30 12591 H 1213.66 4.84174 -0.265157 0
M  V30 12592 N 1215 -0.0618163 1.57479 0
M  V30 12593 C 1215.96 -1.05684 2.0338 0
M  V30 12594 C 1216.96 -1.31006 0.932423 0
M  V30 12595 O 1218.15 -1.26559 1.19702 0
M  V30 12596 C 1215.28 -2.39805 2.42294 0
M  V30 12597 H 1216.48 -0.661006 2.92525 0
M  V30 12598 H 1214.03 -0.307814 1.53239 0
M  V30 12599 H 1214.76 -2.84201 1.56207 0
M  V30 12600 H 1214.55 -2.22764 3.22674 0
M  V30 12601 H 1216.04 -3.11307 2.78349 0
M  V30 12602 N 1216.48 -1.54033 -0.333429 0
M  V30 12603 C 1217.71 -1.75461 -1.09073 0
M  V30 12604 C 1218.11 -0.498488 -1.82515 0
M  V30 12605 O 1217.46 0.540029 -1.75583 0
M  V30 12606 C 1217.52 -2.88744 -2.14166 0
M  V30 12607 C 1217.18 -4.27998 -1.60209 0
M  V30 12608 C 1218.18 -5.09206 -1.04907 0
M  V30 12609 C 1215.87 -4.74513 -1.6475 0
M  V30 12610 C 1217.86 -6.35035 -0.548615 0
M  V30 12611 C 1215.55 -6.00312 -1.14318 0
M  V30 12612 C 1216.54 -6.80406 -0.594667 0
M  V30 12613 O 1216.23 -8.0384 -0.097891 0
M  V30 12614 H 1215.96 -0.589586 -0.330702 0
M  V30 12615 H 1218.52 -2.01697 -0.388274 0
M  V30 12616 H 1216.75 -2.58057 -2.87999 0
M  V30 12617 H 1218.44 -2.98048 -2.7554 0
M  V30 12618 H 1219.2 -4.74428 -1.00713 0
M  V30 12619 H 1215.08 -4.12222 -2.06384 0
M  V30 12620 H 1218.63 -6.97497 -0.119823 0
M  V30 12621 H 1214.52 -6.34583 -1.18215 0
M  V30 12622 H 1215.29 -8.1822 -0.214237 0
M  V30 12623 N 1217.95 0.594978 -1.45938 0
M  V30 12624 C 1218.86 1.73296 -1.58132 0
M  V30 12625 C 1219.88 1.67665 -0.465245 0
M  V30 12626 O 1221.06 1.87794 -0.727684 0
M  V30 12627 C 1218.12 3.09783 -1.55677 0
M  V30 12628 C 1217.18 3.26772 -2.78422 0
M  V30 12629 C 1216.42 4.56748 -2.76075 0
M  V30 12630 O 1216.64 5.39867 -1.84119 0
M  V30 12631 O 1215.57 4.76721 -3.67452 0
M  V30 12632 H 1219.4 1.65957 -2.54346 0
M  V30 12633 H 1216.98 0.760572 -1.28591 0
M  V30 12634 H 1218.87 3.91077 -1.56961 0
M  V30 12635 H 1217.54 3.17585 -0.626191 0
M  V30 12636 H 1216.45 2.45018 -2.82696 0
M  V30 12637 H 1217.78 3.23853 -3.70648 0
M  V30 12638 N 1219.43 1.33438 0.838571 0
M  V30 12639 C 1220.36 1.19552 1.9555 0
M  V30 12640 C 1221.38 0.12642 1.62308 0
M  V30 12641 O 1222.57 0.376868 1.74476 0
M  V30 12642 C 1219.67 0.811273 3.29046 0
M  V30 12643 C 1218.84 1.97207 3.9042 0
M  V30 12644 C 1217.9 1.56875 5.02271 0
M  V30 12645 O 1216.92 2.28314 5.21403 0
M  V30 12646 N 1218.13 0.473924 5.78562 0
M  V30 12647 H 1220.89 2.15769 2.07999 0
M  V30 12648 H 1218.45 1.26187 1.01432 0
M  V30 12649 H 1220.44 0.523553 4.01299 0
M  V30 12650 H 1219.01 -0.0602291 3.12542 0
M  V30 12651 H 1218.23 2.4254 3.10754 0
M  V30 12652 H 1219.52 2.74878 4.28158 0
M  V30 12653 H 1218.92 -0.120306 5.65572 0
M  V30 12654 H 1217.48 0.245877 6.51336 0
M  V30 12655 N 1220.91 -1.05686 1.16912 0
M  V30 12656 C 1221.87 -2.11481 0.883647 0
M  V30 12657 C 1222.87 -1.60321 -0.124034 0
M  V30 12658 O 1224.06 -1.73868 0.107566 0
M  V30 12659 C 1221.2 -3.3937 0.322649 0
M  V30 12660 H 1222.39 -2.38239 1.8216 0
M  V30 12661 H 1219.94 -1.2185 0.978895 0
M  V30 12662 H 1220.68 -3.18266 -0.622695 0
M  V30 12663 H 1220.46 -3.77812 1.04883 0
M  V30 12664 H 1221.95 -4.17362 0.141072 0
M  V30 12665 N 1222.39 -0.968567 -1.24324 0
M  V30 12666 C 1223.3 -0.50703 -2.29055 0
M  V30 12667 C 1224.31 0.432431 -1.68541 0
M  V30 12668 O 1225.49 0.30526 -1.99073 0
M  V30 12669 C 1222.56 0.194589 -3.46153 0
M  V30 12670 C 1221.62 -0.784805 -4.22066 0
M  V30 12671 C 1220.85 -0.116574 -5.33573 0
M  V30 12672 O 1221.07 1.09492 -5.59792 0
M  V30 12673 O 1220.01 -0.809171 -5.96436 0
M  V30 12674 H 1223.83 -1.3777 -2.70653 0
M  V30 12675 H 1221.42 -0.735645 -1.30033 0
M  V30 12676 H 1223.3 0.588684 -4.17268 0
M  V30 12677 H 1221.97 1.04021 -3.06531 0
M  V30 12678 H 1220.88 -1.22938 -3.53323 0
M  V30 12679 H 1222.21 -1.59887 -4.65507 0
M  V30 12680 N 1223.87 1.39211 -0.738786 0
M  V30 12681 C 1225.09 2.05256 -0.297421 0
M  V30 12682 C 1225.52 1.55341 1.06069 0
M  V30 12683 O 1224.87 0.698823 1.67291 0
M  V30 12684 C 1224.92 3.59239 -0.312969 0
M  V30 12685 O 1224.03 4.06448 0.698112 0
M  V30 12686 H 1223.37 0.650245 -0.134454 0
M  V30 12687 H 1225.9 1.78173 -1.00577 0
M  V30 12688 H 1225.91 4.07691 -0.158675 0
M  V30 12689 H 1224.58 3.94931 -1.30394 0
M  V30 12690 H 1223.16 3.69401 0.509643 0
M  V30 12691 N 1225.34 0.486708 1.49896 0
M  V30 12692 C 1226.62 -0.125183 1.95199 0
M  V30 12693 C 1227 -1.55498 1.42771 0
M  V30 12694 O 1226.35 -2.1949 0.635322 0
M  V30 12695 C 1226.56 -0.0524982 3.48961 0
M  V30 12696 C 1227.91 -0.233595 4.23957 0
M  V30 12697 O 1228.93 -0.128357 3.55969 0
M  V30 12698 O 1227.79 -0.447862 5.44662 0
M  V30 12699 H 1224.88 -0.103141 0.820543 0
M  V30 12700 H 1227.43 0.548226 1.60601 0
M  V30 12701 H 1226.2 0.945163 3.79714 0
M  V30 12702 H 1225.83 -0.766683 3.90138 0
M  V30 12703 N 1226.82 -1.56058 0.219941 0
M  V30 12704 C 1228.07 -1.97436 -0.412543 0
M  V30 12705 C 1228.39 -1.11058 -1.61014 0
M  V30 12706 O 1229.59 -1.42328 -2.31203 0
M  V30 12707 C 1228.05 -3.51227 -0.785362 0
M  V30 12708 C 1227.66 -4.46305 0.389328 0
M  V30 12709 C 1229.4 -4.01321 -1.38354 0
M  V30 12710 C 1227.31 -5.914 -0.00583531 0
M  V30 12711 H 1226.24 -0.73728 -0.157906 0
M  V30 12712 H 1228.89 -1.8076 0.315898 0
M  V30 12713 H 1227.27 -3.63497 -1.57118 0
M  V30 12714 H 1228.44 -4.45781 1.16686 0
M  V30 12715 H 1226.76 -4.06543 0.900633 0
M  V30 12716 H 1229.36 -5.07221 -1.69207 0
M  V30 12717 H 1229.7 -3.47077 -2.29876 0
M  V30 12718 H 1230.23 -3.92267 -0.66119 0
M  V30 12719 H 1226.97 -6.49623 0.87583 0
M  V30 12720 H 1226.49 -5.95121 -0.74772 0
M  V30 12721 H 1228.17 -6.45549 -0.43308 0
M  V30 12722 N 1228.3 0.053464 -1.57509 0
M  V30 12723 C 1229.23 1.09391 -2.00272 0
M  V30 12724 C 1230.21 1.36553 -0.882727 0
M  V30 12725 O 1231.4 1.4962 -1.14657 0
M  V30 12726 C 1228.52 2.43424 -2.35505 0
M  V30 12727 C 1227.57 2.32278 -3.577 0
M  V30 12728 S 1228.4 1.69939 -5.0782 0
M  V30 12729 C 1229.56 3.05512 -5.46272 0
M  V30 12730 H 1229.79 0.729569 -2.88209 0
M  V30 12731 H 1227.32 0.262633 -1.5215 0
M  V30 12732 H 1229.28 3.20515 -2.56477 0
M  V30 12733 H 1227.94 2.77013 -1.48064 0
M  V30 12734 H 1227.14 3.31165 -3.79928 0
M  V30 12735 H 1226.74 1.63327 -3.36453 0
M  V30 12736 H 1229.03 4.0184 -5.45464 0
M  V30 12737 H 1229.97 2.88043 -6.46867 0
M  V30 12738 H 1230.38 3.06962 -4.73745 0
M  V30 12739 N 1229.78 1.54207 0.325255 0
M  V30 12740 C 1230.73 1.83474 1.40021 0
M  V30 12741 C 1231.7 0.681719 1.51466 0
M  V30 12742 O 1232.88 0.92798 1.66713 0
M  V30 12743 C 1230.02 2.06624 2.76407 0
M  V30 12744 C 1229.13 3.3431 2.73607 0
M  V30 12745 C 1228.27 3.4743 4.01828 0
M  V30 12746 C 1227.31 4.68997 3.93329 0
M  V30 12747 N 1226.45 4.79052 5.13277 0
M  V30 12748 H 1231.29 2.75182 1.14363 0
M  V30 12749 H 1228.82 1.36284 0.553639 0
M  V30 12750 H 1230.78 2.18037 3.5569 0
M  V30 12751 H 1229.41 1.18209 3.00377 0
M  V30 12752 H 1228.46 3.31643 1.86324 0
M  V30 12753 H 1229.77 4.237 2.6321 0
M  V30 12754 H 1228.93 3.58376 4.89542 0
M  V30 12755 H 1227.67 2.56128 4.1503 0
M  V30 12756 H 1226.67 4.58109 3.04 0
M  V30 12757 H 1227.9 5.61681 3.81695 0
M  V30 12758 H 1225.84 3.90666 5.26988 0
M  V30 12759 H 1225.76 5.62406 5.05208 0
M  V30 12760 H 1227.03 4.94328 6.02711 0
M  V30 12761 N 1231.26 -0.58723 1.46251 0
M  V30 12762 C 1232.67 -0.910129 1.31106 0
M  V30 12763 C 1232.87 -1.99557 0.279141 0
M  V30 12764 O 1231.93 -2.50466 -0.319867 0
M  V30 12765 C 1233.24 -1.33177 2.69601 0
M  V30 12766 C 1234.79 -1.44486 2.77656 0
M  V30 12767 C 1235.27 -1.90018 4.16722 0
M  V30 12768 N 1236.76 -1.97219 4.19117 0
M  V30 12769 C 1237.49 -2.33714 5.23608 0
M  V30 12770 N 1236.99 -2.69034 6.3843 0
M  V30 12771 N 1238.78 -2.3423 5.10972 0
M  V30 12772 H 1230.93 0.12987 2.12003 0
M  V30 12773 H 1233.19 -0.00456718 0.947989 0
M  V30 12774 H 1232.9 -0.608243 3.464 0
M  V30 12775 H 1232.77 -2.29421 2.99409 0
M  V30 12776 H 1235.16 -2.15926 2.01147 0
M  V30 12777 H 1235.24 -0.465047 2.51537 0
M  V30 12778 H 1234.89 -1.19159 4.93724 0
M  V30 12779 H 1234.82 -2.88949 4.40245 0
M  V30 12780 H 1237.31 -1.72431 3.36268 0
M  V30 12781 H 1237.62 -2.95822 7.13939 0
M  V30 12782 H 1235.97 -2.66683 6.41798 0
M  V30 12783 H 1239.16 -2.06056 4.20308 0
M  V30 12784 H 1239.33 -2.62345 5.92519 0
M  V30 12785 N 1232.74 -1.33881 -0.831482 0
M  V30 12786 C 1233.67 -1.20587 -1.94914 0
M  V30 12787 C 1234.68 -0.135026 -1.62239 0
M  V30 12788 O 1235.87 -0.386116 -1.74274 0
M  V30 12789 C 1232.97 -0.828712 -3.28612 0
M  V30 12790 C 1232.14 -1.99275 -3.89369 0
M  V30 12791 C 1231.2 -1.59537 -5.01432 0
M  V30 12792 O 1230.23 -2.31076 -5.20185 0
M  V30 12793 N 1231.43 -0.5046 -5.78303 0
M  V30 12794 H 1234.19 -2.16869 -2.06852 0
M  V30 12795 H 1231.76 -1.26723 -1.00761 0
M  V30 12796 H 1233.75 -0.544827 -4.01016 0
M  V30 12797 H 1232.32 0.0436534 -3.1257 0
M  V30 12798 H 1231.54 -2.44185 -3.09463 0
M  V30 12799 H 1232.83 -2.77145 -4.26694 0
M  V30 12800 H 1232.22 0.0903105 -5.65628 0
M  V30 12801 H 1230.78 -0.280415 -6.51197 0
M  V30 12802 N 1234.21 1.05064 -1.1747 0
M  V30 12803 C 1235.62 1.59547 -0.969628 0
M  V30 12804 C 1235.98 1.90153 0.483332 0
M  V30 12805 O 1235.1 1.68415 1.35887 0
M  V30 12806 C 1235.7 2.89877 -1.75377 0
M  V30 12807 C 1234.25 3.41013 -1.59332 0
M  V30 12808 C 1233.4 2.1473 -1.7546 0
M  V30 12809 H 1236.35 0.878595 -1.3216 0
M  V30 12810 H 1236.37 3.59834 -1.23691 0
M  V30 12811 H 1235.89 2.67569 -2.8112 0
M  V30 12812 H 1233.99 3.68355 -0.560827 0
M  V30 12813 H 1234.1 4.15512 -2.38509 0
M  V30 12814 H 1232.46 2.25553 -1.18313 0
M  V30 12815 H 1233.25 1.9489 -2.82618 0
M  V30 12816 N 1235.69 0.975146 1.23809 0
M  V30 12817 C 1237.11 0.682899 1.44252 0
M  V30 12818 C 1237.31 -0.752739 1.86912 0
M  V30 12819 O 1236.36 -1.52579 2.01186 0
M  V30 12820 C 1237.68 1.67335 2.49839 0
M  V30 12821 C 1239.22 1.6868 2.63659 0
M  V30 12822 C 1239.7 2.66542 3.72451 0
M  V30 12823 N 1241.19 2.65028 3.79887 0
M  V30 12824 C 1241.93 3.37421 4.63611 0
M  V30 12825 N 1241.42 4.19355 5.51465 0
M  V30 12826 N 1243.21 3.2621 4.57759 0
M  V30 12827 H 1235.37 1.9026 0.94418 0
M  V30 12828 H 1237.63 0.819543 0.476502 0
M  V30 12829 H 1237.33 2.69978 2.25399 0
M  V30 12830 H 1237.21 1.45201 3.48133 0
M  V30 12831 H 1239.6 0.667438 2.87453 0
M  V30 12832 H 1239.68 1.94878 1.65699 0
M  V30 12833 H 1239.32 3.68617 3.49405 0
M  V30 12834 H 1239.25 2.3762 4.69941 0
M  V30 12835 H 1241.74 2.05562 3.171 0
M  V30 12836 H 1242.05 4.71461 6.12327 0
M  V30 12837 H 1240.4 4.23447 5.51106 0
M  V30 12838 H 1243.59 2.61656 3.88142 0
M  V30 12839 H 1243.76 3.82889 5.22781 0
M  V30 12840 N 1237.17 -1.38817 0.746158 0
M  V30 12841 C 1238.12 -2.32373 0.102785 0
M  V30 12842 C 1239.11 -1.53638 -0.713556 0
M  V30 12843 O 1240.32 -1.69223 -0.613488 0
M  V30 12844 H 1236.69 -0.751861 0.0144405 0
M  V30 12845 H 1238.66 -2.84249 0.908032 0
M  V30 12846 C 1237.41 -3.38796 -0.781827 0
M  V30 12847 H 1236.74 -3.99467 -0.163057 0
M  V30 12848 H 1238.18 -4.06682 -1.19941 0
M  V30 12849 C 1236.63 -2.76756 -1.92113 0
M  V30 12850 O 1237.16 -2.65478 -3.0147 0
M  V30 12851 N 1235.37 -2.34676 -1.71392 0
M  V30 12852 H 1234.92 -2.44049 -0.824483 0
M  V30 12853 H 1234.88 -1.93508 -2.47794 0
M  V30 12854 N 1238.65 -0.49465 -1.49636 0
M  V30 12855 C 1240.06 -0.0452894 -1.86645 0
M  V30 12856 C 1240.41 1.36686 -1.40753 0
M  V30 12857 O 1239.53 2.01751 -0.78265 0
M  V30 12858 C 1240.13 -0.0754115 -3.38716 0
M  V30 12859 C 1238.69 0.318579 -3.75049 0
M  V30 12860 C 1237.84 -0.450712 -2.73613 0
M  V30 12861 H 1240.79 -0.707758 -1.42044 0
M  V30 12862 H 1240.81 0.721372 -3.73599 0
M  V30 12863 H 1240.32 -1.10331 -3.72087 0
M  V30 12864 H 1238.42 1.34995 -3.47285 0
M  V30 12865 H 1238.53 0.00354416 -4.791 0
M  V30 12866 H 1236.9 0.0986455 -2.54509 0
M  V30 12867 H 1237.68 -1.47857 -3.09828 0
M  V30 12868 N 1240.13 1.55939 -0.228214 0
M  V30 12869 C 1241.07 2.20581 0.679157 0
M  V30 12870 C 1242.04 1.16355 1.18536 0
M  V30 12871 O 1243.23 1.44735 1.24324 0
M  V30 12872 C 1240.37 2.89477 1.87875 0
M  V30 12873 C 1239.48 4.08313 1.41083 0
M  V30 12874 C 1238.62 4.64974 2.56851 0
M  V30 12875 C 1237.65 5.76098 2.06828 0
M  V30 12876 N 1236.79 6.27021 3.15894 0
M  V30 12877 H 1241.63 2.97753 0.121203 0
M  V30 12878 H 1239.17 1.47021 0.0480688 0
M  V30 12879 H 1241.13 3.2761 2.58317 0
M  V30 12880 H 1239.76 2.14811 2.40948 0
M  V30 12881 H 1238.81 3.75621 0.601102 0
M  V30 12882 H 1240.12 4.8859 1.00408 0
M  V30 12883 H 1239.27 5.05584 3.35365 0
M  V30 12884 H 1238.01 3.83875 3.00818 0
M  V30 12885 H 1237.02 5.34984 1.26778 0
M  V30 12886 H 1238.24 6.59037 1.63852 0
M  V30 12887 H 1236.19 5.48833 3.5933 0
M  V30 12888 H 1236.11 7.02439 2.79491 0
M  V30 12889 H 1237.37 6.72289 3.94523 0
M  V30 12890 N 1241.6 -0.0451101 1.57535 0
M  V30 12891 C 1242.83 -0.75132 1.92777 0
M  V30 12892 C 1243.25 -1.69743 0.826599 0
M  V30 12893 O 1242.6 -1.8142 -0.198224 0
M  V30 12894 C 1242.66 -1.52218 3.2789 0
M  V30 12895 O 1242.38 -0.614059 4.33775 0
M  V30 12896 C 1243.88 -2.32699 3.77314 0
M  V30 12897 H 1241.1 -0.21211 0.636593 0
M  V30 12898 H 1243.64 -0.0074174 2.04499 0
M  V30 12899 H 1241.8 -2.2181 3.17614 0
M  V30 12900 H 1242.21 -1.15294 5.11671 0
M  V30 12901 H 1243.68 -2.82205 4.7441 0
M  V30 12902 H 1244.16 -3.13414 3.07682 0
M  V30 12903 H 1244.77 -1.68212 3.90621 0
M  V30 12904 N 1243.08 -1.54377 -0.317073 0
M  V30 12905 C 1244.36 -1.63551 -1.07287 0
M  V30 12906 C 1244.74 -0.473499 -2.05721 0
M  V30 12907 O 1244.09 0.531545 -2.22232 0
M  V30 12908 C 1244.3 -3.00842 -1.76904 0
M  V30 12909 C 1245.65 -3.57111 -2.29689 0
M  V30 12910 O 1246.67 -3.0319 -1.86961 0
M  V30 12911 O 1245.53 -4.51486 -3.07932 0
M  V30 12912 H 1242.62 -0.662557 -0.494922 0
M  V30 12913 H 1245.17 -1.66723 -0.316444 0
M  V30 12914 H 1243.94 -3.76854 -1.05341 0
M  V30 12915 H 1243.56 -3.01377 -2.59341 0
M  V30 12916 N 1244.56 0.579466 -1.4656 0
M  V30 12917 C 1245.51 1.68829 -1.5737 0
M  V30 12918 C 1246.48 1.60759 -0.417825 0
M  V30 12919 O 1247.66 1.79923 -0.635001 0
M  V30 12920 C 1244.8 3.07166 -1.573 0
M  V30 12921 C 1243.92 3.25837 -2.83645 0
M  V30 12922 C 1243.05 4.54441 -2.75057 0
M  V30 12923 C 1242.09 4.66467 -3.96327 0
M  V30 12924 N 1241.23 5.86401 -3.86107 0
M  V30 12925 H 1246.07 1.58928 -2.52083 0
M  V30 12926 H 1243.6 0.774526 -1.25058 0
M  V30 12927 H 1245.56 3.8724 -1.55245 0
M  V30 12928 H 1244.19 3.15956 -0.661166 0
M  V30 12929 H 1243.24 2.39345 -2.95666 0
M  V30 12930 H 1244.56 3.30591 -3.73512 0
M  V30 12931 H 1243.71 5.42748 -2.71126 0
M  V30 12932 H 1242.45 4.52131 -1.82836 0
M  V30 12933 H 1241.45 3.76577 -4.00587 0
M  V30 12934 H 1242.68 4.70554 -4.89649 0
M  V30 12935 H 1240.62 5.85082 -2.96673 0
M  V30 12936 H 1240.54 5.92437 -4.69632 0
M  V30 12937 H 1241.81 6.7713 -3.86155 0
M  V30 12938 N 1246.04 1.3432 0.824371 0
M  V30 12939 C 1246.97 1.2842 1.95014 0
M  V30 12940 C 1247.95 0.161925 1.69328 0
M  V30 12941 O 1249.13 0.354052 1.90945 0
M  V30 12942 C 1246.26 1.03741 3.31444 0
M  V30 12943 C 1245.22 2.12419 3.71567 0
M  V30 12944 C 1244.54 1.72931 5.05963 0
M  V30 12945 C 1245.84 3.54235 3.83817 0
M  V30 12946 H 1247.54 2.22614 2.00209 0
M  V30 12947 H 1245.08 1.07165 0.961856 0
M  V30 12948 H 1247.04 0.982586 4.09784 0
M  V30 12949 H 1245.76 0.0598892 3.26545 0
M  V30 12950 H 1244.42 2.16968 2.955 0
M  V30 12951 H 1244.07 0.738433 4.9755 0
M  V30 12952 H 1243.77 2.45668 5.3378 0
M  V30 12953 H 1245.29 1.68941 5.86763 0
M  V30 12954 H 1246.71 3.52106 4.52432 0
M  V30 12955 H 1245.1 4.25581 4.23085 0
M  V30 12956 H 1246.17 3.91682 2.85856 0
M  V30 12957 N 1247.52 -1.0444 1.18026 0
M  V30 12958 C 1248.76 -1.77838 0.974756 0
M  V30 12959 C 1249.1 -1.87792 -0.494755 0
M  V30 12960 O 1248.37 -1.38327 -1.36733 0
M  V30 12961 C 1248.65 -3.21315 1.62569 0
M  V30 12962 C 1248.51 -3.19327 3.16781 0
M  V30 12963 C 1249.83 -4.19337 1.33583 0
M  V30 12964 H 1246.94 -0.645575 0.35553 0
M  V30 12965 H 1249.59 -1.22023 1.45638 0
M  V30 12966 H 1247.74 -3.68974 1.21617 0
M  V30 12967 H 1249.41 -2.79687 3.66842 0
M  V30 12968 H 1247.65 -2.57461 3.49137 0
M  V30 12969 H 1248.32 -4.20626 3.5746 0
M  V30 12970 H 1250.8 -3.80208 1.69059 0
M  V30 12971 H 1249.67 -5.17953 1.81702 0
M  V30 12972 H 1249.94 -4.41346 0.258016 0
M  V30 12973 N 1248.99 -0.981699 -1.2329 0
M  V30 12974 C 1249.94 -0.515432 -2.26817 0
M  V30 12975 C 1250.94 0.428204 -1.63899 0
M  V30 12976 O 1252.14 0.301954 -1.77449 0
M  V30 12977 H 1248.52 -0.148257 -0.737241 0
M  V30 12978 H 1250.49 -1.40027 -2.63505 0
M  V30 12979 C 1249.24 0.165266 -3.47307 0
M  V30 12980 H 1248.56 -0.55176 -3.95974 0
M  V30 12981 H 1250 0.45513 -4.2155 0
M  V30 12982 C 1248.46 1.39693 -3.06574 0
M  V30 12983 O 1248.99 2.49308 -3.14974 0
M  V30 12984 N 1247.2 1.26806 -2.61474 0
M  V30 12985 H 1246.74 0.376161 -2.54839 0
M  V30 12986 H 1246.7 2.09324 -2.34587 0
M  V30 12987 N 1250.47 1.3842 -0.753509 0
M  V30 12988 C 1251.38 2.34252 -0.127811 0
M  V30 12989 C 1252.4 1.59266 0.700743 0
M  V30 12990 O 1253.57 1.9146 0.624914 0
M  V30 12991 C 1250.64 3.38382 0.754886 0
M  V30 12992 C 1249.7 4.2921 -0.0880312 0
M  V30 12993 C 1248.93 5.28367 0.75263 0
M  V30 12994 O 1249.16 5.34537 1.99064 0
M  V30 12995 O 1248.09 6.01656 0.171475 0
M  V30 12996 H 1251.92 2.89454 -0.91925 0
M  V30 12997 H 1249.5 1.40265 -0.514404 0
M  V30 12998 H 1251.38 4.02141 1.25938 0
M  V30 12999 H 1250.06 2.85536 1.52482 0
M  V30 13000 H 1248.97 3.68611 -0.638468 0
M  V30 13001 H 1250.3 4.85311 -0.82062 0
M  V30 13002 N 1251.95 0.502579 1.49372 0
M  V30 13003 C 1253.37 0.158641 1.5881 0
M  V30 13004 C 1253.57 -1.33688 1.50764 0
M  V30 13005 O 1252.62 -2.11295 1.38241 0
M  V30 13006 C 1253.94 0.736843 2.91532 0
M  V30 13007 C 1255.48 0.703093 3.05001 0
M  V30 13008 C 1255.96 1.25938 4.40345 0
M  V30 13009 N 1257.45 1.22015 4.46841 0
M  V30 13010 C 1258.18 1.62076 5.50017 0
M  V30 13011 N 1257.68 2.09736 6.6029 0
M  V30 13012 N 1259.47 1.53482 5.4074 0
M  V30 13013 H 1251.62 1.47487 1.52844 0
M  V30 13014 H 1253.89 0.611851 0.724115 0
M  V30 13015 H 1253.59 1.78573 3.02992 0
M  V30 13016 H 1253.47 0.198178 3.76679 0
M  V30 13017 H 1255.85 -0.336965 2.9317 0
M  V30 13018 H 1255.94 1.27892 2.21534 0
M  V30 13019 H 1255.58 2.29823 4.52928 0
M  V30 13020 H 1255.51 0.659481 5.22454 0
M  V30 13021 H 1258 0.870957 3.67726 0
M  V30 13022 H 1258.31 2.3837 7.35119 0
M  V30 13023 H 1256.66 2.13712 6.61326 0
M  V30 13024 H 1259.85 1.16065 4.53483 0
M  V30 13025 H 1260.02 1.85026 6.21023 0
M  V30 13026 N 1253.43 -1.55816 0.23648 0
M  V30 13027 C 1254.36 -2.23924 -0.661834 0
M  V30 13028 C 1255.34 -1.21597 -1.18946 0
M  V30 13029 O 1256.52 -1.50222 -1.23073 0
M  V30 13030 C 1253.65 -2.93069 -1.86355 0
M  V30 13031 C 1252.61 -4.01996 -1.46913 0
M  V30 13032 C 1251.93 -4.58512 -2.75083 0
M  V30 13033 C 1253.23 -5.18265 -0.647964 0
M  V30 13034 H 1254.93 -2.99253 -0.0939368 0
M  V30 13035 H 1252.47 -1.43934 -0.0437407 0
M  V30 13036 H 1254.43 -3.39412 -2.49755 0
M  V30 13037 H 1253.15 -2.15212 -2.45665 0
M  V30 13038 H 1251.81 -3.56406 -0.858522 0
M  V30 13039 H 1251.46 -3.77368 -3.3257 0
M  V30 13040 H 1251.16 -5.32037 -2.49421 0
M  V30 13041 H 1252.68 -5.07583 -3.39399 0
M  V30 13042 H 1254.1 -5.60898 -1.18602 0
M  V30 13043 H 1252.49 -5.98114 -0.487823 0
M  V30 13044 H 1253.56 -4.83691 0.342151 0
M  V30 13045 N 1254.91 0.036755 -1.57557 0
M  V30 13046 C 1256.16 0.728107 -1.881 0
M  V30 13047 C 1256.47 1.7693 -0.833974 0
M  V30 13048 O 1257.67 2.5127 -1.02837 0
M  V30 13049 C 1256.13 1.34604 -3.33781 0
M  V30 13050 C 1255.74 0.341599 -4.46696 0
M  V30 13051 C 1257.48 2.01772 -3.73481 0
M  V30 13052 C 1255.39 0.967444 -5.83433 0
M  V30 13053 H 1254.32 0.275695 -0.701789 0
M  V30 13054 H 1256.97 -0.0177555 -1.83491 0
M  V30 13055 H 1255.35 2.14135 -3.3311 0
M  V30 13056 H 1256.53 -0.426441 -4.58823 0
M  V30 13057 H 1254.84 -0.227558 -4.15778 0
M  V30 13058 H 1257.44 2.49435 -4.72955 0
M  V30 13059 H 1257.78 2.83255 -3.05077 0
M  V30 13060 H 1258.31 1.29026 -3.76294 0
M  V30 13061 H 1255.05 0.19219 -6.55218 0
M  V30 13062 H 1254.57 1.70551 -5.75041 0
M  V30 13063 H 1256.25 1.47705 -6.29914 0
M  V30 13064 N 1256.39 1.54543 0.308881 0
M  V30 13065 C 1257.61 1.77753 1.06857 0
M  V30 13066 C 1258.04 0.531616 1.80431 0
M  V30 13067 O 1257.39 -0.517513 1.73757 0
M  V30 13068 C 1257.44 2.97968 2.03094 0
M  V30 13069 O 1256.55 2.70541 3.11257 0
M  V30 13070 H 1255.89 0.588576 0.307368 0
M  V30 13071 H 1258.42 2.01607 0.348703 0
M  V30 13072 H 1258.43 3.25722 2.45702 0
M  V30 13073 H 1257.1 3.88314 1.48948 0
M  V30 13074 H 1255.68 2.53781 2.7322 0
M  V30 13075 N 1257.86 -0.571685 1.46866 0
M  V30 13076 C 1258.8 -1.69502 1.52788 0
M  V30 13077 C 1259.77 -1.58071 0.381109 0
M  V30 13078 O 1260.96 -1.79132 0.586844 0
M  V30 13079 C 1258.09 -3.07642 1.41682 0
M  V30 13080 C 1257.13 -3.37562 2.6068 0
M  V30 13081 S 1257.96 -3.28413 4.22971 0
M  V30 13082 C 1259.12 -4.69073 4.14393 0
M  V30 13083 H 1259.35 -1.64221 2.47828 0
M  V30 13084 H 1256.89 -0.751334 1.34886 0
M  V30 13085 H 1258.84 -3.8733 1.35962 0
M  V30 13086 H 1257.51 -3.10403 0.480517 0
M  V30 13087 H 1256.7 -4.38233 2.48933 0
M  V30 13088 H 1256.3 -2.65464 2.63448 0
M  V30 13089 H 1258.59 -5.59706 3.81754 0
M  V30 13090 H 1259.54 -4.85877 5.15101 0
M  V30 13091 H 1259.94 -4.4644 3.45473 0
M  V30 13092 N 1259.34 -1.34755 -0.817236 0
M  V30 13093 C 1260.3 -1.26687 -1.91006 0
M  V30 13094 C 1261.3 -0.180745 -1.59781 0
M  V30 13095 O 1262.49 -0.433748 -1.68714 0
M  V30 13096 C 1259.63 -0.957293 -3.27183 0
M  V30 13097 H 1260.82 -2.23846 -1.99582 0
M  V30 13098 H 1258.37 -1.19125 -1.01187 0
M  V30 13099 H 1259.11 0.0108917 -3.24298 0
M  V30 13100 H 1258.89 -1.74297 -3.5123 0
M  V30 13101 H 1260.38 -0.926161 -4.072 0
M  V30 13102 N 1260.82 1.03812 -1.18578 0
M  V30 13103 C 1262.05 1.8044 -1.00623 0
M  V30 13104 C 1262.46 1.83808 0.448451 0
M  V30 13105 O 1261.8 1.27417 1.32328 0
M  V30 13106 C 1261.86 3.27266 -1.48785 0
M  V30 13107 C 1261.53 3.47553 -2.96742 0
M  V30 13108 C 1262.52 3.38533 -3.94578 0
M  V30 13109 C 1260.21 3.74067 -3.3523 0
M  V30 13110 C 1262.2 3.55735 -5.28896 0
M  V30 13111 C 1259.89 3.90916 -4.6971 0
M  V30 13112 C 1260.89 3.81751 -5.66352 0
M  V30 13113 O 1260.58 3.98115 -6.98398 0
M  V30 13114 H 1260.31 0.574996 -0.355465 0
M  V30 13115 H 1262.86 1.31708 -1.57614 0
M  V30 13116 H 1261.09 3.76979 -0.861613 0
M  V30 13117 H 1262.78 3.85461 -1.27181 0
M  V30 13118 H 1263.55 3.18011 -3.66189 0
M  V30 13119 H 1259.43 3.80298 -2.60566 0
M  V30 13120 H 1262.97 3.48498 -6.04314 0
M  V30 13121 H 1258.87 4.10934 -4.97799 0
M  V30 13122 H 1259.63 4.1526 -7.05338 0
M  V30 13123 N 1262.3 0.988223 1.22768 0
M  V30 13124 C 1263.55 0.660154 1.91014 0
M  V30 13125 C 1263.87 -0.809788 1.77391 0
M  V30 13126 O 1263.14 -1.57998 1.15817 0
M  V30 13127 H 1261.72 0.24118 0.706995 0
M  V30 13128 H 1264.38 1.25372 1.49224 0
M  V30 13129 H 1263.47 0.918603 2.98275 0
M  V30 13130 N 1263.78 -1.38018 0.760839 0
M  V30 13131 C 1264.71 -2.2899 0.0980916 0
M  V30 13132 C 1265.72 -1.48102 -0.675985 0
M  V30 13133 O 1266.91 -1.70883 -0.515878 0
M  V30 13134 C 1264.01 -3.27142 -0.884959 0
M  V30 13135 C 1263.18 -4.37081 -0.167 0
M  V30 13136 C 1262.24 -5.15375 -1.06184 0
M  V30 13137 O 1261.27 -5.6673 -0.529667 0
M  V30 13138 N 1262.47 -5.29052 -2.38924 0
M  V30 13139 H 1265.23 -2.86508 0.879403 0
M  V30 13140 H 1262.8 -1.49877 0.612245 0
M  V30 13141 H 1264.79 -3.764 -1.48678 0
M  V30 13142 H 1263.36 -2.70471 -1.5673 0
M  V30 13143 H 1262.58 -3.89363 0.615617 0
M  V30 13144 H 1263.87 -5.07732 0.329525 0
M  V30 13145 H 1263.26 -4.88892 -2.84607 0
M  V30 13146 H 1261.82 -5.81658 -2.94139 0
M  V30 13147 N 1265.25 -0.510493 -1.49103 0
M  V30 13148 C 1266.5 0.0325393 -2.01674 0
M  V30 13149 C 1266.82 1.37162 -1.39448 0
M  V30 13150 O 1268.02 2.00189 -1.83402 0
M  V30 13151 C 1266.48 0.108433 -3.59737 0
M  V30 13152 C 1266.09 -1.22458 -4.30939 0
M  V30 13153 C 1267.83 0.601326 -4.20219 0
M  V30 13154 C 1265.74 -1.11033 -5.80884 0
M  V30 13155 H 1264.67 0.0159333 -0.753832 0
M  V30 13156 H 1267.32 -0.651344 -1.71551 0
M  V30 13157 H 1265.7 0.856974 -3.86616 0
M  V30 13158 H 1266.87 -1.98715 -4.15751 0
M  V30 13159 H 1265.19 -1.65166 -3.82242 0
M  V30 13160 H 1267.79 0.704462 -5.30039 0
M  V30 13161 H 1268.13 1.60247 -3.84222 0
M  V30 13162 H 1268.66 -0.0909561 -3.97696 0
M  V30 13163 H 1265.4 -2.08603 -6.21422 0
M  V30 13164 H 1264.92 -0.388798 -5.98539 0
M  V30 13165 H 1266.6 -0.792949 -6.42123 0
M  V30 13166 N 1266.73 1.55688 -0.24474 0
M  V30 13167 C 1267.98 1.98498 0.379852 0
M  V30 13168 C 1268.3 1.13416 1.58625 0
M  V30 13169 O 1267.57 0.216456 1.947 0
M  V30 13170 H 1266.15 0.73312 0.143334 0
M  V30 13171 H 1268.81 1.91858 -0.343027 0
M  V30 13172 H 1267.91 3.04367 0.690463 0
M  V30 13173 N 1268.21 -0.0283989 1.57574 0
M  V30 13174 C 1269.14 -1.06191 2.01987 0
M  V30 13175 C 1270.12 -1.35131 0.90434 0
M  V30 13176 O 1271.3 -1.47777 1.17023 0
M  V30 13177 C 1268.43 -2.39646 2.39348 0
M  V30 13178 C 1267.48 -2.26558 3.6135 0
M  V30 13179 S 1268.31 -1.61839 5.10459 0
M  V30 13180 C 1269.47 -2.96783 5.51063 0
M  V30 13181 H 1269.7 -0.683625 2.89333 0
M  V30 13182 H 1267.23 -0.238394 1.52548 0
M  V30 13183 H 1269.19 -3.16394 2.61544 0
M  V30 13184 H 1267.85 -2.74622 1.52452 0
M  V30 13185 H 1267.04 -3.25079 3.85149 0
M  V30 13186 H 1266.65 -1.57954 3.39008 0
M  V30 13187 H 1268.94 -3.93111 5.51788 0
M  V30 13188 H 1269.88 -2.77716 6.51367 0
M  V30 13189 H 1270.29 -2.99386 4.78569 0
M  V30 13190 N 1269.69 -1.54705 -0.300681 0
M  V30 13191 C 1270.94 -1.73211 -1.03349 0
M  V30 13192 C 1271.25 -0.52518 -1.88418 0
M  V30 13193 O 1272.46 -0.592049 -2.64966 0
M  V30 13194 C 1270.91 -3.06453 -1.88717 0
M  V30 13195 C 1270.52 -4.34625 -1.0865 0
M  V30 13196 C 1272.26 -3.34317 -2.61595 0
M  V30 13197 C 1270.17 -5.58919 -1.93297 0
M  V30 13198 H 1269.1 -0.64556 -0.389574 0
M  V30 13199 H 1271.75 -1.81186 -0.290472 0
M  V30 13200 H 1270.13 -2.92443 -2.67008 0
M  V30 13201 H 1271.31 -4.59471 -0.349707 0
M  V30 13202 H 1269.62 -4.13699 -0.473521 0
M  V30 13203 H 1272.22 -4.2438 -3.25278 0
M  V30 13204 H 1272.56 -2.53207 -3.30442 0
M  V30 13205 H 1273.1 -3.493 -1.90354 0
M  V30 13206 H 1269.83 -6.42697 -1.2892 0
M  V30 13207 H 1269.35 -5.38258 -2.64647 0
M  V30 13208 H 1271.03 -5.96187 -2.51336 0
M  V30 13209 N 1271.17 0.563888 -1.47167 0
M  V30 13210 C 1272.1 1.68655 -1.55204 0
M  V30 13211 C 1273.11 1.56776 -0.438769 0
M  V30 13212 O 1274.3 1.63856 -0.708059 0
M  V30 13213 C 1271.4 3.07068 -1.43396 0
M  V30 13214 C 1270.57 3.44767 -2.69174 0
M  V30 13215 C 1269.63 4.62316 -2.51298 0
M  V30 13216 O 1268.66 4.67231 -3.2509 0
M  V30 13217 N 1269.86 5.58389 -1.58688 0
M  V30 13218 H 1272.63 1.62209 -2.52009 0
M  V30 13219 H 1270.19 0.750359 -1.43462 0
M  V30 13220 H 1272.18 3.83529 -1.29181 0
M  V30 13221 H 1270.75 3.07777 -0.546997 0
M  V30 13222 H 1269.97 2.57821 -2.98198 0
M  V30 13223 H 1271.26 3.66726 -3.52689 0
M  V30 13224 H 1270.65 5.57169 -0.978737 0
M  V30 13225 H 1269.21 6.34204 -1.50428 0
M  V30 13226 N 1272.64 1.35187 0.810078 0
M  V30 13227 C 1273.61 1.27698 1.90331 0
M  V30 13228 C 1274.61 0.189216 1.59683 0
M  V30 13229 O 1275.8 0.442689 1.68481 0
M  V30 13230 C 1272.93 0.974631 3.26671 0
M  V30 13231 H 1274.12 2.24902 1.98392 0
M  V30 13232 H 1271.68 1.1966 1.00554 0
M  V30 13233 H 1272.41 0.0063068 3.24299 0
M  V30 13234 H 1272.2 1.76158 3.50301 0
M  V30 13235 H 1273.69 0.947743 4.06703 0
M  V30 13236 N 1274.12 -1.03182 1.19127 0
M  V30 13237 C 1275.05 -2.13301 0.94999 0
M  V30 13238 C 1276.03 -1.69707 -0.115577 0
M  V30 13239 O 1277.22 -1.94161 0.0388395 0
M  V30 13240 C 1274.35 -3.43902 0.484637 0
M  V30 13241 C 1273.3 -4.01164 1.4917 0
M  V30 13242 C 1272.63 -5.2735 0.883537 0
M  V30 13243 C 1273.93 -4.36311 2.87107 0
M  V30 13244 H 1275.62 -2.33743 1.87095 0
M  V30 13245 H 1273.17 -1.12332 0.900977 0
M  V30 13246 H 1275.12 -4.20308 0.30315 0
M  V30 13247 H 1273.85 -3.23173 -0.471909 0
M  V30 13248 H 1272.5 -3.26849 1.66028 0
M  V30 13249 H 1272.15 -5.02936 -0.0804712 0
M  V30 13250 H 1271.85 -5.66624 1.55599 0
M  V30 13251 H 1273.38 -6.06425 0.71278 0
M  V30 13252 H 1274.79 -5.03666 2.73848 0
M  V30 13253 H 1273.19 -4.86659 3.51117 0
M  V30 13254 H 1274.26 -3.45743 3.39985 0
M  V30 13255 N 1275.6 -0.99472 -1.22242 0
M  V30 13256 C 1276.85 -0.670275 -1.90661 0
M  V30 13257 C 1277.17 0.800369 -1.77818 0
M  V30 13258 O 1276.44 1.57381 -1.16653 0
M  V30 13259 H 1275.02 -0.244925 -0.705706 0
M  V30 13260 H 1277.68 -1.26162 -1.48557 0
M  V30 13261 H 1276.78 -0.934408 -2.97784 0
M  V30 13262 N 1277.08 1.37613 -0.768148 0
M  V30 13263 C 1278.33 1.99384 -0.330187 0
M  V30 13264 C 1278.65 1.61283 1.09604 0
M  V30 13265 O 1277.92 0.876551 1.75195 0
M  V30 13266 H 1276.5 0.737445 -0.119095 0
M  V30 13267 H 1279.16 1.6815 -0.985476 0
M  V30 13268 H 1278.26 3.09462 -0.40494 0
M  V30 13269 N 1278.56 0.518393 1.4883 0
M  V30 13270 C 1279.8 -0.0199053 2.0249 0
M  V30 13271 C 1280.13 -1.35375 1.39657 0
M  V30 13272 O 1279.39 -1.88454 0.527586 0
M  V30 13273 C 1279.69 -0.203001 3.56823 0
M  V30 13274 C 1279.35 1.05502 4.38384 0
M  V30 13275 C 1278.01 1.39982 4.60389 0
M  V30 13276 C 1280.37 1.89042 4.85708 0
M  V30 13277 C 1277.69 2.57922 5.26966 0
M  V30 13278 C 1280.05 3.06151 5.53583 0
M  V30 13279 C 1278.71 3.40991 5.73831 0
M  V30 13280 H 1277.98 -0.00728388 0.740964 0
M  V30 13281 H 1280.63 0.682073 1.78941 0
M  V30 13282 H 1278.93 -0.987653 3.79147 0
M  V30 13283 H 1280.63 -0.634234 3.95953 0
M  V30 13284 H 1277.22 0.77647 4.21508 0
M  V30 13285 H 1281.4 1.63716 4.6852 0
M  V30 13286 H 1276.66 2.85132 5.40842 0
M  V30 13287 H 1280.83 3.71198 5.89224 0
M  V30 13288 H 1278.46 4.32479 6.25193 0
M  V30 13289 N 1280.03 -1.55556 0.252993 0
M  V30 13290 C 1281.28 -1.9909 -0.37005 0
M  V30 13291 C 1281.61 -1.1412 -1.57502 0
M  V30 13292 O 1280.86 -0.193471 -1.94741 0
M  V30 13293 C 1281.16 -3.47925 -0.817484 0
M  V30 13294 C 1280.83 -4.50027 0.280398 0
M  V30 13295 C 1279.49 -4.77669 0.581914 0
M  V30 13296 C 1281.84 -5.11096 1.02129 0
M  V30 13297 C 1279.17 -5.63652 1.62829 0
M  V30 13298 C 1281.52 -5.98215 2.05723 0
M  V30 13299 C 1280.19 -6.24186 2.36533 0
M  V30 13300 H 1279.46 -0.728522 -0.135411 0
M  V30 13301 H 1282.1 -1.88046 0.36209 0
M  V30 13302 H 1280.41 -3.56333 -1.62893 0
M  V30 13303 H 1282.11 -3.79001 -1.30993 0
M  V30 13304 H 1278.7 -4.28585 0.0352579 0
M  V30 13305 H 1282.88 -4.89784 0.801603 0
M  V30 13306 H 1278.14 -5.82028 1.87227 0
M  V30 13307 H 1282.31 -6.44575 2.6362 0
M  V30 13308 H 1279.94 -6.90607 3.17752 0
M  V30 13309 N 1281.51 0.0200419 -1.57587 0
M  V30 13310 C 1282.74 0.720556 -1.93947 0
M  V30 13311 C 1283.16 1.68407 -0.853499 0
M  V30 13312 O 1282.51 1.81713 0.169337 0
M  V30 13313 C 1282.56 1.46982 -3.3027 0
M  V30 13314 O 1282.28 0.544971 -4.34697 0
M  V30 13315 C 1283.79 2.26667 -3.80968 0
M  V30 13316 H 1281.01 0.201956 -0.639887 0
M  V30 13317 H 1283.55 -0.0251175 -2.04485 0
M  V30 13318 H 1281.7 2.16729 -3.21103 0
M  V30 13319 H 1282.12 1.07139 -5.13441 0
M  V30 13320 H 1283.59 2.74621 -4.78839 0
M  V30 13321 H 1284.07 3.0848 -3.12629 0
M  V30 13322 H 1284.68 1.61976 -3.93248 0
M  V30 13323 N 1282.99 1.54862 0.292472 0
M  V30 13324 C 1284.22 1.78291 1.04383 0
M  V30 13325 C 1284.63 0.546703 1.81129 0
M  V30 13326 O 1283.97 -0.493286 1.76953 0
M  V30 13327 C 1284.03 2.94321 2.06435 0
M  V30 13328 C 1283.7 4.32095 1.48806 0
M  V30 13329 C 1284.69 5.11808 0.91369 0
M  V30 13330 C 1282.38 4.78714 1.52112 0
M  V30 13331 C 1284.37 6.36266 0.380053 0
M  V30 13332 C 1282.06 6.03132 0.983613 0
M  V30 13333 C 1283.06 6.81744 0.41406 0
M  V30 13334 O 1282.75 8.03817 -0.115268 0
M  V30 13335 H 1282.48 0.598147 0.314954 0
M  V30 13336 H 1285.03 2.02655 0.334661 0
M  V30 13337 H 1283.26 2.65602 2.81056 0
M  V30 13338 H 1284.95 3.05249 2.67541 0
M  V30 13339 H 1285.72 4.76931 0.880988 0
M  V30 13340 H 1281.6 4.17549 1.95382 0
M  V30 13341 H 1285.14 6.9757 -0.0651481 0
M  V30 13342 H 1281.04 6.37494 1.01349 0
M  V30 13343 H 1281.81 8.185 -0.00277496 0
M  V30 13344 N 1284.47 -0.556076 1.47464 0
M  V30 13345 C 1285.72 -1.3132 1.54147 0
M  V30 13346 C 1286.04 -1.93425 0.204221 0
M  V30 13347 O 1285.3 -1.78467 -0.803002 0
M  V30 13348 C 1285.6 -2.44298 2.6087 0
M  V30 13349 C 1285.26 -2.00016 4.04109 0
M  V30 13350 C 1283.93 -1.87656 4.43101 0
M  V30 13351 C 1286.28 -1.66228 4.93981 0
M  V30 13352 C 1283.61 -1.39805 5.698 0
M  V30 13353 C 1285.96 -1.19848 6.21144 0
M  V30 13354 C 1284.62 -1.06084 6.59016 0
M  V30 13355 H 1283.89 -0.480534 0.564064 0
M  V30 13356 H 1286.54 -0.623449 1.81067 0
M  V30 13357 H 1284.84 -3.18834 2.27711 0
M  V30 13358 H 1286.54 -3.02479 2.63263 0
M  V30 13359 H 1283.13 -2.1058 3.73302 0
M  V30 13360 H 1287.31 -1.7465 4.64555 0
M  V30 13361 H 1282.57 -1.27814 5.97891 0
M  V30 13362 H 1286.74 -0.927657 6.90194 0
M  V30 13363 H 1284.37 -0.687834 7.57082 0
M  V30 13364 N 1285.95 -1.35615 -0.802897 0
M  V30 13365 C 1287.19 -1.29285 -1.56247 0
M  V30 13366 C 1287.53 0.131474 -1.93754 0
M  V30 13367 O 1286.8 1.08172 -1.61645 0
M  V30 13368 C 1287.08 -2.20285 -2.84863 0
M  V30 13369 C 1286.94 -3.71351 -2.53808 0
M  V30 13370 C 1288.26 -2.10318 -3.86593 0
M  V30 13371 H 1285.38 -0.470972 -0.566882 0
M  V30 13372 H 1288.02 -1.66048 -0.923469 0
M  V30 13373 H 1286.17 -1.89063 -3.39393 0
M  V30 13374 H 1287.84 -4.13031 -2.05433 0
M  V30 13375 H 1286.08 -3.9145 -1.86947 0
M  V30 13376 H 1286.75 -4.30416 -3.4561 0
M  V30 13377 H 1289.23 -2.37772 -3.41473 0
M  V30 13378 H 1288.11 -2.76183 -4.74357 0
M  V30 13379 H 1288.37 -1.08627 -4.28547 0
M  V30 13380 N 1287.43 1.02549 -1.19673 0
M  V30 13381 C 1288.67 1.75408 -0.995732 0
M  V30 13382 C 1288.99 1.89773 0.473863 0
M  V30 13383 O 1290.19 2.59638 0.793762 0
M  V30 13384 C 1288.65 3.15444 -1.73273 0
M  V30 13385 C 1288.26 3.09121 -3.24266 0
M  V30 13386 C 1290 3.92575 -1.61509 0
M  V30 13387 C 1287.91 4.44109 -3.9054 0
M  V30 13388 H 1286.84 0.657569 -0.368944 0
M  V30 13389 H 1289.49 1.14739 -1.43203 0
M  V30 13390 H 1287.87 3.76601 -1.22425 0
M  V30 13391 H 1289.05 2.57325 -3.82257 0
M  V30 13392 H 1287.36 2.45485 -3.36342 0
M  V30 13393 H 1289.96 4.92428 -2.08372 0
M  V30 13394 H 1290.3 4.12382 -0.569804 0
M  V30 13395 H 1290.83 3.38027 -2.09721 0
M  V30 13396 H 1287.57 4.29506 -4.95182 0
M  V30 13397 H 1287.09 4.95947 -3.37337 0
M  V30 13398 H 1288.77 5.12982 -3.94282 0
M  V30 13399 N 1288.9 1.00119 1.21713 0
M  V30 13400 C 1289.83 0.578504 2.2622 0
M  V30 13401 C 1290.81 -0.398777 1.6536 0
M  V30 13402 O 1292 -0.287596 1.92059 0
M  V30 13403 C 1289.13 -0.0994508 3.47158 0
M  V30 13404 C 1288.08 0.79722 4.2051 0
M  V30 13405 C 1287.41 -0.0141125 5.34698 0
M  V30 13406 C 1288.71 2.09802 4.7831 0
M  V30 13407 H 1290.4 1.45208 2.6183 0
M  V30 13408 H 1287.95 0.699656 1.2586 0
M  V30 13409 H 1289.9 -0.406605 4.19434 0
M  V30 13410 H 1288.63 -1.00763 3.10667 0
M  V30 13411 H 1287.29 1.08814 3.50079 0
M  V30 13412 H 1286.93 -0.923468 4.9445 0
M  V30 13413 H 1286.63 0.582883 5.84702 0
M  V30 13414 H 1288.16 -0.31517 6.09786 0
M  V30 13415 H 1289.57 1.85427 5.42485 0
M  V30 13416 H 1287.97 2.64455 5.38687 0
M  V30 13417 H 1289.04 2.77132 3.97902 0
M  V30 13418 N 1290.38 -1.37203 0.775435 0
M  V30 13419 C 1291.34 -2.28566 0.170406 0
M  V30 13420 C 1292.34 -1.48195 -0.624085 0
M  V30 13421 O 1293.53 -1.68364 -0.447132 0
M  V30 13422 C 1290.67 -3.32186 -0.765829 0
M  V30 13423 H 1291.86 -2.8358 0.975824 0
M  V30 13424 H 1289.41 -1.46531 0.543895 0
M  V30 13425 H 1290.15 -2.82303 -1.59611 0
M  V30 13426 H 1289.93 -3.91598 -0.198251 0
M  V30 13427 H 1291.42 -4.0045 -1.18446 0
M  V30 13428 N 1291.86 -0.526279 -1.48553 0
M  V30 13429 C 1292.77 0.24244 -2.33344 0
M  V30 13430 C 1293.79 0.942658 -1.46253 0
M  V30 13431 O 1294.96 0.91844 -1.79239 0
M  V30 13432 C 1292.03 1.27801 -3.22285 0
M  V30 13433 C 1291.09 0.588543 -4.25247 0
M  V30 13434 C 1290.32 1.57478 -5.09938 0
M  V30 13435 O 1290.54 2.80707 -4.96548 0
M  V30 13436 O 1289.48 1.11621 -5.9146 0
M  V30 13437 H 1293.3 -0.452262 -3.00314 0
M  V30 13438 H 1290.89 -0.287249 -1.46613 0
M  V30 13439 H 1292.77 1.87656 -3.7731 0
M  V30 13440 H 1291.45 1.95519 -2.57981 0
M  V30 13441 H 1290.35 -0.0504022 -3.74066 0
M  V30 13442 H 1291.69 -0.046627 -4.92178 0
M  V30 13443 N 1293.34 1.5542 -0.261239 0
M  V30 13444 C 1294.29 2.23382 0.648324 0
M  V30 13445 C 1295.28 1.22615 1.16884 0
M  V30 13446 O 1296.49 1.40587 1.12407 0
M  V30 13447 H 1292.86 0.716733 0.227592 0
M  V30 13448 H 1294.83 2.98354 0.0521289 0
M  V30 13449 C 1293.58 2.9579 1.82766 0
M  V30 13450 H 1292.9 3.73109 1.4363 0
M  V30 13451 H 1294.34 3.46686 2.441 0
M  V30 13452 C 1292.8 2.00472 2.70763 0
M  V30 13453 O 1293.33 1.54698 3.70717 0
M  V30 13454 N 1291.54 1.67267 2.37635 0
M  V30 13455 H 1291.09 2.04685 1.56402 0
M  V30 13456 H 1291.04 1.03759 2.96785 0
M  V30 13457 N 1294.82 -0.0116844 1.57596 0
M  V30 13458 C 1296.06 -0.697577 1.89679 0
M  V30 13459 C 1296.38 -1.74956 0.861122 0
M  V30 13460 O 1295.65 -1.95629 -0.103031 0
M  V30 13461 H 1294.23 -0.26064 0.700054 0
M  V30 13462 H 1296.9 0.0264782 1.94882 0
M  V30 13463 H 1295.99 -1.17621 2.89088 0
M  V30 13464 N 1296.29 -1.55015 -0.284256 0
M  V30 13465 C 1297.54 -1.7509 -1.01733 0
M  V30 13466 C 1297.87 -0.545803 -1.86685 0
M  V30 13467 O 1297.12 0.471951 -1.89924 0
M  V30 13468 C 1297.42 -3.00246 -1.93874 0
M  V30 13469 C 1297.09 -4.33295 -1.24764 0
M  V30 13470 C 1295.75 -4.69459 -1.0565 0
M  V30 13471 C 1298.1 -5.15704 -0.754939 0
M  V30 13472 C 1295.43 -5.85596 -0.35976 0
M  V30 13473 C 1297.78 -6.32559 -0.0718473 0
M  V30 13474 C 1296.45 -6.67371 0.131104 0
M  V30 13475 H 1295.72 -0.6407 -0.372269 0
M  V30 13476 H 1298.36 -1.89282 -0.290638 0
M  V30 13477 H 1296.67 -2.80907 -2.73127 0
M  V30 13478 H 1298.37 -3.12974 -2.50696 0
M  V30 13479 H 1294.96 -4.04865 -1.4065 0
M  V30 13480 H 1299.14 -4.8825 -0.89027 0
M  V30 13481 H 1294.4 -6.11099 -0.19169 0
M  V30 13482 H 1298.57 -6.95675 0.317743 0
M  V30 13483 H 1296.2 -7.57215 0.672977 0
M  V30 13484 N 1297.77 0.548248 -1.47757 0
M  V30 13485 C 1298.7 1.66409 -1.63799 0
M  V30 13486 C 1299.68 1.62973 -0.487211 0
M  V30 13487 O 1300.87 1.80455 -0.717612 0
M  V30 13488 C 1298 3.05035 -1.66046 0
M  V30 13489 C 1296.95 3.23322 -2.80441 0
M  V30 13490 C 1296.28 4.62824 -2.67765 0
M  V30 13491 C 1297.58 3.07837 -4.2194 0
M  V30 13492 H 1299.27 1.53239 -2.57212 0
M  V30 13493 H 1296.82 0.735783 -1.23783 0
M  V30 13494 H 1298.77 3.82951 -1.75859 0
M  V30 13495 H 1297.49 3.19185 -0.69199 0
M  V30 13496 H 1296.15 2.47816 -2.70153 0
M  V30 13497 H 1295.8 4.73786 -1.68927 0
M  V30 13498 H 1295.5 4.76007 -3.44515 0
M  V30 13499 H 1297.03 5.42864 -2.7952 0
M  V30 13500 H 1298.44 3.75563 -4.33157 0
M  V30 13501 H 1296.84 3.32525 -4.99547 0
M  V30 13502 H 1297.91 2.04474 -4.3968 0
M  V30 13503 N 1299.25 1.36039 0.795694 0
M  V30 13504 C 1300.66 1.2679 1.37044 0
M  V30 13505 C 1301.01 -0.0950192 1.9597 0
M  V30 13506 O 1300.14 -0.996311 1.921 0
M  V30 13507 C 1300.73 2.29585 2.49151 0
M  V30 13508 C 1299.29 2.24044 3.02458 0
M  V30 13509 C 1298.44 2.14703 1.75493 0
M  V30 13510 H 1301.39 1.47009 0.597843 0
M  V30 13511 H 1301.41 1.92864 3.27999 0
M  V30 13512 H 1300.92 3.28769 2.06234 0
M  V30 13513 H 1299.02 1.28307 3.49812 0
M  V30 13514 H 1299.14 3.1647 3.597 0
M  V30 13515 H 1297.5 1.60856 1.97478 0
M  V30 13516 H 1298.28 3.15765 1.34713 0
M  V30 13517 N 1300.73 -1.01913 1.20215 0
M  V30 13518 C 1301.98 -1.74878 1.00502 0
M  V30 13519 C 1302.29 -1.90022 -0.463792 0
M  V30 13520 O 1303.5 -2.60055 -0.779982 0
M  V30 13521 C 1301.95 -3.1452 1.74943 0
M  V30 13522 C 1301.56 -3.07397 3.259 0
M  V30 13523 C 1303.3 -3.91713 1.63589 0
M  V30 13524 C 1301.21 -4.42032 3.92889 0
M  V30 13525 H 1300.14 -0.655603 0.372426 0
M  V30 13526 H 1302.79 -1.13978 1.4381 0
M  V30 13527 H 1301.17 -3.75946 1.24421 0
M  V30 13528 H 1302.35 -2.55294 3.83617 0
M  V30 13529 H 1300.66 -2.43698 3.37639 0
M  V30 13530 H 1303.26 -4.91316 2.1098 0
M  V30 13531 H 1303.6 -4.12074 0.591665 0
M  V30 13532 H 1304.14 -3.3691 2.11511 0
M  V30 13533 H 1300.88 -4.26874 4.97453 0
M  V30 13534 H 1300.4 -4.94151 3.39962 0
M  V30 13535 H 1302.07 -5.10884 3.96997 0
M  V30 13536 N 1302.21 -1.00763 -1.2118 0
M  V30 13537 C 1303.16 -0.541218 -2.21483 0
M  V30 13538 C 1304.14 0.398597 -1.55885 0
M  V30 13539 O 1305.33 0.22302 -1.75589 0
M  V30 13540 C 1302.46 0.128145 -3.43061 0
M  V30 13541 C 1301.55 -0.832845 -4.15842 0
M  V30 13542 N 1301.94 -1.98673 -4.65148 0
M  V30 13543 C 1300.24 -0.651779 -4.41212 0
M  V30 13544 C 1300.94 -2.59112 -5.20803 0
M  V30 13545 N 1299.91 -1.87249 -5.10332 0
M  V30 13546 H 1303.72 -1.42105 -2.57262 0
M  V30 13547 H 1301.23 -0.871796 -1.37016 0
M  V30 13548 H 1303.23 0.479771 -4.1413 0
M  V30 13549 H 1301.89 1.00392 -3.0879 0
M  V30 13550 H 1302.9 -2.36701 -4.60644 0
M  V30 13551 H 1299.57 0.1767 -4.17126 0
M  V30 13552 H 1300.96 -3.56713 -5.69391 0
M  V30 13553 N 1303.68 1.3679 -0.7827 0
M  V30 13554 C 1304.61 2.32721 -0.190604 0
M  V30 13555 C 1305.6 1.56321 0.670663 0
M  V30 13556 O 1306.78 1.84507 0.605871 0
M  V30 13557 C 1303.91 3.40564 0.680717 0
M  V30 13558 C 1302.86 4.27925 -0.080118 0
M  V30 13559 C 1302.19 5.26876 0.911361 0
M  V30 13560 C 1303.49 5.06738 -1.26545 0
M  V30 13561 H 1305.18 2.82488 -0.992023 0
M  V30 13562 H 1302.73 1.35818 -0.478484 0
M  V30 13563 H 1304.68 4.06659 1.10482 0
M  V30 13564 H 1303.41 2.89348 1.51477 0
M  V30 13565 H 1302.07 3.63376 -0.485125 0
M  V30 13566 H 1301.71 4.71936 1.74026 0
M  V30 13567 H 1301.41 5.8619 0.406762 0
M  V30 13568 H 1302.94 5.95846 1.33418 0
M  V30 13569 H 1304.35 5.65911 -0.917448 0
M  V30 13570 H 1302.75 5.75432 -1.70289 0
M  V30 13571 H 1303.82 4.38772 -2.06415 0
M  V30 13572 N 1305.16 0.53415 1.48272 0
M  V30 13573 C 1306.09 -0.215037 2.32508 0
M  V30 13574 C 1307.07 -0.931083 1.42355 0
M  V30 13575 O 1308.26 -0.916051 1.71237 0
M  V30 13576 C 1305.39 -1.25985 3.23643 0
M  V30 13577 C 1304.34 -0.661692 4.22854 0
M  V30 13578 C 1303.67 -1.80946 5.03153 0
M  V30 13579 C 1304.97 0.369358 5.20992 0
M  V30 13580 H 1306.66 0.488158 2.95394 0
M  V30 13581 H 1304.21 0.236206 1.4205 0
M  V30 13582 H 1306.16 -1.79195 3.81402 0
M  V30 13583 H 1304.89 -1.99268 2.58766 0
M  V30 13584 H 1303.54 -0.151082 3.66289 0
M  V30 13585 H 1303.19 -2.53077 4.34696 0
M  V30 13586 H 1302.89 -1.41513 5.70305 0
M  V30 13587 H 1304.42 -2.34526 5.63764 0
M  V30 13588 H 1305.83 -0.0758076 5.7325 0
M  V30 13589 H 1304.23 0.681301 5.9622 0
M  V30 13590 H 1305.3 1.27363 4.67875 0
M  V30 13591 N 1306.64 -1.55279 0.269478 0
M  V30 13592 C 1307.89 -1.99077 -0.348224 0
M  V30 13593 C 1308.21 -1.15925 -1.568 0
M  V30 13594 O 1307.48 -0.247404 -1.94331 0
M  V30 13595 H 1306.06 -0.735307 -0.131653 0
M  V30 13596 H 1308.72 -1.91288 0.373506 0
M  V30 13597 H 1307.82 -3.05427 -0.641953 0
M  V30 13598 N 1308.12 0.00332656 -1.576 0
M  V30 13599 C 1309.05 0.994803 -2.11248 0
M  V30 13600 C 1310.03 1.36061 -1.02085 0
M  V30 13601 O 1311.21 1.44494 -1.2975 0
M  V30 13602 C 1308.34 2.28772 -2.61306 0
M  V30 13603 C 1307.3 2.06362 -3.74965 0
M  V30 13604 C 1306.62 3.41638 -4.11324 0
M  V30 13605 C 1307.92 1.4289 -5.02374 0
M  V30 13606 H 1309.62 0.548119 -2.9434 0
M  V30 13607 H 1307.16 0.262208 -1.41593 0
M  V30 13608 H 1309.12 2.98485 -2.97464 0
M  V30 13609 H 1307.84 2.75547 -1.75332 0
M  V30 13610 H 1306.5 1.39076 -3.39195 0
M  V30 13611 H 1306.15 3.8611 -3.22379 0
M  V30 13612 H 1305.85 3.2746 -4.87897 0
M  V30 13613 H 1307.37 4.12671 -4.50039 0
M  V30 13614 H 1308.79 2.02555 -5.36325 0
M  V30 13615 H 1307.18 1.3921 -5.8373 0
M  V30 13616 H 1308.25 0.397708 -4.83266 0
M  V30 13617 N 1309.6 1.55164 0.276031 0
M  V30 13618 C 1311.01 1.46936 0.623061 0
M  V30 13619 C 1311.21 0.680977 1.89644 0
M  V30 13620 O 1310.27 0.198618 2.51718 0
M  V30 13621 C 1311.58 2.91123 0.752839 0
M  V30 13622 C 1313.13 3.01319 0.847093 0
M  V30 13623 C 1313.6 4.46755 1.00867 0
M  V30 13624 N 1315.1 4.5057 1.07427 0
M  V30 13625 C 1315.83 5.60314 1.21804 0
M  V30 13626 N 1315.33 6.7993 1.32919 0
M  V30 13627 N 1317.12 5.4805 1.2489 0
M  V30 13628 H 1309.27 2.04877 -0.560282 0
M  V30 13629 H 1311.53 0.928925 -0.189217 0
M  V30 13630 H 1311.24 3.51521 -0.112333 0
M  V30 13631 H 1311.11 3.39967 1.63408 0
M  V30 13632 H 1313.5 2.41021 1.70274 0
M  V30 13633 H 1313.58 2.55733 -0.0586896 0
M  V30 13634 H 1313.23 5.07655 0.1577 0
M  V30 13635 H 1313.16 4.89995 1.92906 0
M  V30 13636 H 1315.65 3.64404 1.00089 0
M  V30 13637 H 1315.96 7.59319 1.43714 0
M  V30 13638 H 1314.3 6.82747 1.29929 0
M  V30 13639 H 1317.5 4.53542 1.15834 0
M  V30 13640 H 1317.67 6.33621 1.3575 0
M  V30 13641 N 1311.07 -0.540404 1.48045 0
M  V30 13642 C 1312.32 -1.2987 1.55762 0
M  V30 13643 C 1312.65 -1.92877 0.226307 0
M  V30 13644 O 1311.93 -1.7875 -0.766727 0
M  V30 13645 C 1312.21 -2.39602 2.68817 0
M  V30 13646 C 1312.06 -1.81354 4.1162 0
M  V30 13647 C 1313.38 -3.41434 2.77688 0
M  V30 13648 H 1310.5 -0.47083 0.566999 0
M  V30 13649 H 1313.14 -0.603081 1.80175 0
M  V30 13650 H 1311.29 -2.98936 2.48132 0
M  V30 13651 H 1312.97 -1.26151 4.43716 0
M  V30 13652 H 1311.21 -1.1194 4.19108 0
M  V30 13653 H 1311.88 -2.60758 4.86528 0
M  V30 13654 H 1314.36 -2.92042 2.96396 0
M  V30 13655 H 1313.23 -4.15621 3.5854 0
M  V30 13656 H 1313.49 -4.01336 1.85422 0
M  V30 13657 N 1312.55 -1.36459 -0.788468 0
M  V30 13658 C 1313.83 -1.21289 -1.53455 0
M  V30 13659 C 1314.21 0.200549 -2.10145 0
M  V30 13660 O 1313.56 1.20629 -1.94064 0
M  V30 13661 C 1313.77 -2.29562 -2.62873 0
M  V30 13662 C 1315.12 -2.66277 -3.30729 0
M  V30 13663 O 1316.14 -2.28612 -2.73157 0
M  V30 13664 O 1315 -3.31106 -4.34777 0
M  V30 13665 H 1312.09 -0.472306 -0.678864 0
M  V30 13666 H 1314.64 -1.48192 -0.826869 0
M  V30 13667 H 1313.41 -3.24286 -2.18984 0
M  V30 13668 H 1313.03 -2.0403 -3.41259 0
M  V30 13669 N 1314.03 1.01274 -1.20754 0
M  V30 13670 C 1315.28 1.75298 -1.03161 0
M  V30 13671 C 1315.63 1.87504 0.431299 0
M  V30 13672 O 1314.92 1.39262 1.31593 0
M  V30 13673 C 1315.12 3.16862 -1.65329 0
M  V30 13674 C 1314.95 3.18459 -3.17513 0
M  V30 13675 C 1313.72 3.25479 -3.86512 0
M  V30 13676 C 1315.92 3.04195 -4.14693 0
M  V30 13677 N 1313.9 3.1662 -5.25951 0
M  V30 13678 C 1315.27 3.03149 -5.40833 0
M  V30 13679 C 1317.32 2.8844 -4.05841 0
M  V30 13680 C 1316.03 2.87963 -6.59143 0
M  V30 13681 C 1318.05 2.74609 -5.23779 0
M  V30 13682 C 1317.41 2.74232 -6.48827 0
M  V30 13683 H 1313.51 0.652001 -0.431762 0
M  V30 13684 H 1316.1 1.2043 -1.52986 0
M  V30 13685 H 1314.27 3.70015 -1.18082 0
M  V30 13686 H 1316 3.79337 -1.41015 0
M  V30 13687 H 1312.76 3.3236 -3.37392 0
M  V30 13688 H 1313.18 3.15554 -5.98961 0
M  V30 13689 H 1317.82 2.87542 -3.09967 0
M  V30 13690 H 1315.54 2.87609 -7.55186 0
M  V30 13691 H 1319.13 2.6343 -5.18745 0
M  V30 13692 H 1318.01 2.63653 -7.38551 0
M  V30 13693 N 1315.51 1.01404 1.20644 0
M  V30 13694 C 1316.79 0.617088 1.85611 0
M  V30 13695 C 1317.17 -0.904947 1.9072 0
M  V30 13696 O 1316.51 -1.79562 1.41315 0
M  V30 13697 C 1316.72 1.26193 3.25386 0
M  V30 13698 C 1318.07 1.37575 4.01694 0
M  V30 13699 O 1319.1 1.21795 3.34731 0
M  V30 13700 O 1317.96 1.6305 5.2161 0
M  V30 13701 H 1315.05 0.212579 0.799211 0
M  V30 13702 H 1317.6 1.11126 1.28254 0
M  V30 13703 H 1316.37 2.30206 3.16419 0
M  V30 13704 H 1315.99 0.754679 3.90372 0
M  V30 13705 N 1316.99 -1.36373 0.789944 0
M  V30 13706 C 1318.26 -1.9349 0.286543 0
M  V30 13707 C 1318.64 -1.7218 -1.22136 0
M  V30 13708 O 1317.99 -1.08106 -2.01309 0
M  V30 13709 C 1318.2 -3.42316 0.679749 0
M  V30 13710 C 1319.55 -4.19442 0.659791 0
M  V30 13711 O 1320.57 -3.50758 0.620256 0
M  V30 13712 O 1319.43 -5.41957 0.703159 0
M  V30 13713 H 1316.53 -0.823942 0.0710537 0
M  V30 13714 H 1319.07 -1.45551 0.872523 0
M  V30 13715 H 1317.85 -3.51485 1.7197 0
M  V30 13716 H 1317.47 -3.97542 0.0676823 0
M  V30 13717 N 1318.47 -0.542005 -1.47987 0
M  V30 13718 C 1319.88 -0.200691 -1.58333 0
M  V30 13719 C 1320.08 1.29643 -1.54256 0
M  V30 13720 O 1319.14 2.07556 -1.43794 0
M  V30 13721 C 1320.45 -0.813878 -2.89476 0
M  V30 13722 C 1322 -0.783711 -3.0303 0
M  V30 13723 C 1322.47 -1.37569 -4.36851 0
M  V30 13724 N 1323.96 -1.33819 -4.43449 0
M  V30 13725 C 1324.7 -1.76602 -5.45527 0
M  V30 13726 N 1324.2 -2.27169 -6.54497 0
M  V30 13727 N 1325.99 -1.67765 -5.3648 0
M  V30 13728 H 1318.14 -1.51488 -1.4888 0
M  V30 13729 H 1320.4 -0.630835 -0.707638 0
M  V30 13730 H 1320.11 -1.86544 -2.98151 0
M  V30 13731 H 1319.98 -0.297978 -3.76021 0
M  V30 13732 H 1322.37 0.259118 -2.9396 0
M  V30 13733 H 1322.45 -1.33721 -2.18065 0
M  V30 13734 H 1322.09 -2.41751 -4.46675 0
M  V30 13735 H 1322.02 -0.797769 -5.20522 0
M  V30 13736 H 1324.52 -0.968147 -3.65288 0
M  V30 13737 H 1324.83 -2.57777 -7.2854 0
M  V30 13738 H 1323.17 -2.31171 -6.55427 0
M  V30 13739 H 1326.36 -1.28048 -4.50246 0
M  V30 13740 H 1326.54 -2.01426 -6.15899 0
M  V30 13741 N 1319.94 1.55134 -0.277709 0
M  V30 13742 C 1321.19 2.00675 0.331809 0
M  V30 13743 C 1321.54 1.16274 1.53291 0
M  V30 13744 O 1320.84 0.225435 1.90269 0
M  V30 13745 C 1321.03 3.49182 0.762028 0
M  V30 13746 C 1320.86 4.47954 -0.395835 0
M  V30 13747 C 1319.63 4.9757 -0.880446 0
M  V30 13748 C 1321.83 4.99297 -1.23317 0
M  V30 13749 N 1319.81 5.80149 -2.0075 0
M  V30 13750 C 1321.18 5.79348 -2.20808 0
M  V30 13751 C 1323.24 4.8153 -1.26622 0
M  V30 13752 C 1321.94 6.43526 -3.21352 0
M  V30 13753 C 1323.97 5.4651 -2.26011 0
M  V30 13754 C 1323.33 6.26374 -3.22235 0
M  V30 13755 H 1319.43 0.777199 0.086518 0
M  V30 13756 H 1322.01 1.90498 -0.402322 0
M  V30 13757 H 1320.18 3.59696 1.46538 0
M  V30 13758 H 1321.91 3.81551 1.3491 0
M  V30 13759 H 1318.67 4.71367 -0.459314 0
M  V30 13760 H 1319.09 6.26128 -2.57473 0
M  V30 13761 H 1323.73 4.19388 -0.536085 0
M  V30 13762 H 1321.45 7.04816 -3.95297 0
M  V30 13763 H 1325.04 5.34703 -2.29313 0
M  V30 13764 H 1323.92 6.75765 -3.97884 0
M  V30 13765 N 1321.42 0.00503138 1.57599 0
M  V30 13766 C 1322.67 -0.677979 1.89964 0
M  V30 13767 C 1322.98 -1.74657 0.88059 0
M  V30 13768 O 1324.19 -2.48455 1.09463 0
M  V30 13769 C 1322.65 -1.25708 3.37232 0
M  V30 13770 C 1322.25 -0.223045 4.47444 0
M  V30 13771 C 1324 -1.91799 3.787 0
M  V30 13772 C 1321.9 -0.812416 5.85793 0
M  V30 13773 H 1320.83 -0.256991 0.708852 0
M  V30 13774 H 1323.49 0.0663988 1.8338 0
M  V30 13775 H 1321.87 -2.05228 3.3867 0
M  V30 13776 H 1323.04 0.54794 4.57531 0
M  V30 13777 H 1321.36 0.337714 4.15028 0
M  V30 13778 H 1323.95 -2.36808 4.79402 0
M  V30 13779 H 1324.3 -2.75067 3.1248 0
M  V30 13780 H 1324.83 -1.19004 3.79583 0
M  V30 13781 H 1321.57 -0.0184031 6.55497 0
M  V30 13782 H 1321.09 -1.55244 5.79361 0
M  V30 13783 H 1322.77 -1.30952 6.33609 0
M  V30 13784 N 1322.9 -1.55308 -0.267798 0
M  V30 13785 C 1323.85 -1.89342 -1.35102 0
M  V30 13786 C 1324.84 -0.770277 -1.50874 0
M  V30 13787 O 1326.05 -0.954679 -1.52597 0
M  V30 13788 H 1322.42 -0.601036 -0.451952 0
M  V30 13789 H 1324.39 -2.7982 -1.03651 0
M  V30 13790 C 1323.14 -2.18644 -2.70352 0
M  V30 13791 H 1322.47 -3.04557 -2.59008 0
M  V30 13792 H 1323.91 -2.46374 -3.45073 0
M  V30 13793 C 1322.36 -0.995753 -3.21848 0
M  V30 13794 O 1322.89 -0.233037 -4.01023 0
M  V30 13795 N 1321.1 -0.792038 -2.79598 0
M  V30 13796 H 1320.65 -1.41396 -2.15325 0
M  V30 13797 H 1320.61 0.00300201 -3.144 0
M  V30 13798 N 1324.38 0.532545 -1.4833 0
M  V30 13799 C 1325.65 1.29371 -1.46705 0
M  V30 13800 C 1326.03 2.10354 -0.177329 0
M  V30 13801 O 1325.38 2.12462 0.840968 0
M  V30 13802 C 1325.59 2.17733 -2.72751 0
M  V30 13803 C 1326.94 2.77956 -3.20976 0
M  V30 13804 O 1327.96 2.28022 -2.7365 0
M  V30 13805 O 1326.82 3.68779 -4.03317 0
M  V30 13806 H 1323.92 0.58378 -0.585773 0
M  V30 13807 H 1326.46 0.549411 -1.6056 0
M  V30 13808 H 1325.24 1.57659 -3.58133 0
M  V30 13809 H 1324.86 2.99415 -2.61603 0
M  V30 13810 N 1325.86 1.36875 0.78122 0
M  V30 13811 C 1327.1 1.31754 1.54171 0
M  V30 13812 C 1327.43 -0.100632 1.93939 0
M  V30 13813 O 1326.71 -1.05587 1.63345 0
M  V30 13814 C 1326.99 2.24789 2.81322 0
M  V30 13815 C 1326.85 3.75342 2.47868 0
M  V30 13816 C 1328.16 2.16442 3.83198 0
M  V30 13817 H 1325.28 0.479931 0.559317 0
M  V30 13818 H 1327.93 1.67497 0.896935 0
M  V30 13819 H 1326.08 1.94438 3.36342 0
M  V30 13820 H 1327.75 4.16247 1.98836 0
M  V30 13821 H 1325.99 3.94375 1.80696 0
M  V30 13822 H 1326.66 4.3586 3.38719 0
M  V30 13823 H 1329.14 2.43175 3.37647 0
M  V30 13824 H 1328.01 2.83695 4.69903 0
M  V30 13825 H 1328.27 1.15431 4.26765 0
M  V30 13826 N 1327.33 -1.00632 1.21289 0
M  V30 13827 C 1328.24 -2.12829 0.986957 0
M  V30 13828 C 1329.26 -1.73895 -0.0605152 0
M  V30 13829 O 1330.44 -2.00985 0.129238 0
M  V30 13830 C 1327.5 -3.4226 0.553089 0
M  V30 13831 C 1326.56 -3.95376 1.67262 0
M  V30 13832 C 1325.79 -5.18629 1.25936 0
M  V30 13833 O 1326.02 -5.70246 0.132402 0
M  V30 13834 O 1324.95 -5.65157 2.07077 0
M  V30 13835 H 1328.78 -2.34765 1.92663 0
M  V30 13836 H 1326.36 -1.11208 0.997654 0
M  V30 13837 H 1328.24 -4.20177 0.320856 0
M  V30 13838 H 1326.92 -3.21716 -0.357881 0
M  V30 13839 H 1325.83 -3.18692 1.95924 0
M  V30 13840 H 1327.16 -4.20328 2.56097 0
M  V30 13841 N 1328.81 -1.02043 -1.20104 0
M  V30 13842 C 1330.09 -0.626922 -1.85281 0
M  V30 13843 C 1330.47 0.894819 -1.91197 0
M  V30 13844 O 1329.82 1.7881 -1.42265 0
M  V30 13845 C 1330.03 -1.27917 -3.24713 0
M  V30 13846 C 1331.37 -1.39704 -4.00959 0
M  V30 13847 O 1332.4 -1.23568 -3.3408 0
M  V30 13848 O 1331.26 -1.65814 -5.20738 0
M  V30 13849 H 1328.35 -0.216815 -0.798073 0
M  V30 13850 H 1330.9 -1.11804 -1.27663 0
M  V30 13851 H 1329.67 -2.3188 -3.15194 0
M  V30 13852 H 1329.29 -0.775371 -3.89966 0
M  V30 13853 N 1330.29 1.35952 -0.797165 0
M  V30 13854 C 1331.52 2.0381 -0.38421 0
M  V30 13855 C 1331.94 1.597 0.993854 0
M  V30 13856 O 1331.3 0.769148 1.64176 0
M  V30 13857 C 1331.35 3.57589 -0.465054 0
M  V30 13858 O 1330.45 4.09043 0.525095 0
M  V30 13859 H 1329.79 0.643957 -0.161912 0
M  V30 13860 H 1332.32 1.73746 -1.08043 0
M  V30 13861 H 1332.33 4.06651 -0.331448 0
M  V30 13862 H 1331.01 3.89045 -1.47027 0
M  V30 13863 H 1329.58 3.7123 0.352509 0
M  V30 13864 N 1331.77 0.549846 1.47697 0
M  V30 13865 C 1333 0.0276487 2.06581 0
M  V30 13866 C 1333.41 -1.26821 1.40403 0
M  V30 13867 O 1332.75 -1.76987 0.492073 0
M  V30 13868 C 1332.81 -0.246484 3.58654 0
M  V30 13869 C 1332.48 0.958843 4.46828 0
M  V30 13870 C 1333.47 1.86249 4.85394 0
M  V30 13871 C 1331.16 1.17144 4.88449 0
M  V30 13872 C 1333.15 2.96249 5.64372 0
M  V30 13873 C 1330.84 2.27454 5.67193 0
M  V30 13874 C 1331.84 3.16838 6.05064 0
M  V30 13875 O 1331.52 4.25237 6.82224 0
M  V30 13876 H 1331.26 0.0394446 0.674848 0
M  V30 13877 H 1333.81 0.760694 1.90795 0
M  V30 13878 H 1332.04 -1.03375 3.72627 0
M  V30 13879 H 1333.73 -0.713167 3.99586 0
M  V30 13880 H 1334.5 1.71027 4.53844 0
M  V30 13881 H 1330.37 0.484917 4.58443 0
M  V30 13882 H 1333.92 3.66043 5.9385 0
M  V30 13883 H 1329.82 2.42653 5.98155 0
M  V30 13884 H 1330.58 4.23193 7.00607 0
M  V30 13885 N 1333.25 -1.54984 0.285932 0
M  V30 13886 C 1334.49 -1.99436 -0.32709 0
M  V30 13887 C 1334.82 -1.17582 -1.55562 0
M  V30 13888 O 1334.09 -0.268002 -1.94058 0
M  V30 13889 H 1332.67 -0.736662 -0.123846 0
M  V30 13890 H 1335.33 -1.90881 0.393774 0
M  V30 13891 H 1334.42 -3.0609 -0.609523 0
M  V30 13892 N 1334.72 -0.0133892 -1.57594 0
M  V30 13893 C 1335.66 1.00211 -2.06132 0
M  V30 13894 C 1336.67 1.29869 -0.98173 0
M  V30 13895 O 1337.86 1.2661 -1.25826 0
M  V30 13896 C 1334.96 2.33354 -2.45763 0
M  V30 13897 C 1334.13 2.22441 -3.76615 0
M  V30 13898 C 1333.19 3.38385 -4.02967 0
M  V30 13899 O 1332.22 3.15973 -4.73445 0
M  V30 13900 N 1333.42 4.61672 -3.51908 0
M  V30 13901 H 1336.18 0.588079 -2.93874 0
M  V30 13902 H 1333.74 0.173714 -1.60965 0
M  V30 13903 H 1335.74 3.09716 -2.60496 0
M  V30 13904 H 1334.31 2.66451 -1.6347 0
M  V30 13905 H 1333.53 1.30905 -3.7183 0
M  V30 13906 H 1334.81 2.12337 -4.62375 0
M  V30 13907 H 1334.21 4.82777 -2.9486 0
M  V30 13908 H 1332.77 5.35256 -3.71947 0
M  V30 13909 N 1336.2 1.55448 0.259558 0
M  V30 13910 C 1337.13 1.85678 1.34373 0
M  V30 13911 C 1338.15 0.742155 1.449 0
M  V30 13912 O 1339.34 1.02015 1.46476 0
M  V30 13913 C 1336.44 2.01668 2.72366 0
M  V30 13914 C 1335.61 3.32434 2.84265 0
M  V30 13915 C 1334.67 3.38322 4.03019 0
M  V30 13916 O 1333.69 4.11616 3.93143 0
M  V30 13917 N 1334.9 2.66697 5.1561 0
M  V30 13918 H 1337.66 2.79261 1.08781 0
M  V30 13919 H 1335.22 1.5553 0.449672 0
M  V30 13920 H 1337.21 2.02963 3.50126 0
M  V30 13921 H 1335.78 1.14889 2.90722 0
M  V30 13922 H 1335 3.43564 1.93281 0
M  V30 13923 H 1336.29 4.18649 2.89155 0
M  V30 13924 H 1335.69 2.06857 5.26523 0
M  V30 13925 H 1334.25 2.73699 5.91551 0
M  V30 13926 N 1337.68 -0.524672 1.4861 0
M  V30 13927 C 1338.93 -1.27958 1.58108 0
M  V30 13928 C 1339.28 -1.90716 0.254003 0
M  V30 13929 O 1338.57 -1.7658 -0.743646 0
M  V30 13930 C 1338.77 -2.3871 2.65993 0
M  V30 13931 C 1338.6 -1.86809 4.09063 0
M  V30 13932 C 1337.37 -1.69174 4.76139 0
M  V30 13933 C 1339.57 -1.39355 4.9506 0
M  V30 13934 N 1337.55 -1.11954 6.03605 0
M  V30 13935 C 1338.92 -0.941175 6.12815 0
M  V30 13936 C 1340.97 -1.27708 4.81243 0
M  V30 13937 C 1339.68 -0.383863 7.18275 0
M  V30 13938 C 1341.7 -0.733756 5.8683 0
M  V30 13939 C 1341.06 -0.291479 7.03797 0
M  V30 13940 H 1337.16 -0.459061 0.633077 0
M  V30 13941 H 1339.75 -0.590966 1.85515 0
M  V30 13942 H 1337.92 -3.05061 2.404 0
M  V30 13943 H 1339.65 -3.05744 2.65146 0
M  V30 13944 H 1336.41 -1.92852 4.32556 0
M  V30 13945 H 1336.83 -0.853395 6.716 0
M  V30 13946 H 1341.47 -1.60506 3.91149 0
M  V30 13947 H 1339.19 -0.0435691 8.08088 0
M  V30 13948 H 1342.78 -0.646737 5.78194 0
M  V30 13949 H 1341.66 0.122396 7.84104 0
M  V30 13950 N 1339.16 -1.37287 -0.77395 0
M  V30 13951 C 1340.39 -1.35563 -1.56302 0
M  V30 13952 C 1340.8 0.0595356 -1.88706 0
M  V30 13953 O 1340.16 1.02072 -1.51286 0
M  V30 13954 C 1340.21 -2.19195 -2.87464 0
M  V30 13955 O 1339.93 -3.55197 -2.5645 0
M  V30 13956 C 1341.43 -2.25425 -3.81704 0
M  V30 13957 H 1338.65 -0.464431 -0.484298 0
M  V30 13958 H 1341.2 -1.80597 -0.959425 0
M  V30 13959 H 1339.35 -1.77676 -3.44253 0
M  V30 13960 H 1339.76 -3.99011 -3.40427 0
M  V30 13961 H 1341.24 -2.8827 -4.70749 0
M  V30 13962 H 1341.72 -1.26205 -4.20677 0
M  V30 13963 H 1342.32 -2.67247 -3.30846 0
M  V30 13964 N 1340.64 0.999871 -1.21821 0
M  V30 13965 C 1341.87 1.77148 -1.06312 0
M  V30 13966 C 1342.27 1.85142 0.389747 0
M  V30 13967 O 1341.62 1.31562 1.28207 0
M  V30 13968 C 1341.68 3.22367 -1.59122 0
M  V30 13969 C 1341.34 3.37937 -3.07649 0
M  V30 13970 C 1342.34 3.25808 -4.05148 0
M  V30 13971 C 1340.03 3.63213 -3.46961 0
M  V30 13972 C 1342.02 3.38729 -5.39946 0
M  V30 13973 C 1339.71 3.75775 -4.81909 0
M  V30 13974 C 1340.7 3.6354 -5.78211 0
M  V30 13975 O 1340.39 3.75694 -7.1071 0
M  V30 13976 H 1340.12 0.563396 -0.373578 0
M  V30 13977 H 1342.68 1.26627 -1.61724 0
M  V30 13978 H 1340.91 3.74047 -0.98111 0
M  V30 13979 H 1342.6 3.81219 -1.39379 0
M  V30 13980 H 1343.36 3.062 -3.76121 0
M  V30 13981 H 1339.24 3.71816 -2.72533 0
M  V30 13982 H 1342.79 3.29096 -6.15095 0
M  V30 13983 H 1338.68 3.94889 -5.1062 0
M  V30 13984 H 1339.45 3.9261 -7.18192 0
M  V30 13985 N 1342.11 1.02678 1.19562 0
M  V30 13986 C 1343.02 0.615738 2.26375 0
M  V30 13987 C 1344.04 -0.351525 1.70412 0
M  V30 13988 O 1345.22 -0.209932 2.00303 0
M  V30 13989 C 1342.28 -0.0292135 3.46688 0
M  V30 13990 C 1341.34 0.985284 4.1784 0
M  V30 13991 C 1340.58 0.371016 5.32409 0
M  V30 13992 O 1340.8 -0.826591 5.64379 0
M  V30 13993 O 1339.73 1.09282 5.91896 0
M  V30 13994 H 1343.56 1.50526 2.63772 0
M  V30 13995 H 1341.14 0.796847 1.26375 0
M  V30 13996 H 1343.03 -0.38893 4.19601 0
M  V30 13997 H 1341.7 -0.892778 3.11145 0
M  V30 13998 H 1340.61 1.39655 3.47055 0
M  V30 13999 H 1341.94 1.81915 4.57349 0
M  V30 14000 N 1343.59 -1.35528 0.804364 0
M  V30 14001 C 1344.52 -2.28562 0.170893 0
M  V30 14002 C 1345.54 -1.50178 -0.628526 0
M  V30 14003 O 1346.73 -1.72438 -0.461252 0
M  V30 14004 C 1343.83 -3.29792 -0.780434 0
M  V30 14005 C 1343 -4.37391 -0.0278619 0
M  V30 14006 C 1342.06 -5.18492 -0.897341 0
M  V30 14007 O 1341.08 -5.68128 -0.349098 0
M  V30 14008 N 1342.29 -5.36385 -2.21971 0
M  V30 14009 H 1345.05 -2.83565 0.970108 0
M  V30 14010 H 1342.61 -1.47854 0.659617 0
M  V30 14011 H 1344.6 -3.80939 -1.36628 0
M  V30 14012 H 1343.17 -2.7532 -1.48046 0
M  V30 14013 H 1342.39 -3.87208 0.739178 0
M  V30 14014 H 1343.68 -5.06426 0.490889 0
M  V30 14015 H 1343.08 -4.97699 -2.6891 0
M  V30 14016 H 1341.64 -5.90721 -2.75485 0
M  V30 14017 N 1345.07 -0.557671 -1.47404 0
M  V30 14018 C 1346.49 -0.217473 -1.58111 0
M  V30 14019 C 1346.69 1.28 -1.55622 0
M  V30 14020 O 1345.74 2.06019 -1.45988 0
M  V30 14021 C 1347.06 -0.844535 -2.88597 0
M  V30 14022 C 1348.6 -0.815807 -3.02181 0
M  V30 14023 C 1349.08 -1.42195 -4.35367 0
M  V30 14024 N 1350.57 -1.38515 -4.42004 0
M  V30 14025 C 1351.31 -1.82378 -5.43623 0
M  V30 14026 N 1350.8 -2.34098 -6.52051 0
M  V30 14027 N 1352.59 -1.73446 -5.34671 0
M  V30 14028 H 1344.75 -1.53058 -1.47265 0
M  V30 14029 H 1347.01 -0.638305 -0.700907 0
M  V30 14030 H 1346.71 -1.89696 -2.96156 0
M  V30 14031 H 1346.59 -0.337844 -3.75684 0
M  V30 14032 H 1348.98 0.227925 -2.94218 0
M  V30 14033 H 1349.06 -1.36026 -2.16635 0
M  V30 14034 H 1348.7 -2.46475 -4.44086 0
M  V30 14035 H 1348.63 -0.852932 -5.19647 0
M  V30 14036 H 1351.12 -1.00684 -3.64241 0
M  V30 14037 H 1351.43 -2.6549 -7.25765 0
M  V30 14038 H 1349.78 -2.38109 -6.52939 0
M  V30 14039 H 1352.97 -1.32816 -4.48862 0
M  V30 14040 H 1353.14 -2.07947 -6.13728 0
M  V30 14041 N 1346.55 1.54831 -0.294147 0
M  V30 14042 C 1347.5 2.23263 0.58499 0
M  V30 14043 C 1348.47 1.21278 1.13494 0
M  V30 14044 O 1349.65 1.49878 1.18073 0
M  V30 14045 C 1346.79 2.97185 1.75429 0
M  V30 14046 C 1345.9 4.1393 1.23638 0
M  V30 14047 C 1345.04 4.7545 2.36899 0
M  V30 14048 C 1344.08 5.84352 1.82207 0
M  V30 14049 N 1343.22 6.39855 2.89015 0
M  V30 14050 H 1348.06 2.98 -0.00519329 0
M  V30 14051 H 1345.59 1.47093 -0.0143313 0
M  V30 14052 H 1347.55 3.38271 2.4419 0
M  V30 14053 H 1346.18 2.24837 2.3162 0
M  V30 14054 H 1345.23 3.77832 0.441247 0
M  V30 14055 H 1346.54 4.92409 0.795946 0
M  V30 14056 H 1345.7 5.19353 3.1362 0
M  V30 14057 H 1344.44 3.96288 2.84266 0
M  V30 14058 H 1343.44 5.39879 1.03974 0
M  V30 14059 H 1344.67 6.65393 1.35753 0
M  V30 14060 H 1342.61 5.6358 3.35729 0
M  V30 14061 H 1342.53 7.13661 2.49447 0
M  V30 14062 H 1343.8 6.88417 3.65654 0
M  V30 14063 N 1348.03 0.0217466 1.57585 0
M  V30 14064 C 1349.28 -0.657793 1.90672 0
M  V30 14065 C 1349.59 -1.73713 0.899066 0
M  V30 14066 O 1350.8 -2.4728 1.12092 0
M  V30 14067 C 1349.25 -1.22124 3.38547 0
M  V30 14068 C 1348.86 -0.175575 4.47656 0
M  V30 14069 C 1350.6 -1.87771 3.80713 0
M  V30 14070 C 1348.51 -0.750239 5.86622 0
M  V30 14071 H 1347.44 -0.249459 0.711538 0
M  V30 14072 H 1350.09 0.0858449 1.83299 0
M  V30 14073 H 1348.47 -2.01625 3.40828 0
M  V30 14074 H 1349.65 0.596436 4.56924 0
M  V30 14075 H 1347.96 0.381715 4.14647 0
M  V30 14076 H 1350.56 -2.3171 4.81887 0
M  V30 14077 H 1350.9 -2.71737 3.1538 0
M  V30 14078 H 1351.44 -1.14971 3.80823 0
M  V30 14079 H 1348.17 0.0511222 6.5548 0
M  V30 14080 H 1347.69 -1.49091 5.80975 0
M  V30 14081 H 1349.37 -1.24225 6.34962 0
M  V30 14082 N 1349.51 -1.55583 -0.251311 0
M  V30 14083 C 1350.75 -1.77471 -0.981418 0
M  V30 14084 C 1351.08 -0.586228 -1.85141 0
M  V30 14085 O 1350.36 0.415623 -1.90007 0
M  V30 14086 C 1350.64 -3.09204 -1.84567 0
M  V30 14087 C 1350.5 -4.38448 -1.00417 0
M  V30 14088 C 1351.81 -3.37133 -2.82895 0
M  V30 14089 H 1348.93 -0.645664 -0.355369 0
M  V30 14090 H 1351.58 -1.88318 -0.252228 0
M  V30 14091 H 1349.73 -3.00087 -2.46738 0
M  V30 14092 H 1351.4 -4.5955 -0.40149 0
M  V30 14093 H 1349.64 -4.32703 -0.308365 0
M  V30 14094 H 1350.31 -5.26995 -1.64258 0
M  V30 14095 H 1352.79 -3.46183 -2.3086 0
M  V30 14096 H 1351.66 -4.30531 -3.40491 0
M  V30 14097 H 1351.92 -2.57829 -3.59133 0
M  V30 14098 N 1350.98 0.516783 -1.48886 0
M  V30 14099 C 1351.89 1.6467 -1.67095 0
M  V30 14100 C 1352.91 1.64963 -0.553466 0
M  V30 14101 O 1354.09 1.83673 -0.826206 0
M  V30 14102 C 1351.15 3.01095 -1.71879 0
M  V30 14103 C 1350.21 3.11554 -2.95352 0
M  V30 14104 C 1349.44 4.41471 -2.99898 0
M  V30 14105 O 1349.67 5.29348 -2.12477 0
M  V30 14106 O 1348.6 4.56573 -3.92205 0
M  V30 14107 H 1352.43 1.52242 -2.62785 0
M  V30 14108 H 1350.01 0.69134 -1.32442 0
M  V30 14109 H 1351.89 3.82207 -1.77471 0
M  V30 14110 H 1350.57 3.1382 -0.793656 0
M  V30 14111 H 1349.48 2.29689 -2.95286 0
M  V30 14112 H 1350.81 3.03751 -3.87294 0
M  V30 14113 N 1352.46 1.37696 0.766659 0
M  V30 14114 C 1353.71 1.33185 1.52539 0
M  V30 14115 C 1354.04 -0.0821239 1.94327 0
M  V30 14116 O 1353.29 -1.05645 1.64735 0
M  V30 14117 C 1353.59 2.22154 2.79968 0
M  V30 14118 C 1353.26 3.70344 2.57208 0
M  V30 14119 C 1351.92 4.10729 2.50709 0
M  V30 14120 C 1354.27 4.64205 2.36988 0
M  V30 14121 C 1351.6 5.43082 2.21988 0
M  V30 14122 C 1353.95 5.96801 2.0979 0
M  V30 14123 C 1352.61 6.36284 2.01739 0
M  V30 14124 H 1351.88 0.487357 0.558179 0
M  V30 14125 H 1354.53 1.69945 0.882662 0
M  V30 14126 H 1352.84 1.78406 3.48825 0
M  V30 14127 H 1354.53 2.15975 3.37869 0
M  V30 14128 H 1351.12 3.38319 2.63131 0
M  V30 14129 H 1355.31 4.3386 2.40996 0
M  V30 14130 H 1350.56 5.7263 2.14254 0
M  V30 14131 H 1354.74 6.6908 1.93145 0
M  V30 14132 H 1352.36 7.38765 1.79248 0
M  V30 14133 N 1353.94 -0.993397 1.22349 0
M  V30 14134 C 1355.17 -1.76838 1.07406 0
M  V30 14135 C 1355.58 -1.8503 -0.37542 0
M  V30 14136 O 1354.94 -1.32008 -1.26016 0
M  V30 14137 C 1354.99 -3.20177 1.67837 0
M  V30 14138 O 1354.71 -3.12429 3.07115 0
M  V30 14139 C 1356.21 -4.14125 1.58161 0
M  V30 14140 H 1353.43 -0.555379 0.376557 0
M  V30 14141 H 1355.98 -1.24893 1.61932 0
M  V30 14142 H 1354.13 -3.69191 1.17375 0
M  V30 14143 H 1354.55 -4.02568 3.36213 0
M  V30 14144 H 1356.02 -5.12455 2.05169 0
M  V30 14145 H 1356.5 -4.35892 0.538073 0
M  V30 14146 H 1357.1 -3.71008 2.07926 0
M  V30 14147 N 1355.42 -1.03311 -1.19015 0
M  V30 14148 C 1356.66 -0.740813 -1.90503 0
M  V30 14149 C 1357.02 0.717732 -1.7808 0
M  V30 14150 O 1358.22 1.12329 -2.44204 0
M  V30 14151 C 1356.49 -1.18473 -3.37193 0
M  V30 14152 S 1358.05 -1.01692 -4.26854 0
M  V30 14153 H 1354.87 -0.269575 -0.657913 0
M  V30 14154 H 1357.47 -1.32382 -1.43858 0
M  V30 14155 H 1356.18 -2.2418 -3.43761 0
M  V30 14156 H 1355.71 -0.59519 -3.88872 0
M  V30 14157 H 1357.72 0.070076 -4.96151 0
M  V30 14158 N 1356.9 1.35099 -0.81154 0
M  V30 14159 C 1357.85 2.27139 -0.197958 0
M  V30 14160 C 1358.83 1.48006 0.631116 0
M  V30 14161 O 1360.02 1.70152 0.487562 0
M  V30 14162 C 1357.15 3.37118 0.648577 0
M  V30 14163 C 1356.24 4.23672 -0.190498 0
M  V30 14164 N 1356.63 4.89959 -1.25594 0
M  V30 14165 C 1354.93 4.45992 0.0270572 0
M  V30 14166 C 1355.63 5.54161 -1.76862 0
M  V30 14167 N 1354.6 5.32879 -1.07428 0
M  V30 14168 H 1358.4 2.75886 -1.01311 0
M  V30 14169 H 1355.92 1.48685 -0.653195 0
M  V30 14170 H 1357.92 4.0201 1.10423 0
M  V30 14171 H 1356.58 2.89922 1.46202 0
M  V30 14172 H 1357.59 4.91293 -1.63864 0
M  V30 14173 H 1354.26 4.09582 0.809248 0
M  V30 14174 H 1355.65 6.17032 -2.65935 0
M  V30 14175 N 1358.37 0.56548 1.47106 0
M  V30 14176 C 1359.6 0.0496298 2.0684 0
M  V30 14177 C 1360.02 -1.24777 1.4169 0
M  V30 14178 O 1359.37 -1.75046 0.516239 0
M  V30 14179 C 1359.42 -0.140987 3.61225 0
M  V30 14180 O 1359.15 1.10504 4.23934 0
M  V30 14181 C 1360.65 -0.693171 4.37847 0
M  V30 14182 H 1357.87 0.0496018 0.669164 0
M  V30 14183 H 1360.41 0.781247 1.88989 0
M  V30 14184 H 1358.57 -0.822762 3.78562 0
M  V30 14185 H 1358.98 0.907978 5.16581 0
M  V30 14186 H 1360.45 -0.7758 5.46521 0
M  V30 14187 H 1360.93 -1.70632 4.04699 0
M  V30 14188 H 1361.54 -0.046826 4.25274 0
M  V30 14189 N 1359.85 -1.54672 0.302354 0
M  V30 14190 C 1360.82 -2.22246 -0.560283 0
M  V30 14191 C 1361.82 -1.20895 -1.06023 0
M  V30 14192 O 1363.01 -1.45621 -0.956047 0
M  V30 14193 C 1360.14 -2.9099 -1.77589 0
M  V30 14194 H 1361.33 -2.99885 0.0301274 0
M  V30 14195 H 1358.88 -1.56209 0.0532036 0
M  V30 14196 H 1359.62 -2.17433 -2.4061 0
M  V30 14197 H 1359.4 -3.65288 -1.42503 0
M  V30 14198 H 1360.89 -3.42535 -2.38871 0
M  V30 14199 N 1361.33 -0.0301034 -1.57571 0
M  V30 14200 C 1362.58 0.648323 -1.91841 0
M  V30 14201 C 1362.91 1.72078 -0.906601 0
M  V30 14202 O 1362.16 1.95518 0.0843233 0
M  V30 14203 C 1362.46 1.30206 -3.32838 0
M  V30 14204 C 1362.13 0.359876 -4.49462 0
M  V30 14205 C 1360.79 0.100552 -4.81095 0
M  V30 14206 C 1363.14 -0.287048 -5.20409 0
M  V30 14207 C 1360.47 -0.813484 -5.81033 0
M  V30 14208 C 1362.82 -1.18914 -6.21323 0
M  V30 14209 C 1361.48 -1.45735 -6.51397 0
M  V30 14210 H 1360.75 0.237238 -0.701997 0
M  V30 14211 H 1363.4 -0.0920804 -1.91278 0
M  V30 14212 H 1361.71 2.11724 -3.29667 0
M  V30 14213 H 1363.4 1.83356 -3.56625 0
M  V30 14214 H 1359.99 0.572172 -4.24764 0
M  V30 14215 H 1364.18 -0.0997611 -4.962 0
M  V30 14216 H 1359.43 -1.02897 -6.02679 0
M  V30 14217 H 1363.61 -1.69661 -6.75417 0
M  V30 14218 H 1361.23 -2.16727 -7.28652 0
M  V30 14219 N 1362.81 1.55714 0.243056 0
M  V30 14220 C 1364.06 1.77726 0.970555 0
M  V30 14221 C 1364.38 0.595108 1.85172 0
M  V30 14222 O 1363.64 -0.42143 1.91108 0
M  V30 14223 C 1363.94 3.05281 1.85845 0
M  V30 14224 C 1363.6 4.36451 1.13232 0
M  V30 14225 C 1362.27 4.72095 0.931656 0
M  V30 14226 C 1364.62 5.17524 0.617944 0
M  V30 14227 C 1361.95 5.86344 0.204373 0
M  V30 14228 C 1364.3 6.32527 -0.0958899 0
M  V30 14229 C 1362.96 6.66789 -0.308 0
M  V30 14230 H 1362.23 0.650345 0.355151 0
M  V30 14231 H 1364.88 1.89986 0.240351 0
M  V30 14232 H 1363.18 2.8805 2.65584 0
M  V30 14233 H 1364.88 3.19511 2.4231 0
M  V30 14234 H 1361.47 4.08451 1.29867 0
M  V30 14235 H 1365.65 4.90439 0.760507 0
M  V30 14236 H 1360.91 6.11393 0.0296 0
M  V30 14237 H 1365.08 6.94588 -0.502077 0
M  V30 14238 H 1362.71 7.55165 -0.873502 0
M  V30 14239 N 1364.29 -0.50888 1.49158 0
M  V30 14240 C 1365.53 -1.26537 1.58481 0
M  V30 14241 C 1365.87 -1.92353 0.267168 0
M  V30 14242 O 1365.14 -1.80336 -0.728639 0
M  V30 14243 C 1365.42 -2.33846 2.73839 0
M  V30 14244 C 1365.28 -1.72582 4.15374 0
M  V30 14245 C 1366.6 -3.35467 2.84868 0
M  V30 14246 H 1363.71 -0.458697 0.576859 0
M  V30 14247 H 1366.36 -0.564728 1.81413 0
M  V30 14248 H 1364.51 -2.93605 2.54417 0
M  V30 14249 H 1366.18 -1.16711 4.46292 0
M  V30 14250 H 1364.42 -1.03025 4.21389 0
M  V30 14251 H 1365.09 -2.5038 4.91949 0
M  V30 14252 H 1367.57 -2.85689 3.02524 0
M  V30 14253 H 1366.44 -4.07922 3.67275 0
M  V30 14254 H 1366.71 -3.97313 1.93894 0
M  V30 14255 N 1365.76 -1.381 -0.759346 0
M  V30 14256 C 1366.99 -1.37389 -1.55367 0
M  V30 14257 C 1367.41 0.0356097 -1.88066 0
M  V30 14258 O 1366.77 1.0161 -1.5015 0
M  V30 14259 C 1366.82 -2.23098 -2.83302 0
M  V30 14260 O 1365.92 -1.64412 -3.7821 0
M  V30 14261 H 1365.27 -0.468894 -0.470143 0
M  V30 14262 H 1367.8 -1.81787 -0.938858 0
M  V30 14263 H 1367.81 -2.36753 -3.32283 0
M  V30 14264 H 1366.48 -3.25544 -2.58831 0
M  V30 14265 H 1365.06 -1.59867 -3.36893 0
M  V30 14266 N 1367.24 0.986894 -1.22875 0
M  V30 14267 C 1368.49 1.72152 -1.05103 0
M  V30 14268 C 1368.8 1.91185 0.413248 0
M  V30 14269 O 1370.01 2.62031 0.710759 0
M  V30 14270 C 1368.47 3.09771 -1.8322 0
M  V30 14271 C 1368.07 2.98648 -3.33936 0
M  V30 14272 C 1369.82 3.87238 -1.73917 0
M  V30 14273 C 1367.73 4.31459 -4.04471 0
M  V30 14274 H 1366.66 0.645498 -0.389677 0
M  V30 14275 H 1369.31 1.10125 -1.46781 0
M  V30 14276 H 1367.69 3.72515 -1.34345 0
M  V30 14277 H 1368.86 2.45033 -3.9025 0
M  V30 14278 H 1367.18 2.34661 -3.43982 0
M  V30 14279 H 1369.77 4.85549 -2.23933 0
M  V30 14280 H 1370.12 4.1036 -0.700711 0
M  V30 14281 H 1370.65 3.31183 -2.20369 0
M  V30 14282 H 1367.39 4.13534 -5.08596 0
M  V30 14283 H 1366.91 4.84964 -3.52944 0
M  V30 14284 H 1368.59 5.00179 -4.10403 0
M  V30 14285 N 1368.72 1.0394 1.18466 0
M  V30 14286 C 1369.97 0.743141 1.88694 0
M  V30 14287 C 1370.3 -0.727211 1.8007 0
M  V30 14288 O 1369.57 -1.53058 1.20014 0
M  V30 14289 C 1369.86 1.20829 3.39223 0
M  V30 14290 C 1369.71 2.74064 3.56664 0
M  V30 14291 C 1371.03 0.797348 4.32817 0
M  V30 14292 H 1368.15 0.271437 0.685194 0
M  V30 14293 H 1370.79 1.29119 1.39386 0
M  V30 14294 H 1368.94 0.742033 3.81348 0
M  V30 14295 H 1370.61 3.28717 3.2364 0
M  V30 14296 H 1368.86 3.1395 2.99362 0
M  V30 14297 H 1369.53 3.01668 4.62277 0
M  V30 14298 H 1372 1.19854 3.98465 0
M  V30 14299 H 1370.88 1.15057 5.36706 0
M  V30 14300 H 1371.14 -0.299601 4.41084 0
M  V30 14301 N 1370.2 -1.34667 0.818693 0
M  V30 14302 C 1371.44 -1.98708 0.405359 0
M  V30 14303 C 1371.78 -1.64767 -1.02788 0
M  V30 14304 O 1371.05 -0.91714 -1.71519 0
M  V30 14305 C 1371.34 -3.55016 0.602966 0
M  V30 14306 C 1371.19 -3.98713 2.08201 0
M  V30 14307 C 1372.51 -4.40085 0.0362489 0
M  V30 14308 H 1369.63 -0.721831 0.148756 0
M  V30 14309 H 1372.27 -1.59628 1.03047 0
M  V30 14310 H 1370.42 -3.88435 0.0708453 0
M  V30 14311 H 1372.09 -3.75647 2.67745 0
M  V30 14312 H 1370.33 -3.49179 2.57403 0
M  V30 14313 H 1371 -5.0751 2.17111 0
M  V30 14314 H 1373.48 -4.13195 0.490837 0
M  V30 14315 H 1372.36 -5.4852 0.204344 0
M  V30 14316 H 1372.62 -4.29243 -1.05845 0
M  V30 14317 N 1371.68 -0.573274 -1.46804 0
M  V30 14318 C 1372.92 -0.0553432 -2.02724 0
M  V30 14319 C 1373.26 1.29753 -1.44492 0
M  V30 14320 O 1372.53 1.84804 -0.606455 0
M  V30 14321 C 1372.81 0.0205511 -3.60094 0
M  V30 14322 C 1372.67 -1.36055 -4.2873 0
M  V30 14323 C 1373.99 0.725944 -4.34071 0
M  V30 14324 H 1371.1 -0.0215858 -0.736684 0
M  V30 14325 H 1373.75 -0.738657 -1.75054 0
M  V30 14326 H 1371.9 0.602481 -3.838 0
M  V30 14327 H 1373.57 -1.98692 -4.16316 0
M  V30 14328 H 1371.81 -1.93087 -3.88458 0
M  V30 14329 H 1372.48 -1.26001 -5.37427 0
M  V30 14330 H 1374.96 0.231677 -4.15455 0
M  V30 14331 H 1373.83 0.74805 -5.43779 0
M  V30 14332 H 1374.1 1.78536 -4.04447 0
M  V30 14333 N 1373.15 1.5451 -0.310553 0
M  V30 14334 C 1374.09 2.2134 0.595098 0
M  V30 14335 C 1375.1 1.20917 1.09009 0
M  V30 14336 O 1376.29 1.47458 1.0059 0
M  V30 14337 C 1373.39 2.85384 1.82782 0
M  V30 14338 C 1372.56 4.11826 1.47372 0
M  V30 14339 C 1371.62 4.59584 2.56259 0
M  V30 14340 O 1370.65 5.24567 2.20949 0
M  V30 14341 N 1371.85 4.32709 3.86967 0
M  V30 14342 H 1374.61 2.99691 0.0229291 0
M  V30 14343 H 1372.17 1.61351 -0.133173 0
M  V30 14344 H 1374.17 3.14263 2.54992 0
M  V30 14345 H 1372.74 2.10816 2.30815 0
M  V30 14346 H 1371.96 3.89853 0.583826 0
M  V30 14347 H 1373.24 4.94138 1.21265 0
M  V30 14348 H 1372.64 3.80669 4.18458 0
M  V30 14349 H 1371.2 4.66275 4.55446 0
M  V30 14350 N 1374.63 0.0384594 1.57553 0
M  V30 14351 C 1375.88 -0.633249 1.93291 0
M  V30 14352 C 1376.23 -1.69196 0.915995 0
M  V30 14353 O 1375.53 -1.91484 -0.0666597 0
M  V30 14354 C 1375.72 -1.28439 3.33524 0
M  V30 14355 C 1375.55 -0.290279 4.48762 0
M  V30 14356 C 1374.32 0.113206 5.05173 0
M  V30 14357 C 1376.52 0.459201 5.12246 0
M  V30 14358 N 1374.5 1.10151 6.03937 0
M  V30 14359 C 1375.87 1.30097 6.06197 0
M  V30 14360 C 1377.93 0.518891 4.95189 0
M  V30 14361 C 1376.63 2.19706 6.84924 0
M  V30 14362 C 1378.66 1.40236 5.74533 0
M  V30 14363 C 1378.02 2.23189 6.68106 0
M  V30 14364 H 1374.12 -0.203752 0.754989 0
M  V30 14365 H 1376.7 0.107819 1.94401 0
M  V30 14366 H 1374.87 -1.99555 3.33215 0
M  V30 14367 H 1376.6 -1.91388 3.56585 0
M  V30 14368 H 1373.36 -0.26316 4.72868 0
M  V30 14369 H 1373.78 1.59218 6.58011 0
M  V30 14370 H 1378.42 -0.108201 4.22662 0
M  V30 14371 H 1376.14 2.83467 7.56751 0
M  V30 14372 H 1379.73 1.45295 5.63365 0
M  V30 14373 H 1378.61 2.90443 7.28432 0
M  V30 14374 N 1376.11 -1.55841 -0.234795 0
M  V30 14375 C 1377.07 -1.9051 -1.2743 0
M  V30 14376 C 1378.07 -0.782543 -1.40474 0
M  V30 14377 O 1379.26 -1.05043 -1.38966 0
M  V30 14378 C 1376.4 -2.14424 -2.65019 0
M  V30 14379 H 1377.59 -2.83471 -0.979003 0
M  V30 14380 H 1375.14 -1.48919 -0.47463 0
M  V30 14381 H 1375.88 -1.23972 -2.99669 0
M  V30 14382 H 1375.66 -2.96191 -2.56931 0
M  V30 14383 H 1377.15 -2.42388 -3.40056 0
M  V30 14384 N 1377.59 0.500963 -1.49426 0
M  V30 14385 C 1378.87 1.26231 -1.49416 0
M  V30 14386 C 1379.25 2.0993 -0.221908 0
M  V30 14387 O 1378.59 2.14198 0.795712 0
M  V30 14388 C 1378.8 2.11899 -2.77308 0
M  V30 14389 C 1380.15 2.71086 -3.26799 0
M  V30 14390 O 1381.18 2.22166 -2.78425 0
M  V30 14391 O 1380.04 3.60141 -4.11049 0
M  V30 14392 H 1377.13 0.571224 -0.598024 0
M  V30 14393 H 1379.68 0.51523 -1.61689 0
M  V30 14394 H 1378.45 1.50027 -3.61397 0
M  V30 14395 H 1378.07 2.93799 -2.67896 0
M  V30 14396 N 1379.07 1.38501 0.752011 0
M  V30 14397 C 1380 1.38577 1.87933 0
M  V30 14398 C 1380.98 0.251454 1.68231 0
M  V30 14399 O 1382.16 0.45477 1.888 0
M  V30 14400 C 1379.29 1.21164 3.25479 0
M  V30 14401 C 1378.25 2.31816 3.59785 0
M  V30 14402 C 1377.57 1.99508 4.96085 0
M  V30 14403 C 1378.87 3.74082 3.645 0
M  V30 14404 H 1380.57 2.32913 1.88127 0
M  V30 14405 H 1378.11 1.12113 0.903698 0
M  V30 14406 H 1380.07 1.19842 4.04 0
M  V30 14407 H 1378.79 0.232899 3.25769 0
M  V30 14408 H 1377.45 2.32327 2.83584 0
M  V30 14409 H 1377.1 1.00114 4.92936 0
M  V30 14410 H 1376.8 2.73617 5.20007 0
M  V30 14411 H 1378.32 1.99807 5.76983 0
M  V30 14412 H 1379.74 3.75593 4.33131 0
M  V30 14413 H 1378.13 4.47409 3.99931 0
M  V30 14414 H 1379.2 4.06284 2.64692 0
M  V30 14415 N 1380.55 -0.980364 1.23396 0
M  V30 14416 C 1381.79 -1.72421 1.06765 0
M  V30 14417 C 1382.12 -1.90151 -0.394515 0
M  V30 14418 O 1381.4 -1.4538 -1.29209 0
M  V30 14419 C 1381.68 -3.12246 1.79372 0
M  V30 14420 C 1381.54 -3.02087 3.33262 0
M  V30 14421 C 1382.85 -4.11667 1.55624 0
M  V30 14422 H 1379.97 -0.625822 0.389251 0
M  V30 14423 H 1382.62 -1.14132 1.51901 0
M  V30 14424 H 1380.77 -3.62008 1.41004 0
M  V30 14425 H 1382.44 -2.59848 3.81152 0
M  V30 14426 H 1380.68 -2.38592 3.62293 0
M  V30 14427 H 1381.35 -4.01087 3.79254 0
M  V30 14428 H 1383.83 -3.70712 1.88975 0
M  V30 14429 H 1382.7 -5.07593 2.08902 0
M  V30 14430 H 1382.96 -4.39358 0.491601 0
M  V30 14431 N 1382.02 -1.04567 -1.17913 0
M  V30 14432 C 1383.27 -0.747179 -1.8735 0
M  V30 14433 C 1383.59 0.728274 -1.81537 0
M  V30 14434 O 1384.79 1.14048 -2.46385 0
M  V30 14435 C 1383.25 -1.28629 -3.36129 0
M  V30 14436 C 1382.86 -2.79073 -3.5046 0
M  V30 14437 C 1384.6 -1.06455 -4.10935 0
M  V30 14438 C 1382.51 -3.26316 -4.93226 0
M  V30 14439 H 1381.44 -0.275807 -0.701745 0
M  V30 14440 H 1384.09 -1.26215 -1.33199 0
M  V30 14441 H 1382.47 -0.699151 -3.89779 0
M  V30 14442 H 1383.64 -3.43587 -3.07057 0
M  V30 14443 H 1381.96 -2.99716 -2.89066 0
M  V30 14444 H 1384.56 -1.3926 -5.16247 0
M  V30 14445 H 1384.9 -0.00201298 -4.163 0
M  V30 14446 H 1385.43 -1.61656 -3.63472 0
M  V30 14447 H 1382.17 -4.31972 -4.93032 0
M  V30 14448 H 1381.69 -2.6654 -5.37323 0
M  V30 14449 H 1383.37 -3.2063 -5.61966 0
M  V30 14450 N 1383.5 1.34231 -0.825823 0
M  V30 14451 C 1384.74 2.00014 -0.421173 0
M  V30 14452 C 1385.11 1.64039 0.997759 0
M  V30 14453 O 1386.31 2.22688 1.50545 0
M  V30 14454 C 1384.58 3.5197 -0.620643 0
M  V30 14455 S 1386.14 4.37709 -0.309272 0
M  V30 14456 H 1382.95 0.692993 -0.159003 0
M  V30 14457 H 1385.56 1.63471 -1.07227 0
M  V30 14458 H 1384.26 3.7564 -1.65296 0
M  V30 14459 H 1383.79 3.93374 0.0450832 0
M  V30 14460 H 1385.81 4.88407 0.875943 0
M  V30 14461 N 1384.98 0.581051 1.46498 0
M  V30 14462 C 1385.93 -0.153147 2.30291 0
M  V30 14463 C 1386.9 -0.885681 1.40517 0
M  V30 14464 O 1388.08 -0.876678 1.69467 0
M  V30 14465 C 1385.22 -1.16193 3.24951 0
M  V30 14466 C 1384.33 -0.433016 4.29824 0
M  V30 14467 C 1383.47 -1.42918 5.11613 0
M  V30 14468 C 1382.51 -0.686576 6.08237 0
M  V30 14469 N 1381.65 -1.63072 6.829 0
M  V30 14470 H 1386.49 0.56747 2.92547 0
M  V30 14471 H 1384.02 0.29166 1.4418 0
M  V30 14472 H 1385.98 -1.75965 3.78275 0
M  V30 14473 H 1384.61 -1.85028 2.64508 0
M  V30 14474 H 1383.66 0.279707 3.7937 0
M  V30 14475 H 1384.97 0.147604 4.98582 0
M  V30 14476 H 1384.13 -2.09975 5.69206 0
M  V30 14477 H 1382.87 -2.04373 4.42813 0
M  V30 14478 H 1381.87 -0.00222013 5.498 0
M  V30 14479 H 1383.1 -0.0774416 6.79056 0
M  V30 14480 H 1381.04 -2.2334 6.1681 0
M  V30 14481 H 1380.96 -1.10286 7.47912 0
M  V30 14482 H 1382.23 -2.29169 7.45052 0
M  V30 14483 N 1386.46 -1.54343 0.318742 0
M  V30 14484 C 1387.69 -2.04894 -0.287378 0
M  V30 14485 C 1388.1 -1.19514 -1.46157 0
M  V30 14486 O 1387.46 -0.224722 -1.81111 0
M  V30 14487 C 1387.51 -3.54124 -0.726505 0
M  V30 14488 O 1387.23 -4.36261 0.400968 0
M  V30 14489 C 1388.73 -4.20748 -1.39594 0
M  V30 14490 H 1385.95 -0.668323 -0.0598724 0
M  V30 14491 H 1388.49 -1.99177 0.463531 0
M  V30 14492 H 1386.65 -3.60145 -1.4274 0
M  V30 14493 H 1387.06 -5.2447 0.0558714 0
M  V30 14494 H 1388.54 -5.26632 -1.65418 0
M  V30 14495 H 1389.01 -3.71566 -2.3417 0
M  V30 14496 H 1389.62 -4.18852 -0.737749 0
M  V30 14497 N 1387.94 -0.0468143 -1.5753 0
M  V30 14498 C 1389.35 0.309707 -1.56566 0
M  V30 14499 C 1389.55 1.7173 -1.05408 0
M  V30 14500 O 1388.61 2.4235 -0.708723 0
M  V30 14501 C 1389.92 0.142151 -3.00364 0
M  V30 14502 C 1391.47 0.213585 -3.1227 0
M  V30 14503 C 1391.94 0.0746102 -4.57939 0
M  V30 14504 N 1393.43 0.131027 -4.63015 0
M  V30 14505 C 1394.17 0.0475409 -5.7338 0
M  V30 14506 N 1393.67 -0.0880445 -6.92744 0
M  V30 14507 N 1395.46 0.102809 -5.62006 0
M  V30 14508 H 1387.61 -0.967057 -1.89108 0
M  V30 14509 H 1389.87 -0.375018 -0.870669 0
M  V30 14510 H 1389.58 -0.828171 -3.4181 0
M  V30 14511 H 1389.45 0.905006 -3.66182 0
M  V30 14512 H 1391.84 1.17438 -2.70726 0
M  V30 14513 H 1391.92 -0.57995 -2.49139 0
M  V30 14514 H 1391.56 -0.882839 -5.00168 0
M  V30 14515 H 1391.49 0.887235 -5.19072 0
M  V30 14516 H 1393.99 0.235246 -3.77167 0
M  V30 14517 H 1394.3 -0.144574 -7.72665 0
M  V30 14518 H 1392.64 -0.12307 -6.94891 0
M  V30 14519 H 1395.83 0.207259 -4.67641 0
M  V30 14520 H 1396.01 0.0342865 -6.47991 0
M  V30 14521 N 1389.41 1.55964 0.226527 0
M  V30 14522 C 1390.83 1.48844 0.575999 0
M  V30 14523 C 1391.03 0.740966 1.87382 0
M  V30 14524 O 1390.09 0.278599 2.50958 0
M  V30 14525 C 1391.4 2.93371 0.65984 0
M  V30 14526 C 1392.95 3.03862 0.750802 0
M  V30 14527 C 1393.42 4.49738 0.86603 0
M  V30 14528 N 1394.91 4.5376 0.930379 0
M  V30 14529 C 1395.65 5.63905 1.03916 0
M  V30 14530 N 1395.14 6.83814 1.1122 0
M  V30 14531 N 1396.94 5.51746 1.07391 0
M  V30 14532 H 1389.09 2.02991 -0.625179 0
M  V30 14533 H 1391.35 0.922435 -0.218674 0
M  V30 14534 H 1391.06 3.50985 -0.22411 0
M  V30 14535 H 1390.93 3.44994 1.52509 0
M  V30 14536 H 1393.32 2.46316 1.6252 0
M  V30 14537 H 1393.4 2.55416 -0.140019 0
M  V30 14538 H 1393.04 5.079 -0.00388632 0
M  V30 14539 H 1392.97 4.95884 1.77219 0
M  V30 14540 H 1395.46 3.67404 0.884451 0
M  V30 14541 H 1395.78 7.63507 1.19484 0
M  V30 14542 H 1394.12 6.86535 1.08142 0
M  V30 14543 H 1397.31 4.56997 1.01347 0
M  V30 14544 H 1397.49 6.37619 1.15523 0
M  V30 14545 N 1390.89 -0.493031 1.4969 0
M  V30 14546 C 1391.84 -1.61449 1.67442 0
M  V30 14547 C 1392.83 -1.60553 0.540296 0
M  V30 14548 O 1394.04 -1.64965 0.720167 0
M  V30 14549 H 1390.42 -0.535337 0.528127 0
M  V30 14550 H 1392.39 -1.43631 2.61558 0
M  V30 14551 C 1391.14 -2.99537 1.76559 0
M  V30 14552 H 1390.46 -3.00936 2.63206 0
M  V30 14553 H 1391.9 -3.77521 1.93013 0
M  V30 14554 C 1390.36 -3.32984 0.512176 0
M  V30 14555 O 1390.89 -4.00096 -0.35857 0
M  V30 14556 N 1389.09 -2.882 0.372734 0
M  V30 14557 H 1388.64 -2.3376 1.08232 0
M  V30 14558 H 1388.6 -3.10945 -0.464804 0
M  V30 14559 N 1392.37 -1.38898 -0.744656 0
M  V30 14560 C 1393.6 -1.3903 -1.53901 0
M  V30 14561 C 1394.02 0.0156607 -1.88093 0
M  V30 14562 O 1393.38 1.00012 -1.51219 0
M  V30 14563 C 1393.43 -2.2609 -2.80919 0
M  V30 14564 O 1392.53 -1.68414 -3.76444 0
M  V30 14565 H 1391.87 -0.473854 -0.465144 0
M  V30 14566 H 1394.4 -1.82773 -0.919525 0
M  V30 14567 H 1394.41 -2.40264 -3.29754 0
M  V30 14568 H 1393.09 -3.28271 -2.55364 0
M  V30 14569 H 1391.66 -1.63431 -3.35179 0
M  V30 14570 N 1393.85 0.973806 -1.23914 0
M  V30 14571 C 1395.09 1.71852 -1.07678 0
M  V30 14572 C 1395.43 1.90357 0.384425 0
M  V30 14573 O 1394.7 1.46063 1.28436 0
M  V30 14574 C 1394.99 3.1129 -1.81026 0
M  V30 14575 C 1394.84 3.00315 -3.3486 0
M  V30 14576 C 1396.16 4.10835 -1.57805 0
M  V30 14577 H 1393.28 0.623749 -0.392564 0
M  V30 14578 H 1395.92 1.13325 -1.52504 0
M  V30 14579 H 1394.07 3.61255 -1.42922 0
M  V30 14580 H 1395.74 2.57823 -3.82524 0
M  V30 14581 H 1393.98 2.36667 -3.63553 0
M  V30 14582 H 1394.65 3.9907 -3.81376 0
M  V30 14583 H 1397.13 3.69705 -1.90939 0
M  V30 14584 H 1396.01 5.06478 -2.11591 0
M  V30 14585 H 1396.27 4.39091 -0.514894 0
M  V30 14586 N 1395.33 1.05191 1.17357 0
M  V30 14587 C 1396.57 0.761984 1.87617 0
M  V30 14588 C 1396.9 -0.710976 1.8104 0
M  V30 14589 O 1396.16 -1.53566 1.21309 0
M  V30 14590 C 1396.46 1.18779 3.37085 0
M  V30 14591 C 1396.12 2.66296 3.63864 0
M  V30 14592 C 1394.78 3.06594 3.70882 0
M  V30 14593 C 1397.14 3.61622 3.75339 0
M  V30 14594 C 1394.46 4.41081 3.86865 0
M  V30 14595 C 1396.82 4.95842 3.9284 0
M  V30 14596 C 1395.48 5.35793 3.98097 0
M  V30 14597 H 1394.75 0.27883 0.686538 0
M  V30 14598 H 1397.4 1.31899 1.38834 0
M  V30 14599 H 1395.7 0.549782 3.87923 0
M  V30 14600 H 1397.4 0.940667 3.89811 0
M  V30 14601 H 1393.99 2.34089 3.59027 0
M  V30 14602 H 1398.17 3.31628 3.69238 0
M  V30 14603 H 1393.43 4.71536 3.89183 0
M  V30 14604 H 1397.6 5.696 4.00661 0
M  V30 14605 H 1395.23 6.40009 4.10234 0
M  V30 14606 N 1396.8 -1.33791 0.83293 0
M  V30 14607 C 1397.74 -2.28148 0.219336 0
M  V30 14608 C 1398.75 -1.51477 -0.596529 0
M  V30 14609 O 1399.94 -1.73377 -0.424571 0
M  V30 14610 C 1397.04 -3.31373 -0.710305 0
M  V30 14611 C 1396.21 -4.37352 0.0649215 0
M  V30 14612 C 1395.27 -5.20279 -0.78716 0
M  V30 14613 O 1394.3 -5.68741 -0.228511 0
M  V30 14614 N 1395.5 -5.40973 -2.10544 0
M  V30 14615 H 1398.26 -2.81443 1.03004 0
M  V30 14616 H 1395.82 -1.46421 0.690831 0
M  V30 14617 H 1397.82 -3.83752 -1.28517 0
M  V30 14618 H 1396.39 -2.78398 -1.42173 0
M  V30 14619 H 1395.61 -3.85553 0.821144 0
M  V30 14620 H 1396.89 -5.05271 0.598199 0
M  V30 14621 H 1396.29 -5.03291 -2.58292 0
M  V30 14622 H 1394.85 -5.96432 -2.62893 0
M  V30 14623 N 1398.28 -0.588812 -1.46187 0
M  V30 14624 C 1399.21 0.178825 -2.28501 0
M  V30 14625 C 1400.23 0.849686 -1.38867 0
M  V30 14626 O 1401.42 0.718224 -1.63413 0
M  V30 14627 C 1398.52 1.27309 -3.14079 0
M  V30 14628 C 1397.69 0.692974 -4.31876 0
M  V30 14629 C 1396.75 1.67572 -4.98805 0
M  V30 14630 O 1395.77 1.20937 -5.56204 0
M  V30 14631 N 1396.98 3.00992 -4.96371 0
M  V30 14632 H 1399.74 -0.527407 -2.95023 0
M  V30 14633 H 1397.3 -0.426998 -1.56168 0
M  V30 14634 H 1399.29 1.92993 -3.55719 0
M  V30 14635 H 1397.86 1.88209 -2.49592 0
M  V30 14636 H 1397.08 -0.141485 -3.93946 0
M  V30 14637 H 1398.37 0.28529 -5.08 0
M  V30 14638 H 1397.77 3.41498 -4.50994 0
M  V30 14639 H 1396.33 3.62149 -5.41933 0
M  V30 14640 N 1399.76 1.54172 -0.326923 0
M  V30 14641 C 1401.01 2.00233 0.274098 0
M  V30 14642 C 1401.33 1.21665 1.5239 0
M  V30 14643 O 1400.6 0.319359 1.93279 0
M  V30 14644 H 1399.18 0.739687 0.104271 0
M  V30 14645 H 1401.84 1.8977 -0.444244 0
M  V30 14646 H 1400.94 3.07599 0.528154 0
M  V30 14647 N 1401.24 0.0551678 1.57503 0
M  V30 14648 C 1402.17 -0.953348 2.07332 0
M  V30 14649 C 1403.15 -1.30148 0.974699 0
M  V30 14650 O 1404.33 -1.41366 1.24692 0
M  V30 14651 C 1401.46 -2.26622 2.51715 0
M  V30 14652 C 1400.51 -2.07085 3.72851 0
M  V30 14653 S 1401.34 -1.34553 5.1832 0
M  V30 14654 C 1402.5 -2.67155 5.6602 0
M  V30 14655 H 1402.73 -0.529294 2.9255 0
M  V30 14656 H 1400.26 -0.157196 1.53598 0
M  V30 14657 H 1402.22 -3.02085 2.77948 0
M  V30 14658 H 1400.88 -2.66155 1.66795 0
M  V30 14659 H 1400.07 -3.04206 4.01839 0
M  V30 14660 H 1399.68 -1.39761 3.46905 0
M  V30 14661 H 1401.97 -3.63309 5.7185 0
M  V30 14662 H 1402.91 -2.42798 6.65173 0
M  V30 14663 H 1403.32 -2.73597 4.93766 0
M  V30 14664 N 1402.72 -1.56081 -0.218252 0
M  V30 14665 C 1403.66 -1.92684 -1.27049 0
M  V30 14666 C 1404.63 -0.784441 -1.46409 0
M  V30 14667 O 1405.82 -1.04062 -1.59924 0
M  V30 14668 C 1402.96 -2.25174 -2.61516 0
M  V30 14669 C 1402.07 -3.52364 -2.49927 0
M  V30 14670 C 1401.21 -3.74286 -3.7694 0
M  V30 14671 C 1400.25 -4.94979 -3.60087 0
M  V30 14672 N 1399.38 -5.13273 -4.79057 0
M  V30 14673 H 1404.22 -2.82406 -0.951347 0
M  V30 14674 H 1401.76 -1.39774 -0.458441 0
M  V30 14675 H 1403.72 -2.42022 -3.39825 0
M  V30 14676 H 1402.35 -1.38621 -2.9152 0
M  V30 14677 H 1401.4 -3.43691 -1.63036 0
M  V30 14678 H 1402.71 -4.40826 -2.33397 0
M  V30 14679 H 1401.87 -3.91248 -4.63692 0
M  V30 14680 H 1400.6 -2.84111 -3.96399 0
M  V30 14681 H 1399.61 -4.77963 -2.71719 0
M  V30 14682 H 1400.83 -5.86641 -3.42095 0
M  V30 14683 H 1398.78 -4.26041 -4.98824 0
M  V30 14684 H 1398.7 -5.95873 -4.65265 0
M  V30 14685 H 1399.97 -5.34673 -5.67226 0
M  V30 14686 N 1404.2 0.485086 -1.49949 0
M  V30 14687 C 1405.14 1.60559 -1.68296 0
M  V30 14688 C 1406.14 1.60264 -0.548802 0
M  V30 14689 O 1407.34 1.64581 -0.728905 0
M  V30 14690 H 1403.72 0.532529 -0.530958 0
M  V30 14691 H 1405.69 1.42242 -2.62316 0
M  V30 14692 C 1404.44 2.98596 -1.78145 0
M  V30 14693 H 1403.76 2.99536 -2.64799 0
M  V30 14694 H 1405.2 3.76492 -1.95012 0
M  V30 14695 C 1403.66 3.32708 -0.529828 0
M  V30 14696 O 1404.19 4.00281 0.337347 0
M  V30 14697 N 1402.4 2.87998 -0.388012 0
M  V30 14698 H 1401.94 2.33182 -1.0947 0
M  V30 14699 H 1401.9 3.11187 0.448307 0
M  V30 14700 N 1405.67 1.39291 0.737279 0
M  V30 14701 C 1406.62 1.37829 1.85127 0
M  V30 14702 C 1407.59 0.238321 1.64381 0
M  V30 14703 O 1408.78 0.433081 1.8582 0
M  V30 14704 C 1405.92 1.22531 3.22615 0
M  V30 14705 C 1405.03 2.46052 3.55081 0
M  V30 14706 C 1404.16 2.2336 4.81958 0
M  V30 14707 C 1403.2 3.42569 5.0726 0
M  V30 14708 N 1402.34 3.19209 6.2534 0
M  V30 14709 H 1407.18 2.33056 1.85712 0
M  V30 14710 H 1404.72 1.15772 0.907484 0
M  V30 14711 H 1406.67 1.11673 4.01976 0
M  V30 14712 H 1405.3 0.30934 3.21314 0
M  V30 14713 H 1404.36 2.67521 2.70438 0
M  V30 14714 H 1405.67 3.3485 3.69698 0
M  V30 14715 H 1404.82 2.09732 5.69295 0
M  V30 14716 H 1403.56 1.31953 4.6951 0
M  V30 14717 H 1402.57 3.56698 4.18386 0
M  V30 14718 H 1403.79 4.34874 5.21595 0
M  V30 14719 H 1401.74 2.30464 6.14184 0
M  V30 14720 H 1401.65 4.01562 6.40534 0
M  V30 14721 H 1402.92 3.09269 7.15523 0
M  V30 14722 N 1407.15 -0.967221 1.24429 0
M  V30 14723 C 1408.4 -1.70458 1.07829 0
M  V30 14724 C 1408.71 -1.91818 -0.38278 0
M  V30 14725 O 1409.92 -2.63129 -0.668982 0
M  V30 14726 C 1408.38 -3.06817 1.88125 0
M  V30 14727 C 1407.98 -2.93298 3.38645 0
M  V30 14728 C 1409.73 -3.84422 1.80056 0
M  V30 14729 C 1407.63 -4.2497 4.11284 0
M  V30 14730 H 1406.56 -0.639217 0.399897 0
M  V30 14731 H 1409.22 -1.07776 1.48515 0
M  V30 14732 H 1407.6 -3.70331 1.40254 0
M  V30 14733 H 1408.77 -2.38793 3.94099 0
M  V30 14734 H 1407.09 -2.29159 3.47671 0
M  V30 14735 H 1409.68 -4.81925 2.31629 0
M  V30 14736 H 1410.03 -4.09194 0.765908 0
M  V30 14737 H 1410.56 -3.27636 2.2561 0
M  V30 14738 H 1407.3 -4.05391 5.1511 0
M  V30 14739 H 1406.82 -4.79288 3.60615 0
M  V30 14740 H 1408.5 -4.93586 4.18308 0
M  V30 14741 N 1408.63 -1.05812 -1.16797 0
M  V30 14742 C 1409.56 -0.685778 -2.23202 0
M  V30 14743 C 1410.54 0.319428 -1.67074 0
M  V30 14744 O 1411.73 0.195635 -1.93212 0
M  V30 14745 C 1408.86 -0.0662958 -3.47237 0
M  V30 14746 C 1407.81 -0.996943 -4.16227 0
M  V30 14747 C 1407.14 -0.241015 -5.34157 0
M  V30 14748 C 1408.44 -2.32384 -4.67755 0
M  V30 14749 H 1410.13 -1.57535 -2.54604 0
M  V30 14750 H 1407.68 -0.758909 -1.22379 0
M  V30 14751 H 1409.63 0.206024 -4.20896 0
M  V30 14752 H 1408.35 0.858263 -3.15121 0
M  V30 14753 H 1407.01 -1.25393 -3.44488 0
M  V30 14754 H 1406.66 0.686508 -4.98293 0
M  V30 14755 H 1406.36 -0.861188 -5.81255 0
M  V30 14756 H 1407.88 0.0238739 -6.10595 0
M  V30 14757 H 1409.3 -2.11099 -5.3302 0
M  V30 14758 H 1407.69 -2.89855 -5.25456 0
M  V30 14759 H 1408.76 -2.958 -3.84227 0
M  V30 14760 N 1410.11 1.33347 -0.840014 0
M  V30 14761 C 1411.36 1.97007 -0.432581 0
M  V30 14762 C 1411.67 1.67278 1.01378 0
M  V30 14763 O 1412.88 2.2456 1.52595 0
M  V30 14764 C 1411.33 3.52572 -0.72258 0
M  V30 14765 C 1410.94 3.91176 -2.1837 0
M  V30 14766 C 1412.68 4.22776 -0.382153 0
M  V30 14767 C 1410.59 5.39724 -2.41768 0
M  V30 14768 H 1409.52 0.737255 -0.158024 0
M  V30 14769 H 1412.17 1.5195 -1.02876 0
M  V30 14770 H 1410.55 3.9596 -0.0560179 0
M  V30 14771 H 1411.73 3.58842 -2.89083 0
M  V30 14772 H 1410.04 3.33956 -2.48721 0
M  V30 14773 H 1412.64 5.32021 -0.534588 0
M  V30 14774 H 1412.98 4.10792 0.674967 0
M  V30 14775 H 1413.52 3.84922 -1.004 0
M  V30 14776 H 1410.25 5.56713 -3.4605 0
M  V30 14777 H 1409.77 5.73514 -1.75617 0
M  V30 14778 H 1411.45 6.06624 -2.2498 0
M  V30 14779 N 1411.59 0.596556 1.45873 0
M  V30 14780 C 1412.83 0.0874583 2.02311 0
M  V30 14781 C 1413.16 -1.27781 1.46636 0
M  V30 14782 O 1412.42 -1.85393 0.62674 0
M  V30 14783 C 1412.71 -0.0135714 3.57397 0
M  V30 14784 C 1412.38 1.28591 4.32175 0
M  V30 14785 C 1411.04 1.6419 4.52322 0
M  V30 14786 C 1413.39 2.14523 4.75005 0
M  V30 14787 C 1410.72 2.85493 5.12553 0
M  V30 14788 C 1413.07 3.35065 5.36577 0
M  V30 14789 C 1411.74 3.70929 5.54949 0
M  V30 14790 H 1411.01 0.0320033 0.740309 0
M  V30 14791 H 1413.66 0.775967 1.75074 0
M  V30 14792 H 1411.96 -0.785287 3.8385 0
M  V30 14793 H 1413.66 -0.423456 3.98758 0
M  V30 14794 H 1410.25 0.99881 4.16799 0
M  V30 14795 H 1414.43 1.88321 4.59183 0
M  V30 14796 H 1409.69 3.134 5.24967 0
M  V30 14797 H 1413.86 4.01909 5.6872 0
M  V30 14798 H 1411.49 4.65011 6.01389 0
M  V30 14799 N 1413.06 -1.53996 0.335095 0
M  V30 14800 C 1414.31 -2.00375 -0.263475 0
M  V30 14801 C 1414.63 -1.22471 -1.51742 0
M  V30 14802 O 1413.9 -0.329604 -1.93107 0
M  V30 14803 H 1412.48 -0.740229 -0.100347 0
M  V30 14804 H 1415.14 -1.89531 0.454302 0
M  V30 14805 H 1414.24 -3.07874 -0.511834 0
M  V30 14806 N 1414.54 -0.0635198 -1.57472 0
M  V30 14807 C 1415.47 0.90431 -2.15278 0
M  V30 14808 C 1416.45 1.31609 -1.07764 0
M  V30 14809 O 1417.64 1.38861 -1.35762 0
M  V30 14810 C 1414.77 2.17483 -2.70774 0
M  V30 14811 C 1413.72 1.90272 -3.8338 0
M  V30 14812 C 1413.05 3.23885 -4.25444 0
M  V30 14813 C 1414.35 1.21454 -5.07983 0
M  V30 14814 H 1416.04 0.422786 -2.964 0
M  V30 14815 H 1413.59 0.201918 -1.42577 0
M  V30 14816 H 1415.54 2.856 -3.09856 0
M  V30 14817 H 1414.26 2.67863 -1.86861 0
M  V30 14818 H 1412.92 1.24564 -3.44789 0
M  V30 14819 H 1412.57 3.72089 -3.38465 0
M  V30 14820 H 1412.27 3.06472 -5.01347 0
M  V30 14821 H 1413.8 3.93212 -4.67137 0
M  V30 14822 H 1415.21 1.79625 -5.44433 0
M  V30 14823 H 1413.61 1.14327 -5.89109 0
M  V30 14824 H 1414.68 0.19238 -4.84518 0
M  V30 14825 N 1416.02 1.56195 0.209972 0
M  V30 14826 C 1417.27 1.79745 0.932638 0
M  V30 14827 C 1417.59 0.634252 1.83868 0
M  V30 14828 O 1416.85 -0.380798 1.91959 0
M  V30 14829 C 1417.15 3.09154 1.79328 0
M  V30 14830 C 1416.81 4.38754 1.03949 0
M  V30 14831 C 1415.48 4.73965 0.831308 0
M  V30 14832 C 1417.83 5.18718 0.508031 0
M  V30 14833 C 1415.16 5.86646 0.0799547 0
M  V30 14834 C 1417.51 6.32182 -0.230037 0
M  V30 14835 C 1416.17 6.65986 -0.449366 0
M  V30 14836 H 1415.44 0.657732 0.341276 0
M  V30 14837 H 1418.09 1.90453 0.199998 0
M  V30 14838 H 1416.39 2.93618 2.59414 0
M  V30 14839 H 1418.09 3.24578 2.35478 0
M  V30 14840 H 1414.68 4.11114 1.21174 0
M  V30 14841 H 1418.87 4.91941 0.656306 0
M  V30 14842 H 1414.12 6.11318 -0.100092 0
M  V30 14843 H 1418.3 6.93367 -0.649296 0
M  V30 14844 H 1415.92 7.53142 -1.03349 0
M  V30 14845 N 1417.5 -0.477127 1.50204 0
M  V30 14846 C 1418.41 -1.60182 1.71403 0
M  V30 14847 C 1419.42 -1.63437 0.597009 0
M  V30 14848 O 1420.6 -1.81418 0.874614 0
M  V30 14849 C 1417.66 -2.96432 1.79802 0
M  V30 14850 C 1416.73 -3.03614 3.03508 0
M  V30 14851 C 1415.96 -4.33365 3.11497 0
M  V30 14852 O 1416.18 -5.23529 2.26438 0
M  V30 14853 O 1415.12 -4.46013 4.04173 0
M  V30 14854 H 1418.94 -1.45221 2.66729 0
M  V30 14855 H 1416.53 -0.655982 1.34228 0
M  V30 14856 H 1418.41 -3.77367 1.87542 0
M  V30 14857 H 1417.08 -3.11605 0.876581 0
M  V30 14858 H 1415.99 -2.21779 3.01272 0
M  V30 14859 H 1417.32 -2.93376 3.95211 0
M  V30 14860 N 1418.98 -1.3968 -0.729882 0
M  V30 14861 C 1419.89 -1.41094 -1.87429 0
M  V30 14862 C 1420.9 -0.305142 -1.71303 0
M  V30 14863 O 1422.08 -0.54744 -1.93817 0
M  V30 14864 C 1419.14 -1.25786 -3.23077 0
M  V30 14865 C 1418.2 -2.46382 -3.5156 0
M  V30 14866 C 1417.44 -2.31795 -4.80735 0
M  V30 14867 O 1417.66 -1.32415 -5.54818 0
M  V30 14868 O 1416.59 -3.20883 -5.09232 0
M  V30 14869 H 1420.42 -2.37571 -1.89192 0
M  V30 14870 H 1418.01 -1.2085 -0.878389 0
M  V30 14871 H 1419.89 -1.19402 -4.0413 0
M  V30 14872 H 1418.56 -0.324065 -3.22074 0
M  V30 14873 H 1417.47 -2.58343 -2.70573 0
M  V30 14874 H 1418.8 -3.38473 -3.57347 0
M  V30 14875 N 1420.45 0.960609 -1.2494 0
M  V30 14876 C 1421.68 1.73928 -1.12057 0
M  V30 14877 C 1422.1 1.8596 0.32623 0
M  V30 14878 O 1421.45 1.35303 1.22472 0
M  V30 14879 C 1421.51 3.15614 -1.76267 0
M  V30 14880 O 1421.23 3.04177 -3.15291 0
M  V30 14881 C 1422.73 4.09786 -1.69086 0
M  V30 14882 H 1419.95 0.5452 -0.39115 0
M  V30 14883 H 1422.49 1.20556 -1.65186 0
M  V30 14884 H 1420.65 3.65949 -1.27123 0
M  V30 14885 H 1421.06 3.93513 -3.46768 0
M  V30 14886 H 1422.53 5.06835 -2.18683 0
M  V30 14887 H 1423.01 4.34312 -0.653453 0
M  V30 14888 H 1423.62 3.65365 -2.1769 0
M  V30 14889 N 1421.93 1.0643 1.16234 0
M  V30 14890 C 1422.9 0.680383 2.18869 0
M  V30 14891 C 1423.9 -0.274591 1.58438 0
M  V30 14892 O 1425.09 -0.0567907 1.74107 0
M  V30 14893 C 1422.22 0.00134091 3.409 0
M  V30 14894 H 1423.41 1.58894 2.54347 0
M  V30 14895 H 1420.96 0.859688 1.30534 0
M  V30 14896 H 1421.7 -0.919903 3.1098 0
M  V30 14897 H 1421.48 0.688057 3.86016 0
M  V30 14898 H 1422.97 -0.252938 4.16833 0
M  V30 14899 N 1423.41 -1.329 0.847073 0
M  V30 14900 C 1424.34 -2.31546 0.301422 0
M  V30 14901 C 1425.32 -1.59342 -0.595317 0
M  V30 14902 O 1426.51 -1.87188 -0.517151 0
M  V30 14903 C 1423.64 -3.43423 -0.517454 0
M  V30 14904 C 1422.59 -4.27055 0.284195 0
M  V30 14905 C 1421.92 -5.30624 -0.658944 0
M  V30 14906 C 1423.22 -5.00123 1.50578 0
M  V30 14907 H 1424.91 -2.77433 1.12567 0
M  V30 14908 H 1422.46 -1.3338 0.542739 0
M  V30 14909 H 1424.41 -4.11467 -0.909543 0
M  V30 14910 H 1423.13 -2.96246 -1.37499 0
M  V30 14911 H 1421.79 -3.60648 0.657944 0
M  V30 14912 H 1421.44 -4.79702 -1.51311 0
M  V30 14913 H 1421.14 -5.87464 -0.12662 0
M  V30 14914 H 1422.66 -6.01533 -1.04837 0
M  V30 14915 H 1424.08 -5.6089 1.18641 0
M  V30 14916 H 1422.48 -5.66652 1.97549 0
M  V30 14917 H 1423.55 -4.28424 2.27115 0
M  V30 14918 N 1424.89 -0.604284 -1.45555 0
M  V30 14919 C 1425.85 0.106526 -2.28952 0
M  V30 14920 C 1426.85 0.798277 -1.39586 0
M  V30 14921 O 1428.04 0.646943 -1.61741 0
M  V30 14922 C 1425.17 1.16091 -3.20524 0
M  V30 14923 H 1426.37 -0.626655 -2.9328 0
M  V30 14924 H 1423.92 -0.363183 -1.52022 0
M  V30 14925 H 1424.65 1.92496 -2.6099 0
M  V30 14926 H 1424.44 0.669137 -3.86348 0
M  V30 14927 H 1425.93 1.65882 -3.8324 0
M  V30 14928 N 1426.37 1.53816 -0.343257 0
M  V30 14929 C 1427.33 2.23654 0.501161 0
M  V30 14930 C 1428.33 1.23664 1.02781 0
M  V30 14931 O 1429.52 1.48104 0.917103 0
M  V30 14932 C 1426.65 2.95596 1.69812 0
M  V30 14933 H 1427.84 2.997 -0.109626 0
M  V30 14934 H 1425.4 1.56013 -0.0946011 0
M  V30 14935 H 1426.13 2.23736 2.34761 0
M  V30 14936 H 1425.92 3.68938 1.32768 0
M  V30 14937 H 1427.41 3.48748 2.29706 0
M  V30 14938 N 1427.84 0.0718701 1.57436 0
M  V30 14939 C 1429.09 -0.597231 1.93493 0
M  V30 14940 C 1429.42 -1.69614 0.951906 0
M  V30 14941 O 1428.67 -1.95673 -0.0324554 0
M  V30 14942 C 1428.97 -1.21336 3.36173 0
M  V30 14943 C 1428.64 -0.240582 4.50258 0
M  V30 14944 C 1427.3 0.0270368 4.81192 0
M  V30 14945 C 1429.65 0.424924 5.19465 0
M  V30 14946 C 1426.98 0.967249 5.78672 0
M  V30 14947 C 1429.33 1.35346 6.17952 0
M  V30 14948 C 1428 1.62954 6.47304 0
M  V30 14949 H 1427.27 -0.218542 0.70804 0
M  V30 14950 H 1429.91 0.142762 1.90967 0
M  V30 14951 H 1428.22 -2.02909 3.35164 0
M  V30 14952 H 1429.92 -1.73836 3.61361 0
M  V30 14953 H 1426.51 -0.459352 4.26131 0
M  V30 14954 H 1430.69 0.231285 4.95761 0
M  V30 14955 H 1425.95 1.1884 5.99739 0
M  V30 14956 H 1430.12 1.87509 6.70681 0
M  V30 14957 H 1427.75 2.3597 7.2265 0
M  V30 14958 N 1429.32 -1.56304 -0.201686 0
M  V30 14959 C 1430.25 -1.97046 -1.25281 0
M  V30 14960 C 1431.23 -0.841458 -1.47829 0
M  V30 14961 O 1432.42 -1.10529 -1.59678 0
M  V30 14962 C 1429.55 -2.30429 -2.59845 0
M  V30 14963 C 1428.5 -3.46006 -2.5192 0
M  V30 14964 C 1427.83 -3.65047 -3.90697 0
M  V30 14965 C 1429.13 -4.80391 -2.04992 0
M  V30 14966 H 1430.82 -2.85099 -0.914272 0
M  V30 14967 H 1428.37 -1.37166 -0.438359 0
M  V30 14968 H 1430.32 -2.57525 -3.33555 0
M  V30 14969 H 1429.05 -1.39251 -2.95426 0
M  V30 14970 H 1427.7 -3.18991 -1.80667 0
M  V30 14971 H 1427.35 -2.71211 -4.2362 0
M  V30 14972 H 1427.05 -4.42796 -3.86271 0
M  V30 14973 H 1428.58 -3.94512 -4.66039 0
M  V30 14974 H 1429.99 -5.06561 -2.68456 0
M  V30 14975 H 1428.39 -5.61563 -2.11582 0
M  V30 14976 H 1429.46 -4.74416 -1.00288 0
M  V30 14977 N 1430.8 0.469154 -1.50455 0
M  V30 14978 C 1432.03 1.24899 -1.65575 0
M  V30 14979 C 1432.45 1.85009 -0.339581 0
M  V30 14980 O 1431.81 1.67376 0.696774 0
M  V30 14981 C 1431.86 2.33205 -2.75041 0
M  V30 14982 O 1430.96 3.37898 -2.36429 0
M  V30 14983 H 1430.3 0.367362 -0.553119 0
M  V30 14984 H 1432.83 0.558083 -1.96842 0
M  V30 14985 H 1432.84 2.78487 -2.98176 0
M  V30 14986 H 1431.52 1.88826 -3.70564 0
M  V30 14987 H 1430.09 2.98314 -2.23748 0
M  V30 14988 N 1432.28 1.40065 0.722464 0
M  V30 14989 C 1433.51 1.41066 1.50944 0
M  V30 14990 C 1433.92 0.00678083 1.89199 0
M  V30 14991 O 1433.26 -0.977992 1.55502 0
M  V30 14992 C 1433.32 2.23127 2.81877 0
M  V30 14993 C 1432.99 3.7162 2.65984 0
M  V30 14994 C 1433.98 4.64415 2.33698 0
M  V30 14995 C 1431.67 4.15355 2.82463 0
M  V30 14996 C 1433.66 5.98928 2.18091 0
M  V30 14997 C 1431.35 5.49941 2.66474 0
M  V30 14998 C 1432.35 6.41542 2.34335 0
M  V30 14999 O 1432.03 7.73647 2.18461 0
M  V30 15000 H 1431.77 0.483321 0.472628 0
M  V30 15001 H 1434.32 1.84664 0.899356 0
M  V30 15002 H 1432.55 1.74298 3.45192 0
M  V30 15003 H 1434.24 2.16153 3.43559 0
M  V30 15004 H 1435.01 4.31924 2.20606 0
M  V30 15005 H 1430.88 3.44381 3.06468 0
M  V30 15006 H 1434.43 6.70391 1.92928 0
M  V30 15007 H 1430.33 5.82019 2.79149 0
M  V30 15008 H 1431.09 7.84507 2.33434 0
M  V30 15009 N 1433.76 -0.95397 1.25448 0
M  V30 15010 C 1435 -1.71348 1.11441 0
M  V30 15011 C 1435.36 -1.88988 -0.338748 0
M  V30 15012 O 1436.56 -2.62003 -0.600652 0
M  V30 15013 C 1434.83 -3.05874 1.84867 0
M  V30 15014 S 1436.39 -3.97072 1.86759 0
M  V30 15015 H 1433.21 -0.588957 0.39831 0
M  V30 15016 H 1435.81 -1.13776 1.58982 0
M  V30 15017 H 1434.52 -2.90706 2.89686 0
M  V30 15018 H 1434.05 -3.68508 1.37715 0
M  V30 15019 H 1436.06 -4.87116 0.945109 0
M  V30 15020 N 1435.24 -1.07045 -1.15668 0
M  V30 15021 C 1436.65 -0.814932 -1.67975 0
M  V30 15022 C 1437 0.660408 -1.84751 0
M  V30 15023 O 1436.12 1.51156 -1.54857 0
M  V30 15024 C 1436.72 -1.47274 -3.05116 0
M  V30 15025 C 1435.28 -1.26481 -3.54513 0
M  V30 15026 C 1434.42 -1.54439 -2.30312 0
M  V30 15027 H 1437.37 -1.23291 -0.999251 0
M  V30 15028 H 1437.4 -0.892244 -3.69891 0
M  V30 15029 H 1436.91 -2.54649 -2.92874 0
M  V30 15030 H 1435.01 -0.211138 -3.72001 0
M  V30 15031 H 1435.12 -1.98283 -4.36143 0
M  V30 15032 H 1433.49 -0.965269 -2.357 0
M  V30 15033 H 1434.27 -2.6299 -2.20661 0
M  V30 15034 N 1436.71 1.32449 -0.85411 0
M  V30 15035 C 1437.96 1.96881 -0.45632 0
M  V30 15036 C 1438.28 1.67926 0.991248 0
M  V30 15037 O 1437.55 0.986195 1.69266 0
M  V30 15038 H 1436.13 0.728378 -0.165752 0
M  V30 15039 H 1438.79 1.61542 -1.09042 0
M  V30 15040 H 1437.89 3.0626 -0.600927 0
M  V30 15041 N 1438.19 0.611994 1.45232 0
M  V30 15042 C 1439.12 -0.153214 2.27685 0
M  V30 15043 C 1440.1 -0.869474 1.37401 0
M  V30 15044 O 1441.29 -0.877453 1.66832 0
M  V30 15045 C 1438.41 -1.22224 3.15878 0
M  V30 15046 C 1437.46 -0.608624 4.22135 0
M  V30 15047 S 1438.29 0.586848 5.32275 0
M  V30 15048 C 1439.45 -0.482657 6.24036 0
M  V30 15049 H 1439.68 0.546316 2.92237 0
M  V30 15050 H 1437.21 0.399631 1.49139 0
M  V30 15051 H 1439.17 -1.83413 3.67246 0
M  V30 15052 H 1437.83 -1.89386 2.50583 0
M  V30 15053 H 1437.03 -1.41312 4.83784 0
M  V30 15054 H 1436.63 -0.0717689 3.73931 0
M  V30 15055 H 1438.92 -1.36053 6.63699 0
M  V30 15056 H 1439.86 0.0977803 7.08032 0
M  V30 15057 H 1440.27 -0.799965 5.58803 0
M  V30 15058 N 1439.67 -1.53632 0.351409 0
M  V30 15059 C 1440.92 -2.00643 -0.242208 0
M  V30 15060 C 1441.24 -1.24074 -1.50435 0
M  V30 15061 O 1440.51 -0.350067 -1.92747 0
M  V30 15062 H 1439.09 -0.741252 -0.0924904 0
M  V30 15063 H 1441.75 -1.89039 0.474379 0
M  V30 15064 H 1440.85 -3.084 -0.479151 0
M  V30 15065 N 1441.15 -0.0802183 -1.57396 0
M  V30 15066 C 1442.39 0.587831 -1.94094 0
M  V30 15067 C 1442.73 1.6875 -0.961093 0
M  V30 15068 O 1442 1.94498 0.00832799 0
M  V30 15069 C 1442.28 1.15692 -3.41009 0
M  V30 15070 C 1442.14 0.0633211 -4.49755 0
M  V30 15071 C 1443.46 2.05987 -3.88918 0
M  V30 15072 H 1440.58 0.212214 -0.705786 0
M  V30 15073 H 1443.22 -0.147902 -1.89423 0
M  V30 15074 H 1441.37 1.78394 -3.4512 0
M  V30 15075 H 1443.04 -0.57019 -4.57763 0
M  V30 15076 H 1441.28 -0.605003 -4.2956 0
M  V30 15077 H 1441.95 0.502056 -5.49712 0
M  V30 15078 H 1444.43 1.5321 -3.86867 0
M  V30 15079 H 1443.31 2.42737 -4.92311 0
M  V30 15080 H 1443.57 2.97147 -3.27347 0
M  V30 15081 N 1442.63 1.56409 0.193394 0
M  V30 15082 C 1443.59 1.93822 1.22334 0
M  V30 15083 C 1444.59 0.819513 1.3835 0
M  V30 15084 O 1445.78 1.0869 1.36132 0
M  V30 15085 C 1442.91 2.21375 2.59241 0
M  V30 15086 H 1444.1 2.85967 0.903502 0
M  V30 15087 H 1441.66 1.50125 0.43498 0
M  V30 15088 H 1442.39 1.31874 2.96277 0
M  V30 15089 H 1442.18 3.02899 2.48988 0
M  V30 15090 H 1443.67 2.51319 3.33509 0
M  V30 15091 N 1444.1 -0.461169 1.50702 0
M  V30 15092 C 1445.03 -1.56576 1.73223 0
M  V30 15093 C 1446.01 -1.59855 0.581401 0
M  V30 15094 O 1447.2 -1.75964 0.821602 0
M  V30 15095 C 1444.33 -2.94835 1.83548 0
M  V30 15096 C 1443.28 -3.06421 2.98815 0
M  V30 15097 C 1442.61 -4.46425 2.94293 0
M  V30 15098 C 1443.91 -2.82714 4.3917 0
M  V30 15099 H 1445.6 -1.37982 2.65709 0
M  V30 15100 H 1443.15 -0.662362 1.27862 0
M  V30 15101 H 1445.1 -3.72047 1.97887 0
M  V30 15102 H 1443.83 -3.14608 0.876906 0
M  V30 15103 H 1442.49 -2.31644 2.84142 0
M  V30 15104 H 1442.13 -4.63131 1.96262 0
M  V30 15105 H 1441.83 -4.55111 3.71682 0
M  V30 15106 H 1443.36 -5.25644 3.10695 0
M  V30 15107 H 1444.77 -3.4967 4.54317 0
M  V30 15108 H 1443.17 -3.02835 5.18084 0
M  V30 15109 H 1444.24 -1.78492 4.50853 0
M  V30 15110 N 1445.58 -1.40446 -0.715026 0
M  V30 15111 C 1447 -1.22488 -1.02317 0
M  V30 15112 C 1447.2 -0.100481 -2.01249 0
M  V30 15113 O 1446.25 0.541447 -2.46626 0
M  V30 15114 C 1447.57 -2.56682 -1.56636 0
M  V30 15115 C 1449.11 -2.63699 -1.68617 0
M  V30 15116 C 1449.59 -3.98163 -2.26342 0
M  V30 15117 N 1451.08 -3.99907 -2.33727 0
M  V30 15118 C 1451.82 -5.00737 -2.79375 0
M  V30 15119 N 1451.31 -6.11961 -3.24771 0
M  V30 15120 N 1453.1 -4.88106 -2.78764 0
M  V30 15121 H 1445.26 -2.12317 -0.0592712 0
M  V30 15122 H 1447.52 -0.943823 -0.088895 0
M  V30 15123 H 1447.22 -3.39615 -0.914036 0
M  V30 15124 H 1447.1 -2.77809 -2.55151 0
M  V30 15125 H 1449.49 -1.81138 -2.32966 0
M  V30 15126 H 1449.57 -2.46402 -0.687004 0
M  V30 15127 H 1449.21 -4.81164 -1.62614 0
M  V30 15128 H 1449.14 -4.1279 -3.26974 0
M  V30 15129 H 1451.63 -3.19592 -2.01666 0
M  V30 15130 H 1451.94 -6.84787 -3.58171 0
M  V30 15131 H 1450.29 -6.15525 -3.22729 0
M  V30 15132 H 1453.48 -4.00307 -2.42635 0
M  V30 15133 H 1453.65 -5.66828 -3.14023 0
M  V30 15134 N 1447.06 0.947303 -1.25952 0
M  V30 15135 C 1447.99 2.04485 -1.01297 0
M  V30 15136 C 1448.97 1.62488 0.06024 0
M  V30 15137 O 1450.15 1.88326 -0.0809237 0
M  V30 15138 C 1447.28 3.34484 -0.532733 0
M  V30 15139 C 1446.33 3.95449 -1.59758 0
M  V30 15140 S 1447.16 4.30498 -3.18484 0
M  V30 15141 C 1448.32 5.63605 -2.72213 0
M  V30 15142 H 1448.55 2.25084 -1.94228 0
M  V30 15143 H 1446.08 1.0879 -1.09564 0
M  V30 15144 H 1448.04 4.09661 -0.262309 0
M  V30 15145 H 1446.7 3.11839 0.376192 0
M  V30 15146 H 1445.89 4.892 -1.21243 0
M  V30 15147 H 1445.5 3.26781 -1.81907 0
M  V30 15148 H 1447.79 6.42046 -2.16295 0
M  V30 15149 H 1448.73 6.07 -3.64633 0
M  V30 15150 H 1449.14 5.2319 -2.11974 0
M  V30 15151 N 1448.54 1.07657 1.15099 0
M  V30 15152 C 1449.77 0.821631 1.89559 0
M  V30 15153 C 1450.18 -0.629174 1.78432 0
M  V30 15154 O 1449.52 -1.44353 1.13613 0
M  V30 15155 C 1449.58 1.15473 3.4045 0
M  V30 15156 C 1449.25 2.60675 3.75363 0
M  V30 15157 C 1450.24 3.58923 3.76125 0
M  V30 15158 C 1447.93 2.96333 4.05576 0
M  V30 15159 C 1449.92 4.90863 4.06611 0
M  V30 15160 C 1447.61 4.28469 4.35727 0
M  V30 15161 C 1448.61 5.25543 4.36226 0
M  V30 15162 O 1448.29 6.55305 4.65651 0
M  V30 15163 H 1448.03 0.296469 0.607521 0
M  V30 15164 H 1450.58 1.43722 1.46742 0
M  V30 15165 H 1448.81 0.482117 3.83683 0
M  V30 15166 H 1450.5 0.881832 3.96205 0
M  V30 15167 H 1451.27 3.32718 3.52879 0
M  V30 15168 H 1447.14 2.2142 4.04344 0
M  V30 15169 H 1450.69 5.66626 4.06916 0
M  V30 15170 H 1446.59 4.54425 4.58441 0
M  V30 15171 H 1447.35 6.60503 4.83402 0
M  V30 15172 N 1450.02 -1.31994 0.861122 0
M  V30 15173 C 1451.43 -1.79271 0.521437 0
M  V30 15174 C 1451.78 -1.71046 -0.96113 0
M  V30 15175 O 1450.9 -1.2729 -1.75003 0
M  V30 15176 C 1451.5 -3.25507 0.939731 0
M  V30 15177 C 1450.06 -3.70713 0.651845 0
M  V30 15178 C 1449.2 -2.52967 1.13592 0
M  V30 15179 H 1452.16 -1.19201 1.0477 0
M  V30 15180 H 1452.18 -3.79619 0.258754 0
M  V30 15181 H 1451.69 -3.3146 2.0188 0
M  V30 15182 H 1449.79 -3.70268 -0.416232 0
M  V30 15183 H 1449.9 -4.63236 1.22267 0
M  V30 15184 H 1448.27 -2.48558 0.555971 0
M  V30 15185 H 1449.05 -2.61671 2.22223 0
M  V30 15186 N 1451.49 -0.619688 -1.44906 0
M  V30 15187 C 1452.42 0.0791121 -2.33366 0
M  V30 15188 C 1453.41 0.846503 -1.47541 0
M  V30 15189 O 1454.59 0.814657 -1.76287 0
M  V30 15190 C 1451.72 1.06901 -3.30438 0
M  V30 15191 C 1450.67 0.41403 -4.25993 0
M  V30 15192 C 1450 1.51303 -5.12846 0
M  V30 15193 C 1451.3 -0.672483 -5.17953 0
M  V30 15194 H 1452.99 -0.659551 -2.92045 0
M  V30 15195 H 1450.54 -0.318623 -1.40431 0
M  V30 15196 H 1452.49 1.56653 -3.912 0
M  V30 15197 H 1451.22 1.83842 -2.69944 0
M  V30 15198 H 1449.88 -0.0627315 -3.66546 0
M  V30 15199 H 1449.52 2.27303 -4.48712 0
M  V30 15200 H 1449.22 1.08022 -5.77586 0
M  V30 15201 H 1450.75 2.01258 -5.76479 0
M  V30 15202 H 1452.16 -0.258542 -5.72717 0
M  V30 15203 H 1450.56 -1.02776 -5.91234 0
M  V30 15204 H 1451.63 -1.54425 -4.59653 0
M  V30 15205 N 1452.97 1.53444 -0.359552 0
M  V30 15206 C 1453.92 2.25544 0.48977 0
M  V30 15207 C 1454.89 1.25982 1.08248 0
M  V30 15208 O 1456.07 1.54751 1.1161 0
M  V30 15209 C 1453.21 3.04358 1.62666 0
M  V30 15210 C 1452.33 4.18801 1.0597 0
M  V30 15211 C 1451.46 4.85069 2.1652 0
M  V30 15212 C 1450.5 5.91554 1.57259 0
M  V30 15213 N 1449.64 6.51537 2.61617 0
M  V30 15214 H 1454.48 2.97709 -0.13158 0
M  V30 15215 H 1452.02 1.469 -0.0767056 0
M  V30 15216 H 1453.97 3.48324 2.29623 0
M  V30 15217 H 1452.6 2.34459 2.21876 0
M  V30 15218 H 1451.66 3.79364 0.280599 0
M  V30 15219 H 1452.97 4.95341 0.586383 0
M  V30 15220 H 1452.12 5.32187 2.9131 0
M  V30 15221 H 1450.86 4.07988 2.67202 0
M  V30 15222 H 1449.87 5.43803 0.809818 0
M  V30 15223 H 1451.09 6.70552 1.07409 0
M  V30 15224 H 1449.04 5.77312 3.11523 0
M  V30 15225 H 1448.95 7.23599 2.18954 0
M  V30 15226 H 1450.22 7.03306 3.36127 0
M  V30 15227 N 1454.45 0.0885642 1.57351 0
M  V30 15228 C 1455.86 -0.441569 1.81403 0
M  V30 15229 C 1456.21 -1.68582 1.00372 0
M  V30 15230 O 1455.34 -2.15162 0.231153 0
M  V30 15231 C 1455.93 -0.807886 3.29027 0
M  V30 15232 C 1454.49 -1.2828 3.53866 0
M  V30 15233 C 1453.64 -0.276217 2.75921 0
M  V30 15234 H 1456.59 0.314083 1.55561 0
M  V30 15235 H 1456.61 -1.66797 3.41993 0
M  V30 15236 H 1456.12 0.0978886 3.87977 0
M  V30 15237 H 1454.22 -2.2065 3.0024 0
M  V30 15238 H 1454.34 -1.24914 4.62529 0
M  V30 15239 H 1452.7 -0.757007 2.4319 0
M  V30 15240 H 1453.48 0.622123 3.37616 0
M  V30 15241 N 1455.93 -1.56509 -0.185096 0
M  V30 15242 C 1457.16 -1.85327 -0.91986 0
M  V30 15243 C 1457.57 -0.672294 -1.76425 0
M  V30 15244 O 1456.93 0.358854 -1.78937 0
M  V30 15245 C 1456.98 -3.13047 -1.80787 0
M  V30 15246 O 1456.7 -4.26591 -0.997569 0
M  V30 15247 C 1458.2 -3.55114 -2.65347 0
M  V30 15248 H 1455.42 -0.615196 -0.267909 0
M  V30 15249 H 1457.97 -2.03622 -0.189338 0
M  V30 15250 H 1456.12 -2.96619 -2.4919 0
M  V30 15251 H 1456.53 -4.99384 -1.60362 0
M  V30 15252 H 1458.01 -4.47419 -3.23295 0
M  V30 15253 H 1458.49 -2.78576 -3.39547 0
M  V30 15254 H 1459.09 -3.74105 -2.023 0
M  V30 15255 N 1457.41 0.45317 -1.50944 0
M  V30 15256 C 1458.65 1.20269 -1.64033 0
M  V30 15257 C 1459.01 1.89287 -0.344707 0
M  V30 15258 O 1458.3 1.79927 0.65855 0
M  V30 15259 C 1458.49 2.25747 -2.7708 0
M  V30 15260 C 1458.32 1.67079 -4.1751 0
M  V30 15261 C 1457.09 1.46264 -4.83668 0
M  V30 15262 C 1459.29 1.15577 -5.01145 0
M  V30 15263 N 1457.27 0.830278 -6.08259 0
M  V30 15264 C 1458.64 0.647721 -6.16607 0
M  V30 15265 C 1460.7 1.04601 -4.86788 0
M  V30 15266 C 1459.4 0.0407277 -7.19288 0
M  V30 15267 C 1461.43 0.452936 -5.89663 0
M  V30 15268 C 1460.79 -0.0446434 -7.04386 0
M  V30 15269 H 1456.89 0.428334 -0.654259 0
M  V30 15270 H 1459.47 0.501782 -1.88123 0
M  V30 15271 H 1457.64 2.93244 -2.54681 0
M  V30 15272 H 1459.38 2.92745 -2.79432 0
M  V30 15273 H 1456.13 1.71995 -4.41265 0
M  V30 15274 H 1456.56 0.531994 -6.74907 0
M  V30 15275 H 1461.2 1.41661 -3.98362 0
M  V30 15276 H 1458.92 -0.34203 -8.07376 0
M  V30 15277 H 1462.5 0.370136 -5.80621 0
M  V30 15278 H 1461.38 -0.496363 -7.82628 0
M  V30 15279 N 1458.88 1.40823 0.707568 0
M  V30 15280 C 1460.13 1.40743 1.46843 0
M  V30 15281 C 1460.49 0.0119104 1.92396 0
M  V30 15282 O 1459.78 -0.960008 1.65814 0
M  V30 15283 C 1459.97 2.33829 2.70294 0
M  V30 15284 C 1459.8 3.82294 2.36816 0
M  V30 15285 C 1458.57 4.51056 2.27764 0
M  V30 15286 C 1460.77 4.7358 2.00565 0
M  V30 15287 N 1458.75 5.84711 1.87045 0
M  V30 15288 C 1460.12 5.96093 1.7051 0
M  V30 15289 C 1462.18 4.6134 1.8727 0
M  V30 15290 C 1460.88 7.07729 1.28497 0
M  V30 15291 C 1462.91 5.72926 1.46662 0
M  V30 15292 C 1462.27 6.94529 1.1751 0
M  V30 15293 H 1458.37 0.570255 0.535101 0
M  V30 15294 H 1460.95 1.766 0.81979 0
M  V30 15295 H 1459.12 2.00087 3.32896 0
M  V30 15296 H 1460.85 2.2455 3.36689 0
M  V30 15297 H 1457.61 4.04839 2.45768 0
M  V30 15298 H 1458.03 6.55515 1.69201 0
M  V30 15299 H 1462.68 3.67834 2.08467 0
M  V30 15300 H 1460.39 8.01112 1.06044 0
M  V30 15301 H 1463.98 5.65454 1.36942 0
M  V30 15302 H 1462.86 7.79408 0.865604 0
M  V30 15303 N 1460.36 -0.94061 1.26453 0
M  V30 15304 C 1461.61 -1.68687 1.12031 0
M  V30 15305 C 1461.94 -1.91571 -0.336252 0
M  V30 15306 O 1461.19 -1.49458 -1.26336 0
M  V30 15307 C 1461.49 -3.06683 1.83521 0
M  V30 15308 C 1461.16 -3.03553 3.33416 0
M  V30 15309 C 1459.82 -3.02407 3.74304 0
M  V30 15310 C 1462.17 -2.95817 4.29118 0
M  V30 15311 C 1459.5 -2.9129 5.09281 0
M  V30 15312 C 1461.85 -2.86242 5.64135 0
M  V30 15313 C 1460.52 -2.83438 6.04333 0
M  V30 15314 H 1459.79 -0.61727 0.40995 0
M  V30 15315 H 1462.43 -1.0979 1.56902 0
M  V30 15316 H 1460.74 -3.69208 1.31121 0
M  V30 15317 H 1462.43 -3.63274 1.69802 0
M  V30 15318 H 1459.02 -3.05226 3.00891 0
M  V30 15319 H 1463.21 -2.9581 3.9851 0
M  V30 15320 H 1458.46 -2.87498 5.39588 0
M  V30 15321 H 1462.64 -2.79219 6.37973 0
M  V30 15322 H 1460.27 -2.74581 7.08879 0
M  V30 15323 N 1461.84 -1.08266 -1.14527 0
M  V30 15324 C 1463.08 -0.820945 -1.87189 0
M  V30 15325 C 1463.44 0.641556 -1.80964 0
M  V30 15326 O 1464.65 1.01871 -2.48749 0
M  V30 15327 C 1462.92 -1.32668 -3.31865 0
M  V30 15328 S 1464.48 -1.19705 -4.22157 0
M  V30 15329 H 1461.29 -0.297237 -0.645888 0
M  V30 15330 H 1463.9 -1.38364 -1.38114 0
M  V30 15331 H 1462.6 -2.38558 -3.33943 0
M  V30 15332 H 1462.13 -0.759588 -3.85997 0
M  V30 15333 H 1464.15 -0.140421 -4.96001 0
M  V30 15334 N 1463.32 1.31536 -0.86811 0
M  V30 15335 C 1464.28 2.26849 -0.327456 0
M  V30 15336 C 1465.28 1.52142 0.520514 0
M  V30 15337 O 1466.47 1.71044 0.330088 0
M  V30 15338 C 1463.6 3.36673 0.535174 0
M  V30 15339 H 1464.8 2.76184 -1.16886 0
M  V30 15340 H 1462.35 1.42437 -0.643545 0
M  V30 15341 H 1463.09 2.92627 1.39785 0
M  V30 15342 H 1462.87 3.92034 -0.0719835 0
M  V30 15343 H 1464.36 4.07658 0.905786 0
M  V30 15344 N 1464.8 0.627364 1.44575 0
M  V30 15345 C 1466.04 0.130352 2.0208 0
M  V30 15346 C 1466.37 -1.24642 1.49314 0
M  V30 15347 O 1465.63 -1.84022 0.665923 0
M  V30 15348 C 1465.93 0.0622409 3.57346 0
M  V30 15349 C 1465.59 1.37729 4.2935 0
M  V30 15350 C 1464.25 1.73747 4.48737 0
M  V30 15351 C 1466.61 2.2455 4.70347 0
M  V30 15352 C 1463.93 2.96301 5.06382 0
M  V30 15353 C 1466.29 3.46371 5.29349 0
M  V30 15354 C 1464.95 3.82616 5.46956 0
M  V30 15355 H 1464.22 0.0476991 0.739463 0
M  V30 15356 H 1466.87 0.812928 1.73389 0
M  V30 15357 H 1465.17 -0.70369 3.85429 0
M  V30 15358 H 1466.87 -0.338778 3.99566 0
M  V30 15359 H 1463.46 1.08699 4.14587 0
M  V30 15360 H 1467.64 1.98019 4.55085 0
M  V30 15361 H 1462.9 3.24465 5.18201 0
M  V30 15362 H 1467.07 4.13882 5.60067 0
M  V30 15363 H 1464.7 4.77663 5.9139 0
M  V30 15364 N 1466.28 -1.53251 0.367684 0
M  V30 15365 C 1467.69 -1.86369 -0.111073 0
M  V30 15366 C 1468.04 -1.2882 -1.47986 0
M  V30 15367 O 1467.16 -0.611058 -2.07593 0
M  V30 15368 C 1467.76 -3.38159 -0.208325 0
M  V30 15369 C 1466.32 -3.71067 -0.63134 0
M  V30 15370 C 1465.46 -2.76425 0.220144 0
M  V30 15371 H 1468.41 -1.47469 0.586398 0
M  V30 15372 H 1468.44 -3.66252 -1.03151 0
M  V30 15373 H 1467.95 -3.80015 0.788038 0
M  V30 15374 H 1466.05 -3.34769 -1.63586 0
M  V30 15375 H 1466.16 -4.77389 -0.404491 0
M  V30 15376 H 1464.53 -2.5279 -0.311298 0
M  V30 15377 H 1465.31 -3.21115 1.21409 0
M  V30 15378 N 1467.75 -0.0969077 -1.57302 0
M  V30 15379 C 1468.98 0.573872 -1.9847 0
M  V30 15380 C 1469.39 1.62149 -0.974894 0
M  V30 15381 O 1468.73 1.83649 0.0434873 0
M  V30 15382 C 1468.8 1.2781 -3.36013 0
M  V30 15383 C 1468.46 0.381022 -4.55409 0
M  V30 15384 C 1469.46 -0.371559 -5.18571 0
M  V30 15385 C 1467.14 0.29855 -5.01412 0
M  V30 15386 C 1469.14 -1.19457 -6.26106 0
M  V30 15387 C 1466.82 -0.528116 -6.08814 0
M  V30 15388 C 1467.82 -1.27333 -6.71026 0
M  V30 15389 O 1467.51 -2.08631 -7.76356 0
M  V30 15390 H 1467.24 0.158369 -0.657187 0
M  V30 15391 H 1469.8 -0.173415 -2.04667 0
M  V30 15392 H 1468.03 2.07199 -3.26505 0
M  V30 15393 H 1469.71 1.84359 -3.61617 0
M  V30 15394 H 1470.48 -0.317586 -4.83959 0
M  V30 15395 H 1466.36 0.868247 -4.5275 0
M  V30 15396 H 1469.9 -1.77673 -6.74595 0
M  V30 15397 H 1465.8 -0.583563 -6.42857 0
M  V30 15398 H 1466.57 -2.01333 -7.93352 0
M  V30 15399 N 1469.23 1.56605 0.176793 0
M  V30 15400 C 1470.46 1.8617 0.91408 0
M  V30 15401 C 1470.88 0.68262 1.75277 0
M  V30 15402 O 1470.24 -0.368391 1.77518 0
M  V30 15403 C 1470.29 3.14109 1.7711 0
M  V30 15404 O 1469.39 2.95947 2.87209 0
M  V30 15405 H 1468.73 0.612507 0.25638 0
M  V30 15406 H 1471.26 2.03837 0.176586 0
M  V30 15407 H 1471.27 3.45373 2.17213 0
M  V30 15408 H 1469.95 3.9954 1.15502 0
M  V30 15409 H 1468.52 2.76024 2.50729 0
M  V30 15410 N 1470.71 -0.445159 1.51182 0
M  V30 15411 C 1471.64 -1.5473 1.74874 0
M  V30 15412 C 1472.62 -1.5923 0.598323 0
M  V30 15413 O 1473.81 -1.75083 0.840219 0
M  V30 15414 C 1470.94 -2.92872 1.86664 0
M  V30 15415 C 1469.89 -3.03235 3.02048 0
M  V30 15416 C 1469.22 -4.43279 2.99012 0
M  V30 15417 C 1470.52 -2.7804 4.42144 0
M  V30 15418 H 1472.21 -1.35156 2.67158 0
M  V30 15419 H 1469.76 -0.648763 1.28558 0
M  V30 15420 H 1471.71 -3.69927 2.01822 0
M  V30 15421 H 1470.43 -3.1366 0.910225 0
M  V30 15422 H 1469.09 -2.28617 2.86583 0
M  V30 15423 H 1468.74 -4.61023 2.01163 0
M  V30 15424 H 1468.44 -4.51144 3.76488 0
M  V30 15425 H 1469.96 -5.22319 3.16252 0
M  V30 15426 H 1471.38 -3.44831 4.58 0
M  V30 15427 H 1469.77 -2.97323 5.21267 0
M  V30 15428 H 1470.84 -1.737 4.52721 0
M  V30 15429 N 1472.19 -1.41197 -0.700089 0
M  V30 15430 C 1473.12 -1.45456 -1.8266 0
M  V30 15431 C 1474.1 -0.313719 -1.67182 0
M  V30 15432 O 1475.28 -0.524528 -1.86982 0
M  V30 15433 C 1472.41 -1.33161 -3.20758 0
M  V30 15434 C 1471.37 -2.4501 -3.50933 0
M  V30 15435 C 1470.69 -2.17782 -4.88339 0
M  V30 15436 C 1471.99 -3.87352 -3.50365 0
M  V30 15437 H 1473.69 -2.39735 -1.79353 0
M  V30 15438 H 1471.23 -1.1539 -0.861465 0
M  V30 15439 H 1473.19 -1.34754 -3.99274 0
M  V30 15440 H 1471.91 -0.353646 -3.2468 0
M  V30 15441 H 1470.57 -2.42692 -2.74766 0
M  V30 15442 H 1470.22 -1.1834 -4.88881 0
M  V30 15443 H 1469.92 -2.92728 -5.09494 0
M  V30 15444 H 1471.44 -2.21083 -5.6917 0
M  V30 15445 H 1472.86 -3.9141 -4.18893 0
M  V30 15446 H 1471.25 -4.61944 -3.83051 0
M  V30 15447 H 1472.32 -4.15827 -2.4943 0
M  V30 15448 N 1473.67 0.933891 -1.2695 0
M  V30 15449 C 1474.91 1.67539 -1.1231 0
M  V30 15450 C 1475.23 1.92765 0.331788 0
M  V30 15451 O 1476.43 2.6481 0.598983 0
M  V30 15452 C 1474.89 3.01722 -1.96194 0
M  V30 15453 C 1474.5 2.84216 -3.46302 0
M  V30 15454 C 1476.24 3.79513 -1.90185 0
M  V30 15455 C 1474.15 4.13916 -4.22407 0
M  V30 15456 H 1473.08 0.62839 -0.416704 0
M  V30 15457 H 1475.73 1.03801 -1.5132 0
M  V30 15458 H 1474.11 3.66482 -1.50023 0
M  V30 15459 H 1475.29 2.28261 -4.00292 0
M  V30 15460 H 1473.6 2.1986 -3.53625 0
M  V30 15461 H 1476.2 4.75615 -2.44325 0
M  V30 15462 H 1476.54 4.07019 -0.874129 0
M  V30 15463 H 1477.07 3.21539 -2.34217 0
M  V30 15464 H 1473.81 3.91591 -5.25677 0
M  V30 15465 H 1473.33 4.69558 -3.73196 0
M  V30 15466 H 1475.01 4.82322 -4.31248 0
M  V30 15467 N 1475.14 1.08871 1.13951 0
M  V30 15468 C 1476.39 0.821287 1.85098 0
M  V30 15469 C 1476.72 -0.65302 1.8321 0
M  V30 15470 O 1475.97 -1.49629 1.26134 0
M  V30 15471 C 1476.27 1.29443 3.33135 0
M  V30 15472 C 1475.94 2.77737 3.55208 0
M  V30 15473 C 1474.6 3.18238 3.60941 0
M  V30 15474 C 1476.95 3.7338 3.63644 0
M  V30 15475 C 1474.28 4.53165 3.72637 0
M  V30 15476 C 1476.63 5.08089 3.76867 0
M  V30 15477 C 1475.3 5.48187 3.8085 0
M  V30 15478 H 1474.57 0.30053 0.67732 0
M  V30 15479 H 1477.21 1.36249 1.34568 0
M  V30 15480 H 1475.52 0.672919 3.85978 0
M  V30 15481 H 1477.22 1.06421 3.86621 0
M  V30 15482 H 1473.81 2.45393 3.51398 0
M  V30 15483 H 1477.99 3.43207 3.58501 0
M  V30 15484 H 1473.25 4.83679 3.73985 0
M  V30 15485 H 1477.42 5.82058 3.82337 0
M  V30 15486 H 1475.05 6.52737 3.89665 0
M  V30 15487 N 1476.62 -1.31073 0.875073 0
M  V30 15488 C 1477.87 -1.96809 0.489273 0
M  V30 15489 C 1478.2 -1.68979 -0.957073 0
M  V30 15490 O 1477.48 -0.989061 -1.67475 0
M  V30 15491 C 1477.76 -3.52139 0.752998 0
M  V30 15492 C 1477.61 -3.89524 2.24925 0
M  V30 15493 C 1478.93 -4.39535 0.222871 0
M  V30 15494 H 1476.05 -0.714873 0.179238 0
M  V30 15495 H 1478.69 -1.55114 1.09725 0
M  V30 15496 H 1476.84 -3.87785 0.23553 0
M  V30 15497 H 1478.51 -3.63953 2.83436 0
M  V30 15498 H 1476.76 -3.37948 2.71981 0
M  V30 15499 H 1477.43 -4.97845 2.38441 0
M  V30 15500 H 1479.9 -4.10741 0.665645 0
M  V30 15501 H 1478.78 -5.47159 0.436806 0
M  V30 15502 H 1479.04 -4.33346 -0.875445 0
M  V30 15503 N 1478.1 -0.635022 -1.4424 0
M  V30 15504 C 1479.33 -0.148045 -2.06069 0
M  V30 15505 C 1479.74 1.1842 -1.47558 0
M  V30 15506 O 1479.08 1.73817 -0.594425 0
M  V30 15507 C 1479.14 0.0369593 -3.59481 0
M  V30 15508 C 1478.81 -1.21773 -4.40478 0
M  V30 15509 C 1479.8 -2.14233 -4.73709 0
M  V30 15510 C 1477.49 -1.45423 -4.80788 0
M  V30 15511 C 1479.48 -3.2865 -5.46139 0
M  V30 15512 C 1477.17 -2.60136 -5.52967 0
M  V30 15513 C 1478.17 -3.51576 -5.85562 0
M  V30 15514 O 1477.86 -4.64289 -6.5627 0
M  V30 15515 H 1477.59 -0.0787231 -0.671401 0
M  V30 15516 H 1480.14 -0.870639 -1.86035 0
M  V30 15517 H 1478.37 0.814739 -3.7802 0
M  V30 15518 H 1480.06 0.478984 -4.03064 0
M  V30 15519 H 1480.83 -1.97196 -4.43101 0
M  V30 15520 H 1476.71 -0.751378 -4.54835 0
M  V30 15521 H 1480.25 -4.00043 -5.71499 0
M  V30 15522 H 1476.15 -2.77114 -5.82991 0
M  V30 15523 H 1476.92 -4.6332 -6.74742 0
M  V30 15524 N 1479.58 1.53054 -0.375806 0
M  V30 15525 C 1480.86 1.93761 0.26757 0
M  V30 15526 C 1481.24 1.31019 1.65521 0
M  V30 15527 O 1480.58 0.473138 2.23548 0
M  V30 15528 C 1480.79 3.47643 0.307505 0
M  V30 15529 C 1482.14 4.21114 0.542951 0
M  V30 15530 O 1483.17 3.54077 0.388285 0
M  V30 15531 O 1482.02 5.39929 0.8449 0
M  V30 15532 H 1479.12 0.810805 0.16286 0
M  V30 15533 H 1481.66 1.64179 -0.429334 0
M  V30 15534 H 1480.44 3.85608 -0.665001 0
M  V30 15535 H 1480.06 3.83488 1.04988 0
M  V30 15536 N 1481.06 0.105248 1.57248 0
M  V30 15537 C 1481.97 -0.864007 2.1811 0
M  V30 15538 C 1482.98 -1.30282 1.15337 0
M  V30 15539 O 1484.16 -1.36864 1.4775 0
M  V30 15540 C 1481.22 -2.1014 2.75757 0
M  V30 15541 C 1480.28 -1.71583 3.9352 0
M  V30 15542 C 1479.52 -2.89424 4.48408 0
M  V30 15543 O 1479.74 -4.04449 4.02215 0
M  V30 15544 O 1478.67 -2.67303 5.39289 0
M  V30 15545 H 1482.5 -0.376131 3.01362 0
M  V30 15546 H 1480.09 -0.119643 1.4892 0
M  V30 15547 H 1481.97 -2.82638 3.1256 0
M  V30 15548 H 1480.64 -2.57961 1.95545 0
M  V30 15549 H 1479.55 -0.962347 3.6151 0
M  V30 15550 H 1480.88 -1.28517 4.75126 0
M  V30 15551 N 1482.53 -1.56697 -0.168486 0
M  V30 15552 C 1483.78 -1.82424 -0.885965 0
M  V30 15553 C 1484.11 -0.683543 -1.81773 0
M  V30 15554 O 1483.39 0.314319 -1.91943 0
M  V30 15555 C 1483.67 -3.18553 -1.67917 0
M  V30 15556 C 1483.52 -4.43154 -0.770343 0
M  V30 15557 C 1484.84 -3.51654 -2.64627 0
M  V30 15558 H 1481.96 -0.663594 -0.320644 0
M  V30 15559 H 1484.6 -1.89391 -0.15205 0
M  V30 15560 H 1482.75 -3.12745 -2.30484 0
M  V30 15561 H 1484.43 -4.61032 -0.157328 0
M  V30 15562 H 1482.67 -4.33729 -0.0785653 0
M  V30 15563 H 1483.34 -5.34961 -1.36092 0
M  V30 15564 H 1485.82 -3.57934 -2.12185 0
M  V30 15565 H 1484.69 -4.47975 -3.17191 0
M  V30 15566 H 1484.95 -2.76503 -3.44961 0
M  V30 15567 N 1484.01 0.437135 -1.51416 0
M  V30 15568 C 1485.43 0.773631 -1.39596 0
M  V30 15569 C 1485.63 1.95737 -0.478463 0
M  V30 15570 O 1484.68 2.52413 0.0662971 0
M  V30 15571 C 1486 1.05381 -2.8163 0
M  V30 15572 C 1487.55 1.15824 -2.90782 0
M  V30 15573 C 1488.02 1.47135 -4.33722 0
M  V30 15574 N 1489.51 1.54059 -4.3683 0
M  V30 15575 C 1490.25 1.79858 -5.44462 0
M  V30 15576 N 1489.74 2.03449 -6.62254 0
M  V30 15577 N 1491.54 1.81642 -5.31942 0
M  V30 15578 H 1483.69 -0.342468 -2.09621 0
M  V30 15579 H 1485.95 -0.0908158 -0.94364 0
M  V30 15580 H 1485.66 0.256708 -3.50762 0
M  V30 15581 H 1485.53 1.98139 -3.20968 0
M  V30 15582 H 1487.92 1.94597 -2.21847 0
M  V30 15583 H 1488 0.209663 -2.54939 0
M  V30 15584 H 1487.64 0.688897 -5.03206 0
M  V30 15585 H 1487.57 2.43199 -4.67078 0
M  V30 15586 H 1490.06 1.3773 -3.51907 0
M  V30 15587 H 1490.38 2.22506 -7.40075 0
M  V30 15588 H 1488.72 2.00771 -6.65369 0
M  V30 15589 H 1491.91 1.62731 -4.38903 0
M  V30 15590 H 1492.08 2.01411 -6.15904 0
M  V30 15591 N 1485.49 1.41566 0.692592 0
M  V30 15592 C 1486.44 1.43648 1.80648 0
M  V30 15593 C 1487.41 0.290497 1.6354 0
M  V30 15594 O 1488.59 0.491979 1.84348 0
M  V30 15595 C 1485.73 1.32733 3.18553 0
M  V30 15596 C 1484.85 2.57224 3.47073 0
M  V30 15597 C 1483.98 2.38581 4.74608 0
M  V30 15598 C 1483.02 3.58534 4.96105 0
M  V30 15599 N 1482.16 3.38942 6.14868 0
M  V30 15600 H 1487 2.38847 1.78203 0
M  V30 15601 H 1484.53 1.186 0.870193 0
M  V30 15602 H 1486.49 1.24405 3.9822 0
M  V30 15603 H 1485.12 0.411407 3.20168 0
M  V30 15604 H 1484.17 2.7599 2.6179 0
M  V30 15605 H 1485.49 3.46443 3.58858 0
M  V30 15606 H 1484.64 2.27738 5.62335 0
M  V30 15607 H 1483.38 1.46824 4.65074 0
M  V30 15608 H 1482.38 3.69828 4.06826 0
M  V30 15609 H 1483.61 4.51248 5.07496 0
M  V30 15610 H 1481.55 2.49887 6.06541 0
M  V30 15611 H 1481.47 4.21737 6.27434 0
M  V30 15612 H 1482.74 3.31877 7.05321 0
M  V30 15613 N 1486.97 -0.927146 1.27443 0
M  V30 15614 C 1487.9 -2.04483 1.12735 0
M  V30 15615 C 1488.88 -1.70076 0.0286662 0
M  V30 15616 O 1490.06 -1.93133 0.203252 0
M  V30 15617 C 1487.19 -3.38557 0.774352 0
M  V30 15618 C 1486.15 -3.87078 1.82632 0
M  V30 15619 C 1485.47 -5.17964 1.32729 0
M  V30 15620 C 1486.77 -4.10409 3.23051 0
M  V30 15621 H 1488.47 -2.17046 2.06231 0
M  V30 15622 H 1486.01 -1.04292 0.992937 0
M  V30 15623 H 1487.97 -4.16227 0.658273 0
M  V30 15624 H 1486.69 -3.26009 -0.196321 0
M  V30 15625 H 1485.35 -3.11602 1.93132 0
M  V30 15626 H 1485 -5.01808 0.346059 0
M  V30 15627 H 1484.7 -5.51398 2.03061 0
M  V30 15628 H 1486.22 -5.98203 1.22416 0
M  V30 15629 H 1487.64 -4.78646 3.15549 0
M  V30 15630 H 1486.03 -4.5515 3.91099 0
M  V30 15631 H 1487.1 -3.15685 3.68064 0
M  V30 15632 N 1488.45 -1.09474 -1.13372 0
M  V30 15633 C 1489.7 -0.825968 -1.84013 0
M  V30 15634 C 1490.01 0.650623 -1.84462 0
M  V30 15635 O 1491.21 1.03495 -2.51 0
M  V30 15636 C 1489.67 -1.42769 -3.30371 0
M  V30 15637 C 1489.28 -2.93686 -3.38308 0
M  V30 15638 C 1491.02 -1.23788 -4.0605 0
M  V30 15639 C 1488.93 -3.46942 -4.78942 0
M  V30 15640 H 1487.86 -0.305322 -0.689416 0
M  V30 15641 H 1490.51 -1.31751 -1.27726 0
M  V30 15642 H 1488.89 -0.86384 -3.86463 0
M  V30 15643 H 1490.07 -3.56302 -2.92208 0
M  V30 15644 H 1488.38 -3.11706 -2.76094 0
M  V30 15645 H 1490.98 -1.61031 -5.09876 0
M  V30 15646 H 1491.32 -0.178578 -4.15917 0
M  V30 15647 H 1491.85 -1.76927 -3.56289 0
M  V30 15648 H 1488.59 -4.52495 -4.74267 0
M  V30 15649 H 1488.11 -2.8909 -5.25535 0
M  V30 15650 H 1489.79 -3.44176 -5.47861 0
M  V30 15651 N 1489.92 1.30607 -0.882012 0
M  V30 15652 C 1491.17 1.95531 -0.495038 0
M  V30 15653 C 1491.49 1.70418 0.96005 0
M  V30 15654 O 1492.69 2.29301 1.45373 0
M  V30 15655 C 1491.15 3.50094 -0.834382 0
M  V30 15656 C 1490.76 3.84031 -2.30704 0
M  V30 15657 C 1492.5 4.21347 -0.516463 0
M  V30 15658 C 1490.41 5.31759 -2.58817 0
M  V30 15659 H 1489.34 0.731854 -0.181399 0
M  V30 15660 H 1491.99 1.486 -1.07658 0
M  V30 15661 H 1490.37 3.95582 -0.181961 0
M  V30 15662 H 1491.54 3.49463 -3.00353 0
M  V30 15663 H 1489.86 3.25874 -2.5922 0
M  V30 15664 H 1492.46 5.30051 -0.703576 0
M  V30 15665 H 1492.8 4.12731 0.543935 0
M  V30 15666 H 1493.33 3.81533 -1.12595 0
M  V30 15667 H 1490.07 5.45422 -3.63586 0
M  V30 15668 H 1489.59 5.67637 -1.93774 0
M  V30 15669 H 1491.27 5.9916 -2.44165 0
M  V30 15670 N 1491.4 0.642663 1.43901 0
M  V30 15671 C 1492.82 0.309286 1.56575 0
M  V30 15672 C 1493.02 -1.18709 1.6282 0
M  V30 15673 O 1492.07 -1.97157 1.57751 0
M  V30 15674 C 1493.39 1.01136 2.83182 0
M  V30 15675 C 1494.94 0.9906 2.96911 0
M  V30 15676 C 1495.41 1.67336 4.26336 0
M  V30 15677 N 1496.9 1.6405 4.33177 0
M  V30 15678 C 1497.64 2.13762 5.32065 0
M  V30 15679 N 1497.13 2.71716 6.37293 0
M  V30 15680 N 1498.93 2.04323 5.23649 0
M  V30 15681 H 1491.08 1.61384 1.38091 0
M  V30 15682 H 1493.34 0.678084 0.6625 0
M  V30 15683 H 1493.05 2.0664 2.84592 0
M  V30 15684 H 1492.92 0.556304 3.73075 0
M  V30 15685 H 1495.31 -0.0559997 2.95047 0
M  V30 15686 H 1495.39 1.48425 2.08335 0
M  V30 15687 H 1495.03 2.71947 4.2896 0
M  V30 15688 H 1494.96 1.15445 5.1379 0
M  V30 15689 H 1497.45 1.21749 3.57751 0
M  V30 15690 H 1497.77 3.07352 7.09052 0
M  V30 15691 H 1496.11 2.75772 6.37946 0
M  V30 15692 H 1499.3 1.5876 4.40355 0
M  V30 15693 H 1499.47 2.43376 6.0056 0
M  V30 15694 N 1492.88 -1.52852 0.383918 0
M  V30 15695 C 1494.3 -1.59565 0.0336391 0
M  V30 15696 C 1494.5 -1.39819 -1.45097 0
M  V30 15697 O 1493.55 -1.21249 -2.21484 0
M  V30 15698 C 1494.87 -2.96412 0.506001 0
M  V30 15699 C 1496.41 -3.09575 0.461794 0
M  V30 15700 C 1496.89 -4.48863 0.910259 0
M  V30 15701 N 1498.38 -4.55032 0.866053 0
M  V30 15702 C 1499.12 -5.61032 1.18453 0
M  V30 15703 N 1498.61 -6.74701 1.57321 0
M  V30 15704 N 1500.4 -5.51109 1.10613 0
M  V30 15705 H 1492.56 -1.63937 1.3505 0
M  V30 15706 H 1494.82 -0.769857 0.553194 0
M  V30 15707 H 1494.52 -3.16061 1.54268 0
M  V30 15708 H 1494.4 -3.77073 -0.0977643 0
M  V30 15709 H 1496.79 -2.89625 -0.565786 0
M  V30 15710 H 1496.87 -2.30879 1.10129 0
M  V30 15711 H 1496.51 -4.69553 1.93604 0
M  V30 15712 H 1496.44 -5.26017 0.247825 0
M  V30 15713 H 1498.93 -3.73423 0.579962 0
M  V30 15714 H 1499.24 -7.51545 1.8 0
M  V30 15715 H 1497.59 -6.76046 1.61203 0
M  V30 15716 H 1500.78 -4.61187 0.801531 0
M  V30 15717 H 1500.95 -6.33618 1.35766 0
M  V30 15718 N 1494.36 -0.113586 -1.5719 0
M  V30 15719 C 1495.78 0.243023 -1.57739 0
M  V30 15720 C 1495.98 1.67105 -1.12597 0
M  V30 15721 O 1495.03 2.39126 -0.810874 0
M  V30 15722 C 1496.34 0.014629 -3.00696 0
M  V30 15723 C 1497.89 0.0809485 -3.12895 0
M  V30 15724 C 1498.37 -0.119685 -4.57844 0
M  V30 15725 N 1499.86 -0.0654711 -4.63154 0
M  V30 15726 C 1500.59 -0.195692 -5.73066 0
M  V30 15727 N 1500.09 -0.381782 -6.91747 0
M  V30 15728 N 1501.88 -0.13565 -5.61936 0
M  V30 15729 H 1494.03 -1.04639 -1.84836 0
M  V30 15730 H 1496.3 -0.411609 -0.85398 0
M  V30 15731 H 1496 -0.972399 -3.3799 0
M  V30 15732 H 1495.88 0.748882 -3.69691 0
M  V30 15733 H 1498.26 1.0585 -2.75463 0
M  V30 15734 H 1498.34 -0.685097 -2.46455 0
M  V30 15735 H 1497.99 -1.09418 -4.95974 0
M  V30 15736 H 1497.92 0.666281 -5.22368 0
M  V30 15737 H 1500.41 0.0750649 -3.77825 0
M  V30 15738 H 1500.72 -0.472157 -7.71356 0
M  V30 15739 H 1499.07 -0.417686 -6.93744 0
M  V30 15740 H 1502.26 0.0087301 -4.68099 0
M  V30 15741 H 1502.43 -0.240579 -6.47553 0
M  V30 15742 N 1495.84 1.56784 0.160173 0
M  V30 15743 C 1497.25 1.72193 0.721552 0
M  V30 15744 C 1497.6 0.725901 1.82278 0
M  V30 15745 O 1496.72 -0.110343 2.16118 0
M  V30 15746 C 1497.32 3.12212 1.31563 0
M  V30 15747 C 1495.88 3.29268 1.82371 0
M  V30 15748 C 1495.03 2.68136 0.70701 0
M  V30 15749 H 1497.98 1.58565 -0.0653521 0
M  V30 15750 H 1498 3.11481 2.1854 0
M  V30 15751 H 1497.51 3.84682 0.513917 0
M  V30 15752 H 1495.61 2.61774 2.65152 0
M  V30 15753 H 1495.72 4.37107 1.96149 0
M  V30 15754 H 1494.09 2.28246 1.1303 0
M  V30 15755 H 1494.87 3.432 -0.0830407 0
M  V30 15756 N 1497.32 -0.429099 1.51646 0
M  V30 15757 C 1498.56 -1.17551 1.64396 0
M  V30 15758 C 1498.88 -1.91526 0.366444 0
M  V30 15759 O 1498.15 -1.85896 -0.618013 0
M  V30 15760 H 1496.73 -0.436918 0.605898 0
M  V30 15761 H 1499.4 -0.491159 1.8861 0
M  V30 15762 H 1498.49 -1.90057 2.47557 0
M  V30 15763 N 1498.79 -1.41931 -0.685074 0
M  V30 15764 C 1500.04 -1.41571 -1.44229 0
M  V30 15765 C 1500.36 -0.0294445 -1.94978 0
M  V30 15766 O 1499.63 0.930414 -1.72395 0
M  V30 15767 H 1498.21 -0.521138 -0.535186 0
M  V30 15768 H 1500.87 -1.77263 -0.81017 0
M  V30 15769 H 1499.97 -2.10929 -2.30034 0
M  V30 15770 N 1500.27 0.920374 -1.27933 0
M  V30 15771 C 1501.52 1.67163 -1.1588 0
M  V30 15772 C 1501.87 1.90186 0.291025 0
M  V30 15773 O 1501.17 1.4864 1.209 0
M  V30 15774 C 1501.36 3.03725 -1.88377 0
M  V30 15775 C 1501.19 2.94029 -3.4026 0
M  V30 15776 C 1499.96 2.95912 -4.0959 0
M  V30 15777 C 1502.16 2.72596 -4.36115 0
M  V30 15778 N 1500.14 2.76734 -5.47988 0
M  V30 15779 C 1501.51 2.62196 -5.6183 0
M  V30 15780 C 1503.56 2.57541 -4.26119 0
M  V30 15781 C 1502.27 2.38276 -6.78688 0
M  V30 15782 C 1504.29 2.35 -5.42705 0
M  V30 15783 C 1503.66 2.25348 -6.67381 0
M  V30 15784 H 1499.75 0.618178 -0.478936 0
M  V30 15785 H 1502.34 1.0875 -1.61498 0
M  V30 15786 H 1500.51 3.60237 -1.45203 0
M  V30 15787 H 1502.24 3.67832 -1.68765 0
M  V30 15788 H 1499 3.06418 -3.61116 0
M  V30 15789 H 1499.42 2.70256 -6.20718 0
M  V30 15790 H 1504.06 2.63757 -3.30442 0
M  V30 15791 H 1501.78 2.30799 -7.7444 0
M  V30 15792 H 1505.37 2.24225 -5.36856 0
M  V30 15793 H 1504.25 2.08143 -7.56073 0
M  V30 15794 N 1501.75 1.10074 1.1279 0
M  V30 15795 C 1503 0.842118 1.84489 0
M  V30 15796 C 1503.33 -0.630737 1.83672 0
M  V30 15797 O 1502.6 -1.46481 1.27959 0
M  V30 15798 C 1502.89 1.3864 3.32342 0
M  V30 15799 C 1502.74 2.92585 3.41635 0
M  V30 15800 C 1504.06 1.02565 4.27982 0
M  V30 15801 H 1501.18 0.307376 0.669842 0
M  V30 15802 H 1503.82 1.36326 1.32345 0
M  V30 15803 H 1501.97 0.943134 3.76878 0
M  V30 15804 H 1503.64 3.4541 3.0576 0
M  V30 15805 H 1501.88 3.29378 2.82299 0
M  V30 15806 H 1502.56 3.25749 4.45636 0
M  V30 15807 H 1505.03 1.40807 3.91552 0
M  V30 15808 H 1503.91 1.43345 5.29852 0
M  V30 15809 H 1504.17 -0.0653712 4.42052 0
M  V30 15810 N 1503.23 -1.30138 0.888926 0
M  V30 15811 C 1504.14 -2.31778 0.3628 0
M  V30 15812 C 1505.15 -1.65507 -0.53698 0
M  V30 15813 O 1506.33 -1.96775 -0.429152 0
M  V30 15814 C 1503.39 -3.44259 -0.410673 0
M  V30 15815 C 1502.46 -4.26147 0.519334 0
M  V30 15816 C 1501.69 -5.33257 -0.21732 0
M  V30 15817 O 1501.91 -5.5185 -1.44284 0
M  V30 15818 O 1500.85 -6.00329 0.43461 0
M  V30 15819 H 1504.67 -2.78739 1.20575 0
M  V30 15820 H 1502.26 -1.34379 0.65289 0
M  V30 15821 H 1504.14 -4.1277 -0.848467 0
M  V30 15822 H 1502.81 -2.99426 -1.22986 0
M  V30 15823 H 1501.72 -3.60319 1.00602 0
M  V30 15824 H 1503.05 -4.74595 1.30464 0
M  V30 15825 N 1504.71 -0.650285 -1.43559 0
M  V30 15826 C 1505.65 0.043098 -2.3076 0
M  V30 15827 C 1506.62 0.81763 -1.44582 0
M  V30 15828 O 1507.81 0.794825 -1.73457 0
M  V30 15829 C 1504.95 1.00557 -3.30125 0
M  V30 15830 C 1504.06 0.227448 -4.31401 0
M  V30 15831 C 1503.2 1.18345 -5.17849 0
M  V30 15832 C 1502.23 0.395596 -6.1082 0
M  V30 15833 N 1501.37 1.30304 -6.89902 0
M  V30 15834 H 1506.21 -0.706402 -2.89506 0
M  V30 15835 H 1503.75 -0.360118 -1.42624 0
M  V30 15836 H 1505.71 1.57717 -3.8624 0
M  V30 15837 H 1504.34 1.72198 -2.73034 0
M  V30 15838 H 1503.39 -0.460391 -3.77604 0
M  V30 15839 H 1504.7 -0.385316 -4.9731 0
M  V30 15840 H 1503.85 1.82578 -5.78576 0
M  V30 15841 H 1502.59 1.83013 -4.52059 0
M  V30 15842 H 1501.6 -0.260099 -5.49184 0
M  V30 15843 H 1502.82 -0.246633 -6.78652 0
M  V30 15844 H 1500.77 1.93657 -6.26764 0
M  V30 15845 H 1500.69 0.744768 -7.52323 0
M  V30 15846 H 1501.95 1.93361 -7.55137 0
M  V30 15847 N 1506.18 1.52647 -0.392018 0
M  V30 15848 C 1507.09 2.30261 0.449093 0
M  V30 15849 C 1508.11 1.37286 1.06905 0
M  V30 15850 O 1509.29 1.70357 1.07427 0
M  V30 15851 C 1506.35 3.09636 1.55969 0
M  V30 15852 C 1505.41 4.18324 0.964566 0
M  V30 15853 C 1504.64 4.93904 2.02224 0
M  V30 15854 O 1504.87 4.69603 3.23773 0
M  V30 15855 O 1503.8 5.79183 1.63802 0
M  V30 15856 H 1507.63 3.03147 -0.183269 0
M  V30 15857 H 1505.21 1.48587 -0.155664 0
M  V30 15858 H 1507.09 3.59118 2.20482 0
M  V30 15859 H 1505.77 2.39561 2.17697 0
M  V30 15860 H 1504.68 3.73031 0.282618 0
M  V30 15861 H 1506.01 4.90641 0.391466 0
M  V30 15862 N 1507.66 0.121921 1.57128 0
M  V30 15863 C 1508.89 -0.543012 1.99647 0
M  V30 15864 C 1509.31 -1.60038 1.00165 0
M  V30 15865 O 1508.66 -1.82499 -0.00504688 0
M  V30 15866 C 1508.71 -1.1665 3.42162 0
M  V30 15867 O 1508.43 -0.151385 4.37838 0
M  V30 15868 C 1509.94 -1.91447 3.99829 0
M  V30 15869 H 1507.16 -0.143524 0.655471 0
M  V30 15870 H 1509.7 0.20912 2.03428 0
M  V30 15871 H 1507.85 -1.86939 3.39312 0
M  V30 15872 H 1508.27 -0.604773 5.21002 0
M  V30 15873 H 1509.74 -2.30394 5.0162 0
M  V30 15874 H 1510.22 -2.7908 3.39133 0
M  V30 15875 H 1510.83 -1.25913 4.06234 0
M  V30 15876 N 1509.14 -1.56867 -0.151857 0
M  V30 15877 C 1510.37 -1.86965 -0.879066 0
M  V30 15878 C 1510.78 -0.70756 -1.75471 0
M  V30 15879 O 1510.12 0.331966 -1.80676 0
M  V30 15880 C 1510.18 -3.11712 -1.79098 0
M  V30 15881 C 1509.85 -4.43737 -1.09298 0
M  V30 15882 C 1510.84 -5.17956 -0.449181 0
M  V30 15883 C 1508.53 -4.90465 -1.08394 0
M  V30 15884 C 1510.52 -6.37104 0.194342 0
M  V30 15885 C 1508.21 -6.09538 -0.436597 0
M  V30 15886 C 1509.21 -6.82703 0.201419 0
M  V30 15887 O 1508.9 -7.99515 0.838504 0
M  V30 15888 H 1508.63 -0.624074 -0.259822 0
M  V30 15889 H 1511.18 -2.04845 -0.150844 0
M  V30 15890 H 1509.41 -2.89828 -2.56002 0
M  V30 15891 H 1511.1 -3.28097 -2.38972 0
M  V30 15892 H 1511.87 -4.82926 -0.448012 0
M  V30 15893 H 1507.75 -4.33444 -1.56995 0
M  V30 15894 H 1511.29 -6.9415 0.69293 0
M  V30 15895 H 1507.19 -6.4403 -0.435417 0
M  V30 15896 H 1507.96 -8.15151 0.739688 0
M  V30 15897 N 1510.62 0.421051 -1.51871 0
M  V30 15898 C 1511.85 1.18938 -1.6893 0
M  V30 15899 C 1512.26 1.85069 -0.393198 0
M  V30 15900 O 1511.6 1.72204 0.639648 0
M  V30 15901 C 1511.66 2.30343 -2.76012 0
M  V30 15902 C 1511.33 1.84446 -4.18125 0
M  V30 15903 C 1512.32 1.33882 -5.02366 0
M  V30 15904 C 1510.01 1.91642 -4.64305 0
M  V30 15905 C 1512 0.911212 -6.30853 0
M  V30 15906 C 1509.69 1.48492 -5.92784 0
M  V30 15907 C 1510.69 0.98316 -6.75887 0
M  V30 15908 O 1510.37 0.557853 -8.01962 0
M  V30 15909 H 1510.11 0.363908 -0.56969 0
M  V30 15910 H 1512.66 0.503089 -1.99144 0
M  V30 15911 H 1510.89 3.02298 -2.41148 0
M  V30 15912 H 1512.58 2.92148 -2.81787 0
M  V30 15913 H 1513.35 1.27704 -4.67885 0
M  V30 15914 H 1509.22 2.29641 -3.99732 0
M  V30 15915 H 1512.77 0.518877 -6.95668 0
M  V30 15916 H 1508.67 1.54345 -6.26776 0
M  V30 15917 H 1509.43 0.682238 -8.15652 0
M  V30 15918 O 1512.14 1.51224 0.566886 0
M  V30 15919 H 1512.83 1.50292 1.22196 0
M  V30 END ATOM
M  V30 BEGIN BOND
M  V30 END BOND
M  V30 END CTAB
M  END
$$$$
